# Generated by pormake.
# Topology smn, (6)-cn, num edge types: 1
# Building blocks:
#     Node 0, Type 0, BuildingBlock: IZENUY_clean_sbu_0, # of connection points: 6
#     Node 1, Type 0, BuildingBlock: IZENUY_clean_sbu_0, # of connection points: 6
#     Node 2, Type 0, BuildingBlock: IZENUY_clean_sbu_0, # of connection points: 6
#     Node 3, Type 0, BuildingBlock: IZENUY_clean_sbu_0, # of connection points: 6
#     Node 4, Type 0, BuildingBlock: IZENUY_clean_sbu_0, # of connection points: 6
#     Node 5, Type 0, BuildingBlock: IZENUY_clean_sbu_0, # of connection points: 6
#     Node 6, Type 0, BuildingBlock: IZENUY_clean_sbu_0, # of connection points: 6
#     Node 7, Type 0, BuildingBlock: IZENUY_clean_sbu_0, # of connection points: 6
#     Node 8, Type 0, BuildingBlock: IZENUY_clean_sbu_0, # of connection points: 6
#     Node 9, Type 0, BuildingBlock: IZENUY_clean_sbu_0, # of connection points: 6
#     Node 10, Type 0, BuildingBlock: IZENUY_clean_sbu_0, # of connection points: 6
#     Node 11, Type 0, BuildingBlock: IZENUY_clean_sbu_0, # of connection points: 6
#     Node 12, Type 0, BuildingBlock: IZENUY_clean_sbu_0, # of connection points: 6
#     Node 13, Type 0, BuildingBlock: IZENUY_clean_sbu_0, # of connection points: 6
#     Node 14, Type 0, BuildingBlock: IZENUY_clean_sbu_0, # of connection points: 6
#     Node 15, Type 0, BuildingBlock: IZENUY_clean_sbu_0, # of connection points: 6
#     Node 16, Type 0, BuildingBlock: IZENUY_clean_sbu_0, # of connection points: 6
#     Node 17, Type 0, BuildingBlock: IZENUY_clean_sbu_0, # of connection points: 6
#     Edge 18, Type (0, 0), BuildingBlock: UVAHIK_clean_linker_0, # of connection points: 2
#     Edge 19, Type (0, 0), BuildingBlock: UVAHIK_clean_linker_0, # of connection points: 2
#     Edge 20, Type (0, 0), BuildingBlock: UVAHIK_clean_linker_0, # of connection points: 2
#     Edge 21, Type (0, 0), BuildingBlock: UVAHIK_clean_linker_0, # of connection points: 2
#     Edge 22, Type (0, 0), BuildingBlock: UVAHIK_clean_linker_0, # of connection points: 2
#     Edge 23, Type (0, 0), BuildingBlock: UVAHIK_clean_linker_0, # of connection points: 2
#     Edge 24, Type (0, 0), BuildingBlock: UVAHIK_clean_linker_0, # of connection points: 2
#     Edge 25, Type (0, 0), BuildingBlock: UVAHIK_clean_linker_0, # of connection points: 2
#     Edge 26, Type (0, 0), BuildingBlock: UVAHIK_clean_linker_0, # of connection points: 2
#     Edge 27, Type (0, 0), BuildingBlock: UVAHIK_clean_linker_0, # of connection points: 2
#     Edge 28, Type (0, 0), BuildingBlock: UVAHIK_clean_linker_0, # of connection points: 2
#     Edge 29, Type (0, 0), BuildingBlock: UVAHIK_clean_linker_0, # of connection points: 2
#     Edge 30, Type (0, 0), BuildingBlock: UVAHIK_clean_linker_0, # of connection points: 2
#     Edge 31, Type (0, 0), BuildingBlock: UVAHIK_clean_linker_0, # of connection points: 2
#     Edge 32, Type (0, 0), BuildingBlock: UVAHIK_clean_linker_0, # of connection points: 2
#     Edge 33, Type (0, 0), BuildingBlock: UVAHIK_clean_linker_0, # of connection points: 2
#     Edge 34, Type (0, 0), BuildingBlock: UVAHIK_clean_linker_0, # of connection points: 2
#     Edge 35, Type (0, 0), BuildingBlock: UVAHIK_clean_linker_0, # of connection points: 2
#     Edge 36, Type (0, 0), BuildingBlock: UVAHIK_clean_linker_0, # of connection points: 2
#     Edge 37, Type (0, 0), BuildingBlock: UVAHIK_clean_linker_0, # of connection points: 2
#     Edge 38, Type (0, 0), BuildingBlock: UVAHIK_clean_linker_0, # of connection points: 2
#     Edge 39, Type (0, 0), BuildingBlock: UVAHIK_clean_linker_0, # of connection points: 2
#     Edge 40, Type (0, 0), BuildingBlock: UVAHIK_clean_linker_0, # of connection points: 2
#     Edge 41, Type (0, 0), BuildingBlock: UVAHIK_clean_linker_0, # of connection points: 2
#     Edge 42, Type (0, 0), BuildingBlock: UVAHIK_clean_linker_0, # of connection points: 2
#     Edge 43, Type (0, 0), BuildingBlock: UVAHIK_clean_linker_0, # of connection points: 2
#     Edge 44, Type (0, 0), BuildingBlock: UVAHIK_clean_linker_0, # of connection points: 2
#     Edge 45, Type (0, 0), BuildingBlock: UVAHIK_clean_linker_0, # of connection points: 2
#     Edge 46, Type (0, 0), BuildingBlock: UVAHIK_clean_linker_0, # of connection points: 2
#     Edge 47, Type (0, 0), BuildingBlock: UVAHIK_clean_linker_0, # of connection points: 2
#     Edge 48, Type (0, 0), BuildingBlock: UVAHIK_clean_linker_0, # of connection points: 2
#     Edge 49, Type (0, 0), BuildingBlock: UVAHIK_clean_linker_0, # of connection points: 2
#     Edge 50, Type (0, 0), BuildingBlock: UVAHIK_clean_linker_0, # of connection points: 2
#     Edge 51, Type (0, 0), BuildingBlock: UVAHIK_clean_linker_0, # of connection points: 2
#     Edge 52, Type (0, 0), BuildingBlock: UVAHIK_clean_linker_0, # of connection points: 2
#     Edge 53, Type (0, 0), BuildingBlock: UVAHIK_clean_linker_0, # of connection points: 2
#     Edge 54, Type (0, 0), BuildingBlock: UVAHIK_clean_linker_0, # of connection points: 2
#     Edge 55, Type (0, 0), BuildingBlock: UVAHIK_clean_linker_0, # of connection points: 2
#     Edge 56, Type (0, 0), BuildingBlock: UVAHIK_clean_linker_0, # of connection points: 2
#     Edge 57, Type (0, 0), BuildingBlock: UVAHIK_clean_linker_0, # of connection points: 2
#     Edge 58, Type (0, 0), BuildingBlock: UVAHIK_clean_linker_0, # of connection points: 2
#     Edge 59, Type (0, 0), BuildingBlock: UVAHIK_clean_linker_0, # of connection points: 2
#     Edge 60, Type (0, 0), BuildingBlock: UVAHIK_clean_linker_0, # of connection points: 2
#     Edge 61, Type (0, 0), BuildingBlock: UVAHIK_clean_linker_0, # of connection points: 2
#     Edge 62, Type (0, 0), BuildingBlock: UVAHIK_clean_linker_0, # of connection points: 2
#     Edge 63, Type (0, 0), BuildingBlock: UVAHIK_clean_linker_0, # of connection points: 2
#     Edge 64, Type (0, 0), BuildingBlock: UVAHIK_clean_linker_0, # of connection points: 2
#     Edge 65, Type (0, 0), BuildingBlock: UVAHIK_clean_linker_0, # of connection points: 2
#     Edge 66, Type (0, 0), BuildingBlock: UVAHIK_clean_linker_0, # of connection points: 2
#     Edge 67, Type (0, 0), BuildingBlock: UVAHIK_clean_linker_0, # of connection points: 2
#     Edge 68, Type (0, 0), BuildingBlock: UVAHIK_clean_linker_0, # of connection points: 2
#     Edge 69, Type (0, 0), BuildingBlock: UVAHIK_clean_linker_0, # of connection points: 2
#     Edge 70, Type (0, 0), BuildingBlock: UVAHIK_clean_linker_0, # of connection points: 2
#     Edge 71, Type (0, 0), BuildingBlock: UVAHIK_clean_linker_0, # of connection points: 2
# Relax obj value: 0.164
# Max RMSD: 0.234
# Mean RMSD: 0.233
data_MOF--net-smn--node1-IZENUY_clean_sbu_0--edge1-UVAHIK_clean_linker_0
_symmetry_space_group_name_H-M    P1
_symmetry_Int_Tables_number       1
_symmetry_cell_setting            triclinic
loop_
_symmetry_equiv_pos_as_xyz
'x, y, z'
_cell_length_a     79.869105
_cell_length_b     79.859275
_cell_length_c     23.873646
_cell_angle_alpha  90.013548
_cell_angle_beta   89.983618
_cell_angle_gamma 120.06579
loop_
_atom_site_label
_atom_site_type_symbol
_atom_site_fract_x
_atom_site_fract_y
_atom_site_fract_z
_atom_type_partial_charge
Fe0 Fe 0.01547 0.22573 0.68921 0.0
Fe1 Fe 0.02256 0.19614 0.74968 0.0
O2 O 0.02257 0.21827 0.75021 0.0
Fe3 Fe 0.02969 0.23262 0.81166 0.0
O4 O 1.00678 0.23165 0.81609 0.0
O5 O 1.00416 0.2378 0.72769 0.0
O6 O 0.99182 0.20398 0.6886 0.0
C7 C 0.98942 0.18717 0.68557 0.0
C8 C 0.04643 0.2601 0.72295 0.0
O9 O 1.00319 0.18426 0.69745 0.0
C10 C 0.05564 0.22004 0.81452 0.0
O11 O 0.02607 0.21539 0.6406 0.0
O12 O 0.04118 0.20538 0.69688 0.0
O13 O 0.04115 0.25616 0.77382 0.0
O14 O 0.03843 0.24766 0.68509 0.0
C15 C 1.00534 0.19434 0.84946 0.0
O16 O 0.04191 0.2034 0.80181 0.0
O17 O 0.05329 0.23448 0.81211 0.0
C18 C 0.0398 0.21206 0.65035 0.0
O19 O 1.00397 0.18649 0.80254 0.0
O20 O 0.01898 0.21146 0.85961 0.0
C21 C 0.9989 0.23634 0.77858 0.0
Fe22 Fe 0.80849 0.8108 0.81436 0.0
Fe23 Fe 0.84426 0.84015 0.75012 0.0
O24 O 0.82232 0.81784 0.75196 0.0
Fe25 Fe 0.81473 0.80309 0.69133 0.0
O26 O 0.79234 0.80329 0.68859 0.0
O27 O 0.78469 0.79861 0.77822 0.0
O28 O 0.80664 0.83266 0.81539 0.0
C29 C 0.82127 0.84933 0.81866 0.0
C30 C 0.80484 0.77615 0.78132 0.0
O31 O 0.83764 0.85199 0.80441 0.0
C32 C 0.8534 0.81675 0.68369 0.0
O33 O 0.83017 0.82135 0.86051 0.0
O34 O 0.85459 0.8313 0.80114 0.0
O35 O 0.80348 0.7798 0.73023 0.0
O36 O 0.80935 0.78878 0.81864 0.0
C37 C 0.82739 0.84109 0.65257 0.0
O38 O 0.85568 0.83317 0.69553 0.0
O39 O 0.83697 0.80188 0.68909 0.0
C40 C 0.84722 0.8249 0.84872 0.0
O41 O 0.83417 0.84925 0.69903 0.0
O42 O 0.8242 0.82405 0.64259 0.0
C43 C 0.78026 0.7992 0.72738 0.0
Fe44 Fe 0.22881 0.01039 0.81679 0.0
Fe45 Fe 0.19782 0.0153 0.75583 0.0
O46 O 0.22084 0.01714 0.75617 0.0
Fe47 Fe 0.2355 0.0255 0.69525 0.0
O48 O 0.23594 1.00329 0.68925 0.0
O49 O 0.24181 1.00023 0.77772 0.0
O50 O 0.20789 0.9861 0.81697 0.0
C51 C 0.19064 0.9825 0.81898 0.0
C52 C 0.26258 0.04244 0.78485 0.0
O53 O 0.18657 0.99539 0.8063 0.0
C54 C 0.22059 0.0495 0.69305 0.0
O55 O 0.2175 0.01982 0.86557 0.0
O56 O 0.20503 0.03311 0.81075 0.0
O57 O 0.25887 0.03758 0.73371 0.0
O58 O 0.25003 0.03394 0.8221 0.0
C59 C 0.19807 0.99974 0.65483 0.0
O60 O 0.20437 0.03493 0.70502 0.0
O61 O 0.23581 0.04846 0.69665 0.0
C62 C 0.21181 0.03194 0.85744 0.0
O63 O 0.1898 0.99723 0.70155 0.0
O64 O 0.21472 0.01431 0.64606 0.0
C65 C 0.24068 0.99535 0.72656 0.0
Fe66 Fe 0.01385 0.80166 0.19596 0.0
Fe67 Fe 0.02949 0.80954 0.317 0.0
O68 O 0.02217 0.81679 0.256 0.0
Fe69 Fe 0.02339 0.83957 0.25461 0.0
O70 O 0.04125 0.84765 0.19969 0.0
O71 O 0.02475 0.82213 0.14563 0.0
O72 O 0.03616 0.80144 0.19005 0.0
C73 C 0.04439 0.79715 0.22749 0.0
C74 C 0.98919 0.81581 0.19333 0.0
O75 O 0.03987 0.79656 0.27879 0.0
C76 C 0.00724 0.82589 0.35696 0.0
O77 O 1.00187 0.77855 0.23605 0.0
O78 O 1.00633 0.78814 0.32379 0.0
O79 O 1.00341 0.83232 0.20461 0.0
O80 O 0.99082 0.80096 0.19683 0.0
C81 C 0.05672 0.84786 0.31685 0.0
O82 O 0.01981 0.8208 0.36539 0.0
O83 O 1.00577 0.83231 0.30999 0.0
C84 C 0.99745 0.77526 0.28767 0.0
O85 O 0.05351 0.83075 0.31552 0.0
O86 O 0.04351 0.85149 0.30426 0.0
C87 C 0.03894 0.8391 0.15357 0.0
Fe88 Fe 0.23589 0.22209 0.1908 0.0
Fe89 Fe 0.19817 0.19594 0.25292 0.0
O90 O 0.22145 0.21689 0.25189 0.0
Fe91 Fe 0.22986 0.23229 0.31115 0.0
O92 O 0.25108 0.23005 0.31689 0.0
O93 O 0.2594 0.23344 0.22817 0.0
O94 O 0.23557 0.19922 0.19544 0.0
C95 C 0.22014 0.18314 0.19296 0.0
C96 C 0.24193 0.2582 0.21726 0.0
O97 O 0.2041 0.18207 0.20336 0.0
C98 C 0.19178 0.22236 0.31428 0.0
O99 O 0.21492 0.21233 0.1421 0.0
O100 O 0.19035 0.20581 0.19768 0.0
O101 O 0.24257 0.25507 0.2694 0.0
O102 O 0.23706 0.24489 0.1819 0.0
C103 C 0.21249 0.19384 0.3547 0.0
O104 O 0.18738 0.20524 0.30256 0.0
O105 O 0.20908 0.23582 0.31146 0.0
C106 C 0.19849 0.21084 0.15058 0.0
O107 O 0.20522 0.1856 0.30866 0.0
O108 O 0.21883 0.21189 0.3618 0.0
C109 C 0.26331 0.23314 0.27951 0.0
Fe110 Fe 0.84501 0.01968 0.25565 0.0
Fe111 Fe 0.80662 0.01018 0.31096 0.0
O112 O 0.82227 0.01851 0.25205 0.0
Fe113 Fe 0.8155 0.02577 0.18999 0.0
O114 O 0.83671 0.04975 0.19191 0.0
O115 O 0.85744 0.03989 0.20648 0.0
O116 O 0.85267 0.03741 0.31084 0.0
C117 C 0.84375 0.03487 0.35637 0.0
C118 C 0.83222 1.00354 0.1527 0.0
O119 O 0.82662 0.02082 0.36287 0.0
C120 C 0.78084 0.99406 0.21771 0.0
O121 O 0.83717 0.99955 0.30548 0.0
O122 O 0.80574 0.98707 0.31055 0.0
O123 O 0.82704 0.01599 0.143 0.0
O124 O 0.83826 1.00217 0.20033 0.0
C125 C 0.80255 0.0408 0.27786 0.0
O126 O 0.78382 0.99847 0.26938 0.0
O127 O 0.79411 1.00263 0.18249 0.0
C128 C 0.8205 0.98532 0.31534 0.0
O129 O 0.80658 0.03259 0.31603 0.0
O130 O 0.80232 0.03626 0.22669 0.0
C131 C 0.85383 0.05298 0.19207 0.0
Fe132 Fe 0.69617 0.56599 0.15032 0.0
Fe133 Fe 0.68379 0.52772 0.09027 0.0
O134 O 0.6869 0.55127 0.08971 0.0
Fe135 Fe 0.68062 0.55976 0.02923 0.0
O136 O 0.70461 0.58025 0.02334 0.0
O137 O 0.70905 0.58926 0.11155 0.0
O138 O 0.71844 0.56497 0.14783 0.0
C139 C 0.71858 0.54929 0.15128 0.0
C140 C 0.6671 0.57298 0.1203 0.0
O141 O 0.70341 0.53343 0.14036 0.0
C142 C 0.65141 0.5221 0.02761 0.0
O143 O 0.68434 0.54536 0.19996 0.0
O144 O 0.66604 0.52064 0.14516 0.0
O145 O 0.67153 0.57366 0.06882 0.0
O146 O 0.67472 0.56775 0.15722 0.0
C147 C 0.70042 0.54095 0.98815 0.0
O148 O 0.66367 0.51719 0.04051 0.0
O149 O 0.65588 0.53962 0.02931 0.0
C150 C 0.66921 0.52905 0.19181 0.0
O151 O 0.70123 0.53396 0.03487 0.0
O152 O 0.68909 0.54762 0.98013 0.0
C153 C 0.71371 0.59274 0.06023 0.0
Fe154 Fe 0.47373 0.14361 0.14907 0.0
Fe155 Fe 0.50977 0.17301 0.08522 0.0
O156 O 0.48765 0.1508 0.08668 0.0
Fe157 Fe 0.47991 0.13595 0.02623 0.0
O158 O 0.45772 0.13653 0.0235 0.0
O159 O 0.44994 0.13102 0.11272 0.0
O160 O 0.47157 0.16515 0.14951 0.0
C161 C 0.48592 0.18205 0.15103 0.0
C162 C 0.47032 0.10916 0.11651 0.0
O163 O 0.50255 0.18515 0.13731 0.0
C164 C 0.51859 0.14899 0.01984 0.0
O165 O 0.49512 0.15452 0.19608 0.0
O166 O 0.51965 0.16423 0.13779 0.0
O167 O 0.46851 0.11271 0.06561 0.0
O168 O 0.47509 0.1219 0.15359 0.0
C169 C 0.49411 0.17428 0.98555 0.0
O170 O 0.52142 0.16555 0.03263 0.0
O171 O 0.50191 0.1344 0.02395 0.0
C172 C 0.51216 0.15801 0.18517 0.0
O173 O 0.50073 0.18236 0.03215 0.0
O174 O 0.48947 0.15672 0.97693 0.0
C175 C 0.44555 0.13203 0.06215 0.0
Fe176 Fe 0.89654 0.34428 0.14682 0.0
Fe177 Fe 0.86635 0.35121 0.08923 0.0
O178 O 0.88854 0.35132 0.08665 0.0
Fe179 Fe 0.9025 0.35867 0.02444 0.0
O180 O 0.90195 0.33597 0.01918 0.0
O181 O 0.90857 0.33323 0.10697 0.0
O182 O 0.87494 0.32053 0.14813 0.0
C183 C 0.8581 0.31801 0.15219 0.0
C184 C 0.93052 0.37552 0.11192 0.0
O185 O 0.85495 0.33168 0.1411 0.0
C186 C 0.88931 0.38425 0.02296 0.0
O187 O 0.88632 0.35454 0.19694 0.0
O188 O 0.87594 0.36973 0.14242 0.0
O189 O 0.92626 0.37045 0.06102 0.0
O190 O 0.91837 0.36736 0.15037 0.0
C191 C 0.86367 0.33437 0.98812 0.0
O192 O 0.87301 0.37045 0.03761 0.0
O193 O 0.90397 0.38222 0.02428 0.0
C194 C 0.88277 0.36817 0.18845 0.0
O195 O 0.85623 0.33293 0.03579 0.0
O196 O 0.88104 0.34747 0.97771 0.0
C197 C 0.907 0.32815 0.05591 0.0
Fe198 Fe 0.68139 0.13632 0.52516 0.0
Fe199 Fe 0.69435 0.14164 0.64857 0.0
O200 O 0.68767 0.14981 0.58829 0.0
Fe201 Fe 0.68753 0.17187 0.59087 0.0
O202 O 0.70652 0.18219 0.53916 0.0
O203 O 0.6922 0.15803 0.4794 0.0
O204 O 0.70454 0.13771 0.5216 0.0
C205 C 0.71195 0.13239 0.55887 0.0
C206 C 0.65507 0.14844 0.52302 0.0
O207 O 0.70613 0.13021 0.60931 0.0
C208 C 0.67001 0.15545 0.68946 0.0
O209 O 0.66989 0.11229 0.56036 0.0
O210 O 0.67145 0.1196 0.64983 0.0
O211 O 0.66847 0.16498 0.53798 0.0
O212 O 0.65768 0.13413 0.52372 0.0
C213 C 0.72006 0.1802 0.65715 0.0
O214 O 0.68309 0.15105 0.69797 0.0
O215 O 0.66876 0.1624 0.64322 0.0
C216 C 0.66404 0.10765 0.61054 0.0
O217 O 0.71798 0.16355 0.65205 0.0
O218 O 0.70638 0.18311 0.6444 0.0
C219 C 0.70562 0.17504 0.49144 0.0
Fe220 Fe 0.86285 0.5244 0.58778 0.0
Fe221 Fe 0.89952 0.55481 0.52761 0.0
O222 O 0.88389 0.54773 0.58651 0.0
Fe223 Fe 0.88881 0.56353 0.6443 0.0
O224 O 0.86562 0.56248 0.63789 0.0
O225 O 0.84874 0.53098 0.63397 0.0
O226 O 0.85285 0.5305 0.52909 0.0
C227 C 0.86128 0.53677 0.48267 0.0
C228 C 0.87732 0.52664 0.69214 0.0
O229 O 0.87928 0.54272 0.47675 0.0
C230 C 0.92537 0.56992 0.62135 0.0
O231 O 0.87234 0.51267 0.54204 0.0
O232 O 0.90297 0.53411 0.53363 0.0
O233 O 0.87982 0.54366 0.69672 0.0
O234 O 0.87212 0.51748 0.64651 0.0
C235 C 0.89984 0.58885 0.54956 0.0
O236 O 0.9222 0.5685 0.56884 0.0
O237 O 0.912 0.56586 0.6558 0.0
C238 C 0.88948 0.51682 0.53181 0.0
O239 O 0.8975 0.57586 0.51566 0.0
O240 O 0.89931 0.58609 0.60208 0.0
C241 C 0.84967 0.54702 0.64242 0.0
Fe242 Fe 0.47237 0.34455 0.64952 0.0
Fe243 Fe 0.50945 0.35266 0.58983 0.0
O244 O 0.48678 0.35147 0.58827 0.0
Fe245 Fe 0.47887 0.3572 0.52569 0.0
O246 O 0.45744 0.33372 0.52338 0.0
O247 O 0.44888 0.33205 0.61171 0.0
O248 O 0.47151 0.32136 0.65242 0.0
C249 C 0.48649 0.31999 0.65691 0.0
C250 C 0.46747 0.37418 0.61194 0.0
O251 O 0.50284 0.33425 0.64452 0.0
C252 C 0.51711 0.38444 0.52148 0.0
O253 O 0.49345 0.35649 0.69772 0.0
O254 O 0.51823 0.37198 0.64045 0.0
O255 O 0.4661 0.36828 0.56172 0.0
O256 O 0.47242 0.36703 0.65096 0.0
C257 C 0.4943 0.33375 0.49177 0.0
O258 O 0.52073 0.37133 0.53561 0.0
O259 O 0.50001 0.38128 0.52303 0.0
C260 C 0.51021 0.37069 0.68701 0.0
O261 O 0.5011 0.33339 0.53918 0.0
O262 O 0.48998 0.34666 0.47966 0.0
C263 C 0.44501 0.32608 0.56144 0.0
Fe264 Fe 0.36108 0.89759 0.48006 0.0
Fe265 Fe 0.34332 0.88779 0.36113 0.0
O266 O 0.35361 0.88263 0.4198 0.0
Fe267 Fe 0.35644 0.86201 0.4176 0.0
O268 O 0.33943 0.85101 0.47397 0.0
O269 O 0.35258 0.87679 0.52904 0.0
O270 O 0.33751 0.89491 0.48957 0.0
C271 C 0.32761 0.8978 0.45419 0.0
C272 C 0.38962 0.8883 0.47823 0.0
O273 O 0.33087 0.89802 0.40214 0.0
C274 C 0.37003 0.87813 0.31578 0.0
O275 O 0.37025 0.92063 0.44025 0.0
O276 O 0.36423 0.91115 0.35207 0.0
O277 O 0.37691 0.87121 0.46608 0.0
O278 O 0.38558 0.90162 0.47674 0.0
C279 C 0.32109 0.84869 0.36039 0.0
O280 O 0.35475 0.87918 0.30953 0.0
O281 O 0.37368 0.87271 0.36148 0.0
C282 C 0.37255 0.92429 0.38795 0.0
O283 O 0.32123 0.86444 0.3657 0.0
O284 O 0.33645 0.84815 0.3686 0.0
C285 C 0.34073 0.8588 0.52108 0.0
Fe286 Fe 0.14146 0.47748 0.47724 0.0
Fe287 Fe 0.17613 0.5083 0.41171 0.0
O288 O 0.15514 0.48518 0.41467 0.0
Fe289 Fe 0.14815 0.47016 0.3545 0.0
O290 O 0.12526 0.46926 0.35146 0.0
O291 O 0.11766 0.46403 0.44108 0.0
O292 O 0.13783 0.49822 0.47832 0.0
C293 C 0.15142 0.51552 0.47886 0.0
C294 C 0.13954 0.44367 0.44497 0.0
O295 O 0.16822 0.51963 0.4641 0.0
C296 C 0.18708 0.48561 0.34801 0.0
O297 O 0.1631 0.48933 0.52319 0.0
O298 O 0.18773 0.50142 0.46424 0.0
O299 O 0.13768 0.44703 0.39402 0.0
O300 O 0.14406 0.45645 0.48176 0.0
C301 C 0.15857 0.50723 0.31342 0.0
O302 O 0.18849 0.50178 0.3586 0.0
O303 O 0.17101 0.47025 0.35323 0.0
C304 C 0.18075 0.49489 0.5121 0.0
O305 O 0.16496 0.51581 0.35948 0.0
O306 O 0.15675 0.49068 0.30449 0.0
C307 C 0.11312 0.46465 0.39032 0.0
Fe308 Fe 0.57002 0.69385 0.36299 0.0
Fe309 Fe 0.56258 0.67971 0.48557 0.0
O310 O 0.55494 0.68575 0.42302 0.0
Fe311 Fe 0.53184 0.68359 0.41986 0.0
O312 O 0.52439 0.66505 0.3671 0.0
O313 O 0.54962 0.68215 0.31264 0.0
O314 O 0.57076 0.67177 0.35974 0.0
C315 C 0.57548 0.66433 0.39854 0.0
C316 C 0.55471 0.7174 0.3563 0.0
O317 O 0.5761 0.66948 0.4493 0.0
C318 C 0.54497 0.70134 0.52076 0.0
O319 O 0.5931 0.70632 0.40272 0.0
O320 O 0.58366 0.70343 0.49039 0.0
O321 O 0.53851 0.70267 0.36724 0.0
O322 O 0.57005 0.71669 0.36192 0.0
C323 C 0.52451 0.6515 0.48665 0.0
O324 O 0.55066 0.68935 0.53161 0.0
O325 O 0.53858 0.70192 0.47284 0.0
C326 C 0.59651 0.71154 0.45365 0.0
O327 O 0.54183 0.65528 0.48638 0.0
O328 O 0.52041 0.66418 0.47174 0.0
C329 C 0.533 0.66745 0.32101 0.0
Fe330 Fe 0.36323 0.47967 0.98184 0.0
Fe331 Fe 0.35751 0.51022 0.92125 0.0
O332 O 0.35546 0.48707 0.92212 0.0
Fe333 Fe 0.34587 0.47179 0.86269 0.0
O334 O 0.36757 0.47067 0.85375 0.0
O335 O 0.37275 0.46627 0.94172 0.0
O336 O 0.38746 0.50051 0.97846 0.0
C337 C 0.39113 0.51776 0.98044 0.0
C338 C 0.33045 0.44558 0.95543 0.0
O339 O 0.3781 0.52179 0.96933 0.0
C340 C 0.32235 0.48726 0.86333 0.0
O341 O 0.35446 0.49139 0.03165 0.0
O342 O 0.34053 0.50356 0.97815 0.0
O343 O 0.33389 0.44878 0.90331 0.0
O344 O 0.33995 0.45855 0.99077 0.0
C345 C 0.37156 0.50884 0.81871 0.0
O346 O 0.33721 0.50349 0.87294 0.0
O347 O 0.32325 0.47199 0.86669 0.0
C348 C 0.3422 0.497 0.02465 0.0
O349 O 0.37474 0.51759 0.86482 0.0
O350 O 0.35677 0.49215 0.81181 0.0
C351 C 0.37627 0.4664 0.88974 0.0
Fe352 Fe 0.56772 0.89069 0.86451 0.0
Fe353 Fe 0.52915 0.86346 0.92161 0.0
O354 O 0.55234 0.88449 0.92388 0.0
Fe355 Fe 0.5597 0.89906 0.9849 0.0
O356 O 0.58068 0.89664 0.99276 0.0
O357 O 0.59064 0.90135 0.90541 0.0
O358 O 0.56746 0.86783 0.86667 0.0
C359 C 0.55218 0.85165 0.86308 0.0
C360 C 0.57318 0.92624 0.89492 0.0
O361 O 0.53593 0.85029 0.87209 0.0
C362 C 0.52167 0.8891 0.98317 0.0
O363 O 0.54749 0.88165 0.8133 0.0
O364 O 0.522 0.87391 0.86628 0.0
O365 O 0.57331 0.92236 0.94651 0.0
O366 O 0.56889 0.91362 0.8577 0.0
C367 C 0.54201 0.86022 0.02444 0.0
O368 O 0.51758 0.87212 0.97074 0.0
O369 O 0.53898 0.90264 0.98256 0.0
C370 C 0.53084 0.8798 0.82038 0.0
O371 O 0.53554 0.85253 0.97727 0.0
O372 O 0.54778 0.87806 0.03316 0.0
C373 C 0.59368 0.90038 0.95728 0.0
Fe374 Fe 0.17566 0.68192 0.91716 0.0
Fe375 Fe 0.13917 0.67702 0.97481 0.0
O376 O 0.15468 0.68412 0.91576 0.0
Fe377 Fe 0.14938 0.69323 0.8545 0.0
O378 O 0.1721 0.71595 0.85894 0.0
O379 O 0.18969 0.70214 0.86891 0.0
O380 O 0.18576 0.69902 0.97368 0.0
C381 C 0.17737 0.69767 0.01966 0.0
C382 C 0.16105 0.66751 0.81418 0.0
O383 O 0.15932 0.68598 0.02599 0.0
C384 C 0.11339 0.66314 0.88104 0.0
O385 O 0.16607 0.66147 0.96576 0.0
O386 O 0.13548 0.65265 0.97445 0.0
O387 O 0.15941 0.68235 0.80578 0.0
O388 O 0.16611 0.66446 0.86123 0.0
C389 C 0.13833 0.70956 0.94344 0.0
O390 O 0.1165 0.66727 0.93294 0.0
O391 O 0.1267 0.67135 0.84559 0.0
C392 C 0.14889 0.64874 0.97714 0.0
O393 O 0.14167 0.7006 0.98081 0.0
O394 O 0.1378 0.70516 0.89212 0.0
C395 C 0.18837 0.71697 0.85833 0.0
C396 C 0.07445 0.22808 0.62573 0.0
C397 C 0.05513 0.2169 0.60872 0.0
C398 C 0.08947 0.2318 0.58894 0.0
C399 C 0.10086 0.22716 0.43929 0.0
H400 H 0.1454 0.22829 0.50821 0.0
C401 C 0.15716 0.21318 0.3262 0.0
C402 C 0.17678 0.22584 0.33863 0.0
C403 C 0.14267 0.21491 0.35375 0.0
C404 C 0.13318 0.22827 0.48843 0.0
H405 H 0.03612 0.2012 0.53989 0.0
H406 H 0.06239 0.20667 0.47583 0.0
H407 H 0.11918 0.22521 0.56674 0.0
H408 H 0.19663 0.25071 0.38811 0.0
H409 H 0.17118 0.25339 0.43759 0.0
H410 H 0.11471 0.22902 0.3605 0.0
C411 C 0.06607 0.21316 0.51706 0.0
C412 C 0.11811 0.2266 0.52197 0.0
C413 C 0.05098 0.20989 0.55369 0.0
C414 C 0.18165 0.24077 0.37762 0.0
C415 C 0.16711 0.24226 0.40603 0.0
C416 C 0.11583 0.22845 0.4056 0.0
C417 C 0.08555 0.22388 0.53461 0.0
C418 C 0.10172 0.22606 0.49804 0.0
C419 C 0.1475 0.22913 0.395 0.0
C420 C 0.13213 0.22904 0.42996 0.0
H421 H 0.07795 0.23391 0.66786 0.0
H422 H 0.10417 0.24071 0.60361 0.0
H423 H 0.08867 0.22707 0.4192 0.0
H424 H 0.153 0.20161 0.29605 0.0
H425 H 0.12767 0.20455 0.34475 0.0
C426 C 0.83344 0.96302 0.33371 0.0
C427 C 0.81869 0.96758 0.34073 0.0
C428 C 0.83249 0.9471 0.36126 0.0
C429 C 0.81519 0.9205 0.48978 0.0
H430 H 0.8214 0.88015 0.4196 0.0
C431 C 0.81122 0.85912 0.62315 0.0
C432 C 0.82352 0.85194 0.60981 0.0
C433 C 0.8088 0.8712 0.58593 0.0
C434 C 0.81991 0.89143 0.44006 0.0
H435 H 0.79114 0.95873 0.38102 0.0
H436 H 0.78982 0.93127 0.43042 0.0
H437 H 0.82094 0.90522 0.36178 0.0
H438 H 0.84272 0.85125 0.54724 0.0
H439 H 0.8394 0.87328 0.48281 0.0
H440 H 0.81523 0.90774 0.56802 0.0
C441 C 0.80198 0.93992 0.4031 0.0
C442 C 0.81952 0.90569 0.4068 0.0
C443 C 0.80272 0.95559 0.3747 0.0
C444 C 0.83304 0.85657 0.55799 0.0
C445 C 0.83103 0.86913 0.52113 0.0
C446 C 0.81598 0.90655 0.52305 0.0
C447 C 0.81696 0.93568 0.39714 0.0
C448 C 0.81704 0.92027 0.43144 0.0
C449 C 0.81915 0.87693 0.53513 0.0
C450 C 0.81821 0.89169 0.49879 0.0
H451 H 0.84586 0.97193 0.30754 0.0
H452 H 0.84426 0.94416 0.35625 0.0
H453 H 0.81362 0.93181 0.50986 0.0
H454 H 0.8036 0.85553 0.66285 0.0
H455 H 0.799 0.87626 0.59762 0.0
C456 C 0.18369 0.98958 0.55888 0.0
C457 C 0.18814 0.98498 0.61137 0.0
C458 C 0.17192 0.97478 0.52138 0.0
C459 C 0.13583 0.92195 0.52286 0.0
H460 H 0.13812 0.92786 0.36142 0.0
C461 C 0.0862 0.85912 0.37704 0.0
C462 C 0.07499 0.86346 0.34097 0.0
C463 C 0.10215 0.87394 0.40491 0.0
C464 C 0.13739 0.92605 0.40648 0.0
H465 H 0.18519 0.96179 0.66484 0.0
H466 H 0.16584 0.93614 0.59869 0.0
H467 H 0.1625 0.95384 0.41982 0.0
H468 H 0.07242 0.88676 0.30311 0.0
H469 H 0.10052 0.91265 0.35109 0.0
H470 H 0.11091 0.89409 0.50937 0.0
C471 C 0.17042 0.95091 0.58691 0.0
C472 C 0.15126 0.94096 0.44003 0.0
C473 C 0.18169 0.9656 0.62468 0.0
C474 C 0.08069 0.88296 0.331 0.0
C475 C 0.09684 0.89779 0.35813 0.0
C476 C 0.12225 0.90698 0.48936 0.0
C477 C 0.16476 0.95518 0.53549 0.0
C478 C 0.1506 0.93916 0.49881 0.0
C479 C 0.10742 0.8934 0.39642 0.0
C480 C 0.12279 0.90891 0.43093 0.0
H481 H 0.18849 0.00449 0.54807 0.0
H482 H 0.1678 0.97869 0.48249 0.0
H483 H 0.13436 0.92012 0.56785 0.0
H484 H 0.08218 0.84424 0.38557 0.0
H485 H 0.11016 0.8702 0.43403 0.0
C486 C 0.19869 0.05047 0.90669 0.0
C487 C 0.21254 0.04457 0.9036 0.0
C488 C 0.20017 0.06366 0.9475 0.0
C489 C 0.23475 0.10505 0.02403 0.0
H490 H 0.19174 0.09555 0.12018 0.0
C491 C 0.23751 0.16541 0.16527 0.0
C492 C 0.22029 0.16607 0.16931 0.0
C493 C 0.23747 0.14942 0.14096 0.0
C494 C 0.20384 0.09856 0.09325 0.0
H495 H 0.23876 0.04777 0.94058 0.0
H496 H 0.24169 0.07149 0.01119 0.0
H497 H 0.18967 0.06947 0.06207 0.0
H498 H 0.18954 0.15044 0.15104 0.0
H499 H 0.18958 0.12317 0.10702 0.0
H500 H 0.24849 0.13441 0.05203 0.0
C501 C 0.22954 0.06555 0.98255 0.0
C502 C 0.20268 0.08354 0.06041 0.0
C503 C 0.22779 0.05194 0.94251 0.0
C504 C 0.20306 0.15036 0.14905 0.0
C505 C 0.20306 0.13457 0.12411 0.0
C506 C 0.23578 0.12021 0.05608 0.0
C507 C 0.21576 0.07155 0.98516 0.0
C508 C 0.21798 0.08674 0.02486 0.0
C509 C 0.22025 0.13385 0.11953 0.0
C510 C 0.22016 0.11728 0.09026 0.0
H511 H 0.18681 0.04501 0.87716 0.0
H512 H 0.18946 0.0682 0.94846 0.0
H513 H 0.24667 0.10787 0.9965 0.0
H514 H 0.25101 0.17725 0.18089 0.0
H515 H 0.25095 0.14929 0.13897 0.0
C516 C 0.88894 0.07732 0.17953 0.0
C517 C 0.86946 0.07103 0.16705 0.0
C518 C 0.90383 0.09315 0.1514 0.0
C519 C 0.91419 0.115 0.01585 0.0
H520 H 0.9578 0.15999 0.08252 0.0
C521 C 0.97091 0.1739 0.87498 0.0
C522 C 0.99035 0.18334 0.89162 0.0
C523 C 0.9563 0.16221 0.9124 0.0
C524 C 0.94589 0.1474 0.06317 0.0
H525 H 0.85032 0.07682 0.11674 0.0
H526 H 0.8764 0.10413 0.06638 0.0
H527 H 0.93209 0.13596 0.14252 0.0
H528 H 0.00992 0.1885 0.96052 0.0
H529 H 0.9844 0.16706 0.02577 0.0
H530 H 0.92809 0.12539 0.93715 0.0
C531 C 0.88006 0.0969 0.09843 0.0
C532 C 0.93112 0.13375 0.0976 0.0
C533 C 0.86518 0.08133 0.12734 0.0
C534 C 0.99497 0.18133 0.94694 0.0
C535 C 0.98031 0.16912 0.98425 0.0
C536 C 0.92907 0.12833 0.98165 0.0
C537 C 0.8995 0.10273 0.10957 0.0
C538 C 0.91508 0.11753 0.07405 0.0
C539 C 0.96076 0.15911 0.9671 0.0
C540 C 0.94507 0.14487 0.0046 0.0
H541 H 0.89267 0.06972 0.21018 0.0
H542 H 0.91872 0.09733 0.16047 0.0
H543 H 0.90215 0.10239 0.99682 0.0
H544 H 0.96701 0.17554 0.83268 0.0
H545 H 0.94148 0.15545 0.89797 0.0
C546 C 0.86048 0.828 0.94604 0.0
C547 C 0.85896 0.82176 0.8904 0.0
C548 C 0.87315 0.82627 0.9832 0.0
C549 C 0.91561 0.81833 0.98088 0.0
H550 H 0.90708 0.8122 0.14129 0.0
C551 C 0.9605 0.79933 0.12964 0.0
C552 C 0.97172 0.8144 0.16725 0.0
C553 C 0.94531 0.79921 0.10022 0.0
C554 C 0.90955 0.8139 0.09651 0.0
H555 H 0.86824 0.80768 0.83067 0.0
H556 H 0.88917 0.80344 0.89564 0.0
H557 H 0.88289 0.81338 0.08091 0.0
H558 H 0.97517 0.84052 0.20584 0.0
H559 H 0.94809 0.8399 0.1554 0.0
H560 H 0.9419 0.81811 0.99664 0.0
C561 C 0.88164 0.81069 0.91049 0.0
C562 C 0.8958 0.81473 0.06185 0.0
C563 C 0.86947 0.81293 0.87321 0.0
C564 C 0.96682 0.82879 0.1769 0.0
C565 C 0.95132 0.8284 0.14837 0.0
C566 C 0.92902 0.81704 0.01529 0.0
C567 C 0.88415 0.81783 0.96563 0.0
C568 C 0.89863 0.81693 1.0034 0.0
C569 C 0.94075 0.81385 0.1089 0.0
C570 C 0.92613 0.81483 0.07328 0.0
H571 H 0.8525 0.83489 0.96009 0.0
H572 H 0.87473 0.8321 0.02504 0.0
H573 H 0.91877 0.82068 0.93656 0.0
H574 H 0.96396 0.78808 0.12115 0.0
H575 H 0.93732 0.78787 0.06983 0.0
C576 C 0.87 0.79834 0.65351 0.0
C577 C 0.86964 0.81573 0.65693 0.0
C578 C 0.88587 0.79804 0.62917 0.0
C579 C 0.9372 0.83154 0.58547 0.0
H580 H 0.92952 0.78908 0.48956 0.0
C581 C 0.98775 0.8382 0.40468 0.0
C582 C 0.99425 0.82481 0.40266 0.0
C583 C 0.97389 0.83617 0.44393 0.0
C584 C 0.93188 0.8009 0.51692 0.0
H585 H 0.88542 0.84629 0.63604 0.0
H586 H 0.91235 0.84564 0.59235 0.0
H587 H 0.90212 0.78689 0.54183 0.0
H588 H 0.99143 0.79882 0.44019 0.0
H589 H 0.96652 0.79488 0.50807 0.0
H590 H 0.96669 0.84598 0.55765 0.0
C591 C 0.90091 0.83232 0.61011 0.0
C592 C 0.91622 0.79965 0.54701 0.0
C593 C 0.88528 0.83266 0.63485 0.0
C594 C 0.9868 0.80945 0.44128 0.0
C595 C 0.9725 0.80712 0.47973 0.0
C596 C 0.9527 0.8329 0.5547 0.0
C597 C 0.9016 0.81509 0.60738 0.0
C598 C 0.91856 0.81519 0.5806 0.0
C599 C 0.96588 0.82043 0.48111 0.0
C600 C 0.95011 0.81777 0.51932 0.0
H601 H 0.8582 0.78506 0.67036 0.0
H602 H 0.88592 0.78451 0.62813 0.0
H603 H 0.93977 0.84356 0.61217 0.0
H604 H 0.9932 0.85014 0.37533 0.0
H605 H 0.96893 0.84655 0.44396 0.0
C606 C 0.20374 0.06509 0.64682 0.0
C607 C 0.22106 0.06649 0.66593 0.0
C608 C 0.20393 0.08033 0.61773 0.0
C609 C 0.22993 0.13217 0.59201 0.0
H610 H 0.20356 0.1179 0.44877 0.0
C611 C 0.22939 0.18822 0.43507 0.0
C612 C 0.21299 0.18174 0.4008 0.0
C613 C 0.23108 0.17533 0.47147 0.0
C614 C 0.21069 0.12217 0.48908 0.0
H615 H 0.25214 0.08546 0.6713 0.0
H616 H 0.25236 0.11244 0.62102 0.0
H617 H 0.20544 0.09356 0.50496 0.0
H618 H 0.18497 0.15723 0.3805 0.0
H619 H 0.18733 0.13518 0.44571 0.0
H620 H 0.23468 0.16072 0.57688 0.0
C621 C 0.2387 0.09933 0.6284 0.0
C622 C 0.2119 0.10819 0.52104 0.0
C623 C 0.23856 0.08387 0.6569 0.0
C624 C 0.19786 0.16256 0.40606 0.0
C625 C 0.19935 0.14985 0.44304 0.0
C626 C 0.22847 0.1462 0.56026 0.0
C627 C 0.22139 0.09753 0.60764 0.0
C628 C 0.22133 0.11295 0.57305 0.0
C629 C 0.21627 0.15579 0.47477 0.0
C630 C 0.21858 0.1413 0.50862 0.0
H631 H 0.18998 0.05197 0.653 0.0
H632 H 0.19037 0.07862 0.60263 0.0
H633 H 0.23725 0.13619 0.6321 0.0
H634 H 0.24134 0.20291 0.43135 0.0
H635 H 0.24435 0.18047 0.495 0.0
C636 C 0.8613 0.04453 0.44798 0.0
C637 C 0.85361 0.049 0.40136 0.0
C638 C 0.87363 0.05921 0.48501 0.0
C639 C 0.90583 0.11275 0.48681 0.0
H640 H 0.9113 0.10465 0.64426 0.0
C641 C 0.95869 0.17503 0.63032 0.0
C642 C 0.9714 0.1712 0.66114 0.0
C643 C 0.94255 0.16 0.6036 0.0
C644 C 0.9099 0.10709 0.6003 0.0
H645 H 0.85192 0.07177 0.35746 0.0
H646 H 0.8723 0.09712 0.42347 0.0
H647 H 0.88573 0.07851 0.58922 0.0
H648 H 0.97656 0.14845 0.69034 0.0
H649 H 0.94827 0.12224 0.6442 0.0
H650 H 0.92989 0.14133 0.49804 0.0
C651 C 0.86955 0.08259 0.43098 0.0
C652 C 0.89532 0.09209 0.56864 0.0
C653 C 0.85761 0.06804 0.39357 0.0
C654 C 0.96715 0.15191 0.66655 0.0
C655 C 0.95087 0.13687 0.64048 0.0
C656 C 0.92018 0.12776 0.51857 0.0
C657 C 0.8783 0.07855 0.47619 0.0
C658 C 0.89316 0.09467 0.51127 0.0
C659 C 0.9386 0.14079 0.60784 0.0
C660 C 0.92249 0.12507 0.57552 0.0
H661 H 0.85859 0.02994 0.45409 0.0
H662 H 0.8802 0.05551 0.51887 0.0
H663 H 0.90507 0.11524 0.44255 0.0
H664 H 0.96151 0.1897 0.62543 0.0
H665 H 0.93325 0.16342 0.57908 0.0
C666 C 0.84474 0.98377 0.10858 0.0
C667 C 0.83135 0.99027 0.10823 0.0
C668 C 0.84241 0.96892 0.07294 0.0
C669 C 0.81523 0.93901 0.94935 0.0
H670 H 0.8301 0.90391 0.0149 0.0
C671 C 0.80262 0.86501 0.85448 0.0
C672 C 0.82021 0.86518 0.84776 0.0
C673 C 0.80209 0.88007 0.88341 0.0
C674 C 0.82581 0.91355 0.9962 0.0
H675 H 0.80537 0.98681 0.06901 0.0
H676 H 0.80088 0.9603 0.00747 0.0
H677 H 0.83294 0.93082 0.06999 0.0
H678 H 0.851 0.88134 0.86593 0.0
H679 H 0.84988 0.90704 0.91731 0.0
H680 H 0.80779 0.92114 0.87565 0.0
C681 C 0.81343 0.96696 0.03455 0.0
C682 C 0.82764 0.92913 0.02744 0.0
C683 C 0.81599 0.98216 0.06972 0.0
C684 C 0.8372 0.88072 0.87014 0.0
C685 C 0.83659 0.89545 0.89973 0.0
C686 C 0.81312 0.92314 0.91825 0.0
C687 C 0.82635 0.95979 0.03686 0.0
C688 C 0.82289 0.94242 1.00405 0.0
C689 C 0.81907 0.89523 0.90693 0.0
C690 C 0.81882 0.91056 0.94113 0.0
H691 H 0.85682 0.98989 0.13747 0.0
H692 H 0.85306 0.96432 0.07462 0.0
H693 H 0.81146 0.94891 0.92987 0.0
H694 H 0.78933 0.85329 0.83747 0.0
H695 H 0.78841 0.87963 0.88865 0.0
C696 C 0.17993 0.95307 0.87939 0.0
C697 C 0.17531 0.96408 0.84332 0.0
C698 C 0.16526 0.93691 0.90711 0.0
C699 C 0.11307 0.9011 0.9074 0.0
H700 H 0.11898 0.90264 0.06868 0.0
C701 C 0.04928 0.85405 0.05826 0.0
C702 C 0.05373 0.849 0.11008 0.0
C703 C 0.06419 0.86599 0.02121 0.0
C704 C 0.11716 0.9016 0.02366 0.0
H705 H 0.1517 0.9661 0.80547 0.0
H706 H 0.12615 0.93773 0.85314 0.0
H707 H 0.14506 0.92658 0.01127 0.0
H708 H 0.07674 0.85118 0.16286 0.0
H709 H 0.10255 0.87084 0.09741 0.0
H710 H 0.08519 0.87599 0.91964 0.0
C711 C 0.14108 0.94168 0.86033 0.0
C712 C 0.13216 0.91545 0.99075 0.0
C713 C 0.15573 0.958 0.83335 0.0
C714 C 0.07304 0.85507 0.12313 0.0
C715 C 0.08783 0.86654 0.0858 0.0
C716 C 0.09811 0.88699 0.94032 0.0
C717 C 0.1457 0.93124 0.8985 0.0
C718 C 0.13023 0.91548 0.93237 0.0
C719 C 0.08374 0.87276 0.03511 0.0
C720 C 0.09988 0.88713 0.99905 0.0
H721 H 0.19487 0.95738 0.88793 0.0
H722 H 0.16921 0.92903 0.93608 0.0
H723 H 0.11123 0.90076 0.86238 0.0
H724 H 0.03444 0.8496 0.04771 0.0
H725 H 0.06039 0.87054 0.9829 0.0
C726 C 0.08559 0.23794 0.87328 0.0
C727 C 0.07348 0.22194 0.83961 0.0
C728 C 0.10141 0.23875 0.90103 0.0
C729 C 0.13471 0.21948 0.90377 0.0
H730 H 0.13591 0.22803 0.06383 0.0
C731 C 0.1823 0.20429 0.05676 0.0
C732 C 0.18856 0.21523 0.10612 0.0
C733 C 0.17017 0.20681 0.01942 0.0
C734 C 0.13618 0.22604 0.01905 0.0
H735 H 0.0691 0.19475 0.80628 0.0
H736 H 0.09692 0.19636 0.85411 0.0
H737 H 0.11181 0.22995 0.0067 0.0
H738 H 0.18832 0.2381 0.154 0.0
H739 H 0.16826 0.24337 0.08784 0.0
H740 H 0.15925 0.21579 0.91594 0.0
C741 C 0.09406 0.20817 0.85933 0.0
C742 C 0.12223 0.22706 0.98635 0.0
C743 C 0.07806 0.20721 0.83228 0.0
C744 C 0.1835 0.22941 0.11621 0.0
C745 C 0.1718 0.23224 0.07854 0.0
C746 C 0.14892 0.21875 0.93643 0.0
C747 C 0.10565 0.22374 0.8949 0.0
C748 C 0.12126 0.22368 0.92847 0.0
C749 C 0.16438 0.22053 0.03056 0.0
C750 C 0.1498 0.22194 0.99467 0.0
H751 H 0.08248 0.24954 0.87974 0.0
H752 H 0.1102 0.25099 0.92792 0.0
H753 H 0.13432 0.21688 0.85912 0.0
H754 H 0.18594 0.19315 0.04859 0.0
H755 H 0.16468 0.19741 0.98326 0.0
C756 C 0.83259 0.56462 0.67506 0.0
C757 C 0.8328 0.54724 0.66753 0.0
C758 C 0.81723 0.56466 0.70343 0.0
C759 C 0.78374 0.53927 0.81497 0.0
H760 H 0.75123 0.55885 0.75909 0.0
C761 C 0.71728 0.52605 0.93939 0.0
C762 C 0.71275 0.54087 0.94225 0.0
C763 C 0.73088 0.52703 0.90093 0.0
C764 C 0.76034 0.55356 0.77566 0.0
H765 H 0.81665 0.51621 0.68217 0.0
H766 H 0.7903 0.51647 0.73245 0.0
H767 H 0.77757 0.56113 0.70066 0.0
H768 H 0.71842 0.5681 0.90625 0.0
H769 H 0.74286 0.57028 0.84016 0.0
H770 H 0.76733 0.53226 0.89035 0.0
C771 C 0.80195 0.52999 0.71624 0.0
C772 C 0.77535 0.55483 0.74209 0.0
C773 C 0.81705 0.52988 0.68729 0.0
C774 C 0.72157 0.5564 0.90449 0.0
C775 C 0.73555 0.55761 0.86662 0.0
C776 C 0.76904 0.53829 0.84873 0.0
C777 C 0.80204 0.54738 0.72539 0.0
C778 C 0.78694 0.54738 0.76124 0.0
C779 C 0.74072 0.54313 0.8653 0.0
C780 C 0.75686 0.54506 0.82927 0.0
H781 H 0.84446 0.5782 0.66008 0.0
H782 H 0.81759 0.57825 0.71016 0.0
H783 H 0.79271 0.53372 0.83099 0.0
H784 H 0.71052 0.5138 0.96764 0.0
H785 H 0.73393 0.51526 0.89997 0.0
C786 C 0.4768 0.17968 0.90616 0.0
C787 C 0.49328 0.18632 0.9401 0.0
C788 C 0.47479 0.19257 0.87063 0.0
C789 C 0.49371 0.2454 0.8582 0.0
H790 H 0.46933 0.23308 0.71193 0.0
C791 C 0.50259 0.30403 0.70484 0.0
C792 C 0.48555 0.30289 0.68428 0.0
C793 C 0.50195 0.28846 0.7331 0.0
C794 C 0.47599 0.23658 0.75298 0.0
H795 H 0.52115 0.21099 0.96072 0.0
H796 H 0.51819 0.23311 0.89716 0.0
H797 H 0.47183 0.20811 0.7652 0.0
H798 H 0.45454 0.28414 0.6754 0.0
H799 H 0.45354 0.25657 0.72447 0.0
H800 H 0.49842 0.27394 0.84537 0.0
C801 C 0.50638 0.2183 0.89935 0.0
C802 C 0.47742 0.22233 0.78351 0.0
C803 C 0.50821 0.20559 0.93535 0.0
C804 C 0.46789 0.2855 0.69114 0.0
C805 C 0.46731 0.26972 0.71884 0.0
C806 C 0.49251 0.2596 0.82756 0.0
C807 C 0.48935 0.21221 0.86817 0.0
C808 C 0.48665 0.2267 0.8361 0.0
C809 C 0.48432 0.27124 0.74087 0.0
C810 C 0.48392 0.25544 0.77437 0.0
H811 H 0.46503 0.16489 0.90958 0.0
H812 H 0.46147 0.18738 0.84726 0.0
H813 H 0.5003 0.24916 0.89932 0.0
H814 H 0.51645 0.31715 0.70023 0.0
H815 H 0.51529 0.28992 0.74932 0.0
C816 C 0.859 0.31315 0.90506 0.0
C817 C 0.8514 0.32074 0.94416 0.0
C818 C 0.84657 0.29775 0.8701 0.0
C819 C 0.79518 0.25841 0.86543 0.0
H820 H 0.80569 0.25224 0.71049 0.0
C821 C 0.73614 0.21135 0.70967 0.0
C822 C 0.73725 0.19583 0.68585 0.0
C823 C 0.75178 0.22589 0.73879 0.0
C824 C 0.80277 0.25372 0.75397 0.0
H825 H 0.82514 0.31923 0.97468 0.0
H826 H 0.80368 0.29324 0.91249 0.0
H827 H 0.82991 0.27999 0.76482 0.0
H828 H 0.75594 0.18376 0.67242 0.0
H829 H 0.78374 0.20977 0.72294 0.0
H830 H 0.76775 0.23273 0.8538 0.0
C831 C 0.81906 0.29843 0.91009 0.0
C832 C 0.81658 0.26956 0.78508 0.0
C833 C 0.83137 0.3135 0.94538 0.0
C834 C 0.75464 0.19548 0.69062 0.0
C835 C 0.77052 0.21034 0.71913 0.0
C836 C 0.78139 0.24284 0.83427 0.0
C837 C 0.82638 0.28986 0.8734 0.0
C838 C 0.81272 0.27234 0.84085 0.0
C839 C 0.76904 0.22548 0.74408 0.0
C840 C 0.7849 0.24055 0.77807 0.0
H841 H 0.8744 0.31839 0.90366 0.0
H842 H 0.85271 0.29151 0.84236 0.0
H843 H 0.79193 0.25967 0.90873 0.0
H844 H 0.72299 0.21211 0.70693 0.0
H845 H 0.75036 0.23748 0.75759 0.0
C846 C 0.87974 0.48204 0.51844 0.0
C847 C 0.893 0.50171 0.50843 0.0
C848 C 0.88161 0.46762 0.49083 0.0
C849 C 0.89689 0.4594 0.3578 0.0
H850 H 0.8943 0.41383 0.42406 0.0
C851 C 0.89867 0.40248 0.21687 0.0
C852 C 0.88716 0.38295 0.23148 0.0
C853 C 0.90187 0.41699 0.25502 0.0
C854 C 0.89479 0.42633 0.40477 0.0
H855 H 0.91907 0.52166 0.46343 0.0
H856 H 0.92198 0.4964 0.41397 0.0
H857 H 0.89542 0.43913 0.48453 0.0
H858 H 0.87029 0.36304 0.29735 0.0
H859 H 0.87486 0.38843 0.36365 0.0
H860 H 0.89505 0.44647 0.2784 0.0
C861 C 0.91028 0.49223 0.44365 0.0
C862 C 0.89559 0.44086 0.43949 0.0
C863 C 0.90864 0.50665 0.47207 0.0
C864 C 0.87927 0.37807 0.28546 0.0
C865 C 0.88202 0.39266 0.32338 0.0
C866 C 0.89569 0.44477 0.32319 0.0
C867 C 0.89656 0.47261 0.45197 0.0
C868 C 0.8967 0.45754 0.4162 0.0
C869 C 0.89308 0.41235 0.30823 0.0
C870 C 0.8947 0.42802 0.34601 0.0
H871 H 0.8676 0.47781 0.54649 0.0
H872 H 0.87079 0.4526 0.4977 0.0
H873 H 0.89734 0.47194 0.33881 0.0
H874 H 0.90513 0.40651 0.17556 0.0
H875 H 0.91105 0.43189 0.24224 0.0
C876 C 0.52845 0.41438 0.46302 0.0
C877 C 0.53274 0.40259 0.49677 0.0
C878 C 0.54329 0.43063 0.43622 0.0
C879 C 0.5958 0.46522 0.4364 0.0
H880 H 0.58916 0.46715 0.27623 0.0
C881 C 0.65922 0.51308 0.28573 0.0
C882 C 0.65478 0.51947 0.23625 0.0
C883 C 0.64439 0.50105 0.32279 0.0
C884 C 0.59119 0.46721 0.32107 0.0
H885 H 0.55601 0.3992 0.53121 0.0
H886 H 0.58187 0.42768 0.48487 0.0
H887 H 0.563 0.44251 0.3319 0.0
H888 H 0.63197 0.5196 0.18783 0.0
H889 H 0.60632 0.49971 0.25357 0.0
H890 H 0.624 0.49002 0.42566 0.0
C891 C 0.56705 0.42428 0.47892 0.0
C892 C 0.57615 0.45297 0.35295 0.0
C893 C 0.55221 0.40789 0.50507 0.0
C894 C 0.63564 0.5147 0.2258 0.0
C895 C 0.62094 0.5031 0.2632 0.0
C896 C 0.61081 0.4797 0.40456 0.0
C897 C 0.56273 0.4356 0.44335 0.0
C898 C 0.57833 0.45169 0.41081 0.0
C899 C 0.62495 0.49549 0.31118 0.0
C900 C 0.60877 0.4808 0.34631 0.0
H901 H 0.5136 0.41072 0.45592 0.0
H902 H 0.53957 0.4392 0.40932 0.0
H903 H 0.59782 0.46461 0.48106 0.0
H904 H 0.67392 0.51649 0.29413 0.0
H905 H 0.64808 0.49539 0.35898 0.0
C906 C 0.62698 0.13209 0.45708 0.0
C907 C 0.63745 0.14662 0.49686 0.0
C908 C 0.61154 0.13166 0.42823 0.0
C909 C 0.57498 0.14612 0.42952 0.0
H910 H 0.58195 0.15058 0.26851 0.0
C911 C 0.52599 0.16128 0.28179 0.0
C912 C 0.52347 0.15425 0.22679 0.0
C913 C 0.53857 0.15914 0.31831 0.0
C914 C 0.57941 0.14888 0.31322 0.0
H915 H 0.63928 0.17142 0.53985 0.0
H916 H 0.61187 0.17028 0.49028 0.0
H917 H 0.60547 0.14802 0.32669 0.0
H918 H 0.53075 0.13834 0.16773 0.0
H919 H 0.55151 0.13347 0.23175 0.0
H920 H 0.54861 0.14642 0.41618 0.0
C921 C 0.61583 0.15943 0.4811 0.0
C922 C 0.59304 0.14755 0.34654 0.0
C923 C 0.63155 0.16013 0.50914 0.0
C924 C 0.53278 0.14418 0.20978 0.0
C925 C 0.54485 0.14158 0.24645 0.0
C926 C 0.56104 0.14703 0.396 0.0
C927 C 0.60599 0.14546 0.43952 0.0
C928 C 0.59099 0.1462 0.40492 0.0
C929 C 0.54846 0.14955 0.30071 0.0
C930 C 0.56306 0.14842 0.33726 0.0
H931 H 0.63119 0.12152 0.44664 0.0
H932 H 0.6041 0.12073 0.39637 0.0
H933 H 0.57313 0.14509 0.47457 0.0
H934 H 0.51893 0.16913 0.29564 0.0
H935 H 0.54101 0.1656 0.35953 0.0
C936 C 0.5338 0.12953 0.9873 0.0
C937 C 0.53466 0.14745 0.994 0.0
C938 C 0.5493 0.12858 0.96289 0.0
C939 C 0.60147 0.1602 0.92411 0.0
H940 H 0.59141 0.11927 0.81864 0.0
C941 C 0.65105 0.16771 0.74004 0.0
C942 C 0.65677 0.15378 0.73501 0.0
C943 C 0.63731 0.16554 0.77987 0.0
C944 C 0.59441 0.13061 0.84868 0.0
H945 H 0.55239 0.17834 0.97941 0.0
H946 H 0.57876 0.17664 0.93563 0.0
H947 H 0.56463 0.11785 0.87245 0.0
H948 H 0.65263 0.12661 0.76729 0.0
H949 H 0.62788 0.12246 0.83626 0.0
H950 H 0.63103 0.17352 0.89737 0.0
C951 C 0.56655 0.16333 0.95075 0.0
C952 C 0.57911 0.12981 0.87965 0.0
C953 C 0.55126 0.16429 0.97554 0.0
C954 C 0.64859 0.13765 0.7709 0.0
C955 C 0.63441 0.13522 0.80992 0.0
C956 C 0.61663 0.16115 0.89249 0.0
C957 C 0.56591 0.14551 0.94432 0.0
C958 C 0.58236 0.14488 0.9167 0.0
C959 C 0.62866 0.14916 0.81456 0.0
C960 C 0.61317 0.14659 0.85369 0.0
H961 H 0.52124 0.1163 1.00133 0.0
H962 H 0.54832 0.11461 0.95902 0.0
H963 H 0.60469 0.17178 0.9534 0.0
H964 H 0.6571 0.18025 0.7128 0.0
H965 H 0.63301 0.17641 0.78244 0.0
C966 C 0.8729 0.40166 0.9865 0.0
C967 C 0.89021 0.40159 0.99695 0.0
C968 C 0.87309 0.41709 0.95874 0.0
C969 C 0.90104 0.46803 0.92258 0.0
H970 H 0.8665 0.45255 0.79478 0.0
C971 C 0.89681 0.52231 0.76641 0.0
C972 C 0.87882 0.5163 0.74109 0.0
C973 C 0.89916 0.50988 0.80302 0.0
C974 C 0.87597 0.45719 0.83089 0.0
H975 H 0.92143 0.41826 0.9884 0.0
H976 H 0.92171 0.44562 0.94003 0.0
H977 H 0.86945 0.42825 0.84782 0.0
H978 H 0.84897 0.49343 0.73638 0.0
H979 H 0.85263 0.47226 0.80246 0.0
H980 H 0.9072 0.49702 0.90629 0.0
C981 C 0.90803 0.43347 0.9533 0.0
C982 C 0.87778 0.44322 0.86097 0.0
C983 C 0.90784 0.4178 0.9807 0.0
C984 C 0.86296 0.49835 0.75564 0.0
C985 C 0.86518 0.48613 0.79283 0.0
C986 C 0.89906 0.4821 0.8927 0.0
C987 C 0.89058 0.43303 0.94111 0.0
C988 C 0.89011 0.44842 0.9075 0.0
C989 C 0.88348 0.49133 0.81509 0.0
C990 C 0.88624 0.47678 0.84693 0.0
H991 H 0.85903 0.38954 0.99861 0.0
H992 H 0.85945 0.41647 0.95045 0.0
H993 H 0.91062 0.47239 0.95845 0.0
H994 H 0.90932 0.536 0.7549 0.0
H995 H 0.91347 0.51438 0.81914 0.0
C996 C 0.62375 0.51249 0.96101 0.0
C997 C 0.63287 0.5074 1.00253 0.0
C998 C 0.60784 0.49811 0.9317 0.0
C999 C 0.56897 0.44731 0.93211 0.0
H1000 H 0.57794 0.4494 0.77214 0.0
C1001 C 0.52249 0.38219 0.78456 0.0
C1002 C 0.52076 0.38618 0.72836 0.0
C1003 C 0.53433 0.39729 0.82122 0.0
C1004 C 0.57482 0.44869 0.81646 0.0
H1005 H 0.63173 0.48345 0.04854 0.0
H1006 H 0.60362 0.4584 0.99831 0.0
H1007 H 0.60086 0.47555 0.83133 0.0
H1008 H 0.52869 0.4089 0.66707 0.0
H1009 H 0.54816 0.43518 0.73109 0.0
H1010 H 0.54273 0.42061 0.91736 0.0
C1011 C 0.60892 0.47345 0.98802 0.0
C1012 C 0.5881 0.46372 0.85043 0.0
C1013 C 0.62505 0.48777 0.0165 0.0
C1014 C 0.53011 0.40546 0.71011 0.0
C1015 C 0.54144 0.42051 0.74684 0.0
C1016 C 0.5554 0.43239 0.89792 0.0
C1017 C 0.60051 0.47844 0.94428 0.0
C1018 C 0.58542 0.46313 0.90857 0.0
C1019 C 0.54426 0.41668 0.80253 0.0
C1020 C 0.5582 0.43279 0.83953 0.0
H1021 H 0.6295 0.52748 0.94924 0.0
H1022 H 0.60155 0.50231 0.89821 0.0
H1023 H 0.5666 0.44653 0.97695 0.0
H1024 H 0.51541 0.36739 0.79944 0.0
H1025 H 0.5362 0.39364 0.86353 0.0
C1026 C 0.46977 0.19363 0.21811 0.0
C1027 C 0.48405 0.19779 0.17738 0.0
C1028 C 0.46942 0.2086 0.24748 0.0
C1029 C 0.48165 0.25852 0.2477 0.0
H1030 H 0.49249 0.25874 0.40598 0.0
C1031 C 0.49618 0.32278 0.39432 0.0
C1032 C 0.49126 0.31861 0.45103 0.0
C1033 C 0.49441 0.3082 0.35779 0.0
C1034 C 0.48899 0.25879 0.36221 0.0
H1035 H 0.50844 0.22085 0.13326 0.0
H1036 H 0.50738 0.24708 0.18363 0.0
H1037 H 0.48976 0.23274 0.34685 0.0
H1038 H 0.47944 0.29592 0.51347 0.0
H1039 H 0.47514 0.2704 0.44987 0.0
H1040 H 0.48015 0.28416 0.26303 0.0
C1041 C 0.49669 0.23221 0.19314 0.0
C1042 C 0.48761 0.24391 0.32832 0.0
C1043 C 0.49734 0.21723 0.16465 0.0
C1044 C 0.4837 0.29956 0.47006 0.0
C1045 C 0.48142 0.28496 0.43352 0.0
C1046 C 0.48257 0.27324 0.28193 0.0
C1047 C 0.48301 0.22799 0.23564 0.0
C1048 C 0.48394 0.24365 0.27088 0.0
C1049 C 0.48723 0.2891 0.37714 0.0
C1050 C 0.48624 0.27357 0.33981 0.0
H1051 H 0.45939 0.1788 0.22898 0.0
H1052 H 0.45877 0.20506 0.28022 0.0
H1053 H 0.47883 0.25857 0.20333 0.0
H1054 H 0.50205 0.33741 0.37878 0.0
H1055 H 0.49919 0.31208 0.31491 0.0
C1056 C 0.82302 0.2941 0.16647 0.0
C1057 C 0.8425 0.30018 0.1782 0.0
C1058 C 0.80814 0.27833 0.19482 0.0
C1059 C 0.79738 0.2563 0.32957 0.0
H1060 H 0.75466 0.21082 0.26174 0.0
C1061 C 0.74015 0.19684 0.46877 0.0
C1062 C 0.72088 0.18674 0.45053 0.0
C1063 C 0.75495 0.2089 0.43229 0.0
C1064 C 0.7663 0.22354 0.28144 0.0
H1065 H 0.86168 0.29425 0.22776 0.0
H1066 H 0.83559 0.26706 0.27883 0.0
H1067 H 0.78049 0.23506 0.20261 0.0
H1068 H 0.70185 0.18088 0.37975 0.0
H1069 H 0.7276 0.20296 0.31619 0.0
H1070 H 0.78304 0.24584 0.40769 0.0
C1071 C 0.83192 0.27436 0.247 0.0
C1072 C 0.78116 0.23731 0.24749 0.0
C1073 C 0.84681 0.28985 0.21771 0.0
C1074 C 0.71665 0.18856 0.39463 0.0
C1075 C 0.73147 0.20114 0.35826 0.0
C1076 C 0.78238 0.24285 0.36329 0.0
C1077 C 0.81248 0.26863 0.23625 0.0
C1078 C 0.79688 0.25371 0.27143 0.0
C1079 C 0.75084 0.21172 0.37688 0.0
C1080 C 0.76667 0.22613 0.33995 0.0
H1081 H 0.8193 0.30176 0.13601 0.0
H1082 H 0.79326 0.27424 0.18609 0.0
H1083 H 0.80918 0.26903 0.34885 0.0
H1084 H 0.7438 0.19536 0.51152 0.0
H1085 H 0.76964 0.2161 0.44797 0.0
C1086 C 0.83023 0.52188 0.43025 0.0
C1087 C 0.84948 0.53686 0.43515 0.0
C1088 C 0.81764 0.52339 0.39286 0.0
C1089 C 0.81424 0.55271 0.27556 0.0
H1090 H 0.76215 0.5313 0.33393 0.0
C1091 C 0.75324 0.56592 0.18488 0.0
C1092 C 0.73534 0.54888 0.17679 0.0
C1093 C 0.76853 0.56525 0.2118 0.0
C1094 C 0.77662 0.53729 0.31696 0.0
H1095 H 0.87097 0.56482 0.40307 0.0
H1096 H 0.84877 0.56793 0.33889 0.0
H1097 H 0.78626 0.52845 0.38826 0.0
H1098 H 0.71973 0.51776 0.18959 0.0
H1099 H 0.74612 0.51677 0.23723 0.0
H1100 H 0.80433 0.56208 0.20482 0.0
C1101 C 0.84344 0.55476 0.363 0.0
C1102 C 0.79046 0.53551 0.34785 0.0
C1103 C 0.85621 0.55301 0.39975 0.0
C1104 C 0.73325 0.53119 0.19515 0.0
C1105 C 0.74835 0.53059 0.22263 0.0
C1106 C 0.80036 0.55474 0.2449 0.0
C1107 C 0.8238 0.54021 0.36044 0.0
C1108 C 0.8094 0.54285 0.32726 0.0
C1109 C 0.76605 0.5476 0.23185 0.0
C1110 C 0.78133 0.54676 0.26501 0.0
H1111 H 0.82472 0.50918 0.45673 0.0
H1112 H 0.80286 0.51154 0.3907 0.0
H1113 H 0.82861 0.5585 0.25817 0.0
H1114 H 0.75536 0.57976 0.17099 0.0
H1115 H 0.78204 0.57858 0.21856 0.0
C1116 C 0.38004 0.87292 0.22101 0.0
C1117 C 0.38425 0.88374 0.27045 0.0
C1118 C 0.39487 0.87665 0.18286 0.0
C1119 C 0.44829 0.89863 0.18154 0.0
H1120 H 0.44097 0.88915 0.02176 0.0
C1121 C 0.5107 0.90858 0.0388 0.0
C1122 C 0.50623 0.89232 0.00564 0.0
C1123 C 0.49595 0.91029 0.06502 0.0
C1124 C 0.4432 0.89189 0.06634 0.0
H1125 H 0.40655 0.90757 0.31779 0.0
H1126 H 0.43217 0.91484 0.25029 0.0
H1127 H 0.41464 0.88734 0.07873 0.0
H1128 H 0.48277 0.86576 0.9711 0.0
H1129 H 0.45711 0.86885 0.01649 0.0
H1130 H 0.47676 0.90308 0.16924 0.0
C1131 C 0.41777 0.90299 0.24144 0.0
C1132 C 0.4281 0.89076 0.09905 0.0
C1133 C 0.40309 0.899 0.27986 0.0
C1134 C 0.48669 0.87838 0.99682 0.0
C1135 C 0.47197 0.88021 0.02244 0.0
C1136 C 0.4634 0.89998 0.14882 0.0
C1137 C 0.41405 0.89143 0.19341 0.0
C1138 C 0.43038 0.8939 0.15726 0.0
C1139 C 0.47645 0.89593 0.05792 0.0
C1140 C 0.46095 0.89638 0.09103 0.0
H1141 H 0.36558 0.86096 0.21342 0.0
H1142 H 0.39145 0.86734 0.14664 0.0
H1143 H 0.45052 0.90067 0.22632 0.0
H1144 H 0.5256 0.9196 0.04627 0.0
H1145 H 0.4998 0.92265 0.0918 0.0
C1146 C 0.16098 0.52045 0.21653 0.0
C1147 C 0.15312 0.51687 0.27063 0.0
C1148 C 0.15753 0.53202 0.17942 0.0
C1149 C 0.14225 0.56919 0.18321 0.0
H1150 H 0.14296 0.56524 0.0215 0.0
C1151 C 0.12992 0.61971 0.03858 0.0
C1152 C 0.14526 0.63011 1.00102 0.0
C1153 C 0.12818 0.60351 0.06656 0.0
C1154 C 0.14266 0.56642 0.06665 0.0
H1155 H 0.13448 0.52113 0.32746 0.0
H1156 H 0.12742 0.54011 0.26219 0.0
H1157 H 0.14453 0.54088 0.07987 0.0
H1158 H 0.16999 0.63099 0.96051 0.0
H1159 H 0.16667 0.60247 0.00852 0.0
H1160 H 0.14016 0.59458 0.16983 0.0
C1161 C 0.13704 0.53502 0.24871 0.0
C1162 C 0.14371 0.55257 0.10017 0.0
C1163 C 0.14089 0.52396 0.28603 0.0
C1164 C 0.15811 0.62334 0.98957 0.0
C1165 C 0.15615 0.60695 0.01672 0.0
C1166 C 0.14084 0.58276 0.14977 0.0
C1167 C 0.14584 0.53984 0.19555 0.0
C1168 C 0.1437 0.55386 0.15903 0.0
C1169 C 0.14149 0.59719 0.05659 0.0
C1170 C 0.14123 0.58165 0.09122 0.0
H1171 H 0.17054 0.51516 0.20403 0.0
H1172 H 0.16471 0.53548 0.13914 0.0
H1173 H 0.14275 0.57114 0.22816 0.0
H1174 H 0.11981 0.62459 0.04829 0.0
H1175 H 0.11669 0.59616 0.09696 0.0
C1176 C 0.4208 0.52823 0.03915 0.0
C1177 C 0.4097 0.53301 1.00403 0.0
C1178 C 0.43698 0.54276 0.06705 0.0
C1179 C 0.47281 0.59472 0.07052 0.0
H1180 H 0.46963 0.58804 0.23164 0.0
C1181 C 0.51899 0.65756 0.22471 0.0
C1182 C 0.52327 0.65279 0.2772 0.0
C1183 C 0.50732 0.64288 0.18678 0.0
C1184 C 0.47115 0.59007 0.18672 0.0
H1185 H 0.40756 0.55677 0.96772 0.0
H1186 H 0.43604 0.58213 0.01572 0.0
H1187 H 0.4461 0.56238 0.17236 0.0
H1188 H 0.52012 0.62945 0.33029 0.0
H1189 H 0.50096 0.60399 0.26333 0.0
H1190 H 0.49804 0.62234 0.08469 0.0
C1191 C 0.43211 0.56716 0.02201 0.0
C1192 C 0.45752 0.57532 0.15275 0.0
C1193 C 0.41575 0.55264 0.99487 0.0
C1194 C 0.51676 0.63337 0.2901 0.0
C1195 C 0.50559 0.6188 0.25187 0.0
C1196 C 0.48673 0.60941 0.10452 0.0
C1197 C 0.44256 0.56234 0.05952 0.0
C1198 C 0.45809 0.57754 0.09441 0.0
C1199 C 0.50011 0.62323 0.20041 0.0
C1200 C 0.486 0.60736 0.16323 0.0
H1201 H 0.41652 0.51326 0.04705 0.0
H1202 H 0.44488 0.53869 0.09555 0.0
H1203 H 0.47356 0.59676 0.02553 0.0
H1204 H 0.52382 0.67249 0.21424 0.0
H1205 H 0.50332 0.64693 0.14792 0.0
C1206 C 0.53644 0.8161 0.84583 0.0
C1207 C 0.55274 0.83466 0.84059 0.0
C1208 C 0.53602 0.80015 0.8204 0.0
C1209 C 0.53289 0.77309 0.72811 0.0
H1210 H 0.5776 0.76672 0.70922 0.0
C1211 C 0.53662 0.72595 0.5538 0.0
C1212 C 0.54504 0.71447 0.56481 0.0
C1213 C 0.53741 0.73916 0.59333 0.0
C1214 C 0.56492 0.76815 0.71474 0.0
H1215 H 0.58177 0.85089 0.80659 0.0
H1216 H 0.58086 0.8231 0.76081 0.0
H1217 H 0.57978 0.7924 0.77009 0.0
H1218 H 0.5609 0.70794 0.62644 0.0
H1219 H 0.56214 0.73109 0.69613 0.0
H1220 H 0.51799 0.74892 0.67312 0.0
C1221 C 0.56848 0.82081 0.78534 0.0
C1222 C 0.56623 0.783 0.74908 0.0
C1223 C 0.56897 0.83678 0.81133 0.0
C1224 C 0.55417 0.71647 0.61677 0.0
C1225 C 0.55501 0.72982 0.65648 0.0
C1226 C 0.53158 0.75829 0.69402 0.0
C1227 C 0.55181 0.80237 0.78853 0.0
C1228 C 0.55029 0.78581 0.75557 0.0
C1229 C 0.54663 0.74132 0.6451 0.0
C1230 C 0.54766 0.75585 0.68604 0.0
H1231 H 0.52382 0.81391 0.86891 0.0
H1232 H 0.52313 0.7861 0.82494 0.0
H1233 H 0.52037 0.77491 0.73143 0.0
H1234 H 0.52956 0.72493 0.51418 0.0
H1235 H 0.53111 0.74801 0.58272 0.0
C1236 C 0.32526 0.85419 0.61632 0.0
C1237 C 0.32834 0.84632 0.56731 0.0
C1238 C 0.312 0.84206 0.65694 0.0
C1239 C 0.28508 0.79067 0.70323 0.0
H1240 H 0.24796 0.80365 0.76369 0.0
C1241 C 0.22423 0.73743 0.84761 0.0
C1242 C 0.20568 0.73466 0.83748 0.0
C1243 C 0.24057 0.75309 0.82396 0.0
C1244 C 0.25818 0.79978 0.74707 0.0
H1245 H 0.32019 0.81949 0.52334 0.0
H1246 H 0.29731 0.79863 0.59324 0.0
H1247 H 0.27438 0.82696 0.70455 0.0
H1248 H 0.18981 0.74664 0.79636 0.0
H1249 H 0.21828 0.77366 0.7535 0.0
H1250 H 0.26852 0.76321 0.74281 0.0
C1251 C 0.30518 0.81407 0.60097 0.0
C1252 C 0.27348 0.81326 0.71377 0.0
C1253 C 0.31827 0.82611 0.56056 0.0
C1254 C 0.20391 0.74837 0.80495 0.0
C1255 C 0.22028 0.76394 0.78064 0.0
C1256 C 0.26981 0.77722 0.73616 0.0
C1257 C 0.30172 0.82184 0.64948 0.0
C1258 C 0.28688 0.80869 0.69048 0.0
C1259 C 0.2388 0.76627 0.78886 0.0
C1260 C 0.25595 0.78143 0.75785 0.0
H1261 H 0.33268 0.8697 0.62259 0.0
H1262 H 0.30975 0.84849 0.69402 0.0
H1263 H 0.29529 0.78677 0.68668 0.0
H1264 H 0.22611 0.72731 0.87326 0.0
H1265 H 0.2546 0.75466 0.83248 0.0
C1266 C 0.18679 0.48612 0.6087 0.0
C1267 C 0.19378 0.49446 0.55575 0.0
C1268 C 0.19925 0.4851 0.64826 0.0
C1269 C 0.25133 0.50723 0.68277 0.0
H1270 H 0.23578 0.46025 0.76739 0.0
C1271 C 0.29055 0.47019 0.81185 0.0
C1272 C 0.30493 0.48673 0.83946 0.0
C1273 C 0.27534 0.47067 0.78405 0.0
C1274 C 0.24034 0.47345 0.74396 0.0
H1275 H 0.2194 0.50812 0.50302 0.0
H1276 H 0.24081 0.50625 0.57128 0.0
H1277 H 0.21257 0.46226 0.70479 0.0
H1278 H 0.31384 0.5163 0.86272 0.0
H1279 H 0.28725 0.517 0.81542 0.0
H1280 H 0.27921 0.51824 0.71984 0.0
C1281 C 0.22584 0.50077 0.58281 0.0
C1282 C 0.22698 0.47468 0.70858 0.0
C1283 C 0.21347 0.50176 0.54346 0.0
C1284 C 0.30319 0.50339 0.84114 0.0
C1285 C 0.28797 0.50382 0.81375 0.0
C1286 C 0.26462 0.50601 0.71797 0.0
C1287 C 0.21894 0.49246 0.63573 0.0
C1288 C 0.23243 0.4915 0.67693 0.0
C1289 C 0.27413 0.48766 0.78356 0.0
C1290 C 0.2594 0.48907 0.74868 0.0
H1291 H 0.17169 0.48024 0.61941 0.0
H1292 H 0.19351 0.47869 0.68878 0.0
H1293 H 0.25595 0.52049 0.65959 0.0
H1294 H 0.29144 0.45711 0.80981 0.0
H1295 H 0.26502 0.45799 0.76096 0.0
C1296 C 0.21954 0.50247 0.3022 0.0
C1297 C 0.20389 0.48525 0.32291 0.0
C1298 C 0.23552 0.50257 0.27831 0.0
C1299 C 0.25163 0.47055 0.21489 0.0
H1300 H 0.30183 0.51714 0.22723 0.0
C1301 C 0.322 0.48053 0.10921 0.0
C1302 C 0.32965 0.49611 0.07135 0.0
C1303 C 0.30783 0.47825 0.14804 0.0
C1304 C 0.28792 0.50399 0.2238 0.0
H1305 H 0.19289 0.4546 0.33523 0.0
H1306 H 0.22118 0.45483 0.2947 0.0
H1307 H 0.27458 0.51433 0.28091 0.0
H1308 H 0.32921 0.52194 0.04597 0.0
H1309 H 0.30513 0.5184 0.11522 0.0
H1310 H 0.2653 0.46031 0.15781 0.0
C1311 C 0.22087 0.46823 0.29596 0.0
C1312 C 0.27223 0.50241 0.2541 0.0
C1313 C 0.20468 0.46808 0.31938 0.0
C1314 C 0.32358 0.50982 0.07474 0.0
C1315 C 0.30984 0.50782 0.11437 0.0
C1316 C 0.26747 0.47202 0.1853 0.0
C1317 C 0.23654 0.48551 0.27513 0.0
C1318 C 0.2537 0.48595 0.24866 0.0
C1319 C 0.30154 0.49181 0.15056 0.0
C1320 C 0.28561 0.48898 0.18834 0.0
H1321 H 0.21938 0.51594 0.30364 0.0
H1322 H 0.24695 0.51607 0.2614 0.0
H1323 H 0.23762 0.45772 0.20919 0.0
H1324 H 0.32629 0.46966 0.10704 0.0
H1325 H 0.30161 0.4658 0.17559 0.0
C1326 C 0.57221 0.75213 0.32315 0.0
C1327 C 0.55505 0.73416 0.32829 0.0
C1328 C 0.57217 0.76753 0.29487 0.0
C1329 C 0.54739 0.77638 0.1821 0.0
H1330 H 0.56279 0.82648 0.24772 0.0
C1331 C 0.52898 0.82805 0.06999 0.0
C1332 C 0.54268 0.84787 0.06947 0.0
C1333 C 0.53114 0.8155 0.10593 0.0
C1334 C 0.55869 0.81268 0.22845 0.0
H1335 H 0.5244 0.71843 0.30824 0.0
H1336 H 0.52453 0.74498 0.25815 0.0
H1337 H 0.56658 0.80239 0.3015 0.0
H1338 H 0.56901 0.87029 0.10766 0.0
H1339 H 0.57321 0.84821 0.16961 0.0
H1340 H 0.53989 0.78641 0.10885 0.0
C1341 C 0.53794 0.74721 0.27628 0.0
C1342 C 0.56086 0.79892 0.25931 0.0
C1343 C 0.53789 0.73203 0.30517 0.0
C1344 C 0.55816 0.85506 0.10754 0.0
C1345 C 0.56055 0.84239 0.14298 0.0
C1346 C 0.5455 0.79013 0.15109 0.0
C1347 C 0.55505 0.76505 0.27045 0.0
C1348 C 0.55484 0.78052 0.23671 0.0
C1349 C 0.54733 0.82233 0.14143 0.0
C1350 C 0.55064 0.80831 0.17421 0.0
H1351 H 0.58564 0.75425 0.34075 0.0
H1352 H 0.58556 0.78118 0.29076 0.0
H1353 H 0.54291 0.76239 0.16344 0.0
H1354 H 0.51679 0.82213 0.04149 0.0
H1355 H 0.52026 0.80029 0.10485 0.0
C1356 C 0.30587 0.81598 0.31584 0.0
C1357 C 0.30412 0.83168 0.33511 0.0
C1358 C 0.29064 0.80061 0.28761 0.0
C1359 C 0.23863 0.77414 0.26259 0.0
H1360 H 0.25309 0.76281 0.11851 0.0
C1361 C 0.18292 0.71949 0.10163 0.0
C1362 C 0.18932 0.70966 0.06674 0.0
C1363 C 0.19575 0.73355 0.13936 0.0
C1364 C 0.24878 0.76545 0.15905 0.0
H1365 H 0.28455 0.84301 0.34218 0.0
H1366 H 0.25767 0.81577 0.2932 0.0
H1367 H 0.27737 0.7887 0.17573 0.0
H1368 H 0.2135 0.70564 0.04658 0.0
H1369 H 0.23545 0.72917 0.11407 0.0
H1370 H 0.21006 0.75051 0.24641 0.0
C1371 C 0.271 0.8156 0.29982 0.0
C1372 C 0.26272 0.78043 0.19164 0.0
C1373 C 0.2864 0.8312 0.32756 0.0
C1374 C 0.20828 0.71318 0.07265 0.0
C1375 C 0.22092 0.72685 0.11094 0.0
C1376 C 0.22463 0.75887 0.23018 0.0
C1377 C 0.27317 0.80039 0.27853 0.0
C1378 C 0.25787 0.78484 0.24389 0.0
C1379 C 0.2151 0.73779 0.14331 0.0
C1380 C 0.2296 0.75419 0.17818 0.0
H1381 H 0.31924 0.81577 0.32109 0.0
H1382 H 0.2926 0.78895 0.27211 0.0
H1383 H 0.23455 0.77727 0.30283 0.0
H1384 H 0.16839 0.71713 0.0974 0.0
H1385 H 0.19075 0.7417 0.16338 0.0
C1386 C 0.14241 0.6336 0.78247 0.0
C1387 C 0.15613 0.65286 0.77028 0.0
C1388 C 0.13903 0.61884 0.74501 0.0
C1389 C 0.14968 0.60855 0.60041 0.0
H1390 H 0.14146 0.56135 0.67164 0.0
C1391 C 0.16212 0.55048 0.49327 0.0
C1392 C 0.14856 0.53092 0.50362 0.0
C1393 C 0.16064 0.5652 0.52035 0.0
C1394 C 0.14345 0.57431 0.65102 0.0
H1395 H 0.17673 0.67212 0.7091 0.0
H1396 H 0.17154 0.64617 0.64397 0.0
H1397 H 0.14378 0.58754 0.72883 0.0
H1398 H 0.12238 0.51149 0.54899 0.0
H1399 H 0.12 0.53728 0.59718 0.0
H1400 H 0.15029 0.59536 0.52261 0.0
C1401 C 0.16293 0.64243 0.6818 0.0
C1402 C 0.14473 0.58938 0.6838 0.0
C1403 C 0.16599 0.65732 0.71901 0.0
C1404 C 0.13307 0.5264 0.5402 0.0
C1405 C 0.13175 0.54115 0.56794 0.0
C1406 C 0.14867 0.59351 0.56761 0.0
C1407 C 0.14972 0.62292 0.69501 0.0
C1408 C 0.14785 0.60674 0.65908 0.0
C1409 C 0.1457 0.56069 0.55892 0.0
C1410 C 0.14557 0.57625 0.59267 0.0
H1411 H 0.1345 0.62991 0.82169 0.0
H1412 H 0.1283 0.60415 0.756 0.0
H1413 H 0.15185 0.62155 0.57971 0.0
H1414 H 0.17414 0.55443 0.46498 0.0
H1415 H 0.17166 0.5801 0.51285 0.0
C1416 C 0.38188 0.52453 0.72431 0.0
C1417 C 0.38607 0.5181 0.77416 0.0
C1418 C 0.39686 0.53624 0.68714 0.0
C1419 C 0.45025 0.56931 0.68852 0.0
H1420 H 0.44382 0.57113 0.52816 0.0
C1421 C 0.51338 0.6218 0.54647 0.0
C1422 C 0.50901 0.63314 0.51098 0.0
C1423 C 0.49854 0.60559 0.57364 0.0
C1424 C 0.44581 0.57075 0.57292 0.0
H1425 H 0.4086 0.51767 0.82321 0.0
H1426 H 0.43448 0.53705 0.75746 0.0
H1427 H 0.41738 0.54634 0.58424 0.0
H1428 H 0.4856 0.6357 0.4738 0.0
H1429 H 0.45983 0.6074 0.52073 0.0
H1430 H 0.47862 0.59369 0.67721 0.0
C1431 C 0.41995 0.53388 0.74752 0.0
C1432 C 0.43062 0.55661 0.60515 0.0
C1433 C 0.40512 0.52258 0.78494 0.0
C1434 C 0.48948 0.62737 0.50123 0.0
C1435 C 0.47468 0.61106 0.52778 0.0
C1436 C 0.46544 0.58325 0.65628 0.0
C1437 C 0.4162 0.54149 0.69904 0.0
C1438 C 0.43257 0.5558 0.66355 0.0
C1439 C 0.47904 0.60022 0.56522 0.0
C1440 C 0.46335 0.58428 0.59823 0.0
H1441 H 0.36727 0.52137 0.71562 0.0
H1442 H 0.39337 0.5419 0.65055 0.0
H1443 H 0.45223 0.56957 0.73343 0.0
H1444 H 0.52827 0.62583 0.55478 0.0
H1445 H 0.50233 0.59741 0.60191 0.0
C1446 C 0.41461 0.87855 0.49226 0.0
C1447 C 0.40822 0.89181 0.50227 0.0
C1448 C 0.4309 0.88039 0.51979 0.0
C1449 C 0.45616 0.89743 0.6518 0.0
H1450 H 0.49617 0.89026 0.58334 0.0
C1451 C 0.51536 0.89821 0.78842 0.0
C1452 C 0.52151 0.885 0.77592 0.0
C1453 C 0.50427 0.90172 0.75019 0.0
C1454 C 0.48501 0.89208 0.60328 0.0
H1455 H 0.41439 0.91785 0.5474 0.0
H1456 H 0.44269 0.92083 0.59644 0.0
H1457 H 0.47183 0.89165 0.52445 0.0
H1458 H 0.52147 0.86539 0.71345 0.0
H1459 H 0.5012 0.87073 0.64699 0.0
H1460 H 0.46837 0.89683 0.73055 0.0
C1461 C 0.43508 0.90906 0.56704 0.0
C1462 C 0.47115 0.89301 0.56943 0.0
C1463 C 0.41894 0.90741 0.53877 0.0
C1464 C 0.51697 0.87577 0.72365 0.0
C1465 C 0.5054 0.87892 0.68565 0.0
C1466 C 0.46977 0.89621 0.68561 0.0
C1467 C 0.441 0.89536 0.55858 0.0
C1468 C 0.45657 0.89566 0.59342 0.0
C1469 C 0.4985 0.89162 0.69904 0.0
C1470 C 0.48443 0.89351 0.66199 0.0
H1471 H 0.40672 0.86644 0.4641 0.0
H1472 H 0.43504 0.86956 0.51268 0.0
H1473 H 0.44486 0.89908 0.6716 0.0
H1474 H 0.51887 0.90562 0.82845 0.0
H1475 H 0.49989 0.91209 0.76148 0.0
C1476 C 0.06012 0.29617 0.72536 0.0
C1477 C 0.06049 0.27995 0.70427 0.0
C1478 C 0.07054 0.31415 0.69829 0.0
C1479 C 0.0913 0.33419 0.55799 0.0
H1480 H 0.11458 0.38349 0.63484 0.0
C1481 C 0.11773 0.40751 0.44254 0.0
C1482 C 0.13376 0.42396 0.46514 0.0
C1483 C 0.10993 0.3896 0.47012 0.0
C1484 C 0.10836 0.36986 0.61258 0.0
H1485 H 0.07307 0.27004 0.64121 0.0
H1486 H 0.09172 0.30132 0.59569 0.0
H1487 H 0.0998 0.35367 0.6891 0.0
H1488 H 0.15504 0.43433 0.53181 0.0
H1489 H 0.14201 0.40318 0.57836 0.0
H1490 H 0.10019 0.35037 0.48151 0.0
C1491 C 0.08292 0.3002 0.6316 0.0
C1492 C 0.09963 0.35272 0.64384 0.0
C1493 C 0.07242 0.2823 0.65814 0.0
C1494 C 0.14257 0.42191 0.5136 0.0
C1495 C 0.13494 0.40408 0.54071 0.0
C1496 C 0.10009 0.35133 0.52674 0.0
C1497 C 0.08161 0.31623 0.64996 0.0
C1498 C 0.09103 0.33463 0.61702 0.0
C1499 C 0.11812 0.38781 0.52055 0.0
C1500 C 0.1088 0.36943 0.55357 0.0
H1501 H 0.05086 0.29468 0.7604 0.0
H1502 H 0.06912 0.32614 0.71359 0.0
H1503 H 0.08451 0.32056 0.53566 0.0
H1504 H 0.1105 0.40872 0.40568 0.0
H1505 H 0.09692 0.37743 0.45338 0.0
C1506 C 0.75731 0.80345 0.66716 0.0
C1507 C 0.76025 0.79324 0.71035 0.0
C1508 C 0.73915 0.79616 0.64222 0.0
C1509 C 0.69634 0.7503 0.60831 0.0
H1510 H 0.67328 0.78157 0.57053 0.0
C1511 C 0.6323 0.72403 0.45253 0.0
C1512 C 0.61638 0.72497 0.47372 0.0
C1513 C 0.65025 0.73371 0.47998 0.0
C1514 C 0.67957 0.77268 0.58069 0.0
H1515 H 0.74643 0.76762 0.76232 0.0
H1516 H 0.71448 0.7546 0.71795 0.0
H1517 H 0.70283 0.79549 0.62706 0.0
H1518 H 0.60698 0.73754 0.53817 0.0
H1519 H 0.63836 0.75492 0.5847 0.0
H1520 H 0.67322 0.72756 0.56138 0.0
C1521 C 0.72629 0.76837 0.70386 0.0
C1522 C 0.69647 0.78064 0.61302 0.0
C1523 C 0.74446 0.77591 0.72969 0.0
C1524 C 0.61904 0.73666 0.52073 0.0
C1525 C 0.63701 0.7466 0.54742 0.0
C1526 C 0.67961 0.74244 0.57523 0.0
C1527 C 0.72356 0.77827 0.65909 0.0
C1528 C 0.70502 0.76952 0.62736 0.0
C1529 C 0.65267 0.74479 0.52839 0.0
C1530 C 0.67101 0.75352 0.56111 0.0
H1531 H 0.76931 0.81679 0.6512 0.0
H1532 H 0.73757 0.80407 0.6077 0.0
H1533 H 0.70272 0.74146 0.61805 0.0
H1534 H 0.6306 0.71491 0.41688 0.0
H1535 H 0.66213 0.73219 0.46411 0.0
C1536 C 0.26301 0.98167 0.72821 0.0
C1537 C 0.2464 0.98132 0.70752 0.0
C1538 C 0.27005 0.97065 0.70214 0.0
C1539 C 0.26682 0.94656 0.56517 0.0
H1540 H 0.29479 0.92595 0.64459 0.0
C1541 C 0.31185 0.91821 0.4503 0.0
C1542 C 0.31388 0.90353 0.47611 0.0
C1543 C 0.30196 0.92625 0.47764 0.0
C1544 C 0.28677 0.93133 0.62163 0.0
H1545 H 0.22336 0.96827 0.64625 0.0
H1546 H 0.23492 0.94841 0.6029 0.0
H1547 H 0.28042 0.94173 0.69674 0.0
H1548 H 0.30603 0.8848 0.54869 0.0
H1549 H 0.28803 0.89802 0.59489 0.0
H1550 H 0.27262 0.93563 0.49028 0.0
C1551 C 0.24311 0.95772 0.63741 0.0
C1552 C 0.27877 0.9407 0.65165 0.0
C1553 C 0.23632 0.96893 0.66271 0.0
C1554 C 0.30481 0.89622 0.52797 0.0
C1555 C 0.29469 0.90399 0.5548 0.0
C1556 C 0.27464 0.93701 0.53524 0.0
C1557 C 0.26042 0.95888 0.65542 0.0
C1558 C 0.2687 0.9485 0.62388 0.0
C1559 C 0.29367 0.91957 0.53101 0.0
C1560 C 0.28479 0.9293 0.56295 0.0
H1561 H 0.27115 0.99127 0.76231 0.0
H1562 H 0.28349 0.97206 0.7171 0.0
H1563 H 0.25953 0.95267 0.5419 0.0
H1564 H 0.31891 0.92429 0.41069 0.0
H1565 H 0.30165 0.9383 0.45801 0.0
C1566 C 0.28491 0.06792 0.85105 0.0
C1567 C 0.28242 0.05616 0.80433 0.0
C1568 C 0.30283 0.07806 0.87784 0.0
C1569 C 0.34568 0.07442 0.90663 0.0
H1570 H 0.36792 0.12724 0.95974 0.0
C1571 C 0.40986 0.10821 0.0633 0.0
C1572 C 0.4255 0.12583 0.04493 0.0
C1573 C 0.39177 0.10048 0.03685 0.0
C1574 C 0.36184 0.11245 0.94533 0.0
H1575 H 0.29685 0.04621 0.74804 0.0
H1576 H 0.32834 0.06388 0.79543 0.0
H1577 H 0.33867 0.11313 0.90198 0.0
H1578 H 0.43434 0.14965 0.9869 0.0
H1579 H 0.40276 0.13656 0.9423 0.0
H1580 H 0.3688 0.07371 0.95026 0.0
C1581 C 0.31637 0.06529 0.81099 0.0
C1582 C 0.34511 0.10438 0.91229 0.0
C1583 C 0.29845 0.05539 0.78344 0.0
C1584 C 0.42246 0.1361 1.00215 0.0
C1585 C 0.40438 0.12859 0.97657 0.0
C1586 C 0.36226 0.0824 0.94036 0.0
C1587 C 0.31862 0.0764 0.85921 0.0
C1588 C 0.33689 0.0853 0.8923 0.0
C1589 C 0.38898 0.11044 0.9924 0.0
C1590 C 0.37058 0.10154 0.95991 0.0
H1591 H 0.27274 0.06866 0.86827 0.0
H1592 H 0.30404 0.08639 0.91498 0.0
H1593 H 0.33955 0.0596 0.89251 0.0
H1594 H 0.41192 0.09988 0.09558 0.0
H1595 H 0.38011 0.0865 0.05018 0.0
C1596 C 0.98552 0.25894 0.77596 0.0
C1597 C 0.98514 0.24242 0.79774 0.0
C1598 C 0.97541 0.26681 0.80305 0.0
C1599 C 0.95565 0.26725 0.94392 0.0
H1600 H 0.9319 0.29266 0.86646 0.0
C1601 C 0.92952 0.31465 0.05782 0.0
C1602 C 0.9132 0.31458 0.0357 0.0
C1603 C 0.93738 0.30458 0.03042 0.0
C1604 C 0.93827 0.28543 0.8889 0.0
H1605 H 0.97282 0.22037 0.86212 0.0
H1606 H 0.9547 0.23354 0.90778 0.0
H1607 H 0.94631 0.2772 0.81254 0.0
H1608 H 0.8915 0.30287 0.97022 0.0
H1609 H 0.90467 0.28486 0.92399 0.0
H1610 H 0.94726 0.27514 0.02027 0.0
C1611 C 0.96328 0.24092 0.87126 0.0
C1612 C 0.94678 0.27678 0.85782 0.0
C1613 C 0.97349 0.23323 0.84467 0.0
C1614 C 0.90422 0.30332 0.98795 0.0
C1615 C 0.91191 0.29317 0.96105 0.0
C1616 C 0.94709 0.27585 0.975 0.0
C1617 C 0.96463 0.25819 0.85211 0.0
C1618 C 0.95552 0.26749 0.88487 0.0
C1619 C 0.92896 0.29416 0.98071 0.0
C1620 C 0.9382 0.285 0.94794 0.0
H1621 H 0.99457 0.26644 0.74026 0.0
H1622 H 0.97683 0.28015 0.78714 0.0
H1623 H 0.96256 0.26057 0.96637 0.0
H1624 H 0.93685 0.32338 0.09418 0.0
H1625 H 0.95056 0.30573 0.04674 0.0
C1626 C 0.78267 0.74004 0.77957 0.0
C1627 C 0.79914 0.75639 0.80073 0.0
C1628 C 0.77519 0.7221 0.80682 0.0
C1629 C 0.77609 0.70214 0.94734 0.0
H1630 H 0.74971 0.65288 0.87035 0.0
C1631 C 0.72895 0.62897 0.06322 0.0
C1632 C 0.72798 0.61234 0.0401 0.0
C1633 C 0.73926 0.64686 0.03564 0.0
C1634 C 0.75724 0.66649 0.89268 0.0
H1635 H 0.82149 0.76659 0.86425 0.0
H1636 H 0.80906 0.73538 0.90999 0.0
H1637 H 0.76484 0.68269 0.81623 0.0
H1638 H 0.73813 0.6016 0.97245 0.0
H1639 H 0.75669 0.63272 0.92597 0.0
H1640 H 0.76888 0.68593 0.02374 0.0
C1641 C 0.80138 0.73636 0.87392 0.0
C1642 C 0.7657 0.68365 0.86148 0.0
C1643 C 0.80866 0.75422 0.84725 0.0
C1644 C 0.73853 0.61418 0.99109 0.0
C1645 C 0.74898 0.632 0.96402 0.0
C1646 C 0.76773 0.68498 0.97853 0.0
C1647 C 0.78416 0.72017 0.85539 0.0
C1648 C 0.77527 0.70174 0.88832 0.0
C1649 C 0.74895 0.64847 0.9847 0.0
C1650 C 0.75818 0.66689 0.95169 0.0
H1651 H 0.7749 0.74136 0.74424 0.0
H1652 H 0.76185 0.71001 0.79136 0.0
H1653 H 0.78299 0.71575 0.96976 0.0
H1654 H 0.72074 0.62792 0.10049 0.0
H1655 H 0.73881 0.65917 0.05281 0.0
C1656 C 0.90314 0.60941 0.46696 0.0
C1657 C 0.9052 0.60804 0.52516 0.0
C1658 C 0.91057 0.62732 0.44075 0.0
C1659 C 0.92682 0.67855 0.45918 0.0
H1660 H 0.96032 0.68562 0.33279 0.0
C1661 C 0.97773 0.75364 0.36586 0.0
C1662 C 0.98307 0.75573 0.30894 0.0
C1663 C 0.96607 0.73545 0.38944 0.0
C1664 C 0.95071 0.68384 0.36713 0.0
H1665 H 0.91572 0.62465 0.60179 0.0
H1666 H 0.92855 0.6563 0.55553 0.0
H1667 H 0.94416 0.65471 0.38168 0.0
H1668 H 0.97935 0.7401 0.23152 0.0
H1669 H 0.95834 0.70806 0.27247 0.0
H1670 H 0.93297 0.70748 0.44417 0.0
C1671 C 0.92125 0.64326 0.53051 0.0
C1672 C 0.94157 0.66614 0.39551 0.0
C1673 C 0.9139 0.62517 0.557 0.0
C1674 C 0.9756 0.73903 0.27548 0.0
C1675 C 0.96371 0.72066 0.29921 0.0
C1676 C 0.93574 0.69619 0.43026 0.0
C1677 C 0.92013 0.64446 0.47186 0.0
C1678 C 0.92967 0.66336 0.44213 0.0
C1679 C 0.95909 0.71862 0.35687 0.0
C1680 C 0.94804 0.6992 0.38424 0.0
H1681 H 0.89629 0.59659 0.44095 0.0
H1682 H 0.90914 0.62776 0.39572 0.0
H1683 H 0.91751 0.67671 0.49445 0.0
H1684 H 0.98303 0.76611 0.39316 0.0
H1685 H 0.96322 0.73465 0.43398 0.0
C1686 C 0.28537 0.22955 0.34548 0.0
C1687 C 0.28307 0.23888 0.29865 0.0
C1688 C 0.30327 0.23715 0.37225 0.0
C1689 C 0.34617 0.28349 0.40132 0.0
H1690 H 0.36808 0.25281 0.45565 0.0
C1691 C 0.40928 0.31372 0.56099 0.0
C1692 C 0.42512 0.31199 0.54343 0.0
C1693 C 0.39137 0.30326 0.53372 0.0
C1694 C 0.3621 0.26154 0.44088 0.0
H1695 H 0.29779 0.26313 0.24199 0.0
H1696 H 0.32926 0.27667 0.28939 0.0
H1697 H 0.33905 0.23771 0.39685 0.0
H1698 H 0.43447 0.29726 0.4861 0.0
H1699 H 0.40315 0.27857 0.44002 0.0
H1700 H 0.3691 0.30728 0.44573 0.0
C1701 C 0.31716 0.26337 0.30503 0.0
C1702 C 0.3455 0.25291 0.40724 0.0
C1703 C 0.29926 0.25552 0.27749 0.0
C1704 C 0.42243 0.29875 0.5007 0.0
C1705 C 0.40451 0.28807 0.47427 0.0
C1706 C 0.36259 0.29205 0.43566 0.0
C1707 C 0.31922 0.25448 0.35347 0.0
C1708 C 0.3374 0.26381 0.38687 0.0
C1709 C 0.38894 0.29065 0.48922 0.0
C1710 C 0.37078 0.28119 0.45571 0.0
H1711 H 0.27307 0.21677 0.36286 0.0
H1712 H 0.30434 0.23002 0.40956 0.0
H1713 H 0.34012 0.2922 0.38691 0.0
H1714 H 0.41106 0.32404 0.59323 0.0
H1715 H 0.37956 0.30542 0.54639 0.0
C1716 C 0.80581 0.06687 0.34133 0.0
C1717 C 0.79626 0.05449 0.296 0.0
C1718 C 0.79815 0.07724 0.36712 0.0
C1719 C 0.75185 0.07369 0.39746 0.0
H1720 H 0.78308 0.12691 0.44676 0.0
C1721 C 0.72347 0.10835 0.55729 0.0
C1722 C 0.72547 0.12603 0.53961 0.0
C1723 C 0.73337 0.10045 0.52925 0.0
C1724 C 0.77418 0.11203 0.43334 0.0
H1725 H 0.77143 0.0436 0.24106 0.0
H1726 H 0.75775 0.0617 0.28687 0.0
H1727 H 0.79754 0.11239 0.38806 0.0
H1728 H 0.74008 0.1498 0.48115 0.0
H1729 H 0.75776 0.13637 0.43361 0.0
H1730 H 0.72852 0.07329 0.44312 0.0
C1731 C 0.7713 0.06342 0.30204 0.0
C1732 C 0.78246 0.10372 0.39977 0.0
C1733 C 0.77921 0.05326 0.27541 0.0
C1734 C 0.73839 0.13619 0.49584 0.0
C1735 C 0.74849 0.12849 0.46857 0.0
C1736 C 0.74363 0.08193 0.43167 0.0
C1737 C 0.78053 0.07522 0.3489 0.0
C1738 C 0.77139 0.08446 0.38138 0.0
C1739 C 0.74567 0.11027 0.48379 0.0
C1740 C 0.7547 0.1012 0.44997 0.0
H1741 H 0.81888 0.06794 0.35834 0.0
H1742 H 0.80554 0.08606 0.40329 0.0
H1743 H 0.74302 0.05874 0.3846 0.0
H1744 H 0.71339 0.1001 0.59035 0.0
H1745 H 0.73106 0.08645 0.54221 0.0
C1746 C 0.61484 0.90232 0.03677 0.0
C1747 C 0.61313 0.9058 0.97973 0.0
C1748 C 0.6329 0.90971 0.062 0.0
C1749 C 0.68409 0.9275 0.04067 0.0
H1750 H 0.69105 0.95845 0.17327 0.0
C1751 C 0.7592 0.97604 0.13749 0.0
C1752 C 0.76125 0.98038 0.19518 0.0
C1753 C 0.74102 0.96509 0.11314 0.0
C1754 C 0.68933 0.94955 0.13711 0.0
H1755 H 0.62934 0.91884 0.90379 0.0
H1756 H 0.66128 0.93149 0.9482 0.0
H1757 H 0.66009 0.94299 0.12462 0.0
H1758 H 0.7455 0.97558 0.27291 0.0
H1759 H 0.71348 0.9557 0.2306 0.0
H1760 H 0.71304 0.93346 0.05375 0.0
C1761 C 0.64836 0.92317 0.97313 0.0
C1762 C 0.67159 0.94083 0.10887 0.0
C1763 C 0.63012 0.9159 0.94771 0.0
C1764 C 0.74448 0.97262 0.22839 0.0
C1765 C 0.72612 0.96138 0.20389 0.0
C1766 C 0.70175 0.93593 0.06947 0.0
C1767 C 0.64986 0.92059 0.03094 0.0
C1768 C 0.66884 0.92986 0.06012 0.0
C1769 C 0.72414 0.95776 0.14562 0.0
C1770 C 0.70473 0.94731 0.11777 0.0
H1771 H 0.60214 0.89435 0.0628 0.0
H1772 H 0.6336 0.90718 0.10631 0.0
H1773 H 0.68226 0.91887 1.00369 0.0
H1774 H 0.77171 0.98163 0.11024 0.0
H1775 H 0.7403 0.96304 0.06821 0.0
C1776 C 0.07094 0.80139 0.16437 0.0
C1777 C 0.05819 0.79113 0.20838 0.0
C1778 C 0.08159 0.79417 0.13781 0.0
C1779 C 0.07843 0.74847 0.10153 0.0
H1780 H 0.13247 0.78006 0.06034 0.0
C1781 C 0.11532 0.72235 0.94228 0.0
C1782 C 0.13227 0.72332 0.96274 0.0
C1783 C 0.10723 0.73211 0.97015 0.0
C1784 C 0.11736 0.77108 0.07141 0.0
H1785 H 0.0469 0.76549 0.2601 0.0
H1786 H 0.06543 0.75257 0.21283 0.0
H1787 H 0.11717 0.79376 0.11907 0.0
H1788 H 0.1546 0.73601 0.02617 0.0
H1789 H 0.14094 0.75356 0.07336 0.0
H1790 H 0.07857 0.72585 0.0534 0.0
C1791 C 0.06724 0.76633 0.19935 0.0
C1792 C 0.10861 0.77892 0.10502 0.0
C1793 C 0.05683 0.7738 0.22681 0.0
C1794 C 0.1416 0.73515 0.00926 0.0
C1795 C 0.13376 0.74517 0.03634 0.0
C1796 C 0.0871 0.74073 0.06719 0.0
C1797 C 0.07946 0.77629 0.15385 0.0
C1798 C 0.08906 0.76768 0.12065 0.0
C1799 C 0.11617 0.74328 0.01823 0.0
C1800 C 0.10668 0.75193 0.05185 0.0
H1801 H 0.07214 0.81473 0.1491 0.0
H1802 H 0.09076 0.80212 0.10276 0.0
H1803 H 0.06328 0.73953 0.11226 0.0
H1804 H 0.10768 0.71308 0.90708 0.0
H1805 H 0.09372 0.73051 0.95503 0.0
C1806 C 0.24549 0.27971 0.13687 0.0
C1807 C 0.24826 0.27785 0.1944 0.0
C1808 C 0.25273 0.29781 0.11209 0.0
C1809 C 0.26791 0.34837 0.13488 0.0
H1810 H 0.29913 0.35709 1.00176 0.0
C1811 C 0.31256 0.42394 0.03573 0.0
C1812 C 0.31691 0.42597 0.97806 0.0
C1813 C 0.3024 0.40575 0.06066 0.0
C1814 C 0.29014 0.35485 0.0381 0.0
H1815 H 0.26007 0.29388 0.27138 0.0
H1816 H 0.27254 0.32593 0.22759 0.0
H1817 H 0.28547 0.32626 0.05076 0.0
H1818 H 0.31279 0.41015 0.90082 0.0
H1819 H 0.29426 0.3781 0.94406 0.0
H1820 H 0.27198 0.37664 0.12158 0.0
C1821 C 0.26487 0.31307 0.20201 0.0
C1822 C 0.28248 0.33721 0.06658 0.0
C1823 C 0.25774 0.29476 0.22705 0.0
C1824 C 0.30977 0.40914 0.9453 0.0
C1825 C 0.29935 0.39077 0.97037 0.0
C1826 C 0.27531 0.36593 0.10588 0.0
C1827 C 0.26277 0.31471 0.14396 0.0
C1828 C 0.27137 0.33381 0.11541 0.0
C1829 C 0.29592 0.38884 0.02875 0.0
C1830 C 0.2867 0.36952 0.05726 0.0
H1831 H 0.23796 0.2671 0.11021 0.0
H1832 H 0.25055 0.29859 0.06758 0.0
H1833 H 0.25914 0.34602 0.17188 0.0
H1834 H 0.31766 0.43651 0.06254 0.0
H1835 H 0.30042 0.40509 0.10561 0.0
C1836 C 0.95339 0.40186 0.17469 0.0
C1837 C 0.95052 0.3893 0.12982 0.0
C1838 C 0.97131 0.41189 0.20141 0.0
C1839 C 0.01346 0.4071 0.23341 0.0
H1840 H 0.03602 0.46006 0.28548 0.0
C1841 C 0.07748 0.44053 0.39066 0.0
C1842 C 0.09305 0.45835 0.37323 0.0
C1843 C 0.05945 0.43283 0.36386 0.0
C1844 C 0.02988 0.44524 0.27133 0.0
H1845 H 0.96431 0.37784 0.07645 0.0
H1846 H 0.99589 0.39546 0.12344 0.0
H1847 H 0.00715 0.44622 0.22644 0.0
H1848 H 0.10183 0.48252 0.3166 0.0
H1849 H 0.07042 0.46945 0.27125 0.0
H1850 H 0.03623 0.40615 0.27827 0.0
C1851 C 0.98418 0.39752 0.13778 0.0
C1852 C 0.01333 0.43731 0.23757 0.0
C1853 C 0.96623 0.38767 0.11036 0.0
C1854 C 0.08999 0.46881 0.33111 0.0
C1855 C 0.072 0.46131 0.30511 0.0
C1856 C 0.02991 0.41498 0.26769 0.0
C1857 C 0.98676 0.40939 0.18449 0.0
C1858 C 1.00495 0.41816 0.21801 0.0
C1859 C 0.05665 0.44298 0.31993 0.0
C1860 C 0.03836 0.43417 0.2869 0.0
H1861 H 0.94144 0.40324 0.19081 0.0
H1862 H 0.97273 0.42079 0.23736 0.0
H1863 H 0.0072 0.39222 0.21973 0.0
H1864 H 0.07957 0.43206 0.42242 0.0
H1865 H 0.04783 0.41873 0.37651 0.0
C1866 C 0.6418 0.57031 0.18597 0.0
C1867 C 0.65403 0.57981 0.14031 0.0
C1868 C 0.63174 0.57815 0.21264 0.0
C1869 C 0.63532 0.62461 0.24294 0.0
H1870 H 0.58227 0.59317 0.29345 0.0
C1871 C 0.60009 0.65353 0.39939 0.0
C1872 C 0.58222 0.65094 0.38132 0.0
C1873 C 0.60826 0.64363 0.37265 0.0
C1874 C 0.5971 0.60214 0.27973 0.0
H1875 H 0.66496 0.60473 0.08569 0.0
H1876 H 0.64735 0.61869 0.13291 0.0
H1877 H 0.59687 0.57871 0.23527 0.0
H1878 H 0.55843 0.63539 0.32356 0.0
H1879 H 0.57231 0.61778 0.2783 0.0
H1880 H 0.63552 0.64805 0.28748 0.0
C1881 C 0.64557 0.60508 0.14781 0.0
C1882 C 0.60547 0.59385 0.24647 0.0
C1883 C 0.65545 0.59702 0.12037 0.0
C1884 C 0.57217 0.63751 0.33857 0.0
C1885 C 0.58013 0.62744 0.31261 0.0
C1886 C 0.627 0.63285 0.27676 0.0
C1887 C 0.63387 0.59587 0.19487 0.0
C1888 C 0.62466 0.60499 0.22756 0.0
C1889 C 0.59851 0.63078 0.32814 0.0
C1890 C 0.60778 0.62172 0.29542 0.0
H1891 H 0.64051 0.55705 0.20234 0.0
H1892 H 0.62299 0.57075 0.24891 0.0
H1893 H 0.65021 0.6335 0.22967 0.0
H1894 H 0.60825 0.66403 0.43165 0.0
H1895 H 0.62239 0.64637 0.38582 0.0
C1896 C 0.39994 0.95915 0.39354 0.0
C1897 C 0.38379 0.94432 0.3658 0.0
C1898 C 0.41131 0.97722 0.36731 0.0
C1899 C 0.42202 0.99927 0.22475 0.0
H1900 H 0.44144 0.048 0.303 0.0
C1901 C 0.4492 0.07289 0.11144 0.0
C1902 C 0.46448 0.0894 0.1364 0.0
C1903 C 0.44135 0.05482 0.13813 0.0
C1904 C 0.43637 0.03451 0.28059 0.0
H1905 H 0.36622 0.93727 0.29056 0.0
H1906 H 0.38552 0.96837 0.24625 0.0
H1907 H 0.42407 0.0177 0.35502 0.0
H1908 H 0.4845 0.09971 0.20637 0.0
H1909 H 0.47114 0.06836 0.25193 0.0
H1910 H 0.43397 0.01603 0.15018 0.0
C1911 C 0.38997 0.96606 0.28703 0.0
C1912 C 0.42642 0.01714 0.31054 0.0
C1913 C 0.37879 0.94821 0.31281 0.0
C1914 C 0.47255 0.08727 0.1864 0.0
C1915 C 0.4648 0.06932 0.21283 0.0
C1916 C 0.4319 0.01661 0.19482 0.0
C1917 C 0.40663 0.98069 0.31311 0.0
C1918 C 0.41883 0.99928 0.28283 0.0
C1919 C 0.44869 0.05298 0.1901 0.0
C1920 C 0.43902 0.03446 0.2222 0.0
H1921 H 0.40416 0.95658 0.43432 0.0
H1922 H 0.42405 0.98824 0.38867 0.0
H1923 H 0.41673 0.98578 0.20218 0.0
H1924 H 0.44258 0.07411 0.07323 0.0
H1925 H 0.4289 0.04252 0.11949 0.0
C1926 C 0.56976 0.94846 0.82961 0.0
C1927 C 0.57951 0.94606 0.87516 0.0
C1928 C 0.57739 0.96623 0.80226 0.0
C1929 C 0.62376 0.00906 0.76994 0.0
H1930 H 0.59213 0.02999 0.71634 0.0
C1931 C 0.65284 0.07216 0.61023 0.0
C1932 C 0.6502 0.08753 0.62696 0.0
C1933 C 0.64279 0.0542 0.63752 0.0
C1934 C 0.60115 0.02431 0.73092 0.0
H1935 H 0.60458 0.9605 0.92904 0.0
H1936 H 0.61814 0.99187 0.88073 0.0
H1937 H 0.57781 1.00141 0.77656 0.0
H1938 H 0.63437 0.09601 0.68277 0.0
H1939 H 0.61648 0.06469 0.72894 0.0
H1940 H 0.64712 0.03201 0.72433 0.0
C1941 C 0.60452 0.97989 0.8664 0.0
C1942 C 0.59295 0.00793 0.76536 0.0
C1943 C 0.59667 0.96206 0.89449 0.0
C1944 C 0.63649 0.0843 0.6687 0.0
C1945 C 0.62628 0.06637 0.69522 0.0
C1946 C 0.63193 0.02534 0.735 0.0
C1947 C 0.59513 0.98202 0.81923 0.0
C1948 C 0.60416 1.00012 0.78539 0.0
C1949 C 0.62975 0.05128 0.68128 0.0
C1950 C 0.62073 0.03319 0.71518 0.0
H1951 H 0.55655 0.9363 0.81367 0.0
H1952 H 0.56985 0.96731 0.76594 0.0
H1953 H 0.63271 1.00324 0.78403 0.0
H1954 H 0.66358 0.0744 0.57888 0.0
H1955 H 0.64563 0.04277 0.62554 0.0
C1956 C 0.09177 0.64325 0.80314 0.0
C1957 C 0.09368 0.64995 0.85869 0.0
C1958 C 0.07366 0.63289 0.77789 0.0
C1959 C 0.02148 0.60371 0.80346 0.0
H1960 H 0.01715 0.62173 0.65609 0.0
C1961 C 0.94765 0.57996 0.70355 0.0
C1962 C 0.94512 0.57748 0.64509 0.0
C1963 C 0.96584 0.58742 0.72786 0.0
C1964 C 0.01813 0.61624 0.69668 0.0
H1965 H 0.07779 0.65 0.93217 0.0
H1966 H 0.0458 0.63152 0.88784 0.0
H1967 H 0.0483 0.63705 0.70394 0.0
H1968 H 0.96005 0.58076 0.56656 0.0
H1969 H 0.99213 0.59358 0.60946 0.0
H1970 H 0.99143 0.58274 0.79615 0.0
C1971 C 0.05855 0.63453 0.86397 0.0
C1972 C 0.03599 0.62511 0.72432 0.0
C1973 C 0.07683 0.64508 0.8894 0.0
C1974 C 0.96145 0.58252 0.6116 0.0
C1975 C 0.97984 0.58995 0.63625 0.0
C1976 C 1.00366 0.59469 0.77559 0.0
C1977 C 0.05686 0.62876 0.80745 0.0
C1978 C 0.03783 0.61908 0.77823 0.0
C1979 C 0.98224 0.59252 0.69484 0.0
C1980 C 1.00165 0.601 0.72212 0.0
H1981 H 0.10438 0.64638 0.77837 0.0
H1982 H 0.07283 0.62829 0.73479 0.0
H1983 H 0.02251 0.59853 0.84452 0.0
H1984 H 0.93554 0.57637 0.73113 0.0
H1985 H 0.96704 0.58957 0.77278 0.0
C1986 C 0.44366 0.386 0.60962 0.0
C1987 C 0.46115 0.38794 0.62874 0.0
C1988 C 0.43566 0.39606 0.63637 0.0
C1989 C 0.43751 0.41853 0.77433 0.0
H1990 H 0.40818 0.43835 0.69849 0.0
C1991 C 0.39056 0.44451 0.89204 0.0
C1992 C 0.38955 0.46003 0.86811 0.0
C1993 C 0.40041 0.4365 0.86413 0.0
C1994 C 0.41649 0.43307 0.7204 0.0
H1995 H 0.48472 0.40286 0.68763 0.0
H1996 H 0.4713 0.42089 0.73251 0.0
H1997 H 0.4235 0.42394 0.64388 0.0
H1998 H 0.39918 0.48026 0.7987 0.0
H1999 H 0.41677 0.46685 0.75149 0.0
H2000 H 0.43082 0.42801 0.85075 0.0
C2001 C 0.46331 0.41118 0.69846 0.0
C2002 C 0.42508 0.42457 0.689 0.0
C2003 C 0.47114 0.40105 0.67224 0.0
C2004 C 0.39953 0.46813 0.81786 0.0
C2005 C 0.40945 0.46031 0.79043 0.0
C2006 C 0.42895 0.42707 0.80572 0.0
C2007 C 0.44513 0.40829 0.68238 0.0
C2008 C 0.43581 0.41729 0.71549 0.0
C2009 C 0.40951 0.44399 0.81211 0.0
C2010 C 0.41843 0.43457 0.77916 0.0
H2011 H 0.43555 0.37577 0.57673 0.0
H2012 H 0.42161 0.39345 0.62291 0.0
H2013 H 0.44534 0.41274 0.79639 0.0
H2014 H 0.38286 0.4379 0.93046 0.0
H2015 H 0.40014 0.42391 0.88206 0.0
loop_
_geom_bond_atom_site_label_1
_geom_bond_atom_site_label_2
_geom_bond_distance
_geom_bond_site_symmetry_2
_ccdc_geom_bond_type
Fe0 O2 1.918 . S
Fe0 O5 1.997 1_455 S
Fe0 O6 2.002 1_455 S
Fe0 O11 1.976 . S
Fe0 O14 1.996 . S
Fe1 O2 1.918 . S
Fe1 O9 1.997 1_455 S
Fe1 O12 1.996 . S
Fe1 O16 1.976 . S
Fe1 O19 2.002 1_455 S
O2 Fe0 1.918 . S
O2 Fe1 1.918 . S
O2 Fe3 1.918 . S
Fe3 O2 1.918 . S
Fe3 O4 2.002 1_455 S
Fe3 O13 1.976 . S
Fe3 O17 1.996 . S
Fe3 O20 1.997 1_455 S
O4 Fe3 2.002 1_655 S
O4 C21 1.295 . S
O5 Fe0 1.997 1_655 S
O5 C21 1.235 . S
O6 Fe0 2.002 1_655 S
O6 C7 1.295 . S
C7 O6 1.295 . S
C7 O9 1.235 . S
C8 O13 1.287 . S
C8 O14 1.255 . S
O9 Fe1 1.997 1_655 S
O9 C7 1.235 . S
C10 O16 1.287 . S
C10 O17 1.255 . S
O11 Fe0 1.976 . S
O11 C18 1.287 . S
O12 Fe1 1.996 . S
O12 C18 1.255 . S
O13 Fe3 1.976 . S
O13 C8 1.287 . S
O14 Fe0 1.996 . S
O14 C8 1.255 . S
C15 O19 1.295 . S
C15 O20 1.235 . S
O16 Fe1 1.976 . S
O16 C10 1.287 . S
O17 Fe3 1.996 . S
O17 C10 1.255 . S
C18 O11 1.287 . S
C18 O12 1.255 . S
O19 Fe1 2.002 1_655 S
O19 C15 1.295 . S
O20 Fe3 1.997 1_655 S
O20 C15 1.235 . S
C21 O4 1.295 . S
C21 O5 1.235 . S
Fe22 O24 1.918 . S
Fe22 O27 1.997 . S
Fe22 O28 2.002 . S
Fe22 O33 1.976 . S
Fe22 O36 1.996 . S
Fe23 O24 1.918 . S
Fe23 O31 1.997 . S
Fe23 O34 1.996 . S
Fe23 O38 1.976 . S
Fe23 O41 2.002 . S
O24 Fe22 1.918 . S
O24 Fe23 1.918 . S
O24 Fe25 1.918 . S
Fe25 O24 1.918 . S
Fe25 O26 2.002 . S
Fe25 O35 1.976 . S
Fe25 O39 1.996 . S
Fe25 O42 1.997 . S
O26 Fe25 2.002 . S
O26 C43 1.295 . S
O27 Fe22 1.997 . S
O27 C43 1.235 . S
O28 Fe22 2.002 . S
O28 C29 1.295 . S
C29 O28 1.295 . S
C29 O31 1.235 . S
C30 O35 1.287 . S
C30 O36 1.255 . S
O31 Fe23 1.997 . S
O31 C29 1.235 . S
C32 O38 1.287 . S
C32 O39 1.255 . S
O33 Fe22 1.976 . S
O33 C40 1.287 . S
O34 Fe23 1.996 . S
O34 C40 1.255 . S
O35 Fe25 1.976 . S
O35 C30 1.287 . S
O36 Fe22 1.996 . S
O36 C30 1.255 . S
C37 O41 1.295 . S
C37 O42 1.235 . S
O38 Fe23 1.976 . S
O38 C32 1.287 . S
O39 Fe25 1.996 . S
O39 C32 1.255 . S
C40 O33 1.287 . S
C40 O34 1.255 . S
O41 Fe23 2.002 . S
O41 C37 1.295 . S
O42 Fe25 1.997 . S
O42 C37 1.235 . S
C43 O26 1.295 . S
C43 O27 1.235 . S
Fe44 O46 1.918 . S
Fe44 O49 1.997 1_545 S
Fe44 O50 2.002 1_545 S
Fe44 O55 1.976 . S
Fe44 O58 1.996 . S
Fe45 O46 1.918 . S
Fe45 O53 1.997 1_545 S
Fe45 O56 1.996 . S
Fe45 O60 1.976 . S
Fe45 O63 2.002 1_545 S
O46 Fe44 1.918 . S
O46 Fe45 1.918 . S
O46 Fe47 1.918 . S
Fe47 O46 1.918 . S
Fe47 O48 2.002 1_545 S
Fe47 O57 1.976 . S
Fe47 O61 1.996 . S
Fe47 O64 1.997 1_545 S
O48 Fe47 2.002 1_565 S
O48 C65 1.295 . S
O49 Fe44 1.997 1_565 S
O49 C65 1.235 . S
O50 Fe44 2.002 1_565 S
O50 C51 1.295 . S
C51 O50 1.295 . S
C51 O53 1.235 . S
C52 O57 1.287 . S
C52 O58 1.255 . S
O53 Fe45 1.997 1_565 S
O53 C51 1.235 . S
C54 O60 1.287 . S
C54 O61 1.255 . S
O55 Fe44 1.976 . S
O55 C62 1.287 . S
O56 Fe45 1.996 . S
O56 C62 1.255 . S
O57 Fe47 1.976 . S
O57 C52 1.287 . S
O58 Fe44 1.996 . S
O58 C52 1.255 . S
C59 O63 1.295 . S
C59 O64 1.235 . S
O60 Fe45 1.976 . S
O60 C54 1.287 . S
O61 Fe47 1.996 . S
O61 C54 1.255 . S
C62 O55 1.287 . S
C62 O56 1.255 . S
O63 Fe45 2.002 1_565 S
O63 C59 1.295 . S
O64 Fe47 1.997 1_565 S
O64 C59 1.235 . S
C65 O48 1.295 . S
C65 O49 1.235 . S
Fe66 O68 1.918 . S
Fe66 O71 1.997 . S
Fe66 O72 2.002 . S
Fe66 O77 1.976 1_455 S
Fe66 O80 1.996 1_455 S
Fe67 O68 1.918 . S
Fe67 O75 1.997 . S
Fe67 O78 1.996 1_455 S
Fe67 O82 1.976 1_455 S
Fe67 O85 2.002 . S
O68 Fe66 1.918 . S
O68 Fe67 1.918 . S
O68 Fe69 1.918 . S
Fe69 O68 1.918 . S
Fe69 O70 2.002 . S
Fe69 O79 1.976 1_455 S
Fe69 O83 1.996 1_455 S
Fe69 O86 1.997 . S
O70 Fe69 2.002 . S
O70 C87 1.295 . S
O71 Fe66 1.997 . S
O71 C87 1.235 . S
O72 Fe66 2.002 . S
O72 C73 1.295 . S
C73 O72 1.295 . S
C73 O75 1.235 . S
C74 O79 1.287 . S
C74 O80 1.255 . S
O75 Fe67 1.997 . S
O75 C73 1.235 . S
C76 O82 1.287 . S
C76 O83 1.255 . S
O77 Fe66 1.976 1_655 S
O77 C84 1.287 . S
O78 Fe67 1.996 1_655 S
O78 C84 1.255 . S
O79 Fe69 1.976 1_655 S
O79 C74 1.287 . S
O80 Fe66 1.996 1_655 S
O80 C74 1.255 . S
C81 O85 1.295 . S
C81 O86 1.235 . S
O82 Fe67 1.976 1_655 S
O82 C76 1.287 . S
O83 Fe69 1.996 1_655 S
O83 C76 1.255 . S
C84 O77 1.287 . S
C84 O78 1.255 . S
O85 Fe67 2.002 . S
O85 C81 1.295 . S
O86 Fe69 1.997 . S
O86 C81 1.235 . S
C87 O70 1.295 . S
C87 O71 1.235 . S
Fe88 O90 1.918 . S
Fe88 O93 1.997 . S
Fe88 O94 2.002 . S
Fe88 O99 1.976 . S
Fe88 O102 1.996 . S
Fe89 O90 1.918 . S
Fe89 O97 1.997 . S
Fe89 O100 1.996 . S
Fe89 O104 1.976 . S
Fe89 O107 2.002 . S
O90 Fe88 1.918 . S
O90 Fe89 1.918 . S
O90 Fe91 1.918 . S
Fe91 O90 1.918 . S
Fe91 O92 2.002 . S
Fe91 O101 1.976 . S
Fe91 O105 1.996 . S
Fe91 O108 1.997 . S
O92 Fe91 2.002 . S
O92 C109 1.295 . S
O93 Fe88 1.997 . S
O93 C109 1.235 . S
O94 Fe88 2.002 . S
O94 C95 1.295 . S
C95 O94 1.295 . S
C95 O97 1.235 . S
C96 O101 1.287 . S
C96 O102 1.255 . S
O97 Fe89 1.997 . S
O97 C95 1.235 . S
C98 O104 1.287 . S
C98 O105 1.255 . S
O99 Fe88 1.976 . S
O99 C106 1.287 . S
O100 Fe89 1.996 . S
O100 C106 1.255 . S
O101 Fe91 1.976 . S
O101 C96 1.287 . S
O102 Fe88 1.996 . S
O102 C96 1.255 . S
C103 O107 1.295 . S
C103 O108 1.235 . S
O104 Fe89 1.976 . S
O104 C98 1.287 . S
O105 Fe91 1.996 . S
O105 C98 1.255 . S
C106 O99 1.287 . S
C106 O100 1.255 . S
O107 Fe89 2.002 . S
O107 C103 1.295 . S
O108 Fe91 1.997 . S
O108 C103 1.235 . S
C109 O92 1.295 . S
C109 O93 1.235 . S
Fe110 O112 1.918 . S
Fe110 O115 1.997 . S
Fe110 O116 2.002 . S
Fe110 O121 1.976 1_545 S
Fe110 O124 1.996 1_545 S
Fe111 O112 1.918 . S
Fe111 O119 1.997 . S
Fe111 O122 1.996 1_545 S
Fe111 O126 1.976 1_545 S
Fe111 O129 2.002 . S
O112 Fe110 1.918 . S
O112 Fe111 1.918 . S
O112 Fe113 1.918 . S
Fe113 O112 1.918 . S
Fe113 O114 2.002 . S
Fe113 O123 1.976 1_545 S
Fe113 O127 1.996 1_545 S
Fe113 O130 1.997 . S
O114 Fe113 2.002 . S
O114 C131 1.295 . S
O115 Fe110 1.997 . S
O115 C131 1.235 . S
O116 Fe110 2.002 . S
O116 C117 1.295 . S
C117 O116 1.295 . S
C117 O119 1.235 . S
C118 O123 1.287 . S
C118 O124 1.255 . S
O119 Fe111 1.997 . S
O119 C117 1.235 . S
C120 O126 1.287 . S
C120 O127 1.255 . S
O121 Fe110 1.976 1_565 S
O121 C128 1.287 . S
O122 Fe111 1.996 1_565 S
O122 C128 1.255 . S
O123 Fe113 1.976 1_565 S
O123 C118 1.287 . S
O124 Fe110 1.996 1_565 S
O124 C118 1.255 . S
C125 O129 1.295 . S
C125 O130 1.235 . S
O126 Fe111 1.976 1_565 S
O126 C120 1.287 . S
O127 Fe113 1.996 1_565 S
O127 C120 1.255 . S
C128 O121 1.287 . S
C128 O122 1.255 . S
O129 Fe111 2.002 . S
O129 C125 1.295 . S
O130 Fe113 1.997 . S
O130 C125 1.235 . S
C131 O114 1.295 . S
C131 O115 1.235 . S
Fe132 O134 1.918 . S
Fe132 O137 1.997 . S
Fe132 O138 2.002 . S
Fe132 O143 1.976 . S
Fe132 O146 1.996 . S
Fe133 O134 1.918 . S
Fe133 O141 1.997 . S
Fe133 O144 1.996 . S
Fe133 O148 1.976 . S
Fe133 O151 2.002 . S
O134 Fe132 1.918 . S
O134 Fe133 1.918 . S
O134 Fe135 1.918 . S
Fe135 O134 1.918 . S
Fe135 O136 2.002 . S
Fe135 O145 1.976 . S
Fe135 O149 1.996 1_554 S
Fe135 O152 1.997 1_554 S
O136 Fe135 2.002 . S
O136 C153 1.295 . S
O137 Fe132 1.997 . S
O137 C153 1.235 . S
O138 Fe132 2.002 . S
O138 C139 1.295 . S
C139 O138 1.295 . S
C139 O141 1.235 . S
C140 O145 1.287 . S
C140 O146 1.255 . S
O141 Fe133 1.997 . S
O141 C139 1.235 . S
C142 O148 1.287 1_556 S
C142 O149 1.255 . S
O143 Fe132 1.976 . S
O143 C150 1.287 . S
O144 Fe133 1.996 . S
O144 C150 1.255 . S
O145 Fe135 1.976 . S
O145 C140 1.287 . S
O146 Fe132 1.996 . S
O146 C140 1.255 . S
C147 O151 1.295 1_556 S
C147 O152 1.235 . S
O148 Fe133 1.976 . S
O148 C142 1.287 1_554 S
O149 Fe135 1.996 1_556 S
O149 C142 1.255 . S
C150 O143 1.287 . S
C150 O144 1.255 . S
O151 Fe133 2.002 . S
O151 C147 1.295 1_554 S
O152 Fe135 1.997 1_556 S
O152 C147 1.235 . S
C153 O136 1.295 . S
C153 O137 1.235 . S
Fe154 O156 1.918 . S
Fe154 O159 1.997 . S
Fe154 O160 2.002 . S
Fe154 O165 1.976 . S
Fe154 O168 1.996 . S
Fe155 O156 1.918 . S
Fe155 O163 1.997 . S
Fe155 O166 1.996 . S
Fe155 O170 1.976 . S
Fe155 O173 2.002 . S
O156 Fe154 1.918 . S
O156 Fe155 1.918 . S
O156 Fe157 1.918 . S
Fe157 O156 1.918 . S
Fe157 O158 2.002 . S
Fe157 O167 1.976 . S
Fe157 O171 1.996 1_554 S
Fe157 O174 1.997 1_554 S
O158 Fe157 2.002 . S
O158 C175 1.295 . S
O159 Fe154 1.997 . S
O159 C175 1.235 . S
O160 Fe154 2.002 . S
O160 C161 1.295 . S
C161 O160 1.295 . S
C161 O163 1.235 . S
C162 O167 1.287 . S
C162 O168 1.255 . S
O163 Fe155 1.997 . S
O163 C161 1.235 . S
C164 O170 1.287 1_556 S
C164 O171 1.255 . S
O165 Fe154 1.976 . S
O165 C172 1.287 . S
O166 Fe155 1.996 . S
O166 C172 1.255 . S
O167 Fe157 1.976 . S
O167 C162 1.287 . S
O168 Fe154 1.996 . S
O168 C162 1.255 . S
C169 O173 1.295 1_556 S
C169 O174 1.235 . S
O170 Fe155 1.976 . S
O170 C164 1.287 1_554 S
O171 Fe157 1.996 1_556 S
O171 C164 1.255 . S
C172 O165 1.287 . S
C172 O166 1.255 . S
O173 Fe155 2.002 . S
O173 C169 1.295 1_554 S
O174 Fe157 1.997 1_556 S
O174 C169 1.235 . S
C175 O158 1.295 . S
C175 O159 1.235 . S
Fe176 O178 1.918 . S
Fe176 O181 1.997 . S
Fe176 O182 2.002 . S
Fe176 O187 1.976 . S
Fe176 O190 1.996 . S
Fe177 O178 1.918 . S
Fe177 O185 1.997 . S
Fe177 O188 1.996 . S
Fe177 O192 1.976 . S
Fe177 O195 2.002 . S
O178 Fe176 1.918 . S
O178 Fe177 1.918 . S
O178 Fe179 1.918 . S
Fe179 O178 1.918 . S
Fe179 O180 2.002 . S
Fe179 O189 1.976 . S
Fe179 O193 1.996 1_554 S
Fe179 O196 1.997 1_554 S
O180 Fe179 2.002 . S
O180 C197 1.295 . S
O181 Fe176 1.997 . S
O181 C197 1.235 . S
O182 Fe176 2.002 . S
O182 C183 1.295 . S
C183 O182 1.295 . S
C183 O185 1.235 . S
C184 O189 1.287 . S
C184 O190 1.255 . S
O185 Fe177 1.997 . S
O185 C183 1.235 . S
C186 O192 1.287 1_556 S
C186 O193 1.255 . S
O187 Fe176 1.976 . S
O187 C194 1.287 . S
O188 Fe177 1.996 . S
O188 C194 1.255 . S
O189 Fe179 1.976 . S
O189 C184 1.287 . S
O190 Fe176 1.996 . S
O190 C184 1.255 . S
C191 O195 1.295 1_556 S
C191 O196 1.235 . S
O192 Fe177 1.976 . S
O192 C186 1.287 1_554 S
O193 Fe179 1.996 1_556 S
O193 C186 1.255 . S
C194 O187 1.287 . S
C194 O188 1.255 . S
O195 Fe177 2.002 . S
O195 C191 1.295 1_554 S
O196 Fe179 1.997 1_556 S
O196 C191 1.235 . S
C197 O180 1.295 . S
C197 O181 1.235 . S
Fe198 O200 1.918 . S
Fe198 O203 1.997 . S
Fe198 O204 2.002 . S
Fe198 O209 1.976 . S
Fe198 O212 1.996 . S
Fe199 O200 1.918 . S
Fe199 O207 1.997 . S
Fe199 O210 1.996 . S
Fe199 O214 1.976 . S
Fe199 O217 2.002 . S
O200 Fe198 1.918 . S
O200 Fe199 1.918 . S
O200 Fe201 1.918 . S
Fe201 O200 1.918 . S
Fe201 O202 2.002 . S
Fe201 O211 1.976 . S
Fe201 O215 1.996 . S
Fe201 O218 1.997 . S
O202 Fe201 2.002 . S
O202 C219 1.295 . S
O203 Fe198 1.997 . S
O203 C219 1.235 . S
O204 Fe198 2.002 . S
O204 C205 1.295 . S
C205 O204 1.295 . S
C205 O207 1.235 . S
C206 O211 1.287 . S
C206 O212 1.255 . S
O207 Fe199 1.997 . S
O207 C205 1.235 . S
C208 O214 1.287 . S
C208 O215 1.255 . S
O209 Fe198 1.976 . S
O209 C216 1.287 . S
O210 Fe199 1.996 . S
O210 C216 1.255 . S
O211 Fe201 1.976 . S
O211 C206 1.287 . S
O212 Fe198 1.996 . S
O212 C206 1.255 . S
C213 O217 1.295 . S
C213 O218 1.235 . S
O214 Fe199 1.976 . S
O214 C208 1.287 . S
O215 Fe201 1.996 . S
O215 C208 1.255 . S
C216 O209 1.287 . S
C216 O210 1.255 . S
O217 Fe199 2.002 . S
O217 C213 1.295 . S
O218 Fe201 1.997 . S
O218 C213 1.235 . S
C219 O202 1.295 . S
C219 O203 1.235 . S
Fe220 O222 1.918 . S
Fe220 O225 1.997 . S
Fe220 O226 2.002 . S
Fe220 O231 1.976 . S
Fe220 O234 1.996 . S
Fe221 O222 1.918 . S
Fe221 O229 1.997 . S
Fe221 O232 1.996 . S
Fe221 O236 1.976 . S
Fe221 O239 2.002 . S
O222 Fe220 1.918 . S
O222 Fe221 1.918 . S
O222 Fe223 1.918 . S
Fe223 O222 1.918 . S
Fe223 O224 2.002 . S
Fe223 O233 1.976 . S
Fe223 O237 1.996 . S
Fe223 O240 1.997 . S
O224 Fe223 2.002 . S
O224 C241 1.295 . S
O225 Fe220 1.997 . S
O225 C241 1.235 . S
O226 Fe220 2.002 . S
O226 C227 1.295 . S
C227 O226 1.295 . S
C227 O229 1.235 . S
C228 O233 1.287 . S
C228 O234 1.255 . S
O229 Fe221 1.997 . S
O229 C227 1.235 . S
C230 O236 1.287 . S
C230 O237 1.255 . S
O231 Fe220 1.976 . S
O231 C238 1.287 . S
O232 Fe221 1.996 . S
O232 C238 1.255 . S
O233 Fe223 1.976 . S
O233 C228 1.287 . S
O234 Fe220 1.996 . S
O234 C228 1.255 . S
C235 O239 1.295 . S
C235 O240 1.235 . S
O236 Fe221 1.976 . S
O236 C230 1.287 . S
O237 Fe223 1.996 . S
O237 C230 1.255 . S
C238 O231 1.287 . S
C238 O232 1.255 . S
O239 Fe221 2.002 . S
O239 C235 1.295 . S
O240 Fe223 1.997 . S
O240 C235 1.235 . S
C241 O224 1.295 . S
C241 O225 1.235 . S
Fe242 O244 1.918 . S
Fe242 O247 1.997 . S
Fe242 O248 2.002 . S
Fe242 O253 1.976 . S
Fe242 O256 1.996 . S
Fe243 O244 1.918 . S
Fe243 O251 1.997 . S
Fe243 O254 1.996 . S
Fe243 O258 1.976 . S
Fe243 O261 2.002 . S
O244 Fe242 1.918 . S
O244 Fe243 1.918 . S
O244 Fe245 1.918 . S
Fe245 O244 1.918 . S
Fe245 O246 2.002 . S
Fe245 O255 1.976 . S
Fe245 O259 1.996 . S
Fe245 O262 1.997 . S
O246 Fe245 2.002 . S
O246 C263 1.295 . S
O247 Fe242 1.997 . S
O247 C263 1.235 . S
O248 Fe242 2.002 . S
O248 C249 1.295 . S
C249 O248 1.295 . S
C249 O251 1.235 . S
C250 O255 1.287 . S
C250 O256 1.255 . S
O251 Fe243 1.997 . S
O251 C249 1.235 . S
C252 O258 1.287 . S
C252 O259 1.255 . S
O253 Fe242 1.976 . S
O253 C260 1.287 . S
O254 Fe243 1.996 . S
O254 C260 1.255 . S
O255 Fe245 1.976 . S
O255 C250 1.287 . S
O256 Fe242 1.996 . S
O256 C250 1.255 . S
C257 O261 1.295 . S
C257 O262 1.235 . S
O258 Fe243 1.976 . S
O258 C252 1.287 . S
O259 Fe245 1.996 . S
O259 C252 1.255 . S
C260 O253 1.287 . S
C260 O254 1.255 . S
O261 Fe243 2.002 . S
O261 C257 1.295 . S
O262 Fe245 1.997 . S
O262 C257 1.235 . S
C263 O246 1.295 . S
C263 O247 1.235 . S
Fe264 O266 1.918 . S
Fe264 O269 1.997 . S
Fe264 O270 2.002 . S
Fe264 O275 1.976 . S
Fe264 O278 1.996 . S
Fe265 O266 1.918 . S
Fe265 O273 1.997 . S
Fe265 O276 1.996 . S
Fe265 O280 1.976 . S
Fe265 O283 2.002 . S
O266 Fe264 1.918 . S
O266 Fe265 1.918 . S
O266 Fe267 1.918 . S
Fe267 O266 1.918 . S
Fe267 O268 2.002 . S
Fe267 O277 1.976 . S
Fe267 O281 1.996 . S
Fe267 O284 1.997 . S
O268 Fe267 2.002 . S
O268 C285 1.295 . S
O269 Fe264 1.997 . S
O269 C285 1.235 . S
O270 Fe264 2.002 . S
O270 C271 1.295 . S
C271 O270 1.295 . S
C271 O273 1.235 . S
C272 O277 1.287 . S
C272 O278 1.255 . S
O273 Fe265 1.997 . S
O273 C271 1.235 . S
C274 O280 1.287 . S
C274 O281 1.255 . S
O275 Fe264 1.976 . S
O275 C282 1.287 . S
O276 Fe265 1.996 . S
O276 C282 1.255 . S
O277 Fe267 1.976 . S
O277 C272 1.287 . S
O278 Fe264 1.996 . S
O278 C272 1.255 . S
C279 O283 1.295 . S
C279 O284 1.235 . S
O280 Fe265 1.976 . S
O280 C274 1.287 . S
O281 Fe267 1.996 . S
O281 C274 1.255 . S
C282 O275 1.287 . S
C282 O276 1.255 . S
O283 Fe265 2.002 . S
O283 C279 1.295 . S
O284 Fe267 1.997 . S
O284 C279 1.235 . S
C285 O268 1.295 . S
C285 O269 1.235 . S
Fe286 O288 1.918 . S
Fe286 O291 1.997 . S
Fe286 O292 2.002 . S
Fe286 O297 1.976 . S
Fe286 O300 1.996 . S
Fe287 O288 1.918 . S
Fe287 O295 1.997 . S
Fe287 O298 1.996 . S
Fe287 O302 1.976 . S
Fe287 O305 2.002 . S
O288 Fe286 1.918 . S
O288 Fe287 1.918 . S
O288 Fe289 1.918 . S
Fe289 O288 1.918 . S
Fe289 O290 2.002 . S
Fe289 O299 1.976 . S
Fe289 O303 1.996 . S
Fe289 O306 1.997 . S
O290 Fe289 2.002 . S
O290 C307 1.295 . S
O291 Fe286 1.997 . S
O291 C307 1.235 . S
O292 Fe286 2.002 . S
O292 C293 1.295 . S
C293 O292 1.295 . S
C293 O295 1.235 . S
C294 O299 1.287 . S
C294 O300 1.255 . S
O295 Fe287 1.997 . S
O295 C293 1.235 . S
C296 O302 1.287 . S
C296 O303 1.255 . S
O297 Fe286 1.976 . S
O297 C304 1.287 . S
O298 Fe287 1.996 . S
O298 C304 1.255 . S
O299 Fe289 1.976 . S
O299 C294 1.287 . S
O300 Fe286 1.996 . S
O300 C294 1.255 . S
C301 O305 1.295 . S
C301 O306 1.235 . S
O302 Fe287 1.976 . S
O302 C296 1.287 . S
O303 Fe289 1.996 . S
O303 C296 1.255 . S
C304 O297 1.287 . S
C304 O298 1.255 . S
O305 Fe287 2.002 . S
O305 C301 1.295 . S
O306 Fe289 1.997 . S
O306 C301 1.235 . S
C307 O290 1.295 . S
C307 O291 1.235 . S
Fe308 O310 1.918 . S
Fe308 O313 1.997 . S
Fe308 O314 2.002 . S
Fe308 O319 1.976 . S
Fe308 O322 1.996 . S
Fe309 O310 1.918 . S
Fe309 O317 1.997 . S
Fe309 O320 1.996 . S
Fe309 O324 1.976 . S
Fe309 O327 2.002 . S
O310 Fe308 1.918 . S
O310 Fe309 1.918 . S
O310 Fe311 1.918 . S
Fe311 O310 1.918 . S
Fe311 O312 2.002 . S
Fe311 O321 1.976 . S
Fe311 O325 1.996 . S
Fe311 O328 1.997 . S
O312 Fe311 2.002 . S
O312 C329 1.295 . S
O313 Fe308 1.997 . S
O313 C329 1.235 . S
O314 Fe308 2.002 . S
O314 C315 1.295 . S
C315 O314 1.295 . S
C315 O317 1.235 . S
C316 O321 1.287 . S
C316 O322 1.255 . S
O317 Fe309 1.997 . S
O317 C315 1.235 . S
C318 O324 1.287 . S
C318 O325 1.255 . S
O319 Fe308 1.976 . S
O319 C326 1.287 . S
O320 Fe309 1.996 . S
O320 C326 1.255 . S
O321 Fe311 1.976 . S
O321 C316 1.287 . S
O322 Fe308 1.996 . S
O322 C316 1.255 . S
C323 O327 1.295 . S
C323 O328 1.235 . S
O324 Fe309 1.976 . S
O324 C318 1.287 . S
O325 Fe311 1.996 . S
O325 C318 1.255 . S
C326 O319 1.287 . S
C326 O320 1.255 . S
O327 Fe309 2.002 . S
O327 C323 1.295 . S
O328 Fe311 1.997 . S
O328 C323 1.235 . S
C329 O312 1.295 . S
C329 O313 1.235 . S
Fe330 O332 1.918 . S
Fe330 O335 1.997 . S
Fe330 O336 2.002 1_556 S
Fe330 O341 1.976 1_556 S
Fe330 O344 1.996 . S
Fe331 O332 1.918 . S
Fe331 O339 1.997 . S
Fe331 O342 1.996 . S
Fe331 O346 1.976 . S
Fe331 O349 2.002 . S
O332 Fe330 1.918 . S
O332 Fe331 1.918 . S
O332 Fe333 1.918 . S
Fe333 O332 1.918 . S
Fe333 O334 2.002 . S
Fe333 O343 1.976 . S
Fe333 O347 1.996 . S
Fe333 O350 1.997 . S
O334 Fe333 2.002 . S
O334 C351 1.295 . S
O335 Fe330 1.997 . S
O335 C351 1.235 . S
O336 Fe330 2.002 1_554 S
O336 C337 1.295 . S
C337 O336 1.295 . S
C337 O339 1.235 1_554 S
C338 O343 1.287 . S
C338 O344 1.255 . S
O339 Fe331 1.997 . S
O339 C337 1.235 1_556 S
C340 O346 1.287 . S
C340 O347 1.255 . S
O341 Fe330 1.976 1_554 S
O341 C348 1.287 . S
O342 Fe331 1.996 . S
O342 C348 1.255 1_556 S
O343 Fe333 1.976 . S
O343 C338 1.287 . S
O344 Fe330 1.996 . S
O344 C338 1.255 . S
C345 O349 1.295 . S
C345 O350 1.235 . S
O346 Fe331 1.976 . S
O346 C340 1.287 . S
O347 Fe333 1.996 . S
O347 C340 1.255 . S
C348 O341 1.287 . S
C348 O342 1.255 1_554 S
O349 Fe331 2.002 . S
O349 C345 1.295 . S
O350 Fe333 1.997 . S
O350 C345 1.235 . S
C351 O334 1.295 . S
C351 O335 1.235 . S
Fe352 O354 1.918 . S
Fe352 O357 1.997 . S
Fe352 O358 2.002 . S
Fe352 O363 1.976 . S
Fe352 O366 1.996 . S
Fe353 O354 1.918 . S
Fe353 O361 1.997 . S
Fe353 O364 1.996 . S
Fe353 O368 1.976 . S
Fe353 O371 2.002 . S
O354 Fe352 1.918 . S
O354 Fe353 1.918 . S
O354 Fe355 1.918 . S
Fe355 O354 1.918 . S
Fe355 O356 2.002 . S
Fe355 O365 1.976 . S
Fe355 O369 1.996 1_556 S
Fe355 O372 1.997 1_556 S
O356 Fe355 2.002 . S
O356 C373 1.295 . S
O357 Fe352 1.997 . S
O357 C373 1.235 . S
O358 Fe352 2.002 . S
O358 C359 1.295 . S
C359 O358 1.295 . S
C359 O361 1.235 . S
C360 O365 1.287 . S
C360 O366 1.255 . S
O361 Fe353 1.997 . S
O361 C359 1.235 . S
C362 O368 1.287 1_554 S
C362 O369 1.255 . S
O363 Fe352 1.976 . S
O363 C370 1.287 . S
O364 Fe353 1.996 . S
O364 C370 1.255 . S
O365 Fe355 1.976 . S
O365 C360 1.287 . S
O366 Fe352 1.996 . S
O366 C360 1.255 . S
C367 O371 1.295 1_554 S
C367 O372 1.235 . S
O368 Fe353 1.976 . S
O368 C362 1.287 1_556 S
O369 Fe355 1.996 1_554 S
O369 C362 1.255 . S
C370 O363 1.287 . S
C370 O364 1.255 . S
O371 Fe353 2.002 . S
O371 C367 1.295 1_556 S
O372 Fe355 1.997 1_554 S
O372 C367 1.235 . S
C373 O356 1.295 . S
C373 O357 1.235 . S
Fe374 O376 1.918 . S
Fe374 O379 1.997 . S
Fe374 O380 2.002 . S
Fe374 O385 1.976 . S
Fe374 O388 1.996 . S
Fe375 O376 1.918 . S
Fe375 O383 1.997 1_556 S
Fe375 O386 1.996 1_556 S
Fe375 O390 1.976 . S
Fe375 O393 2.002 . S
O376 Fe374 1.918 . S
O376 Fe375 1.918 . S
O376 Fe377 1.918 . S
Fe377 O376 1.918 . S
Fe377 O378 2.002 . S
Fe377 O387 1.976 . S
Fe377 O391 1.996 . S
Fe377 O394 1.997 . S
O378 Fe377 2.002 . S
O378 C395 1.295 . S
O379 Fe374 1.997 . S
O379 C395 1.235 . S
O380 Fe374 2.002 . S
O380 C381 1.295 1_556 S
C381 O380 1.295 1_554 S
C381 O383 1.235 . S
C382 O387 1.287 . S
C382 O388 1.255 . S
O383 Fe375 1.997 1_554 S
O383 C381 1.235 . S
C384 O390 1.287 . S
C384 O391 1.255 . S
O385 Fe374 1.976 . S
O385 C392 1.287 1_556 S
O386 Fe375 1.996 1_554 S
O386 C392 1.255 . S
O387 Fe377 1.976 . S
O387 C382 1.287 . S
O388 Fe374 1.996 . S
O388 C382 1.255 . S
C389 O393 1.295 . S
C389 O394 1.235 . S
O390 Fe375 1.976 . S
O390 C384 1.287 . S
O391 Fe377 1.996 . S
O391 C384 1.255 . S
C392 O385 1.287 1_554 S
C392 O386 1.255 . S
O393 Fe375 2.002 . S
O393 C389 1.295 . S
O394 Fe377 1.997 . S
O394 C389 1.235 . S
C395 O378 1.295 . S
C395 O379 1.235 . S
C396 C397 1.349 . S
C396 C398 1.327 . S
C396 H421 0.950 . S
C397 C396 1.349 . S
C397 C413 1.349 . S
C398 C396 1.327 . S
C398 C417 1.429 . S
C398 H422 0.950 . S
C399 C416 1.574 . S
C399 C418 1.368 . S
C399 H423 0.949 . S
H400 C404 0.949 . S
C401 C402 1.349 . S
C401 C403 1.327 . S
C401 H424 0.950 . S
C402 C401 1.349 . S
C402 C414 1.349 . S
C403 C401 1.327 . S
C403 C419 1.429 . S
C403 H425 0.950 . S
C404 H400 0.949 . S
C404 C412 1.574 . S
C404 C420 1.368 . S
H405 C413 0.950 . S
H406 C411 0.950 . S
H407 C412 0.949 . S
H408 C414 0.950 . S
H409 C415 0.950 . S
H410 C416 0.949 . S
C411 H406 0.950 . S
C411 C413 1.327 . S
C411 C417 1.429 . S
C412 C404 1.574 . S
C412 H407 0.949 . S
C412 C418 1.368 . S
C413 C397 1.349 . S
C413 H405 0.950 . S
C413 C411 1.327 . S
C414 C402 1.349 . S
C414 H408 0.950 . S
C414 C415 1.327 . S
C415 H409 0.950 . S
C415 C414 1.327 . S
C415 C419 1.429 . S
C416 C399 1.574 . S
C416 H410 0.949 . S
C416 C420 1.368 . S
C417 C398 1.429 . S
C417 C411 1.429 . S
C417 C418 1.523 . S
C418 C399 1.368 . S
C418 C412 1.368 . S
C418 C417 1.523 . S
C419 C403 1.429 . S
C419 C415 1.429 . S
C419 C420 1.523 . S
C420 C404 1.368 . S
C420 C416 1.368 . S
C420 C419 1.523 . S
H421 C396 0.950 . S
H422 C398 0.950 . S
H423 C399 0.949 . S
H424 C401 0.950 . S
H425 C403 0.950 . S
C426 C427 1.349 . S
C426 C428 1.327 . S
C426 H451 0.950 . S
C427 C426 1.349 . S
C427 C443 1.349 . S
C428 C426 1.327 . S
C428 C447 1.429 . S
C428 H452 0.950 . S
C429 C446 1.574 . S
C429 C448 1.368 . S
C429 H453 0.949 . S
H430 C434 0.949 . S
C431 C432 1.349 . S
C431 C433 1.327 . S
C431 H454 0.950 . S
C432 C431 1.349 . S
C432 C444 1.349 . S
C433 C431 1.327 . S
C433 C449 1.429 . S
C433 H455 0.950 . S
C434 H430 0.949 . S
C434 C442 1.574 . S
C434 C450 1.368 . S
H435 C443 0.950 . S
H436 C441 0.950 . S
H437 C442 0.949 . S
H438 C444 0.950 . S
H439 C445 0.950 . S
H440 C446 0.949 . S
C441 H436 0.950 . S
C441 C443 1.327 . S
C441 C447 1.429 . S
C442 C434 1.574 . S
C442 H437 0.949 . S
C442 C448 1.368 . S
C443 C427 1.349 . S
C443 H435 0.950 . S
C443 C441 1.327 . S
C444 C432 1.349 . S
C444 H438 0.950 . S
C444 C445 1.327 . S
C445 H439 0.950 . S
C445 C444 1.327 . S
C445 C449 1.429 . S
C446 C429 1.574 . S
C446 H440 0.949 . S
C446 C450 1.368 . S
C447 C428 1.429 . S
C447 C441 1.429 . S
C447 C448 1.523 . S
C448 C429 1.368 . S
C448 C442 1.368 . S
C448 C447 1.523 . S
C449 C433 1.429 . S
C449 C445 1.429 . S
C449 C450 1.523 . S
C450 C434 1.368 . S
C450 C446 1.368 . S
C450 C449 1.523 . S
H451 C426 0.950 . S
H452 C428 0.950 . S
H453 C429 0.949 . S
H454 C431 0.950 . S
H455 C433 0.950 . S
C456 C457 1.349 . S
C456 C458 1.327 . S
C456 H481 0.950 . S
C457 C456 1.349 . S
C457 C473 1.349 . S
C458 C456 1.327 . S
C458 C477 1.429 . S
C458 H482 0.950 . S
C459 C476 1.574 . S
C459 C478 1.368 . S
C459 H483 0.949 . S
H460 C464 0.949 . S
C461 C462 1.349 . S
C461 C463 1.327 . S
C461 H484 0.950 . S
C462 C461 1.349 . S
C462 C474 1.349 . S
C463 C461 1.327 . S
C463 C479 1.429 . S
C463 H485 0.950 . S
C464 H460 0.949 . S
C464 C472 1.574 . S
C464 C480 1.368 . S
H465 C473 0.950 . S
H466 C471 0.950 . S
H467 C472 0.949 . S
H468 C474 0.950 . S
H469 C475 0.950 . S
H470 C476 0.949 . S
C471 H466 0.950 . S
C471 C473 1.327 . S
C471 C477 1.429 . S
C472 C464 1.574 . S
C472 H467 0.949 . S
C472 C478 1.368 . S
C473 C457 1.349 . S
C473 H465 0.950 . S
C473 C471 1.327 . S
C474 C462 1.349 . S
C474 H468 0.950 . S
C474 C475 1.327 . S
C475 H469 0.950 . S
C475 C474 1.327 . S
C475 C479 1.429 . S
C476 C459 1.574 . S
C476 H470 0.949 . S
C476 C480 1.368 . S
C477 C458 1.429 . S
C477 C471 1.429 . S
C477 C478 1.523 . S
C478 C459 1.368 . S
C478 C472 1.368 . S
C478 C477 1.523 . S
C479 C463 1.429 . S
C479 C475 1.429 . S
C479 C480 1.523 . S
C480 C464 1.368 . S
C480 C476 1.368 . S
C480 C479 1.523 . S
H481 C456 0.950 . S
H482 C458 0.950 . S
H483 C459 0.949 . S
H484 C461 0.950 . S
H485 C463 0.950 . S
C486 C487 1.349 . S
C486 C488 1.327 . S
C486 H511 0.950 . S
C487 C486 1.349 . S
C487 C503 1.349 . S
C488 C486 1.327 . S
C488 C507 1.429 . S
C488 H512 0.950 . S
C489 C506 1.574 1_556 S
C489 C508 1.368 . S
C489 H513 0.949 . S
H490 C494 0.949 . S
C491 C492 1.349 . S
C491 C493 1.327 . S
C491 H514 0.950 . S
C492 C491 1.349 . S
C492 C504 1.349 . S
C493 C491 1.327 . S
C493 C509 1.429 . S
C493 H515 0.950 . S
C494 H490 0.949 . S
C494 C502 1.574 . S
C494 C510 1.368 . S
H495 C503 0.950 . S
H496 C501 0.950 . S
H497 C502 0.949 . S
H498 C504 0.950 . S
H499 C505 0.950 . S
H500 C506 0.949 . S
C501 H496 0.950 . S
C501 C503 1.327 . S
C501 C507 1.429 . S
C502 C494 1.574 . S
C502 H497 0.949 . S
C502 C508 1.368 1_554 S
C503 C487 1.349 . S
C503 H495 0.950 . S
C503 C501 1.327 . S
C504 C492 1.349 . S
C504 H498 0.950 . S
C504 C505 1.327 . S
C505 H499 0.950 . S
C505 C504 1.327 . S
C505 C509 1.429 . S
C506 C489 1.574 1_554 S
C506 H500 0.949 . S
C506 C510 1.368 . S
C507 C488 1.429 . S
C507 C501 1.429 . S
C507 C508 1.523 . S
C508 C489 1.368 . S
C508 C502 1.368 1_556 S
C508 C507 1.523 . S
C509 C493 1.429 . S
C509 C505 1.429 . S
C509 C510 1.523 . S
C510 C494 1.368 . S
C510 C506 1.368 . S
C510 C509 1.523 . S
H511 C486 0.950 . S
H512 C488 0.950 . S
H513 C489 0.949 . S
H514 C491 0.950 . S
H515 C493 0.950 . S
C516 C517 1.349 . S
C516 C518 1.327 . S
C516 H541 0.950 . S
C517 C516 1.349 . S
C517 C533 1.349 . S
C518 C516 1.327 . S
C518 C537 1.429 . S
C518 H542 0.950 . S
C519 C536 1.574 . S
C519 C538 1.368 1_556 S
C519 H543 0.949 . S
H520 C524 0.949 . S
C521 C522 1.349 . S
C521 C523 1.327 . S
C521 H544 0.950 . S
C522 C521 1.349 . S
C522 C534 1.349 . S
C523 C521 1.327 . S
C523 C539 1.429 . S
C523 H545 0.950 . S
C524 H520 0.949 . S
C524 C532 1.574 . S
C524 C540 1.368 1_554 S
H525 C533 0.950 . S
H526 C531 0.950 . S
H527 C532 0.949 . S
H528 C534 0.950 . S
H529 C535 0.950 1_554 S
H530 C536 0.949 . S
C531 H526 0.950 . S
C531 C533 1.327 . S
C531 C537 1.429 . S
C532 C524 1.574 . S
C532 H527 0.949 . S
C532 C538 1.368 . S
C533 C517 1.349 . S
C533 H525 0.950 . S
C533 C531 1.327 . S
C534 C522 1.349 . S
C534 H528 0.950 . S
C534 C535 1.327 . S
C535 H529 0.950 1_556 S
C535 C534 1.327 . S
C535 C539 1.429 . S
C536 C519 1.574 . S
C536 H530 0.949 . S
C536 C540 1.368 . S
C537 C518 1.429 . S
C537 C531 1.429 . S
C537 C538 1.523 . S
C538 C519 1.368 1_554 S
C538 C532 1.368 . S
C538 C537 1.523 . S
C539 C523 1.429 . S
C539 C535 1.429 . S
C539 C540 1.523 . S
C540 C524 1.368 1_556 S
C540 C536 1.368 . S
C540 C539 1.523 . S
H541 C516 0.950 . S
H542 C518 0.950 . S
H543 C519 0.949 . S
H544 C521 0.950 . S
H545 C523 0.950 . S
C546 C547 1.349 . S
C546 C548 1.327 . S
C546 H571 0.950 . S
C547 C546 1.349 . S
C547 C563 1.349 . S
C548 C546 1.327 . S
C548 C567 1.429 . S
C548 H572 0.950 . S
C549 C566 1.574 1_556 S
C549 C568 1.368 . S
C549 H573 0.949 . S
H550 C554 0.949 . S
C551 C552 1.349 . S
C551 C553 1.327 . S
C551 H574 0.950 . S
C552 C551 1.349 . S
C552 C564 1.349 . S
C553 C551 1.327 . S
C553 C569 1.429 . S
C553 H575 0.950 . S
C554 H550 0.949 . S
C554 C562 1.574 . S
C554 C570 1.368 . S
H555 C563 0.950 . S
H556 C561 0.950 . S
H557 C562 0.949 . S
H558 C564 0.950 . S
H559 C565 0.950 . S
H560 C566 0.949 . S
C561 H556 0.950 . S
C561 C563 1.327 . S
C561 C567 1.429 . S
C562 C554 1.574 . S
C562 H557 0.949 . S
C562 C568 1.368 1_554 S
C563 C547 1.349 . S
C563 H555 0.950 . S
C563 C561 1.327 . S
C564 C552 1.349 . S
C564 H558 0.950 . S
C564 C565 1.327 . S
C565 H559 0.950 . S
C565 C564 1.327 . S
C565 C569 1.429 . S
C566 C549 1.574 1_554 S
C566 H560 0.949 . S
C566 C570 1.368 . S
C567 C548 1.429 . S
C567 C561 1.429 . S
C567 C568 1.523 . S
C568 C549 1.368 . S
C568 C562 1.368 1_556 S
C568 C567 1.523 . S
C569 C553 1.429 . S
C569 C565 1.429 . S
C569 C570 1.523 . S
C570 C554 1.368 . S
C570 C566 1.368 . S
C570 C569 1.523 . S
H571 C546 0.950 . S
H572 C548 0.950 . S
H573 C549 0.949 . S
H574 C551 0.950 . S
H575 C553 0.950 . S
C576 C577 1.349 . S
C576 C578 1.327 . S
C576 H601 0.950 . S
C577 C576 1.349 . S
C577 C593 1.349 . S
C578 C576 1.327 . S
C578 C597 1.429 . S
C578 H602 0.950 . S
C579 C596 1.574 . S
C579 C598 1.368 . S
C579 H603 0.949 . S
H580 C584 0.949 . S
C581 C582 1.349 . S
C581 C583 1.327 . S
C581 H604 0.950 . S
C582 C581 1.349 . S
C582 C594 1.349 . S
C583 C581 1.327 . S
C583 C599 1.429 . S
C583 H605 0.950 . S
C584 H580 0.949 . S
C584 C592 1.574 . S
C584 C600 1.368 . S
H585 C593 0.950 . S
H586 C591 0.950 . S
H587 C592 0.949 . S
H588 C594 0.950 . S
H589 C595 0.950 . S
H590 C596 0.949 . S
C591 H586 0.950 . S
C591 C593 1.327 . S
C591 C597 1.429 . S
C592 C584 1.574 . S
C592 H587 0.949 . S
C592 C598 1.368 . S
C593 C577 1.349 . S
C593 H585 0.950 . S
C593 C591 1.327 . S
C594 C582 1.349 . S
C594 H588 0.950 . S
C594 C595 1.327 . S
C595 H589 0.950 . S
C595 C594 1.327 . S
C595 C599 1.429 . S
C596 C579 1.574 . S
C596 H590 0.949 . S
C596 C600 1.368 . S
C597 C578 1.429 . S
C597 C591 1.429 . S
C597 C598 1.523 . S
C598 C579 1.368 . S
C598 C592 1.368 . S
C598 C597 1.523 . S
C599 C583 1.429 . S
C599 C595 1.429 . S
C599 C600 1.523 . S
C600 C584 1.368 . S
C600 C596 1.368 . S
C600 C599 1.523 . S
H601 C576 0.950 . S
H602 C578 0.950 . S
H603 C579 0.949 . S
H604 C581 0.950 . S
H605 C583 0.950 . S
C606 C607 1.349 . S
C606 C608 1.327 . S
C606 H631 0.950 . S
C607 C606 1.349 . S
C607 C623 1.349 . S
C608 C606 1.327 . S
C608 C627 1.429 . S
C608 H632 0.950 . S
C609 C626 1.574 . S
C609 C628 1.368 . S
C609 H633 0.949 . S
H610 C614 0.949 . S
C611 C612 1.349 . S
C611 C613 1.327 . S
C611 H634 0.950 . S
C612 C611 1.349 . S
C612 C624 1.349 . S
C613 C611 1.327 . S
C613 C629 1.429 . S
C613 H635 0.950 . S
C614 H610 0.949 . S
C614 C622 1.574 . S
C614 C630 1.368 . S
H615 C623 0.950 . S
H616 C621 0.950 . S
H617 C622 0.949 . S
H618 C624 0.950 . S
H619 C625 0.950 . S
H620 C626 0.949 . S
C621 H616 0.950 . S
C621 C623 1.327 . S
C621 C627 1.429 . S
C622 C614 1.574 . S
C622 H617 0.949 . S
C622 C628 1.368 . S
C623 C607 1.349 . S
C623 H615 0.950 . S
C623 C621 1.327 . S
C624 C612 1.349 . S
C624 H618 0.950 . S
C624 C625 1.327 . S
C625 H619 0.950 . S
C625 C624 1.327 . S
C625 C629 1.429 . S
C626 C609 1.574 . S
C626 H620 0.949 . S
C626 C630 1.368 . S
C627 C608 1.429 . S
C627 C621 1.429 . S
C627 C628 1.523 . S
C628 C609 1.368 . S
C628 C622 1.368 . S
C628 C627 1.523 . S
C629 C613 1.429 . S
C629 C625 1.429 . S
C629 C630 1.523 . S
C630 C614 1.368 . S
C630 C626 1.368 . S
C630 C629 1.523 . S
H631 C606 0.950 . S
H632 C608 0.950 . S
H633 C609 0.949 . S
H634 C611 0.950 . S
H635 C613 0.950 . S
C636 C637 1.349 . S
C636 C638 1.327 . S
C636 H661 0.950 . S
C637 C636 1.349 . S
C637 C653 1.349 . S
C638 C636 1.327 . S
C638 C657 1.429 . S
C638 H662 0.950 . S
C639 C656 1.574 . S
C639 C658 1.368 . S
C639 H663 0.949 . S
H640 C644 0.949 . S
C641 C642 1.349 . S
C641 C643 1.327 . S
C641 H664 0.950 . S
C642 C641 1.349 . S
C642 C654 1.349 . S
C643 C641 1.327 . S
C643 C659 1.429 . S
C643 H665 0.950 . S
C644 H640 0.949 . S
C644 C652 1.574 . S
C644 C660 1.368 . S
H645 C653 0.950 . S
H646 C651 0.950 . S
H647 C652 0.949 . S
H648 C654 0.950 . S
H649 C655 0.950 . S
H650 C656 0.949 . S
C651 H646 0.950 . S
C651 C653 1.327 . S
C651 C657 1.429 . S
C652 C644 1.574 . S
C652 H647 0.949 . S
C652 C658 1.368 . S
C653 C637 1.349 . S
C653 H645 0.950 . S
C653 C651 1.327 . S
C654 C642 1.349 . S
C654 H648 0.950 . S
C654 C655 1.327 . S
C655 H649 0.950 . S
C655 C654 1.327 . S
C655 C659 1.429 . S
C656 C639 1.574 . S
C656 H650 0.949 . S
C656 C660 1.368 . S
C657 C638 1.429 . S
C657 C651 1.429 . S
C657 C658 1.523 . S
C658 C639 1.368 . S
C658 C652 1.368 . S
C658 C657 1.523 . S
C659 C643 1.429 . S
C659 C655 1.429 . S
C659 C660 1.523 . S
C660 C644 1.368 . S
C660 C656 1.368 . S
C660 C659 1.523 . S
H661 C636 0.950 . S
H662 C638 0.950 . S
H663 C639 0.949 . S
H664 C641 0.950 . S
H665 C643 0.950 . S
C666 C667 1.349 . S
C666 C668 1.327 . S
C666 H691 0.950 . S
C667 C666 1.349 . S
C667 C683 1.349 . S
C668 C666 1.327 . S
C668 C687 1.429 . S
C668 H692 0.950 . S
C669 C686 1.574 . S
C669 C688 1.368 1_556 S
C669 H693 0.949 . S
H670 C674 0.949 . S
C671 C672 1.349 . S
C671 C673 1.327 . S
C671 H694 0.950 . S
C672 C671 1.349 . S
C672 C684 1.349 . S
C673 C671 1.327 . S
C673 C689 1.429 . S
C673 H695 0.950 . S
C674 H670 0.949 . S
C674 C682 1.574 1_556 S
C674 C690 1.368 . S
H675 C683 0.950 . S
H676 C681 0.950 . S
H677 C682 0.949 . S
H678 C684 0.950 . S
H679 C685 0.950 . S
H680 C686 0.949 . S
C681 H676 0.950 . S
C681 C683 1.327 . S
C681 C687 1.429 . S
C682 C674 1.574 1_554 S
C682 H677 0.949 . S
C682 C688 1.368 . S
C683 C667 1.349 . S
C683 H675 0.950 . S
C683 C681 1.327 . S
C684 C672 1.349 . S
C684 H678 0.950 . S
C684 C685 1.327 . S
C685 H679 0.950 . S
C685 C684 1.327 . S
C685 C689 1.429 . S
C686 C669 1.574 . S
C686 H680 0.949 . S
C686 C690 1.368 . S
C687 C668 1.429 . S
C687 C681 1.429 . S
C687 C688 1.523 . S
C688 C669 1.368 1_554 S
C688 C682 1.368 . S
C688 C687 1.523 . S
C689 C673 1.429 . S
C689 C685 1.429 . S
C689 C690 1.523 . S
C690 C674 1.368 . S
C690 C686 1.368 . S
C690 C689 1.523 . S
H691 C666 0.950 . S
H692 C668 0.950 . S
H693 C669 0.949 . S
H694 C671 0.950 . S
H695 C673 0.950 . S
C696 C697 1.349 . S
C696 C698 1.327 . S
C696 H721 0.950 . S
C697 C696 1.349 . S
C697 C713 1.349 . S
C698 C696 1.327 . S
C698 C717 1.429 . S
C698 H722 0.950 . S
C699 C716 1.574 . S
C699 C718 1.368 . S
C699 H723 0.949 . S
H700 C704 0.949 . S
C701 C702 1.349 . S
C701 C703 1.327 . S
C701 H724 0.950 . S
C702 C701 1.349 . S
C702 C714 1.349 . S
C703 C701 1.327 . S
C703 C719 1.429 . S
C703 H725 0.950 1_554 S
C704 H700 0.949 . S
C704 C712 1.574 . S
C704 C720 1.368 . S
H705 C713 0.950 . S
H706 C711 0.950 . S
H707 C712 0.949 . S
H708 C714 0.950 . S
H709 C715 0.950 . S
H710 C716 0.949 . S
C711 H706 0.950 . S
C711 C713 1.327 . S
C711 C717 1.429 . S
C712 C704 1.574 . S
C712 H707 0.949 . S
C712 C718 1.368 1_554 S
C713 C697 1.349 . S
C713 H705 0.950 . S
C713 C711 1.327 . S
C714 C702 1.349 . S
C714 H708 0.950 . S
C714 C715 1.327 . S
C715 H709 0.950 . S
C715 C714 1.327 . S
C715 C719 1.429 . S
C716 C699 1.574 . S
C716 H710 0.949 . S
C716 C720 1.368 1_556 S
C717 C698 1.429 . S
C717 C711 1.429 . S
C717 C718 1.523 . S
C718 C699 1.368 . S
C718 C712 1.368 1_556 S
C718 C717 1.523 . S
C719 C703 1.429 . S
C719 C715 1.429 . S
C719 C720 1.523 . S
C720 C704 1.368 . S
C720 C716 1.368 1_554 S
C720 C719 1.523 . S
H721 C696 0.950 . S
H722 C698 0.950 . S
H723 C699 0.949 . S
H724 C701 0.950 . S
H725 C703 0.950 1_556 S
C726 C727 1.349 . S
C726 C728 1.327 . S
C726 H751 0.950 . S
C727 C726 1.349 . S
C727 C743 1.349 . S
C728 C726 1.327 . S
C728 C747 1.429 . S
C728 H752 0.950 . S
C729 C746 1.574 . S
C729 C748 1.368 . S
C729 H753 0.949 . S
H730 C734 0.949 . S
C731 C732 1.349 . S
C731 C733 1.327 . S
C731 H754 0.950 . S
C732 C731 1.349 . S
C732 C744 1.349 . S
C733 C731 1.327 . S
C733 C749 1.429 . S
C733 H755 0.950 . S
C734 H730 0.949 . S
C734 C742 1.574 . S
C734 C750 1.368 . S
H735 C743 0.950 . S
H736 C741 0.950 . S
H737 C742 0.949 . S
H738 C744 0.950 . S
H739 C745 0.950 . S
H740 C746 0.949 . S
C741 H736 0.950 . S
C741 C743 1.327 . S
C741 C747 1.429 . S
C742 C734 1.574 . S
C742 H737 0.949 . S
C742 C748 1.368 1_554 S
C743 C727 1.349 . S
C743 H735 0.950 . S
C743 C741 1.327 . S
C744 C732 1.349 . S
C744 H738 0.950 . S
C744 C745 1.327 . S
C745 H739 0.950 . S
C745 C744 1.327 . S
C745 C749 1.429 . S
C746 C729 1.574 . S
C746 H740 0.949 . S
C746 C750 1.368 1_556 S
C747 C728 1.429 . S
C747 C741 1.429 . S
C747 C748 1.523 . S
C748 C729 1.368 . S
C748 C742 1.368 1_556 S
C748 C747 1.523 . S
C749 C733 1.429 . S
C749 C745 1.429 . S
C749 C750 1.523 . S
C750 C734 1.368 . S
C750 C746 1.368 1_554 S
C750 C749 1.523 . S
H751 C726 0.950 . S
H752 C728 0.950 . S
H753 C729 0.949 . S
H754 C731 0.950 . S
H755 C733 0.950 . S
C756 C757 1.349 . S
C756 C758 1.327 . S
C756 H781 0.950 . S
C757 C756 1.349 . S
C757 C773 1.349 . S
C758 C756 1.327 . S
C758 C777 1.429 . S
C758 H782 0.950 . S
C759 C776 1.574 . S
C759 C778 1.368 . S
C759 H783 0.949 . S
H760 C764 0.949 . S
C761 C762 1.349 . S
C761 C763 1.327 . S
C761 H784 0.950 . S
C762 C761 1.349 . S
C762 C774 1.349 . S
C763 C761 1.327 . S
C763 C779 1.429 . S
C763 H785 0.950 . S
C764 H760 0.949 . S
C764 C772 1.574 . S
C764 C780 1.368 . S
H765 C773 0.950 . S
H766 C771 0.950 . S
H767 C772 0.949 . S
H768 C774 0.950 . S
H769 C775 0.950 . S
H770 C776 0.949 . S
C771 H766 0.950 . S
C771 C773 1.327 . S
C771 C777 1.429 . S
C772 C764 1.574 . S
C772 H767 0.949 . S
C772 C778 1.368 . S
C773 C757 1.349 . S
C773 H765 0.950 . S
C773 C771 1.327 . S
C774 C762 1.349 . S
C774 H768 0.950 . S
C774 C775 1.327 . S
C775 H769 0.950 . S
C775 C774 1.327 . S
C775 C779 1.429 . S
C776 C759 1.574 . S
C776 H770 0.949 . S
C776 C780 1.368 . S
C777 C758 1.429 . S
C777 C771 1.429 . S
C777 C778 1.523 . S
C778 C759 1.368 . S
C778 C772 1.368 . S
C778 C777 1.523 . S
C779 C763 1.429 . S
C779 C775 1.429 . S
C779 C780 1.523 . S
C780 C764 1.368 . S
C780 C776 1.368 . S
C780 C779 1.523 . S
H781 C756 0.950 . S
H782 C758 0.950 . S
H783 C759 0.949 . S
H784 C761 0.950 . S
H785 C763 0.950 . S
C786 C787 1.349 . S
C786 C788 1.327 . S
C786 H811 0.950 . S
C787 C786 1.349 . S
C787 C803 1.349 . S
C788 C786 1.327 . S
C788 C807 1.429 . S
C788 H812 0.950 . S
C789 C806 1.574 . S
C789 C808 1.368 . S
C789 H813 0.949 . S
H790 C794 0.949 . S
C791 C792 1.349 . S
C791 C793 1.327 . S
C791 H814 0.950 . S
C792 C791 1.349 . S
C792 C804 1.349 . S
C793 C791 1.327 . S
C793 C809 1.429 . S
C793 H815 0.950 . S
C794 H790 0.949 . S
C794 C802 1.574 . S
C794 C810 1.368 . S
H795 C803 0.950 1_554 S
H796 C801 0.950 . S
H797 C802 0.949 . S
H798 C804 0.950 . S
H799 C805 0.950 . S
H800 C806 0.949 . S
C801 H796 0.950 . S
C801 C803 1.327 . S
C801 C807 1.429 . S
C802 C794 1.574 . S
C802 H797 0.949 . S
C802 C808 1.368 . S
C803 C787 1.349 . S
C803 H795 0.950 1_556 S
C803 C801 1.327 . S
C804 C792 1.349 . S
C804 H798 0.950 . S
C804 C805 1.327 . S
C805 H799 0.950 . S
C805 C804 1.327 . S
C805 C809 1.429 . S
C806 C789 1.574 . S
C806 H800 0.949 . S
C806 C810 1.368 . S
C807 C788 1.429 . S
C807 C801 1.429 . S
C807 C808 1.523 . S
C808 C789 1.368 . S
C808 C802 1.368 . S
C808 C807 1.523 . S
C809 C793 1.429 . S
C809 C805 1.429 . S
C809 C810 1.523 . S
C810 C794 1.368 . S
C810 C806 1.368 . S
C810 C809 1.523 . S
H811 C786 0.950 . S
H812 C788 0.950 . S
H813 C789 0.949 . S
H814 C791 0.950 . S
H815 C793 0.950 . S
C816 C817 1.349 . S
C816 C818 1.327 . S
C816 H841 0.950 . S
C817 C816 1.349 . S
C817 C833 1.349 . S
C818 C816 1.327 . S
C818 C837 1.429 . S
C818 H842 0.950 . S
C819 C836 1.574 . S
C819 C838 1.368 . S
C819 H843 0.949 . S
H820 C824 0.949 . S
C821 C822 1.349 . S
C821 C823 1.327 . S
C821 H844 0.950 . S
C822 C821 1.349 . S
C822 C834 1.349 . S
C823 C821 1.327 . S
C823 C839 1.429 . S
C823 H845 0.950 . S
C824 H820 0.949 . S
C824 C832 1.574 . S
C824 C840 1.368 . S
H825 C833 0.950 . S
H826 C831 0.950 . S
H827 C832 0.949 . S
H828 C834 0.950 . S
H829 C835 0.950 . S
H830 C836 0.949 . S
C831 H826 0.950 . S
C831 C833 1.327 . S
C831 C837 1.429 . S
C832 C824 1.574 . S
C832 H827 0.949 . S
C832 C838 1.368 . S
C833 C817 1.349 . S
C833 H825 0.950 . S
C833 C831 1.327 . S
C834 C822 1.349 . S
C834 H828 0.950 . S
C834 C835 1.327 . S
C835 H829 0.950 . S
C835 C834 1.327 . S
C835 C839 1.429 . S
C836 C819 1.574 . S
C836 H830 0.949 . S
C836 C840 1.368 . S
C837 C818 1.429 . S
C837 C831 1.429 . S
C837 C838 1.523 . S
C838 C819 1.368 . S
C838 C832 1.368 . S
C838 C837 1.523 . S
C839 C823 1.429 . S
C839 C835 1.429 . S
C839 C840 1.523 . S
C840 C824 1.368 . S
C840 C836 1.368 . S
C840 C839 1.523 . S
H841 C816 0.950 . S
H842 C818 0.950 . S
H843 C819 0.949 . S
H844 C821 0.950 . S
H845 C823 0.950 . S
C846 C847 1.349 . S
C846 C848 1.327 . S
C846 H871 0.950 . S
C847 C846 1.349 . S
C847 C863 1.349 . S
C848 C846 1.327 . S
C848 C867 1.429 . S
C848 H872 0.950 . S
C849 C866 1.574 . S
C849 C868 1.368 . S
C849 H873 0.949 . S
H850 C854 0.949 . S
C851 C852 1.349 . S
C851 C853 1.327 . S
C851 H874 0.950 . S
C852 C851 1.349 . S
C852 C864 1.349 . S
C853 C851 1.327 . S
C853 C869 1.429 . S
C853 H875 0.950 . S
C854 H850 0.949 . S
C854 C862 1.574 . S
C854 C870 1.368 . S
H855 C863 0.950 . S
H856 C861 0.950 . S
H857 C862 0.949 . S
H858 C864 0.950 . S
H859 C865 0.950 . S
H860 C866 0.949 . S
C861 H856 0.950 . S
C861 C863 1.327 . S
C861 C867 1.429 . S
C862 C854 1.574 . S
C862 H857 0.949 . S
C862 C868 1.368 . S
C863 C847 1.349 . S
C863 H855 0.950 . S
C863 C861 1.327 . S
C864 C852 1.349 . S
C864 H858 0.950 . S
C864 C865 1.327 . S
C865 H859 0.950 . S
C865 C864 1.327 . S
C865 C869 1.429 . S
C866 C849 1.574 . S
C866 H860 0.949 . S
C866 C870 1.368 . S
C867 C848 1.429 . S
C867 C861 1.429 . S
C867 C868 1.523 . S
C868 C849 1.368 . S
C868 C862 1.368 . S
C868 C867 1.523 . S
C869 C853 1.429 . S
C869 C865 1.429 . S
C869 C870 1.523 . S
C870 C854 1.368 . S
C870 C866 1.368 . S
C870 C869 1.523 . S
H871 C846 0.950 . S
H872 C848 0.950 . S
H873 C849 0.949 . S
H874 C851 0.950 . S
H875 C853 0.950 . S
C876 C877 1.349 . S
C876 C878 1.327 . S
C876 H901 0.950 . S
C877 C876 1.349 . S
C877 C893 1.349 . S
C878 C876 1.327 . S
C878 C897 1.429 . S
C878 H902 0.950 . S
C879 C896 1.574 . S
C879 C898 1.368 . S
C879 H903 0.949 . S
H880 C884 0.949 . S
C881 C882 1.349 . S
C881 C883 1.327 . S
C881 H904 0.950 . S
C882 C881 1.349 . S
C882 C894 1.349 . S
C883 C881 1.327 . S
C883 C899 1.429 . S
C883 H905 0.950 . S
C884 H880 0.949 . S
C884 C892 1.574 . S
C884 C900 1.368 . S
H885 C893 0.950 . S
H886 C891 0.950 . S
H887 C892 0.949 . S
H888 C894 0.950 . S
H889 C895 0.950 . S
H890 C896 0.949 . S
C891 H886 0.950 . S
C891 C893 1.327 . S
C891 C897 1.429 . S
C892 C884 1.574 . S
C892 H887 0.949 . S
C892 C898 1.368 . S
C893 C877 1.349 . S
C893 H885 0.950 . S
C893 C891 1.327 . S
C894 C882 1.349 . S
C894 H888 0.950 . S
C894 C895 1.327 . S
C895 H889 0.950 . S
C895 C894 1.327 . S
C895 C899 1.429 . S
C896 C879 1.574 . S
C896 H890 0.949 . S
C896 C900 1.368 . S
C897 C878 1.429 . S
C897 C891 1.429 . S
C897 C898 1.523 . S
C898 C879 1.368 . S
C898 C892 1.368 . S
C898 C897 1.523 . S
C899 C883 1.429 . S
C899 C895 1.429 . S
C899 C900 1.523 . S
C900 C884 1.368 . S
C900 C896 1.368 . S
C900 C899 1.523 . S
H901 C876 0.950 . S
H902 C878 0.950 . S
H903 C879 0.949 . S
H904 C881 0.950 . S
H905 C883 0.950 . S
C906 C907 1.349 . S
C906 C908 1.327 . S
C906 H931 0.950 . S
C907 C906 1.349 . S
C907 C923 1.349 . S
C908 C906 1.327 . S
C908 C927 1.429 . S
C908 H932 0.950 . S
C909 C926 1.574 . S
C909 C928 1.368 . S
C909 H933 0.949 . S
H910 C914 0.949 . S
C911 C912 1.349 . S
C911 C913 1.327 . S
C911 H934 0.950 . S
C912 C911 1.349 . S
C912 C924 1.349 . S
C913 C911 1.327 . S
C913 C929 1.429 . S
C913 H935 0.950 . S
C914 H910 0.949 . S
C914 C922 1.574 . S
C914 C930 1.368 . S
H915 C923 0.950 . S
H916 C921 0.950 . S
H917 C922 0.949 . S
H918 C924 0.950 . S
H919 C925 0.950 . S
H920 C926 0.949 . S
C921 H916 0.950 . S
C921 C923 1.327 . S
C921 C927 1.429 . S
C922 C914 1.574 . S
C922 H917 0.949 . S
C922 C928 1.368 . S
C923 C907 1.349 . S
C923 H915 0.950 . S
C923 C921 1.327 . S
C924 C912 1.349 . S
C924 H918 0.950 . S
C924 C925 1.327 . S
C925 H919 0.950 . S
C925 C924 1.327 . S
C925 C929 1.429 . S
C926 C909 1.574 . S
C926 H920 0.949 . S
C926 C930 1.368 . S
C927 C908 1.429 . S
C927 C921 1.429 . S
C927 C928 1.523 . S
C928 C909 1.368 . S
C928 C922 1.368 . S
C928 C927 1.523 . S
C929 C913 1.429 . S
C929 C925 1.429 . S
C929 C930 1.523 . S
C930 C914 1.368 . S
C930 C926 1.368 . S
C930 C929 1.523 . S
H931 C906 0.950 . S
H932 C908 0.950 . S
H933 C909 0.949 . S
H934 C911 0.950 . S
H935 C913 0.950 . S
C936 C937 1.349 . S
C936 C938 1.327 . S
C936 H961 0.950 . S
C937 C936 1.349 . S
C937 C953 1.349 . S
C938 C936 1.327 . S
C938 C957 1.429 . S
C938 H962 0.950 . S
C939 C956 1.574 . S
C939 C958 1.368 . S
C939 H963 0.949 . S
H940 C944 0.949 . S
C941 C942 1.349 . S
C941 C943 1.327 . S
C941 H964 0.950 . S
C942 C941 1.349 . S
C942 C954 1.349 . S
C943 C941 1.327 . S
C943 C959 1.429 . S
C943 H965 0.950 . S
C944 H940 0.949 . S
C944 C952 1.574 . S
C944 C960 1.368 . S
H945 C953 0.948 . S
H946 C951 0.950 . S
H947 C952 0.949 . S
H948 C954 0.950 . S
H949 C955 0.950 . S
H950 C956 0.949 . S
C951 H946 0.950 . S
C951 C953 1.327 . S
C951 C957 1.429 . S
C952 C944 1.574 . S
C952 H947 0.949 . S
C952 C958 1.368 . S
C953 C937 1.349 . S
C953 H945 0.948 . S
C953 C951 1.327 . S
C954 C942 1.349 . S
C954 H948 0.950 . S
C954 C955 1.327 . S
C955 H949 0.950 . S
C955 C954 1.327 . S
C955 C959 1.429 . S
C956 C939 1.574 . S
C956 H950 0.949 . S
C956 C960 1.368 . S
C957 C938 1.429 . S
C957 C951 1.429 . S
C957 C958 1.523 . S
C958 C939 1.368 . S
C958 C952 1.368 . S
C958 C957 1.523 . S
C959 C943 1.429 . S
C959 C955 1.429 . S
C959 C960 1.523 . S
C960 C944 1.368 . S
C960 C956 1.368 . S
C960 C959 1.523 . S
H961 C936 0.950 . S
H962 C938 0.950 . S
H963 C939 0.949 . S
H964 C941 0.950 . S
H965 C943 0.950 . S
C966 C967 1.349 . S
C966 C968 1.327 . S
C966 H991 0.950 . S
C967 C966 1.349 . S
C967 C983 1.349 . S
C968 C966 1.327 . S
C968 C987 1.429 . S
C968 H992 0.950 . S
C969 C986 1.574 . S
C969 C988 1.368 . S
C969 H993 0.949 . S
H970 C974 0.949 . S
C971 C972 1.349 . S
C971 C973 1.327 . S
C971 H994 0.950 . S
C972 C971 1.349 . S
C972 C984 1.349 . S
C973 C971 1.327 . S
C973 C989 1.429 . S
C973 H995 0.950 . S
C974 H970 0.949 . S
C974 C982 1.574 . S
C974 C990 1.368 . S
H975 C983 0.950 1_554 S
H976 C981 0.950 . S
H977 C982 0.949 . S
H978 C984 0.950 . S
H979 C985 0.950 . S
H980 C986 0.949 . S
C981 H976 0.950 . S
C981 C983 1.327 . S
C981 C987 1.429 . S
C982 C974 1.574 . S
C982 H977 0.949 . S
C982 C988 1.368 . S
C983 C967 1.349 . S
C983 H975 0.950 1_556 S
C983 C981 1.327 . S
C984 C972 1.349 . S
C984 H978 0.950 . S
C984 C985 1.327 . S
C985 H979 0.950 . S
C985 C984 1.327 . S
C985 C989 1.429 . S
C986 C969 1.574 . S
C986 H980 0.949 . S
C986 C990 1.368 . S
C987 C968 1.429 . S
C987 C981 1.429 . S
C987 C988 1.523 . S
C988 C969 1.368 . S
C988 C982 1.368 . S
C988 C987 1.523 . S
C989 C973 1.429 . S
C989 C985 1.429 . S
C989 C990 1.523 . S
C990 C974 1.368 . S
C990 C986 1.368 . S
C990 C989 1.523 . S
H991 C966 0.950 . S
H992 C968 0.950 . S
H993 C969 0.949 . S
H994 C971 0.950 . S
H995 C973 0.950 . S
C996 C997 1.349 . S
C996 C998 1.327 . S
C996 H1021 0.950 . S
C997 C996 1.349 . S
C997 C1013 1.349 . S
C998 C996 1.327 . S
C998 C1017 1.429 . S
C998 H1022 0.950 . S
C999 C1016 1.574 . S
C999 C1018 1.368 . S
C999 H1023 0.949 . S
H1000 C1004 0.949 . S
C1001 C1002 1.349 . S
C1001 C1003 1.327 . S
C1001 H1024 0.950 . S
C1002 C1001 1.349 . S
C1002 C1014 1.349 . S
C1003 C1001 1.327 . S
C1003 C1019 1.429 . S
C1003 H1025 0.950 . S
C1004 H1000 0.949 . S
C1004 C1012 1.574 . S
C1004 C1020 1.368 . S
H1005 C1013 0.950 1_554 S
H1006 C1011 0.950 . S
H1007 C1012 0.949 . S
H1008 C1014 0.950 . S
H1009 C1015 0.950 . S
H1010 C1016 0.949 . S
C1011 H1006 0.950 . S
C1011 C1013 1.327 . S
C1011 C1017 1.429 . S
C1012 C1004 1.574 . S
C1012 H1007 0.949 . S
C1012 C1018 1.368 . S
C1013 C997 1.349 . S
C1013 H1005 0.950 1_556 S
C1013 C1011 1.327 . S
C1014 C1002 1.349 . S
C1014 H1008 0.950 . S
C1014 C1015 1.327 . S
C1015 H1009 0.950 . S
C1015 C1014 1.327 . S
C1015 C1019 1.429 . S
C1016 C999 1.574 . S
C1016 H1010 0.949 . S
C1016 C1020 1.368 . S
C1017 C998 1.429 . S
C1017 C1011 1.429 . S
C1017 C1018 1.523 . S
C1018 C999 1.368 . S
C1018 C1012 1.368 . S
C1018 C1017 1.523 . S
C1019 C1003 1.429 . S
C1019 C1015 1.429 . S
C1019 C1020 1.523 . S
C1020 C1004 1.368 . S
C1020 C1016 1.368 . S
C1020 C1019 1.523 . S
H1021 C996 0.950 . S
H1022 C998 0.950 . S
H1023 C999 0.949 . S
H1024 C1001 0.950 . S
H1025 C1003 0.950 . S
C1026 C1027 1.349 . S
C1026 C1028 1.327 . S
C1026 H1051 0.950 . S
C1027 C1026 1.349 . S
C1027 C1043 1.349 . S
C1028 C1026 1.327 . S
C1028 C1047 1.429 . S
C1028 H1052 0.950 . S
C1029 C1046 1.574 . S
C1029 C1048 1.368 . S
C1029 H1053 0.949 . S
H1030 C1034 0.949 . S
C1031 C1032 1.349 . S
C1031 C1033 1.327 . S
C1031 H1054 0.950 . S
C1032 C1031 1.349 . S
C1032 C1044 1.349 . S
C1033 C1031 1.327 . S
C1033 C1049 1.429 . S
C1033 H1055 0.950 . S
C1034 H1030 0.949 . S
C1034 C1042 1.574 . S
C1034 C1050 1.368 . S
H1035 C1043 0.950 . S
H1036 C1041 0.950 . S
H1037 C1042 0.949 . S
H1038 C1044 0.950 . S
H1039 C1045 0.950 . S
H1040 C1046 0.949 . S
C1041 H1036 0.950 . S
C1041 C1043 1.327 . S
C1041 C1047 1.429 . S
C1042 C1034 1.574 . S
C1042 H1037 0.949 . S
C1042 C1048 1.368 . S
C1043 C1027 1.349 . S
C1043 H1035 0.950 . S
C1043 C1041 1.327 . S
C1044 C1032 1.349 . S
C1044 H1038 0.950 . S
C1044 C1045 1.327 . S
C1045 H1039 0.950 . S
C1045 C1044 1.327 . S
C1045 C1049 1.429 . S
C1046 C1029 1.574 . S
C1046 H1040 0.949 . S
C1046 C1050 1.368 . S
C1047 C1028 1.429 . S
C1047 C1041 1.429 . S
C1047 C1048 1.523 . S
C1048 C1029 1.368 . S
C1048 C1042 1.368 . S
C1048 C1047 1.523 . S
C1049 C1033 1.429 . S
C1049 C1045 1.429 . S
C1049 C1050 1.523 . S
C1050 C1034 1.368 . S
C1050 C1046 1.368 . S
C1050 C1049 1.523 . S
H1051 C1026 0.950 . S
H1052 C1028 0.950 . S
H1053 C1029 0.949 . S
H1054 C1031 0.950 . S
H1055 C1033 0.950 . S
C1056 C1057 1.349 . S
C1056 C1058 1.327 . S
C1056 H1081 0.950 . S
C1057 C1056 1.349 . S
C1057 C1073 1.349 . S
C1058 C1056 1.327 . S
C1058 C1077 1.429 . S
C1058 H1082 0.950 . S
C1059 C1076 1.574 . S
C1059 C1078 1.368 . S
C1059 H1083 0.949 . S
H1060 C1064 0.949 . S
C1061 C1062 1.349 . S
C1061 C1063 1.327 . S
C1061 H1084 0.950 . S
C1062 C1061 1.349 . S
C1062 C1074 1.349 . S
C1063 C1061 1.327 . S
C1063 C1079 1.429 . S
C1063 H1085 0.950 . S
C1064 H1060 0.949 . S
C1064 C1072 1.574 . S
C1064 C1080 1.368 . S
H1065 C1073 0.950 . S
H1066 C1071 0.950 . S
H1067 C1072 0.949 . S
H1068 C1074 0.950 . S
H1069 C1075 0.950 . S
H1070 C1076 0.949 . S
C1071 H1066 0.950 . S
C1071 C1073 1.327 . S
C1071 C1077 1.429 . S
C1072 C1064 1.574 . S
C1072 H1067 0.949 . S
C1072 C1078 1.368 . S
C1073 C1057 1.349 . S
C1073 H1065 0.950 . S
C1073 C1071 1.327 . S
C1074 C1062 1.349 . S
C1074 H1068 0.950 . S
C1074 C1075 1.327 . S
C1075 H1069 0.950 . S
C1075 C1074 1.327 . S
C1075 C1079 1.429 . S
C1076 C1059 1.574 . S
C1076 H1070 0.949 . S
C1076 C1080 1.368 . S
C1077 C1058 1.429 . S
C1077 C1071 1.429 . S
C1077 C1078 1.523 . S
C1078 C1059 1.368 . S
C1078 C1072 1.368 . S
C1078 C1077 1.523 . S
C1079 C1063 1.429 . S
C1079 C1075 1.429 . S
C1079 C1080 1.523 . S
C1080 C1064 1.368 . S
C1080 C1076 1.368 . S
C1080 C1079 1.523 . S
H1081 C1056 0.950 . S
H1082 C1058 0.950 . S
H1083 C1059 0.949 . S
H1084 C1061 0.950 . S
H1085 C1063 0.950 . S
C1086 C1087 1.349 . S
C1086 C1088 1.327 . S
C1086 H1111 0.950 . S
C1087 C1086 1.349 . S
C1087 C1103 1.349 . S
C1088 C1086 1.327 . S
C1088 C1107 1.429 . S
C1088 H1112 0.950 . S
C1089 C1106 1.574 . S
C1089 C1108 1.368 . S
C1089 H1113 0.949 . S
H1090 C1094 0.949 . S
C1091 C1092 1.349 . S
C1091 C1093 1.327 . S
C1091 H1114 0.950 . S
C1092 C1091 1.349 . S
C1092 C1104 1.349 . S
C1093 C1091 1.327 . S
C1093 C1109 1.429 . S
C1093 H1115 0.950 . S
C1094 H1090 0.949 . S
C1094 C1102 1.574 . S
C1094 C1110 1.368 . S
H1095 C1103 0.950 . S
H1096 C1101 0.950 . S
H1097 C1102 0.949 . S
H1098 C1104 0.950 . S
H1099 C1105 0.950 . S
H1100 C1106 0.949 . S
C1101 H1096 0.950 . S
C1101 C1103 1.327 . S
C1101 C1107 1.429 . S
C1102 C1094 1.574 . S
C1102 H1097 0.949 . S
C1102 C1108 1.368 . S
C1103 C1087 1.349 . S
C1103 H1095 0.950 . S
C1103 C1101 1.327 . S
C1104 C1092 1.349 . S
C1104 H1098 0.950 . S
C1104 C1105 1.327 . S
C1105 H1099 0.950 . S
C1105 C1104 1.327 . S
C1105 C1109 1.429 . S
C1106 C1089 1.574 . S
C1106 H1100 0.949 . S
C1106 C1110 1.368 . S
C1107 C1088 1.429 . S
C1107 C1101 1.429 . S
C1107 C1108 1.523 . S
C1108 C1089 1.368 . S
C1108 C1102 1.368 . S
C1108 C1107 1.523 . S
C1109 C1093 1.429 . S
C1109 C1105 1.429 . S
C1109 C1110 1.523 . S
C1110 C1094 1.368 . S
C1110 C1106 1.368 . S
C1110 C1109 1.523 . S
H1111 C1086 0.950 . S
H1112 C1088 0.950 . S
H1113 C1089 0.949 . S
H1114 C1091 0.950 . S
H1115 C1093 0.950 . S
C1116 C1117 1.349 . S
C1116 C1118 1.327 . S
C1116 H1141 0.950 . S
C1117 C1116 1.349 . S
C1117 C1133 1.349 . S
C1118 C1116 1.327 . S
C1118 C1137 1.429 . S
C1118 H1142 0.950 . S
C1119 C1136 1.574 . S
C1119 C1138 1.368 . S
C1119 H1143 0.949 . S
H1120 C1124 0.949 . S
C1121 C1122 1.349 . S
C1121 C1123 1.327 . S
C1121 H1144 0.950 . S
C1122 C1121 1.349 . S
C1122 C1134 1.349 . S
C1123 C1121 1.327 . S
C1123 C1139 1.429 . S
C1123 H1145 0.950 . S
C1124 H1120 0.949 . S
C1124 C1132 1.574 . S
C1124 C1140 1.368 . S
H1125 C1133 0.950 . S
H1126 C1131 0.950 . S
H1127 C1132 0.949 . S
H1128 C1134 0.950 1_556 S
H1129 C1135 0.950 . S
H1130 C1136 0.949 . S
C1131 H1126 0.950 . S
C1131 C1133 1.327 . S
C1131 C1137 1.429 . S
C1132 C1124 1.574 . S
C1132 H1127 0.949 . S
C1132 C1138 1.368 . S
C1133 C1117 1.349 . S
C1133 H1125 0.950 . S
C1133 C1131 1.327 . S
C1134 C1122 1.349 . S
C1134 H1128 0.950 1_554 S
C1134 C1135 1.327 . S
C1135 H1129 0.950 . S
C1135 C1134 1.327 . S
C1135 C1139 1.429 . S
C1136 C1119 1.574 . S
C1136 H1130 0.949 . S
C1136 C1140 1.368 . S
C1137 C1118 1.429 . S
C1137 C1131 1.429 . S
C1137 C1138 1.523 . S
C1138 C1119 1.368 . S
C1138 C1132 1.368 . S
C1138 C1137 1.523 . S
C1139 C1123 1.429 . S
C1139 C1135 1.429 . S
C1139 C1140 1.523 . S
C1140 C1124 1.368 . S
C1140 C1136 1.368 . S
C1140 C1139 1.523 . S
H1141 C1116 0.950 . S
H1142 C1118 0.950 . S
H1143 C1119 0.949 . S
H1144 C1121 0.950 . S
H1145 C1123 0.950 . S
C1146 C1147 1.349 . S
C1146 C1148 1.327 . S
C1146 H1171 0.950 . S
C1147 C1146 1.349 . S
C1147 C1163 1.349 . S
C1148 C1146 1.327 . S
C1148 C1167 1.429 . S
C1148 H1172 0.950 . S
C1149 C1166 1.574 . S
C1149 C1168 1.368 . S
C1149 H1173 0.949 . S
H1150 C1154 0.949 . S
C1151 C1152 1.349 . S
C1151 C1153 1.327 . S
C1151 H1174 0.950 . S
C1152 C1151 1.349 . S
C1152 C1164 1.349 . S
C1153 C1151 1.327 . S
C1153 C1169 1.429 . S
C1153 H1175 0.950 . S
C1154 H1150 0.949 . S
C1154 C1162 1.574 . S
C1154 C1170 1.368 . S
H1155 C1163 0.950 . S
H1156 C1161 0.950 . S
H1157 C1162 0.949 . S
H1158 C1164 0.950 1_556 S
H1159 C1165 0.950 . S
H1160 C1166 0.949 . S
C1161 H1156 0.950 . S
C1161 C1163 1.327 . S
C1161 C1167 1.429 . S
C1162 C1154 1.574 . S
C1162 H1157 0.949 . S
C1162 C1168 1.368 . S
C1163 C1147 1.349 . S
C1163 H1155 0.950 . S
C1163 C1161 1.327 . S
C1164 C1152 1.349 . S
C1164 H1158 0.950 1_554 S
C1164 C1165 1.327 . S
C1165 H1159 0.950 . S
C1165 C1164 1.327 . S
C1165 C1169 1.429 . S
C1166 C1149 1.574 . S
C1166 H1160 0.949 . S
C1166 C1170 1.368 . S
C1167 C1148 1.429 . S
C1167 C1161 1.429 . S
C1167 C1168 1.523 . S
C1168 C1149 1.368 . S
C1168 C1162 1.368 . S
C1168 C1167 1.523 . S
C1169 C1153 1.429 . S
C1169 C1165 1.429 . S
C1169 C1170 1.523 . S
C1170 C1154 1.368 . S
C1170 C1166 1.368 . S
C1170 C1169 1.523 . S
H1171 C1146 0.950 . S
H1172 C1148 0.950 . S
H1173 C1149 0.949 . S
H1174 C1151 0.950 . S
H1175 C1153 0.950 . S
C1176 C1177 1.349 . S
C1176 C1178 1.327 . S
C1176 H1201 0.950 . S
C1177 C1176 1.349 . S
C1177 C1193 1.349 . S
C1178 C1176 1.327 . S
C1178 C1197 1.429 . S
C1178 H1202 0.950 . S
C1179 C1196 1.574 . S
C1179 C1198 1.368 . S
C1179 H1203 0.949 . S
H1180 C1184 0.949 . S
C1181 C1182 1.349 . S
C1181 C1183 1.327 . S
C1181 H1204 0.950 . S
C1182 C1181 1.349 . S
C1182 C1194 1.349 . S
C1183 C1181 1.327 . S
C1183 C1199 1.429 . S
C1183 H1205 0.950 . S
C1184 H1180 0.949 . S
C1184 C1192 1.574 . S
C1184 C1200 1.368 . S
H1185 C1193 0.950 1_556 S
H1186 C1191 0.950 . S
H1187 C1192 0.949 . S
H1188 C1194 0.950 . S
H1189 C1195 0.950 . S
H1190 C1196 0.949 . S
C1191 H1186 0.950 . S
C1191 C1193 1.327 . S
C1191 C1197 1.429 . S
C1192 C1184 1.574 . S
C1192 H1187 0.949 . S
C1192 C1198 1.368 . S
C1193 C1177 1.349 . S
C1193 H1185 0.950 1_554 S
C1193 C1191 1.327 . S
C1194 C1182 1.349 . S
C1194 H1188 0.950 . S
C1194 C1195 1.327 . S
C1195 H1189 0.950 . S
C1195 C1194 1.327 . S
C1195 C1199 1.429 . S
C1196 C1179 1.574 . S
C1196 H1190 0.949 . S
C1196 C1200 1.368 . S
C1197 C1178 1.429 . S
C1197 C1191 1.429 . S
C1197 C1198 1.523 . S
C1198 C1179 1.368 . S
C1198 C1192 1.368 . S
C1198 C1197 1.523 . S
C1199 C1183 1.429 . S
C1199 C1195 1.429 . S
C1199 C1200 1.523 . S
C1200 C1184 1.368 . S
C1200 C1196 1.368 . S
C1200 C1199 1.523 . S
H1201 C1176 0.950 . S
H1202 C1178 0.950 . S
H1203 C1179 0.949 . S
H1204 C1181 0.950 . S
H1205 C1183 0.950 . S
C1206 C1207 1.349 . S
C1206 C1208 1.327 . S
C1206 H1231 0.950 . S
C1207 C1206 1.349 . S
C1207 C1223 1.349 . S
C1208 C1206 1.327 . S
C1208 C1227 1.429 . S
C1208 H1232 0.950 . S
C1209 C1226 1.574 . S
C1209 C1228 1.368 . S
C1209 H1233 0.949 . S
H1210 C1214 0.949 . S
C1211 C1212 1.349 . S
C1211 C1213 1.327 . S
C1211 H1234 0.950 . S
C1212 C1211 1.349 . S
C1212 C1224 1.349 . S
C1213 C1211 1.327 . S
C1213 C1229 1.429 . S
C1213 H1235 0.950 . S
C1214 H1210 0.949 . S
C1214 C1222 1.574 . S
C1214 C1230 1.368 . S
H1215 C1223 0.950 . S
H1216 C1221 0.950 . S
H1217 C1222 0.949 . S
H1218 C1224 0.950 . S
H1219 C1225 0.950 . S
H1220 C1226 0.949 . S
C1221 H1216 0.950 . S
C1221 C1223 1.327 . S
C1221 C1227 1.429 . S
C1222 C1214 1.574 . S
C1222 H1217 0.949 . S
C1222 C1228 1.368 . S
C1223 C1207 1.349 . S
C1223 H1215 0.950 . S
C1223 C1221 1.327 . S
C1224 C1212 1.349 . S
C1224 H1218 0.950 . S
C1224 C1225 1.327 . S
C1225 H1219 0.950 . S
C1225 C1224 1.327 . S
C1225 C1229 1.429 . S
C1226 C1209 1.574 . S
C1226 H1220 0.949 . S
C1226 C1230 1.368 . S
C1227 C1208 1.429 . S
C1227 C1221 1.429 . S
C1227 C1228 1.523 . S
C1228 C1209 1.368 . S
C1228 C1222 1.368 . S
C1228 C1227 1.523 . S
C1229 C1213 1.429 . S
C1229 C1225 1.429 . S
C1229 C1230 1.523 . S
C1230 C1214 1.368 . S
C1230 C1226 1.368 . S
C1230 C1229 1.523 . S
H1231 C1206 0.950 . S
H1232 C1208 0.950 . S
H1233 C1209 0.949 . S
H1234 C1211 0.950 . S
H1235 C1213 0.950 . S
C1236 C1237 1.349 . S
C1236 C1238 1.327 . S
C1236 H1261 0.950 . S
C1237 C1236 1.349 . S
C1237 C1253 1.349 . S
C1238 C1236 1.327 . S
C1238 C1257 1.429 . S
C1238 H1262 0.950 . S
C1239 C1256 1.574 . S
C1239 C1258 1.368 . S
C1239 H1263 0.949 . S
H1240 C1244 0.949 . S
C1241 C1242 1.349 . S
C1241 C1243 1.327 . S
C1241 H1264 0.950 . S
C1242 C1241 1.349 . S
C1242 C1254 1.349 . S
C1243 C1241 1.327 . S
C1243 C1259 1.429 . S
C1243 H1265 0.950 . S
C1244 H1240 0.949 . S
C1244 C1252 1.574 . S
C1244 C1260 1.368 . S
H1245 C1253 0.950 . S
H1246 C1251 0.950 . S
H1247 C1252 0.949 . S
H1248 C1254 0.950 . S
H1249 C1255 0.950 . S
H1250 C1256 0.949 . S
C1251 H1246 0.950 . S
C1251 C1253 1.327 . S
C1251 C1257 1.429 . S
C1252 C1244 1.574 . S
C1252 H1247 0.949 . S
C1252 C1258 1.368 . S
C1253 C1237 1.349 . S
C1253 H1245 0.950 . S
C1253 C1251 1.327 . S
C1254 C1242 1.349 . S
C1254 H1248 0.950 . S
C1254 C1255 1.327 . S
C1255 H1249 0.950 . S
C1255 C1254 1.327 . S
C1255 C1259 1.429 . S
C1256 C1239 1.574 . S
C1256 H1250 0.949 . S
C1256 C1260 1.368 . S
C1257 C1238 1.429 . S
C1257 C1251 1.429 . S
C1257 C1258 1.523 . S
C1258 C1239 1.368 . S
C1258 C1252 1.368 . S
C1258 C1257 1.523 . S
C1259 C1243 1.429 . S
C1259 C1255 1.429 . S
C1259 C1260 1.523 . S
C1260 C1244 1.368 . S
C1260 C1256 1.368 . S
C1260 C1259 1.523 . S
H1261 C1236 0.950 . S
H1262 C1238 0.950 . S
H1263 C1239 0.949 . S
H1264 C1241 0.950 . S
H1265 C1243 0.950 . S
C1266 C1267 1.349 . S
C1266 C1268 1.327 . S
C1266 H1291 0.950 . S
C1267 C1266 1.349 . S
C1267 C1283 1.349 . S
C1268 C1266 1.327 . S
C1268 C1287 1.429 . S
C1268 H1292 0.950 . S
C1269 C1286 1.574 . S
C1269 C1288 1.368 . S
C1269 H1293 0.949 . S
H1270 C1274 0.949 . S
C1271 C1272 1.349 . S
C1271 C1273 1.327 . S
C1271 H1294 0.950 . S
C1272 C1271 1.349 . S
C1272 C1284 1.349 . S
C1273 C1271 1.327 . S
C1273 C1289 1.429 . S
C1273 H1295 0.950 . S
C1274 H1270 0.949 . S
C1274 C1282 1.574 . S
C1274 C1290 1.368 . S
H1275 C1283 0.950 . S
H1276 C1281 0.950 . S
H1277 C1282 0.949 . S
H1278 C1284 0.950 . S
H1279 C1285 0.950 . S
H1280 C1286 0.949 . S
C1281 H1276 0.950 . S
C1281 C1283 1.327 . S
C1281 C1287 1.429 . S
C1282 C1274 1.574 . S
C1282 H1277 0.949 . S
C1282 C1288 1.368 . S
C1283 C1267 1.349 . S
C1283 H1275 0.950 . S
C1283 C1281 1.327 . S
C1284 C1272 1.349 . S
C1284 H1278 0.950 . S
C1284 C1285 1.327 . S
C1285 H1279 0.950 . S
C1285 C1284 1.327 . S
C1285 C1289 1.429 . S
C1286 C1269 1.574 . S
C1286 H1280 0.949 . S
C1286 C1290 1.368 . S
C1287 C1268 1.429 . S
C1287 C1281 1.429 . S
C1287 C1288 1.523 . S
C1288 C1269 1.368 . S
C1288 C1282 1.368 . S
C1288 C1287 1.523 . S
C1289 C1273 1.429 . S
C1289 C1285 1.429 . S
C1289 C1290 1.523 . S
C1290 C1274 1.368 . S
C1290 C1286 1.368 . S
C1290 C1289 1.523 . S
H1291 C1266 0.950 . S
H1292 C1268 0.950 . S
H1293 C1269 0.949 . S
H1294 C1271 0.950 . S
H1295 C1273 0.950 . S
C1296 C1297 1.349 . S
C1296 C1298 1.327 . S
C1296 H1321 0.950 . S
C1297 C1296 1.349 . S
C1297 C1313 1.349 . S
C1298 C1296 1.327 . S
C1298 C1317 1.429 . S
C1298 H1322 0.950 . S
C1299 C1316 1.574 . S
C1299 C1318 1.368 . S
C1299 H1323 0.949 . S
H1300 C1304 0.949 . S
C1301 C1302 1.349 . S
C1301 C1303 1.327 . S
C1301 H1324 0.950 . S
C1302 C1301 1.349 . S
C1302 C1314 1.349 . S
C1303 C1301 1.327 . S
C1303 C1319 1.429 . S
C1303 H1325 0.950 . S
C1304 H1300 0.949 . S
C1304 C1312 1.574 . S
C1304 C1320 1.368 . S
H1305 C1313 0.950 . S
H1306 C1311 0.950 . S
H1307 C1312 0.949 . S
H1308 C1314 0.950 . S
H1309 C1315 0.950 . S
H1310 C1316 0.949 . S
C1311 H1306 0.950 . S
C1311 C1313 1.327 . S
C1311 C1317 1.429 . S
C1312 C1304 1.574 . S
C1312 H1307 0.949 . S
C1312 C1318 1.368 . S
C1313 C1297 1.349 . S
C1313 H1305 0.950 . S
C1313 C1311 1.327 . S
C1314 C1302 1.349 . S
C1314 H1308 0.950 . S
C1314 C1315 1.327 . S
C1315 H1309 0.950 . S
C1315 C1314 1.327 . S
C1315 C1319 1.429 . S
C1316 C1299 1.574 . S
C1316 H1310 0.949 . S
C1316 C1320 1.368 . S
C1317 C1298 1.429 . S
C1317 C1311 1.429 . S
C1317 C1318 1.523 . S
C1318 C1299 1.368 . S
C1318 C1312 1.368 . S
C1318 C1317 1.523 . S
C1319 C1303 1.429 . S
C1319 C1315 1.429 . S
C1319 C1320 1.523 . S
C1320 C1304 1.368 . S
C1320 C1316 1.368 . S
C1320 C1319 1.523 . S
H1321 C1296 0.950 . S
H1322 C1298 0.950 . S
H1323 C1299 0.949 . S
H1324 C1301 0.950 . S
H1325 C1303 0.950 . S
C1326 C1327 1.349 . S
C1326 C1328 1.327 . S
C1326 H1351 0.950 . S
C1327 C1326 1.349 . S
C1327 C1343 1.349 . S
C1328 C1326 1.327 . S
C1328 C1347 1.429 . S
C1328 H1352 0.950 . S
C1329 C1346 1.574 . S
C1329 C1348 1.368 . S
C1329 H1353 0.949 . S
H1330 C1334 0.949 . S
C1331 C1332 1.349 . S
C1331 C1333 1.327 . S
C1331 H1354 0.950 . S
C1332 C1331 1.349 . S
C1332 C1344 1.349 . S
C1333 C1331 1.327 . S
C1333 C1349 1.429 . S
C1333 H1355 0.950 . S
C1334 H1330 0.949 . S
C1334 C1342 1.574 . S
C1334 C1350 1.368 . S
H1335 C1343 0.950 . S
H1336 C1341 0.950 . S
H1337 C1342 0.949 . S
H1338 C1344 0.950 . S
H1339 C1345 0.950 . S
H1340 C1346 0.949 . S
C1341 H1336 0.950 . S
C1341 C1343 1.327 . S
C1341 C1347 1.429 . S
C1342 C1334 1.574 . S
C1342 H1337 0.949 . S
C1342 C1348 1.368 . S
C1343 C1327 1.349 . S
C1343 H1335 0.950 . S
C1343 C1341 1.327 . S
C1344 C1332 1.349 . S
C1344 H1338 0.950 . S
C1344 C1345 1.327 . S
C1345 H1339 0.950 . S
C1345 C1344 1.327 . S
C1345 C1349 1.429 . S
C1346 C1329 1.574 . S
C1346 H1340 0.949 . S
C1346 C1350 1.368 . S
C1347 C1328 1.429 . S
C1347 C1341 1.429 . S
C1347 C1348 1.523 . S
C1348 C1329 1.368 . S
C1348 C1342 1.368 . S
C1348 C1347 1.523 . S
C1349 C1333 1.429 . S
C1349 C1345 1.429 . S
C1349 C1350 1.523 . S
C1350 C1334 1.368 . S
C1350 C1346 1.368 . S
C1350 C1349 1.523 . S
H1351 C1326 0.950 . S
H1352 C1328 0.950 . S
H1353 C1329 0.949 . S
H1354 C1331 0.950 . S
H1355 C1333 0.950 . S
C1356 C1357 1.349 . S
C1356 C1358 1.327 . S
C1356 H1381 0.950 . S
C1357 C1356 1.349 . S
C1357 C1373 1.349 . S
C1358 C1356 1.327 . S
C1358 C1377 1.429 . S
C1358 H1382 0.950 . S
C1359 C1376 1.574 . S
C1359 C1378 1.368 . S
C1359 H1383 0.949 . S
H1360 C1364 0.949 . S
C1361 C1362 1.349 . S
C1361 C1363 1.327 . S
C1361 H1384 0.950 . S
C1362 C1361 1.349 . S
C1362 C1374 1.349 . S
C1363 C1361 1.327 . S
C1363 C1379 1.429 . S
C1363 H1385 0.950 . S
C1364 H1360 0.949 . S
C1364 C1372 1.574 . S
C1364 C1380 1.368 . S
H1365 C1373 0.950 . S
H1366 C1371 0.950 . S
H1367 C1372 0.949 . S
H1368 C1374 0.950 . S
H1369 C1375 0.950 . S
H1370 C1376 0.949 . S
C1371 H1366 0.950 . S
C1371 C1373 1.327 . S
C1371 C1377 1.429 . S
C1372 C1364 1.574 . S
C1372 H1367 0.949 . S
C1372 C1378 1.368 . S
C1373 C1357 1.349 . S
C1373 H1365 0.950 . S
C1373 C1371 1.327 . S
C1374 C1362 1.349 . S
C1374 H1368 0.950 . S
C1374 C1375 1.327 . S
C1375 H1369 0.950 . S
C1375 C1374 1.327 . S
C1375 C1379 1.429 . S
C1376 C1359 1.574 . S
C1376 H1370 0.949 . S
C1376 C1380 1.368 . S
C1377 C1358 1.429 . S
C1377 C1371 1.429 . S
C1377 C1378 1.523 . S
C1378 C1359 1.368 . S
C1378 C1372 1.368 . S
C1378 C1377 1.523 . S
C1379 C1363 1.429 . S
C1379 C1375 1.429 . S
C1379 C1380 1.523 . S
C1380 C1364 1.368 . S
C1380 C1376 1.368 . S
C1380 C1379 1.523 . S
H1381 C1356 0.950 . S
H1382 C1358 0.950 . S
H1383 C1359 0.949 . S
H1384 C1361 0.950 . S
H1385 C1363 0.950 . S
C1386 C1387 1.349 . S
C1386 C1388 1.327 . S
C1386 H1411 0.950 . S
C1387 C1386 1.349 . S
C1387 C1403 1.349 . S
C1388 C1386 1.327 . S
C1388 C1407 1.429 . S
C1388 H1412 0.950 . S
C1389 C1406 1.574 . S
C1389 C1408 1.368 . S
C1389 H1413 0.949 . S
H1390 C1394 0.949 . S
C1391 C1392 1.349 . S
C1391 C1393 1.327 . S
C1391 H1414 0.950 . S
C1392 C1391 1.349 . S
C1392 C1404 1.349 . S
C1393 C1391 1.327 . S
C1393 C1409 1.429 . S
C1393 H1415 0.950 . S
C1394 H1390 0.949 . S
C1394 C1402 1.574 . S
C1394 C1410 1.368 . S
H1395 C1403 0.950 . S
H1396 C1401 0.950 . S
H1397 C1402 0.949 . S
H1398 C1404 0.950 . S
H1399 C1405 0.950 . S
H1400 C1406 0.949 . S
C1401 H1396 0.950 . S
C1401 C1403 1.327 . S
C1401 C1407 1.429 . S
C1402 C1394 1.574 . S
C1402 H1397 0.949 . S
C1402 C1408 1.368 . S
C1403 C1387 1.349 . S
C1403 H1395 0.950 . S
C1403 C1401 1.327 . S
C1404 C1392 1.349 . S
C1404 H1398 0.950 . S
C1404 C1405 1.327 . S
C1405 H1399 0.950 . S
C1405 C1404 1.327 . S
C1405 C1409 1.429 . S
C1406 C1389 1.574 . S
C1406 H1400 0.949 . S
C1406 C1410 1.368 . S
C1407 C1388 1.429 . S
C1407 C1401 1.429 . S
C1407 C1408 1.523 . S
C1408 C1389 1.368 . S
C1408 C1402 1.368 . S
C1408 C1407 1.523 . S
C1409 C1393 1.429 . S
C1409 C1405 1.429 . S
C1409 C1410 1.523 . S
C1410 C1394 1.368 . S
C1410 C1406 1.368 . S
C1410 C1409 1.523 . S
H1411 C1386 0.950 . S
H1412 C1388 0.950 . S
H1413 C1389 0.949 . S
H1414 C1391 0.950 . S
H1415 C1393 0.950 . S
C1416 C1417 1.349 . S
C1416 C1418 1.327 . S
C1416 H1441 0.950 . S
C1417 C1416 1.349 . S
C1417 C1433 1.349 . S
C1418 C1416 1.327 . S
C1418 C1437 1.429 . S
C1418 H1442 0.950 . S
C1419 C1436 1.574 . S
C1419 C1438 1.368 . S
C1419 H1443 0.949 . S
H1420 C1424 0.949 . S
C1421 C1422 1.349 . S
C1421 C1423 1.327 . S
C1421 H1444 0.950 . S
C1422 C1421 1.349 . S
C1422 C1434 1.349 . S
C1423 C1421 1.327 . S
C1423 C1439 1.429 . S
C1423 H1445 0.950 . S
C1424 H1420 0.949 . S
C1424 C1432 1.574 . S
C1424 C1440 1.368 . S
H1425 C1433 0.950 . S
H1426 C1431 0.950 . S
H1427 C1432 0.949 . S
H1428 C1434 0.950 . S
H1429 C1435 0.950 . S
H1430 C1436 0.949 . S
C1431 H1426 0.950 . S
C1431 C1433 1.327 . S
C1431 C1437 1.429 . S
C1432 C1424 1.574 . S
C1432 H1427 0.949 . S
C1432 C1438 1.368 . S
C1433 C1417 1.349 . S
C1433 H1425 0.950 . S
C1433 C1431 1.327 . S
C1434 C1422 1.349 . S
C1434 H1428 0.950 . S
C1434 C1435 1.327 . S
C1435 H1429 0.950 . S
C1435 C1434 1.327 . S
C1435 C1439 1.429 . S
C1436 C1419 1.574 . S
C1436 H1430 0.949 . S
C1436 C1440 1.368 . S
C1437 C1418 1.429 . S
C1437 C1431 1.429 . S
C1437 C1438 1.523 . S
C1438 C1419 1.368 . S
C1438 C1432 1.368 . S
C1438 C1437 1.523 . S
C1439 C1423 1.429 . S
C1439 C1435 1.429 . S
C1439 C1440 1.523 . S
C1440 C1424 1.368 . S
C1440 C1436 1.368 . S
C1440 C1439 1.523 . S
H1441 C1416 0.950 . S
H1442 C1418 0.950 . S
H1443 C1419 0.949 . S
H1444 C1421 0.950 . S
H1445 C1423 0.950 . S
C1446 C1447 1.349 . S
C1446 C1448 1.327 . S
C1446 H1471 0.950 . S
C1447 C1446 1.349 . S
C1447 C1463 1.349 . S
C1448 C1446 1.327 . S
C1448 C1467 1.429 . S
C1448 H1472 0.950 . S
C1449 C1466 1.574 . S
C1449 C1468 1.368 . S
C1449 H1473 0.949 . S
H1450 C1454 0.949 . S
C1451 C1452 1.349 . S
C1451 C1453 1.327 . S
C1451 H1474 0.950 . S
C1452 C1451 1.349 . S
C1452 C1464 1.349 . S
C1453 C1451 1.327 . S
C1453 C1469 1.429 . S
C1453 H1475 0.950 . S
C1454 H1450 0.949 . S
C1454 C1462 1.574 . S
C1454 C1470 1.368 . S
H1455 C1463 0.950 . S
H1456 C1461 0.950 . S
H1457 C1462 0.949 . S
H1458 C1464 0.950 . S
H1459 C1465 0.950 . S
H1460 C1466 0.949 . S
C1461 H1456 0.950 . S
C1461 C1463 1.327 . S
C1461 C1467 1.429 . S
C1462 C1454 1.574 . S
C1462 H1457 0.949 . S
C1462 C1468 1.368 . S
C1463 C1447 1.349 . S
C1463 H1455 0.950 . S
C1463 C1461 1.327 . S
C1464 C1452 1.349 . S
C1464 H1458 0.950 . S
C1464 C1465 1.327 . S
C1465 H1459 0.950 . S
C1465 C1464 1.327 . S
C1465 C1469 1.429 . S
C1466 C1449 1.574 . S
C1466 H1460 0.949 . S
C1466 C1470 1.368 . S
C1467 C1448 1.429 . S
C1467 C1461 1.429 . S
C1467 C1468 1.523 . S
C1468 C1449 1.368 . S
C1468 C1462 1.368 . S
C1468 C1467 1.523 . S
C1469 C1453 1.429 . S
C1469 C1465 1.429 . S
C1469 C1470 1.523 . S
C1470 C1454 1.368 . S
C1470 C1466 1.368 . S
C1470 C1469 1.523 . S
H1471 C1446 0.950 . S
H1472 C1448 0.950 . S
H1473 C1449 0.949 . S
H1474 C1451 0.950 . S
H1475 C1453 0.950 . S
C1476 C1477 1.349 . S
C1476 C1478 1.327 . S
C1476 H1501 0.950 . S
C1477 C1476 1.349 . S
C1477 C1493 1.349 . S
C1478 C1476 1.327 . S
C1478 C1497 1.429 . S
C1478 H1502 0.950 . S
C1479 C1496 1.574 . S
C1479 C1498 1.368 . S
C1479 H1503 0.949 . S
H1480 C1484 0.949 . S
C1481 C1482 1.349 . S
C1481 C1483 1.327 . S
C1481 H1504 0.950 . S
C1482 C1481 1.349 . S
C1482 C1494 1.349 . S
C1483 C1481 1.327 . S
C1483 C1499 1.429 . S
C1483 H1505 0.950 . S
C1484 H1480 0.949 . S
C1484 C1492 1.574 . S
C1484 C1500 1.368 . S
H1485 C1493 0.950 . S
H1486 C1491 0.950 . S
H1487 C1492 0.949 . S
H1488 C1494 0.950 . S
H1489 C1495 0.950 . S
H1490 C1496 0.949 . S
C1491 H1486 0.950 . S
C1491 C1493 1.327 . S
C1491 C1497 1.429 . S
C1492 C1484 1.574 . S
C1492 H1487 0.949 . S
C1492 C1498 1.368 . S
C1493 C1477 1.349 . S
C1493 H1485 0.950 . S
C1493 C1491 1.327 . S
C1494 C1482 1.349 . S
C1494 H1488 0.950 . S
C1494 C1495 1.327 . S
C1495 H1489 0.950 . S
C1495 C1494 1.327 . S
C1495 C1499 1.429 . S
C1496 C1479 1.574 . S
C1496 H1490 0.949 . S
C1496 C1500 1.368 . S
C1497 C1478 1.429 . S
C1497 C1491 1.429 . S
C1497 C1498 1.523 . S
C1498 C1479 1.368 . S
C1498 C1492 1.368 . S
C1498 C1497 1.523 . S
C1499 C1483 1.429 . S
C1499 C1495 1.429 . S
C1499 C1500 1.523 . S
C1500 C1484 1.368 . S
C1500 C1496 1.368 . S
C1500 C1499 1.523 . S
H1501 C1476 0.950 . S
H1502 C1478 0.950 . S
H1503 C1479 0.949 . S
H1504 C1481 0.950 . S
H1505 C1483 0.950 . S
C1506 C1507 1.349 . S
C1506 C1508 1.327 . S
C1506 H1531 0.950 . S
C1507 C1506 1.349 . S
C1507 C1523 1.349 . S
C1508 C1506 1.327 . S
C1508 C1527 1.429 . S
C1508 H1532 0.950 . S
C1509 C1526 1.574 . S
C1509 C1528 1.368 . S
C1509 H1533 0.949 . S
H1510 C1514 0.949 . S
C1511 C1512 1.349 . S
C1511 C1513 1.327 . S
C1511 H1534 0.950 . S
C1512 C1511 1.349 . S
C1512 C1524 1.349 . S
C1513 C1511 1.327 . S
C1513 C1529 1.429 . S
C1513 H1535 0.950 . S
C1514 H1510 0.949 . S
C1514 C1522 1.574 . S
C1514 C1530 1.368 . S
H1515 C1523 0.950 . S
H1516 C1521 0.950 . S
H1517 C1522 0.949 . S
H1518 C1524 0.950 . S
H1519 C1525 0.950 . S
H1520 C1526 0.949 . S
C1521 H1516 0.950 . S
C1521 C1523 1.327 . S
C1521 C1527 1.429 . S
C1522 C1514 1.574 . S
C1522 H1517 0.949 . S
C1522 C1528 1.368 . S
C1523 C1507 1.349 . S
C1523 H1515 0.950 . S
C1523 C1521 1.327 . S
C1524 C1512 1.349 . S
C1524 H1518 0.950 . S
C1524 C1525 1.327 . S
C1525 H1519 0.950 . S
C1525 C1524 1.327 . S
C1525 C1529 1.429 . S
C1526 C1509 1.574 . S
C1526 H1520 0.949 . S
C1526 C1530 1.368 . S
C1527 C1508 1.429 . S
C1527 C1521 1.429 . S
C1527 C1528 1.523 . S
C1528 C1509 1.368 . S
C1528 C1522 1.368 . S
C1528 C1527 1.523 . S
C1529 C1513 1.429 . S
C1529 C1525 1.429 . S
C1529 C1530 1.523 . S
C1530 C1514 1.368 . S
C1530 C1526 1.368 . S
C1530 C1529 1.523 . S
H1531 C1506 0.950 . S
H1532 C1508 0.950 . S
H1533 C1509 0.949 . S
H1534 C1511 0.950 . S
H1535 C1513 0.950 . S
C1536 C1537 1.349 . S
C1536 C1538 1.327 . S
C1536 H1561 0.950 . S
C1537 C1536 1.349 . S
C1537 C1553 1.349 . S
C1538 C1536 1.327 . S
C1538 C1557 1.429 . S
C1538 H1562 0.950 . S
C1539 C1556 1.574 . S
C1539 C1558 1.368 . S
C1539 H1563 0.949 . S
H1540 C1544 0.949 . S
C1541 C1542 1.349 . S
C1541 C1543 1.327 . S
C1541 H1564 0.950 . S
C1542 C1541 1.349 . S
C1542 C1554 1.349 . S
C1543 C1541 1.327 . S
C1543 C1559 1.429 . S
C1543 H1565 0.950 . S
C1544 H1540 0.949 . S
C1544 C1552 1.574 . S
C1544 C1560 1.368 . S
H1545 C1553 0.950 . S
H1546 C1551 0.950 . S
H1547 C1552 0.949 . S
H1548 C1554 0.950 . S
H1549 C1555 0.950 . S
H1550 C1556 0.949 . S
C1551 H1546 0.950 . S
C1551 C1553 1.327 . S
C1551 C1557 1.429 . S
C1552 C1544 1.574 . S
C1552 H1547 0.949 . S
C1552 C1558 1.368 . S
C1553 C1537 1.349 . S
C1553 H1545 0.950 . S
C1553 C1551 1.327 . S
C1554 C1542 1.349 . S
C1554 H1548 0.950 . S
C1554 C1555 1.327 . S
C1555 H1549 0.950 . S
C1555 C1554 1.327 . S
C1555 C1559 1.429 . S
C1556 C1539 1.574 . S
C1556 H1550 0.949 . S
C1556 C1560 1.368 . S
C1557 C1538 1.429 . S
C1557 C1551 1.429 . S
C1557 C1558 1.523 . S
C1558 C1539 1.368 . S
C1558 C1552 1.368 . S
C1558 C1557 1.523 . S
C1559 C1543 1.429 . S
C1559 C1555 1.429 . S
C1559 C1560 1.523 . S
C1560 C1544 1.368 . S
C1560 C1556 1.368 . S
C1560 C1559 1.523 . S
H1561 C1536 0.950 . S
H1562 C1538 0.950 . S
H1563 C1539 0.949 . S
H1564 C1541 0.950 . S
H1565 C1543 0.950 . S
C1566 C1567 1.349 . S
C1566 C1568 1.327 . S
C1566 H1591 0.950 . S
C1567 C1566 1.349 . S
C1567 C1583 1.349 . S
C1568 C1566 1.327 . S
C1568 C1587 1.429 . S
C1568 H1592 0.950 . S
C1569 C1586 1.574 . S
C1569 C1588 1.368 . S
C1569 H1593 0.949 . S
H1570 C1574 0.949 . S
C1571 C1572 1.349 . S
C1571 C1573 1.327 1_554 S
C1571 H1594 0.950 . S
C1572 C1571 1.349 . S
C1572 C1584 1.349 . S
C1573 C1571 1.327 1_556 S
C1573 C1589 1.429 . S
C1573 H1595 0.950 . S
C1574 H1570 0.949 . S
C1574 C1582 1.574 . S
C1574 C1590 1.368 . S
H1575 C1583 0.950 . S
H1576 C1581 0.950 . S
H1577 C1582 0.949 . S
H1578 C1584 0.950 . S
H1579 C1585 0.950 . S
H1580 C1586 0.949 . S
C1581 H1576 0.950 . S
C1581 C1583 1.327 . S
C1581 C1587 1.429 . S
C1582 C1574 1.574 . S
C1582 H1577 0.949 . S
C1582 C1588 1.368 . S
C1583 C1567 1.349 . S
C1583 H1575 0.950 . S
C1583 C1581 1.327 . S
C1584 C1572 1.349 . S
C1584 H1578 0.950 . S
C1584 C1585 1.327 . S
C1585 H1579 0.950 . S
C1585 C1584 1.327 . S
C1585 C1589 1.429 1_554 S
C1586 C1569 1.574 . S
C1586 H1580 0.949 . S
C1586 C1590 1.368 . S
C1587 C1568 1.429 . S
C1587 C1581 1.429 . S
C1587 C1588 1.523 . S
C1588 C1569 1.368 . S
C1588 C1582 1.368 . S
C1588 C1587 1.523 . S
C1589 C1573 1.429 . S
C1589 C1585 1.429 1_556 S
C1589 C1590 1.523 . S
C1590 C1574 1.368 . S
C1590 C1586 1.368 . S
C1590 C1589 1.523 . S
H1591 C1566 0.950 . S
H1592 C1568 0.950 . S
H1593 C1569 0.949 . S
H1594 C1571 0.950 . S
H1595 C1573 0.950 . S
C1596 C1597 1.349 . S
C1596 C1598 1.327 . S
C1596 H1621 0.950 . S
C1597 C1596 1.349 . S
C1597 C1613 1.349 . S
C1598 C1596 1.327 . S
C1598 C1617 1.429 . S
C1598 H1622 0.950 . S
C1599 C1616 1.574 . S
C1599 C1618 1.368 . S
C1599 H1623 0.949 . S
H1600 C1604 0.949 . S
C1601 C1602 1.349 . S
C1601 C1603 1.327 . S
C1601 H1624 0.950 . S
C1602 C1601 1.349 . S
C1602 C1614 1.349 1_554 S
C1603 C1601 1.327 . S
C1603 C1619 1.429 1_554 S
C1603 H1625 0.950 . S
C1604 H1600 0.949 . S
C1604 C1612 1.574 . S
C1604 C1620 1.368 . S
H1605 C1613 0.950 . S
H1606 C1611 0.950 . S
H1607 C1612 0.949 . S
H1608 C1614 0.950 . S
H1609 C1615 0.950 . S
H1610 C1616 0.949 1_554 S
C1611 H1606 0.950 . S
C1611 C1613 1.327 . S
C1611 C1617 1.429 . S
C1612 C1604 1.574 . S
C1612 H1607 0.949 . S
C1612 C1618 1.368 . S
C1613 C1597 1.349 . S
C1613 H1605 0.950 . S
C1613 C1611 1.327 . S
C1614 C1602 1.349 1_556 S
C1614 H1608 0.950 . S
C1614 C1615 1.327 . S
C1615 H1609 0.950 . S
C1615 C1614 1.327 . S
C1615 C1619 1.429 . S
C1616 C1599 1.574 . S
C1616 H1610 0.949 1_556 S
C1616 C1620 1.368 . S
C1617 C1598 1.429 . S
C1617 C1611 1.429 . S
C1617 C1618 1.523 . S
C1618 C1599 1.368 . S
C1618 C1612 1.368 . S
C1618 C1617 1.523 . S
C1619 C1603 1.429 1_556 S
C1619 C1615 1.429 . S
C1619 C1620 1.523 . S
C1620 C1604 1.368 . S
C1620 C1616 1.368 . S
C1620 C1619 1.523 . S
H1621 C1596 0.950 . S
H1622 C1598 0.950 . S
H1623 C1599 0.949 . S
H1624 C1601 0.950 . S
H1625 C1603 0.950 . S
C1626 C1627 1.349 . S
C1626 C1628 1.327 . S
C1626 H1651 0.950 . S
C1627 C1626 1.349 . S
C1627 C1643 1.349 . S
C1628 C1626 1.327 . S
C1628 C1647 1.429 . S
C1628 H1652 0.950 . S
C1629 C1646 1.574 . S
C1629 C1648 1.368 . S
C1629 H1653 0.949 . S
H1630 C1634 0.949 . S
C1631 C1632 1.349 . S
C1631 C1633 1.327 . S
C1631 H1654 0.950 . S
C1632 C1631 1.349 . S
C1632 C1644 1.349 1_554 S
C1633 C1631 1.327 . S
C1633 C1649 1.429 1_554 S
C1633 H1655 0.950 . S
C1634 H1630 0.949 . S
C1634 C1642 1.574 . S
C1634 C1650 1.368 . S
H1635 C1643 0.950 . S
H1636 C1641 0.950 . S
H1637 C1642 0.949 . S
H1638 C1644 0.950 . S
H1639 C1645 0.950 . S
H1640 C1646 0.949 1_554 S
C1641 H1636 0.950 . S
C1641 C1643 1.327 . S
C1641 C1647 1.429 . S
C1642 C1634 1.574 . S
C1642 H1637 0.949 . S
C1642 C1648 1.368 . S
C1643 C1627 1.349 . S
C1643 H1635 0.950 . S
C1643 C1641 1.327 . S
C1644 C1632 1.349 1_556 S
C1644 H1638 0.950 . S
C1644 C1645 1.327 . S
C1645 H1639 0.950 . S
C1645 C1644 1.327 . S
C1645 C1649 1.429 . S
C1646 C1629 1.574 . S
C1646 H1640 0.949 1_556 S
C1646 C1650 1.368 . S
C1647 C1628 1.429 . S
C1647 C1641 1.429 . S
C1647 C1648 1.523 . S
C1648 C1629 1.368 . S
C1648 C1642 1.368 . S
C1648 C1647 1.523 . S
C1649 C1633 1.429 1_556 S
C1649 C1645 1.429 . S
C1649 C1650 1.523 . S
C1650 C1634 1.368 . S
C1650 C1646 1.368 . S
C1650 C1649 1.523 . S
H1651 C1626 0.950 . S
H1652 C1628 0.950 . S
H1653 C1629 0.949 . S
H1654 C1631 0.950 . S
H1655 C1633 0.950 . S
C1656 C1657 1.349 . S
C1656 C1658 1.327 . S
C1656 H1681 0.950 . S
C1657 C1656 1.349 . S
C1657 C1673 1.349 . S
C1658 C1656 1.327 . S
C1658 C1677 1.429 . S
C1658 H1682 0.950 . S
C1659 C1676 1.574 . S
C1659 C1678 1.368 . S
C1659 H1683 0.949 . S
H1660 C1664 0.949 . S
C1661 C1662 1.349 . S
C1661 C1663 1.327 . S
C1661 H1684 0.950 . S
C1662 C1661 1.349 . S
C1662 C1674 1.349 . S
C1663 C1661 1.327 . S
C1663 C1679 1.429 . S
C1663 H1685 0.950 . S
C1664 H1660 0.949 . S
C1664 C1672 1.574 . S
C1664 C1680 1.368 . S
H1665 C1673 0.950 . S
H1666 C1671 0.950 . S
H1667 C1672 0.949 . S
H1668 C1674 0.950 . S
H1669 C1675 0.950 . S
H1670 C1676 0.949 . S
C1671 H1666 0.950 . S
C1671 C1673 1.327 . S
C1671 C1677 1.429 . S
C1672 C1664 1.574 . S
C1672 H1667 0.949 . S
C1672 C1678 1.368 . S
C1673 C1657 1.349 . S
C1673 H1665 0.950 . S
C1673 C1671 1.327 . S
C1674 C1662 1.349 . S
C1674 H1668 0.950 . S
C1674 C1675 1.327 . S
C1675 H1669 0.950 . S
C1675 C1674 1.327 . S
C1675 C1679 1.429 . S
C1676 C1659 1.574 . S
C1676 H1670 0.949 . S
C1676 C1680 1.368 . S
C1677 C1658 1.429 . S
C1677 C1671 1.429 . S
C1677 C1678 1.523 . S
C1678 C1659 1.368 . S
C1678 C1672 1.368 . S
C1678 C1677 1.523 . S
C1679 C1663 1.429 . S
C1679 C1675 1.429 . S
C1679 C1680 1.523 . S
C1680 C1664 1.368 . S
C1680 C1676 1.368 . S
C1680 C1679 1.523 . S
H1681 C1656 0.950 . S
H1682 C1658 0.950 . S
H1683 C1659 0.949 . S
H1684 C1661 0.950 . S
H1685 C1663 0.950 . S
C1686 C1687 1.349 . S
C1686 C1688 1.327 . S
C1686 H1711 0.950 . S
C1687 C1686 1.349 . S
C1687 C1703 1.349 . S
C1688 C1686 1.327 . S
C1688 C1707 1.429 . S
C1688 H1712 0.950 . S
C1689 C1706 1.574 . S
C1689 C1708 1.368 . S
C1689 H1713 0.949 . S
H1690 C1694 0.949 . S
C1691 C1692 1.349 . S
C1691 C1693 1.327 . S
C1691 H1714 0.950 . S
C1692 C1691 1.349 . S
C1692 C1704 1.349 . S
C1693 C1691 1.327 . S
C1693 C1709 1.429 . S
C1693 H1715 0.950 . S
C1694 H1690 0.949 . S
C1694 C1702 1.574 . S
C1694 C1710 1.368 . S
H1695 C1703 0.950 . S
H1696 C1701 0.950 . S
H1697 C1702 0.949 . S
H1698 C1704 0.950 . S
H1699 C1705 0.950 . S
H1700 C1706 0.949 . S
C1701 H1696 0.950 . S
C1701 C1703 1.327 . S
C1701 C1707 1.429 . S
C1702 C1694 1.574 . S
C1702 H1697 0.949 . S
C1702 C1708 1.368 . S
C1703 C1687 1.349 . S
C1703 H1695 0.950 . S
C1703 C1701 1.327 . S
C1704 C1692 1.349 . S
C1704 H1698 0.950 . S
C1704 C1705 1.327 . S
C1705 H1699 0.950 . S
C1705 C1704 1.327 . S
C1705 C1709 1.429 . S
C1706 C1689 1.574 . S
C1706 H1700 0.949 . S
C1706 C1710 1.368 . S
C1707 C1688 1.429 . S
C1707 C1701 1.429 . S
C1707 C1708 1.523 . S
C1708 C1689 1.368 . S
C1708 C1702 1.368 . S
C1708 C1707 1.523 . S
C1709 C1693 1.429 . S
C1709 C1705 1.429 . S
C1709 C1710 1.523 . S
C1710 C1694 1.368 . S
C1710 C1706 1.368 . S
C1710 C1709 1.523 . S
H1711 C1686 0.950 . S
H1712 C1688 0.950 . S
H1713 C1689 0.949 . S
H1714 C1691 0.950 . S
H1715 C1693 0.950 . S
C1716 C1717 1.349 . S
C1716 C1718 1.327 . S
C1716 H1741 0.950 . S
C1717 C1716 1.349 . S
C1717 C1733 1.349 . S
C1718 C1716 1.327 . S
C1718 C1737 1.429 . S
C1718 H1742 0.950 . S
C1719 C1736 1.574 . S
C1719 C1738 1.368 . S
C1719 H1743 0.949 . S
H1720 C1724 0.949 . S
C1721 C1722 1.349 . S
C1721 C1723 1.327 . S
C1721 H1744 0.950 . S
C1722 C1721 1.349 . S
C1722 C1734 1.349 . S
C1723 C1721 1.327 . S
C1723 C1739 1.429 . S
C1723 H1745 0.950 . S
C1724 H1720 0.949 . S
C1724 C1732 1.574 . S
C1724 C1740 1.368 . S
H1725 C1733 0.950 . S
H1726 C1731 0.950 . S
H1727 C1732 0.949 . S
H1728 C1734 0.950 . S
H1729 C1735 0.950 . S
H1730 C1736 0.949 . S
C1731 H1726 0.950 . S
C1731 C1733 1.327 . S
C1731 C1737 1.429 . S
C1732 C1724 1.574 . S
C1732 H1727 0.949 . S
C1732 C1738 1.368 . S
C1733 C1717 1.349 . S
C1733 H1725 0.950 . S
C1733 C1731 1.327 . S
C1734 C1722 1.349 . S
C1734 H1728 0.950 . S
C1734 C1735 1.327 . S
C1735 H1729 0.950 . S
C1735 C1734 1.327 . S
C1735 C1739 1.429 . S
C1736 C1719 1.574 . S
C1736 H1730 0.949 . S
C1736 C1740 1.368 . S
C1737 C1718 1.429 . S
C1737 C1731 1.429 . S
C1737 C1738 1.523 . S
C1738 C1719 1.368 . S
C1738 C1732 1.368 . S
C1738 C1737 1.523 . S
C1739 C1723 1.429 . S
C1739 C1735 1.429 . S
C1739 C1740 1.523 . S
C1740 C1724 1.368 . S
C1740 C1736 1.368 . S
C1740 C1739 1.523 . S
H1741 C1716 0.950 . S
H1742 C1718 0.950 . S
H1743 C1719 0.949 . S
H1744 C1721 0.950 . S
H1745 C1723 0.950 . S
C1746 C1747 1.365 . S
C1746 C1748 1.316 1_556 S
C1746 H1771 0.946 1_556 S
C1747 C1746 1.365 . S
C1747 C1763 1.349 . S
C1748 C1746 1.316 1_554 S
C1748 C1767 1.429 . S
C1748 H1772 0.950 . S
C1749 C1766 1.574 . S
C1749 C1768 1.368 . S
C1749 H1773 0.949 . S
H1750 C1754 0.949 . S
C1751 C1752 1.349 . S
C1751 C1753 1.327 . S
C1751 H1774 0.950 . S
C1752 C1751 1.349 . S
C1752 C1764 1.349 . S
C1753 C1751 1.327 . S
C1753 C1769 1.429 . S
C1753 H1775 0.950 . S
C1754 H1750 0.949 . S
C1754 C1762 1.574 . S
C1754 C1770 1.368 . S
H1755 C1763 0.950 . S
H1756 C1761 0.950 . S
H1757 C1762 0.949 . S
H1758 C1764 0.950 . S
H1759 C1765 0.950 . S
H1760 C1766 0.949 . S
C1761 H1756 0.950 . S
C1761 C1763 1.327 . S
C1761 C1767 1.429 1_556 S
C1762 C1754 1.574 . S
C1762 H1757 0.949 . S
C1762 C1768 1.368 . S
C1763 C1747 1.349 . S
C1763 H1755 0.950 . S
C1763 C1761 1.327 . S
C1764 C1752 1.349 . S
C1764 H1758 0.950 . S
C1764 C1765 1.327 . S
C1765 H1759 0.950 . S
C1765 C1764 1.327 . S
C1765 C1769 1.429 . S
C1766 C1749 1.574 . S
C1766 H1760 0.949 . S
C1766 C1770 1.368 . S
C1767 C1748 1.429 . S
C1767 C1761 1.429 1_554 S
C1767 C1768 1.523 . S
C1768 C1749 1.368 . S
C1768 C1762 1.368 . S
C1768 C1767 1.523 . S
C1769 C1753 1.429 . S
C1769 C1765 1.429 . S
C1769 C1770 1.523 . S
C1770 C1754 1.368 . S
C1770 C1766 1.368 . S
C1770 C1769 1.523 . S
H1771 C1746 0.946 1_554 S
H1772 C1748 0.950 . S
H1773 C1749 0.949 . S
H1774 C1751 0.950 . S
H1775 C1753 0.950 . S
C1776 C1777 1.349 . S
C1776 C1778 1.327 . S
C1776 H1801 0.950 . S
C1777 C1776 1.349 . S
C1777 C1793 1.349 . S
C1778 C1776 1.327 . S
C1778 C1797 1.429 . S
C1778 H1802 0.950 . S
C1779 C1796 1.574 . S
C1779 C1798 1.368 . S
C1779 H1803 0.949 . S
H1780 C1784 0.949 . S
C1781 C1782 1.349 . S
C1781 C1783 1.327 1_556 S
C1781 H1804 0.950 . S
C1782 C1781 1.349 . S
C1782 C1794 1.349 . S
C1783 C1781 1.327 1_554 S
C1783 C1799 1.429 . S
C1783 H1805 0.950 . S
C1784 H1780 0.949 . S
C1784 C1792 1.574 . S
C1784 C1800 1.368 . S
H1785 C1793 0.950 . S
H1786 C1791 0.950 . S
H1787 C1792 0.949 . S
H1788 C1794 0.950 . S
H1789 C1795 0.950 1_554 S
H1790 C1796 0.949 . S
C1791 H1786 0.950 . S
C1791 C1793 1.327 . S
C1791 C1797 1.429 . S
C1792 C1784 1.574 . S
C1792 H1787 0.949 . S
C1792 C1798 1.368 . S
C1793 C1777 1.349 . S
C1793 H1785 0.950 . S
C1793 C1791 1.327 . S
C1794 C1782 1.349 . S
C1794 H1788 0.950 . S
C1794 C1795 1.327 . S
C1795 H1789 0.950 1_556 S
C1795 C1794 1.327 . S
C1795 C1799 1.429 1_556 S
C1796 C1779 1.574 . S
C1796 H1790 0.949 . S
C1796 C1800 1.368 . S
C1797 C1778 1.429 . S
C1797 C1791 1.429 . S
C1797 C1798 1.523 . S
C1798 C1779 1.368 . S
C1798 C1792 1.368 . S
C1798 C1797 1.523 . S
C1799 C1783 1.429 . S
C1799 C1795 1.429 1_554 S
C1799 C1800 1.523 . S
C1800 C1784 1.368 . S
C1800 C1796 1.368 . S
C1800 C1799 1.523 . S
H1801 C1776 0.950 . S
H1802 C1778 0.950 . S
H1803 C1779 0.949 . S
H1804 C1781 0.950 . S
H1805 C1783 0.950 . S
C1806 C1807 1.349 . S
C1806 C1808 1.327 . S
C1806 H1831 0.950 . S
C1807 C1806 1.349 . S
C1807 C1823 1.349 . S
C1808 C1806 1.327 . S
C1808 C1827 1.429 . S
C1808 H1832 0.950 . S
C1809 C1826 1.574 . S
C1809 C1828 1.368 . S
C1809 H1833 0.949 . S
H1810 C1814 0.949 . S
C1811 C1812 1.349 . S
C1811 C1813 1.327 1_556 S
C1811 H1834 0.950 1_556 S
C1812 C1811 1.349 . S
C1812 C1824 1.349 . S
C1813 C1811 1.327 1_554 S
C1813 C1829 1.429 . S
C1813 H1835 0.950 . S
C1814 H1810 0.949 . S
C1814 C1822 1.574 . S
C1814 C1830 1.368 . S
H1815 C1823 0.950 . S
H1816 C1821 0.950 . S
H1817 C1822 0.949 . S
H1818 C1824 0.950 . S
H1819 C1825 0.950 . S
H1820 C1826 0.949 . S
C1821 H1816 0.950 . S
C1821 C1823 1.327 . S
C1821 C1827 1.429 . S
C1822 C1814 1.574 . S
C1822 H1817 0.949 . S
C1822 C1828 1.368 . S
C1823 C1807 1.349 . S
C1823 H1815 0.950 . S
C1823 C1821 1.327 . S
C1824 C1812 1.349 . S
C1824 H1818 0.950 . S
C1824 C1825 1.327 . S
C1825 H1819 0.950 . S
C1825 C1824 1.327 . S
C1825 C1829 1.429 1_556 S
C1826 C1809 1.574 . S
C1826 H1820 0.949 . S
C1826 C1830 1.368 . S
C1827 C1808 1.429 . S
C1827 C1821 1.429 . S
C1827 C1828 1.523 . S
C1828 C1809 1.368 . S
C1828 C1822 1.368 . S
C1828 C1827 1.523 . S
C1829 C1813 1.429 . S
C1829 C1825 1.429 1_554 S
C1829 C1830 1.523 . S
C1830 C1814 1.368 . S
C1830 C1826 1.368 . S
C1830 C1829 1.523 . S
H1831 C1806 0.950 . S
H1832 C1808 0.950 . S
H1833 C1809 0.949 . S
H1834 C1811 0.950 1_554 S
H1835 C1813 0.950 . S
C1836 C1837 1.349 . S
C1836 C1838 1.327 . S
C1836 H1861 0.950 . S
C1837 C1836 1.349 . S
C1837 C1853 1.349 . S
C1838 C1836 1.327 . S
C1838 C1857 1.429 . S
C1838 H1862 0.950 . S
C1839 C1856 1.612 . S
C1839 C1858 1.331 1_455 S
C1839 H1863 0.938 1_455 S
H1840 C1844 0.949 . S
C1841 C1842 1.349 . S
C1841 C1843 1.327 . S
C1841 H1864 0.950 . S
C1842 C1841 1.349 . S
C1842 C1854 1.349 . S
C1843 C1841 1.327 . S
C1843 C1859 1.429 . S
C1843 H1865 0.950 . S
C1844 H1840 0.949 . S
C1844 C1852 1.574 . S
C1844 C1860 1.368 . S
H1845 C1853 0.950 . S
H1846 C1851 0.950 . S
H1847 C1852 0.949 . S
H1848 C1854 0.950 . S
H1849 C1855 0.950 . S
H1850 C1856 0.949 . S
C1851 H1846 0.950 . S
C1851 C1853 1.327 . S
C1851 C1857 1.429 . S
C1852 C1844 1.574 . S
C1852 H1847 0.949 . S
C1852 C1858 1.365 1_455 S
C1853 C1837 1.349 . S
C1853 H1845 0.950 . S
C1853 C1851 1.327 . S
C1854 C1842 1.349 . S
C1854 H1848 0.950 . S
C1854 C1855 1.327 . S
C1855 H1849 0.950 . S
C1855 C1854 1.327 . S
C1855 C1859 1.429 . S
C1856 C1839 1.612 . S
C1856 H1850 0.949 . S
C1856 C1860 1.368 . S
C1857 C1838 1.429 . S
C1857 C1851 1.429 . S
C1857 C1858 1.550 . S
C1858 C1839 1.331 1_655 S
C1858 C1852 1.365 1_655 S
C1858 C1857 1.550 . S
C1859 C1843 1.429 . S
C1859 C1855 1.429 . S
C1859 C1860 1.523 . S
C1860 C1844 1.368 . S
C1860 C1856 1.368 . S
C1860 C1859 1.523 . S
H1861 C1836 0.950 . S
H1862 C1838 0.950 . S
H1863 C1839 0.938 1_655 S
H1864 C1841 0.950 . S
H1865 C1843 0.950 . S
C1866 C1867 1.349 . S
C1866 C1868 1.327 . S
C1866 H1891 0.950 . S
C1867 C1866 1.349 . S
C1867 C1883 1.349 . S
C1868 C1866 1.327 . S
C1868 C1887 1.429 . S
C1868 H1892 0.950 . S
C1869 C1886 1.574 . S
C1869 C1888 1.368 . S
C1869 H1893 0.949 . S
H1870 C1874 0.949 . S
C1871 C1872 1.349 . S
C1871 C1873 1.327 . S
C1871 H1894 0.950 . S
C1872 C1871 1.349 . S
C1872 C1884 1.349 . S
C1873 C1871 1.327 . S
C1873 C1889 1.429 . S
C1873 H1895 0.950 . S
C1874 H1870 0.949 . S
C1874 C1882 1.574 . S
C1874 C1890 1.368 . S
H1875 C1883 0.950 . S
H1876 C1881 0.950 . S
H1877 C1882 0.949 . S
H1878 C1884 0.950 . S
H1879 C1885 0.950 . S
H1880 C1886 0.949 . S
C1881 H1876 0.950 . S
C1881 C1883 1.327 . S
C1881 C1887 1.429 . S
C1882 C1874 1.574 . S
C1882 H1877 0.949 . S
C1882 C1888 1.368 . S
C1883 C1867 1.349 . S
C1883 H1875 0.950 . S
C1883 C1881 1.327 . S
C1884 C1872 1.349 . S
C1884 H1878 0.950 . S
C1884 C1885 1.327 . S
C1885 H1879 0.950 . S
C1885 C1884 1.327 . S
C1885 C1889 1.429 . S
C1886 C1869 1.574 . S
C1886 H1880 0.949 . S
C1886 C1890 1.368 . S
C1887 C1868 1.429 . S
C1887 C1881 1.429 . S
C1887 C1888 1.523 . S
C1888 C1869 1.368 . S
C1888 C1882 1.368 . S
C1888 C1887 1.523 . S
C1889 C1873 1.429 . S
C1889 C1885 1.429 . S
C1889 C1890 1.523 . S
C1890 C1874 1.368 . S
C1890 C1886 1.368 . S
C1890 C1889 1.523 . S
H1891 C1866 0.950 . S
H1892 C1868 0.950 . S
H1893 C1869 0.949 . S
H1894 C1871 0.950 . S
H1895 C1873 0.950 . S
C1896 C1897 1.349 . S
C1896 C1898 1.327 . S
C1896 H1921 0.950 . S
C1897 C1896 1.349 . S
C1897 C1913 1.349 . S
C1898 C1896 1.327 . S
C1898 C1917 1.429 . S
C1898 H1922 0.950 . S
C1899 C1916 1.574 1_565 S
C1899 C1918 1.368 . S
C1899 H1923 0.949 . S
H1900 C1904 0.949 . S
C1901 C1902 1.349 . S
C1901 C1903 1.327 . S
C1901 H1924 0.950 . S
C1902 C1901 1.349 . S
C1902 C1914 1.349 . S
C1903 C1901 1.327 . S
C1903 C1919 1.429 . S
C1903 H1925 0.950 . S
C1904 H1900 0.949 . S
C1904 C1912 1.574 . S
C1904 C1920 1.368 . S
H1905 C1913 0.950 . S
H1906 C1911 0.950 . S
H1907 C1912 0.949 . S
H1908 C1914 0.950 . S
H1909 C1915 0.950 . S
H1910 C1916 0.949 . S
C1911 H1906 0.950 . S
C1911 C1913 1.327 . S
C1911 C1917 1.429 . S
C1912 C1904 1.574 . S
C1912 H1907 0.949 . S
C1912 C1918 1.368 1_545 S
C1913 C1897 1.349 . S
C1913 H1905 0.950 . S
C1913 C1911 1.327 . S
C1914 C1902 1.349 . S
C1914 H1908 0.950 . S
C1914 C1915 1.327 . S
C1915 H1909 0.950 . S
C1915 C1914 1.327 . S
C1915 C1919 1.429 . S
C1916 C1899 1.574 1_545 S
C1916 H1910 0.949 . S
C1916 C1920 1.368 . S
C1917 C1898 1.429 . S
C1917 C1911 1.429 . S
C1917 C1918 1.523 . S
C1918 C1899 1.368 . S
C1918 C1912 1.368 1_565 S
C1918 C1917 1.523 . S
C1919 C1903 1.429 . S
C1919 C1915 1.429 . S
C1919 C1920 1.523 . S
C1920 C1904 1.368 . S
C1920 C1916 1.368 . S
C1920 C1919 1.523 . S
H1921 C1896 0.950 . S
H1922 C1898 0.950 . S
H1923 C1899 0.949 . S
H1924 C1901 0.950 . S
H1925 C1903 0.950 . S
C1926 C1927 1.349 . S
C1926 C1928 1.327 . S
C1926 H1951 0.950 . S
C1927 C1926 1.349 . S
C1927 C1943 1.349 . S
C1928 C1926 1.327 . S
C1928 C1947 1.429 . S
C1928 H1952 0.950 . S
C1929 C1946 1.574 . S
C1929 C1948 1.368 1_545 S
C1929 H1953 0.949 . S
H1930 C1934 0.949 . S
C1931 C1932 1.349 . S
C1931 C1933 1.327 . S
C1931 H1954 0.950 . S
C1932 C1931 1.349 . S
C1932 C1944 1.349 . S
C1933 C1931 1.327 . S
C1933 C1949 1.429 . S
C1933 H1955 0.950 . S
C1934 H1930 0.949 . S
C1934 C1942 1.580 . S
C1934 C1950 1.368 . S
H1935 C1943 0.950 . S
H1936 C1941 0.950 . S
H1937 C1942 0.948 1_565 S
H1938 C1944 0.950 . S
H1939 C1945 0.950 . S
H1940 C1946 0.949 . S
C1941 H1936 0.950 . S
C1941 C1943 1.327 . S
C1941 C1947 1.429 . S
C1942 C1934 1.580 . S
C1942 H1937 0.948 1_545 S
C1942 C1948 1.364 1_545 S
C1943 C1927 1.349 . S
C1943 H1935 0.950 . S
C1943 C1941 1.327 . S
C1944 C1932 1.349 . S
C1944 H1938 0.950 . S
C1944 C1945 1.327 . S
C1945 H1939 0.950 . S
C1945 C1944 1.327 . S
C1945 C1949 1.429 . S
C1946 C1929 1.574 . S
C1946 H1940 0.949 . S
C1946 C1950 1.368 . S
C1947 C1928 1.429 . S
C1947 C1941 1.429 . S
C1947 C1948 1.523 . S
C1948 C1929 1.368 1_565 S
C1948 C1942 1.364 1_565 S
C1948 C1947 1.523 . S
C1949 C1933 1.429 . S
C1949 C1945 1.429 . S
C1949 C1950 1.523 . S
C1950 C1934 1.368 . S
C1950 C1946 1.368 . S
C1950 C1949 1.523 . S
H1951 C1926 0.950 . S
H1952 C1928 0.950 . S
H1953 C1929 0.949 . S
H1954 C1931 0.950 . S
H1955 C1933 0.950 . S
C1956 C1957 1.349 . S
C1956 C1958 1.327 . S
C1956 H1981 0.950 . S
C1957 C1956 1.349 . S
C1957 C1973 1.349 . S
C1958 C1956 1.327 . S
C1958 C1977 1.429 . S
C1958 H1982 0.950 . S
C1959 C1976 1.574 1_455 S
C1959 C1978 1.368 . S
C1959 H1983 0.949 . S
H1960 C1964 0.949 . S
C1961 C1962 1.349 . S
C1961 C1963 1.327 . S
C1961 H1984 0.950 . S
C1962 C1961 1.349 . S
C1962 C1974 1.349 . S
C1963 C1961 1.327 . S
C1963 C1979 1.429 . S
C1963 H1985 0.950 . S
C1964 H1960 0.949 . S
C1964 C1972 1.574 . S
C1964 C1980 1.368 1_455 S
H1965 C1973 0.950 . S
H1966 C1971 0.950 . S
H1967 C1972 0.949 . S
H1968 C1974 0.950 . S
H1969 C1975 0.950 . S
H1970 C1976 0.949 . S
C1971 H1966 0.950 . S
C1971 C1973 1.327 . S
C1971 C1977 1.429 . S
C1972 C1964 1.574 . S
C1972 H1967 0.949 . S
C1972 C1978 1.368 . S
C1973 C1957 1.349 . S
C1973 H1965 0.950 . S
C1973 C1971 1.327 . S
C1974 C1962 1.349 . S
C1974 H1968 0.950 . S
C1974 C1975 1.327 . S
C1975 H1969 0.950 . S
C1975 C1974 1.327 . S
C1975 C1979 1.429 . S
C1976 C1959 1.574 1_655 S
C1976 H1970 0.949 . S
C1976 C1980 1.368 . S
C1977 C1958 1.429 . S
C1977 C1971 1.429 . S
C1977 C1978 1.523 . S
C1978 C1959 1.368 . S
C1978 C1972 1.368 . S
C1978 C1977 1.523 . S
C1979 C1963 1.429 . S
C1979 C1975 1.429 . S
C1979 C1980 1.523 . S
C1980 C1964 1.368 1_655 S
C1980 C1976 1.368 . S
C1980 C1979 1.523 . S
H1981 C1956 0.950 . S
H1982 C1958 0.950 . S
H1983 C1959 0.949 . S
H1984 C1961 0.950 . S
H1985 C1963 0.950 . S
C1986 C1987 1.349 . S
C1986 C1988 1.327 . S
C1986 H2011 0.950 . S
C1987 C1986 1.349 . S
C1987 C2003 1.349 . S
C1988 C1986 1.327 . S
C1988 C2007 1.429 . S
C1988 H2012 0.950 . S
C1989 C2006 1.574 . S
C1989 C2008 1.368 . S
C1989 H2013 0.949 . S
H1990 C1994 0.949 . S
C1991 C1992 1.349 . S
C1991 C1993 1.327 . S
C1991 H2014 0.950 . S
C1992 C1991 1.349 . S
C1992 C2004 1.349 . S
C1993 C1991 1.327 . S
C1993 C2009 1.429 . S
C1993 H2015 0.950 . S
C1994 H1990 0.949 . S
C1994 C2002 1.574 . S
C1994 C2010 1.368 . S
H1995 C2003 0.950 . S
H1996 C2001 0.950 . S
H1997 C2002 0.949 . S
H1998 C2004 0.950 . S
H1999 C2005 0.950 . S
H2000 C2006 0.949 . S
C2001 H1996 0.950 . S
C2001 C2003 1.327 . S
C2001 C2007 1.429 . S
C2002 C1994 1.574 . S
C2002 H1997 0.949 . S
C2002 C2008 1.368 . S
C2003 C1987 1.349 . S
C2003 H1995 0.950 . S
C2003 C2001 1.327 . S
C2004 C1992 1.349 . S
C2004 H1998 0.950 . S
C2004 C2005 1.327 . S
C2005 H1999 0.950 . S
C2005 C2004 1.327 . S
C2005 C2009 1.429 . S
C2006 C1989 1.574 . S
C2006 H2000 0.949 . S
C2006 C2010 1.368 . S
C2007 C1988 1.429 . S
C2007 C2001 1.429 . S
C2007 C2008 1.523 . S
C2008 C1989 1.368 . S
C2008 C2002 1.368 . S
C2008 C2007 1.523 . S
C2009 C1993 1.429 . S
C2009 C2005 1.429 . S
C2009 C2010 1.523 . S
C2010 C1994 1.368 . S
C2010 C2006 1.368 . S
C2010 C2009 1.523 . S
H2011 C1986 0.950 . S
H2012 C1988 0.950 . S
H2013 C1989 0.949 . S
H2014 C1991 0.950 . S
H2015 C1993 0.950 . S
C397 C18 1.070 . S
C402 C98 1.075 . S
C427 C128 1.124 . S
C432 C37 1.122 . S
C457 C59 1.149 . S
C462 C81 1.144 . S
C487 C62 1.087 . S
C492 C95 1.087 . S
C517 C131 1.144 . S
C522 C15 1.149 . S
C547 C40 1.045 . S
C552 C74 1.050 . S
C577 C32 1.047 . S
C582 C76 1.042 . S
C607 C54 1.105 . S
C612 C103 1.104 . S
C637 C117 1.147 . S
C642 C7 1.142 . S
C667 C118 1.100 . S
C672 C29 1.101 . S
C697 C51 1.148 . S
C702 C87 1.153 . S
C727 C10 1.079 . S
C732 C106 1.074 . S
C757 C241 1.156 . S
C762 C147 1.160 . S
C787 C169 1.163 . S
C792 C249 1.158 . S
C817 C191 1.135 . S
C822 C213 1.131 . S
C847 C238 1.052 . S
C852 C194 1.047 . S
C877 C252 1.055 . S
C882 C150 1.050 . S
C907 C206 1.080 . S
C912 C172 1.075 . S
C937 C164 1.072 . S
C942 C208 1.067 . S
C967 C186 1.075 . S
C972 C228 1.070 . S
C997 C142 1.047 . S
C1002 C260 1.042 . S
C1027 C161 1.136 . S
C1032 C257 1.140 . S
C1057 C183 1.138 . S
C1062 C219 1.142 . S
C1087 C227 1.168 . S
C1092 C139 1.163 . S
C1117 C274 1.061 . S
C1122 C362 1.066 . S
C1147 C301 1.123 . S
C1152 C392 1.124 . S
C1177 C337 1.161 . S
C1182 C329 1.165 . S
C1207 C359 1.088 . S
C1212 C318 1.088 . S
C1237 C285 1.140 . S
C1242 C395 1.135 . S
C1267 C304 1.061 . S
C1272 C340 1.067 . S
C1297 C296 1.062 . S
C1302 C348 1.057 . S
C1327 C316 1.111 . S
C1332 C367 1.109 . S
C1357 C279 1.131 . S
C1362 C381 1.136 . S
C1387 C382 1.106 . S
C1392 C293 1.106 . S
C1417 C345 1.168 . S
C1422 C323 1.163 . S
C1447 C272 1.069 . S
C1452 C370 1.063 . S
C1477 C8 1.931 . S
C1482 C294 1.931 . S
C1507 C43 1.937 . S
C1512 C326 1.952 . S
C1537 C65 1.958 . S
C1542 C271 1.957 . S
C1567 C52 1.935 . S
C1572 C175 1.918 . S
C1597 C21 1.968 . S
C1602 C197 1.969 . S
C1627 C30 1.953 . S
C1632 C153 1.937 . S
C1657 C235 1.936 . S
C1662 C84 1.955 . S
C1687 C109 1.987 . S
C1692 C263 1.987 . S
C1717 C125 1.970 . S
C1722 C205 1.968 . S
C1747 C373 1.936 . S
C1752 C120 1.953 . S
C1777 C73 1.957 . S
C1782 C389 1.958 . S
C1807 C96 1.931 . S
C1812 C338 1.931 . S
C1837 C184 1.971 . S
C1842 C307 1.953 . S
C1867 C140 1.952 . S
C1872 C315 1.936 . S
C1897 C282 1.921 . S
C1902 C162 1.921 . S
C1927 C360 1.920 . S
C1932 C216 1.921 . S
C1957 C384 1.902 . S
C1962 C230 1.902 . S
C1987 C250 1.952 . S
C1992 C351 1.934 . S
