# Generated by pormake.
# Topology gme, (4)-cn, num edge types: 1
# Building blocks:
#     Node 0, Type 0, BuildingBlock: NAHDIM_clean_sbu_0, # of connection points: 4
#     Node 1, Type 0, BuildingBlock: NAHDIM_clean_sbu_0, # of connection points: 4
#     Node 2, Type 0, BuildingBlock: NAHDIM_clean_sbu_0, # of connection points: 4
#     Node 3, Type 0, BuildingBlock: NAHDIM_clean_sbu_0, # of connection points: 4
#     Node 4, Type 0, BuildingBlock: NAHDIM_clean_sbu_0, # of connection points: 4
#     Node 5, Type 0, BuildingBlock: NAHDIM_clean_sbu_0, # of connection points: 4
#     Node 6, Type 0, BuildingBlock: NAHDIM_clean_sbu_0, # of connection points: 4
#     Node 7, Type 0, BuildingBlock: NAHDIM_clean_sbu_0, # of connection points: 4
#     Node 8, Type 0, BuildingBlock: NAHDIM_clean_sbu_0, # of connection points: 4
#     Node 9, Type 0, BuildingBlock: NAHDIM_clean_sbu_0, # of connection points: 4
#     Node 10, Type 0, BuildingBlock: NAHDIM_clean_sbu_0, # of connection points: 4
#     Node 11, Type 0, BuildingBlock: NAHDIM_clean_sbu_0, # of connection points: 4
#     Node 12, Type 0, BuildingBlock: NAHDIM_clean_sbu_0, # of connection points: 4
#     Node 13, Type 0, BuildingBlock: NAHDIM_clean_sbu_0, # of connection points: 4
#     Node 14, Type 0, BuildingBlock: NAHDIM_clean_sbu_0, # of connection points: 4
#     Node 15, Type 0, BuildingBlock: NAHDIM_clean_sbu_0, # of connection points: 4
#     Node 16, Type 0, BuildingBlock: NAHDIM_clean_sbu_0, # of connection points: 4
#     Node 17, Type 0, BuildingBlock: NAHDIM_clean_sbu_0, # of connection points: 4
#     Node 18, Type 0, BuildingBlock: NAHDIM_clean_sbu_0, # of connection points: 4
#     Node 19, Type 0, BuildingBlock: NAHDIM_clean_sbu_0, # of connection points: 4
#     Node 20, Type 0, BuildingBlock: NAHDIM_clean_sbu_0, # of connection points: 4
#     Node 21, Type 0, BuildingBlock: NAHDIM_clean_sbu_0, # of connection points: 4
#     Node 22, Type 0, BuildingBlock: NAHDIM_clean_sbu_0, # of connection points: 4
#     Node 23, Type 0, BuildingBlock: NAHDIM_clean_sbu_0, # of connection points: 4
#     Edge 24, Type (0, 0), BuildingBlock: OJICUG_clean_linker_0, # of connection points: 2
#     Edge 25, Type (0, 0), BuildingBlock: OJICUG_clean_linker_0, # of connection points: 2
#     Edge 26, Type (0, 0), BuildingBlock: OJICUG_clean_linker_0, # of connection points: 2
#     Edge 27, Type (0, 0), BuildingBlock: OJICUG_clean_linker_0, # of connection points: 2
#     Edge 28, Type (0, 0), BuildingBlock: OJICUG_clean_linker_0, # of connection points: 2
#     Edge 29, Type (0, 0), BuildingBlock: OJICUG_clean_linker_0, # of connection points: 2
#     Edge 30, Type (0, 0), BuildingBlock: OJICUG_clean_linker_0, # of connection points: 2
#     Edge 31, Type (0, 0), BuildingBlock: OJICUG_clean_linker_0, # of connection points: 2
#     Edge 32, Type (0, 0), BuildingBlock: OJICUG_clean_linker_0, # of connection points: 2
#     Edge 33, Type (0, 0), BuildingBlock: OJICUG_clean_linker_0, # of connection points: 2
#     Edge 34, Type (0, 0), BuildingBlock: OJICUG_clean_linker_0, # of connection points: 2
#     Edge 35, Type (0, 0), BuildingBlock: OJICUG_clean_linker_0, # of connection points: 2
#     Edge 36, Type (0, 0), BuildingBlock: OJICUG_clean_linker_0, # of connection points: 2
#     Edge 37, Type (0, 0), BuildingBlock: OJICUG_clean_linker_0, # of connection points: 2
#     Edge 38, Type (0, 0), BuildingBlock: OJICUG_clean_linker_0, # of connection points: 2
#     Edge 39, Type (0, 0), BuildingBlock: OJICUG_clean_linker_0, # of connection points: 2
#     Edge 40, Type (0, 0), BuildingBlock: OJICUG_clean_linker_0, # of connection points: 2
#     Edge 41, Type (0, 0), BuildingBlock: OJICUG_clean_linker_0, # of connection points: 2
#     Edge 42, Type (0, 0), BuildingBlock: OJICUG_clean_linker_0, # of connection points: 2
#     Edge 43, Type (0, 0), BuildingBlock: OJICUG_clean_linker_0, # of connection points: 2
#     Edge 44, Type (0, 0), BuildingBlock: OJICUG_clean_linker_0, # of connection points: 2
#     Edge 45, Type (0, 0), BuildingBlock: OJICUG_clean_linker_0, # of connection points: 2
#     Edge 46, Type (0, 0), BuildingBlock: OJICUG_clean_linker_0, # of connection points: 2
#     Edge 47, Type (0, 0), BuildingBlock: OJICUG_clean_linker_0, # of connection points: 2
#     Edge 48, Type (0, 0), BuildingBlock: OJICUG_clean_linker_0, # of connection points: 2
#     Edge 49, Type (0, 0), BuildingBlock: OJICUG_clean_linker_0, # of connection points: 2
#     Edge 50, Type (0, 0), BuildingBlock: OJICUG_clean_linker_0, # of connection points: 2
#     Edge 51, Type (0, 0), BuildingBlock: OJICUG_clean_linker_0, # of connection points: 2
#     Edge 52, Type (0, 0), BuildingBlock: OJICUG_clean_linker_0, # of connection points: 2
#     Edge 53, Type (0, 0), BuildingBlock: OJICUG_clean_linker_0, # of connection points: 2
#     Edge 54, Type (0, 0), BuildingBlock: OJICUG_clean_linker_0, # of connection points: 2
#     Edge 55, Type (0, 0), BuildingBlock: OJICUG_clean_linker_0, # of connection points: 2
#     Edge 56, Type (0, 0), BuildingBlock: OJICUG_clean_linker_0, # of connection points: 2
#     Edge 57, Type (0, 0), BuildingBlock: OJICUG_clean_linker_0, # of connection points: 2
#     Edge 58, Type (0, 0), BuildingBlock: OJICUG_clean_linker_0, # of connection points: 2
#     Edge 59, Type (0, 0), BuildingBlock: OJICUG_clean_linker_0, # of connection points: 2
#     Edge 60, Type (0, 0), BuildingBlock: OJICUG_clean_linker_0, # of connection points: 2
#     Edge 61, Type (0, 0), BuildingBlock: OJICUG_clean_linker_0, # of connection points: 2
#     Edge 62, Type (0, 0), BuildingBlock: OJICUG_clean_linker_0, # of connection points: 2
#     Edge 63, Type (0, 0), BuildingBlock: OJICUG_clean_linker_0, # of connection points: 2
#     Edge 64, Type (0, 0), BuildingBlock: OJICUG_clean_linker_0, # of connection points: 2
#     Edge 65, Type (0, 0), BuildingBlock: OJICUG_clean_linker_0, # of connection points: 2
#     Edge 66, Type (0, 0), BuildingBlock: OJICUG_clean_linker_0, # of connection points: 2
#     Edge 67, Type (0, 0), BuildingBlock: OJICUG_clean_linker_0, # of connection points: 2
#     Edge 68, Type (0, 0), BuildingBlock: OJICUG_clean_linker_0, # of connection points: 2
#     Edge 69, Type (0, 0), BuildingBlock: OJICUG_clean_linker_0, # of connection points: 2
#     Edge 70, Type (0, 0), BuildingBlock: OJICUG_clean_linker_0, # of connection points: 2
#     Edge 71, Type (0, 0), BuildingBlock: OJICUG_clean_linker_0, # of connection points: 2
# Relax obj value: 0.157
# Max RMSD: 0.149
# Mean RMSD: 0.149
data_MOF--net-gme--node1-NAHDIM_clean_sbu_0--edge1-OJICUG_clean_linker_0
_symmetry_space_group_name_H-M    P1
_symmetry_Int_Tables_number       1
_symmetry_cell_setting            triclinic
loop_
_symmetry_equiv_pos_as_xyz
'x, y, z'
_cell_length_a     45.787078
_cell_length_b     45.756886
_cell_length_c     37.934755
_cell_angle_alpha  90.065285
_cell_angle_beta   90.010305
_cell_angle_gamma 120.0007
loop_
_atom_site_label
_atom_site_type_symbol
_atom_site_fract_x
_atom_site_fract_y
_atom_site_fract_z
_atom_type_partial_charge
C0 C 0.36513 0.04485 0.05075 0.0
O1 O 0.35578 0.06756 0.0543 0.0
O2 O 0.41317 0.1247 0.09607 0.0
Zn3 Zn 0.41577 0.08285 0.10544 0.0
O4 O 0.46368 0.0932 0.10024 0.0
C5 C 0.38064 0.07346 0.17177 0.0
O6 O 0.36557 0.08713 0.15454 0.0
O7 O 0.38839 0.04637 0.07033 0.0
C8 C 0.48657 0.11142 0.12224 0.0
O9 O 0.47907 0.1249 0.14884 0.0
C10 C 0.4319 0.14673 0.07363 0.0
O11 O 0.45326 0.14179 0.05503 0.0
O12 O 0.40171 0.06793 0.15559 0.0
C13 C 0.32888 0.38956 0.53617 0.0
O14 O 0.31657 0.40717 0.52163 0.0
O15 O 0.28087 0.41976 0.58669 0.0
Zn16 Zn 0.32513 0.42286 0.59869 0.0
O17 O 0.3636 0.4701 0.59157 0.0
C18 C 0.29786 0.39028 0.66559 0.0
O19 O 0.26981 0.37351 0.64741 0.0
O20 O 0.33366 0.39145 0.56927 0.0
C21 C 0.36672 0.49388 0.61143 0.0
O22 O 0.34371 0.48739 0.6356 0.0
C23 C 0.27811 0.44065 0.56691 0.0
O24 O 0.30519 0.46508 0.55191 0.0
O25 O 0.32457 0.41182 0.64997 0.0
C26 C 0.93156 0.33104 0.03373 0.0
O27 O 0.90181 0.32089 0.01958 0.0
O28 O 0.85395 0.28275 0.08579 0.0
Zn29 Zn 0.89555 0.32697 0.0968 0.0
O30 O 0.88741 0.36575 0.08926 0.0
C31 C 0.90152 0.30076 0.16414 0.0
O32 O 0.89022 0.27242 0.14646 0.0
O33 O 0.93481 0.33443 0.06697 0.0
C34 C 0.8674 0.36955 0.10942 0.0
O35 O 0.85102 0.34691 0.13395 0.0
C36 C 0.82979 0.27976 0.0667 0.0
O37 O 0.83203 0.30666 0.05167 0.0
O38 O 0.90656 0.32721 0.14803 0.0
C39 C 0.59864 0.93872 0.54273 0.0
O40 O 0.57943 0.9081 0.5303 0.0
O41 O 0.56862 0.86313 0.5965 0.0
Zn42 Zn 0.56755 0.9057 0.60741 0.0
O43 O 0.52071 0.89834 0.60118 0.0
C44 C 0.60093 0.91163 0.67418 0.0
O45 O 0.61627 0.89856 0.65637 0.0
O46 O 0.59868 0.94379 0.57567 0.0
C47 C 0.49731 0.87972 0.62247 0.0
O48 O 0.50377 0.86421 0.64782 0.0
C49 C 0.54651 0.83915 0.57786 0.0
O50 O 0.52192 0.84213 0.56377 0.0
O51 O 0.58018 0.91782 0.65831 0.0
C52 C 0.65411 0.59673 0.03867 0.0
O53 O 0.66638 0.57895 0.02444 0.0
O54 O 0.70178 0.56691 0.08952 0.0
Zn55 Zn 0.65733 0.56345 0.10115 0.0
O56 O 0.61902 0.51625 0.09328 0.0
C57 C 0.68408 0.59629 0.16801 0.0
O58 O 0.71191 0.61363 0.1497 0.0
O59 O 0.64907 0.59497 0.07172 0.0
C60 C 0.61571 0.49215 0.11266 0.0
O61 O 0.63846 0.49824 0.13704 0.0
C62 C 0.70498 0.54621 0.06983 0.0
O63 O 0.67816 0.52148 0.05472 0.0
O64 O 0.65754 0.57423 0.15248 0.0
C65 C 0.05551 0.66078 0.53486 0.0
O66 O 0.08494 0.66948 0.52071 0.0
O67 O 0.13304 0.71015 0.58894 0.0
Zn68 Zn 0.09144 0.66547 0.59825 0.0
O69 O 0.09991 0.62701 0.58966 0.0
C70 C 0.08309 0.68986 0.66557 0.0
O71 O 0.09337 0.71812 0.64809 0.0
O72 O 0.05249 0.65856 0.56817 0.0
C73 C 0.11991 0.62291 0.60954 0.0
O74 O 0.13618 0.64511 0.63454 0.0
C75 C 0.15778 0.71399 0.57033 0.0
O76 O 0.15619 0.68773 0.55439 0.0
O77 O 0.07957 0.66399 0.64934 0.0
C78 C 0.93641 0.60246 0.44773 0.0
O79 O 0.90645 0.58667 0.46246 0.0
O80 O 0.85796 0.57122 0.39793 0.0
Zn81 Zn 0.89868 0.5673 0.386 0.0
O82 O 0.8894 0.51992 0.39357 0.0
C83 C 0.90387 0.59906 0.31855 0.0
O84 O 0.89306 0.61642 0.33639 0.0
O85 O 0.93904 0.59873 0.41492 0.0
C86 C 0.86869 0.4962 0.37368 0.0
O87 O 0.85238 0.50286 0.3494 0.0
C88 C 0.83428 0.55078 0.41795 0.0
O89 O 0.8366 0.52627 0.43325 0.0
O90 O 0.90885 0.57757 0.33458 0.0
C91 C 0.3179 0.95095 0.93387 0.0
O92 O 0.29051 0.94373 0.916 0.0
O93 O 0.2813 0.86172 0.89466 0.0
Zn94 Zn 0.32599 0.90358 0.88691 0.0
O95 O 0.3629 0.89213 0.88981 0.0
C96 C 0.30064 0.91555 0.82168 0.0
O97 O 0.2716 0.90009 0.83829 0.0
O98 O 0.3353 0.93749 0.92514 0.0
C99 C 0.36822 0.87612 0.86563 0.0
O100 O 0.3483 0.86565 0.83793 0.0
C101 C 0.27768 0.83885 0.91611 0.0
O102 O 0.30375 0.84296 0.93459 0.0
O103 O 0.32728 0.92142 0.838 0.0
C104 C 0.39015 0.33191 0.44885 0.0
O105 O 0.40914 0.32115 0.46329 0.0
O106 O 0.42107 0.28492 0.39647 0.0
Zn107 Zn 0.42358 0.32918 0.38611 0.0
O108 O 0.47036 0.36798 0.3944 0.0
C109 C 0.39028 0.3034 0.31941 0.0
O110 O 0.3722 0.27573 0.33775 0.0
O111 O 0.39131 0.33617 0.4157 0.0
C112 C 0.49461 0.37174 0.37498 0.0
O113 O 0.48889 0.34913 0.35053 0.0
C114 C 0.44194 0.28166 0.41579 0.0
O115 O 0.46615 0.30828 0.43173 0.0
O116 O 0.413 0.32958 0.33489 0.0
C117 C 0.04991 0.38982 0.94575 0.0
O118 O 0.07992 0.40696 0.96022 0.0
O119 O 0.12766 0.41999 0.89523 0.0
Zn120 Zn 0.08692 0.42397 0.88376 0.0
O121 O 0.09606 0.4712 0.89211 0.0
C122 C 0.08111 0.39237 0.81604 0.0
O123 O 0.09152 0.37459 0.83369 0.0
O124 O 0.04687 0.39231 0.91277 0.0
C125 C 0.11672 0.49523 0.87257 0.0
O126 O 0.13315 0.48901 0.84803 0.0
C127 C 0.1516 0.44043 0.91506 0.0
O128 O 0.14969 0.46518 0.93039 0.0
O129 O 0.07655 0.41406 0.83229 0.0
C130 C 0.65613 0.05153 0.44693 0.0
O131 O 0.66798 0.08225 0.45929 0.0
O132 O 0.70276 0.12689 0.39262 0.0
Zn133 Zn 0.65886 0.08463 0.38195 0.0
O134 O 0.62005 0.09304 0.38786 0.0
C135 C 0.68589 0.07863 0.31489 0.0
O136 O 0.71459 0.0924 0.3322 0.0
O137 O 0.65119 0.04647 0.41397 0.0
C138 C 0.61529 0.11113 0.36578 0.0
O139 O 0.63677 0.12523 0.33974 0.0
C140 C 0.70477 0.15107 0.411 0.0
O141 O 0.67728 0.14833 0.42505 0.0
O142 O 0.65904 0.07206 0.33119 0.0
C143 C 0.5942 0.65473 0.95002 0.0
O144 O 0.57536 0.66583 0.96412 0.0
O145 O 0.56345 0.70155 0.89842 0.0
Zn146 Zn 0.56123 0.65759 0.88713 0.0
O147 O 0.5144 0.61863 0.89447 0.0
C148 C 0.59394 0.68463 0.82039 0.0
O149 O 0.61104 0.71255 0.83873 0.0
O150 O 0.59317 0.65026 0.91689 0.0
C151 C 0.49049 0.61506 0.87459 0.0
O152 O 0.49662 0.63794 0.85038 0.0
C153 C 0.5422 0.70428 0.91763 0.0
O154 O 0.51775 0.67726 0.93268 0.0
O155 O 0.57222 0.65795 0.83591 0.0
C156 C 0.61798 0.95163 0.92918 0.0
O157 O 0.63703 0.95259 0.90281 0.0
O158 O 0.56255 0.85411 0.89865 0.0
Zn159 Zn 0.56085 0.89655 0.89084 0.0
O160 O 0.51301 0.88684 0.89322 0.0
C161 C 0.59829 0.90747 0.82592 0.0
O162 O 0.611 0.8912 0.84259 0.0
O163 O 0.58659 0.93041 0.92868 0.0
C164 C 0.49223 0.87213 0.86823 0.0
O165 O 0.50181 0.86162 0.84067 0.0
C166 C 0.54227 0.83048 0.91879 0.0
O167 O 0.51925 0.8338 0.93612 0.0
O168 O 0.57795 0.91407 0.84208 0.0
C169 C 0.65728 0.60281 0.45066 0.0
O170 O 0.66923 0.58494 0.46534 0.0
O171 O 0.70588 0.57295 0.39971 0.0
Zn172 Zn 0.6613 0.56945 0.38839 0.0
O173 O 0.62315 0.52225 0.39637 0.0
C174 C 0.68687 0.59986 0.32006 0.0
O175 O 0.71556 0.61706 0.33708 0.0
O176 O 0.65287 0.60113 0.41751 0.0
C177 C 0.62007 0.49842 0.37661 0.0
O178 O 0.64301 0.50492 0.35236 0.0
C179 C 0.70899 0.55225 0.41947 0.0
O180 O 0.68217 0.52797 0.43498 0.0
O181 O 0.66062 0.57918 0.33692 0.0
C182 C 0.0515 0.66024 0.94752 0.0
O183 O 0.08151 0.67214 0.96172 0.0
O184 O 0.12887 0.70787 0.8956 0.0
Zn185 Zn 0.08772 0.66323 0.88485 0.0
O186 O 0.09661 0.62498 0.89293 0.0
C187 C 0.08102 0.68876 0.81754 0.0
O188 O 0.09123 0.71686 0.83539 0.0
O189 O 0.04817 0.65537 0.91444 0.0
C190 C 0.11715 0.62156 0.87323 0.0
O191 O 0.13361 0.64426 0.84878 0.0
C192 C 0.15283 0.71147 0.9154 0.0
O193 O 0.15064 0.68498 0.93136 0.0
O194 O 0.07682 0.66257 0.83357 0.0
C195 C 0.36438 0.0313 0.42566 0.0
O196 O 0.34729 0.02513 0.39611 0.0
O197 O 0.42076 0.13151 0.39474 0.0
Zn198 Zn 0.42094 0.08808 0.38838 0.0
O199 O 0.46826 0.09636 0.39166 0.0
C200 C 0.38303 0.07603 0.32359 0.0
O201 O 0.36992 0.09185 0.34043 0.0
O202 O 0.39442 0.05588 0.42719 0.0
C203 C 0.49026 0.1133 0.36842 0.0
O204 O 0.4822 0.12681 0.34234 0.0
C205 C 0.44044 0.15466 0.41577 0.0
O206 O 0.46198 0.15032 0.43474 0.0
O207 O 0.40379 0.06995 0.33964 0.0
C208 C 0.32599 0.38518 0.94846 0.0
O209 O 0.31521 0.40423 0.96273 0.0
O210 O 0.27826 0.4155 0.89699 0.0
Zn211 Zn 0.32232 0.41787 0.88576 0.0
O212 O 0.36108 0.46476 0.89367 0.0
C213 C 0.29602 0.3873 0.81763 0.0
O214 O 0.26735 0.37087 0.83478 0.0
O215 O 0.32986 0.38588 0.91526 0.0
C216 C 0.36463 0.48874 0.87393 0.0
O217 O 0.34186 0.48261 0.84956 0.0
C218 C 0.27574 0.43673 0.91649 0.0
O219 O 0.30285 0.46089 0.9318 0.0
O220 O 0.3226 0.4076 0.83435 0.0
C221 C 0.93177 0.3312 0.44657 0.0
O222 O 0.90213 0.32142 0.46079 0.0
O223 O 0.85408 0.28191 0.39435 0.0
Zn224 Zn 0.89536 0.3265 0.38367 0.0
O225 O 0.8869 0.36505 0.39196 0.0
C226 C 0.90159 0.30076 0.31618 0.0
O227 O 0.89069 0.27249 0.33381 0.0
O228 O 0.93483 0.33412 0.41329 0.0
C229 C 0.86694 0.36919 0.37204 0.0
O230 O 0.85065 0.34698 0.34706 0.0
C231 C 0.82952 0.27854 0.41297 0.0
O232 O 0.83109 0.30527 0.42775 0.0
O233 O 0.90631 0.3271 0.33238 0.0
C234 C 0.05056 0.39031 0.53419 0.0
O235 O 0.08054 0.40713 0.51965 0.0
O236 O 0.12855 0.42084 0.58517 0.0
Zn237 Zn 0.08764 0.42463 0.59643 0.0
O238 O 0.09694 0.47196 0.5886 0.0
C239 C 0.08152 0.3927 0.66395 0.0
O240 O 0.09206 0.37502 0.64626 0.0
O241 O 0.04765 0.39311 0.56713 0.0
C242 C 0.11776 0.49573 0.60837 0.0
O243 O 0.13407 0.4891 0.63267 0.0
C244 C 0.15248 0.44142 0.56548 0.0
O245 O 0.1503 0.46593 0.55003 0.0
O246 O 0.07702 0.41444 0.64779 0.0
C247 C 0.66851 0.05213 0.03962 0.0
O248 O 0.69866 0.07899 0.03757 0.0
O249 O 0.70105 0.12992 0.08748 0.0
Zn250 Zn 0.65708 0.08781 0.09743 0.0
O251 O 0.61862 0.09701 0.0938 0.0
C252 C 0.68484 0.07984 0.16303 0.0
O253 O 0.71336 0.09427 0.14541 0.0
O254 O 0.64813 0.0507 0.06322 0.0
C255 C 0.61402 0.11425 0.11713 0.0
O256 O 0.63576 0.12754 0.14314 0.0
C257 C 0.70397 0.15334 0.06725 0.0
O258 O 0.67721 0.15004 0.05084 0.0
O259 O 0.65775 0.07349 0.14736 0.0
C260 C 0.59584 0.66059 0.53764 0.0
O261 O 0.57671 0.67115 0.52316 0.0
O262 O 0.56596 0.70848 0.59098 0.0
Zn263 Zn 0.56277 0.66373 0.60058 0.0
O264 O 0.51581 0.62521 0.59202 0.0
C265 C 0.59467 0.68807 0.66844 0.0
O266 O 0.61234 0.71667 0.65143 0.0
O267 O 0.59489 0.65663 0.57083 0.0
C268 C 0.49189 0.62094 0.61229 0.0
O269 O 0.49803 0.643 0.6375 0.0
C270 C 0.54469 0.71207 0.57272 0.0
O271 O 0.51967 0.68556 0.55751 0.0
O272 O 0.57292 0.6622 0.65174 0.0
C273 C 0.93361 0.60063 0.03612 0.0
O274 O 0.90364 0.58211 0.02194 0.0
O275 O 0.85603 0.56984 0.08786 0.0
Zn276 Zn 0.89766 0.56732 0.09887 0.0
O277 O 0.88937 0.52036 0.09096 0.0
C278 C 0.90331 0.5991 0.16648 0.0
O279 O 0.89189 0.61609 0.14896 0.0
O280 O 0.937 0.59927 0.06921 0.0
C281 C 0.86886 0.4964 0.11066 0.0
O282 O 0.85231 0.50262 0.13506 0.0
C283 C 0.83223 0.54874 0.06833 0.0
O284 O 0.83505 0.52454 0.05291 0.0
O285 O 0.90852 0.57787 0.15017 0.0
C286 C 0.31596 0.93753 0.54193 0.0
O287 O 0.28916 0.90755 0.53808 0.0
O288 O 0.28508 0.86443 0.5957 0.0
Zn289 Zn 0.32852 0.90781 0.60402 0.0
O290 O 0.36775 0.89987 0.59936 0.0
C291 C 0.302 0.9172 0.66984 0.0
O292 O 0.27338 0.90303 0.65237 0.0
O293 O 0.33503 0.94332 0.56853 0.0
C294 C 0.37169 0.88086 0.62088 0.0
O295 O 0.34908 0.8654 0.64568 0.0
C296 C 0.2826 0.84146 0.57498 0.0
O297 O 0.30931 0.84603 0.55744 0.0
O298 O 0.32884 0.92304 0.65397 0.0
C299 C 0.38554 0.32645 0.03666 0.0
O300 O 0.40344 0.31435 0.02237 0.0
O301 O 0.41522 0.27887 0.08989 0.0
Zn302 Zn 0.4192 0.32396 0.09946 0.0
O303 O 0.46641 0.36187 0.09091 0.0
C304 C 0.38756 0.30018 0.16745 0.0
O305 O 0.36933 0.27163 0.15046 0.0
O306 O 0.38743 0.33161 0.0697 0.0
C307 C 0.4902 0.3655 0.11101 0.0
O308 O 0.48373 0.34307 0.13585 0.0
C309 C 0.4352 0.27453 0.07023 0.0
O310 O 0.45943 0.30049 0.05355 0.0
O311 O 0.40945 0.32585 0.15067 0.0
C312 C 0.35824 0.08058 0.26631 0.0
C313 C 0.37808 0.07033 0.28505 0.0
H314 H 0.34322 0.08933 0.2158 0.0
C315 C 0.39574 0.05759 0.26617 0.0
H316 H 0.34417 0.09034 0.28003 0.0
C317 C 0.39523 0.05706 0.22933 0.0
C318 C 0.37701 0.0692 0.21054 0.0
H319 H 0.41112 0.0493 0.27976 0.0
H320 H 0.4102 0.04833 0.21562 0.0
C321 C 0.3577 0.08 0.22944 0.0
C322 C 0.26761 0.3661 0.72258 0.0
C323 C 0.2978 0.38665 0.70434 0.0
H324 H 0.24335 0.35001 0.77276 0.0
C325 C 0.32775 0.40534 0.72367 0.0
H326 H 0.24412 0.3513 0.70846 0.0
C327 C 0.32732 0.40457 0.76044 0.0
C328 C 0.29691 0.38512 0.77876 0.0
H329 H 0.35149 0.42129 0.71044 0.0
H330 H 0.35073 0.41998 0.77449 0.0
C331 C 0.26717 0.36535 0.75945 0.0
C332 C 0.91538 0.33137 0.22182 0.0
C333 C 0.90499 0.30129 0.20295 0.0
H334 H 0.92267 0.35483 0.27228 0.0
C335 C 0.89597 0.27148 0.22168 0.0
H336 H 0.92266 0.35483 0.20821 0.0
C337 C 0.89599 0.27148 0.25855 0.0
C338 C 0.90501 0.3013 0.27738 0.0
H339 H 0.88796 0.24791 0.20792 0.0
H340 H 0.88799 0.24791 0.27224 0.0
C341 C 0.91538 0.33137 0.2586 0.0
C342 C 0.62298 0.90331 0.73157 0.0
C343 C 0.60431 0.91505 0.713 0.0
H344 H 0.636 0.89196 0.78191 0.0
C345 C 0.58666 0.92766 0.73209 0.0
H346 H 0.637 0.89359 0.71767 0.0
C347 C 0.58615 0.9268 0.7689 0.0
C348 C 0.60321 0.91323 0.78745 0.0
H349 H 0.57222 0.93714 0.71863 0.0
H350 H 0.57125 0.93556 0.78271 0.0
C351 C 0.62242 0.90239 0.76843 0.0
C352 C 0.71509 0.6221 0.26173 0.0
C353 C 0.68565 0.60176 0.2812 0.0
H354 H 0.73769 0.63649 0.21063 0.0
C355 C 0.65527 0.58156 0.26304 0.0
H356 H 0.73888 0.63802 0.27492 0.0
C357 C 0.6546 0.58066 0.22626 0.0
C358 C 0.68428 0.59996 0.20678 0.0
H359 H 0.63209 0.56569 0.27721 0.0
H360 H 0.63092 0.56414 0.21316 0.0
C361 C 0.71441 0.62122 0.22487 0.0
C362 C 0.06931 0.6589 0.72291 0.0
C363 C 0.07903 0.68892 0.7043 0.0
H364 H 0.06206 0.63524 0.77318 0.0
C365 C 0.08681 0.71836 0.72325 0.0
H366 H 0.06296 0.63572 0.70913 0.0
C367 C 0.08629 0.71809 0.76011 0.0
C368 C 0.07798 0.68838 0.77871 0.0
H369 H 0.09427 0.74188 0.70968 0.0
H370 H 0.09338 0.74141 0.77399 0.0
C371 C 0.06878 0.65863 0.75969 0.0
C372 C 0.8977 0.62261 0.22421 0.0
C373 C 0.90679 0.60194 0.20529 0.0
H374 H 0.8898 0.63809 0.27492 0.0
C375 C 0.91732 0.58232 0.22397 0.0
H376 H 0.88957 0.63812 0.2106 0.0
C377 C 0.91743 0.58229 0.26075 0.0
C378 C 0.90704 0.6019 0.27972 0.0
H379 H 0.92465 0.56622 0.21022 0.0
H380 H 0.92486 0.56619 0.27428 0.0
C381 C 0.89783 0.6226 0.26108 0.0
C382 C 0.27174 0.91062 0.76399 0.0
C383 C 0.30168 0.92101 0.78309 0.0
H384 H 0.24837 0.90152 0.7132 0.0
C385 C 0.33222 0.93367 0.76454 0.0
H386 H 0.2478 0.90091 0.77744 0.0
C387 C 0.33254 0.93399 0.7277 0.0
C388 C 0.30233 0.92169 0.70857 0.0
H389 H 0.35578 0.94206 0.77841 0.0
H390 H 0.35634 0.94266 0.71427 0.0
C391 C 0.27207 0.91096 0.72711 0.0
C392 C 0.40707 0.33268 0.26113 0.0
C393 C 0.38676 0.30328 0.28065 0.0
H394 H 0.42306 0.35483 0.21017 0.0
C395 C 0.36467 0.2734 0.26259 0.0
H396 H 0.42423 0.35618 0.27421 0.0
C397 C 0.364 0.27262 0.22573 0.0
C398 C 0.38539 0.3017 0.20625 0.0
H399 H 0.3486 0.25034 0.27686 0.0
H400 H 0.34743 0.24898 0.21257 0.0
C401 C 0.40639 0.33191 0.22436 0.0
C402 C 0.08651 0.36862 0.72151 0.0
C403 C 0.07813 0.38989 0.70276 0.0
H404 H 0.09387 0.35255 0.77208 0.0
C405 C 0.06835 0.41006 0.72161 0.0
H406 H 0.09405 0.35269 0.70777 0.0
C407 C 0.06825 0.40998 0.7584 0.0
C408 C 0.07793 0.38973 0.7772 0.0
H409 H 0.06158 0.42663 0.708 0.0
H410 H 0.06141 0.42649 0.77206 0.0
C411 C 0.08641 0.36854 0.75838 0.0
C412 C 0.65471 0.06189 0.25753 0.0
C413 C 0.68527 0.07476 0.27611 0.0
H414 H 0.63057 0.0531 0.2073 0.0
C415 C 0.71538 0.08624 0.25705 0.0
H416 H 0.63102 0.05264 0.27137 0.0
C417 C 0.71512 0.0865 0.22018 0.0
C418 C 0.68474 0.07528 0.20166 0.0
H419 H 0.73933 0.09617 0.27057 0.0
H420 H 0.73888 0.09664 0.20628 0.0
C421 C 0.65445 0.06214 0.22073 0.0
C422 C 0.61831 0.71596 0.72666 0.0
C423 C 0.59741 0.68664 0.70717 0.0
H424 H 0.63378 0.73833 0.77782 0.0
C425 C 0.57747 0.65619 0.72525 0.0
H426 H 0.63407 0.73979 0.71353 0.0
C427 C 0.57732 0.65534 0.76201 0.0
C428 C 0.59709 0.68494 0.78157 0.0
H429 H 0.56122 0.63308 0.71104 0.0
H430 H 0.56094 0.63162 0.77507 0.0
C431 C 0.61814 0.71511 0.76352 0.0
C432 C 0.45476 0.20508 0.04921 0.0
C433 C 0.43118 0.17858 0.07042 0.0
H434 H 0.47451 0.25623 0.03241 0.0
C435 C 0.40773 0.18331 0.08984 0.0
H436 H 0.47312 0.20222 0.03386 0.0
C437 C 0.40847 0.21416 0.08894 0.0
C438 C 0.43275 0.24106 0.06867 0.0
H439 H 0.38911 0.16336 0.10631 0.0
H440 H 0.39044 0.21711 0.1048 0.0
C441 C 0.45557 0.23605 0.04839 0.0
C442 C 0.21183 0.46413 0.54427 0.0
C443 C 0.18369 0.43947 0.56281 0.0
H444 H 0.26377 0.4838 0.53086 0.0
C445 C 0.18626 0.4139 0.58055 0.0
H446 H 0.21064 0.48411 0.53024 0.0
C447 C 0.21665 0.41372 0.5809 0.0
C448 C 0.24518 0.43911 0.56353 0.0
H449 H 0.16502 0.39441 0.59495 0.0
H450 H 0.21794 0.39409 0.59557 0.0
C451 C 0.24229 0.46395 0.54463 0.0
C452 C 0.79567 0.21851 0.08179 0.0
C453 C 0.79838 0.24673 0.0641 0.0
H454 H 0.7639 0.16698 0.09651 0.0
C455 C 0.77029 0.2434 0.04554 0.0
H456 H 0.81686 0.22014 0.09623 0.0
C457 C 0.73979 0.21276 0.04569 0.0
C458 C 0.73681 0.18492 0.06444 0.0
H459 H 0.77159 0.26464 0.03156 0.0
H460 H 0.71836 0.21118 0.03182 0.0
C461 C 0.76525 0.18799 0.08198 0.0
C462 C 0.57265 0.77322 0.58899 0.0
C463 C 0.54657 0.74529 0.57139 0.0
H464 H 0.59316 0.82468 0.60472 0.0
C465 C 0.52147 0.74907 0.55418 0.0
H466 H 0.59247 0.77123 0.60244 0.0
C467 C 0.52186 0.77981 0.55552 0.0
C468 C 0.54737 0.80739 0.57408 0.0
H469 H 0.50107 0.72807 0.54033 0.0
H470 H 0.50177 0.78171 0.54261 0.0
C471 C 0.57305 0.8039 0.59032 0.0
C472 C 0.74173 0.5239 0.04774 0.0
C473 C 0.73824 0.54847 0.06652 0.0
H474 H 0.77426 0.50476 0.0334 0.0
C475 C 0.76654 0.57439 0.08378 0.0
H476 H 0.72043 0.50366 0.03407 0.0
C477 C 0.79732 0.57502 0.08339 0.0
C478 C 0.80052 0.54975 0.06574 0.0
H479 H 0.76478 0.59383 0.09834 0.0
H480 H 0.81838 0.59492 0.09768 0.0
C481 C 0.77259 0.52453 0.04735 0.0
C482 C 0.2477 0.7825 0.55165 0.0
C483 C 0.25018 0.80946 0.5718 0.0
H484 H 0.2165 0.73115 0.53524 0.0
C485 C 0.22154 0.80526 0.58986 0.0
H486 H 0.26929 0.78497 0.53735 0.0
C487 C 0.19134 0.77453 0.58857 0.0
C488 C 0.18907 0.74724 0.56926 0.0
H489 H 0.22252 0.82556 0.60548 0.0
H490 H 0.16996 0.77203 0.60333 0.0
C491 C 0.21744 0.75167 0.55043 0.0
C492 C 0.80044 0.57843 0.4037 0.0
C493 C 0.80322 0.55293 0.42133 0.0
H494 H 0.76865 0.59835 0.38948 0.0
C495 C 0.77542 0.52856 0.4405 0.0
H496 H 0.82142 0.59771 0.38882 0.0
C497 C 0.74506 0.52893 0.44089 0.0
C498 C 0.74192 0.55369 0.42211 0.0
H499 H 0.77678 0.50864 0.45447 0.0
H500 H 0.72382 0.50929 0.45514 0.0
C501 C 0.77014 0.57881 0.40408 0.0
C502 C 0.21144 0.74894 0.93835 0.0
C503 C 0.18393 0.74475 0.91801 0.0
H504 H 0.26265 0.78205 0.95387 0.0
C505 C 0.18696 0.77234 0.89871 0.0
H506 H 0.20987 0.72821 0.95359 0.0
C507 C 0.21716 0.8031 0.89881 0.0
C508 C 0.24501 0.80702 0.91828 0.0
H509 H 0.16623 0.77003 0.88285 0.0
H510 H 0.21881 0.82361 0.88307 0.0
C511 C 0.24168 0.77981 0.93852 0.0
C512 C 0.41574 0.1904 0.39824 0.0
C513 C 0.43981 0.18663 0.41762 0.0
H514 H 0.39736 0.22313 0.38272 0.0
C515 C 0.46367 0.21394 0.43784 0.0
H516 H 0.39688 0.16982 0.38251 0.0
C517 C 0.46397 0.24467 0.43792 0.0
C518 C 0.44036 0.24862 0.41787 0.0
H519 H 0.48251 0.21182 0.45311 0.0
H520 H 0.48306 0.26545 0.45324 0.0
C521 C 0.41597 0.221 0.39841 0.0
C522 C 0.2406 0.46125 0.93762 0.0
C523 C 0.24313 0.43598 0.91909 0.0
H524 H 0.20962 0.48244 0.95103 0.0
C525 C 0.21461 0.41095 0.9013 0.0
H526 H 0.26209 0.48084 0.95168 0.0
C527 C 0.18461 0.41187 0.90092 0.0
C528 C 0.18242 0.43784 0.91833 0.0
H529 H 0.21563 0.39103 0.88689 0.0
H530 H 0.16337 0.39262 0.88624 0.0
C531 C 0.21053 0.46217 0.93724 0.0
C532 C 0.76636 0.18623 0.39774 0.0
C533 C 0.73735 0.18291 0.41419 0.0
H534 H 0.81817 0.21888 0.38464 0.0
C535 C 0.73949 0.21078 0.43221 0.0
H536 H 0.76563 0.16523 0.38375 0.0
C537 C 0.76972 0.24165 0.43274 0.0
C538 C 0.79839 0.24525 0.41524 0.0
H539 H 0.71763 0.20902 0.44526 0.0
H540 H 0.77035 0.26287 0.44615 0.0
C541 C 0.79652 0.21704 0.39826 0.0
C542 C 0.56868 0.76544 0.90244 0.0
C543 C 0.54357 0.73719 0.92043 0.0
H544 H 0.58799 0.81696 0.88791 0.0
C545 C 0.51901 0.74037 0.93955 0.0
H546 H 0.58805 0.76392 0.88754 0.0
C547 C 0.51899 0.77093 0.93979 0.0
C548 C 0.5435 0.79885 0.92085 0.0
H549 H 0.49937 0.71908 0.95376 0.0
H550 H 0.49935 0.77243 0.95418 0.0
C551 C 0.56862 0.7959 0.90262 0.0
C552 C 0.3135 0.99368 0.97197 0.0
C553 C 0.32864 0.97417 0.96446 0.0
H554 H 0.31315 0.03147 0.00523 0.0
C555 C 0.3547 0.97713 0.98644 0.0
H556 H 0.2933 0.99189 0.95558 0.0
C557 C 0.36577 -0.0006 0.01489 0.0
C558 C 0.3513 0.01957 0.022 0.0
H559 H 0.36677 0.96231 0.98162 0.0
H560 H 0.38621 0.00122 0.03091 0.0
C561 C 0.32485 0.01631 0.0004 0.0
C562 C 0.35314 0.35735 0.45589 0.0
C563 C 0.37085 0.34281 0.47118 0.0
H564 H 0.32578 0.38333 0.46442 0.0
C565 C 0.37191 0.34101 0.50809 0.0
H566 H 0.35166 0.35895 0.42752 0.0
C567 C 0.35704 0.35498 0.52926 0.0
C568 C 0.34082 0.37106 0.51395 0.0
H569 H 0.38516 0.32979 0.5207 0.0
H570 H 0.35925 0.35414 0.55762 0.0
C571 C 0.33829 0.37134 0.47705 0.0
C572 C 0.98722 0.35551 0.95288 0.0
C573 C 0.01959 0.37108 0.96801 0.0
H574 H 0.93399 0.33043 0.96177 0.0
C575 C 0.02262 0.3706 0.00483 0.0
H576 H 0.984 0.35526 0.92458 0.0
C577 C -0.00607 0.35632 0.02617 0.0
C578 C 0.96161 0.34226 0.01111 0.0
H579 H 0.04719 0.38219 0.01731 0.0
H580 H -0.00283 0.35732 0.05451 0.0
C581 C 0.95852 0.34126 0.97422 0.0
C582 C 0.64834 0.02806 0.50799 0.0
C583 C 0.64503 0.02271 0.47137 0.0
H584 H 0.63652 0.00575 0.55931 0.0
C585 C 0.62891 0.98944 0.45847 0.0
H586 H 0.66079 0.05337 0.5188 0.0
C587 C 0.61496 0.96212 0.48171 0.0
C588 C 0.61687 0.96748 0.51833 0.0
H589 H 0.62609 0.98444 0.4304 0.0
H590 H 0.6018 0.93682 0.47089 0.0
C591 C 0.63442 0.00074 0.53123 0.0
C592 C 0.62643 0.63166 0.03107 0.0
C593 C 0.64252 0.61529 0.01613 0.0
H594 H 0.59872 0.65718 0.0219 0.0
C595 C 0.64528 0.6148 0.97927 0.0
H596 H 0.62405 0.63268 0.05939 0.0
C597 C 0.63076 0.62888 0.95777 0.0
C598 C 0.61317 0.64372 0.97269 0.0
H599 H 0.65771 0.60259 0.96693 0.0
H600 H 0.63241 0.62712 0.92944 0.0
C601 C 0.61189 0.64572 0.00957 0.0
C602 C 0.02812 0.64939 0.47545 0.0
C603 C 0.02541 0.64973 0.51231 0.0
H604 H 0.00215 0.63443 0.42607 0.0
C605 C -0.00668 0.63713 0.52751 0.0
H606 H 0.05248 0.65908 0.46289 0.0
C607 C 0.96444 0.62295 0.50639 0.0
C608 C 0.96705 0.62111 0.46965 0.0
H609 H 0.99036 0.63719 0.55583 0.0
H610 H 0.94003 0.6125 0.51901 0.0
C611 C -0.00076 0.63524 0.45433 0.0
C612 C 0.66573 0.00277 0.95796 0.0
C613 C 0.63217 0.97608 0.95862 0.0
H614 H 0.7037 0.04781 0.98317 0.0
C615 C 0.61156 0.97354 0.98725 0.0
H616 H 0.68229 0.00534 0.93633 0.0
C617 C 0.62379 -0.00232 0.01401 0.0
C618 C 0.65693 0.02506 0.0128 0.0
H619 H 0.58565 0.95317 0.98878 0.0
H620 H 0.6069 -0.00478 0.03525 0.0
C621 C 0.67799 0.02708 0.9848 0.0
C622 C 0.64776 0.62113 0.50968 0.0
C623 C 0.64526 0.62132 0.47278 0.0
H624 H 0.63436 0.63363 0.55914 0.0
C625 C 0.62899 0.63731 0.45737 0.0
H626 H 0.6603 0.60922 0.52239 0.0
C627 C 0.61406 0.65129 0.47845 0.0
C628 C 0.61513 0.64962 0.51537 0.0
H629 H 0.62678 0.63807 0.429 0.0
H630 H 0.60078 0.66245 0.46576 0.0
C631 C 0.63288 0.63515 0.53076 0.0
C632 C 0.96036 0.61861 0.97665 0.0
C633 C 0.96364 0.61957 0.01352 0.0
H634 H 0.98556 0.63094 0.92683 0.0
C635 C -0.00393 0.6368 0.02847 0.0
H636 H 0.93573 0.60573 0.9643 0.0
C637 C 0.02466 0.65126 0.00698 0.0
C638 C 0.0214 0.64879 0.97011 0.0
H639 H -0.00053 0.6382 0.0568 0.0
H640 H 0.0493 0.66339 0.01933 0.0
C641 C 0.98895 0.63308 0.95516 0.0
C642 C 0.35646 0.99391 0.51643 0.0
C643 C 0.32622 0.96297 0.51354 0.0
H644 H 0.39208 0.03969 0.49111 0.0
C645 C 0.30724 0.95574 0.48231 0.0
H646 H 0.37163 0.00039 0.54015 0.0
C647 C 0.31902 0.97839 0.45403 0.0
C648 C 0.35002 0.00864 0.45643 0.0
H649 H 0.28376 0.93216 0.47929 0.0
H650 H 0.30431 0.97171 0.42998 0.0
C651 C 0.36824 0.01645 0.48821 0.0
C652 C 0.36687 0.33484 0.97735 0.0
C653 C 0.36662 0.33771 0.01421 0.0
H654 H 0.35399 0.34735 0.92761 0.0
C655 C 0.35011 0.35361 0.02928 0.0
H656 H 0.3792 0.32256 0.96491 0.0
C657 C 0.33567 0.36785 0.00789 0.0
C658 C 0.33741 0.36646 0.971 0.0
H659 H 0.34926 0.35607 0.05761 0.0
H660 H 0.3241 0.38087 0.02033 0.0
C661 C 0.3524 0.34905 0.95596 0.0
C662 C 0.98782 0.35625 0.52724 0.0
C663 C 0.02012 0.37154 0.51202 0.0
H664 H 0.93456 0.33131 0.51852 0.0
C665 C 0.02297 0.37069 0.4752 0.0
H666 H 0.98473 0.35628 0.55554 0.0
C667 C -0.00584 0.35633 0.45396 0.0
C668 C 0.96192 0.34255 0.4691 0.0
H669 H 0.04747 0.38206 0.46265 0.0
H670 H -0.00273 0.35704 0.42561 0.0
C671 C 0.95902 0.34192 0.506 0.0
C672 C 0.52811 0.10015 0.09104 0.0
C673 C 0.52045 0.11498 0.11938 0.0
H674 H 0.56368 0.08852 0.06795 0.0
C675 C 0.54484 0.13168 0.14574 0.0
H676 H 0.50998 0.08726 0.07016 0.0
C677 C 0.57573 0.13241 0.14447 0.0
C678 C 0.58284 0.11645 0.1168 0.0
H679 H 0.53978 0.14347 0.16787 0.0
H680 H 0.59364 0.14472 0.16566 0.0
C681 C 0.55895 0.10089 0.08975 0.0
C682 C 0.4328 0.58383 0.63379 0.0
C683 C 0.45856 0.58984 0.60974 0.0
H684 H 0.38351 0.54889 0.65308 0.0
C685 C 0.45284 0.56494 0.58459 0.0
H686 H 0.43633 0.60253 0.65341 0.0
C687 C 0.42257 0.53417 0.58443 0.0
C688 C 0.39733 0.52763 0.60938 0.0
H689 H 0.47209 0.56882 0.56557 0.0
H690 H 0.41932 0.5152 0.56526 0.0
C691 C 0.4025 0.55305 0.6336 0.0
C692 C 0.84523 0.40631 0.13166 0.0
C693 C 0.86512 0.40065 0.10747 0.0
H694 H 0.83065 0.44094 0.15155 0.0
C695 C 0.88436 0.42585 0.0827 0.0
H696 H 0.83 0.38736 0.151 0.0
C697 C 0.88475 0.45657 0.08303 0.0
C698 C 0.86589 0.46275 0.10812 0.0
H699 H 0.89984 0.42223 0.06358 0.0
H700 H 0.9005 0.47576 0.06413 0.0
C701 C 0.8456 0.43705 0.13198 0.0
C702 C 0.42734 0.8958 0.5938 0.0
C703 C 0.40263 0.87827 0.6196 0.0
H704 H 0.47646 0.90986 0.57432 0.0
C705 C 0.40852 0.85953 0.6451 0.0
H706 H 0.42355 0.91035 0.57366 0.0
C707 C 0.43892 0.85925 0.64548 0.0
C708 C 0.46406 0.87769 0.62036 0.0
H709 H 0.38996 0.84565 0.66529 0.0
H710 H 0.44296 0.84516 0.66594 0.0
C711 C 0.4577 0.89551 0.59416 0.0
C712 C 0.57961 0.43265 0.1336 0.0
C713 C 0.58509 0.45847 0.10987 0.0
H714 H 0.54542 0.38293 0.15245 0.0
C715 C 0.56013 0.45239 0.0847 0.0
H716 H 0.59839 0.43644 0.15322 0.0
C717 C 0.52978 0.4217 0.08423 0.0
C718 C 0.52371 0.39641 0.10895 0.0
H719 H 0.56363 0.47167 0.06589 0.0
H720 H 0.51073 0.4182 0.06511 0.0
C721 C 0.54923 0.40194 0.13316 0.0
C722 C 0.14151 0.55498 0.63042 0.0
C723 C 0.1211 0.52957 0.60627 0.0
H724 H 0.15732 0.60449 0.65029 0.0
C725 C 0.10234 0.53616 0.58143 0.0
H726 H 0.1564 0.55078 0.6498 0.0
C727 C 0.10289 0.56696 0.5817 0.0
C728 C 0.12218 0.59184 0.60683 0.0
H729 H 0.0865 0.5172 0.56232 0.0
H730 H 0.08744 0.57087 0.5628 0.0
C731 C 0.14205 0.58579 0.6307 0.0
C732 C 0.84519 0.43706 0.35136 0.0
C733 C 0.8655 0.46242 0.37562 0.0
H734 H 0.82956 0.38765 0.3313 0.0
C735 C 0.88428 0.45581 0.40041 0.0
H736 H 0.83029 0.44127 0.332 0.0
C737 C 0.88385 0.42506 0.40002 0.0
C738 C 0.86464 0.40024 0.37481 0.0
H739 H 0.90005 0.47473 0.41959 0.0
H740 H 0.89931 0.42115 0.41891 0.0
C741 C 0.84477 0.4063 0.35095 0.0
C742 C 0.44937 0.88241 0.89785 0.0
C743 C 0.45888 0.86995 0.8688 0.0
H744 H 0.41329 0.89393 0.91971 0.0
C745 C 0.43708 0.85728 0.83963 0.0
H746 H 0.46547 0.89218 0.92084 0.0
C747 C 0.40704 0.85829 0.83897 0.0
C748 C 0.39824 0.872 0.86747 0.0
H749 H 0.44361 0.84741 0.81687 0.0
H750 H 0.39121 0.84915 0.81574 0.0
C751 C 0.41942 0.88343 0.89719 0.0
C752 C 0.53351 0.42775 0.40268 0.0
C753 C 0.52799 0.40274 0.37776 0.0
H754 H 0.56698 0.47748 0.42205 0.0
C755 C 0.55403 0.4085 0.35422 0.0
H756 H 0.51405 0.42405 0.42133 0.0
C757 C 0.58443 0.43918 0.35463 0.0
C758 C 0.58941 0.46472 0.3786 0.0
H759 H 0.55065 0.38968 0.3348 0.0
H760 H 0.60364 0.44317 0.33551 0.0
C761 C 0.56389 0.45841 0.4031 0.0
C762 C 0.13996 0.55463 0.85137 0.0
C763 C 0.11965 0.52887 0.87517 0.0
H764 H 0.15527 0.60421 0.83221 0.0
C765 C 0.10057 0.53491 0.90011 0.0
H766 H 0.15508 0.55086 0.83193 0.0
C767 C 0.10068 0.56549 0.90028 0.0
C768 C 0.11987 0.59071 0.8755 0.0
H769 H 0.0848 0.51567 0.91896 0.0
H770 H 0.08498 0.56897 0.91924 0.0
C771 C 0.14007 0.58524 0.85154 0.0
C772 C 0.57741 0.13119 0.34159 0.0
C773 C 0.58464 0.11415 0.36795 0.0
H774 H 0.54198 0.14441 0.3211 0.0
C775 C 0.56149 0.09866 0.39557 0.0
H776 H 0.59476 0.14347 0.31999 0.0
C777 C 0.53129 0.09923 0.39623 0.0
C778 C 0.52352 0.11528 0.36924 0.0
H779 H 0.56636 0.08546 0.4164 0.0
H780 H 0.51372 0.08644 0.41753 0.0
C781 C 0.54715 0.13173 0.34223 0.0
C782 C 0.43139 0.57862 0.85268 0.0
C783 C 0.45706 0.58408 0.87665 0.0
H784 H 0.38198 0.54429 0.83313 0.0
C785 C 0.45109 0.55882 0.90135 0.0
H786 H 0.43512 0.59763 0.8334 0.0
C787 C 0.42063 0.52825 0.90119 0.0
C788 C 0.39547 0.52227 0.87633 0.0
H789 H 0.47026 0.56229 0.92031 0.0
H790 H 0.41718 0.509 0.92003 0.0
C791 C 0.40091 0.54803 0.85252 0.0
loop_
_geom_bond_atom_site_label_1
_geom_bond_atom_site_label_2
_geom_bond_distance
_geom_bond_site_symmetry_2
_ccdc_geom_bond_type
C0 O1 1.160 . S
C0 O7 1.185 . S
O1 C0 1.160 . S
O2 Zn3 1.899 . S
O2 C10 1.284 . S
Zn3 O2 1.899 . S
Zn3 O4 2.032 . S
Zn3 O7 2.086 . S
Zn3 O12 1.977 . S
O4 Zn3 2.032 . S
O4 C8 1.278 . S
C5 O6 1.203 . S
C5 O12 1.267 . S
O6 C5 1.203 . S
O7 C0 1.185 . S
O7 Zn3 2.086 . S
C8 O4 1.278 . S
C8 O9 1.211 . S
O9 C8 1.211 . S
C10 O2 1.284 . S
C10 O11 1.273 . S
O11 C10 1.273 . S
O12 Zn3 1.977 . S
O12 C5 1.267 . S
C13 O14 1.160 . S
C13 O20 1.185 . S
O14 C13 1.160 . S
O15 Zn16 1.899 . S
O15 C23 1.284 . S
Zn16 O15 1.899 . S
Zn16 O17 2.032 . S
Zn16 O20 2.086 . S
Zn16 O25 1.977 . S
O17 Zn16 2.032 . S
O17 C21 1.278 . S
C18 O19 1.203 . S
C18 O25 1.267 . S
O19 C18 1.203 . S
O20 C13 1.185 . S
O20 Zn16 2.086 . S
C21 O17 1.278 . S
C21 O22 1.211 . S
O22 C21 1.211 . S
C23 O15 1.284 . S
C23 O24 1.273 . S
O24 C23 1.273 . S
O25 Zn16 1.977 . S
O25 C18 1.267 . S
C26 O27 1.160 . S
C26 O33 1.185 . S
O27 C26 1.160 . S
O28 Zn29 1.899 . S
O28 C36 1.284 . S
Zn29 O28 1.899 . S
Zn29 O30 2.032 . S
Zn29 O33 2.086 . S
Zn29 O38 1.977 . S
O30 Zn29 2.032 . S
O30 C34 1.278 . S
C31 O32 1.203 . S
C31 O38 1.267 . S
O32 C31 1.203 . S
O33 C26 1.185 . S
O33 Zn29 2.086 . S
C34 O30 1.278 . S
C34 O35 1.211 . S
O35 C34 1.211 . S
C36 O28 1.284 . S
C36 O37 1.273 . S
O37 C36 1.273 . S
O38 Zn29 1.977 . S
O38 C31 1.267 . S
C39 O40 1.160 . S
C39 O46 1.185 . S
O40 C39 1.160 . S
O41 Zn42 1.899 . S
O41 C49 1.284 . S
Zn42 O41 1.899 . S
Zn42 O43 2.032 . S
Zn42 O46 2.086 . S
Zn42 O51 1.977 . S
O43 Zn42 2.032 . S
O43 C47 1.278 . S
C44 O45 1.203 . S
C44 O51 1.267 . S
O45 C44 1.203 . S
O46 C39 1.185 . S
O46 Zn42 2.086 . S
C47 O43 1.278 . S
C47 O48 1.211 . S
O48 C47 1.211 . S
C49 O41 1.284 . S
C49 O50 1.273 . S
O50 C49 1.273 . S
O51 Zn42 1.977 . S
O51 C44 1.267 . S
C52 O53 1.160 . S
C52 O59 1.185 . S
O53 C52 1.160 . S
O54 Zn55 1.899 . S
O54 C62 1.284 . S
Zn55 O54 1.899 . S
Zn55 O56 2.032 . S
Zn55 O59 2.086 . S
Zn55 O64 1.977 . S
O56 Zn55 2.032 . S
O56 C60 1.278 . S
C57 O58 1.203 . S
C57 O64 1.267 . S
O58 C57 1.203 . S
O59 C52 1.185 . S
O59 Zn55 2.086 . S
C60 O56 1.278 . S
C60 O61 1.211 . S
O61 C60 1.211 . S
C62 O54 1.284 . S
C62 O63 1.273 . S
O63 C62 1.273 . S
O64 Zn55 1.977 . S
O64 C57 1.267 . S
C65 O66 1.160 . S
C65 O72 1.185 . S
O66 C65 1.160 . S
O67 Zn68 1.899 . S
O67 C75 1.284 . S
Zn68 O67 1.899 . S
Zn68 O69 2.032 . S
Zn68 O72 2.086 . S
Zn68 O77 1.977 . S
O69 Zn68 2.032 . S
O69 C73 1.278 . S
C70 O71 1.203 . S
C70 O77 1.267 . S
O71 C70 1.203 . S
O72 C65 1.185 . S
O72 Zn68 2.086 . S
C73 O69 1.278 . S
C73 O74 1.211 . S
O74 C73 1.211 . S
C75 O67 1.284 . S
C75 O76 1.273 . S
O76 C75 1.273 . S
O77 Zn68 1.977 . S
O77 C70 1.267 . S
C78 O79 1.160 . S
C78 O85 1.185 . S
O79 C78 1.160 . S
O80 Zn81 1.899 . S
O80 C88 1.284 . S
Zn81 O80 1.899 . S
Zn81 O82 2.032 . S
Zn81 O85 2.086 . S
Zn81 O90 1.977 . S
O82 Zn81 2.032 . S
O82 C86 1.278 . S
C83 O84 1.203 . S
C83 O90 1.267 . S
O84 C83 1.203 . S
O85 C78 1.185 . S
O85 Zn81 2.086 . S
C86 O82 1.278 . S
C86 O87 1.211 . S
O87 C86 1.211 . S
C88 O80 1.284 . S
C88 O89 1.273 . S
O89 C88 1.273 . S
O90 Zn81 1.977 . S
O90 C83 1.267 . S
C91 O92 1.160 . S
C91 O98 1.185 . S
O92 C91 1.160 . S
O93 Zn94 1.899 . S
O93 C101 1.284 . S
Zn94 O93 1.899 . S
Zn94 O95 2.032 . S
Zn94 O98 2.086 . S
Zn94 O103 1.977 . S
O95 Zn94 2.032 . S
O95 C99 1.278 . S
C96 O97 1.203 . S
C96 O103 1.267 . S
O97 C96 1.203 . S
O98 C91 1.185 . S
O98 Zn94 2.086 . S
C99 O95 1.278 . S
C99 O100 1.211 . S
O100 C99 1.211 . S
C101 O93 1.284 . S
C101 O102 1.273 . S
O102 C101 1.273 . S
O103 Zn94 1.977 . S
O103 C96 1.267 . S
C104 O105 1.160 . S
C104 O111 1.185 . S
O105 C104 1.160 . S
O106 Zn107 1.899 . S
O106 C114 1.284 . S
Zn107 O106 1.899 . S
Zn107 O108 2.032 . S
Zn107 O111 2.086 . S
Zn107 O116 1.977 . S
O108 Zn107 2.032 . S
O108 C112 1.278 . S
C109 O110 1.203 . S
C109 O116 1.267 . S
O110 C109 1.203 . S
O111 C104 1.185 . S
O111 Zn107 2.086 . S
C112 O108 1.278 . S
C112 O113 1.211 . S
O113 C112 1.211 . S
C114 O106 1.284 . S
C114 O115 1.273 . S
O115 C114 1.273 . S
O116 Zn107 1.977 . S
O116 C109 1.267 . S
C117 O118 1.160 . S
C117 O124 1.185 . S
O118 C117 1.160 . S
O119 Zn120 1.899 . S
O119 C127 1.284 . S
Zn120 O119 1.899 . S
Zn120 O121 2.032 . S
Zn120 O124 2.086 . S
Zn120 O129 1.977 . S
O121 Zn120 2.032 . S
O121 C125 1.278 . S
C122 O123 1.203 . S
C122 O129 1.267 . S
O123 C122 1.203 . S
O124 C117 1.185 . S
O124 Zn120 2.086 . S
C125 O121 1.278 . S
C125 O126 1.211 . S
O126 C125 1.211 . S
C127 O119 1.284 . S
C127 O128 1.273 . S
O128 C127 1.273 . S
O129 Zn120 1.977 . S
O129 C122 1.267 . S
C130 O131 1.160 . S
C130 O137 1.185 . S
O131 C130 1.160 . S
O132 Zn133 1.899 . S
O132 C140 1.284 . S
Zn133 O132 1.899 . S
Zn133 O134 2.032 . S
Zn133 O137 2.086 . S
Zn133 O142 1.977 . S
O134 Zn133 2.032 . S
O134 C138 1.278 . S
C135 O136 1.203 . S
C135 O142 1.267 . S
O136 C135 1.203 . S
O137 C130 1.185 . S
O137 Zn133 2.086 . S
C138 O134 1.278 . S
C138 O139 1.211 . S
O139 C138 1.211 . S
C140 O132 1.284 . S
C140 O141 1.273 . S
O141 C140 1.273 . S
O142 Zn133 1.977 . S
O142 C135 1.267 . S
C143 O144 1.160 . S
C143 O150 1.185 . S
O144 C143 1.160 . S
O145 Zn146 1.899 . S
O145 C153 1.284 . S
Zn146 O145 1.899 . S
Zn146 O147 2.032 . S
Zn146 O150 2.086 . S
Zn146 O155 1.977 . S
O147 Zn146 2.032 . S
O147 C151 1.278 . S
C148 O149 1.203 . S
C148 O155 1.267 . S
O149 C148 1.203 . S
O150 C143 1.185 . S
O150 Zn146 2.086 . S
C151 O147 1.278 . S
C151 O152 1.211 . S
O152 C151 1.211 . S
C153 O145 1.284 . S
C153 O154 1.273 . S
O154 C153 1.273 . S
O155 Zn146 1.977 . S
O155 C148 1.267 . S
C156 O157 1.160 . S
C156 O163 1.185 . S
O157 C156 1.160 . S
O158 Zn159 1.899 . S
O158 C166 1.284 . S
Zn159 O158 1.899 . S
Zn159 O160 2.032 . S
Zn159 O163 2.086 . S
Zn159 O168 1.977 . S
O160 Zn159 2.032 . S
O160 C164 1.278 . S
C161 O162 1.203 . S
C161 O168 1.267 . S
O162 C161 1.203 . S
O163 C156 1.185 . S
O163 Zn159 2.086 . S
C164 O160 1.278 . S
C164 O165 1.211 . S
O165 C164 1.211 . S
C166 O158 1.284 . S
C166 O167 1.273 . S
O167 C166 1.273 . S
O168 Zn159 1.977 . S
O168 C161 1.267 . S
C169 O170 1.160 . S
C169 O176 1.185 . S
O170 C169 1.160 . S
O171 Zn172 1.899 . S
O171 C179 1.284 . S
Zn172 O171 1.899 . S
Zn172 O173 2.032 . S
Zn172 O176 2.086 . S
Zn172 O181 1.977 . S
O173 Zn172 2.032 . S
O173 C177 1.278 . S
C174 O175 1.203 . S
C174 O181 1.267 . S
O175 C174 1.203 . S
O176 C169 1.185 . S
O176 Zn172 2.086 . S
C177 O173 1.278 . S
C177 O178 1.211 . S
O178 C177 1.211 . S
C179 O171 1.284 . S
C179 O180 1.273 . S
O180 C179 1.273 . S
O181 Zn172 1.977 . S
O181 C174 1.267 . S
C182 O183 1.160 . S
C182 O189 1.185 . S
O183 C182 1.160 . S
O184 Zn185 1.899 . S
O184 C192 1.284 . S
Zn185 O184 1.899 . S
Zn185 O186 2.032 . S
Zn185 O189 2.086 . S
Zn185 O194 1.977 . S
O186 Zn185 2.032 . S
O186 C190 1.278 . S
C187 O188 1.203 . S
C187 O194 1.267 . S
O188 C187 1.203 . S
O189 C182 1.185 . S
O189 Zn185 2.086 . S
C190 O186 1.278 . S
C190 O191 1.211 . S
O191 C190 1.211 . S
C192 O184 1.284 . S
C192 O193 1.273 . S
O193 C192 1.273 . S
O194 Zn185 1.977 . S
O194 C187 1.267 . S
C195 O196 1.160 . S
C195 O202 1.185 . S
O196 C195 1.160 . S
O197 Zn198 1.899 . S
O197 C205 1.284 . S
Zn198 O197 1.899 . S
Zn198 O199 2.032 . S
Zn198 O202 2.086 . S
Zn198 O207 1.977 . S
O199 Zn198 2.032 . S
O199 C203 1.278 . S
C200 O201 1.203 . S
C200 O207 1.267 . S
O201 C200 1.203 . S
O202 C195 1.185 . S
O202 Zn198 2.086 . S
C203 O199 1.278 . S
C203 O204 1.211 . S
O204 C203 1.211 . S
C205 O197 1.284 . S
C205 O206 1.273 . S
O206 C205 1.273 . S
O207 Zn198 1.977 . S
O207 C200 1.267 . S
C208 O209 1.160 . S
C208 O215 1.185 . S
O209 C208 1.160 . S
O210 Zn211 1.899 . S
O210 C218 1.284 . S
Zn211 O210 1.899 . S
Zn211 O212 2.032 . S
Zn211 O215 2.086 . S
Zn211 O220 1.977 . S
O212 Zn211 2.032 . S
O212 C216 1.278 . S
C213 O214 1.203 . S
C213 O220 1.267 . S
O214 C213 1.203 . S
O215 C208 1.185 . S
O215 Zn211 2.086 . S
C216 O212 1.278 . S
C216 O217 1.211 . S
O217 C216 1.211 . S
C218 O210 1.284 . S
C218 O219 1.273 . S
O219 C218 1.273 . S
O220 Zn211 1.977 . S
O220 C213 1.267 . S
C221 O222 1.160 . S
C221 O228 1.185 . S
O222 C221 1.160 . S
O223 Zn224 1.899 . S
O223 C231 1.284 . S
Zn224 O223 1.899 . S
Zn224 O225 2.032 . S
Zn224 O228 2.086 . S
Zn224 O233 1.977 . S
O225 Zn224 2.032 . S
O225 C229 1.278 . S
C226 O227 1.203 . S
C226 O233 1.267 . S
O227 C226 1.203 . S
O228 C221 1.185 . S
O228 Zn224 2.086 . S
C229 O225 1.278 . S
C229 O230 1.211 . S
O230 C229 1.211 . S
C231 O223 1.284 . S
C231 O232 1.273 . S
O232 C231 1.273 . S
O233 Zn224 1.977 . S
O233 C226 1.267 . S
C234 O235 1.160 . S
C234 O241 1.185 . S
O235 C234 1.160 . S
O236 Zn237 1.899 . S
O236 C244 1.284 . S
Zn237 O236 1.899 . S
Zn237 O238 2.032 . S
Zn237 O241 2.086 . S
Zn237 O246 1.977 . S
O238 Zn237 2.032 . S
O238 C242 1.278 . S
C239 O240 1.203 . S
C239 O246 1.267 . S
O240 C239 1.203 . S
O241 C234 1.185 . S
O241 Zn237 2.086 . S
C242 O238 1.278 . S
C242 O243 1.211 . S
O243 C242 1.211 . S
C244 O236 1.284 . S
C244 O245 1.273 . S
O245 C244 1.273 . S
O246 Zn237 1.977 . S
O246 C239 1.267 . S
C247 O248 1.160 . S
C247 O254 1.185 . S
O248 C247 1.160 . S
O249 Zn250 1.899 . S
O249 C257 1.284 . S
Zn250 O249 1.899 . S
Zn250 O251 2.032 . S
Zn250 O254 2.086 . S
Zn250 O259 1.977 . S
O251 Zn250 2.032 . S
O251 C255 1.278 . S
C252 O253 1.203 . S
C252 O259 1.267 . S
O253 C252 1.203 . S
O254 C247 1.185 . S
O254 Zn250 2.086 . S
C255 O251 1.278 . S
C255 O256 1.211 . S
O256 C255 1.211 . S
C257 O249 1.284 . S
C257 O258 1.273 . S
O258 C257 1.273 . S
O259 Zn250 1.977 . S
O259 C252 1.267 . S
C260 O261 1.160 . S
C260 O267 1.185 . S
O261 C260 1.160 . S
O262 Zn263 1.899 . S
O262 C270 1.284 . S
Zn263 O262 1.899 . S
Zn263 O264 2.032 . S
Zn263 O267 2.086 . S
Zn263 O272 1.977 . S
O264 Zn263 2.032 . S
O264 C268 1.278 . S
C265 O266 1.203 . S
C265 O272 1.267 . S
O266 C265 1.203 . S
O267 C260 1.185 . S
O267 Zn263 2.086 . S
C268 O264 1.278 . S
C268 O269 1.211 . S
O269 C268 1.211 . S
C270 O262 1.284 . S
C270 O271 1.273 . S
O271 C270 1.273 . S
O272 Zn263 1.977 . S
O272 C265 1.267 . S
C273 O274 1.160 . S
C273 O280 1.185 . S
O274 C273 1.160 . S
O275 Zn276 1.899 . S
O275 C283 1.284 . S
Zn276 O275 1.899 . S
Zn276 O277 2.032 . S
Zn276 O280 2.086 . S
Zn276 O285 1.977 . S
O277 Zn276 2.032 . S
O277 C281 1.278 . S
C278 O279 1.203 . S
C278 O285 1.267 . S
O279 C278 1.203 . S
O280 C273 1.185 . S
O280 Zn276 2.086 . S
C281 O277 1.278 . S
C281 O282 1.211 . S
O282 C281 1.211 . S
C283 O275 1.284 . S
C283 O284 1.273 . S
O284 C283 1.273 . S
O285 Zn276 1.977 . S
O285 C278 1.267 . S
C286 O287 1.160 . S
C286 O293 1.185 . S
O287 C286 1.160 . S
O288 Zn289 1.899 . S
O288 C296 1.284 . S
Zn289 O288 1.899 . S
Zn289 O290 2.032 . S
Zn289 O293 2.086 . S
Zn289 O298 1.977 . S
O290 Zn289 2.032 . S
O290 C294 1.278 . S
C291 O292 1.203 . S
C291 O298 1.267 . S
O292 C291 1.203 . S
O293 C286 1.185 . S
O293 Zn289 2.086 . S
C294 O290 1.278 . S
C294 O295 1.211 . S
O295 C294 1.211 . S
C296 O288 1.284 . S
C296 O297 1.273 . S
O297 C296 1.273 . S
O298 Zn289 1.977 . S
O298 C291 1.267 . S
C299 O300 1.160 . S
C299 O306 1.185 . S
O300 C299 1.160 . S
O301 Zn302 1.899 . S
O301 C309 1.284 . S
Zn302 O301 1.899 . S
Zn302 O303 2.032 . S
Zn302 O306 2.086 . S
Zn302 O311 1.977 . S
O303 Zn302 2.032 . S
O303 C307 1.278 . S
C304 O305 1.203 . S
C304 O311 1.267 . S
O305 C304 1.203 . S
O306 C299 1.185 . S
O306 Zn302 2.086 . S
C307 O303 1.278 . S
C307 O308 1.211 . S
O308 C307 1.211 . S
C309 O301 1.284 . S
C309 O310 1.273 . S
O310 C309 1.273 . S
O311 Zn302 1.977 . S
O311 C304 1.267 . S
C312 C313 1.387 . S
C312 H316 0.950 . S
C312 C321 1.390 . S
C313 C312 1.387 . S
C313 C315 1.387 . S
H314 C321 0.950 . S
C315 C313 1.387 . S
C315 C317 1.390 . S
C315 H319 0.950 . S
H316 C312 0.950 . S
C317 C315 1.390 . S
C317 C318 1.387 . S
C317 H320 0.950 . S
C318 C317 1.387 . S
C318 C321 1.387 . S
H319 C315 0.950 . S
H320 C317 0.950 . S
C321 C312 1.390 . S
C321 H314 0.950 . S
C321 C318 1.387 . S
C322 C323 1.387 . S
C322 H326 0.950 . S
C322 C331 1.390 . S
C323 C322 1.387 . S
C323 C325 1.387 . S
H324 C331 0.950 . S
C325 C323 1.387 . S
C325 C327 1.390 . S
C325 H329 0.950 . S
H326 C322 0.950 . S
C327 C325 1.390 . S
C327 C328 1.387 . S
C327 H330 0.950 . S
C328 C327 1.387 . S
C328 C331 1.387 . S
H329 C325 0.950 . S
H330 C327 0.950 . S
C331 C322 1.390 . S
C331 H324 0.950 . S
C331 C328 1.387 . S
C332 C333 1.387 . S
C332 H336 0.950 . S
C332 C341 1.390 . S
C333 C332 1.387 . S
C333 C335 1.387 . S
H334 C341 0.950 . S
C335 C333 1.387 . S
C335 C337 1.390 . S
C335 H339 0.950 . S
H336 C332 0.950 . S
C337 C335 1.390 . S
C337 C338 1.387 . S
C337 H340 0.950 . S
C338 C337 1.387 . S
C338 C341 1.387 . S
H339 C335 0.950 . S
H340 C337 0.950 . S
C341 C332 1.390 . S
C341 H334 0.950 . S
C341 C338 1.387 . S
C342 C343 1.387 . S
C342 H346 0.950 . S
C342 C351 1.390 . S
C343 C342 1.387 . S
C343 C345 1.387 . S
H344 C351 0.950 . S
C345 C343 1.387 . S
C345 C347 1.390 . S
C345 H349 0.950 . S
H346 C342 0.950 . S
C347 C345 1.390 . S
C347 C348 1.387 . S
C347 H350 0.950 . S
C348 C347 1.387 . S
C348 C351 1.387 . S
H349 C345 0.950 . S
H350 C347 0.950 . S
C351 C342 1.390 . S
C351 H344 0.950 . S
C351 C348 1.387 . S
C352 C353 1.387 . S
C352 H356 0.950 . S
C352 C361 1.390 . S
C353 C352 1.387 . S
C353 C355 1.387 . S
H354 C361 0.950 . S
C355 C353 1.387 . S
C355 C357 1.390 . S
C355 H359 0.950 . S
H356 C352 0.950 . S
C357 C355 1.390 . S
C357 C358 1.387 . S
C357 H360 0.950 . S
C358 C357 1.387 . S
C358 C361 1.387 . S
H359 C355 0.950 . S
H360 C357 0.950 . S
C361 C352 1.390 . S
C361 H354 0.950 . S
C361 C358 1.387 . S
C362 C363 1.387 . S
C362 H366 0.950 . S
C362 C371 1.390 . S
C363 C362 1.387 . S
C363 C365 1.387 . S
H364 C371 0.950 . S
C365 C363 1.387 . S
C365 C367 1.390 . S
C365 H369 0.950 . S
H366 C362 0.950 . S
C367 C365 1.390 . S
C367 C368 1.387 . S
C367 H370 0.950 . S
C368 C367 1.387 . S
C368 C371 1.387 . S
H369 C365 0.950 . S
H370 C367 0.950 . S
C371 C362 1.390 . S
C371 H364 0.950 . S
C371 C368 1.387 . S
C372 C373 1.387 . S
C372 H376 0.950 . S
C372 C381 1.390 . S
C373 C372 1.387 . S
C373 C375 1.387 . S
H374 C381 0.950 . S
C375 C373 1.387 . S
C375 C377 1.390 . S
C375 H379 0.950 . S
H376 C372 0.950 . S
C377 C375 1.390 . S
C377 C378 1.387 . S
C377 H380 0.950 . S
C378 C377 1.387 . S
C378 C381 1.387 . S
H379 C375 0.950 . S
H380 C377 0.950 . S
C381 C372 1.390 . S
C381 H374 0.950 . S
C381 C378 1.387 . S
C382 C383 1.387 . S
C382 H386 0.950 . S
C382 C391 1.390 . S
C383 C382 1.387 . S
C383 C385 1.387 . S
H384 C391 0.950 . S
C385 C383 1.387 . S
C385 C387 1.390 . S
C385 H389 0.950 . S
H386 C382 0.950 . S
C387 C385 1.390 . S
C387 C388 1.387 . S
C387 H390 0.950 . S
C388 C387 1.387 . S
C388 C391 1.387 . S
H389 C385 0.950 . S
H390 C387 0.950 . S
C391 C382 1.390 . S
C391 H384 0.950 . S
C391 C388 1.387 . S
C392 C393 1.387 . S
C392 H396 0.950 . S
C392 C401 1.390 . S
C393 C392 1.387 . S
C393 C395 1.387 . S
H394 C401 0.950 . S
C395 C393 1.387 . S
C395 C397 1.390 . S
C395 H399 0.950 . S
H396 C392 0.950 . S
C397 C395 1.390 . S
C397 C398 1.387 . S
C397 H400 0.950 . S
C398 C397 1.387 . S
C398 C401 1.387 . S
H399 C395 0.950 . S
H400 C397 0.950 . S
C401 C392 1.390 . S
C401 H394 0.950 . S
C401 C398 1.387 . S
C402 C403 1.387 . S
C402 H406 0.950 . S
C402 C411 1.390 . S
C403 C402 1.387 . S
C403 C405 1.387 . S
H404 C411 0.950 . S
C405 C403 1.387 . S
C405 C407 1.390 . S
C405 H409 0.950 . S
H406 C402 0.950 . S
C407 C405 1.390 . S
C407 C408 1.387 . S
C407 H410 0.950 . S
C408 C407 1.387 . S
C408 C411 1.387 . S
H409 C405 0.950 . S
H410 C407 0.950 . S
C411 C402 1.390 . S
C411 H404 0.950 . S
C411 C408 1.387 . S
C412 C413 1.387 . S
C412 H416 0.950 . S
C412 C421 1.390 . S
C413 C412 1.387 . S
C413 C415 1.387 . S
H414 C421 0.950 . S
C415 C413 1.387 . S
C415 C417 1.390 . S
C415 H419 0.950 . S
H416 C412 0.950 . S
C417 C415 1.390 . S
C417 C418 1.387 . S
C417 H420 0.950 . S
C418 C417 1.387 . S
C418 C421 1.387 . S
H419 C415 0.950 . S
H420 C417 0.950 . S
C421 C412 1.390 . S
C421 H414 0.950 . S
C421 C418 1.387 . S
C422 C423 1.387 . S
C422 H426 0.950 . S
C422 C431 1.390 . S
C423 C422 1.387 . S
C423 C425 1.387 . S
H424 C431 0.950 . S
C425 C423 1.387 . S
C425 C427 1.390 . S
C425 H429 0.950 . S
H426 C422 0.950 . S
C427 C425 1.390 . S
C427 C428 1.387 . S
C427 H430 0.950 . S
C428 C427 1.387 . S
C428 C431 1.387 . S
H429 C425 0.950 . S
H430 C427 0.950 . S
C431 C422 1.390 . S
C431 H424 0.950 . S
C431 C428 1.387 . S
C432 C433 1.387 . S
C432 H436 0.950 . S
C432 C441 1.390 . S
C433 C432 1.387 . S
C433 C435 1.387 . S
H434 C441 0.950 . S
C435 C433 1.387 . S
C435 C437 1.390 . S
C435 H439 0.950 . S
H436 C432 0.950 . S
C437 C435 1.390 . S
C437 C438 1.387 . S
C437 H440 0.950 . S
C438 C437 1.387 . S
C438 C441 1.387 . S
H439 C435 0.950 . S
H440 C437 0.950 . S
C441 C432 1.390 . S
C441 H434 0.950 . S
C441 C438 1.387 . S
C442 C443 1.387 . S
C442 H446 0.950 . S
C442 C451 1.390 . S
C443 C442 1.387 . S
C443 C445 1.387 . S
H444 C451 0.950 . S
C445 C443 1.387 . S
C445 C447 1.390 . S
C445 H449 0.950 . S
H446 C442 0.950 . S
C447 C445 1.390 . S
C447 C448 1.387 . S
C447 H450 0.950 . S
C448 C447 1.387 . S
C448 C451 1.387 . S
H449 C445 0.950 . S
H450 C447 0.950 . S
C451 C442 1.390 . S
C451 H444 0.950 . S
C451 C448 1.387 . S
C452 C453 1.387 . S
C452 H456 0.950 . S
C452 C461 1.390 . S
C453 C452 1.387 . S
C453 C455 1.387 . S
H454 C461 0.950 . S
C455 C453 1.387 . S
C455 C457 1.390 . S
C455 H459 0.950 . S
H456 C452 0.950 . S
C457 C455 1.390 . S
C457 C458 1.387 . S
C457 H460 0.950 . S
C458 C457 1.387 . S
C458 C461 1.387 . S
H459 C455 0.950 . S
H460 C457 0.950 . S
C461 C452 1.390 . S
C461 H454 0.950 . S
C461 C458 1.387 . S
C462 C463 1.387 . S
C462 H466 0.950 . S
C462 C471 1.390 . S
C463 C462 1.387 . S
C463 C465 1.387 . S
H464 C471 0.950 . S
C465 C463 1.387 . S
C465 C467 1.390 . S
C465 H469 0.950 . S
H466 C462 0.950 . S
C467 C465 1.390 . S
C467 C468 1.387 . S
C467 H470 0.950 . S
C468 C467 1.387 . S
C468 C471 1.387 . S
H469 C465 0.950 . S
H470 C467 0.950 . S
C471 C462 1.390 . S
C471 H464 0.950 . S
C471 C468 1.387 . S
C472 C473 1.387 . S
C472 H476 0.950 . S
C472 C481 1.390 . S
C473 C472 1.387 . S
C473 C475 1.387 . S
H474 C481 0.950 . S
C475 C473 1.387 . S
C475 C477 1.390 . S
C475 H479 0.950 . S
H476 C472 0.950 . S
C477 C475 1.390 . S
C477 C478 1.387 . S
C477 H480 0.950 . S
C478 C477 1.387 . S
C478 C481 1.387 . S
H479 C475 0.950 . S
H480 C477 0.950 . S
C481 C472 1.390 . S
C481 H474 0.950 . S
C481 C478 1.387 . S
C482 C483 1.387 . S
C482 H486 0.950 . S
C482 C491 1.390 . S
C483 C482 1.387 . S
C483 C485 1.387 . S
H484 C491 0.950 . S
C485 C483 1.387 . S
C485 C487 1.390 . S
C485 H489 0.950 . S
H486 C482 0.950 . S
C487 C485 1.390 . S
C487 C488 1.387 . S
C487 H490 0.950 . S
C488 C487 1.387 . S
C488 C491 1.387 . S
H489 C485 0.950 . S
H490 C487 0.950 . S
C491 C482 1.390 . S
C491 H484 0.950 . S
C491 C488 1.387 . S
C492 C493 1.387 . S
C492 H496 0.950 . S
C492 C501 1.390 . S
C493 C492 1.387 . S
C493 C495 1.387 . S
H494 C501 0.950 . S
C495 C493 1.387 . S
C495 C497 1.390 . S
C495 H499 0.950 . S
H496 C492 0.950 . S
C497 C495 1.390 . S
C497 C498 1.387 . S
C497 H500 0.950 . S
C498 C497 1.387 . S
C498 C501 1.387 . S
H499 C495 0.950 . S
H500 C497 0.950 . S
C501 C492 1.390 . S
C501 H494 0.950 . S
C501 C498 1.387 . S
C502 C503 1.387 . S
C502 H506 0.950 . S
C502 C511 1.390 . S
C503 C502 1.387 . S
C503 C505 1.387 . S
H504 C511 0.950 . S
C505 C503 1.387 . S
C505 C507 1.390 . S
C505 H509 0.950 . S
H506 C502 0.950 . S
C507 C505 1.390 . S
C507 C508 1.387 . S
C507 H510 0.950 . S
C508 C507 1.387 . S
C508 C511 1.387 . S
H509 C505 0.950 . S
H510 C507 0.950 . S
C511 C502 1.390 . S
C511 H504 0.950 . S
C511 C508 1.387 . S
C512 C513 1.387 . S
C512 H516 0.950 . S
C512 C521 1.390 . S
C513 C512 1.387 . S
C513 C515 1.387 . S
H514 C521 0.950 . S
C515 C513 1.387 . S
C515 C517 1.390 . S
C515 H519 0.950 . S
H516 C512 0.950 . S
C517 C515 1.390 . S
C517 C518 1.387 . S
C517 H520 0.950 . S
C518 C517 1.387 . S
C518 C521 1.387 . S
H519 C515 0.950 . S
H520 C517 0.950 . S
C521 C512 1.390 . S
C521 H514 0.950 . S
C521 C518 1.387 . S
C522 C523 1.387 . S
C522 H526 0.950 . S
C522 C531 1.390 . S
C523 C522 1.387 . S
C523 C525 1.387 . S
H524 C531 0.950 . S
C525 C523 1.387 . S
C525 C527 1.390 . S
C525 H529 0.950 . S
H526 C522 0.950 . S
C527 C525 1.390 . S
C527 C528 1.387 . S
C527 H530 0.950 . S
C528 C527 1.387 . S
C528 C531 1.387 . S
H529 C525 0.950 . S
H530 C527 0.950 . S
C531 C522 1.390 . S
C531 H524 0.950 . S
C531 C528 1.387 . S
C532 C533 1.387 . S
C532 H536 0.950 . S
C532 C541 1.390 . S
C533 C532 1.387 . S
C533 C535 1.387 . S
H534 C541 0.950 . S
C535 C533 1.387 . S
C535 C537 1.390 . S
C535 H539 0.950 . S
H536 C532 0.950 . S
C537 C535 1.390 . S
C537 C538 1.387 . S
C537 H540 0.950 . S
C538 C537 1.387 . S
C538 C541 1.387 . S
H539 C535 0.950 . S
H540 C537 0.950 . S
C541 C532 1.390 . S
C541 H534 0.950 . S
C541 C538 1.387 . S
C542 C543 1.387 . S
C542 H546 0.950 . S
C542 C551 1.390 . S
C543 C542 1.387 . S
C543 C545 1.387 . S
H544 C551 0.950 . S
C545 C543 1.387 . S
C545 C547 1.390 . S
C545 H549 0.950 . S
H546 C542 0.950 . S
C547 C545 1.390 . S
C547 C548 1.387 . S
C547 H550 0.950 . S
C548 C547 1.387 . S
C548 C551 1.387 . S
H549 C545 0.950 . S
H550 C547 0.950 . S
C551 C542 1.390 . S
C551 H544 0.950 . S
C551 C548 1.387 . S
C552 C553 1.387 . S
C552 H556 0.950 . S
C552 C561 1.390 1_566 S
C553 C552 1.387 . S
C553 C555 1.387 . S
H554 C561 0.950 . S
C555 C553 1.387 . S
C555 C557 1.390 1_566 S
C555 H559 0.950 . S
H556 C552 0.950 . S
C557 C555 1.390 1_544 S
C557 C558 1.387 . S
C557 H560 0.950 . S
C558 C557 1.387 . S
C558 C561 1.387 . S
H559 C555 0.950 . S
H560 C557 0.950 . S
C561 C552 1.390 1_544 S
C561 H554 0.950 . S
C561 C558 1.387 . S
C562 C563 1.387 . S
C562 H566 0.950 . S
C562 C571 1.390 . S
C563 C562 1.387 . S
C563 C565 1.387 . S
H564 C571 0.950 . S
C565 C563 1.387 . S
C565 C567 1.390 . S
C565 H569 0.950 . S
H566 C562 0.950 . S
C567 C565 1.390 . S
C567 C568 1.387 . S
C567 H570 0.950 . S
C568 C567 1.387 . S
C568 C571 1.387 . S
H569 C565 0.950 . S
H570 C567 0.950 . S
C571 C562 1.390 . S
C571 H564 0.950 . S
C571 C568 1.387 . S
C572 C573 1.387 . S
C572 H576 0.950 . S
C572 C581 1.390 1_456 S
C573 C572 1.387 . S
C573 C575 1.387 . S
H574 C581 0.950 . S
C575 C573 1.387 . S
C575 C577 1.390 1_456 S
C575 H579 0.950 . S
H576 C572 0.950 . S
C577 C575 1.390 1_654 S
C577 C578 1.387 . S
C577 H580 0.950 . S
C578 C577 1.387 . S
C578 C581 1.387 . S
H579 C575 0.950 . S
H580 C577 0.950 . S
C581 C572 1.390 1_654 S
C581 H574 0.950 . S
C581 C578 1.387 . S
C582 C583 1.387 . S
C582 H586 0.950 . S
C582 C591 1.390 1_545 S
C583 C582 1.387 . S
C583 C585 1.387 . S
H584 C591 0.950 . S
C585 C583 1.387 . S
C585 C587 1.390 1_545 S
C585 H589 0.950 . S
H586 C582 0.950 . S
C587 C585 1.390 1_565 S
C587 C588 1.387 . S
C587 H590 0.950 . S
C588 C587 1.387 . S
C588 C591 1.387 . S
H589 C585 0.950 . S
H590 C587 0.950 . S
C591 C582 1.390 1_565 S
C591 H584 0.950 . S
C591 C588 1.387 . S
C592 C593 1.387 . S
C592 H596 0.950 . S
C592 C601 1.390 1_554 S
C593 C592 1.387 . S
C593 C595 1.387 . S
H594 C601 0.950 . S
C595 C593 1.387 . S
C595 C597 1.390 1_554 S
C595 H599 0.950 . S
H596 C592 0.950 . S
C597 C595 1.390 1_556 S
C597 C598 1.387 . S
C597 H600 0.950 . S
C598 C597 1.387 . S
C598 C601 1.387 . S
H599 C595 0.950 . S
H600 C597 0.950 . S
C601 C592 1.390 1_556 S
C601 H594 0.950 . S
C601 C598 1.387 . S
C602 C603 1.387 . S
C602 H606 0.950 . S
C602 C611 1.390 . S
C603 C602 1.387 . S
C603 C605 1.387 1_455 S
H604 C611 0.950 . S
C605 C603 1.387 1_655 S
C605 C607 1.390 . S
C605 H609 0.950 . S
H606 C602 0.950 . S
C607 C605 1.390 . S
C607 C608 1.387 . S
C607 H610 0.950 . S
C608 C607 1.387 . S
C608 C611 1.387 1_655 S
H609 C605 0.950 . S
H610 C607 0.950 . S
C611 C602 1.390 . S
C611 H604 0.950 . S
C611 C608 1.387 1_455 S
C612 C613 1.387 . S
C612 H616 0.950 . S
C612 C621 1.390 1_566 S
C613 C612 1.387 . S
C613 C615 1.387 . S
H614 C621 0.950 . S
C615 C613 1.387 . S
C615 C617 1.390 1_566 S
C615 H619 0.950 . S
H616 C612 0.950 . S
C617 C615 1.390 1_544 S
C617 C618 1.387 . S
C617 H620 0.950 . S
C618 C617 1.387 . S
C618 C621 1.387 . S
H619 C615 0.950 . S
H620 C617 0.950 . S
C621 C612 1.390 1_544 S
C621 H614 0.950 . S
C621 C618 1.387 . S
C622 C623 1.387 . S
C622 H626 0.950 . S
C622 C631 1.390 . S
C623 C622 1.387 . S
C623 C625 1.387 . S
H624 C631 0.950 . S
C625 C623 1.387 . S
C625 C627 1.390 . S
C625 H629 0.950 . S
H626 C622 0.950 . S
C627 C625 1.390 . S
C627 C628 1.387 . S
C627 H630 0.950 . S
C628 C627 1.387 . S
C628 C631 1.387 . S
H629 C625 0.950 . S
H630 C627 0.950 . S
C631 C622 1.390 . S
C631 H624 0.950 . S
C631 C628 1.387 . S
C632 C633 1.387 . S
C632 H636 0.950 . S
C632 C641 1.390 1_654 S
C633 C632 1.387 . S
C633 C635 1.387 . S
H634 C641 0.950 . S
C635 C633 1.387 . S
C635 C637 1.390 1_654 S
C635 H639 0.950 . S
H636 C632 0.950 . S
C637 C635 1.390 1_456 S
C637 C638 1.387 . S
C637 H640 0.950 . S
C638 C637 1.387 . S
C638 C641 1.387 . S
H639 C635 0.950 . S
H640 C637 0.950 . S
C641 C632 1.390 1_456 S
C641 H634 0.950 . S
C641 C638 1.387 . S
C642 C643 1.387 . S
C642 H646 0.950 . S
C642 C651 1.390 1_565 S
C643 C642 1.387 . S
C643 C645 1.387 . S
H644 C651 0.950 . S
C645 C643 1.387 . S
C645 C647 1.390 1_565 S
C645 H649 0.950 . S
H646 C642 0.950 . S
C647 C645 1.390 1_545 S
C647 C648 1.387 . S
C647 H650 0.950 . S
C648 C647 1.387 . S
C648 C651 1.387 . S
H649 C645 0.950 . S
H650 C647 0.950 . S
C651 C642 1.390 1_545 S
C651 H644 0.950 . S
C651 C648 1.387 . S
C652 C653 1.404 . S
C652 H656 0.950 . S
C652 C661 1.374 1_554 S
C653 C652 1.404 . S
C653 C655 1.387 . S
H654 C661 0.950 . S
C655 C653 1.387 . S
C655 C657 1.374 1_554 S
C655 H659 0.950 . S
H656 C652 0.950 . S
C657 C655 1.374 1_556 S
C657 C658 1.404 . S
C657 H660 0.950 . S
C658 C657 1.404 . S
C658 C661 1.387 . S
H659 C655 0.950 . S
H660 C657 0.950 . S
C661 C652 1.374 1_556 S
C661 H654 0.950 . S
C661 C658 1.387 . S
C662 C663 1.387 . S
C662 H666 0.950 . S
C662 C671 1.390 1_455 S
C663 C662 1.387 . S
C663 C665 1.387 . S
H664 C671 0.950 . S
C665 C663 1.387 . S
C665 C667 1.390 1_455 S
C665 H669 0.950 . S
H666 C662 0.950 . S
C667 C665 1.390 1_655 S
C667 C668 1.387 . S
C667 H670 0.950 . S
C668 C667 1.387 . S
C668 C671 1.387 . S
H669 C665 0.950 . S
H670 C667 0.950 . S
C671 C662 1.390 1_655 S
C671 H664 0.950 . S
C671 C668 1.387 . S
C672 C673 1.387 . S
C672 H676 0.950 . S
C672 C681 1.390 . S
C673 C672 1.387 . S
C673 C675 1.387 . S
H674 C681 0.950 . S
C675 C673 1.387 . S
C675 C677 1.390 . S
C675 H679 0.950 . S
H676 C672 0.950 . S
C677 C675 1.390 . S
C677 C678 1.387 . S
C677 H680 0.950 . S
C678 C677 1.387 . S
C678 C681 1.387 . S
H679 C675 0.950 . S
H680 C677 0.950 . S
C681 C672 1.390 . S
C681 H674 0.950 . S
C681 C678 1.387 . S
C682 C683 1.387 . S
C682 H686 0.950 . S
C682 C691 1.390 . S
C683 C682 1.387 . S
C683 C685 1.387 . S
H684 C691 0.950 . S
C685 C683 1.387 . S
C685 C687 1.390 . S
C685 H689 0.950 . S
H686 C682 0.950 . S
C687 C685 1.390 . S
C687 C688 1.387 . S
C687 H690 0.950 . S
C688 C687 1.387 . S
C688 C691 1.387 . S
H689 C685 0.950 . S
H690 C687 0.950 . S
C691 C682 1.390 . S
C691 H684 0.950 . S
C691 C688 1.387 . S
C692 C693 1.387 . S
C692 H696 0.950 . S
C692 C701 1.390 . S
C693 C692 1.387 . S
C693 C695 1.387 . S
H694 C701 0.950 . S
C695 C693 1.387 . S
C695 C697 1.390 . S
C695 H699 0.950 . S
H696 C692 0.950 . S
C697 C695 1.390 . S
C697 C698 1.387 . S
C697 H700 0.950 . S
C698 C697 1.387 . S
C698 C701 1.387 . S
H699 C695 0.950 . S
H700 C697 0.950 . S
C701 C692 1.390 . S
C701 H694 0.950 . S
C701 C698 1.387 . S
C702 C703 1.387 . S
C702 H706 0.950 . S
C702 C711 1.390 . S
C703 C702 1.387 . S
C703 C705 1.387 . S
H704 C711 0.950 . S
C705 C703 1.387 . S
C705 C707 1.390 . S
C705 H709 0.950 . S
H706 C702 0.950 . S
C707 C705 1.390 . S
C707 C708 1.387 . S
C707 H710 0.950 . S
C708 C707 1.387 . S
C708 C711 1.387 . S
H709 C705 0.950 . S
H710 C707 0.950 . S
C711 C702 1.390 . S
C711 H704 0.950 . S
C711 C708 1.387 . S
C712 C713 1.387 . S
C712 H716 0.950 . S
C712 C721 1.390 . S
C713 C712 1.387 . S
C713 C715 1.387 . S
H714 C721 0.950 . S
C715 C713 1.387 . S
C715 C717 1.390 . S
C715 H719 0.950 . S
H716 C712 0.950 . S
C717 C715 1.390 . S
C717 C718 1.387 . S
C717 H720 0.950 . S
C718 C717 1.387 . S
C718 C721 1.387 . S
H719 C715 0.950 . S
H720 C717 0.950 . S
C721 C712 1.390 . S
C721 H714 0.950 . S
C721 C718 1.387 . S
C722 C723 1.387 . S
C722 H726 0.950 . S
C722 C731 1.390 . S
C723 C722 1.387 . S
C723 C725 1.387 . S
H724 C731 0.950 . S
C725 C723 1.387 . S
C725 C727 1.390 . S
C725 H729 0.950 . S
H726 C722 0.950 . S
C727 C725 1.390 . S
C727 C728 1.387 . S
C727 H730 0.950 . S
C728 C727 1.387 . S
C728 C731 1.387 . S
H729 C725 0.950 . S
H730 C727 0.950 . S
C731 C722 1.390 . S
C731 H724 0.950 . S
C731 C728 1.387 . S
C732 C733 1.387 . S
C732 H736 0.950 . S
C732 C741 1.390 . S
C733 C732 1.387 . S
C733 C735 1.387 . S
H734 C741 0.950 . S
C735 C733 1.387 . S
C735 C737 1.390 . S
C735 H739 0.950 . S
H736 C732 0.950 . S
C737 C735 1.390 . S
C737 C738 1.387 . S
C737 H740 0.950 . S
C738 C737 1.387 . S
C738 C741 1.387 . S
H739 C735 0.950 . S
H740 C737 0.950 . S
C741 C732 1.390 . S
C741 H734 0.950 . S
C741 C738 1.387 . S
C742 C743 1.387 . S
C742 H746 0.950 . S
C742 C751 1.390 . S
C743 C742 1.387 . S
C743 C745 1.387 . S
H744 C751 0.950 . S
C745 C743 1.387 . S
C745 C747 1.390 . S
C745 H749 0.950 . S
H746 C742 0.950 . S
C747 C745 1.390 . S
C747 C748 1.387 . S
C747 H750 0.950 . S
C748 C747 1.387 . S
C748 C751 1.387 . S
H749 C745 0.950 . S
H750 C747 0.950 . S
C751 C742 1.390 . S
C751 H744 0.950 . S
C751 C748 1.387 . S
C752 C753 1.387 . S
C752 H756 0.950 . S
C752 C761 1.390 . S
C753 C752 1.387 . S
C753 C755 1.387 . S
H754 C761 0.950 . S
C755 C753 1.387 . S
C755 C757 1.390 . S
C755 H759 0.950 . S
H756 C752 0.950 . S
C757 C755 1.390 . S
C757 C758 1.387 . S
C757 H760 0.950 . S
C758 C757 1.387 . S
C758 C761 1.387 . S
H759 C755 0.950 . S
H760 C757 0.950 . S
C761 C752 1.390 . S
C761 H754 0.950 . S
C761 C758 1.387 . S
C762 C763 1.387 . S
C762 H766 0.950 . S
C762 C771 1.390 . S
C763 C762 1.387 . S
C763 C765 1.387 . S
H764 C771 0.950 . S
C765 C763 1.387 . S
C765 C767 1.390 . S
C765 H769 0.950 . S
H766 C762 0.950 . S
C767 C765 1.390 . S
C767 C768 1.387 . S
C767 H770 0.950 . S
C768 C767 1.387 . S
C768 C771 1.387 . S
H769 C765 0.950 . S
H770 C767 0.950 . S
C771 C762 1.390 . S
C771 H764 0.950 . S
C771 C768 1.387 . S
C772 C773 1.387 . S
C772 H776 0.950 . S
C772 C781 1.390 . S
C773 C772 1.387 . S
C773 C775 1.387 . S
H774 C781 0.950 . S
C775 C773 1.387 . S
C775 C777 1.390 . S
C775 H779 0.950 . S
H776 C772 0.950 . S
C777 C775 1.390 . S
C777 C778 1.387 . S
C777 H780 0.950 . S
C778 C777 1.387 . S
C778 C781 1.387 . S
H779 C775 0.950 . S
H780 C777 0.950 . S
C781 C772 1.390 . S
C781 H774 0.950 . S
C781 C778 1.387 . S
C782 C783 1.387 . S
C782 H786 0.950 . S
C782 C791 1.390 . S
C783 C782 1.387 . S
C783 C785 1.387 . S
H784 C791 0.950 . S
C785 C783 1.387 . S
C785 C787 1.390 . S
C785 H789 0.950 . S
H786 C782 0.950 . S
C787 C785 1.390 . S
C787 C788 1.387 . S
C787 H790 0.950 . S
C788 C787 1.387 . S
C788 C791 1.387 . S
H789 C785 0.950 . S
H790 C787 0.950 . S
C791 C782 1.390 . S
C791 H784 0.950 . S
C791 C788 1.387 . S
C313 C200 1.389 . S
C318 C5 1.390 . S
C323 C18 1.391 . S
C328 C213 1.389 . S
C333 C31 1.390 . S
C338 C226 1.389 . S
C343 C44 1.389 . S
C348 C161 1.389 . S
C353 C174 1.391 . S
C358 C57 1.388 . S
C363 C70 1.391 . S
C368 C187 1.388 . S
C373 C278 1.390 . S
C378 C83 1.389 . S
C383 C96 1.389 . S
C388 C291 1.390 . S
C393 C109 1.391 . S
C398 C304 1.388 . S
C403 C239 1.391 . S
C408 C122 1.388 . S
C413 C135 1.390 . S
C418 C252 1.389 . S
C423 C265 1.391 . S
C428 C148 1.388 . S
C433 C10 1.259 . S
C438 C309 1.261 . S
C443 C244 1.261 . S
C448 C23 1.259 . S
C453 C36 1.260 . S
C458 C257 1.258 . S
C463 C270 1.258 . S
C468 C49 1.260 . S
C473 C62 1.259 . S
C478 C283 1.260 . S
C483 C296 1.260 . S
C488 C75 1.258 . S
C493 C88 1.260 . S
C498 C179 1.259 . S
C503 C192 1.260 . S
C508 C101 1.258 . S
C513 C205 1.258 . S
C518 C114 1.260 . S
C523 C218 1.260 . S
C528 C127 1.259 . S
C533 C140 1.260 . S
C538 C231 1.258 . S
C543 C153 1.261 . S
C548 C166 1.259 . S
C553 C91 1.275 . S
C558 C0 1.275 . S
C563 C104 1.273 . S
C568 C13 1.273 . S
C573 C117 1.275 . S
C578 C26 1.275 . S
C583 C130 1.275 . S
C588 C39 1.275 . S
C593 C52 1.275 . S
C598 C143 1.275 . S
C603 C65 1.274 . S
C608 C78 1.275 . S
C613 C156 1.273 . S
C618 C247 1.273 . S
C623 C169 1.275 . S
C628 C260 1.275 . S
C633 C273 1.275 . S
C638 C182 1.275 . S
C643 C286 1.275 . S
C648 C195 1.275 . S
C653 C299 1.273 . S
C658 C208 1.273 . S
C663 C234 1.273 . S
C668 C221 1.273 . S
C673 C8 1.433 . S
C678 C255 1.433 . S
C683 C268 1.433 . S
C688 C21 1.433 . S
C693 C34 1.434 . S
C698 C281 1.433 . S
C703 C294 1.435 . S
C708 C47 1.432 . S
C713 C60 1.433 . S
C718 C307 1.433 . S
C723 C242 1.433 . S
C728 C73 1.433 . S
C733 C86 1.433 . S
C738 C229 1.433 . S
C743 C164 1.433 . S
C748 C99 1.433 . S
C753 C112 1.433 . S
C758 C177 1.433 . S
C763 C125 1.434 . S
C768 C190 1.433 . S
C773 C138 1.433 . S
C778 C203 1.434 . S
C783 C151 1.433 . S
C788 C216 1.433 . S
