# Generated by pormake.
# Topology irl, (4)-cn, num edge types: 1
# Building blocks:
#     Node 0, Type 0, BuildingBlock: ICAMEG_clean_sbu_1, # of connection points: 4
#     Node 1, Type 0, BuildingBlock: ICAMEG_clean_sbu_1, # of connection points: 4
#     Node 2, Type 0, BuildingBlock: ICAMEG_clean_sbu_1, # of connection points: 4
#     Node 3, Type 0, BuildingBlock: ICAMEG_clean_sbu_1, # of connection points: 4
#     Node 4, Type 0, BuildingBlock: ICAMEG_clean_sbu_1, # of connection points: 4
#     Node 5, Type 0, BuildingBlock: ICAMEG_clean_sbu_1, # of connection points: 4
#     Node 6, Type 0, BuildingBlock: ICAMEG_clean_sbu_1, # of connection points: 4
#     Node 7, Type 0, BuildingBlock: ICAMEG_clean_sbu_1, # of connection points: 4
#     Edge 8, Type (0, 0), BuildingBlock: KIFKEQ_clean_linker_1, # of connection points: 2
#     Edge 9, Type (0, 0), BuildingBlock: KIFKEQ_clean_linker_1, # of connection points: 2
#     Edge 10, Type (0, 0), BuildingBlock: KIFKEQ_clean_linker_1, # of connection points: 2
#     Edge 11, Type (0, 0), BuildingBlock: KIFKEQ_clean_linker_1, # of connection points: 2
#     Edge 12, Type (0, 0), BuildingBlock: KIFKEQ_clean_linker_1, # of connection points: 2
#     Edge 13, Type (0, 0), BuildingBlock: KIFKEQ_clean_linker_1, # of connection points: 2
#     Edge 14, Type (0, 0), BuildingBlock: KIFKEQ_clean_linker_1, # of connection points: 2
#     Edge 15, Type (0, 0), BuildingBlock: KIFKEQ_clean_linker_1, # of connection points: 2
#     Edge 16, Type (0, 0), BuildingBlock: KIFKEQ_clean_linker_1, # of connection points: 2
#     Edge 17, Type (0, 0), BuildingBlock: KIFKEQ_clean_linker_1, # of connection points: 2
#     Edge 18, Type (0, 0), BuildingBlock: KIFKEQ_clean_linker_1, # of connection points: 2
#     Edge 19, Type (0, 0), BuildingBlock: KIFKEQ_clean_linker_1, # of connection points: 2
#     Edge 20, Type (0, 0), BuildingBlock: KIFKEQ_clean_linker_1, # of connection points: 2
#     Edge 21, Type (0, 0), BuildingBlock: KIFKEQ_clean_linker_1, # of connection points: 2
#     Edge 22, Type (0, 0), BuildingBlock: KIFKEQ_clean_linker_1, # of connection points: 2
#     Edge 23, Type (0, 0), BuildingBlock: KIFKEQ_clean_linker_1, # of connection points: 2
# Relax obj value: 0.025
# Max RMSD: 0.076
# Mean RMSD: 0.076
data_MOF--net-irl--node1-ICAMEG_clean_sbu_1--edge1-KIFKEQ_clean_linker_1
_symmetry_space_group_name_H-M    P1
_symmetry_Int_Tables_number       1
_symmetry_cell_setting            triclinic
loop_
_symmetry_equiv_pos_as_xyz
'x, y, z'
_cell_length_a     35.071081
_cell_length_b     50.402395
_cell_length_c     30.859285
_cell_angle_alpha  90.000837
_cell_angle_beta   90.000609
_cell_angle_gamma 90.011812
loop_
_atom_site_label
_atom_site_type_symbol
_atom_site_fract_x
_atom_site_fract_y
_atom_site_fract_z
_atom_type_partial_charge
Co0 Co 0.01912 0.15409 0.00279 0.0
Co1 Co 0.10852 0.13277 0.03543 0.0
O2 O 0.07489 0.15398 0.99836 0.0
C3 C 0.03342 0.139 0.91165 0.0
O4 O 0.0603 0.12317 0.92606 0.0
C5 C 0.13817 0.18771 0.04435 0.0
O6 O 0.10284 0.19626 0.04581 0.0
O7 O 0.08181 0.14516 0.08877 0.0
O8 O 0.02209 0.1547 0.06743 0.0
H9 H 0.13837 0.06921 0.15616 0.0
H10 H 0.05753 0.19393 0.94735 0.0
O11 O 0.01452 0.15332 0.93801 0.0
H12 H 0.98728 0.2457 0.05693 0.0
H13 H 0.88673 0.18214 0.95936 0.0
H14 H 0.96275 0.12648 0.0584 0.0
H15 H 0.98419 0.19682 0.05673 0.0
H16 H 0.95697 0.18202 0.95511 0.0
O17 O 0.14515 0.16307 0.04027 0.0
H18 H 0.09648 0.09576 0.10881 0.0
H19 H 0.19283 0.12533 0.04079 0.0
H20 H 0.89258 0.12616 0.06403 0.0
H21 H 0.06116 0.24281 0.94609 0.0
H22 H 0.85409 0.15413 0.01425 0.0
H23 H 0.02594 0.26902 1.00126 0.0
O24 O 0.01725 0.11457 0.00354 0.0
H25 H 0.17148 0.14465 0.89048 0.0
H26 H 0.1326 0.07981 1.00169 0.0
H27 H 0.1638 0.06409 0.93485 0.0
H28 H 0.1835 0.09662 0.87869 0.0
H29 H 0.13987 0.15948 0.95765 0.0
H30 H 0.23577 0.09926 0.08762 0.0
H31 H 0.20855 0.07087 0.1457 0.0
O32 O 0.07342 0.10181 0.03145 0.0
C33 C 0.04739 0.1518 0.09677 0.0
C34 C 0.15056 0.08144 0.13088 0.0
C35 C 0.20523 0.09834 0.09245 0.0
N36 N 0.14217 0.11193 0.07189 0.0
C37 C 0.12698 0.09646 0.1039 0.0
C38 C 0.18078 0.1131 0.0661 0.0
C39 C 0.18994 0.0824 0.12502 0.0
C40 C 0.04186 0.20522 0.97121 0.0
N41 N 0.02061 0.19255 1.002 0.0
C42 C 0.04414 0.23288 0.97045 0.0
C43 C 0.02442 0.24758 1.00145 0.0
C44 C 0.00275 0.2345 0.03272 0.0
C45 C 1.00121 0.20682 0.03254 0.0
C46 C 0.90319 0.1699 0.98129 0.0
C47 C 0.94619 0.13883 0.03682 0.0
C48 C 0.94296 0.16971 0.97897 0.0
N49 N 0.96393 0.1544 0.0067 0.0
C50 C 0.90648 0.13851 0.04007 0.0
C51 C 0.8849 0.15419 0.0121 0.0
C52 C 0.04004 0.09678 0.01741 0.0
C53 C 0.16312 0.13028 0.91477 0.0
C54 C 0.14098 0.09408 0.97737 0.0
C55 C 0.15873 0.08507 0.93962 0.0
C56 C 0.1698 0.10333 0.90814 0.0
N57 N 0.13453 0.12055 0.98364 0.0
C58 C 0.14536 0.13858 0.95294 0.0
Co59 Co 0.98233 0.84751 0.00394 0.0
Co60 Co 0.89287 0.86727 0.0379 0.0
O61 O 0.92655 0.84649 1.00026 0.0
C62 C 0.96699 0.86042 0.91237 0.0
O63 O 0.94007 0.87642 0.92621 0.0
C64 C 0.86363 0.81221 0.04587 0.0
O65 O 0.89902 0.80384 0.0479 0.0
O66 O 0.91975 0.85416 0.09063 0.0
O67 O 0.98031 0.84864 0.06858 0.0
H68 H 0.8629 0.92922 0.16079 0.0
H69 H 0.9454 0.80544 0.95168 0.0
O70 O 0.98616 0.84666 0.93923 0.0
H71 H 0.0182 0.75815 0.06447 0.0
H72 H 0.11524 0.82052 0.96079 0.0
H73 H 0.03828 0.87825 0.05561 0.0
H74 H 0.01917 0.80703 0.06079 0.0
H75 H 0.04497 0.81916 0.9578 0.0
O76 O 0.85645 0.83682 0.04181 0.0
H77 H 0.90484 0.90334 0.1125 0.0
H78 H 0.80854 0.87444 0.04364 0.0
H79 H 0.10846 0.8801 0.05994 0.0
H80 H 0.9439 0.75651 0.95393 0.0
H81 H 0.14743 0.85108 0.01228 0.0
H82 H 0.98041 0.73256 0.01072 0.0
O83 O 0.98237 0.88692 1.00196 0.0
H84 H 0.82957 0.85693 0.89284 0.0
H85 H 0.86837 0.92056 0.00592 0.0
H86 H 0.83688 0.93697 0.93972 0.0
H87 H 0.8172 0.90505 0.88262 0.0
H88 H 0.86151 0.84141 0.95939 0.0
H89 H 0.76554 0.89983 0.0914 0.0
H90 H 0.79271 0.92755 0.15037 0.0
O91 O 0.92779 0.89853 0.03483 0.0
C92 C 0.95495 0.84971 0.09816 0.0
C93 C 0.85073 0.91728 0.13512 0.0
C94 C 0.79608 0.90075 0.09621 0.0
N95 N 0.85918 0.88756 0.07511 0.0
C96 C 0.87433 0.90264 0.10762 0.0
C97 C 0.82057 0.88638 0.06934 0.0
C98 C 0.81134 0.91631 0.12929 0.0
C99 C 0.96165 0.79513 0.97621 0.0
N100 N 0.98245 0.80905 0.00594 0.0
C101 C 0.96056 0.76744 0.97745 0.0
C102 C 0.981 0.75401 0.00937 0.0
C103 C 0.00218 0.76836 0.03956 0.0
C104 C 0.00254 0.79604 0.03739 0.0
C105 C 0.09857 0.8332 0.98182 0.0
C106 C 0.05504 0.86541 0.03503 0.0
C107 C 0.05878 0.83254 0.98024 0.0
N108 N 0.03756 0.8484 0.00687 0.0
C109 C 0.09477 0.86661 0.03751 0.0
C110 C 0.11662 0.85035 0.01072 0.0
C111 C 0.95999 0.90423 0.01807 0.0
C112 C 0.83792 0.87103 0.91754 0.0
C113 C 0.86004 0.90655 0.98117 0.0
C114 C 0.84211 0.91596 0.9438 0.0
C115 C 0.83104 0.89803 0.91179 0.0
N116 N 0.8667 0.88004 0.98657 0.0
C117 C 0.85587 0.86234 0.95537 0.0
Co118 Co 0.01981 0.84808 0.50399 0.0
Co119 Co 0.10773 0.86745 0.46609 0.0
O120 O 0.07562 0.84712 0.50608 0.0
C121 C 0.03671 0.8604 0.59547 0.0
O122 O 0.06306 0.87677 0.58138 0.0
C123 C 0.13913 0.81296 0.4611 0.0
O124 O 0.10399 0.80406 0.45917 0.0
O125 O 0.08066 0.85199 0.41542 0.0
O126 O 0.0202 0.84981 0.43912 0.0
H127 H 0.13317 0.92552 0.33694 0.0
H128 H 0.0578 0.80549 0.554 0.0
O129 O 0.01744 0.8466 0.56875 0.0
H130 H 0.98214 0.75933 0.44237 0.0
H131 H 0.88783 0.82082 0.55031 0.0
H132 H 0.96283 0.87932 0.45467 0.0
H133 H 0.98143 0.80817 0.44728 0.0
H134 H 0.95813 0.8194 0.55128 0.0
O135 O 0.14551 0.83774 0.46421 0.0
H136 H 0.09311 0.90038 0.38824 0.0
H137 H 0.19154 0.87649 0.4583 0.0
H138 H 0.89257 0.88123 0.45235 0.0
H139 H 0.05905 0.75659 0.55053 0.0
H140 H 0.85459 0.85182 0.50043 0.0
H141 H 0.0211 0.7332 0.4943 0.0
O142 O 0.02026 0.88743 0.50713 0.0
H143 H 0.17411 0.86364 0.61021 0.0
H144 H 0.12942 0.92237 0.49293 0.0
H145 H 0.16109 0.94177 0.55684 0.0
H146 H 0.18373 0.91233 0.61604 0.0
H147 H 0.14193 0.84508 0.54591 0.0
H148 H 0.23269 0.9012 0.40756 0.0
H149 H 0.2035 0.92603 0.34645 0.0
O150 O 0.07131 0.89803 0.46678 0.0
C151 C 0.04501 0.849 0.4089 0.0
C152 C 0.14622 0.91485 0.36352 0.0
C153 C 0.20208 0.90117 0.40313 0.0
N154 N 0.13993 0.88718 0.42643 0.0
C155 C 0.12367 0.90065 0.39274 0.0
C156 C 0.17864 0.88718 0.4317 0.0
C157 C 0.18568 0.91511 0.36885 0.0
C158 C 0.04093 0.79543 0.52973 0.0
N159 N 0.01948 0.80965 0.50099 0.0
C160 C 0.04187 0.76775 0.5278 0.0
C161 C 0.02063 0.75464 0.49619 0.0
C162 C 0.99879 0.76929 0.46702 0.0
C163 C 0.99859 0.79695 0.46988 0.0
C164 C 0.90406 0.83368 0.52912 0.0
C165 C 0.94648 0.86632 0.47544 0.0
C166 C 0.94387 0.83299 0.52957 0.0
N167 N 0.96454 0.84907 0.50272 0.0
C168 C 0.90672 0.86756 0.4741 0.0
C169 C 0.88543 0.85107 0.50112 0.0
C170 C 0.04086 0.9042 0.487 0.0
C171 C 0.16447 0.87666 0.58457 0.0
C172 C 0.13908 0.90942 0.5186 0.0
C173 C 0.15708 0.92052 0.55467 0.0
C174 C 0.16981 0.90399 0.58785 0.0
N175 N 0.13396 0.88259 0.51562 0.0
C176 C 0.14639 0.86626 0.548 0.0
Co177 Co 0.98235 0.15326 0.5023 0.0
Co178 Co 0.89445 0.13151 0.46631 0.0
O179 O 0.92657 0.15264 0.50519 0.0
C180 C 0.96676 0.13879 0.59343 0.0
O181 O 0.94081 0.12231 0.57876 0.0
C182 C 0.86301 0.18585 0.45921 0.0
O183 O 0.89819 0.19468 0.45711 0.0
O184 O 0.92113 0.14581 0.41443 0.0
O185 O 0.98101 0.15306 0.4374 0.0
H186 H 0.86861 0.07075 0.3406 0.0
H187 H 0.94219 0.19347 0.55529 0.0
O188 O 0.98548 0.15332 0.56719 0.0
H189 H 0.01391 0.24443 0.4459 0.0
H190 H 0.11325 0.183 0.5485 0.0
H191 H 0.04038 0.12535 0.44941 0.0
H192 H 0.0178 0.19559 0.44787 0.0
H193 H 0.04294 0.18232 0.55079 0.0
O194 O 0.85653 0.16112 0.46303 0.0
H195 H 0.90882 0.09699 0.39024 0.0
H196 H 0.81066 0.12216 0.45955 0.0
H197 H 0.11065 0.12559 0.44575 0.0
H198 H 0.93774 0.24233 0.55476 0.0
H199 H 0.14756 0.15457 0.49556 0.0
H200 H 0.97368 0.26812 0.49967 0.0
O201 O 0.98452 0.11382 0.50308 0.0
H202 H 0.82879 0.13811 0.61061 0.0
H203 H 0.87333 0.07714 0.49633 0.0
H204 H 0.84211 0.05896 0.5615 0.0
H205 H 0.81956 0.08953 0.61918 0.0
H206 H 0.86047 0.15544 0.54509 0.0
H207 H 0.76935 0.09636 0.41046 0.0
H208 H 0.79833 0.07032 0.35057 0.0
O209 O 0.93109 0.10124 0.46848 0.0
C210 C 0.95607 0.15139 0.40739 0.0
C211 C 0.85566 0.08192 0.36668 0.0
C212 C 0.79994 0.09633 0.40585 0.0
N213 N 0.86214 0.11088 0.42799 0.0
C214 C 0.87829 0.09675 0.39497 0.0
C215 C 0.82347 0.11093 0.43349 0.0
C216 C 0.81622 0.08172 0.37226 0.0
C217 C 0.95819 0.20459 0.53149 0.0
N218 N 0.98029 0.19171 0.50173 0.0
C219 C 0.95544 0.23223 0.53124 0.0
C220 C 0.97556 0.24669 0.50027 0.0
C221 C 0.99811 0.23341 0.47006 0.0
C222 C 1.00011 0.20575 0.47125 0.0
C223 C 0.09748 0.17033 0.52657 0.0
C224 C 0.05625 0.13813 0.471 0.0
C225 C 0.05768 0.16981 0.52778 0.0
N226 N 0.03759 0.15395 0.50003 0.0
C227 C 0.09603 0.13813 0.46886 0.0
C228 C 0.11672 0.15438 0.49685 0.0
C229 C 0.96333 0.09624 0.4857 0.0
C230 C 0.83838 0.12459 0.58564 0.0
C231 C 0.86368 0.09058 0.52133 0.0
C232 C 0.84594 0.08016 0.55812 0.0
C233 C 0.83327 0.09733 0.59046 0.0
N234 N 0.86855 0.11735 0.51683 0.0
C235 C 0.85618 0.1343 0.54838 0.0
Co236 Co 0.52023 0.65094 1.0009 0.0
Co237 Co 0.60811 0.63154 0.03889 0.0
O238 O 0.57604 0.65186 0.99886 0.0
C239 C 0.53715 0.63858 0.90942 0.0
O240 O 0.56347 0.62219 0.92349 0.0
C241 C 0.63941 0.68604 0.04394 0.0
O242 O 0.60425 0.69489 0.04585 0.0
O243 O 0.58099 0.647 0.08953 0.0
O244 O 0.52056 0.64925 0.06578 0.0
H245 H 0.63341 0.57346 0.16804 0.0
H246 H 0.55834 0.69346 0.95085 0.0
O247 O 0.5179 0.65239 0.93614 0.0
H248 H 0.48275 0.73976 0.06236 0.0
H249 H 0.38834 0.67828 0.95444 0.0
H250 H 0.46315 0.61977 0.05021 0.0
H251 H 0.48191 0.69092 0.05752 0.0
H252 H 0.45865 0.67965 0.95353 0.0
O253 O 0.64587 0.66128 0.04083 0.0
H254 H 0.5934 0.59859 0.1167 0.0
H255 H 0.69191 0.62254 0.04682 0.0
H256 H 0.39288 0.61792 0.05248 0.0
H257 H 0.55972 0.74237 0.95425 0.0
H258 H 0.355 0.64733 0.00434 0.0
H259 H 0.52182 0.76582 0.01042 0.0
O260 O 0.52061 0.61159 0.99783 0.0
H261 H 0.67465 0.63537 0.89487 0.0
H262 H 0.62983 0.57663 0.01209 0.0
H263 H 0.66159 0.55724 0.94823 0.0
H264 H 0.6843 0.58669 0.88908 0.0
H265 H 0.64238 0.65392 0.95912 0.0
H266 H 0.73301 0.59785 0.09761 0.0
H267 H 0.70375 0.57298 0.15864 0.0
O268 O 0.57168 0.60096 0.03814 0.0
C269 C 0.54535 0.65004 0.09602 0.0
C270 C 0.64649 0.58414 0.14149 0.0
C271 C 0.70239 0.59785 0.10199 0.0
N272 N 0.64027 0.61182 0.07859 0.0
C273 C 0.62397 0.59834 0.11224 0.0
C274 C 0.67898 0.61184 0.07338 0.0
C275 C 0.68595 0.5839 0.13622 0.0
C276 C 0.54148 0.70356 0.97509 0.0
N277 N 0.51998 0.68937 0.00383 0.0
C278 C 0.5425 0.73124 0.97699 0.0
C279 C 0.52128 0.74438 0.00856 0.0
C280 C 0.49938 0.72977 0.03774 0.0
C281 C 0.49911 0.70211 0.03492 0.0
C282 C 0.40453 0.66542 0.97566 0.0
C283 C 0.44685 0.63276 0.02941 0.0
C284 C 0.44434 0.66608 0.97524 0.0
N285 N 0.46496 0.64999 1.00213 0.0
C286 C 0.40707 0.63157 0.03072 0.0
C287 C 0.38584 0.64806 0.00367 0.0
C288 C 0.54121 0.5948 0.01793 0.0
C289 C 0.66499 0.62235 0.92049 0.0
C290 C 0.63951 0.58958 0.98643 0.0
C291 C 0.65757 0.57848 0.9504 0.0
C292 C 0.67033 0.59502 0.91723 0.0
N293 N 0.63439 0.61641 0.9894 0.0
C294 C 0.64686 0.63275 0.95703 0.0
Co295 Co 0.48327 0.3457 1.00177 0.0
Co296 Co 0.39534 0.36729 0.03779 0.0
O297 O 0.42748 0.34622 0.99884 0.0
C298 C 0.46773 0.36012 0.91063 0.0
O299 O 0.44176 0.37658 0.92529 0.0
C300 C 0.36355 0.31297 0.0444 0.0
O301 O 0.39863 0.304 0.04647 0.0
O302 O 0.42191 0.35281 0.08959 0.0
O303 O 0.4819 0.34596 0.06668 0.0
H304 H 0.36949 0.42768 0.16396 0.0
H305 H 0.4433 0.30536 0.94884 0.0
O306 O 0.48644 0.34559 0.93687 0.0
H307 H 0.51522 0.25466 0.05837 0.0
H308 H 0.6143 0.31621 0.95567 0.0
H309 H 0.54118 0.37377 0.05463 0.0
H310 H 0.51885 0.3035 0.05633 0.0
H311 H 0.544 0.31673 0.95337 0.0
O312 O 0.35729 0.33774 0.04076 0.0
H313 H 0.4097 0.40156 0.11417 0.0
H314 H 0.31157 0.37676 0.04441 0.0
H315 H 0.61146 0.37369 0.05831 0.0
H316 H 0.4391 0.25648 0.94944 0.0
H317 H 0.64849 0.34477 0.00855 0.0
H318 H 0.47516 0.23082 0.00459 0.0
O319 O 0.48532 0.38514 1.0009 0.0
H320 H 0.32994 0.36117 0.89327 0.0
H321 H 0.37442 0.42177 0.00813 0.0
H322 H 0.3434 0.44017 0.94302 0.0
H323 H 0.32088 0.40978 0.88504 0.0
H324 H 0.36144 0.34363 0.95875 0.0
H325 H 0.27026 0.40244 0.09365 0.0
H326 H 0.29922 0.42822 0.15385 0.0
O327 O 0.43206 0.39754 0.03595 0.0
C328 C 0.45691 0.34744 0.09667 0.0
C329 C 0.35654 0.41661 0.13776 0.0
C330 C 0.30084 0.40241 0.09833 0.0
N331 N 0.36304 0.38785 0.07619 0.0
C332 C 0.37917 0.40185 0.10938 0.0
C333 C 0.32437 0.38787 0.0706 0.0
C334 C 0.31711 0.41688 0.13209 0.0
C335 C 0.45933 0.29429 0.97267 0.0
N336 N 0.48136 0.30725 0.00243 0.0
C337 C 0.45673 0.26664 0.97297 0.0
C338 C 0.47692 0.25225 0.00397 0.0
C339 C 0.49938 0.26562 0.03418 0.0
C340 C 0.50123 0.29329 0.03295 0.0
C341 C 0.59849 0.32887 0.97757 0.0
C342 C 0.55711 0.36101 0.03307 0.0
C343 C 0.55868 0.32929 0.97636 0.0
N344 N 0.53852 0.34512 0.00407 0.0
C345 C 0.59689 0.3611 0.03521 0.0
C346 C 0.61765 0.34489 0.00726 0.0
C347 C 0.46419 0.40264 0.01855 0.0
C348 C 0.33952 0.37461 0.91838 0.0
C349 C 0.36478 0.40842 0.983 0.0
C350 C 0.34716 0.41895 0.94625 0.0
C351 C 0.3345 0.40189 0.91375 0.0
N352 N 0.36958 0.38163 0.98732 0.0
C353 C 0.35721 0.36478 0.95561 0.0
Co354 Co 0.52019 0.34545 0.50126 0.0
Co355 Co 0.60948 0.367 0.46857 0.0
O356 O 0.57595 0.3457 0.50563 0.0
C357 C 0.53453 0.36049 0.59245 0.0
O358 O 0.56137 0.37637 0.57808 0.0
C359 C 0.63893 0.3121 0.45917 0.0
O360 O 0.60354 0.30368 0.45752 0.0
O361 O 0.5827 0.35468 0.41521 0.0
O362 O 0.52309 0.34485 0.43663 0.0
H363 H 0.63904 0.43086 0.34817 0.0
H364 H 0.5589 0.30571 0.5566 0.0
O365 O 0.51564 0.34618 0.56605 0.0
H366 H 0.48884 0.25376 0.44705 0.0
H367 H 0.38799 0.317 0.54478 0.0
H368 H 0.46363 0.37295 0.44577 0.0
H369 H 0.4854 0.30263 0.44736 0.0
H370 H 0.45823 0.31733 0.54898 0.0
O371 O 0.64608 0.33671 0.46351 0.0
H372 H 0.59727 0.40417 0.39544 0.0
H373 H 0.69376 0.37447 0.46301 0.0
H374 H 0.39346 0.37306 0.4402 0.0
H375 H 0.56288 0.25684 0.55774 0.0
H376 H 0.35516 0.34494 0.48996 0.0
H377 H 0.52777 0.23054 0.50258 0.0
O378 O 0.51816 0.38497 0.50055 0.0
H379 H 0.67278 0.35493 0.61328 0.0
H380 H 0.63353 0.41992 0.5025 0.0
H381 H 0.66486 0.43555 0.56931 0.0
H382 H 0.68475 0.40294 0.62527 0.0
H383 H 0.64103 0.34018 0.54614 0.0
H384 H 0.7366 0.40068 0.41625 0.0
H385 H 0.70926 0.42921 0.35844 0.0
O386 O 0.57433 0.39791 0.47279 0.0
C387 C 0.54832 0.3479 0.40726 0.0
C388 C 0.6513 0.41857 0.37333 0.0
C389 C 0.70605 0.4016 0.4115 0.0
N390 N 0.64304 0.38793 0.43213 0.0
C391 C 0.62778 0.40346 0.40026 0.0
C392 C 0.68165 0.38676 0.43781 0.0
C393 C 0.69069 0.41761 0.37908 0.0
C394 C 0.54327 0.29438 0.53275 0.0
N395 N 0.52187 0.30699 0.50203 0.0
C396 C 0.54575 0.26672 0.53344 0.0
C397 C 0.52609 0.25198 0.50244 0.0
C398 C 0.50427 0.265 0.47125 0.0
C399 C 0.50252 0.29268 0.4715 0.0
C400 C 0.40437 0.3293 0.52286 0.0
C401 C 0.44716 0.36053 0.46735 0.0
C402 C 0.44414 0.32961 0.52515 0.0
N403 N 0.465 0.34499 0.49743 0.0
C404 C 0.40744 0.36074 0.46413 0.0
C405 C 0.38597 0.34498 0.49209 0.0
C406 C 0.5409 0.40284 0.4868 0.0
C407 C 0.66434 0.36932 0.58909 0.0
C408 C 0.64199 0.40561 0.52673 0.0
C409 C 0.65981 0.41458 0.56446 0.0
C410 C 0.67099 0.39627 0.59583 0.0
N411 N 0.63557 0.37915 0.52035 0.0
C412 C 0.6465 0.36108 0.55093 0.0
Co413 Co 0.48264 0.65198 0.50098 0.0
Co414 Co 0.39318 0.63219 0.46703 0.0
O415 O 0.42686 0.65298 0.50466 0.0
C416 C 0.46733 0.639 0.59253 0.0
O417 O 0.4404 0.62303 0.57866 0.0
C418 C 0.36383 0.68724 0.45915 0.0
O419 O 0.3992 0.69568 0.45722 0.0
O420 O 0.42004 0.64532 0.41429 0.0
O421 O 0.4806 0.65086 0.43633 0.0
H422 H 0.3632 0.57025 0.34411 0.0
H423 H 0.44574 0.69403 0.55329 0.0
O424 O 0.48649 0.6528 0.56569 0.0
H425 H 0.51854 0.74136 0.44052 0.0
H426 H 0.61557 0.67897 0.54413 0.0
H427 H 0.53857 0.62126 0.44927 0.0
H428 H 0.51947 0.69248 0.44414 0.0
H429 H 0.5453 0.68032 0.54712 0.0
O430 O 0.35672 0.66261 0.46313 0.0
H431 H 0.40514 0.59614 0.39239 0.0
H432 H 0.30885 0.62496 0.46132 0.0
H433 H 0.60875 0.61942 0.44494 0.0
H434 H 0.44429 0.74296 0.5511 0.0
H435 H 0.64774 0.64843 0.49261 0.0
H436 H 0.4808 0.76693 0.49432 0.0
O437 O 0.48269 0.61257 0.50293 0.0
H438 H 0.32991 0.64249 0.6121 0.0
H439 H 0.36872 0.57888 0.499 0.0
H440 H 0.33724 0.56245 0.56521 0.0
H441 H 0.31756 0.59437 0.62232 0.0
H442 H 0.36182 0.65803 0.54554 0.0
H443 H 0.26585 0.59956 0.41356 0.0
H444 H 0.29301 0.57187 0.35456 0.0
O445 O 0.42811 0.60094 0.47007 0.0
C446 C 0.45524 0.64977 0.40676 0.0
C447 C 0.35103 0.58218 0.36979 0.0
C448 C 0.29639 0.59866 0.40873 0.0
N449 N 0.35948 0.61189 0.42982 0.0
C450 C 0.37464 0.59682 0.39729 0.0
C451 C 0.32087 0.61304 0.43561 0.0
C452 C 0.31165 0.58312 0.37564 0.0
C453 C 0.46199 0.70435 0.52876 0.0
N454 N 0.48277 0.69044 0.499 0.0
C455 C 0.46093 0.73204 0.52756 0.0
C456 C 0.48137 0.74548 0.49565 0.0
C457 C 0.50253 0.73114 0.46542 0.0
C458 C 0.50286 0.70346 0.46756 0.0
C459 C 0.59889 0.6663 0.52309 0.0
C460 C 0.55535 0.6341 0.46986 0.0
C461 C 0.5591 0.66695 0.52467 0.0
N462 N 0.53787 0.6511 0.49803 0.0
C463 C 0.59507 0.6329 0.46738 0.0
C464 C 0.61693 0.64916 0.49417 0.0
C465 C 0.46032 0.59525 0.48682 0.0
C466 C 0.33826 0.62839 0.5874 0.0
C467 C 0.36038 0.59288 0.52375 0.0
C468 C 0.34246 0.58347 0.56113 0.0
C469 C 0.3314 0.60139 0.59315 0.0
N470 N 0.36703 0.6194 0.51835 0.0
C471 C 0.35619 0.63709 0.54957 0.0
H472 H 0.91902 0.94733 0.04548 0.0
H473 H 0.02724 0.92537 0.98855 0.0
H474 H 0.93791 0.99376 0.04406 0.0
H475 H 0.04587 0.97197 0.98695 0.0
H476 H 0.08155 0.05316 0.04087 0.0
H477 H 0.06194 0.00698 0.03983 0.0
H478 H 0.95114 0.02994 0.99167 0.0
H479 H 0.97057 0.07647 0.99291 0.0
C480 C 0.94676 0.95235 0.03245 0.0
C481 C 0.97158 0.93252 0.01706 0.0
C482 C 0.95746 0.97903 0.03145 0.0
C483 C 0.99331 0.98652 0.01533 0.0
C484 C 0.01816 0.96676 0.99993 0.0
C485 C 0.0074 0.94006 1.0007 0.0
C486 C 0.053 0.0485 0.02989 0.0
C487 C 0.02768 0.06864 0.01682 0.0
C488 C 0.04187 0.02193 0.0291 0.0
C489 C 0.00508 0.0148 0.01548 0.0
C490 C 0.97961 0.03487 0.00263 0.0
C491 C 0.99082 0.06151 0.00317 0.0
H492 H 0.05614 0.94134 0.42539 0.0
H493 H 0.99993 0.93061 0.54879 0.0
H494 H 0.03791 0.98818 0.42556 0.0
H495 H 0.98264 0.97779 0.54928 0.0
H496 H 0.00891 0.07153 0.54519 0.0
H497 H 0.02749 0.02456 0.54647 0.0
H498 H 0.96573 0.01144 0.4275 0.0
H499 H 0.94626 0.05799 0.42664 0.0
C500 C 0.04003 0.94902 0.45259 0.0
C501 C 0.0293 0.93234 0.48702 0.0
C502 C 0.02962 0.97574 0.45261 0.0
C503 C 0.0091 0.9864 0.4875 0.0
C504 C 0.99868 0.96991 0.52218 0.0
C505 C 0.00832 0.94298 0.52171 0.0
C506 C 0.99946 0.05861 0.51928 0.0
C507 C 0.97618 0.06837 0.48581 0.0
C508 C 0.00986 0.03182 0.52019 0.0
C509 C 0.99792 0.01461 0.4871 0.0
C510 C 0.97527 0.02444 0.45328 0.0
C511 C 0.96413 0.05101 0.45289 0.0
H512 H 0.5002 0.56844 0.95614 0.0
H513 H 0.5566 0.5576 0.07941 0.0
H514 H 0.48301 0.52124 0.9555 0.0
H515 H 0.53848 0.51075 0.07908 0.0
H516 H 0.44735 0.44068 0.07803 0.0
H517 H 0.46665 0.48728 0.07736 0.0
H518 H 0.52777 0.4746 0.95783 0.0
H519 H 0.50936 0.42759 0.95891 0.0
C520 C 0.50865 0.55604 0.98316 0.0
C521 C 0.52966 0.56666 0.01786 0.0
C522 C 0.49906 0.5291 0.98261 0.0
C523 C 0.50957 0.51257 0.0172 0.0
C524 C 0.53011 0.52321 0.0521 0.0
C525 C 0.54046 0.54995 0.0522 0.0
C526 C 0.46505 0.44778 0.0517 0.0
C527 C 0.47697 0.43053 0.01857 0.0
C528 C 0.47609 0.47437 0.05141 0.0
C529 C 0.4985 0.48434 0.0175 0.0
C530 C 0.51032 0.46724 0.98419 0.0
C531 C 0.50002 0.44042 0.98499 0.0
H532 H 0.47135 0.42297 0.51137 0.0
H533 H 0.58226 0.44658 0.46355 0.0
H534 H 0.45176 0.46946 0.51281 0.0
H535 H 0.56248 0.49272 0.46478 0.0
H536 H 0.52759 0.57417 0.5163 0.0
H537 H 0.54632 0.5276 0.51777 0.0
H538 H 0.43839 0.50572 0.46063 0.0
H539 H 0.41939 0.55212 0.45935 0.0
C540 C 0.49155 0.43798 0.50118 0.0
C541 C 0.52845 0.43095 0.48752 0.0
C542 C 0.48025 0.46461 0.50184 0.0
C543 C 0.50565 0.48474 0.48908 0.0
C544 C 0.54246 0.4777 0.47543 0.0
C545 C 0.55369 0.45116 0.47454 0.0
C546 C 0.50778 0.55946 0.50412 0.0
C547 C 0.47194 0.56698 0.48778 0.0
C548 C 0.5186 0.53278 0.50481 0.0
C549 C 0.4938 0.513 0.48935 0.0
C550 C 0.45792 0.52046 0.47328 0.0
C551 C 0.44716 0.54713 0.47236 0.0
H552 H 0.08777 0.13991 0.17049 0.0
H553 H 0.97933 0.1709 0.12712 0.0
H554 H 0.0656 0.14184 0.24521 0.0
H555 H 0.95774 0.17363 0.20178 0.0
H556 H 0.91541 0.14253 0.33287 0.0
H557 H 0.93823 0.14461 0.25854 0.0
H558 H 0.04872 0.17038 0.30406 0.0
H559 H 0.02632 0.1675 0.37853 0.0
C560 C 0.05944 0.14753 0.17686 0.0
C561 C 0.03536 0.15515 0.14261 0.0
C562 C 0.04675 0.14875 0.21982 0.0
C563 C 0.00975 0.15778 0.22965 0.0
C564 C 0.98613 0.16611 0.19546 0.0
C565 C 0.99869 0.16473 0.15254 0.0
C566 C 0.94449 0.14886 0.32711 0.0
C567 C 0.96897 0.1548 0.36187 0.0
C568 C 0.95757 0.15018 0.28434 0.0
C569 C 0.99541 0.15762 0.27516 0.0
C570 C 0.01961 0.16416 0.30988 0.0
C571 C 0.00662 0.1627 0.35266 0.0
H572 H 0.08492 0.83157 0.33814 0.0
H573 H 0.97387 0.85951 0.37776 0.0
H574 H 0.06253 0.82821 0.26362 0.0
H575 H 0.95208 0.85777 0.30326 0.0
H576 H 0.02679 0.85642 0.12989 0.0
H577 H 0.04779 0.85429 0.20451 0.0
H578 H 0.93367 0.83253 0.24423 0.0
H579 H 0.91221 0.83631 0.16933 0.0
C580 C 0.05577 0.83711 0.33086 0.0
C581 C 0.03124 0.84585 0.36385 0.0
C582 C 0.04292 0.83538 0.28804 0.0
C583 C 0.00545 0.84292 0.27698 0.0
C584 C 0.98085 0.85131 0.31029 0.0
C585 C 0.99347 0.85251 0.35317 0.0
C586 C 0.00614 0.85109 0.15448 0.0
C587 C 0.96774 0.84668 0.14363 0.0
C588 C 0.01831 0.84963 0.19747 0.0
C589 C 0.99257 0.84319 0.23083 0.0
C590 C 0.95426 0.83808 0.21973 0.0
C591 C 0.94192 0.84006 0.1767 0.0
H592 H 0.97214 0.84057 0.63254 0.0
H593 H 0.07977 0.87773 0.6638 0.0
H594 H 0.95511 0.8402 0.70922 0.0
H595 H 0.06271 0.87702 0.74075 0.0
H596 H 0.03239 0.84154 0.87584 0.0
H597 H 0.04969 0.84111 0.7992 0.0
H598 H 0.94119 0.87634 0.76687 0.0
H599 H 0.92386 0.8771 0.84372 0.0
C600 C 0.99229 0.84849 0.6558 0.0
C601 C 0.02734 0.85919 0.64214 0.0
C602 C 0.98238 0.84842 0.69963 0.0
C603 C 0.00755 0.85864 0.7308 0.0
C604 C 0.04289 0.86891 0.71732 0.0
C605 C 0.05257 0.86938 0.67334 0.0
C606 C 0.01213 0.84911 0.85241 0.0
C607 C 0.97673 0.85937 0.86579 0.0
C608 C 0.02218 0.84901 0.8086 0.0
C609 C 0.99681 0.85873 0.77723 0.0
C610 C 0.96118 0.8686 0.79046 0.0
C611 C 0.95135 0.86912 0.83439 0.0
H612 H 0.07717 0.12203 0.84371 0.0
H613 H 0.968 0.15716 0.87404 0.0
H614 H 0.0607 0.12249 0.7666 0.0
H615 H 0.9515 0.15725 0.79711 0.0
H616 H 0.92337 0.1208 0.66103 0.0
H617 H 0.93956 0.12129 0.73823 0.0
H618 H 0.0472 0.15862 0.7086 0.0
H619 H 0.03098 0.1585 0.63162 0.0
C620 C 0.04969 0.12981 0.83394 0.0
C621 C 0.02392 0.13958 0.86493 0.0
C622 C 0.04035 0.13017 0.78984 0.0
C623 C 0.0048 0.13985 0.77598 0.0
C624 C 0.97897 0.1495 0.80696 0.0
C625 C 0.98855 0.14958 0.85094 0.0
C626 C 0.95042 0.12918 0.67103 0.0
C627 C 0.97586 0.13962 0.64025 0.0
C628 C 0.9596 0.12954 0.71517 0.0
C629 C 0.99468 0.13992 0.7293 0.0
C630 C 0.02012 0.15032 0.69854 0.0
C631 C 0.01068 0.15038 0.65453 0.0
H632 H 0.58528 0.66752 0.16674 0.0
H633 H 0.47417 0.63961 0.12717 0.0
H634 H 0.56287 0.67101 0.24123 0.0
H635 H 0.45237 0.64147 0.20165 0.0
H636 H 0.41251 0.66311 0.33553 0.0
H637 H 0.43399 0.66677 0.26061 0.0
H638 H 0.54808 0.64504 0.30044 0.0
H639 H 0.52708 0.64303 0.37505 0.0
C640 C 0.55611 0.66202 0.17402 0.0
C641 C 0.53157 0.65324 0.14106 0.0
C642 C 0.54325 0.66381 0.21683 0.0
C643 C 0.50576 0.65632 0.22791 0.0
C644 C 0.48116 0.6479 0.19461 0.0
C645 C 0.49378 0.64663 0.15174 0.0
C646 C 0.44223 0.65934 0.32818 0.0
C647 C 0.46803 0.65277 0.36127 0.0
C648 C 0.45457 0.66126 0.28514 0.0
C649 C 0.49288 0.65611 0.27406 0.0
C650 C 0.5186 0.64973 0.30745 0.0
C651 C 0.50644 0.64834 0.35044 0.0
H652 H 0.58846 0.36007 0.33349 0.0
H653 H 0.48048 0.32837 0.37699 0.0
H654 H 0.56629 0.3579 0.25878 0.0
H655 H 0.4589 0.32541 0.30236 0.0
H656 H 0.4161 0.356 0.17116 0.0
H657 H 0.43895 0.35417 0.24549 0.0
H658 H 0.54981 0.32917 0.20003 0.0
H659 H 0.52737 0.33181 0.12556 0.0
C660 C 0.56024 0.35225 0.32715 0.0
C661 C 0.53628 0.34448 0.36143 0.0
C662 C 0.54755 0.35089 0.2842 0.0
C663 C 0.51068 0.34159 0.27441 0.0
C664 C 0.48718 0.33313 0.30864 0.0
C665 C 0.49974 0.33465 0.35155 0.0
C666 C 0.44526 0.34989 0.17694 0.0
C667 C 0.46984 0.3441 0.14219 0.0
C668 C 0.45837 0.34872 0.21971 0.0
C669 C 0.49632 0.34157 0.22891 0.0
C670 C 0.52061 0.33517 0.1942 0.0
C671 C 0.50759 0.33649 0.15142 0.0
H672 H 0.53207 0.3406 0.87247 0.0
H673 H 0.42431 0.37805 0.84303 0.0
H674 H 0.54838 0.34061 0.79551 0.0
H675 H 0.44058 0.37769 0.76585 0.0
H676 H 0.46922 0.34208 0.63 0.0
H677 H 0.45273 0.34182 0.70692 0.0
H678 H 0.56174 0.37686 0.73758 0.0
H679 H 0.57821 0.37748 0.66047 0.0
C680 C 0.51176 0.34868 0.84956 0.0
C681 C 0.47687 0.35934 0.86382 0.0
C682 C 0.52124 0.34883 0.80556 0.0
C683 C 0.49578 0.3592 0.7748 0.0
C684 C 0.46064 0.36946 0.78891 0.0
C685 C 0.45141 0.36975 0.83304 0.0
C686 C 0.48973 0.34969 0.65312 0.0
C687 C 0.52504 0.35982 0.63917 0.0
C688 C 0.48016 0.34967 0.6971 0.0
C689 C 0.50593 0.35934 0.72813 0.0
C690 C 0.54143 0.36915 0.7143 0.0
C691 C 0.55077 0.36961 0.67021 0.0
H692 H 0.58014 0.6212 0.84105 0.0
H693 H 0.47268 0.65855 0.87236 0.0
H694 H 0.56308 0.622 0.76409 0.0
H695 H 0.45566 0.65901 0.79569 0.0
H696 H 0.42418 0.62233 0.66115 0.0
H697 H 0.44156 0.62295 0.73798 0.0
H698 H 0.55021 0.658 0.7057 0.0
H699 H 0.53285 0.65771 0.62906 0.0
C700 C 0.55297 0.6296 0.83152 0.0
C701 C 0.52779 0.63983 0.86274 0.0
C702 C 0.54329 0.63014 0.78753 0.0
C703 C 0.508 0.64048 0.77408 0.0
C704 C 0.48289 0.65073 0.80526 0.0
C705 C 0.49279 0.65061 0.8491 0.0
C706 C 0.45171 0.63023 0.67048 0.0
C707 C 0.47711 0.63999 0.6391 0.0
C708 C 0.46158 0.63067 0.7144 0.0
C709 C 0.49726 0.64045 0.72765 0.0
C710 C 0.52266 0.65017 0.69628 0.0
C711 C 0.51257 0.65014 0.65249 0.0
H712 H 0.36304 0.25983 0.02646 0.0
H713 H 0.28993 0.32453 0.06519 0.0
H714 H 0.30833 0.23001 0.02609 0.0
H715 H 0.2356 0.29462 0.06715 0.0
H716 H 0.21133 0.17696 0.06768 0.0
H717 H 0.26533 0.20711 0.06948 0.0
H718 H 0.19267 0.27083 0.02472 0.0
H719 H 0.13817 0.24075 0.02526 0.0
C720 C 0.33533 0.26758 0.03545 0.0
C721 C 0.33078 0.2945 0.04577 0.0
C722 C 0.3039 0.25046 0.0355 0.0
C723 C 0.26727 0.25978 0.04664 0.0
C724 C 0.26303 0.28673 0.05751 0.0
C725 C 0.2943 0.3039 0.05673 0.0
C726 C 0.20688 0.19746 0.05842 0.0
C727 C 0.1705 0.20651 0.04636 0.0
C728 C 0.23798 0.21476 0.05908 0.0
C729 C 0.23371 0.2415 0.04695 0.0
C730 C 0.19712 0.25054 0.035 0.0
C731 C 0.16582 0.23328 0.03508 0.0
H732 H 0.713 0.6748 0.06524 0.0
H733 H 0.63961 0.73911 0.02541 0.0
H734 H 0.76705 0.70493 0.06747 0.0
H735 H 0.69409 0.76915 0.02532 0.0
H736 H 0.79016 0.82263 0.06825 0.0
H737 H 0.73644 0.79224 0.06932 0.0
H738 H 0.81011 0.72887 0.02537 0.0
H739 H 0.86433 0.75919 0.02664 0.0
C740 C 0.70851 0.69539 0.05657 0.0
C741 C 0.67203 0.70462 0.04525 0.0
C742 C 0.73963 0.71268 0.05752 0.0
C743 C 0.73523 0.73959 0.04646 0.0
C744 C 0.69862 0.74873 0.03489 0.0
C745 C 0.66733 0.73149 0.03467 0.0
C746 C 0.79489 0.80216 0.05899 0.0
C747 C 0.83147 0.79327 0.04739 0.0
C748 C 0.76395 0.78472 0.05924 0.0
C749 C 0.7686 0.75801 0.04712 0.0
C750 C 0.80537 0.74914 0.03561 0.0
C751 C 0.83651 0.76653 0.03612 0.0
H752 H 0.13948 0.75985 0.47938 0.0
H753 H 0.21272 0.82437 0.44003 0.0
H754 H 0.19406 0.72992 0.47947 0.0
H755 H 0.26688 0.79436 0.43781 0.0
H756 H 0.36429 0.74023 0.47862 0.0
H757 H 0.30995 0.77044 0.4799 0.0
H758 H 0.2366 0.70699 0.43549 0.0
H759 H 0.29044 0.67671 0.43654 0.0
C760 C 0.16719 0.76754 0.47023 0.0
C761 C 0.17181 0.79444 0.45979 0.0
C762 C 0.19854 0.75037 0.47001 0.0
C763 C 0.23515 0.7596 0.45858 0.0
C764 C 0.23947 0.78653 0.44766 0.0
C765 C 0.20828 0.80376 0.44861 0.0
C766 C 0.33652 0.73285 0.46905 0.0
C767 C 0.3316 0.70612 0.45764 0.0
C768 C 0.30531 0.75017 0.46956 0.0
C769 C 0.26859 0.74125 0.45792 0.0
C770 C 0.26407 0.71455 0.44567 0.0
C771 C 0.29508 0.69718 0.4459 0.0
H772 H 0.71225 0.32263 0.43616 0.0
H773 H 0.63838 0.25903 0.47786 0.0
H774 H 0.76596 0.29223 0.43427 0.0
H775 H 0.69257 0.22871 0.47833 0.0
H776 H 0.78937 0.17465 0.43801 0.0
H777 H 0.73536 0.20484 0.43592 0.0
H778 H 0.80861 0.26903 0.4776 0.0
H779 H 0.86301 0.23896 0.47733 0.0
C780 C 0.70759 0.30211 0.44524 0.0
C781 C 0.6711 0.29319 0.45712 0.0
C782 C 0.73851 0.28468 0.44452 0.0
C783 C 0.73395 0.25792 0.45644 0.0
C784 C 0.69725 0.24901 0.46821 0.0
C785 C 0.66612 0.2664 0.46817 0.0
C786 C 0.79392 0.19526 0.44657 0.0
C787 C 0.83045 0.20447 0.45773 0.0
C788 C 0.76283 0.21258 0.44571 0.0
C789 C 0.76732 0.23949 0.45673 0.0
C790 C 0.804 0.24862 0.46807 0.0
C791 C 0.83525 0.23135 0.46817 0.0
loop_
_geom_bond_atom_site_label_1
_geom_bond_atom_site_label_2
_geom_bond_distance
_geom_bond_site_symmetry_2
_ccdc_geom_bond_type
Co0 O2 2.146 1_554 S
Co0 O8 2.092 . S
Co0 O11 2.074 1_454 S
Co0 O24 2.097 1_554 S
Co0 N41 2.150 1_455 S
Co0 N49 2.211 1_455 S
Co1 O2 2.160 1_554 S
Co1 O7 2.058 . S
Co1 O17 2.057 . S
Co1 O32 2.037 . S
Co1 N36 2.145 . S
Co1 N57 2.257 1_554 S
O2 Co0 2.146 1_556 S
O2 Co1 2.160 1_556 S
C3 O4 1.278 . S
C3 O11 1.224 1_455 S
O4 C3 1.278 . S
C5 O6 1.245 . S
C5 O17 1.232 . S
O6 C5 1.245 . S
O7 Co1 2.058 . S
O7 C33 1.269 . S
O8 Co0 2.092 . S
O8 C33 1.257 . S
H9 C34 0.930 . S
H10 C40 0.930 1_455 S
O11 Co0 2.074 1_656 S
O11 C3 1.224 1_655 S
H12 C44 0.929 . S
H13 C46 0.930 . S
H14 C47 0.930 . S
H15 C45 0.929 . S
H16 C48 0.928 . S
O17 Co1 2.057 . S
O17 C5 1.232 . S
H18 C37 0.929 . S
H19 C38 0.929 . S
H20 C50 0.931 . S
H21 C42 0.929 . S
H22 C51 0.930 . S
H23 C43 0.931 . S
O24 Co0 2.097 1_556 S
O24 C52 1.214 1_556 S
H25 C53 0.929 . S
H26 C54 0.929 1_554 S
H27 C55 0.930 . S
H28 C56 0.929 . S
H29 C58 0.930 . S
H30 C35 0.930 . S
H31 C39 0.930 . S
O32 Co1 2.037 . S
O32 C52 1.234 . S
C33 O7 1.269 . S
C33 O8 1.257 . S
C34 H9 0.930 . S
C34 C37 1.388 . S
C34 C39 1.418 . S
C35 H30 0.930 . S
C35 C38 1.404 . S
C35 C39 1.353 . S
N36 Co1 2.145 . S
N36 C37 1.397 . S
N36 C38 1.334 . S
C37 H18 0.929 . S
C37 C34 1.388 . S
C37 N36 1.397 . S
C38 H19 0.929 . S
C38 C35 1.404 . S
C38 N36 1.334 . S
C39 H31 0.930 . S
C39 C34 1.418 . S
C39 C35 1.353 . S
C40 H10 0.930 1_655 S
C40 N41 1.330 1_556 S
C40 C42 1.446 . S
N41 Co0 2.150 1_655 S
N41 C40 1.330 1_554 S
N41 C45 1.418 . S
C42 H21 0.929 . S
C42 C40 1.446 . S
C42 C43 1.332 1_556 S
C43 H23 0.931 . S
C43 C42 1.332 1_554 S
C43 C44 1.267 . S
C44 H12 0.929 . S
C44 C43 1.267 . S
C44 C45 1.251 . S
C45 H15 0.929 . S
C45 N41 1.418 . S
C45 C44 1.251 . S
C46 H13 0.930 . S
C46 C48 1.406 . S
C46 C51 1.261 1_556 S
C47 H14 0.930 . S
C47 N49 1.325 . S
C47 C50 1.357 . S
C48 H16 0.928 . S
C48 C46 1.406 . S
C48 N49 1.261 1_556 S
N49 Co0 2.211 1_655 S
N49 C47 1.325 . S
N49 C48 1.261 1_554 S
C50 H20 0.931 . S
C50 C47 1.357 . S
C50 C51 1.312 . S
C51 H22 0.930 . S
C51 C46 1.261 1_554 S
C51 C50 1.312 . S
C52 O24 1.214 1_554 S
C52 O32 1.234 . S
C53 H25 0.929 . S
C53 C56 1.391 . S
C53 C58 1.391 . S
C54 H26 0.929 1_556 S
C54 C55 1.390 . S
C54 N57 1.391 . S
C55 H27 0.930 . S
C55 C54 1.390 . S
C55 C56 1.392 . S
C56 H28 0.929 . S
C56 C53 1.391 . S
C56 C55 1.392 . S
N57 Co1 2.257 1_556 S
N57 C54 1.391 . S
N57 C58 1.388 . S
C58 H29 0.930 . S
C58 C53 1.391 . S
C58 N57 1.388 . S
Co59 O61 2.146 1_554 S
Co59 O67 2.092 . S
Co59 O70 2.074 1_654 S
Co59 O83 2.097 1_554 S
Co59 N100 2.150 1_655 S
Co59 N108 2.211 1_655 S
Co60 O61 2.160 1_554 S
Co60 O66 2.058 . S
Co60 O76 2.057 . S
Co60 O91 2.037 . S
Co60 N95 2.145 . S
Co60 N116 2.257 1_554 S
O61 Co59 2.146 1_556 S
O61 Co60 2.160 1_556 S
C62 O63 1.278 . S
C62 O70 1.224 1_655 S
O63 C62 1.278 . S
C64 O65 1.245 . S
C64 O76 1.232 . S
O65 C64 1.245 . S
O66 Co60 2.058 . S
O66 C92 1.269 . S
O67 Co59 2.092 . S
O67 C92 1.257 . S
H68 C93 0.930 . S
H69 C99 0.930 1_655 S
O70 Co59 2.074 1_456 S
O70 C62 1.224 1_455 S
H71 C103 0.929 . S
H72 C105 0.930 . S
H73 C106 0.930 . S
H74 C104 0.929 . S
H75 C107 0.928 . S
O76 Co60 2.057 . S
O76 C64 1.232 . S
H77 C96 0.929 . S
H78 C97 0.929 . S
H79 C109 0.931 . S
H80 C101 0.929 . S
H81 C110 0.930 . S
H82 C102 0.931 . S
O83 Co59 2.097 1_556 S
O83 C111 1.214 1_556 S
H84 C112 0.929 . S
H85 C113 0.929 1_554 S
H86 C114 0.930 . S
H87 C115 0.929 . S
H88 C117 0.930 . S
H89 C94 0.930 . S
H90 C98 0.930 . S
O91 Co60 2.037 . S
O91 C111 1.234 . S
C92 O66 1.269 . S
C92 O67 1.257 . S
C93 H68 0.930 . S
C93 C96 1.388 . S
C93 C98 1.418 . S
C94 H89 0.930 . S
C94 C97 1.404 . S
C94 C98 1.353 . S
N95 Co60 2.145 . S
N95 C96 1.397 . S
N95 C97 1.334 . S
C96 H77 0.929 . S
C96 C93 1.388 . S
C96 N95 1.397 . S
C97 H78 0.929 . S
C97 C94 1.404 . S
C97 N95 1.334 . S
C98 H90 0.930 . S
C98 C93 1.418 . S
C98 C94 1.353 . S
C99 H69 0.930 1_455 S
C99 N100 1.330 1_556 S
C99 C101 1.446 . S
N100 Co59 2.150 1_455 S
N100 C99 1.330 1_554 S
N100 C104 1.418 . S
C101 H80 0.929 . S
C101 C99 1.446 . S
C101 C102 1.332 1_556 S
C102 H82 0.931 . S
C102 C101 1.332 1_554 S
C102 C103 1.267 . S
C103 H71 0.929 . S
C103 C102 1.267 . S
C103 C104 1.251 . S
C104 H74 0.929 . S
C104 N100 1.418 . S
C104 C103 1.251 . S
C105 H72 0.930 . S
C105 C107 1.406 . S
C105 C110 1.261 1_556 S
C106 H73 0.930 . S
C106 N108 1.325 . S
C106 C109 1.357 . S
C107 H75 0.928 . S
C107 C105 1.406 . S
C107 N108 1.261 1_556 S
N108 Co59 2.211 1_455 S
N108 C106 1.325 . S
N108 C107 1.261 1_554 S
C109 H79 0.931 . S
C109 C106 1.357 . S
C109 C110 1.312 . S
C110 H81 0.930 . S
C110 C105 1.261 1_554 S
C110 C109 1.312 . S
C111 O83 1.214 1_554 S
C111 O91 1.234 . S
C112 H84 0.929 . S
C112 C115 1.391 . S
C112 C117 1.391 . S
C113 H85 0.929 1_556 S
C113 C114 1.390 . S
C113 N116 1.391 . S
C114 H86 0.930 . S
C114 C113 1.390 . S
C114 C115 1.392 . S
C115 H87 0.929 . S
C115 C112 1.391 . S
C115 C114 1.392 . S
N116 Co60 2.257 1_556 S
N116 C113 1.391 . S
N116 C117 1.388 . S
C117 H88 0.930 . S
C117 C112 1.391 . S
C117 N116 1.388 . S
Co118 O120 2.147 . S
Co118 O126 2.074 . S
Co118 O129 2.092 1_455 S
Co118 O142 2.098 . S
Co118 N159 2.149 1_455 S
Co118 N167 2.209 1_455 S
Co119 O120 2.160 . S
Co119 O125 2.058 . S
Co119 O135 2.057 . S
Co119 O150 2.037 . S
Co119 N154 2.145 . S
Co119 N175 2.257 . S
O120 Co118 2.147 . S
O120 Co119 2.160 . S
C121 O122 1.278 . S
C121 O129 1.224 1_455 S
O122 C121 1.278 . S
C123 O124 1.245 . S
C123 O135 1.232 . S
O124 C123 1.245 . S
O125 Co119 2.058 . S
O125 C151 1.269 . S
O126 Co118 2.074 . S
O126 C151 1.257 . S
H127 C152 0.930 . S
H128 C158 0.930 1_455 S
O129 Co118 2.092 1_655 S
O129 C121 1.224 1_655 S
H130 C162 0.929 . S
H131 C164 0.930 . S
H132 C165 0.930 . S
H133 C163 0.929 . S
H134 C166 0.928 . S
O135 Co119 2.057 . S
O135 C123 1.232 . S
H136 C155 0.929 . S
H137 C156 0.929 . S
H138 C168 0.931 . S
H139 C160 0.929 . S
H140 C169 0.930 . S
H141 C161 0.931 . S
O142 Co118 2.098 . S
O142 C170 1.214 . S
H143 C171 0.929 . S
H144 C172 0.929 . S
H145 C173 0.930 . S
H146 C174 0.929 . S
H147 C176 0.930 . S
H148 C153 0.930 . S
H149 C157 0.930 . S
O150 Co119 2.037 . S
O150 C170 1.234 . S
C151 O125 1.269 . S
C151 O126 1.257 . S
C152 H127 0.930 . S
C152 C155 1.388 . S
C152 C157 1.418 . S
C153 H148 0.930 . S
C153 C156 1.404 . S
C153 C157 1.353 . S
N154 Co119 2.145 . S
N154 C155 1.397 . S
N154 C156 1.334 . S
C155 H136 0.929 . S
C155 C152 1.388 . S
C155 N154 1.397 . S
C156 H137 0.929 . S
C156 C153 1.404 . S
C156 N154 1.334 . S
C157 H149 0.930 . S
C157 C152 1.418 . S
C157 C153 1.353 . S
C158 H128 0.930 1_655 S
C158 N159 1.330 . S
C158 C160 1.446 . S
N159 Co118 2.149 1_655 S
N159 C158 1.330 . S
N159 C163 1.418 . S
C160 H139 0.929 . S
C160 C158 1.446 . S
C160 C161 1.332 . S
C161 H141 0.931 . S
C161 C160 1.332 . S
C161 C162 1.267 . S
C162 H130 0.929 . S
C162 C161 1.267 . S
C162 C163 1.251 . S
C163 H133 0.929 . S
C163 N159 1.418 . S
C163 C162 1.251 . S
C164 H131 0.930 . S
C164 C166 1.406 . S
C164 C169 1.261 . S
C165 H132 0.930 . S
C165 N167 1.325 . S
C165 C168 1.357 . S
C166 H134 0.928 . S
C166 C164 1.406 . S
C166 N167 1.261 . S
N167 Co118 2.209 1_655 S
N167 C165 1.325 . S
N167 C166 1.261 . S
C168 H138 0.931 . S
C168 C165 1.357 . S
C168 C169 1.312 . S
C169 H140 0.930 . S
C169 C164 1.261 . S
C169 C168 1.312 . S
C170 O142 1.214 . S
C170 O150 1.234 . S
C171 H143 0.929 . S
C171 C174 1.391 . S
C171 C176 1.391 . S
C172 H144 0.929 . S
C172 C173 1.390 . S
C172 N175 1.391 . S
C173 H145 0.930 . S
C173 C172 1.390 . S
C173 C174 1.392 . S
C174 H146 0.929 . S
C174 C171 1.391 . S
C174 C173 1.392 . S
N175 Co119 2.257 . S
N175 C172 1.391 . S
N175 C176 1.388 . S
C176 H147 0.930 . S
C176 C171 1.391 . S
C176 N175 1.388 . S
Co177 O179 2.147 . S
Co177 O185 2.074 . S
Co177 O188 2.092 1_655 S
Co177 O201 2.098 . S
Co177 N218 2.149 1_655 S
Co177 N226 2.209 1_655 S
Co178 O179 2.160 . S
Co178 O184 2.058 . S
Co178 O194 2.057 . S
Co178 O209 2.037 . S
Co178 N213 2.145 . S
Co178 N234 2.257 . S
O179 Co177 2.147 . S
O179 Co178 2.160 . S
C180 O181 1.278 . S
C180 O188 1.224 1_655 S
O181 C180 1.278 . S
C182 O183 1.245 . S
C182 O194 1.232 . S
O183 C182 1.245 . S
O184 Co178 2.058 . S
O184 C210 1.269 . S
O185 Co177 2.074 . S
O185 C210 1.257 . S
H186 C211 0.930 . S
H187 C217 0.930 1_655 S
O188 Co177 2.092 1_455 S
O188 C180 1.224 1_455 S
H189 C221 0.929 . S
H190 C223 0.930 . S
H191 C224 0.930 . S
H192 C222 0.929 . S
H193 C225 0.928 . S
O194 Co178 2.057 . S
O194 C182 1.232 . S
H195 C214 0.929 . S
H196 C215 0.929 . S
H197 C227 0.931 . S
H198 C219 0.929 . S
H199 C228 0.930 . S
H200 C220 0.931 . S
O201 Co177 2.098 . S
O201 C229 1.214 . S
H202 C230 0.929 . S
H203 C231 0.929 . S
H204 C232 0.930 . S
H205 C233 0.929 . S
H206 C235 0.930 . S
H207 C212 0.930 . S
H208 C216 0.930 . S
O209 Co178 2.037 . S
O209 C229 1.234 . S
C210 O184 1.269 . S
C210 O185 1.257 . S
C211 H186 0.930 . S
C211 C214 1.388 . S
C211 C216 1.418 . S
C212 H207 0.930 . S
C212 C215 1.404 . S
C212 C216 1.353 . S
N213 Co178 2.145 . S
N213 C214 1.397 . S
N213 C215 1.334 . S
C214 H195 0.929 . S
C214 C211 1.388 . S
C214 N213 1.397 . S
C215 H196 0.929 . S
C215 C212 1.404 . S
C215 N213 1.334 . S
C216 H208 0.930 . S
C216 C211 1.418 . S
C216 C212 1.353 . S
C217 H187 0.930 1_455 S
C217 N218 1.330 . S
C217 C219 1.446 . S
N218 Co177 2.149 1_455 S
N218 C217 1.330 . S
N218 C222 1.418 . S
C219 H198 0.929 . S
C219 C217 1.446 . S
C219 C220 1.332 . S
C220 H200 0.931 . S
C220 C219 1.332 . S
C220 C221 1.267 . S
C221 H189 0.929 . S
C221 C220 1.267 . S
C221 C222 1.251 . S
C222 H192 0.929 . S
C222 N218 1.418 . S
C222 C221 1.251 . S
C223 H190 0.930 . S
C223 C225 1.406 . S
C223 C228 1.261 . S
C224 H191 0.930 . S
C224 N226 1.325 . S
C224 C227 1.357 . S
C225 H193 0.928 . S
C225 C223 1.406 . S
C225 N226 1.261 . S
N226 Co177 2.209 1_455 S
N226 C224 1.325 . S
N226 C225 1.261 . S
C227 H197 0.931 . S
C227 C224 1.357 . S
C227 C228 1.312 . S
C228 H199 0.930 . S
C228 C223 1.261 . S
C228 C227 1.312 . S
C229 O201 1.214 . S
C229 O209 1.234 . S
C230 H202 0.929 . S
C230 C233 1.391 . S
C230 C235 1.391 . S
C231 H203 0.929 . S
C231 C232 1.390 . S
C231 N234 1.391 . S
C232 H204 0.930 . S
C232 C231 1.390 . S
C232 C233 1.392 . S
C233 H205 0.929 . S
C233 C230 1.391 . S
C233 C232 1.392 . S
N234 Co178 2.257 . S
N234 C231 1.391 . S
N234 C235 1.388 . S
C235 H206 0.930 . S
C235 C230 1.391 . S
C235 N234 1.388 . S
Co236 O238 2.141 1_554 S
Co236 O244 2.092 . S
Co236 O247 2.074 1_554 S
Co236 O260 2.096 1_554 S
Co236 N277 2.151 . S
Co236 N285 2.216 . S
Co237 O238 2.160 1_554 S
Co237 O243 2.058 . S
Co237 O253 2.057 . S
Co237 O268 2.037 . S
Co237 N272 2.145 . S
Co237 N293 2.257 1_554 S
O238 Co236 2.141 1_556 S
O238 Co237 2.160 1_556 S
C239 O240 1.278 . S
C239 O247 1.224 . S
O240 C239 1.278 . S
C241 O242 1.245 . S
C241 O253 1.232 . S
O242 C241 1.245 . S
O243 Co237 2.058 . S
O243 C269 1.269 . S
O244 Co236 2.092 . S
O244 C269 1.257 . S
H245 C270 0.930 . S
H246 C276 0.930 . S
O247 Co236 2.074 1_556 S
O247 C239 1.224 . S
H248 C280 0.929 . S
H249 C282 0.930 . S
H250 C283 0.930 . S
H251 C281 0.929 . S
H252 C284 0.928 . S
O253 Co237 2.057 . S
O253 C241 1.232 . S
H254 C273 0.929 . S
H255 C274 0.929 . S
H256 C286 0.931 . S
H257 C278 0.929 . S
H258 C287 0.930 . S
H259 C279 0.931 . S
O260 Co236 2.096 1_556 S
O260 C288 1.214 1_556 S
H261 C289 0.929 . S
H262 C290 0.929 1_554 S
H263 C291 0.930 . S
H264 C292 0.929 . S
H265 C294 0.930 . S
H266 C271 0.930 . S
H267 C275 0.930 . S
O268 Co237 2.037 . S
O268 C288 1.234 . S
C269 O243 1.269 . S
C269 O244 1.257 . S
C270 H245 0.930 . S
C270 C273 1.388 . S
C270 C275 1.418 . S
C271 H266 0.930 . S
C271 C274 1.404 . S
C271 C275 1.353 . S
N272 Co237 2.145 . S
N272 C273 1.397 . S
N272 C274 1.334 . S
C273 H254 0.929 . S
C273 C270 1.388 . S
C273 N272 1.397 . S
C274 H255 0.929 . S
C274 C271 1.404 . S
C274 N272 1.334 . S
C275 H267 0.930 . S
C275 C270 1.418 . S
C275 C271 1.353 . S
C276 H246 0.930 . S
C276 N277 1.330 1_556 S
C276 C278 1.446 . S
N277 Co236 2.151 . S
N277 C276 1.330 1_554 S
N277 C281 1.418 . S
C278 H257 0.929 . S
C278 C276 1.446 . S
C278 C279 1.332 1_556 S
C279 H259 0.931 . S
C279 C278 1.332 1_554 S
C279 C280 1.267 . S
C280 H248 0.929 . S
C280 C279 1.267 . S
C280 C281 1.251 . S
C281 H251 0.929 . S
C281 N277 1.418 . S
C281 C280 1.251 . S
C282 H249 0.930 . S
C282 C284 1.406 . S
C282 C287 1.261 1_556 S
C283 H250 0.930 . S
C283 N285 1.325 . S
C283 C286 1.357 . S
C284 H252 0.928 . S
C284 C282 1.406 . S
C284 N285 1.261 1_556 S
N285 Co236 2.216 . S
N285 C283 1.325 . S
N285 C284 1.261 1_554 S
C286 H256 0.931 . S
C286 C283 1.357 . S
C286 C287 1.312 . S
C287 H258 0.930 . S
C287 C282 1.261 1_554 S
C287 C286 1.312 . S
C288 O260 1.214 1_554 S
C288 O268 1.234 . S
C289 H261 0.929 . S
C289 C292 1.391 . S
C289 C294 1.391 . S
C290 H262 0.929 1_556 S
C290 C291 1.390 . S
C290 N293 1.391 . S
C291 H263 0.930 . S
C291 C290 1.390 . S
C291 C292 1.392 . S
C292 H264 0.929 . S
C292 C289 1.391 . S
C292 C291 1.392 . S
N293 Co237 2.257 1_556 S
N293 C290 1.391 . S
N293 C294 1.388 . S
C294 H265 0.930 . S
C294 C289 1.391 . S
C294 N293 1.388 . S
Co295 O297 2.141 1_554 S
Co295 O303 2.092 . S
Co295 O306 2.074 1_554 S
Co295 O319 2.096 1_554 S
Co295 N336 2.151 . S
Co295 N344 2.216 . S
Co296 O297 2.160 1_554 S
Co296 O302 2.058 . S
Co296 O312 2.057 . S
Co296 O327 2.037 . S
Co296 N331 2.145 . S
Co296 N352 2.257 1_554 S
O297 Co295 2.141 1_556 S
O297 Co296 2.160 1_556 S
C298 O299 1.278 . S
C298 O306 1.224 . S
O299 C298 1.278 . S
C300 O301 1.245 . S
C300 O312 1.232 . S
O301 C300 1.245 . S
O302 Co296 2.058 . S
O302 C328 1.269 . S
O303 Co295 2.092 . S
O303 C328 1.257 . S
H304 C329 0.930 . S
H305 C335 0.930 . S
O306 Co295 2.074 1_556 S
O306 C298 1.224 . S
H307 C339 0.929 . S
H308 C341 0.930 . S
H309 C342 0.930 . S
H310 C340 0.929 . S
H311 C343 0.928 . S
O312 Co296 2.057 . S
O312 C300 1.232 . S
H313 C332 0.929 . S
H314 C333 0.929 . S
H315 C345 0.931 . S
H316 C337 0.929 . S
H317 C346 0.930 . S
H318 C338 0.931 . S
O319 Co295 2.096 1_556 S
O319 C347 1.214 1_556 S
H320 C348 0.929 . S
H321 C349 0.929 1_554 S
H322 C350 0.930 . S
H323 C351 0.929 . S
H324 C353 0.930 . S
H325 C330 0.930 . S
H326 C334 0.930 . S
O327 Co296 2.037 . S
O327 C347 1.234 . S
C328 O302 1.269 . S
C328 O303 1.257 . S
C329 H304 0.930 . S
C329 C332 1.388 . S
C329 C334 1.418 . S
C330 H325 0.930 . S
C330 C333 1.404 . S
C330 C334 1.353 . S
N331 Co296 2.145 . S
N331 C332 1.397 . S
N331 C333 1.334 . S
C332 H313 0.929 . S
C332 C329 1.388 . S
C332 N331 1.397 . S
C333 H314 0.929 . S
C333 C330 1.404 . S
C333 N331 1.334 . S
C334 H326 0.930 . S
C334 C329 1.418 . S
C334 C330 1.353 . S
C335 H305 0.930 . S
C335 N336 1.330 1_556 S
C335 C337 1.446 . S
N336 Co295 2.151 . S
N336 C335 1.330 1_554 S
N336 C340 1.418 . S
C337 H316 0.929 . S
C337 C335 1.446 . S
C337 C338 1.332 1_556 S
C338 H318 0.931 . S
C338 C337 1.332 1_554 S
C338 C339 1.267 . S
C339 H307 0.929 . S
C339 C338 1.267 . S
C339 C340 1.251 . S
C340 H310 0.929 . S
C340 N336 1.418 . S
C340 C339 1.251 . S
C341 H308 0.930 . S
C341 C343 1.406 . S
C341 C346 1.261 1_556 S
C342 H309 0.930 . S
C342 N344 1.325 . S
C342 C345 1.357 . S
C343 H311 0.928 . S
C343 C341 1.406 . S
C343 N344 1.261 1_556 S
N344 Co295 2.216 . S
N344 C342 1.325 . S
N344 C343 1.261 1_554 S
C345 H315 0.931 . S
C345 C342 1.357 . S
C345 C346 1.312 . S
C346 H317 0.930 . S
C346 C341 1.261 1_554 S
C346 C345 1.312 . S
C347 O319 1.214 1_554 S
C347 O327 1.234 . S
C348 H320 0.929 . S
C348 C351 1.391 . S
C348 C353 1.391 . S
C349 H321 0.929 1_556 S
C349 C350 1.390 . S
C349 N352 1.391 . S
C350 H322 0.930 . S
C350 C349 1.390 . S
C350 C351 1.392 . S
C351 H323 0.929 . S
C351 C348 1.391 . S
C351 C350 1.392 . S
N352 Co296 2.257 1_556 S
N352 C349 1.391 . S
N352 C353 1.388 . S
C353 H324 0.930 . S
C353 C348 1.391 . S
C353 N352 1.388 . S
Co354 O356 2.143 . S
Co354 O362 2.074 . S
Co354 O365 2.093 . S
Co354 O378 2.097 . S
Co354 N395 2.151 . S
Co354 N403 2.214 . S
Co355 O356 2.160 . S
Co355 O361 2.058 . S
Co355 O371 2.057 . S
Co355 O386 2.037 . S
Co355 N390 2.145 . S
Co355 N411 2.257 . S
O356 Co354 2.143 . S
O356 Co355 2.160 . S
C357 O358 1.278 . S
C357 O365 1.224 . S
O358 C357 1.278 . S
C359 O360 1.245 . S
C359 O371 1.232 . S
O360 C359 1.245 . S
O361 Co355 2.058 . S
O361 C387 1.269 . S
O362 Co354 2.074 . S
O362 C387 1.257 . S
H363 C388 0.930 . S
H364 C394 0.930 . S
O365 Co354 2.093 . S
O365 C357 1.224 . S
H366 C398 0.929 . S
H367 C400 0.930 . S
H368 C401 0.930 . S
H369 C399 0.929 . S
H370 C402 0.928 . S
O371 Co355 2.057 . S
O371 C359 1.232 . S
H372 C391 0.929 . S
H373 C392 0.929 . S
H374 C404 0.931 . S
H375 C396 0.929 . S
H376 C405 0.930 . S
H377 C397 0.931 . S
O378 Co354 2.097 . S
O378 C406 1.214 . S
H379 C407 0.929 . S
H380 C408 0.929 . S
H381 C409 0.930 . S
H382 C410 0.929 . S
H383 C412 0.930 . S
H384 C389 0.930 . S
H385 C393 0.930 . S
O386 Co355 2.037 . S
O386 C406 1.234 . S
C387 O361 1.269 . S
C387 O362 1.257 . S
C388 H363 0.930 . S
C388 C391 1.388 . S
C388 C393 1.418 . S
C389 H384 0.930 . S
C389 C392 1.404 . S
C389 C393 1.353 . S
N390 Co355 2.145 . S
N390 C391 1.397 . S
N390 C392 1.334 . S
C391 H372 0.929 . S
C391 C388 1.388 . S
C391 N390 1.397 . S
C392 H373 0.929 . S
C392 C389 1.404 . S
C392 N390 1.334 . S
C393 H385 0.930 . S
C393 C388 1.418 . S
C393 C389 1.353 . S
C394 H364 0.930 . S
C394 N395 1.330 . S
C394 C396 1.446 . S
N395 Co354 2.151 . S
N395 C394 1.330 . S
N395 C399 1.418 . S
C396 H375 0.929 . S
C396 C394 1.446 . S
C396 C397 1.332 . S
C397 H377 0.931 . S
C397 C396 1.332 . S
C397 C398 1.267 . S
C398 H366 0.929 . S
C398 C397 1.267 . S
C398 C399 1.251 . S
C399 H369 0.929 . S
C399 N395 1.418 . S
C399 C398 1.251 . S
C400 H367 0.930 . S
C400 C402 1.406 . S
C400 C405 1.261 . S
C401 H368 0.930 . S
C401 N403 1.325 . S
C401 C404 1.357 . S
C402 H370 0.928 . S
C402 C400 1.406 . S
C402 N403 1.261 . S
N403 Co354 2.214 . S
N403 C401 1.325 . S
N403 C402 1.261 . S
C404 H374 0.931 . S
C404 C401 1.357 . S
C404 C405 1.312 . S
C405 H376 0.930 . S
C405 C400 1.261 . S
C405 C404 1.312 . S
C406 O378 1.214 . S
C406 O386 1.234 . S
C407 H379 0.929 . S
C407 C410 1.391 . S
C407 C412 1.391 . S
C408 H380 0.929 . S
C408 C409 1.390 . S
C408 N411 1.391 . S
C409 H381 0.930 . S
C409 C408 1.390 . S
C409 C410 1.392 . S
C410 H382 0.929 . S
C410 C407 1.391 . S
C410 C409 1.392 . S
N411 Co355 2.257 . S
N411 C408 1.391 . S
N411 C412 1.388 . S
C412 H383 0.930 . S
C412 C407 1.391 . S
C412 N411 1.388 . S
Co413 O415 2.143 . S
Co413 O421 2.074 . S
Co413 O424 2.093 . S
Co413 O437 2.097 . S
Co413 N454 2.151 . S
Co413 N462 2.214 . S
Co414 O415 2.160 . S
Co414 O420 2.058 . S
Co414 O430 2.057 . S
Co414 O445 2.037 . S
Co414 N449 2.145 . S
Co414 N470 2.257 . S
O415 Co413 2.143 . S
O415 Co414 2.160 . S
C416 O417 1.278 . S
C416 O424 1.224 . S
O417 C416 1.278 . S
C418 O419 1.245 . S
C418 O430 1.232 . S
O419 C418 1.245 . S
O420 Co414 2.058 . S
O420 C446 1.269 . S
O421 Co413 2.074 . S
O421 C446 1.257 . S
H422 C447 0.930 . S
H423 C453 0.930 . S
O424 Co413 2.093 . S
O424 C416 1.224 . S
H425 C457 0.929 . S
H426 C459 0.930 . S
H427 C460 0.930 . S
H428 C458 0.929 . S
H429 C461 0.928 . S
O430 Co414 2.057 . S
O430 C418 1.232 . S
H431 C450 0.929 . S
H432 C451 0.929 . S
H433 C463 0.931 . S
H434 C455 0.929 . S
H435 C464 0.930 . S
H436 C456 0.931 . S
O437 Co413 2.097 . S
O437 C465 1.214 . S
H438 C466 0.929 . S
H439 C467 0.929 . S
H440 C468 0.930 . S
H441 C469 0.929 . S
H442 C471 0.930 . S
H443 C448 0.930 . S
H444 C452 0.930 . S
O445 Co414 2.037 . S
O445 C465 1.234 . S
C446 O420 1.269 . S
C446 O421 1.257 . S
C447 H422 0.930 . S
C447 C450 1.388 . S
C447 C452 1.418 . S
C448 H443 0.930 . S
C448 C451 1.404 . S
C448 C452 1.353 . S
N449 Co414 2.145 . S
N449 C450 1.397 . S
N449 C451 1.334 . S
C450 H431 0.929 . S
C450 C447 1.388 . S
C450 N449 1.397 . S
C451 H432 0.929 . S
C451 C448 1.404 . S
C451 N449 1.334 . S
C452 H444 0.930 . S
C452 C447 1.418 . S
C452 C448 1.353 . S
C453 H423 0.930 . S
C453 N454 1.330 . S
C453 C455 1.446 . S
N454 Co413 2.151 . S
N454 C453 1.330 . S
N454 C458 1.418 . S
C455 H434 0.929 . S
C455 C453 1.446 . S
C455 C456 1.332 . S
C456 H436 0.931 . S
C456 C455 1.332 . S
C456 C457 1.267 . S
C457 H425 0.929 . S
C457 C456 1.267 . S
C457 C458 1.251 . S
C458 H428 0.929 . S
C458 N454 1.418 . S
C458 C457 1.251 . S
C459 H426 0.930 . S
C459 C461 1.406 . S
C459 C464 1.261 . S
C460 H427 0.930 . S
C460 N462 1.325 . S
C460 C463 1.357 . S
C461 H429 0.928 . S
C461 C459 1.406 . S
C461 N462 1.261 . S
N462 Co413 2.214 . S
N462 C460 1.325 . S
N462 C461 1.261 . S
C463 H433 0.931 . S
C463 C460 1.357 . S
C463 C464 1.312 . S
C464 H435 0.930 . S
C464 C459 1.261 . S
C464 C463 1.312 . S
C465 O437 1.214 . S
C465 O445 1.234 . S
C466 H438 0.929 . S
C466 C469 1.391 . S
C466 C471 1.391 . S
C467 H439 0.929 . S
C467 C468 1.390 . S
C467 N470 1.391 . S
C468 H440 0.930 . S
C468 C467 1.390 . S
C468 C469 1.392 . S
C469 H441 0.929 . S
C469 C466 1.391 . S
C469 C468 1.392 . S
N470 Co414 2.257 . S
N470 C467 1.391 . S
N470 C471 1.388 . S
C471 H442 0.930 . S
C471 C466 1.391 . S
C471 N470 1.388 . S
H472 C480 0.950 . S
H473 C485 0.950 . S
H474 C482 0.950 . S
H475 C484 0.950 . S
H476 C486 0.950 . S
H477 C488 0.950 . S
H478 C490 0.950 . S
H479 C491 0.950 . S
C480 H472 0.950 . S
C480 C481 1.386 . S
C480 C482 1.391 . S
C481 C480 1.386 . S
C481 C485 1.393 1_655 S
C482 H474 0.950 . S
C482 C480 1.391 . S
C482 C483 1.400 . S
C483 C482 1.400 . S
C483 C484 1.398 1_655 S
C483 C489 1.491 1_665 S
C484 H475 0.950 . S
C484 C483 1.398 1_455 S
C484 C485 1.391 . S
C485 H473 0.950 . S
C485 C481 1.393 1_455 S
C485 C484 1.391 . S
C486 H476 0.950 . S
C486 C487 1.386 . S
C486 C488 1.391 . S
C487 C486 1.386 . S
C487 C491 1.393 1_455 S
C488 H477 0.950 . S
C488 C486 1.391 . S
C488 C489 1.400 . S
C489 C483 1.491 1_445 S
C489 C488 1.400 . S
C489 C490 1.398 1_455 S
C490 H478 0.950 . S
C490 C489 1.398 1_655 S
C490 C491 1.391 . S
C491 H479 0.950 . S
C491 C487 1.393 1_655 S
C491 C490 1.391 . S
H492 C500 0.950 . S
H493 C505 0.950 . S
H494 C502 0.950 . S
H495 C504 0.949 1_655 S
H496 C506 0.950 . S
H497 C508 0.950 . S
H498 C510 0.949 1_455 S
H499 C511 0.950 . S
C500 H492 0.950 . S
C500 C501 1.386 . S
C500 C502 1.391 . S
C501 C500 1.386 . S
C501 C505 1.393 . S
C502 H494 0.950 . S
C502 C500 1.391 . S
C502 C503 1.400 . S
C503 C502 1.400 . S
C503 C504 1.398 . S
C503 C509 1.491 1_465 S
C504 H495 0.949 1_455 S
C504 C503 1.398 . S
C504 C505 1.391 . S
C505 H493 0.950 . S
C505 C501 1.393 . S
C505 C504 1.391 . S
C506 H496 0.950 . S
C506 C507 1.386 . S
C506 C508 1.391 . S
C507 C506 1.386 . S
C507 C511 1.393 . S
C508 H497 0.950 . S
C508 C506 1.391 . S
C508 C509 1.400 . S
C509 C503 1.491 1_645 S
C509 C508 1.400 . S
C509 C510 1.398 . S
C510 H498 0.949 1_655 S
C510 C509 1.398 . S
C510 C511 1.391 . S
C511 H499 0.950 . S
C511 C507 1.393 . S
C511 C510 1.391 . S
H512 C520 0.950 . S
H513 C525 0.950 . S
H514 C522 0.950 . S
H515 C524 0.950 . S
H516 C526 0.950 . S
H517 C528 0.950 . S
H518 C530 0.950 . S
H519 C531 0.950 . S
C520 H512 0.950 . S
C520 C521 1.386 1_556 S
C520 C522 1.391 . S
C521 C520 1.386 1_554 S
C521 C525 1.393 . S
C522 H514 0.950 . S
C522 C520 1.391 . S
C522 C523 1.400 1_556 S
C523 C522 1.400 1_554 S
C523 C524 1.398 . S
C523 C529 1.491 . S
C524 H515 0.950 . S
C524 C523 1.398 . S
C524 C525 1.391 . S
C525 H513 0.950 . S
C525 C521 1.393 . S
C525 C524 1.391 . S
C526 H516 0.950 . S
C526 C527 1.386 . S
C526 C528 1.391 . S
C527 C526 1.386 . S
C527 C531 1.393 1_554 S
C528 H517 0.950 . S
C528 C526 1.391 . S
C528 C529 1.400 . S
C529 C523 1.491 . S
C529 C528 1.400 . S
C529 C530 1.398 1_554 S
C530 H518 0.950 . S
C530 C529 1.398 1_556 S
C530 C531 1.391 . S
C531 H519 0.950 . S
C531 C527 1.393 1_556 S
C531 C530 1.391 . S
H532 C540 0.950 . S
H533 C545 0.950 . S
H534 C542 0.950 . S
H535 C544 0.950 . S
H536 C546 0.950 . S
H537 C548 0.950 . S
H538 C550 0.950 . S
H539 C551 0.950 . S
C540 H532 0.950 . S
C540 C541 1.386 . S
C540 C542 1.391 . S
C541 C540 1.386 . S
C541 C545 1.393 . S
C542 H534 0.950 . S
C542 C540 1.391 . S
C542 C543 1.400 . S
C543 C542 1.400 . S
C543 C544 1.398 . S
C543 C549 1.491 . S
C544 H535 0.950 . S
C544 C543 1.398 . S
C544 C545 1.391 . S
C545 H533 0.950 . S
C545 C541 1.393 . S
C545 C544 1.391 . S
C546 H536 0.950 . S
C546 C547 1.386 . S
C546 C548 1.391 . S
C547 C546 1.386 . S
C547 C551 1.393 . S
C548 H537 0.950 . S
C548 C546 1.391 . S
C548 C549 1.400 . S
C549 C543 1.491 . S
C549 C548 1.400 . S
C549 C550 1.398 . S
C550 H538 0.950 . S
C550 C549 1.398 . S
C550 C551 1.391 . S
C551 H539 0.950 . S
C551 C547 1.393 . S
C551 C550 1.391 . S
H552 C560 0.950 . S
H553 C565 0.950 . S
H554 C562 0.950 . S
H555 C564 0.950 . S
H556 C566 0.950 . S
H557 C568 0.950 . S
H558 C570 0.950 . S
H559 C571 0.950 . S
C560 H552 0.950 . S
C560 C561 1.386 . S
C560 C562 1.391 . S
C561 C560 1.386 . S
C561 C565 1.393 1_455 S
C562 H554 0.950 . S
C562 C560 1.391 . S
C562 C563 1.400 . S
C563 C562 1.400 . S
C563 C564 1.398 1_455 S
C563 C569 1.491 1_455 S
C564 H555 0.950 . S
C564 C563 1.398 1_655 S
C564 C565 1.391 . S
C565 H553 0.950 . S
C565 C561 1.393 1_655 S
C565 C564 1.391 . S
C566 H556 0.950 . S
C566 C567 1.386 . S
C566 C568 1.391 . S
C567 C566 1.386 . S
C567 C571 1.393 1_655 S
C568 H557 0.950 . S
C568 C566 1.391 . S
C568 C569 1.400 . S
C569 C563 1.491 1_655 S
C569 C568 1.400 . S
C569 C570 1.398 1_655 S
C570 H558 0.950 . S
C570 C569 1.398 1_455 S
C570 C571 1.391 . S
C571 H559 0.950 . S
C571 C567 1.393 1_455 S
C571 C570 1.391 . S
H572 C580 0.950 . S
H573 C585 0.950 . S
H574 C582 0.950 . S
H575 C584 0.950 . S
H576 C586 0.950 . S
H577 C588 0.950 . S
H578 C590 0.950 . S
H579 C591 0.950 . S
C580 H572 0.950 . S
C580 C581 1.386 . S
C580 C582 1.391 . S
C581 C580 1.386 . S
C581 C585 1.393 . S
C582 H574 0.950 . S
C582 C580 1.391 . S
C582 C583 1.400 . S
C583 C582 1.400 . S
C583 C584 1.398 . S
C583 C589 1.491 1_455 S
C584 H575 0.950 . S
C584 C583 1.398 . S
C584 C585 1.391 . S
C585 H573 0.950 . S
C585 C581 1.393 . S
C585 C584 1.391 . S
C586 H576 0.950 . S
C586 C587 1.386 . S
C586 C588 1.391 . S
C587 C586 1.386 . S
C587 C591 1.393 . S
C588 H577 0.950 . S
C588 C586 1.391 . S
C588 C589 1.400 . S
C589 C583 1.491 1_655 S
C589 C588 1.400 . S
C589 C590 1.398 . S
C590 H578 0.950 . S
C590 C589 1.398 . S
C590 C591 1.391 . S
C591 H579 0.950 . S
C591 C587 1.393 . S
C591 C590 1.391 . S
H592 C600 0.950 . S
H593 C605 0.950 . S
H594 C602 0.950 . S
H595 C604 0.950 . S
H596 C606 0.950 . S
H597 C608 0.950 . S
H598 C610 0.950 . S
H599 C611 0.950 . S
C600 H592 0.950 . S
C600 C601 1.386 1_655 S
C600 C602 1.391 . S
C601 C600 1.386 1_455 S
C601 C605 1.393 . S
C602 H594 0.950 . S
C602 C600 1.391 . S
C602 C603 1.400 1_655 S
C603 C602 1.400 1_455 S
C603 C604 1.398 . S
C603 C609 1.491 1_455 S
C604 H595 0.950 . S
C604 C603 1.398 . S
C604 C605 1.391 . S
C605 H593 0.950 . S
C605 C601 1.393 . S
C605 C604 1.391 . S
C606 H596 0.950 . S
C606 C607 1.386 1_455 S
C606 C608 1.391 . S
C607 C606 1.386 1_655 S
C607 C611 1.393 . S
C608 H597 0.950 . S
C608 C606 1.391 . S
C608 C609 1.400 1_455 S
C609 C603 1.491 1_655 S
C609 C608 1.400 1_655 S
C609 C610 1.398 . S
C610 H598 0.950 . S
C610 C609 1.398 . S
C610 C611 1.391 . S
C611 H599 0.950 . S
C611 C607 1.393 . S
C611 C610 1.391 . S
H612 C620 0.950 . S
H613 C625 0.950 . S
H614 C622 0.950 . S
H615 C624 0.950 . S
H616 C626 0.950 . S
H617 C628 0.950 . S
H618 C630 0.950 . S
H619 C631 0.950 . S
C620 H612 0.950 . S
C620 C621 1.386 . S
C620 C622 1.391 . S
C621 C620 1.386 . S
C621 C625 1.393 1_455 S
C622 H614 0.950 . S
C622 C620 1.391 . S
C622 C623 1.400 . S
C623 C622 1.400 . S
C623 C624 1.398 1_455 S
C623 C629 1.491 1_455 S
C624 H615 0.950 . S
C624 C623 1.398 1_655 S
C624 C625 1.391 . S
C625 H613 0.950 . S
C625 C621 1.393 1_655 S
C625 C624 1.391 . S
C626 H616 0.950 . S
C626 C627 1.386 . S
C626 C628 1.391 . S
C627 C626 1.386 . S
C627 C631 1.393 1_655 S
C628 H617 0.950 . S
C628 C626 1.391 . S
C628 C629 1.400 . S
C629 C623 1.491 1_655 S
C629 C628 1.400 . S
C629 C630 1.398 1_655 S
C630 H618 0.950 . S
C630 C629 1.398 1_455 S
C630 C631 1.391 . S
C631 H619 0.950 . S
C631 C627 1.393 1_455 S
C631 C630 1.391 . S
H632 C640 0.950 . S
H633 C645 0.950 . S
H634 C642 0.950 . S
H635 C644 0.950 . S
H636 C646 0.950 . S
H637 C648 0.950 . S
H638 C650 0.950 . S
H639 C651 0.950 . S
C640 H632 0.950 . S
C640 C641 1.386 . S
C640 C642 1.391 . S
C641 C640 1.386 . S
C641 C645 1.393 . S
C642 H634 0.950 . S
C642 C640 1.391 . S
C642 C643 1.400 . S
C643 C642 1.400 . S
C643 C644 1.398 . S
C643 C649 1.491 . S
C644 H635 0.950 . S
C644 C643 1.398 . S
C644 C645 1.391 . S
C645 H633 0.950 . S
C645 C641 1.393 . S
C645 C644 1.391 . S
C646 H636 0.950 . S
C646 C647 1.386 . S
C646 C648 1.391 . S
C647 C646 1.386 . S
C647 C651 1.393 . S
C648 H637 0.950 . S
C648 C646 1.391 . S
C648 C649 1.400 . S
C649 C643 1.491 . S
C649 C648 1.400 . S
C649 C650 1.398 . S
C650 H638 0.950 . S
C650 C649 1.398 . S
C650 C651 1.391 . S
C651 H639 0.950 . S
C651 C647 1.393 . S
C651 C650 1.391 . S
H652 C660 0.950 . S
H653 C665 0.950 . S
H654 C662 0.950 . S
H655 C664 0.950 . S
H656 C666 0.950 . S
H657 C668 0.950 . S
H658 C670 0.950 . S
H659 C671 0.950 . S
C660 H652 0.950 . S
C660 C661 1.386 . S
C660 C662 1.391 . S
C661 C660 1.386 . S
C661 C665 1.393 . S
C662 H654 0.950 . S
C662 C660 1.391 . S
C662 C663 1.400 . S
C663 C662 1.400 . S
C663 C664 1.398 . S
C663 C669 1.491 . S
C664 H655 0.950 . S
C664 C663 1.398 . S
C664 C665 1.391 . S
C665 H653 0.950 . S
C665 C661 1.393 . S
C665 C664 1.391 . S
C666 H656 0.950 . S
C666 C667 1.386 . S
C666 C668 1.391 . S
C667 C666 1.386 . S
C667 C671 1.393 . S
C668 H657 0.950 . S
C668 C666 1.391 . S
C668 C669 1.400 . S
C669 C663 1.491 . S
C669 C668 1.400 . S
C669 C670 1.398 . S
C670 H658 0.950 . S
C670 C669 1.398 . S
C670 C671 1.391 . S
C671 H659 0.950 . S
C671 C667 1.393 . S
C671 C670 1.391 . S
H672 C680 0.950 . S
H673 C685 0.950 . S
H674 C682 0.950 . S
H675 C684 0.950 . S
H676 C686 0.950 . S
H677 C688 0.950 . S
H678 C690 0.950 . S
H679 C691 0.950 . S
C680 H672 0.950 . S
C680 C681 1.386 . S
C680 C682 1.391 . S
C681 C680 1.386 . S
C681 C685 1.393 . S
C682 H674 0.950 . S
C682 C680 1.391 . S
C682 C683 1.400 . S
C683 C682 1.400 . S
C683 C684 1.398 . S
C683 C689 1.491 . S
C684 H675 0.950 . S
C684 C683 1.398 . S
C684 C685 1.391 . S
C685 H673 0.950 . S
C685 C681 1.393 . S
C685 C684 1.391 . S
C686 H676 0.950 . S
C686 C687 1.386 . S
C686 C688 1.391 . S
C687 C686 1.386 . S
C687 C691 1.393 . S
C688 H677 0.950 . S
C688 C686 1.391 . S
C688 C689 1.400 . S
C689 C683 1.491 . S
C689 C688 1.400 . S
C689 C690 1.398 . S
C690 H678 0.950 . S
C690 C689 1.398 . S
C690 C691 1.391 . S
C691 H679 0.950 . S
C691 C687 1.393 . S
C691 C690 1.391 . S
H692 C700 0.950 . S
H693 C705 0.950 . S
H694 C702 0.950 . S
H695 C704 0.950 . S
H696 C706 0.950 . S
H697 C708 0.950 . S
H698 C710 0.950 . S
H699 C711 0.950 . S
C700 H692 0.950 . S
C700 C701 1.386 . S
C700 C702 1.391 . S
C701 C700 1.386 . S
C701 C705 1.393 . S
C702 H694 0.950 . S
C702 C700 1.391 . S
C702 C703 1.400 . S
C703 C702 1.400 . S
C703 C704 1.398 . S
C703 C709 1.491 . S
C704 H695 0.950 . S
C704 C703 1.398 . S
C704 C705 1.391 . S
C705 H693 0.950 . S
C705 C701 1.393 . S
C705 C704 1.391 . S
C706 H696 0.950 . S
C706 C707 1.386 . S
C706 C708 1.391 . S
C707 C706 1.386 . S
C707 C711 1.393 . S
C708 H697 0.950 . S
C708 C706 1.391 . S
C708 C709 1.400 . S
C709 C703 1.491 . S
C709 C708 1.400 . S
C709 C710 1.398 . S
C710 H698 0.950 . S
C710 C709 1.398 . S
C710 C711 1.391 . S
C711 H699 0.950 . S
C711 C707 1.393 . S
C711 C710 1.391 . S
H712 C720 0.950 . S
H713 C725 0.950 . S
H714 C722 0.950 . S
H715 C724 0.950 . S
H716 C726 0.950 . S
H717 C728 0.950 . S
H718 C730 0.950 . S
H719 C731 0.950 . S
C720 H712 0.950 . S
C720 C721 1.386 1_556 S
C720 C722 1.391 . S
C721 C720 1.386 1_554 S
C721 C725 1.393 . S
C722 H714 0.950 . S
C722 C720 1.391 . S
C722 C723 1.400 1_556 S
C723 C722 1.400 1_554 S
C723 C724 1.398 . S
C723 C729 1.491 . S
C724 H715 0.950 . S
C724 C723 1.398 . S
C724 C725 1.391 . S
C725 H713 0.950 . S
C725 C721 1.393 . S
C725 C724 1.391 . S
C726 H716 0.950 . S
C726 C727 1.386 . S
C726 C728 1.391 . S
C727 C726 1.386 . S
C727 C731 1.393 1_554 S
C728 H717 0.950 . S
C728 C726 1.391 . S
C728 C729 1.400 . S
C729 C723 1.491 . S
C729 C728 1.400 . S
C729 C730 1.398 1_554 S
C730 H718 0.950 . S
C730 C729 1.398 1_556 S
C730 C731 1.391 . S
C731 H719 0.950 . S
C731 C727 1.393 1_556 S
C731 C730 1.391 . S
H732 C740 0.950 1_556 S
H733 C745 0.950 . S
H734 C742 0.949 1_556 S
H735 C744 0.950 . S
H736 C746 0.950 . S
H737 C748 0.950 . S
H738 C750 0.950 . S
H739 C751 0.950 . S
C740 H732 0.950 1_554 S
C740 C741 1.386 . S
C740 C742 1.391 . S
C741 C740 1.386 . S
C741 C745 1.393 . S
C742 H734 0.949 1_554 S
C742 C740 1.391 . S
C742 C743 1.400 . S
C743 C742 1.400 . S
C743 C744 1.398 . S
C743 C749 1.491 . S
C744 H735 0.950 . S
C744 C743 1.398 . S
C744 C745 1.391 . S
C745 H733 0.950 . S
C745 C741 1.393 . S
C745 C744 1.391 . S
C746 H736 0.950 . S
C746 C747 1.386 . S
C746 C748 1.391 . S
C747 C746 1.386 . S
C747 C751 1.393 . S
C748 H737 0.950 . S
C748 C746 1.391 . S
C748 C749 1.400 . S
C749 C743 1.491 . S
C749 C748 1.400 . S
C749 C750 1.398 . S
C750 H738 0.950 . S
C750 C749 1.398 . S
C750 C751 1.391 . S
C751 H739 0.950 . S
C751 C747 1.393 . S
C751 C750 1.391 . S
H752 C760 0.950 . S
H753 C765 0.950 . S
H754 C762 0.950 . S
H755 C764 0.950 . S
H756 C766 0.950 . S
H757 C768 0.950 . S
H758 C770 0.950 . S
H759 C771 0.950 . S
C760 H752 0.950 . S
C760 C761 1.386 . S
C760 C762 1.391 . S
C761 C760 1.386 . S
C761 C765 1.393 . S
C762 H754 0.950 . S
C762 C760 1.391 . S
C762 C763 1.400 . S
C763 C762 1.400 . S
C763 C764 1.398 . S
C763 C769 1.491 . S
C764 H755 0.950 . S
C764 C763 1.398 . S
C764 C765 1.391 . S
C765 H753 0.950 . S
C765 C761 1.393 . S
C765 C764 1.391 . S
C766 H756 0.950 . S
C766 C767 1.386 . S
C766 C768 1.391 . S
C767 C766 1.386 . S
C767 C771 1.393 . S
C768 H757 0.950 . S
C768 C766 1.391 . S
C768 C769 1.400 . S
C769 C763 1.491 . S
C769 C768 1.400 . S
C769 C770 1.398 . S
C770 H758 0.950 . S
C770 C769 1.398 . S
C770 C771 1.391 . S
C771 H759 0.950 . S
C771 C767 1.393 . S
C771 C770 1.391 . S
H772 C780 0.950 . S
H773 C785 0.950 . S
H774 C782 0.950 . S
H775 C784 0.950 . S
H776 C786 0.950 . S
H777 C788 0.950 . S
H778 C790 0.950 . S
H779 C791 0.950 . S
C780 H772 0.950 . S
C780 C781 1.386 . S
C780 C782 1.391 . S
C781 C780 1.386 . S
C781 C785 1.393 . S
C782 H774 0.950 . S
C782 C780 1.391 . S
C782 C783 1.400 . S
C783 C782 1.400 . S
C783 C784 1.398 . S
C783 C789 1.491 . S
C784 H775 0.950 . S
C784 C783 1.398 . S
C784 C785 1.391 . S
C785 H773 0.950 . S
C785 C781 1.393 . S
C785 C784 1.391 . S
C786 H776 0.950 . S
C786 C787 1.386 . S
C786 C788 1.391 . S
C787 C786 1.386 . S
C787 C791 1.393 . S
C788 H777 0.950 . S
C788 C786 1.391 . S
C788 C789 1.400 . S
C789 C783 1.491 . S
C789 C788 1.400 . S
C789 C790 1.398 . S
C790 H778 0.950 . S
C790 C789 1.398 . S
C790 C791 1.391 . S
C791 H779 0.950 . S
C791 C787 1.393 . S
C791 C790 1.391 . S
C481 C111 1.517 . S
C487 C52 1.510 . S
C501 C170 1.514 . S
C507 C229 1.514 . S
C521 C288 1.513 . S
C527 C347 1.515 . S
C541 C406 1.510 . S
C547 C465 1.518 . S
C561 C33 1.340 . S
C567 C210 1.334 . S
C581 C151 1.338 . S
C587 C92 1.339 . S
C601 C121 1.414 . S
C607 C62 1.396 . S
C621 C3 1.396 . S
C627 C180 1.414 . S
C641 C269 1.340 . S
C647 C446 1.332 . S
C661 C387 1.340 . S
C667 C328 1.335 . S
C681 C298 1.414 . S
C687 C357 1.399 . S
C701 C239 1.401 . S
C707 C416 1.413 . S
C721 C300 1.513 . S
C727 C5 1.513 . S
C741 C241 1.513 . S
C747 C64 1.513 . S
C761 C123 1.513 . S
C767 C418 1.513 . S
C781 C359 1.513 . S
C787 C182 1.513 . S
