# Generated by pormake.
# Topology vbm, (6)-cn, num edge types: 1
# Building blocks:
#     Node 0, Type 0, BuildingBlock: MIDCAF_clean_sbu_0, # of connection points: 6
#     Node 1, Type 0, BuildingBlock: MIDCAF_clean_sbu_0, # of connection points: 6
#     Node 2, Type 0, BuildingBlock: MIDCAF_clean_sbu_0, # of connection points: 6
#     Node 3, Type 0, BuildingBlock: MIDCAF_clean_sbu_0, # of connection points: 6
#     Node 4, Type 0, BuildingBlock: MIDCAF_clean_sbu_0, # of connection points: 6
#     Node 5, Type 0, BuildingBlock: MIDCAF_clean_sbu_0, # of connection points: 6
#     Node 6, Type 0, BuildingBlock: MIDCAF_clean_sbu_0, # of connection points: 6
#     Node 7, Type 0, BuildingBlock: MIDCAF_clean_sbu_0, # of connection points: 6
#     Node 8, Type 0, BuildingBlock: MIDCAF_clean_sbu_0, # of connection points: 6
#     Node 9, Type 0, BuildingBlock: MIDCAF_clean_sbu_0, # of connection points: 6
#     Node 10, Type 0, BuildingBlock: MIDCAF_clean_sbu_0, # of connection points: 6
#     Node 11, Type 0, BuildingBlock: MIDCAF_clean_sbu_0, # of connection points: 6
#     Node 12, Type 0, BuildingBlock: MIDCAF_clean_sbu_0, # of connection points: 6
#     Node 13, Type 0, BuildingBlock: MIDCAF_clean_sbu_0, # of connection points: 6
#     Node 14, Type 0, BuildingBlock: MIDCAF_clean_sbu_0, # of connection points: 6
#     Node 15, Type 0, BuildingBlock: MIDCAF_clean_sbu_0, # of connection points: 6
#     Edge 16, Type (0, 0), BuildingBlock: ZUJKAS_clean_linker_0, # of connection points: 2
#     Edge 17, Type (0, 0), BuildingBlock: ZUJKAS_clean_linker_0, # of connection points: 2
#     Edge 18, Type (0, 0), BuildingBlock: ZUJKAS_clean_linker_0, # of connection points: 2
#     Edge 19, Type (0, 0), BuildingBlock: ZUJKAS_clean_linker_0, # of connection points: 2
#     Edge 20, Type (0, 0), BuildingBlock: ZUJKAS_clean_linker_0, # of connection points: 2
#     Edge 21, Type (0, 0), BuildingBlock: ZUJKAS_clean_linker_0, # of connection points: 2
#     Edge 22, Type (0, 0), BuildingBlock: ZUJKAS_clean_linker_0, # of connection points: 2
#     Edge 23, Type (0, 0), BuildingBlock: ZUJKAS_clean_linker_0, # of connection points: 2
#     Edge 24, Type (0, 0), BuildingBlock: ZUJKAS_clean_linker_0, # of connection points: 2
#     Edge 25, Type (0, 0), BuildingBlock: ZUJKAS_clean_linker_0, # of connection points: 2
#     Edge 26, Type (0, 0), BuildingBlock: ZUJKAS_clean_linker_0, # of connection points: 2
#     Edge 27, Type (0, 0), BuildingBlock: ZUJKAS_clean_linker_0, # of connection points: 2
#     Edge 28, Type (0, 0), BuildingBlock: ZUJKAS_clean_linker_0, # of connection points: 2
#     Edge 29, Type (0, 0), BuildingBlock: ZUJKAS_clean_linker_0, # of connection points: 2
#     Edge 30, Type (0, 0), BuildingBlock: ZUJKAS_clean_linker_0, # of connection points: 2
#     Edge 31, Type (0, 0), BuildingBlock: ZUJKAS_clean_linker_0, # of connection points: 2
#     Edge 32, Type (0, 0), BuildingBlock: ZUJKAS_clean_linker_0, # of connection points: 2
#     Edge 33, Type (0, 0), BuildingBlock: ZUJKAS_clean_linker_0, # of connection points: 2
#     Edge 34, Type (0, 0), BuildingBlock: ZUJKAS_clean_linker_0, # of connection points: 2
#     Edge 35, Type (0, 0), BuildingBlock: ZUJKAS_clean_linker_0, # of connection points: 2
#     Edge 36, Type (0, 0), BuildingBlock: ZUJKAS_clean_linker_0, # of connection points: 2
#     Edge 37, Type (0, 0), BuildingBlock: ZUJKAS_clean_linker_0, # of connection points: 2
#     Edge 38, Type (0, 0), BuildingBlock: ZUJKAS_clean_linker_0, # of connection points: 2
#     Edge 39, Type (0, 0), BuildingBlock: ZUJKAS_clean_linker_0, # of connection points: 2
#     Edge 40, Type (0, 0), BuildingBlock: ZUJKAS_clean_linker_0, # of connection points: 2
#     Edge 41, Type (0, 0), BuildingBlock: ZUJKAS_clean_linker_0, # of connection points: 2
#     Edge 42, Type (0, 0), BuildingBlock: ZUJKAS_clean_linker_0, # of connection points: 2
#     Edge 43, Type (0, 0), BuildingBlock: ZUJKAS_clean_linker_0, # of connection points: 2
#     Edge 44, Type (0, 0), BuildingBlock: ZUJKAS_clean_linker_0, # of connection points: 2
#     Edge 45, Type (0, 0), BuildingBlock: ZUJKAS_clean_linker_0, # of connection points: 2
#     Edge 46, Type (0, 0), BuildingBlock: ZUJKAS_clean_linker_0, # of connection points: 2
#     Edge 47, Type (0, 0), BuildingBlock: ZUJKAS_clean_linker_0, # of connection points: 2
#     Edge 48, Type (0, 0), BuildingBlock: ZUJKAS_clean_linker_0, # of connection points: 2
#     Edge 49, Type (0, 0), BuildingBlock: ZUJKAS_clean_linker_0, # of connection points: 2
#     Edge 50, Type (0, 0), BuildingBlock: ZUJKAS_clean_linker_0, # of connection points: 2
#     Edge 51, Type (0, 0), BuildingBlock: ZUJKAS_clean_linker_0, # of connection points: 2
#     Edge 52, Type (0, 0), BuildingBlock: ZUJKAS_clean_linker_0, # of connection points: 2
#     Edge 53, Type (0, 0), BuildingBlock: ZUJKAS_clean_linker_0, # of connection points: 2
#     Edge 54, Type (0, 0), BuildingBlock: ZUJKAS_clean_linker_0, # of connection points: 2
#     Edge 55, Type (0, 0), BuildingBlock: ZUJKAS_clean_linker_0, # of connection points: 2
#     Edge 56, Type (0, 0), BuildingBlock: ZUJKAS_clean_linker_0, # of connection points: 2
#     Edge 57, Type (0, 0), BuildingBlock: ZUJKAS_clean_linker_0, # of connection points: 2
#     Edge 58, Type (0, 0), BuildingBlock: ZUJKAS_clean_linker_0, # of connection points: 2
#     Edge 59, Type (0, 0), BuildingBlock: ZUJKAS_clean_linker_0, # of connection points: 2
#     Edge 60, Type (0, 0), BuildingBlock: ZUJKAS_clean_linker_0, # of connection points: 2
#     Edge 61, Type (0, 0), BuildingBlock: ZUJKAS_clean_linker_0, # of connection points: 2
#     Edge 62, Type (0, 0), BuildingBlock: ZUJKAS_clean_linker_0, # of connection points: 2
#     Edge 63, Type (0, 0), BuildingBlock: ZUJKAS_clean_linker_0, # of connection points: 2
# Relax obj value: 0.153
# Max RMSD: 0.187
# Mean RMSD: 0.187
data_MOF--net-vbm--node1-MIDCAF_clean_sbu_0--edge1-ZUJKAS_clean_linker_0
_symmetry_space_group_name_H-M    P1
_symmetry_Int_Tables_number       1
_symmetry_cell_setting            triclinic
loop_
_symmetry_equiv_pos_as_xyz
'x, y, z'
_cell_length_a     75.848104
_cell_length_b     19.390954
_cell_length_c     77.968346
_cell_angle_alpha  89.995463
_cell_angle_beta   89.983302
_cell_angle_gamma 89.925728
loop_
_atom_site_label
_atom_site_type_symbol
_atom_site_fract_x
_atom_site_fract_y
_atom_site_fract_z
_atom_type_partial_charge
Zn0 Zn 0.1591 0.99478 0.11917 0.0
Zn1 Zn 0.11352 0.10333 0.16185 0.0
Zn2 Zn 0.13807 0.05159 0.14133 0.0
C3 C 0.09642 0.07837 0.1313 0.0
C4 C 0.12683 0.98645 0.17833 0.0
O5 O 0.16141 0.12009 0.13969 0.0
O6 O 0.17715 0.06769 0.11966 0.0
C7 C 0.12982 0.02201 0.10033 0.0
O8 O 0.11219 0.05794 0.12762 0.0
O9 O 0.09317 0.10374 0.14587 0.0
O10 O 0.11494 0.03166 0.17997 0.0
O11 O 0.13635 0.98475 0.16461 0.0
O12 O 0.14424 0.99031 0.09852 0.0
O13 O 0.12548 0.04605 0.11521 0.0
O14 O 0.14632 0.95064 0.15186 0.0
O15 O 0.16447 0.91004 0.13207 0.0
C16 C 0.15686 0.90339 0.14637 0.0
O17 O 0.14818 0.15229 0.14968 0.0
O18 O 0.12659 0.19002 0.16634 0.0
C19 C 0.17534 0.11636 0.13026 0.0
C20 C 0.14158 0.19869 0.1596 0.0
Zn21 Zn 0.90953 0.85106 0.14543 0.0
Zn22 Zn 0.86272 0.96096 0.10456 0.0
Zn23 Zn 0.8853 0.90672 0.12586 0.0
C24 C 0.86499 0.04975 0.1327 0.0
C25 C 0.89334 0.94972 0.08582 0.0
O26 O 0.87578 0.80281 0.13297 0.0
O27 O 0.89701 0.76372 0.14984 0.0
C28 C 0.89653 0.96486 0.1633 0.0
O29 O 0.87639 0.00446 0.13755 0.0
O30 O 0.85684 0.04224 0.11872 0.0
O31 O 0.87794 0.97356 0.08429 0.0
O32 O 0.89833 0.92345 0.10026 0.0
O33 O 0.90858 0.92002 0.16415 0.0
O34 O 0.88671 0.96873 0.14982 0.0
O35 O 0.91141 0.9055 0.11228 0.0
O36 O 0.92989 0.85132 0.12965 0.0
C37 C 0.92697 0.88212 0.11569 0.0
O38 O 0.86224 0.8359 0.12365 0.0
O39 O 0.84525 0.88585 0.10422 0.0
C40 C 0.88224 0.75535 0.1427 0.0
C41 C 0.84794 0.83735 0.11469 0.0
Zn42 Zn 0.14483 0.99292 0.40827 0.0
Zn43 Zn 0.10033 0.85428 0.37847 0.0
Zn44 Zn 0.12127 0.92304 0.39304 0.0
C45 C 0.08073 0.95599 0.39327 0.0
C46 C 0.12184 0.89529 0.35278 0.0
O47 O 0.14589 0.92206 0.37674 0.0
O48 O 0.16539 0.96964 0.39424 0.0
C49 C 0.1324 0.8969 0.43219 0.0
O50 O 0.0962 0.98341 0.39278 0.0
O51 O 0.07897 0.89315 0.38947 0.0
O52 O 0.10572 0.88136 0.3547 0.0
O53 O 0.13153 0.90431 0.36623 0.0
O54 O 0.14205 0.94982 0.43126 0.0
O55 O 0.12463 0.87418 0.4186 0.0
O56 O 0.11001 0.02663 0.39748 0.0
O57 O 0.13396 0.08464 0.40475 0.0
C58 C 0.11775 0.08376 0.40113 0.0
O59 O 0.11718 0.82623 0.40767 0.0
O60 O 0.1078 0.76175 0.38623 0.0
C61 C 0.1619 0.94008 0.38026 0.0
C62 C 0.11321 0.76674 0.40146 0.0
Zn63 Zn 0.84682 0.13787 0.39388 0.0
Zn64 Zn 0.89496 0.24317 0.35513 0.0
Zn65 Zn 0.87108 0.1879 0.37382 0.0
C66 C 0.9115 0.22134 0.38585 0.0
C67 C 0.8855 0.12504 0.3378 0.0
O68 O 0.84739 0.25706 0.37377 0.0
O69 O 0.82894 0.21169 0.39257 0.0
C70 C 0.87656 0.14731 0.41438 0.0
O71 O 0.89627 0.19411 0.38894 0.0
O72 O 0.91418 0.2517 0.37179 0.0
O73 O 0.89716 0.1713 0.33743 0.0
O74 O 0.87451 0.12249 0.35042 0.0
O75 O 0.86077 0.12709 0.41504 0.0
O76 O 0.88281 0.17184 0.40021 0.0
O77 O 0.86329 0.08883 0.36229 0.0
O78 O 0.84225 0.0543 0.37993 0.0
C79 C 0.85153 0.04437 0.36671 0.0
O80 O 0.86151 0.29097 0.36558 0.0
O81 O 0.88249 0.32754 0.34815 0.0
C82 C 0.83237 0.25741 0.38155 0.0
C83 C 0.86774 0.33678 0.35524 0.0
Zn84 Zn 0.85782 0.93082 0.89955 0.0
Zn85 Zn 0.89928 0.81266 0.85679 0.0
Zn86 Zn 0.87805 0.87265 0.87747 0.0
C87 C 0.91806 0.82188 0.88649 0.0
C88 C 0.89103 0.93482 0.84087 0.0
O89 O 0.85386 0.80857 0.88073 0.0
O90 O 0.83993 0.85813 0.90236 0.0
C91 C 0.88928 0.91943 0.91647 0.0
O92 O 0.90412 0.85684 0.89035 0.0
O93 O 0.91908 0.79112 0.87228 0.0
O94 O 0.9023 0.88713 0.83979 0.0
O95 O 0.88056 0.93755 0.85391 0.0
O96 O 0.87443 0.9476 0.91848 0.0
O97 O 0.89284 0.88781 0.9023 0.0
O98 O 0.87027 0.97331 0.86624 0.0
O99 O 0.85093 0.01064 0.88531 0.0
C100 C 0.859 0.01877 0.8713 0.0
O101 O 0.86602 0.77213 0.8703 0.0
O102 O 0.88396 0.7356 0.84991 0.0
C103 C 0.84068 0.81122 0.89117 0.0
C104 C 0.8702 0.72741 0.85875 0.0
Zn105 Zn 0.1522 0.00485 0.91523 0.0
Zn106 Zn 0.10535 0.11885 0.87455 0.0
Zn107 Zn 0.12905 0.06042 0.89443 0.0
C108 C 0.0913 0.99237 0.88363 0.0
C109 C 0.13628 0.10977 0.85517 0.0
O110 O 0.15501 0.05699 0.88066 0.0
O111 O 0.17239 0.00411 0.8993 0.0
C112 C 0.13914 0.1166 0.93288 0.0
O113 O 0.10602 0.98953 0.89189 0.0
O114 O 0.088 0.04323 0.87405 0.0
O115 O 0.12078 0.1333 0.85442 0.0
O116 O 0.1419 0.08032 0.86899 0.0
O117 O 0.15136 0.07267 0.93416 0.0
O118 O 0.13001 0.12014 0.91894 0.0
O119 O 0.11964 0.95612 0.9009 0.0
O120 O 0.13951 0.91745 0.9194 0.0
C121 C 0.12543 0.9089 0.91107 0.0
O122 O 0.12055 0.15803 0.90642 0.0
O123 O 0.09965 0.19857 0.88933 0.0
C124 C 0.17022 0.0322 0.88486 0.0
C125 C 0.1089 0.20408 0.9027 0.0
Zn126 Zn 0.85803 0.0993 0.61057 0.0
Zn127 Zn 0.90816 0.22462 0.64377 0.0
Zn128 Zn 0.88278 0.15784 0.62868 0.0
C129 C 0.92407 0.1692 0.61547 0.0
C130 C 0.89609 0.1208 0.66649 0.0
O131 O 0.85884 0.22663 0.6281 0.0
O132 O 0.83967 0.1713 0.61178 0.0
C133 C 0.88665 0.10932 0.58854 0.0
O134 O 0.90791 0.15015 0.61307 0.0
O135 O 0.928 0.20486 0.62844 0.0
O136 O 0.90645 0.17165 0.66558 0.0
O137 O 0.88658 0.10415 0.65345 0.0
O138 O 0.87106 0.08656 0.58881 0.0
O139 O 0.89337 0.13625 0.60222 0.0
O140 O 0.87569 0.0636 0.64285 0.0
O141 O 0.85482 0.01997 0.62626 0.0
C142 C 0.86421 0.01658 0.6396 0.0
O143 O 0.8735 0.26376 0.6343 0.0
O144 O 0.8976 0.31742 0.64317 0.0
C145 C 0.84335 0.22196 0.62127 0.0
C146 C 0.88148 0.31881 0.6393 0.0
Zn147 Zn 0.15331 0.01366 0.62098 0.0
Zn148 Zn 0.10978 0.90065 0.66363 0.0
Zn149 Zn 0.13327 0.95556 0.64323 0.0
C150 C 0.09121 0.92753 0.63423 0.0
C151 C 0.12319 0.01499 0.68106 0.0
O152 O 0.15698 0.88811 0.64044 0.0
O153 O 0.17161 0.94176 0.61987 0.0
C154 C 0.12354 0.9897 0.60282 0.0
O155 O 0.10677 0.94935 0.63018 0.0
O156 O 0.08863 0.90034 0.64872 0.0
O157 O 0.11156 0.96875 0.68247 0.0
O158 O 0.13218 0.02 0.66705 0.0
O159 O 0.13783 0.02197 0.6009 0.0
O160 O 0.1197 0.96334 0.61759 0.0
O161 O 0.14152 0.05598 0.65413 0.0
O162 O 0.15937 0.09668 0.63412 0.0
C163 C 0.15206 0.10303 0.64857 0.0
O164 O 0.14418 0.8546 0.65064 0.0
O165 O 0.123 0.8139 0.66732 0.0
C166 C 0.17047 0.89267 0.63043 0.0
C167 C 0.13793 0.80683 0.66037 0.0
Zn168 Zn 0.66096 0.45739 0.1102 0.0
Zn169 Zn 0.61415 0.56822 0.15024 0.0
Zn170 Zn 0.63864 0.51384 0.13091 0.0
C171 C 0.59733 0.53983 0.11989 0.0
C172 C 0.62684 0.4566 0.16878 0.0
O173 O 0.66171 0.58479 0.12845 0.0
O174 O 0.67819 0.53288 0.10894 0.0
C175 C 0.631 0.46608 0.09082 0.0
O176 O 0.61297 0.51677 0.11666 0.0
O177 O 0.5941 0.5686 0.13406 0.0
O178 O 0.61454 0.50051 0.16924 0.0
O179 O 0.63689 0.45289 0.15542 0.0
O180 O 0.64626 0.44051 0.08981 0.0
O181 O 0.62595 0.49511 0.10495 0.0
O182 O 0.64714 0.41654 0.14313 0.0
O183 O 0.66719 0.37812 0.1249 0.0
C184 C 0.65871 0.3712 0.13872 0.0
O185 O 0.64823 0.61771 0.13793 0.0
O186 O 0.62677 0.65554 0.1547 0.0
C187 C 0.67575 0.58252 0.11912 0.0
C188 C 0.64158 0.66467 0.14768 0.0
Zn189 Zn 0.41124 0.35595 0.14404 0.0
Zn190 Zn 0.36197 0.46289 0.1053 0.0
Zn191 Zn 0.38595 0.40953 0.12536 0.0
C192 C 0.36598 0.55269 0.13305 0.0
C193 C 0.3915 0.45235 0.08492 0.0
O194 O 0.37705 0.30577 0.13319 0.0
O195 O 0.39912 0.26827 0.14924 0.0
C196 C 0.39884 0.46904 0.1623 0.0
O197 O 0.37772 0.50771 0.13725 0.0
O198 O 0.35687 0.54449 0.11966 0.0
O199 O 0.37597 0.47556 0.08424 0.0
O200 O 0.3974 0.42625 0.09905 0.0
O201 O 0.41116 0.4252 0.16268 0.0
O202 O 0.38847 0.47198 0.14921 0.0
O203 O 0.41103 0.40635 0.11018 0.0
O204 O 0.43057 0.35567 0.12711 0.0
C205 C 0.42676 0.38347 0.11297 0.0
O206 O 0.36295 0.33866 0.12466 0.0
O207 O 0.34467 0.38717 0.10614 0.0
C208 C 0.38407 0.25897 0.14274 0.0
C209 C 0.34812 0.33931 0.11658 0.0
Zn210 Zn 0.64343 0.42791 0.40659 0.0
Zn211 Zn 0.59485 0.32545 0.36648 0.0
Zn212 Zn 0.62057 0.37545 0.3854 0.0
C213 C 0.58201 0.44847 0.37867 0.0
C214 C 0.62479 0.33842 0.34505 0.0
O215 O 0.6452 0.38809 0.37007 0.0
O216 O 0.66196 0.44128 0.38912 0.0
C217 C 0.63503 0.30253 0.42078 0.0
O218 O 0.59722 0.44621 0.38607 0.0
O219 O 0.57769 0.40216 0.36813 0.0
O220 O 0.60914 0.31623 0.34535 0.0
O221 O 0.63171 0.364 0.35878 0.0
O222 O 0.646 0.35066 0.42288 0.0
O223 O 0.62458 0.30354 0.40771 0.0
O224 O 0.61134 0.47757 0.39478 0.0
O225 O 0.63043 0.51034 0.41462 0.0
C226 C 0.61655 0.52136 0.40615 0.0
O227 O 0.61307 0.27337 0.39567 0.0
O228 O 0.59007 0.24114 0.38014 0.0
C229 C 0.6599 0.41704 0.37423 0.0
C230 C 0.60082 0.22955 0.39215 0.0
Zn231 Zn 0.39698 0.74801 0.35381 0.0
Zn232 Zn 0.35091 0.63932 0.39461 0.0
Zn233 Zn 0.37382 0.69163 0.37324 0.0
C234 C 0.35412 0.5479 0.36679 0.0
C235 C 0.38174 0.65013 0.41334 0.0
O236 O 0.36369 0.79472 0.36581 0.0
O237 O 0.38411 0.83281 0.34794 0.0
C238 C 0.38661 0.63044 0.33654 0.0
O239 O 0.36546 0.59303 0.36181 0.0
O240 O 0.34575 0.55653 0.38063 0.0
O241 O 0.36616 0.6284 0.41497 0.0
O242 O 0.38692 0.67541 0.39885 0.0
O243 O 0.39809 0.67729 0.33572 0.0
O244 O 0.37622 0.62695 0.34961 0.0
O245 O 0.39994 0.69652 0.38705 0.0
O246 O 0.41721 0.75452 0.3694 0.0
C247 C 0.41513 0.72298 0.3834 0.0
O248 O 0.35005 0.76063 0.37476 0.0
O249 O 0.33286 0.71275 0.3943 0.0
C250 C 0.36956 0.84127 0.35548 0.0
C251 C 0.3355 0.75959 0.38336 0.0
Zn252 Zn 0.3547 0.41769 0.88968 0.0
Zn253 Zn 0.40408 0.28205 0.85698 0.0
Zn254 Zn 0.37859 0.3509 0.8724 0.0
C255 C 0.4189 0.32553 0.88711 0.0
C256 C 0.39415 0.39089 0.83513 0.0
O257 O 0.35431 0.28448 0.87334 0.0
O258 O 0.3352 0.352 0.88665 0.0
C259 C 0.38249 0.40243 0.9123 0.0
O260 O 0.40319 0.35076 0.8886 0.0
O261 O 0.42296 0.28993 0.87417 0.0
O262 O 0.40497 0.34151 0.83627 0.0
O263 O 0.38349 0.4039 0.84761 0.0
O264 O 0.36697 0.42601 0.91202 0.0
O265 O 0.38906 0.37432 0.89869 0.0
O266 O 0.37267 0.44641 0.85777 0.0
O267 O 0.35338 0.49894 0.87462 0.0
C268 C 0.36243 0.49781 0.86106 0.0
O269 O 0.36847 0.24627 0.86667 0.0
O270 O 0.39145 0.1936 0.85489 0.0
C271 C 0.33851 0.29681 0.87871 0.0
C272 C 0.37566 0.19246 0.85992 0.0
Zn273 Zn 0.65303 0.43676 0.89874 0.0
Zn274 Zn 0.60682 0.55533 0.8577 0.0
Zn275 Zn 0.63022 0.4963 0.87834 0.0
C276 C 0.5887 0.52076 0.88771 0.0
C277 C 0.62062 0.44416 0.83939 0.0
O278 O 0.65317 0.56664 0.88177 0.0
O279 O 0.67027 0.51247 0.90038 0.0
C280 C 0.62221 0.4471 0.91781 0.0
O281 O 0.60416 0.49808 0.89181 0.0
O282 O 0.58633 0.54998 0.87342 0.0
O283 O 0.60882 0.48995 0.83819 0.0
O284 O 0.62941 0.4377 0.85349 0.0
O285 O 0.63743 0.42088 0.91864 0.0
O286 O 0.6171 0.47705 0.90385 0.0
O287 O 0.63877 0.39945 0.86602 0.0
O288 O 0.65915 0.35839 0.88361 0.0
C289 C 0.65035 0.3534 0.86994 0.0
O290 O 0.64003 0.60025 0.87228 0.0
O291 O 0.61962 0.64392 0.85506 0.0
C292 C 0.66738 0.56375 0.89082 0.0
C293 C 0.6341 0.6497 0.86289 0.0
Zn294 Zn 0.36284 0.5823 0.60302 0.0
Zn295 Zn 0.4081 0.69134 0.64473 0.0
Zn296 Zn 0.38523 0.63597 0.62427 0.0
C297 C 0.426 0.67469 0.61441 0.0
C298 C 0.39804 0.5706 0.66065 0.0
O299 O 0.3612 0.70255 0.62324 0.0
O300 O 0.34444 0.65413 0.60343 0.0
C301 C 0.39317 0.60013 0.58391 0.0
O302 O 0.41111 0.64637 0.61051 0.0
O303 O 0.42802 0.70312 0.62881 0.0
O304 O 0.40948 0.61741 0.66211 0.0
O305 O 0.38791 0.56896 0.64736 0.0
O306 O 0.37793 0.57467 0.58259 0.0
O307 O 0.3983 0.62555 0.5984 0.0
O308 O 0.37746 0.5348 0.635 0.0
O309 O 0.35776 0.49782 0.61625 0.0
C310 C 0.36631 0.48899 0.62996 0.0
O311 O 0.37449 0.73702 0.63255 0.0
O312 O 0.39436 0.77355 0.65119 0.0
C313 C 0.34674 0.70061 0.61452 0.0
C314 C 0.37993 0.78227 0.64344 0.0
Zn315 Zn 0.60338 0.31141 0.64227 0.0
Zn316 Zn 0.65459 0.40741 0.60315 0.0
Zn317 Zn 0.63012 0.35949 0.62426 0.0
C318 C 0.62887 0.5079 0.60452 0.0
C319 C 0.64291 0.28679 0.58821 0.0
O320 O 0.62175 0.25832 0.61388 0.0
O321 O 0.59855 0.22604 0.62913 0.0
C322 C 0.63292 0.32271 0.66455 0.0
O323 O 0.62241 0.46364 0.61515 0.0
O324 O 0.64304 0.4953 0.59664 0.0
O325 O 0.65461 0.33214 0.58599 0.0
O326 O 0.63299 0.28899 0.60167 0.0
O327 O 0.61702 0.30352 0.66383 0.0
O328 O 0.64064 0.3461 0.65097 0.0
O329 O 0.60757 0.43437 0.62322 0.0
O330 O 0.58671 0.38899 0.63947 0.0
C331 C 0.59189 0.43656 0.62965 0.0
O332 O 0.65489 0.36488 0.63975 0.0
O333 O 0.67336 0.40941 0.6207 0.0
C334 C 0.60944 0.21451 0.61724 0.0
C335 C 0.67038 0.3868 0.6356 0.0
H336 H 0.19602 0.17177 0.10575 0.0
H337 H 0.22654 0.20859 0.10953 0.0
H338 H 0.22069 0.19399 0.1644 0.0
H339 H 0.18981 0.15778 0.16066 0.0
H340 H 0.24433 0.31093 0.14869 0.0
H341 H 0.25911 0.04317 0.12802 0.0
H342 H 0.24369 0.08827 0.11457 0.0
H343 H 0.23786 0.06876 0.13637 0.0
C344 C 0.20101 0.17922 0.11864 0.0
C345 C 0.19066 0.16162 0.13291 0.0
C346 C 0.21846 0.19971 0.12078 0.0
C347 C 0.22592 0.20229 0.13721 0.0
C348 C 0.21514 0.19175 0.15162 0.0
H349 H 0.33986 0.29013 0.14842 0.0
H350 H 0.31096 0.24473 0.15715 0.0
C351 C 0.1975 0.17172 0.14948 0.0
C352 C 0.24531 0.20752 0.13882 0.0
H353 H 0.28292 0.12379 0.12663 0.0
C354 C 0.25285 0.26961 0.1443 0.0
C355 C 0.25633 0.15311 0.13317 0.0
C356 C 0.24889 0.08425 0.12784 0.0
C357 C 0.27115 0.28042 0.14309 0.0
C358 C 0.28203 0.22753 0.13634 0.0
C359 C 0.27455 0.16407 0.13184 0.0
C360 C 0.30052 0.24123 0.13135 0.0
C361 C 0.27861 0.34982 0.14793 0.0
C362 C 0.30446 0.25021 0.11392 0.0
C363 C 0.32083 0.27595 0.10894 0.0
C364 C 0.33362 0.29239 0.12129 0.0
C365 C 0.33028 0.27721 0.13863 0.0
C366 C 0.31374 0.25207 0.14365 0.0
H367 H 0.2682 0.38697 0.15183 0.0
H368 H 0.28798 0.34354 0.15875 0.0
H369 H 0.28604 0.37193 0.13695 0.0
H370 H 0.29445 0.24173 0.10424 0.0
H371 H 0.32307 0.28734 0.09551 0.0
H372 H 0.82476 0.78642 0.09157 0.0
H373 H 0.7958 0.73747 0.09779 0.0
H374 H 0.8079 0.73686 0.15181 0.0
H375 H 0.83716 0.78563 0.14561 0.0
H376 H 0.78398 0.61484 0.11849 0.0
H377 H 0.76384 0.8717 0.14413 0.0
H378 H 0.78292 0.86187 0.13048 0.0
H379 H 0.78363 0.83166 0.15219 0.0
C380 C 0.82148 0.77373 0.10473 0.0
C381 C 0.83317 0.78982 0.11811 0.0
C382 C 0.80491 0.74611 0.10827 0.0
C383 C 0.79962 0.73486 0.12526 0.0
C384 C 0.81171 0.74595 0.13862 0.0
H385 H 0.68871 0.63314 0.14936 0.0
H386 H 0.71894 0.67587 0.15364 0.0
C387 C 0.82847 0.77299 0.13505 0.0
C388 C 0.78095 0.71717 0.12871 0.0
H389 H 0.74137 0.79065 0.13928 0.0
C390 C 0.77471 0.65273 0.12336 0.0
C391 C 0.76889 0.76685 0.13504 0.0
C392 C 0.77501 0.83715 0.14077 0.0
C393 C 0.75663 0.63751 0.12356 0.0
C394 C 0.74445 0.68869 0.12886 0.0
C395 C 0.75074 0.75184 0.1351 0.0
C396 C 0.72522 0.67851 0.12658 0.0
C397 C 0.75065 0.56725 0.11762 0.0
C398 C 0.71844 0.6707 0.10997 0.0
C399 C 0.70133 0.64652 0.10753 0.0
C400 C 0.6906 0.63049 0.12165 0.0
C401 C 0.69668 0.64566 0.13826 0.0
C402 C 0.71397 0.66943 0.14072 0.0
H403 H 0.76143 0.52855 0.11856 0.0
H404 H 0.73923 0.54893 0.12528 0.0
H405 H 0.74652 0.57044 0.10399 0.0
H406 H 0.72682 0.67875 0.09889 0.0
H407 H 0.69694 0.63536 0.09459 0.0
H408 H 0.32679 0.81439 0.35202 0.0
H409 H 0.29814 0.86404 0.34394 0.0
H410 H 0.28114 0.8518 0.39664 0.0
H411 H 0.3096 0.80344 0.40474 0.0
H412 H 0.26646 0.79467 0.34765 0.0
H413 H 0.26332 0.0408 0.38301 0.0
H414 H 0.28385 -0.00393 0.37918 0.0
H415 H 0.26988 0.97158 0.39686 0.0
C416 C 0.31718 0.82494 0.36196 0.0
C417 C 0.3205 0.80552 0.37905 0.0
C418 C 0.30074 0.85256 0.3573 0.0
C419 C 0.28747 0.86205 0.36969 0.0
C420 C 0.2912 0.84626 0.38688 0.0
H421 H 0.17749 0.81585 0.37579 0.0
H422 H 0.20846 0.79914 0.36811 0.0
C423 C 0.30751 0.81844 0.3915 0.0
C424 C 0.26915 0.88138 0.36474 0.0
H425 H 0.2353 0.98705 0.37658 0.0
C426 C 0.25971 0.83768 0.35367 0.0
C427 C 0.26035 0.938 0.37232 0.0
C428 C 0.26994 0.98968 0.38336 0.0
C429 C 0.24149 0.84641 0.35093 0.0
C430 C 0.23238 0.89942 0.35976 0.0
C431 C 0.2421 0.94581 0.3699 0.0
C432 C 0.21273 0.90479 0.36003 0.0
C433 C 0.23219 0.79803 0.33881 0.0
C434 C 0.20447 0.969 0.35757 0.0
C435 C 0.18679 0.97856 0.36215 0.0
C436 C 0.17695 0.9239 0.36904 0.0
C437 C 0.18465 0.85821 0.37 0.0
C438 C 0.20243 0.84879 0.36564 0.0
H439 H 0.24126 0.77996 0.32854 0.0
H440 H 0.22769 0.75193 0.34601 0.0
H441 H 0.22056 0.82288 0.33275 0.0
H442 H 0.21206 0.01309 0.3533 0.0
H443 H 0.18125 0.03007 0.36169 0.0
H444 H 0.80611 0.3112 0.40104 0.0
H445 H 0.77737 0.3503 0.39075 0.0
H446 H 0.79579 0.3373 0.33854 0.0
H447 H 0.82487 0.29954 0.34885 0.0
H448 H 0.77066 0.44706 0.3445 0.0
H449 H 0.74744 0.19544 0.36896 0.0
H450 H 0.75846 0.24457 0.38523 0.0
H451 H 0.77053 0.21581 0.36667 0.0
C452 C 0.80425 0.3191 0.3874 0.0
C453 C 0.81767 0.30183 0.37575 0.0
C454 C 0.78778 0.34083 0.38152 0.0
C455 C 0.78428 0.34453 0.36386 0.0
C456 C 0.79816 0.33404 0.35221 0.0
H457 H 0.67046 0.31662 0.3515 0.0
H458 H 0.70086 0.29934 0.34152 0.0
C459 C 0.8148 0.313 0.35813 0.0
C460 C 0.76576 0.35191 0.35789 0.0
H461 H 0.72514 0.28054 0.3637 0.0
C462 C 0.7607 0.41022 0.34843 0.0
C463 C 0.75284 0.30247 0.36238 0.0
C464 C 0.75761 0.23566 0.3712 0.0
C465 C 0.74283 0.42315 0.34464 0.0
C466 C 0.72971 0.37741 0.35085 0.0
C467 C 0.73503 0.31629 0.35903 0.0
C468 C 0.71063 0.39616 0.35164 0.0
C469 C 0.73825 0.48632 0.33429 0.0
C470 C 0.70567 0.45789 0.35971 0.0
C471 C 0.68836 0.46802 0.36517 0.0
C472 C 0.67559 0.41629 0.36294 0.0
C473 C 0.67999 0.35756 0.3533 0.0
C474 C 0.69742 0.34749 0.34772 0.0
H475 H 0.74854 0.49648 0.32447 0.0
H476 H 0.72531 0.48098 0.32777 0.0
H477 H 0.73779 0.53186 0.3429 0.0
H478 H 0.71548 0.49572 0.36331 0.0
H479 H 0.68534 0.51389 0.37255 0.0
H480 H 0.67817 0.62605 0.86115 0.0
H481 H 0.70725 0.67863 0.85632 0.0
H482 H 0.71857 0.66275 0.91036 0.0
H483 H 0.68977 0.61002 0.91522 0.0
H484 H 0.73077 0.7914 0.89165 0.0
H485 H 0.75095 0.54019 0.86276 0.0
H486 H 0.73135 0.58256 0.85501 0.0
H487 H 0.73168 0.5473 0.87626 0.0
C488 C 0.6866 0.63638 0.87206 0.0
C489 C 0.68179 0.61389 0.88856 0.0
C490 C 0.70326 0.66561 0.86926 0.0
C491 C 0.71511 0.67331 0.88296 0.0
C492 C 0.70963 0.65682 0.89963 0.0
H493 H 0.81811 0.76651 0.91569 0.0
H494 H 0.78773 0.7292 0.91122 0.0
C495 C 0.69316 0.62699 0.90239 0.0
C496 C 0.73383 0.69145 0.88008 0.0
H497 H 0.77344 0.61916 0.86921 0.0
C498 C 0.74007 0.75437 0.88645 0.0
C499 C 0.74591 0.64288 0.87329 0.0
C500 C 0.73978 0.57419 0.86646 0.0
C501 C 0.75817 0.76909 0.88677 0.0
C502 C 0.77036 0.71869 0.88101 0.0
C503 C 0.76407 0.65728 0.87377 0.0
C504 C 0.7896 0.72771 0.88353 0.0
C505 C 0.76412 0.83808 0.89359 0.0
C506 C 0.80111 0.73356 0.86949 0.0
C507 C 0.81867 0.75374 0.87205 0.0
C508 C 0.82481 0.76843 0.88867 0.0
C509 C 0.81368 0.75594 0.90274 0.0
C510 C 0.79628 0.73535 0.90019 0.0
H511 H 0.7535 0.87741 0.89257 0.0
H512 H 0.7676 0.83268 0.90735 0.0
H513 H 0.77591 0.85701 0.8866 0.0
H514 H 0.79624 0.72692 0.85654 0.0
H515 H 0.82692 0.76345 0.86097 0.0
H516 H 0.33542 0.15427 0.87833 0.0
H517 H 0.30851 0.08759 0.87185 0.0
H518 H 0.28048 0.27713 0.86193 0.0
H519 H 0.307 0.34274 0.86807 0.0
H520 H 0.27679 0.10367 0.89039 0.0
H521 H 0.26475 0.15712 0.82179 0.0
H522 H 0.28609 0.16862 0.83169 0.0
H523 H 0.26939 0.23422 0.83366 0.0
C524 C 0.32363 0.18115 0.87429 0.0
C525 C 0.32332 0.25352 0.87363 0.0
C526 C 0.30826 0.14324 0.87068 0.0
C527 C 0.29253 0.17736 0.86607 0.0
C528 C 0.29249 0.24945 0.86501 0.0
H529 H 0.18104 0.14974 0.86859 0.0
H530 H 0.2117 0.17585 0.86072 0.0
C531 C 0.30764 0.28696 0.86875 0.0
C532 C 0.27551 0.14001 0.86438 0.0
H533 H 0.23905 0.12749 0.83872 0.0
C534 C 0.26869 0.10722 0.87895 0.0
C535 C 0.26486 0.14554 0.84951 0.0
C536 C 0.27172 0.17774 0.83322 0.0
C537 C 0.25119 0.08369 0.87947 0.0
C538 C 0.24029 0.09146 0.8648 0.0
C539 C 0.24735 0.12163 0.84995 0.0
C540 C 0.2213 0.0722 0.86523 0.0
C541 C 0.24423 0.05457 0.89612 0.0
C542 C 0.21629 0.00439 0.86913 0.0
C543 C 0.19891 0.98973 0.87378 0.0
C544 C 0.18611 0.04223 0.87419 0.0
C545 C 0.19062 0.10825 0.86824 0.0
C546 C 0.20816 0.12324 0.86387 0.0
H547 H 0.25296 0.06691 0.90714 0.0
H548 H 0.23084 0.07483 0.89894 0.0
H549 H 0.24338 -0.00239 0.89508 0.0
H550 H 0.22609 0.9638 0.86983 0.0
H551 H 0.19574 0.93832 0.87827 0.0
H552 H 0.68669 0.26752 0.6438 0.0
H553 H 0.71825 0.25731 0.6493 0.0
H554 H 0.72152 0.47757 0.65651 0.0
H555 H 0.69006 0.48773 0.65003 0.0
H556 H 0.74288 0.44416 0.63303 0.0
H557 H 0.75497 0.25841 0.68503 0.0
H558 H 0.74029 0.2205 0.66974 0.0
H559 H 0.73349 0.29607 0.68154 0.0
C560 C 0.69396 0.31317 0.64756 0.0
C561 C 0.6859 0.37826 0.64677 0.0
C562 C 0.71211 0.30743 0.65065 0.0
C563 C 0.72247 0.36666 0.65337 0.0
C564 C 0.71394 0.43101 0.65441 0.0
H565 H 0.83685 0.2791 0.6527 0.0
H566 H 0.80898 0.33045 0.66247 0.0
C567 C 0.69588 0.43679 0.65097 0.0
C568 C 0.74214 0.36289 0.65195 0.0
H569 H 0.77791 0.265 0.66296 0.0
C570 C 0.75054 0.40594 0.63993 0.0
C571 C 0.75245 0.31405 0.66103 0.0
C572 C 0.74482 0.2703 0.67518 0.0
C573 C 0.76853 0.39855 0.63598 0.0
C574 C 0.77839 0.34521 0.64382 0.0
C575 C 0.77035 0.30524 0.65669 0.0
C576 C 0.79632 0.32542 0.63762 0.0
C577 C 0.77666 0.44744 0.62318 0.0
C578 C 0.79875 0.30727 0.62033 0.0
C579 C 0.81474 0.27937 0.61472 0.0
C580 C 0.8287 0.26848 0.62625 0.0
C581 C 0.82661 0.28943 0.64339 0.0
C582 C 0.81054 0.31756 0.64904 0.0
H583 H 0.77002 0.49853 0.62353 0.0
H584 H 0.79095 0.45497 0.62563 0.0
H585 H 0.77498 0.42623 0.61007 0.0
H586 H 0.78794 0.31096 0.61131 0.0
H587 H 0.81583 0.26256 0.6015 0.0
H588 H 0.19053 0.84009 0.60501 0.0
H589 H 0.22142 0.80617 0.60749 0.0
H590 H 0.21771 0.81813 0.66259 0.0
H591 H 0.18649 0.85126 0.66014 0.0
H592 H 0.24393 0.90724 0.62421 0.0
H593 H 0.24982 0.64473 0.6528 0.0
H594 H 0.23034 0.67153 0.64121 0.0
H595 H 0.23453 0.70502 0.66224 0.0
C596 C 0.19608 0.83245 0.61768 0.0
C597 C 0.18617 0.84837 0.63238 0.0
C598 C 0.21376 0.81361 0.61908 0.0
C599 C 0.22191 0.81042 0.6352 0.0
C600 C 0.21164 0.81988 0.65003 0.0
H601 H 0.33649 0.74302 0.64645 0.0
H602 H 0.30676 0.78224 0.65445 0.0
C603 C 0.19378 0.83831 0.64863 0.0
C604 C 0.24145 0.80725 0.63602 0.0
H605 H 0.27615 0.70093 0.645 0.0
C606 C 0.25099 0.86244 0.62895 0.0
C607 C 0.25063 0.74935 0.64244 0.0
C608 C 0.24091 0.68891 0.65007 0.0
C609 C 0.26941 0.85993 0.6274 0.0
C610 C 0.27853 0.80032 0.63287 0.0
C611 C 0.26911 0.74668 0.64083 0.0
C612 C 0.2973 0.78871 0.62832 0.0
C613 C 0.27892 0.92037 0.61951 0.0
C614 C 0.30199 0.78176 0.611 0.0
C615 C 0.31884 0.75938 0.60644 0.0
C616 C 0.33139 0.74379 0.6191 0.0
C617 C 0.32715 0.75572 0.63642 0.0
C618 C 0.31013 0.77733 0.64101 0.0
H619 H 0.27123 0.96883 0.62093 0.0
H620 H 0.29211 0.92762 0.62541 0.0
H621 H 0.28078 0.91068 0.60559 0.0
H622 H 0.29226 0.78947 0.60101 0.0
H623 H 0.3217 0.75005 0.59302 0.0
H624 H 0.15609 0.87769 0.3407 0.0
H625 H 0.16545 0.87316 0.31036 0.0
H626 H 0.11211 0.91596 0.29452 0.0
H627 H 0.10283 0.92125 0.32427 0.0
H628 H 0.13071 0.78916 0.27964 0.0
H629 H 0.16614 0.03947 0.27295 0.0
H630 H 0.16985 0.98449 0.2913 0.0
H631 H 0.14929 0.02923 0.28911 0.0
C632 C 0.1465 0.88747 0.33073 0.0
C633 C 0.12871 0.89966 0.33495 0.0
C634 C 0.15182 0.88442 0.31342 0.0
C635 C 0.1394 0.89375 0.3002 0.0
C636 C 0.12187 0.90807 0.30448 0.0
H637 H 0.10404 0.9374 0.20217 0.0
H638 H 0.11131 0.8975 0.23096 0.0
C639 C 0.1166 0.9111 0.32157 0.0
C640 C 0.14396 0.88692 0.28174 0.0
H641 H 0.15717 0.98397 0.24754 0.0
C642 C 0.13696 0.83079 0.27263 0.0
C643 C 0.15217 0.94101 0.27261 0.0
C644 C 0.15985 0.00222 0.28187 0.0
C645 C 0.13683 0.82974 0.2546 0.0
C646 C 0.14359 0.88682 0.24544 0.0
C647 C 0.15193 0.94023 0.25455 0.0
C648 C 0.13955 0.89765 0.22694 0.0
C649 C 0.12869 0.76894 0.24553 0.0
C650 C 0.15297 0.90938 0.21485 0.0
C651 C 0.14878 0.93154 0.19818 0.0
C652 C 0.13113 0.94378 0.19353 0.0
C653 C 0.11774 0.92796 0.20534 0.0
C654 C 0.1219 0.90504 0.22183 0.0
H655 H 0.12992 0.72123 0.25334 0.0
H656 H 0.11444 0.77901 0.24352 0.0
H657 H 0.13494 0.76008 0.23283 0.0
H658 H 0.16668 0.90443 0.21853 0.0
H659 H 0.15939 0.94425 0.18943 0.0
H660 H 0.9111 0.07438 0.31716 0.0
H661 H 0.9078 0.04629 0.28681 0.0
H662 H 0.85131 0.06032 0.29168 0.0
H663 H 0.85455 0.08777 0.32233 0.0
H664 H 0.86666 0.95199 0.26687 0.0
H665 H 0.89076 0.21956 0.25773 0.0
H666 H 0.90421 0.16759 0.27163 0.0
H667 H 0.88206 0.18895 0.27791 0.0
C668 C 0.89794 0.06868 0.31195 0.0
C669 C 0.88309 0.08378 0.32205 0.0
C670 C 0.89608 0.05319 0.29457 0.0
C671 C 0.87935 0.05307 0.28694 0.0
C672 C 0.86435 0.06077 0.29734 0.0
H673 H 0.86405 0.00619 0.17481 0.0
H674 H 0.85666 0.03754 0.20452 0.0
C675 C 0.8662 0.07581 0.31487 0.0
C676 C 0.87799 0.05343 0.26796 0.0
H677 H 0.8908 0.14713 0.23299 0.0
C678 C 0.87159 0.99503 0.2594 0.0
C679 C 0.88431 0.11006 0.25829 0.0
C680 C 0.89058 0.17544 0.26682 0.0
C681 C 0.87241 0.99009 0.24139 0.0
C682 C 0.87965 0.04532 0.2318 0.0
C683 C 0.88522 0.10498 0.24035 0.0
C684 C 0.88373 0.03827 0.21326 0.0
C685 C 0.86652 0.92434 0.23281 0.0
C686 C 0.9014 0.03252 0.20815 0.0
C687 C 0.90562 0.01494 0.19129 0.0
C688 C 0.89227 0.00344 0.17913 0.0
C689 C 0.87462 0.01527 0.18386 0.0
C690 C 0.87037 0.03225 0.20087 0.0
H691 H 0.86307 0.88355 0.24223 0.0
H692 H 0.85474 0.93503 0.22479 0.0
H693 H 0.87705 0.90449 0.22423 0.0
H694 H 0.91192 0.03753 0.21747 0.0
H695 H 0.91933 0.00619 0.18801 0.0
H696 H 0.86604 0.06299 0.67996 0.0
H697 H 0.86065 0.03771 0.71043 0.0
H698 H 0.91515 0.08109 0.72176 0.0
H699 H 0.92052 0.10736 0.69161 0.0
H700 H 0.87549 0.94903 0.73544 0.0
H701 H 0.88871 0.22232 0.75112 0.0
H702 H 0.88527 0.19282 0.72942 0.0
H703 H 0.90652 0.18344 0.73944 0.0
C704 C 0.87695 0.06522 0.68889 0.0
C705 C 0.89366 0.08784 0.68345 0.0
C706 C 0.87382 0.05141 0.70631 0.0
C707 C 0.88737 0.05992 0.71844 0.0
C708 C 0.90438 0.07639 0.71272 0.0
H709 H 0.91637 0.9835 0.81963 0.0
H710 H 0.91214 0.02472 0.7903 0.0
C711 C 0.90747 0.09069 0.69545 0.0
C712 C 0.88385 0.05476 0.73715 0.0
H713 H 0.88971 0.14253 0.77476 0.0
C714 C 0.87823 0.99167 0.74403 0.0
C715 C 0.88723 0.11082 0.74835 0.0
C716 C 0.89208 0.18138 0.7417 0.0
C717 C 0.87707 0.98184 0.76187 0.0
C718 C 0.88156 0.03661 0.77304 0.0
C719 C 0.8863 0.10067 0.76616 0.0
C720 C 0.88367 0.02519 0.79173 0.0
C721 C 0.87203 0.91187 0.76875 0.0
C722 C 0.86905 0.01564 0.80253 0.0
C723 C 0.87146 0.99317 0.81948 0.0
C724 C 0.88851 0.97913 0.82566 0.0
C725 C 0.9031 0.99405 0.81519 0.0
C726 C 0.9007 0.01726 0.79842 0.0
H727 H 0.86992 0.87354 0.75836 0.0
H728 H 0.88249 0.89236 0.77746 0.0
H729 H 0.85969 0.91632 0.77633 0.0
H730 H 0.8558 0.02203 0.79759 0.0
H731 H 0.85999 0.98138 0.82722 0.0
H732 H 0.14973 0.21969 0.83801 0.0
H733 H 0.15556 0.22343 0.80709 0.0
H734 H 0.14829 0.00309 0.8043 0.0
H735 H 0.14362 -0.00089 0.83535 0.0
H736 H 0.17037 0.04228 0.78002 0.0
H737 H 0.11226 0.21675 0.77851 0.0
H738 H 0.13082 0.25161 0.78976 0.0
H739 H 0.11975 0.17639 0.79798 0.0
C740 C 0.1503 0.17177 0.83089 0.0
C741 C 0.14639 0.10904 0.83903 0.0
C742 C 0.15327 0.17402 0.81315 0.0
C743 C 0.15162 0.11396 0.80317 0.0
C744 C 0.14947 0.05036 0.81162 0.0
H745 H 0.10232 0.0391 0.7087 0.0
H746 H 0.11163 0.07459 0.73717 0.0
C747 C 0.14695 0.04792 0.82942 0.0
C748 C 0.14996 0.11764 0.78408 0.0
H749 H 0.12421 0.18451 0.75209 0.0
C750 C 0.16041 0.07393 0.77388 0.0
C751 C 0.13678 0.15833 0.77601 0.0
C752 C 0.12414 0.20291 0.78611 0.0
C753 C 0.15761 0.06771 0.75607 0.0
C754 C 0.14434 0.10808 0.74807 0.0
C755 C 0.13448 0.15407 0.75815 0.0
C756 C 0.13864 0.09614 0.72996 0.0
C757 C 0.16816 0.01479 0.74624 0.0
C758 C 0.15043 0.0996 0.71604 0.0
C759 C 0.14512 0.07856 0.69957 0.0
C760 C 0.12784 0.05459 0.69674 0.0
C761 C 0.11576 0.05691 0.71041 0.0
C762 C 0.12108 0.0772 0.72677 0.0
H763 H 0.17517 0.97844 0.7549 0.0
H764 H 0.15951 0.98447 0.73759 0.0
H765 H 0.17819 0.04143 0.73829 0.0
H766 H 0.16392 0.116 0.718 0.0
H767 H 0.1548 0.07694 0.6894 0.0
H768 H 0.64908 0.43121 0.33209 0.0
H769 H 0.65763 0.44319 0.30176 0.0
H770 H 0.62853 0.25871 0.28952 0.0
H771 H 0.6205 0.24562 0.31954 0.0
H772 H 0.65763 0.26975 0.2693 0.0
H773 H 0.61991 0.51628 0.26972 0.0
H774 H 0.63864 0.51261 0.28377 0.0
H775 H 0.6199 0.45828 0.28777 0.0
C776 C 0.64506 0.39205 0.32301 0.0
C777 C 0.63394 0.33795 0.32819 0.0
C778 C 0.64975 0.39935 0.30562 0.0
C779 C 0.64332 0.35286 0.29321 0.0
C780 C 0.63358 0.29561 0.29873 0.0
H781 H 0.60357 0.41634 0.19321 0.0
H782 H 0.61022 0.38546 0.22283 0.0
C783 C 0.62894 0.2883 0.31595 0.0
C784 C 0.64472 0.3666 0.27439 0.0
H785 H 0.62946 0.47516 0.24316 0.0
C786 C 0.65173 0.31521 0.26358 0.0
C787 C 0.63677 0.42542 0.26684 0.0
C788 C 0.62824 0.48117 0.27755 0.0
C789 C 0.65048 0.31999 0.24556 0.0
C790 C 0.64216 0.37802 0.23811 0.0
C791 C 0.63581 0.43057 0.24888 0.0
C792 C 0.63851 0.3837 0.21934 0.0
C793 C 0.65725 0.26145 0.23465 0.0
C794 C 0.65216 0.3897 0.2072 0.0
C795 C 0.64833 0.40655 0.19004 0.0
C796 C 0.63081 0.41852 0.18485 0.0
C797 C 0.61719 0.40753 0.19678 0.0
C798 C 0.62099 0.3903 0.21377 0.0
H799 H 0.66043 0.21505 0.24242 0.0
H800 H 0.64739 0.24713 0.22475 0.0
H801 H 0.66942 0.27812 0.22794 0.0
H802 H 0.66579 0.38555 0.21117 0.0
H803 H 0.65912 0.41556 0.18123 0.0
H804 H 0.41194 0.57908 0.31575 0.0
H805 H 0.40817 0.54354 0.28596 0.0
H806 H 0.3517 0.55502 0.29175 0.0
H807 H 0.35545 0.59055 0.32184 0.0
H808 H 0.38848 0.43739 0.26811 0.0
H809 H 0.36465 0.70428 0.25482 0.0
H810 H 0.37558 0.6821 0.27464 0.0
H811 H 0.35334 0.65462 0.27093 0.0
C812 C 0.3987 0.57164 0.31087 0.0
C813 C 0.38399 0.58784 0.32105 0.0
C814 C 0.39656 0.55168 0.29381 0.0
C815 C 0.37969 0.54826 0.28654 0.0
C816 C 0.36486 0.55844 0.29707 0.0
H817 H 0.36646 0.51019 0.17423 0.0
H818 H 0.35913 0.53385 0.20436 0.0
C819 C 0.367 0.5778 0.3143 0.0
C820 C 0.37811 0.54067 0.26765 0.0
H821 H 0.37135 0.63467 0.23106 0.0
C822 C 0.38442 0.48002 0.26001 0.0
C823 C 0.37285 0.59652 0.25709 0.0
C824 C 0.36629 0.66337 0.26468 0.0
C825 C 0.38621 0.47459 0.24214 0.0
C826 C 0.38194 0.53183 0.23165 0.0
C827 C 0.37473 0.59118 0.23917 0.0
C828 C 0.3862 0.53187 0.21306 0.0
C829 C 0.39312 0.4081 0.23464 0.0
C830 C 0.40386 0.52771 0.20785 0.0
C831 C 0.40807 0.51462 0.19073 0.0
C832 C 0.3947 0.50581 0.17846 0.0
C833 C 0.37707 0.51716 0.18336 0.0
C834 C 0.37284 0.53002 0.2006 0.0
H835 H 0.39125 0.36409 0.24358 0.0
H836 H 0.38647 0.39599 0.22231 0.0
H837 H 0.40745 0.41341 0.23211 0.0
H838 H 0.41438 0.53044 0.21723 0.0
H839 H 0.42177 0.50651 0.18734 0.0
H840 H 0.42007 0.41182 0.8118 0.0
H841 H 0.41638 0.43984 0.78152 0.0
H842 H 0.3607 0.47142 0.78962 0.0
H843 H 0.36441 0.44472 0.82018 0.0
H844 H 0.39583 0.3586 0.76062 0.0
H845 H 0.3734 0.63176 0.75796 0.0
H846 H 0.38369 0.5953 0.77678 0.0
H847 H 0.3611 0.57585 0.77192 0.0
C848 C 0.40712 0.42689 0.80726 0.0
C849 C 0.39253 0.42595 0.81835 0.0
C850 C 0.40501 0.44245 0.78992 0.0
C851 C 0.38826 0.4572 0.78324 0.0
C852 C 0.37379 0.46093 0.79449 0.0
H853 H 0.3663 0.52911 0.67354 0.0
H854 H 0.36094 0.48909 0.70301 0.0
C855 C 0.37594 0.44593 0.81199 0.0
C856 C 0.38599 0.46188 0.76433 0.0
H857 H 0.37555 0.57208 0.73168 0.0
C858 C 0.39125 0.40516 0.75431 0.0
C859 C 0.3798 0.52222 0.7561 0.0
C860 C 0.37428 0.58506 0.76618 0.0
C861 C 0.39118 0.40812 0.73633 0.0
C862 C 0.38576 0.46943 0.72811 0.0
C863 C 0.37963 0.52497 0.73806 0.0
C864 C 0.38858 0.48039 0.70949 0.0
C865 C 0.3973 0.34626 0.72621 0.0
C866 C 0.40585 0.48621 0.70324 0.0
C867 C 0.40892 0.50934 0.68656 0.0
C868 C 0.39477 0.52652 0.67575 0.0
C869 C 0.37744 0.51528 0.68152 0.0
C870 C 0.37436 0.49312 0.69839 0.0
H871 H 0.39644 0.29811 0.73389 0.0
H872 H 0.38937 0.33997 0.71434 0.0
H873 H 0.41127 0.35375 0.72243 0.0
H874 H 0.417 0.47727 0.71164 0.0
H875 H 0.42239 0.51807 0.68247 0.0
H876 H 0.65347 0.39715 0.82994 0.0
H877 H 0.66294 0.368 0.80065 0.0
H878 H 0.60908 0.38174 0.78338 0.0
H879 H 0.59962 0.41165 0.81236 0.0
H880 H 0.65419 0.26877 0.77495 0.0
H881 H 0.6343 0.53173 0.75543 0.0
H882 H 0.63626 0.50639 0.77763 0.0
H883 H 0.61666 0.48586 0.76566 0.0
C884 C 0.64359 0.39173 0.82001 0.0
C885 C 0.6258 0.40724 0.82346 0.0
C886 C 0.64905 0.37569 0.80322 0.0
C887 C 0.63679 0.37484 0.78969 0.0
C888 C 0.61885 0.384 0.79349 0.0
H889 H 0.62766 0.22837 0.68944 0.0
H890 H 0.63394 0.24064 0.7198 0.0
C891 C 0.61343 0.40043 0.81013 0.0
C892 C 0.64255 0.36908 0.77144 0.0
H893 H 0.63836 0.44992 0.7327 0.0
C894 C 0.65097 0.30876 0.76574 0.0
C895 C 0.63892 0.42208 0.75942 0.0
C896 C 0.63122 0.49048 0.76486 0.0
C897 C 0.65464 0.29807 0.7482 0.0
C898 C 0.64946 0.34845 0.73599 0.0
C899 C 0.64222 0.41078 0.74191 0.0
C900 C 0.64912 0.33448 0.71712 0.0
C901 C 0.66382 0.23237 0.74296 0.0
C902 C 0.65577 0.38247 0.70515 0.0
C903 C 0.65208 0.37556 0.68753 0.0
C904 C 0.64146 0.3211 0.68168 0.0
C905 C 0.63592 0.27085 0.69353 0.0
C906 C 0.63963 0.27756 0.71098 0.0
H907 H 0.67302 0.21469 0.75314 0.0
H908 H 0.65385 0.19121 0.7411 0.0
H909 H 0.67133 0.23897 0.73084 0.0
H910 H 0.66304 0.42715 0.70954 0.0
H911 H 0.65637 0.41546 0.67875 0.0
H912 H 0.10578 0.15933 0.94142 0.0
H913 H 0.09487 0.17767 0.97064 0.0
H914 H 0.1481 0.16385 0.98983 0.0
H915 H 0.159 0.14742 0.96082 0.0
H916 H 0.09725 0.0786 0.99356 0.0
H917 H 0.12921 0.30573 0.02178 0.0
H918 H 0.12841 0.29231 0.99886 0.0
H919 H 0.14574 0.25404 0.01159 0.0
C920 C 0.11524 0.16388 0.95176 0.0
C921 C 0.13328 0.15169 0.9488 0.0
C922 C 0.10895 0.17364 0.96852 0.0
C923 C 0.12062 0.17226 0.98254 0.0
C924 C 0.13879 0.16663 0.97933 0.0
H925 H 0.12865 0.94971 0.07057 0.0
H926 H 0.12008 0.99343 0.04257 0.0
C927 C 0.14505 0.15686 0.96266 0.0
C928 C 0.11401 0.16409 1.00044 0.0
H929 H 0.12417 0.2084 0.04163 0.0
C930 C 0.10273 0.10841 1.00405 0.0
C931 C 0.12072 0.20349 0.01425 0.0
C932 C 0.13152 0.26768 0.01136 0.0
C933 C 0.0995 0.08704 0.02099 0.0
C934 C 0.10807 0.12118 0.03468 0.0
C935 C 0.11783 0.18112 0.03118 0.0
C936 C 0.10948 0.08988 0.05209 0.0
C937 C 0.08751 0.02623 0.02396 0.0
C938 C 0.10605 0.12859 0.06699 0.0
C939 C 0.11101 0.10339 0.08317 0.0
C940 C 0.11973 0.03957 0.08464 0.0
C941 C 0.12192 -0.00104 0.06987 0.0
C942 C 0.11692 0.02387 0.0538 0.0
H943 H 0.07689 0.02458 0.01416 0.0
H944 H 0.09524 0.97784 0.02277 0.0
H945 H 0.08139 0.02788 0.0369 0.0
H946 H 0.10042 0.17979 0.066 0.0
H947 H 0.10932 0.13624 0.09429 0.0
H948 H 0.8945 0.02433 0.93861 0.0
H949 H 0.90814 0.01825 0.96678 0.0
H950 H 0.92478 0.80943 0.95658 0.0
H951 H 0.91081 0.8153 0.92813 0.0
H952 H 0.90503 0.8189 0.9853 0.0
H953 H 0.95591 0.02007 0.98897 0.0
H954 H 0.93621 0.05536 0.97982 0.0
H955 H 0.94784 0.98751 0.96872 0.0
C956 C 0.90161 0.97789 0.94211 0.0
C957 C 0.90162 0.92035 0.93117 0.0
C958 C 0.90955 0.97462 0.95822 0.0
C959 C 0.91771 0.91367 0.96383 0.0
C960 C 0.91873 0.85729 0.95248 0.0
H961 H 0.91756 0.85085 0.07642 0.0
H962 H 0.92982 0.83398 0.0475 0.0
C963 C 0.91086 0.8608 0.93619 0.0
C964 C 0.92219 0.9064 0.98236 0.0
H965 H 0.93954 -0.00186 0.01574 0.0
C966 C 0.91309 0.85652 0.99195 0.0
C967 C 0.93274 0.95531 0.99108 0.0
C968 C 0.94386 0.00705 0.98154 0.0
C969 C 0.91278 0.85868 0.00998 0.0
C970 C 0.92203 0.91162 0.01867 0.0
C971 C 0.93237 0.95777 0.00911 0.0
C972 C 0.91841 0.9273 0.03702 0.0
C973 C 0.90127 0.80806 0.01951 0.0
C974 C 0.90888 0.98723 0.04098 0.0
C975 C 0.90198 -0.003 0.05739 0.0
C976 C 0.90457 0.94734 0.07028 0.0
C977 C 0.91545 0.89024 0.06679 0.0
C978 C 0.9223 0.8802 0.05022 0.0
H979 H 0.8935 0.77485 0.01071 0.0
H980 H 0.90965 0.77422 0.0276 0.0
H981 H 0.89199 0.83589 0.0281 0.0
H982 H 0.90574 0.0244 0.03106 0.0
H983 H 0.89373 0.04169 0.05973 0.0
H984 H 0.1021 0.83234 0.44282 0.0
H985 H 0.0924 0.81779 0.47267 0.0
H986 H 0.14297 0.89021 0.49032 0.0
H987 H 0.15276 0.90352 0.46075 0.0
H988 H 0.12907 0.78629 0.51098 0.0
H989 H 0.08014 0.99537 0.49889 0.0
H990 H 0.07856 0.91866 0.48603 0.0
H991 H 0.09724 0.97464 0.48366 0.0
C992 C 0.11135 0.84257 0.45308 0.0
C993 C 0.12816 0.86948 0.44944 0.0
C994 C 0.1057 0.8352 0.47014 0.0
C995 C 0.11681 0.85454 0.48374 0.0
C996 C 0.13411 0.87539 0.48007 0.0
H997 H 0.12122 0.0657 0.5737 0.0
H998 H 0.11374 0.02239 0.54532 0.0
C999 C 0.13971 0.88294 0.46312 0.0
C1000 C 0.11031 0.86054 0.50169 0.0
H1001 H 0.0857 0.96612 0.52744 0.0
C1002 C 0.11924 0.82427 0.51462 0.0
C1003 C 0.09757 0.91061 0.50639 0.0
C1004 C 0.08784 0.95253 0.49309 0.0
C1005 C 0.11672 0.83994 0.53206 0.0
C1006 C 0.10466 0.8926 0.53673 0.0
C1007 C 0.09482 0.92548 0.52385 0.0
C1008 C 0.10469 0.92291 0.55428 0.0
C1009 C 0.12809 0.80393 0.54521 0.0
C1010 C 0.10091 0.88332 0.56895 0.0
C1011 C 0.10517 0.90831 0.58533 0.0
C1012 C 0.11327 0.9731 0.5872 0.0
C1013 C 0.11513 0.01535 0.57267 0.0
C1014 C 0.11087 0.99054 0.55639 0.0
H1015 H 0.13842 0.77122 0.5392 0.0
H1016 H 0.13462 0.8422 0.55367 0.0
H1017 H 0.1197 0.77037 0.55334 0.0
H1018 H 0.09576 0.83154 0.56765 0.0
H1019 H 0.1036 0.87449 0.59628 0.0
H1020 H 0.88328 0.01588 0.56294 0.0
H1021 H 0.89257 0.02823 0.53323 0.0
H1022 H 0.91978 0.21653 0.54594 0.0
H1023 H 0.91042 0.20414 0.57604 0.0
H1024 H 0.89536 0.23178 0.51956 0.0
H1025 H 0.93767 0.00729 0.50563 0.0
H1026 H 0.91795 0.98166 0.51659 0.0
H1027 H 0.93356 0.03701 0.52724 0.0
C1028 C 0.89171 0.05886 0.55957 0.0
C1029 C 0.89609 0.10907 0.57185 0.0
C1030 C 0.89711 0.0657 0.54253 0.0
C1031 C 0.90702 0.12301 0.53728 0.0
C1032 C 0.91225 0.17156 0.5497 0.0
H1033 H 0.90172 0.2377 0.42673 0.0
H1034 H 0.91446 0.23823 0.45582 0.0
C1035 C 0.907 0.16423 0.56691 0.0
C1036 C 0.90956 0.13577 0.51857 0.0
H1037 H 0.92094 0.05297 0.48147 0.0
C1038 C 0.90143 0.19382 0.51122 0.0
C1039 C 0.91748 0.08631 0.50765 0.0
C1040 C 0.92732 0.02495 0.51471 0.0
C1041 C 0.89962 0.20055 0.49331 0.0
C1042 C 0.90639 0.14835 0.48242 0.0
C1043 C 0.91568 0.09295 0.48976 0.0
C1044 C 0.90141 0.14439 0.46393 0.0
C1045 C 0.88922 0.26065 0.48629 0.0
C1046 C 0.89063 0.0899 0.45851 0.0
C1047 C 0.88353 0.08933 0.44201 0.0
C1048 C 0.88712 0.14294 0.43038 0.0
C1049 C 0.89883 0.19543 0.43535 0.0
C1050 C 0.90594 0.19614 0.45203 0.0
H1051 H 0.88286 0.2915 0.49659 0.0
H1052 H 0.89816 0.29509 0.47899 0.0
H1053 H 0.87883 0.2422 0.47737 0.0
H1054 H 0.88696 0.0493 0.46737 0.0
H1055 H 0.87461 0.04801 0.43855 0.0
H1056 H 0.62995 0.36657 0.06653 0.0
H1057 H 0.61748 0.37446 0.03779 0.0
H1058 H 0.59499 0.57263 0.05021 0.0
H1059 H 0.60782 0.56531 0.07917 0.0
H1060 H 0.58357 0.39467 0.02345 0.0
H1061 H 0.62861 0.61523 0.01007 0.0
H1062 H 0.63103 0.56237 0.02896 0.0
H1063 H 0.6134 0.62395 0.02762 0.0
C1064 C 0.62204 0.41127 0.0633 0.0
C1065 C 0.61994 0.46545 0.07511 0.0
C1066 C 0.61487 0.41567 0.04684 0.0
C1067 C 0.60555 0.47464 0.04167 0.0
C1068 C 0.60237 0.52704 0.0538 0.0
H1069 H 0.60107 0.5512 0.93017 0.0
H1070 H 0.59107 0.56426 0.96005 0.0
C1071 C 0.60953 0.52249 0.07041 0.0
C1072 C 0.6009 0.48252 0.02318 0.0
H1073 H 0.61468 0.56394 0.98666 0.0
C1074 C 0.59006 0.43268 0.01544 0.0
C1075 C 0.60928 0.53228 0.01266 0.0
C1076 C 0.62132 0.58642 0.02013 0.0
C1077 C 0.58819 0.42889 0.9975 0.0
C1078 C 0.59766 0.47529 0.98694 0.0
C1079 C 0.60742 0.52828 0.99471 0.0
C1080 C 0.60002 0.4633 0.96815 0.0
C1081 C 0.57652 0.37368 0.99002 0.0
C1082 C 0.60788 0.40166 0.96259 0.0
C1083 C 0.61361 0.39435 0.94566 0.0
C1084 C 0.61162 0.44843 0.93381 0.0
C1085 C 0.60258 0.50832 0.93896 0.0
C1086 C 0.59698 0.51598 0.95606 0.0
H1087 H 0.56547 0.36123 0.99885 0.0
H1088 H 0.57099 0.38956 0.97743 0.0
H1089 H 0.58436 0.3259 0.98817 0.0
H1090 H 0.61075 0.36077 0.97163 0.0
H1091 H 0.62062 0.34777 0.94211 0.0
H1092 H 0.40734 0.31213 0.92504 0.0
H1093 H 0.42047 0.3133 0.95389 0.0
H1094 H 0.39248 0.50144 0.96537 0.0
H1095 H 0.37976 0.50135 0.93666 0.0
H1096 H 0.42788 0.49706 0.97858 0.0
H1097 H 0.38861 0.26343 0.99525 0.0
H1098 H 0.40329 0.25856 0.97717 0.0
H1099 H 0.38417 0.31297 0.97614 0.0
C1100 C 0.40445 0.35476 0.93355 0.0
C1101 C 0.39255 0.40672 0.92857 0.0
C1102 C 0.41179 0.35496 0.9501 0.0
C1103 C 0.40728 0.40705 0.96187 0.0
C1104 C 0.39616 0.46073 0.95654 0.0
H1105 H 0.39074 0.54653 0.05937 0.0
H1106 H 0.40093 0.53115 0.03004 0.0
C1107 C 0.38882 0.46042 0.94013 0.0
C1108 C 0.41259 0.40378 0.98022 0.0
H1109 H 0.40146 0.32433 0.01779 0.0
C1110 C 0.42246 0.45838 0.98713 0.0
C1111 C 0.40564 0.35307 0.99139 0.0
C1112 C 0.39476 0.29372 0.98474 0.0
C1113 C 0.42461 0.46592 1.00495 0.0
C1114 C 0.41639 0.41842 0.01618 0.0
C1115 C 0.40775 0.36084 0.00921 0.0
C1116 C 0.41387 0.43339 0.03476 0.0
C1117 C 0.43512 0.52621 0.01159 0.0
C1118 C 0.41798 0.3842 0.04743 0.0
C1119 C 0.41213 0.39311 0.06439 0.0
C1120 C 0.40182 0.45074 0.0688 0.0
C1121 C 0.39872 0.50173 0.05636 0.0
C1122 C 0.40466 0.49317 0.03956 0.0
H1123 H 0.4458 0.54025 1.00247 0.0
H1124 H 0.42632 0.57166 0.01289 0.0
H1125 H 0.44106 0.51488 0.0243 0.0
H1126 H 0.42492 0.33732 0.044 0.0
H1127 H 0.41449 0.35248 0.07364 0.0
H1128 H 0.60466 0.24082 0.43223 0.0
H1129 H 0.60038 0.18769 0.46047 0.0
H1130 H 0.65615 0.2043 0.47036 0.0
H1131 H 0.66054 0.25462 0.44204 0.0
H1132 H 0.64101 0.08964 0.48668 0.0
H1133 H 0.60277 0.33074 0.49871 0.0
H1134 H 0.59462 0.27431 0.48228 0.0
H1135 H 0.61526 0.31814 0.47931 0.0
C1136 C 0.6161 0.22992 0.44007 0.0
C1137 C 0.63293 0.2522 0.43494 0.0
C1138 C 0.61361 0.20048 0.45633 0.0
C1139 C 0.62788 0.19379 0.46774 0.0
C1140 C 0.64491 0.2093 0.46187 0.0
H1141 H 0.66633 0.2348 0.56526 0.0
H1142 H 0.65951 0.1882 0.53705 0.0
C1143 C 0.6474 0.23827 0.44566 0.0
C1144 C 0.62516 0.18191 0.48642 0.0
H1145 H 0.61102 0.26587 0.5224 0.0
C1146 C 0.63411 0.12728 0.49449 0.0
C1147 C 0.61614 0.23094 0.49667 0.0
C1148 C 0.60673 0.29215 0.4889 0.0
C1149 C 0.63506 0.12258 0.51249 0.0
C1150 C 0.62712 0.17444 0.52268 0.0
C1151 C 0.61709 0.22599 0.51462 0.0
C1152 C 0.6313 0.18367 0.5412 0.0
C1153 C 0.64504 0.06331 0.52041 0.0
C1154 C 0.61781 0.19499 0.55327 0.0
C1155 C 0.62173 0.2222 0.56949 0.0
C1156 C 0.63919 0.23896 0.57385 0.0
C1157 C 0.65276 0.22211 0.5623 0.0
C1158 C 0.64886 0.19487 0.54616 0.0
H1159 H 0.64419 0.01656 0.51222 0.0
H1160 H 0.65917 0.07738 0.52151 0.0
H1161 H 0.63996 0.05069 0.5334 0.0
H1162 H 0.60415 0.18737 0.54971 0.0
H1163 H 0.61095 0.2359 0.57793 0.0
H1164 H 0.41601 0.70317 0.57386 0.0
H1165 H 0.42646 0.72358 0.54439 0.0
H1166 H 0.40378 0.52992 0.52856 0.0
H1167 H 0.39372 0.50903 0.55773 0.0
H1168 H 0.43464 0.55848 0.51107 0.0
H1169 H 0.38889 0.78391 0.51006 0.0
H1170 H 0.40648 0.78504 0.52549 0.0
H1171 H 0.38902 0.72315 0.52756 0.0
C1172 C 0.41385 0.66396 0.5642 0.0
C1173 C 0.40387 0.60486 0.56804 0.0
C1174 C 0.41962 0.67604 0.54731 0.0
C1175 C 0.41549 0.62911 0.53412 0.0
C1176 C 0.40704 0.56719 0.53841 0.0
H1177 H 0.38377 0.54684 0.43645 0.0
H1178 H 0.39792 0.54893 0.4645 0.0
C1179 C 0.40127 0.5553 0.55514 0.0
C1180 C 0.41781 0.64618 0.5156 0.0
H1181 H 0.39903 0.74289 0.48377 0.0
C1182 C 0.42722 0.59994 0.50513 0.0
C1183 C 0.40817 0.70037 0.50776 0.0
C1184 C 0.39746 0.7509 0.5182 0.0
C1185 C 0.42624 0.60355 0.48713 0.0
C1186 C 0.41546 0.65423 0.47936 0.0
C1187 C 0.40729 0.70402 0.48975 0.0
C1188 C 0.4099 0.64924 0.46108 0.0
C1189 C 0.43614 0.55104 0.47659 0.0
C1190 C 0.41205 0.70464 0.4496 0.0
C1191 C 0.40401 0.70323 0.43335 0.0
C1192 C 0.39341 0.64703 0.42855 0.0
C1193 C 0.39193 0.59068 0.43978 0.0
C1194 C 0.40012 0.59165 0.4558 0.0
H1195 H 0.44814 0.5329 0.48341 0.0
H1196 H 0.42754 0.50562 0.47439 0.0
H1197 H 0.44004 0.57246 0.46393 0.0
H1198 H 0.41938 0.74996 0.45346 0.0
H1199 H 0.40518 0.74768 0.42502 0.0
H1200 H 0.95106 0.79421 0.10196 0.0
H1201 H 0.98118 0.8247 0.09352 0.0
H1202 H 0.96849 0.04033 0.09946 0.0
H1203 H 0.93803 0.00981 0.10663 0.0
H1204 H 0.99444 0.0257 0.07643 0.0
H1205 H 0.01052 0.87049 0.13427 0.0
H1206 H 1.00077 0.82072 0.11741 0.0
H1207 H 0.98817 0.88755 0.12783 0.0
C1208 C 0.95454 0.84813 0.10065 0.0
C1209 C 0.94234 0.89973 0.105 0.0
C1210 C 0.9718 0.86557 0.09608 0.0
C1211 C 0.97735 0.93469 0.09662 0.0
C1212 C 0.96464 0.98657 0.09915 0.0
H1213 H 0.06682 0.15615 0.12764 0.0
H1214 H 0.03921 0.1214 0.11399 0.0
C1215 C 0.94719 0.96917 0.10318 0.0
C1216 C 0.99649 0.95225 0.09709 0.0
H1217 H 0.03406 0.92436 0.12035 0.0
C1218 C 1.00314 0.00299 0.08592 0.0
C1219 C 0.00789 0.92344 0.10966 0.0
C1220 C 1.00147 0.87311 0.12308 0.0
C1221 C 0.02071 0.02612 0.08716 0.0
C1222 C 0.03191 -0.00254 0.09976 0.0
C1223 C 0.02548 0.94535 0.11051 0.0
C1224 C 0.04959 0.02605 0.10372 0.0
C1225 C 0.02714 0.08193 0.07527 0.0
C1226 C 0.06476 0.98497 0.10203 0.0
C1227 C 0.08066 0.00514 0.10969 0.0
C1228 C 0.08147 0.06594 0.11948 0.0
C1229 C 0.06657 0.10906 0.12017 0.0
C1230 C 0.05081 0.08945 0.11229 0.0
H1231 H 0.01833 0.08828 0.06399 0.0
H1232 H 0.02756 0.13161 0.08232 0.0
H1233 H 0.0407 0.07034 0.07073 0.0
H1234 H 0.06403 0.93541 0.09566 0.0
H1235 H 0.09185 0.97048 0.10912 0.0
H1236 H 0.9404 0.30242 0.38924 0.0
H1237 H 0.96959 0.26394 0.39815 0.0
H1238 H 0.94743 0.07233 0.41606 0.0
H1239 H 0.91815 0.10965 0.4065 0.0
H1240 H 0.98836 0.2107 0.42573 0.0
H1241 H 0.97725 0.01384 0.37501 0.0
H1242 H 0.9622 0.08432 0.3786 0.0
H1243 H 0.9619 0.01031 0.39251 0.0
C1244 C 0.94162 0.25295 0.3956 0.0
C1245 C 0.92702 0.20855 0.3969 0.0
C1246 C 0.95835 0.23107 0.40072 0.0
C1247 C 0.96079 0.16445 0.40727 0.0
C1248 C 0.94589 0.12341 0.41064 0.0
H1249 H 0.05262 0.90415 0.40997 0.0
H1250 H 0.02453 0.96014 0.4159 0.0
C1251 C 0.9291 0.14513 0.40538 0.0
C1252 C 0.97887 0.13488 0.40778 0.0
H1253 H 0.00476 0.01296 0.38864 0.0
C1254 C 0.99195 0.16711 0.41774 0.0
C1255 C 0.98364 0.07905 0.39701 0.0
C1256 C 0.97059 0.04516 0.38504 0.0
C1257 C 0.00958 0.14405 0.41742 0.0
C1258 C 0.0142 0.08787 0.40678 0.0
C1259 C 1.00114 0.05585 0.39686 0.0
C1260 C 0.03235 0.05938 0.40582 0.0
C1261 C 0.0231 0.17924 0.42855 0.0
C1262 C 0.0463 0.09714 0.39852 0.0
C1263 C 0.06255 0.06498 0.3951 0.0
C1264 C 0.06489 0.99464 0.39879 0.0
C1265 C 0.05114 0.95827 0.40681 0.0
C1266 C 0.03509 0.99025 0.41029 0.0
H1267 H 0.01686 0.21268 0.43841 0.0
H1268 H 0.03159 0.14057 0.43505 0.0
H1269 H 0.0317 0.21188 0.42039 0.0
H1270 H 0.04437 0.1503 0.3947 0.0
H1271 H 0.07285 0.09392 0.38875 0.0
H1272 H 0.06465 0.95856 0.86213 0.0
H1273 H 0.03682 0.90469 0.86983 0.0
H1274 H 0.05698 0.8604 0.92041 0.0
H1275 H 0.08459 0.91889 0.91305 0.0
H1276 H 0.02527 0.78476 0.88016 0.0
H1277 H 0.01493 0.97574 0.93248 0.0
H1278 H 0.03305 0.98207 0.91762 0.0
H1279 H 0.03376 0.92041 0.93484 0.0
C1280 C 0.06332 0.93614 0.8748 0.0
C1281 C 0.07685 0.94293 0.88697 0.0
C1282 C 0.04737 0.90526 0.87921 0.0
C1283 C 0.04457 0.88002 0.89587 0.0
C1284 C 0.05863 0.88115 0.90762 0.0
H1285 H 0.93719 0.71424 0.89877 0.0
H1286 H 0.96833 0.71862 0.90704 0.0
C1287 C 0.0746 0.91308 0.90326 0.0
C1288 C 0.02649 0.85784 0.90084 0.0
H1289 H 0.99122 0.90371 0.92572 0.0
C1290 C 0.01787 0.80996 0.89029 0.0
C1291 C 0.0168 0.89131 0.91399 0.0
C1292 C 0.025 0.94564 0.92532 0.0
C1293 C 0.99968 0.79811 0.89166 0.0
C1294 C 0.98987 0.83246 0.90462 0.0
C1295 C 0.99872 0.87709 0.91589 0.0
C1296 C 0.97024 0.82977 0.90512 0.0
C1297 C 0.99103 0.75313 0.87825 0.0
C1298 C 0.96045 0.89107 0.90339 0.0
C1299 C 0.94244 0.88866 0.89951 0.0
C1300 C 0.93412 0.82495 0.89701 0.0
C1301 C 0.94341 0.76397 0.90059 0.0
C1302 C 0.96126 0.76646 0.90503 0.0
H1303 H 0.99974 0.74448 0.86699 0.0
H1304 H 0.98801 0.70198 0.8839 0.0
H1305 H 0.97855 0.77658 0.87362 0.0
H1306 H 0.96698 0.94071 0.9036 0.0
H1307 H 0.93554 0.9363 0.89669 0.0
H1308 H 0.92802 0.03908 0.60234 0.0
H1309 H 0.9565 0.98395 0.59607 0.0
H1310 H 0.98242 0.18082 0.60034 0.0
H1311 H 0.95417 0.23573 0.6067 0.0
H1312 H 0.99824 0.07847 0.57497 0.0
H1313 H 0.98742 0.98217 0.6415 0.0
H1314 H 0.97058 0.96452 0.62588 0.0
H1315 H 0.97453 0.05166 0.63258 0.0
C1316 C 0.93966 0.07104 0.6011 0.0
C1317 C 0.93891 0.1416 0.60516 0.0
C1318 C 0.95596 0.03941 0.59765 0.0
C1319 C 0.97164 0.07815 0.59803 0.0
C1320 C 0.97054 0.14987 0.60001 0.0
H1321 H 0.08365 0.04045 0.61443 0.0
H1322 H 0.05483 0.0704 0.60234 0.0
C1323 C 0.95435 0.18125 0.60361 0.0
C1324 C 0.98916 0.04398 0.59967 0.0
H1325 H 0.01488 0.9616 0.62917 0.0
C1326 C 1.00186 0.05189 0.58669 0.0
C1327 C 0.99391 0.00988 0.61503 0.0
C1328 C 0.98101 0.00164 0.62964 0.0
C1329 C 0.0192 0.02664 0.58871 0.0
C1330 C 0.02413 0.99457 0.60436 0.0
C1331 C 0.01123 0.98567 0.61713 0.0
C1332 C 0.04259 0.97237 0.60839 0.0
C1333 C 0.03198 0.03425 0.57402 0.0
C1334 C 0.04561 0.90702 0.61564 0.0
C1335 C 0.06193 0.89072 0.62295 0.0
C1336 C 0.07576 0.93881 0.62292 0.0
C1337 C 0.07329 0.00205 0.61444 0.0
C1338 C 0.05678 0.01906 0.60744 0.0
H1339 H 0.02496 0.0358 0.56152 0.0
H1340 H 0.03923 0.0836 0.57544 0.0
H1341 H 0.0417 0.99138 0.57374 0.0
H1342 H 0.03501 0.86978 0.61651 0.0
H1343 H 0.06346 0.84153 0.62938 0.0
H1344 H 0.44734 0.28881 0.09695 0.0
H1345 H 0.4772 0.30957 0.08614 0.0
H1346 H 0.46993 0.52821 0.09359 0.0
H1347 H 0.43965 0.50757 0.10328 0.0
H1348 H 0.49369 0.50412 0.06816 0.0
H1349 H 0.51007 0.34479 0.1253 0.0
H1350 H 0.49799 0.29933 0.10912 0.0
H1351 H 0.48783 0.37017 0.12035 0.0
C1352 C 0.45187 0.34143 0.09544 0.0
C1353 C 0.44133 0.39665 0.10096 0.0
C1354 C 0.46899 0.35326 0.08949 0.0
C1355 C 0.47608 0.4202 0.08974 0.0
C1356 C 0.46485 0.47602 0.09345 0.0
H1357 H 0.56957 0.62452 0.11371 0.0
H1358 H 0.54145 0.59277 0.10069 0.0
C1359 C 0.44752 0.46429 0.09892 0.0
C1360 C 0.4955 0.43114 0.08893 0.0
H1361 H 0.53361 0.39314 0.11035 0.0
C1362 C 0.50246 0.47917 0.07723 0.0
C1363 C 0.50699 0.39919 0.10092 0.0
C1364 C 0.50037 0.35105 0.11474 0.0
C1365 C 0.52046 0.49702 0.07747 0.0
C1366 C 0.53175 0.46602 0.08967 0.0
C1367 C 0.52496 0.41606 0.10084 0.0
C1368 C 0.54995 0.49086 0.09296 0.0
C1369 C 0.52721 0.54994 0.06493 0.0
C1370 C 0.56429 0.44485 0.09254 0.0
C1371 C 0.58046 0.4631 0.09995 0.0
C1372 C 0.5824 0.52724 0.10811 0.0
C1373 C 0.56843 0.57484 0.10745 0.0
C1374 C 0.55238 0.55693 0.09989 0.0
H1375 H 0.5186 0.55356 0.05344 0.0
H1376 H 0.5274 0.60123 0.07124 0.0
H1377 H 0.54086 0.53751 0.06077 0.0
H1378 H 0.56262 0.39328 0.08745 0.0
H1379 H 0.59091 0.42506 0.10051 0.0
H1380 H 0.44495 0.79972 0.385 0.0
H1381 H 0.47414 0.75819 0.39279 0.0
H1382 H 0.45126 0.57152 0.41297 0.0
H1383 H 0.42192 0.61145 0.40425 0.0
H1384 H 0.49396 0.70891 0.41883 0.0
H1385 H 0.4785 0.49881 0.37256 0.0
H1386 H 0.46381 0.57046 0.37598 0.0
H1387 H 0.46486 0.50132 0.39135 0.0
C1388 C 0.44603 0.7506 0.39154 0.0
C1389 C 0.43113 0.70834 0.3937 0.0
C1390 C 0.46279 0.72694 0.39605 0.0
C1391 C 0.46501 0.66067 0.40292 0.0
C1392 C 0.44992 0.62204 0.4072 0.0
H1393 H 0.57347 0.49186 0.411 0.0
H1394 H 0.54575 0.54776 0.41948 0.0
C1395 C 0.43309 0.64539 0.40245 0.0
C1396 C 0.48296 0.6293 0.40284 0.0
H1397 H 0.50733 0.50558 0.38255 0.0
C1398 C 0.49689 0.66394 0.41106 0.0
C1399 C 0.48685 0.57113 0.39249 0.0
C1400 C 0.47279 0.53346 0.38247 0.0
C1401 C 0.51459 0.64358 0.40872 0.0
C1402 C 0.51842 0.58636 0.39807 0.0
C1403 C 0.50442 0.54991 0.39056 0.0
C1404 C 0.53671 0.56485 0.39347 0.0
C1405 C 0.52899 0.68541 0.41701 0.0
C1406 C 0.54119 0.55757 0.37607 0.0
C1407 C 0.5568 0.52463 0.37125 0.0
C1408 C 0.56846 0.49938 0.38372 0.0
C1409 C 0.56481 0.51185 0.40113 0.0
C1410 C 0.54894 0.54374 0.40599 0.0
H1411 H 0.52431 0.73764 0.42073 0.0
H1412 H 0.53351 0.65861 0.42879 0.0
H1413 H 0.54044 0.69091 0.40829 0.0
H1414 H 0.5321 0.57391 0.36615 0.0
H1415 H 0.55929 0.51551 0.35775 0.0
H1416 H 0.44207 0.23837 0.90224 0.0
H1417 H 0.47083 0.26928 0.91404 0.0
H1418 H 0.45784 0.48494 0.90854 0.0
H1419 H 0.42863 0.45362 0.89774 0.0
H1420 H 0.49304 0.32588 0.89407 0.0
H1421 H 0.48777 0.49833 0.95007 0.0
H1422 H 0.46935 0.44758 0.94261 0.0
H1423 H 0.47438 0.52943 0.9328 0.0
C1424 C 0.44507 0.29231 0.90438 0.0
C1425 C 0.43319 0.34366 0.89913 0.0
C1426 C 0.46155 0.31005 0.91104 0.0
C1427 C 0.46669 0.37955 0.91215 0.0
C1428 C 0.45421 0.431 0.90821 0.0
H1429 H 0.55901 0.59849 0.88988 0.0
H1430 H 0.53033 0.56201 0.90079 0.0
C1431 C 0.43748 0.41312 0.90196 0.0
C1432 C 0.48577 0.3971 0.9141 0.0
H1433 H 0.51467 0.50885 0.93312 0.0
C1434 C 0.49778 0.3646 0.90298 0.0
C1435 C 0.49208 0.44815 0.92555 0.0
C1436 C 0.48021 0.48228 0.93854 0.0
C1437 C 0.51559 0.38372 0.90237 0.0
C1438 C 0.52176 0.43669 0.91329 0.0
C1439 C 0.50996 0.46795 0.92483 0.0
C1440 C 0.53979 0.46535 0.91111 0.0
C1441 C 0.52748 0.34974 0.8893 0.0
C1442 C 0.55486 0.42478 0.91413 0.0
C1443 C 0.57137 0.44562 0.90788 0.0
C1444 C 0.57298 0.50723 0.8985 0.0
C1445 C 0.55816 0.5505 0.89695 0.0
C1446 C 0.54175 0.52987 0.90325 0.0
H1447 H 0.52004 0.31678 0.88018 0.0
H1448 H 0.53481 0.38924 0.88187 0.0
H1449 H 0.53727 0.31683 0.89601 0.0
H1450 H 0.55364 0.37492 0.92027 0.0
H1451 H 0.58249 0.41092 0.90916 0.0
H1452 H 0.44856 0.77342 0.60328 0.0
H1453 H 0.47962 0.75502 0.59622 0.0
H1454 H 0.47127 0.53491 0.59793 0.0
H1455 H 0.44004 0.55383 0.6037 0.0
H1456 H 0.5002 0.70797 0.618 0.0
H1457 H 0.5081 0.53487 0.56285 0.0
H1458 H 0.48743 0.57768 0.56716 0.0
H1459 H 0.49263 0.49624 0.57724 0.0
C1460 C 0.45321 0.72129 0.6011 0.0
C1461 C 0.44193 0.66503 0.60386 0.0
C1462 C 0.47103 0.71065 0.59728 0.0
C1463 C 0.47802 0.64348 0.59659 0.0
C1464 C 0.46634 0.58729 0.59791 0.0
H1465 H 0.56493 0.4875 0.64859 0.0
H1466 H 0.53956 0.55245 0.63837 0.0
C1467 C 0.44839 0.59806 0.60124 0.0
C1468 C 0.4975 0.63233 0.59782 0.0
H1469 H 0.53049 0.52269 0.58559 0.0
C1470 C 0.50686 0.66864 0.61052 0.0
C1471 C 0.5066 0.58223 0.58796 0.0
C1472 C 0.49815 0.54628 0.57292 0.0
C1473 C 0.52444 0.65261 0.61451 0.0
C1474 C 0.53281 0.59696 0.60605 0.0
C1475 C 0.52402 0.56443 0.59239 0.0
C1476 C 0.54954 0.56629 0.61257 0.0
C1477 C 0.53366 0.69456 0.62811 0.0
C1478 C 0.56376 0.55209 0.60153 0.0
C1479 C 0.57831 0.51391 0.60737 0.0
C1480 C 0.57887 0.48943 0.62434 0.0
C1481 C 0.565 0.50638 0.63551 0.0
C1482 C 0.55049 0.544 0.62968 0.0
H1483 H 0.52915 0.74908 0.62778 0.0
H1484 H 0.53031 0.67357 0.64094 0.0
H1485 H 0.5482 0.69352 0.62652 0.0
H1486 H 0.56329 0.5681 0.58823 0.0
H1487 H 0.58849 0.4997 0.5983 0.0
H1488 H 0.18647 0.82564 0.14735 0.0
H1489 H 0.18854 0.70477 0.15592 0.0
H1490 H 0.13503 0.71196 0.17451 0.0
H1491 H 0.13283 0.8334 0.16589 0.0
H1492 H 0.17885 0.61706 0.1879 0.0
H1493 H 0.13824 0.58682 0.1288 0.0
H1494 H 0.15031 0.66478 0.1334 0.0
H1495 H 0.13031 0.64623 0.14478 0.0
C1496 C 0.17533 0.80208 0.15378 0.0
C1497 C 0.15941 0.83835 0.15578 0.0
C1498 C 0.17659 0.73325 0.15875 0.0
C1499 C 0.1619 0.69967 0.16566 0.0
C1500 C 0.1465 0.73743 0.16919 0.0
H1501 H 0.13919 0.27954 0.18781 0.0
H1502 H 0.14833 0.39956 0.19042 0.0
C1503 C 0.14527 0.8067 0.16432 0.0
C1504 C 0.16168 0.62367 0.16598 0.0
H1505 H 0.14601 0.48589 0.14358 0.0
C1506 C 0.17164 0.5881 0.17829 0.0
C1507 C 0.15264 0.58658 0.1531 0.0
C1508 C 0.14234 0.62272 0.13916 0.0
C1509 C 0.17239 0.51565 0.17829 0.0
C1510 C 0.16296 0.47862 0.16566 0.0
C1511 C 0.15333 0.51453 0.15317 0.0
C1512 C 0.16146 0.40268 0.1658 0.0
C1513 C 0.1833 0.47927 0.19169 0.0
C1514 C 0.16617 0.36414 0.15123 0.0
C1515 C 0.16087 0.29538 0.14966 0.0
C1516 C 0.15063 0.26477 0.16258 0.0
C1517 C 0.14702 0.30209 0.17763 0.0
C1518 C 0.15239 0.37047 0.17923 0.0
H1519 H 0.19347 0.51391 0.19724 0.0
H1520 H 0.17455 0.46201 0.20226 0.0
H1521 H 0.1899 0.43306 0.18623 0.0
H1522 H 0.17303 0.38849 0.14065 0.0
H1523 H 0.16363 0.26816 0.13784 0.0
H1524 H 0.83527 0.12714 0.134 0.0
H1525 H 0.83347 0.24903 0.14164 0.0
H1526 H 0.88718 0.24287 0.15966 0.0
H1527 H 0.88912 0.12045 0.15196 0.0
H1528 H 0.84275 0.3414 0.17181 0.0
H1529 H 0.88494 0.36157 0.11354 0.0
H1530 H 0.873 0.28407 0.11888 0.0
H1531 H 0.89279 0.3056 0.13029 0.0
C1532 C 0.84651 0.15115 0.14015 0.0
C1533 C 0.86243 0.11484 0.14214 0.0
C1534 C 0.84542 0.22066 0.14457 0.0
C1535 C 0.86027 0.25485 0.15094 0.0
C1536 C 0.87561 0.21706 0.15467 0.0
H1537 H 0.8831 0.67613 0.17121 0.0
H1538 H 0.87358 0.55663 0.17392 0.0
C1539 C 0.87668 0.14715 0.15034 0.0
C1540 C 0.86066 0.33092 0.15054 0.0
H1541 H 0.87755 0.46491 0.12752 0.0
C1542 C 0.85037 0.36866 0.1622 0.0
C1543 C 0.8702 0.36587 0.13762 0.0
C1544 C 0.88077 0.32748 0.12425 0.0
C1545 C 0.84986 0.44111 0.16156 0.0
C1546 C 0.8599 0.47602 0.14898 0.0
C1547 C 0.86979 0.43795 0.13709 0.0
C1548 C 0.86179 0.55189 0.14869 0.0
C1549 C 0.83856 0.47969 0.17427 0.0
C1550 C 0.85803 0.58938 0.13369 0.0
C1551 C 0.86357 0.65788 0.13206 0.0
C1552 C 0.87308 0.68926 0.14536 0.0
C1553 C 0.87583 0.65296 0.16073 0.0
C1554 C 0.87023 0.58488 0.16238 0.0
H1555 H 0.82788 0.44654 0.17946 0.0
H1556 H 0.84688 0.49667 0.18518 0.0
H1557 H 0.83257 0.52619 0.16831 0.0
H1558 H 0.85167 0.56444 0.1229 0.0
H1559 H 0.8615 0.68441 0.12001 0.0
H1560 H 0.12373 0.19844 0.38275 0.0
H1561 H 0.11431 0.31519 0.39028 0.0
H1562 H 0.082 0.2337 0.43103 0.0
H1563 H 0.09122 0.11584 0.42321 0.0
H1564 H 0.0764 0.38059 0.39889 0.0
H1565 H 0.12674 0.35699 0.45071 0.0
H1566 H 0.12827 0.30319 0.43188 0.0
H1567 H 0.11078 0.28967 0.44696 0.0
C1568 C 0.11403 0.20535 0.39282 0.0
C1569 C 0.10803 0.1488 0.40233 0.0
C1570 C 0.10871 0.27183 0.39715 0.0
C1571 C 0.09759 0.28271 0.41126 0.0
C1572 C 0.09056 0.22596 0.42007 0.0
H1573 H 0.08929 0.73127 0.42563 0.0
H1574 H 0.08286 0.6124 0.43462 0.0
C1575 C 0.09572 0.15898 0.41555 0.0
C1576 C 0.09577 0.35361 0.41785 0.0
H1577 H 0.1191 0.4692 0.44177 0.0
C1578 C 0.08518 0.40007 0.40874 0.0
C1579 C 0.10739 0.37833 0.43061 0.0
C1580 C 0.11899 0.32978 0.4407 0.0
C1581 C 0.08695 0.47144 0.41112 0.0
C1582 C 0.0997 0.49637 0.42283 0.0
C1583 C 0.10928 0.4497 0.4329 0.0
C1584 C 0.10567 0.56872 0.42199 0.0
C1585 C 0.07638 0.51984 0.39996 0.0
C1586 C 0.12113 0.58344 0.41281 0.0
C1587 C 0.12477 0.65082 0.40769 0.0
C1588 C 0.11317 0.70433 0.41198 0.0
C1589 C 0.09863 0.69074 0.42259 0.0
C1590 C 0.09486 0.623 0.42757 0.0
H1591 H 0.06743 0.4919 0.39109 0.0
H1592 H 0.06831 0.55441 0.40817 0.0
H1593 H 0.08539 0.5527 0.39227 0.0
H1594 H 0.12956 0.54204 0.40831 0.0
H1595 H 0.13584 0.66023 0.39921 0.0
H1596 H 0.86873 0.41402 0.32635 0.0
H1597 H 0.86034 0.5351 0.3236 0.0
H1598 H 0.83827 0.53088 0.37455 0.0
H1599 H 0.84678 0.40927 0.37747 0.0
H1600 H 0.82794 0.6218 0.32958 0.0
H1601 H 0.88371 0.65896 0.37511 0.0
H1602 H 0.88021 0.57895 0.36381 0.0
H1603 H 0.86657 0.60088 0.38182 0.0
C1604 C 0.86164 0.43835 0.33679 0.0
C1605 C 0.8586 0.40274 0.35222 0.0
C1606 C 0.85677 0.50733 0.33515 0.0
C1607 C 0.84892 0.54183 0.34894 0.0
C1608 C 0.8444 0.50484 0.3638 0.0
H1609 H 0.82235 0.96396 0.36526 0.0
H1610 H 0.82103 0.84305 0.35685 0.0
C1611 C 0.84919 0.43544 0.36543 0.0
C1612 C 0.84832 0.61789 0.34877 0.0
H1613 H 0.86891 0.75839 0.36569 0.0
C1614 C 0.83681 0.65193 0.33749 0.0
C1615 C 0.86029 0.65657 0.35877 0.0
C1616 C 0.87352 0.62228 0.37049 0.0
C1617 C 0.83668 0.72429 0.33631 0.0
C1618 C 0.84836 0.76293 0.34667 0.0
C1619 C 0.86006 0.72857 0.35767 0.0
C1620 C 0.84789 0.83908 0.34754 0.0
C1621 C 0.82421 0.75877 0.32393 0.0
C1622 C 0.8633 0.87758 0.34466 0.0
C1623 C 0.86413 0.94689 0.34956 0.0
C1624 C 0.8496 0.97821 0.35757 0.0
C1625 C 0.83378 0.94097 0.35919 0.0
C1626 C 0.83295 0.87198 0.35424 0.0
H1627 H 0.82001 0.72293 0.3136 0.0
H1628 H 0.81225 0.77573 0.33096 0.0
H1629 H 0.83037 0.80494 0.31801 0.0
H1630 H 0.87502 0.85282 0.33962 0.0
H1631 H 0.87653 0.97403 0.34833 0.0
H1632 H 0.82925 0.09588 0.87066 0.0
H1633 H 0.82685 0.21683 0.8626 0.0
H1634 H 0.88023 0.21258 0.84354 0.0
H1635 H 0.88283 0.09109 0.85195 0.0
H1636 H 0.87501 0.30686 0.86914 0.0
H1637 H 0.82271 0.33759 0.82023 0.0
H1638 H 0.81589 0.28549 0.83805 0.0
H1639 H 0.83343 0.25599 0.82435 0.0
C1640 C 0.8403 0.12006 0.86423 0.0
C1641 C 0.85627 0.08426 0.86202 0.0
C1642 C 0.83884 0.18916 0.8595 0.0
C1643 C 0.85332 0.22375 0.8524 0.0
C1644 C 0.86886 0.18663 0.84892 0.0
H1645 H 0.86671 0.65275 0.82962 0.0
H1646 H 0.85913 0.53074 0.82773 0.0
C1647 C 0.87031 0.11714 0.85362 0.0
C1648 C 0.85316 0.30012 0.85159 0.0
H1649 H 0.83024 0.43911 0.83636 0.0
C1650 C 0.86533 0.33574 0.86183 0.0
C1651 C 0.84045 0.33769 0.84214 0.0
C1652 C 0.82748 0.30225 0.83044 0.0
C1653 C 0.865 0.40777 0.86309 0.0
C1654 C 0.85192 0.44529 0.85412 0.0
C1655 C 0.83996 0.40999 0.84356 0.0
C1656 C 0.85177 0.5216 0.85442 0.0
C1657 C 0.87886 0.44323 0.87382 0.0
C1658 C 0.84903 0.55783 0.86982 0.0
C1659 C 0.85335 0.6279 0.87094 0.0
C1660 C 0.86048 0.66211 0.85667 0.0
C1661 C 0.8614 0.62734 0.84086 0.0
C1662 C 0.85703 0.55767 0.83974 0.0
H1663 H 0.88993 0.40806 0.87714 0.0
H1664 H 0.8843 0.48869 0.86697 0.0
H1665 H 0.87281 0.46157 0.88595 0.0
H1666 H 0.84476 0.53081 0.88125 0.0
H1667 H 0.85257 0.65336 0.88328 0.0
H1668 H 0.07911 0.26545 0.91453 0.0
H1669 H 0.07629 0.38618 0.92342 0.0
H1670 H 0.13277 0.40956 0.91968 0.0
H1671 H 0.13563 0.28764 0.91227 0.0
H1672 H 0.12123 0.49252 0.94262 0.0
H1673 H 0.07791 0.5209 0.88558 0.0
H1674 H 0.06881 0.46682 0.90197 0.0
H1675 H 0.08855 0.44071 0.89083 0.0
C1676 C 0.09092 0.29604 0.91628 0.0
C1677 C 0.10756 0.26814 0.91258 0.0
C1678 C 0.08929 0.36513 0.92109 0.0
C1679 C 0.10423 0.40785 0.92139 0.0
C1680 C 0.12101 0.37799 0.91931 0.0
H1681 H 0.11929 0.81504 0.88613 0.0
H1682 H 0.1109 0.69439 0.89046 0.0
C1683 C 0.12267 0.30828 0.91512 0.0
C1684 C 0.10249 0.48412 0.92202 0.0
H1685 H 0.08483 0.62157 0.90061 0.0
C1686 C 0.11318 0.52081 0.93351 0.0
C1687 C 0.09213 0.52105 0.90996 0.0
C1688 C 0.08134 0.48547 0.89628 0.0
C1689 C 0.11456 0.59288 0.93272 0.0
C1690 C 0.10412 0.62979 0.92071 0.0
C1691 C 0.09272 0.59332 0.90986 0.0
C1692 C 0.10635 0.70498 0.91781 0.0
C1693 C 0.1281 0.62775 0.94396 0.0
C1694 C 0.10567 0.75195 0.9315 0.0
C1695 C 0.11104 0.82008 0.92909 0.0
C1696 C 0.11629 0.84289 0.91281 0.0
C1697 C 0.11522 0.79817 0.89877 0.0
C1698 C 0.11044 0.72938 0.90128 0.0
H1699 H 0.13803 0.59059 0.94893 0.0
H1700 H 0.13519 0.66884 0.93684 0.0
H1701 H 0.12141 0.65135 0.95517 0.0
H1702 H 0.10183 0.7352 0.9442 0.0
H1703 H 0.11167 0.85441 0.94004 0.0
H1704 H 0.89091 0.93424 0.65057 0.0
H1705 H 0.88778 0.81159 0.65751 0.0
H1706 H 0.83123 0.83499 0.65902 0.0
H1707 H 0.83432 0.9566 0.6512 0.0
H1708 H 0.87191 0.72015 0.68017 0.0
H1709 H 0.83865 0.718 0.61652 0.0
H1710 H 0.84948 0.79353 0.62483 0.0
H1711 H 0.82803 0.76943 0.63264 0.0
C1712 C 0.87788 0.91368 0.65307 0.0
C1713 C 0.86284 0.95396 0.65008 0.0
C1714 C 0.87608 0.84362 0.65698 0.0
C1715 C 0.85923 0.81385 0.65817 0.0
C1716 C 0.84431 0.8566 0.65765 0.0
H1717 H 0.85828 0.35811 0.66397 0.0
H1718 H 0.84843 0.47665 0.66986 0.0
C1719 C 0.84609 0.92606 0.65334 0.0
C1720 C 0.85733 0.73798 0.65694 0.0
H1721 H 0.84391 0.6114 0.62943 0.0
C1722 C 0.86555 0.69613 0.66925 0.0
C1723 C 0.84918 0.707 0.6425 0.0
C1724 C 0.84096 0.74911 0.62828 0.0
C1725 C 0.86646 0.62423 0.66717 0.0
C1726 C 0.85863 0.59362 0.65254 0.0
C1727 C 0.84972 0.63516 0.64068 0.0
C1728 C 0.86186 0.52067 0.64794 0.0
C1729 C 0.87671 0.58216 0.68005 0.0
C1730 C 0.87177 0.50591 0.63317 0.0
C1731 C 0.87701 0.4385 0.62964 0.0
C1732 C 0.87224 0.3848 0.6407 0.0
C1733 C 0.86157 0.39871 0.65499 0.0
C1734 C 0.85625 0.46637 0.65852 0.0
H1735 H 0.88428 0.6151 0.68908 0.0
H1736 H 0.86743 0.55019 0.68765 0.0
H1737 H 0.88603 0.54689 0.67343 0.0
H1738 H 0.87623 0.5471 0.62485 0.0
H1739 H 0.88555 0.42878 0.61876 0.0
H1740 H 0.12837 0.17559 0.66795 0.0
H1741 H 0.13115 0.29765 0.67595 0.0
H1742 H 0.18484 0.29845 0.65776 0.0
H1743 H 0.18215 0.1772 0.64976 0.0
H1744 H 0.17596 0.38991 0.68862 0.0
H1745 H 0.13471 0.41857 0.62993 0.0
H1746 H 0.12641 0.3621 0.64636 0.0
H1747 H 0.14618 0.33959 0.635 0.0
C1748 C 0.14096 0.20116 0.66632 0.0
C1749 C 0.15497 0.16767 0.65801 0.0
C1750 C 0.14252 0.27073 0.67085 0.0
C1751 C 0.15813 0.30685 0.66721 0.0
C1752 C 0.17271 0.27132 0.66065 0.0
H1753 H 0.15956 0.73811 0.63796 0.0
H1754 H 0.1693 0.61785 0.64057 0.0
C1755 C 0.17112 0.20224 0.65601 0.0
C1756 C 0.15831 0.38289 0.66708 0.0
H1757 H 0.14281 0.52013 0.64428 0.0
C1758 C 0.1687 0.41865 0.679 0.0
C1759 C 0.14926 0.41969 0.65414 0.0
C1760 C 0.13859 0.38332 0.64051 0.0
C1761 C 0.16976 0.49102 0.67863 0.0
C1762 C 0.16019 0.52784 0.66603 0.0
C1763 C 0.15023 0.49169 0.65386 0.0
C1764 C 0.15867 0.60383 0.66611 0.0
C1765 C 0.18111 0.52747 0.69165 0.0
C1766 C 0.15004 0.63614 0.67981 0.0
C1767 C 0.14446 0.70432 0.67831 0.0
C1768 C 0.14741 0.7414 0.66309 0.0
C1769 C 0.15728 0.71092 0.64988 0.0
C1770 C 0.16278 0.64225 0.65135 0.0
H1771 H 0.19151 0.49284 0.69681 0.0
H1772 H 0.18746 0.57378 0.68599 0.0
H1773 H 0.17274 0.54447 0.70254 0.0
H1774 H 0.14643 0.60721 0.69116 0.0
H1775 H 0.13693 0.72683 0.68873 0.0
H1776 H 0.66266 0.73678 0.12544 0.0
H1777 H 0.67208 0.8572 0.12861 0.0
H1778 H 0.64907 0.8634 0.17919 0.0
H1779 H 0.63992 0.74362 0.1762 0.0
H1780 H 0.64604 0.95669 0.1329 0.0
H1781 H 0.69457 0.97365 0.18584 0.0
H1782 H 0.69013 0.8943 0.17447 0.0
H1783 H 0.67547 0.92332 0.1911 0.0
C1784 C 0.66025 0.7631 0.13746 0.0
C1785 C 0.65053 0.73113 0.15054 0.0
C1786 C 0.66555 0.83187 0.13924 0.0
C1787 C 0.66139 0.86902 0.1542 0.0
C1788 C 0.65273 0.83548 0.16769 0.0
H1789 H 0.63405 0.30089 0.15743 0.0
H1790 H 0.63568 0.17831 0.16506 0.0
C1791 C 0.64736 0.7672 0.16588 0.0
C1792 C 0.66323 0.94494 0.15468 0.0
H1793 H 0.67984 0.07892 0.17811 0.0
C1794 C 0.65358 0.98337 0.14268 0.0
C1795 C 0.67297 0.97952 0.16753 0.0
C1796 C 0.68401 0.94061 0.18038 0.0
C1797 C 0.65313 0.05547 0.14334 0.0
C1798 C 0.6624 0.09007 0.15651 0.0
C1799 C 0.67242 0.05195 0.16829 0.0
C1800 C 0.66282 0.16616 0.15704 0.0
C1801 C 0.64286 0.09425 0.12983 0.0
C1802 C 0.67789 0.20035 0.15114 0.0
C1803 C 0.67698 0.26997 0.14678 0.0
C1804 C 0.66102 0.3064 0.14835 0.0
C1805 C 0.64652 0.2741 0.15614 0.0
C1806 C 0.64741 0.20408 0.16041 0.0
H1807 H 0.63894 0.06049 0.11897 0.0
H1808 H 0.6307 0.11588 0.13566 0.0
H1809 H 0.65074 0.13786 0.1247 0.0
H1810 H 0.68989 0.17191 0.14851 0.0
H1811 H 0.6884 0.29394 0.14095 0.0
H1812 H 0.3365 0.63112 0.13566 0.0
H1813 H 0.33527 0.75292 0.1435 0.0
H1814 H 0.38979 0.74524 0.15899 0.0
H1815 H 0.39117 0.62294 0.15109 0.0
H1816 H 0.34633 0.8442 0.1735 0.0
H1817 H 0.38525 0.86523 0.11313 0.0
H1818 H 0.37343 0.78794 0.1189 0.0
H1819 H 0.39386 0.80836 0.12933 0.0
C1820 C 0.34807 0.65477 0.14128 0.0
C1821 C 0.36402 0.61806 0.14251 0.0
C1822 C 0.3473 0.72422 0.14582 0.0
C1823 C 0.36249 0.75795 0.15156 0.0
C1824 C 0.37795 0.71978 0.15451 0.0
H1825 H 0.38686 0.17903 0.17105 0.0
H1826 H 0.3776 0.05936 0.17418 0.0
C1827 C 0.37871 0.64995 0.15005 0.0
C1828 C 0.36297 0.834 0.15128 0.0
H1829 H 0.37874 0.9683 0.12763 0.0
C1830 C 0.35344 0.8716 0.16354 0.0
C1831 C 0.37184 0.86911 0.13793 0.0
C1832 C 0.38159 0.83088 0.12396 0.0
C1833 C 0.35301 0.94408 0.16307 0.0
C1834 C 0.36235 0.97912 0.15002 0.0
C1835 C 0.3715 0.94121 0.13756 0.0
C1836 C 0.36425 0.05497 0.14969 0.0
C1837 C 0.34251 0.98255 0.17643 0.0
C1838 C 0.35955 0.09265 0.13498 0.0
C1839 C 0.36494 0.1612 0.1331 0.0
C1840 C 0.37524 0.19251 0.14585 0.0
C1841 C 0.37897 0.15595 0.16099 0.0
C1842 C 0.37353 0.08778 0.1629 0.0
H1843 H 0.33217 0.94936 0.18223 0.0
H1844 H 0.35149 -0.00049 0.18683 0.0
H1845 H 0.33616 0.02907 0.17085 0.0
H1846 H 0.35254 0.06785 0.12457 0.0
H1847 H 0.3621 0.18789 0.12122 0.0
H1848 H 0.57153 0.16465 0.40384 0.0
H1849 H 0.56936 0.04541 0.41388 0.0
H1850 H 0.62575 0.02298 0.40833 0.0
H1851 H 0.62797 0.14361 0.39967 0.0
H1852 H 0.57434 0.9414 0.3963 0.0
H1853 H 0.62057 0.91415 0.45003 0.0
H1854 H 0.6142 -0.00222 0.44201 0.0
H1855 H 0.63233 0.95113 0.43242 0.0
C1856 C 0.58348 0.13463 0.40538 0.0
C1857 C 0.59991 0.16285 0.40106 0.0
C1858 C 0.58225 0.06648 0.41104 0.0
C1859 C 0.59739 0.02473 0.41201 0.0
C1860 C 0.61391 0.05415 0.40828 0.0
H1861 H 0.6052 0.60708 0.38108 0.0
H1862 H 0.59725 0.72824 0.38435 0.0
C1863 C 0.61519 0.12304 0.40316 0.0
C1864 C 0.59567 0.94892 0.41456 0.0
H1865 H 0.61621 0.81044 0.43259 0.0
C1866 C 0.58324 0.91301 0.40459 0.0
C1867 C 0.60686 0.91117 0.42564 0.0
C1868 C 0.61906 0.94589 0.43825 0.0
C1869 C 0.58247 0.84076 0.40459 0.0
C1870 C 0.59506 0.80288 0.41413 0.0
C1871 C 0.60672 0.83883 0.42495 0.0
C1872 C 0.59735 0.72692 0.41219 0.0
C1873 C 0.56813 0.80649 0.39424 0.0
C1874 C 0.60024 0.68512 0.42666 0.0
C1875 C 0.60555 0.61653 0.42473 0.0
C1876 C 0.60753 0.58792 0.40831 0.0
C1877 C 0.60345 0.62786 0.39387 0.0
C1878 C 0.59878 0.69715 0.39577 0.0
H1879 H 0.55574 0.83704 0.39485 0.0
H1880 H 0.57221 0.80426 0.38058 0.0
H1881 H 0.56533 0.7535 0.3988 0.0
H1882 H 0.59918 0.70638 0.43947 0.0
H1883 H 0.6087 0.58649 0.43604 0.0
H1884 H 0.36884 0.91745 0.32646 0.0
H1885 H 0.36029 0.03842 0.32392 0.0
H1886 H 0.34125 0.03594 0.37604 0.0
H1887 H 0.34995 0.91435 0.37872 0.0
H1888 H 0.32852 0.12529 0.33127 0.0
H1889 H 0.38648 0.16406 0.37404 0.0
H1890 H 0.38234 0.08347 0.36321 0.0
H1891 H 0.36964 0.10667 0.38177 0.0
C1892 C 0.36236 0.94215 0.33723 0.0
C1893 C 0.36025 0.90707 0.35287 0.0
C1894 C 0.35741 0.01106 0.33571 0.0
C1895 C 0.35039 0.04603 0.34985 0.0
C1896 C 0.34675 0.00954 0.36502 0.0
H1897 H 0.32476 0.46848 0.36631 0.0
H1898 H 0.32298 0.34759 0.358 0.0
C1899 C 0.35164 0.94019 0.36652 0.0
C1900 C 0.34979 0.12209 0.34953 0.0
H1901 H 0.37127 0.26317 0.36504 0.0
C1902 C 0.33778 0.1557 0.33868 0.0
C1903 C 0.36227 0.16112 0.35884 0.0
C1904 C 0.37604 0.12729 0.37004 0.0
C1905 C 0.33765 0.22799 0.33726 0.0
C1906 C 0.34984 0.267 0.34695 0.0
C1907 C 0.36203 0.23305 0.35752 0.0
C1908 C 0.34943 0.34319 0.34765 0.0
C1909 C 0.32463 0.26197 0.32534 0.0
C1910 C 0.36473 0.3815 0.34411 0.0
C1911 C 0.36582 0.45082 0.34896 0.0
C1912 C 0.35168 0.48227 0.35755 0.0
C1913 C 0.3359 0.44533 0.35977 0.0
C1914 C 0.33479 0.37634 0.35489 0.0
H1915 H 0.32001 0.22573 0.31526 0.0
H1916 H 0.31296 0.27898 0.33282 0.0
H1917 H 0.33048 0.308 0.31907 0.0
H1918 H 0.37621 0.35654 0.33864 0.0
H1919 H 0.37819 0.47776 0.34726 0.0
H1920 H 0.33322 0.55441 0.84734 0.0
H1921 H 0.33001 0.67475 0.83857 0.0
H1922 H 0.38625 0.70231 0.84341 0.0
H1923 H 0.38948 0.58088 0.85139 0.0
H1924 H 0.33664 0.76767 0.8615 0.0
H1925 H 0.37657 0.83113 0.80457 0.0
H1926 H 0.37076 0.74342 0.80992 0.0
H1927 H 0.38957 0.78408 0.81978 0.0
C1928 C 0.34496 0.58541 0.8456 0.0
C1929 C 0.36159 0.55887 0.84996 0.0
C1930 C 0.34312 0.65424 0.84072 0.0
C1931 C 0.35785 0.69796 0.84041 0.0
C1932 C 0.37471 0.66958 0.84321 0.0
H1933 H 0.37403 0.0882 0.88265 0.0
H1934 H 0.36528 0.96937 0.87646 0.0
C1935 C 0.37658 0.60011 0.84778 0.0
C1936 C 0.35528 0.77395 0.8406 0.0
H1937 H 0.37202 0.92471 0.82506 0.0
C1938 C 0.34408 0.8019 0.85322 0.0
C1939 C 0.36474 0.81902 0.82973 0.0
C1940 C 0.37592 0.79273 0.81513 0.0
C1941 C 0.34301 0.8732 0.85598 0.0
C1942 C 0.35371 0.91775 0.84616 0.0
C1943 C 0.36397 0.8904 0.83276 0.0
C1944 C 0.35597 0.99136 0.85076 0.0
C1945 C 0.33074 0.89999 0.8697 0.0
C1946 C 0.3534 0.04341 0.83849 0.0
C1947 C 0.35838 0.11133 0.84208 0.0
C1948 C 0.36596 0.12781 0.85796 0.0
C1949 C 0.36776 0.07663 0.87051 0.0
C1950 C 0.36278 0.00887 0.86695 0.0
H1951 H 0.31938 0.86468 0.87161 0.0
H1952 H 0.33799 0.90322 0.88204 0.0
H1953 H 0.32565 0.95212 0.86647 0.0
H1954 H 0.3483 0.0309 0.82589 0.0
H1955 H 0.35731 0.15007 0.83212 0.0
H1956 H 0.62404 0.27032 0.85894 0.0
H1957 H 0.62723 0.14818 0.85179 0.0
H1958 H 0.68383 0.17118 0.8508 0.0
H1959 H 0.68062 0.29216 0.85931 0.0
H1960 H 0.6404 0.06306 0.82957 0.0
H1961 H 0.67962 0.04017 0.88951 0.0
H1962 H 0.66919 0.11958 0.8832 0.0
H1963 H 0.6897 0.09338 0.87349 0.0
C1964 C 0.63712 0.24961 0.8567 0.0
C1965 C 0.6521 0.28971 0.85994 0.0
C1966 C 0.63896 0.17977 0.85267 0.0
C1967 C 0.65582 0.14977 0.85149 0.0
C1968 C 0.67073 0.19244 0.85241 0.0
H1969 H 0.65083 0.70053 0.83497 0.0
H1970 H 0.66069 0.81985 0.83079 0.0
C1971 C 0.6689 0.26166 0.85701 0.0
C1972 C 0.65759 0.07346 0.85135 0.0
H1973 H 0.67372 0.93812 0.87466 0.0
C1974 C 0.6478 0.03564 0.83934 0.0
C1975 C 0.66709 0.03771 0.86428 0.0
C1976 C 0.67685 0.07466 0.87844 0.0
C1977 C 0.64653 0.96353 0.84034 0.0
C1978 C 0.65605 0.92786 0.85325 0.0
C1979 C 0.66655 0.96545 0.86472 0.0
C1980 C 0.65363 0.85293 0.85643 0.0
C1981 C 0.63405 0.92721 0.82826 0.0
C1982 C 0.64794 0.83037 0.87267 0.0
C1983 C 0.64304 0.76176 0.87524 0.0
C1984 C 0.64355 0.71516 0.86155 0.0
C1985 C 0.65035 0.73618 0.84566 0.0
C1986 C 0.65572 0.80437 0.84322 0.0
H1987 H 0.6246 0.96361 0.82219 0.0
H1988 H 0.64172 0.90225 0.81786 0.0
H1989 H 0.62638 0.88687 0.83507 0.0
H1990 H 0.64634 0.86666 0.88313 0.0
H1991 H 0.63768 0.74637 0.88754 0.0
H1992 H 0.35995 0.85483 0.62039 0.0
H1993 H 0.35168 0.97681 0.6229 0.0
H1994 H 0.37118 0.98012 0.67483 0.0
H1995 H 0.3793 0.85865 0.67249 0.0
H1996 H 0.34 0.06989 0.66754 0.0
H1997 H 0.39767 0.10059 0.624 0.0
H1998 H 0.38042 0.04447 0.61659 0.0
H1999 H 0.39312 0.021 0.63513 0.0
C2000 C 0.3618 0.88085 0.63255 0.0
C2001 C 0.37049 0.84781 0.64616 0.0
C2002 C 0.35716 0.9505 0.63394 0.0
C2003 C 0.36112 0.9874 0.64897 0.0
C2004 C 0.36808 0.95249 0.66314 0.0
H2005 H 0.39074 0.41832 0.64897 0.0
H2006 H 0.38864 0.29763 0.65809 0.0
C2007 C 0.37278 0.88323 0.66174 0.0
C2008 C 0.361 0.06353 0.64902 0.0
H2009 H 0.38298 0.20163 0.63251 0.0
C2010 C 0.34932 0.09895 0.65986 0.0
C2011 C 0.37357 0.10083 0.63938 0.0
C2012 C 0.38703 0.06505 0.6282 0.0
C2013 C 0.34957 0.17134 0.66091 0.0
C2014 C 0.3618 0.20863 0.65083 0.0
C2015 C 0.3737 0.17287 0.64031 0.0
C2016 C 0.36165 0.28476 0.64964 0.0
C2017 C 0.3369 0.20727 0.67283 0.0
C2018 C 0.34699 0.31798 0.64248 0.0
C2019 C 0.34817 0.38661 0.63731 0.0
C2020 C 0.36405 0.42319 0.63917 0.0
C2021 C 0.3783 0.39164 0.64757 0.0
C2022 C 0.37713 0.32265 0.6527 0.0
H2023 H 0.33234 0.17234 0.68322 0.0
H2024 H 0.34303 0.2536 0.6787 0.0
H2025 H 0.32515 0.22414 0.66545 0.0
H2026 H 0.33505 0.28951 0.63971 0.0
H2027 H 0.33695 0.40984 0.63092 0.0
H2028 H 0.61665 0.59528 0.62895 0.0
H2029 H 0.60785 0.71535 0.62495 0.0
H2030 H 0.61244 0.69098 0.57003 0.0
H2031 H 0.62272 0.57251 0.57426 0.0
H2032 H 0.6278 0.79824 0.57704 0.0
H2033 H 0.56564 0.8175 0.61254 0.0
H2034 H 0.58167 0.78299 0.627 0.0
H2035 H 0.57562 0.7351 0.608 0.0
C2036 C 0.61542 0.61543 0.61605 0.0
C2037 C 0.62038 0.57526 0.60191 0.0
C2038 C 0.6102 0.68393 0.61371 0.0
C2039 C 0.60916 0.71257 0.59713 0.0
C2040 C 0.61316 0.67058 0.58295 0.0
H2041 H 0.58035 0.14802 0.60545 0.0
H2042 H 0.57866 0.02889 0.5952 0.0
C2043 C 0.61896 0.60288 0.58534 0.0
C2044 C 0.6061 0.78791 0.59482 0.0
H2045 H 0.58343 0.92348 0.61177 0.0
C2046 C 0.61777 0.82532 0.58433 0.0
C2047 C 0.5927 0.82399 0.60373 0.0
C2048 C 0.5781 0.78744 0.61324 0.0
C2049 C 0.61723 0.89758 0.58353 0.0
C2050 C 0.60543 0.93388 0.59433 0.0
C2051 C 0.59288 0.89635 0.6038 0.0
C2052 C 0.60676 0.00969 0.59719 0.0
C2053 C 0.62937 0.93374 0.57111 0.0
C2054 C 0.62314 0.03995 0.60109 0.0
C2055 C 0.62414 0.10879 0.60627 0.0
C2056 C 0.60872 0.14775 0.60833 0.0
C2057 C 0.59241 0.11866 0.60394 0.0
C2058 C 0.59146 0.05055 0.59817 0.0
H2059 H 0.63113 0.90252 0.55928 0.0
H2060 H 0.62431 0.98539 0.5674 0.0
H2061 H 0.64258 0.93964 0.57704 0.0
H2062 H 0.6351 0.00951 0.6011 0.0
H2063 H 0.63684 0.12997 0.60984 0.0
loop_
_geom_bond_atom_site_label_1
_geom_bond_atom_site_label_2
_geom_bond_distance
_geom_bond_site_symmetry_2
_ccdc_geom_bond_type
Zn0 O6 1.920 1_565 S
Zn0 O12 1.898 . S
Zn0 O15 1.905 . S
Zn1 O9 1.905 . S
Zn1 O10 1.898 . S
Zn1 O18 1.920 . S
Zn2 O5 2.080 . S
Zn2 O8 2.114 . S
Zn2 O11 2.120 . S
Zn2 O13 2.120 . S
Zn2 O14 2.114 1_545 S
Zn2 O17 2.080 . S
C3 O8 1.166 . S
C3 O9 1.182 . S
C4 O10 1.167 . S
C4 O11 1.299 . S
O5 Zn2 2.080 . S
O5 C19 1.305 . S
O6 Zn0 1.920 1_545 S
O6 C19 1.234 . S
C7 O12 1.167 1_545 S
C7 O13 1.299 . S
O8 Zn2 2.114 . S
O8 C3 1.166 . S
O9 Zn1 1.905 . S
O9 C3 1.182 . S
O10 Zn1 1.898 . S
O10 C4 1.167 . S
O11 Zn2 2.120 . S
O11 C4 1.299 . S
O12 Zn0 1.898 . S
O12 C7 1.167 1_565 S
O13 Zn2 2.120 . S
O13 C7 1.299 . S
O14 Zn2 2.114 1_565 S
O14 C16 1.166 . S
O15 Zn0 1.905 . S
O15 C16 1.182 . S
C16 O14 1.166 . S
C16 O15 1.182 . S
O17 Zn2 2.080 . S
O17 C20 1.305 . S
O18 Zn1 1.920 . S
O18 C20 1.234 . S
C19 O5 1.305 . S
C19 O6 1.234 . S
C20 O17 1.305 . S
C20 O18 1.234 . S
Zn21 O27 1.920 . S
Zn21 O33 1.898 . S
Zn21 O36 1.905 . S
Zn22 O30 1.905 . S
Zn22 O31 1.898 . S
Zn22 O39 1.920 1_545 S
Zn23 O26 2.080 . S
Zn23 O29 2.114 1_565 S
Zn23 O32 2.120 . S
Zn23 O34 2.120 . S
Zn23 O35 2.114 . S
Zn23 O38 2.080 . S
C24 O29 1.166 . S
C24 O30 1.182 . S
C25 O31 1.167 1_565 S
C25 O32 1.299 . S
O26 Zn23 2.080 . S
O26 C40 1.305 . S
O27 Zn21 1.920 . S
O27 C40 1.234 . S
C28 O33 1.167 . S
C28 O34 1.299 . S
O29 Zn23 2.114 1_545 S
O29 C24 1.166 . S
O30 Zn22 1.905 . S
O30 C24 1.182 . S
O31 Zn22 1.898 . S
O31 C25 1.167 1_545 S
O32 Zn23 2.120 . S
O32 C25 1.299 . S
O33 Zn21 1.898 . S
O33 C28 1.167 . S
O34 Zn23 2.120 . S
O34 C28 1.299 . S
O35 Zn23 2.114 . S
O35 C37 1.166 . S
O36 Zn21 1.905 . S
O36 C37 1.182 . S
C37 O35 1.166 . S
C37 O36 1.182 . S
O38 Zn23 2.080 . S
O38 C41 1.305 . S
O39 Zn22 1.920 1_565 S
O39 C41 1.234 . S
C40 O26 1.305 . S
C40 O27 1.234 . S
C41 O38 1.305 . S
C41 O39 1.234 . S
Zn42 O48 1.920 1_545 S
Zn42 O54 1.898 . S
Zn42 O57 1.905 . S
Zn43 O51 1.905 . S
Zn43 O52 1.898 . S
Zn43 O60 1.920 . S
Zn44 O47 2.080 . S
Zn44 O50 2.114 . S
Zn44 O53 2.120 . S
Zn44 O55 2.120 . S
Zn44 O56 2.114 1_565 S
Zn44 O59 2.080 . S
C45 O50 1.166 . S
C45 O51 1.182 . S
C46 O52 1.167 . S
C46 O53 1.299 . S
O47 Zn44 2.080 . S
O47 C61 1.305 . S
O48 Zn42 1.920 1_565 S
O48 C61 1.234 . S
C49 O54 1.167 1_565 S
C49 O55 1.299 . S
O50 Zn44 2.114 . S
O50 C45 1.166 . S
O51 Zn43 1.905 . S
O51 C45 1.182 . S
O52 Zn43 1.898 . S
O52 C46 1.167 . S
O53 Zn44 2.120 . S
O53 C46 1.299 . S
O54 Zn42 1.898 . S
O54 C49 1.167 1_545 S
O55 Zn44 2.120 . S
O55 C49 1.299 . S
O56 Zn44 2.114 1_545 S
O56 C58 1.166 . S
O57 Zn42 1.905 . S
O57 C58 1.182 . S
C58 O56 1.166 . S
C58 O57 1.182 . S
O59 Zn44 2.080 . S
O59 C62 1.305 . S
O60 Zn43 1.920 . S
O60 C62 1.234 . S
C61 O47 1.305 . S
C61 O48 1.234 . S
C62 O59 1.305 . S
C62 O60 1.234 . S
Zn63 O69 1.920 1_565 S
Zn63 O75 1.898 . S
Zn63 O78 1.905 . S
Zn64 O72 1.905 . S
Zn64 O73 1.898 . S
Zn64 O81 1.920 . S
Zn65 O68 2.080 . S
Zn65 O71 2.114 . S
Zn65 O74 2.120 . S
Zn65 O76 2.120 . S
Zn65 O77 2.114 1_545 S
Zn65 O80 2.080 . S
C66 O71 1.166 . S
C66 O72 1.182 . S
C67 O73 1.167 . S
C67 O74 1.299 . S
O68 Zn65 2.080 . S
O68 C82 1.305 . S
O69 Zn63 1.920 1_545 S
O69 C82 1.234 . S
C70 O75 1.167 1_545 S
C70 O76 1.299 . S
O71 Zn65 2.114 . S
O71 C66 1.166 . S
O72 Zn64 1.905 . S
O72 C66 1.182 . S
O73 Zn64 1.898 . S
O73 C67 1.167 . S
O74 Zn65 2.120 . S
O74 C67 1.299 . S
O75 Zn63 1.898 . S
O75 C70 1.167 1_565 S
O76 Zn65 2.120 . S
O76 C70 1.299 . S
O77 Zn65 2.114 1_565 S
O77 C79 1.166 . S
O78 Zn63 1.905 . S
O78 C79 1.182 . S
C79 O77 1.166 . S
C79 O78 1.182 . S
O80 Zn65 2.080 . S
O80 C83 1.305 . S
O81 Zn64 1.920 . S
O81 C83 1.234 . S
C82 O68 1.305 . S
C82 O69 1.234 . S
C83 O80 1.305 . S
C83 O81 1.234 . S
Zn84 O90 1.920 1_545 S
Zn84 O96 1.898 . S
Zn84 O99 1.905 . S
Zn85 O93 1.905 . S
Zn85 O94 1.898 . S
Zn85 O102 1.920 . S
Zn86 O89 2.080 . S
Zn86 O92 2.114 . S
Zn86 O95 2.120 . S
Zn86 O97 2.120 . S
Zn86 O98 2.114 1_565 S
Zn86 O101 2.080 . S
C87 O92 1.166 . S
C87 O93 1.182 . S
C88 O94 1.167 . S
C88 O95 1.299 . S
O89 Zn86 2.080 . S
O89 C103 1.305 . S
O90 Zn84 1.920 1_565 S
O90 C103 1.234 . S
C91 O96 1.167 1_565 S
C91 O97 1.299 . S
O92 Zn86 2.114 . S
O92 C87 1.166 . S
O93 Zn85 1.905 . S
O93 C87 1.182 . S
O94 Zn85 1.898 . S
O94 C88 1.167 . S
O95 Zn86 2.120 . S
O95 C88 1.299 . S
O96 Zn84 1.898 . S
O96 C91 1.167 1_545 S
O97 Zn86 2.120 . S
O97 C91 1.299 . S
O98 Zn86 2.114 1_545 S
O98 C100 1.166 . S
O99 Zn84 1.905 . S
O99 C100 1.182 . S
C100 O98 1.166 . S
C100 O99 1.182 . S
O101 Zn86 2.080 . S
O101 C104 1.305 . S
O102 Zn85 1.920 . S
O102 C104 1.234 . S
C103 O89 1.305 . S
C103 O90 1.234 . S
C104 O101 1.305 . S
C104 O102 1.234 . S
Zn105 O111 1.920 1_565 S
Zn105 O117 1.898 . S
Zn105 O120 1.905 . S
Zn106 O114 1.905 . S
Zn106 O115 1.898 . S
Zn106 O123 1.920 . S
Zn107 O110 2.080 . S
Zn107 O113 2.114 . S
Zn107 O116 2.120 . S
Zn107 O118 2.120 . S
Zn107 O119 2.114 1_545 S
Zn107 O122 2.080 . S
C108 O113 1.166 . S
C108 O114 1.182 . S
C109 O115 1.167 . S
C109 O116 1.299 . S
O110 Zn107 2.080 . S
O110 C124 1.305 . S
O111 Zn105 1.920 1_545 S
O111 C124 1.234 . S
C112 O117 1.167 1_545 S
C112 O118 1.299 . S
O113 Zn107 2.114 . S
O113 C108 1.166 . S
O114 Zn106 1.905 . S
O114 C108 1.182 . S
O115 Zn106 1.898 . S
O115 C109 1.167 . S
O116 Zn107 2.120 . S
O116 C109 1.299 . S
O117 Zn105 1.898 . S
O117 C112 1.167 1_565 S
O118 Zn107 2.120 . S
O118 C112 1.299 . S
O119 Zn107 2.114 1_565 S
O119 C121 1.166 . S
O120 Zn105 1.905 . S
O120 C121 1.182 . S
C121 O119 1.166 . S
C121 O120 1.182 . S
O122 Zn107 2.080 . S
O122 C125 1.305 . S
O123 Zn106 1.920 . S
O123 C125 1.234 . S
C124 O110 1.305 . S
C124 O111 1.234 . S
C125 O122 1.305 . S
C125 O123 1.234 . S
Zn126 O132 1.920 1_565 S
Zn126 O138 1.898 . S
Zn126 O141 1.905 . S
Zn127 O135 1.905 . S
Zn127 O136 1.898 . S
Zn127 O144 1.920 . S
Zn128 O131 2.080 . S
Zn128 O134 2.114 . S
Zn128 O137 2.120 . S
Zn128 O139 2.120 . S
Zn128 O140 2.114 1_545 S
Zn128 O143 2.080 . S
C129 O134 1.166 . S
C129 O135 1.182 . S
C130 O136 1.167 . S
C130 O137 1.299 . S
O131 Zn128 2.080 . S
O131 C145 1.305 . S
O132 Zn126 1.920 1_545 S
O132 C145 1.234 . S
C133 O138 1.167 1_545 S
C133 O139 1.299 . S
O134 Zn128 2.114 . S
O134 C129 1.166 . S
O135 Zn127 1.905 . S
O135 C129 1.182 . S
O136 Zn127 1.898 . S
O136 C130 1.167 . S
O137 Zn128 2.120 . S
O137 C130 1.299 . S
O138 Zn126 1.898 . S
O138 C133 1.167 1_565 S
O139 Zn128 2.120 . S
O139 C133 1.299 . S
O140 Zn128 2.114 1_565 S
O140 C142 1.166 . S
O141 Zn126 1.905 . S
O141 C142 1.182 . S
C142 O140 1.166 . S
C142 O141 1.182 . S
O143 Zn128 2.080 . S
O143 C146 1.305 . S
O144 Zn127 1.920 . S
O144 C146 1.234 . S
C145 O131 1.305 . S
C145 O132 1.234 . S
C146 O143 1.305 . S
C146 O144 1.234 . S
Zn147 O153 1.920 1_545 S
Zn147 O159 1.898 . S
Zn147 O162 1.905 . S
Zn148 O156 1.905 . S
Zn148 O157 1.898 . S
Zn148 O165 1.920 . S
Zn149 O152 2.080 . S
Zn149 O155 2.114 . S
Zn149 O158 2.120 . S
Zn149 O160 2.120 . S
Zn149 O161 2.114 1_565 S
Zn149 O164 2.080 . S
C150 O155 1.166 . S
C150 O156 1.182 . S
C151 O157 1.167 . S
C151 O158 1.299 . S
O152 Zn149 2.080 . S
O152 C166 1.305 . S
O153 Zn147 1.920 1_565 S
O153 C166 1.234 . S
C154 O159 1.167 1_565 S
C154 O160 1.299 . S
O155 Zn149 2.114 . S
O155 C150 1.166 . S
O156 Zn148 1.905 . S
O156 C150 1.182 . S
O157 Zn148 1.898 . S
O157 C151 1.167 . S
O158 Zn149 2.120 . S
O158 C151 1.299 . S
O159 Zn147 1.898 . S
O159 C154 1.167 1_545 S
O160 Zn149 2.120 . S
O160 C154 1.299 . S
O161 Zn149 2.114 1_545 S
O161 C163 1.166 . S
O162 Zn147 1.905 . S
O162 C163 1.182 . S
C163 O161 1.166 . S
C163 O162 1.182 . S
O164 Zn149 2.080 . S
O164 C167 1.305 . S
O165 Zn148 1.920 . S
O165 C167 1.234 . S
C166 O152 1.305 . S
C166 O153 1.234 . S
C167 O164 1.305 . S
C167 O165 1.234 . S
Zn168 O174 1.920 . S
Zn168 O180 1.898 . S
Zn168 O183 1.905 . S
Zn169 O177 1.905 . S
Zn169 O178 1.898 . S
Zn169 O186 1.920 . S
Zn170 O173 2.080 . S
Zn170 O176 2.114 . S
Zn170 O179 2.120 . S
Zn170 O181 2.120 . S
Zn170 O182 2.114 . S
Zn170 O185 2.080 . S
C171 O176 1.166 . S
C171 O177 1.182 . S
C172 O178 1.167 . S
C172 O179 1.299 . S
O173 Zn170 2.080 . S
O173 C187 1.305 . S
O174 Zn168 1.920 . S
O174 C187 1.234 . S
C175 O180 1.167 . S
C175 O181 1.299 . S
O176 Zn170 2.114 . S
O176 C171 1.166 . S
O177 Zn169 1.905 . S
O177 C171 1.182 . S
O178 Zn169 1.898 . S
O178 C172 1.167 . S
O179 Zn170 2.120 . S
O179 C172 1.299 . S
O180 Zn168 1.898 . S
O180 C175 1.167 . S
O181 Zn170 2.120 . S
O181 C175 1.299 . S
O182 Zn170 2.114 . S
O182 C184 1.166 . S
O183 Zn168 1.905 . S
O183 C184 1.182 . S
C184 O182 1.166 . S
C184 O183 1.182 . S
O185 Zn170 2.080 . S
O185 C188 1.305 . S
O186 Zn169 1.920 . S
O186 C188 1.234 . S
C187 O173 1.305 . S
C187 O174 1.234 . S
C188 O185 1.305 . S
C188 O186 1.234 . S
Zn189 O195 1.920 . S
Zn189 O201 1.898 . S
Zn189 O204 1.905 . S
Zn190 O198 1.905 . S
Zn190 O199 1.898 . S
Zn190 O207 1.920 . S
Zn191 O194 2.080 . S
Zn191 O197 2.114 . S
Zn191 O200 2.120 . S
Zn191 O202 2.120 . S
Zn191 O203 2.114 . S
Zn191 O206 2.080 . S
C192 O197 1.166 . S
C192 O198 1.182 . S
C193 O199 1.167 . S
C193 O200 1.299 . S
O194 Zn191 2.080 . S
O194 C208 1.305 . S
O195 Zn189 1.920 . S
O195 C208 1.234 . S
C196 O201 1.167 . S
C196 O202 1.299 . S
O197 Zn191 2.114 . S
O197 C192 1.166 . S
O198 Zn190 1.905 . S
O198 C192 1.182 . S
O199 Zn190 1.898 . S
O199 C193 1.167 . S
O200 Zn191 2.120 . S
O200 C193 1.299 . S
O201 Zn189 1.898 . S
O201 C196 1.167 . S
O202 Zn191 2.120 . S
O202 C196 1.299 . S
O203 Zn191 2.114 . S
O203 C205 1.166 . S
O204 Zn189 1.905 . S
O204 C205 1.182 . S
C205 O203 1.166 . S
C205 O204 1.182 . S
O206 Zn191 2.080 . S
O206 C209 1.305 . S
O207 Zn190 1.920 . S
O207 C209 1.234 . S
C208 O194 1.305 . S
C208 O195 1.234 . S
C209 O206 1.305 . S
C209 O207 1.234 . S
Zn210 O216 1.920 . S
Zn210 O222 1.898 . S
Zn210 O225 1.905 . S
Zn211 O219 1.905 . S
Zn211 O220 1.898 . S
Zn211 O228 1.920 . S
Zn212 O215 2.080 . S
Zn212 O218 2.114 . S
Zn212 O221 2.120 . S
Zn212 O223 2.120 . S
Zn212 O224 2.114 . S
Zn212 O227 2.080 . S
C213 O218 1.166 . S
C213 O219 1.182 . S
C214 O220 1.167 . S
C214 O221 1.299 . S
O215 Zn212 2.080 . S
O215 C229 1.305 . S
O216 Zn210 1.920 . S
O216 C229 1.234 . S
C217 O222 1.167 . S
C217 O223 1.299 . S
O218 Zn212 2.114 . S
O218 C213 1.166 . S
O219 Zn211 1.905 . S
O219 C213 1.182 . S
O220 Zn211 1.898 . S
O220 C214 1.167 . S
O221 Zn212 2.120 . S
O221 C214 1.299 . S
O222 Zn210 1.898 . S
O222 C217 1.167 . S
O223 Zn212 2.120 . S
O223 C217 1.299 . S
O224 Zn212 2.114 . S
O224 C226 1.166 . S
O225 Zn210 1.905 . S
O225 C226 1.182 . S
C226 O224 1.166 . S
C226 O225 1.182 . S
O227 Zn212 2.080 . S
O227 C230 1.305 . S
O228 Zn211 1.920 . S
O228 C230 1.234 . S
C229 O215 1.305 . S
C229 O216 1.234 . S
C230 O227 1.305 . S
C230 O228 1.234 . S
Zn231 O237 1.920 . S
Zn231 O243 1.898 . S
Zn231 O246 1.905 . S
Zn232 O240 1.905 . S
Zn232 O241 1.898 . S
Zn232 O249 1.920 . S
Zn233 O236 2.080 . S
Zn233 O239 2.114 . S
Zn233 O242 2.120 . S
Zn233 O244 2.120 . S
Zn233 O245 2.114 . S
Zn233 O248 2.080 . S
C234 O239 1.166 . S
C234 O240 1.182 . S
C235 O241 1.167 . S
C235 O242 1.299 . S
O236 Zn233 2.080 . S
O236 C250 1.305 . S
O237 Zn231 1.920 . S
O237 C250 1.234 . S
C238 O243 1.167 . S
C238 O244 1.299 . S
O239 Zn233 2.114 . S
O239 C234 1.166 . S
O240 Zn232 1.905 . S
O240 C234 1.182 . S
O241 Zn232 1.898 . S
O241 C235 1.167 . S
O242 Zn233 2.120 . S
O242 C235 1.299 . S
O243 Zn231 1.898 . S
O243 C238 1.167 . S
O244 Zn233 2.120 . S
O244 C238 1.299 . S
O245 Zn233 2.114 . S
O245 C247 1.166 . S
O246 Zn231 1.905 . S
O246 C247 1.182 . S
C247 O245 1.166 . S
C247 O246 1.182 . S
O248 Zn233 2.080 . S
O248 C251 1.305 . S
O249 Zn232 1.920 . S
O249 C251 1.234 . S
C250 O236 1.305 . S
C250 O237 1.234 . S
C251 O248 1.305 . S
C251 O249 1.234 . S
Zn252 O258 1.920 . S
Zn252 O264 1.898 . S
Zn252 O267 1.905 . S
Zn253 O261 1.905 . S
Zn253 O262 1.898 . S
Zn253 O270 1.920 . S
Zn254 O257 2.080 . S
Zn254 O260 2.114 . S
Zn254 O263 2.120 . S
Zn254 O265 2.120 . S
Zn254 O266 2.114 . S
Zn254 O269 2.080 . S
C255 O260 1.166 . S
C255 O261 1.182 . S
C256 O262 1.167 . S
C256 O263 1.299 . S
O257 Zn254 2.080 . S
O257 C271 1.305 . S
O258 Zn252 1.920 . S
O258 C271 1.234 . S
C259 O264 1.167 . S
C259 O265 1.299 . S
O260 Zn254 2.114 . S
O260 C255 1.166 . S
O261 Zn253 1.905 . S
O261 C255 1.182 . S
O262 Zn253 1.898 . S
O262 C256 1.167 . S
O263 Zn254 2.120 . S
O263 C256 1.299 . S
O264 Zn252 1.898 . S
O264 C259 1.167 . S
O265 Zn254 2.120 . S
O265 C259 1.299 . S
O266 Zn254 2.114 . S
O266 C268 1.166 . S
O267 Zn252 1.905 . S
O267 C268 1.182 . S
C268 O266 1.166 . S
C268 O267 1.182 . S
O269 Zn254 2.080 . S
O269 C272 1.305 . S
O270 Zn253 1.920 . S
O270 C272 1.234 . S
C271 O257 1.305 . S
C271 O258 1.234 . S
C272 O269 1.305 . S
C272 O270 1.234 . S
Zn273 O279 1.920 . S
Zn273 O285 1.898 . S
Zn273 O288 1.905 . S
Zn274 O282 1.905 . S
Zn274 O283 1.898 . S
Zn274 O291 1.920 . S
Zn275 O278 2.080 . S
Zn275 O281 2.114 . S
Zn275 O284 2.120 . S
Zn275 O286 2.120 . S
Zn275 O287 2.114 . S
Zn275 O290 2.080 . S
C276 O281 1.166 . S
C276 O282 1.182 . S
C277 O283 1.167 . S
C277 O284 1.299 . S
O278 Zn275 2.080 . S
O278 C292 1.305 . S
O279 Zn273 1.920 . S
O279 C292 1.234 . S
C280 O285 1.167 . S
C280 O286 1.299 . S
O281 Zn275 2.114 . S
O281 C276 1.166 . S
O282 Zn274 1.905 . S
O282 C276 1.182 . S
O283 Zn274 1.898 . S
O283 C277 1.167 . S
O284 Zn275 2.120 . S
O284 C277 1.299 . S
O285 Zn273 1.898 . S
O285 C280 1.167 . S
O286 Zn275 2.120 . S
O286 C280 1.299 . S
O287 Zn275 2.114 . S
O287 C289 1.166 . S
O288 Zn273 1.905 . S
O288 C289 1.182 . S
C289 O287 1.166 . S
C289 O288 1.182 . S
O290 Zn275 2.080 . S
O290 C293 1.305 . S
O291 Zn274 1.920 . S
O291 C293 1.234 . S
C292 O278 1.305 . S
C292 O279 1.234 . S
C293 O290 1.305 . S
C293 O291 1.234 . S
Zn294 O300 1.920 . S
Zn294 O306 1.898 . S
Zn294 O309 1.905 . S
Zn295 O303 1.905 . S
Zn295 O304 1.898 . S
Zn295 O312 1.920 . S
Zn296 O299 2.080 . S
Zn296 O302 2.114 . S
Zn296 O305 2.120 . S
Zn296 O307 2.120 . S
Zn296 O308 2.114 . S
Zn296 O311 2.080 . S
C297 O302 1.166 . S
C297 O303 1.182 . S
C298 O304 1.167 . S
C298 O305 1.299 . S
O299 Zn296 2.080 . S
O299 C313 1.305 . S
O300 Zn294 1.920 . S
O300 C313 1.234 . S
C301 O306 1.167 . S
C301 O307 1.299 . S
O302 Zn296 2.114 . S
O302 C297 1.166 . S
O303 Zn295 1.905 . S
O303 C297 1.182 . S
O304 Zn295 1.898 . S
O304 C298 1.167 . S
O305 Zn296 2.120 . S
O305 C298 1.299 . S
O306 Zn294 1.898 . S
O306 C301 1.167 . S
O307 Zn296 2.120 . S
O307 C301 1.299 . S
O308 Zn296 2.114 . S
O308 C310 1.166 . S
O309 Zn294 1.905 . S
O309 C310 1.182 . S
C310 O308 1.166 . S
C310 O309 1.182 . S
O311 Zn296 2.080 . S
O311 C314 1.305 . S
O312 Zn295 1.920 . S
O312 C314 1.234 . S
C313 O299 1.305 . S
C313 O300 1.234 . S
C314 O311 1.305 . S
C314 O312 1.234 . S
Zn315 O321 1.920 . S
Zn315 O327 1.898 . S
Zn315 O330 1.905 . S
Zn316 O324 1.905 . S
Zn316 O325 1.898 . S
Zn316 O333 1.920 . S
Zn317 O320 2.080 . S
Zn317 O323 2.114 . S
Zn317 O326 2.120 . S
Zn317 O328 2.120 . S
Zn317 O329 2.114 . S
Zn317 O332 2.080 . S
C318 O323 1.166 . S
C318 O324 1.182 . S
C319 O325 1.167 . S
C319 O326 1.299 . S
O320 Zn317 2.080 . S
O320 C334 1.305 . S
O321 Zn315 1.920 . S
O321 C334 1.234 . S
C322 O327 1.167 . S
C322 O328 1.299 . S
O323 Zn317 2.114 . S
O323 C318 1.166 . S
O324 Zn316 1.905 . S
O324 C318 1.182 . S
O325 Zn316 1.898 . S
O325 C319 1.167 . S
O326 Zn317 2.120 . S
O326 C319 1.299 . S
O327 Zn315 1.898 . S
O327 C322 1.167 . S
O328 Zn317 2.120 . S
O328 C322 1.299 . S
O329 Zn317 2.114 . S
O329 C331 1.166 . S
O330 Zn315 1.905 . S
O330 C331 1.182 . S
C331 O329 1.166 . S
C331 O330 1.182 . S
O332 Zn317 2.080 . S
O332 C335 1.305 . S
O333 Zn316 1.920 . S
O333 C335 1.234 . S
C334 O320 1.305 . S
C334 O321 1.234 . S
C335 O332 1.305 . S
C335 O333 1.234 . S
H336 C344 0.929 . S
H337 C346 0.930 . S
H338 C348 0.930 . S
H339 C351 0.929 . S
H340 C354 0.930 . S
H341 C356 0.960 . S
H342 C356 0.960 . S
H343 C356 0.960 . S
C344 H336 0.929 . S
C344 C345 1.377 . S
C344 C346 1.384 . S
C345 C344 1.377 . S
C345 C351 1.390 . S
C346 H337 0.930 . S
C346 C344 1.384 . S
C346 C347 1.372 . S
C347 C346 1.372 . S
C347 C348 1.400 . S
C347 C352 1.490 . S
C348 H338 0.930 . S
C348 C347 1.400 . S
C348 C351 1.386 . S
H349 C365 0.930 . S
H350 C366 0.931 . S
C351 H339 0.929 . S
C351 C345 1.390 . S
C351 C348 1.386 . S
C352 C347 1.490 . S
C352 C354 1.395 . S
C352 C355 1.403 . S
H353 C359 0.930 . S
C354 H340 0.930 . S
C354 C352 1.395 . S
C354 C357 1.403 . S
C355 C352 1.403 . S
C355 C356 1.524 . S
C355 C359 1.400 . S
C356 H341 0.960 . S
C356 H342 0.960 . S
C356 H343 0.960 . S
C356 C355 1.524 . S
C357 C354 1.403 . S
C357 C358 1.392 . S
C357 C361 1.495 . S
C358 C357 1.392 . S
C358 C359 1.385 . S
C358 C360 1.478 . S
C359 H353 0.930 . S
C359 C355 1.400 . S
C359 C358 1.385 . S
C360 C358 1.478 . S
C360 C362 1.381 . S
C360 C366 1.383 . S
C361 C357 1.495 . S
C361 H367 0.959 . S
C361 H368 0.961 . S
C361 H369 0.960 . S
C362 C360 1.381 . S
C362 C363 1.394 . S
C362 H370 0.930 . S
C363 C362 1.394 . S
C363 C364 1.383 . S
C363 H371 0.929 . S
C364 C363 1.383 . S
C364 C365 1.377 . S
C365 H349 0.930 . S
C365 C364 1.377 . S
C365 C366 1.379 . S
C366 H350 0.931 . S
C366 C360 1.383 . S
C366 C365 1.379 . S
H367 C361 0.959 . S
H368 C361 0.961 . S
H369 C361 0.960 . S
H370 C362 0.930 . S
H371 C363 0.929 . S
H372 C380 0.929 . S
H373 C382 0.930 . S
H374 C384 0.930 . S
H375 C387 0.929 . S
H376 C390 0.930 . S
H377 C392 0.960 . S
H378 C392 0.960 . S
H379 C392 0.960 . S
C380 H372 0.929 . S
C380 C381 1.377 . S
C380 C382 1.384 . S
C381 C380 1.377 . S
C381 C387 1.390 . S
C382 H373 0.930 . S
C382 C380 1.384 . S
C382 C383 1.372 . S
C383 C382 1.372 . S
C383 C384 1.400 . S
C383 C388 1.490 . S
C384 H374 0.930 . S
C384 C383 1.400 . S
C384 C387 1.386 . S
H385 C401 0.930 . S
H386 C402 0.931 . S
C387 H375 0.929 . S
C387 C381 1.390 . S
C387 C384 1.386 . S
C388 C383 1.490 . S
C388 C390 1.395 . S
C388 C391 1.403 . S
H389 C395 0.930 . S
C390 H376 0.930 . S
C390 C388 1.395 . S
C390 C393 1.403 . S
C391 C388 1.403 . S
C391 C392 1.524 . S
C391 C395 1.400 . S
C392 H377 0.960 . S
C392 H378 0.960 . S
C392 H379 0.960 . S
C392 C391 1.524 . S
C393 C390 1.403 . S
C393 C394 1.392 . S
C393 C397 1.495 . S
C394 C393 1.392 . S
C394 C395 1.385 . S
C394 C396 1.478 . S
C395 H389 0.930 . S
C395 C391 1.400 . S
C395 C394 1.385 . S
C396 C394 1.478 . S
C396 C398 1.381 . S
C396 C402 1.383 . S
C397 C393 1.495 . S
C397 H403 0.959 . S
C397 H404 0.961 . S
C397 H405 0.960 . S
C398 C396 1.381 . S
C398 C399 1.394 . S
C398 H406 0.930 . S
C399 C398 1.394 . S
C399 C400 1.383 . S
C399 H407 0.929 . S
C400 C399 1.383 . S
C400 C401 1.377 . S
C401 H385 0.930 . S
C401 C400 1.377 . S
C401 C402 1.379 . S
C402 H386 0.931 . S
C402 C396 1.383 . S
C402 C401 1.379 . S
H403 C397 0.959 . S
H404 C397 0.961 . S
H405 C397 0.960 . S
H406 C398 0.930 . S
H407 C399 0.929 . S
H408 C416 0.929 . S
H409 C418 0.930 . S
H410 C420 0.930 . S
H411 C423 0.929 . S
H412 C426 0.930 . S
H413 C428 0.960 . S
H414 C428 0.960 . S
H415 C428 0.960 . S
C416 H408 0.929 . S
C416 C417 1.377 . S
C416 C418 1.384 . S
C417 C416 1.377 . S
C417 C423 1.390 . S
C418 H409 0.930 . S
C418 C416 1.384 . S
C418 C419 1.372 . S
C419 C418 1.372 . S
C419 C420 1.400 . S
C419 C424 1.490 . S
C420 H410 0.930 . S
C420 C419 1.400 . S
C420 C423 1.386 . S
H421 C437 0.930 . S
H422 C438 0.931 . S
C423 H411 0.929 . S
C423 C417 1.390 . S
C423 C420 1.386 . S
C424 C419 1.490 . S
C424 C426 1.395 . S
C424 C427 1.403 . S
H425 C431 0.930 . S
C426 H412 0.930 . S
C426 C424 1.395 . S
C426 C429 1.403 . S
C427 C424 1.403 . S
C427 C428 1.524 . S
C427 C431 1.400 . S
C428 H413 0.960 . S
C428 H414 0.960 . S
C428 H415 0.960 . S
C428 C427 1.524 . S
C429 C426 1.403 . S
C429 C430 1.392 . S
C429 C433 1.495 . S
C430 C429 1.392 . S
C430 C431 1.385 . S
C430 C432 1.478 . S
C431 H425 0.930 . S
C431 C427 1.400 . S
C431 C430 1.385 . S
C432 C430 1.478 . S
C432 C434 1.381 . S
C432 C438 1.383 . S
C433 C429 1.495 . S
C433 H439 0.959 . S
C433 H440 0.961 . S
C433 H441 0.960 . S
C434 C432 1.381 . S
C434 C435 1.394 . S
C434 H442 0.930 . S
C435 C434 1.394 . S
C435 C436 1.383 . S
C435 H443 0.929 . S
C436 C435 1.383 . S
C436 C437 1.377 . S
C437 H421 0.930 . S
C437 C436 1.377 . S
C437 C438 1.379 . S
C438 H422 0.931 . S
C438 C432 1.383 . S
C438 C437 1.379 . S
H439 C433 0.959 . S
H440 C433 0.961 . S
H441 C433 0.960 . S
H442 C434 0.930 . S
H443 C435 0.929 . S
H444 C452 0.929 . S
H445 C454 0.930 . S
H446 C456 0.930 . S
H447 C459 0.929 . S
H448 C462 0.930 . S
H449 C464 0.960 . S
H450 C464 0.960 . S
H451 C464 0.960 . S
C452 H444 0.929 . S
C452 C453 1.377 . S
C452 C454 1.384 . S
C453 C452 1.377 . S
C453 C459 1.390 . S
C454 H445 0.930 . S
C454 C452 1.384 . S
C454 C455 1.372 . S
C455 C454 1.372 . S
C455 C456 1.400 . S
C455 C460 1.490 . S
C456 H446 0.930 . S
C456 C455 1.400 . S
C456 C459 1.386 . S
H457 C473 0.930 . S
H458 C474 0.931 . S
C459 H447 0.929 . S
C459 C453 1.390 . S
C459 C456 1.386 . S
C460 C455 1.490 . S
C460 C462 1.395 . S
C460 C463 1.403 . S
H461 C467 0.930 . S
C462 H448 0.930 . S
C462 C460 1.395 . S
C462 C465 1.403 . S
C463 C460 1.403 . S
C463 C464 1.524 . S
C463 C467 1.400 . S
C464 H449 0.960 . S
C464 H450 0.960 . S
C464 H451 0.960 . S
C464 C463 1.524 . S
C465 C462 1.403 . S
C465 C466 1.392 . S
C465 C469 1.495 . S
C466 C465 1.392 . S
C466 C467 1.385 . S
C466 C468 1.478 . S
C467 H461 0.930 . S
C467 C463 1.400 . S
C467 C466 1.385 . S
C468 C466 1.478 . S
C468 C470 1.381 . S
C468 C474 1.383 . S
C469 C465 1.495 . S
C469 H475 0.959 . S
C469 H476 0.961 . S
C469 H477 0.960 . S
C470 C468 1.381 . S
C470 C471 1.394 . S
C470 H478 0.930 . S
C471 C470 1.394 . S
C471 C472 1.383 . S
C471 H479 0.929 . S
C472 C471 1.383 . S
C472 C473 1.377 . S
C473 H457 0.930 . S
C473 C472 1.377 . S
C473 C474 1.379 . S
C474 H458 0.931 . S
C474 C468 1.383 . S
C474 C473 1.379 . S
H475 C469 0.959 . S
H476 C469 0.961 . S
H477 C469 0.960 . S
H478 C470 0.930 . S
H479 C471 0.929 . S
H480 C488 0.929 . S
H481 C490 0.930 . S
H482 C492 0.930 . S
H483 C495 0.929 . S
H484 C498 0.930 . S
H485 C500 0.960 . S
H486 C500 0.960 . S
H487 C500 0.960 . S
C488 H480 0.929 . S
C488 C489 1.377 . S
C488 C490 1.384 . S
C489 C488 1.377 . S
C489 C495 1.390 . S
C490 H481 0.930 . S
C490 C488 1.384 . S
C490 C491 1.372 . S
C491 C490 1.372 . S
C491 C492 1.400 . S
C491 C496 1.490 . S
C492 H482 0.930 . S
C492 C491 1.400 . S
C492 C495 1.386 . S
H493 C509 0.930 . S
H494 C510 0.931 . S
C495 H483 0.929 . S
C495 C489 1.390 . S
C495 C492 1.386 . S
C496 C491 1.490 . S
C496 C498 1.395 . S
C496 C499 1.403 . S
H497 C503 0.930 . S
C498 H484 0.930 . S
C498 C496 1.395 . S
C498 C501 1.403 . S
C499 C496 1.403 . S
C499 C500 1.524 . S
C499 C503 1.400 . S
C500 H485 0.960 . S
C500 H486 0.960 . S
C500 H487 0.960 . S
C500 C499 1.524 . S
C501 C498 1.403 . S
C501 C502 1.392 . S
C501 C505 1.495 . S
C502 C501 1.392 . S
C502 C503 1.385 . S
C502 C504 1.478 . S
C503 H497 0.930 . S
C503 C499 1.400 . S
C503 C502 1.385 . S
C504 C502 1.478 . S
C504 C506 1.381 . S
C504 C510 1.383 . S
C505 C501 1.495 . S
C505 H511 0.959 . S
C505 H512 0.961 . S
C505 H513 0.960 . S
C506 C504 1.381 . S
C506 C507 1.394 . S
C506 H514 0.930 . S
C507 C506 1.394 . S
C507 C508 1.383 . S
C507 H515 0.929 . S
C508 C507 1.383 . S
C508 C509 1.377 . S
C509 H493 0.930 . S
C509 C508 1.377 . S
C509 C510 1.379 . S
C510 H494 0.931 . S
C510 C504 1.383 . S
C510 C509 1.379 . S
H511 C505 0.959 . S
H512 C505 0.961 . S
H513 C505 0.960 . S
H514 C506 0.930 . S
H515 C507 0.929 . S
H516 C524 0.929 . S
H517 C526 0.930 . S
H518 C528 0.930 . S
H519 C531 0.929 . S
H520 C534 0.930 . S
H521 C536 0.960 . S
H522 C536 0.960 . S
H523 C536 0.960 . S
C524 H516 0.929 . S
C524 C525 1.377 . S
C524 C526 1.384 . S
C525 C524 1.377 . S
C525 C531 1.390 . S
C526 H517 0.930 . S
C526 C524 1.384 . S
C526 C527 1.372 . S
C527 C526 1.372 . S
C527 C528 1.400 . S
C527 C532 1.490 . S
C528 H518 0.930 . S
C528 C527 1.400 . S
C528 C531 1.386 . S
H529 C545 0.930 . S
H530 C546 0.931 . S
C531 H519 0.929 . S
C531 C525 1.390 . S
C531 C528 1.386 . S
C532 C527 1.490 . S
C532 C534 1.395 . S
C532 C535 1.403 . S
H533 C539 0.930 . S
C534 H520 0.930 . S
C534 C532 1.395 . S
C534 C537 1.403 . S
C535 C532 1.403 . S
C535 C536 1.524 . S
C535 C539 1.400 . S
C536 H521 0.960 . S
C536 H522 0.960 . S
C536 H523 0.960 . S
C536 C535 1.524 . S
C537 C534 1.403 . S
C537 C538 1.392 . S
C537 C541 1.495 . S
C538 C537 1.392 . S
C538 C539 1.385 . S
C538 C540 1.478 . S
C539 H533 0.930 . S
C539 C535 1.400 . S
C539 C538 1.385 . S
C540 C538 1.478 . S
C540 C542 1.381 . S
C540 C546 1.383 . S
C541 C537 1.495 . S
C541 H547 0.959 . S
C541 H548 0.961 . S
C541 H549 0.960 . S
C542 C540 1.381 . S
C542 C543 1.394 . S
C542 H550 0.930 . S
C543 C542 1.394 . S
C543 C544 1.383 . S
C543 H551 0.929 . S
C544 C543 1.383 . S
C544 C545 1.377 . S
C545 H529 0.930 . S
C545 C544 1.377 . S
C545 C546 1.379 . S
C546 H530 0.931 . S
C546 C540 1.383 . S
C546 C545 1.379 . S
H547 C541 0.959 . S
H548 C541 0.961 . S
H549 C541 0.960 . S
H550 C542 0.930 . S
H551 C543 0.929 . S
H552 C560 0.929 . S
H553 C562 0.930 . S
H554 C564 0.930 . S
H555 C567 0.929 . S
H556 C570 0.930 . S
H557 C572 0.960 . S
H558 C572 0.960 . S
H559 C572 0.960 . S
C560 H552 0.929 . S
C560 C561 1.377 . S
C560 C562 1.384 . S
C561 C560 1.377 . S
C561 C567 1.390 . S
C562 H553 0.930 . S
C562 C560 1.384 . S
C562 C563 1.372 . S
C563 C562 1.372 . S
C563 C564 1.400 . S
C563 C568 1.490 . S
C564 H554 0.930 . S
C564 C563 1.400 . S
C564 C567 1.386 . S
H565 C581 0.930 . S
H566 C582 0.931 . S
C567 H555 0.929 . S
C567 C561 1.390 . S
C567 C564 1.386 . S
C568 C563 1.490 . S
C568 C570 1.395 . S
C568 C571 1.403 . S
H569 C575 0.930 . S
C570 H556 0.930 . S
C570 C568 1.395 . S
C570 C573 1.403 . S
C571 C568 1.403 . S
C571 C572 1.524 . S
C571 C575 1.400 . S
C572 H557 0.960 . S
C572 H558 0.960 . S
C572 H559 0.960 . S
C572 C571 1.524 . S
C573 C570 1.403 . S
C573 C574 1.392 . S
C573 C577 1.495 . S
C574 C573 1.392 . S
C574 C575 1.385 . S
C574 C576 1.478 . S
C575 H569 0.930 . S
C575 C571 1.400 . S
C575 C574 1.385 . S
C576 C574 1.478 . S
C576 C578 1.381 . S
C576 C582 1.383 . S
C577 C573 1.495 . S
C577 H583 0.959 . S
C577 H584 0.961 . S
C577 H585 0.960 . S
C578 C576 1.381 . S
C578 C579 1.394 . S
C578 H586 0.930 . S
C579 C578 1.394 . S
C579 C580 1.383 . S
C579 H587 0.929 . S
C580 C579 1.383 . S
C580 C581 1.377 . S
C581 H565 0.930 . S
C581 C580 1.377 . S
C581 C582 1.379 . S
C582 H566 0.931 . S
C582 C576 1.383 . S
C582 C581 1.379 . S
H583 C577 0.959 . S
H584 C577 0.961 . S
H585 C577 0.960 . S
H586 C578 0.930 . S
H587 C579 0.929 . S
H588 C596 0.929 . S
H589 C598 0.930 . S
H590 C600 0.930 . S
H591 C603 0.929 . S
H592 C606 0.930 . S
H593 C608 0.960 . S
H594 C608 0.960 . S
H595 C608 0.960 . S
C596 H588 0.929 . S
C596 C597 1.377 . S
C596 C598 1.384 . S
C597 C596 1.377 . S
C597 C603 1.390 . S
C598 H589 0.930 . S
C598 C596 1.384 . S
C598 C599 1.372 . S
C599 C598 1.372 . S
C599 C600 1.400 . S
C599 C604 1.490 . S
C600 H590 0.930 . S
C600 C599 1.400 . S
C600 C603 1.386 . S
H601 C617 0.930 . S
H602 C618 0.931 . S
C603 H591 0.929 . S
C603 C597 1.390 . S
C603 C600 1.386 . S
C604 C599 1.490 . S
C604 C606 1.395 . S
C604 C607 1.403 . S
H605 C611 0.930 . S
C606 H592 0.930 . S
C606 C604 1.395 . S
C606 C609 1.403 . S
C607 C604 1.403 . S
C607 C608 1.524 . S
C607 C611 1.400 . S
C608 H593 0.960 . S
C608 H594 0.960 . S
C608 H595 0.960 . S
C608 C607 1.524 . S
C609 C606 1.403 . S
C609 C610 1.392 . S
C609 C613 1.495 . S
C610 C609 1.392 . S
C610 C611 1.385 . S
C610 C612 1.478 . S
C611 H605 0.930 . S
C611 C607 1.400 . S
C611 C610 1.385 . S
C612 C610 1.478 . S
C612 C614 1.381 . S
C612 C618 1.383 . S
C613 C609 1.495 . S
C613 H619 0.959 . S
C613 H620 0.961 . S
C613 H621 0.960 . S
C614 C612 1.381 . S
C614 C615 1.394 . S
C614 H622 0.930 . S
C615 C614 1.394 . S
C615 C616 1.383 . S
C615 H623 0.929 . S
C616 C615 1.383 . S
C616 C617 1.377 . S
C617 H601 0.930 . S
C617 C616 1.377 . S
C617 C618 1.379 . S
C618 H602 0.931 . S
C618 C612 1.383 . S
C618 C617 1.379 . S
H619 C613 0.959 . S
H620 C613 0.961 . S
H621 C613 0.960 . S
H622 C614 0.930 . S
H623 C615 0.929 . S
H624 C632 0.929 . S
H625 C634 0.930 . S
H626 C636 0.930 . S
H627 C639 0.929 . S
H628 C642 0.930 . S
H629 C644 0.960 . S
H630 C644 0.960 . S
H631 C644 0.960 . S
C632 H624 0.929 . S
C632 C633 1.377 . S
C632 C634 1.384 . S
C633 C632 1.377 . S
C633 C639 1.390 1_565 S
C634 H625 0.930 . S
C634 C632 1.384 . S
C634 C635 1.372 . S
C635 C634 1.372 . S
C635 C636 1.400 1_565 S
C635 C640 1.490 . S
C636 H626 0.930 . S
C636 C635 1.400 1_545 S
C636 C639 1.386 . S
H637 C653 0.930 . S
H638 C654 0.931 . S
C639 H627 0.929 . S
C639 C633 1.390 1_545 S
C639 C636 1.386 . S
C640 C635 1.490 . S
C640 C642 1.395 . S
C640 C643 1.403 1_565 S
H641 C647 0.930 . S
C642 H628 0.930 . S
C642 C640 1.395 . S
C642 C645 1.403 . S
C643 C640 1.403 1_545 S
C643 C644 1.524 . S
C643 C647 1.400 . S
C644 H629 0.960 . S
C644 H630 0.960 . S
C644 H631 0.960 . S
C644 C643 1.524 . S
C645 C642 1.403 . S
C645 C646 1.392 . S
C645 C649 1.495 . S
C646 C645 1.392 . S
C646 C647 1.385 1_565 S
C646 C648 1.478 . S
C647 H641 0.930 . S
C647 C643 1.400 . S
C647 C646 1.385 1_545 S
C648 C646 1.478 . S
C648 C650 1.381 . S
C648 C654 1.383 1_565 S
C649 C645 1.495 . S
C649 H655 0.959 . S
C649 H656 0.961 . S
C649 H657 0.960 . S
C650 C648 1.381 . S
C650 C651 1.396 . S
C650 H658 0.930 . S
C651 C650 1.396 . S
C651 C652 1.379 1_565 S
C651 H659 0.931 . S
C652 C651 1.379 1_545 S
C652 C653 1.377 . S
C653 H637 0.930 . S
C653 C652 1.377 . S
C653 C654 1.379 . S
C654 H638 0.931 . S
C654 C648 1.383 1_545 S
C654 C653 1.379 . S
H655 C649 0.959 . S
H656 C649 0.961 . S
H657 C649 0.960 . S
H658 C650 0.930 . S
H659 C651 0.931 . S
H660 C668 0.929 . S
H661 C670 0.930 . S
H662 C672 0.930 . S
H663 C675 0.929 . S
H664 C678 0.930 . S
H665 C680 0.960 . S
H666 C680 0.960 . S
H667 C680 0.960 . S
C668 H660 0.929 . S
C668 C669 1.377 1_565 S
C668 C670 1.384 . S
C669 C668 1.377 1_545 S
C669 C675 1.390 . S
C670 H661 0.930 . S
C670 C668 1.384 . S
C670 C671 1.372 1_565 S
C671 C670 1.372 1_545 S
C671 C672 1.400 . S
C671 C676 1.491 . S
C672 H662 0.930 . S
C672 C671 1.400 . S
C672 C675 1.386 . S
H673 C689 0.930 . S
H674 C690 0.931 . S
C675 H663 0.929 . S
C675 C669 1.390 . S
C675 C672 1.386 . S
C676 C671 1.491 . S
C676 C678 1.384 1_545 S
C676 C679 1.412 . S
H677 C683 0.930 . S
C678 H664 0.930 . S
C678 C676 1.384 1_565 S
C678 C681 1.403 . S
C679 C676 1.412 . S
C679 C680 1.524 . S
C679 C683 1.400 . S
C680 H665 0.960 . S
C680 H666 0.960 . S
C680 H667 0.960 . S
C680 C679 1.524 . S
C681 C678 1.403 . S
C681 C682 1.392 . S
C681 C685 1.495 . S
C682 C681 1.392 . S
C682 C683 1.385 1_565 S
C682 C684 1.478 . S
C683 H677 0.930 . S
C683 C679 1.400 . S
C683 C682 1.385 1_545 S
C684 C682 1.478 . S
C684 C686 1.381 . S
C684 C690 1.383 1_565 S
C685 C681 1.495 . S
C685 H691 0.959 . S
C685 H692 0.961 . S
C685 H693 0.960 . S
C686 C684 1.381 . S
C686 C687 1.394 . S
C686 H694 0.930 . S
C687 C686 1.394 . S
C687 C688 1.383 . S
C687 H695 0.929 . S
C688 C687 1.383 . S
C688 C689 1.377 1_565 S
C689 H673 0.930 . S
C689 C688 1.377 1_545 S
C689 C690 1.379 . S
C690 H674 0.931 . S
C690 C684 1.383 1_545 S
C690 C689 1.379 . S
H691 C685 0.959 . S
H692 C685 0.961 . S
H693 C685 0.960 . S
H694 C686 0.930 . S
H695 C687 0.929 . S
H696 C704 0.929 . S
H697 C706 0.930 . S
H698 C708 0.930 . S
H699 C711 0.929 . S
H700 C714 0.930 . S
H701 C716 0.960 . S
H702 C716 0.960 . S
H703 C716 0.960 1_565 S
C704 H696 0.929 . S
C704 C705 1.377 . S
C704 C706 1.384 . S
C705 C704 1.377 . S
C705 C711 1.390 1_545 S
C706 H697 0.930 . S
C706 C704 1.384 . S
C706 C707 1.372 . S
C707 C706 1.372 . S
C707 C708 1.400 1_545 S
C707 C712 1.490 . S
C708 H698 0.930 . S
C708 C707 1.400 1_565 S
C708 C711 1.386 . S
H709 C725 0.930 . S
H710 C726 0.931 . S
C711 H699 0.929 . S
C711 C705 1.390 1_565 S
C711 C708 1.386 . S
C712 C707 1.490 . S
C712 C714 1.395 . S
C712 C715 1.403 . S
H713 C719 0.930 1_565 S
C714 H700 0.930 . S
C714 C712 1.395 . S
C714 C717 1.403 1_545 S
C715 C712 1.403 . S
C715 C716 1.524 . S
C715 C719 1.400 . S
C716 H701 0.960 . S
C716 H702 0.960 . S
C716 H703 0.960 1_545 S
C716 C715 1.524 . S
C717 C714 1.403 1_565 S
C717 C718 1.392 . S
C717 C721 1.495 . S
C718 C717 1.392 . S
C718 C719 1.385 1_565 S
C718 C720 1.478 . S
C719 H713 0.930 1_545 S
C719 C715 1.400 . S
C719 C718 1.385 1_545 S
C720 C718 1.478 . S
C720 C722 1.381 1_565 S
C720 C726 1.383 . S
C721 C717 1.495 . S
C721 H727 0.959 . S
C721 H728 0.961 . S
C721 H729 0.960 1_565 S
C722 C720 1.381 1_545 S
C722 C723 1.394 . S
C722 H730 0.930 . S
C723 C722 1.394 . S
C723 C724 1.383 1_545 S
C723 H731 0.929 . S
C724 C723 1.383 1_565 S
C724 C725 1.377 . S
C725 H709 0.930 . S
C725 C724 1.377 . S
C725 C726 1.379 . S
C726 H710 0.931 . S
C726 C720 1.383 . S
C726 C725 1.379 . S
H727 C721 0.959 . S
H728 C721 0.961 . S
H729 C721 0.960 1_545 S
H730 C722 0.930 . S
H731 C723 0.929 . S
H732 C740 0.929 . S
H733 C742 0.930 . S
H734 C744 0.934 . S
H735 C747 0.929 1_565 S
H736 C750 0.930 . S
H737 C752 0.960 . S
H738 C752 0.960 . S
H739 C752 0.960 . S
C740 H732 0.929 . S
C740 C741 1.377 . S
C740 C742 1.384 . S
C741 C740 1.377 . S
C741 C747 1.390 . S
C742 H733 0.930 . S
C742 C740 1.384 . S
C742 C743 1.372 . S
C743 C742 1.372 . S
C743 C744 1.397 1_545 S
C743 C748 1.490 . S
C744 H734 0.934 . S
C744 C743 1.397 1_565 S
C744 C747 1.385 1_565 S
H745 C761 0.930 . S
H746 C762 0.931 . S
C747 H735 0.929 1_545 S
C747 C741 1.390 . S
C747 C744 1.385 1_545 S
C748 C743 1.490 . S
C748 C750 1.395 1_545 S
C748 C751 1.403 . S
H749 C755 0.930 . S
C750 H736 0.930 . S
C750 C748 1.395 1_565 S
C750 C753 1.403 . S
C751 C748 1.403 . S
C751 C752 1.524 . S
C751 C755 1.400 . S
C752 H737 0.960 . S
C752 H738 0.960 . S
C752 H739 0.960 . S
C752 C751 1.524 . S
C753 C750 1.403 . S
C753 C754 1.392 . S
C753 C757 1.495 . S
C754 C753 1.392 . S
C754 C755 1.385 1_565 S
C754 C756 1.478 . S
C755 H749 0.930 . S
C755 C751 1.400 . S
C755 C754 1.385 1_545 S
C756 C754 1.478 . S
C756 C758 1.377 1_565 S
C756 C762 1.383 . S
C757 C753 1.495 . S
C757 H763 0.959 . S
C757 H764 0.961 . S
C757 H765 0.960 . S
C758 C756 1.377 1_545 S
C758 C759 1.394 1_545 S
C758 H766 0.935 . S
C759 C758 1.394 1_565 S
C759 C760 1.383 . S
C759 H767 0.929 1_565 S
C760 C759 1.383 . S
C760 C761 1.377 . S
C761 H745 0.930 . S
C761 C760 1.377 . S
C761 C762 1.379 . S
C762 H746 0.931 . S
C762 C756 1.383 . S
C762 C761 1.379 . S
H763 C757 0.959 . S
H764 C757 0.961 . S
H765 C757 0.960 . S
H766 C758 0.935 . S
H767 C759 0.929 1_545 S
H768 C776 0.929 . S
H769 C778 0.930 . S
H770 C780 0.930 . S
H771 C783 0.929 . S
H772 C786 0.930 . S
H773 C788 0.960 . S
H774 C788 0.960 . S
H775 C788 0.960 . S
C776 H768 0.929 . S
C776 C777 1.377 . S
C776 C778 1.384 . S
C777 C776 1.377 . S
C777 C783 1.390 . S
C778 H769 0.930 . S
C778 C776 1.384 . S
C778 C779 1.372 . S
C779 C778 1.372 . S
C779 C780 1.400 . S
C779 C784 1.490 . S
C780 H770 0.930 . S
C780 C779 1.400 . S
C780 C783 1.386 . S
H781 C797 0.930 . S
H782 C798 0.931 . S
C783 H771 0.929 . S
C783 C777 1.390 . S
C783 C780 1.386 . S
C784 C779 1.490 . S
C784 C786 1.395 . S
C784 C787 1.403 . S
H785 C791 0.930 . S
C786 H772 0.930 . S
C786 C784 1.395 . S
C786 C789 1.403 . S
C787 C784 1.403 . S
C787 C788 1.524 . S
C787 C791 1.400 . S
C788 H773 0.960 . S
C788 H774 0.960 . S
C788 H775 0.960 . S
C788 C787 1.524 . S
C789 C786 1.403 . S
C789 C790 1.392 . S
C789 C793 1.495 . S
C790 C789 1.392 . S
C790 C791 1.385 . S
C790 C792 1.478 . S
C791 H785 0.930 . S
C791 C787 1.400 . S
C791 C790 1.385 . S
C792 C790 1.478 . S
C792 C794 1.381 . S
C792 C798 1.383 . S
C793 C789 1.495 . S
C793 H799 0.959 . S
C793 H800 0.961 . S
C793 H801 0.960 . S
C794 C792 1.381 . S
C794 C795 1.394 . S
C794 H802 0.930 . S
C795 C794 1.394 . S
C795 C796 1.383 . S
C795 H803 0.929 . S
C796 C795 1.383 . S
C796 C797 1.377 . S
C797 H781 0.930 . S
C797 C796 1.377 . S
C797 C798 1.379 . S
C798 H782 0.931 . S
C798 C792 1.383 . S
C798 C797 1.379 . S
H799 C793 0.959 . S
H800 C793 0.961 . S
H801 C793 0.960 . S
H802 C794 0.930 . S
H803 C795 0.929 . S
H804 C812 0.929 . S
H805 C814 0.930 . S
H806 C816 0.930 . S
H807 C819 0.929 . S
H808 C822 0.930 . S
H809 C824 0.960 . S
H810 C824 0.960 . S
H811 C824 0.960 . S
C812 H804 0.929 . S
C812 C813 1.377 . S
C812 C814 1.384 . S
C813 C812 1.377 . S
C813 C819 1.390 . S
C814 H805 0.930 . S
C814 C812 1.384 . S
C814 C815 1.372 . S
C815 C814 1.372 . S
C815 C816 1.400 . S
C815 C820 1.490 . S
C816 H806 0.930 . S
C816 C815 1.400 . S
C816 C819 1.386 . S
H817 C833 0.930 . S
H818 C834 0.931 . S
C819 H807 0.929 . S
C819 C813 1.390 . S
C819 C816 1.386 . S
C820 C815 1.490 . S
C820 C822 1.395 . S
C820 C823 1.403 . S
H821 C827 0.930 . S
C822 H808 0.930 . S
C822 C820 1.395 . S
C822 C825 1.403 . S
C823 C820 1.403 . S
C823 C824 1.524 . S
C823 C827 1.400 . S
C824 H809 0.960 . S
C824 H810 0.960 . S
C824 H811 0.960 . S
C824 C823 1.524 . S
C825 C822 1.403 . S
C825 C826 1.392 . S
C825 C829 1.495 . S
C826 C825 1.392 . S
C826 C827 1.385 . S
C826 C828 1.478 . S
C827 H821 0.930 . S
C827 C823 1.400 . S
C827 C826 1.385 . S
C828 C826 1.478 . S
C828 C830 1.381 . S
C828 C834 1.383 . S
C829 C825 1.495 . S
C829 H835 0.959 . S
C829 H836 0.961 . S
C829 H837 0.960 . S
C830 C828 1.381 . S
C830 C831 1.394 . S
C830 H838 0.930 . S
C831 C830 1.394 . S
C831 C832 1.383 . S
C831 H839 0.929 . S
C832 C831 1.383 . S
C832 C833 1.377 . S
C833 H817 0.930 . S
C833 C832 1.377 . S
C833 C834 1.379 . S
C834 H818 0.931 . S
C834 C828 1.383 . S
C834 C833 1.379 . S
H835 C829 0.959 . S
H836 C829 0.961 . S
H837 C829 0.960 . S
H838 C830 0.930 . S
H839 C831 0.929 . S
H840 C848 0.929 . S
H841 C850 0.930 . S
H842 C852 0.930 . S
H843 C855 0.929 . S
H844 C858 0.930 . S
H845 C860 0.960 . S
H846 C860 0.960 . S
H847 C860 0.960 . S
C848 H840 0.929 . S
C848 C849 1.377 . S
C848 C850 1.384 . S
C849 C848 1.377 . S
C849 C855 1.390 . S
C850 H841 0.930 . S
C850 C848 1.384 . S
C850 C851 1.372 . S
C851 C850 1.372 . S
C851 C852 1.400 . S
C851 C856 1.490 . S
C852 H842 0.930 . S
C852 C851 1.400 . S
C852 C855 1.386 . S
H853 C869 0.930 . S
H854 C870 0.931 . S
C855 H843 0.929 . S
C855 C849 1.390 . S
C855 C852 1.386 . S
C856 C851 1.490 . S
C856 C858 1.395 . S
C856 C859 1.403 . S
H857 C863 0.930 . S
C858 H844 0.930 . S
C858 C856 1.395 . S
C858 C861 1.403 . S
C859 C856 1.403 . S
C859 C860 1.524 . S
C859 C863 1.400 . S
C860 H845 0.960 . S
C860 H846 0.960 . S
C860 H847 0.960 . S
C860 C859 1.524 . S
C861 C858 1.403 . S
C861 C862 1.392 . S
C861 C865 1.495 . S
C862 C861 1.392 . S
C862 C863 1.385 . S
C862 C864 1.478 . S
C863 H857 0.930 . S
C863 C859 1.400 . S
C863 C862 1.385 . S
C864 C862 1.478 . S
C864 C866 1.381 . S
C864 C870 1.383 . S
C865 C861 1.495 . S
C865 H871 0.959 . S
C865 H872 0.961 . S
C865 H873 0.960 . S
C866 C864 1.381 . S
C866 C867 1.394 . S
C866 H874 0.930 . S
C867 C866 1.394 . S
C867 C868 1.383 . S
C867 H875 0.929 . S
C868 C867 1.383 . S
C868 C869 1.377 . S
C869 H853 0.930 . S
C869 C868 1.377 . S
C869 C870 1.379 . S
C870 H854 0.931 . S
C870 C864 1.383 . S
C870 C869 1.379 . S
H871 C865 0.959 . S
H872 C865 0.961 . S
H873 C865 0.960 . S
H874 C866 0.930 . S
H875 C867 0.929 . S
H876 C884 0.929 . S
H877 C886 0.930 . S
H878 C888 0.930 . S
H879 C891 0.929 . S
H880 C894 0.930 . S
H881 C896 0.960 . S
H882 C896 0.960 . S
H883 C896 0.960 . S
C884 H876 0.929 . S
C884 C885 1.377 . S
C884 C886 1.384 . S
C885 C884 1.377 . S
C885 C891 1.390 . S
C886 H877 0.930 . S
C886 C884 1.384 . S
C886 C887 1.372 . S
C887 C886 1.372 . S
C887 C888 1.400 . S
C887 C892 1.490 . S
C888 H878 0.930 . S
C888 C887 1.400 . S
C888 C891 1.386 . S
H889 C905 0.930 . S
H890 C906 0.931 . S
C891 H879 0.929 . S
C891 C885 1.390 . S
C891 C888 1.386 . S
C892 C887 1.490 . S
C892 C894 1.395 . S
C892 C895 1.403 . S
H893 C899 0.930 . S
C894 H880 0.930 . S
C894 C892 1.395 . S
C894 C897 1.403 . S
C895 C892 1.403 . S
C895 C896 1.524 . S
C895 C899 1.400 . S
C896 H881 0.960 . S
C896 H882 0.960 . S
C896 H883 0.960 . S
C896 C895 1.524 . S
C897 C894 1.403 . S
C897 C898 1.392 . S
C897 C901 1.495 . S
C898 C897 1.392 . S
C898 C899 1.385 . S
C898 C900 1.478 . S
C899 H893 0.930 . S
C899 C895 1.400 . S
C899 C898 1.385 . S
C900 C898 1.478 . S
C900 C902 1.381 . S
C900 C906 1.383 . S
C901 C897 1.495 . S
C901 H907 0.959 . S
C901 H908 0.961 . S
C901 H909 0.960 . S
C902 C900 1.381 . S
C902 C903 1.394 . S
C902 H910 0.930 . S
C903 C902 1.394 . S
C903 C904 1.383 . S
C903 H911 0.929 . S
C904 C903 1.383 . S
C904 C905 1.377 . S
C905 H889 0.930 . S
C905 C904 1.377 . S
C905 C906 1.379 . S
C906 H890 0.931 . S
C906 C900 1.383 . S
C906 C905 1.379 . S
H907 C901 0.959 . S
H908 C901 0.961 . S
H909 C901 0.960 . S
H910 C902 0.930 . S
H911 C903 0.929 . S
H912 C920 0.929 . S
H913 C922 0.930 . S
H914 C924 0.930 1_565 S
H915 C927 0.929 1_565 S
H916 C930 0.930 . S
H917 C932 0.960 . S
H918 C932 0.960 . S
H919 C932 0.960 . S
C920 H912 0.929 . S
C920 C921 1.377 . S
C920 C922 1.384 . S
C921 C920 1.377 . S
C921 C927 1.390 . S
C922 H913 0.930 . S
C922 C920 1.384 . S
C922 C923 1.372 . S
C923 C922 1.372 . S
C923 C924 1.400 . S
C923 C928 1.490 . S
C924 H914 0.930 1_545 S
C924 C923 1.400 . S
C924 C927 1.386 . S
H925 C941 0.930 . S
H926 C942 0.931 . S
C927 H915 0.929 1_545 S
C927 C921 1.390 . S
C927 C924 1.386 . S
C928 C923 1.490 . S
C928 C930 1.395 . S
C928 C931 1.403 . S
H929 C935 0.930 . S
C930 H916 0.930 . S
C930 C928 1.395 . S
C930 C933 1.403 1_556 S
C931 C928 1.403 . S
C931 C932 1.524 . S
C931 C935 1.400 1_556 S
C932 H917 0.960 . S
C932 H918 0.960 . S
C932 H919 0.960 . S
C932 C931 1.524 . S
C933 C930 1.403 1_554 S
C933 C934 1.392 . S
C933 C937 1.495 . S
C934 C933 1.392 . S
C934 C935 1.385 . S
C934 C936 1.478 . S
C935 H929 0.930 . S
C935 C931 1.400 1_554 S
C935 C934 1.385 . S
C936 C934 1.478 . S
C936 C938 1.381 . S
C936 C942 1.383 1_545 S
C937 C933 1.495 . S
C937 H943 0.959 1_545 S
C937 H944 0.961 1_545 S
C937 H945 0.960 . S
C938 C936 1.381 . S
C938 C939 1.394 . S
C938 H946 0.930 . S
C939 C938 1.394 . S
C939 C940 1.383 . S
C939 H947 0.929 . S
C940 C939 1.383 . S
C940 C941 1.377 1_545 S
C941 H925 0.930 . S
C941 C940 1.377 1_565 S
C941 C942 1.379 . S
C942 H926 0.931 . S
C942 C936 1.383 1_565 S
C942 C941 1.379 . S
H943 C937 0.959 1_565 S
H944 C937 0.961 1_565 S
H945 C937 0.960 . S
H946 C938 0.930 . S
H947 C939 0.929 . S
H948 C956 0.929 . S
H949 C958 0.930 . S
H950 C960 0.930 . S
H951 C963 0.929 . S
H952 C966 0.930 . S
H953 C968 0.960 . S
H954 C968 0.960 . S
H955 C968 0.960 . S
C956 H948 0.929 . S
C956 C957 1.377 . S
C956 C958 1.384 . S
C957 C956 1.377 . S
C957 C963 1.390 . S
C958 H949 0.930 . S
C958 C956 1.384 . S
C958 C959 1.372 . S
C959 C958 1.372 . S
C959 C960 1.400 . S
C959 C964 1.490 . S
C960 H950 0.930 . S
C960 C959 1.400 . S
C960 C963 1.386 . S
H961 C977 0.930 . S
H962 C978 0.931 . S
C963 H951 0.929 . S
C963 C957 1.390 . S
C963 C960 1.386 . S
C964 C959 1.490 . S
C964 C966 1.395 . S
C964 C967 1.403 1_565 S
H965 C971 0.930 1_545 S
C966 H952 0.930 . S
C966 C964 1.395 . S
C966 C969 1.403 1_556 S
C967 C964 1.403 1_545 S
C967 C968 1.524 . S
C967 C971 1.400 1_546 S
C968 H953 0.960 . S
C968 H954 0.960 . S
C968 H955 0.960 . S
C968 C967 1.524 . S
C969 C966 1.403 1_554 S
C969 C970 1.392 . S
C969 C973 1.495 . S
C970 C969 1.392 . S
C970 C971 1.385 . S
C970 C972 1.478 . S
C971 H965 0.930 1_565 S
C971 C967 1.400 1_564 S
C971 C970 1.385 . S
C972 C970 1.478 . S
C972 C974 1.381 . S
C972 C978 1.383 . S
C973 C969 1.495 . S
C973 H979 0.959 . S
C973 H980 0.961 . S
C973 H981 0.960 . S
C974 C972 1.381 . S
C974 C975 1.394 . S
C974 H982 0.930 . S
C975 C974 1.394 . S
C975 C976 1.383 . S
C975 H983 0.929 . S
C976 C975 1.383 . S
C976 C977 1.377 . S
C977 H961 0.930 . S
C977 C976 1.377 . S
C977 C978 1.379 . S
C978 H962 0.931 . S
C978 C972 1.383 . S
C978 C977 1.379 . S
H979 C973 0.959 . S
H980 C973 0.961 . S
H981 C973 0.960 . S
H982 C974 0.930 . S
H983 C975 0.929 . S
H984 C992 0.929 . S
H985 C994 0.930 . S
H986 C996 0.930 . S
H987 C999 0.929 . S
H988 C1002 0.930 . S
H989 C1004 0.960 . S
H990 C1004 0.960 1_565 S
H991 C1004 0.960 . S
C992 H984 0.929 . S
C992 C993 1.377 . S
C992 C994 1.384 . S
C993 C992 1.377 . S
C993 C999 1.390 1_565 S
C994 H985 0.930 . S
C994 C992 1.384 . S
C994 C995 1.372 . S
C995 C994 1.372 . S
C995 C996 1.400 1_565 S
C995 C1000 1.490 . S
C996 H986 0.930 . S
C996 C995 1.400 1_545 S
C996 C999 1.386 . S
H997 C1013 0.930 . S
H998 C1014 0.931 . S
C999 H987 0.929 . S
C999 C993 1.390 1_545 S
C999 C996 1.386 . S
C1000 C995 1.490 . S
C1000 C1002 1.395 . S
C1000 C1003 1.403 . S
H1001 C1007 0.938 . S
C1002 H988 0.930 . S
C1002 C1000 1.395 . S
C1002 C1005 1.403 . S
C1003 C1000 1.403 . S
C1003 C1004 1.524 1_565 S
C1003 C1007 1.400 . S
C1004 H989 0.960 . S
C1004 H990 0.960 1_545 S
C1004 H991 0.960 . S
C1004 C1003 1.524 1_545 S
C1005 C1002 1.403 . S
C1005 C1006 1.392 . S
C1005 C1009 1.495 . S
C1006 C1005 1.392 . S
C1006 C1007 1.385 . S
C1006 C1008 1.478 . S
C1007 H1001 0.938 . S
C1007 C1003 1.400 . S
C1007 C1006 1.385 . S
C1008 C1006 1.478 . S
C1008 C1010 1.381 . S
C1008 C1014 1.383 1_565 S
C1009 C1005 1.495 . S
C1009 H1015 0.959 . S
C1009 H1016 0.961 . S
C1009 H1017 0.960 . S
C1010 C1008 1.381 . S
C1010 C1011 1.394 . S
C1010 H1018 0.930 . S
C1011 C1010 1.394 . S
C1011 C1012 1.383 . S
C1011 H1019 0.929 . S
C1012 C1011 1.383 . S
C1012 C1013 1.377 1_565 S
C1013 H997 0.930 . S
C1013 C1012 1.377 1_545 S
C1013 C1014 1.379 . S
C1014 H998 0.931 . S
C1014 C1008 1.383 1_545 S
C1014 C1013 1.379 . S
H1015 C1009 0.959 . S
H1016 C1009 0.961 . S
H1017 C1009 0.960 . S
H1018 C1010 0.930 . S
H1019 C1011 0.929 . S
H1020 C1028 0.929 1_565 S
H1021 C1030 0.930 1_565 S
H1022 C1032 0.930 . S
H1023 C1035 0.929 . S
H1024 C1038 0.930 . S
H1025 C1040 0.960 . S
H1026 C1040 0.960 . S
H1027 C1040 0.960 1_545 S
C1028 H1020 0.929 1_545 S
C1028 C1029 1.377 . S
C1028 C1030 1.384 . S
C1029 C1028 1.377 . S
C1029 C1035 1.390 . S
C1030 H1021 0.930 1_545 S
C1030 C1028 1.384 . S
C1030 C1031 1.372 . S
C1031 C1030 1.372 . S
C1031 C1032 1.400 . S
C1031 C1036 1.490 . S
C1032 H1022 0.930 . S
C1032 C1031 1.400 . S
C1032 C1035 1.386 . S
H1033 C1049 0.930 . S
H1034 C1050 0.931 . S
C1035 H1023 0.929 . S
C1035 C1029 1.390 . S
C1035 C1032 1.386 . S
C1036 C1031 1.490 . S
C1036 C1038 1.395 . S
C1036 C1039 1.403 . S
H1037 C1043 0.930 . S
C1038 H1024 0.930 . S
C1038 C1036 1.395 . S
C1038 C1041 1.403 . S
C1039 C1036 1.403 . S
C1039 C1040 1.524 1_545 S
C1039 C1043 1.400 . S
C1040 H1025 0.960 . S
C1040 H1026 0.960 . S
C1040 H1027 0.960 1_565 S
C1040 C1039 1.524 1_565 S
C1041 C1038 1.403 . S
C1041 C1042 1.392 . S
C1041 C1045 1.495 . S
C1042 C1041 1.392 . S
C1042 C1043 1.385 . S
C1042 C1044 1.478 . S
C1043 H1037 0.930 . S
C1043 C1039 1.400 . S
C1043 C1042 1.385 . S
C1044 C1042 1.478 . S
C1044 C1046 1.381 . S
C1044 C1050 1.383 . S
C1045 C1041 1.495 . S
C1045 H1051 0.959 . S
C1045 H1052 0.961 . S
C1045 H1053 0.960 . S
C1046 C1044 1.381 . S
C1046 C1047 1.394 . S
C1046 H1054 0.930 1_545 S
C1047 C1046 1.394 . S
C1047 C1048 1.383 . S
C1047 H1055 0.929 1_545 S
C1048 C1047 1.383 . S
C1048 C1049 1.377 . S
C1049 H1033 0.930 . S
C1049 C1048 1.377 . S
C1049 C1050 1.379 . S
C1050 H1034 0.931 . S
C1050 C1044 1.383 . S
C1050 C1049 1.379 . S
H1051 C1045 0.959 . S
H1052 C1045 0.961 . S
H1053 C1045 0.960 . S
H1054 C1046 0.930 1_565 S
H1055 C1047 0.929 1_565 S
H1056 C1064 0.929 . S
H1057 C1066 0.930 . S
H1058 C1068 0.930 . S
H1059 C1071 0.929 . S
H1060 C1074 0.930 . S
H1061 C1076 0.960 . S
H1062 C1076 0.960 . S
H1063 C1076 0.960 . S
C1064 H1056 0.929 . S
C1064 C1065 1.377 . S
C1064 C1066 1.384 . S
C1065 C1064 1.377 . S
C1065 C1071 1.390 . S
C1066 H1057 0.930 . S
C1066 C1064 1.384 . S
C1066 C1067 1.372 . S
C1067 C1066 1.372 . S
C1067 C1068 1.400 . S
C1067 C1072 1.490 . S
C1068 H1058 0.930 . S
C1068 C1067 1.400 . S
C1068 C1071 1.386 . S
H1069 C1085 0.930 . S
H1070 C1086 0.931 . S
C1071 H1059 0.929 . S
C1071 C1065 1.390 . S
C1071 C1068 1.386 . S
C1072 C1067 1.490 . S
C1072 C1074 1.395 . S
C1072 C1075 1.403 . S
H1073 C1079 0.930 . S
C1074 H1060 0.930 . S
C1074 C1072 1.395 . S
C1074 C1077 1.403 1_554 S
C1075 C1072 1.403 . S
C1075 C1076 1.524 . S
C1075 C1079 1.400 1_554 S
C1076 H1061 0.960 . S
C1076 H1062 0.960 . S
C1076 H1063 0.960 . S
C1076 C1075 1.524 . S
C1077 C1074 1.403 1_556 S
C1077 C1078 1.392 . S
C1077 C1081 1.495 . S
C1078 C1077 1.392 . S
C1078 C1079 1.385 . S
C1078 C1080 1.478 . S
C1079 H1073 0.930 . S
C1079 C1075 1.400 1_556 S
C1079 C1078 1.385 . S
C1080 C1078 1.478 . S
C1080 C1082 1.381 . S
C1080 C1086 1.383 . S
C1081 C1077 1.495 . S
C1081 H1087 0.959 . S
C1081 H1088 0.961 . S
C1081 H1089 0.960 . S
C1082 C1080 1.381 . S
C1082 C1083 1.394 . S
C1082 H1090 0.930 . S
C1083 C1082 1.394 . S
C1083 C1084 1.383 . S
C1083 H1091 0.929 . S
C1084 C1083 1.383 . S
C1084 C1085 1.377 . S
C1085 H1069 0.930 . S
C1085 C1084 1.377 . S
C1085 C1086 1.379 . S
C1086 H1070 0.931 . S
C1086 C1080 1.383 . S
C1086 C1085 1.379 . S
H1087 C1081 0.959 . S
H1088 C1081 0.961 . S
H1089 C1081 0.960 . S
H1090 C1082 0.930 . S
H1091 C1083 0.929 . S
H1092 C1100 0.929 . S
H1093 C1102 0.930 . S
H1094 C1104 0.930 . S
H1095 C1107 0.929 . S
H1096 C1110 0.930 . S
H1097 C1112 0.960 . S
H1098 C1112 0.960 . S
H1099 C1112 0.960 . S
C1100 H1092 0.929 . S
C1100 C1101 1.377 . S
C1100 C1102 1.384 . S
C1101 C1100 1.377 . S
C1101 C1107 1.390 . S
C1102 H1093 0.930 . S
C1102 C1100 1.384 . S
C1102 C1103 1.372 . S
C1103 C1102 1.372 . S
C1103 C1104 1.400 . S
C1103 C1108 1.490 . S
C1104 H1094 0.930 . S
C1104 C1103 1.400 . S
C1104 C1107 1.386 . S
H1105 C1121 0.930 . S
H1106 C1122 0.931 . S
C1107 H1095 0.929 . S
C1107 C1101 1.390 . S
C1107 C1104 1.386 . S
C1108 C1103 1.490 . S
C1108 C1110 1.395 . S
C1108 C1111 1.403 . S
H1109 C1115 0.930 . S
C1110 H1096 0.930 . S
C1110 C1108 1.395 . S
C1110 C1113 1.403 1_556 S
C1111 C1108 1.403 . S
C1111 C1112 1.524 . S
C1111 C1115 1.400 1_556 S
C1112 H1097 0.960 . S
C1112 H1098 0.960 . S
C1112 H1099 0.960 . S
C1112 C1111 1.524 . S
C1113 C1110 1.403 1_554 S
C1113 C1114 1.392 . S
C1113 C1117 1.495 . S
C1114 C1113 1.392 . S
C1114 C1115 1.385 . S
C1114 C1116 1.478 . S
C1115 H1109 0.930 . S
C1115 C1111 1.400 1_554 S
C1115 C1114 1.385 . S
C1116 C1114 1.478 . S
C1116 C1118 1.381 . S
C1116 C1122 1.383 . S
C1117 C1113 1.495 . S
C1117 H1123 0.959 . S
C1117 H1124 0.961 . S
C1117 H1125 0.960 . S
C1118 C1116 1.381 . S
C1118 C1119 1.394 . S
C1118 H1126 0.930 . S
C1119 C1118 1.394 . S
C1119 C1120 1.383 . S
C1119 H1127 0.929 . S
C1120 C1119 1.383 . S
C1120 C1121 1.377 . S
C1121 H1105 0.930 . S
C1121 C1120 1.377 . S
C1121 C1122 1.379 . S
C1122 H1106 0.931 . S
C1122 C1116 1.383 . S
C1122 C1121 1.379 . S
H1123 C1117 0.959 . S
H1124 C1117 0.961 . S
H1125 C1117 0.960 . S
H1126 C1118 0.930 . S
H1127 C1119 0.929 . S
H1128 C1136 0.929 . S
H1129 C1138 0.930 . S
H1130 C1140 0.930 . S
H1131 C1143 0.929 . S
H1132 C1146 0.930 . S
H1133 C1148 0.960 . S
H1134 C1148 0.960 . S
H1135 C1148 0.960 . S
C1136 H1128 0.929 . S
C1136 C1137 1.377 . S
C1136 C1138 1.384 . S
C1137 C1136 1.377 . S
C1137 C1143 1.390 . S
C1138 H1129 0.930 . S
C1138 C1136 1.384 . S
C1138 C1139 1.372 . S
C1139 C1138 1.372 . S
C1139 C1140 1.400 . S
C1139 C1144 1.490 . S
C1140 H1130 0.930 . S
C1140 C1139 1.400 . S
C1140 C1143 1.386 . S
H1141 C1157 0.930 . S
H1142 C1158 0.931 . S
C1143 H1131 0.929 . S
C1143 C1137 1.390 . S
C1143 C1140 1.386 . S
C1144 C1139 1.490 . S
C1144 C1146 1.395 . S
C1144 C1147 1.403 . S
H1145 C1151 0.930 . S
C1146 H1132 0.930 . S
C1146 C1144 1.395 . S
C1146 C1149 1.403 . S
C1147 C1144 1.403 . S
C1147 C1148 1.524 . S
C1147 C1151 1.400 . S
C1148 H1133 0.960 . S
C1148 H1134 0.960 . S
C1148 H1135 0.960 . S
C1148 C1147 1.524 . S
C1149 C1146 1.403 . S
C1149 C1150 1.392 . S
C1149 C1153 1.495 . S
C1150 C1149 1.392 . S
C1150 C1151 1.385 . S
C1150 C1152 1.478 . S
C1151 H1145 0.930 . S
C1151 C1147 1.400 . S
C1151 C1150 1.385 . S
C1152 C1150 1.478 . S
C1152 C1154 1.381 . S
C1152 C1158 1.383 . S
C1153 C1149 1.495 . S
C1153 H1159 0.959 . S
C1153 H1160 0.961 . S
C1153 H1161 0.960 . S
C1154 C1152 1.381 . S
C1154 C1155 1.394 . S
C1154 H1162 0.930 . S
C1155 C1154 1.394 . S
C1155 C1156 1.383 . S
C1155 H1163 0.929 . S
C1156 C1155 1.383 . S
C1156 C1157 1.377 . S
C1157 H1141 0.930 . S
C1157 C1156 1.377 . S
C1157 C1158 1.379 . S
C1158 H1142 0.931 . S
C1158 C1152 1.383 . S
C1158 C1157 1.379 . S
H1159 C1153 0.959 . S
H1160 C1153 0.961 . S
H1161 C1153 0.960 . S
H1162 C1154 0.930 . S
H1163 C1155 0.929 . S
H1164 C1172 0.929 . S
H1165 C1174 0.930 . S
H1166 C1176 0.930 . S
H1167 C1179 0.929 . S
H1168 C1182 0.930 . S
H1169 C1184 0.960 . S
H1170 C1184 0.960 . S
H1171 C1184 0.960 . S
C1172 H1164 0.929 . S
C1172 C1173 1.377 . S
C1172 C1174 1.384 . S
C1173 C1172 1.377 . S
C1173 C1179 1.390 . S
C1174 H1165 0.930 . S
C1174 C1172 1.384 . S
C1174 C1175 1.372 . S
C1175 C1174 1.372 . S
C1175 C1176 1.400 . S
C1175 C1180 1.490 . S
C1176 H1166 0.930 . S
C1176 C1175 1.400 . S
C1176 C1179 1.386 . S
H1177 C1193 0.930 . S
H1178 C1194 0.931 . S
C1179 H1167 0.929 . S
C1179 C1173 1.390 . S
C1179 C1176 1.386 . S
C1180 C1175 1.490 . S
C1180 C1182 1.395 . S
C1180 C1183 1.403 . S
H1181 C1187 0.930 . S
C1182 H1168 0.930 . S
C1182 C1180 1.395 . S
C1182 C1185 1.403 . S
C1183 C1180 1.403 . S
C1183 C1184 1.524 . S
C1183 C1187 1.400 . S
C1184 H1169 0.960 . S
C1184 H1170 0.960 . S
C1184 H1171 0.960 . S
C1184 C1183 1.524 . S
C1185 C1182 1.403 . S
C1185 C1186 1.392 . S
C1185 C1189 1.495 . S
C1186 C1185 1.392 . S
C1186 C1187 1.385 . S
C1186 C1188 1.478 . S
C1187 H1181 0.930 . S
C1187 C1183 1.400 . S
C1187 C1186 1.385 . S
C1188 C1186 1.478 . S
C1188 C1190 1.381 . S
C1188 C1194 1.383 . S
C1189 C1185 1.495 . S
C1189 H1195 0.959 . S
C1189 H1196 0.961 . S
C1189 H1197 0.960 . S
C1190 C1188 1.381 . S
C1190 C1191 1.394 . S
C1190 H1198 0.930 . S
C1191 C1190 1.394 . S
C1191 C1192 1.383 . S
C1191 H1199 0.929 . S
C1192 C1191 1.383 . S
C1192 C1193 1.377 . S
C1193 H1177 0.930 . S
C1193 C1192 1.377 . S
C1193 C1194 1.379 . S
C1194 H1178 0.931 . S
C1194 C1188 1.383 . S
C1194 C1193 1.379 . S
H1195 C1189 0.959 . S
H1196 C1189 0.961 . S
H1197 C1189 0.960 . S
H1198 C1190 0.930 . S
H1199 C1191 0.929 . S
H1200 C1208 0.929 . S
H1201 C1210 0.930 . S
H1202 C1212 0.930 . S
H1203 C1215 0.929 . S
H1204 C1218 0.930 . S
H1205 C1220 0.960 1_455 S
H1206 C1220 0.960 . S
H1207 C1220 0.960 . S
C1208 H1200 0.929 . S
C1208 C1209 1.377 . S
C1208 C1210 1.384 . S
C1209 C1208 1.377 . S
C1209 C1215 1.390 . S
C1210 H1201 0.930 . S
C1210 C1208 1.384 . S
C1210 C1211 1.372 . S
C1211 C1210 1.372 . S
C1211 C1212 1.400 . S
C1211 C1216 1.490 . S
C1212 H1202 0.930 . S
C1212 C1211 1.400 . S
C1212 C1215 1.386 . S
H1213 C1229 0.930 . S
H1214 C1230 0.931 . S
C1215 H1203 0.929 . S
C1215 C1209 1.390 . S
C1215 C1212 1.386 . S
C1216 C1211 1.490 . S
C1216 C1218 1.395 1_565 S
C1216 C1219 1.403 . S
H1217 C1223 0.930 . S
C1218 H1204 0.930 . S
C1218 C1216 1.395 1_545 S
C1218 C1221 1.403 1_655 S
C1219 C1216 1.403 . S
C1219 C1220 1.524 . S
C1219 C1223 1.400 1_655 S
C1220 H1205 0.960 1_655 S
C1220 H1206 0.960 . S
C1220 H1207 0.960 . S
C1220 C1219 1.524 . S
C1221 C1218 1.403 1_455 S
C1221 C1222 1.392 . S
C1221 C1225 1.495 . S
C1222 C1221 1.392 . S
C1222 C1223 1.385 1_545 S
C1222 C1224 1.478 . S
C1223 H1217 0.930 . S
C1223 C1219 1.400 1_455 S
C1223 C1222 1.385 1_565 S
C1224 C1222 1.478 . S
C1224 C1226 1.381 . S
C1224 C1230 1.383 . S
C1225 C1221 1.495 . S
C1225 H1231 0.915 1_455 S
C1225 H1232 0.961 . S
C1225 H1233 0.960 . S
C1226 C1224 1.381 . S
C1226 C1227 1.394 . S
C1226 H1234 0.930 . S
C1227 C1226 1.394 . S
C1227 C1228 1.383 . S
C1227 H1235 0.929 . S
C1228 C1227 1.383 . S
C1228 C1229 1.377 . S
C1229 H1213 0.930 . S
C1229 C1228 1.377 . S
C1229 C1230 1.379 . S
C1230 H1214 0.931 . S
C1230 C1224 1.383 . S
C1230 C1229 1.379 . S
H1231 C1225 0.915 1_655 S
H1232 C1225 0.961 . S
H1233 C1225 0.960 . S
H1234 C1226 0.930 . S
H1235 C1227 0.929 . S
H1236 C1244 0.929 . S
H1237 C1246 0.930 . S
H1238 C1248 0.930 1_565 S
H1239 C1251 0.929 . S
H1240 C1254 0.930 . S
H1241 C1256 0.960 . S
H1242 C1256 0.960 . S
H1243 C1256 0.960 . S
C1244 H1236 0.929 . S
C1244 C1245 1.377 . S
C1244 C1246 1.384 . S
C1245 C1244 1.377 . S
C1245 C1251 1.390 . S
C1246 H1237 0.930 . S
C1246 C1244 1.384 . S
C1246 C1247 1.372 . S
C1247 C1246 1.372 . S
C1247 C1248 1.400 . S
C1247 C1252 1.490 . S
C1248 H1238 0.930 1_545 S
C1248 C1247 1.400 . S
C1248 C1251 1.386 . S
H1249 C1265 0.930 . S
H1250 C1266 0.931 . S
C1251 H1239 0.929 . S
C1251 C1245 1.390 . S
C1251 C1248 1.386 . S
C1252 C1247 1.490 . S
C1252 C1254 1.395 . S
C1252 C1255 1.403 1_545 S
H1253 C1259 0.930 . S
C1254 H1240 0.930 . S
C1254 C1252 1.395 . S
C1254 C1257 1.403 1_655 S
C1255 C1252 1.403 1_565 S
C1255 C1256 1.524 . S
C1255 C1259 1.400 1_655 S
C1256 H1241 0.960 . S
C1256 H1242 0.960 . S
C1256 H1243 0.960 . S
C1256 C1255 1.524 . S
C1257 C1254 1.403 1_455 S
C1257 C1258 1.392 1_545 S
C1257 C1261 1.495 . S
C1258 C1257 1.392 1_565 S
C1258 C1259 1.385 . S
C1258 C1260 1.478 . S
C1259 H1253 0.930 . S
C1259 C1255 1.400 1_455 S
C1259 C1258 1.385 . S
C1260 C1258 1.478 . S
C1260 C1262 1.383 . S
C1260 C1266 1.383 . S
C1261 C1257 1.495 . S
C1261 H1267 0.959 . S
C1261 H1268 0.961 . S
C1261 H1269 0.960 . S
C1262 C1260 1.383 . S
C1262 C1263 1.397 . S
C1262 H1270 0.925 1_565 S
C1263 C1262 1.397 . S
C1263 C1264 1.383 . S
C1263 H1271 0.929 . S
C1264 C1263 1.383 . S
C1264 C1265 1.377 . S
C1265 H1249 0.930 . S
C1265 C1264 1.377 . S
C1265 C1266 1.379 . S
C1266 H1250 0.931 . S
C1266 C1260 1.383 . S
C1266 C1265 1.379 . S
H1267 C1261 0.959 . S
H1268 C1261 0.961 . S
H1269 C1261 0.960 . S
H1270 C1262 0.925 1_545 S
H1271 C1263 0.929 . S
H1272 C1280 0.929 . S
H1273 C1282 0.930 . S
H1274 C1284 0.930 . S
H1275 C1287 0.929 . S
H1276 C1290 0.930 . S
H1277 C1292 0.964 1_655 S
H1278 C1292 0.960 . S
H1279 C1292 0.960 . S
C1280 H1272 0.929 . S
C1280 C1281 1.377 . S
C1280 C1282 1.384 . S
C1281 C1280 1.377 . S
C1281 C1287 1.390 . S
C1282 H1273 0.930 . S
C1282 C1280 1.384 . S
C1282 C1283 1.372 . S
C1283 C1282 1.372 . S
C1283 C1284 1.400 . S
C1283 C1288 1.490 . S
C1284 H1274 0.930 . S
C1284 C1283 1.400 . S
C1284 C1287 1.386 . S
H1285 C1301 0.930 . S
H1286 C1302 0.931 . S
C1287 H1275 0.929 . S
C1287 C1281 1.390 . S
C1287 C1284 1.386 . S
C1288 C1283 1.490 . S
C1288 C1290 1.395 1_545 S
C1288 C1291 1.403 . S
H1289 C1295 0.930 . S
C1290 H1276 0.930 . S
C1290 C1288 1.395 1_565 S
C1290 C1293 1.403 1_455 S
C1291 C1288 1.403 . S
C1291 C1292 1.524 . S
C1291 C1295 1.400 1_455 S
C1292 H1277 0.964 1_455 S
C1292 H1278 0.960 . S
C1292 H1279 0.960 . S
C1292 C1291 1.524 . S
C1293 C1290 1.403 1_655 S
C1293 C1294 1.392 . S
C1293 C1297 1.495 . S
C1294 C1293 1.392 . S
C1294 C1295 1.385 1_565 S
C1294 C1296 1.478 . S
C1295 H1289 0.930 . S
C1295 C1291 1.400 1_655 S
C1295 C1294 1.385 1_545 S
C1296 C1294 1.478 . S
C1296 C1298 1.381 . S
C1296 C1302 1.383 . S
C1297 C1293 1.495 . S
C1297 H1303 0.979 . S
C1297 H1304 0.961 . S
C1297 H1305 0.960 . S
C1298 C1296 1.381 . S
C1298 C1299 1.394 . S
C1298 H1306 0.930 . S
C1299 C1298 1.394 . S
C1299 C1300 1.383 . S
C1299 H1307 0.929 . S
C1300 C1299 1.383 . S
C1300 C1301 1.377 . S
C1301 H1285 0.930 . S
C1301 C1300 1.377 . S
C1301 C1302 1.379 . S
C1302 H1286 0.931 . S
C1302 C1296 1.383 . S
C1302 C1301 1.379 . S
H1303 C1297 0.979 . S
H1304 C1297 0.961 . S
H1305 C1297 0.960 . S
H1306 C1298 0.930 . S
H1307 C1299 0.929 . S
H1308 C1316 0.929 . S
H1309 C1318 0.930 1_565 S
H1310 C1320 0.930 . S
H1311 C1323 0.929 . S
H1312 C1326 0.930 . S
H1313 C1328 0.960 . S
H1314 C1328 0.960 . S
H1315 C1328 0.960 . S
C1316 H1308 0.929 . S
C1316 C1317 1.377 . S
C1316 C1318 1.384 . S
C1317 C1316 1.377 . S
C1317 C1323 1.390 . S
C1318 H1309 0.930 1_545 S
C1318 C1316 1.384 . S
C1318 C1319 1.372 . S
C1319 C1318 1.372 . S
C1319 C1320 1.400 . S
C1319 C1324 1.490 . S
C1320 H1310 0.930 . S
C1320 C1319 1.400 . S
C1320 C1323 1.386 . S
H1321 C1337 0.930 1_545 S
H1322 C1338 0.931 . S
C1323 H1311 0.929 . S
C1323 C1317 1.390 . S
C1323 C1320 1.386 . S
C1324 C1319 1.490 . S
C1324 C1326 1.395 . S
C1324 C1327 1.403 1_545 S
H1325 C1331 0.930 . S
C1326 H1312 0.930 . S
C1326 C1324 1.395 . S
C1326 C1329 1.403 1_655 S
C1327 C1324 1.403 1_565 S
C1327 C1328 1.524 . S
C1327 C1331 1.400 1_655 S
C1328 H1313 0.960 . S
C1328 H1314 0.960 . S
C1328 H1315 0.960 . S
C1328 C1327 1.524 . S
C1329 C1326 1.403 1_455 S
C1329 C1330 1.392 1_545 S
C1329 C1333 1.495 . S
C1330 C1329 1.392 1_565 S
C1330 C1331 1.385 . S
C1330 C1332 1.478 . S
C1331 H1325 0.930 . S
C1331 C1327 1.400 1_455 S
C1331 C1330 1.385 . S
C1332 C1330 1.478 . S
C1332 C1334 1.381 . S
C1332 C1338 1.383 1_565 S
C1333 C1329 1.495 . S
C1333 H1339 0.959 . S
C1333 H1340 0.961 . S
C1333 H1341 0.960 . S
C1334 C1332 1.381 . S
C1334 C1335 1.394 . S
C1334 H1342 0.930 . S
C1335 C1334 1.394 . S
C1335 C1336 1.383 . S
C1335 H1343 0.929 . S
C1336 C1335 1.383 . S
C1336 C1337 1.377 . S
C1337 H1321 0.930 1_565 S
C1337 C1336 1.377 . S
C1337 C1338 1.379 1_565 S
C1338 H1322 0.931 . S
C1338 C1332 1.383 1_545 S
C1338 C1337 1.379 1_545 S
H1339 C1333 0.959 . S
H1340 C1333 0.961 . S
H1341 C1333 0.960 . S
H1342 C1334 0.930 . S
H1343 C1335 0.929 . S
H1344 C1352 0.929 . S
H1345 C1354 0.930 . S
H1346 C1356 0.930 . S
H1347 C1359 0.929 . S
H1348 C1362 0.930 . S
H1349 C1364 0.960 . S
H1350 C1364 0.960 . S
H1351 C1364 0.960 . S
C1352 H1344 0.929 . S
C1352 C1353 1.377 . S
C1352 C1354 1.384 . S
C1353 C1352 1.377 . S
C1353 C1359 1.390 . S
C1354 H1345 0.930 . S
C1354 C1352 1.384 . S
C1354 C1355 1.372 . S
C1355 C1354 1.372 . S
C1355 C1356 1.400 . S
C1355 C1360 1.490 . S
C1356 H1346 0.930 . S
C1356 C1355 1.400 . S
C1356 C1359 1.386 . S
H1357 C1373 0.930 . S
H1358 C1374 0.931 . S
C1359 H1347 0.929 . S
C1359 C1353 1.390 . S
C1359 C1356 1.386 . S
C1360 C1355 1.490 . S
C1360 C1362 1.395 . S
C1360 C1363 1.403 . S
H1361 C1367 0.930 . S
C1362 H1348 0.930 . S
C1362 C1360 1.395 . S
C1362 C1365 1.403 . S
C1363 C1360 1.403 . S
C1363 C1364 1.524 . S
C1363 C1367 1.400 . S
C1364 H1349 0.960 . S
C1364 H1350 0.960 . S
C1364 H1351 0.960 . S
C1364 C1363 1.524 . S
C1365 C1362 1.403 . S
C1365 C1366 1.392 . S
C1365 C1369 1.495 . S
C1366 C1365 1.392 . S
C1366 C1367 1.385 . S
C1366 C1368 1.478 . S
C1367 H1361 0.930 . S
C1367 C1363 1.400 . S
C1367 C1366 1.385 . S
C1368 C1366 1.478 . S
C1368 C1370 1.381 . S
C1368 C1374 1.383 . S
C1369 C1365 1.495 . S
C1369 H1375 0.959 . S
C1369 H1376 0.961 . S
C1369 H1377 0.960 . S
C1370 C1368 1.381 . S
C1370 C1371 1.394 . S
C1370 H1378 0.930 . S
C1371 C1370 1.394 . S
C1371 C1372 1.383 . S
C1371 H1379 0.929 . S
C1372 C1371 1.383 . S
C1372 C1373 1.377 . S
C1373 H1357 0.930 . S
C1373 C1372 1.377 . S
C1373 C1374 1.379 . S
C1374 H1358 0.931 . S
C1374 C1368 1.383 . S
C1374 C1373 1.379 . S
H1375 C1369 0.959 . S
H1376 C1369 0.961 . S
H1377 C1369 0.960 . S
H1378 C1370 0.930 . S
H1379 C1371 0.929 . S
H1380 C1388 0.929 . S
H1381 C1390 0.930 . S
H1382 C1392 0.930 . S
H1383 C1395 0.929 . S
H1384 C1398 0.930 . S
H1385 C1400 0.960 . S
H1386 C1400 0.960 . S
H1387 C1400 0.960 . S
C1388 H1380 0.929 . S
C1388 C1389 1.377 . S
C1388 C1390 1.384 . S
C1389 C1388 1.377 . S
C1389 C1395 1.390 . S
C1390 H1381 0.930 . S
C1390 C1388 1.384 . S
C1390 C1391 1.372 . S
C1391 C1390 1.372 . S
C1391 C1392 1.400 . S
C1391 C1396 1.490 . S
C1392 H1382 0.930 . S
C1392 C1391 1.400 . S
C1392 C1395 1.386 . S
H1393 C1409 0.930 . S
H1394 C1410 0.931 . S
C1395 H1383 0.929 . S
C1395 C1389 1.390 . S
C1395 C1392 1.386 . S
C1396 C1391 1.490 . S
C1396 C1398 1.395 . S
C1396 C1399 1.403 . S
H1397 C1403 0.930 . S
C1398 H1384 0.930 . S
C1398 C1396 1.395 . S
C1398 C1401 1.403 . S
C1399 C1396 1.403 . S
C1399 C1400 1.524 . S
C1399 C1403 1.400 . S
C1400 H1385 0.960 . S
C1400 H1386 0.960 . S
C1400 H1387 0.960 . S
C1400 C1399 1.524 . S
C1401 C1398 1.403 . S
C1401 C1402 1.392 . S
C1401 C1405 1.495 . S
C1402 C1401 1.392 . S
C1402 C1403 1.385 . S
C1402 C1404 1.478 . S
C1403 H1397 0.930 . S
C1403 C1399 1.400 . S
C1403 C1402 1.385 . S
C1404 C1402 1.478 . S
C1404 C1406 1.381 . S
C1404 C1410 1.383 . S
C1405 C1401 1.495 . S
C1405 H1411 0.959 . S
C1405 H1412 0.961 . S
C1405 H1413 0.960 . S
C1406 C1404 1.381 . S
C1406 C1407 1.394 . S
C1406 H1414 0.930 . S
C1407 C1406 1.394 . S
C1407 C1408 1.383 . S
C1407 H1415 0.929 . S
C1408 C1407 1.383 . S
C1408 C1409 1.377 . S
C1409 H1393 0.930 . S
C1409 C1408 1.377 . S
C1409 C1410 1.379 . S
C1410 H1394 0.931 . S
C1410 C1404 1.383 . S
C1410 C1409 1.379 . S
H1411 C1405 0.959 . S
H1412 C1405 0.961 . S
H1413 C1405 0.960 . S
H1414 C1406 0.930 . S
H1415 C1407 0.929 . S
H1416 C1424 0.929 . S
H1417 C1426 0.930 . S
H1418 C1428 0.930 . S
H1419 C1431 0.929 . S
H1420 C1434 0.930 . S
H1421 C1436 0.960 . S
H1422 C1436 0.960 . S
H1423 C1436 0.960 . S
C1424 H1416 0.929 . S
C1424 C1425 1.377 . S
C1424 C1426 1.384 . S
C1425 C1424 1.377 . S
C1425 C1431 1.390 . S
C1426 H1417 0.930 . S
C1426 C1424 1.384 . S
C1426 C1427 1.372 . S
C1427 C1426 1.372 . S
C1427 C1428 1.400 . S
C1427 C1432 1.490 . S
C1428 H1418 0.930 . S
C1428 C1427 1.400 . S
C1428 C1431 1.386 . S
H1429 C1445 0.930 . S
H1430 C1446 0.931 . S
C1431 H1419 0.929 . S
C1431 C1425 1.390 . S
C1431 C1428 1.386 . S
C1432 C1427 1.490 . S
C1432 C1434 1.395 . S
C1432 C1435 1.403 . S
H1433 C1439 0.930 . S
C1434 H1420 0.930 . S
C1434 C1432 1.395 . S
C1434 C1437 1.403 . S
C1435 C1432 1.403 . S
C1435 C1436 1.524 . S
C1435 C1439 1.400 . S
C1436 H1421 0.960 . S
C1436 H1422 0.960 . S
C1436 H1423 0.960 . S
C1436 C1435 1.524 . S
C1437 C1434 1.403 . S
C1437 C1438 1.392 . S
C1437 C1441 1.495 . S
C1438 C1437 1.392 . S
C1438 C1439 1.385 . S
C1438 C1440 1.478 . S
C1439 H1433 0.930 . S
C1439 C1435 1.400 . S
C1439 C1438 1.385 . S
C1440 C1438 1.478 . S
C1440 C1442 1.381 . S
C1440 C1446 1.383 . S
C1441 C1437 1.495 . S
C1441 H1447 0.959 . S
C1441 H1448 0.961 . S
C1441 H1449 0.960 . S
C1442 C1440 1.381 . S
C1442 C1443 1.394 . S
C1442 H1450 0.930 . S
C1443 C1442 1.394 . S
C1443 C1444 1.383 . S
C1443 H1451 0.929 . S
C1444 C1443 1.383 . S
C1444 C1445 1.377 . S
C1445 H1429 0.930 . S
C1445 C1444 1.377 . S
C1445 C1446 1.379 . S
C1446 H1430 0.931 . S
C1446 C1440 1.383 . S
C1446 C1445 1.379 . S
H1447 C1441 0.959 . S
H1448 C1441 0.961 . S
H1449 C1441 0.960 . S
H1450 C1442 0.930 . S
H1451 C1443 0.929 . S
H1452 C1460 0.929 . S
H1453 C1462 0.930 . S
H1454 C1464 0.930 . S
H1455 C1467 0.929 . S
H1456 C1470 0.930 . S
H1457 C1472 0.960 . S
H1458 C1472 0.960 . S
H1459 C1472 0.960 . S
C1460 H1452 0.929 . S
C1460 C1461 1.377 . S
C1460 C1462 1.384 . S
C1461 C1460 1.377 . S
C1461 C1467 1.390 . S
C1462 H1453 0.930 . S
C1462 C1460 1.384 . S
C1462 C1463 1.372 . S
C1463 C1462 1.372 . S
C1463 C1464 1.400 . S
C1463 C1468 1.490 . S
C1464 H1454 0.930 . S
C1464 C1463 1.400 . S
C1464 C1467 1.386 . S
H1465 C1481 0.930 . S
H1466 C1482 0.931 . S
C1467 H1455 0.929 . S
C1467 C1461 1.390 . S
C1467 C1464 1.386 . S
C1468 C1463 1.490 . S
C1468 C1470 1.395 . S
C1468 C1471 1.403 . S
H1469 C1475 0.930 . S
C1470 H1456 0.930 . S
C1470 C1468 1.395 . S
C1470 C1473 1.403 . S
C1471 C1468 1.403 . S
C1471 C1472 1.524 . S
C1471 C1475 1.400 . S
C1472 H1457 0.960 . S
C1472 H1458 0.960 . S
C1472 H1459 0.960 . S
C1472 C1471 1.524 . S
C1473 C1470 1.403 . S
C1473 C1474 1.392 . S
C1473 C1477 1.495 . S
C1474 C1473 1.392 . S
C1474 C1475 1.385 . S
C1474 C1476 1.478 . S
C1475 H1469 0.930 . S
C1475 C1471 1.400 . S
C1475 C1474 1.385 . S
C1476 C1474 1.478 . S
C1476 C1478 1.381 . S
C1476 C1482 1.383 . S
C1477 C1473 1.495 . S
C1477 H1483 0.959 . S
C1477 H1484 0.961 . S
C1477 H1485 0.960 . S
C1478 C1476 1.381 . S
C1478 C1479 1.394 . S
C1478 H1486 0.930 . S
C1479 C1478 1.394 . S
C1479 C1480 1.383 . S
C1479 H1487 0.929 . S
C1480 C1479 1.383 . S
C1480 C1481 1.377 . S
C1481 H1465 0.930 . S
C1481 C1480 1.377 . S
C1481 C1482 1.379 . S
C1482 H1466 0.931 . S
C1482 C1476 1.383 . S
C1482 C1481 1.379 . S
H1483 C1477 0.959 . S
H1484 C1477 0.961 . S
H1485 C1477 0.960 . S
H1486 C1478 0.930 . S
H1487 C1479 0.929 . S
H1488 C1496 0.929 . S
H1489 C1498 0.930 . S
H1490 C1500 0.930 . S
H1491 C1503 0.929 . S
H1492 C1506 0.930 . S
H1493 C1508 0.960 . S
H1494 C1508 0.960 . S
H1495 C1508 0.960 . S
C1496 H1488 0.929 . S
C1496 C1497 1.377 . S
C1496 C1498 1.384 . S
C1497 C1496 1.377 . S
C1497 C1503 1.390 . S
C1498 H1489 0.930 . S
C1498 C1496 1.384 . S
C1498 C1499 1.372 . S
C1499 C1498 1.372 . S
C1499 C1500 1.400 . S
C1499 C1504 1.490 . S
C1500 H1490 0.930 . S
C1500 C1499 1.400 . S
C1500 C1503 1.386 . S
H1501 C1517 0.930 . S
H1502 C1518 0.931 . S
C1503 H1491 0.929 . S
C1503 C1497 1.390 . S
C1503 C1500 1.386 . S
C1504 C1499 1.490 . S
C1504 C1506 1.395 . S
C1504 C1507 1.403 . S
H1505 C1511 0.930 . S
C1506 H1492 0.930 . S
C1506 C1504 1.395 . S
C1506 C1509 1.403 . S
C1507 C1504 1.403 . S
C1507 C1508 1.524 . S
C1507 C1511 1.400 . S
C1508 H1493 0.960 . S
C1508 H1494 0.960 . S
C1508 H1495 0.960 . S
C1508 C1507 1.524 . S
C1509 C1506 1.403 . S
C1509 C1510 1.392 . S
C1509 C1513 1.495 . S
C1510 C1509 1.392 . S
C1510 C1511 1.385 . S
C1510 C1512 1.478 . S
C1511 H1505 0.930 . S
C1511 C1507 1.400 . S
C1511 C1510 1.385 . S
C1512 C1510 1.478 . S
C1512 C1514 1.381 . S
C1512 C1518 1.383 . S
C1513 C1509 1.495 . S
C1513 H1519 0.959 . S
C1513 H1520 0.961 . S
C1513 H1521 0.960 . S
C1514 C1512 1.381 . S
C1514 C1515 1.394 . S
C1514 H1522 0.930 . S
C1515 C1514 1.394 . S
C1515 C1516 1.383 . S
C1515 H1523 0.929 . S
C1516 C1515 1.383 . S
C1516 C1517 1.377 . S
C1517 H1501 0.930 . S
C1517 C1516 1.377 . S
C1517 C1518 1.379 . S
C1518 H1502 0.931 . S
C1518 C1512 1.383 . S
C1518 C1517 1.379 . S
H1519 C1513 0.959 . S
H1520 C1513 0.961 . S
H1521 C1513 0.960 . S
H1522 C1514 0.930 . S
H1523 C1515 0.929 . S
H1524 C1532 0.929 . S
H1525 C1534 0.930 . S
H1526 C1536 0.930 . S
H1527 C1539 0.929 . S
H1528 C1542 0.930 . S
H1529 C1544 0.960 . S
H1530 C1544 0.960 . S
H1531 C1544 0.960 . S
C1532 H1524 0.929 . S
C1532 C1533 1.377 . S
C1532 C1534 1.384 . S
C1533 C1532 1.377 . S
C1533 C1539 1.390 . S
C1534 H1525 0.930 . S
C1534 C1532 1.384 . S
C1534 C1535 1.372 . S
C1535 C1534 1.372 . S
C1535 C1536 1.400 . S
C1535 C1540 1.490 . S
C1536 H1526 0.930 . S
C1536 C1535 1.400 . S
C1536 C1539 1.386 . S
H1537 C1553 0.930 . S
H1538 C1554 0.931 . S
C1539 H1527 0.929 . S
C1539 C1533 1.390 . S
C1539 C1536 1.386 . S
C1540 C1535 1.490 . S
C1540 C1542 1.395 . S
C1540 C1543 1.403 . S
H1541 C1547 0.930 . S
C1542 H1528 0.930 . S
C1542 C1540 1.395 . S
C1542 C1545 1.403 . S
C1543 C1540 1.403 . S
C1543 C1544 1.524 . S
C1543 C1547 1.400 . S
C1544 H1529 0.960 . S
C1544 H1530 0.960 . S
C1544 H1531 0.960 . S
C1544 C1543 1.524 . S
C1545 C1542 1.403 . S
C1545 C1546 1.392 . S
C1545 C1549 1.495 . S
C1546 C1545 1.392 . S
C1546 C1547 1.385 . S
C1546 C1548 1.478 . S
C1547 H1541 0.930 . S
C1547 C1543 1.400 . S
C1547 C1546 1.385 . S
C1548 C1546 1.478 . S
C1548 C1550 1.381 . S
C1548 C1554 1.383 . S
C1549 C1545 1.495 . S
C1549 H1555 0.959 . S
C1549 H1556 0.961 . S
C1549 H1557 0.960 . S
C1550 C1548 1.381 . S
C1550 C1551 1.394 . S
C1550 H1558 0.930 . S
C1551 C1550 1.394 . S
C1551 C1552 1.383 . S
C1551 H1559 0.929 . S
C1552 C1551 1.383 . S
C1552 C1553 1.377 . S
C1553 H1537 0.930 . S
C1553 C1552 1.377 . S
C1553 C1554 1.379 . S
C1554 H1538 0.931 . S
C1554 C1548 1.383 . S
C1554 C1553 1.379 . S
H1555 C1549 0.959 . S
H1556 C1549 0.961 . S
H1557 C1549 0.960 . S
H1558 C1550 0.930 . S
H1559 C1551 0.929 . S
H1560 C1568 0.929 . S
H1561 C1570 0.930 . S
H1562 C1572 0.930 . S
H1563 C1575 0.929 . S
H1564 C1578 0.930 . S
H1565 C1580 0.960 . S
H1566 C1580 0.960 . S
H1567 C1580 0.960 . S
C1568 H1560 0.929 . S
C1568 C1569 1.377 . S
C1568 C1570 1.384 . S
C1569 C1568 1.377 . S
C1569 C1575 1.390 . S
C1570 H1561 0.930 . S
C1570 C1568 1.384 . S
C1570 C1571 1.372 . S
C1571 C1570 1.372 . S
C1571 C1572 1.400 . S
C1571 C1576 1.490 . S
C1572 H1562 0.930 . S
C1572 C1571 1.400 . S
C1572 C1575 1.386 . S
H1573 C1589 0.930 . S
H1574 C1590 0.931 . S
C1575 H1563 0.929 . S
C1575 C1569 1.390 . S
C1575 C1572 1.386 . S
C1576 C1571 1.490 . S
C1576 C1578 1.395 . S
C1576 C1579 1.403 . S
H1577 C1583 0.930 . S
C1578 H1564 0.930 . S
C1578 C1576 1.395 . S
C1578 C1581 1.403 . S
C1579 C1576 1.403 . S
C1579 C1580 1.524 . S
C1579 C1583 1.400 . S
C1580 H1565 0.960 . S
C1580 H1566 0.960 . S
C1580 H1567 0.960 . S
C1580 C1579 1.524 . S
C1581 C1578 1.403 . S
C1581 C1582 1.392 . S
C1581 C1585 1.495 . S
C1582 C1581 1.392 . S
C1582 C1583 1.385 . S
C1582 C1584 1.478 . S
C1583 H1577 0.930 . S
C1583 C1579 1.400 . S
C1583 C1582 1.385 . S
C1584 C1582 1.478 . S
C1584 C1586 1.381 . S
C1584 C1590 1.383 . S
C1585 C1581 1.495 . S
C1585 H1591 0.959 . S
C1585 H1592 0.961 . S
C1585 H1593 0.960 . S
C1586 C1584 1.381 . S
C1586 C1587 1.394 . S
C1586 H1594 0.930 . S
C1587 C1586 1.394 . S
C1587 C1588 1.383 . S
C1587 H1595 0.929 . S
C1588 C1587 1.383 . S
C1588 C1589 1.377 . S
C1589 H1573 0.930 . S
C1589 C1588 1.377 . S
C1589 C1590 1.379 . S
C1590 H1574 0.931 . S
C1590 C1584 1.383 . S
C1590 C1589 1.379 . S
H1591 C1585 0.959 . S
H1592 C1585 0.961 . S
H1593 C1585 0.960 . S
H1594 C1586 0.930 . S
H1595 C1587 0.929 . S
H1596 C1604 0.929 . S
H1597 C1606 0.930 . S
H1598 C1608 0.930 . S
H1599 C1611 0.929 . S
H1600 C1614 0.930 . S
H1601 C1616 0.960 . S
H1602 C1616 0.960 . S
H1603 C1616 0.960 . S
C1604 H1596 0.929 . S
C1604 C1605 1.377 . S
C1604 C1606 1.384 . S
C1605 C1604 1.377 . S
C1605 C1611 1.390 . S
C1606 H1597 0.930 . S
C1606 C1604 1.384 . S
C1606 C1607 1.372 . S
C1607 C1606 1.372 . S
C1607 C1608 1.400 . S
C1607 C1612 1.490 . S
C1608 H1598 0.930 . S
C1608 C1607 1.400 . S
C1608 C1611 1.386 . S
H1609 C1625 0.930 . S
H1610 C1626 0.931 . S
C1611 H1599 0.929 . S
C1611 C1605 1.390 . S
C1611 C1608 1.386 . S
C1612 C1607 1.490 . S
C1612 C1614 1.395 . S
C1612 C1615 1.403 . S
H1613 C1619 0.930 . S
C1614 H1600 0.930 . S
C1614 C1612 1.395 . S
C1614 C1617 1.403 . S
C1615 C1612 1.403 . S
C1615 C1616 1.524 . S
C1615 C1619 1.400 . S
C1616 H1601 0.960 . S
C1616 H1602 0.960 . S
C1616 H1603 0.960 . S
C1616 C1615 1.524 . S
C1617 C1614 1.403 . S
C1617 C1618 1.392 . S
C1617 C1621 1.495 . S
C1618 C1617 1.392 . S
C1618 C1619 1.385 . S
C1618 C1620 1.478 . S
C1619 H1613 0.930 . S
C1619 C1615 1.400 . S
C1619 C1618 1.385 . S
C1620 C1618 1.478 . S
C1620 C1622 1.381 . S
C1620 C1626 1.383 . S
C1621 C1617 1.495 . S
C1621 H1627 0.959 . S
C1621 H1628 0.961 . S
C1621 H1629 0.960 . S
C1622 C1620 1.381 . S
C1622 C1623 1.394 . S
C1622 H1630 0.930 . S
C1623 C1622 1.394 . S
C1623 C1624 1.383 . S
C1623 H1631 0.929 . S
C1624 C1623 1.383 . S
C1624 C1625 1.377 . S
C1625 H1609 0.930 . S
C1625 C1624 1.377 . S
C1625 C1626 1.379 . S
C1626 H1610 0.931 . S
C1626 C1620 1.383 . S
C1626 C1625 1.379 . S
H1627 C1621 0.959 . S
H1628 C1621 0.961 . S
H1629 C1621 0.960 . S
H1630 C1622 0.930 . S
H1631 C1623 0.929 . S
H1632 C1640 0.929 . S
H1633 C1642 0.930 . S
H1634 C1644 0.930 . S
H1635 C1647 0.929 . S
H1636 C1650 0.930 . S
H1637 C1652 0.960 . S
H1638 C1652 0.960 . S
H1639 C1652 0.960 . S
C1640 H1632 0.929 . S
C1640 C1641 1.377 . S
C1640 C1642 1.384 . S
C1641 C1640 1.377 . S
C1641 C1647 1.390 . S
C1642 H1633 0.930 . S
C1642 C1640 1.384 . S
C1642 C1643 1.372 . S
C1643 C1642 1.372 . S
C1643 C1644 1.400 . S
C1643 C1648 1.490 . S
C1644 H1634 0.930 . S
C1644 C1643 1.400 . S
C1644 C1647 1.386 . S
H1645 C1661 0.930 . S
H1646 C1662 0.931 . S
C1647 H1635 0.929 . S
C1647 C1641 1.390 . S
C1647 C1644 1.386 . S
C1648 C1643 1.490 . S
C1648 C1650 1.395 . S
C1648 C1651 1.403 . S
H1649 C1655 0.930 . S
C1650 H1636 0.930 . S
C1650 C1648 1.395 . S
C1650 C1653 1.403 . S
C1651 C1648 1.403 . S
C1651 C1652 1.524 . S
C1651 C1655 1.400 . S
C1652 H1637 0.960 . S
C1652 H1638 0.960 . S
C1652 H1639 0.960 . S
C1652 C1651 1.524 . S
C1653 C1650 1.403 . S
C1653 C1654 1.392 . S
C1653 C1657 1.495 . S
C1654 C1653 1.392 . S
C1654 C1655 1.385 . S
C1654 C1656 1.478 . S
C1655 H1649 0.930 . S
C1655 C1651 1.400 . S
C1655 C1654 1.385 . S
C1656 C1654 1.478 . S
C1656 C1658 1.381 . S
C1656 C1662 1.383 . S
C1657 C1653 1.495 . S
C1657 H1663 0.959 . S
C1657 H1664 0.961 . S
C1657 H1665 0.960 . S
C1658 C1656 1.381 . S
C1658 C1659 1.394 . S
C1658 H1666 0.930 . S
C1659 C1658 1.394 . S
C1659 C1660 1.383 . S
C1659 H1667 0.929 . S
C1660 C1659 1.383 . S
C1660 C1661 1.377 . S
C1661 H1645 0.930 . S
C1661 C1660 1.377 . S
C1661 C1662 1.379 . S
C1662 H1646 0.931 . S
C1662 C1656 1.383 . S
C1662 C1661 1.379 . S
H1663 C1657 0.959 . S
H1664 C1657 0.961 . S
H1665 C1657 0.960 . S
H1666 C1658 0.930 . S
H1667 C1659 0.929 . S
H1668 C1676 0.929 . S
H1669 C1678 0.930 . S
H1670 C1680 0.930 . S
H1671 C1683 0.929 . S
H1672 C1686 0.930 . S
H1673 C1688 0.960 . S
H1674 C1688 0.960 . S
H1675 C1688 0.960 . S
C1676 H1668 0.929 . S
C1676 C1677 1.377 . S
C1676 C1678 1.384 . S
C1677 C1676 1.377 . S
C1677 C1683 1.390 . S
C1678 H1669 0.930 . S
C1678 C1676 1.384 . S
C1678 C1679 1.372 . S
C1679 C1678 1.372 . S
C1679 C1680 1.400 . S
C1679 C1684 1.490 . S
C1680 H1670 0.930 . S
C1680 C1679 1.400 . S
C1680 C1683 1.386 . S
H1681 C1697 0.930 . S
H1682 C1698 0.931 . S
C1683 H1671 0.929 . S
C1683 C1677 1.390 . S
C1683 C1680 1.386 . S
C1684 C1679 1.490 . S
C1684 C1686 1.395 . S
C1684 C1687 1.403 . S
H1685 C1691 0.930 . S
C1686 H1672 0.930 . S
C1686 C1684 1.395 . S
C1686 C1689 1.403 . S
C1687 C1684 1.403 . S
C1687 C1688 1.524 . S
C1687 C1691 1.400 . S
C1688 H1673 0.960 . S
C1688 H1674 0.960 . S
C1688 H1675 0.960 . S
C1688 C1687 1.524 . S
C1689 C1686 1.403 . S
C1689 C1690 1.392 . S
C1689 C1693 1.495 . S
C1690 C1689 1.392 . S
C1690 C1691 1.385 . S
C1690 C1692 1.478 . S
C1691 H1685 0.930 . S
C1691 C1687 1.400 . S
C1691 C1690 1.385 . S
C1692 C1690 1.478 . S
C1692 C1694 1.381 . S
C1692 C1698 1.383 . S
C1693 C1689 1.495 . S
C1693 H1699 0.959 . S
C1693 H1700 0.961 . S
C1693 H1701 0.960 . S
C1694 C1692 1.381 . S
C1694 C1695 1.394 . S
C1694 H1702 0.930 . S
C1695 C1694 1.394 . S
C1695 C1696 1.383 . S
C1695 H1703 0.929 . S
C1696 C1695 1.383 . S
C1696 C1697 1.377 . S
C1697 H1681 0.930 . S
C1697 C1696 1.377 . S
C1697 C1698 1.379 . S
C1698 H1682 0.931 . S
C1698 C1692 1.383 . S
C1698 C1697 1.379 . S
H1699 C1693 0.959 . S
H1700 C1693 0.961 . S
H1701 C1693 0.960 . S
H1702 C1694 0.930 . S
H1703 C1695 0.929 . S
H1704 C1712 0.929 . S
H1705 C1714 0.930 . S
H1706 C1716 0.930 . S
H1707 C1719 0.929 . S
H1708 C1722 0.930 . S
H1709 C1724 0.960 . S
H1710 C1724 0.960 . S
H1711 C1724 0.960 . S
C1712 H1704 0.929 . S
C1712 C1713 1.377 . S
C1712 C1714 1.384 . S
C1713 C1712 1.377 . S
C1713 C1719 1.390 . S
C1714 H1705 0.930 . S
C1714 C1712 1.384 . S
C1714 C1715 1.372 . S
C1715 C1714 1.372 . S
C1715 C1716 1.400 . S
C1715 C1720 1.490 . S
C1716 H1706 0.930 . S
C1716 C1715 1.400 . S
C1716 C1719 1.386 . S
H1717 C1733 0.930 . S
H1718 C1734 0.931 . S
C1719 H1707 0.929 . S
C1719 C1713 1.390 . S
C1719 C1716 1.386 . S
C1720 C1715 1.490 . S
C1720 C1722 1.395 . S
C1720 C1723 1.403 . S
H1721 C1727 0.930 . S
C1722 H1708 0.930 . S
C1722 C1720 1.395 . S
C1722 C1725 1.403 . S
C1723 C1720 1.403 . S
C1723 C1724 1.524 . S
C1723 C1727 1.400 . S
C1724 H1709 0.960 . S
C1724 H1710 0.960 . S
C1724 H1711 0.960 . S
C1724 C1723 1.524 . S
C1725 C1722 1.403 . S
C1725 C1726 1.392 . S
C1725 C1729 1.495 . S
C1726 C1725 1.392 . S
C1726 C1727 1.385 . S
C1726 C1728 1.478 . S
C1727 H1721 0.930 . S
C1727 C1723 1.400 . S
C1727 C1726 1.385 . S
C1728 C1726 1.478 . S
C1728 C1730 1.381 . S
C1728 C1734 1.383 . S
C1729 C1725 1.495 . S
C1729 H1735 0.959 . S
C1729 H1736 0.961 . S
C1729 H1737 0.960 . S
C1730 C1728 1.381 . S
C1730 C1731 1.394 . S
C1730 H1738 0.930 . S
C1731 C1730 1.394 . S
C1731 C1732 1.383 . S
C1731 H1739 0.929 . S
C1732 C1731 1.383 . S
C1732 C1733 1.377 . S
C1733 H1717 0.930 . S
C1733 C1732 1.377 . S
C1733 C1734 1.379 . S
C1734 H1718 0.931 . S
C1734 C1728 1.383 . S
C1734 C1733 1.379 . S
H1735 C1729 0.959 . S
H1736 C1729 0.961 . S
H1737 C1729 0.960 . S
H1738 C1730 0.930 . S
H1739 C1731 0.929 . S
H1740 C1748 0.929 . S
H1741 C1750 0.930 . S
H1742 C1752 0.930 . S
H1743 C1755 0.929 . S
H1744 C1758 0.930 . S
H1745 C1760 0.960 . S
H1746 C1760 0.960 . S
H1747 C1760 0.960 . S
C1748 H1740 0.929 . S
C1748 C1749 1.377 . S
C1748 C1750 1.384 . S
C1749 C1748 1.377 . S
C1749 C1755 1.390 . S
C1750 H1741 0.930 . S
C1750 C1748 1.384 . S
C1750 C1751 1.372 . S
C1751 C1750 1.372 . S
C1751 C1752 1.400 . S
C1751 C1756 1.490 . S
C1752 H1742 0.930 . S
C1752 C1751 1.400 . S
C1752 C1755 1.386 . S
H1753 C1769 0.930 . S
H1754 C1770 0.931 . S
C1755 H1743 0.929 . S
C1755 C1749 1.390 . S
C1755 C1752 1.386 . S
C1756 C1751 1.490 . S
C1756 C1758 1.395 . S
C1756 C1759 1.403 . S
H1757 C1763 0.930 . S
C1758 H1744 0.930 . S
C1758 C1756 1.395 . S
C1758 C1761 1.403 . S
C1759 C1756 1.403 . S
C1759 C1760 1.524 . S
C1759 C1763 1.400 . S
C1760 H1745 0.960 . S
C1760 H1746 0.960 . S
C1760 H1747 0.960 . S
C1760 C1759 1.524 . S
C1761 C1758 1.403 . S
C1761 C1762 1.392 . S
C1761 C1765 1.495 . S
C1762 C1761 1.392 . S
C1762 C1763 1.385 . S
C1762 C1764 1.478 . S
C1763 H1757 0.930 . S
C1763 C1759 1.400 . S
C1763 C1762 1.385 . S
C1764 C1762 1.478 . S
C1764 C1766 1.381 . S
C1764 C1770 1.383 . S
C1765 C1761 1.495 . S
C1765 H1771 0.959 . S
C1765 H1772 0.961 . S
C1765 H1773 0.960 . S
C1766 C1764 1.381 . S
C1766 C1767 1.394 . S
C1766 H1774 0.930 . S
C1767 C1766 1.394 . S
C1767 C1768 1.383 . S
C1767 H1775 0.929 . S
C1768 C1767 1.383 . S
C1768 C1769 1.377 . S
C1769 H1753 0.930 . S
C1769 C1768 1.377 . S
C1769 C1770 1.379 . S
C1770 H1754 0.931 . S
C1770 C1764 1.383 . S
C1770 C1769 1.379 . S
H1771 C1765 0.959 . S
H1772 C1765 0.961 . S
H1773 C1765 0.960 . S
H1774 C1766 0.930 . S
H1775 C1767 0.929 . S
H1776 C1784 0.929 . S
H1777 C1786 0.930 . S
H1778 C1788 0.930 . S
H1779 C1791 0.929 . S
H1780 C1794 0.930 . S
H1781 C1796 0.960 . S
H1782 C1796 0.960 1_565 S
H1783 C1796 0.960 1_565 S
C1784 H1776 0.929 . S
C1784 C1785 1.377 . S
C1784 C1786 1.384 . S
C1785 C1784 1.377 . S
C1785 C1791 1.390 . S
C1786 H1777 0.930 . S
C1786 C1784 1.384 . S
C1786 C1787 1.372 . S
C1787 C1786 1.372 . S
C1787 C1788 1.400 . S
C1787 C1792 1.488 1_565 S
C1788 H1778 0.930 . S
C1788 C1787 1.400 . S
C1788 C1791 1.386 . S
H1789 C1805 0.930 . S
H1790 C1806 0.931 . S
C1791 H1779 0.929 . S
C1791 C1785 1.390 . S
C1791 C1788 1.386 . S
C1792 C1787 1.488 1_545 S
C1792 C1794 1.395 . S
C1792 C1795 1.404 . S
H1793 C1799 0.930 . S
C1794 H1780 0.930 . S
C1794 C1792 1.395 . S
C1794 C1797 1.403 . S
C1795 C1792 1.404 . S
C1795 C1796 1.524 . S
C1795 C1799 1.400 . S
C1796 H1781 0.960 . S
C1796 H1782 0.960 1_545 S
C1796 H1783 0.960 1_545 S
C1796 C1795 1.524 . S
C1797 C1794 1.403 . S
C1797 C1798 1.392 . S
C1797 C1801 1.495 . S
C1798 C1797 1.392 . S
C1798 C1799 1.385 . S
C1798 C1800 1.478 . S
C1799 H1793 0.930 . S
C1799 C1795 1.400 . S
C1799 C1798 1.385 . S
C1800 C1798 1.478 . S
C1800 C1802 1.381 . S
C1800 C1806 1.383 . S
C1801 C1797 1.495 . S
C1801 H1807 0.959 . S
C1801 H1808 0.961 . S
C1801 H1809 0.960 . S
C1802 C1800 1.381 . S
C1802 C1803 1.394 . S
C1802 H1810 0.930 . S
C1803 C1802 1.394 . S
C1803 C1804 1.383 . S
C1803 H1811 0.929 . S
C1804 C1803 1.383 . S
C1804 C1805 1.377 . S
C1805 H1789 0.930 . S
C1805 C1804 1.377 . S
C1805 C1806 1.379 . S
C1806 H1790 0.931 . S
C1806 C1800 1.383 . S
C1806 C1805 1.379 . S
H1807 C1801 0.959 . S
H1808 C1801 0.961 . S
H1809 C1801 0.960 . S
H1810 C1802 0.930 . S
H1811 C1803 0.929 . S
H1812 C1820 0.929 . S
H1813 C1822 0.930 . S
H1814 C1824 0.930 . S
H1815 C1827 0.929 . S
H1816 C1830 0.930 . S
H1817 C1832 0.960 . S
H1818 C1832 0.960 . S
H1819 C1832 0.960 . S
C1820 H1812 0.929 . S
C1820 C1821 1.377 . S
C1820 C1822 1.384 . S
C1821 C1820 1.377 . S
C1821 C1827 1.390 . S
C1822 H1813 0.930 . S
C1822 C1820 1.384 . S
C1822 C1823 1.372 . S
C1823 C1822 1.372 . S
C1823 C1824 1.400 . S
C1823 C1828 1.490 . S
C1824 H1814 0.930 . S
C1824 C1823 1.400 . S
C1824 C1827 1.386 . S
H1825 C1841 0.930 . S
H1826 C1842 0.931 . S
C1827 H1815 0.929 . S
C1827 C1821 1.390 . S
C1827 C1824 1.386 . S
C1828 C1823 1.490 . S
C1828 C1830 1.395 . S
C1828 C1831 1.403 . S
H1829 C1835 0.930 . S
C1830 H1816 0.930 . S
C1830 C1828 1.395 . S
C1830 C1833 1.403 . S
C1831 C1828 1.403 . S
C1831 C1832 1.524 . S
C1831 C1835 1.400 . S
C1832 H1817 0.960 . S
C1832 H1818 0.960 . S
C1832 H1819 0.960 . S
C1832 C1831 1.524 . S
C1833 C1830 1.403 . S
C1833 C1834 1.392 1_565 S
C1833 C1837 1.495 1_565 S
C1834 C1833 1.392 1_545 S
C1834 C1835 1.385 1_545 S
C1834 C1836 1.478 . S
C1835 H1829 0.930 . S
C1835 C1831 1.400 . S
C1835 C1834 1.385 1_565 S
C1836 C1834 1.478 . S
C1836 C1838 1.381 . S
C1836 C1842 1.383 . S
C1837 C1833 1.495 1_545 S
C1837 H1843 0.959 1_545 S
C1837 H1844 0.961 . S
C1837 H1845 0.960 . S
C1838 C1836 1.381 . S
C1838 C1839 1.394 . S
C1838 H1846 0.930 . S
C1839 C1838 1.394 . S
C1839 C1840 1.383 . S
C1839 H1847 0.929 . S
C1840 C1839 1.383 . S
C1840 C1841 1.377 . S
C1841 H1825 0.930 . S
C1841 C1840 1.377 . S
C1841 C1842 1.379 . S
C1842 H1826 0.931 . S
C1842 C1836 1.383 . S
C1842 C1841 1.379 . S
H1843 C1837 0.959 1_565 S
H1844 C1837 0.961 . S
H1845 C1837 0.960 . S
H1846 C1838 0.930 . S
H1847 C1839 0.929 . S
H1848 C1856 0.929 . S
H1849 C1858 0.930 . S
H1850 C1860 0.930 . S
H1851 C1863 0.929 . S
H1852 C1866 0.930 . S
H1853 C1868 0.960 . S
H1854 C1868 0.960 1_545 S
H1855 C1868 0.960 1_545 S
C1856 H1848 0.929 . S
C1856 C1857 1.377 . S
C1856 C1858 1.384 . S
C1857 C1856 1.377 . S
C1857 C1863 1.390 . S
C1858 H1849 0.930 . S
C1858 C1856 1.384 . S
C1858 C1859 1.372 . S
C1859 C1858 1.372 . S
C1859 C1860 1.400 . S
C1859 C1864 1.475 1_545 S
C1860 H1850 0.930 . S
C1860 C1859 1.400 . S
C1860 C1863 1.386 . S
H1861 C1877 0.930 . S
H1862 C1878 0.931 . S
C1863 H1851 0.929 . S
C1863 C1857 1.390 . S
C1863 C1860 1.386 . S
C1864 C1859 1.475 1_565 S
C1864 C1866 1.402 . S
C1864 C1867 1.410 . S
H1865 C1871 0.930 . S
C1866 H1852 0.930 . S
C1866 C1864 1.402 . S
C1866 C1869 1.403 . S
C1867 C1864 1.410 . S
C1867 C1868 1.524 . S
C1867 C1871 1.400 . S
C1868 H1853 0.960 . S
C1868 H1854 0.960 1_565 S
C1868 H1855 0.960 1_565 S
C1868 C1867 1.524 . S
C1869 C1866 1.403 . S
C1869 C1870 1.392 . S
C1869 C1873 1.495 . S
C1870 C1869 1.392 . S
C1870 C1871 1.385 . S
C1870 C1872 1.478 . S
C1871 H1865 0.930 . S
C1871 C1867 1.400 . S
C1871 C1870 1.385 . S
C1872 C1870 1.478 . S
C1872 C1874 1.381 . S
C1872 C1878 1.383 . S
C1873 C1869 1.495 . S
C1873 H1879 0.959 . S
C1873 H1880 0.961 . S
C1873 H1881 0.960 . S
C1874 C1872 1.381 . S
C1874 C1875 1.394 . S
C1874 H1882 0.930 . S
C1875 C1874 1.394 . S
C1875 C1876 1.383 . S
C1875 H1883 0.929 . S
C1876 C1875 1.383 . S
C1876 C1877 1.377 . S
C1877 H1861 0.930 . S
C1877 C1876 1.377 . S
C1877 C1878 1.379 . S
C1878 H1862 0.931 . S
C1878 C1872 1.383 . S
C1878 C1877 1.379 . S
H1879 C1873 0.959 . S
H1880 C1873 0.961 . S
H1881 C1873 0.960 . S
H1882 C1874 0.930 . S
H1883 C1875 0.929 . S
H1884 C1892 0.929 . S
H1885 C1894 0.930 . S
H1886 C1896 0.930 . S
H1887 C1899 0.929 . S
H1888 C1902 0.930 . S
H1889 C1904 0.960 . S
H1890 C1904 0.960 1_565 S
H1891 C1904 0.960 1_565 S
C1892 H1884 0.929 . S
C1892 C1893 1.377 . S
C1892 C1894 1.384 . S
C1893 C1892 1.377 . S
C1893 C1899 1.390 . S
C1894 H1885 0.930 . S
C1894 C1892 1.384 . S
C1894 C1895 1.372 . S
C1895 C1894 1.372 . S
C1895 C1896 1.400 . S
C1895 C1900 1.476 1_565 S
C1896 H1886 0.930 . S
C1896 C1895 1.400 . S
C1896 C1899 1.386 . S
H1897 C1913 0.930 . S
H1898 C1914 0.931 . S
C1899 H1887 0.929 . S
C1899 C1893 1.390 . S
C1899 C1896 1.386 . S
C1900 C1895 1.476 1_545 S
C1900 C1902 1.401 . S
C1900 C1903 1.410 . S
H1901 C1907 0.930 . S
C1902 H1888 0.930 . S
C1902 C1900 1.401 . S
C1902 C1905 1.403 . S
C1903 C1900 1.410 . S
C1903 C1904 1.524 . S
C1903 C1907 1.400 . S
C1904 H1889 0.960 . S
C1904 H1890 0.960 1_545 S
C1904 H1891 0.960 1_545 S
C1904 C1903 1.524 . S
C1905 C1902 1.403 . S
C1905 C1906 1.392 . S
C1905 C1909 1.495 . S
C1906 C1905 1.392 . S
C1906 C1907 1.385 . S
C1906 C1908 1.478 . S
C1907 H1901 0.930 . S
C1907 C1903 1.400 . S
C1907 C1906 1.385 . S
C1908 C1906 1.478 . S
C1908 C1910 1.381 . S
C1908 C1914 1.383 . S
C1909 C1905 1.495 . S
C1909 H1915 0.959 . S
C1909 H1916 0.961 . S
C1909 H1917 0.960 . S
C1910 C1908 1.381 . S
C1910 C1911 1.394 . S
C1910 H1918 0.930 . S
C1911 C1910 1.394 . S
C1911 C1912 1.383 . S
C1911 H1919 0.929 . S
C1912 C1911 1.383 . S
C1912 C1913 1.377 . S
C1913 H1897 0.930 . S
C1913 C1912 1.377 . S
C1913 C1914 1.379 . S
C1914 H1898 0.931 . S
C1914 C1908 1.383 . S
C1914 C1913 1.379 . S
H1915 C1909 0.959 . S
H1916 C1909 0.961 . S
H1917 C1909 0.960 . S
H1918 C1910 0.930 . S
H1919 C1911 0.929 . S
H1920 C1928 0.929 . S
H1921 C1930 0.930 . S
H1922 C1932 0.930 . S
H1923 C1935 0.929 . S
H1924 C1938 0.930 . S
H1925 C1940 0.960 . S
H1926 C1940 0.960 . S
H1927 C1940 0.960 . S
C1928 H1920 0.929 . S
C1928 C1929 1.377 . S
C1928 C1930 1.384 . S
C1929 C1928 1.377 . S
C1929 C1935 1.390 . S
C1930 H1921 0.930 . S
C1930 C1928 1.384 . S
C1930 C1931 1.372 . S
C1931 C1930 1.372 . S
C1931 C1932 1.400 . S
C1931 C1936 1.490 . S
C1932 H1922 0.930 . S
C1932 C1931 1.400 . S
C1932 C1935 1.386 . S
H1933 C1949 0.930 . S
H1934 C1950 0.931 . S
C1935 H1923 0.929 . S
C1935 C1929 1.390 . S
C1935 C1932 1.386 . S
C1936 C1931 1.490 . S
C1936 C1938 1.395 . S
C1936 C1939 1.403 . S
H1937 C1943 0.930 . S
C1938 H1924 0.930 . S
C1938 C1936 1.395 . S
C1938 C1941 1.403 . S
C1939 C1936 1.403 . S
C1939 C1940 1.524 . S
C1939 C1943 1.400 . S
C1940 H1925 0.960 . S
C1940 H1926 0.960 . S
C1940 H1927 0.960 . S
C1940 C1939 1.524 . S
C1941 C1938 1.403 . S
C1941 C1942 1.392 1_565 S
C1941 C1945 1.495 1_565 S
C1942 C1941 1.392 1_545 S
C1942 C1943 1.385 1_545 S
C1942 C1944 1.478 . S
C1943 H1937 0.930 . S
C1943 C1939 1.400 . S
C1943 C1942 1.385 1_565 S
C1944 C1942 1.478 . S
C1944 C1946 1.381 . S
C1944 C1950 1.383 . S
C1945 C1941 1.495 1_545 S
C1945 H1951 0.959 1_545 S
C1945 H1952 0.961 . S
C1945 H1953 0.960 . S
C1946 C1944 1.381 . S
C1946 C1947 1.394 . S
C1946 H1954 0.930 . S
C1947 C1946 1.394 . S
C1947 C1948 1.383 . S
C1947 H1955 0.929 . S
C1948 C1947 1.383 . S
C1948 C1949 1.377 . S
C1949 H1933 0.930 . S
C1949 C1948 1.377 . S
C1949 C1950 1.379 . S
C1950 H1934 0.931 . S
C1950 C1944 1.383 . S
C1950 C1949 1.379 . S
H1951 C1945 0.959 1_565 S
H1952 C1945 0.961 . S
H1953 C1945 0.960 . S
H1954 C1946 0.930 . S
H1955 C1947 0.929 . S
H1956 C1964 0.929 . S
H1957 C1966 0.930 . S
H1958 C1968 0.930 . S
H1959 C1971 0.929 . S
H1960 C1974 0.930 . S
H1961 C1976 0.960 . S
H1962 C1976 0.960 . S
H1963 C1976 0.960 . S
C1964 H1956 0.929 . S
C1964 C1965 1.377 . S
C1964 C1966 1.384 . S
C1965 C1964 1.377 . S
C1965 C1971 1.390 . S
C1966 H1957 0.930 . S
C1966 C1964 1.384 . S
C1966 C1967 1.372 . S
C1967 C1966 1.372 . S
C1967 C1968 1.400 . S
C1967 C1972 1.490 . S
C1968 H1958 0.930 . S
C1968 C1967 1.400 . S
C1968 C1971 1.386 . S
H1969 C1985 0.930 . S
H1970 C1986 0.931 . S
C1971 H1959 0.929 . S
C1971 C1965 1.390 . S
C1971 C1968 1.386 . S
C1972 C1967 1.490 . S
C1972 C1974 1.395 . S
C1972 C1975 1.403 . S
H1973 C1979 0.930 1_565 S
C1974 H1960 0.930 . S
C1974 C1972 1.395 . S
C1974 C1977 1.403 . S
C1975 C1972 1.403 . S
C1975 C1976 1.524 . S
C1975 C1979 1.400 . S
C1976 H1961 0.960 . S
C1976 H1962 0.960 . S
C1976 H1963 0.960 . S
C1976 C1975 1.524 . S
C1977 C1974 1.403 . S
C1977 C1978 1.391 1_545 S
C1977 C1981 1.495 . S
C1978 C1977 1.391 1_565 S
C1978 C1979 1.384 1_565 S
C1978 C1980 1.480 . S
C1979 H1973 0.930 1_545 S
C1979 C1975 1.400 . S
C1979 C1978 1.384 1_545 S
C1980 C1978 1.480 . S
C1980 C1982 1.381 . S
C1980 C1986 1.383 . S
C1981 C1977 1.495 . S
C1981 H1987 0.959 . S
C1981 H1988 0.961 1_545 S
C1981 H1989 0.960 1_545 S
C1982 C1980 1.381 . S
C1982 C1983 1.394 . S
C1982 H1990 0.930 . S
C1983 C1982 1.394 . S
C1983 C1984 1.383 . S
C1983 H1991 0.929 . S
C1984 C1983 1.383 . S
C1984 C1985 1.377 . S
C1985 H1969 0.930 . S
C1985 C1984 1.377 . S
C1985 C1986 1.379 . S
C1986 H1970 0.931 . S
C1986 C1980 1.383 . S
C1986 C1985 1.379 . S
H1987 C1981 0.959 . S
H1988 C1981 0.961 1_565 S
H1989 C1981 0.960 1_565 S
H1990 C1982 0.930 . S
H1991 C1983 0.929 . S
H1992 C2000 0.929 . S
H1993 C2002 0.930 . S
H1994 C2004 0.930 . S
H1995 C2007 0.929 . S
H1996 C2010 0.930 . S
H1997 C2012 0.960 . S
H1998 C2012 0.960 1_565 S
H1999 C2012 0.960 1_565 S
C2000 H1992 0.929 . S
C2000 C2001 1.377 . S
C2000 C2002 1.384 . S
C2001 C2000 1.377 . S
C2001 C2007 1.390 . S
C2002 H1993 0.930 . S
C2002 C2000 1.384 . S
C2002 C2003 1.372 . S
C2003 C2002 1.372 . S
C2003 C2004 1.400 . S
C2003 C2008 1.488 1_565 S
C2004 H1994 0.930 . S
C2004 C2003 1.400 . S
C2004 C2007 1.386 . S
H2005 C2021 0.930 . S
H2006 C2022 0.931 . S
C2007 H1995 0.929 . S
C2007 C2001 1.390 . S
C2007 C2004 1.386 . S
C2008 C2003 1.488 1_545 S
C2008 C2010 1.395 . S
C2008 C2011 1.404 . S
H2009 C2015 0.930 . S
C2010 H1996 0.930 . S
C2010 C2008 1.395 . S
C2010 C2013 1.403 . S
C2011 C2008 1.404 . S
C2011 C2012 1.524 . S
C2011 C2015 1.400 . S
C2012 H1997 0.960 . S
C2012 H1998 0.960 1_545 S
C2012 H1999 0.960 1_545 S
C2012 C2011 1.524 . S
C2013 C2010 1.403 . S
C2013 C2014 1.392 . S
C2013 C2017 1.495 . S
C2014 C2013 1.392 . S
C2014 C2015 1.385 . S
C2014 C2016 1.478 . S
C2015 H2009 0.930 . S
C2015 C2011 1.400 . S
C2015 C2014 1.385 . S
C2016 C2014 1.478 . S
C2016 C2018 1.381 . S
C2016 C2022 1.383 . S
C2017 C2013 1.495 . S
C2017 H2023 0.959 . S
C2017 H2024 0.961 . S
C2017 H2025 0.960 . S
C2018 C2016 1.381 . S
C2018 C2019 1.394 . S
C2018 H2026 0.930 . S
C2019 C2018 1.394 . S
C2019 C2020 1.383 . S
C2019 H2027 0.929 . S
C2020 C2019 1.383 . S
C2020 C2021 1.377 . S
C2021 H2005 0.930 . S
C2021 C2020 1.377 . S
C2021 C2022 1.379 . S
C2022 H2006 0.931 . S
C2022 C2016 1.383 . S
C2022 C2021 1.379 . S
H2023 C2017 0.959 . S
H2024 C2017 0.961 . S
H2025 C2017 0.960 . S
H2026 C2018 0.930 . S
H2027 C2019 0.929 . S
H2028 C2036 0.929 . S
H2029 C2038 0.930 . S
H2030 C2040 0.930 . S
H2031 C2043 0.929 . S
H2032 C2046 0.930 . S
H2033 C2048 0.960 . S
H2034 C2048 0.960 . S
H2035 C2048 0.960 . S
C2036 H2028 0.929 . S
C2036 C2037 1.377 . S
C2036 C2038 1.384 . S
C2037 C2036 1.377 . S
C2037 C2043 1.390 . S
C2038 H2029 0.930 . S
C2038 C2036 1.384 . S
C2038 C2039 1.372 . S
C2039 C2038 1.372 . S
C2039 C2040 1.400 . S
C2039 C2044 1.490 . S
C2040 H2030 0.930 . S
C2040 C2039 1.400 . S
C2040 C2043 1.386 . S
H2041 C2057 0.930 . S
H2042 C2058 0.931 . S
C2043 H2031 0.929 . S
C2043 C2037 1.390 . S
C2043 C2040 1.386 . S
C2044 C2039 1.490 . S
C2044 C2046 1.395 . S
C2044 C2047 1.403 . S
H2045 C2051 0.930 . S
C2046 H2032 0.930 . S
C2046 C2044 1.395 . S
C2046 C2049 1.403 . S
C2047 C2044 1.403 . S
C2047 C2048 1.524 . S
C2047 C2051 1.400 . S
C2048 H2033 0.960 . S
C2048 H2034 0.960 . S
C2048 H2035 0.960 . S
C2048 C2047 1.524 . S
C2049 C2046 1.403 . S
C2049 C2050 1.392 1_565 S
C2049 C2053 1.495 1_565 S
C2050 C2049 1.392 1_545 S
C2050 C2051 1.385 1_545 S
C2050 C2052 1.478 . S
C2051 H2045 0.930 . S
C2051 C2047 1.400 . S
C2051 C2050 1.385 1_565 S
C2052 C2050 1.478 . S
C2052 C2054 1.381 . S
C2052 C2058 1.383 . S
C2053 C2049 1.495 1_545 S
C2053 H2059 0.959 1_545 S
C2053 H2060 0.961 . S
C2053 H2061 0.960 . S
C2054 C2052 1.381 . S
C2054 C2055 1.394 . S
C2054 H2062 0.930 . S
C2055 C2054 1.394 . S
C2055 C2056 1.383 . S
C2055 H2063 0.929 . S
C2056 C2055 1.383 . S
C2056 C2057 1.377 . S
C2057 H2041 0.930 . S
C2057 C2056 1.377 . S
C2057 C2058 1.379 . S
C2058 H2042 0.931 . S
C2058 C2052 1.383 . S
C2058 C2057 1.379 . S
H2059 C2053 0.959 1_565 S
H2060 C2053 0.961 . S
H2061 C2053 0.960 . S
H2062 C2054 0.930 . S
H2063 C2055 0.929 . S
C345 C19 1.365 . S
C364 C209 1.351 . S
C381 C41 1.362 . S
C400 C187 1.332 . S
C417 C251 1.374 . S
C436 C61 1.393 . S
C453 C82 1.366 . S
C472 C229 1.356 . S
C489 C292 1.376 . S
C508 C103 1.337 . S
C525 C271 1.377 . S
C544 C124 1.346 . S
C561 C335 1.372 . S
C580 C145 1.382 . S
C597 C166 1.371 . S
C616 C313 1.388 . S
C633 C46 1.278 . S
C652 C4 1.308 . S
C669 C67 1.265 . S
C688 C28 1.250 . S
C705 C130 1.260 . S
C724 C88 1.287 . S
C741 C109 1.264 . S
C760 C151 1.255 . S
C777 C214 1.277 . S
C796 C172 1.304 . S
C813 C238 1.261 . S
C832 C196 1.227 . S
C849 C256 1.278 . S
C868 C298 1.255 . S
C885 C277 1.261 . S
C904 C322 1.274 . S
C921 C112 1.276 . S
C940 C7 1.309 . S
C957 C91 1.267 . S
C976 C25 1.264 . S
C993 C49 1.284 . S
C1012 C154 1.237 . S
C1029 C133 1.271 . S
C1048 C70 1.241 . S
C1065 C175 1.265 . S
C1084 C280 1.276 . S
C1101 C259 1.266 . S
C1120 C193 1.314 . S
C1137 C217 1.278 . S
C1156 C319 1.224 . S
C1173 C301 1.267 . S
C1192 C235 1.316 . S
C1209 C37 1.369 . S
C1228 C3 1.364 . S
C1245 C66 1.358 . S
C1264 C45 1.381 . S
C1281 C108 1.359 . S
C1300 C87 1.329 . S
C1317 C129 1.368 . S
C1336 C150 1.403 . S
C1353 C205 1.367 . S
C1372 C171 1.372 . S
C1389 C247 1.359 . S
C1408 C213 1.374 . S
C1425 C255 1.374 . S
C1444 C276 1.362 . S
C1461 C297 1.374 . S
C1480 C331 1.369 . S
C1497 C16 1.114 . S
C1516 C20 1.169 . S
C1533 C24 1.112 . S
C1552 C40 1.139 . S
C1569 C58 1.117 . S
C1588 C62 1.104 . S
C1605 C83 1.127 . S
C1624 C79 1.128 . S
C1641 C100 1.122 . S
C1660 C104 1.147 . S
C1677 C125 1.131 . S
C1696 C121 1.086 . S
C1713 C142 1.115 . S
C1732 C146 1.097 . S
C1749 C163 1.125 . S
C1768 C167 1.136 . S
C1785 C188 1.138 . S
C1804 C184 1.072 . S
C1821 C192 1.112 . S
C1840 C208 1.160 . S
C1857 C230 1.137 . S
C1876 C226 1.162 . S
C1893 C250 1.130 . S
C1912 C234 1.163 . S
C1929 C268 1.130 . S
C1948 C272 1.174 . S
C1965 C289 1.112 . S
C1984 C293 1.091 . S
C2001 C314 1.142 . S
C2020 C310 1.139 . S
C2037 C318 1.132 . S
C2056 C334 1.176 . S
