# Generated by pormake.
# Topology bcu, (8)-cn, num edge types: 1
# Building blocks:
#     Node 0, Type 0, BuildingBlock: LIZSOE_clean_sbu_0, # of connection points: 8
#     Node 1, Type 0, BuildingBlock: LIZSOE_clean_sbu_0, # of connection points: 8
#     Edge 2, Type (0, 0), BuildingBlock: UVAHIK_clean_linker_0, # of connection points: 2
#     Edge 3, Type (0, 0), BuildingBlock: UVAHIK_clean_linker_0, # of connection points: 2
#     Edge 4, Type (0, 0), BuildingBlock: UVAHIK_clean_linker_0, # of connection points: 2
#     Edge 5, Type (0, 0), BuildingBlock: UVAHIK_clean_linker_0, # of connection points: 2
#     Edge 6, Type (0, 0), BuildingBlock: UVAHIK_clean_linker_0, # of connection points: 2
#     Edge 7, Type (0, 0), BuildingBlock: UVAHIK_clean_linker_0, # of connection points: 2
#     Edge 8, Type (0, 0), BuildingBlock: UVAHIK_clean_linker_0, # of connection points: 2
#     Edge 9, Type (0, 0), BuildingBlock: UVAHIK_clean_linker_0, # of connection points: 2
# Relax obj value: 0.010
# Max RMSD: 0.048
# Mean RMSD: 0.048
data_MOF--net-bcu--node1-LIZSOE_clean_sbu_0--edge1-UVAHIK_clean_linker_0
_symmetry_space_group_name_H-M    P1
_symmetry_Int_Tables_number       1
_symmetry_cell_setting            triclinic
loop_
_symmetry_equiv_pos_as_xyz
'x, y, z'
_cell_length_a     25.251104
_cell_length_b     25.798405
_cell_length_c     25.486727
_cell_angle_alpha  110.30215
_cell_angle_beta   69.555763
_cell_angle_gamma 106.7014
loop_
_atom_site_label
_atom_site_type_symbol
_atom_site_fract_x
_atom_site_fract_y
_atom_site_fract_z
_atom_type_partial_charge
Co0 Co 0.10051 0.95865 0.05686 0.0
N1 N 0.11949 0.94917 0.11618 0.0
C2 C 0.09435 0.96742 0.17375 0.0
N3 N 0.1595 0.92132 0.16523 0.0
C4 C 0.1597 0.922 0.11223 0.0
C5 C 0.11869 0.95027 0.20389 0.0
Co6 Co 0.93657 0.03389 0.95226 0.0
N7 N 0.91185 0.04139 0.89506 0.0
N8 N 0.88688 0.07269 0.83662 0.0
C9 C 0.85945 0.01909 0.83344 0.0
C10 C 0.87437 1.00028 0.86947 0.0
C11 C 0.91888 0.08535 0.87408 0.0
Co12 Co 1.02033 0.99703 0.00323 0.0
C13 C 0.94967 0.08467 0.02888 0.0
H14 H 0.85701 0.95965 0.8782 0.0
O15 O 0.08484 0.96214 0.99648 0.0
O16 O 0.07553 0.03684 0.94402 0.0
O17 O 0.04355 0.06482 0.06656 0.0
O18 O 0.96374 0.95736 0.06175 0.0
O19 O 1.02299 0.93618 0.09479 0.0
O20 O 1.01372 0.05542 0.91127 0.0
O21 O 0.95633 0.03221 0.0105 0.0
O22 O 0.94062 0.96001 0.9118 0.0
O23 O 0.09741 0.03268 0.0976 0.0
O24 O 0.1013 0.88876 0.0127 0.0
O25 O 0.99746 0.92895 0.93992 0.0
O26 O 0.93482 0.10392 0.99625 0.0
C27 C 0.07451 0.07138 0.09978 0.0
C28 C 0.95698 0.14144 0.89086 0.0
H29 H 0.99493 0.13723 0.90003 0.0
H30 H 0.97209 0.1628 0.85578 0.0
H31 H 0.93234 0.16844 0.93105 0.0
C32 C 0.06479 0.05678 0.91012 0.0
C33 C 0.97268 0.93583 0.09522 0.0
H34 H 0.05999 0.99116 0.19258 0.0
H35 H 0.18383 0.85523 0.03582 0.0
H36 H 0.24326 0.90079 0.06283 0.0
H37 H 0.20969 0.92433 0.02499 0.0
C38 C 0.2019 0.8995 0.05577 0.0
C39 C 0.09152 0.90962 0.97794 0.0
C40 C 0.96486 0.92181 0.90818 0.0
H41 H 0.10622 0.95713 0.25062 0.0
H42 H 0.82828 0.99611 0.80912 0.0
Co43 Co 0.58516 0.43844 0.55499 0.0
N44 N 0.6045 0.42703 0.61302 0.0
C45 C 0.5924 0.4554 0.66999 0.0
N46 N 0.63993 0.39109 0.65938 0.0
C47 C 0.63281 0.38754 0.60782 0.0
C48 C 0.6146 0.43386 0.69835 0.0
Co49 Co 0.4561 0.55088 0.44773 0.0
N50 N 0.44147 0.56455 0.38802 0.0
N51 N 0.4109 0.60006 0.33748 0.0
C52 C 0.44479 0.56355 0.29948 0.0
C53 C 0.46294 0.54135 0.33055 0.0
C54 C 0.40915 0.59968 0.39106 0.0
Co55 Co 0.52181 0.4964 0.50196 0.0
C56 C 0.47096 0.59837 0.52485 0.0
H57 H 0.49073 0.51074 0.31237 0.0
O58 O 0.57309 0.44698 0.49578 0.0
O59 O 0.58462 0.52608 0.43907 0.0
O60 O 0.5553 0.56122 0.5604 0.0
O61 O 0.45966 0.46592 0.5657 0.0
O62 O 0.50826 0.42716 0.59636 0.0
O63 O 0.53389 0.55833 0.40586 0.0
O64 O 0.46831 0.54383 0.50792 0.0
O65 O 0.44399 0.47472 0.41136 0.0
O66 O 0.59337 0.51537 0.59332 0.0
O67 O 0.65687 0.4512 0.51041 0.0
O68 O 0.48776 0.4318 0.44289 0.0
O69 O 0.46958 0.62234 0.48812 0.0
C70 C 0.5822 0.56035 0.59404 0.0
C71 C 0.37901 0.63646 0.4475 0.0
H72 H 0.40871 0.6771 0.45848 0.0
H73 H 0.34 0.6456 0.4448 0.0
H74 H 0.36683 0.61615 0.48304 0.0
C75 C 0.58112 0.54904 0.40384 0.0
C76 C 0.4619 0.43909 0.59871 0.0
H77 H 0.56854 0.48929 0.68985 0.0
H78 H 0.62336 0.30439 0.55033 0.0
H79 H 0.69694 0.33932 0.54649 0.0
H80 H 0.65456 0.35776 0.51342 0.0
C81 C 0.65355 0.3453 0.55116 0.0
C82 C 0.62897 0.45073 0.47583 0.0
C83 C 0.4576 0.43094 0.41106 0.0
H84 H 0.6119 0.4482 0.74432 0.0
H85 H 0.45604 0.55414 0.25252 0.0
C86 C 0.08096 0.12882 0.19777 0.0
C87 C 0.09098 0.12628 0.13923 0.0
C88 C 0.11799 0.16651 0.22996 0.0
C89 C 0.27102 0.22911 0.19954 0.0
H90 H 0.23551 0.29966 0.36587 0.0
C91 C 0.44102 0.37446 0.31618 0.0
C92 C 0.43243 0.37804 0.37469 0.0
C93 C 0.40124 0.33889 0.28633 0.0
C94 C 0.24618 0.27927 0.31952 0.0
H95 H 0.14382 0.16462 0.07011 0.0
H96 H 0.20788 0.23189 0.12679 0.0
H97 H 0.15766 0.25818 0.31929 0.0
H98 H 0.37787 0.34457 0.44685 0.0
H99 H 0.30889 0.28055 0.3941 0.0
H100 H 0.35935 0.2495 0.19965 0.0
C101 C 0.17192 0.20411 0.14762 0.0
C102 C 0.20151 0.25603 0.29274 0.0
C103 C 0.13451 0.16652 0.11553 0.0
C104 C 0.38613 0.3416 0.40131 0.0
C105 C 0.346 0.30596 0.37146 0.0
C106 C 0.3156 0.25211 0.2263 0.0
C107 C 0.16605 0.20215 0.20398 0.0
C108 C 0.21339 0.23085 0.23235 0.0
C109 C 0.35167 0.30625 0.31452 0.0
C110 C 0.30387 0.27764 0.28664 0.0
H111 H 0.04836 0.09739 0.21657 0.0
H112 H 0.1121 0.16374 0.27315 0.0
H113 H 0.28168 0.20869 0.15318 0.0
H114 H 0.47577 0.40305 0.29516 0.0
H115 H 0.40708 0.34063 0.24278 0.0
C116 C 0.88804 0.10028 0.12949 0.0
C117 C 0.93976 0.11764 0.09031 0.0
C118 C 0.85865 0.1402 0.17495 0.0
C119 C 0.79943 0.23143 0.27031 0.0
H120 H 0.81835 0.36589 0.22475 0.0
C121 C 0.63299 0.37525 0.38377 0.0
C122 C 0.6571 0.42907 0.41332 0.0
C123 C 0.66854 0.33999 0.33921 0.0
C124 C 0.8126 0.3285 0.23791 0.0
H125 H 1.00568 0.18923 0.07283 0.0
H126 H 0.95757 0.25856 0.15513 0.0
H127 H 0.88251 0.29915 0.16681 0.0
H128 H 0.73578 0.49091 0.4143 0.0
H129 H 0.79737 0.43063 0.33403 0.0
H130 H 0.7278 0.26031 0.34013 0.0
C131 C 0.93736 0.21459 0.14898 0.0
C132 C 0.84995 0.29041 0.20525 0.0
C133 C 0.96597 0.17471 0.10272 0.0
C134 C 0.716 0.44988 0.39176 0.0
C135 C 0.75138 0.41506 0.34635 0.0
C136 C 0.76143 0.26897 0.30217 0.0
C137 C 0.88124 0.19831 0.18295 0.0
C138 C 0.84403 0.24113 0.22085 0.0
C139 C 0.72849 0.35861 0.32236 0.0
C140 C 0.76745 0.31778 0.28621 0.0
H141 H 0.86633 0.05664 0.12026 0.0
H142 H 0.81583 0.12536 0.19987 0.0
H143 H 0.79373 0.19486 0.28471 0.0
H144 H 0.58794 0.35772 0.39993 0.0
H145 H 0.64969 0.29687 0.32078 0.0
C146 C 0.93078 0.9014 0.18367 0.0
C147 C 0.92484 0.90381 0.13181 0.0
C148 C 0.89354 0.8619 0.21236 0.0
C149 C 0.75549 0.75957 0.2219 0.0
H150 H 0.8296 0.68578 0.27871 0.0
C151 C 0.62929 0.56983 0.30855 0.0
C152 C 0.63286 0.5722 0.36312 0.0
C153 C 0.66916 0.60538 0.27632 0.0
C154 C 0.80821 0.70618 0.26343 0.0
H155 H 0.87332 0.86859 0.07085 0.0
H156 H 0.80781 0.79891 0.12099 0.0
H157 H 0.8865 0.76071 0.23308 0.0
H158 H 0.68342 0.61034 0.42486 0.0
H159 H 0.75383 0.67283 0.36827 0.0
H160 H 0.67721 0.70506 0.25227 0.0
C161 C 0.84121 0.82803 0.13974 0.0
C162 C 0.84072 0.74934 0.23745 0.0
C163 C 0.87846 0.86813 0.11114 0.0
C164 C 0.68012 0.60726 0.38257 0.0
C165 C 0.72012 0.64328 0.3503 0.0
C166 C 0.72303 0.71634 0.24773 0.0
C167 C 0.84958 0.82327 0.18966 0.0
C168 C 0.81471 0.77687 0.21668 0.0
C169 C 0.71343 0.64447 0.29809 0.0
C170 C 0.74895 0.68914 0.26891 0.0
H171 H 0.9658 0.92872 0.20096 0.0
H172 H 0.90024 0.86067 0.2516 0.0
H173 H 0.73389 0.7802 0.20709 0.0
H174 H 0.59356 0.54276 0.29231 0.0
H175 H 0.66373 0.604 0.2355 0.0
C176 C 0.19758 0.83682 0.14722 0.0
C177 C 0.19131 0.89232 0.17929 0.0
C178 C 0.22463 0.80729 0.16375 0.0
C179 C 0.25374 0.79996 0.2912 0.0
H180 H 0.36604 0.71115 0.17797 0.0
C181 C 0.3278 0.63377 0.34017 0.0
C182 C 0.38726 0.63521 0.32208 0.0
C183 C 0.30508 0.66699 0.32347 0.0
C184 C 0.33496 0.73602 0.21008 0.0
H185 H 0.2077 0.96034 0.25386 0.0
H186 H 0.25472 0.90847 0.28334 0.0
H187 H 0.32578 0.76718 0.14662 0.0
H188 H 0.46956 0.6703 0.27125 0.0
H189 H 0.42999 0.72834 0.24134 0.0
H190 H 0.26268 0.76853 0.35459 0.0
C191 C 0.23898 0.888 0.24523 0.0
C192 C 0.31167 0.76769 0.19209 0.0
C193 C 0.21235 0.91767 0.22835 0.0
C194 C 0.4236 0.6692 0.28598 0.0
C195 C 0.40096 0.70205 0.26883 0.0
C196 C 0.27661 0.76785 0.30909 0.0
C197 C 0.24506 0.83241 0.21324 0.0
C198 C 0.27085 0.79995 0.23248 0.0
C199 C 0.34148 0.70132 0.2875 0.0
C200 C 0.31743 0.7356 0.26868 0.0
H201 H 0.17974 0.81551 0.11065 0.0
H202 H 0.22782 0.76412 0.13896 0.0
H203 H 0.22189 0.82404 0.32311 0.0
H204 H 0.29896 0.60617 0.36627 0.0
H205 H 0.25895 0.66488 0.33756 0.0
C206 C 0.15752 0.90751 0.87938 0.0
C207 C 0.11026 0.88009 0.91552 0.0
C208 C 0.19598 0.87657 0.83292 0.0
C209 C 0.22251 0.73111 0.74719 0.0
H210 H 0.37898 0.7969 0.75606 0.0
C211 C 0.40067 0.60107 0.62211 0.0
C212 C 0.44909 0.62835 0.58685 0.0
C213 C 0.36168 0.63215 0.66764 0.0
C214 C 0.33563 0.77795 0.75273 0.0
H215 H 0.0617 0.7988 0.92669 0.0
H216 H 0.12718 0.74482 0.84502 0.0
H217 H 0.30252 0.8506 0.81318 0.0
H218 H 0.49884 0.70968 0.57672 0.0
H219 H 0.43212 0.76378 0.65646 0.0
H220 H 0.2556 0.65846 0.68673 0.0
C221 C 0.13562 0.79003 0.85262 0.0
C222 C 0.29174 0.809 0.78513 0.0
C223 C 0.09753 0.82096 0.89918 0.0
C224 C 0.462 0.68751 0.60332 0.0
C225 C 0.42325 0.71856 0.64885 0.0
C226 C 0.26641 0.70008 0.71474 0.0
C227 C 0.18731 0.81767 0.82139 0.0
C228 C 0.23453 0.78604 0.78284 0.0
C229 C 0.3708 0.69107 0.67914 0.0
C230 C 0.32362 0.72298 0.71712 0.0
H231 H 0.16879 0.95305 0.89125 0.0
H232 H 0.23461 0.89912 0.80871 0.0
H233 H 0.17911 0.71214 0.74402 0.0
H234 H 0.38923 0.55554 0.61044 0.0
H235 H 0.32252 0.60968 0.69126 0.0
C236 C 0.41321 0.41429 0.69194 0.0
C237 C 0.40937 0.4163 0.63902 0.0
C238 C 0.37122 0.37926 0.72346 0.0
C239 C 0.26876 0.2461 0.69694 0.0
H240 H 0.22626 0.27668 0.86494 0.0
C241 C 0.10233 0.09256 0.82243 0.0
C242 C 0.11146 0.08835 0.87206 0.0
C243 C 0.13945 0.13132 0.79261 0.0
C244 C 0.23839 0.26725 0.81792 0.0
H245 H 0.35661 0.38626 0.57948 0.0
H246 H 0.28199 0.32525 0.63533 0.0
H247 H 0.28162 0.35214 0.81956 0.0
H248 H 0.16842 0.11954 0.92762 0.0
H249 H 0.23423 0.18721 0.87482 0.0
H250 H 0.22557 0.16117 0.69536 0.0
C251 C 0.31813 0.35036 0.65199 0.0
C252 C 0.26981 0.31062 0.79189 0.0
C253 C 0.36026 0.38593 0.62047 0.0
C254 C 0.16057 0.12152 0.88926 0.0
C255 C 0.19769 0.16079 0.85953 0.0
C256 C 0.23719 0.20278 0.72299 0.0
C257 C 0.32432 0.34506 0.70272 0.0
C258 C 0.28581 0.30055 0.731 0.0
C259 C 0.18666 0.1671 0.81175 0.0
C260 C 0.22193 0.2127 0.78379 0.0
H261 H 0.45083 0.43714 0.70708 0.0
H262 H 0.37783 0.37619 0.76195 0.0
H263 H 0.28131 0.2364 0.64989 0.0
H264 H 0.06477 0.06758 0.80813 0.0
H265 H 0.12937 0.13517 0.75632 0.0
C266 C 0.86966 0.0877 0.75422 0.0
C267 C 0.87619 0.10885 0.81081 0.0
C268 C 0.85126 0.11939 0.73162 0.0
C269 C 0.84037 0.25834 0.73942 0.0
H270 H 0.69123 0.19047 0.71063 0.0
C271 C 0.70596 0.3865 0.70869 0.0
C272 C 0.67027 0.35914 0.67161 0.0
C273 C 0.73497 0.35602 0.72172 0.0
C274 C 0.73345 0.20975 0.71704 0.0
H275 H 0.8675 0.1795 0.88837 0.0
H276 H 0.83866 0.23619 0.84751 0.0
H277 H 0.73931 0.1377 0.73675 0.0
H278 H 0.63455 0.27786 0.62177 0.0
H279 H 0.6885 0.22518 0.64017 0.0
H280 H 0.83576 0.32985 0.71832 0.0
C281 C 0.84834 0.19523 0.82069 0.0
C282 C 0.76073 0.17949 0.73234 0.0
C283 C 0.86551 0.16304 0.84377 0.0
C284 C 0.66364 0.30054 0.64833 0.0
C285 C 0.69362 0.27013 0.66022 0.0
C286 C 0.81374 0.28824 0.72277 0.0
C287 C 0.83989 0.17309 0.76501 0.0
C288 C 0.81398 0.20381 0.74427 0.0
C289 C 0.72946 0.29738 0.69739 0.0
C290 C 0.75949 0.26463 0.71212 0.0
H291 H 0.87721 0.0459 0.72821 0.0
H292 H 0.84472 0.10157 0.6886 0.0
H293 H 0.8816 0.27768 0.74841 0.0
H294 H 0.71141 0.43165 0.7276 0.0
H295 H 0.76091 0.37849 0.75166 0.0
C296 C 0.65508 0.64879 0.60418 0.0
C297 C 0.60863 0.61233 0.63062 0.0
C298 C 0.69521 0.68423 0.63414 0.0
C299 C 0.72464 0.73829 0.77982 0.0
H300 H 0.88325 0.73525 0.68765 0.0
C301 C 0.90526 0.82649 0.89177 0.0
C302 C 0.94862 0.86703 0.86837 0.0
C303 C 0.86802 0.78881 0.85949 0.0
C304 C 0.8392 0.73657 0.71398 0.0
H305 H 0.56481 0.58741 0.71012 0.0
H306 H 0.6338 0.64912 0.76257 0.0
H307 H 0.80592 0.69229 0.64046 0.0
H308 H 0.99059 0.89684 0.79155 0.0
H309 H 0.92727 0.83025 0.73458 0.0
H310 H 0.75787 0.78236 0.85333 0.0
C311 C 0.63982 0.65094 0.719 0.0
C312 C 0.79481 0.71244 0.68685 0.0
C313 C 0.60001 0.6156 0.68905 0.0
C314 C 0.95836 0.86499 0.81002 0.0
C315 C 0.9215 0.82721 0.77763 0.0
C316 C 0.76896 0.76216 0.80694 0.0
C317 C 0.68942 0.68378 0.69107 0.0
C318 C 0.73687 0.71296 0.71941 0.0
C319 C 0.87381 0.79098 0.80322 0.0
C320 C 0.82683 0.76155 0.77443 0.0
H321 H 0.6633 0.64619 0.55875 0.0
H322 H 0.73227 0.70982 0.61168 0.0
H323 H 0.68071 0.74014 0.80626 0.0
H324 H 0.89599 0.82809 0.9371 0.0
H325 H 0.83232 0.76065 0.88006 0.0
loop_
_geom_bond_atom_site_label_1
_geom_bond_atom_site_label_2
_geom_bond_distance
_geom_bond_site_symmetry_2
_ccdc_geom_bond_type
Co0 N1 2.034 . S
Co0 O15 2.262 1_554 S
Co0 O19 1.958 1_455 S
Co0 O23 1.950 1_565 S
Co0 O24 2.057 1_554 S
N1 Co0 2.034 . S
N1 C2 1.366 . S
N1 C4 1.332 . S
C2 N1 1.366 . S
C2 C5 1.377 . S
C2 H34 0.931 . S
N3 C4 1.346 . S
N3 C5 1.337 . S
C4 N1 1.332 . S
C4 N3 1.346 . S
C4 C38 1.361 . S
C5 C2 1.377 . S
C5 N3 1.337 . S
C5 H41 0.930 . S
Co6 N7 2.034 . S
Co6 O20 1.950 1_655 S
Co6 O21 2.262 1_556 S
Co6 O22 1.958 1_545 S
Co6 O26 2.057 1_556 S
N7 Co6 2.034 . S
N7 C10 1.366 . S
N7 C11 1.332 . S
N8 C9 1.337 . S
N8 C11 1.346 . S
C9 N8 1.337 . S
C9 C10 1.377 . S
C9 H42 0.930 . S
C10 N7 1.366 . S
C10 C9 1.377 . S
C10 H14 0.931 . S
C11 N7 1.332 . S
C11 N8 1.346 . S
C11 C28 1.361 . S
Co12 O15 2.097 1_654 S
Co12 O16 2.065 1_664 S
Co12 O17 2.065 1_665 S
Co12 O18 2.042 . S
Co12 O21 2.097 1_565 S
Co12 O25 2.042 1_554 S
C13 O21 1.253 . S
C13 O26 1.263 . S
H14 C10 0.931 . S
O15 Co0 2.262 1_556 S
O15 Co12 2.097 1_456 S
O15 C39 1.253 . S
O16 Co12 2.065 1_446 S
O16 C32 1.221 . S
O17 Co12 2.065 1_445 S
O17 C27 1.221 . S
O18 Co12 2.042 . S
O18 C33 1.237 . S
O19 Co0 1.958 1_655 S
O19 C33 1.278 . S
O20 Co6 1.950 1_455 S
O20 C32 1.277 . S
O21 Co6 2.262 1_554 S
O21 Co12 2.097 1_545 S
O21 C13 1.253 . S
O22 Co6 1.958 1_565 S
O22 C40 1.278 . S
O23 Co0 1.950 1_545 S
O23 C27 1.277 . S
O24 Co0 2.057 1_556 S
O24 C39 1.263 . S
O25 Co12 2.042 1_556 S
O25 C40 1.237 . S
O26 Co6 2.057 1_554 S
O26 C13 1.263 . S
C27 O17 1.221 . S
C27 O23 1.277 . S
C28 C11 1.361 . S
C28 H29 0.960 . S
C28 H30 0.961 . S
C28 H31 0.961 . S
H29 C28 0.960 . S
H30 C28 0.961 . S
H31 C28 0.961 . S
C32 O16 1.221 . S
C32 O20 1.277 . S
C33 O18 1.237 . S
C33 O19 1.278 . S
H34 C2 0.931 . S
H35 C38 0.961 . S
H36 C38 0.961 . S
H37 C38 0.960 . S
C38 C4 1.361 . S
C38 H35 0.961 . S
C38 H36 0.961 . S
C38 H37 0.960 . S
C39 O15 1.253 . S
C39 O24 1.263 . S
C40 O22 1.278 . S
C40 O25 1.237 . S
H41 C5 0.930 . S
H42 C9 0.930 . S
Co43 N44 2.034 . S
Co43 O58 2.262 . S
Co43 O62 1.958 . S
Co43 O66 1.950 . S
Co43 O67 2.057 . S
N44 Co43 2.034 . S
N44 C45 1.366 . S
N44 C47 1.332 . S
C45 N44 1.366 . S
C45 C48 1.377 . S
C45 H77 0.931 . S
N46 C47 1.346 . S
N46 C48 1.337 . S
C47 N44 1.332 . S
C47 N46 1.346 . S
C47 C81 1.361 . S
C48 C45 1.377 . S
C48 N46 1.337 . S
C48 H84 0.930 . S
Co49 N50 2.034 . S
Co49 O63 1.950 . S
Co49 O64 2.262 . S
Co49 O65 1.958 . S
Co49 O69 2.057 . S
N50 Co49 2.034 . S
N50 C53 1.366 . S
N50 C54 1.332 . S
N51 C52 1.337 . S
N51 C54 1.346 . S
C52 N51 1.337 . S
C52 C53 1.377 . S
C52 H85 0.930 . S
C53 N50 1.366 . S
C53 C52 1.377 . S
C53 H57 0.931 . S
C54 N50 1.332 . S
C54 N51 1.346 . S
C54 C71 1.361 . S
Co55 O58 2.097 . S
Co55 O59 2.065 . S
Co55 O60 2.065 . S
Co55 O61 2.042 . S
Co55 O64 2.097 . S
Co55 O68 2.042 . S
C56 O64 1.253 . S
C56 O69 1.263 . S
H57 C53 0.931 . S
O58 Co43 2.262 . S
O58 Co55 2.097 . S
O58 C82 1.253 . S
O59 Co55 2.065 . S
O59 C75 1.221 . S
O60 Co55 2.065 . S
O60 C70 1.221 . S
O61 Co55 2.042 . S
O61 C76 1.237 . S
O62 Co43 1.958 . S
O62 C76 1.278 . S
O63 Co49 1.950 . S
O63 C75 1.277 . S
O64 Co49 2.262 . S
O64 Co55 2.097 . S
O64 C56 1.253 . S
O65 Co49 1.958 . S
O65 C83 1.278 . S
O66 Co43 1.950 . S
O66 C70 1.277 . S
O67 Co43 2.057 . S
O67 C82 1.263 . S
O68 Co55 2.042 . S
O68 C83 1.237 . S
O69 Co49 2.057 . S
O69 C56 1.263 . S
C70 O60 1.221 . S
C70 O66 1.277 . S
C71 C54 1.361 . S
C71 H72 0.960 . S
C71 H73 0.961 . S
C71 H74 0.961 . S
H72 C71 0.960 . S
H73 C71 0.961 . S
H74 C71 0.961 . S
C75 O59 1.221 . S
C75 O63 1.277 . S
C76 O61 1.237 . S
C76 O62 1.278 . S
H77 C45 0.931 . S
H78 C81 0.961 . S
H79 C81 0.961 . S
H80 C81 0.960 . S
C81 C47 1.361 . S
C81 H78 0.961 . S
C81 H79 0.961 . S
C81 H80 0.960 . S
C82 O58 1.253 . S
C82 O67 1.263 . S
C83 O65 1.278 . S
C83 O68 1.237 . S
H84 C48 0.930 . S
H85 C52 0.930 . S
C86 C87 1.349 . S
C86 C88 1.327 . S
C86 H111 0.950 . S
C87 C86 1.349 . S
C87 C103 1.349 . S
C88 C86 1.327 . S
C88 C107 1.429 . S
C88 H112 0.950 . S
C89 C106 1.574 . S
C89 C108 1.368 . S
C89 H113 0.949 . S
H90 C94 0.949 . S
C91 C92 1.349 . S
C91 C93 1.327 . S
C91 H114 0.950 . S
C92 C91 1.349 . S
C92 C104 1.349 . S
C93 C91 1.327 . S
C93 C109 1.429 . S
C93 H115 0.950 . S
C94 H90 0.949 . S
C94 C102 1.574 . S
C94 C110 1.368 . S
H95 C103 0.950 . S
H96 C101 0.950 . S
H97 C102 0.949 . S
H98 C104 0.950 . S
H99 C105 0.950 . S
H100 C106 0.949 . S
C101 H96 0.950 . S
C101 C103 1.327 . S
C101 C107 1.429 . S
C102 C94 1.574 . S
C102 H97 0.949 . S
C102 C108 1.368 . S
C103 C87 1.349 . S
C103 H95 0.950 . S
C103 C101 1.327 . S
C104 C92 1.349 . S
C104 H98 0.950 . S
C104 C105 1.327 . S
C105 H99 0.950 . S
C105 C104 1.327 . S
C105 C109 1.429 . S
C106 C89 1.574 . S
C106 H100 0.949 . S
C106 C110 1.368 . S
C107 C88 1.429 . S
C107 C101 1.429 . S
C107 C108 1.523 . S
C108 C89 1.368 . S
C108 C102 1.368 . S
C108 C107 1.523 . S
C109 C93 1.429 . S
C109 C105 1.429 . S
C109 C110 1.523 . S
C110 C94 1.368 . S
C110 C106 1.368 . S
C110 C109 1.523 . S
H111 C86 0.950 . S
H112 C88 0.950 . S
H113 C89 0.949 . S
H114 C91 0.950 . S
H115 C93 0.950 . S
C116 C117 1.349 . S
C116 C118 1.327 . S
C116 H141 0.950 . S
C117 C116 1.349 . S
C117 C133 1.349 . S
C118 C116 1.327 . S
C118 C137 1.429 . S
C118 H142 0.950 . S
C119 C136 1.574 . S
C119 C138 1.368 . S
C119 H143 0.949 . S
H120 C124 0.949 . S
C121 C122 1.349 . S
C121 C123 1.327 . S
C121 H144 0.950 . S
C122 C121 1.349 . S
C122 C134 1.349 . S
C123 C121 1.327 . S
C123 C139 1.429 . S
C123 H145 0.950 . S
C124 H120 0.949 . S
C124 C132 1.574 . S
C124 C140 1.368 . S
H125 C133 0.950 . S
H126 C131 0.950 . S
H127 C132 0.949 . S
H128 C134 0.950 . S
H129 C135 0.950 . S
H130 C136 0.949 . S
C131 H126 0.950 . S
C131 C133 1.327 . S
C131 C137 1.429 . S
C132 C124 1.574 . S
C132 H127 0.949 . S
C132 C138 1.368 . S
C133 C117 1.349 . S
C133 H125 0.950 . S
C133 C131 1.327 . S
C134 C122 1.349 . S
C134 H128 0.950 . S
C134 C135 1.327 . S
C135 H129 0.950 . S
C135 C134 1.327 . S
C135 C139 1.429 . S
C136 C119 1.574 . S
C136 H130 0.949 . S
C136 C140 1.368 . S
C137 C118 1.429 . S
C137 C131 1.429 . S
C137 C138 1.523 . S
C138 C119 1.368 . S
C138 C132 1.368 . S
C138 C137 1.523 . S
C139 C123 1.429 . S
C139 C135 1.429 . S
C139 C140 1.523 . S
C140 C124 1.368 . S
C140 C136 1.368 . S
C140 C139 1.523 . S
H141 C116 0.950 . S
H142 C118 0.950 . S
H143 C119 0.949 . S
H144 C121 0.950 . S
H145 C123 0.950 . S
C146 C147 1.349 . S
C146 C148 1.327 . S
C146 H171 0.950 . S
C147 C146 1.349 . S
C147 C163 1.349 . S
C148 C146 1.327 . S
C148 C167 1.429 . S
C148 H172 0.950 . S
C149 C166 1.574 . S
C149 C168 1.368 . S
C149 H173 0.949 . S
H150 C154 0.949 . S
C151 C152 1.349 . S
C151 C153 1.327 . S
C151 H174 0.950 . S
C152 C151 1.349 . S
C152 C164 1.349 . S
C153 C151 1.327 . S
C153 C169 1.429 . S
C153 H175 0.950 . S
C154 H150 0.949 . S
C154 C162 1.574 . S
C154 C170 1.368 . S
H155 C163 0.950 . S
H156 C161 0.950 . S
H157 C162 0.949 . S
H158 C164 0.950 . S
H159 C165 0.950 . S
H160 C166 0.949 . S
C161 H156 0.950 . S
C161 C163 1.327 . S
C161 C167 1.429 . S
C162 C154 1.574 . S
C162 H157 0.949 . S
C162 C168 1.368 . S
C163 C147 1.349 . S
C163 H155 0.950 . S
C163 C161 1.327 . S
C164 C152 1.349 . S
C164 H158 0.950 . S
C164 C165 1.327 . S
C165 H159 0.950 . S
C165 C164 1.327 . S
C165 C169 1.429 . S
C166 C149 1.574 . S
C166 H160 0.949 . S
C166 C170 1.368 . S
C167 C148 1.429 . S
C167 C161 1.429 . S
C167 C168 1.523 . S
C168 C149 1.368 . S
C168 C162 1.368 . S
C168 C167 1.523 . S
C169 C153 1.429 . S
C169 C165 1.429 . S
C169 C170 1.523 . S
C170 C154 1.368 . S
C170 C166 1.368 . S
C170 C169 1.523 . S
H171 C146 0.950 . S
H172 C148 0.950 . S
H173 C149 0.949 . S
H174 C151 0.950 . S
H175 C153 0.950 . S
C176 C177 1.349 . S
C176 C178 1.327 . S
C176 H201 0.950 . S
C177 C176 1.349 . S
C177 C193 1.349 . S
C178 C176 1.327 . S
C178 C197 1.429 . S
C178 H202 0.950 . S
C179 C196 1.574 . S
C179 C198 1.368 . S
C179 H203 0.949 . S
H180 C184 0.949 . S
C181 C182 1.349 . S
C181 C183 1.327 . S
C181 H204 0.950 . S
C182 C181 1.349 . S
C182 C194 1.349 . S
C183 C181 1.327 . S
C183 C199 1.429 . S
C183 H205 0.950 . S
C184 H180 0.949 . S
C184 C192 1.574 . S
C184 C200 1.368 . S
H185 C193 0.950 . S
H186 C191 0.950 . S
H187 C192 0.949 . S
H188 C194 0.950 . S
H189 C195 0.950 . S
H190 C196 0.949 . S
C191 H186 0.950 . S
C191 C193 1.327 . S
C191 C197 1.429 . S
C192 C184 1.574 . S
C192 H187 0.949 . S
C192 C198 1.368 . S
C193 C177 1.349 . S
C193 H185 0.950 . S
C193 C191 1.327 . S
C194 C182 1.349 . S
C194 H188 0.950 . S
C194 C195 1.327 . S
C195 H189 0.950 . S
C195 C194 1.327 . S
C195 C199 1.429 . S
C196 C179 1.574 . S
C196 H190 0.949 . S
C196 C200 1.368 . S
C197 C178 1.429 . S
C197 C191 1.429 . S
C197 C198 1.523 . S
C198 C179 1.368 . S
C198 C192 1.368 . S
C198 C197 1.523 . S
C199 C183 1.429 . S
C199 C195 1.429 . S
C199 C200 1.523 . S
C200 C184 1.368 . S
C200 C196 1.368 . S
C200 C199 1.523 . S
H201 C176 0.950 . S
H202 C178 0.950 . S
H203 C179 0.949 . S
H204 C181 0.950 . S
H205 C183 0.950 . S
C206 C207 1.349 . S
C206 C208 1.327 . S
C206 H231 0.950 . S
C207 C206 1.349 . S
C207 C223 1.349 . S
C208 C206 1.327 . S
C208 C227 1.429 . S
C208 H232 0.950 . S
C209 C226 1.574 . S
C209 C228 1.368 . S
C209 H233 0.949 . S
H210 C214 0.949 . S
C211 C212 1.349 . S
C211 C213 1.327 . S
C211 H234 0.950 . S
C212 C211 1.349 . S
C212 C224 1.349 . S
C213 C211 1.327 . S
C213 C229 1.429 . S
C213 H235 0.950 . S
C214 H210 0.949 . S
C214 C222 1.574 . S
C214 C230 1.368 . S
H215 C223 0.950 . S
H216 C221 0.950 . S
H217 C222 0.949 . S
H218 C224 0.950 . S
H219 C225 0.950 . S
H220 C226 0.949 . S
C221 H216 0.950 . S
C221 C223 1.327 . S
C221 C227 1.429 . S
C222 C214 1.574 . S
C222 H217 0.949 . S
C222 C228 1.368 . S
C223 C207 1.349 . S
C223 H215 0.950 . S
C223 C221 1.327 . S
C224 C212 1.349 . S
C224 H218 0.950 . S
C224 C225 1.327 . S
C225 H219 0.950 . S
C225 C224 1.327 . S
C225 C229 1.429 . S
C226 C209 1.574 . S
C226 H220 0.949 . S
C226 C230 1.368 . S
C227 C208 1.429 . S
C227 C221 1.429 . S
C227 C228 1.523 . S
C228 C209 1.368 . S
C228 C222 1.368 . S
C228 C227 1.523 . S
C229 C213 1.429 . S
C229 C225 1.429 . S
C229 C230 1.523 . S
C230 C214 1.368 . S
C230 C226 1.368 . S
C230 C229 1.523 . S
H231 C206 0.950 . S
H232 C208 0.950 . S
H233 C209 0.949 . S
H234 C211 0.950 . S
H235 C213 0.950 . S
C236 C237 1.349 . S
C236 C238 1.327 . S
C236 H261 0.950 . S
C237 C236 1.349 . S
C237 C253 1.349 . S
C238 C236 1.327 . S
C238 C257 1.429 . S
C238 H262 0.950 . S
C239 C256 1.574 . S
C239 C258 1.368 . S
C239 H263 0.949 . S
H240 C244 0.949 . S
C241 C242 1.349 . S
C241 C243 1.327 . S
C241 H264 0.950 . S
C242 C241 1.349 . S
C242 C254 1.349 . S
C243 C241 1.327 . S
C243 C259 1.429 . S
C243 H265 0.950 . S
C244 H240 0.949 . S
C244 C252 1.574 . S
C244 C260 1.368 . S
H245 C253 0.950 . S
H246 C251 0.950 . S
H247 C252 0.949 . S
H248 C254 0.950 . S
H249 C255 0.950 . S
H250 C256 0.949 . S
C251 H246 0.950 . S
C251 C253 1.327 . S
C251 C257 1.429 . S
C252 C244 1.574 . S
C252 H247 0.949 . S
C252 C258 1.368 . S
C253 C237 1.349 . S
C253 H245 0.950 . S
C253 C251 1.327 . S
C254 C242 1.349 . S
C254 H248 0.950 . S
C254 C255 1.327 . S
C255 H249 0.950 . S
C255 C254 1.327 . S
C255 C259 1.429 . S
C256 C239 1.574 . S
C256 H250 0.949 . S
C256 C260 1.368 . S
C257 C238 1.429 . S
C257 C251 1.429 . S
C257 C258 1.523 . S
C258 C239 1.368 . S
C258 C252 1.368 . S
C258 C257 1.523 . S
C259 C243 1.429 . S
C259 C255 1.429 . S
C259 C260 1.523 . S
C260 C244 1.368 . S
C260 C256 1.368 . S
C260 C259 1.523 . S
H261 C236 0.950 . S
H262 C238 0.950 . S
H263 C239 0.949 . S
H264 C241 0.950 . S
H265 C243 0.950 . S
C266 C267 1.349 . S
C266 C268 1.327 . S
C266 H291 0.950 . S
C267 C266 1.349 . S
C267 C283 1.349 . S
C268 C266 1.327 . S
C268 C287 1.429 . S
C268 H292 0.950 . S
C269 C286 1.574 . S
C269 C288 1.368 . S
C269 H293 0.949 . S
H270 C274 0.949 . S
C271 C272 1.349 . S
C271 C273 1.327 . S
C271 H294 0.950 . S
C272 C271 1.349 . S
C272 C284 1.349 . S
C273 C271 1.327 . S
C273 C289 1.429 . S
C273 H295 0.950 . S
C274 H270 0.949 . S
C274 C282 1.574 . S
C274 C290 1.368 . S
H275 C283 0.950 . S
H276 C281 0.950 . S
H277 C282 0.949 . S
H278 C284 0.950 . S
H279 C285 0.950 . S
H280 C286 0.949 . S
C281 H276 0.950 . S
C281 C283 1.327 . S
C281 C287 1.429 . S
C282 C274 1.574 . S
C282 H277 0.949 . S
C282 C288 1.368 . S
C283 C267 1.349 . S
C283 H275 0.950 . S
C283 C281 1.327 . S
C284 C272 1.349 . S
C284 H278 0.950 . S
C284 C285 1.327 . S
C285 H279 0.950 . S
C285 C284 1.327 . S
C285 C289 1.429 . S
C286 C269 1.574 . S
C286 H280 0.949 . S
C286 C290 1.368 . S
C287 C268 1.429 . S
C287 C281 1.429 . S
C287 C288 1.523 . S
C288 C269 1.368 . S
C288 C282 1.368 . S
C288 C287 1.523 . S
C289 C273 1.429 . S
C289 C285 1.429 . S
C289 C290 1.523 . S
C290 C274 1.368 . S
C290 C286 1.368 . S
C290 C289 1.523 . S
H291 C266 0.950 . S
H292 C268 0.950 . S
H293 C269 0.949 . S
H294 C271 0.950 . S
H295 C273 0.950 . S
C296 C297 1.349 . S
C296 C298 1.327 . S
C296 H321 0.950 . S
C297 C296 1.349 . S
C297 C313 1.349 . S
C298 C296 1.327 . S
C298 C317 1.429 . S
C298 H322 0.950 . S
C299 C316 1.574 . S
C299 C318 1.368 . S
C299 H323 0.949 . S
H300 C304 0.949 . S
C301 C302 1.349 . S
C301 C303 1.327 . S
C301 H324 0.950 . S
C302 C301 1.349 . S
C302 C314 1.349 . S
C303 C301 1.327 . S
C303 C319 1.429 . S
C303 H325 0.950 . S
C304 H300 0.949 . S
C304 C312 1.574 . S
C304 C320 1.368 . S
H305 C313 0.950 . S
H306 C311 0.950 . S
H307 C312 0.949 . S
H308 C314 0.950 . S
H309 C315 0.950 . S
H310 C316 0.949 . S
C311 H306 0.950 . S
C311 C313 1.327 . S
C311 C317 1.429 . S
C312 C304 1.574 . S
C312 H307 0.949 . S
C312 C318 1.368 . S
C313 C297 1.349 . S
C313 H305 0.950 . S
C313 C311 1.327 . S
C314 C302 1.349 . S
C314 H308 0.950 . S
C314 C315 1.327 . S
C315 H309 0.950 . S
C315 C314 1.327 . S
C315 C319 1.429 . S
C316 C299 1.574 . S
C316 H310 0.949 . S
C316 C320 1.368 . S
C317 C298 1.429 . S
C317 C311 1.429 . S
C317 C318 1.523 . S
C318 C299 1.368 . S
C318 C312 1.368 . S
C318 C317 1.523 . S
C319 C303 1.429 . S
C319 C315 1.429 . S
C319 C320 1.523 . S
C320 C304 1.368 . S
C320 C316 1.368 . S
C320 C319 1.523 . S
H321 C296 0.950 . S
H322 C298 0.950 . S
H323 C299 0.949 . S
H324 C301 0.950 . S
H325 C303 0.950 . S
C87 C27 1.238 . S
C92 C83 1.233 . S
C117 C13 1.297 . S
C122 C82 1.295 . S
C147 C33 1.236 . S
C152 C75 1.239 . S
C177 N3 1.761 . S
C182 N51 1.760 . S
C207 C39 1.297 . S
C212 C56 1.298 . S
C237 C76 1.236 . S
C242 C32 1.236 . S
C267 N8 1.761 . S
C272 N46 1.763 . S
C297 C70 1.238 . S
C302 C40 1.240 . S
