# Generated by pormake.
# Topology wio, (6)-cn, num edge types: 1
# Building blocks:
#     Node 0, Type 0, BuildingBlock: BETFAJ_clean_sbu_0, # of connection points: 6
#     Node 1, Type 0, BuildingBlock: BETFAJ_clean_sbu_0, # of connection points: 6
#     Node 2, Type 0, BuildingBlock: BETFAJ_clean_sbu_0, # of connection points: 6
#     Node 3, Type 0, BuildingBlock: BETFAJ_clean_sbu_0, # of connection points: 6
#     Node 4, Type 0, BuildingBlock: BETFAJ_clean_sbu_0, # of connection points: 6
#     Node 5, Type 0, BuildingBlock: BETFAJ_clean_sbu_0, # of connection points: 6
#     Node 6, Type 0, BuildingBlock: BETFAJ_clean_sbu_0, # of connection points: 6
#     Node 7, Type 0, BuildingBlock: BETFAJ_clean_sbu_0, # of connection points: 6
#     Node 8, Type 0, BuildingBlock: BETFAJ_clean_sbu_0, # of connection points: 6
#     Node 9, Type 0, BuildingBlock: BETFAJ_clean_sbu_0, # of connection points: 6
#     Node 10, Type 0, BuildingBlock: BETFAJ_clean_sbu_0, # of connection points: 6
#     Node 11, Type 0, BuildingBlock: BETFAJ_clean_sbu_0, # of connection points: 6
#     Node 12, Type 0, BuildingBlock: BETFAJ_clean_sbu_0, # of connection points: 6
#     Node 13, Type 0, BuildingBlock: BETFAJ_clean_sbu_0, # of connection points: 6
#     Node 14, Type 0, BuildingBlock: BETFAJ_clean_sbu_0, # of connection points: 6
#     Node 15, Type 0, BuildingBlock: BETFAJ_clean_sbu_0, # of connection points: 6
#     Node 16, Type 0, BuildingBlock: BETFAJ_clean_sbu_0, # of connection points: 6
#     Node 17, Type 0, BuildingBlock: BETFAJ_clean_sbu_0, # of connection points: 6
#     Node 18, Type 0, BuildingBlock: BETFAJ_clean_sbu_0, # of connection points: 6
#     Node 19, Type 0, BuildingBlock: BETFAJ_clean_sbu_0, # of connection points: 6
#     Node 20, Type 0, BuildingBlock: BETFAJ_clean_sbu_0, # of connection points: 6
#     Node 21, Type 0, BuildingBlock: BETFAJ_clean_sbu_0, # of connection points: 6
#     Node 22, Type 0, BuildingBlock: BETFAJ_clean_sbu_0, # of connection points: 6
#     Node 23, Type 0, BuildingBlock: BETFAJ_clean_sbu_0, # of connection points: 6
#     Node 24, Type 0, BuildingBlock: BETFAJ_clean_sbu_0, # of connection points: 6
#     Node 25, Type 0, BuildingBlock: BETFAJ_clean_sbu_0, # of connection points: 6
#     Node 26, Type 0, BuildingBlock: BETFAJ_clean_sbu_0, # of connection points: 6
#     Node 27, Type 0, BuildingBlock: BETFAJ_clean_sbu_0, # of connection points: 6
#     Node 28, Type 0, BuildingBlock: BETFAJ_clean_sbu_0, # of connection points: 6
#     Node 29, Type 0, BuildingBlock: BETFAJ_clean_sbu_0, # of connection points: 6
#     Node 30, Type 0, BuildingBlock: BETFAJ_clean_sbu_0, # of connection points: 6
#     Node 31, Type 0, BuildingBlock: BETFAJ_clean_sbu_0, # of connection points: 6
#     Edge 32, Type (0, 0), BuildingBlock: TEMPAE_clean_linker_10, # of connection points: 2
#     Edge 33, Type (0, 0), BuildingBlock: TEMPAE_clean_linker_10, # of connection points: 2
#     Edge 34, Type (0, 0), BuildingBlock: TEMPAE_clean_linker_10, # of connection points: 2
#     Edge 35, Type (0, 0), BuildingBlock: TEMPAE_clean_linker_10, # of connection points: 2
#     Edge 36, Type (0, 0), BuildingBlock: TEMPAE_clean_linker_10, # of connection points: 2
#     Edge 37, Type (0, 0), BuildingBlock: TEMPAE_clean_linker_10, # of connection points: 2
#     Edge 38, Type (0, 0), BuildingBlock: TEMPAE_clean_linker_10, # of connection points: 2
#     Edge 39, Type (0, 0), BuildingBlock: TEMPAE_clean_linker_10, # of connection points: 2
#     Edge 40, Type (0, 0), BuildingBlock: TEMPAE_clean_linker_10, # of connection points: 2
#     Edge 41, Type (0, 0), BuildingBlock: TEMPAE_clean_linker_10, # of connection points: 2
#     Edge 42, Type (0, 0), BuildingBlock: TEMPAE_clean_linker_10, # of connection points: 2
#     Edge 43, Type (0, 0), BuildingBlock: TEMPAE_clean_linker_10, # of connection points: 2
#     Edge 44, Type (0, 0), BuildingBlock: TEMPAE_clean_linker_10, # of connection points: 2
#     Edge 45, Type (0, 0), BuildingBlock: TEMPAE_clean_linker_10, # of connection points: 2
#     Edge 46, Type (0, 0), BuildingBlock: TEMPAE_clean_linker_10, # of connection points: 2
#     Edge 47, Type (0, 0), BuildingBlock: TEMPAE_clean_linker_10, # of connection points: 2
#     Edge 48, Type (0, 0), BuildingBlock: TEMPAE_clean_linker_10, # of connection points: 2
#     Edge 49, Type (0, 0), BuildingBlock: TEMPAE_clean_linker_10, # of connection points: 2
#     Edge 50, Type (0, 0), BuildingBlock: TEMPAE_clean_linker_10, # of connection points: 2
#     Edge 51, Type (0, 0), BuildingBlock: TEMPAE_clean_linker_10, # of connection points: 2
#     Edge 52, Type (0, 0), BuildingBlock: TEMPAE_clean_linker_10, # of connection points: 2
#     Edge 53, Type (0, 0), BuildingBlock: TEMPAE_clean_linker_10, # of connection points: 2
#     Edge 54, Type (0, 0), BuildingBlock: TEMPAE_clean_linker_10, # of connection points: 2
#     Edge 55, Type (0, 0), BuildingBlock: TEMPAE_clean_linker_10, # of connection points: 2
#     Edge 56, Type (0, 0), BuildingBlock: TEMPAE_clean_linker_10, # of connection points: 2
#     Edge 57, Type (0, 0), BuildingBlock: TEMPAE_clean_linker_10, # of connection points: 2
#     Edge 58, Type (0, 0), BuildingBlock: TEMPAE_clean_linker_10, # of connection points: 2
#     Edge 59, Type (0, 0), BuildingBlock: TEMPAE_clean_linker_10, # of connection points: 2
#     Edge 60, Type (0, 0), BuildingBlock: TEMPAE_clean_linker_10, # of connection points: 2
#     Edge 61, Type (0, 0), BuildingBlock: TEMPAE_clean_linker_10, # of connection points: 2
#     Edge 62, Type (0, 0), BuildingBlock: TEMPAE_clean_linker_10, # of connection points: 2
#     Edge 63, Type (0, 0), BuildingBlock: TEMPAE_clean_linker_10, # of connection points: 2
#     Edge 64, Type (0, 0), BuildingBlock: TEMPAE_clean_linker_10, # of connection points: 2
#     Edge 65, Type (0, 0), BuildingBlock: TEMPAE_clean_linker_10, # of connection points: 2
#     Edge 66, Type (0, 0), BuildingBlock: TEMPAE_clean_linker_10, # of connection points: 2
#     Edge 67, Type (0, 0), BuildingBlock: TEMPAE_clean_linker_10, # of connection points: 2
#     Edge 68, Type (0, 0), BuildingBlock: TEMPAE_clean_linker_10, # of connection points: 2
#     Edge 69, Type (0, 0), BuildingBlock: TEMPAE_clean_linker_10, # of connection points: 2
#     Edge 70, Type (0, 0), BuildingBlock: TEMPAE_clean_linker_10, # of connection points: 2
#     Edge 71, Type (0, 0), BuildingBlock: TEMPAE_clean_linker_10, # of connection points: 2
#     Edge 72, Type (0, 0), BuildingBlock: TEMPAE_clean_linker_10, # of connection points: 2
#     Edge 73, Type (0, 0), BuildingBlock: TEMPAE_clean_linker_10, # of connection points: 2
#     Edge 74, Type (0, 0), BuildingBlock: TEMPAE_clean_linker_10, # of connection points: 2
#     Edge 75, Type (0, 0), BuildingBlock: TEMPAE_clean_linker_10, # of connection points: 2
#     Edge 76, Type (0, 0), BuildingBlock: TEMPAE_clean_linker_10, # of connection points: 2
#     Edge 77, Type (0, 0), BuildingBlock: TEMPAE_clean_linker_10, # of connection points: 2
#     Edge 78, Type (0, 0), BuildingBlock: TEMPAE_clean_linker_10, # of connection points: 2
#     Edge 79, Type (0, 0), BuildingBlock: TEMPAE_clean_linker_10, # of connection points: 2
#     Edge 80, Type (0, 0), BuildingBlock: TEMPAE_clean_linker_10, # of connection points: 2
#     Edge 81, Type (0, 0), BuildingBlock: TEMPAE_clean_linker_10, # of connection points: 2
#     Edge 82, Type (0, 0), BuildingBlock: TEMPAE_clean_linker_10, # of connection points: 2
#     Edge 83, Type (0, 0), BuildingBlock: TEMPAE_clean_linker_10, # of connection points: 2
#     Edge 84, Type (0, 0), BuildingBlock: TEMPAE_clean_linker_10, # of connection points: 2
#     Edge 85, Type (0, 0), BuildingBlock: TEMPAE_clean_linker_10, # of connection points: 2
#     Edge 86, Type (0, 0), BuildingBlock: TEMPAE_clean_linker_10, # of connection points: 2
#     Edge 87, Type (0, 0), BuildingBlock: TEMPAE_clean_linker_10, # of connection points: 2
#     Edge 88, Type (0, 0), BuildingBlock: TEMPAE_clean_linker_10, # of connection points: 2
#     Edge 89, Type (0, 0), BuildingBlock: TEMPAE_clean_linker_10, # of connection points: 2
#     Edge 90, Type (0, 0), BuildingBlock: TEMPAE_clean_linker_10, # of connection points: 2
#     Edge 91, Type (0, 0), BuildingBlock: TEMPAE_clean_linker_10, # of connection points: 2
#     Edge 92, Type (0, 0), BuildingBlock: TEMPAE_clean_linker_10, # of connection points: 2
#     Edge 93, Type (0, 0), BuildingBlock: TEMPAE_clean_linker_10, # of connection points: 2
#     Edge 94, Type (0, 0), BuildingBlock: TEMPAE_clean_linker_10, # of connection points: 2
#     Edge 95, Type (0, 0), BuildingBlock: TEMPAE_clean_linker_10, # of connection points: 2
#     Edge 96, Type (0, 0), BuildingBlock: TEMPAE_clean_linker_10, # of connection points: 2
#     Edge 97, Type (0, 0), BuildingBlock: TEMPAE_clean_linker_10, # of connection points: 2
#     Edge 98, Type (0, 0), BuildingBlock: TEMPAE_clean_linker_10, # of connection points: 2
#     Edge 99, Type (0, 0), BuildingBlock: TEMPAE_clean_linker_10, # of connection points: 2
#     Edge 100, Type (0, 0), BuildingBlock: TEMPAE_clean_linker_10, # of connection points: 2
#     Edge 101, Type (0, 0), BuildingBlock: TEMPAE_clean_linker_10, # of connection points: 2
#     Edge 102, Type (0, 0), BuildingBlock: TEMPAE_clean_linker_10, # of connection points: 2
#     Edge 103, Type (0, 0), BuildingBlock: TEMPAE_clean_linker_10, # of connection points: 2
#     Edge 104, Type (0, 0), BuildingBlock: TEMPAE_clean_linker_10, # of connection points: 2
#     Edge 105, Type (0, 0), BuildingBlock: TEMPAE_clean_linker_10, # of connection points: 2
#     Edge 106, Type (0, 0), BuildingBlock: TEMPAE_clean_linker_10, # of connection points: 2
#     Edge 107, Type (0, 0), BuildingBlock: TEMPAE_clean_linker_10, # of connection points: 2
#     Edge 108, Type (0, 0), BuildingBlock: TEMPAE_clean_linker_10, # of connection points: 2
#     Edge 109, Type (0, 0), BuildingBlock: TEMPAE_clean_linker_10, # of connection points: 2
#     Edge 110, Type (0, 0), BuildingBlock: TEMPAE_clean_linker_10, # of connection points: 2
#     Edge 111, Type (0, 0), BuildingBlock: TEMPAE_clean_linker_10, # of connection points: 2
#     Edge 112, Type (0, 0), BuildingBlock: TEMPAE_clean_linker_10, # of connection points: 2
#     Edge 113, Type (0, 0), BuildingBlock: TEMPAE_clean_linker_10, # of connection points: 2
#     Edge 114, Type (0, 0), BuildingBlock: TEMPAE_clean_linker_10, # of connection points: 2
#     Edge 115, Type (0, 0), BuildingBlock: TEMPAE_clean_linker_10, # of connection points: 2
#     Edge 116, Type (0, 0), BuildingBlock: TEMPAE_clean_linker_10, # of connection points: 2
#     Edge 117, Type (0, 0), BuildingBlock: TEMPAE_clean_linker_10, # of connection points: 2
#     Edge 118, Type (0, 0), BuildingBlock: TEMPAE_clean_linker_10, # of connection points: 2
#     Edge 119, Type (0, 0), BuildingBlock: TEMPAE_clean_linker_10, # of connection points: 2
#     Edge 120, Type (0, 0), BuildingBlock: TEMPAE_clean_linker_10, # of connection points: 2
#     Edge 121, Type (0, 0), BuildingBlock: TEMPAE_clean_linker_10, # of connection points: 2
#     Edge 122, Type (0, 0), BuildingBlock: TEMPAE_clean_linker_10, # of connection points: 2
#     Edge 123, Type (0, 0), BuildingBlock: TEMPAE_clean_linker_10, # of connection points: 2
#     Edge 124, Type (0, 0), BuildingBlock: TEMPAE_clean_linker_10, # of connection points: 2
#     Edge 125, Type (0, 0), BuildingBlock: TEMPAE_clean_linker_10, # of connection points: 2
#     Edge 126, Type (0, 0), BuildingBlock: TEMPAE_clean_linker_10, # of connection points: 2
#     Edge 127, Type (0, 0), BuildingBlock: TEMPAE_clean_linker_10, # of connection points: 2
# Relax obj value: 0.200
# Max RMSD: 0.235
# Mean RMSD: 0.235
data_MOF--net-wio--node1-BETFAJ_clean_sbu_0--edge1-TEMPAE_clean_linker_10
_symmetry_space_group_name_H-M    P1
_symmetry_Int_Tables_number       1
_symmetry_cell_setting            triclinic
loop_
_symmetry_equiv_pos_as_xyz
'x, y, z'
_cell_length_a     62.591211
_cell_length_b     62.597743
_cell_length_c     55.741143
_cell_angle_alpha  90.001916
_cell_angle_beta   90.028488
_cell_angle_gamma 90.006119
loop_
_atom_site_label
_atom_site_type_symbol
_atom_site_fract_x
_atom_site_fract_y
_atom_site_fract_z
_atom_type_partial_charge
Sm0 Sm 0.15336 0.11958 0.27989 0.0
Sm1 Sm 0.10543 0.12664 0.28828 0.0
C2 C 0.19206 0.10921 0.26441 0.0
C3 C 0.20805 0.11475 0.24585 0.0
C4 C 0.20368 0.11262 0.22122 0.0
C5 C 0.21971 0.11638 0.2042 0.0
C6 C 0.24043 0.1224 0.21143 0.0
C7 C 0.24448 0.12515 0.23607 0.0
C8 C 0.22852 0.12127 0.25305 0.0
C9 C 0.14362 0.15684 0.30331 0.0
C10 C 0.1231 0.13675 0.23459 0.0
C11 C 0.06839 0.13997 0.30629 0.0
C12 C 0.05516 0.13947 0.32835 0.0
C13 C 0.04549 0.15841 0.33634 0.0
C14 C 0.03168 0.15829 0.3561 0.0
C15 C 0.02715 0.13917 0.36839 0.0
C16 C 0.03739 0.12029 0.36076 0.0
C17 C 0.05125 0.12043 0.34098 0.0
C18 C 0.11563 0.08694 0.26972 0.0
C19 C 0.13443 0.10215 0.33026 0.0
O20 O 0.17464 0.09932 0.2576 0.0
O21 O 0.18867 0.12332 0.28129 0.0
O22 O 0.13325 0.14943 0.28562 0.0
O23 O 0.16031 0.14528 0.30786 0.0
O24 O 0.14156 0.12905 0.24218 0.0
O25 O 0.10665 0.13926 0.24928 0.0
O26 O 0.08591 0.15132 0.30698 0.0
O27 O 0.07054 0.12226 0.29406 0.0
O28 O 0.12585 0.09721 0.28532 0.0
O29 O 0.0984 0.0974 0.26386 0.0
O30 O 0.11721 0.11383 0.3255 0.0
O31 O 0.14963 0.09966 0.31404 0.0
H32 H 0.18803 0.10764 0.21508 0.0
H33 H 0.21602 0.11391 0.18542 0.0
H34 H 0.26009 0.13015 0.24231 0.0
H35 H 0.23229 0.12305 0.27192 0.0
H36 H 0.04836 0.17332 0.327 0.0
H37 H 0.02443 0.1732 0.36166 0.0
H38 H 0.03419 0.10522 0.3696 0.0
H39 H 0.05857 0.10559 0.33531 0.0
Sm40 Sm 0.14122 0.90471 0.53122 0.0
Sm41 Sm 0.13282 0.85728 0.54021 0.0
C42 C 0.1524 0.94295 0.515 0.0
C43 C 0.14686 0.95883 0.49631 0.0
C44 C 0.14871 0.95423 0.4717 0.0
C45 C 0.14492 0.97014 0.45453 0.0
C46 C 0.13914 0.99097 0.46157 0.0
C47 C 0.13668 0.99527 0.4862 0.0
C48 C 0.14059 0.97943 0.50332 0.0
C49 C 0.10366 0.89634 0.55481 0.0
C50 C 0.12266 0.87473 0.4865 0.0
C51 C 0.11844 0.82082 0.55866 0.0
C52 C 0.11971 0.80706 0.58021 0.0
C53 C 0.10111 0.79696 0.5885 0.0
C54 C 0.10191 0.78276 0.60787 0.0
C55 C 0.12139 0.77826 0.61946 0.0
C56 C 0.13995 0.78892 0.61153 0.0
C57 C 0.13912 0.80318 0.59212 0.0
C58 C 0.17284 0.86591 0.52143 0.0
C59 C 0.15842 0.88591 0.58171 0.0
O60 O 0.16169 0.92519 0.50822 0.0
O61 O 0.13858 0.94012 0.53229 0.0
O62 O 0.11072 0.88561 0.53721 0.0
O63 O 0.1158 0.91264 0.55921 0.0
O64 O 0.13132 0.89287 0.4937 0.0
O65 O 0.1195 0.85864 0.50151 0.0
O66 O 0.10846 0.83905 0.56093 0.0
O67 O 0.1353 0.82209 0.54486 0.0
O68 O 0.16299 0.87667 0.53692 0.0
O69 O 0.16174 0.84902 0.51584 0.0
O70 O 0.14639 0.8689 0.57717 0.0
O71 O 0.16119 0.90091 0.56531 0.0
H72 H 0.15349 0.93848 0.46569 0.0
H73 H 0.14717 0.96625 0.43577 0.0
H74 H 0.13186 0.01097 0.49231 0.0
H75 H 0.13902 0.98339 0.52216 0.0
H76 H 0.08593 0.79984 0.5797 0.0
H77 H 0.08724 0.77519 0.6137 0.0
H78 H 0.15526 0.78576 0.61984 0.0
H79 H 0.1537 0.81086 0.58618 0.0
Sm80 Sm 0.35685 0.8921 0.78105 0.0
Sm81 Sm 0.40433 0.884 0.78891 0.0
C82 C 0.31818 0.90305 0.76593 0.0
C83 C 0.30212 0.89777 0.74735 0.0
C84 C 0.30667 0.89939 0.72272 0.0
C85 C 0.29064 0.89572 0.70565 0.0
C86 C 0.26975 0.8903 0.71285 0.0
C87 C 0.2655 0.88808 0.73751 0.0
C88 C 0.28147 0.89187 0.75452 0.0
C89 C 0.36568 0.85469 0.80475 0.0
C90 C 0.38622 0.87459 0.73522 0.0
C91 C 0.44118 0.8699 0.80672 0.0
C92 C 0.45456 0.87051 0.82866 0.0
C93 C 0.46449 0.85168 0.83654 0.0
C94 C 0.47836 0.85192 0.85626 0.0
C95 C 0.48269 0.87106 0.86861 0.0
C96 C 0.47219 0.88983 0.86108 0.0
C97 C 0.45826 0.88957 0.84134 0.0
C98 C 0.39524 0.92397 0.77043 0.0
C99 C 0.3763 0.90929 0.83121 0.0
O100 O 0.33566 0.91285 0.75918 0.0
O101 O 0.32152 0.88874 0.78259 0.0
O102 O 0.37611 0.86161 0.78683 0.0
O103 O 0.34951 0.8669 0.80942 0.0
O104 O 0.36799 0.88258 0.74308 0.0
O105 O 0.4027 0.87163 0.74978 0.0
O106 O 0.42336 0.85907 0.80786 0.0
O107 O 0.43939 0.88745 0.79412 0.0
O108 O 0.38481 0.9141 0.7862 0.0
O109 O 0.41193 0.91285 0.76423 0.0
O110 O 0.3934 0.89755 0.82615 0.0
O111 O 0.36092 0.91191 0.81523 0.0
H112 H 0.32248 0.90386 0.71661 0.0
H113 H 0.29448 0.89778 0.68685 0.0
H114 H 0.24976 0.88353 0.74373 0.0
H115 H 0.27757 0.89046 0.7734 0.0
H116 H 0.46176 0.83676 0.82716 0.0
H117 H 0.4858 0.83708 0.86174 0.0
H118 H 0.47523 0.90491 0.86996 0.0
H119 H 0.45072 0.90433 0.83575 0.0
Sm120 Sm 0.36883 0.10757 0.03008 0.0
Sm121 Sm 0.37735 0.15523 0.03902 0.0
C122 C 0.35647 0.0694 1.01457 0.0
C123 C 0.36046 0.0534 0.99573 0.0
C124 C 0.37777 0.05517 0.97984 0.0
C125 C 0.38151 0.03919 0.96267 0.0
C126 C 0.36803 0.02119 0.9612 0.0
C127 C 0.35054 0.01981 0.97699 0.0
C128 C 0.34684 0.03573 0.99406 0.0
C129 C 0.40623 0.11597 0.054 0.0
C130 C 0.38716 0.13756 0.98517 0.0
C131 C 0.39171 0.19173 0.05752 0.0
C132 C 0.39091 0.20519 0.07939 0.0
C133 C 0.40956 0.2156 0.08706 0.0
C134 C 0.40912 0.22959 0.10667 0.0
C135 C 0.38997 0.23357 0.11914 0.0
C136 C 0.37139 0.22258 0.11182 0.0
C137 C 0.37185 0.20854 0.09218 0.0
C138 C 0.3373 0.14641 1.02044 0.0
C139 C 0.35203 0.1266 0.08072 0.0
O140 O 0.34723 0.08723 1.00805 0.0
O141 O 0.37161 0.07223 0.03044 0.0
O142 O 0.39927 0.1267 0.03632 0.0
O143 O 0.39413 0.09958 0.0582 0.0
O144 O 0.37883 0.1193 0.99252 0.0
O145 O 0.39015 0.1538 1.00005 0.0
O146 O 0.40214 0.17368 0.05896 0.0
O147 O 0.37442 0.19031 0.04441 0.0
O148 O 0.34731 0.13574 0.03588 0.0
O149 O 0.34826 0.16337 1.01477 0.0
O150 O 0.36395 0.14366 0.07604 0.0
O151 O 0.34926 0.1115 0.06444 0.0
H152 H 0.38846 0.06875 0.98087 0.0
H153 H 0.39517 0.04074 0.95088 0.0
H154 H 0.33956 0.00646 0.97606 0.0
H155 H 0.33334 0.03416 1.0061 0.0
H156 H 0.42448 0.21316 0.0776 0.0
H157 H 0.42382 0.2374 0.11198 0.0
H158 H 0.3563 0.22532 0.1208 0.0
H159 H 0.35724 0.20063 0.08673 0.0
Sm160 Sm 0.15154 0.89336 0.26156 0.0
Sm161 Sm 0.10035 0.88752 0.2526 0.0
C162 C 0.18862 0.90851 0.27679 0.0
C163 C 0.20632 0.90261 0.29291 0.0
C164 C 0.20449 0.88546 0.309 0.0
C165 C 0.22108 0.88092 0.32513 0.0
C166 C 0.23979 0.89346 0.32544 0.0
C167 C 0.24154 0.91046 0.30901 0.0
C168 C 0.22498 0.91495 0.29292 0.0
C169 C 0.14207 0.85308 0.24322 0.0
C170 C 0.11984 0.87597 0.30572 0.0
C171 C 0.06208 0.87709 0.2356 0.0
C172 C 0.04893 0.87768 0.21335 0.0
C173 C 0.04425 0.85871 0.20089 0.0
C174 C 0.03011 0.8588 0.18135 0.0
C175 C 0.0201 0.87784 0.17401 0.0
C176 C 0.02522 0.89689 0.18612 0.0
C177 C 0.03943 0.89682 0.20551 0.0
C178 C 0.11355 0.92602 0.27181 0.0
C179 C 0.13099 0.91 0.21032 0.0
O180 O 0.1703 0.91279 0.28717 0.0
O181 O 0.1866 0.89748 0.25689 0.0
O182 O 0.12957 0.86767 0.24973 0.0
O183 O 0.16142 0.85932 0.24806 0.0
O184 O 0.13834 0.88418 0.29873 0.0
O185 O 0.10338 0.8734 0.29091 0.0
O186 O 0.07804 0.86356 0.23665 0.0
O187 O 0.06631 0.8953 0.24613 0.0
O188 O 0.12311 0.91501 0.25629 0.0
O189 O 0.09555 0.91682 0.27744 0.0
O190 O 0.11252 0.90064 0.21583 0.0
O191 O 0.1474 0.9105 0.2254 0.0
H192 H 0.19015 0.87577 0.30927 0.0
H193 H 0.21925 0.86759 0.33734 0.0
H194 H 0.25549 0.92069 0.30897 0.0
H195 H 0.2266 0.92835 0.28075 0.0
H196 H 0.05109 0.84366 0.20665 0.0
H197 H 0.02642 0.84383 0.17253 0.0
H198 H 0.01805 0.91189 0.18071 0.0
H199 H 0.04256 0.91176 0.21466 0.0
Sm200 Sm 0.36664 0.9033 0.5076 0.0
Sm201 Sm 0.37442 0.85578 0.49968 0.0
C202 C 0.35599 0.942 0.52294 0.0
C203 C 0.36151 0.95789 0.54163 0.0
C204 C 0.35935 0.95341 0.56624 0.0
C205 C 0.36336 0.9693 0.58339 0.0
C206 C 0.36966 0.98998 0.57633 0.0
C207 C 0.37236 0.99415 0.55171 0.0
C208 C 0.36823 0.97834 0.5346 0.0
C209 C 0.40427 0.89422 0.48449 0.0
C210 C 0.38377 0.87365 0.55345 0.0
C211 C 0.38835 0.8188 0.48206 0.0
C212 C 0.38779 0.80521 0.46029 0.0
C213 C 0.4066 0.79503 0.45276 0.0
C214 C 0.40639 0.78091 0.43327 0.0
C215 C 0.3873 0.77658 0.4208 0.0
C216 C 0.36856 0.78733 0.42797 0.0
C217 C 0.36879 0.8015 0.44749 0.0
C218 C 0.3343 0.86523 0.51759 0.0
C219 C 0.35013 0.88421 0.457 0.0
O220 O 0.34605 0.92456 0.52959 0.0
O221 O 0.37019 0.93863 0.50618 0.0
O222 O 0.39703 0.8838 0.50226 0.0
O223 O 0.39227 0.91053 0.47969 0.0
O224 O 0.37581 0.89192 0.54563 0.0
O225 O 0.38676 0.85725 0.53882 0.0
O226 O 0.39926 0.83658 0.48081 0.0
O227 O 0.37078 0.82074 0.49458 0.0
O228 O 0.34443 0.87559 0.50197 0.0
O229 O 0.34521 0.84843 0.52393 0.0
O230 O 0.36164 0.86701 0.46224 0.0
O231 O 0.3473 0.89955 0.47298 0.0
H232 H 0.35423 0.93778 0.57226 0.0
H233 H 0.3609 0.96551 0.60214 0.0
H234 H 0.37757 0.00972 0.54558 0.0
H235 H 0.37005 0.9822 0.51576 0.0
H236 H 0.42147 0.79775 0.46225 0.0
H237 H 0.4212 0.77329 0.42805 0.0
H238 H 0.35352 0.7843 0.41898 0.0
H239 H 0.35406 0.80922 0.45282 0.0
Sm240 Sm 0.35838 0.11684 0.75931 0.0
Sm241 Sm 0.40587 0.12573 0.75007 0.0
C242 C 0.32056 0.10381 0.77509 0.0
C243 C 0.30458 0.10787 0.79387 0.0
C244 C 0.28738 0.09374 0.79626 0.0
C245 C 0.27146 0.09749 0.81328 0.0
C246 C 0.27236 0.11556 0.82829 0.0
C247 C 0.28989 0.12956 0.82611 0.0
C248 C 0.30588 0.12576 0.809 0.0
C249 C 0.36628 0.15484 0.7364 0.0
C250 C 0.38831 0.13542 0.80402 0.0
C251 C 0.4421 0.14045 0.73135 0.0
C252 C 0.45676 0.13811 0.71055 0.0
C253 C 0.46049 0.15575 0.69552 0.0
C254 C 0.47541 0.15455 0.67683 0.0
C255 C 0.48709 0.13569 0.67277 0.0
C256 C 0.48304 0.1179 0.68757 0.0
C257 C 0.46806 0.11908 0.70623 0.0
C258 C 0.39749 0.08533 0.76788 0.0
C259 C 0.37707 0.10047 0.70824 0.0
O260 O 0.33863 0.09515 0.78184 0.0
O261 O 0.323 0.11867 0.75883 0.0
O262 O 0.37732 0.14752 0.75365 0.0
O263 O 0.34983 0.14281 0.73223 0.0
O264 O 0.37022 0.12659 0.79689 0.0
O265 O 0.40429 0.13888 0.78892 0.0
O266 O 0.42342 0.14911 0.72731 0.0
O267 O 0.44132 0.12502 0.74718 0.0
O268 O 0.3866 0.09555 0.75284 0.0
O269 O 0.41456 0.09618 0.77336 0.0
O270 O 0.39438 0.11201 0.71307 0.0
O271 O 0.36194 0.09784 0.7245 0.0
H272 H 0.2862 0.07979 0.78481 0.0
H273 H 0.25849 0.08613 0.81479 0.0
H274 H 0.29105 0.14366 0.83729 0.0
H275 H 0.3191 0.13684 0.8074 0.0
H276 H 0.45213 0.17068 0.69853 0.0
H277 H 0.47822 0.16863 0.66599 0.0
H278 H 0.49149 0.10301 0.68475 0.0
H279 H 0.46557 0.10517 0.71743 0.0
Sm280 Sm 0.14346 0.10723 1.00891 0.0
Sm281 Sm 0.13565 0.15466 0.99982 0.0
C282 C 0.1542 0.06893 0.02544 0.0
C283 C 0.14847 0.05315 0.0442 0.0
C284 C 0.15116 0.05752 0.06877 0.0
C285 C 0.14714 0.04168 0.08597 0.0
C286 C 0.14032 0.02114 0.07901 0.0
C287 C 0.13708 0.01708 0.05444 0.0
C288 C 0.14121 0.03285 0.03728 0.0
C289 C 0.10576 0.1159 0.98566 0.0
C290 C 0.12531 0.13744 0.05355 0.0
C291 C 0.12199 0.19125 0.98094 0.0
C292 C 0.12482 0.20589 0.96018 0.0
C293 C 0.10751 0.20972 0.94469 0.0
C294 C 0.10914 0.22469 0.9261 0.0
C295 C 0.12812 0.23635 0.92259 0.0
C296 C 0.14559 0.23219 0.93784 0.0
C297 C 0.14397 0.21715 0.95641 0.0
C298 C 0.17583 0.14569 1.01806 0.0
C299 C 0.16071 0.12554 0.9582 0.0
O300 O 0.16368 0.08662 0.03211 0.0
O301 O 0.14044 0.07184 1.00808 0.0
O302 O 0.11309 0.12669 1.0031 0.0
O303 O 0.11767 0.09942 0.98134 0.0
O304 O 0.13399 0.11929 0.04645 0.0
O305 O 0.12207 0.15343 0.03842 0.0
O306 O 0.1129 0.17279 0.97681 0.0
O307 O 0.13726 0.19008 0.99693 0.0
O308 O 0.16565 0.13493 1.00283 0.0
O309 O 0.16499 0.16273 0.02365 0.0
O310 O 0.14936 0.14296 0.96298 0.0
O311 O 0.16307 0.11035 0.97445 0.0
H312 H 0.15674 0.07302 0.07473 0.0
H313 H 0.15002 0.04538 0.10468 0.0
H314 H 0.13146 1.00163 0.04839 0.0
H315 H 0.13901 0.02904 1.01848 0.0
H316 H 0.09249 0.20142 0.94728 0.0
H317 H 0.09529 0.22759 0.91491 0.0
H318 H 0.16055 0.24061 0.93546 0.0
H319 H 0.15764 0.2146 0.96798 0.0
Sm320 Sm 0.90305 0.88327 0.75068 0.0
Sm321 Sm 0.85562 0.89194 0.75932 0.0
C322 C 0.93961 0.86894 0.73244 0.0
C323 C 0.95443 0.8713 0.71187 0.0
C324 C 0.94717 0.87164 0.68798 0.0
C325 C 0.96179 0.8724 0.66889 0.0
C326 C 0.98397 0.8728 0.67328 0.0
C327 C 0.99106 0.87285 0.69726 0.0
C328 C 0.97648 0.87206 0.71627 0.0
C329 C 0.89465 0.92348 0.76895 0.0
C330 C 0.87466 0.90866 0.70876 0.0
C331 C 0.81737 0.90328 0.77541 0.0
C332 C 0.80137 0.89769 0.79397 0.0
C333 C 0.80589 0.89932 0.81862 0.0
C334 C 0.78991 0.89542 0.83567 0.0
C335 C 0.76908 0.88976 0.82847 0.0
C336 C 0.76486 0.88755 0.80379 0.0
C337 C 0.78077 0.89157 0.78679 0.0
C338 C 0.86398 0.8541 0.73629 0.0
C339 C 0.88519 0.87303 0.80413 0.0
O340 O 0.92102 0.86009 0.72835 0.0
O341 O 0.93862 0.8846 0.74795 0.0
O342 O 0.88376 0.91359 0.7536 0.0
O343 O 0.91148 0.91237 0.77463 0.0
O344 O 0.89177 0.89689 0.71367 0.0
O345 O 0.85946 0.91147 0.7249 0.0
O346 O 0.83516 0.91243 0.78236 0.0
O347 O 0.82019 0.88956 0.75802 0.0
O348 O 0.87462 0.86131 0.75388 0.0
O349 O 0.84772 0.86623 0.73165 0.0
O350 O 0.86729 0.88218 0.79694 0.0
O351 O 0.9012 0.8695 0.78914 0.0
H352 H 0.93023 0.87104 0.68403 0.0
H353 H 0.95571 0.87224 0.6507 0.0
H354 H 0.00794 0.87361 0.70142 0.0
H355 H 0.98248 0.8718 0.73451 0.0
H356 H 0.82164 0.90399 0.82476 0.0
H357 H 0.79374 0.89749 0.85448 0.0
H358 H 0.74917 0.88283 0.79754 0.0
H359 H 0.77687 0.89017 0.76791 0.0
Sm360 Sm 0.87728 0.15429 0.50186 0.0
Sm361 Sm 0.86945 0.10651 0.50986 0.0
C362 C 0.8912 0.19131 0.48437 0.0
C363 C 0.88936 0.20597 0.46357 0.0
C364 C 0.88984 0.19856 0.43975 0.0
C365 C 0.8894 0.21305 0.42052 0.0
C366 C 0.8885 0.23525 0.42468 0.0
C367 C 0.88768 0.24248 0.4486 0.0
C368 C 0.88814 0.22803 0.46775 0.0
C369 C 0.83731 0.14473 0.52001 0.0
C370 C 0.85216 0.12607 0.45953 0.0
C371 C 0.85777 0.0678 0.52416 0.0
C372 C 0.86109 0.05202 0.54336 0.0
C373 C 0.84664 0.03508 0.54556 0.0
C374 C 0.84981 0.01922 0.56282 0.0
C375 C 0.86761 0.01994 0.57824 0.0
C376 C 0.88189 0.03726 0.57631 0.0
C377 C 0.87866 0.05319 0.55898 0.0
C378 C 0.9066 0.11583 0.48594 0.0
C379 C 0.88683 0.13606 0.55554 0.0
O380 O 0.90095 0.17307 0.48101 0.0
O381 O 0.87479 0.18977 0.49878 0.0
O382 O 0.84751 0.13434 0.50453 0.0
O383 O 0.84791 0.16185 0.52586 0.0
O384 O 0.86352 0.14342 0.46467 0.0
O385 O 0.85001 0.1105 0.47536 0.0
O386 O 0.8472 0.08514 0.52971 0.0
O387 O 0.8739 0.07138 0.50981 0.0
O388 O 0.8997 0.12608 0.504 0.0
O389 O 0.89454 0.09952 0.48127 0.0
O390 O 0.87856 0.11787 0.54787 0.0
O391 O 0.89007 0.15236 0.54082 0.0
H392 H 0.89081 0.18161 0.43599 0.0
H393 H 0.89017 0.20687 0.40239 0.0
H394 H 0.88652 0.25937 0.45258 0.0
H395 H 0.88775 0.23414 0.48593 0.0
H396 H 0.83292 0.034 0.53374 0.0
H397 H 0.83824 0.00642 0.56414 0.0
H398 H 0.89579 0.03828 0.58783 0.0
H399 H 0.88998 0.06622 0.55756 0.0
Sm400 Sm 0.60654 0.12723 0.25064 0.0
Sm401 Sm 0.65402 0.11873 0.25928 0.0
C402 C 0.57008 0.14171 0.2322 0.0
C403 C 0.55626 0.14055 0.21063 0.0
C404 C 0.54663 0.1593 0.20206 0.0
C405 C 0.5324 0.15866 0.18268 0.0
C406 C 0.52739 0.13919 0.17135 0.0
C407 C 0.53756 0.12045 0.17957 0.0
C408 C 0.55185 0.12112 0.19899 0.0
C409 C 0.61508 0.0871 0.26901 0.0
C410 C 0.635 0.1019 0.20877 0.0
C411 C 0.69235 0.10756 0.27532 0.0
C412 C 0.70836 0.11316 0.29388 0.0
C413 C 0.70385 0.11155 0.31853 0.0
C414 C 0.71984 0.11544 0.3356 0.0
C415 C 0.74067 0.12109 0.3284 0.0
C416 C 0.74488 0.12329 0.30372 0.0
C417 C 0.72896 0.11928 0.28671 0.0
C418 C 0.64551 0.15643 0.23602 0.0
C419 C 0.6243 0.13715 0.3043 0.0
O420 O 0.58833 0.15167 0.22997 0.0
O421 O 0.57132 0.12484 0.24599 0.0
O422 O 0.62593 0.09699 0.25362 0.0
O423 O 0.59826 0.09821 0.27477 0.0
O424 O 0.61794 0.11376 0.2136 0.0
O425 O 0.65017 0.09907 0.22497 0.0
O426 O 0.67462 0.0983 0.28223 0.0
O427 O 0.68944 0.12133 0.25799 0.0
O428 O 0.63494 0.14928 0.25369 0.0
O429 O 0.66178 0.14431 0.23141 0.0
O430 O 0.6424 0.12853 0.29691 0.0
O431 O 0.60809 0.14034 0.28944 0.0
H432 H 0.5499 0.1745 0.21063 0.0
H433 H 0.52522 0.17345 0.17664 0.0
H434 H 0.53401 0.10514 0.17147 0.0
H435 H 0.55913 0.10641 0.20515 0.0
H436 H 0.6881 0.10689 0.32467 0.0
H437 H 0.71602 0.11339 0.3544 0.0
H438 H 0.76057 0.128 0.29748 0.0
H439 H 0.73285 0.12066 0.26784 0.0
Sm440 Sm 0.63248 0.85612 1.00166 0.0
Sm441 Sm 0.64053 0.90388 1.00997 0.0
C442 C 0.61848 0.81929 0.98372 0.0
C443 C 0.62058 0.80463 0.96293 0.0
C444 C 0.62008 0.81202 0.93909 0.0
C445 C 0.6207 0.79752 0.91986 0.0
C446 C 0.62179 0.77533 0.92403 0.0
C447 C 0.62266 0.76813 0.94795 0.0
C448 C 0.62201 0.78258 0.9671 0.0
C449 C 0.67256 0.86543 1.01972 0.0
C450 C 0.65763 0.88453 0.95949 0.0
C451 C 0.65246 0.94242 0.02462 0.0
C452 C 0.649 0.95824 0.04374 0.0
C453 C 0.6633 0.97533 0.04585 0.0
C454 C 0.66002 0.9912 0.06306 0.0
C455 C 0.64227 0.99036 0.07853 0.0
C456 C 0.62814 0.9729 0.07667 0.0
C457 C 0.63148 0.95696 0.05938 0.0
C458 C 0.6032 0.8948 0.98623 0.0
C459 C 0.6229 0.87422 0.05541 0.0
O460 O 0.60901 0.83765 0.98017 0.0
O461 O 0.63458 0.82061 0.9986 0.0
O462 O 0.66232 0.87597 1.00438 0.0
O463 O 0.66191 0.84831 0.02547 0.0
O464 O 0.64625 0.86718 0.96455 0.0
O465 O 0.65986 0.90001 0.97542 0.0
O466 O 0.66267 0.92492 0.03042 0.0
O467 O 0.63656 0.93907 1.00986 0.0
O468 O 0.61021 0.88442 1.00414 0.0
O469 O 0.61523 0.91116 0.98165 0.0
O470 O 0.63129 0.89238 0.04786 0.0
O471 O 0.61959 0.85798 0.0406 0.0
H472 H 0.61894 0.82895 0.93531 0.0
H473 H 0.61989 0.80369 0.90173 0.0
H474 H 0.62396 0.75125 0.95195 0.0
H475 H 0.62242 0.77648 0.98529 0.0
H476 H 0.67698 0.97651 0.034 0.0
H477 H 0.67148 1.00412 0.06431 0.0
H478 H 0.61429 0.97177 0.08823 0.0
H479 H 0.62028 0.94381 0.05802 0.0
Sm480 Sm 0.90357 0.12521 0.791 0.0
Sm481 Sm 0.85609 0.11641 0.7821 0.0
C482 C 0.94007 0.13989 0.80916 0.0
C483 C 0.95501 0.13804 0.82974 0.0
C484 C 0.94812 0.14001 0.85367 0.0
C485 C 0.96295 0.13977 0.8726 0.0
C486 C 0.985 0.13762 0.86802 0.0
C487 C 0.9917 0.13529 0.84405 0.0
C488 C 0.97691 0.13555 0.8252 0.0
C489 C 0.89518 0.08485 0.77319 0.0
C490 C 0.87501 0.1002 0.83316 0.0
C491 C 0.81792 0.10405 0.76649 0.0
C492 C 0.8021 0.10813 0.74745 0.0
C493 C 0.80451 0.12499 0.73107 0.0
C494 C 0.78872 0.1289 0.71371 0.0
C495 C 0.77025 0.11604 0.71254 0.0
C496 C 0.76821 0.09899 0.72885 0.0
C497 C 0.78395 0.09511 0.7461 0.0
C498 C 0.86435 0.15426 0.80523 0.0
C499 C 0.88597 0.13452 0.73704 0.0
O500 O 0.92146 0.14879 0.81296 0.0
O501 O 0.93913 0.12395 0.794 0.0
O502 O 0.88425 0.09492 0.78835 0.0
O503 O 0.91207 0.09585 0.76748 0.0
O504 O 0.89232 0.11161 0.82807 0.0
O505 O 0.8597 0.09751 0.81708 0.0
O506 O 0.83576 0.0947 0.76018 0.0
O507 O 0.82075 0.11922 0.78229 0.0
O508 O 0.87506 0.14708 0.78767 0.0
O509 O 0.84804 0.14214 0.80969 0.0
O510 O 0.86788 0.12577 0.74432 0.0
O511 O 0.90195 0.13812 0.7521 0.0
H512 H 0.93133 0.14204 0.85776 0.0
H513 H 0.95718 0.14172 0.89077 0.0
H514 H 0.00844 0.13315 0.83979 0.0
H515 H 0.98266 0.13405 0.80694 0.0
H516 H 0.81845 0.13523 0.73186 0.0
H517 H 0.79078 0.14222 0.70154 0.0
H518 H 0.75447 0.08848 0.72819 0.0
H519 H 0.78187 0.08197 0.75853 0.0
Sm520 Sm 0.63802 0.16004 0.53862 0.0
Sm521 Sm 0.64351 0.10881 0.53003 0.0
C522 C 0.627 0.19856 0.55429 0.0
C523 C 0.62421 0.2117 0.57606 0.0
C524 C 0.62417 0.2028 0.59919 0.0
C525 C 0.62235 0.21606 0.61946 0.0
C526 C 0.62055 0.23842 0.61692 0.0
C527 C 0.62046 0.24706 0.59359 0.0
C528 C 0.62223 0.23386 0.57347 0.0
C529 C 0.67637 0.14671 0.5194 0.0
C530 C 0.65956 0.1293 0.58139 0.0
C531 C 0.65766 0.07143 0.51464 0.0
C532 C 0.65153 0.05438 0.49744 0.0
C533 C 0.65068 0.0583 0.4726 0.0
C534 C 0.64636 0.0417 0.45649 0.0
C535 C 0.64264 0.02076 0.46475 0.0
C536 C 0.64299 0.01702 0.48967 0.0
C537 C 0.64747 0.03361 0.50578 0.0
C538 C 0.60325 0.11875 0.54808 0.0
C539 C 0.62699 0.14039 0.48531 0.0
O540 O 0.61315 0.18326 0.55028 0.0
O541 O 0.64659 0.1933 0.5486 0.0
O542 O 0.66545 0.13713 0.53503 0.0
O543 O 0.66716 0.16469 0.51367 0.0
O544 O 0.65016 0.14772 0.57572 0.0
O545 O 0.66035 0.11286 0.56637 0.0
O546 O 0.66376 0.0898 0.50556 0.0
O547 O 0.6461 0.07348 0.53416 0.0
O548 O 0.61808 0.13104 0.54188 0.0
O549 O 0.60926 0.09934 0.5433 0.0
O550 O 0.63458 0.12175 0.49267 0.0
O551 O 0.62479 0.15707 0.49986 0.0
H552 H 0.62573 0.1857 0.60156 0.0
H553 H 0.62234 0.20879 0.63708 0.0
H554 H 0.6196 0.26416 0.59081 0.0
H555 H 0.62239 0.24105 0.55578 0.0
H556 H 0.65375 0.0741 0.46549 0.0
H557 H 0.64656 0.04522 0.43747 0.0
H558 H 0.63988 1.00123 0.49678 0.0
H559 H 0.64804 0.03012 0.52481 0.0
Sm560 Sm 0.60679 0.8853 0.29114 0.0
Sm561 Sm 0.65411 0.89428 0.28146 0.0
C562 C 0.57064 0.87029 0.30982 0.0
C563 C 0.55687 0.871 0.33143 0.0
C564 C 0.54712 0.8521 0.3394 0.0
C565 C 0.53277 0.85239 0.35866 0.0
C566 C 0.52777 0.87163 0.37047 0.0
C567 C 0.5381 0.89049 0.36289 0.0
C568 C 0.5525 0.89018 0.34358 0.0
C569 C 0.61479 0.92565 0.27308 0.0
C570 C 0.63576 0.9105 0.3327 0.0
C571 C 0.69199 0.90695 0.26537 0.0
C572 C 0.70792 0.90258 0.24657 0.0
C573 C 0.70553 0.88556 0.23038 0.0
C574 C 0.72134 0.88151 0.21312 0.0
C575 C 0.7398 0.89438 0.21183 0.0
C576 C 0.74183 0.91156 0.22797 0.0
C577 C 0.72608 0.91557 0.24514 0.0
C578 C 0.64632 0.85635 0.30466 0.0
C579 C 0.62373 0.87611 0.23682 0.0
O580 O 0.58902 0.86051 0.31178 0.0
O581 O 0.57162 0.88734 0.29629 0.0
O582 O 0.62595 0.91565 0.2881 0.0
O583 O 0.59788 0.91455 0.2676 0.0
O584 O 0.61874 0.89846 0.3282 0.0
O585 O 0.65052 0.91359 0.31611 0.0
O586 O 0.67395 0.91561 0.25859 0.0
O587 O 0.68952 0.89229 0.28185 0.0
O588 O 0.63535 0.86357 0.28731 0.0
O589 O 0.66267 0.8685 0.30886 0.0
O590 O 0.64199 0.88461 0.24392 0.0
O591 O 0.60779 0.87278 0.25201 0.0
H592 H 0.55035 0.83709 0.33041 0.0
H593 H 0.52546 0.83751 0.36421 0.0
H594 H 0.53456 0.90564 0.37138 0.0
H595 H 0.55987 0.90499 0.33787 0.0
H596 H 0.69158 0.87535 0.23124 0.0
H597 H 0.71928 0.86809 0.20107 0.0
H598 H 0.75556 0.92207 0.22722 0.0
H599 H 0.72814 0.92884 0.25741 0.0
Sm600 Sm 0.87215 0.85036 0.03824 0.0
Sm601 Sm 0.86575 0.90163 0.02885 0.0
C602 C 0.88395 0.81284 0.05601 0.0
C603 C 0.88583 0.80115 0.07909 0.0
C604 C 0.90489 0.79042 0.08463 0.0
C605 C 0.90628 0.77728 0.10494 0.0
C606 C 0.88855 0.77446 0.12019 0.0
C607 C 0.86972 0.78595 0.11508 0.0
C608 C 0.86838 0.79915 0.09482 0.0
C609 C 0.83351 0.8629 1.01908 0.0
C610 C 0.85007 0.88132 0.08048 0.0
C611 C 0.85039 0.93854 1.0134 0.0
C612 C 0.85613 0.95621 0.99715 0.0
C613 C 0.84339 0.97459 0.9967 0.0
C614 C 0.84783 0.99115 0.9806 0.0
C615 C 0.86517 0.98969 0.96458 0.0
C616 C 0.87807 0.97124 0.96531 0.0
C617 C 0.87359 0.95465 0.98145 0.0
C618 C 0.90614 0.89214 0.04683 0.0
C619 C 0.88295 0.86962 0.98477 0.0
O620 O 0.89752 0.82836 0.05185 0.0
O621 O 0.86467 0.81693 0.04809 0.0
O622 O 0.84444 0.87289 0.03439 0.0
O623 O 0.8428 0.84483 1.0138 0.0
O624 O 0.85976 0.86301 0.07506 0.0
O625 O 0.84894 0.89755 0.06521 0.0
O626 O 0.84615 0.92015 1.00315 0.0
O627 O 0.8615 0.93669 0.03326 0.0
O628 O 0.89144 0.87982 0.04038 0.0
O629 O 0.89995 0.91155 0.04221 0.0
O630 O 0.87495 0.88821 0.99177 0.0
O631 O 0.88543 0.85311 0.99954 0.0
H632 H 0.9186 0.79175 0.07286 0.0
H633 H 0.92117 0.76906 0.10848 0.0
H634 H 0.85565 0.78409 0.12617 0.0
H635 H 0.85346 0.80728 0.09113 0.0
H636 H 0.82976 0.97601 1.00856 0.0
H637 H 0.8373 1.00488 0.98031 0.0
H638 H 0.89166 0.96963 0.95343 0.0
H639 H 0.88359 0.94052 0.98151 0.0
Sm640 Sm 0.65322 0.61864 0.78107 0.0
Sm641 Sm 0.60573 0.62726 0.7898 0.0
C642 C 0.69132 0.606 0.76572 0.0
C643 C 0.70733 0.61007 0.74695 0.0
C644 C 0.72385 0.59529 0.74367 0.0
C645 C 0.73985 0.59904 0.72674 0.0
C646 C 0.73973 0.61776 0.71274 0.0
C647 C 0.72286 0.63242 0.71578 0.0
C648 C 0.70678 0.62861 0.73278 0.0
C649 C 0.64501 0.65645 0.80424 0.0
C650 C 0.62352 0.63684 0.73595 0.0
C651 C 0.56909 0.64163 0.80781 0.0
C652 C 0.55447 0.6396 0.8286 0.0
C653 C 0.56192 0.63993 0.85242 0.0
C654 C 0.54747 0.63936 0.87167 0.0
C655 C 0.52526 0.63849 0.86753 0.0
C656 C 0.51799 0.6378 0.84363 0.0
C657 C 0.5324 0.6384 0.82446 0.0
C658 C 0.61441 0.58688 0.77204 0.0
C659 C 0.6342 0.60224 0.83195 0.0
O660 O 0.67343 0.59694 0.75904 0.0
O661 O 0.68856 0.62102 0.78174 0.0
O662 O 0.63417 0.64926 0.78675 0.0
O663 O 0.66139 0.64438 0.80856 0.0
O664 O 0.64164 0.62824 0.74331 0.0
O665 O 0.6074 0.6402 0.75089 0.0
O666 O 0.58757 0.65087 0.81139 0.0
O667 O 0.5702 0.62555 0.79288 0.0
O668 O 0.62512 0.5971 0.78725 0.0
O669 O 0.59749 0.59779 0.7662 0.0
O670 O 0.617 0.61388 0.82701 0.0
O671 O 0.6494 0.59952 0.81578 0.0
H672 H 0.72445 0.58084 0.75436 0.0
H673 H 0.75229 0.58718 0.72453 0.0
H674 H 0.7223 0.64701 0.70537 0.0
H675 H 0.69409 0.6402 0.73506 0.0
H676 H 0.57888 0.64089 0.85617 0.0
H677 H 0.55368 0.64003 0.88979 0.0
H678 H 0.50109 0.63665 0.83966 0.0
H679 H 0.52626 0.63812 0.80628 0.0
Sm680 Sm 0.64204 0.40479 0.03253 0.0
Sm681 Sm 0.63373 0.35742 0.04097 0.0
C682 C 0.6531 0.44323 1.01674 0.0
C683 C 0.64754 0.45921 0.99817 0.0
C684 C 0.64941 0.45476 0.97353 0.0
C685 C 0.64551 0.47074 0.95646 0.0
C686 C 0.63961 0.4915 0.96365 0.0
C687 C 0.63717 0.49566 0.98831 0.0
C688 C 0.64119 0.47974 1.00532 0.0
C689 C 0.60436 0.39629 0.05585 0.0
C690 C 0.62382 0.3752 0.98735 0.0
C691 C 0.61959 0.32064 0.05883 0.0
C692 C 0.62156 0.30592 0.07953 0.0
C693 C 0.62145 0.31328 0.10338 0.0
C694 C 0.62191 0.29874 0.12256 0.0
C695 C 0.62244 0.27655 0.11829 0.0
C696 C 0.62293 0.26937 0.09435 0.0
C697 C 0.62245 0.28387 0.07526 0.0
C698 C 0.67392 0.36615 0.02269 0.0
C699 C 0.6591 0.38572 0.08299 0.0
O700 O 0.66253 0.42558 1.00988 0.0
O701 O 0.6392 0.44018 0.0339 0.0
O702 O 0.61145 0.38564 0.03818 0.0
O703 O 0.61653 0.41252 0.06042 0.0
O704 O 0.63252 0.39326 0.99475 0.0
O705 O 0.62045 0.35909 1.00226 0.0
O706 O 0.61024 0.33904 0.06246 0.0
O707 O 0.63573 0.32191 0.04401 0.0
O708 O 0.66397 0.37683 0.03818 0.0
O709 O 0.6628 0.34939 1.01677 0.0
O710 O 0.64741 0.36855 0.07806 0.0
O711 O 0.66173 0.40098 0.06687 0.0
H712 H 0.65426 0.43907 0.9674 0.0
H713 H 0.64777 0.46696 0.93768 0.0
H714 H 0.63227 0.51129 0.99453 0.0
H715 H 0.6396 0.4836 0.02419 0.0
H716 H 0.62074 0.33024 0.10721 0.0
H717 H 0.62141 0.30487 0.14071 0.0
H718 H 0.62382 0.25247 0.0903 0.0
H719 H 0.62256 0.27781 0.05705 0.0
Sm720 Sm 0.85733 0.39195 0.2818 0.0
Sm721 Sm 0.90485 0.38294 0.29086 0.0
C722 C 0.81942 0.40488 0.26614 0.0
C723 C 0.80338 0.40098 0.24733 0.0
C724 C 0.78644 0.4154 0.2448 0.0
C725 C 0.77044 0.41181 0.2278 0.0
C726 C 0.77099 0.39362 0.21297 0.0
C727 C 0.78828 0.37933 0.21527 0.0
C728 C 0.80435 0.38298 0.23235 0.0
C729 C 0.86531 0.35414 0.30506 0.0
C730 C 0.88701 0.37298 0.23714 0.0
C731 C 0.94109 0.3684 0.3097 0.0
C732 C 0.95572 0.37124 0.33045 0.0
C733 C 0.95994 0.3538 0.34559 0.0
C734 C 0.97476 0.35554 0.36433 0.0
C735 C 0.98585 0.37478 0.36833 0.0
C736 C 0.9813 0.39237 0.35341 0.0
C737 C 0.96641 0.39064 0.3347 0.0
C738 C 0.89656 0.42324 0.27271 0.0
C739 C 0.87635 0.4086 0.3326 0.0
O740 O 0.83742 0.41372 0.25952 0.0
O741 O 0.82196 0.38986 0.28219 0.0
O742 O 0.8762 0.36128 0.28763 0.0
O743 O 0.84895 0.36626 0.30932 0.0
O744 O 0.86903 0.38202 0.24425 0.0
O745 O 0.903 0.36944 0.25222 0.0
O746 O 0.92241 0.35985 0.31399 0.0
O747 O 0.9403 0.3835 0.29347 0.0
O748 O 0.88568 0.41319 0.28791 0.0
O749 O 0.91353 0.41225 0.26723 0.0
O750 O 0.89357 0.39696 0.32776 0.0
O751 O 0.86111 0.41118 0.31644 0.0
H752 H 0.7855 0.42945 0.25613 0.0
H753 H 0.75767 0.42339 0.22619 0.0
H754 H 0.78918 0.36514 0.20421 0.0
H755 H 0.81737 0.37167 0.23405 0.0
H756 H 0.95203 0.33862 0.34265 0.0
H757 H 0.97797 0.34161 0.37528 0.0
H758 H 0.98928 0.40752 0.35618 0.0
H759 H 0.96349 0.40442 0.32342 0.0
Sm760 Sm 0.86842 0.60683 0.5322 0.0
Sm761 Sm 0.87628 0.65428 0.54036 0.0
C762 C 0.85767 0.5682 0.51673 0.0
C763 C 0.86318 0.55225 0.49811 0.0
C764 C 0.86085 0.55661 0.4735 0.0
C765 C 0.86469 0.54063 0.45643 0.0
C766 C 0.871 0.51998 0.46358 0.0
C767 C 0.87391 0.51594 0.4882 0.0
C768 C 0.86995 0.53184 0.50523 0.0
C769 C 0.90596 0.6158 0.55558 0.0
C770 C 0.88631 0.6364 0.48685 0.0
C771 C 0.8901 0.69129 0.55792 0.0
C772 C 0.88829 0.70581 0.57879 0.0
C773 C 0.88902 0.69827 0.60255 0.0
C774 C 0.88863 0.71266 0.62187 0.0
C775 C 0.88753 0.73486 0.61783 0.0
C776 C 0.88642 0.74221 0.59398 0.0
C777 C 0.88684 0.72786 0.57475 0.0
C778 C 0.83623 0.64505 0.52198 0.0
C779 C 0.8512 0.62599 0.58251 0.0
O780 O 0.8479 0.5857 0.50996 0.0
O781 O 0.87178 0.57149 0.53364 0.0
O782 O 0.89882 0.62625 0.53779 0.0
O783 O 0.89389 0.59953 0.56032 0.0
O784 O 0.87783 0.61827 0.49434 0.0
O785 O 0.8895 0.65262 0.50167 0.0
O786 O 0.89996 0.67309 0.56113 0.0
O787 O 0.87361 0.68972 0.54361 0.0
O788 O 0.84624 0.63459 0.5376 0.0
O789 O 0.84719 0.66189 0.51596 0.0
O790 O 0.86284 0.64318 0.57755 0.0
O791 O 0.84866 0.61068 0.56643 0.0
H792 H 0.85568 0.57221 0.46741 0.0
H793 H 0.86208 0.54431 0.43767 0.0
H794 H 0.87914 0.50039 0.49438 0.0
H795 H 0.87189 0.52808 0.52408 0.0
H796 H 0.89016 0.68131 0.6062 0.0
H797 H 0.88961 0.7064 0.63995 0.0
H798 H 0.88508 0.75911 0.59012 0.0
H799 H 0.88624 0.73405 0.55661 0.0
Sm800 Sm 0.65268 0.39315 0.76093 0.0
Sm801 Sm 0.60513 0.38555 0.75222 0.0
C802 C 0.69128 0.40366 0.77668 0.0
C803 C 0.70727 0.39781 0.79514 0.0
C804 C 0.70306 0.4 0.8198 0.0
C805 C 0.71909 0.39587 0.83674 0.0
C806 C 0.73964 0.38942 0.82941 0.0
C807 C 0.74353 0.38665 0.80474 0.0
C808 C 0.72758 0.3909 0.78784 0.0
C809 C 0.64356 0.35571 0.73744 0.0
C810 C 0.62248 0.37586 0.80614 0.0
C811 C 0.56838 0.37157 0.73407 0.0
C812 C 0.55527 0.37174 0.71193 0.0
C813 C 0.54564 0.35268 0.70424 0.0
C814 C 0.53186 0.35252 0.68445 0.0
C815 C 0.52732 0.37147 0.67184 0.0
C816 C 0.53757 0.39046 0.67914 0.0
C817 C 0.5514 0.39059 0.69895 0.0
C818 C 0.61446 0.42545 0.77082 0.0
C819 C 0.63398 0.41046 0.71047 0.0
O820 O 0.67375 0.41324 0.78371 0.0
O821 O 0.68803 0.38992 0.7594 0.0
O822 O 0.63307 0.36296 0.75512 0.0
O823 O 0.66 0.3676 0.73288 0.0
O824 O 0.64092 0.38366 0.79863 0.0
O825 O 0.60615 0.37317 0.79133 0.0
O826 O 0.58606 0.36046 0.73361 0.0
O827 O 0.57024 0.38942 0.74611 0.0
O828 O 0.62501 0.4154 0.75529 0.0
O829 O 0.5975 0.41458 0.77666 0.0
O830 O 0.6169 0.39854 0.71505 0.0
O831 O 0.64898 0.41318 0.72688 0.0
H832 H 0.68755 0.40529 0.82603 0.0
H833 H 0.71553 0.39839 0.85554 0.0
H834 H 0.759 0.38133 0.79842 0.0
H835 H 0.73124 0.38908 0.76895 0.0
H836 H 0.5485 0.3379 0.71385 0.0
H837 H 0.5246 0.33754 0.67914 0.0
H838 H 0.53435 0.4054 0.67004 0.0
H839 H 0.5587 0.40552 0.70439 0.0
Sm840 Sm 0.8672 0.40165 1.01148 0.0
Sm841 Sm 0.87551 0.35396 1.00222 0.0
C842 C 0.85471 0.43966 0.02729 0.0
C843 C 0.85913 0.45577 0.04587 0.0
C844 C 0.84553 0.47343 0.04782 0.0
C845 C 0.84959 0.48941 0.06471 0.0
C846 C 0.86743 0.48811 0.08002 0.0
C847 C 0.88091 0.47013 0.07825 0.0
C848 C 0.8768 0.45409 0.06127 0.0
C849 C 0.90503 0.39322 0.98852 0.0
C850 C 0.88529 0.37134 0.05621 0.0
C851 C 0.88983 0.31746 0.98376 0.0
C852 C 0.88892 0.30383 0.96204 0.0
C853 C 0.9076 0.29356 0.95425 0.0
C854 C 0.90711 0.27947 0.93474 0.0
C855 C 0.88788 0.27527 0.92249 0.0
C856 C 0.86927 0.28611 0.92993 0.0
C857 C 0.86978 0.30024 0.94948 0.0
C858 C 0.83534 0.36297 1.02031 0.0
C859 C 0.85086 0.38304 0.96041 0.0
O860 O 0.84604 0.42168 0.03432 0.0
O861 O 0.86929 0.43703 1.01076 0.0
O862 O 0.89757 0.38231 1.00577 0.0
O863 O 0.89326 0.40985 0.98434 0.0
O864 O 0.877 0.38966 0.04899 0.0
O865 O 0.88825 0.35518 0.04121 0.0
O866 O 0.90009 0.33558 0.98198 0.0
O867 O 0.87268 0.31883 0.99709 0.0
O868 O 0.84558 0.37366 1.00509 0.0
O869 O 0.84608 0.34587 0.02595 0.0
O870 O 0.8626 0.36586 0.9651 0.0
O871 O 0.84799 0.39802 0.9768 0.0
H872 H 0.83175 0.47493 0.03615 0.0
H873 H 0.83861 0.50274 0.06588 0.0
H874 H 0.89483 0.46865 0.08968 0.0
H875 H 0.88748 0.44052 0.06002 0.0
H876 H 0.92258 0.29619 0.96354 0.0
H877 H 0.92183 0.27177 0.92932 0.0
H878 H 0.85413 0.28319 0.92111 0.0
H879 H 0.85515 0.30805 0.95503 0.0
Sm880 Sm 0.85835 0.61628 0.26083 0.0
Sm881 Sm 0.90601 0.62475 0.25224 0.0
C882 C 0.82023 0.60384 0.27634 0.0
C883 C 0.8042 0.60812 0.29506 0.0
C884 C 0.78699 0.59402 0.29761 0.0
C885 C 0.77103 0.59798 0.31455 0.0
C886 C 0.77189 0.61621 0.32931 0.0
C887 C 0.78945 0.63017 0.32697 0.0
C888 C 0.80548 0.62616 0.30995 0.0
C889 C 0.86684 0.65415 0.23793 0.0
C890 C 0.88799 0.6348 0.30581 0.0
C891 C 0.94279 0.63885 0.23433 0.0
C892 C 0.95785 0.63624 0.21401 0.0
C893 C 0.95097 0.63658 0.18997 0.0
C894 C 0.96585 0.63556 0.17116 0.0
C895 C 0.98791 0.63409 0.17596 0.0
C896 C 0.99463 0.63349 0.20006 0.0
C897 C 0.9798 0.63458 0.2188 0.0
C898 C 0.89709 0.58455 0.27026 0.0
C899 C 0.8775 0.59971 0.21006 0.0
O900 O 0.83811 0.59484 0.28312 0.0
O901 O 0.823 0.61869 0.26014 0.0
O902 O 0.87762 0.64679 0.25536 0.0
O903 O 0.85036 0.64224 0.23352 0.0
O904 O 0.86994 0.626 0.29852 0.0
O905 O 0.90411 0.63817 0.29088 0.0
O906 O 0.92427 0.6477 0.22988 0.0
O907 O 0.9416 0.62337 0.25003 0.0
O908 O 0.88647 0.59469 0.2549 0.0
O909 O 0.91406 0.5954 0.27606 0.0
O910 O 0.89487 0.61104 0.21517 0.0
O911 O 0.86209 0.59725 0.22602 0.0
H912 H 0.7858 0.57995 0.28636 0.0
H913 H 0.75804 0.58664 0.31618 0.0
H914 H 0.7906 0.64439 0.33796 0.0
H915 H 0.8187 0.63722 0.30824 0.0
H916 H 0.93413 0.63783 0.1857 0.0
H917 H 0.96007 0.63581 0.15285 0.0
H918 H 0.01146 0.63266 0.20449 0.0
H919 H 0.98553 0.63449 0.23715 0.0
Sm920 Sm 0.64238 0.6078 0.50943 0.0
Sm921 Sm 0.63481 0.65534 0.50088 0.0
C922 C 0.65289 0.56919 0.5252 0.0
C923 C 0.64739 0.55331 0.54391 0.0
C924 C 0.64905 0.55799 0.56851 0.0
C925 C 0.64523 0.5421 0.5857 0.0
C926 C 0.63961 0.52121 0.57867 0.0
C927 C 0.63737 0.51684 0.55403 0.0
C928 C 0.6413 0.53266 0.53689 0.0
C929 C 0.60497 0.61684 0.48582 0.0
C930 C 0.6247 0.63774 0.5546 0.0
C931 C 0.62115 0.69227 0.48286 0.0
C932 C 0.62323 0.70704 0.46219 0.0
C933 C 0.6233 0.69975 0.43832 0.0
C934 C 0.62381 0.71434 0.41918 0.0
C935 C 0.62421 0.73654 0.42349 0.0
C936 C 0.62452 0.74365 0.44746 0.0
C937 C 0.624 0.7291 0.46652 0.0
C938 C 0.6748 0.64593 0.51932 0.0
C939 C 0.65993 0.62658 0.45902 0.0
O940 O 0.66277 0.58667 0.53184 0.0
O941 O 0.63874 0.57246 0.50833 0.0
O942 O 0.6121 0.6274 0.50355 0.0
O943 O 0.61694 0.60045 0.48134 0.0
O944 O 0.63304 0.61952 0.5472 0.0
O945 O 0.6216 0.65391 0.53967 0.0
O946 O 0.61161 0.67397 0.4792 0.0
O947 O 0.63726 0.69083 0.49772 0.0
O948 O 0.66467 0.63543 0.50383 0.0
O949 O 0.66404 0.66296 0.52509 0.0
O950 O 0.64858 0.64398 0.4639 0.0
O951 O 0.66217 0.61124 0.47513 0.0
H952 H 0.65367 0.57379 0.57451 0.0
H953 H 0.64731 0.54604 0.60447 0.0
H954 H 0.63268 0.5011 0.54791 0.0
H955 H 0.63988 0.52865 0.51805 0.0
H956 H 0.62269 0.6828 0.43444 0.0
H957 H 0.62345 0.70824 0.40101 0.0
H958 H 0.62529 0.76055 0.45157 0.0
H959 H 0.62395 0.73513 0.48474 0.0
Sm960 Sm 0.40399 0.38424 0.25221 0.0
Sm961 Sm 0.35651 0.39167 0.26032 0.0
C962 C 0.44104 0.37066 0.23444 0.0
C963 C 0.45566 0.37261 0.21363 0.0
C964 C 0.44824 0.37199 0.18981 0.0
C965 C 0.46272 0.37245 0.17057 0.0
C966 C 0.48492 0.37349 0.17473 0.0
C967 C 0.49215 0.37449 0.19863 0.0
C968 C 0.47771 0.374 0.21779 0.0
C969 C 0.39464 0.42427 0.27039 0.0
C970 C 0.37547 0.40923 0.21004 0.0
C971 C 0.31765 0.40184 0.27562 0.0
C972 C 0.30185 0.39665 0.29454 0.0
C973 C 0.3061 0.40017 0.319 0.0
C974 C 0.29021 0.39661 0.33627 0.0
C975 C 0.26975 0.3894 0.32947 0.0
C976 C 0.26582 0.38533 0.30504 0.0
C977 C 0.28164 0.389 0.28781 0.0
C978 C 0.36588 0.3544 0.23652 0.0
C979 C 0.38625 0.37453 0.30594 0.0
O980 O 0.42285 0.36082 0.23112 0.0
O981 O 0.43944 0.387 0.24894 0.0
O982 O 0.38406 0.41416 0.25493 0.0
O983 O 0.41154 0.41341 0.27639 0.0
O984 O 0.39285 0.39791 0.21511 0.0
O985 O 0.36002 0.41146 0.226 0.0
O986 O 0.33491 0.41232 0.28182 0.0
O987 O 0.32126 0.38722 0.25938 0.0
O988 O 0.37614 0.3614 0.25454 0.0
O989 O 0.34961 0.36648 0.23178 0.0
O990 O 0.36802 0.38267 0.29829 0.0
O991 O 0.40251 0.37139 0.29116 0.0
H992 H 0.43129 0.37088 0.18606 0.0
H993 H 0.45653 0.37156 0.15245 0.0
H994 H 0.50904 0.37576 0.2026 0.0
H995 H 0.48383 0.3745 0.23597 0.0
H996 H 0.32154 0.40605 0.3248 0.0
H997 H 0.2938 0.40012 0.35486 0.0
H998 H 0.25045 0.37939 0.29914 0.0
H999 H 0.27794 0.38615 0.26909 0.0
Sm1000 Sm 0.37744 0.6541 1.00102 0.0
Sm1001 Sm 0.36853 0.60645 1.00986 0.0
C1002 C 0.39206 0.69052 0.98268 0.0
C1003 C 0.38987 0.70532 0.96203 0.0
C1004 C 0.38986 0.69804 0.93814 0.0
C1005 C 0.38923 0.71265 0.91901 0.0
C1006 C 0.38864 0.73483 0.92333 0.0
C1007 C 0.38828 0.74193 0.94731 0.0
C1008 C 0.38893 0.72737 0.96636 0.0
C1009 C 0.33717 0.6456 1.01897 0.0
C1010 C 0.35216 0.62561 0.95897 0.0
C1011 C 0.35587 0.56839 0.02536 0.0
C1012 C 0.35957 0.55259 0.04448 0.0
C1013 C 0.34532 0.53549 0.04686 0.0
C1014 C 0.3488 0.51969 0.06412 0.0
C1015 C 0.3667 0.5206 0.07939 0.0
C1016 C 0.3808 0.53807 0.07725 0.0
C1017 C 0.37727 0.55393 0.0599 0.0
C1018 C 0.40633 0.61474 0.98672 0.0
C1019 C 0.38691 0.63625 0.05485 0.0
O1020 O 0.40084 0.67188 0.97875 0.0
O1021 O 0.37634 0.68967 0.99812 0.0
O1022 O 0.34726 0.63473 1.0038 0.0
O1023 O 0.34804 0.66264 0.0245 0.0
O1024 O 0.36364 0.64289 0.96403 0.0
O1025 O 0.34957 0.61024 0.97497 0.0
O1026 O 0.34647 0.58626 0.03145 0.0
O1027 O 0.37129 0.57112 1.00983 0.0
O1028 O 0.39915 0.62546 1.00427 0.0
O1029 O 0.39426 0.59838 0.98228 0.0
O1030 O 0.37807 0.61821 0.04756 0.0
O1031 O 0.39051 0.65228 0.03985 0.0
H1032 H 0.39061 0.68111 0.93422 0.0
H1033 H 0.38964 0.70655 0.90083 0.0
H1034 H 0.38737 0.75881 0.95143 0.0
H1035 H 0.38893 0.73339 0.98458 0.0
H1036 H 0.33151 0.53426 0.0352 0.0
H1037 H 0.33736 0.50677 0.06558 0.0
H1038 H 0.39477 0.53925 0.08863 0.0
H1039 H 0.38844 0.56708 0.05833 0.0
Sm1040 Sm 0.10803 0.62747 0.74926 0.0
Sm1041 Sm 0.1557 0.61883 0.75807 0.0
C1042 C 0.07152 0.64219 0.73119 0.0
C1043 C 0.05759 0.6412 0.70973 0.0
C1044 C 0.04709 0.65981 0.70211 0.0
C1045 C 0.03273 0.65922 0.68286 0.0
C1046 C 0.02847 0.63997 0.67071 0.0
C1047 C 0.03954 0.62142 0.67796 0.0
C1048 C 0.05395 0.62203 0.69726 0.0
C1049 C 0.11678 0.58725 0.76721 0.0
C1050 C 0.13657 0.60261 0.70715 0.0
C1051 C 0.19386 0.60633 0.77341 0.0
C1052 C 0.20969 0.61014 0.79247 0.0
C1053 C 0.2269 0.59601 0.79478 0.0
C1054 C 0.24267 0.59953 0.81209 0.0
C1055 C 0.2416 0.61734 0.82746 0.0
C1056 C 0.22404 0.63133 0.82535 0.0
C1057 C 0.20821 0.62776 0.80796 0.0
C1058 C 0.14713 0.65661 0.73503 0.0
C1059 C 0.1258 0.63682 0.80315 0.0
O1060 O 0.08979 0.65212 0.72893 0.0
O1061 O 0.0728 0.62518 0.74477 0.0
O1062 O 0.12755 0.59739 0.75197 0.0
O1063 O 0.09977 0.59809 0.77292 0.0
O1064 O 0.11951 0.61446 0.71201 0.0
O1065 O 0.1517 0.5997 0.72337 0.0
O1066 O 0.17604 0.59689 0.77964 0.0
O1067 O 0.19102 0.62168 0.75782 0.0
O1068 O 0.13655 0.6493 0.75261 0.0
O1069 O 0.16351 0.64462 0.73041 0.0
O1070 O 0.14396 0.6283 0.79579 0.0
O1071 O 0.10964 0.64015 0.78824 0.0
H1072 H 0.04977 0.67481 0.71134 0.0
H1073 H 0.02485 0.67389 0.67757 0.0
H1074 H 0.03658 0.60627 0.6692 0.0
H1075 H 0.06194 0.60746 0.70268 0.0
H1076 H 0.22823 0.58226 0.78306 0.0
H1077 H 0.25565 0.58817 0.81351 0.0
H1078 H 0.22274 0.64524 0.83681 0.0
H1079 H 0.19497 0.63883 0.80645 0.0
Sm1080 Sm 0.13588 0.35199 0.50302 0.0
Sm1081 Sm 0.14203 0.40318 0.51167 0.0
C1082 C 0.12454 0.31425 0.48552 0.0
C1083 C 0.1228 0.30269 0.46235 0.0
C1084 C 0.10338 0.29303 0.45589 0.0
C1085 C 0.10197 0.28015 0.43538 0.0
C1086 C 0.12003 0.27649 0.42088 0.0
C1087 C 0.13928 0.28685 0.42695 0.0
C1088 C 0.14064 0.29982 0.44736 0.0
C1089 C 0.17432 0.36475 0.52249 0.0
C1090 C 0.15839 0.38251 0.46062 0.0
C1091 C 0.15651 0.44037 0.52714 0.0
C1092 C 0.15033 0.45764 0.544 0.0
C1093 C 0.14899 0.45395 0.56885 0.0
C1094 C 0.14463 0.47074 0.58467 0.0
C1095 C 0.14137 0.49164 0.57608 0.0
C1096 C 0.14218 0.49516 0.55114 0.0
C1097 C 0.1467 0.47838 0.53532 0.0
C1098 C 0.10181 0.39367 0.49318 0.0
C1099 C 0.1247 0.3717 0.55615 0.0
O1100 O 0.11075 0.32953 0.48981 0.0
O1101 O 0.14378 0.31861 0.49339 0.0
O1102 O 0.16357 0.37453 0.50685 0.0
O1103 O 0.16491 0.34681 0.52802 0.0
O1104 O 0.14859 0.36427 0.46613 0.0
O1105 O 0.15931 0.39889 0.47569 0.0
O1106 O 0.1621 0.42198 0.53655 0.0
O1107 O 0.1453 0.4384 0.50735 0.0
O1108 O 0.11645 0.38128 0.49971 0.0
O1109 O 0.108 0.41304 0.49787 0.0
O1110 O 0.13271 0.3902 0.54889 0.0
O1111 O 0.12227 0.35506 0.54156 0.0
H1112 H 0.08936 0.29504 0.46706 0.0
H1113 H 0.08679 0.27279 0.4311 0.0
H1114 H 0.15362 0.28428 0.41647 0.0
H1115 H 0.15586 0.30708 0.45175 0.0
H1116 H 0.15171 0.43816 0.5762 0.0
H1117 H 0.14448 0.46739 0.60373 0.0
H1118 H 0.13943 0.51094 0.54379 0.0
H1119 H 0.14765 0.48169 0.51627 0.0
Sm1120 Sm 0.40404 0.62594 0.29017 0.0
Sm1121 Sm 0.35654 0.61733 0.28068 0.0
C1122 C 0.44034 0.64067 0.30878 0.0
C1123 C 0.45399 0.64 0.33049 0.0
C1124 C 0.46428 0.65876 0.33801 0.0
C1125 C 0.47848 0.65847 0.35744 0.0
C1126 C 0.48277 0.63937 0.36986 0.0
C1127 C 0.4719 0.62067 0.36272 0.0
C1128 C 0.45766 0.62098 0.34324 0.0
C1129 C 0.39559 0.5857 0.27201 0.0
C1130 C 0.37509 0.60082 0.33172 0.0
C1131 C 0.31851 0.6049 0.26479 0.0
C1132 C 0.30248 0.60935 0.24612 0.0
C1133 C 0.30489 0.62629 0.22984 0.0
C1134 C 0.28899 0.63043 0.2127 0.0
C1135 C 0.2704 0.61773 0.21166 0.0
C1136 C 0.26833 0.60063 0.22789 0.0
C1137 C 0.28419 0.59653 0.24493 0.0
C1138 C 0.36473 0.65508 0.30402 0.0
C1139 C 0.38692 0.63536 0.236 0.0
O1140 O 0.42211 0.65074 0.31048 0.0
O1141 O 0.43916 0.62346 0.29551 0.0
O1142 O 0.3846 0.5958 0.28708 0.0
O1143 O 0.41261 0.59664 0.26653 0.0
O1144 O 0.39217 0.61277 0.32719 0.0
O1145 O 0.36021 0.5979 0.31522 0.0
O1146 O 0.33647 0.59616 0.25787 0.0
O1147 O 0.32115 0.61952 0.28127 0.0
O1148 O 0.37557 0.64786 0.2866 0.0
O1149 O 0.34828 0.64306 0.30823 0.0
O1150 O 0.36859 0.62706 0.24316 0.0
O1151 O 0.40299 0.63847 0.2511 0.0
H1152 H 0.46159 0.67365 0.32856 0.0
H1153 H 0.4862 0.67325 0.36263 0.0
H1154 H 0.47489 0.60562 0.37169 0.0
H1155 H 0.44984 0.60629 0.3379 0.0
H1156 H 0.31895 0.63637 0.23052 0.0
H1157 H 0.29107 0.64378 0.20057 0.0
H1158 H 0.2545 0.59025 0.22732 0.0
H1159 H 0.28211 0.58332 0.25728 0.0
Sm1160 Sm 0.13654 0.65802 0.03777 0.0
Sm1161 Sm 0.14229 0.6097 0.03065 0.0
C1162 C 0.12501 0.69612 0.05457 0.0
C1163 C 0.12662 0.70984 0.07634 0.0
C1164 C 0.10866 0.71294 0.09111 0.0
C1165 C 0.10938 0.72727 0.11045 0.0
C1166 C 0.12805 0.73902 0.11542 0.0
C1167 C 0.14614 0.73555 0.10093 0.0
C1168 C 0.14544 0.7212 0.08164 0.0
C1169 C 0.17601 0.64649 1.01997 0.0
C1170 C 0.15931 0.62904 0.08108 0.0
C1171 C 0.15273 0.57054 1.01652 0.0
C1172 C 0.14931 0.55472 0.99733 0.0
C1173 C 0.16317 0.53721 0.99578 0.0
C1174 C 0.15997 0.5214 0.97846 0.0
C1175 C 0.14275 0.5227 0.96227 0.0
C1176 C 0.12906 0.54055 0.96359 0.0
C1177 C 0.13231 0.55644 0.98099 0.0
C1178 C 0.10521 0.62098 0.05344 0.0
C1179 C 0.12637 0.63955 0.98445 0.0
O1180 O 0.11281 0.67919 0.05574 0.0
O1181 O 0.14233 0.69287 0.04195 0.0
O1182 O 0.16548 0.63673 0.03576 0.0
O1183 O 0.16583 0.6636 1.01324 0.0
O1184 O 0.14882 0.64678 0.07539 0.0
O1185 O 0.16112 0.61314 0.06562 0.0
O1186 O 0.16399 0.5875 1.01117 0.0
O1187 O 0.13651 0.57472 0.03053 0.0
O1188 O 0.11306 0.63079 0.03562 0.0
O1189 O 0.11594 0.60384 0.05842 0.0
O1190 O 0.13381 0.62112 0.99244 0.0
O1191 O 0.12388 0.65621 0.99883 0.0
H1192 H 0.09385 0.70461 0.08739 0.0
H1193 H 0.09507 0.72963 0.12103 0.0
H1194 H 0.16091 0.74402 0.10442 0.0
H1195 H 0.15958 0.7193 0.07067 0.0
H1196 H 0.17645 0.53568 1.00815 0.0
H1197 H 0.1711 0.50817 0.97769 0.0
H1198 H 0.1156 0.54204 0.95149 0.0
H1199 H 0.12146 0.56989 0.98188 0.0
Sm1200 Sm 0.10247 0.38775 0.78993 0.0
Sm1201 Sm 0.15353 0.39447 0.78077 0.0
C1202 C 0.0648 0.37627 0.80763 0.0
C1203 C 0.05297 0.37452 0.83064 0.0
C1204 C 0.04277 0.35525 0.83658 0.0
C1205 C 0.02949 0.35391 0.85677 0.0
C1206 C 0.02599 0.37187 0.87149 0.0
C1207 C 0.03692 0.39094 0.86598 0.0
C1208 C 0.05027 0.39224 0.84585 0.0
C1209 C 0.11468 0.42617 0.76994 0.0
C1210 C 0.13293 0.41088 0.83192 0.0
C1211 C 0.19028 0.41005 0.7651 0.0
C1212 C 0.20792 0.40419 0.74886 0.0
C1213 C 0.20617 0.38684 0.73302 0.0
C1214 C 0.22266 0.38233 0.71677 0.0
C1215 C 0.24121 0.3951 0.71606 0.0
C1216 C 0.24288 0.4123 0.73225 0.0
C1217 C 0.22642 0.41677 0.74845 0.0
C1218 C 0.14482 0.3542 0.79954 0.0
C1219 C 0.12196 0.37614 0.73683 0.0
O1220 O 0.08023 0.36259 0.80354 0.0
O1221 O 0.06907 0.3955 0.79969 0.0
O1222 O 0.12466 0.41566 0.78561 0.0
O1223 O 0.09682 0.41651 0.76462 0.0
O1224 O 0.11476 0.40087 0.82659 0.0
O1225 O 0.14922 0.41189 0.81673 0.0
O1226 O 0.17183 0.41399 0.75484 0.0
O1227 O 0.18856 0.39919 0.78515 0.0
O1228 O 0.13208 0.36867 0.79337 0.0
O1229 O 0.16403 0.36062 0.7944 0.0
O1230 O 0.1404 0.38452 0.74378 0.0
O1231 O 0.10547 0.37368 0.75161 0.0
H1232 H 0.04463 0.34134 0.82521 0.0
H1233 H 0.0217 0.33885 0.86063 0.0
H1234 H 0.03452 0.40519 0.87665 0.0
H1235 H 0.05794 0.40733 0.84184 0.0
H1236 H 0.19195 0.37696 0.73305 0.0
H1237 H 0.22089 0.36884 0.70477 0.0
H1238 H 0.2567 0.42272 0.73199 0.0
H1239 H 0.22799 0.43033 0.76042 0.0
Sm1240 Sm 0.37537 0.35659 0.54129 0.0
Sm1241 Sm 0.36787 0.40428 0.53333 0.0
C1242 C 0.38914 0.31946 0.5587 0.0
C1243 C 0.38751 0.30466 0.5794 0.0
C1244 C 0.38917 0.31179 0.60327 0.0
C1245 C 0.38907 0.29711 0.62233 0.0
C1246 C 0.38735 0.27499 0.61795 0.0
C1247 C 0.38533 0.26806 0.59402 0.0
C1248 C 0.38545 0.28269 0.57504 0.0
C1249 C 0.33532 0.36635 0.52347 0.0
C1250 C 0.35108 0.38513 0.58395 0.0
C1251 C 0.35736 0.44308 0.51821 0.0
C1252 C 0.36247 0.45889 0.49933 0.0
C1253 C 0.36068 0.45402 0.47478 0.0
C1254 C 0.36428 0.46982 0.45743 0.0
C1255 C 0.3698 0.49079 0.46425 0.0
C1256 C 0.37217 0.49535 0.48883 0.0
C1257 C 0.36846 0.47962 0.50612 0.0
C1258 C 0.40542 0.39476 0.55638 0.0
C1259 C 0.38491 0.37455 0.4876 0.0
O1260 O 0.39901 0.33765 0.562 0.0
O1261 O 0.37261 0.32112 0.54444 0.0
O1262 O 0.3456 0.37671 0.53894 0.0
O1263 O 0.34589 0.34927 0.51742 0.0
O1264 O 0.36222 0.3677 0.57862 0.0
O1265 O 0.34866 0.40066 0.56809 0.0
O1266 O 0.34701 0.42576 0.51195 0.0
O1267 O 0.37204 0.43955 0.53442 0.0
O1268 O 0.39808 0.38451 0.53855 0.0
O1269 O 0.39359 0.41117 0.56127 0.0
O1270 O 0.37673 0.39276 0.49527 0.0
O1271 O 0.38812 0.35827 0.50235 0.0
H1272 H 0.39084 0.32866 0.60719 0.0
H1273 H 0.39077 0.30307 0.64047 0.0
H1274 H 0.38352 0.25125 0.5899 0.0
H1275 H 0.38416 0.27679 0.55682 0.0
H1276 H 0.35615 0.43814 0.46897 0.0
H1277 H 0.36212 0.46573 0.43871 0.0
H1278 H 0.3768 0.51116 0.49477 0.0
H1279 H 0.37001 0.48375 0.52492 0.0
C1280 C 0.27863 0.11739 0.19871 0.0
C1281 C 0.25799 0.12489 0.19351 0.0
C1282 C 0.29516 0.1187 0.18174 0.0
C1283 C 0.29098 0.12755 0.15886 0.0
C1284 C 0.27032 0.13553 0.15359 0.0
C1285 C 0.25411 0.13416 0.17098 0.0
C1286 C 0.31693 0.10993 0.18805 0.0
C1287 C 0.2652 0.14501 0.12934 0.0
C1288 C 0.33713 0.14371 0.118 0.0
C1289 C 0.33824 0.12615 0.1024 0.0
C1290 C 0.32204 0.14431 0.13673 0.0
C1291 C 0.30775 0.12698 0.13986 0.0
C1292 C 0.30921 0.109 0.12457 0.0
C1293 C 0.32444 0.10878 0.10614 0.0
C1294 C 0.32104 0.16372 0.15275 0.0
C1295 C 0.29426 0.09019 0.12722 0.0
H1296 H 0.28178 0.10987 0.21586 0.0
H1297 H 0.23833 0.14029 0.16687 0.0
H1298 H 0.32045 0.09581 0.17669 0.0
H1299 H 0.32946 0.12203 0.18435 0.0
H1300 H 0.31805 0.10508 0.20718 0.0
H1301 H 0.24869 0.15149 0.12846 0.0
H1302 H 0.2766 0.15804 0.12506 0.0
H1303 H 0.26698 0.13263 0.11523 0.0
H1304 H 0.34762 0.15726 0.11522 0.0
H1305 H 0.32509 0.09511 0.09422 0.0
H1306 H 0.32252 0.15887 0.17183 0.0
H1307 H 0.3053 0.17168 0.15069 0.0
H1308 H 0.33381 0.17548 0.14859 0.0
H1309 H 0.29521 0.08367 0.14569 0.0
H1310 H 0.29793 0.07715 0.11434 0.0
H1311 H 0.27754 0.09545 0.12424 0.0
C1312 C 0.11751 0.08724 0.36765 0.0
C1313 C 0.13495 0.08828 0.35188 0.0
C1314 C 0.11698 0.07216 0.38639 0.0
C1315 C 0.13426 0.05777 0.38936 0.0
C1316 C 0.15209 0.0591 0.37384 0.0
C1317 C 0.15225 0.07434 0.35541 0.0
C1318 C 0.09772 0.07129 0.40264 0.0
C1319 C 0.17083 0.04404 0.37628 0.0
C1320 C 0.14432 0.02902 0.44835 0.0
C1321 C 0.13662 0.00838 0.44347 0.0
C1322 C 0.14294 0.04542 0.43123 0.0
C1323 C 0.13382 0.04112 0.4085 0.0
C1324 C 0.12568 0.02047 0.40353 0.0
C1325 C 0.12712 1.00438 0.42108 0.0
C1326 C 0.1519 0.06718 0.43721 0.0
C1327 C 0.11591 0.01522 0.37945 0.0
H1328 H 0.10401 0.09784 0.36502 0.0
H1329 H 0.1658 0.0749 0.34333 0.0
H1330 H 0.08973 0.05555 0.40083 0.0
H1331 H 0.10276 0.07291 0.42164 0.0
H1332 H 0.08593 0.08403 0.39849 0.0
H1333 H 0.18372 0.04754 0.36316 0.0
H1334 H 0.1776 0.04504 0.39464 0.0
H1335 H 0.16541 0.02734 0.37352 0.0
H1336 H 0.15202 0.03226 0.46538 0.0
H1337 H 0.12084 0.98862 0.41721 0.0
H1338 H 0.13981 0.07974 0.4336 0.0
H1339 H 0.16589 0.07056 0.42559 0.0
H1340 H 0.15701 0.0684 0.45625 0.0
H1341 H 0.10289 0.02664 0.37524 0.0
H1342 H 0.10936 0.99873 0.37881 0.0
H1343 H 0.12815 0.01686 0.36516 0.0
C1344 C 0.25605 0.87806 0.67257 0.0
C1345 C 0.25224 0.88783 0.69484 0.0
C1346 C 0.23989 0.87666 0.6551 0.0
C1347 C 0.21936 0.88512 0.66004 0.0
C1348 C 0.21525 0.8945 0.68267 0.0
C1349 C 0.23172 0.89583 0.69971 0.0
C1350 C 0.24494 0.86662 0.63112 0.0
C1351 C 0.19361 0.90378 0.6886 0.0
C1352 C 0.18642 0.90356 0.60674 0.0
C1353 C 0.17228 0.88641 0.60334 0.0
C1354 C 0.20162 0.90337 0.62521 0.0
C1355 C 0.2027 0.88565 0.64091 0.0
C1356 C 0.18808 0.86853 0.6381 0.0
C1357 C 0.17305 0.86909 0.61931 0.0
C1358 C 0.21692 0.92194 0.6275 0.0
C1359 C 0.18868 0.8494 0.65457 0.0
H1360 H 0.27172 0.87155 0.66873 0.0
H1361 H 0.22864 0.90374 0.71665 0.0
H1362 H 0.23332 0.85373 0.62708 0.0
H1363 H 0.24346 0.87876 0.61671 0.0
H1364 H 0.26133 0.85982 0.63052 0.0
H1365 H 0.1925 0.90902 0.70761 0.0
H1366 H 0.19041 0.91774 0.67688 0.0
H1367 H 0.18088 0.89184 0.68511 0.0
H1368 H 0.18605 0.91703 0.59453 0.0
H1369 H 0.16229 0.8557 0.61679 0.0
H1370 H 0.23355 0.91629 0.62482 0.0
H1371 H 0.21599 0.92885 0.64579 0.0
H1372 H 0.21358 0.93477 0.61426 0.0
H1373 H 0.20429 0.84115 0.65283 0.0
H1374 H 0.17574 0.83777 0.65056 0.0
H1375 H 0.18715 0.85462 0.67351 0.0
C1376 C 0.3947 0.92688 0.86615 0.0
C1377 C 0.37599 0.92298 0.85296 0.0
C1378 C 0.39504 0.94222 0.88463 0.0
C1379 C 0.37621 0.95381 0.89013 0.0
C1380 C 0.35714 0.94937 0.87742 0.0
C1381 C 0.35727 0.93408 0.85903 0.0
C1382 C 0.41571 0.94653 0.89771 0.0
C1383 C 0.33665 0.96119 0.88282 0.0
C1384 C 0.36896 0.98235 0.9498 0.0
C1385 C 0.37196 1.00384 0.94335 0.0
C1386 C 0.37101 0.96586 0.93287 0.0
C1387 C 0.37632 0.97088 0.90884 0.0
C1388 C 0.38016 0.99244 0.90237 0.0
C1389 C 0.37792 0.00865 0.91968 0.0
C1390 C 0.36676 0.94311 0.94052 0.0
C1391 C 0.38589 0.99847 0.87693 0.0
H1392 H 0.40929 0.91854 0.86147 0.0
H1393 H 0.34271 0.93117 0.849 0.0
H1394 H 0.42102 0.96313 0.89406 0.0
H1395 H 0.4133 0.94513 0.91736 0.0
H1396 H 0.42864 0.93539 0.89222 0.0
H1397 H 0.32299 0.95523 0.87199 0.0
H1398 H 0.33258 0.9596 0.9021 0.0
H1399 H 0.33877 0.97847 0.87906 0.0
H1400 H 0.36479 0.9784 0.96814 0.0
H1401 H 0.38014 0.02518 0.91445 0.0
H1402 H 0.38034 0.93269 0.93539 0.0
H1403 H 0.35237 0.93698 0.93113 0.0
H1404 H 0.36414 0.9417 0.96017 0.0
H1405 H 0.39963 0.9888 0.8706 0.0
H1406 H 0.39001 0.01566 0.87519 0.0
H1407 H 0.37223 0.99497 0.86486 0.0
C1408 C 0.33273 0.86597 0.42187 0.0
C1409 C 0.337 0.88473 0.43481 0.0
C1410 C 0.31779 0.86587 0.40297 0.0
C1411 C 0.30704 0.88501 0.39674 0.0
C1412 C 0.31199 0.90415 0.4091 0.0
C1413 C 0.32681 0.90375 0.42799 0.0
C1414 C 0.3129 0.84511 0.39034 0.0
C1415 C 0.3011 0.92496 0.4029 0.0
C1416 C 0.27871 0.89161 0.33675 0.0
C1417 C 0.25715 0.88943 0.3433 0.0
C1418 C 0.29516 0.88954 0.35378 0.0
C1419 C 0.29 0.88507 0.37798 0.0
C1420 C 0.26834 0.8821 0.38458 0.0
C1421 C 0.2522 0.88436 0.3672 0.0
C1422 C 0.31802 0.89285 0.346 0.0
C1423 C 0.26214 0.87726 0.41021 0.0
H1424 H 0.34039 0.85116 0.42712 0.0
H1425 H 0.33005 0.91834 0.43781 0.0
H1426 H 0.29616 0.84035 0.39412 0.0
H1427 H 0.31435 0.84713 0.37064 0.0
H1428 H 0.32366 0.83198 0.39613 0.0
H1429 H 0.30765 0.93865 0.41324 0.0
H1430 H 0.30288 0.9284 0.38348 0.0
H1431 H 0.28374 0.9237 0.40668 0.0
H1432 H 0.28276 0.89514 0.31827 0.0
H1433 H 0.23562 0.88287 0.37256 0.0
H1434 H 0.328 0.87907 0.35158 0.0
H1435 H 0.32463 0.90726 0.35493 0.0
H1436 H 0.3195 0.89492 0.32627 0.0
H1437 H 0.2713 0.86333 0.41698 0.0
H1438 H 0.24481 0.87382 0.41209 0.0
H1439 H 0.26617 0.89108 0.42183 0.0
C1440 C 0.36559 0.02822 0.58946 0.0
C1441 C 0.37261 0.00735 0.59442 0.0
C1442 C 0.3674 0.0446 0.60656 0.0
C1443 C 0.37625 0.04006 0.62936 0.0
C1444 C 0.38372 0.01917 0.63441 0.0
C1445 C 0.38187 1.00311 0.61688 0.0
C1446 C 0.35917 0.06662 0.60048 0.0
C1447 C 0.39317 0.01364 0.65857 0.0
C1448 C 0.39373 0.08544 0.67071 0.0
C1449 C 0.37626 0.08687 0.6864 0.0
C1450 C 0.39387 0.07052 0.65178 0.0
C1451 C 0.37616 0.0567 0.64853 0.0
C1452 C 0.35828 0.0585 0.66391 0.0
C1453 C 0.35851 0.07356 0.68252 0.0
C1454 C 0.41318 0.06917 0.63565 0.0
C1455 C 0.33907 0.04407 0.66116 0.0
H1456 H 0.35808 0.03167 0.57237 0.0
H1457 H 0.38765 0.98717 0.62081 0.0
H1458 H 0.34517 0.07042 0.61191 0.0
H1459 H 0.37159 0.07882 0.60426 0.0
H1460 H 0.35431 0.068 0.58137 0.0
H1461 H 0.39921 0.99697 0.65927 0.0
H1462 H 0.40651 0.02467 0.66287 0.0
H1463 H 0.3809 0.01566 0.67275 0.0
H1464 H 0.40755 0.09556 0.67358 0.0
H1465 H 0.3449 0.07446 0.69448 0.0
H1466 H 0.40829 0.0708 0.61661 0.0
H1467 H 0.42083 0.05327 0.63763 0.0
H1468 H 0.42521 0.08168 0.63981 0.0
H1469 H 0.33252 0.04535 0.64272 0.0
H1470 H 0.32618 0.04797 0.67413 0.0
H1471 H 0.34391 0.0272 0.66392 0.0
C1472 C 0.17786 0.14303 0.92246 0.0
C1473 C 0.1744 0.12473 0.93649 0.0
C1474 C 0.19313 0.14305 0.90394 0.0
C1475 C 0.20513 0.12431 0.89927 0.0
C1476 C 0.20117 0.10561 0.91285 0.0
C1477 C 0.18591 0.10606 0.93124 0.0
C1478 C 0.19692 0.16331 0.88988 0.0
C1479 C 0.21349 0.08524 0.90837 0.0
C1480 C 0.23359 0.11572 0.83985 0.0
C1481 C 0.25501 0.11955 0.84606 0.0
C1482 C 0.21713 0.11787 0.85678 0.0
C1483 C 0.22211 0.12414 0.88052 0.0
C1484 C 0.24358 0.1288 0.88672 0.0
C1485 C 0.25977 0.12642 0.86943 0.0
C1486 C 0.19447 0.11274 0.84944 0.0
C1487 C 0.24955 0.13556 0.91186 0.0
H1488 H 0.16918 0.15758 0.92647 0.0
H1489 H 0.18336 0.09182 0.94192 0.0
H1490 H 0.21343 0.16909 0.89315 0.0
H1491 H 0.19545 0.16014 0.87037 0.0
H1492 H 0.18554 0.17618 0.89486 0.0
H1493 H 0.20788 0.07185 0.91984 0.0
H1494 H 0.21197 0.08042 0.8893 0.0
H1495 H 0.23071 0.08793 0.91199 0.0
H1496 H 0.22969 0.11082 0.82172 0.0
H1497 H 0.27625 0.12928 0.87445 0.0
H1498 H 0.18372 0.12623 0.85398 0.0
H1499 H 0.18875 0.09857 0.85953 0.0
H1500 H 0.19306 0.10934 0.82994 0.0
H1501 H 0.23957 0.14928 0.91762 0.0
H1502 H 0.26664 0.14015 0.91334 0.0
H1503 H 0.24641 0.12226 0.92454 0.0
C1504 C 0.1505 0.93634 0.18461 0.0
C1505 C 0.1323 0.92367 0.18851 0.0
C1506 C 0.15115 0.95157 0.16616 0.0
C1507 C 0.13323 0.95417 0.15096 0.0
C1508 C 0.11505 0.94097 0.1542 0.0
C1509 C 0.11477 0.92592 0.17298 0.0
C1510 C 0.17081 0.96535 0.16345 0.0
C1511 C 0.09569 0.94315 0.13824 0.0
C1512 C 0.12863 0.00814 0.11981 0.0
C1513 C 0.13738 1.00378 0.09713 0.0
C1514 C 0.1267 0.99205 0.1373 0.0
C1515 C 0.13355 0.971 0.13198 0.0
C1516 C 0.14195 0.96637 0.10899 0.0
C1517 C 0.14386 0.98278 0.09194 0.0
C1518 C 0.11775 0.99768 0.16165 0.0
C1519 C 0.1495 0.94417 0.10262 0.0
H1520 H 0.16415 0.9349 0.19647 0.0
H1521 H 0.10059 0.9163 0.17583 0.0
H1522 H 0.17713 0.96415 0.14491 0.0
H1523 H 0.16659 0.98234 0.16661 0.0
H1524 H 0.1837 0.96081 0.17618 0.0
H1525 H 0.08325 0.93103 0.14235 0.0
H1526 H 0.08863 0.95929 0.14045 0.0
H1527 H 0.1004 0.94152 0.11914 0.0
H1528 H 0.12328 0.02419 0.12394 0.0
H1529 H 0.15099 0.97923 0.07469 0.0
H1530 H 0.13007 0.995 0.17565 0.0
H1531 H 0.10402 0.98714 0.16597 0.0
H1532 H 0.11238 0.01457 0.16268 0.0
H1533 H 0.16343 0.93985 0.11394 0.0
H1534 H 0.15425 0.94283 0.08348 0.0
H1535 H 0.13674 0.93232 0.10632 0.0
C1536 C 0.75551 0.87738 0.86876 0.0
C1537 C 0.75159 0.88708 0.84646 0.0
C1538 C 0.73936 0.87579 0.88622 0.0
C1539 C 0.71872 0.88398 0.88126 0.0
C1540 C 0.7145 0.89328 0.85861 0.0
C1541 C 0.73096 0.8948 0.84158 0.0
C1542 C 0.74455 0.86585 0.91022 0.0
C1543 C 0.69277 0.90231 0.85264 0.0
C1544 C 0.67251 0.86764 0.92201 0.0
C1545 C 0.67154 0.88502 0.93788 0.0
C1546 C 0.68759 0.86715 0.90326 0.0
C1547 C 0.70206 0.88439 0.90039 0.0
C1548 C 0.70079 0.90215 0.91602 0.0
C1549 C 0.68555 0.90229 0.93443 0.0
C1550 C 0.68837 0.84797 0.88687 0.0
C1551 C 0.71593 0.92084 0.9137 0.0
H1552 H 0.77126 0.87107 0.87263 0.0
H1553 H 0.72778 0.90266 0.82463 0.0
H1554 H 0.74294 0.87799 0.92461 0.0
H1555 H 0.73307 0.85284 0.91429 0.0
H1556 H 0.76101 0.85923 0.91084 0.0
H1557 H 0.69158 0.90748 0.83362 0.0
H1558 H 0.68017 0.89024 0.85617 0.0
H1559 H 0.68942 0.91627 0.86431 0.0
H1560 H 0.66185 0.85418 0.92456 0.0
H1561 H 0.68505 0.91581 0.94656 0.0
H1562 H 0.70401 0.83982 0.88877 0.0
H1563 H 0.68693 0.85312 0.86789 0.0
H1564 H 0.67547 0.8363 0.89082 0.0
H1565 H 0.73261 0.91535 0.91644 0.0
H1566 H 0.71248 0.93368 0.92691 0.0
H1567 H 0.71496 0.92771 0.89539 0.0
C1568 C 0.86708 0.9812 0.58991 0.0
C1569 C 0.87109 1.00257 0.59614 0.0
C1570 C 0.86881 0.96474 0.6069 0.0
C1571 C 0.87486 0.96968 0.63072 0.0
C1572 C 0.87968 0.99109 0.63697 0.0
C1573 C 0.87771 0.00728 0.61961 0.0
C1574 C 0.8635 0.94214 0.59952 0.0
C1575 C 0.88622 0.997 0.6622 0.0
C1576 C 0.85576 0.9339 0.68134 0.0
C1577 C 0.87423 0.9222 0.68692 0.0
C1578 C 0.85569 0.94906 0.66283 0.0
C1579 C 0.87459 0.95273 0.64951 0.0
C1580 C 0.89312 0.9405 0.65449 0.0
C1581 C 0.89271 0.92532 0.6731 0.0
C1582 C 0.83552 0.96159 0.65797 0.0
C1583 C 0.91358 0.94398 0.64072 0.0
H1584 H 0.86239 0.97733 0.5717 0.0
H1585 H 0.8807 0.02374 0.62466 0.0
H1586 H 0.87682 0.93123 0.60427 0.0
H1587 H 0.84916 0.93659 0.60941 0.0
H1588 H 0.86031 0.94075 0.57998 0.0
H1589 H 0.89093 0.01406 0.66374 0.0
H1590 H 0.87277 0.99397 0.6747 0.0
H1591 H 0.89981 0.98691 0.66814 0.0
H1592 H 0.84137 0.93158 0.69185 0.0
H1593 H 0.90711 0.91647 0.67737 0.0
H1594 H 0.83093 0.96009 0.63882 0.0
H1595 H 0.83835 0.97879 0.66159 0.0
H1596 H 0.82192 0.95615 0.66922 0.0
H1597 H 0.9106 0.94268 0.62115 0.0
H1598 H 0.92619 0.93233 0.64579 0.0
H1599 H 0.91965 0.96035 0.64418 0.0
C1600 C 0.75427 0.13346 0.36871 0.0
C1601 C 0.75817 0.12376 0.34641 0.0
C1602 C 0.77042 0.13502 0.38619 0.0
C1603 C 0.79105 0.12681 0.38124 0.0
C1604 C 0.79526 0.11752 0.35858 0.0
C1605 C 0.7788 0.11603 0.34153 0.0
C1606 C 0.76525 0.14496 0.41019 0.0
C1607 C 0.81699 0.10849 0.35262 0.0
C1608 C 0.83728 0.14305 0.42208 0.0
C1609 C 0.83824 0.12564 0.43793 0.0
C1610 C 0.82221 0.14359 0.40331 0.0
C1611 C 0.80772 0.12637 0.4004 0.0
C1612 C 0.80896 0.10858 0.416 0.0
C1613 C 0.8242 0.1084 0.43443 0.0
C1614 C 0.82146 0.16278 0.38695 0.0
C1615 C 0.79379 0.08991 0.41363 0.0
H1616 H 0.73852 0.13977 0.37257 0.0
H1617 H 0.78197 0.10818 0.32458 0.0
H1618 H 0.76682 0.1328 0.42457 0.0
H1619 H 0.77676 0.15794 0.41429 0.0
H1620 H 0.7488 0.15161 0.41079 0.0
H1621 H 0.81817 0.10335 0.3336 0.0
H1622 H 0.8296 0.12053 0.3562 0.0
H1623 H 0.82032 0.09451 0.36427 0.0
H1624 H 0.84796 0.15649 0.42466 0.0
H1625 H 0.82468 0.09487 0.44654 0.0
H1626 H 0.80582 0.17095 0.38883 0.0
H1627 H 0.8229 0.15765 0.36797 0.0
H1628 H 0.83437 0.17443 0.39094 0.0
H1629 H 0.77712 0.09543 0.41632 0.0
H1630 H 0.79721 0.07707 0.42684 0.0
H1631 H 0.79479 0.08305 0.39531 0.0
C1632 C 0.64248 0.02912 0.09011 0.0
C1633 C 0.6387 0.00772 0.0964 0.0
C1634 C 0.64068 0.0456 0.10708 0.0
C1635 C 0.63482 0.04065 0.13095 0.0
C1636 C 0.63022 0.0192 0.13726 0.0
C1637 C 0.63224 1.00299 0.11992 0.0
C1638 C 0.64575 0.06823 0.09963 0.0
C1639 C 0.62387 0.01327 0.16254 0.0
C1640 C 0.65393 0.07673 0.18132 0.0
C1641 C 0.6354 0.08829 0.18698 0.0
C1642 C 0.654 0.0615 0.16287 0.0
C1643 C 0.63505 0.05763 0.1497 0.0
C1644 C 0.61644 0.06971 0.15478 0.0
C1645 C 0.61685 0.08496 0.17333 0.0
C1646 C 0.67425 0.04913 0.15793 0.0
C1647 C 0.59592 0.06601 0.14118 0.0
H1648 H 0.64705 0.033 0.07187 0.0
H1649 H 0.62942 0.98652 0.12501 0.0
H1650 H 0.63238 0.07903 0.10445 0.0
H1651 H 0.66011 0.07392 0.10941 0.0
H1652 H 0.64881 0.06962 0.08006 0.0
H1653 H 0.6193 0.99618 0.16413 0.0
H1654 H 0.63738 0.01642 0.17495 0.0
H1655 H 0.61025 0.02326 0.16856 0.0
H1656 H 0.66836 0.07921 0.19172 0.0
H1657 H 0.6024 0.09368 0.17768 0.0
H1658 H 0.67872 0.05064 0.13875 0.0
H1659 H 0.67157 0.03191 0.16159 0.0
H1660 H 0.68787 0.05469 0.16909 0.0
H1661 H 0.59874 0.06745 0.1216 0.0
H1662 H 0.58319 0.07745 0.14643 0.0
H1663 H 0.59011 0.04953 0.14458 0.0
C1664 C 0.75818 0.12553 0.67071 0.0
C1665 C 0.75308 0.12021 0.6945 0.0
C1666 C 0.74209 0.12822 0.65331 0.0
C1667 C 0.72036 0.12552 0.65981 0.0
C1668 C 0.7151 0.12075 0.68392 0.0
C1669 C 0.73147 0.11821 0.70093 0.0
C1670 C 0.7484 0.13331 0.62779 0.0
C1671 C 0.69216 0.11775 0.69162 0.0
C1672 C 0.6778 0.14645 0.61675 0.0
C1673 C 0.67279 0.12802 0.60354 0.0
C1674 C 0.69294 0.14585 0.63543 0.0
C1675 C 0.70328 0.12635 0.64111 0.0
C1676 C 0.69766 0.10756 0.62848 0.0
C1677 C 0.68254 0.10861 0.60991 0.0
C1678 C 0.69846 0.16624 0.64849 0.0
C1679 C 0.70814 0.08639 0.63404 0.0
H1680 H 0.77479 0.12695 0.66549 0.0
H1681 H 0.72732 0.11452 0.71934 0.0
H1682 H 0.74392 0.11984 0.61587 0.0
H1683 H 0.73965 0.14763 0.62136 0.0
H1684 H 0.76582 0.13626 0.62593 0.0
H1685 H 0.69065 0.11522 0.71127 0.0
H1686 H 0.68251 0.1319 0.6865 0.0
H1687 H 0.68522 0.10374 0.68224 0.0
H1688 H 0.6705 0.16156 0.61195 0.0
H1689 H 0.6788 0.09423 0.59993 0.0
H1690 H 0.7153 0.17063 0.6447 0.0
H1691 H 0.69706 0.16392 0.66815 0.0
H1692 H 0.68802 0.17976 0.64308 0.0
H1693 H 0.7255 0.08737 0.6302 0.0
H1694 H 0.70126 0.07307 0.62337 0.0
H1695 H 0.70637 0.08257 0.65338 0.0
C1696 C 0.64838 0.98265 0.45162 0.0
C1697 C 0.63931 1.00284 0.44737 0.0
C1698 C 0.64667 0.96609 0.43468 0.0
C1699 C 0.63585 0.96979 0.41277 0.0
C1700 C 0.62613 0.98989 0.40861 0.0
C1701 C 0.62787 0.00609 0.42598 0.0
C1702 C 0.65722 0.94489 0.43985 0.0
C1703 C 0.61455 0.99455 0.38541 0.0
C1704 C 0.65324 0.93877 0.35756 0.0
C1705 C 0.63658 0.92394 0.35469 0.0
C1706 C 0.65327 0.9535 0.37652 0.0
C1707 C 0.63633 0.95337 0.39332 0.0
C1708 C 0.61979 0.93803 0.39105 0.0
C1709 C 0.62006 0.92352 0.37172 0.0
C1710 C 0.67115 0.96965 0.37809 0.0
C1711 C 0.60153 0.93729 0.40871 0.0
H1712 H 0.6575 0.97995 0.46786 0.0
H1713 H 0.62042 0.02143 0.42265 0.0
H1714 H 0.64585 0.9316 0.43664 0.0
H1715 H 0.67093 0.94257 0.42751 0.0
H1716 H 0.66316 0.94383 0.4586 0.0
H1717 H 0.60676 0.0105 0.38552 0.0
H1718 H 0.62599 0.99397 0.37022 0.0
H1719 H 0.60219 0.98221 0.38201 0.0
H1720 H 0.66608 0.93935 0.34455 0.0
H1721 H 0.60708 0.9122 0.36966 0.0
H1722 H 0.67896 0.96876 0.39593 0.0
H1723 H 0.66458 0.98602 0.37612 0.0
H1724 H 0.68349 0.96718 0.36405 0.0
H1725 H 0.60778 0.9359 0.42727 0.0
H1726 H 0.59052 0.92371 0.40521 0.0
H1727 H 0.59228 0.95238 0.40773 0.0
C1728 C 0.82699 0.90193 0.10892 0.0
C1729 C 0.83687 0.88259 0.10261 0.0
C1730 C 0.81194 0.90293 0.12753 0.0
C1731 C 0.80652 0.88412 0.14026 0.0
C1732 C 0.81698 0.86468 0.13463 0.0
C1733 C 0.83207 0.86415 0.11592 0.0
C1734 C 0.80132 0.92403 0.13306 0.0
C1735 C 0.81166 0.84428 0.14777 0.0
C1736 C 0.77853 0.89227 0.20014 0.0
C1737 C 0.75691 0.89014 0.19379 0.0
C1738 C 0.79486 0.88976 0.18308 0.0
C1739 C 0.78952 0.88488 0.15902 0.0
C1740 C 0.76778 0.88202 0.15261 0.0
C1741 C 0.75175 0.88469 0.17005 0.0
C1742 C 0.8178 0.89293 0.19068 0.0
C1743 C 0.76142 0.87679 0.12713 0.0
H1744 H 0.83058 0.9163 0.09885 0.0
H1745 H 0.83947 0.84908 0.11115 0.0
H1746 H 0.78395 0.9229 0.12929 0.0
H1747 H 0.80314 0.92792 0.15237 0.0
H1748 H 0.80805 0.93737 0.12231 0.0
H1749 H 0.82214 0.83081 0.14231 0.0
H1750 H 0.8132 0.84666 0.16742 0.0
H1751 H 0.79482 0.8398 0.14413 0.0
H1752 H 0.78273 0.89605 0.21852 0.0
H1753 H 0.73513 0.88317 0.16489 0.0
H1754 H 0.8246 0.90698 0.18124 0.0
H1755 H 0.82754 0.87885 0.18555 0.0
H1756 H 0.81938 0.89551 0.21032 0.0
H1757 H 0.76572 0.89027 0.11514 0.0
H1758 H 0.74401 0.87369 0.12537 0.0
H1759 H 0.77026 0.86253 0.12072 0.0
C1760 C 0.89285 0.08309 0.86876 0.0
C1761 C 0.8743 0.08699 0.85529 0.0
C1762 C 0.89284 0.06815 0.88765 0.0
C1763 C 0.8738 0.05698 0.89333 0.0
C1764 C 0.85485 0.06152 0.88042 0.0
C1765 C 0.85535 0.07638 0.86158 0.0
C1766 C 0.9134 0.06371 0.9009 0.0
C1767 C 0.83414 0.05018 0.88601 0.0
C1768 C 0.87493 1.00221 0.92304 0.0
C1769 C 0.86921 0.00709 0.94678 0.0
C1770 C 0.87725 0.01836 0.90568 0.0
C1771 C 0.87367 0.03997 0.91213 0.0
C1772 C 0.86853 0.04507 0.93618 0.0
C1773 C 0.86643 0.02862 0.95319 0.0
C1774 C 0.88282 0.01222 0.88023 0.0
C1775 C 0.86456 0.06788 0.9438 0.0
H1776 H 0.90761 0.09108 0.86396 0.0
H1777 H 0.8409 0.07932 0.85137 0.0
H1778 H 0.9109 0.06509 0.92054 0.0
H1779 H 0.91863 0.04709 0.89724 0.0
H1780 H 0.92642 0.07478 0.89553 0.0
H1781 H 0.82056 0.0564 0.87524 0.0
H1782 H 0.83587 0.03285 0.88231 0.0
H1783 H 0.8302 0.05193 0.90532 0.0
H1784 H 0.87691 0.98566 0.91777 0.0
H1785 H 0.8624 0.03263 0.97155 0.0
H1786 H 0.89672 0.02165 0.87387 0.0
H1787 H 0.8692 0.01595 0.86818 0.0
H1788 H 0.88664 0.99496 0.87849 0.0
H1789 H 0.87825 0.07813 0.93862 0.0
H1790 H 0.86199 0.06934 0.96345 0.0
H1791 H 0.85023 0.07416 0.93442 0.0
C1792 C 0.77844 0.61663 0.70093 0.0
C1793 C 0.75721 0.62173 0.6951 0.0
C1794 C 0.79492 0.61868 0.68401 0.0
C1795 C 0.79016 0.62615 0.66065 0.0
C1796 C 0.76893 0.63214 0.65489 0.0
C1797 C 0.75271 0.62984 0.67216 0.0
C1798 C 0.81731 0.61209 0.69088 0.0
C1799 C 0.76319 0.6402 0.63017 0.0
C1800 C 0.83521 0.6436 0.61892 0.0
C1801 C 0.83749 0.62552 0.60425 0.0
C1802 C 0.82007 0.64401 0.6376 0.0
C1803 C 0.80697 0.62591 0.64169 0.0
C1804 C 0.80969 0.60742 0.62741 0.0
C1805 C 0.82488 0.60745 0.60894 0.0
C1806 C 0.81765 0.66401 0.65246 0.0
C1807 C 0.79614 0.58773 0.6312 0.0
H1808 H 0.78217 0.61079 0.71875 0.0
H1809 H 0.73637 0.6337 0.66741 0.0
H1810 H 0.82212 0.5979 0.68024 0.0
H1811 H 0.82879 0.62506 0.68668 0.0
H1812 H 0.81869 0.60808 0.71023 0.0
H1813 H 0.74639 0.64585 0.62913 0.0
H1814 H 0.77393 0.6535 0.62494 0.0
H1815 H 0.76542 0.62723 0.61683 0.0
H1816 H 0.84478 0.65769 0.61538 0.0
H1817 H 0.82649 0.59337 0.59777 0.0
H1818 H 0.81902 0.66016 0.67182 0.0
H1819 H 0.80154 0.67093 0.64957 0.0
H1820 H 0.82981 0.67629 0.64789 0.0
H1821 H 0.80075 0.57441 0.6191 0.0
H1822 H 0.77908 0.59162 0.62797 0.0
H1823 H 0.79754 0.58217 0.65004 0.0
C1824 C 0.61733 0.58765 0.86957 0.0
C1825 C 0.63477 0.58863 0.85379 0.0
C1826 C 0.61688 0.57273 0.88849 0.0
C1827 C 0.63424 0.55846 0.89164 0.0
C1828 C 0.6521 0.5598 0.87616 0.0
C1829 C 0.65218 0.57487 0.85756 0.0
C1830 C 0.5976 0.57187 0.90471 0.0
C1831 C 0.67094 0.54488 0.87881 0.0
C1832 C 0.64439 0.52968 0.95061 0.0
C1833 C 0.63689 0.50898 0.94564 0.0
C1834 C 0.64286 0.54612 0.93355 0.0
C1835 C 0.6338 0.54182 0.9108 0.0
C1836 C 0.62582 0.52111 0.90576 0.0
C1837 C 0.6274 0.50498 0.92325 0.0
C1838 C 0.65164 0.56794 0.93961 0.0
C1839 C 0.61612 0.51583 0.88166 0.0
H1840 H 0.60376 0.59813 0.86679 0.0
H1841 H 0.66576 0.57541 0.84553 0.0
H1842 H 0.5895 0.5562 0.9027 0.0
H1843 H 0.60261 0.5733 0.92374 0.0
H1844 H 0.58591 0.58473 0.90066 0.0
H1845 H 0.68389 0.54847 0.8658 0.0
H1846 H 0.67757 0.54595 0.89723 0.0
H1847 H 0.66566 0.52814 0.87602 0.0
H1848 H 0.65207 0.53293 0.96765 0.0
H1849 H 0.62126 0.48917 0.91932 0.0
H1850 H 0.63952 0.58043 0.93588 0.0
H1851 H 0.6657 0.57139 0.92813 0.0
H1852 H 0.65659 0.56919 0.9587 0.0
H1853 H 0.60306 0.5272 0.87743 0.0
H1854 H 0.60965 0.49932 0.88098 0.0
H1855 H 0.62838 0.51754 0.86741 0.0
C1856 C 0.6848 0.40454 0.10998 0.0
C1857 C 0.67281 0.38617 0.10474 0.0
C1858 C 0.70007 0.40462 0.1284 0.0
C1859 C 0.70352 0.38585 0.14202 0.0
C1860 C 0.69102 0.36743 0.13738 0.0
C1861 C 0.67576 0.36781 0.11881 0.0
C1862 C 0.71291 0.42467 0.13284 0.0
C1863 C 0.69425 0.34711 0.1515 0.0
C1864 C 0.75812 0.38265 0.17194 0.0
C1865 C 0.75353 0.3898 0.19524 0.0
C1866 C 0.74186 0.38049 0.15466 0.0
C1867 C 0.7205 0.38564 0.16082 0.0
C1868 C 0.71567 0.39216 0.18451 0.0
C1869 C 0.7322 0.39409 0.20142 0.0
C1870 C 0.74766 0.37345 0.12958 0.0
C1871 C 0.69314 0.39782 0.1918 0.0
H1872 H 0.68264 0.41883 0.09927 0.0
H1873 H 0.66669 0.35349 0.11483 0.0
H1874 H 0.7115 0.42958 0.1519 0.0
H1875 H 0.73006 0.42152 0.12927 0.0
H1876 H 0.70768 0.43817 0.12132 0.0
H1877 H 0.68246 0.33457 0.14663 0.0
H1878 H 0.71056 0.34081 0.14816 0.0
H1879 H 0.69298 0.35037 0.171 0.0
H1880 H 0.77453 0.37943 0.16693 0.0
H1881 H 0.72842 0.39919 0.2195 0.0
H1882 H 0.74486 0.38676 0.11681 0.0
H1883 H 0.73734 0.35996 0.12389 0.0
H1884 H 0.76464 0.36843 0.12816 0.0
H1885 H 0.68777 0.41212 0.1817 0.0
H1886 H 0.6918 0.40126 0.2113 0.0
H1887 H 0.68206 0.38459 0.18725 0.0
C1888 C 0.88274 0.50653 0.42302 0.0
C1889 C 0.87365 0.50248 0.4456 0.0
C1890 C 0.88428 0.49036 0.40559 0.0
C1891 C 0.87665 0.46957 0.41088 0.0
C1892 C 0.86798 0.46523 0.4338 0.0
C1893 C 0.86649 0.48172 0.4508 0.0
C1894 C 0.89355 0.49565 0.3813 0.0
C1895 C 0.85959 0.44332 0.44013 0.0
C1896 C 0.8582 0.43586 0.35819 0.0
C1897 C 0.87579 0.42236 0.35431 0.0
C1898 C 0.85824 0.45106 0.37665 0.0
C1899 C 0.87626 0.45281 0.39186 0.0
C1900 C 0.89382 0.43882 0.38859 0.0
C1901 C 0.8934 0.42376 0.36983 0.0
C1902 C 0.83919 0.46568 0.37944 0.0
C1903 C 0.91328 0.44013 0.40453 0.0
H1904 H 0.88862 0.5224 0.41891 0.0
H1905 H 0.85911 0.47844 0.46799 0.0
H1906 H 0.90676 0.48449 0.37695 0.0
H1907 H 0.88114 0.49365 0.36725 0.0
H1908 H 0.89973 0.51227 0.3804 0.0
H1909 H 0.85486 0.44211 0.45928 0.0
H1910 H 0.84547 0.43958 0.42884 0.0
H1911 H 0.87187 0.431 0.43634 0.0
H1912 H 0.84448 0.43499 0.34635 0.0
H1913 H 0.90711 0.4135 0.36695 0.0
H1914 H 0.84415 0.48248 0.37645 0.0
H1915 H 0.83279 0.46461 0.39795 0.0
H1916 H 0.82615 0.46179 0.36664 0.0
H1917 H 0.92103 0.45596 0.40236 0.0
H1918 H 0.92518 0.4275 0.40036 0.0
H1919 H 0.90853 0.43866 0.42363 0.0
C1920 C 0.75318 0.37732 0.86979 0.0
C1921 C 0.7572 0.3865 0.84726 0.0
C1922 C 0.7694 0.37561 0.88716 0.0
C1923 C 0.79021 0.38315 0.88185 0.0
C1924 C 0.79453 0.39189 0.85894 0.0
C1925 C 0.778 0.39355 0.84201 0.0
C1926 C 0.76411 0.36628 0.91143 0.0
C1927 C 0.81647 0.40018 0.8526 0.0
C1928 C 0.82389 0.40142 0.93464 0.0
C1929 C 0.83729 0.38376 0.93855 0.0
C1930 C 0.80876 0.40147 0.9161 0.0
C1931 C 0.80698 0.38348 0.90086 0.0
C1932 C 0.82091 0.36587 0.90413 0.0
C1933 C 0.83591 0.3662 0.92297 0.0
C1934 C 0.79421 0.42057 0.9133 0.0
C1935 C 0.81957 0.34644 0.88816 0.0
H1936 H 0.73728 0.37152 0.87393 0.0
H1937 H 0.78127 0.40099 0.82485 0.0
H1938 H 0.77528 0.35307 0.91576 0.0
H1939 H 0.76612 0.37866 0.9255 0.0
H1940 H 0.74749 0.3601 0.91232 0.0
H1941 H 0.81768 0.40489 0.83343 0.0
H1942 H 0.82027 0.4143 0.86385 0.0
H1943 H 0.82876 0.38786 0.8564 0.0
H1944 H 0.82477 0.41509 0.94652 0.0
H1945 H 0.84609 0.35243 0.92589 0.0
H1946 H 0.77738 0.41567 0.91629 0.0
H1947 H 0.7953 0.42698 0.89478 0.0
H1948 H 0.79815 0.43359 0.9261 0.0
H1949 H 0.80373 0.33872 0.8903 0.0
H1950 H 0.83217 0.33451 0.89233 0.0
H1951 H 0.82106 0.35122 0.86907 0.0
C1952 C 0.89538 0.58243 0.1746 0.0
C1953 C 0.87688 0.58615 0.1882 0.0
C1954 C 0.89549 0.56718 0.15602 0.0
C1955 C 0.87664 0.55549 0.15087 0.0
C1956 C 0.85775 0.55977 0.16397 0.0
C1957 C 0.85811 0.575 0.18242 0.0
C1958 C 0.91595 0.56305 0.14249 0.0
C1959 C 0.83725 0.54783 0.15895 0.0
C1960 C 0.86847 0.52695 0.09136 0.0
C1961 C 0.87168 0.50548 0.09775 0.0
C1962 C 0.87076 0.54345 0.10824 0.0
C1963 C 0.87654 0.53845 0.13214 0.0
C1964 C 0.88062 0.51691 0.13853 0.0
C1965 C 0.87812 0.50069 0.12127 0.0
C1966 C 0.86625 0.56618 0.10069 0.0
C1967 C 0.88685 0.51091 0.16383 0.0
H1968 H 0.91 0.59084 0.17901 0.0
H1969 H 0.84371 0.57778 0.19274 0.0
H1970 H 0.92151 0.54653 0.1461 0.0
H1971 H 0.91316 0.56435 0.12289 0.0
H1972 H 0.92885 0.57435 0.14763 0.0
H1973 H 0.82373 0.5537 0.17005 0.0
H1974 H 0.83286 0.54941 0.13975 0.0
H1975 H 0.83955 0.53057 0.16265 0.0
H1976 H 0.86393 0.53088 0.07312 0.0
H1977 H 0.8805 0.48417 0.12645 0.0
H1978 H 0.87984 0.57669 0.1056 0.0
H1979 H 0.85197 0.5722 0.11034 0.0
H1980 H 0.86333 0.56758 0.0811 0.0
H1981 H 0.90065 0.52066 0.16985 0.0
H1982 H 0.89111 0.49374 0.16546 0.0
H1983 H 0.8734 0.51432 0.1762 0.0
C1984 C 0.73308 0.61643 0.34084 0.0
C1985 C 0.75448 0.62041 0.34699 0.0
C1986 C 0.71658 0.61874 0.35771 0.0
C1987 C 0.7215 0.62533 0.38136 0.0
C1988 C 0.74295 0.63017 0.38749 0.0
C1989 C 0.75918 0.62763 0.37025 0.0
C1990 C 0.69396 0.6134 0.35043 0.0
C1991 C 0.74887 0.63728 0.41253 0.0
C1992 C 0.677 0.64408 0.42317 0.0
C1993 C 0.67372 0.62584 0.43734 0.0
C1994 C 0.6923 0.64414 0.40464 0.0
C1995 C 0.70452 0.62549 0.40015 0.0
C1996 C 0.70075 0.60686 0.41389 0.0
C1997 C 0.68544 0.60727 0.43225 0.0
C1998 C 0.69586 0.66432 0.3904 0.0
C1999 C 0.71329 0.58659 0.40962 0.0
H2000 H 0.72921 0.61128 0.32279 0.0
H2001 H 0.77564 0.63062 0.37526 0.0
H2002 H 0.68836 0.59925 0.36064 0.0
H2003 H 0.6831 0.62683 0.35487 0.0
H2004 H 0.69257 0.60987 0.33096 0.0
H2005 H 0.76592 0.64203 0.41393 0.0
H2006 H 0.73877 0.65097 0.41809 0.0
H2007 H 0.74585 0.6241 0.4254 0.0
H2008 H 0.66814 0.65856 0.42703 0.0
H2009 H 0.68304 0.59306 0.44303 0.0
H2010 H 0.69452 0.66098 0.37091 0.0
H2011 H 0.71227 0.67037 0.3937 0.0
H2012 H 0.68428 0.67708 0.39518 0.0
H2013 H 0.71179 0.58158 0.39061 0.0
H2014 H 0.70785 0.57324 0.42125 0.0
H2015 H 0.73049 0.58951 0.41317 0.0
C2016 C 0.61731 0.42515 0.67277 0.0
C2017 C 0.6346 0.42426 0.68878 0.0
C2018 C 0.61692 0.44013 0.65391 0.0
C2019 C 0.63419 0.45456 0.65106 0.0
C2020 C 0.65188 0.45336 0.66681 0.0
C2021 C 0.6519 0.43823 0.68535 0.0
C2022 C 0.59782 0.44085 0.6374 0.0
C2023 C 0.67061 0.46845 0.6645 0.0
C2024 C 0.64476 0.48319 0.59209 0.0
C2025 C 0.63698 0.50383 0.5968 0.0
C2026 C 0.64324 0.46682 0.60923 0.0
C2027 C 0.63388 0.47114 0.63183 0.0
C2028 C 0.62565 0.4918 0.63662 0.0
C2029 C 0.62724 0.50785 0.61905 0.0
C2030 C 0.6523 0.44507 0.60344 0.0
C2031 C 0.61563 0.49708 0.66054 0.0
H2032 H 0.60381 0.41454 0.67531 0.0
H2033 H 0.66535 0.43777 0.69759 0.0
H2034 H 0.58974 0.45656 0.63904 0.0
H2035 H 0.60305 0.43918 0.61848 0.0
H2036 H 0.58605 0.42806 0.64145 0.0
H2037 H 0.68339 0.46504 0.67779 0.0
H2038 H 0.67754 0.46739 0.64622 0.0
H2039 H 0.66513 0.48515 0.66711 0.0
H2040 H 0.65264 0.47993 0.57518 0.0
H2041 H 0.6209 0.52361 0.62278 0.0
H2042 H 0.64021 0.43248 0.60697 0.0
H2043 H 0.6662 0.44176 0.61523 0.0
H2044 H 0.65756 0.4438 0.58447 0.0
H2045 H 0.6026 0.48563 0.66461 0.0
H2046 H 0.60903 0.51355 0.66104 0.0
H2047 H 0.62773 0.49552 0.675 0.0
C2048 C 0.18439 0.40176 0.43424 0.0
C2049 C 0.17194 0.38351 0.43872 0.0
C2050 C 0.19962 0.40212 0.41578 0.0
C2051 C 0.20246 0.38384 0.40119 0.0
C2052 C 0.18945 0.36562 0.40498 0.0
C2053 C 0.17437 0.36564 0.42372 0.0
C2054 C 0.21316 0.42187 0.41243 0.0
C2055 C 0.19189 0.34587 0.38969 0.0
C2056 C 0.2313 0.39305 0.34202 0.0
C2057 C 0.25232 0.3869 0.3476 0.0
C2058 C 0.21481 0.3915 0.35902 0.0
C2059 C 0.21939 0.38382 0.38234 0.0
C2060 C 0.24048 0.37732 0.38806 0.0
C2061 C 0.25665 0.37887 0.37062 0.0
C2062 C 0.19258 0.39866 0.35222 0.0
C2063 C 0.24605 0.36912 0.41277 0.0
H2064 H 0.18277 0.41567 0.44566 0.0
H2065 H 0.16494 0.35143 0.42702 0.0
H2066 H 0.23019 0.41796 0.41585 0.0
H2067 H 0.21198 0.42763 0.39366 0.0
H2068 H 0.20839 0.43505 0.42465 0.0
H2069 H 0.17985 0.33344 0.39412 0.0
H2070 H 0.19033 0.35006 0.37043 0.0
H2071 H 0.20807 0.33901 0.39227 0.0
H2072 H 0.22778 0.39963 0.32448 0.0
H2073 H 0.27272 0.37379 0.37506 0.0
H2074 H 0.18805 0.41284 0.36303 0.0
H2075 H 0.18084 0.38588 0.35625 0.0
H2076 H 0.19131 0.40288 0.33291 0.0
H2077 H 0.24317 0.3818 0.4263 0.0
H2078 H 0.263 0.36397 0.41411 0.0
H2079 H 0.23563 0.35542 0.4175 0.0
C2080 C 0.39326 0.4263 0.17438 0.0
C2081 C 0.37488 0.42296 0.18831 0.0
C2082 C 0.39344 0.44153 0.1558 0.0
C2083 C 0.37479 0.45362 0.15096 0.0
C2084 C 0.35601 0.44979 0.16444 0.0
C2085 C 0.3563 0.43457 0.1829 0.0
C2086 C 0.41378 0.44517 0.14185 0.0
C2087 C 0.33572 0.46219 0.15979 0.0
C2088 C 0.37724 0.50814 0.12074 0.0
C2089 C 0.37046 0.50331 0.09735 0.0
C2090 C 0.37947 0.49202 0.13816 0.0
C2091 C 0.37477 0.47054 0.13208 0.0
C2092 C 0.36856 0.46548 0.10833 0.0
C2093 C 0.36656 0.48188 0.09128 0.0
C2094 C 0.38616 0.49808 0.1633 0.0
C2095 C 0.36337 0.44281 0.10111 0.0
H2096 H 0.40774 0.41753 0.1785 0.0
H2097 H 0.34198 0.43212 0.19348 0.0
H2098 H 0.41069 0.44371 0.12232 0.0
H2099 H 0.41967 0.46163 0.14514 0.0
H2100 H 0.42656 0.4337 0.14691 0.0
H2101 H 0.32226 0.4567 0.17122 0.0
H2102 H 0.33848 0.47941 0.16331 0.0
H2103 H 0.33096 0.4606 0.14069 0.0
H2104 H 0.38016 0.52463 0.12568 0.0
H2105 H 0.36174 0.4779 0.07315 0.0
H2106 H 0.39984 0.48809 0.16918 0.0
H2107 H 0.37281 0.49501 0.17594 0.0
H2108 H 0.39077 0.51517 0.16471 0.0
H2109 H 0.37682 0.43203 0.10576 0.0
H2110 H 0.36003 0.44134 0.0816 0.0
H2111 H 0.34916 0.43718 0.11117 0.0
C2112 C 0.28028 0.61732 0.83954 0.0
C2113 C 0.25881 0.6211 0.84552 0.0
C2114 C 0.2966 0.61926 0.8567 0.0
C2115 C 0.29141 0.62527 0.88047 0.0
C2116 C 0.26989 0.62987 0.88647 0.0
C2117 C 0.25385 0.6277 0.86894 0.0
C2118 C 0.31931 0.61419 0.84957 0.0
C2119 C 0.26371 0.63638 0.91162 0.0
C2120 C 0.32713 0.60652 0.9314 0.0
C2121 C 0.33865 0.62509 0.93706 0.0
C2122 C 0.31203 0.60633 0.9128 0.0
C2123 C 0.30824 0.62518 0.89945 0.0
C2124 C 0.32026 0.64383 0.90453 0.0
C2125 C 0.33538 0.64355 0.92324 0.0
C2126 C 0.29972 0.58603 0.90787 0.0
C2127 C 0.31666 0.66426 0.89074 0.0
H2128 H 0.28434 0.61265 0.82139 0.0
H2129 H 0.23733 0.63052 0.87381 0.0
H2130 H 0.33004 0.62762 0.85442 0.0
H2131 H 0.32493 0.59991 0.85953 0.0
H2132 H 0.32089 0.61101 0.83004 0.0
H2133 H 0.2466 0.64093 0.91296 0.0
H2134 H 0.26676 0.62296 0.92418 0.0
H2135 H 0.27362 0.65005 0.91766 0.0
H2136 H 0.32955 0.59215 0.9419 0.0
H2137 H 0.34408 0.65803 0.92755 0.0
H2138 H 0.30142 0.58143 0.88875 0.0
H2139 H 0.28246 0.58872 0.91128 0.0
H2140 H 0.30518 0.5725 0.91922 0.0
H2141 H 0.31816 0.66131 0.87119 0.0
H2142 H 0.32812 0.677 0.89594 0.0
H2143 H 0.30019 0.67013 0.89402 0.0
C2144 C 0.12055 0.5899 0.66818 0.0
C2145 C 0.13702 0.58906 0.68525 0.0
C2146 C 0.11987 0.57533 0.64892 0.0
C2147 C 0.13594 0.55948 0.64684 0.0
C2148 C 0.1528 0.55887 0.66374 0.0
C2149 C 0.1532 0.5737 0.68257 0.0
C2150 C 0.10173 0.57658 0.63115 0.0
C2151 C 0.17015 0.54212 0.66239 0.0
C2152 C 0.12631 0.50693 0.61435 0.0
C2153 C 0.13813 0.50977 0.59317 0.0
C2154 C 0.12477 0.52326 0.63157 0.0
C2155 C 0.13507 0.54307 0.62744 0.0
C2156 C 0.14623 0.54639 0.60567 0.0
C2157 C 0.14773 0.5297 0.5889 0.0
C2158 C 0.11282 0.51901 0.65462 0.0
C2159 C 0.1574 0.56728 0.60055 0.0
H2160 H 0.10793 0.60163 0.67011 0.0
H2161 H 0.16598 0.57276 0.69566 0.0
H2162 H 0.10811 0.57781 0.61263 0.0
H2163 H 0.09206 0.56175 0.63204 0.0
H2164 H 0.09108 0.59045 0.63457 0.0
H2165 H 0.18243 0.54417 0.67659 0.0
H2166 H 0.16301 0.52598 0.66427 0.0
H2167 H 0.17815 0.54275 0.64465 0.0
H2168 H 0.11846 0.49179 0.61767 0.0
H2169 H 0.15715 0.53207 0.57281 0.0
H2170 H 0.10089 0.53177 0.6579 0.0
H2171 H 0.12415 0.51917 0.66995 0.0
H2172 H 0.10447 0.50335 0.65441 0.0
H2173 H 0.14639 0.58089 0.60367 0.0
H2174 H 0.16345 0.56814 0.58184 0.0
H2175 H 0.17111 0.56922 0.61299 0.0
C2176 C 0.18268 0.60912 0.10971 0.0
C2177 C 0.17267 0.6283 0.1031 0.0
C2178 C 0.19786 0.6085 0.12823 0.0
C2179 C 0.20327 0.62754 0.14051 0.0
C2180 C 0.1927 0.64684 0.13453 0.0
C2181 C 0.17747 0.64699 0.11593 0.0
C2182 C 0.20859 0.58753 0.13414 0.0
C2183 C 0.19805 0.66748 0.14717 0.0
C2184 C 0.2316 0.62013 0.2003 0.0
C2185 C 0.25319 0.62204 0.19374 0.0
C2186 C 0.21518 0.62256 0.18335 0.0
C2187 C 0.22038 0.62714 0.15918 0.0
C2188 C 0.24208 0.62984 0.15256 0.0
C2189 C 0.25821 0.62725 0.16991 0.0
C2190 C 0.19227 0.61955 0.19115 0.0
C2191 C 0.2483 0.63474 0.12696 0.0
H2192 H 0.17907 0.59457 0.09998 0.0
H2193 H 0.16996 0.66192 0.11086 0.0
H2194 H 0.22594 0.58865 0.13026 0.0
H2195 H 0.20687 0.58395 0.15353 0.0
H2196 H 0.20186 0.57399 0.12369 0.0
H2197 H 0.18752 0.68083 0.14147 0.0
H2198 H 0.19662 0.66546 0.16688 0.0
H2199 H 0.21487 0.67193 0.14334 0.0
H2200 H 0.22752 0.61654 0.21876 0.0
H2201 H 0.27481 0.6286 0.16459 0.0
H2202 H 0.18543 0.60531 0.18212 0.0
H2203 H 0.1825 0.63352 0.18572 0.0
H2204 H 0.1908 0.61736 0.21086 0.0
H2205 H 0.2441 0.62101 0.11528 0.0
H2206 H 0.26567 0.63798 0.12508 0.0
H2207 H 0.23929 0.64879 0.12028 0.0
C2208 C 0.15294 0.43516 0.85969 0.0
C2209 C 0.13391 0.42448 0.85378 0.0
C2210 C 0.15358 0.45046 0.87808 0.0
C2211 C 0.13473 0.45532 0.891 0.0
C2212 C 0.11562 0.44411 0.88573 0.0
C2213 C 0.11544 0.4288 0.86723 0.0
C2214 C 0.17434 0.4619 0.8832 0.0
C2215 C 0.09518 0.44881 0.89909 0.0
C2216 C 0.1423 0.48388 0.95066 0.0
C2217 C 0.13924 0.50538 0.94426 0.0
C2218 C 0.14036 0.46741 0.93368 0.0
C2219 C 0.13508 0.47245 0.90965 0.0
C2220 C 0.13132 0.49403 0.90317 0.0
C2221 C 0.13346 0.51022 0.92053 0.0
C2222 C 0.14449 0.44464 0.94134 0.0
C2223 C 0.12564 0.50008 0.87772 0.0
H2224 H 0.16734 0.43198 0.84949 0.0
H2225 H 0.10061 0.42079 0.86278 0.0
H2226 H 0.17252 0.4792 0.87933 0.0
H2227 H 0.17854 0.46035 0.90245 0.0
H2228 H 0.18778 0.45562 0.87228 0.0
H2229 H 0.08198 0.43791 0.89379 0.0
H2230 H 0.09779 0.44737 0.91871 0.0
H2231 H 0.09014 0.4655 0.89549 0.0
H2232 H 0.14635 0.4799 0.96903 0.0
H2233 H 0.13121 0.52675 0.91533 0.0
H2234 H 0.15863 0.43831 0.93168 0.0
H2235 H 0.1307 0.43437 0.93653 0.0
H2236 H 0.14742 0.44326 0.96094 0.0
H2237 H 0.13912 0.49613 0.86558 0.0
H2238 H 0.12197 0.51736 0.87588 0.0
H2239 H 0.1116 0.49074 0.87155 0.0
C2240 C 0.32751 0.40483 0.6126 0.0
C2241 C 0.3379 0.38582 0.60611 0.0
C2242 C 0.31272 0.40535 0.63151 0.0
C2243 C 0.30802 0.38637 0.64427 0.0
C2244 C 0.31896 0.36725 0.63836 0.0
C2245 C 0.33384 0.36721 0.61941 0.0
C2246 C 0.30162 0.42614 0.63734 0.0
C2247 C 0.31436 0.34665 0.65145 0.0
C2248 C 0.28006 0.39361 0.70439 0.0
C2249 C 0.25847 0.39106 0.69809 0.0
C2250 C 0.2964 0.39148 0.68725 0.0
C2251 C 0.29111 0.38655 0.66318 0.0
C2252 C 0.26943 0.38323 0.65684 0.0
C2253 C 0.2534 0.38556 0.67433 0.0
C2254 C 0.31929 0.39517 0.69476 0.0
C2255 C 0.26309 0.3779 0.63138 0.0
H2256 H 0.33057 0.41932 0.60252 0.0
H2257 H 0.34166 0.35241 0.61446 0.0
H2258 H 0.28425 0.4246 0.63374 0.0
H2259 H 0.30351 0.42994 0.65667 0.0
H2260 H 0.30792 0.43972 0.62664 0.0
H2261 H 0.32524 0.33354 0.64587 0.0
H2262 H 0.31588 0.349 0.6711 0.0
H2263 H 0.29765 0.34164 0.64786 0.0
H2264 H 0.28422 0.39746 0.72276 0.0
H2265 H 0.23681 0.38377 0.66916 0.0
H2266 H 0.32567 0.40948 0.68545 0.0
H2267 H 0.32936 0.38139 0.6894 0.0
H2268 H 0.32089 0.3976 0.71442 0.0
H2269 H 0.26692 0.39155 0.61943 0.0
H2270 H 0.24578 0.37429 0.62971 0.0
H2271 H 0.27232 0.36394 0.62483 0.0
C2272 C 0.3644 0.52867 0.45053 0.0
C2273 C 0.37226 0.50805 0.44595 0.0
C2274 C 0.36582 0.54495 0.43327 0.0
C2275 C 0.37516 0.54053 0.41069 0.0
C2276 C 0.38345 0.51988 0.40602 0.0
C2277 C 0.38195 0.50392 0.42371 0.0
C2278 C 0.35671 0.56671 0.43893 0.0
C2279 C 0.39345 0.5145 0.38211 0.0
C2280 C 0.35713 0.5732 0.35699 0.0
C2281 C 0.37442 0.58716 0.35351 0.0
C2282 C 0.35715 0.55815 0.37561 0.0
C2283 C 0.37483 0.55703 0.39138 0.0
C2284 C 0.39209 0.57146 0.38847 0.0
C2285 C 0.3917 0.58636 0.36954 0.0
C2286 C 0.33843 0.54305 0.37799 0.0
C2287 C 0.41118 0.57082 0.405 0.0
H2288 H 0.35655 0.532 0.46745 0.0
H2289 H 0.38836 0.48817 0.42007 0.0
H2290 H 0.36877 0.5793 0.43538 0.0
H2291 H 0.34282 0.56994 0.42709 0.0
H2292 H 0.3514 0.56803 0.45789 0.0
H2293 H 0.40004 0.49803 0.38168 0.0
H2294 H 0.38134 0.51602 0.36765 0.0
H2295 H 0.40648 0.52593 0.37798 0.0
H2296 H 0.34369 0.57359 0.34473 0.0
H2297 H 0.40519 0.59697 0.36696 0.0
H2298 H 0.3315 0.54417 0.39626 0.0
H2299 H 0.34392 0.52634 0.37547 0.0
H2300 H 0.32565 0.5464 0.36469 0.0
H2301 H 0.40595 0.57256 0.42391 0.0
H2302 H 0.42294 0.58361 0.40089 0.0
H2303 H 0.41928 0.55512 0.40345 0.0
C2304 C 0.10796 0.24162 0.40271 0.0
C2305 C 0.11931 0.26089 0.40051 0.0
C2306 C 0.10917 0.22568 0.38496 0.0
C2307 C 0.12222 0.22892 0.36453 0.0
C2308 C 0.13276 0.24877 0.36153 0.0
C2309 C 0.13113 0.2645 0.37947 0.0
C2310 C 0.09756 0.20483 0.38887 0.0
C2311 C 0.14681 0.25295 0.34003 0.0
C2312 C 0.14973 0.17993 0.3389 0.0
C2313 C 0.13771 0.17559 0.31821 0.0
C2314 C 0.14479 0.19717 0.35393 0.0
C2315 C 0.12732 0.2106 0.34827 0.0
C2316 C 0.11505 0.20639 0.32736 0.0
C2317 C 0.12045 0.18894 0.31249 0.0
C2318 C 0.15832 0.20094 0.376 0.0
C2319 C 0.09624 0.22027 0.32079 0.0
H2320 H 0.09891 0.23847 0.4189 0.0
H2321 H 0.1396 0.27947 0.37726 0.0
H2322 H 0.08914 0.19981 0.37228 0.0
H2323 H 0.10928 0.19215 0.39336 0.0
H2324 H 0.08575 0.2059 0.4037 0.0
H2325 H 0.15182 0.26994 0.33886 0.0
H2326 H 0.16136 0.24287 0.34121 0.0
H2327 H 0.13838 0.24855 0.32324 0.0
H2328 H 0.16308 0.16969 0.34351 0.0
H2329 H 0.1112 0.18576 0.29644 0.0
H2330 H 0.14822 0.20015 0.39232 0.0
H2331 H 0.16548 0.21715 0.37533 0.0
H2332 H 0.17141 0.18906 0.37779 0.0
H2333 H 0.08435 0.22015 0.33554 0.0
H2334 H 0.08829 0.21487 0.30403 0.0
H2335 H 0.10155 0.23704 0.31842 0.0
C2336 C 0.08084 0.90339 0.59043 0.0
C2337 C 0.08474 0.89114 0.5698 0.0
C2338 C 0.06356 0.89899 0.60565 0.0
C2339 C 0.0496 0.88188 0.6002 0.0
C2340 C 0.05327 0.86949 0.57926 0.0
C2341 C 0.07083 0.87427 0.56427 0.0
C2342 C 0.06043 0.91258 0.62778 0.0
C2343 C 0.03874 0.85115 0.5728 0.0
C2344 C 0.01897 0.86175 0.65466 0.0
C2345 C 0.99978 0.87333 0.65311 0.0
C2346 C 0.03484 0.86346 0.6369 0.0
C2347 C 0.0315 0.87702 0.6169 0.0
C2348 C 0.01175 0.88792 0.61458 0.0
C2349 C 0.99618 0.88599 0.6327 0.0
C2350 C 0.05561 0.85154 0.64016 0.0
C2351 C 0.00746 0.90247 0.59354 0.0
H2352 H 0.0915 0.91645 0.5949 0.0
H2353 H 0.07368 0.86483 0.54829 0.0
H2354 H 0.04438 0.92007 0.62745 0.0
H2355 H 0.06128 0.90243 0.64408 0.0
H2356 H 0.07262 0.92541 0.62935 0.0
H2357 H 0.04339 0.84343 0.55563 0.0
H2358 H 0.03911 0.83894 0.58723 0.0
H2359 H 0.02202 0.85686 0.5713 0.0
H2360 H 0.02177 0.85151 0.67003 0.0
H2361 H 0.98152 0.8951 0.63128 0.0
H2362 H 0.06869 0.8631 0.64366 0.0
H2363 H 0.05979 0.8427 0.62356 0.0
H2364 H 0.05494 0.84005 0.65533 0.0
H2365 H 0.01775 0.91685 0.5949 0.0
H2366 H 0.99052 0.90771 0.59279 0.0
H2367 H 0.01151 0.89433 0.57646 0.0
C2368 C 0.38776 0.82178 0.8142 0.0
C2369 C 0.37085 0.83566 0.81965 0.0
C2370 C 0.39251 0.8042 0.82921 0.0
C2371 C 0.37999 0.80042 0.85004 0.0
C2372 C 0.3628 0.81432 0.85535 0.0
C2373 C 0.35849 0.83165 0.84016 0.0
C2374 C 0.41096 0.78978 0.82291 0.0
C2375 C 0.34904 0.81107 0.87732 0.0
C2376 C 0.37585 0.74696 0.88252 0.0
C2377 C 0.38826 0.75063 0.90312 0.0
C2378 C 0.37403 0.76252 0.86436 0.0
C2379 C 0.38481 0.78233 0.86679 0.0
C2380 C 0.39814 0.78573 0.88698 0.0
C2381 C 0.39973 0.76989 0.90481 0.0
C2382 C 0.3597 0.75815 0.84314 0.0
C2383 C 0.40994 0.80655 0.89038 0.0
H2384 H 0.39728 0.82468 0.79829 0.0
H2385 H 0.34537 0.84226 0.84457 0.0
H2386 H 0.42306 0.79018 0.83746 0.0
H2387 H 0.40534 0.77302 0.82133 0.0
H2388 H 0.41879 0.79449 0.80583 0.0
H2389 H 0.3361 0.82315 0.87873 0.0
H2390 H 0.34166 0.79496 0.8769 0.0
H2391 H 0.35903 0.81198 0.89373 0.0
H2392 H 0.36683 0.73225 0.881 0.0
H2393 H 0.40977 0.77275 0.92032 0.0
H2394 H 0.36797 0.76227 0.82616 0.0
H2395 H 0.34524 0.76835 0.84433 0.0
H2396 H 0.35457 0.74118 0.84232 0.0
H2397 H 0.4189 0.81079 0.87388 0.0
H2398 H 0.42131 0.80592 0.90567 0.0
H2399 H 0.39829 0.81957 0.89376 0.0
C2400 C 0.42828 0.10947 0.09039 0.0
C2401 C 0.42497 0.12124 0.06929 0.0
C2402 C 0.44555 0.11374 0.1057 0.0
C2403 C 0.46015 0.1302 0.09982 0.0
C2404 C 0.45697 0.1422 0.07849 0.0
C2405 C 0.43937 0.1376 0.06346 0.0
C2406 C 0.4481 0.10063 0.12828 0.0
C2407 C 0.47216 0.15987 0.07159 0.0
C2408 C 0.49219 0.15047 0.15333 0.0
C2409 C 0.51102 0.13831 0.15175 0.0
C2410 C 0.47599 0.14883 0.1359 0.0
C2411 C 0.47854 0.13464 0.11631 0.0
C2412 C 0.49782 0.12291 0.11411 0.0
C2413 C 0.51376 0.12486 0.13182 0.0
C2414 C 0.45569 0.16155 0.13911 0.0
C2415 C 0.50128 0.10767 0.09349 0.0
H2416 H 0.4172 0.09685 0.09513 0.0
H2417 H 0.43696 0.1467 0.04714 0.0
H2418 H 0.46376 0.09233 0.12814 0.0
H2419 H 0.44786 0.11123 0.14423 0.0
H2420 H 0.43529 0.08847 0.13032 0.0
H2421 H 0.46759 0.16763 0.05441 0.0
H2422 H 0.47256 0.17219 0.08588 0.0
H2423 H 0.48859 0.15341 0.06984 0.0
H2424 H 0.48971 0.16075 0.16873 0.0
H2425 H 0.52836 0.11566 0.13014 0.0
H2426 H 0.4423 0.15056 0.14335 0.0
H2427 H 0.4515 0.17 0.12226 0.0
H2428 H 0.45704 0.17348 0.15378 0.0
H2429 H 0.49006 0.09402 0.09508 0.0
H2430 H 0.51785 0.10132 0.09303 0.0
H2431 H 0.49787 0.11574 0.07619 0.0
C2432 C 0.11925 0.83489 0.21217 0.0
C2433 C 0.13717 0.83476 0.22723 0.0
C2434 C 0.11618 0.81879 0.19481 0.0
C2435 C 0.13151 0.80225 0.19233 0.0
C2436 C 0.14935 0.80179 0.20798 0.0
C2437 C 0.15198 0.81806 0.22514 0.0
C2438 C 0.09695 0.81996 0.17851 0.0
C2439 C 0.16615 0.78457 0.206 0.0
C2440 C 0.11864 0.75131 0.15732 0.0
C2441 C 0.1285 0.75529 0.13512 0.0
C2442 C 0.11917 0.76652 0.17596 0.0
C2443 C 0.12979 0.78626 0.1724 0.0
C2444 C 0.13954 0.79048 0.14996 0.0
C2445 C 0.13877 0.77501 0.13167 0.0
C2446 C 0.10863 0.76133 0.1996 0.0
C2447 C 0.15099 0.81131 0.14529 0.0
H2448 H 0.10821 0.84812 0.21308 0.0
H2449 H 0.16598 0.81798 0.2366 0.0
H2450 H 0.10221 0.82202 0.15965 0.0
H2451 H 0.0878 0.8048 0.17943 0.0
H2452 H 0.08614 0.83338 0.18325 0.0
H2453 H 0.1783 0.78566 0.22048 0.0
H2454 H 0.1586 0.76855 0.20673 0.0
H2455 H 0.1744 0.78588 0.18845 0.0
H2456 H 0.11082 0.73609 0.1603 0.0
H2457 H 0.14609 0.77848 0.11449 0.0
H2458 H 0.09689 0.77393 0.2043 0.0
H2459 H 0.12081 0.76102 0.21406 0.0
H2460 H 0.10031 0.74566 0.19924 0.0
H2461 H 0.14 0.82493 0.14838 0.0
H2462 H 0.15728 0.81236 0.1267 0.0
H2463 H 0.16453 0.81309 0.15799 0.0
C2464 C 0.51374 0.88515 0.41017 0.0
C2465 C 0.51116 0.87218 0.38981 0.0
C2466 C 0.49752 0.88691 0.42757 0.0
C2467 C 0.47813 0.87551 0.4246 0.0
C2468 C 0.47575 0.86175 0.40459 0.0
C2469 C 0.49223 0.86027 0.38749 0.0
C2470 C 0.50081 0.90168 0.44866 0.0
C2471 C 0.45534 0.8494 0.40055 0.0
C2472 C 0.43749 0.87235 0.47601 0.0
C2473 C 0.42347 0.88896 0.46994 0.0
C2474 C 0.45546 0.86773 0.46155 0.0
C2475 C 0.45942 0.88002 0.44059 0.0
C2476 C 0.44526 0.89679 0.43453 0.0
C2477 C 0.42759 0.90104 0.44923 0.0
C2478 C 0.47017 0.84972 0.46863 0.0
C2479 C 0.44866 0.91026 0.41235 0.0
H2480 H 0.52841 0.89414 0.4124 0.0
H2481 H 0.48988 0.85037 0.37176 0.0
H2482 H 0.48996 0.91562 0.44702 0.0
H2483 H 0.49677 0.89339 0.46565 0.0
H2484 H 0.5175 0.90762 0.44981 0.0
H2485 H 0.45684 0.83767 0.38569 0.0
H2486 H 0.45063 0.84077 0.41711 0.0
H2487 H 0.44223 0.86066 0.39611 0.0
H2488 H 0.43446 0.86301 0.49202 0.0
H2489 H 0.41683 0.91388 0.44431 0.0
H2490 H 0.48668 0.85584 0.47092 0.0
H2491 H 0.47064 0.83755 0.45417 0.0
H2492 H 0.46508 0.84185 0.48555 0.0
H2493 H 0.46447 0.91822 0.41319 0.0
H2494 H 0.43616 0.92271 0.41016 0.0
H2495 H 0.4486 0.89995 0.39616 0.0
C2496 C 0.37634 0.26308 0.65946 0.0
C2497 C 0.38749 0.2591 0.63805 0.0
C2498 C 0.37488 0.24746 0.67758 0.0
C2499 C 0.38473 0.22727 0.67429 0.0
C2500 C 0.39687 0.22354 0.65326 0.0
C2501 C 0.39813 0.23945 0.63549 0.0
C2502 C 0.36185 0.25218 0.69973 0.0
C2503 C 0.40769 0.20233 0.64896 0.0
C2504 C 0.38883 0.18719 0.72615 0.0
C2505 C 0.3712 0.17397 0.72158 0.0
C2506 C 0.39345 0.20476 0.7111 0.0
C2507 C 0.38006 0.20922 0.69114 0.0
C2508 C 0.36211 0.19603 0.68677 0.0
C2509 C 0.35794 0.17868 0.70197 0.0
C2510 C 0.41275 0.2184 0.71637 0.0
C2511 C 0.34738 0.20004 0.66575 0.0
H2512 H 0.36798 0.27811 0.66167 0.0
H2513 H 0.40722 0.23634 0.61932 0.0
H2514 H 0.34695 0.24258 0.69937 0.0
H2515 H 0.37081 0.24758 0.71611 0.0
H2516 H 0.35745 0.26933 0.70103 0.0
H2517 H 0.41831 0.20268 0.63299 0.0
H2518 H 0.41728 0.19761 0.66484 0.0
H2519 H 0.39541 0.18978 0.64617 0.0
H2520 H 0.39906 0.18373 0.74136 0.0
H2521 H 0.34425 0.16859 0.69826 0.0
H2522 H 0.40796 0.2354 0.71807 0.0
H2523 H 0.42423 0.21736 0.70126 0.0
H2524 H 0.42103 0.21343 0.7331 0.0
H2525 H 0.34071 0.21643 0.66678 0.0
H2526 H 0.33391 0.1885 0.66505 0.0
H2527 H 0.35647 0.19887 0.64871 0.0
C2528 C 0.07362 0.13879 0.97546 0.0
C2529 C 0.08655 0.12093 0.97099 0.0
C2530 C 0.05598 0.1435 0.96052 0.0
C2531 C 0.05117 0.12997 0.94078 0.0
C2532 C 0.06407 0.1118 0.93652 0.0
C2533 C 0.08149 0.10755 0.9516 0.0
C2534 C 0.04266 0.16304 0.96566 0.0
C2535 C 0.05968 0.09691 0.91575 0.0
C2536 C 0.99704 0.12677 0.90955 0.0
C2537 C 1.00105 0.13765 0.88798 0.0
C2538 C 0.01276 0.12524 0.92757 0.0
C2539 C 0.03308 0.13475 0.924 0.0
C2540 C 0.03686 0.14661 0.90278 0.0
C2541 C 0.02085 0.14794 0.88512 0.0
C2542 C 0.00799 0.1125 0.94992 0.0
C2543 C 0.05822 0.15705 0.89817 0.0
H2544 H 0.07736 0.14913 0.99048 0.0
H2545 H 0.09135 0.09369 0.94798 0.0
H2546 H 0.04375 0.17435 0.95039 0.0
H2547 H 0.0256 0.15851 0.96756 0.0
H2548 H 0.04786 0.1714 0.98224 0.0
H2549 H 0.071 0.08325 0.91515 0.0
H2550 H 0.04319 0.09051 0.917 0.0
H2551 H 0.06087 0.1058 0.89858 0.0
H2552 H 0.98189 0.11868 0.91199 0.0
H2553 H 0.024 0.15683 0.86881 0.0
H2554 H 0.01283 0.12154 0.96616 0.0
H2555 H 0.01736 0.09745 0.94968 0.0
H2556 H 0.99077 0.10838 0.95141 0.0
H2557 H 0.06319 0.16673 0.91388 0.0
H2558 H 0.05793 0.16749 0.88206 0.0
H2559 H 0.07055 0.14454 0.89547 0.0
C2560 C 0.85657 0.83058 0.7014 0.0
C2561 C 0.86919 0.83502 0.7216 0.0
C2562 C 0.86106 0.81325 0.68631 0.0
C2563 C 0.87865 0.79981 0.69145 0.0
C2564 C 0.89137 0.80399 0.71203 0.0
C2565 C 0.88647 0.82158 0.72691 0.0
C2566 C 0.84708 0.80954 0.66458 0.0
C2567 C 0.91023 0.79002 0.71815 0.0
C2568 C 0.87532 0.74638 0.65901 0.0
C2569 C 0.8873 0.75043 0.6382 0.0
C2570 C 0.87347 0.7618 0.67728 0.0
C2571 C 0.88374 0.78185 0.67469 0.0
C2572 C 0.89672 0.78563 0.65432 0.0
C2573 C 0.89838 0.7699 0.63641 0.0
C2574 C 0.85956 0.75706 0.69873 0.0
C2575 C 0.90797 0.80674 0.65079 0.0
H2576 H 0.84316 0.84086 0.69712 0.0
H2577 H 0.8962 0.82487 0.74257 0.0
H2578 H 0.85682 0.81067 0.648 0.0
H2579 H 0.84015 0.79323 0.66518 0.0
H2580 H 0.8338 0.82126 0.66333 0.0
H2581 H 0.91807 0.79491 0.73516 0.0
H2582 H 0.90504 0.77313 0.71977 0.0
H2583 H 0.92219 0.79073 0.70349 0.0
H2584 H 0.86662 0.73148 0.6606 0.0
H2585 H 0.90811 0.77303 0.62072 0.0
H2586 H 0.84475 0.76677 0.6977 0.0
H2587 H 0.86789 0.76151 0.71558 0.0
H2588 H 0.855 0.73993 0.69968 0.0
H2589 H 0.89597 0.81945 0.64746 0.0
H2590 H 0.91923 0.80636 0.63539 0.0
H2591 H 0.91694 0.81124 0.66719 0.0
C2592 C 0.99205 0.15057 0.38653 0.0
C2593 C 0.01108 0.13874 0.3883 0.0
C2594 C 0.97601 0.14907 0.40414 0.0
C2595 C 0.97892 0.13536 0.42409 0.0
C2596 C 0.99844 0.12407 0.42653 0.0
C2597 C 0.01423 0.12587 0.40865 0.0
C2598 C 0.95546 0.16133 0.40069 0.0
C2599 C 1.00228 0.10933 0.44752 0.0
C2600 C 0.93944 0.13803 0.47664 0.0
C2601 C 0.92541 0.12132 0.47087 0.0
C2602 C 0.95702 0.14285 0.46168 0.0
C2603 C 0.9606 0.13068 0.44056 0.0
C2604 C 0.94643 0.11383 0.4348 0.0
C2605 C 0.92914 0.10938 0.44997 0.0
C2606 C 0.97175 0.16095 0.46843 0.0
C2607 C 0.94943 0.10047 0.41247 0.0
H2608 H 0.98926 0.16039 0.37083 0.0
H2609 H 0.02898 0.11696 0.41047 0.0
H2610 H 0.94234 0.15002 0.39643 0.0
H2611 H 0.95099 0.1698 0.41743 0.0
H2612 H 0.95663 0.17318 0.38591 0.0
H2613 H 0.01904 0.10352 0.44822 0.0
H2614 H 0.99852 0.11757 0.46462 0.0
H2615 H 0.99152 0.0953 0.44614 0.0
H2616 H 0.9367 0.14726 0.49279 0.0
H2617 H 0.91837 0.09647 0.44529 0.0
H2618 H 0.97194 0.1731 0.45394 0.0
H2619 H 0.98832 0.15492 0.47041 0.0
H2620 H 0.9669 0.16882 0.48544 0.0
H2621 H 0.94894 0.11083 0.39633 0.0
H2622 H 0.93699 0.08792 0.41057 0.0
H2623 H 0.96532 0.09263 0.41283 0.0
C2624 C 0.63511 0.26444 0.15911 0.0
C2625 C 0.62268 0.26081 0.13852 0.0
C2626 C 0.6369 0.24886 0.17722 0.0
C2627 C 0.62611 0.22907 0.17472 0.0
C2628 C 0.61272 0.22573 0.15457 0.0
C2629 C 0.61113 0.24161 0.13681 0.0
C2630 C 0.65128 0.25314 0.19843 0.0
C2631 C 0.60089 0.20493 0.15113 0.0
C2632 C 0.65264 0.17968 0.20081 0.0
C2633 C 0.64031 0.17552 0.2213 0.0
C2634 C 0.64823 0.19709 0.18579 0.0
C2635 C 0.63102 0.21091 0.1913 0.0
C2636 C 0.61857 0.20698 0.21212 0.0
C2637 C 0.62338 0.1893 0.22693 0.0
C2638 C 0.66191 0.20051 0.16378 0.0
C2639 C 0.60011 0.22133 0.21862 0.0
H2640 H 0.64418 0.27913 0.16064 0.0
H2641 H 0.60107 0.2388 0.1213 0.0
H2642 H 0.64308 0.24888 0.21541 0.0
H2643 H 0.66578 0.24303 0.1971 0.0
H2644 H 0.65633 0.27014 0.19937 0.0
H2645 H 0.58943 0.20565 0.13593 0.0
H2646 H 0.61253 0.19193 0.14754 0.0
H2647 H 0.59205 0.20059 0.16766 0.0
H2648 H 0.66576 0.16913 0.19627 0.0
H2649 H 0.61389 0.18625 0.24282 0.0
H2650 H 0.66927 0.21662 0.1643 0.0
H2651 H 0.65185 0.1997 0.1474 0.0
H2652 H 0.67485 0.18845 0.16219 0.0
H2653 H 0.60568 0.2381 0.22019 0.0
H2654 H 0.59242 0.21656 0.23576 0.0
H2655 H 0.58791 0.22091 0.20418 0.0
C2656 C 0.51794 0.86 0.88666 0.0
C2657 C 0.49879 0.87162 0.88849 0.0
C2658 C 0.53397 0.86159 0.90427 0.0
C2659 C 0.53094 0.8752 0.92429 0.0
C2660 C 0.51132 0.88629 0.92678 0.0
C2661 C 0.49553 0.88439 0.90889 0.0
C2662 C 0.55464 0.84954 0.90078 0.0
C2663 C 0.50735 0.90092 0.94783 0.0
C2664 C 0.57046 0.87252 0.97682 0.0
C2665 C 0.58437 0.88934 0.97117 0.0
C2666 C 0.55288 0.86768 0.96185 0.0
C2667 C 0.54921 0.87995 0.94081 0.0
C2668 C 0.56326 0.89693 0.93518 0.0
C2669 C 0.58054 0.9014 0.95037 0.0
C2670 C 0.53829 0.84944 0.96846 0.0
C2671 C 0.56014 0.9104 0.91294 0.0
H2672 H 0.52081 0.85026 0.87092 0.0
H2673 H 0.48069 0.89315 0.91076 0.0
H2674 H 0.56766 0.86099 0.89664 0.0
H2675 H 0.55917 0.84101 0.91746 0.0
H2676 H 0.55359 0.83776 0.88591 0.0
H2677 H 0.49055 0.90659 0.94854 0.0
H2678 H 0.51117 0.89264 0.9649 0.0
H2679 H 0.51801 0.91504 0.94655 0.0
H2680 H 0.57329 0.8632 0.99289 0.0
H2681 H 0.59122 0.9144 0.94578 0.0
H2682 H 0.53822 0.83734 0.95391 0.0
H2683 H 0.52166 0.85534 0.97041 0.0
H2684 H 0.54317 0.84155 0.98545 0.0
H2685 H 0.56073 0.90013 0.89673 0.0
H2686 H 0.57247 0.92306 0.91116 0.0
H2687 H 0.54418 0.91809 0.91334 0.0
C2688 C 0.87445 0.2623 0.88229 0.0
C2689 C 0.88709 0.259 0.90278 0.0
C2690 C 0.87248 0.24645 0.86447 0.0
C2691 C 0.88336 0.22673 0.86714 0.0
C2692 C 0.89678 0.22362 0.88731 0.0
C2693 C 0.89846 0.23972 0.90484 0.0
C2694 C 0.85808 0.25052 0.84323 0.0
C2695 C 0.90857 0.20283 0.89103 0.0
C2696 C 0.85719 0.17722 0.84073 0.0
C2697 C 0.86955 0.17322 0.82021 0.0
C2698 C 0.86152 0.19454 0.85592 0.0
C2699 C 0.87866 0.20848 0.85055 0.0
C2700 C 0.8912 0.20468 0.82975 0.0
C2701 C 0.88649 0.18706 0.81478 0.0
C2702 C 0.84777 0.19779 0.8779 0.0
C2703 C 0.9096 0.21916 0.82339 0.0
H2704 H 0.86588 0.27723 0.88025 0.0
H2705 H 0.90809 0.23682 0.92067 0.0
H2706 H 0.86651 0.24666 0.82627 0.0
H2707 H 0.84389 0.23994 0.84432 0.0
H2708 H 0.85251 0.26735 0.84245 0.0
H2709 H 0.92013 0.20374 0.90613 0.0
H2710 H 0.89694 0.18991 0.89491 0.0
H2711 H 0.91732 0.19825 0.87451 0.0
H2712 H 0.84409 0.1666 0.84514 0.0
H2713 H 0.89605 0.18412 0.79892 0.0
H2714 H 0.84022 0.21382 0.87736 0.0
H2715 H 0.85781 0.19712 0.8943 0.0
H2716 H 0.83498 0.18557 0.87947 0.0
H2717 H 0.90386 0.23585 0.82149 0.0
H2718 H 0.91758 0.2143 0.80645 0.0
H2719 H 0.92159 0.21905 0.83806 0.0
C2720 C 0.50022 0.14408 0.63099 0.0
C2721 C 0.50376 0.13474 0.65356 0.0
C2722 C 0.51581 0.14319 0.6128 0.0
C2723 C 0.5355 0.13274 0.61721 0.0
C2724 C 0.53928 0.12353 0.64005 0.0
C2725 C 0.52341 0.12461 0.65787 0.0
C2726 C 0.51109 0.15317 0.58872 0.0
C2727 C 0.56006 0.11232 0.64561 0.0
C2728 C 0.56807 0.10919 0.56595 0.0
C2729 C 0.58473 0.124 0.56358 0.0
C2730 C 0.55159 0.11224 0.58272 0.0
C2731 C 0.5518 0.13051 0.59771 0.0
C2732 C 0.56828 0.14589 0.5949 0.0
C2733 C 0.58458 0.1424 0.5779 0.0
C2734 C 0.53436 0.09547 0.58497 0.0
C2735 C 0.56924 0.16554 0.61053 0.0
H2736 H 0.48505 0.15179 0.62737 0.0
H2737 H 0.52651 0.11768 0.67534 0.0
H2738 H 0.52375 0.16485 0.58402 0.0
H2739 H 0.51111 0.14066 0.57462 0.0
H2740 H 0.49539 0.16144 0.58841 0.0
H2741 H 0.56081 0.10655 0.66444 0.0
H2742 H 0.56213 0.09844 0.63345 0.0
H2743 H 0.5737 0.12328 0.64243 0.0
H2744 H 0.56819 0.09487 0.555 0.0
H2745 H 0.59773 0.15357 0.57666 0.0
H2746 H 0.51834 0.10296 0.58364 0.0
H2747 H 0.53541 0.08773 0.60285 0.0
H2748 H 0.53569 0.08291 0.57097 0.0
H2749 H 0.55347 0.17362 0.61102 0.0
H2750 H 0.58144 0.17714 0.6042 0.0
H2751 H 0.57324 0.16082 0.62918 0.0
C2752 C 0.62441 0.82344 0.31435 0.0
C2753 C 0.64128 0.83739 0.31971 0.0
C2754 C 0.61979 0.80586 0.32941 0.0
C2755 C 0.63237 0.80221 0.35023 0.0
C2756 C 0.64949 0.81623 0.35549 0.0
C2757 C 0.65371 0.83352 0.34021 0.0
C2758 C 0.60142 0.7913 0.32316 0.0
C2759 C 0.66327 0.81314 0.37748 0.0
C2760 C 0.61284 0.7715 0.40496 0.0
C2761 C 0.62446 0.75234 0.40329 0.0
C2762 C 0.61433 0.78737 0.38716 0.0
C2763 C 0.62771 0.78409 0.367 0.0
C2764 C 0.63864 0.76436 0.36457 0.0
C2765 C 0.63692 0.74878 0.38271 0.0
C2766 C 0.60236 0.8081 0.39054 0.0
C2767 C 0.653 0.76012 0.34336 0.0
H2768 H 0.61483 0.82625 0.29847 0.0
H2769 H 0.66678 0.84421 0.34455 0.0
H2770 H 0.60716 0.77458 0.32161 0.0
H2771 H 0.58934 0.79164 0.33771 0.0
H2772 H 0.59355 0.79592 0.30606 0.0
H2773 H 0.67609 0.82535 0.37891 0.0
H2774 H 0.65327 0.81395 0.39388 0.0
H2775 H 0.67081 0.7971 0.37709 0.0
H2776 H 0.60276 0.77427 0.42044 0.0
H2777 H 0.64606 0.73414 0.3812 0.0
H2778 H 0.59338 0.81226 0.37403 0.0
H2779 H 0.61391 0.82121 0.39394 0.0
H2780 H 0.591 0.80737 0.40582 0.0
H2781 H 0.64469 0.76415 0.32638 0.0
H2782 H 0.65828 0.74319 0.34257 0.0
H2783 H 0.66737 0.77044 0.34456 0.0
C2784 C 0.94189 0.90081 0.06387 0.0
C2785 C 0.92443 0.88686 0.06262 0.0
C2786 C 0.95826 0.89778 0.08081 0.0
C2787 C 0.95701 0.8805 0.09718 0.0
C2788 C 0.93969 0.86596 0.09549 0.0
C2789 C 0.92357 0.86937 0.07827 0.0
C2790 C 0.97644 0.9136 0.08181 0.0
C2791 C 0.93757 0.84741 0.11264 0.0
C2792 C 0.00716 0.86651 0.13304 0.0
C2793 C 1.00378 0.87784 0.15444 0.0
C2794 C 0.99198 0.86692 0.11436 0.0
C2795 C 0.97286 0.8788 0.1172 0.0
C2796 C 0.9692 0.88989 0.13897 0.0
C2797 C 0.98468 0.88933 0.15723 0.0
C2798 C 0.99656 0.85499 0.09141 0.0
C2799 C 0.94898 0.90257 0.14292 0.0
H2800 H 0.94251 0.91445 0.05189 0.0
H2801 H 0.90973 0.85903 0.07798 0.0
H2802 H 0.97562 0.92278 0.09882 0.0
H2803 H 0.992 0.90511 0.08161 0.0
H2804 H 0.97605 0.92506 0.0666 0.0
H2805 H 0.92456 0.8363 0.10732 0.0
H2806 H 0.95277 0.83835 0.11363 0.0
H2807 H 0.93412 0.85353 0.13091 0.0
H2808 H 0.02191 0.85768 0.13068 0.0
H2809 H 0.98175 0.89781 0.17386 0.0
H2810 H 0.99757 0.86644 0.07625 0.0
H2811 H 0.98332 0.84377 0.08734 0.0
H2812 H 0.01174 0.84583 0.09233 0.0
H2813 H 0.94798 0.9157 0.12959 0.0
H2814 H 0.94818 0.90961 0.16119 0.0
H2815 H 0.9348 0.8922 0.14023 0.0
C2816 C 0.62257 0.68892 0.81436 0.0
C2817 C 0.63985 0.67537 0.81932 0.0
C2818 C 0.6178 0.70636 0.82956 0.0
C2819 C 0.63064 0.71029 0.85011 0.0
C2820 C 0.6482 0.69672 0.85493 0.0
C2821 C 0.65257 0.67955 0.83953 0.0
C2822 C 0.59896 0.72046 0.82377 0.0
C2823 C 0.66232 0.70014 0.8766 0.0
C2824 C 0.63419 0.76367 0.8829 0.0
C2825 C 0.6222 0.75963 0.90372 0.0
C2826 C 0.63605 0.74824 0.86461 0.0
C2827 C 0.62575 0.72818 0.86712 0.0
C2828 C 0.61284 0.72439 0.88755 0.0
C2829 C 0.61119 0.74011 0.9055 0.0
C2830 C 0.64992 0.75302 0.84313 0.0
C2831 C 0.60156 0.70329 0.89104 0.0
H2832 H 0.61276 0.68587 0.7987 0.0
H2833 H 0.66597 0.66918 0.84357 0.0
H2834 H 0.58716 0.71978 0.83859 0.0
H2835 H 0.60424 0.73732 0.82214 0.0
H2836 H 0.5909 0.71567 0.80684 0.0
H2837 H 0.67553 0.68832 0.87763 0.0
H2838 H 0.66934 0.71641 0.87614 0.0
H2839 H 0.65266 0.69892 0.89323 0.0
H2840 H 0.64286 0.77858 0.8813 0.0
H2841 H 0.60146 0.73696 0.92118 0.0
H2842 H 0.64145 0.74882 0.82629 0.0
H2843 H 0.66462 0.74314 0.84396 0.0
H2844 H 0.65466 0.77011 0.84233 0.0
H2845 H 0.59242 0.69894 0.8747 0.0
H2846 H 0.59045 0.70359 0.90657 0.0
H2847 H 0.61355 0.69052 0.8941 0.0
C2848 C 0.57173 0.37394 0.06555 0.0
C2849 C 0.58531 0.39116 0.0707 0.0
C2850 C 0.55416 0.3692 0.08056 0.0
C2851 C 0.55013 0.382 0.10111 0.0
C2852 C 0.56373 0.3995 0.10611 0.0
C2853 C 0.58103 0.40384 0.0909 0.0
C2854 C 0.54002 0.35042 0.07458 0.0
C2855 C 0.5602 0.41357 0.12779 0.0
C2856 C 0.49666 0.38572 0.13358 0.0
C2857 C 0.5006 0.37373 0.15442 0.0
C2858 C 0.51214 0.38749 0.11534 0.0
C2859 C 0.53213 0.37711 0.11795 0.0
C2860 C 0.53581 0.36416 0.13839 0.0
C2861 C 0.52004 0.3626 0.15628 0.0
C2862 C 0.50749 0.4014 0.09385 0.0
C2863 C 0.55685 0.35279 0.14197 0.0
H2864 H 0.57487 0.36416 0.04991 0.0
H2865 H 0.59141 0.41719 0.09508 0.0
H2866 H 0.54061 0.33856 0.08934 0.0
H2867 H 0.52318 0.35575 0.07288 0.0
H2868 H 0.54487 0.34243 0.05764 0.0
H2869 H 0.57204 0.42675 0.12895 0.0
H2870 H 0.54395 0.42063 0.12721 0.0
H2871 H 0.56129 0.40387 0.1444 0.0
H2872 H 0.48179 0.39447 0.13193 0.0
H2873 H 0.52311 0.35288 0.17199 0.0
H2874 H 0.51179 0.39297 0.07703 0.0
H2875 H 0.51736 0.41609 0.09479 0.0
H2876 H 0.4904 0.40614 0.09292 0.0
H2877 H 0.56126 0.34371 0.12562 0.0
H2878 H 0.55641 0.34161 0.15744 0.0
H2879 H 0.56965 0.36472 0.14519 0.0
C2880 C 0.85788 0.33114 0.34047 0.0
C2881 C 0.8705 0.33528 0.32019 0.0
C2882 C 0.86232 0.31399 0.35587 0.0
C2883 C 0.87984 0.30039 0.35096 0.0
C2884 C 0.8926 0.30429 0.33035 0.0
C2885 C 0.88777 0.32172 0.31517 0.0
C2886 C 0.84832 0.31062 0.37763 0.0
C2887 C 0.9114 0.29017 0.32448 0.0
C2888 C 0.89937 0.27036 0.40615 0.0
C2889 C 0.88821 0.25094 0.40438 0.0
C2890 C 0.89776 0.28612 0.38824 0.0
C2891 C 0.88472 0.28245 0.36788 0.0
C2892 C 0.8743 0.26246 0.36534 0.0
C2893 C 0.87612 0.247 0.3836 0.0
C2894 C 0.90919 0.30714 0.39173 0.0
C2895 C 0.86033 0.2578 0.3439 0.0
H2896 H 0.84451 0.34153 0.34454 0.0
H2897 H 0.89752 0.32476 0.29948 0.0
H2898 H 0.84119 0.2944 0.37717 0.0
H2899 H 0.85809 0.31173 0.3942 0.0
H2900 H 0.8352 0.32252 0.37878 0.0
H2901 H 0.91926 0.29482 0.30739 0.0
H2902 H 0.92337 0.29105 0.33913 0.0
H2903 H 0.90616 0.27328 0.32314 0.0
H2904 H 0.90918 0.27343 0.42181 0.0
H2905 H 0.86733 0.23215 0.382 0.0
H2906 H 0.89729 0.31998 0.39489 0.0
H2907 H 0.91828 0.31148 0.37536 0.0
H2908 H 0.92038 0.30674 0.40721 0.0
H2909 H 0.84569 0.26777 0.34479 0.0
H2910 H 0.85547 0.24074 0.34308 0.0
H2911 H 0.86877 0.26198 0.32704 0.0
C2912 C 0.93878 0.63808 0.5646 0.0
C2913 C 0.92509 0.62108 0.57025 0.0
C2914 C 0.95657 0.64286 0.57927 0.0
C2915 C 0.96072 0.63032 0.59999 0.0
C2916 C 0.94695 0.6131 0.60558 0.0
C2917 C 0.92942 0.60872 0.59069 0.0
C2918 C 0.97086 0.66136 0.5727 0.0
C2919 C 0.95059 0.59933 0.62747 0.0
C2920 C 0.01501 0.62646 0.63075 0.0
C2921 C 0.01192 0.63906 0.65131 0.0
C2922 C 0.99892 0.62439 0.61323 0.0
C2923 C 0.97916 0.6351 0.61627 0.0
C2924 C 0.97624 0.64848 0.63651 0.0
C2925 C 0.99258 0.65026 0.65374 0.0
C2926 C 1.00278 0.61003 0.5919 0.0
C2927 C 0.95542 0.66011 0.64061 0.0
H2928 H 0.93557 0.64764 0.54879 0.0
H2929 H 0.91893 0.59555 0.59527 0.0
H2930 H 0.97088 0.67332 0.58739 0.0
H2931 H 0.98754 0.65572 0.5705 0.0
H2932 H 0.96571 0.66934 0.55586 0.0
H2933 H 0.93848 0.58645 0.62921 0.0
H2934 H 0.96666 0.59189 0.62665 0.0
H2935 H 0.95007 0.60933 0.6439 0.0
H2936 H 0.02999 0.61802 0.62844 0.0
H2937 H 0.98985 0.65986 0.66962 0.0
H2938 H 0.99864 0.61846 0.57502 0.0
H2939 H 0.99229 0.59578 0.59315 0.0
H2940 H 0.01963 0.60456 0.59083 0.0
H2941 H 0.95055 0.66887 0.6242 0.0
H2942 H 0.95644 0.67162 0.65574 0.0
H2943 H 0.94263 0.64837 0.64466 0.0
C2944 C 0.62135 0.32283 0.72853 0.0
C2945 C 0.63786 0.33696 0.72239 0.0
C2946 C 0.61627 0.30529 0.71361 0.0
C2947 C 0.62792 0.30193 0.69209 0.0
C2948 C 0.64459 0.31621 0.68596 0.0
C2949 C 0.64935 0.3334 0.70116 0.0
C2950 C 0.59845 0.2904 0.72082 0.0
C2951 C 0.65735 0.31347 0.66315 0.0
C2952 C 0.63289 0.24932 0.65829 0.0
C2953 C 0.6198 0.25299 0.63823 0.0
C2954 C 0.63447 0.26443 0.67693 0.0
C2955 C 0.62283 0.28382 0.67548 0.0
C2956 C 0.60859 0.28702 0.65606 0.0
C2957 C 0.60718 0.27157 0.63779 0.0
C2958 C 0.64967 0.26023 0.69742 0.0
C2959 C 0.59586 0.3074 0.6537 0.0
H2960 H 0.61249 0.32543 0.74497 0.0
H2961 H 0.6621 0.34426 0.69621 0.0
H2962 H 0.58572 0.29056 0.70697 0.0
H2963 H 0.60454 0.27378 0.72198 0.0
H2964 H 0.59129 0.29485 0.73836 0.0
H2965 H 0.66977 0.326 0.66098 0.0
H2966 H 0.66529 0.29763 0.66307 0.0
H2967 H 0.64654 0.31405 0.64738 0.0
H2968 H 0.64278 0.23513 0.65889 0.0
H2969 H 0.59659 0.27438 0.62273 0.0
H2970 H 0.64205 0.2642 0.71482 0.0
H2971 H 0.66395 0.27059 0.6955 0.0
H2972 H 0.65503 0.24332 0.69791 0.0
H2973 H 0.58778 0.31133 0.67085 0.0
H2974 H 0.58363 0.30637 0.6393 0.0
H2975 H 0.60682 0.32082 0.64945 0.0
C2976 C 0.92865 0.40072 0.95368 0.0
C2977 C 0.92406 0.38795 0.97371 0.0
C2978 C 0.94605 0.3963 0.93864 0.0
C2979 C 0.95937 0.37858 0.94361 0.0
C2980 C 0.95495 0.36561 0.96391 0.0
C2981 C 0.93736 0.3705 0.97881 0.0
C2982 C 0.95005 0.4106 0.91726 0.0
C2983 C 0.9687 0.34652 0.96975 0.0
C2984 C 0.99055 0.36032 0.88871 0.0
C2985 C 0.01003 0.37122 0.89153 0.0
C2986 C 0.97444 0.36142 0.90628 0.0
C2987 C 0.97771 0.37385 0.92719 0.0
C2988 C 0.9977 0.38402 0.93072 0.0
C2989 C 0.01359 0.38255 0.91293 0.0
C2990 C 0.95343 0.35026 0.90174 0.0
C2991 C 1.00192 0.3974 0.95275 0.0
H2992 H 0.91847 0.41425 0.94955 0.0
H2993 H 0.93401 0.36068 0.99436 0.0
H2994 H 0.96633 0.41755 0.91833 0.0
H2995 H 0.94921 0.40112 0.90047 0.0
H2996 H 0.93832 0.42387 0.91603 0.0
H2997 H 0.9633 0.33815 0.98625 0.0
H2998 H 0.9684 0.33504 0.95459 0.0
H2999 H 0.98553 0.35161 0.97222 0.0
H3000 H 0.98743 0.35168 0.87224 0.0
H3001 H 0.02869 0.39068 0.9156 0.0
H3002 H 0.94091 0.36232 0.89786 0.0
H3003 H 0.9483 0.34126 0.91789 0.0
H3004 H 0.95434 0.33904 0.88633 0.0
H3005 H 0.99193 0.41204 0.9521 0.0
H3006 H 0.01894 0.40226 0.95417 0.0
H3007 H 0.99742 0.38851 0.9692 0.0
C3008 C 0.89936 0.73879 0.13738 0.0
C3009 C 0.88916 0.75863 0.14035 0.0
C3010 C 0.89818 0.72283 0.15511 0.0
C3011 C 0.88636 0.72662 0.17636 0.0
C3012 C 0.87692 0.74693 0.18001 0.0
C3013 C 0.87845 0.76266 0.16204 0.0
C3014 C 0.90853 0.70145 0.15042 0.0
C3015 C 0.86421 0.75171 0.20239 0.0
C3016 C 0.85883 0.67831 0.2037 0.0
C3017 C 0.87204 0.67328 0.22325 0.0
C3018 C 0.86326 0.69568 0.18862 0.0
C3019 C 0.88146 0.70851 0.19304 0.0
C3020 C 0.89481 0.70371 0.21292 0.0
C3021 C 0.8899 0.68617 0.22789 0.0
C3022 C 0.84851 0.70012 0.16773 0.0
C3023 C 0.91439 0.71696 0.21819 0.0
H3024 H 0.90749 0.7353 0.12068 0.0
H3025 H 0.87087 0.77802 0.1648 0.0
H3026 H 0.91776 0.69613 0.16633 0.0
H3027 H 0.89598 0.6893 0.14702 0.0
H3028 H 0.91939 0.70191 0.13467 0.0
H3029 H 0.86 0.7689 0.20385 0.0
H3030 H 0.84922 0.74225 0.20221 0.0
H3031 H 0.87332 0.74695 0.21861 0.0
H3032 H 0.84497 0.66847 0.19995 0.0
H3033 H 0.90008 0.68247 0.24305 0.0
H3034 H 0.85749 0.69889 0.15063 0.0
H3035 H 0.84217 0.71663 0.16895 0.0
H3036 H 0.83481 0.68885 0.16702 0.0
H3037 H 0.92558 0.71618 0.20278 0.0
H3038 H 0.92289 0.71146 0.23457 0.0
H3039 H 0.90985 0.73396 0.22055 0.0
C3040 C 0.57213 0.63902 0.47645 0.0
C3041 C 0.58586 0.62199 0.47105 0.0
C3042 C 0.55432 0.64359 0.4617 0.0
C3043 C 0.55023 0.63082 0.44113 0.0
C3044 C 0.56406 0.61359 0.43579 0.0
C3045 C 0.58157 0.6094 0.45076 0.0
C3046 C 0.53996 0.66208 0.46802 0.0
C3047 C 0.56049 0.59959 0.41405 0.0
C3048 C 0.49608 0.62637 0.41011 0.0
C3049 C 0.49921 0.63877 0.3894 0.0
C3050 C 0.51209 0.62459 0.42778 0.0
C3051 C 0.53181 0.63538 0.42472 0.0
C3052 C 0.53476 0.64856 0.40432 0.0
C3053 C 0.5185 0.65007 0.38697 0.0
C3054 C 0.5082 0.61045 0.44926 0.0
C3055 C 0.55555 0.66024 0.40018 0.0
H3056 H 0.57531 0.64876 0.49212 0.0
H3057 H 0.59209 0.59622 0.44636 0.0
H3058 H 0.53993 0.67391 0.4532 0.0
H3059 H 0.52329 0.6564 0.47024 0.0
H3060 H 0.54504 0.67023 0.48479 0.0
H3061 H 0.57265 0.58674 0.41249 0.0
H3062 H 0.54445 0.59209 0.41495 0.0
H3063 H 0.561 0.60942 0.3975 0.0
H3064 H 0.48115 0.61785 0.41242 0.0
H3065 H 0.52127 0.65951 0.37097 0.0
H3066 H 0.51228 0.61904 0.46605 0.0
H3067 H 0.51869 0.59619 0.44822 0.0
H3068 H 0.49134 0.60497 0.45035 0.0
H3069 H 0.56031 0.66918 0.41651 0.0
H3070 H 0.55453 0.6716 0.38492 0.0
H3071 H 0.5684 0.64852 0.39633 0.0
C3072 C 0.37666 0.24636 0.15948 0.0
C3073 C 0.38919 0.24978 0.13893 0.0
C3074 C 0.37466 0.26216 0.17735 0.0
C3075 C 0.3854 0.28197 0.17469 0.0
C3076 C 0.39873 0.28519 0.15448 0.0
C3077 C 0.40043 0.26914 0.1369 0.0
C3078 C 0.36035 0.25797 0.19862 0.0
C3079 C 0.41038 0.30606 0.15077 0.0
C3080 C 0.35894 0.33133 0.20106 0.0
C3081 C 0.37126 0.33544 0.2216 0.0
C3082 C 0.36336 0.31401 0.18591 0.0
C3083 C 0.38059 0.30019 0.1913 0.0
C3084 C 0.3931 0.3041 0.21211 0.0
C3085 C 0.38828 0.3217 0.22706 0.0
C3086 C 0.3496 0.31063 0.16393 0.0
C3087 C 0.41161 0.28976 0.21849 0.0
H3088 H 0.36819 0.23137 0.16151 0.0
H3089 H 0.40997 0.27214 0.12104 0.0
H3090 H 0.36878 0.2619 0.21556 0.0
H3091 H 0.34606 0.26842 0.19755 0.0
H3092 H 0.35493 0.24108 0.19941 0.0
H3093 H 0.42192 0.30523 0.13566 0.0
H3094 H 0.39865 0.3189 0.14689 0.0
H3095 H 0.41911 0.31069 0.16729 0.0
H3096 H 0.34576 0.34185 0.19661 0.0
H3097 H 0.39781 0.32472 0.24294 0.0
H3098 H 0.34219 0.29454 0.16449 0.0
H3099 H 0.3596 0.31139 0.14753 0.0
H3100 H 0.3367 0.32273 0.16237 0.0
H3101 H 0.40599 0.27304 0.22041 0.0
H3102 H 0.41957 0.2947 0.23542 0.0
H3103 H 0.42358 0.28995 0.20382 0.0
C3104 C 0.49021 0.64928 0.88619 0.0
C3105 C 0.50962 0.63808 0.88785 0.0
C3106 C 0.47448 0.64758 0.9041 0.0
C3107 C 0.47818 0.63442 0.92436 0.0
C3108 C 0.49815 0.62396 0.92678 0.0
C3109 C 0.51358 0.62587 0.90852 0.0
C3110 C 0.45346 0.65903 0.90072 0.0
C3111 C 0.50282 0.60984 0.94809 0.0
C3112 C 0.43886 0.63717 0.977 0.0
C3113 C 0.42525 0.62 0.97175 0.0
C3114 C 0.45634 0.64205 0.96193 0.0
C3115 C 0.46024 0.62943 0.94121 0.0
C3116 C 0.4466 0.61199 0.93609 0.0
C3117 C 0.42939 0.60751 0.95137 0.0
C3118 C 0.47053 0.66075 0.96804 0.0
C3119 C 0.44999 0.59813 0.91421 0.0
H3120 H 0.48713 0.65918 0.87062 0.0
H3121 H 0.52843 0.61706 0.91002 0.0
H3122 H 0.44062 0.64716 0.89741 0.0
H3123 H 0.44911 0.66796 0.9172 0.0
H3124 H 0.45387 0.67036 0.88539 0.0
H3125 H 0.51989 0.60502 0.94889 0.0
H3126 H 0.4986 0.61813 0.96503 0.0
H3127 H 0.49288 0.59519 0.94702 0.0
H3128 H 0.43582 0.6468 0.99279 0.0
H3129 H 0.41897 0.59421 0.94712 0.0
H3130 H 0.46995 0.67272 0.95338 0.0
H3131 H 0.48735 0.65536 0.96965 0.0
H3132 H 0.46573 0.66864 0.98506 0.0
H3133 H 0.44887 0.60799 0.89773 0.0
H3134 H 0.4381 0.585 0.91294 0.0
H3135 H 0.46621 0.591 0.91463 0.0
C3136 C 0.13569 0.7649 0.65907 0.0
C3137 C 0.1225 0.76186 0.63897 0.0
C3138 C 0.13799 0.74889 0.67663 0.0
C3139 C 0.12689 0.72928 0.67409 0.0
C3140 C 0.11291 0.72644 0.65435 0.0
C3141 C 0.11091 0.7427 0.63707 0.0
C3142 C 0.15297 0.75265 0.69743 0.0
C3143 C 0.10084 0.70578 0.65082 0.0
C3144 C 0.15342 0.67949 0.69927 0.0
C3145 C 0.14161 0.67554 0.7202 0.0
C3146 C 0.14876 0.69687 0.6843 0.0
C3147 C 0.13185 0.71089 0.69033 0.0
C3148 C 0.11986 0.7071 0.71152 0.0
C3149 C 0.12489 0.68944 0.72625 0.0
C3150 C 0.16191 0.70012 0.66186 0.0
C3151 C 0.1017 0.72164 0.71855 0.0
H3152 H 0.14442 0.77975 0.66098 0.0
H3153 H 0.10086 0.74001 0.62153 0.0
H3154 H 0.14494 0.74876 0.71462 0.0
H3155 H 0.16702 0.74194 0.69579 0.0
H3156 H 0.15874 0.76942 0.69818 0.0
H3157 H 0.08891 0.70691 0.6361 0.0
H3158 H 0.11225 0.6928 0.64644 0.0
H3159 H 0.09247 0.70115 0.66757 0.0
H3160 H 0.16634 0.66881 0.6944 0.0
H3161 H 0.11578 0.68653 0.74246 0.0
H3162 H 0.16964 0.71607 0.66227 0.0
H3163 H 0.15142 0.69965 0.64582 0.0
H3164 H 0.17454 0.68779 0.65976 0.0
H3165 H 0.10759 0.73828 0.72041 0.0
H3166 H 0.09411 0.71672 0.7357 0.0
H3167 H 0.08936 0.72168 0.70427 0.0
C3168 C 0.02181 0.38698 0.38326 0.0
C3169 C 1.00244 0.37633 0.38759 0.0
C3170 C 0.03765 0.38853 0.4011 0.0
C3171 C 0.03412 0.37926 0.42395 0.0
C3172 C 0.01468 0.36836 0.42841 0.0
C3173 C 0.99912 0.367 0.41021 0.0
C3174 C 0.05815 0.40022 0.39549 0.0
C3175 C 0.01022 0.35834 0.45252 0.0
C3176 C 0.08352 0.37021 0.46291 0.0
C3177 C 0.08341 0.38845 0.47747 0.0
C3178 C 0.06723 0.36659 0.44595 0.0
C3179 C 0.0505 0.38171 0.44335 0.0
C3180 C 0.05009 0.3999 0.45847 0.0
C3181 C 0.06657 0.40307 0.47525 0.0
C3182 C 0.06839 0.34702 0.43019 0.0
C3183 C 0.03261 0.41642 0.4564 0.0
H3184 H 0.02473 0.39392 0.36576 0.0
H3185 H 0.98416 0.35891 0.41384 0.0
H3186 H 0.05999 0.41408 0.40773 0.0
H3187 H 0.07204 0.38954 0.39851 0.0
H3188 H 0.05867 0.4061 0.37669 0.0
H3189 H 0.99464 0.34985 0.45293 0.0
H3190 H 0.02307 0.34685 0.45716 0.0
H3191 H 0.01015 0.37086 0.46662 0.0
H3192 H 0.09688 0.3593 0.46392 0.0
H3193 H 0.06652 0.4173 0.48635 0.0
H3194 H 0.07112 0.35191 0.41131 0.0
H3195 H 0.05302 0.33819 0.43073 0.0
H3196 H 0.08144 0.33602 0.43567 0.0
H3197 H 0.03342 0.42423 0.43855 0.0
H3198 H 0.03385 0.42896 0.47044 0.0
H3199 H 0.01671 0.40869 0.45781 0.0
C3200 C 0.3742 0.76336 0.38056 0.0
C3201 C 0.38677 0.76024 0.40116 0.0
C3202 C 0.3724 0.74741 0.36285 0.0
C3203 C 0.38337 0.72776 0.36572 0.0
C3204 C 0.39676 0.72485 0.38596 0.0
C3205 C 0.39826 0.74105 0.40339 0.0
C3206 C 0.35803 0.75126 0.34153 0.0
C3207 C 0.40869 0.70417 0.38986 0.0
C3208 C 0.3575 0.67801 0.33952 0.0
C3209 C 0.36987 0.67405 0.31901 0.0
C3210 C 0.36174 0.6954 0.35466 0.0
C3211 C 0.37883 0.7094 0.34925 0.0
C3212 C 0.39139 0.70561 0.32847 0.0
C3213 C 0.38674 0.68796 0.31354 0.0
C3214 C 0.34796 0.69865 0.37661 0.0
C3215 C 0.40976 0.72013 0.3221 0.0
H3216 H 0.36555 0.77823 0.37838 0.0
H3217 H 0.40783 0.73828 0.41929 0.0
H3218 H 0.36654 0.74737 0.32463 0.0
H3219 H 0.34391 0.74058 0.34264 0.0
H3220 H 0.35235 0.76805 0.34061 0.0
H3221 H 0.4202 0.70525 0.40498 0.0
H3222 H 0.39713 0.69119 0.3938 0.0
H3223 H 0.4175 0.69956 0.37339 0.0
H3224 H 0.34444 0.66734 0.34395 0.0
H3225 H 0.39628 0.68506 0.29765 0.0
H3226 H 0.34031 0.71463 0.37597 0.0
H3227 H 0.35799 0.69812 0.39302 0.0
H3228 H 0.33524 0.68636 0.37823 0.0
H3229 H 0.40396 0.73678 0.32007 0.0
H3230 H 0.41781 0.71521 0.30522 0.0
H3231 H 0.4217 0.72013 0.33681 0.0
C3232 C 0.08729 0.6423 0.0853 0.0
C3233 C 0.08589 0.62713 0.06692 0.0
C3234 C 0.07041 0.64518 0.10167 0.0
C3235 C 0.05184 0.63227 0.09984 0.0
C3236 C 0.05013 0.61744 0.0807 0.0
C3237 C 0.06726 0.61494 0.0646 0.0
C3238 C 0.073 0.66115 0.12175 0.0
C3239 C 0.0307 0.60335 0.07801 0.0
C3240 C 0.02161 0.61962 0.15748 0.0
C3241 C 1.00394 0.63338 0.15608 0.0
C3242 C 0.03722 0.61915 0.13935 0.0
C3243 C 0.03522 0.63277 0.11916 0.0
C3244 C 0.01737 0.64661 0.11751 0.0
C3245 C 1.00195 0.64673 0.13593 0.0
C3246 C 0.05589 0.60402 0.14184 0.0
C3247 C 0.01466 0.66142 0.09636 0.0
H3248 H 0.10205 0.65106 0.08774 0.0
H3249 H 0.06644 0.60282 0.05072 0.0
H3250 H 0.05872 0.67158 0.12296 0.0
H3251 H 0.07447 0.65256 0.13909 0.0
H3252 H 0.08737 0.67135 0.11933 0.0
H3253 H 0.03087 0.59424 0.06091 0.0
H3254 H 0.03006 0.59181 0.09311 0.0
H3255 H 0.0159 0.61307 0.07875 0.0
H3256 H 0.02317 0.60901 0.17275 0.0
H3257 H 0.98853 0.65761 0.13477 0.0
H3258 H 0.07109 0.61313 0.14166 0.0
H3259 H 0.05627 0.59286 0.12638 0.0
H3260 H 0.05515 0.59452 0.15864 0.0
H3261 H 0.02854 0.67241 0.09518 0.0
H3262 H 0.99982 0.67109 0.09761 0.0
H3263 H 0.01423 0.65206 0.07947 0.0
C3264 C 0.1552 0.31908 0.81714 0.0
C3265 C 0.14008 0.33549 0.81498 0.0
C3266 C 0.15239 0.30231 0.83364 0.0
C3267 C 0.13405 0.30198 0.84854 0.0
C3268 C 0.11844 0.31826 0.84599 0.0
C3269 C 0.12171 0.33486 0.82931 0.0
C3270 C 0.16942 0.28533 0.83567 0.0
C3271 C 0.09869 0.31863 0.8615 0.0
C3272 C 0.12052 0.24981 0.88073 0.0
C3273 C 0.12948 0.25316 0.90355 0.0
C3274 C 0.12164 0.2656 0.86277 0.0
C3275 C 0.13192 0.2853 0.86766 0.0
C3276 C 0.14082 0.28884 0.8907 0.0
C3277 C 0.13952 0.27277 0.90829 0.0
C3278 C 0.11203 0.26112 0.83844 0.0
C3279 C 0.15184 0.30961 0.89677 0.0
H3280 H 0.16951 0.31958 0.80622 0.0
H3281 H 0.11037 0.34785 0.82832 0.0
H3282 H 0.17701 0.28616 0.85364 0.0
H3283 H 0.1622 0.26922 0.83389 0.0
H3284 H 0.18206 0.28714 0.82183 0.0
H3285 H 0.08727 0.3313 0.85595 0.0
H3286 H 0.09043 0.30296 0.86077 0.0
H3287 H 0.10331 0.32146 0.88046 0.0
H3288 H 0.1129 0.23467 0.87677 0.0
H3289 H 0.14616 0.27571 0.92595 0.0
H3290 H 0.12468 0.26162 0.82452 0.0
H3291 H 0.10017 0.27364 0.83385 0.0
H3292 H 0.10404 0.24528 0.83767 0.0
H3293 H 0.16574 0.31202 0.88472 0.0
H3294 H 0.15754 0.31006 0.91565 0.0
H3295 H 0.14076 0.3232 0.89385 0.0
C3296 C 0.49207 0.36 0.6542 0.0
C3297 C 0.51116 0.37167 0.65203 0.0
C3298 C 0.47587 0.36143 0.63677 0.0
C3299 C 0.4787 0.3749 0.6166 0.0
C3300 C 0.4983 0.38594 0.61372 0.0
C3301 C 0.51425 0.38422 0.63144 0.0
C3302 C 0.45522 0.34945 0.64069 0.0
C3303 C 0.50205 0.4004 0.59247 0.0
C3304 C 0.43821 0.37231 0.56502 0.0
C3305 C 0.42451 0.38923 0.57096 0.0
C3306 C 0.45604 0.36741 0.57957 0.0
C3307 C 0.46019 0.37972 0.60047 0.0
C3308 C 0.44637 0.39681 0.60637 0.0
C3309 C 0.42883 0.40133 0.59159 0.0
C3310 C 0.4704 0.34906 0.57268 0.0
C3311 C 0.44999 0.41032 0.62848 0.0
H3312 H 0.48934 0.35042 0.6701 0.0
H3313 H 0.52905 0.393 0.62933 0.0
H3314 H 0.44231 0.36094 0.6451 0.0
H3315 H 0.45038 0.34092 0.6241 0.0
H3316 H 0.45647 0.33767 0.65553 0.0
H3317 H 0.51891 0.40587 0.59134 0.0
H3318 H 0.49782 0.39209 0.57555 0.0
H3319 H 0.4916 0.41466 0.59391 0.0
H3320 H 0.435 0.36295 0.54906 0.0
H3321 H 0.41832 0.41441 0.5964 0.0
H3322 H 0.4706 0.33697 0.58723 0.0
H3323 H 0.48703 0.35484 0.5704 0.0
H3324 H 0.46519 0.3412 0.55579 0.0
H3325 H 0.44962 0.40012 0.64475 0.0
H3326 H 0.43779 0.42308 0.6305 0.0
H3327 H 0.466 0.41791 0.62768 0.0
C3328 C 0.13262 0.05264 0.28204 0.0
C3329 C 0.1176 0.06342 0.26776 0.0
C3330 C 0.13307 0.03027 0.28317 0.0
C3331 C 0.11847 0.01828 0.26924 0.0
C3332 C 0.10387 0.02904 0.25396 0.0
C3333 C 0.1035 0.05152 0.25353 0.0
C3334 C 0.14875 0.0195 0.29988 0.0
C3335 C 0.08832 0.01678 0.23849 0.0
C3336 C 0.13054 0.95972 0.25737 0.0
C3337 C 0.11657 0.94944 0.27334 0.0
C3338 C 0.13133 0.98208 0.25583 0.0
C3339 C 0.1182 0.99452 0.27105 0.0
C3340 C 0.10475 0.98426 0.28796 0.0
C3341 C 0.10395 0.96181 0.28875 0.0
C3342 C 0.14576 0.99234 0.23742 0.0
C3343 C 0.09084 0.99699 0.30484 0.0
H3344 H 0.14363 0.06168 0.29306 0.0
H3345 H 0.09191 0.05977 0.24244 0.0
H3346 H 0.13997 0.01017 0.31363 0.0
H3347 H 0.15888 0.00811 0.28974 0.0
H3348 H 0.15929 0.03114 0.3092 0.0
H3349 H 0.0786 0.02746 0.22689 0.0
H3350 H 0.09705 0.00532 0.22689 0.0
H3351 H 0.07738 0.00734 0.25001 0.0
H3352 H 0.14032 0.95029 0.24533 0.0
H3353 H 0.09314 0.95393 0.30111 0.0
H3354 H 0.1573 1.00315 0.24642 0.0
H3355 H 0.13616 1.00224 0.22491 0.0
H3356 H 0.15481 0.98037 0.22678 0.0
H3357 H 0.10078 0.00821 0.31546 0.0
H3358 H 0.08178 0.98662 0.31742 0.0
H3359 H 0.07929 0.00672 0.2944 0.0
C3360 C 0.20794 0.88155 0.53341 0.0
C3361 C 0.19642 0.86702 0.51921 0.0
C3362 C 0.23035 0.88151 0.53376 0.0
C3363 C 0.24164 0.86688 0.51916 0.0
C3364 C 0.23014 0.85257 0.50423 0.0
C3365 C 0.20764 0.85271 0.50456 0.0
C3366 C 0.24191 0.89692 0.55011 0.0
C3367 C 0.24162 0.83695 0.48813 0.0
C3368 C 0.29935 0.88011 0.50396 0.0
C3369 C 0.31071 0.86654 0.51946 0.0
C3370 C 0.27694 0.88022 0.50353 0.0
C3371 C 0.26549 0.86676 0.51937 0.0
C3372 C 0.27684 0.85343 0.53553 0.0
C3373 C 0.29935 0.85335 0.53525 0.0
C3374 C 0.26553 0.89452 0.48585 0.0
C3375 C 0.26521 0.83912 0.55297 0.0
H3376 H 0.19943 0.89267 0.54482 0.0
H3377 H 0.19883 0.84145 0.49357 0.0
H3378 H 0.25219 0.88797 0.56284 0.0
H3379 H 0.25251 0.90744 0.5394 0.0
H3380 H 0.23074 0.90707 0.5606 0.0
H3381 H 0.23038 0.82711 0.47734 0.0
H3382 H 0.25239 0.84567 0.47573 0.0
H3383 H 0.25172 0.82613 0.49909 0.0
H3384 H 0.30797 0.89031 0.49161 0.0
H3385 H 0.30804 0.84286 0.54725 0.0
H3386 H 0.25504 0.90588 0.49556 0.0
H3387 H 0.25516 0.8848 0.47395 0.0
H3388 H 0.2768 0.90378 0.47449 0.0
H3389 H 0.25462 0.84882 0.56464 0.0
H3390 H 0.27634 0.82988 0.56453 0.0
H3391 H 0.2549 0.82774 0.54302 0.0
C3392 C 0.40783 0.95871 0.75288 0.0
C3393 C 0.39431 0.94757 0.76852 0.0
C3394 C 0.40824 0.9812 0.75272 0.0
C3395 C 0.39506 0.99275 0.76884 0.0
C3396 C 0.38124 0.98153 0.78448 0.0
C3397 C 0.38086 0.95914 0.78392 0.0
C3398 C 0.42291 0.99261 0.73547 0.0
C3399 C 0.36707 0.99316 0.80211 0.0
C3400 C 0.41017 0.05017 0.78428 0.0
C3401 C 0.3961 0.06175 0.76969 0.0
C3402 C 0.40991 0.02767 0.78436 0.0
C3403 C 0.39546 0.01657 0.76921 0.0
C3404 C 0.38112 0.02825 0.75461 0.0
C3405 C 0.38145 0.05064 0.75524 0.0
C3406 C 0.42519 0.01577 0.80049 0.0
C3407 C 0.3656 0.01711 0.73802 0.0
H3408 H 0.41824 0.94984 0.74095 0.0
H3409 H 0.37038 0.95069 0.79613 0.0
H3410 H 0.41352 1.0035 0.72382 0.0
H3411 H 0.43447 1.00259 0.74558 0.0
H3412 H 0.43195 0.98134 0.72389 0.0
H3413 H 0.35761 0.98204 0.81345 0.0
H3414 H 0.37691 1.0034 0.81403 0.0
H3415 H 0.35588 1.00381 0.79234 0.0
H3416 H 0.4215 0.05868 0.79546 0.0
H3417 H 0.37052 0.05943 0.74387 0.0
H3418 H 0.43579 0.00543 0.78956 0.0
H3419 H 0.41616 1.00519 0.81283 0.0
H3420 H 0.43527 0.02673 0.81135 0.0
H3421 H 0.37442 0.00663 0.72538 0.0
H3422 H 0.35584 0.02855 0.72742 0.0
H3423 H 0.3547 0.00676 0.74855 0.0
C3424 C 0.21076 0.13079 1.0044 0.0
C3425 C 0.19945 0.1446 1.01966 0.0
C3426 C 0.23317 0.13092 1.00364 0.0
C3427 C 0.24466 0.14484 1.01893 0.0
C3428 C 0.23336 0.15843 0.03486 0.0
C3429 C 0.21086 0.15827 0.0349 0.0
C3430 C 0.24451 0.11632 0.98621 0.0
C3431 C 0.24506 0.17324 0.05173 0.0
C3432 C 0.30239 0.13076 0.03296 0.0
C3433 C 0.31372 0.14509 1.01835 0.0
C3434 C 0.27998 0.13063 0.03344 0.0
C3435 C 0.2685 0.14486 1.01851 0.0
C3436 C 0.27982 0.15894 1.00314 0.0
C3437 C 0.30232 0.15901 1.00338 0.0
C3438 C 0.26863 0.11551 0.05028 0.0
C3439 C 0.26814 0.17408 0.98664 0.0
H3440 H 0.2021 0.12021 0.99249 0.0
H3441 H 0.2022 0.16896 0.0467 0.0
H3442 H 0.25505 0.12579 0.97426 0.0
H3443 H 0.25483 0.10496 0.99617 0.0
H3444 H 0.2332 0.10705 0.9749 0.0
H3445 H 0.23397 0.18269 0.0631 0.0
H3446 H 0.2558 0.16389 0.06359 0.0
H3447 H 0.25522 0.18442 0.04133 0.0
H3448 H 0.31102 0.11994 0.04462 0.0
H3449 H 0.31099 0.1701 0.99205 0.0
H3450 H 0.25805 0.10466 0.03994 0.0
H3451 H 0.25835 0.12466 0.06282 0.0
H3452 H 0.27993 0.10568 0.06099 0.0
H3453 H 0.25738 0.16498 0.97455 0.0
H3454 H 0.27923 0.18376 0.97552 0.0
H3455 H 0.25798 0.18506 0.99733 0.0
C3456 C 0.90763 0.05002 0.75577 0.0
C3457 C 0.89404 0.06127 0.77124 0.0
C3458 C 0.90763 0.02752 0.75539 0.0
C3459 C 0.89398 0.01608 0.77112 0.0
C3460 C 0.88015 0.02742 0.78663 0.0
C3461 C 0.88018 0.04982 0.7863 0.0
C3462 C 0.92235 0.01599 0.73829 0.0
C3463 C 0.86551 0.0159 0.80387 0.0
C3464 C 0.87945 0.95861 0.75647 0.0
C3465 C 0.89364 0.94706 0.77105 0.0
C3466 C 0.87955 0.98101 0.75615 0.0
C3467 C 0.8939 0.99225 0.77118 0.0
C3468 C 0.90789 0.98071 0.78645 0.0
C3469 C 0.9077 0.95822 0.78607 0.0
C3470 C 0.86452 0.99263 0.73942 0.0
C3471 C 0.92318 0.99214 0.803 0.0
H3472 H 0.91835 0.05879 0.74411 0.0
H3473 H 0.86967 0.05837 0.79839 0.0
H3474 H 0.93352 0.00565 0.74849 0.0
H3475 H 0.91292 0.00544 0.72629 0.0
H3476 H 0.93182 0.02719 0.72708 0.0
H3477 H 0.85602 0.0271 0.81508 0.0
H3478 H 0.85435 0.00547 0.79379 0.0
H3479 H 0.875 0.00547 0.81593 0.0
H3480 H 0.86855 0.95014 0.74475 0.0
H3481 H 0.91869 0.94938 0.79736 0.0
H3482 H 0.87374 1.00303 0.72707 0.0
H3483 H 0.8537 1.00312 0.74989 0.0
H3484 H 0.85466 0.9815 0.72852 0.0
H3485 H 0.93417 1.00234 0.79239 0.0
H3486 H 0.93284 0.98088 0.81394 0.0
H3487 H 0.9142 1.00282 0.81527 0.0
C3488 C 0.71022 0.12988 0.53364 0.0
C3489 C 0.69976 0.14366 0.5176 0.0
C3490 C 0.7326 0.12911 0.53486 0.0
C3491 C 0.74487 0.14208 0.51928 0.0
C3492 C 0.7344 0.15532 0.50231 0.0
C3493 C 0.71195 0.15609 0.50181 0.0
C3494 C 0.74309 0.11491 0.55334 0.0
C3495 C 0.74694 0.16905 0.48505 0.0
C3496 C 0.80195 0.1571 0.53611 0.0
C3497 C 0.81378 0.14285 0.52203 0.0
C3498 C 0.77947 0.15671 0.53583 0.0
C3499 C 0.76864 0.14192 0.52085 0.0
C3500 C 0.78056 0.12719 0.50703 0.0
C3501 C 0.80294 0.12769 0.508 0.0
C3502 C 0.76728 0.17243 0.55114 0.0
C3503 C 0.76971 0.1113 0.49065 0.0
H3504 H 0.70091 0.12027 0.54598 0.0
H3505 H 0.70393 0.16675 0.4894 0.0
H3506 H 0.75401 0.10345 0.54441 0.0
H3507 H 0.75289 0.12471 0.56575 0.0
H3508 H 0.73125 0.10577 0.56409 0.0
H3509 H 0.73642 0.17789 0.47242 0.0
H3510 H 0.75671 0.18076 0.49518 0.0
H3511 H 0.75811 0.159 0.47448 0.0
H3512 H 0.81026 0.16881 0.547 0.0
H3513 H 0.81194 0.11656 0.49709 0.0
H3514 H 0.75593 0.16382 0.56297 0.0
H3515 H 0.75774 0.18319 0.53951 0.0
H3516 H 0.77802 0.18232 0.56248 0.0
H3517 H 0.75842 0.10126 0.50104 0.0
H3518 H 0.78131 0.10069 0.48138 0.0
H3519 H 0.76026 0.11991 0.47685 0.0
C3520 C 0.60219 0.05233 0.28627 0.0
C3521 C 0.61608 0.0635 0.27106 0.0
C3522 C 0.602 0.02983 0.28662 0.0
C3523 C 0.61579 0.01829 0.27113 0.0
C3524 C 0.62993 0.02955 0.25589 0.0
C3525 C 0.63007 0.05195 0.25625 0.0
C3526 C 0.58694 0.0184 0.30342 0.0
C3527 C 0.64474 0.01794 0.23891 0.0
C3528 C 0.62985 0.96073 0.28596 0.0
C3529 C 0.6158 0.94925 0.27113 0.0
C3530 C 0.62982 0.98314 0.28633 0.0
C3531 C 0.61573 0.99445 0.27108 0.0
C3532 C 0.60188 0.98298 0.25557 0.0
C3533 C 0.60195 0.96048 0.25593 0.0
C3534 C 0.64468 0.99467 0.30333 0.0
C3535 C 0.5869 0.99449 0.23873 0.0
H3536 H 0.59136 0.06117 0.29773 0.0
H3537 H 0.64082 0.06042 0.24437 0.0
H3538 H 0.57581 0.0082 0.29298 0.0
H3539 H 0.59609 0.00772 0.31554 0.0
H3540 H 0.57743 0.02966 0.31451 0.0
H3541 H 0.65439 0.02907 0.2278 0.0
H3542 H 0.65576 0.00751 0.24921 0.0
H3543 H 0.63536 0.00748 0.22676 0.0
H3544 H 0.64057 0.95222 0.29784 0.0
H3545 H 0.59109 0.95169 0.24445 0.0
H3546 H 0.63535 1.00514 0.3155 0.0
H3547 H 0.65573 1.00507 0.29307 0.0
H3548 H 0.65429 0.98348 0.31443 0.0
H3549 H 0.57587 1.00482 0.24912 0.0
H3550 H 0.57729 0.98327 0.22768 0.0
H3551 H 0.59614 1.00505 0.22656 0.0
C3552 C 0.70787 0.85303 0.03592 0.0
C3553 C 0.6961 0.86713 0.02158 0.0
C3554 C 0.73036 0.85329 0.0356 0.0
C3555 C 0.74124 0.86775 1.02028 0.0
C3556 C 0.72939 0.88229 1.00614 0.0
C3557 C 0.70701 0.88197 1.00719 0.0
C3558 C 0.74248 0.83779 0.05127 0.0
C3559 C 0.74029 0.89781 0.98938 0.0
C3560 C 0.79966 0.87996 0.03288 0.0
C3561 C 0.81011 0.86586 1.0172 0.0
C3562 C 0.77728 0.88075 0.03407 0.0
C3563 C 0.76501 0.8675 1.01878 0.0
C3564 C 0.77547 0.85392 1.00216 0.0
C3565 C 0.79793 0.85312 1.00172 0.0
C3566 C 0.7668 0.89532 0.05219 0.0
C3567 C 0.76294 0.83988 0.98521 0.0
H3568 H 0.69952 0.84158 0.04709 0.0
H3569 H 0.69806 0.89297 0.99606 0.0
H3570 H 0.75203 0.82682 0.0399 0.0
H3571 H 0.75384 0.84658 0.06295 0.0
H3572 H 0.7317 0.82812 0.06278 0.0
H3573 H 0.72873 0.90817 0.97971 0.0
H3574 H 0.7515 0.90812 0.99957 0.0
H3575 H 0.74985 0.88891 0.97592 0.0
H3576 H 0.80895 0.88982 0.04498 0.0
H3577 H 0.80595 0.84223 0.98959 0.0
H3578 H 0.75695 0.88576 0.06478 0.0
H3579 H 0.75592 0.90664 0.04296 0.0
H3580 H 0.77863 0.90462 0.06276 0.0
H3581 H 0.75312 0.82839 0.9956 0.0
H3582 H 0.77345 0.83077 0.97284 0.0
H3583 H 0.75181 0.84974 0.97436 0.0
C3584 C 0.60176 0.55174 0.75554 0.0
C3585 C 0.61556 0.56327 0.77051 0.0
C3586 C 0.60172 0.52924 0.75569 0.0
C3587 C 0.61557 0.51807 0.77147 0.0
C3588 C 0.62964 0.52969 0.78648 0.0
C3589 C 0.62963 0.55208 0.7856 0.0
C3590 C 0.58675 0.5174 0.73912 0.0
C3591 C 0.64451 0.51849 0.80374 0.0
C3592 C 0.60192 0.46047 0.78776 0.0
C3593 C 0.61572 0.44905 0.77269 0.0
C3594 C 0.60185 0.48297 0.78777 0.0
C3595 C 0.61566 0.49424 0.77206 0.0
C3596 C 0.62977 0.48274 0.75703 0.0
C3597 C 0.62979 0.46035 0.75774 0.0
C3598 C 0.58685 0.49468 0.80439 0.0
C3599 C 0.64461 0.49406 0.73984 0.0
H3600 H 0.59087 0.5603 0.74386 0.0
H3601 H 0.64033 0.56083 0.79728 0.0
H3602 H 0.596 0.50662 0.72721 0.0
H3603 H 0.57572 0.50727 0.74976 0.0
H3604 H 0.57713 0.5284 0.72781 0.0
H3605 H 0.6352 0.50816 0.81608 0.0
H3606 H 0.65563 0.50799 0.79371 0.0
H3607 H 0.65404 0.52989 0.81466 0.0
H3608 H 0.59103 0.45182 0.79934 0.0
H3609 H 0.64051 0.45169 0.74599 0.0
H3610 H 0.5757 0.50471 0.79378 0.0
H3611 H 0.59604 0.50555 0.81627 0.0
H3612 H 0.57735 0.4836 0.81574 0.0
H3613 H 0.63524 0.50424 0.72739 0.0
H3614 H 0.65433 0.48274 0.72904 0.0
H3615 H 0.65556 0.50473 0.74991 0.0
C3616 C 0.80016 0.3508 0.03717 0.0
C3617 C 0.81178 0.36459 0.02228 0.0
C3618 C 0.77766 0.35123 0.03737 0.0
C3619 C 0.76658 0.36555 0.02205 0.0
C3620 C 0.7783 0.37964 1.00719 0.0
C3621 C 0.80069 0.37915 1.0077 0.0
C3622 C 0.76572 0.33622 0.05378 0.0
C3623 C 0.76719 0.39501 0.99041 0.0
C3624 C 0.70871 0.35316 1.00565 0.0
C3625 C 0.69755 0.36693 0.021 0.0
C3626 C 0.7312 0.35265 1.00565 0.0
C3627 C 0.74275 0.36599 0.02164 0.0
C3628 C 0.73151 0.38003 0.03701 0.0
C3629 C 0.70911 0.3805 0.0363 0.0
C3630 C 0.74262 0.33771 0.98869 0.0
C3631 C 0.74313 0.39438 0.05449 0.0
H3632 H 0.80864 0.33954 0.04847 0.0
H3633 H 0.80951 0.38986 0.9961 0.0
H3634 H 0.75515 0.34546 0.06594 0.0
H3635 H 0.75536 0.32548 0.04304 0.0
H3636 H 0.77666 0.3263 0.06484 0.0
H3637 H 0.77866 0.40467 0.97973 0.0
H3638 H 0.75674 0.38607 0.97784 0.0
H3639 H 0.75682 0.406 1.00079 0.0
H3640 H 0.69985 0.34265 0.99381 0.0
H3641 H 0.70065 0.39116 0.04829 0.0
H3642 H 0.75258 0.3263 0.99903 0.0
H3643 H 0.75352 0.34692 0.97689 0.0
H3644 H 0.73135 0.32851 0.97726 0.0
H3645 H 0.75344 0.38467 0.06647 0.0
H3646 H 0.732 0.40388 0.06576 0.0
H3647 H 0.75371 0.40552 0.04458 0.0
C3648 C 0.88179 0.54969 0.25704 0.0
C3649 C 0.89579 0.56098 0.27211 0.0
C3650 C 0.88172 0.5273 0.25645 0.0
C3651 C 0.89565 0.51581 0.27172 0.0
C3652 C 0.9094 0.52708 0.28751 0.0
C3653 C 0.90943 0.54957 0.28738 0.0
C3654 C 0.86695 0.51596 0.23918 0.0
C3655 C 0.92421 0.51537 0.30436 0.0
C3656 C 0.88129 0.45818 0.28565 0.0
C3657 C 0.89546 0.44682 0.27087 0.0
C3658 C 0.88135 0.48057 0.28628 0.0
C3659 C 0.89559 0.49199 0.27132 0.0
C3660 C 0.90952 0.48065 0.25581 0.0
C3661 C 0.90941 0.45816 0.25591 0.0
C3662 C 0.8664 0.49197 0.30327 0.0
C3663 C 0.92467 0.49229 0.23929 0.0
H3664 H 0.87122 0.55836 0.24512 0.0
H3665 H 0.92025 0.55822 0.29905 0.0
H3666 H 0.87634 0.50555 0.22701 0.0
H3667 H 0.85577 0.50553 0.24923 0.0
H3668 H 0.85748 0.52728 0.22809 0.0
H3669 H 0.93371 0.52645 0.31571 0.0
H3670 H 0.91486 0.50466 0.31625 0.0
H3671 H 0.93535 0.50518 0.29395 0.0
H3672 H 0.87047 0.44957 0.29732 0.0
H3673 H 0.92037 0.44945 0.24447 0.0
H3674 H 0.85544 0.50249 0.29301 0.0
H3675 H 0.87566 0.50231 0.31565 0.0
H3676 H 0.85668 0.4807 0.31414 0.0
H3677 H 0.91557 0.50305 0.2272 0.0
H3678 H 0.9343 0.48117 0.22815 0.0
H3679 H 0.93569 0.50243 0.24994 0.0
C3680 C 0.70963 0.63042 0.50625 0.0
C3681 C 0.69839 0.64452 0.52123 0.0
C3682 C 0.73203 0.63025 0.50568 0.0
C3683 C 0.74359 0.64418 0.52089 0.0
C3684 C 0.73236 0.65803 0.5366 0.0
C3685 C 0.70986 0.65815 0.53645 0.0
C3686 C 0.7433 0.61538 0.48849 0.0
C3687 C 0.74413 0.67287 0.55337 0.0
C3688 C 0.80125 0.62982 0.53495 0.0
C3689 C 0.81263 0.64388 0.52006 0.0
C3690 C 0.77884 0.62989 0.53554 0.0
C3691 C 0.76743 0.64405 0.52047 0.0
C3692 C 0.7788 0.65788 0.50486 0.0
C3693 C 0.8013 0.65773 0.50496 0.0
C3694 C 0.76742 0.61502 0.5526 0.0
C3695 C 0.76718 0.67297 0.48824 0.0
H3696 H 0.70092 0.61984 0.49438 0.0
H3697 H 0.70126 0.66906 0.54805 0.0
H3698 H 0.75376 0.62468 0.47627 0.0
H3699 H 0.7537 0.6042 0.4986 0.0
H3700 H 0.73195 0.60591 0.47745 0.0
H3701 H 0.75484 0.66353 0.56529 0.0
H3702 H 0.75435 0.68394 0.54289 0.0
H3703 H 0.73309 0.68244 0.56467 0.0
H3704 H 0.80986 0.61907 0.54672 0.0
H3705 H 0.81001 0.66862 0.49344 0.0
H3706 H 0.75681 0.6041 0.54241 0.0
H3707 H 0.75716 0.62436 0.56499 0.0
H3708 H 0.77867 0.60528 0.56347 0.0
H3709 H 0.75638 0.66384 0.47622 0.0
H3710 H 0.77832 0.68251 0.47703 0.0
H3711 H 0.75708 0.68406 0.49883 0.0
C3712 C 0.37985 0.55087 0.28464 0.0
C3713 C 0.39434 0.56211 0.27012 0.0
C3714 C 0.37971 0.52847 0.28528 0.0
C3715 C 0.39407 0.51691 0.27061 0.0
C3716 C 0.40833 0.52813 0.25536 0.0
C3717 C 0.40841 0.55063 0.25544 0.0
C3718 C 0.3644 0.51722 0.302 0.0
C3719 C 0.42362 0.51635 0.23913 0.0
C3720 C 0.40712 0.45928 0.28737 0.0
C3721 C 0.39356 0.44789 0.27198 0.0
C3722 C 0.40735 0.48178 0.28727 0.0
C3723 C 0.39396 0.49308 0.27112 0.0
C3724 C 0.38014 0.48161 0.25569 0.0
C3725 C 0.37994 0.45922 0.25652 0.0
C3726 C 0.42204 0.49345 0.30429 0.0
C3727 C 0.36576 0.49297 0.23804 0.0
H3728 H 0.36892 0.55957 0.29608 0.0
H3729 H 0.41962 0.55924 0.24419 0.0
H3730 H 0.35361 0.50666 0.29157 0.0
H3731 H 0.37341 0.50693 0.31467 0.0
H3732 H 0.35453 0.52858 0.31256 0.0
H3733 H 0.43346 0.52739 0.22812 0.0
H3734 H 0.43443 0.50618 0.25001 0.0
H3735 H 0.41461 0.50561 0.22694 0.0
H3736 H 0.41767 0.45061 0.29933 0.0
H3737 H 0.36944 0.45057 0.24449 0.0
H3738 H 0.41262 0.50428 0.31597 0.0
H3739 H 0.43339 0.50352 0.294 0.0
H3740 H 0.43131 0.48235 0.31584 0.0
H3741 H 0.35439 0.50341 0.24781 0.0
H3742 H 0.3565 0.48167 0.2267 0.0
H3743 H 0.3754 0.50339 0.22612 0.0
C3744 C 0.30249 0.629 1.00733 0.0
C3745 C 0.31364 0.64413 0.02108 0.0
C3746 C 0.2801 0.62873 1.00667 0.0
C3747 C 0.26848 0.64369 1.0205 0.0
C3748 C 0.27961 0.65855 0.0351 0.0
C3749 C 0.3021 0.65869 0.0351 0.0
C3750 C 0.2689 0.61275 0.9907 0.0
C3751 C 0.26776 0.67452 0.0504 0.0
C3752 C 0.21132 0.65705 1.00238 0.0
C3753 C 0.19954 0.64451 1.01844 0.0
C3754 C 0.2338 0.65673 1.00261 0.0
C3755 C 0.24468 0.64381 1.01958 0.0
C3756 C 0.23283 0.6309 0.0356 0.0
C3757 C 0.21044 0.63123 0.03465 0.0
C3758 C 0.2459 0.67042 0.98494 0.0
C3759 C 0.24377 0.61704 0.05409 0.0
H3760 H 0.31127 0.61767 0.99645 0.0
H3761 H 0.31065 0.67038 0.04576 0.0
H3762 H 0.25907 0.62125 0.97717 0.0
H3763 H 0.2803 0.60213 0.98115 0.0
H3764 H 0.25791 0.60272 1.00151 0.0
H3765 H 0.27873 0.68462 0.06121 0.0
H3766 H 0.25792 0.68507 0.03883 0.0
H3767 H 0.2567 0.66609 0.06274 0.0
H3768 H 0.20296 0.66731 0.98984 0.0
H3769 H 0.20146 0.62153 0.0472 0.0
H3770 H 0.25676 0.66032 0.97404 0.0
H3771 H 0.25597 0.68212 0.99473 0.0
H3772 H 0.23508 0.67926 0.97265 0.0
H3773 H 0.25432 0.60529 0.04506 0.0
H3774 H 0.2322 0.60824 0.06553 0.0
H3775 H 0.25403 0.62702 0.06584 0.0
C3776 C 0.10435 0.46139 0.752 0.0
C3777 C 0.11739 0.44957 0.76754 0.0
C3778 C 0.10498 0.48386 0.75194 0.0
C3779 C 0.11873 0.49472 0.76808 0.0
C3780 C 0.13225 0.48282 0.78344 0.0
C3781 C 0.13159 0.46042 0.78278 0.0
C3782 C 0.09062 0.49598 0.73496 0.0
C3783 C 0.14698 0.49374 0.80108 0.0
C3784 C 0.13294 0.55254 0.75488 0.0
C3785 C 0.11833 0.56371 0.76931 0.0
C3786 C 0.13325 0.53015 0.75432 0.0
C3787 C 0.11891 0.51853 0.76897 0.0
C3788 C 0.10463 0.52969 0.78425 0.0
C3789 C 0.10439 0.55218 0.7841 0.0
C3790 C 0.14856 0.51894 0.73758 0.0
C3791 C 0.08936 0.51786 0.80045 0.0
H3792 H 0.09336 0.45307 0.74022 0.0
H3793 H 0.14167 0.45142 0.79492 0.0
H3794 H 0.07921 0.50591 0.74532 0.0
H3795 H 0.10026 0.50698 0.7237 0.0
H3796 H 0.08141 0.48518 0.72299 0.0
H3797 H 0.15654 0.48216 0.81172 0.0
H3798 H 0.15807 0.50456 0.79143 0.0
H3799 H 0.13752 0.5037 0.81364 0.0
H3800 H 0.1438 0.56129 0.74339 0.0
H3801 H 0.09312 0.56074 0.7953 0.0
H3802 H 0.13951 0.50908 0.72452 0.0
H3803 H 0.15905 0.50799 0.74787 0.0
H3804 H 0.15876 0.53033 0.72744 0.0
H3805 H 0.07831 0.508 0.7895 0.0
H3806 H 0.07976 0.52884 0.81179 0.0
H3807 H 0.09833 0.50681 0.81233 0.0
C3808 C 0.20834 0.38174 0.50901 0.0
C3809 C 0.19773 0.36764 0.52456 0.0
C3810 C 0.23073 0.38246 0.50802 0.0
C3811 C 0.24285 0.36911 0.52335 0.0
C3812 C 0.23223 0.35551 0.53982 0.0
C3813 C 0.20977 0.35481 0.54009 0.0
C3814 C 0.24139 0.39706 0.49006 0.0
C3815 C 0.2446 0.34132 0.55677 0.0
C3816 C 0.30005 0.35437 0.50675 0.0
C3817 C 0.3118 0.36825 0.52139 0.0
C3818 C 0.27756 0.3548 0.50678 0.0
C3819 C 0.26665 0.36926 0.52206 0.0
C3820 C 0.27848 0.38362 0.53646 0.0
C3821 C 0.30087 0.38309 0.53576 0.0
C3822 C 0.26548 0.33948 0.49085 0.0
C3823 C 0.26752 0.39915 0.55316 0.0
H3824 H 0.19915 0.39167 0.49687 0.0
H3825 H 0.20163 0.34391 0.55213 0.0
H3826 H 0.25234 0.40823 0.49942 0.0
H3827 H 0.25119 0.3875 0.47742 0.0
H3828 H 0.22966 0.40652 0.47952 0.0
H3829 H 0.23397 0.33218 0.56899 0.0
H3830 H 0.25443 0.32985 0.54637 0.0
H3831 H 0.2557 0.35108 0.56776 0.0
H3832 H 0.30842 0.34292 0.49559 0.0
H3833 H 0.30982 0.39391 0.54713 0.0
H3834 H 0.25428 0.34841 0.47911 0.0
H3835 H 0.25577 0.32849 0.50202 0.0
H3836 H 0.2763 0.32981 0.47938 0.0
H3837 H 0.25631 0.40942 0.54293 0.0
H3838 H 0.27905 0.40956 0.56282 0.0
H3839 H 0.25796 0.39025 0.56661 0.0
C3840 C 0.11938 0.12131 0.09418 0.0
C3841 C 0.12039 0.13967 0.07969 0.0
C3842 C 0.1176 0.12269 0.11928 0.0
C3843 C 0.11692 0.14298 0.13053 0.0
C3844 C 0.117 0.16162 0.11599 0.0
C3845 C 0.11865 0.15975 0.09077 0.0
C3846 C 0.11741 0.10234 0.13384 0.0
C3847 C 0.11638 0.18356 0.12714 0.0
C3848 C 0.10103 0.14264 0.19701 0.0
C3849 C 0.12104 0.14136 0.20834 0.0
C3850 C 0.09936 0.1441 0.17176 0.0
C3851 C 0.11812 0.14442 0.15744 0.0
C3852 C 0.13832 0.14419 0.16892 0.0
C3853 C 0.13952 0.14261 0.19406 0.0
C3854 C 0.0775 0.14426 0.16035 0.0
C3855 C 0.15879 0.14464 0.15459 0.0
H3856 H 0.12052 0.10567 0.08592 0.0
H3857 H 0.11951 0.17405 0.07984 0.0
H3858 H 0.13221 0.10131 0.14473 0.0
H3859 H 0.1037 0.10234 0.14645 0.0
H3860 H 0.11637 0.08785 0.12237 0.0
H3861 H 0.11417 0.19633 0.11352 0.0
H3862 H 0.10326 0.18461 0.14047 0.0
H3863 H 0.13157 0.18656 0.13685 0.0
H3864 H 0.08665 0.14161 0.20777 0.0
H3865 H 0.1551 0.14182 0.20249 0.0
H3866 H 0.07486 0.12897 0.15073 0.0
H3867 H 0.07633 0.15728 0.14691 0.0
H3868 H 0.06458 0.14632 0.1738 0.0
H3869 H 0.16018 0.12977 0.14386 0.0
H3870 H 0.17316 0.14602 0.1662 0.0
H3871 H 0.15864 0.15824 0.14183 0.0
C3872 C 0.115 0.85256 0.44941 0.0
C3873 C 0.11765 0.8726 0.46036 0.0
C3874 C 0.11311 0.85066 0.42421 0.0
C3875 C 0.11378 0.86922 0.40958 0.0
C3876 C 0.11541 0.8895 0.4207 0.0
C3877 C 0.11736 0.89092 0.44578 0.0
C3878 C 0.11141 0.82872 0.41319 0.0
C3879 C 0.11608 0.90978 0.40602 0.0
C3880 C 0.13611 0.86862 0.34601 0.0
C3881 C 0.11766 0.8709 0.33183 0.0
C3882 C 0.13493 0.86692 0.37113 0.0
C3883 C 0.11479 0.86762 0.38268 0.0
C3884 C 0.09601 0.86886 0.36845 0.0
C3885 C 0.09765 0.87041 0.34321 0.0
C3886 C 0.15541 0.86544 0.38537 0.0
C3887 C 0.07421 0.86966 0.37994 0.0
H3888 H 0.11527 0.83828 0.4604 0.0
H3889 H 0.11919 0.90654 0.45392 0.0
H3890 H 0.09821 0.82823 0.3999 0.0
H3891 H 0.12641 0.82495 0.40346 0.0
H3892 H 0.10864 0.81614 0.42689 0.0
H3893 H 0.11582 0.92436 0.4174 0.0
H3894 H 0.13083 0.91006 0.395 0.0
H3895 H 0.10229 0.91037 0.39352 0.0
H3896 H 0.15168 0.86875 0.3375 0.0
H3897 H 0.0833 0.87224 0.33252 0.0
H3898 H 0.1546 0.85194 0.39823 0.0
H3899 H 0.15765 0.88028 0.39597 0.0
H3900 H 0.16963 0.86322 0.3737 0.0
H3901 H 0.07257 0.85683 0.39354 0.0
H3902 H 0.06117 0.868 0.36654 0.0
H3903 H 0.07222 0.88514 0.38937 0.0
C3904 C 0.36938 0.86913 0.69475 0.0
C3905 C 0.388 0.87025 0.70884 0.0
C3906 C 0.37031 0.86774 0.66956 0.0
C3907 C 0.39038 0.86762 0.65779 0.0
C3908 C 0.40928 0.86795 0.67191 0.0
C3909 C 0.40788 0.86917 0.69722 0.0
C3910 C 0.34969 0.86724 0.65549 0.0
C3911 C 0.43102 0.86799 0.66023 0.0
C3912 C 0.3899 0.85177 0.59117 0.0
C3913 C 0.38815 0.87174 0.57981 0.0
C3914 C 0.39139 0.85014 0.61644 0.0
C3915 C 0.39132 0.86889 0.6308 0.0
C3916 C 0.39049 0.88906 0.6193 0.0
C3917 C 0.38884 0.89022 0.59414 0.0
C3918 C 0.39212 0.82829 0.62784 0.0
C3919 C 0.39053 0.90954 0.63364 0.0
H3920 H 0.35389 0.86981 0.7034 0.0
H3921 H 0.42237 0.87016 0.70781 0.0
H3922 H 0.34818 0.88207 0.64471 0.0
H3923 H 0.34972 0.8536 0.64278 0.0
H3924 H 0.33544 0.86588 0.66728 0.0
H3925 H 0.44412 0.86627 0.67354 0.0
H3926 H 0.43222 0.85484 0.64696 0.0
H3927 H 0.43333 0.88321 0.65035 0.0
H3928 H 0.38928 0.83737 0.58041 0.0
H3929 H 0.38766 0.90578 0.5857 0.0
H3930 H 0.37712 0.82545 0.63794 0.0
H3931 H 0.40549 0.82732 0.64087 0.0
H3932 H 0.39402 0.81538 0.61433 0.0
H3933 H 0.37579 0.91049 0.64464 0.0
H3934 H 0.39132 0.92394 0.62202 0.0
H3935 H 0.40432 0.90979 0.64615 0.0
C3936 C 0.37211 0.14141 0.84464 0.0
C3937 C 0.39049 0.14034 0.8302 0.0
C3938 C 0.37345 0.14321 0.86976 0.0
C3939 C 0.39372 0.14382 0.88108 0.0
C3940 C 0.41238 0.14368 0.86658 0.0
C3941 C 0.41055 0.14203 0.84135 0.0
C3942 C 0.35307 0.14349 0.88425 0.0
C3943 C 0.43431 0.14424 0.8778 0.0
C3944 C 0.39332 0.15965 0.94765 0.0
C3945 C 0.39194 0.13963 0.95895 0.0
C3946 C 0.39483 0.16134 0.92239 0.0
C3947 C 0.39511 0.1426 0.90802 0.0
C3948 C 0.39481 0.12239 0.91949 0.0
C3949 C 0.39318 0.12118 0.94463 0.0
C3950 C 0.39508 0.1832 0.91102 0.0
C3951 C 0.39524 0.10193 0.90514 0.0
H3952 H 0.35648 0.14033 0.83633 0.0
H3953 H 0.42487 0.14113 0.83046 0.0
H3954 H 0.35192 0.12865 0.89507 0.0
H3955 H 0.35314 0.15715 0.89693 0.0
H3956 H 0.33861 0.14466 0.87274 0.0
H3957 H 0.4471 0.14641 0.86421 0.0
H3958 H 0.43537 0.15734 0.89114 0.0
H3959 H 0.43725 0.12904 0.8875 0.0
H3960 H 0.3923 0.17402 0.95843 0.0
H3961 H 0.39233 0.10559 0.95305 0.0
H3962 H 0.37979 0.18591 0.9014 0.0
H3963 H 0.4081 0.18433 0.89759 0.0
H3964 H 0.39718 0.1961 0.9245 0.0
H3965 H 0.38036 0.10055 0.89442 0.0
H3966 H 0.39664 0.08756 0.91673 0.0
H3967 H 0.40883 0.10208 0.89236 0.0
C3968 C 0.90708 0.86496 0.8413 0.0
C3969 C 0.88713 0.86784 0.83022 0.0
C3970 C 0.90881 0.86292 0.86649 0.0
C3971 C 0.89017 0.86367 0.88097 0.0
C3972 C 0.86996 0.86551 0.86971 0.0
C3973 C 0.86871 0.8676 0.84464 0.0
C3974 C 0.93068 0.86102 0.87768 0.0
C3975 C 0.84959 0.86626 0.88423 0.0
C3976 C 0.88845 0.84744 0.94726 0.0
C3977 C 0.88804 0.86744 0.95868 0.0
C3978 C 0.89015 0.84582 0.92203 0.0
C3979 C 0.89162 0.86462 0.90786 0.0
C3980 C 0.89239 0.88474 0.91947 0.0
C3981 C 0.89054 0.88589 0.94457 0.0
C3982 C 0.88926 0.82405 0.91048 0.0
C3983 C 0.89412 0.90523 0.90529 0.0
H3984 H 0.92142 0.86518 0.83041 0.0
H3985 H 0.85315 0.86961 0.83638 0.0
H3986 H 0.93453 0.87598 0.88744 0.0
H3987 H 0.93097 0.84782 0.89096 0.0
H3988 H 0.94331 0.85813 0.86406 0.0
H3989 H 0.83509 0.86611 0.87273 0.0
H3990 H 0.84885 0.85246 0.89668 0.0
H3991 H 0.84934 0.881 0.89529 0.0
H3992 H 0.88646 0.83309 0.9579 0.0
H3993 H 0.8905 0.90145 0.95312 0.0
H3994 H 0.90217 0.82234 0.89699 0.0
H3995 H 0.87383 0.82219 0.90089 0.0
H3996 H 0.89073 0.81098 0.92385 0.0
H3997 H 0.9077 0.90434 0.89255 0.0
H3998 H 0.89636 0.91941 0.91702 0.0
H3999 H 0.87937 0.90758 0.89456 0.0
C4000 C 0.90835 0.14086 0.69978 0.0
C4001 C 0.88823 0.13907 0.71077 0.0
C4002 C 0.91033 0.14229 0.67454 0.0
C4003 C 0.89178 0.14212 0.65985 0.0
C4004 C 0.87144 0.14135 0.67099 0.0
C4005 C 0.86994 0.13975 0.69613 0.0
C4006 C 0.93234 0.143 0.66355 0.0
C4007 C 0.85116 0.14133 0.65629 0.0
C4008 C 0.89214 0.15806 0.59329 0.0
C4009 C 0.89112 0.13806 0.58189 0.0
C4010 C 0.89318 0.15971 0.61858 0.0
C4011 C 0.89341 0.14094 0.63291 0.0
C4012 C 0.89344 0.12076 0.62137 0.0
C4013 C 0.89221 0.11959 0.59619 0.0
C4014 C 0.89304 0.18155 0.63001 0.0
C4015 C 0.89386 0.10028 0.63569 0.0
H4016 H 0.9226 0.14025 0.71081 0.0
H4017 H 0.85427 0.13856 0.7043 0.0
H4018 H 0.93541 0.12787 0.65376 0.0
H4019 H 0.93343 0.15619 0.65031 0.0
H4020 H 0.94504 0.14517 0.67726 0.0
H4021 H 0.83661 0.14234 0.66765 0.0
H4022 H 0.85116 0.15496 0.64358 0.0
H4023 H 0.85029 0.12647 0.6455 0.0
H4024 H 0.89119 0.17245 0.58253 0.0
H4025 H 0.89161 0.10402 0.5877 0.0
H4026 H 0.90597 0.18284 0.64355 0.0
H4027 H 0.87767 0.18401 0.63952 0.0
H4028 H 0.89503 0.19451 0.61659 0.0
H4029 H 0.9073 0.10052 0.64867 0.0
H4030 H 0.89552 0.08594 0.62408 0.0
H4031 H 0.87887 0.09876 0.64616 0.0
C4032 C 0.62014 0.12389 0.445 0.0
C4033 C 0.6221 0.14241 0.45911 0.0
C4034 C 0.6183 0.12496 0.41988 0.0
C4035 C 0.6185 0.14508 0.40824 0.0
C4036 C 0.61952 0.16391 0.4224 0.0
C4037 C 0.62124 0.16237 0.44764 0.0
C4038 C 0.61713 0.10442 0.40572 0.0
C4039 C 0.61982 0.18569 0.41081 0.0
C4040 C 0.64096 0.1428 0.34474 0.0
C4041 C 0.62243 0.14216 0.33047 0.0
C4042 C 0.63986 0.14477 0.36983 0.0
C4043 C 0.61971 0.14605 0.3813 0.0
C4044 C 0.60094 0.14634 0.36698 0.0
C4045 C 0.60251 0.14446 0.34176 0.0
C4046 C 0.66036 0.14451 0.38416 0.0
C4047 C 0.57913 0.14763 0.37839 0.0
H4048 H 0.62057 0.10834 0.45354 0.0
H4049 H 0.62281 0.17679 0.45826 0.0
H4050 H 0.60341 0.10486 0.39313 0.0
H4051 H 0.63184 0.10254 0.39483 0.0
H4052 H 0.61546 0.09017 0.41747 0.0
H4053 H 0.61822 0.19875 0.42418 0.0
H4054 H 0.6351 0.18787 0.40101 0.0
H4055 H 0.60672 0.1871 0.39749 0.0
H4056 H 0.65649 0.14124 0.33632 0.0
H4057 H 0.58809 0.14391 0.33101 0.0
H4058 H 0.66108 0.12978 0.39521 0.0
H4059 H 0.66086 0.15832 0.39662 0.0
H4060 H 0.67476 0.14503 0.37252 0.0
H4061 H 0.57582 0.13261 0.38828 0.0
H4062 H 0.56629 0.15007 0.36489 0.0
H4063 H 0.57856 0.16088 0.39159 0.0
C4064 C 0.6175 0.89071 0.09603 0.0
C4065 C 0.61846 0.87222 0.08173 0.0
C4066 C 0.61619 0.88955 0.12121 0.0
C4067 C 0.61596 0.86938 0.13275 0.0
C4068 C 0.61601 0.85061 0.11841 0.0
C4069 C 0.61717 0.85224 0.09312 0.0
C4070 C 0.61599 0.91004 0.13551 0.0
C4071 C 0.61585 0.82877 0.12984 0.0
C4072 C 0.63955 0.87041 0.19592 0.0
C4073 C 0.62131 0.87143 0.21059 0.0
C4074 C 0.63798 0.86873 0.1708 0.0
C4075 C 0.61761 0.86819 0.15969 0.0
C4076 C 0.59909 0.86834 0.17441 0.0
C4077 C 0.60114 0.86987 0.19965 0.0
C4078 C 0.65823 0.86844 0.15607 0.0
C4079 C 0.57706 0.86787 0.16345 0.0
H4080 H 0.6183 0.90628 0.08756 0.0
H4081 H 0.61801 0.83784 0.08236 0.0
H4082 H 0.60255 0.90996 0.14848 0.0
H4083 H 0.63099 0.9114 0.14601 0.0
H4084 H 0.6145 0.9244 0.1239 0.0
H4085 H 0.61364 0.81584 0.11641 0.0
H4086 H 0.63121 0.82607 0.13932 0.0
H4087 H 0.60294 0.82767 0.1434 0.0
H4088 H 0.65526 0.87142 0.20405 0.0
H4089 H 0.58693 0.87073 0.21069 0.0
H4090 H 0.65928 0.88326 0.14523 0.0
H4091 H 0.65803 0.85477 0.1434 0.0
H4092 H 0.67279 0.86727 0.16741 0.0
H4093 H 0.57412 0.88303 0.15369 0.0
H4094 H 0.56436 0.86583 0.17718 0.0
H4095 H 0.5758 0.8547 0.1502 0.0
C4096 C 0.60137 0.64274 0.69842 0.0
C4097 C 0.6214 0.64151 0.7097 0.0
C4098 C 0.59963 0.64413 0.67315 0.0
C4099 C 0.61835 0.64449 0.65875 0.0
C4100 C 0.63857 0.64433 0.6702 0.0
C4101 C 0.63983 0.64277 0.69535 0.0
C4102 C 0.57774 0.64417 0.66181 0.0
C4103 C 0.65901 0.64489 0.65582 0.0
C4104 C 0.61934 0.62149 0.59534 0.0
C4105 C 0.6201 0.63988 0.58087 0.0
C4106 C 0.61778 0.62282 0.62048 0.0
C4107 C 0.61707 0.64308 0.63181 0.0
C4108 C 0.61696 0.66173 0.6173 0.0
C4109 C 0.61839 0.65992 0.59204 0.0
C4110 C 0.61779 0.60244 0.63499 0.0
C4111 C 0.61631 0.68365 0.62851 0.0
H4112 H 0.58702 0.64168 0.70923 0.0
H4113 H 0.65543 0.64201 0.70377 0.0
H4114 H 0.57646 0.65719 0.64839 0.0
H4115 H 0.57517 0.62887 0.65218 0.0
H4116 H 0.56484 0.64613 0.67531 0.0
H4117 H 0.67338 0.64644 0.66739 0.0
H4118 H 0.66049 0.62999 0.64516 0.0
H4119 H 0.65873 0.65844 0.64299 0.0
H4120 H 0.62048 0.60587 0.58704 0.0
H4121 H 0.61906 0.67425 0.58115 0.0
H4122 H 0.60413 0.60233 0.64767 0.0
H4123 H 0.63264 0.60149 0.64581 0.0
H4124 H 0.61681 0.58796 0.6235 0.0
H4125 H 0.60319 0.68465 0.64184 0.0
H4126 H 0.61408 0.69645 0.61493 0.0
H4127 H 0.63149 0.68666 0.63823 0.0
C4128 C 0.63873 0.37 0.84678 0.0
C4129 C 0.62031 0.37138 0.8324 0.0
C4130 C 0.63745 0.36853 0.87192 0.0
C4131 C 0.61721 0.36856 0.88332 0.0
C4132 C 0.5985 0.36906 0.86891 0.0
C4133 C 0.60026 0.37038 0.84365 0.0
C4134 C 0.65787 0.36785 0.88635 0.0
C4135 C 0.57662 0.36922 0.88022 0.0
C4136 C 0.61718 0.35311 0.94996 0.0
C4137 C 0.61912 0.37314 0.96112 0.0
C4138 C 0.61568 0.35132 0.92472 0.0
C4139 C 0.61595 0.36999 0.91024 0.0
C4140 C 0.61685 0.39024 0.92155 0.0
C4141 C 0.61849 0.39155 0.94668 0.0
C4142 C 0.61483 0.32941 0.9135 0.0
C4143 C 0.61702 0.41062 0.90705 0.0
H4144 H 0.65435 0.37059 0.8384 0.0
H4145 H 0.58592 0.37153 0.83282 0.0
H4146 H 0.65941 0.38271 0.89707 0.0
H4147 H 0.65753 0.35426 0.89911 0.0
H4148 H 0.67226 0.3663 0.8748 0.0
H4149 H 0.56369 0.36739 0.8667 0.0
H4150 H 0.57521 0.3562 0.89362 0.0
H4151 H 0.57419 0.38453 0.88987 0.0
H4152 H 0.61775 0.33878 0.96085 0.0
H4153 H 0.6198 0.40715 0.955 0.0
H4154 H 0.62999 0.32627 0.90381 0.0
H4155 H 0.60172 0.32853 0.90015 0.0
H4156 H 0.61248 0.31663 0.92708 0.0
H4157 H 0.63189 0.41146 0.89625 0.0
H4158 H 0.61614 0.4251 0.91854 0.0
H4159 H 0.60337 0.41083 0.89434 0.0
C4160 C 0.89154 0.3875 0.0968 0.0
C4161 C 0.89015 0.36912 0.08238 0.0
C4162 C 0.89329 0.38615 0.12191 0.0
C4163 C 0.89354 0.36589 0.13324 0.0
C4164 C 0.8931 0.34722 0.11877 0.0
C4165 C 0.89149 0.34904 0.09354 0.0
C4166 C 0.89389 0.40654 0.13639 0.0
C4167 C 0.8933 0.3253 0.13 0.0
C4168 C 0.90913 0.36619 0.19984 0.0
C4169 C 0.8891 0.36797 0.211 0.0
C4170 C 0.9109 0.36456 0.1746 0.0
C4171 C 0.8922 0.36455 0.16015 0.0
C4172 C 0.87196 0.36521 0.1715 0.0
C4173 C 0.87068 0.36698 0.19661 0.0
C4174 C 0.9328 0.36393 0.16335 0.0
C4175 C 0.85154 0.36506 0.15703 0.0
H4176 H 0.89073 0.40313 0.08847 0.0
H4177 H 0.89035 0.33473 0.08267 0.0
H4178 H 0.87904 0.40795 0.14715 0.0
H4179 H 0.90751 0.40625 0.14913 0.0
H4180 H 0.89534 0.42096 0.12488 0.0
H4181 H 0.89533 0.31246 0.11643 0.0
H4182 H 0.90635 0.32405 0.1434 0.0
H4183 H 0.87803 0.32259 0.13963 0.0
H4184 H 0.92348 0.36703 0.21069 0.0
H4185 H 0.85507 0.36813 0.20495 0.0
H4186 H 0.93583 0.37918 0.15379 0.0
H4187 H 0.93375 0.35092 0.14988 0.0
H4188 H 0.9456 0.36156 0.1769 0.0
H4189 H 0.85042 0.37995 0.1463 0.0
H4190 H 0.83711 0.36389 0.16856 0.0
H4191 H 0.85153 0.35146 0.14427 0.0
C4192 C 0.87157 0.64108 0.34623 0.0
C4193 C 0.89004 0.63969 0.33198 0.0
C4194 C 0.87278 0.64278 0.37136 0.0
C4195 C 0.89298 0.64292 0.38285 0.0
C4196 C 0.91174 0.64247 0.36853 0.0
C4197 C 0.91006 0.64096 0.34329 0.0
C4198 C 0.85231 0.64345 0.38568 0.0
C4199 C 0.9336 0.64251 0.37994 0.0
C4200 C 0.89281 0.65846 0.44944 0.0
C4201 C 0.89098 0.63844 0.46063 0.0
C4202 C 0.89433 0.66023 0.42421 0.0
C4203 C 0.89419 0.64154 0.40976 0.0
C4204 C 0.89337 0.6213 0.4211 0.0
C4205 C 0.89171 0.62001 0.44622 0.0
C4206 C 0.89507 0.68213 0.41296 0.0
C4207 C 0.89334 0.6009 0.40663 0.0
H4208 H 0.85599 0.64031 0.33777 0.0
H4209 H 0.92443 0.6398 0.33253 0.0
H4210 H 0.85074 0.62857 0.39637 0.0
H4211 H 0.85261 0.65702 0.39848 0.0
H4212 H 0.83797 0.64503 0.37406 0.0
H4213 H 0.94653 0.64445 0.36647 0.0
H4214 H 0.93486 0.65554 0.39335 0.0
H4215 H 0.93613 0.62721 0.38959 0.0
H4216 H 0.89216 0.67281 0.4603 0.0
H4217 H 0.89048 0.60442 0.45457 0.0
H4218 H 0.8799 0.68518 0.40324 0.0
H4219 H 0.90819 0.68306 0.39962 0.0
H4220 H 0.89736 0.69494 0.42652 0.0
H4221 H 0.87851 0.59997 0.39577 0.0
H4222 H 0.89427 0.58644 0.41815 0.0
H4223 H 0.90702 0.60075 0.39398 0.0
C4224 C 0.36978 0.36913 0.34657 0.0
C4225 C 0.38827 0.37025 0.33229 0.0
C4226 C 0.37094 0.36787 0.37175 0.0
C4227 C 0.3911 0.3679 0.38332 0.0
C4228 C 0.40989 0.36821 0.36902 0.0
C4229 C 0.40826 0.36929 0.34372 0.0
C4230 C 0.35043 0.36736 0.38602 0.0
C4231 C 0.43172 0.3684 0.38049 0.0
C4232 C 0.38983 0.39091 0.44678 0.0
C4233 C 0.38927 0.37251 0.46125 0.0
C4234 C 0.39139 0.38959 0.42163 0.0
C4235 C 0.39225 0.36934 0.41029 0.0
C4236 C 0.39248 0.35069 0.42479 0.0
C4237 C 0.39108 0.35248 0.45005 0.0
C4238 C 0.39127 0.40998 0.40713 0.0
C4239 C 0.39325 0.32877 0.41357 0.0
H4240 H 0.35421 0.36972 0.33806 0.0
H4241 H 0.42265 0.37028 0.33298 0.0
H4242 H 0.35064 0.35381 0.39885 0.0
H4243 H 0.34893 0.38226 0.39668 0.0
H4244 H 0.3361 0.36585 0.37438 0.0
H4245 H 0.44471 0.3666 0.36707 0.0
H4246 H 0.43407 0.38371 0.39018 0.0
H4247 H 0.43307 0.35537 0.39389 0.0
H4248 H 0.3886 0.40651 0.4551 0.0
H4249 H 0.39056 0.33814 0.46093 0.0
H4250 H 0.37645 0.41082 0.39624 0.0
H4251 H 0.40496 0.41017 0.39449 0.0
H4252 H 0.39212 0.42445 0.41862 0.0
H4253 H 0.37817 0.32577 0.40365 0.0
H4254 H 0.39536 0.31596 0.42716 0.0
H4255 H 0.4065 0.3278 0.40041 0.0
C4256 C 0.40945 0.64126 0.19879 0.0
C4257 C 0.3893 0.64001 0.20979 0.0
C4258 C 0.41144 0.64268 0.17356 0.0
C4259 C 0.39287 0.64301 0.15892 0.0
C4260 C 0.37253 0.64282 0.17007 0.0
C4261 C 0.37102 0.64125 0.19519 0.0
C4262 C 0.43344 0.64279 0.16253 0.0
C4263 C 0.35224 0.64332 0.1554 0.0
C4264 C 0.39322 0.65843 0.09225 0.0
C4265 C 0.39156 0.63838 0.08109 0.0
C4266 C 0.39455 0.66025 0.1175 0.0
C4267 C 0.39441 0.64159 0.13201 0.0
C4268 C 0.39384 0.62133 0.12069 0.0
C4269 C 0.39236 0.61999 0.09555 0.0
C4270 C 0.39508 0.68217 0.12871 0.0
C4271 C 0.39383 0.60095 0.1352 0.0
H4272 H 0.42369 0.64022 0.2098 0.0
H4273 H 0.35533 0.64049 0.20338 0.0
H4274 H 0.43617 0.62749 0.15295 0.0
H4275 H 0.43481 0.6558 0.14911 0.0
H4276 H 0.4462 0.64482 0.1762 0.0
H4277 H 0.33774 0.6448 0.16678 0.0
H4278 H 0.3526 0.65689 0.14261 0.0
H4279 H 0.35092 0.62843 0.1447 0.0
H4280 H 0.39252 0.67275 0.08135 0.0
H4281 H 0.39128 0.60437 0.08722 0.0
H4282 H 0.40804 0.68318 0.14225 0.0
H4283 H 0.37978 0.68519 0.13818 0.0
H4284 H 0.39748 0.69496 0.11516 0.0
H4285 H 0.40732 0.60095 0.14811 0.0
H4286 H 0.39508 0.58649 0.12372 0.0
H4287 H 0.37885 0.59988 0.14577 0.0
C4288 C 0.10366 0.64331 0.84052 0.0
C4289 C 0.1237 0.64154 0.82937 0.0
C4290 C 0.10188 0.64493 0.86575 0.0
C4291 C 0.12055 0.64494 0.88023 0.0
C4292 C 0.14081 0.64418 0.86892 0.0
C4293 C 0.14212 0.64243 0.8438 0.0
C4294 C 0.07996 0.64565 0.87698 0.0
C4295 C 0.16121 0.64432 0.88341 0.0
C4296 C 0.1209 0.6613 0.94658 0.0
C4297 C 0.12202 0.64137 0.95811 0.0
C4298 C 0.11955 0.66278 0.92131 0.0
C4299 C 0.11917 0.64392 0.90716 0.0
C4300 C 0.11928 0.62381 0.91883 0.0
C4301 C 0.12076 0.6228 0.944 0.0
C4302 C 0.11951 0.68455 0.90971 0.0
C4303 C 0.11873 0.60324 0.90469 0.0
H4304 H 0.08933 0.64255 0.82965 0.0
H4305 H 0.15773 0.64126 0.83548 0.0
H4306 H 0.07699 0.63056 0.88688 0.0
H4307 H 0.07896 0.65889 0.89015 0.0
H4308 H 0.06715 0.64773 0.86338 0.0
H4309 H 0.17567 0.64528 0.87191 0.0
H4310 H 0.16129 0.65806 0.896 0.0
H4311 H 0.1622 0.62954 0.89435 0.0
H4312 H 0.12193 0.67576 0.95721 0.0
H4313 H 0.12142 0.60728 0.95259 0.0
H4314 H 0.10643 0.68572 0.89634 0.0
H4315 H 0.13477 0.687 0.89996 0.0
H4316 H 0.11763 0.6976 0.92305 0.0
H4317 H 0.10516 0.60337 0.89188 0.0
H4318 H 0.11724 0.58897 0.91642 0.0
H4319 H 0.13361 0.60169 0.89401 0.0
C4320 C 0.09989 0.36901 0.69954 0.0
C4321 C 0.1199 0.37064 0.71081 0.0
C4322 C 0.09823 0.36683 0.67435 0.0
C4323 C 0.11699 0.36617 0.66006 0.0
C4324 C 0.13718 0.36666 0.67154 0.0
C4325 C 0.13838 0.36891 0.6966 0.0
C4326 C 0.07637 0.36632 0.66295 0.0
C4327 C 0.15767 0.36588 0.65723 0.0
C4328 C 0.11798 0.34985 0.59373 0.0
C4329 C 0.11963 0.36979 0.5823 0.0
C4330 C 0.11612 0.34834 0.61896 0.0
C4331 C 0.11582 0.36718 0.63314 0.0
C4332 C 0.1164 0.38731 0.62154 0.0
C4333 C 0.1183 0.38835 0.59644 0.0
C4334 C 0.1155 0.32656 0.63051 0.0
C4335 C 0.11604 0.40787 0.63573 0.0
H4336 H 0.0855 0.37037 0.71024 0.0
H4337 H 0.15396 0.3699 0.70501 0.0
H4338 H 0.07357 0.38148 0.65313 0.0
H4339 H 0.07532 0.35314 0.64969 0.0
H4340 H 0.06348 0.36429 0.67645 0.0
H4341 H 0.17202 0.36465 0.66889 0.0
H4342 H 0.15748 0.35207 0.64477 0.0
H4343 H 0.15911 0.38057 0.64619 0.0
H4344 H 0.11903 0.3354 0.58309 0.0
H4345 H 0.11932 0.40389 0.58794 0.0
H4346 H 0.10242 0.32571 0.64391 0.0
H4347 H 0.13071 0.32367 0.64019 0.0
H4348 H 0.11322 0.31361 0.61711 0.0
H4349 H 0.10227 0.40799 0.64825 0.0
H4350 H 0.11501 0.42219 0.62401 0.0
H4351 H 0.13079 0.40912 0.64671 0.0
loop_
_geom_bond_atom_site_label_1
_geom_bond_atom_site_label_2
_geom_bond_distance
_geom_bond_site_symmetry_2
_ccdc_geom_bond_type
Sm0 C2 2.846 . S
Sm0 O20 2.543 . S
Sm0 O21 2.450 . S
Sm0 O22 2.681 . S
Sm0 O23 2.464 . S
Sm0 O24 2.396 . S
Sm0 O28 2.386 . S
Sm0 O31 2.408 . S
Sm1 C11 2.846 . S
Sm1 O22 2.386 . S
Sm1 O25 2.408 . S
Sm1 O26 2.543 . S
Sm1 O27 2.450 . S
Sm1 O28 2.681 . S
Sm1 O29 2.464 . S
Sm1 O30 2.396 . S
C2 Sm0 2.846 . S
C2 C3 1.506 . S
C2 O20 1.261 . S
C2 O21 1.242 . S
C3 C2 1.506 . S
C3 C4 1.358 . S
C3 C8 1.382 . S
C4 C3 1.358 . S
C4 C5 1.385 . S
C4 H32 0.930 . S
C5 C4 1.385 . S
C5 C6 1.395 . S
C5 H33 0.929 . S
C6 C5 1.395 . S
C6 C7 1.335 . S
C7 C6 1.335 . S
C7 C8 1.398 . S
C7 H34 0.930 . S
C8 C3 1.382 . S
C8 C7 1.398 . S
C8 H35 0.929 . S
C9 O22 1.271 . S
C9 O23 1.251 . S
C10 O24 1.252 . S
C10 O25 1.272 . S
C11 Sm1 2.846 . S
C11 C12 1.506 . S
C11 O26 1.261 . S
C11 O27 1.242 . S
C12 C11 1.506 . S
C12 C13 1.358 . S
C12 C17 1.382 . S
C13 C12 1.358 . S
C13 C14 1.385 . S
C13 H36 0.930 . S
C14 C13 1.385 . S
C14 C15 1.395 . S
C14 H37 0.929 . S
C15 C14 1.395 . S
C15 C16 1.335 . S
C16 C15 1.335 . S
C16 C17 1.398 . S
C16 H38 0.930 . S
C17 C12 1.382 . S
C17 C16 1.398 . S
C17 H39 0.929 . S
C18 O28 1.271 . S
C18 O29 1.251 . S
C19 O30 1.252 . S
C19 O31 1.272 . S
O20 Sm0 2.543 . S
O20 C2 1.261 . S
O21 Sm0 2.450 . S
O21 C2 1.242 . S
O22 Sm0 2.681 . S
O22 Sm1 2.386 . S
O22 C9 1.271 . S
O23 Sm0 2.464 . S
O23 C9 1.251 . S
O24 Sm0 2.396 . S
O24 C10 1.252 . S
O25 Sm1 2.408 . S
O25 C10 1.272 . S
O26 Sm1 2.543 . S
O26 C11 1.261 . S
O27 Sm1 2.450 . S
O27 C11 1.242 . S
O28 Sm0 2.386 . S
O28 Sm1 2.681 . S
O28 C18 1.271 . S
O29 Sm1 2.464 . S
O29 C18 1.251 . S
O30 Sm1 2.396 . S
O30 C19 1.252 . S
O31 Sm0 2.408 . S
O31 C19 1.272 . S
H32 C4 0.930 . S
H33 C5 0.929 . S
H34 C7 0.930 . S
H35 C8 0.929 . S
H36 C13 0.930 . S
H37 C14 0.929 . S
H38 C16 0.930 . S
H39 C17 0.929 . S
Sm40 C42 2.846 . S
Sm40 O60 2.543 . S
Sm40 O61 2.450 . S
Sm40 O62 2.681 . S
Sm40 O63 2.464 . S
Sm40 O64 2.396 . S
Sm40 O68 2.386 . S
Sm40 O71 2.408 . S
Sm41 C51 2.846 . S
Sm41 O62 2.386 . S
Sm41 O65 2.408 . S
Sm41 O66 2.543 . S
Sm41 O67 2.450 . S
Sm41 O68 2.681 . S
Sm41 O69 2.464 . S
Sm41 O70 2.396 . S
C42 Sm40 2.846 . S
C42 C43 1.506 . S
C42 O60 1.261 . S
C42 O61 1.242 . S
C43 C42 1.506 . S
C43 C44 1.358 . S
C43 C48 1.382 . S
C44 C43 1.358 . S
C44 C45 1.385 . S
C44 H72 0.930 . S
C45 C44 1.385 . S
C45 C46 1.395 . S
C45 H73 0.929 . S
C46 C45 1.395 . S
C46 C47 1.335 . S
C47 C46 1.335 . S
C47 C48 1.398 . S
C47 H74 0.945 . S
C48 C43 1.382 . S
C48 C47 1.398 . S
C48 H75 0.929 . S
C49 O62 1.271 . S
C49 O63 1.251 . S
C50 O64 1.252 . S
C50 O65 1.272 . S
C51 Sm41 2.846 . S
C51 C52 1.506 . S
C51 O66 1.261 . S
C51 O67 1.242 . S
C52 C51 1.506 . S
C52 C53 1.358 . S
C52 C57 1.382 . S
C53 C52 1.358 . S
C53 C54 1.385 . S
C53 H76 0.930 . S
C54 C53 1.385 . S
C54 C55 1.395 . S
C54 H77 0.929 . S
C55 C54 1.395 . S
C55 C56 1.335 . S
C56 C55 1.335 . S
C56 C57 1.398 . S
C56 H78 0.930 . S
C57 C52 1.382 . S
C57 C56 1.398 . S
C57 H79 0.929 . S
C58 O68 1.271 . S
C58 O69 1.251 . S
C59 O70 1.252 . S
C59 O71 1.272 . S
O60 Sm40 2.543 . S
O60 C42 1.261 . S
O61 Sm40 2.450 . S
O61 C42 1.242 . S
O62 Sm40 2.681 . S
O62 Sm41 2.386 . S
O62 C49 1.271 . S
O63 Sm40 2.464 . S
O63 C49 1.251 . S
O64 Sm40 2.396 . S
O64 C50 1.252 . S
O65 Sm41 2.408 . S
O65 C50 1.272 . S
O66 Sm41 2.543 . S
O66 C51 1.261 . S
O67 Sm41 2.450 . S
O67 C51 1.242 . S
O68 Sm40 2.386 . S
O68 Sm41 2.681 . S
O68 C58 1.271 . S
O69 Sm41 2.464 . S
O69 C58 1.251 . S
O70 Sm41 2.396 . S
O70 C59 1.252 . S
O71 Sm40 2.408 . S
O71 C59 1.272 . S
H72 C44 0.930 . S
H73 C45 0.929 . S
H74 C47 0.945 . S
H75 C48 0.929 . S
H76 C53 0.930 . S
H77 C54 0.929 . S
H78 C56 0.930 . S
H79 C57 0.929 . S
Sm80 C82 2.846 . S
Sm80 O100 2.543 . S
Sm80 O101 2.450 . S
Sm80 O102 2.681 . S
Sm80 O103 2.464 . S
Sm80 O104 2.396 . S
Sm80 O108 2.386 . S
Sm80 O111 2.408 . S
Sm81 C91 2.846 . S
Sm81 O102 2.386 . S
Sm81 O105 2.408 . S
Sm81 O106 2.543 . S
Sm81 O107 2.450 . S
Sm81 O108 2.681 . S
Sm81 O109 2.464 . S
Sm81 O110 2.396 . S
C82 Sm80 2.846 . S
C82 C83 1.506 . S
C82 O100 1.261 . S
C82 O101 1.242 . S
C83 C82 1.506 . S
C83 C84 1.358 . S
C83 C88 1.382 . S
C84 C83 1.358 . S
C84 C85 1.385 . S
C84 H112 0.930 . S
C85 C84 1.385 . S
C85 C86 1.395 . S
C85 H113 0.929 . S
C86 C85 1.395 . S
C86 C87 1.335 . S
C87 C86 1.335 . S
C87 C88 1.398 . S
C87 H114 0.930 . S
C88 C83 1.382 . S
C88 C87 1.398 . S
C88 H115 0.929 . S
C89 O102 1.271 . S
C89 O103 1.251 . S
C90 O104 1.252 . S
C90 O105 1.272 . S
C91 Sm81 2.846 . S
C91 C92 1.506 . S
C91 O106 1.261 . S
C91 O107 1.242 . S
C92 C91 1.506 . S
C92 C93 1.358 . S
C92 C97 1.382 . S
C93 C92 1.358 . S
C93 C94 1.385 . S
C93 H116 0.930 . S
C94 C93 1.385 . S
C94 C95 1.395 . S
C94 H117 0.929 . S
C95 C94 1.395 . S
C95 C96 1.335 . S
C96 C95 1.335 . S
C96 C97 1.398 . S
C96 H118 0.930 . S
C97 C92 1.382 . S
C97 C96 1.398 . S
C97 H119 0.929 . S
C98 O108 1.271 . S
C98 O109 1.251 . S
C99 O110 1.252 . S
C99 O111 1.272 . S
O100 Sm80 2.543 . S
O100 C82 1.261 . S
O101 Sm80 2.450 . S
O101 C82 1.242 . S
O102 Sm80 2.681 . S
O102 Sm81 2.386 . S
O102 C89 1.271 . S
O103 Sm80 2.464 . S
O103 C89 1.251 . S
O104 Sm80 2.396 . S
O104 C90 1.252 . S
O105 Sm81 2.408 . S
O105 C90 1.272 . S
O106 Sm81 2.543 . S
O106 C91 1.261 . S
O107 Sm81 2.450 . S
O107 C91 1.242 . S
O108 Sm80 2.386 . S
O108 Sm81 2.681 . S
O108 C98 1.271 . S
O109 Sm81 2.464 . S
O109 C98 1.251 . S
O110 Sm81 2.396 . S
O110 C99 1.252 . S
O111 Sm80 2.408 . S
O111 C99 1.272 . S
H112 C84 0.930 . S
H113 C85 0.929 . S
H114 C87 0.930 . S
H115 C88 0.929 . S
H116 C93 0.930 . S
H117 C94 0.929 . S
H118 C96 0.930 . S
H119 C97 0.929 . S
Sm120 C122 2.846 1_554 S
Sm120 O140 2.543 1_554 S
Sm120 O141 2.450 . S
Sm120 O142 2.681 . S
Sm120 O143 2.464 . S
Sm120 O144 2.396 1_554 S
Sm120 O148 2.386 . S
Sm120 O151 2.408 . S
Sm121 C131 2.846 . S
Sm121 O142 2.386 . S
Sm121 O145 2.408 1_554 S
Sm121 O146 2.543 . S
Sm121 O147 2.450 . S
Sm121 O148 2.681 . S
Sm121 O149 2.464 . S
Sm121 O150 2.396 . S
C122 Sm120 2.846 1_556 S
C122 C123 1.506 . S
C122 O140 1.261 . S
C122 O141 1.242 1_556 S
C123 C122 1.506 . S
C123 C124 1.358 . S
C123 C128 1.382 . S
C124 C123 1.358 . S
C124 C125 1.385 . S
C124 H152 0.930 . S
C125 C124 1.385 . S
C125 C126 1.395 . S
C125 H153 0.929 . S
C126 C125 1.395 . S
C126 C127 1.335 . S
C127 C126 1.335 . S
C127 C128 1.398 . S
C127 H154 0.945 . S
C128 C123 1.382 . S
C128 C127 1.398 . S
C128 H155 0.929 . S
C129 O142 1.271 . S
C129 O143 1.251 . S
C130 O144 1.252 . S
C130 O145 1.272 . S
C131 Sm121 2.846 . S
C131 C132 1.506 . S
C131 O146 1.261 . S
C131 O147 1.242 . S
C132 C131 1.506 . S
C132 C133 1.358 . S
C132 C137 1.382 . S
C133 C132 1.358 . S
C133 C134 1.385 . S
C133 H156 0.930 . S
C134 C133 1.385 . S
C134 C135 1.395 . S
C134 H157 0.929 . S
C135 C134 1.395 . S
C135 C136 1.335 . S
C136 C135 1.335 . S
C136 C137 1.398 . S
C136 H158 0.930 . S
C137 C132 1.382 . S
C137 C136 1.398 . S
C137 H159 0.929 . S
C138 O148 1.271 . S
C138 O149 1.251 . S
C139 O150 1.252 . S
C139 O151 1.272 . S
O140 Sm120 2.543 1_556 S
O140 C122 1.261 . S
O141 Sm120 2.450 . S
O141 C122 1.242 1_554 S
O142 Sm120 2.681 . S
O142 Sm121 2.386 . S
O142 C129 1.271 . S
O143 Sm120 2.464 . S
O143 C129 1.251 . S
O144 Sm120 2.396 1_556 S
O144 C130 1.252 . S
O145 Sm121 2.408 1_556 S
O145 C130 1.272 . S
O146 Sm121 2.543 . S
O146 C131 1.261 . S
O147 Sm121 2.450 . S
O147 C131 1.242 . S
O148 Sm120 2.386 . S
O148 Sm121 2.681 . S
O148 C138 1.271 . S
O149 Sm121 2.464 . S
O149 C138 1.251 . S
O150 Sm121 2.396 . S
O150 C139 1.252 . S
O151 Sm120 2.408 . S
O151 C139 1.272 . S
H152 C124 0.930 . S
H153 C125 0.929 . S
H154 C127 0.945 . S
H155 C128 0.929 . S
H156 C133 0.930 . S
H157 C134 0.929 . S
H158 C136 0.930 . S
H159 C137 0.929 . S
Sm160 C162 2.846 . S
Sm160 O180 2.543 . S
Sm160 O181 2.450 . S
Sm160 O182 2.681 . S
Sm160 O183 2.464 . S
Sm160 O184 2.396 . S
Sm160 O188 2.386 . S
Sm160 O191 2.408 . S
Sm161 C171 2.846 . S
Sm161 O182 2.386 . S
Sm161 O185 2.408 . S
Sm161 O186 2.543 . S
Sm161 O187 2.450 . S
Sm161 O188 2.681 . S
Sm161 O189 2.464 . S
Sm161 O190 2.396 . S
C162 Sm160 2.846 . S
C162 C163 1.506 . S
C162 O180 1.261 . S
C162 O181 1.242 . S
C163 C162 1.506 . S
C163 C164 1.358 . S
C163 C168 1.382 . S
C164 C163 1.358 . S
C164 C165 1.385 . S
C164 H192 0.930 . S
C165 C164 1.385 . S
C165 C166 1.395 . S
C165 H193 0.929 . S
C166 C165 1.395 . S
C166 C167 1.335 . S
C167 C166 1.335 . S
C167 C168 1.398 . S
C167 H194 0.930 . S
C168 C163 1.382 . S
C168 C167 1.398 . S
C168 H195 0.929 . S
C169 O182 1.271 . S
C169 O183 1.251 . S
C170 O184 1.252 . S
C170 O185 1.272 . S
C171 Sm161 2.846 . S
C171 C172 1.506 . S
C171 O186 1.261 . S
C171 O187 1.242 . S
C172 C171 1.506 . S
C172 C173 1.358 . S
C172 C177 1.382 . S
C173 C172 1.358 . S
C173 C174 1.385 . S
C173 H196 0.930 . S
C174 C173 1.385 . S
C174 C175 1.395 . S
C174 H197 0.929 . S
C175 C174 1.395 . S
C175 C176 1.335 . S
C176 C175 1.335 . S
C176 C177 1.398 . S
C176 H198 0.930 . S
C177 C172 1.382 . S
C177 C176 1.398 . S
C177 H199 0.929 . S
C178 O188 1.271 . S
C178 O189 1.251 . S
C179 O190 1.252 . S
C179 O191 1.272 . S
O180 Sm160 2.543 . S
O180 C162 1.261 . S
O181 Sm160 2.450 . S
O181 C162 1.242 . S
O182 Sm160 2.681 . S
O182 Sm161 2.386 . S
O182 C169 1.271 . S
O183 Sm160 2.464 . S
O183 C169 1.251 . S
O184 Sm160 2.396 . S
O184 C170 1.252 . S
O185 Sm161 2.408 . S
O185 C170 1.272 . S
O186 Sm161 2.543 . S
O186 C171 1.261 . S
O187 Sm161 2.450 . S
O187 C171 1.242 . S
O188 Sm160 2.386 . S
O188 Sm161 2.681 . S
O188 C178 1.271 . S
O189 Sm161 2.464 . S
O189 C178 1.251 . S
O190 Sm161 2.396 . S
O190 C179 1.252 . S
O191 Sm160 2.408 . S
O191 C179 1.272 . S
H192 C164 0.930 . S
H193 C165 0.929 . S
H194 C167 0.930 . S
H195 C168 0.929 . S
H196 C173 0.930 . S
H197 C174 0.929 . S
H198 C176 0.930 . S
H199 C177 0.929 . S
Sm200 C202 2.846 . S
Sm200 O220 2.543 . S
Sm200 O221 2.450 . S
Sm200 O222 2.681 . S
Sm200 O223 2.464 . S
Sm200 O224 2.396 . S
Sm200 O228 2.386 . S
Sm200 O231 2.408 . S
Sm201 C211 2.846 . S
Sm201 O222 2.386 . S
Sm201 O225 2.408 . S
Sm201 O226 2.543 . S
Sm201 O227 2.450 . S
Sm201 O228 2.681 . S
Sm201 O229 2.464 . S
Sm201 O230 2.396 . S
C202 Sm200 2.846 . S
C202 C203 1.506 . S
C202 O220 1.261 . S
C202 O221 1.242 . S
C203 C202 1.506 . S
C203 C204 1.358 . S
C203 C208 1.382 . S
C204 C203 1.358 . S
C204 C205 1.385 . S
C204 H232 0.930 . S
C205 C204 1.385 . S
C205 C206 1.395 . S
C205 H233 0.929 . S
C206 C205 1.395 . S
C206 C207 1.335 . S
C207 C206 1.335 . S
C207 C208 1.398 . S
C207 H234 0.945 . S
C208 C203 1.382 . S
C208 C207 1.398 . S
C208 H235 0.929 . S
C209 O222 1.271 . S
C209 O223 1.251 . S
C210 O224 1.252 . S
C210 O225 1.272 . S
C211 Sm201 2.846 . S
C211 C212 1.506 . S
C211 O226 1.261 . S
C211 O227 1.242 . S
C212 C211 1.506 . S
C212 C213 1.358 . S
C212 C217 1.382 . S
C213 C212 1.358 . S
C213 C214 1.385 . S
C213 H236 0.930 . S
C214 C213 1.385 . S
C214 C215 1.395 . S
C214 H237 0.929 . S
C215 C214 1.395 . S
C215 C216 1.335 . S
C216 C215 1.335 . S
C216 C217 1.398 . S
C216 H238 0.930 . S
C217 C212 1.382 . S
C217 C216 1.398 . S
C217 H239 0.929 . S
C218 O228 1.271 . S
C218 O229 1.251 . S
C219 O230 1.252 . S
C219 O231 1.272 . S
O220 Sm200 2.543 . S
O220 C202 1.261 . S
O221 Sm200 2.450 . S
O221 C202 1.242 . S
O222 Sm200 2.681 . S
O222 Sm201 2.386 . S
O222 C209 1.271 . S
O223 Sm200 2.464 . S
O223 C209 1.251 . S
O224 Sm200 2.396 . S
O224 C210 1.252 . S
O225 Sm201 2.408 . S
O225 C210 1.272 . S
O226 Sm201 2.543 . S
O226 C211 1.261 . S
O227 Sm201 2.450 . S
O227 C211 1.242 . S
O228 Sm200 2.386 . S
O228 Sm201 2.681 . S
O228 C218 1.271 . S
O229 Sm201 2.464 . S
O229 C218 1.251 . S
O230 Sm201 2.396 . S
O230 C219 1.252 . S
O231 Sm200 2.408 . S
O231 C219 1.272 . S
H232 C204 0.930 . S
H233 C205 0.929 . S
H234 C207 0.945 . S
H235 C208 0.929 . S
H236 C213 0.930 . S
H237 C214 0.929 . S
H238 C216 0.930 . S
H239 C217 0.929 . S
Sm240 C242 2.846 . S
Sm240 O260 2.543 . S
Sm240 O261 2.450 . S
Sm240 O262 2.681 . S
Sm240 O263 2.464 . S
Sm240 O264 2.396 . S
Sm240 O268 2.386 . S
Sm240 O271 2.408 . S
Sm241 C251 2.846 . S
Sm241 O262 2.386 . S
Sm241 O265 2.408 . S
Sm241 O266 2.543 . S
Sm241 O267 2.450 . S
Sm241 O268 2.681 . S
Sm241 O269 2.464 . S
Sm241 O270 2.396 . S
C242 Sm240 2.846 . S
C242 C243 1.506 . S
C242 O260 1.261 . S
C242 O261 1.242 . S
C243 C242 1.506 . S
C243 C244 1.358 . S
C243 C248 1.382 . S
C244 C243 1.358 . S
C244 C245 1.385 . S
C244 H272 0.930 . S
C245 C244 1.385 . S
C245 C246 1.395 . S
C245 H273 0.929 . S
C246 C245 1.395 . S
C246 C247 1.335 . S
C247 C246 1.335 . S
C247 C248 1.398 . S
C247 H274 0.930 . S
C248 C243 1.382 . S
C248 C247 1.398 . S
C248 H275 0.929 . S
C249 O262 1.271 . S
C249 O263 1.251 . S
C250 O264 1.252 . S
C250 O265 1.272 . S
C251 Sm241 2.846 . S
C251 C252 1.506 . S
C251 O266 1.261 . S
C251 O267 1.242 . S
C252 C251 1.506 . S
C252 C253 1.358 . S
C252 C257 1.382 . S
C253 C252 1.358 . S
C253 C254 1.385 . S
C253 H276 0.930 . S
C254 C253 1.385 . S
C254 C255 1.395 . S
C254 H277 0.929 . S
C255 C254 1.395 . S
C255 C256 1.335 . S
C256 C255 1.335 . S
C256 C257 1.398 . S
C256 H278 0.930 . S
C257 C252 1.382 . S
C257 C256 1.398 . S
C257 H279 0.929 . S
C258 O268 1.271 . S
C258 O269 1.251 . S
C259 O270 1.252 . S
C259 O271 1.272 . S
O260 Sm240 2.543 . S
O260 C242 1.261 . S
O261 Sm240 2.450 . S
O261 C242 1.242 . S
O262 Sm240 2.681 . S
O262 Sm241 2.386 . S
O262 C249 1.271 . S
O263 Sm240 2.464 . S
O263 C249 1.251 . S
O264 Sm240 2.396 . S
O264 C250 1.252 . S
O265 Sm241 2.408 . S
O265 C250 1.272 . S
O266 Sm241 2.543 . S
O266 C251 1.261 . S
O267 Sm241 2.450 . S
O267 C251 1.242 . S
O268 Sm240 2.386 . S
O268 Sm241 2.681 . S
O268 C258 1.271 . S
O269 Sm241 2.464 . S
O269 C258 1.251 . S
O270 Sm241 2.396 . S
O270 C259 1.252 . S
O271 Sm240 2.408 . S
O271 C259 1.272 . S
H272 C244 0.930 . S
H273 C245 0.929 . S
H274 C247 0.930 . S
H275 C248 0.929 . S
H276 C253 0.930 . S
H277 C254 0.929 . S
H278 C256 0.930 . S
H279 C257 0.929 . S
Sm280 C282 2.846 1_556 S
Sm280 O300 2.543 1_556 S
Sm280 O301 2.450 . S
Sm280 O302 2.681 . S
Sm280 O303 2.464 . S
Sm280 O304 2.396 1_556 S
Sm280 O308 2.386 . S
Sm280 O311 2.408 . S
Sm281 C291 2.846 . S
Sm281 O302 2.386 . S
Sm281 O305 2.408 1_556 S
Sm281 O306 2.543 . S
Sm281 O307 2.450 . S
Sm281 O308 2.681 . S
Sm281 O309 2.464 . S
Sm281 O310 2.396 . S
C282 Sm280 2.846 1_554 S
C282 C283 1.506 . S
C282 O300 1.261 . S
C282 O301 1.242 1_554 S
C283 C282 1.506 . S
C283 C284 1.358 . S
C283 C288 1.382 . S
C284 C283 1.358 . S
C284 C285 1.385 . S
C284 H312 0.930 . S
C285 C284 1.385 . S
C285 C286 1.395 . S
C285 H313 0.929 . S
C286 C285 1.395 . S
C286 C287 1.335 . S
C287 C286 1.335 . S
C287 C288 1.398 . S
C287 H314 0.945 . S
C288 C283 1.382 . S
C288 C287 1.398 . S
C288 H315 0.929 . S
C289 O302 1.271 . S
C289 O303 1.251 . S
C290 O304 1.252 . S
C290 O305 1.272 . S
C291 Sm281 2.846 . S
C291 C292 1.506 . S
C291 O306 1.261 . S
C291 O307 1.242 . S
C292 C291 1.506 . S
C292 C293 1.358 . S
C292 C297 1.382 . S
C293 C292 1.358 . S
C293 C294 1.385 . S
C293 H316 0.930 . S
C294 C293 1.385 . S
C294 C295 1.395 . S
C294 H317 0.929 . S
C295 C294 1.395 . S
C295 C296 1.335 . S
C296 C295 1.335 . S
C296 C297 1.398 . S
C296 H318 0.930 . S
C297 C292 1.382 . S
C297 C296 1.398 . S
C297 H319 0.929 . S
C298 O308 1.271 . S
C298 O309 1.251 . S
C299 O310 1.252 . S
C299 O311 1.272 . S
O300 Sm280 2.543 1_554 S
O300 C282 1.261 . S
O301 Sm280 2.450 . S
O301 C282 1.242 1_556 S
O302 Sm280 2.681 . S
O302 Sm281 2.386 . S
O302 C289 1.271 . S
O303 Sm280 2.464 . S
O303 C289 1.251 . S
O304 Sm280 2.396 1_554 S
O304 C290 1.252 . S
O305 Sm281 2.408 1_554 S
O305 C290 1.272 . S
O306 Sm281 2.543 . S
O306 C291 1.261 . S
O307 Sm281 2.450 . S
O307 C291 1.242 . S
O308 Sm280 2.386 . S
O308 Sm281 2.681 . S
O308 C298 1.271 . S
O309 Sm281 2.464 . S
O309 C298 1.251 . S
O310 Sm281 2.396 . S
O310 C299 1.252 . S
O311 Sm280 2.408 . S
O311 C299 1.272 . S
H312 C284 0.930 . S
H313 C285 0.929 . S
H314 C287 0.945 . S
H315 C288 0.929 . S
H316 C293 0.930 . S
H317 C294 0.929 . S
H318 C296 0.930 . S
H319 C297 0.929 . S
Sm320 C322 2.846 . S
Sm320 O340 2.543 . S
Sm320 O341 2.450 . S
Sm320 O342 2.681 . S
Sm320 O343 2.464 . S
Sm320 O344 2.396 . S
Sm320 O348 2.386 . S
Sm320 O351 2.408 . S
Sm321 C331 2.846 . S
Sm321 O342 2.386 . S
Sm321 O345 2.408 . S
Sm321 O346 2.543 . S
Sm321 O347 2.450 . S
Sm321 O348 2.681 . S
Sm321 O349 2.464 . S
Sm321 O350 2.396 . S
C322 Sm320 2.846 . S
C322 C323 1.506 . S
C322 O340 1.261 . S
C322 O341 1.242 . S
C323 C322 1.506 . S
C323 C324 1.358 . S
C323 C328 1.382 . S
C324 C323 1.358 . S
C324 C325 1.385 . S
C324 H352 0.930 . S
C325 C324 1.385 . S
C325 C326 1.395 . S
C325 H353 0.929 . S
C326 C325 1.395 . S
C326 C327 1.335 . S
C327 C326 1.335 . S
C327 C328 1.398 . S
C327 H354 0.930 . S
C328 C323 1.382 . S
C328 C327 1.398 . S
C328 H355 0.929 . S
C329 O342 1.271 . S
C329 O343 1.251 . S
C330 O344 1.252 . S
C330 O345 1.272 . S
C331 Sm321 2.846 . S
C331 C332 1.506 . S
C331 O346 1.261 . S
C331 O347 1.242 . S
C332 C331 1.506 . S
C332 C333 1.358 . S
C332 C337 1.382 . S
C333 C332 1.358 . S
C333 C334 1.385 . S
C333 H356 0.930 . S
C334 C333 1.385 . S
C334 C335 1.395 . S
C334 H357 0.929 . S
C335 C334 1.395 . S
C335 C336 1.335 . S
C336 C335 1.335 . S
C336 C337 1.398 . S
C336 H358 0.930 . S
C337 C332 1.382 . S
C337 C336 1.398 . S
C337 H359 0.929 . S
C338 O348 1.271 . S
C338 O349 1.251 . S
C339 O350 1.252 . S
C339 O351 1.272 . S
O340 Sm320 2.543 . S
O340 C322 1.261 . S
O341 Sm320 2.450 . S
O341 C322 1.242 . S
O342 Sm320 2.681 . S
O342 Sm321 2.386 . S
O342 C329 1.271 . S
O343 Sm320 2.464 . S
O343 C329 1.251 . S
O344 Sm320 2.396 . S
O344 C330 1.252 . S
O345 Sm321 2.408 . S
O345 C330 1.272 . S
O346 Sm321 2.543 . S
O346 C331 1.261 . S
O347 Sm321 2.450 . S
O347 C331 1.242 . S
O348 Sm320 2.386 . S
O348 Sm321 2.681 . S
O348 C338 1.271 . S
O349 Sm321 2.464 . S
O349 C338 1.251 . S
O350 Sm321 2.396 . S
O350 C339 1.252 . S
O351 Sm320 2.408 . S
O351 C339 1.272 . S
H352 C324 0.930 . S
H353 C325 0.929 . S
H354 C327 0.930 . S
H355 C328 0.929 . S
H356 C333 0.930 . S
H357 C334 0.929 . S
H358 C336 0.930 . S
H359 C337 0.929 . S
Sm360 C362 2.846 . S
Sm360 O380 2.543 . S
Sm360 O381 2.450 . S
Sm360 O382 2.681 . S
Sm360 O383 2.464 . S
Sm360 O384 2.396 . S
Sm360 O388 2.386 . S
Sm360 O391 2.408 . S
Sm361 C371 2.846 . S
Sm361 O382 2.386 . S
Sm361 O385 2.408 . S
Sm361 O386 2.543 . S
Sm361 O387 2.450 . S
Sm361 O388 2.681 . S
Sm361 O389 2.464 . S
Sm361 O390 2.396 . S
C362 Sm360 2.846 . S
C362 C363 1.506 . S
C362 O380 1.261 . S
C362 O381 1.242 . S
C363 C362 1.506 . S
C363 C364 1.358 . S
C363 C368 1.382 . S
C364 C363 1.358 . S
C364 C365 1.385 . S
C364 H392 0.930 . S
C365 C364 1.385 . S
C365 C366 1.395 . S
C365 H393 0.929 . S
C366 C365 1.395 . S
C366 C367 1.335 . S
C367 C366 1.335 . S
C367 C368 1.398 . S
C367 H394 0.930 . S
C368 C363 1.382 . S
C368 C367 1.398 . S
C368 H395 0.929 . S
C369 O382 1.271 . S
C369 O383 1.251 . S
C370 O384 1.252 . S
C370 O385 1.272 . S
C371 Sm361 2.846 . S
C371 C372 1.506 . S
C371 O386 1.261 . S
C371 O387 1.242 . S
C372 C371 1.506 . S
C372 C373 1.358 . S
C372 C377 1.382 . S
C373 C372 1.358 . S
C373 C374 1.385 . S
C373 H396 0.930 . S
C374 C373 1.385 . S
C374 C375 1.395 . S
C374 H397 0.929 . S
C375 C374 1.395 . S
C375 C376 1.335 . S
C376 C375 1.335 . S
C376 C377 1.398 . S
C376 H398 0.945 . S
C377 C372 1.382 . S
C377 C376 1.398 . S
C377 H399 0.929 . S
C378 O388 1.271 . S
C378 O389 1.251 . S
C379 O390 1.252 . S
C379 O391 1.272 . S
O380 Sm360 2.543 . S
O380 C362 1.261 . S
O381 Sm360 2.450 . S
O381 C362 1.242 . S
O382 Sm360 2.681 . S
O382 Sm361 2.386 . S
O382 C369 1.271 . S
O383 Sm360 2.464 . S
O383 C369 1.251 . S
O384 Sm360 2.396 . S
O384 C370 1.252 . S
O385 Sm361 2.408 . S
O385 C370 1.272 . S
O386 Sm361 2.543 . S
O386 C371 1.261 . S
O387 Sm361 2.450 . S
O387 C371 1.242 . S
O388 Sm360 2.386 . S
O388 Sm361 2.681 . S
O388 C378 1.271 . S
O389 Sm361 2.464 . S
O389 C378 1.251 . S
O390 Sm361 2.396 . S
O390 C379 1.252 . S
O391 Sm360 2.408 . S
O391 C379 1.272 . S
H392 C364 0.930 . S
H393 C365 0.929 . S
H394 C367 0.930 . S
H395 C368 0.929 . S
H396 C373 0.930 . S
H397 C374 0.929 . S
H398 C376 0.945 . S
H399 C377 0.929 . S
Sm400 C402 2.846 . S
Sm400 O420 2.543 . S
Sm400 O421 2.450 . S
Sm400 O422 2.681 . S
Sm400 O423 2.464 . S
Sm400 O424 2.396 . S
Sm400 O428 2.386 . S
Sm400 O431 2.408 . S
Sm401 C411 2.846 . S
Sm401 O422 2.386 . S
Sm401 O425 2.408 . S
Sm401 O426 2.543 . S
Sm401 O427 2.450 . S
Sm401 O428 2.681 . S
Sm401 O429 2.464 . S
Sm401 O430 2.396 . S
C402 Sm400 2.846 . S
C402 C403 1.506 . S
C402 O420 1.261 . S
C402 O421 1.242 . S
C403 C402 1.506 . S
C403 C404 1.358 . S
C403 C408 1.382 . S
C404 C403 1.358 . S
C404 C405 1.385 . S
C404 H432 0.930 . S
C405 C404 1.385 . S
C405 C406 1.395 . S
C405 H433 0.929 . S
C406 C405 1.395 . S
C406 C407 1.335 . S
C407 C406 1.335 . S
C407 C408 1.398 . S
C407 H434 0.930 . S
C408 C403 1.382 . S
C408 C407 1.398 . S
C408 H435 0.929 . S
C409 O422 1.271 . S
C409 O423 1.251 . S
C410 O424 1.252 . S
C410 O425 1.272 . S
C411 Sm401 2.846 . S
C411 C412 1.506 . S
C411 O426 1.261 . S
C411 O427 1.242 . S
C412 C411 1.506 . S
C412 C413 1.358 . S
C412 C417 1.382 . S
C413 C412 1.358 . S
C413 C414 1.385 . S
C413 H436 0.930 . S
C414 C413 1.385 . S
C414 C415 1.395 . S
C414 H437 0.929 . S
C415 C414 1.395 . S
C415 C416 1.335 . S
C416 C415 1.335 . S
C416 C417 1.398 . S
C416 H438 0.930 . S
C417 C412 1.382 . S
C417 C416 1.398 . S
C417 H439 0.929 . S
C418 O428 1.271 . S
C418 O429 1.251 . S
C419 O430 1.252 . S
C419 O431 1.272 . S
O420 Sm400 2.543 . S
O420 C402 1.261 . S
O421 Sm400 2.450 . S
O421 C402 1.242 . S
O422 Sm400 2.681 . S
O422 Sm401 2.386 . S
O422 C409 1.271 . S
O423 Sm400 2.464 . S
O423 C409 1.251 . S
O424 Sm400 2.396 . S
O424 C410 1.252 . S
O425 Sm401 2.408 . S
O425 C410 1.272 . S
O426 Sm401 2.543 . S
O426 C411 1.261 . S
O427 Sm401 2.450 . S
O427 C411 1.242 . S
O428 Sm400 2.386 . S
O428 Sm401 2.681 . S
O428 C418 1.271 . S
O429 Sm401 2.464 . S
O429 C418 1.251 . S
O430 Sm401 2.396 . S
O430 C419 1.252 . S
O431 Sm400 2.408 . S
O431 C419 1.272 . S
H432 C404 0.930 . S
H433 C405 0.929 . S
H434 C407 0.930 . S
H435 C408 0.929 . S
H436 C413 0.930 . S
H437 C414 0.929 . S
H438 C416 0.930 . S
H439 C417 0.929 . S
Sm440 C442 2.846 . S
Sm440 O460 2.543 . S
Sm440 O461 2.450 . S
Sm440 O462 2.681 . S
Sm440 O463 2.464 . S
Sm440 O464 2.396 . S
Sm440 O468 2.386 . S
Sm440 O471 2.408 1_556 S
Sm441 C451 2.846 1_556 S
Sm441 O462 2.386 . S
Sm441 O465 2.408 . S
Sm441 O466 2.543 1_556 S
Sm441 O467 2.450 . S
Sm441 O468 2.681 . S
Sm441 O469 2.464 . S
Sm441 O470 2.396 1_556 S
C442 Sm440 2.846 . S
C442 C443 1.506 . S
C442 O460 1.261 . S
C442 O461 1.242 . S
C443 C442 1.506 . S
C443 C444 1.358 . S
C443 C448 1.382 . S
C444 C443 1.358 . S
C444 C445 1.385 . S
C444 H472 0.930 . S
C445 C444 1.385 . S
C445 C446 1.395 . S
C445 H473 0.929 . S
C446 C445 1.395 . S
C446 C447 1.335 . S
C447 C446 1.335 . S
C447 C448 1.398 . S
C447 H474 0.930 . S
C448 C443 1.382 . S
C448 C447 1.398 . S
C448 H475 0.929 . S
C449 O462 1.271 . S
C449 O463 1.251 . S
C450 O464 1.252 . S
C450 O465 1.272 . S
C451 Sm441 2.846 1_554 S
C451 C452 1.506 . S
C451 O466 1.261 . S
C451 O467 1.242 1_554 S
C452 C451 1.506 . S
C452 C453 1.358 . S
C452 C457 1.382 . S
C453 C452 1.358 . S
C453 C454 1.385 . S
C453 H476 0.930 . S
C454 C453 1.385 . S
C454 C455 1.395 . S
C454 H477 0.929 . S
C455 C454 1.395 . S
C455 C456 1.335 . S
C456 C455 1.335 . S
C456 C457 1.398 . S
C456 H478 0.945 . S
C457 C452 1.382 . S
C457 C456 1.398 . S
C457 H479 0.929 . S
C458 O468 1.271 . S
C458 O469 1.251 . S
C459 O470 1.252 . S
C459 O471 1.272 . S
O460 Sm440 2.543 . S
O460 C442 1.261 . S
O461 Sm440 2.450 . S
O461 C442 1.242 . S
O462 Sm440 2.681 . S
O462 Sm441 2.386 . S
O462 C449 1.271 . S
O463 Sm440 2.464 . S
O463 C449 1.251 . S
O464 Sm440 2.396 . S
O464 C450 1.252 . S
O465 Sm441 2.408 . S
O465 C450 1.272 . S
O466 Sm441 2.543 1_554 S
O466 C451 1.261 . S
O467 Sm441 2.450 . S
O467 C451 1.242 1_556 S
O468 Sm440 2.386 . S
O468 Sm441 2.681 . S
O468 C458 1.271 . S
O469 Sm441 2.464 . S
O469 C458 1.251 . S
O470 Sm441 2.396 1_554 S
O470 C459 1.252 . S
O471 Sm440 2.408 1_554 S
O471 C459 1.272 . S
H472 C444 0.930 . S
H473 C445 0.929 . S
H474 C447 0.930 . S
H475 C448 0.929 . S
H476 C453 0.930 . S
H477 C454 0.929 . S
H478 C456 0.945 . S
H479 C457 0.929 . S
Sm480 C482 2.846 . S
Sm480 O500 2.543 . S
Sm480 O501 2.450 . S
Sm480 O502 2.681 . S
Sm480 O503 2.464 . S
Sm480 O504 2.396 . S
Sm480 O508 2.386 . S
Sm480 O511 2.408 . S
Sm481 C491 2.846 . S
Sm481 O502 2.386 . S
Sm481 O505 2.408 . S
Sm481 O506 2.543 . S
Sm481 O507 2.450 . S
Sm481 O508 2.681 . S
Sm481 O509 2.464 . S
Sm481 O510 2.396 . S
C482 Sm480 2.846 . S
C482 C483 1.506 . S
C482 O500 1.261 . S
C482 O501 1.242 . S
C483 C482 1.506 . S
C483 C484 1.358 . S
C483 C488 1.382 . S
C484 C483 1.358 . S
C484 C485 1.385 . S
C484 H512 0.930 . S
C485 C484 1.385 . S
C485 C486 1.395 . S
C485 H513 0.929 . S
C486 C485 1.395 . S
C486 C487 1.335 . S
C487 C486 1.335 . S
C487 C488 1.398 . S
C487 H514 0.930 . S
C488 C483 1.382 . S
C488 C487 1.398 . S
C488 H515 0.929 . S
C489 O502 1.271 . S
C489 O503 1.251 . S
C490 O504 1.252 . S
C490 O505 1.272 . S
C491 Sm481 2.846 . S
C491 C492 1.506 . S
C491 O506 1.261 . S
C491 O507 1.242 . S
C492 C491 1.506 . S
C492 C493 1.358 . S
C492 C497 1.382 . S
C493 C492 1.358 . S
C493 C494 1.385 . S
C493 H516 0.930 . S
C494 C493 1.385 . S
C494 C495 1.395 . S
C494 H517 0.929 . S
C495 C494 1.395 . S
C495 C496 1.335 . S
C496 C495 1.335 . S
C496 C497 1.398 . S
C496 H518 0.930 . S
C497 C492 1.382 . S
C497 C496 1.398 . S
C497 H519 0.929 . S
C498 O508 1.271 . S
C498 O509 1.251 . S
C499 O510 1.252 . S
C499 O511 1.272 . S
O500 Sm480 2.543 . S
O500 C482 1.261 . S
O501 Sm480 2.450 . S
O501 C482 1.242 . S
O502 Sm480 2.681 . S
O502 Sm481 2.386 . S
O502 C489 1.271 . S
O503 Sm480 2.464 . S
O503 C489 1.251 . S
O504 Sm480 2.396 . S
O504 C490 1.252 . S
O505 Sm481 2.408 . S
O505 C490 1.272 . S
O506 Sm481 2.543 . S
O506 C491 1.261 . S
O507 Sm481 2.450 . S
O507 C491 1.242 . S
O508 Sm480 2.386 . S
O508 Sm481 2.681 . S
O508 C498 1.271 . S
O509 Sm481 2.464 . S
O509 C498 1.251 . S
O510 Sm481 2.396 . S
O510 C499 1.252 . S
O511 Sm480 2.408 . S
O511 C499 1.272 . S
H512 C484 0.930 . S
H513 C485 0.929 . S
H514 C487 0.930 . S
H515 C488 0.929 . S
H516 C493 0.930 . S
H517 C494 0.929 . S
H518 C496 0.930 . S
H519 C497 0.929 . S
Sm520 C522 2.846 . S
Sm520 O540 2.543 . S
Sm520 O541 2.450 . S
Sm520 O542 2.681 . S
Sm520 O543 2.464 . S
Sm520 O544 2.396 . S
Sm520 O548 2.386 . S
Sm520 O551 2.408 . S
Sm521 C531 2.846 . S
Sm521 O542 2.386 . S
Sm521 O545 2.408 . S
Sm521 O546 2.543 . S
Sm521 O547 2.450 . S
Sm521 O548 2.681 . S
Sm521 O549 2.464 . S
Sm521 O550 2.396 . S
C522 Sm520 2.846 . S
C522 C523 1.506 . S
C522 O540 1.261 . S
C522 O541 1.242 . S
C523 C522 1.506 . S
C523 C524 1.358 . S
C523 C528 1.382 . S
C524 C523 1.358 . S
C524 C525 1.385 . S
C524 H552 0.930 . S
C525 C524 1.385 . S
C525 C526 1.395 . S
C525 H553 0.929 . S
C526 C525 1.395 . S
C526 C527 1.335 . S
C527 C526 1.335 . S
C527 C528 1.398 . S
C527 H554 0.930 . S
C528 C523 1.382 . S
C528 C527 1.398 . S
C528 H555 0.929 . S
C529 O542 1.271 . S
C529 O543 1.251 . S
C530 O544 1.252 . S
C530 O545 1.272 . S
C531 Sm521 2.846 . S
C531 C532 1.506 . S
C531 O546 1.261 . S
C531 O547 1.242 . S
C532 C531 1.506 . S
C532 C533 1.358 . S
C532 C537 1.382 . S
C533 C532 1.358 . S
C533 C534 1.385 . S
C533 H556 0.930 . S
C534 C533 1.385 . S
C534 C535 1.395 . S
C534 H557 0.929 . S
C535 C534 1.395 . S
C535 C536 1.335 . S
C536 C535 1.335 . S
C536 C537 1.398 . S
C536 H558 0.945 . S
C537 C532 1.382 . S
C537 C536 1.398 . S
C537 H559 0.929 . S
C538 O548 1.271 . S
C538 O549 1.251 . S
C539 O550 1.252 . S
C539 O551 1.272 . S
O540 Sm520 2.543 . S
O540 C522 1.261 . S
O541 Sm520 2.450 . S
O541 C522 1.242 . S
O542 Sm520 2.681 . S
O542 Sm521 2.386 . S
O542 C529 1.271 . S
O543 Sm520 2.464 . S
O543 C529 1.251 . S
O544 Sm520 2.396 . S
O544 C530 1.252 . S
O545 Sm521 2.408 . S
O545 C530 1.272 . S
O546 Sm521 2.543 . S
O546 C531 1.261 . S
O547 Sm521 2.450 . S
O547 C531 1.242 . S
O548 Sm520 2.386 . S
O548 Sm521 2.681 . S
O548 C538 1.271 . S
O549 Sm521 2.464 . S
O549 C538 1.251 . S
O550 Sm521 2.396 . S
O550 C539 1.252 . S
O551 Sm520 2.408 . S
O551 C539 1.272 . S
H552 C524 0.930 . S
H553 C525 0.929 . S
H554 C527 0.930 . S
H555 C528 0.929 . S
H556 C533 0.930 . S
H557 C534 0.929 . S
H558 C536 0.945 . S
H559 C537 0.929 . S
Sm560 C562 2.846 . S
Sm560 O580 2.543 . S
Sm560 O581 2.450 . S
Sm560 O582 2.681 . S
Sm560 O583 2.464 . S
Sm560 O584 2.396 . S
Sm560 O588 2.386 . S
Sm560 O591 2.408 . S
Sm561 C571 2.846 . S
Sm561 O582 2.386 . S
Sm561 O585 2.408 . S
Sm561 O586 2.543 . S
Sm561 O587 2.450 . S
Sm561 O588 2.681 . S
Sm561 O589 2.464 . S
Sm561 O590 2.396 . S
C562 Sm560 2.846 . S
C562 C563 1.506 . S
C562 O580 1.261 . S
C562 O581 1.242 . S
C563 C562 1.506 . S
C563 C564 1.358 . S
C563 C568 1.382 . S
C564 C563 1.358 . S
C564 C565 1.385 . S
C564 H592 0.930 . S
C565 C564 1.385 . S
C565 C566 1.395 . S
C565 H593 0.929 . S
C566 C565 1.395 . S
C566 C567 1.335 . S
C567 C566 1.335 . S
C567 C568 1.398 . S
C567 H594 0.930 . S
C568 C563 1.382 . S
C568 C567 1.398 . S
C568 H595 0.929 . S
C569 O582 1.271 . S
C569 O583 1.251 . S
C570 O584 1.252 . S
C570 O585 1.272 . S
C571 Sm561 2.846 . S
C571 C572 1.506 . S
C571 O586 1.261 . S
C571 O587 1.242 . S
C572 C571 1.506 . S
C572 C573 1.358 . S
C572 C577 1.382 . S
C573 C572 1.358 . S
C573 C574 1.385 . S
C573 H596 0.930 . S
C574 C573 1.385 . S
C574 C575 1.395 . S
C574 H597 0.929 . S
C575 C574 1.395 . S
C575 C576 1.335 . S
C576 C575 1.335 . S
C576 C577 1.398 . S
C576 H598 0.930 . S
C577 C572 1.382 . S
C577 C576 1.398 . S
C577 H599 0.929 . S
C578 O588 1.271 . S
C578 O589 1.251 . S
C579 O590 1.252 . S
C579 O591 1.272 . S
O580 Sm560 2.543 . S
O580 C562 1.261 . S
O581 Sm560 2.450 . S
O581 C562 1.242 . S
O582 Sm560 2.681 . S
O582 Sm561 2.386 . S
O582 C569 1.271 . S
O583 Sm560 2.464 . S
O583 C569 1.251 . S
O584 Sm560 2.396 . S
O584 C570 1.252 . S
O585 Sm561 2.408 . S
O585 C570 1.272 . S
O586 Sm561 2.543 . S
O586 C571 1.261 . S
O587 Sm561 2.450 . S
O587 C571 1.242 . S
O588 Sm560 2.386 . S
O588 Sm561 2.681 . S
O588 C578 1.271 . S
O589 Sm561 2.464 . S
O589 C578 1.251 . S
O590 Sm561 2.396 . S
O590 C579 1.252 . S
O591 Sm560 2.408 . S
O591 C579 1.272 . S
H592 C564 0.930 . S
H593 C565 0.929 . S
H594 C567 0.930 . S
H595 C568 0.929 . S
H596 C573 0.930 . S
H597 C574 0.929 . S
H598 C576 0.930 . S
H599 C577 0.929 . S
Sm600 C602 2.846 . S
Sm600 O620 2.543 . S
Sm600 O621 2.450 . S
Sm600 O622 2.681 . S
Sm600 O623 2.464 . S
Sm600 O624 2.396 . S
Sm600 O628 2.386 . S
Sm600 O631 2.408 1_554 S
Sm601 C611 2.846 1_554 S
Sm601 O622 2.386 . S
Sm601 O625 2.408 . S
Sm601 O626 2.543 1_554 S
Sm601 O627 2.450 . S
Sm601 O628 2.681 . S
Sm601 O629 2.464 . S
Sm601 O630 2.396 1_554 S
C602 Sm600 2.846 . S
C602 C603 1.506 . S
C602 O620 1.261 . S
C602 O621 1.242 . S
C603 C602 1.506 . S
C603 C604 1.358 . S
C603 C608 1.382 . S
C604 C603 1.358 . S
C604 C605 1.385 . S
C604 H632 0.930 . S
C605 C604 1.385 . S
C605 C606 1.395 . S
C605 H633 0.929 . S
C606 C605 1.395 . S
C606 C607 1.335 . S
C607 C606 1.335 . S
C607 C608 1.398 . S
C607 H634 0.930 . S
C608 C603 1.382 . S
C608 C607 1.398 . S
C608 H635 0.929 . S
C609 O622 1.271 . S
C609 O623 1.251 . S
C610 O624 1.252 . S
C610 O625 1.272 . S
C611 Sm601 2.846 1_556 S
C611 C612 1.506 . S
C611 O626 1.261 . S
C611 O627 1.242 1_556 S
C612 C611 1.506 . S
C612 C613 1.358 . S
C612 C617 1.382 . S
C613 C612 1.358 . S
C613 C614 1.385 . S
C613 H636 0.930 . S
C614 C613 1.385 . S
C614 C615 1.395 . S
C614 H637 0.929 . S
C615 C614 1.395 . S
C615 C616 1.335 . S
C616 C615 1.335 . S
C616 C617 1.398 . S
C616 H638 0.945 . S
C617 C612 1.382 . S
C617 C616 1.398 . S
C617 H639 0.929 . S
C618 O628 1.271 . S
C618 O629 1.251 . S
C619 O630 1.252 . S
C619 O631 1.272 . S
O620 Sm600 2.543 . S
O620 C602 1.261 . S
O621 Sm600 2.450 . S
O621 C602 1.242 . S
O622 Sm600 2.681 . S
O622 Sm601 2.386 . S
O622 C609 1.271 . S
O623 Sm600 2.464 . S
O623 C609 1.251 . S
O624 Sm600 2.396 . S
O624 C610 1.252 . S
O625 Sm601 2.408 . S
O625 C610 1.272 . S
O626 Sm601 2.543 1_556 S
O626 C611 1.261 . S
O627 Sm601 2.450 . S
O627 C611 1.242 1_554 S
O628 Sm600 2.386 . S
O628 Sm601 2.681 . S
O628 C618 1.271 . S
O629 Sm601 2.464 . S
O629 C618 1.251 . S
O630 Sm601 2.396 1_556 S
O630 C619 1.252 . S
O631 Sm600 2.408 1_556 S
O631 C619 1.272 . S
H632 C604 0.930 . S
H633 C605 0.929 . S
H634 C607 0.930 . S
H635 C608 0.929 . S
H636 C613 0.930 . S
H637 C614 0.929 . S
H638 C616 0.945 . S
H639 C617 0.929 . S
Sm640 C642 2.846 . S
Sm640 O660 2.543 . S
Sm640 O661 2.450 . S
Sm640 O662 2.681 . S
Sm640 O663 2.464 . S
Sm640 O664 2.396 . S
Sm640 O668 2.386 . S
Sm640 O671 2.408 . S
Sm641 C651 2.846 . S
Sm641 O662 2.386 . S
Sm641 O665 2.408 . S
Sm641 O666 2.543 . S
Sm641 O667 2.450 . S
Sm641 O668 2.681 . S
Sm641 O669 2.464 . S
Sm641 O670 2.396 . S
C642 Sm640 2.846 . S
C642 C643 1.506 . S
C642 O660 1.261 . S
C642 O661 1.242 . S
C643 C642 1.506 . S
C643 C644 1.358 . S
C643 C648 1.382 . S
C644 C643 1.358 . S
C644 C645 1.385 . S
C644 H672 0.930 . S
C645 C644 1.385 . S
C645 C646 1.395 . S
C645 H673 0.929 . S
C646 C645 1.395 . S
C646 C647 1.335 . S
C647 C646 1.335 . S
C647 C648 1.398 . S
C647 H674 0.930 . S
C648 C643 1.382 . S
C648 C647 1.398 . S
C648 H675 0.929 . S
C649 O662 1.271 . S
C649 O663 1.251 . S
C650 O664 1.252 . S
C650 O665 1.272 . S
C651 Sm641 2.846 . S
C651 C652 1.506 . S
C651 O666 1.261 . S
C651 O667 1.242 . S
C652 C651 1.506 . S
C652 C653 1.358 . S
C652 C657 1.382 . S
C653 C652 1.358 . S
C653 C654 1.385 . S
C653 H676 0.930 . S
C654 C653 1.385 . S
C654 C655 1.395 . S
C654 H677 0.929 . S
C655 C654 1.395 . S
C655 C656 1.335 . S
C656 C655 1.335 . S
C656 C657 1.398 . S
C656 H678 0.930 . S
C657 C652 1.382 . S
C657 C656 1.398 . S
C657 H679 0.929 . S
C658 O668 1.271 . S
C658 O669 1.251 . S
C659 O670 1.252 . S
C659 O671 1.272 . S
O660 Sm640 2.543 . S
O660 C642 1.261 . S
O661 Sm640 2.450 . S
O661 C642 1.242 . S
O662 Sm640 2.681 . S
O662 Sm641 2.386 . S
O662 C649 1.271 . S
O663 Sm640 2.464 . S
O663 C649 1.251 . S
O664 Sm640 2.396 . S
O664 C650 1.252 . S
O665 Sm641 2.408 . S
O665 C650 1.272 . S
O666 Sm641 2.543 . S
O666 C651 1.261 . S
O667 Sm641 2.450 . S
O667 C651 1.242 . S
O668 Sm640 2.386 . S
O668 Sm641 2.681 . S
O668 C658 1.271 . S
O669 Sm641 2.464 . S
O669 C658 1.251 . S
O670 Sm641 2.396 . S
O670 C659 1.252 . S
O671 Sm640 2.408 . S
O671 C659 1.272 . S
H672 C644 0.930 . S
H673 C645 0.929 . S
H674 C647 0.930 . S
H675 C648 0.929 . S
H676 C653 0.930 . S
H677 C654 0.929 . S
H678 C656 0.930 . S
H679 C657 0.929 . S
Sm680 C682 2.846 1_554 S
Sm680 O700 2.543 1_554 S
Sm680 O701 2.450 . S
Sm680 O702 2.681 . S
Sm680 O703 2.464 . S
Sm680 O704 2.396 1_554 S
Sm680 O708 2.386 . S
Sm680 O711 2.408 . S
Sm681 C691 2.846 . S
Sm681 O702 2.386 . S
Sm681 O705 2.408 1_554 S
Sm681 O706 2.543 . S
Sm681 O707 2.450 . S
Sm681 O708 2.681 . S
Sm681 O709 2.464 . S
Sm681 O710 2.396 . S
C682 Sm680 2.846 1_556 S
C682 C683 1.506 . S
C682 O700 1.261 . S
C682 O701 1.242 1_556 S
C683 C682 1.506 . S
C683 C684 1.358 . S
C683 C688 1.382 . S
C684 C683 1.358 . S
C684 C685 1.385 . S
C684 H712 0.930 . S
C685 C684 1.385 . S
C685 C686 1.395 . S
C685 H713 0.929 . S
C686 C685 1.395 . S
C686 C687 1.335 . S
C687 C686 1.335 . S
C687 C688 1.398 . S
C687 H714 0.930 . S
C688 C683 1.382 . S
C688 C687 1.398 . S
C688 H715 0.929 . S
C689 O702 1.271 . S
C689 O703 1.251 . S
C690 O704 1.252 . S
C690 O705 1.272 . S
C691 Sm681 2.846 . S
C691 C692 1.506 . S
C691 O706 1.261 . S
C691 O707 1.242 . S
C692 C691 1.506 . S
C692 C693 1.358 . S
C692 C697 1.382 . S
C693 C692 1.358 . S
C693 C694 1.385 . S
C693 H716 0.930 . S
C694 C693 1.385 . S
C694 C695 1.395 . S
C694 H717 0.929 . S
C695 C694 1.395 . S
C695 C696 1.335 . S
C696 C695 1.335 . S
C696 C697 1.398 . S
C696 H718 0.930 . S
C697 C692 1.382 . S
C697 C696 1.398 . S
C697 H719 0.929 . S
C698 O708 1.271 . S
C698 O709 1.251 . S
C699 O710 1.252 . S
C699 O711 1.272 . S
O700 Sm680 2.543 1_556 S
O700 C682 1.261 . S
O701 Sm680 2.450 . S
O701 C682 1.242 1_554 S
O702 Sm680 2.681 . S
O702 Sm681 2.386 . S
O702 C689 1.271 . S
O703 Sm680 2.464 . S
O703 C689 1.251 . S
O704 Sm680 2.396 1_556 S
O704 C690 1.252 . S
O705 Sm681 2.408 1_556 S
O705 C690 1.272 . S
O706 Sm681 2.543 . S
O706 C691 1.261 . S
O707 Sm681 2.450 . S
O707 C691 1.242 . S
O708 Sm680 2.386 . S
O708 Sm681 2.681 . S
O708 C698 1.271 . S
O709 Sm681 2.464 . S
O709 C698 1.251 . S
O710 Sm681 2.396 . S
O710 C699 1.252 . S
O711 Sm680 2.408 . S
O711 C699 1.272 . S
H712 C684 0.930 . S
H713 C685 0.929 . S
H714 C687 0.930 . S
H715 C688 0.929 . S
H716 C693 0.930 . S
H717 C694 0.929 . S
H718 C696 0.930 . S
H719 C697 0.929 . S
Sm720 C722 2.846 . S
Sm720 O740 2.543 . S
Sm720 O741 2.450 . S
Sm720 O742 2.681 . S
Sm720 O743 2.464 . S
Sm720 O744 2.396 . S
Sm720 O748 2.386 . S
Sm720 O751 2.408 . S
Sm721 C731 2.846 . S
Sm721 O742 2.386 . S
Sm721 O745 2.408 . S
Sm721 O746 2.543 . S
Sm721 O747 2.450 . S
Sm721 O748 2.681 . S
Sm721 O749 2.464 . S
Sm721 O750 2.396 . S
C722 Sm720 2.846 . S
C722 C723 1.506 . S
C722 O740 1.261 . S
C722 O741 1.242 . S
C723 C722 1.506 . S
C723 C724 1.358 . S
C723 C728 1.382 . S
C724 C723 1.358 . S
C724 C725 1.385 . S
C724 H752 0.930 . S
C725 C724 1.385 . S
C725 C726 1.395 . S
C725 H753 0.929 . S
C726 C725 1.395 . S
C726 C727 1.335 . S
C727 C726 1.335 . S
C727 C728 1.398 . S
C727 H754 0.930 . S
C728 C723 1.382 . S
C728 C727 1.398 . S
C728 H755 0.929 . S
C729 O742 1.271 . S
C729 O743 1.251 . S
C730 O744 1.252 . S
C730 O745 1.272 . S
C731 Sm721 2.846 . S
C731 C732 1.506 . S
C731 O746 1.261 . S
C731 O747 1.242 . S
C732 C731 1.506 . S
C732 C733 1.358 . S
C732 C737 1.382 . S
C733 C732 1.358 . S
C733 C734 1.385 . S
C733 H756 0.930 . S
C734 C733 1.385 . S
C734 C735 1.395 . S
C734 H757 0.929 . S
C735 C734 1.395 . S
C735 C736 1.335 . S
C736 C735 1.335 . S
C736 C737 1.398 . S
C736 H758 0.930 . S
C737 C732 1.382 . S
C737 C736 1.398 . S
C737 H759 0.929 . S
C738 O748 1.271 . S
C738 O749 1.251 . S
C739 O750 1.252 . S
C739 O751 1.272 . S
O740 Sm720 2.543 . S
O740 C722 1.261 . S
O741 Sm720 2.450 . S
O741 C722 1.242 . S
O742 Sm720 2.681 . S
O742 Sm721 2.386 . S
O742 C729 1.271 . S
O743 Sm720 2.464 . S
O743 C729 1.251 . S
O744 Sm720 2.396 . S
O744 C730 1.252 . S
O745 Sm721 2.408 . S
O745 C730 1.272 . S
O746 Sm721 2.543 . S
O746 C731 1.261 . S
O747 Sm721 2.450 . S
O747 C731 1.242 . S
O748 Sm720 2.386 . S
O748 Sm721 2.681 . S
O748 C738 1.271 . S
O749 Sm721 2.464 . S
O749 C738 1.251 . S
O750 Sm721 2.396 . S
O750 C739 1.252 . S
O751 Sm720 2.408 . S
O751 C739 1.272 . S
H752 C724 0.930 . S
H753 C725 0.929 . S
H754 C727 0.930 . S
H755 C728 0.929 . S
H756 C733 0.930 . S
H757 C734 0.929 . S
H758 C736 0.930 . S
H759 C737 0.929 . S
Sm760 C762 2.846 . S
Sm760 O780 2.543 . S
Sm760 O781 2.450 . S
Sm760 O782 2.681 . S
Sm760 O783 2.464 . S
Sm760 O784 2.396 . S
Sm760 O788 2.386 . S
Sm760 O791 2.408 . S
Sm761 C771 2.846 . S
Sm761 O782 2.386 . S
Sm761 O785 2.408 . S
Sm761 O786 2.543 . S
Sm761 O787 2.450 . S
Sm761 O788 2.681 . S
Sm761 O789 2.464 . S
Sm761 O790 2.396 . S
C762 Sm760 2.846 . S
C762 C763 1.506 . S
C762 O780 1.261 . S
C762 O781 1.242 . S
C763 C762 1.506 . S
C763 C764 1.358 . S
C763 C768 1.382 . S
C764 C763 1.358 . S
C764 C765 1.385 . S
C764 H792 0.930 . S
C765 C764 1.385 . S
C765 C766 1.395 . S
C765 H793 0.929 . S
C766 C765 1.395 . S
C766 C767 1.335 . S
C767 C766 1.335 . S
C767 C768 1.398 . S
C767 H794 0.930 . S
C768 C763 1.382 . S
C768 C767 1.398 . S
C768 H795 0.929 . S
C769 O782 1.271 . S
C769 O783 1.251 . S
C770 O784 1.252 . S
C770 O785 1.272 . S
C771 Sm761 2.846 . S
C771 C772 1.506 . S
C771 O786 1.261 . S
C771 O787 1.242 . S
C772 C771 1.506 . S
C772 C773 1.358 . S
C772 C777 1.382 . S
C773 C772 1.358 . S
C773 C774 1.385 . S
C773 H796 0.930 . S
C774 C773 1.385 . S
C774 C775 1.395 . S
C774 H797 0.929 . S
C775 C774 1.395 . S
C775 C776 1.335 . S
C776 C775 1.335 . S
C776 C777 1.398 . S
C776 H798 0.930 . S
C777 C772 1.382 . S
C777 C776 1.398 . S
C777 H799 0.929 . S
C778 O788 1.271 . S
C778 O789 1.251 . S
C779 O790 1.252 . S
C779 O791 1.272 . S
O780 Sm760 2.543 . S
O780 C762 1.261 . S
O781 Sm760 2.450 . S
O781 C762 1.242 . S
O782 Sm760 2.681 . S
O782 Sm761 2.386 . S
O782 C769 1.271 . S
O783 Sm760 2.464 . S
O783 C769 1.251 . S
O784 Sm760 2.396 . S
O784 C770 1.252 . S
O785 Sm761 2.408 . S
O785 C770 1.272 . S
O786 Sm761 2.543 . S
O786 C771 1.261 . S
O787 Sm761 2.450 . S
O787 C771 1.242 . S
O788 Sm760 2.386 . S
O788 Sm761 2.681 . S
O788 C778 1.271 . S
O789 Sm761 2.464 . S
O789 C778 1.251 . S
O790 Sm761 2.396 . S
O790 C779 1.252 . S
O791 Sm760 2.408 . S
O791 C779 1.272 . S
H792 C764 0.930 . S
H793 C765 0.929 . S
H794 C767 0.930 . S
H795 C768 0.929 . S
H796 C773 0.930 . S
H797 C774 0.929 . S
H798 C776 0.930 . S
H799 C777 0.929 . S
Sm800 C802 2.846 . S
Sm800 O820 2.543 . S
Sm800 O821 2.450 . S
Sm800 O822 2.681 . S
Sm800 O823 2.464 . S
Sm800 O824 2.396 . S
Sm800 O828 2.386 . S
Sm800 O831 2.408 . S
Sm801 C811 2.846 . S
Sm801 O822 2.386 . S
Sm801 O825 2.408 . S
Sm801 O826 2.543 . S
Sm801 O827 2.450 . S
Sm801 O828 2.681 . S
Sm801 O829 2.464 . S
Sm801 O830 2.396 . S
C802 Sm800 2.846 . S
C802 C803 1.506 . S
C802 O820 1.261 . S
C802 O821 1.242 . S
C803 C802 1.506 . S
C803 C804 1.358 . S
C803 C808 1.382 . S
C804 C803 1.358 . S
C804 C805 1.385 . S
C804 H832 0.930 . S
C805 C804 1.385 . S
C805 C806 1.395 . S
C805 H833 0.929 . S
C806 C805 1.395 . S
C806 C807 1.335 . S
C807 C806 1.335 . S
C807 C808 1.398 . S
C807 H834 0.930 . S
C808 C803 1.382 . S
C808 C807 1.398 . S
C808 H835 0.929 . S
C809 O822 1.271 . S
C809 O823 1.251 . S
C810 O824 1.252 . S
C810 O825 1.272 . S
C811 Sm801 2.846 . S
C811 C812 1.506 . S
C811 O826 1.261 . S
C811 O827 1.242 . S
C812 C811 1.506 . S
C812 C813 1.358 . S
C812 C817 1.382 . S
C813 C812 1.358 . S
C813 C814 1.385 . S
C813 H836 0.930 . S
C814 C813 1.385 . S
C814 C815 1.395 . S
C814 H837 0.929 . S
C815 C814 1.395 . S
C815 C816 1.335 . S
C816 C815 1.335 . S
C816 C817 1.398 . S
C816 H838 0.930 . S
C817 C812 1.382 . S
C817 C816 1.398 . S
C817 H839 0.929 . S
C818 O828 1.271 . S
C818 O829 1.251 . S
C819 O830 1.252 . S
C819 O831 1.272 . S
O820 Sm800 2.543 . S
O820 C802 1.261 . S
O821 Sm800 2.450 . S
O821 C802 1.242 . S
O822 Sm800 2.681 . S
O822 Sm801 2.386 . S
O822 C809 1.271 . S
O823 Sm800 2.464 . S
O823 C809 1.251 . S
O824 Sm800 2.396 . S
O824 C810 1.252 . S
O825 Sm801 2.408 . S
O825 C810 1.272 . S
O826 Sm801 2.543 . S
O826 C811 1.261 . S
O827 Sm801 2.450 . S
O827 C811 1.242 . S
O828 Sm800 2.386 . S
O828 Sm801 2.681 . S
O828 C818 1.271 . S
O829 Sm801 2.464 . S
O829 C818 1.251 . S
O830 Sm801 2.396 . S
O830 C819 1.252 . S
O831 Sm800 2.408 . S
O831 C819 1.272 . S
H832 C804 0.930 . S
H833 C805 0.929 . S
H834 C807 0.930 . S
H835 C808 0.929 . S
H836 C813 0.930 . S
H837 C814 0.929 . S
H838 C816 0.930 . S
H839 C817 0.929 . S
Sm840 C842 2.846 1_556 S
Sm840 O860 2.543 1_556 S
Sm840 O861 2.450 . S
Sm840 O862 2.681 . S
Sm840 O863 2.464 . S
Sm840 O864 2.396 1_556 S
Sm840 O868 2.386 . S
Sm840 O871 2.408 . S
Sm841 C851 2.846 . S
Sm841 O862 2.386 . S
Sm841 O865 2.408 1_556 S
Sm841 O866 2.543 . S
Sm841 O867 2.450 . S
Sm841 O868 2.681 . S
Sm841 O869 2.464 . S
Sm841 O870 2.396 . S
C842 Sm840 2.846 1_554 S
C842 C843 1.506 . S
C842 O860 1.261 . S
C842 O861 1.242 1_554 S
C843 C842 1.506 . S
C843 C844 1.358 . S
C843 C848 1.382 . S
C844 C843 1.358 . S
C844 C845 1.385 . S
C844 H872 0.930 . S
C845 C844 1.385 . S
C845 C846 1.395 . S
C845 H873 0.929 . S
C846 C845 1.395 . S
C846 C847 1.335 . S
C847 C846 1.335 . S
C847 C848 1.398 . S
C847 H874 0.930 . S
C848 C843 1.382 . S
C848 C847 1.398 . S
C848 H875 0.929 . S
C849 O862 1.271 . S
C849 O863 1.251 . S
C850 O864 1.252 . S
C850 O865 1.272 . S
C851 Sm841 2.846 . S
C851 C852 1.506 . S
C851 O866 1.261 . S
C851 O867 1.242 . S
C852 C851 1.506 . S
C852 C853 1.358 . S
C852 C857 1.382 . S
C853 C852 1.358 . S
C853 C854 1.385 . S
C853 H876 0.930 . S
C854 C853 1.385 . S
C854 C855 1.395 . S
C854 H877 0.929 . S
C855 C854 1.395 . S
C855 C856 1.335 . S
C856 C855 1.335 . S
C856 C857 1.398 . S
C856 H878 0.930 . S
C857 C852 1.382 . S
C857 C856 1.398 . S
C857 H879 0.929 . S
C858 O868 1.271 . S
C858 O869 1.251 . S
C859 O870 1.252 . S
C859 O871 1.272 . S
O860 Sm840 2.543 1_554 S
O860 C842 1.261 . S
O861 Sm840 2.450 . S
O861 C842 1.242 1_556 S
O862 Sm840 2.681 . S
O862 Sm841 2.386 . S
O862 C849 1.271 . S
O863 Sm840 2.464 . S
O863 C849 1.251 . S
O864 Sm840 2.396 1_554 S
O864 C850 1.252 . S
O865 Sm841 2.408 1_554 S
O865 C850 1.272 . S
O866 Sm841 2.543 . S
O866 C851 1.261 . S
O867 Sm841 2.450 . S
O867 C851 1.242 . S
O868 Sm840 2.386 . S
O868 Sm841 2.681 . S
O868 C858 1.271 . S
O869 Sm841 2.464 . S
O869 C858 1.251 . S
O870 Sm841 2.396 . S
O870 C859 1.252 . S
O871 Sm840 2.408 . S
O871 C859 1.272 . S
H872 C844 0.930 . S
H873 C845 0.929 . S
H874 C847 0.930 . S
H875 C848 0.929 . S
H876 C853 0.930 . S
H877 C854 0.929 . S
H878 C856 0.930 . S
H879 C857 0.929 . S
Sm880 C882 2.846 . S
Sm880 O900 2.543 . S
Sm880 O901 2.450 . S
Sm880 O902 2.681 . S
Sm880 O903 2.464 . S
Sm880 O904 2.396 . S
Sm880 O908 2.386 . S
Sm880 O911 2.408 . S
Sm881 C891 2.846 . S
Sm881 O902 2.386 . S
Sm881 O905 2.408 . S
Sm881 O906 2.543 . S
Sm881 O907 2.450 . S
Sm881 O908 2.681 . S
Sm881 O909 2.464 . S
Sm881 O910 2.396 . S
C882 Sm880 2.846 . S
C882 C883 1.506 . S
C882 O900 1.261 . S
C882 O901 1.242 . S
C883 C882 1.506 . S
C883 C884 1.358 . S
C883 C888 1.382 . S
C884 C883 1.358 . S
C884 C885 1.385 . S
C884 H912 0.930 . S
C885 C884 1.385 . S
C885 C886 1.395 . S
C885 H913 0.929 . S
C886 C885 1.395 . S
C886 C887 1.335 . S
C887 C886 1.335 . S
C887 C888 1.398 . S
C887 H914 0.930 . S
C888 C883 1.382 . S
C888 C887 1.398 . S
C888 H915 0.929 . S
C889 O902 1.271 . S
C889 O903 1.251 . S
C890 O904 1.252 . S
C890 O905 1.272 . S
C891 Sm881 2.846 . S
C891 C892 1.506 . S
C891 O906 1.261 . S
C891 O907 1.242 . S
C892 C891 1.506 . S
C892 C893 1.358 . S
C892 C897 1.382 . S
C893 C892 1.358 . S
C893 C894 1.385 . S
C893 H916 0.930 . S
C894 C893 1.385 . S
C894 C895 1.395 . S
C894 H917 0.929 . S
C895 C894 1.395 . S
C895 C896 1.335 . S
C896 C895 1.335 . S
C896 C897 1.398 . S
C896 H918 0.930 . S
C897 C892 1.382 . S
C897 C896 1.398 . S
C897 H919 0.929 . S
C898 O908 1.271 . S
C898 O909 1.251 . S
C899 O910 1.252 . S
C899 O911 1.272 . S
O900 Sm880 2.543 . S
O900 C882 1.261 . S
O901 Sm880 2.450 . S
O901 C882 1.242 . S
O902 Sm880 2.681 . S
O902 Sm881 2.386 . S
O902 C889 1.271 . S
O903 Sm880 2.464 . S
O903 C889 1.251 . S
O904 Sm880 2.396 . S
O904 C890 1.252 . S
O905 Sm881 2.408 . S
O905 C890 1.272 . S
O906 Sm881 2.543 . S
O906 C891 1.261 . S
O907 Sm881 2.450 . S
O907 C891 1.242 . S
O908 Sm880 2.386 . S
O908 Sm881 2.681 . S
O908 C898 1.271 . S
O909 Sm881 2.464 . S
O909 C898 1.251 . S
O910 Sm881 2.396 . S
O910 C899 1.252 . S
O911 Sm880 2.408 . S
O911 C899 1.272 . S
H912 C884 0.930 . S
H913 C885 0.929 . S
H914 C887 0.930 . S
H915 C888 0.929 . S
H916 C893 0.930 . S
H917 C894 0.929 . S
H918 C896 0.930 . S
H919 C897 0.929 . S
Sm920 C922 2.846 . S
Sm920 O940 2.543 . S
Sm920 O941 2.450 . S
Sm920 O942 2.681 . S
Sm920 O943 2.464 . S
Sm920 O944 2.396 . S
Sm920 O948 2.386 . S
Sm920 O951 2.408 . S
Sm921 C931 2.846 . S
Sm921 O942 2.386 . S
Sm921 O945 2.408 . S
Sm921 O946 2.543 . S
Sm921 O947 2.450 . S
Sm921 O948 2.681 . S
Sm921 O949 2.464 . S
Sm921 O950 2.396 . S
C922 Sm920 2.846 . S
C922 C923 1.506 . S
C922 O940 1.261 . S
C922 O941 1.242 . S
C923 C922 1.506 . S
C923 C924 1.358 . S
C923 C928 1.382 . S
C924 C923 1.358 . S
C924 C925 1.385 . S
C924 H952 0.930 . S
C925 C924 1.385 . S
C925 C926 1.395 . S
C925 H953 0.929 . S
C926 C925 1.395 . S
C926 C927 1.335 . S
C927 C926 1.335 . S
C927 C928 1.398 . S
C927 H954 0.930 . S
C928 C923 1.382 . S
C928 C927 1.398 . S
C928 H955 0.929 . S
C929 O942 1.271 . S
C929 O943 1.251 . S
C930 O944 1.252 . S
C930 O945 1.272 . S
C931 Sm921 2.846 . S
C931 C932 1.506 . S
C931 O946 1.261 . S
C931 O947 1.242 . S
C932 C931 1.506 . S
C932 C933 1.358 . S
C932 C937 1.382 . S
C933 C932 1.358 . S
C933 C934 1.385 . S
C933 H956 0.930 . S
C934 C933 1.385 . S
C934 C935 1.395 . S
C934 H957 0.929 . S
C935 C934 1.395 . S
C935 C936 1.335 . S
C936 C935 1.335 . S
C936 C937 1.398 . S
C936 H958 0.930 . S
C937 C932 1.382 . S
C937 C936 1.398 . S
C937 H959 0.929 . S
C938 O948 1.271 . S
C938 O949 1.251 . S
C939 O950 1.252 . S
C939 O951 1.272 . S
O940 Sm920 2.543 . S
O940 C922 1.261 . S
O941 Sm920 2.450 . S
O941 C922 1.242 . S
O942 Sm920 2.681 . S
O942 Sm921 2.386 . S
O942 C929 1.271 . S
O943 Sm920 2.464 . S
O943 C929 1.251 . S
O944 Sm920 2.396 . S
O944 C930 1.252 . S
O945 Sm921 2.408 . S
O945 C930 1.272 . S
O946 Sm921 2.543 . S
O946 C931 1.261 . S
O947 Sm921 2.450 . S
O947 C931 1.242 . S
O948 Sm920 2.386 . S
O948 Sm921 2.681 . S
O948 C938 1.271 . S
O949 Sm921 2.464 . S
O949 C938 1.251 . S
O950 Sm921 2.396 . S
O950 C939 1.252 . S
O951 Sm920 2.408 . S
O951 C939 1.272 . S
H952 C924 0.930 . S
H953 C925 0.929 . S
H954 C927 0.930 . S
H955 C928 0.929 . S
H956 C933 0.930 . S
H957 C934 0.929 . S
H958 C936 0.930 . S
H959 C937 0.929 . S
Sm960 C962 2.846 . S
Sm960 O980 2.543 . S
Sm960 O981 2.450 . S
Sm960 O982 2.681 . S
Sm960 O983 2.464 . S
Sm960 O984 2.396 . S
Sm960 O988 2.386 . S
Sm960 O991 2.408 . S
Sm961 C971 2.846 . S
Sm961 O982 2.386 . S
Sm961 O985 2.408 . S
Sm961 O986 2.543 . S
Sm961 O987 2.450 . S
Sm961 O988 2.681 . S
Sm961 O989 2.464 . S
Sm961 O990 2.396 . S
C962 Sm960 2.846 . S
C962 C963 1.506 . S
C962 O980 1.261 . S
C962 O981 1.242 . S
C963 C962 1.506 . S
C963 C964 1.358 . S
C963 C968 1.382 . S
C964 C963 1.358 . S
C964 C965 1.385 . S
C964 H992 0.930 . S
C965 C964 1.385 . S
C965 C966 1.395 . S
C965 H993 0.929 . S
C966 C965 1.395 . S
C966 C967 1.335 . S
C967 C966 1.335 . S
C967 C968 1.398 . S
C967 H994 0.930 . S
C968 C963 1.382 . S
C968 C967 1.398 . S
C968 H995 0.929 . S
C969 O982 1.271 . S
C969 O983 1.251 . S
C970 O984 1.252 . S
C970 O985 1.272 . S
C971 Sm961 2.846 . S
C971 C972 1.506 . S
C971 O986 1.261 . S
C971 O987 1.242 . S
C972 C971 1.506 . S
C972 C973 1.358 . S
C972 C977 1.382 . S
C973 C972 1.358 . S
C973 C974 1.385 . S
C973 H996 0.930 . S
C974 C973 1.385 . S
C974 C975 1.395 . S
C974 H997 0.929 . S
C975 C974 1.395 . S
C975 C976 1.335 . S
C976 C975 1.335 . S
C976 C977 1.398 . S
C976 H998 0.930 . S
C977 C972 1.382 . S
C977 C976 1.398 . S
C977 H999 0.929 . S
C978 O988 1.271 . S
C978 O989 1.251 . S
C979 O990 1.252 . S
C979 O991 1.272 . S
O980 Sm960 2.543 . S
O980 C962 1.261 . S
O981 Sm960 2.450 . S
O981 C962 1.242 . S
O982 Sm960 2.681 . S
O982 Sm961 2.386 . S
O982 C969 1.271 . S
O983 Sm960 2.464 . S
O983 C969 1.251 . S
O984 Sm960 2.396 . S
O984 C970 1.252 . S
O985 Sm961 2.408 . S
O985 C970 1.272 . S
O986 Sm961 2.543 . S
O986 C971 1.261 . S
O987 Sm961 2.450 . S
O987 C971 1.242 . S
O988 Sm960 2.386 . S
O988 Sm961 2.681 . S
O988 C978 1.271 . S
O989 Sm961 2.464 . S
O989 C978 1.251 . S
O990 Sm961 2.396 . S
O990 C979 1.252 . S
O991 Sm960 2.408 . S
O991 C979 1.272 . S
H992 C964 0.930 . S
H993 C965 0.929 . S
H994 C967 0.930 . S
H995 C968 0.929 . S
H996 C973 0.930 . S
H997 C974 0.929 . S
H998 C976 0.930 . S
H999 C977 0.929 . S
Sm1000 C1002 2.846 . S
Sm1000 O1020 2.543 . S
Sm1000 O1021 2.450 . S
Sm1000 O1022 2.681 . S
Sm1000 O1023 2.464 . S
Sm1000 O1024 2.396 . S
Sm1000 O1028 2.386 . S
Sm1000 O1031 2.408 1_556 S
Sm1001 C1011 2.846 1_556 S
Sm1001 O1022 2.386 . S
Sm1001 O1025 2.408 . S
Sm1001 O1026 2.543 1_556 S
Sm1001 O1027 2.450 . S
Sm1001 O1028 2.681 . S
Sm1001 O1029 2.464 . S
Sm1001 O1030 2.396 1_556 S
C1002 Sm1000 2.846 . S
C1002 C1003 1.506 . S
C1002 O1020 1.261 . S
C1002 O1021 1.242 . S
C1003 C1002 1.506 . S
C1003 C1004 1.358 . S
C1003 C1008 1.382 . S
C1004 C1003 1.358 . S
C1004 C1005 1.385 . S
C1004 H1032 0.930 . S
C1005 C1004 1.385 . S
C1005 C1006 1.395 . S
C1005 H1033 0.929 . S
C1006 C1005 1.395 . S
C1006 C1007 1.335 . S
C1007 C1006 1.335 . S
C1007 C1008 1.398 . S
C1007 H1034 0.930 . S
C1008 C1003 1.382 . S
C1008 C1007 1.398 . S
C1008 H1035 0.929 . S
C1009 O1022 1.271 . S
C1009 O1023 1.251 . S
C1010 O1024 1.252 . S
C1010 O1025 1.272 . S
C1011 Sm1001 2.846 1_554 S
C1011 C1012 1.506 . S
C1011 O1026 1.261 . S
C1011 O1027 1.242 1_554 S
C1012 C1011 1.506 . S
C1012 C1013 1.358 . S
C1012 C1017 1.382 . S
C1013 C1012 1.358 . S
C1013 C1014 1.385 . S
C1013 H1036 0.930 . S
C1014 C1013 1.385 . S
C1014 C1015 1.395 . S
C1014 H1037 0.929 . S
C1015 C1014 1.395 . S
C1015 C1016 1.335 . S
C1016 C1015 1.335 . S
C1016 C1017 1.398 . S
C1016 H1038 0.930 . S
C1017 C1012 1.382 . S
C1017 C1016 1.398 . S
C1017 H1039 0.929 . S
C1018 O1028 1.271 . S
C1018 O1029 1.251 . S
C1019 O1030 1.252 . S
C1019 O1031 1.272 . S
O1020 Sm1000 2.543 . S
O1020 C1002 1.261 . S
O1021 Sm1000 2.450 . S
O1021 C1002 1.242 . S
O1022 Sm1000 2.681 . S
O1022 Sm1001 2.386 . S
O1022 C1009 1.271 . S
O1023 Sm1000 2.464 . S
O1023 C1009 1.251 . S
O1024 Sm1000 2.396 . S
O1024 C1010 1.252 . S
O1025 Sm1001 2.408 . S
O1025 C1010 1.272 . S
O1026 Sm1001 2.543 1_554 S
O1026 C1011 1.261 . S
O1027 Sm1001 2.450 . S
O1027 C1011 1.242 1_556 S
O1028 Sm1000 2.386 . S
O1028 Sm1001 2.681 . S
O1028 C1018 1.271 . S
O1029 Sm1001 2.464 . S
O1029 C1018 1.251 . S
O1030 Sm1001 2.396 1_554 S
O1030 C1019 1.252 . S
O1031 Sm1000 2.408 1_554 S
O1031 C1019 1.272 . S
H1032 C1004 0.930 . S
H1033 C1005 0.929 . S
H1034 C1007 0.930 . S
H1035 C1008 0.929 . S
H1036 C1013 0.930 . S
H1037 C1014 0.929 . S
H1038 C1016 0.930 . S
H1039 C1017 0.929 . S
Sm1040 C1042 2.846 . S
Sm1040 O1060 2.543 . S
Sm1040 O1061 2.450 . S
Sm1040 O1062 2.681 . S
Sm1040 O1063 2.464 . S
Sm1040 O1064 2.396 . S
Sm1040 O1068 2.386 . S
Sm1040 O1071 2.408 . S
Sm1041 C1051 2.846 . S
Sm1041 O1062 2.386 . S
Sm1041 O1065 2.408 . S
Sm1041 O1066 2.543 . S
Sm1041 O1067 2.450 . S
Sm1041 O1068 2.681 . S
Sm1041 O1069 2.464 . S
Sm1041 O1070 2.396 . S
C1042 Sm1040 2.846 . S
C1042 C1043 1.506 . S
C1042 O1060 1.261 . S
C1042 O1061 1.242 . S
C1043 C1042 1.506 . S
C1043 C1044 1.358 . S
C1043 C1048 1.382 . S
C1044 C1043 1.358 . S
C1044 C1045 1.385 . S
C1044 H1072 0.930 . S
C1045 C1044 1.385 . S
C1045 C1046 1.395 . S
C1045 H1073 0.929 . S
C1046 C1045 1.395 . S
C1046 C1047 1.335 . S
C1047 C1046 1.335 . S
C1047 C1048 1.398 . S
C1047 H1074 0.930 . S
C1048 C1043 1.382 . S
C1048 C1047 1.398 . S
C1048 H1075 0.929 . S
C1049 O1062 1.271 . S
C1049 O1063 1.251 . S
C1050 O1064 1.252 . S
C1050 O1065 1.272 . S
C1051 Sm1041 2.846 . S
C1051 C1052 1.506 . S
C1051 O1066 1.261 . S
C1051 O1067 1.242 . S
C1052 C1051 1.506 . S
C1052 C1053 1.358 . S
C1052 C1057 1.382 . S
C1053 C1052 1.358 . S
C1053 C1054 1.385 . S
C1053 H1076 0.930 . S
C1054 C1053 1.385 . S
C1054 C1055 1.395 . S
C1054 H1077 0.929 . S
C1055 C1054 1.395 . S
C1055 C1056 1.335 . S
C1056 C1055 1.335 . S
C1056 C1057 1.398 . S
C1056 H1078 0.930 . S
C1057 C1052 1.382 . S
C1057 C1056 1.398 . S
C1057 H1079 0.929 . S
C1058 O1068 1.271 . S
C1058 O1069 1.251 . S
C1059 O1070 1.252 . S
C1059 O1071 1.272 . S
O1060 Sm1040 2.543 . S
O1060 C1042 1.261 . S
O1061 Sm1040 2.450 . S
O1061 C1042 1.242 . S
O1062 Sm1040 2.681 . S
O1062 Sm1041 2.386 . S
O1062 C1049 1.271 . S
O1063 Sm1040 2.464 . S
O1063 C1049 1.251 . S
O1064 Sm1040 2.396 . S
O1064 C1050 1.252 . S
O1065 Sm1041 2.408 . S
O1065 C1050 1.272 . S
O1066 Sm1041 2.543 . S
O1066 C1051 1.261 . S
O1067 Sm1041 2.450 . S
O1067 C1051 1.242 . S
O1068 Sm1040 2.386 . S
O1068 Sm1041 2.681 . S
O1068 C1058 1.271 . S
O1069 Sm1041 2.464 . S
O1069 C1058 1.251 . S
O1070 Sm1041 2.396 . S
O1070 C1059 1.252 . S
O1071 Sm1040 2.408 . S
O1071 C1059 1.272 . S
H1072 C1044 0.930 . S
H1073 C1045 0.929 . S
H1074 C1047 0.930 . S
H1075 C1048 0.929 . S
H1076 C1053 0.930 . S
H1077 C1054 0.929 . S
H1078 C1056 0.930 . S
H1079 C1057 0.929 . S
Sm1080 C1082 2.846 . S
Sm1080 O1100 2.543 . S
Sm1080 O1101 2.450 . S
Sm1080 O1102 2.681 . S
Sm1080 O1103 2.464 . S
Sm1080 O1104 2.396 . S
Sm1080 O1108 2.386 . S
Sm1080 O1111 2.408 . S
Sm1081 C1091 2.846 . S
Sm1081 O1102 2.386 . S
Sm1081 O1105 2.408 . S
Sm1081 O1106 2.543 . S
Sm1081 O1107 2.450 . S
Sm1081 O1108 2.681 . S
Sm1081 O1109 2.464 . S
Sm1081 O1110 2.396 . S
C1082 Sm1080 2.846 . S
C1082 C1083 1.506 . S
C1082 O1100 1.261 . S
C1082 O1101 1.242 . S
C1083 C1082 1.506 . S
C1083 C1084 1.358 . S
C1083 C1088 1.382 . S
C1084 C1083 1.358 . S
C1084 C1085 1.385 . S
C1084 H1112 0.930 . S
C1085 C1084 1.385 . S
C1085 C1086 1.395 . S
C1085 H1113 0.929 . S
C1086 C1085 1.395 . S
C1086 C1087 1.335 . S
C1087 C1086 1.335 . S
C1087 C1088 1.398 . S
C1087 H1114 0.930 . S
C1088 C1083 1.382 . S
C1088 C1087 1.398 . S
C1088 H1115 0.929 . S
C1089 O1102 1.271 . S
C1089 O1103 1.251 . S
C1090 O1104 1.252 . S
C1090 O1105 1.272 . S
C1091 Sm1081 2.846 . S
C1091 C1092 1.506 . S
C1091 O1106 1.261 . S
C1091 O1107 1.242 . S
C1092 C1091 1.506 . S
C1092 C1093 1.358 . S
C1092 C1097 1.382 . S
C1093 C1092 1.358 . S
C1093 C1094 1.385 . S
C1093 H1116 0.930 . S
C1094 C1093 1.385 . S
C1094 C1095 1.395 . S
C1094 H1117 0.929 . S
C1095 C1094 1.395 . S
C1095 C1096 1.335 . S
C1096 C1095 1.335 . S
C1096 C1097 1.398 . S
C1096 H1118 0.930 . S
C1097 C1092 1.382 . S
C1097 C1096 1.398 . S
C1097 H1119 0.929 . S
C1098 O1108 1.271 . S
C1098 O1109 1.251 . S
C1099 O1110 1.252 . S
C1099 O1111 1.272 . S
O1100 Sm1080 2.543 . S
O1100 C1082 1.261 . S
O1101 Sm1080 2.450 . S
O1101 C1082 1.242 . S
O1102 Sm1080 2.681 . S
O1102 Sm1081 2.386 . S
O1102 C1089 1.271 . S
O1103 Sm1080 2.464 . S
O1103 C1089 1.251 . S
O1104 Sm1080 2.396 . S
O1104 C1090 1.252 . S
O1105 Sm1081 2.408 . S
O1105 C1090 1.272 . S
O1106 Sm1081 2.543 . S
O1106 C1091 1.261 . S
O1107 Sm1081 2.450 . S
O1107 C1091 1.242 . S
O1108 Sm1080 2.386 . S
O1108 Sm1081 2.681 . S
O1108 C1098 1.271 . S
O1109 Sm1081 2.464 . S
O1109 C1098 1.251 . S
O1110 Sm1081 2.396 . S
O1110 C1099 1.252 . S
O1111 Sm1080 2.408 . S
O1111 C1099 1.272 . S
H1112 C1084 0.930 . S
H1113 C1085 0.929 . S
H1114 C1087 0.930 . S
H1115 C1088 0.929 . S
H1116 C1093 0.930 . S
H1117 C1094 0.929 . S
H1118 C1096 0.930 . S
H1119 C1097 0.929 . S
Sm1120 C1122 2.846 . S
Sm1120 O1140 2.543 . S
Sm1120 O1141 2.450 . S
Sm1120 O1142 2.681 . S
Sm1120 O1143 2.464 . S
Sm1120 O1144 2.396 . S
Sm1120 O1148 2.386 . S
Sm1120 O1151 2.408 . S
Sm1121 C1131 2.846 . S
Sm1121 O1142 2.386 . S
Sm1121 O1145 2.408 . S
Sm1121 O1146 2.543 . S
Sm1121 O1147 2.450 . S
Sm1121 O1148 2.681 . S
Sm1121 O1149 2.464 . S
Sm1121 O1150 2.396 . S
C1122 Sm1120 2.846 . S
C1122 C1123 1.506 . S
C1122 O1140 1.261 . S
C1122 O1141 1.242 . S
C1123 C1122 1.506 . S
C1123 C1124 1.358 . S
C1123 C1128 1.382 . S
C1124 C1123 1.358 . S
C1124 C1125 1.385 . S
C1124 H1152 0.930 . S
C1125 C1124 1.385 . S
C1125 C1126 1.395 . S
C1125 H1153 0.929 . S
C1126 C1125 1.395 . S
C1126 C1127 1.335 . S
C1127 C1126 1.335 . S
C1127 C1128 1.398 . S
C1127 H1154 0.930 . S
C1128 C1123 1.382 . S
C1128 C1127 1.398 . S
C1128 H1155 0.929 . S
C1129 O1142 1.271 . S
C1129 O1143 1.251 . S
C1130 O1144 1.252 . S
C1130 O1145 1.272 . S
C1131 Sm1121 2.846 . S
C1131 C1132 1.506 . S
C1131 O1146 1.261 . S
C1131 O1147 1.242 . S
C1132 C1131 1.506 . S
C1132 C1133 1.358 . S
C1132 C1137 1.382 . S
C1133 C1132 1.358 . S
C1133 C1134 1.385 . S
C1133 H1156 0.930 . S
C1134 C1133 1.385 . S
C1134 C1135 1.395 . S
C1134 H1157 0.929 . S
C1135 C1134 1.395 . S
C1135 C1136 1.335 . S
C1136 C1135 1.335 . S
C1136 C1137 1.398 . S
C1136 H1158 0.930 . S
C1137 C1132 1.382 . S
C1137 C1136 1.398 . S
C1137 H1159 0.929 . S
C1138 O1148 1.271 . S
C1138 O1149 1.251 . S
C1139 O1150 1.252 . S
C1139 O1151 1.272 . S
O1140 Sm1120 2.543 . S
O1140 C1122 1.261 . S
O1141 Sm1120 2.450 . S
O1141 C1122 1.242 . S
O1142 Sm1120 2.681 . S
O1142 Sm1121 2.386 . S
O1142 C1129 1.271 . S
O1143 Sm1120 2.464 . S
O1143 C1129 1.251 . S
O1144 Sm1120 2.396 . S
O1144 C1130 1.252 . S
O1145 Sm1121 2.408 . S
O1145 C1130 1.272 . S
O1146 Sm1121 2.543 . S
O1146 C1131 1.261 . S
O1147 Sm1121 2.450 . S
O1147 C1131 1.242 . S
O1148 Sm1120 2.386 . S
O1148 Sm1121 2.681 . S
O1148 C1138 1.271 . S
O1149 Sm1121 2.464 . S
O1149 C1138 1.251 . S
O1150 Sm1121 2.396 . S
O1150 C1139 1.252 . S
O1151 Sm1120 2.408 . S
O1151 C1139 1.272 . S
H1152 C1124 0.930 . S
H1153 C1125 0.929 . S
H1154 C1127 0.930 . S
H1155 C1128 0.929 . S
H1156 C1133 0.930 . S
H1157 C1134 0.929 . S
H1158 C1136 0.930 . S
H1159 C1137 0.929 . S
Sm1160 C1162 2.846 . S
Sm1160 O1180 2.543 . S
Sm1160 O1181 2.450 . S
Sm1160 O1182 2.681 . S
Sm1160 O1183 2.464 . S
Sm1160 O1184 2.396 . S
Sm1160 O1188 2.386 . S
Sm1160 O1191 2.408 1_554 S
Sm1161 C1171 2.846 1_554 S
Sm1161 O1182 2.386 . S
Sm1161 O1185 2.408 . S
Sm1161 O1186 2.543 1_554 S
Sm1161 O1187 2.450 . S
Sm1161 O1188 2.681 . S
Sm1161 O1189 2.464 . S
Sm1161 O1190 2.396 1_554 S
C1162 Sm1160 2.846 . S
C1162 C1163 1.506 . S
C1162 O1180 1.261 . S
C1162 O1181 1.242 . S
C1163 C1162 1.506 . S
C1163 C1164 1.358 . S
C1163 C1168 1.382 . S
C1164 C1163 1.358 . S
C1164 C1165 1.385 . S
C1164 H1192 0.930 . S
C1165 C1164 1.385 . S
C1165 C1166 1.395 . S
C1165 H1193 0.929 . S
C1166 C1165 1.395 . S
C1166 C1167 1.335 . S
C1167 C1166 1.335 . S
C1167 C1168 1.398 . S
C1167 H1194 0.930 . S
C1168 C1163 1.382 . S
C1168 C1167 1.398 . S
C1168 H1195 0.929 . S
C1169 O1182 1.271 . S
C1169 O1183 1.251 . S
C1170 O1184 1.252 . S
C1170 O1185 1.272 . S
C1171 Sm1161 2.846 1_556 S
C1171 C1172 1.506 . S
C1171 O1186 1.261 . S
C1171 O1187 1.242 1_556 S
C1172 C1171 1.506 . S
C1172 C1173 1.358 . S
C1172 C1177 1.382 . S
C1173 C1172 1.358 . S
C1173 C1174 1.385 . S
C1173 H1196 0.930 . S
C1174 C1173 1.385 . S
C1174 C1175 1.395 . S
C1174 H1197 0.929 . S
C1175 C1174 1.395 . S
C1175 C1176 1.335 . S
C1176 C1175 1.335 . S
C1176 C1177 1.398 . S
C1176 H1198 0.930 . S
C1177 C1172 1.382 . S
C1177 C1176 1.398 . S
C1177 H1199 0.929 . S
C1178 O1188 1.271 . S
C1178 O1189 1.251 . S
C1179 O1190 1.252 . S
C1179 O1191 1.272 . S
O1180 Sm1160 2.543 . S
O1180 C1162 1.261 . S
O1181 Sm1160 2.450 . S
O1181 C1162 1.242 . S
O1182 Sm1160 2.681 . S
O1182 Sm1161 2.386 . S
O1182 C1169 1.271 . S
O1183 Sm1160 2.464 . S
O1183 C1169 1.251 . S
O1184 Sm1160 2.396 . S
O1184 C1170 1.252 . S
O1185 Sm1161 2.408 . S
O1185 C1170 1.272 . S
O1186 Sm1161 2.543 1_556 S
O1186 C1171 1.261 . S
O1187 Sm1161 2.450 . S
O1187 C1171 1.242 1_554 S
O1188 Sm1160 2.386 . S
O1188 Sm1161 2.681 . S
O1188 C1178 1.271 . S
O1189 Sm1161 2.464 . S
O1189 C1178 1.251 . S
O1190 Sm1161 2.396 1_556 S
O1190 C1179 1.252 . S
O1191 Sm1160 2.408 1_556 S
O1191 C1179 1.272 . S
H1192 C1164 0.930 . S
H1193 C1165 0.929 . S
H1194 C1167 0.930 . S
H1195 C1168 0.929 . S
H1196 C1173 0.930 . S
H1197 C1174 0.929 . S
H1198 C1176 0.930 . S
H1199 C1177 0.929 . S
Sm1200 C1202 2.846 . S
Sm1200 O1220 2.543 . S
Sm1200 O1221 2.450 . S
Sm1200 O1222 2.681 . S
Sm1200 O1223 2.464 . S
Sm1200 O1224 2.396 . S
Sm1200 O1228 2.386 . S
Sm1200 O1231 2.408 . S
Sm1201 C1211 2.846 . S
Sm1201 O1222 2.386 . S
Sm1201 O1225 2.408 . S
Sm1201 O1226 2.543 . S
Sm1201 O1227 2.450 . S
Sm1201 O1228 2.681 . S
Sm1201 O1229 2.464 . S
Sm1201 O1230 2.396 . S
C1202 Sm1200 2.846 . S
C1202 C1203 1.506 . S
C1202 O1220 1.261 . S
C1202 O1221 1.242 . S
C1203 C1202 1.506 . S
C1203 C1204 1.358 . S
C1203 C1208 1.382 . S
C1204 C1203 1.358 . S
C1204 C1205 1.385 . S
C1204 H1232 0.930 . S
C1205 C1204 1.385 . S
C1205 C1206 1.395 . S
C1205 H1233 0.929 . S
C1206 C1205 1.395 . S
C1206 C1207 1.335 . S
C1207 C1206 1.335 . S
C1207 C1208 1.398 . S
C1207 H1234 0.930 . S
C1208 C1203 1.382 . S
C1208 C1207 1.398 . S
C1208 H1235 0.929 . S
C1209 O1222 1.271 . S
C1209 O1223 1.251 . S
C1210 O1224 1.252 . S
C1210 O1225 1.272 . S
C1211 Sm1201 2.846 . S
C1211 C1212 1.506 . S
C1211 O1226 1.261 . S
C1211 O1227 1.242 . S
C1212 C1211 1.506 . S
C1212 C1213 1.358 . S
C1212 C1217 1.382 . S
C1213 C1212 1.358 . S
C1213 C1214 1.385 . S
C1213 H1236 0.930 . S
C1214 C1213 1.385 . S
C1214 C1215 1.395 . S
C1214 H1237 0.929 . S
C1215 C1214 1.395 . S
C1215 C1216 1.335 . S
C1216 C1215 1.335 . S
C1216 C1217 1.398 . S
C1216 H1238 0.930 . S
C1217 C1212 1.382 . S
C1217 C1216 1.398 . S
C1217 H1239 0.929 . S
C1218 O1228 1.271 . S
C1218 O1229 1.251 . S
C1219 O1230 1.252 . S
C1219 O1231 1.272 . S
O1220 Sm1200 2.543 . S
O1220 C1202 1.261 . S
O1221 Sm1200 2.450 . S
O1221 C1202 1.242 . S
O1222 Sm1200 2.681 . S
O1222 Sm1201 2.386 . S
O1222 C1209 1.271 . S
O1223 Sm1200 2.464 . S
O1223 C1209 1.251 . S
O1224 Sm1200 2.396 . S
O1224 C1210 1.252 . S
O1225 Sm1201 2.408 . S
O1225 C1210 1.272 . S
O1226 Sm1201 2.543 . S
O1226 C1211 1.261 . S
O1227 Sm1201 2.450 . S
O1227 C1211 1.242 . S
O1228 Sm1200 2.386 . S
O1228 Sm1201 2.681 . S
O1228 C1218 1.271 . S
O1229 Sm1201 2.464 . S
O1229 C1218 1.251 . S
O1230 Sm1201 2.396 . S
O1230 C1219 1.252 . S
O1231 Sm1200 2.408 . S
O1231 C1219 1.272 . S
H1232 C1204 0.930 . S
H1233 C1205 0.929 . S
H1234 C1207 0.930 . S
H1235 C1208 0.929 . S
H1236 C1213 0.930 . S
H1237 C1214 0.929 . S
H1238 C1216 0.930 . S
H1239 C1217 0.929 . S
Sm1240 C1242 2.846 . S
Sm1240 O1260 2.543 . S
Sm1240 O1261 2.450 . S
Sm1240 O1262 2.681 . S
Sm1240 O1263 2.464 . S
Sm1240 O1264 2.396 . S
Sm1240 O1268 2.386 . S
Sm1240 O1271 2.408 . S
Sm1241 C1251 2.846 . S
Sm1241 O1262 2.386 . S
Sm1241 O1265 2.408 . S
Sm1241 O1266 2.543 . S
Sm1241 O1267 2.450 . S
Sm1241 O1268 2.681 . S
Sm1241 O1269 2.464 . S
Sm1241 O1270 2.396 . S
C1242 Sm1240 2.846 . S
C1242 C1243 1.506 . S
C1242 O1260 1.261 . S
C1242 O1261 1.242 . S
C1243 C1242 1.506 . S
C1243 C1244 1.358 . S
C1243 C1248 1.382 . S
C1244 C1243 1.358 . S
C1244 C1245 1.385 . S
C1244 H1272 0.930 . S
C1245 C1244 1.385 . S
C1245 C1246 1.395 . S
C1245 H1273 0.929 . S
C1246 C1245 1.395 . S
C1246 C1247 1.335 . S
C1247 C1246 1.335 . S
C1247 C1248 1.398 . S
C1247 H1274 0.930 . S
C1248 C1243 1.382 . S
C1248 C1247 1.398 . S
C1248 H1275 0.929 . S
C1249 O1262 1.271 . S
C1249 O1263 1.251 . S
C1250 O1264 1.252 . S
C1250 O1265 1.272 . S
C1251 Sm1241 2.846 . S
C1251 C1252 1.506 . S
C1251 O1266 1.261 . S
C1251 O1267 1.242 . S
C1252 C1251 1.506 . S
C1252 C1253 1.358 . S
C1252 C1257 1.382 . S
C1253 C1252 1.358 . S
C1253 C1254 1.385 . S
C1253 H1276 0.930 . S
C1254 C1253 1.385 . S
C1254 C1255 1.395 . S
C1254 H1277 0.929 . S
C1255 C1254 1.395 . S
C1255 C1256 1.335 . S
C1256 C1255 1.335 . S
C1256 C1257 1.398 . S
C1256 H1278 0.930 . S
C1257 C1252 1.382 . S
C1257 C1256 1.398 . S
C1257 H1279 0.929 . S
C1258 O1268 1.271 . S
C1258 O1269 1.251 . S
C1259 O1270 1.252 . S
C1259 O1271 1.272 . S
O1260 Sm1240 2.543 . S
O1260 C1242 1.261 . S
O1261 Sm1240 2.450 . S
O1261 C1242 1.242 . S
O1262 Sm1240 2.681 . S
O1262 Sm1241 2.386 . S
O1262 C1249 1.271 . S
O1263 Sm1240 2.464 . S
O1263 C1249 1.251 . S
O1264 Sm1240 2.396 . S
O1264 C1250 1.252 . S
O1265 Sm1241 2.408 . S
O1265 C1250 1.272 . S
O1266 Sm1241 2.543 . S
O1266 C1251 1.261 . S
O1267 Sm1241 2.450 . S
O1267 C1251 1.242 . S
O1268 Sm1240 2.386 . S
O1268 Sm1241 2.681 . S
O1268 C1258 1.271 . S
O1269 Sm1241 2.464 . S
O1269 C1258 1.251 . S
O1270 Sm1241 2.396 . S
O1270 C1259 1.252 . S
O1271 Sm1240 2.408 . S
O1271 C1259 1.272 . S
H1272 C1244 0.930 . S
H1273 C1245 0.929 . S
H1274 C1247 0.930 . S
H1275 C1248 0.929 . S
H1276 C1253 0.930 . S
H1277 C1254 0.929 . S
H1278 C1256 0.930 . S
H1279 C1257 0.929 . S
C1280 C1281 1.391 . S
C1280 C1282 1.394 . S
C1280 H1296 0.931 . S
C1281 C1280 1.391 . S
C1281 C1285 1.376 . S
C1282 C1280 1.394 . S
C1282 C1283 1.369 . S
C1282 C1286 1.531 . S
C1283 C1282 1.369 . S
C1283 C1284 1.410 . S
C1283 C1291 1.503 . S
C1284 C1283 1.410 . S
C1284 C1285 1.392 . S
C1284 C1287 1.511 . S
C1285 C1281 1.376 . S
C1285 C1284 1.392 . S
C1285 H1297 0.929 . S
C1286 C1282 1.531 . S
C1286 H1298 0.960 . S
C1286 H1299 0.962 . S
C1286 H1300 0.960 . S
C1287 C1284 1.511 . S
C1287 H1301 0.961 . S
C1287 H1302 0.961 . S
C1287 H1303 0.961 . S
C1288 C1289 1.370 . S
C1288 C1290 1.363 . S
C1288 H1304 0.931 . S
C1289 C1288 1.370 . S
C1289 C1293 1.408 . S
C1290 C1288 1.363 . S
C1290 C1291 1.370 . S
C1290 C1294 1.524 . S
C1291 C1283 1.503 . S
C1291 C1290 1.370 . S
C1291 C1292 1.403 . S
C1292 C1291 1.403 . S
C1292 C1293 1.404 . S
C1292 C1295 1.539 . S
C1293 C1289 1.408 . S
C1293 C1292 1.404 . S
C1293 H1305 0.930 . S
C1294 C1290 1.524 . S
C1294 H1306 0.956 . S
C1294 H1307 0.961 . S
C1294 H1308 0.961 . S
C1295 C1292 1.539 . S
C1295 H1309 0.958 . S
C1295 H1310 0.961 . S
C1295 H1311 0.960 . S
H1296 C1280 0.931 . S
H1297 C1285 0.929 . S
H1298 C1286 0.960 . S
H1299 C1286 0.962 . S
H1300 C1286 0.960 . S
H1301 C1287 0.961 . S
H1302 C1287 0.961 . S
H1303 C1287 0.961 . S
H1304 C1288 0.931 . S
H1305 C1293 0.930 . S
H1306 C1294 0.956 . S
H1307 C1294 0.961 . S
H1308 C1294 0.961 . S
H1309 C1295 0.958 . S
H1310 C1295 0.961 . S
H1311 C1295 0.960 . S
C1312 C1313 1.391 . S
C1312 C1314 1.394 . S
C1312 H1328 0.931 . S
C1313 C1312 1.391 . S
C1313 C1317 1.376 . S
C1314 C1312 1.394 . S
C1314 C1315 1.369 . S
C1314 C1318 1.531 . S
C1315 C1314 1.369 . S
C1315 C1316 1.410 . S
C1315 C1323 1.503 . S
C1316 C1315 1.410 . S
C1316 C1317 1.392 . S
C1316 C1319 1.511 . S
C1317 C1313 1.376 . S
C1317 C1316 1.392 . S
C1317 H1329 0.929 . S
C1318 C1314 1.531 . S
C1318 H1330 0.960 . S
C1318 H1331 0.962 . S
C1318 H1332 0.960 . S
C1319 C1316 1.511 . S
C1319 H1333 0.961 . S
C1319 H1334 0.961 . S
C1319 H1335 0.961 . S
C1320 C1321 1.383 . S
C1320 C1322 1.363 . S
C1320 H1336 0.931 . S
C1321 C1320 1.383 . S
C1321 C1325 1.405 1_545 S
C1322 C1320 1.363 . S
C1322 C1323 1.370 . S
C1322 C1326 1.524 . S
C1323 C1315 1.503 . S
C1323 C1322 1.370 . S
C1323 C1324 1.403 . S
C1324 C1323 1.403 . S
C1324 C1325 1.404 1_545 S
C1324 C1327 1.539 . S
C1325 C1321 1.405 1_565 S
C1325 C1324 1.404 1_565 S
C1325 H1337 0.930 . S
C1326 C1322 1.524 . S
C1326 H1338 0.956 . S
C1326 H1339 0.961 . S
C1326 H1340 0.961 . S
C1327 C1324 1.539 . S
C1327 H1341 0.958 1_545 S
C1327 H1342 0.961 1_545 S
C1327 H1343 0.960 . S
H1328 C1312 0.931 . S
H1329 C1317 0.929 . S
H1330 C1318 0.960 . S
H1331 C1318 0.962 . S
H1332 C1318 0.960 . S
H1333 C1319 0.961 . S
H1334 C1319 0.961 . S
H1335 C1319 0.961 . S
H1336 C1320 0.931 . S
H1337 C1325 0.930 . S
H1338 C1326 0.956 . S
H1339 C1326 0.961 . S
H1340 C1326 0.961 . S
H1341 C1327 0.958 1_565 S
H1342 C1327 0.961 1_565 S
H1343 C1327 0.960 . S
C1344 C1345 1.391 . S
C1344 C1346 1.394 . S
C1344 H1360 0.931 . S
C1345 C1344 1.391 . S
C1345 C1349 1.376 . S
C1346 C1344 1.394 . S
C1346 C1347 1.369 . S
C1346 C1350 1.531 . S
C1347 C1346 1.369 . S
C1347 C1348 1.410 . S
C1347 C1355 1.503 . S
C1348 C1347 1.410 . S
C1348 C1349 1.392 . S
C1348 C1351 1.511 . S
C1349 C1345 1.376 . S
C1349 C1348 1.392 . S
C1349 H1361 0.929 . S
C1350 C1346 1.531 . S
C1350 H1362 0.960 . S
C1350 H1363 0.962 . S
C1350 H1364 0.960 . S
C1351 C1348 1.511 . S
C1351 H1365 0.961 . S
C1351 H1366 0.961 . S
C1351 H1367 0.961 . S
C1352 C1353 1.370 . S
C1352 C1354 1.363 . S
C1352 H1368 0.931 . S
C1353 C1352 1.370 . S
C1353 C1357 1.408 . S
C1354 C1352 1.363 . S
C1354 C1355 1.370 . S
C1354 C1358 1.524 . S
C1355 C1347 1.503 . S
C1355 C1354 1.370 . S
C1355 C1356 1.403 . S
C1356 C1355 1.403 . S
C1356 C1357 1.404 . S
C1356 C1359 1.539 . S
C1357 C1353 1.408 . S
C1357 C1356 1.404 . S
C1357 H1369 0.930 . S
C1358 C1354 1.524 . S
C1358 H1370 0.956 . S
C1358 H1371 0.961 . S
C1358 H1372 0.961 . S
C1359 C1356 1.539 . S
C1359 H1373 0.958 . S
C1359 H1374 0.961 . S
C1359 H1375 0.960 . S
H1360 C1344 0.931 . S
H1361 C1349 0.929 . S
H1362 C1350 0.960 . S
H1363 C1350 0.962 . S
H1364 C1350 0.960 . S
H1365 C1351 0.961 . S
H1366 C1351 0.961 . S
H1367 C1351 0.961 . S
H1368 C1352 0.931 . S
H1369 C1357 0.930 . S
H1370 C1358 0.956 . S
H1371 C1358 0.961 . S
H1372 C1358 0.961 . S
H1373 C1359 0.958 . S
H1374 C1359 0.961 . S
H1375 C1359 0.960 . S
C1376 C1377 1.391 . S
C1376 C1378 1.394 . S
C1376 H1392 0.931 . S
C1377 C1376 1.391 . S
C1377 C1381 1.376 . S
C1378 C1376 1.394 . S
C1378 C1379 1.369 . S
C1378 C1382 1.531 . S
C1379 C1378 1.369 . S
C1379 C1380 1.410 . S
C1379 C1387 1.503 . S
C1380 C1379 1.410 . S
C1380 C1381 1.392 . S
C1380 C1383 1.511 . S
C1381 C1377 1.376 . S
C1381 C1380 1.392 . S
C1381 H1393 0.929 . S
C1382 C1378 1.531 . S
C1382 H1394 0.960 . S
C1382 H1395 0.962 . S
C1382 H1396 0.960 . S
C1383 C1380 1.511 . S
C1383 H1397 0.961 . S
C1383 H1398 0.961 . S
C1383 H1399 0.961 . S
C1384 C1385 1.388 . S
C1384 C1386 1.363 . S
C1384 H1400 0.931 . S
C1385 C1384 1.388 . S
C1385 C1389 1.407 1_565 S
C1386 C1384 1.363 . S
C1386 C1387 1.370 . S
C1386 C1390 1.524 . S
C1387 C1379 1.503 . S
C1387 C1386 1.370 . S
C1387 C1388 1.403 . S
C1388 C1387 1.403 . S
C1388 C1389 1.404 1_565 S
C1388 C1391 1.539 . S
C1389 C1385 1.407 1_545 S
C1389 C1388 1.404 1_545 S
C1389 H1401 0.930 . S
C1390 C1386 1.524 . S
C1390 H1402 0.956 . S
C1390 H1403 0.961 . S
C1390 H1404 0.961 . S
C1391 C1388 1.539 . S
C1391 H1405 0.958 . S
C1391 H1406 0.961 . S
C1391 H1407 0.960 . S
H1392 C1376 0.931 . S
H1393 C1381 0.929 . S
H1394 C1382 0.960 . S
H1395 C1382 0.962 . S
H1396 C1382 0.960 . S
H1397 C1383 0.961 . S
H1398 C1383 0.961 . S
H1399 C1383 0.961 . S
H1400 C1384 0.931 . S
H1401 C1389 0.930 . S
H1402 C1390 0.956 . S
H1403 C1390 0.961 . S
H1404 C1390 0.961 . S
H1405 C1391 0.958 . S
H1406 C1391 0.961 . S
H1407 C1391 0.960 . S
C1408 C1409 1.391 . S
C1408 C1410 1.394 . S
C1408 H1424 0.931 . S
C1409 C1408 1.391 . S
C1409 C1413 1.376 . S
C1410 C1408 1.394 . S
C1410 C1411 1.369 . S
C1410 C1414 1.531 . S
C1411 C1410 1.369 . S
C1411 C1412 1.410 . S
C1411 C1419 1.503 . S
C1412 C1411 1.410 . S
C1412 C1413 1.392 . S
C1412 C1415 1.511 . S
C1413 C1409 1.376 . S
C1413 C1412 1.392 . S
C1413 H1425 0.929 . S
C1414 C1410 1.531 . S
C1414 H1426 0.960 . S
C1414 H1427 0.962 . S
C1414 H1428 0.960 . S
C1415 C1412 1.511 . S
C1415 H1429 0.961 . S
C1415 H1430 0.961 . S
C1415 H1431 0.961 . S
C1416 C1417 1.370 . S
C1416 C1418 1.363 . S
C1416 H1432 0.931 . S
C1417 C1416 1.370 . S
C1417 C1421 1.408 . S
C1418 C1416 1.363 . S
C1418 C1419 1.370 . S
C1418 C1422 1.524 . S
C1419 C1411 1.503 . S
C1419 C1418 1.370 . S
C1419 C1420 1.403 . S
C1420 C1419 1.403 . S
C1420 C1421 1.404 . S
C1420 C1423 1.539 . S
C1421 C1417 1.408 . S
C1421 C1420 1.404 . S
C1421 H1433 0.930 . S
C1422 C1418 1.524 . S
C1422 H1434 0.956 . S
C1422 H1435 0.961 . S
C1422 H1436 0.961 . S
C1423 C1420 1.539 . S
C1423 H1437 0.958 . S
C1423 H1438 0.961 . S
C1423 H1439 0.960 . S
H1424 C1408 0.931 . S
H1425 C1413 0.929 . S
H1426 C1414 0.960 . S
H1427 C1414 0.962 . S
H1428 C1414 0.960 . S
H1429 C1415 0.961 . S
H1430 C1415 0.961 . S
H1431 C1415 0.961 . S
H1432 C1416 0.931 . S
H1433 C1421 0.930 . S
H1434 C1422 0.956 . S
H1435 C1422 0.961 . S
H1436 C1422 0.961 . S
H1437 C1423 0.958 . S
H1438 C1423 0.961 . S
H1439 C1423 0.960 . S
C1440 C1441 1.391 . S
C1440 C1442 1.394 . S
C1440 H1456 0.931 . S
C1441 C1440 1.391 . S
C1441 C1445 1.376 1_545 S
C1442 C1440 1.394 . S
C1442 C1443 1.369 . S
C1442 C1446 1.531 . S
C1443 C1442 1.369 . S
C1443 C1444 1.410 . S
C1443 C1451 1.503 . S
C1444 C1443 1.410 . S
C1444 C1445 1.392 1_545 S
C1444 C1447 1.511 . S
C1445 C1441 1.376 1_565 S
C1445 C1444 1.392 1_565 S
C1445 H1457 0.929 . S
C1446 C1442 1.531 . S
C1446 H1458 0.960 . S
C1446 H1459 0.962 . S
C1446 H1460 0.960 . S
C1447 C1444 1.511 . S
C1447 H1461 0.961 1_545 S
C1447 H1462 0.961 . S
C1447 H1463 0.961 . S
C1448 C1449 1.370 . S
C1448 C1450 1.363 . S
C1448 H1464 0.931 . S
C1449 C1448 1.370 . S
C1449 C1453 1.408 . S
C1450 C1448 1.363 . S
C1450 C1451 1.370 . S
C1450 C1454 1.524 . S
C1451 C1443 1.503 . S
C1451 C1450 1.370 . S
C1451 C1452 1.403 . S
C1452 C1451 1.403 . S
C1452 C1453 1.404 . S
C1452 C1455 1.539 . S
C1453 C1449 1.408 . S
C1453 C1452 1.404 . S
C1453 H1465 0.930 . S
C1454 C1450 1.524 . S
C1454 H1466 0.956 . S
C1454 H1467 0.961 . S
C1454 H1468 0.961 . S
C1455 C1452 1.539 . S
C1455 H1469 0.958 . S
C1455 H1470 0.961 . S
C1455 H1471 0.960 . S
H1456 C1440 0.931 . S
H1457 C1445 0.929 . S
H1458 C1446 0.960 . S
H1459 C1446 0.962 . S
H1460 C1446 0.960 . S
H1461 C1447 0.961 1_565 S
H1462 C1447 0.961 . S
H1463 C1447 0.961 . S
H1464 C1448 0.931 . S
H1465 C1453 0.930 . S
H1466 C1454 0.956 . S
H1467 C1454 0.961 . S
H1468 C1454 0.961 . S
H1469 C1455 0.958 . S
H1470 C1455 0.961 . S
H1471 C1455 0.960 . S
C1472 C1473 1.391 . S
C1472 C1474 1.394 . S
C1472 H1488 0.931 . S
C1473 C1472 1.391 . S
C1473 C1477 1.376 . S
C1474 C1472 1.394 . S
C1474 C1475 1.369 . S
C1474 C1478 1.531 . S
C1475 C1474 1.369 . S
C1475 C1476 1.410 . S
C1475 C1483 1.503 . S
C1476 C1475 1.410 . S
C1476 C1477 1.392 . S
C1476 C1479 1.511 . S
C1477 C1473 1.376 . S
C1477 C1476 1.392 . S
C1477 H1489 0.929 . S
C1478 C1474 1.531 . S
C1478 H1490 0.960 . S
C1478 H1491 0.962 . S
C1478 H1492 0.960 . S
C1479 C1476 1.511 . S
C1479 H1493 0.961 . S
C1479 H1494 0.961 . S
C1479 H1495 0.961 . S
C1480 C1481 1.370 . S
C1480 C1482 1.363 . S
C1480 H1496 0.931 . S
C1481 C1480 1.370 . S
C1481 C1485 1.408 . S
C1482 C1480 1.363 . S
C1482 C1483 1.370 . S
C1482 C1486 1.524 . S
C1483 C1475 1.503 . S
C1483 C1482 1.370 . S
C1483 C1484 1.403 . S
C1484 C1483 1.403 . S
C1484 C1485 1.404 . S
C1484 C1487 1.539 . S
C1485 C1481 1.408 . S
C1485 C1484 1.404 . S
C1485 H1497 0.930 . S
C1486 C1482 1.524 . S
C1486 H1498 0.956 . S
C1486 H1499 0.961 . S
C1486 H1500 0.961 . S
C1487 C1484 1.539 . S
C1487 H1501 0.958 . S
C1487 H1502 0.961 . S
C1487 H1503 0.960 . S
H1488 C1472 0.931 . S
H1489 C1477 0.929 . S
H1490 C1478 0.960 . S
H1491 C1478 0.962 . S
H1492 C1478 0.960 . S
H1493 C1479 0.961 . S
H1494 C1479 0.961 . S
H1495 C1479 0.961 . S
H1496 C1480 0.931 . S
H1497 C1485 0.930 . S
H1498 C1486 0.956 . S
H1499 C1486 0.961 . S
H1500 C1486 0.961 . S
H1501 C1487 0.958 . S
H1502 C1487 0.961 . S
H1503 C1487 0.960 . S
C1504 C1505 1.391 . S
C1504 C1506 1.394 . S
C1504 H1520 0.931 . S
C1505 C1504 1.391 . S
C1505 C1509 1.376 . S
C1506 C1504 1.394 . S
C1506 C1507 1.369 . S
C1506 C1510 1.531 . S
C1507 C1506 1.369 . S
C1507 C1508 1.410 . S
C1507 C1515 1.503 . S
C1508 C1507 1.410 . S
C1508 C1509 1.392 . S
C1508 C1511 1.511 . S
C1509 C1505 1.376 . S
C1509 C1508 1.392 . S
C1509 H1521 0.929 . S
C1510 C1506 1.531 . S
C1510 H1522 0.960 . S
C1510 H1523 0.962 . S
C1510 H1524 0.960 . S
C1511 C1508 1.511 . S
C1511 H1525 0.961 . S
C1511 H1526 0.961 . S
C1511 H1527 0.961 . S
C1512 C1513 1.370 1_545 S
C1512 C1514 1.363 1_545 S
C1512 H1528 0.931 . S
C1513 C1512 1.370 1_565 S
C1513 C1517 1.408 . S
C1514 C1512 1.363 1_565 S
C1514 C1515 1.370 . S
C1514 C1518 1.524 . S
C1515 C1507 1.503 . S
C1515 C1514 1.370 . S
C1515 C1516 1.403 . S
C1516 C1515 1.403 . S
C1516 C1517 1.404 . S
C1516 C1519 1.539 . S
C1517 C1513 1.408 . S
C1517 C1516 1.404 . S
C1517 H1529 0.930 . S
C1518 C1514 1.524 . S
C1518 H1530 0.956 . S
C1518 H1531 0.961 . S
C1518 H1532 0.961 1_565 S
C1519 C1516 1.539 . S
C1519 H1533 0.958 . S
C1519 H1534 0.961 . S
C1519 H1535 0.960 . S
H1520 C1504 0.931 . S
H1521 C1509 0.929 . S
H1522 C1510 0.960 . S
H1523 C1510 0.962 . S
H1524 C1510 0.960 . S
H1525 C1511 0.961 . S
H1526 C1511 0.961 . S
H1527 C1511 0.961 . S
H1528 C1512 0.931 . S
H1529 C1517 0.930 . S
H1530 C1518 0.956 . S
H1531 C1518 0.961 . S
H1532 C1518 0.961 1_545 S
H1533 C1519 0.958 . S
H1534 C1519 0.961 . S
H1535 C1519 0.960 . S
C1536 C1537 1.391 . S
C1536 C1538 1.394 . S
C1536 H1552 0.931 . S
C1537 C1536 1.391 . S
C1537 C1541 1.376 . S
C1538 C1536 1.394 . S
C1538 C1539 1.369 . S
C1538 C1542 1.531 . S
C1539 C1538 1.369 . S
C1539 C1540 1.410 . S
C1539 C1547 1.503 . S
C1540 C1539 1.410 . S
C1540 C1541 1.392 . S
C1540 C1543 1.511 . S
C1541 C1537 1.376 . S
C1541 C1540 1.392 . S
C1541 H1553 0.929 . S
C1542 C1538 1.531 . S
C1542 H1554 0.960 . S
C1542 H1555 0.962 . S
C1542 H1556 0.960 . S
C1543 C1540 1.511 . S
C1543 H1557 0.961 . S
C1543 H1558 0.961 . S
C1543 H1559 0.961 . S
C1544 C1545 1.370 . S
C1544 C1546 1.363 . S
C1544 H1560 0.931 . S
C1545 C1544 1.370 . S
C1545 C1549 1.408 . S
C1546 C1544 1.363 . S
C1546 C1547 1.370 . S
C1546 C1550 1.524 . S
C1547 C1539 1.503 . S
C1547 C1546 1.370 . S
C1547 C1548 1.403 . S
C1548 C1547 1.403 . S
C1548 C1549 1.404 . S
C1548 C1551 1.539 . S
C1549 C1545 1.408 . S
C1549 C1548 1.404 . S
C1549 H1561 0.930 . S
C1550 C1546 1.524 . S
C1550 H1562 0.956 . S
C1550 H1563 0.961 . S
C1550 H1564 0.961 . S
C1551 C1548 1.539 . S
C1551 H1565 0.958 . S
C1551 H1566 0.961 . S
C1551 H1567 0.960 . S
H1552 C1536 0.931 . S
H1553 C1541 0.929 . S
H1554 C1542 0.960 . S
H1555 C1542 0.962 . S
H1556 C1542 0.960 . S
H1557 C1543 0.961 . S
H1558 C1543 0.961 . S
H1559 C1543 0.961 . S
H1560 C1544 0.931 . S
H1561 C1549 0.930 . S
H1562 C1550 0.956 . S
H1563 C1550 0.961 . S
H1564 C1550 0.961 . S
H1565 C1551 0.958 . S
H1566 C1551 0.961 . S
H1567 C1551 0.960 . S
C1568 C1569 1.391 . S
C1568 C1570 1.394 . S
C1568 H1584 0.931 . S
C1569 C1568 1.391 . S
C1569 C1573 1.376 . S
C1570 C1568 1.394 . S
C1570 C1571 1.369 . S
C1570 C1574 1.531 . S
C1571 C1570 1.369 . S
C1571 C1572 1.410 . S
C1571 C1579 1.503 . S
C1572 C1571 1.410 . S
C1572 C1573 1.392 . S
C1572 C1575 1.511 . S
C1573 C1569 1.376 . S
C1573 C1572 1.392 . S
C1573 H1585 0.929 1_565 S
C1574 C1570 1.531 . S
C1574 H1586 0.960 . S
C1574 H1587 0.962 . S
C1574 H1588 0.960 . S
C1575 C1572 1.511 . S
C1575 H1589 0.961 . S
C1575 H1590 0.961 . S
C1575 H1591 0.961 . S
C1576 C1577 1.370 . S
C1576 C1578 1.363 . S
C1576 H1592 0.931 . S
C1577 C1576 1.370 . S
C1577 C1581 1.408 . S
C1578 C1576 1.363 . S
C1578 C1579 1.370 . S
C1578 C1582 1.524 . S
C1579 C1571 1.503 . S
C1579 C1578 1.370 . S
C1579 C1580 1.403 . S
C1580 C1579 1.403 . S
C1580 C1581 1.404 . S
C1580 C1583 1.539 . S
C1581 C1577 1.408 . S
C1581 C1580 1.404 . S
C1581 H1593 0.930 . S
C1582 C1578 1.524 . S
C1582 H1594 0.956 . S
C1582 H1595 0.961 . S
C1582 H1596 0.961 . S
C1583 C1580 1.539 . S
C1583 H1597 0.958 . S
C1583 H1598 0.961 . S
C1583 H1599 0.960 . S
H1584 C1568 0.931 . S
H1585 C1573 0.929 1_545 S
H1586 C1574 0.960 . S
H1587 C1574 0.962 . S
H1588 C1574 0.960 . S
H1589 C1575 0.961 . S
H1590 C1575 0.961 . S
H1591 C1575 0.961 . S
H1592 C1576 0.931 . S
H1593 C1581 0.930 . S
H1594 C1582 0.956 . S
H1595 C1582 0.961 . S
H1596 C1582 0.961 . S
H1597 C1583 0.958 . S
H1598 C1583 0.961 . S
H1599 C1583 0.960 . S
C1600 C1601 1.391 . S
C1600 C1602 1.394 . S
C1600 H1616 0.931 . S
C1601 C1600 1.391 . S
C1601 C1605 1.376 . S
C1602 C1600 1.394 . S
C1602 C1603 1.369 . S
C1602 C1606 1.531 . S
C1603 C1602 1.369 . S
C1603 C1604 1.410 . S
C1603 C1611 1.503 . S
C1604 C1603 1.410 . S
C1604 C1605 1.392 . S
C1604 C1607 1.511 . S
C1605 C1601 1.376 . S
C1605 C1604 1.392 . S
C1605 H1617 0.929 . S
C1606 C1602 1.531 . S
C1606 H1618 0.960 . S
C1606 H1619 0.962 . S
C1606 H1620 0.960 . S
C1607 C1604 1.511 . S
C1607 H1621 0.961 . S
C1607 H1622 0.961 . S
C1607 H1623 0.961 . S
C1608 C1609 1.370 . S
C1608 C1610 1.363 . S
C1608 H1624 0.931 . S
C1609 C1608 1.370 . S
C1609 C1613 1.408 . S
C1610 C1608 1.363 . S
C1610 C1611 1.370 . S
C1610 C1614 1.524 . S
C1611 C1603 1.503 . S
C1611 C1610 1.370 . S
C1611 C1612 1.403 . S
C1612 C1611 1.403 . S
C1612 C1613 1.404 . S
C1612 C1615 1.539 . S
C1613 C1609 1.408 . S
C1613 C1612 1.404 . S
C1613 H1625 0.930 . S
C1614 C1610 1.524 . S
C1614 H1626 0.956 . S
C1614 H1627 0.961 . S
C1614 H1628 0.961 . S
C1615 C1612 1.539 . S
C1615 H1629 0.958 . S
C1615 H1630 0.961 . S
C1615 H1631 0.960 . S
H1616 C1600 0.931 . S
H1617 C1605 0.929 . S
H1618 C1606 0.960 . S
H1619 C1606 0.962 . S
H1620 C1606 0.960 . S
H1621 C1607 0.961 . S
H1622 C1607 0.961 . S
H1623 C1607 0.961 . S
H1624 C1608 0.931 . S
H1625 C1613 0.930 . S
H1626 C1614 0.956 . S
H1627 C1614 0.961 . S
H1628 C1614 0.961 . S
H1629 C1615 0.958 . S
H1630 C1615 0.961 . S
H1631 C1615 0.960 . S
C1632 C1633 1.391 . S
C1632 C1634 1.394 . S
C1632 H1648 0.931 . S
C1633 C1632 1.391 . S
C1633 C1637 1.376 . S
C1634 C1632 1.394 . S
C1634 C1635 1.369 . S
C1634 C1638 1.531 . S
C1635 C1634 1.369 . S
C1635 C1636 1.410 . S
C1635 C1643 1.503 . S
C1636 C1635 1.410 . S
C1636 C1637 1.392 . S
C1636 C1639 1.511 . S
C1637 C1633 1.376 . S
C1637 C1636 1.392 . S
C1637 H1649 0.929 1_545 S
C1638 C1634 1.531 . S
C1638 H1650 0.960 . S
C1638 H1651 0.962 . S
C1638 H1652 0.960 . S
C1639 C1636 1.511 . S
C1639 H1653 0.961 . S
C1639 H1654 0.961 . S
C1639 H1655 0.961 . S
C1640 C1641 1.370 . S
C1640 C1642 1.363 . S
C1640 H1656 0.931 . S
C1641 C1640 1.370 . S
C1641 C1645 1.408 . S
C1642 C1640 1.363 . S
C1642 C1643 1.370 . S
C1642 C1646 1.524 . S
C1643 C1635 1.503 . S
C1643 C1642 1.370 . S
C1643 C1644 1.403 . S
C1644 C1643 1.403 . S
C1644 C1645 1.404 . S
C1644 C1647 1.539 . S
C1645 C1641 1.408 . S
C1645 C1644 1.404 . S
C1645 H1657 0.930 . S
C1646 C1642 1.524 . S
C1646 H1658 0.956 . S
C1646 H1659 0.961 . S
C1646 H1660 0.961 . S
C1647 C1644 1.539 . S
C1647 H1661 0.958 . S
C1647 H1662 0.961 . S
C1647 H1663 0.960 . S
H1648 C1632 0.931 . S
H1649 C1637 0.929 1_565 S
H1650 C1638 0.960 . S
H1651 C1638 0.962 . S
H1652 C1638 0.960 . S
H1653 C1639 0.961 . S
H1654 C1639 0.961 . S
H1655 C1639 0.961 . S
H1656 C1640 0.931 . S
H1657 C1645 0.930 . S
H1658 C1646 0.956 . S
H1659 C1646 0.961 . S
H1660 C1646 0.961 . S
H1661 C1647 0.958 . S
H1662 C1647 0.961 . S
H1663 C1647 0.960 . S
C1664 C1665 1.391 . S
C1664 C1666 1.394 . S
C1664 H1680 0.931 . S
C1665 C1664 1.391 . S
C1665 C1669 1.376 . S
C1666 C1664 1.394 . S
C1666 C1667 1.369 . S
C1666 C1670 1.531 . S
C1667 C1666 1.369 . S
C1667 C1668 1.410 . S
C1667 C1675 1.503 . S
C1668 C1667 1.410 . S
C1668 C1669 1.392 . S
C1668 C1671 1.511 . S
C1669 C1665 1.376 . S
C1669 C1668 1.392 . S
C1669 H1681 0.929 . S
C1670 C1666 1.531 . S
C1670 H1682 0.960 . S
C1670 H1683 0.962 . S
C1670 H1684 0.960 . S
C1671 C1668 1.511 . S
C1671 H1685 0.961 . S
C1671 H1686 0.961 . S
C1671 H1687 0.961 . S
C1672 C1673 1.370 . S
C1672 C1674 1.363 . S
C1672 H1688 0.931 . S
C1673 C1672 1.370 . S
C1673 C1677 1.408 . S
C1674 C1672 1.363 . S
C1674 C1675 1.370 . S
C1674 C1678 1.524 . S
C1675 C1667 1.503 . S
C1675 C1674 1.370 . S
C1675 C1676 1.403 . S
C1676 C1675 1.403 . S
C1676 C1677 1.404 . S
C1676 C1679 1.539 . S
C1677 C1673 1.408 . S
C1677 C1676 1.404 . S
C1677 H1689 0.930 . S
C1678 C1674 1.524 . S
C1678 H1690 0.956 . S
C1678 H1691 0.961 . S
C1678 H1692 0.961 . S
C1679 C1676 1.539 . S
C1679 H1693 0.958 . S
C1679 H1694 0.961 . S
C1679 H1695 0.960 . S
H1680 C1664 0.931 . S
H1681 C1669 0.929 . S
H1682 C1670 0.960 . S
H1683 C1670 0.962 . S
H1684 C1670 0.960 . S
H1685 C1671 0.961 . S
H1686 C1671 0.961 . S
H1687 C1671 0.961 . S
H1688 C1672 0.931 . S
H1689 C1677 0.930 . S
H1690 C1678 0.956 . S
H1691 C1678 0.961 . S
H1692 C1678 0.961 . S
H1693 C1679 0.958 . S
H1694 C1679 0.961 . S
H1695 C1679 0.960 . S
C1696 C1697 1.380 1_565 S
C1696 C1698 1.394 . S
C1696 H1712 0.931 . S
C1697 C1696 1.380 1_545 S
C1697 C1701 1.378 . S
C1698 C1696 1.394 . S
C1698 C1699 1.369 . S
C1698 C1702 1.531 . S
C1699 C1698 1.369 . S
C1699 C1700 1.410 . S
C1699 C1707 1.503 . S
C1700 C1699 1.410 . S
C1700 C1701 1.392 1_565 S
C1700 C1703 1.511 . S
C1701 C1697 1.378 . S
C1701 C1700 1.392 1_545 S
C1701 H1713 0.929 . S
C1702 C1698 1.531 . S
C1702 H1714 0.960 . S
C1702 H1715 0.962 . S
C1702 H1716 0.960 . S
C1703 C1700 1.511 . S
C1703 H1717 0.958 1_565 S
C1703 H1718 0.961 . S
C1703 H1719 0.939 1_565 S
C1704 C1705 1.370 . S
C1704 C1706 1.363 . S
C1704 H1720 0.931 . S
C1705 C1704 1.370 . S
C1705 C1709 1.408 . S
C1706 C1704 1.363 . S
C1706 C1707 1.370 . S
C1706 C1710 1.524 . S
C1707 C1699 1.503 . S
C1707 C1706 1.370 . S
C1707 C1708 1.403 . S
C1708 C1707 1.403 . S
C1708 C1709 1.404 . S
C1708 C1711 1.539 . S
C1709 C1705 1.408 . S
C1709 C1708 1.404 . S
C1709 H1721 0.930 . S
C1710 C1706 1.524 . S
C1710 H1722 0.956 . S
C1710 H1723 0.961 . S
C1710 H1724 0.961 . S
C1711 C1708 1.539 . S
C1711 H1725 0.958 . S
C1711 H1726 0.961 . S
C1711 H1727 0.960 . S
H1712 C1696 0.931 . S
H1713 C1701 0.929 . S
H1714 C1702 0.960 . S
H1715 C1702 0.962 . S
H1716 C1702 0.960 . S
H1717 C1703 0.958 1_545 S
H1718 C1703 0.961 . S
H1719 C1703 0.939 1_545 S
H1720 C1704 0.931 . S
H1721 C1709 0.930 . S
H1722 C1710 0.956 . S
H1723 C1710 0.961 . S
H1724 C1710 0.961 . S
H1725 C1711 0.958 . S
H1726 C1711 0.961 . S
H1727 C1711 0.960 . S
C1728 C1729 1.391 . S
C1728 C1730 1.394 . S
C1728 H1744 0.931 . S
C1729 C1728 1.391 . S
C1729 C1733 1.376 . S
C1730 C1728 1.394 . S
C1730 C1731 1.369 . S
C1730 C1734 1.531 . S
C1731 C1730 1.369 . S
C1731 C1732 1.410 . S
C1731 C1739 1.503 . S
C1732 C1731 1.410 . S
C1732 C1733 1.392 . S
C1732 C1735 1.511 . S
C1733 C1729 1.376 . S
C1733 C1732 1.392 . S
C1733 H1745 0.929 . S
C1734 C1730 1.531 . S
C1734 H1746 0.960 . S
C1734 H1747 0.962 . S
C1734 H1748 0.960 . S
C1735 C1732 1.511 . S
C1735 H1749 0.961 . S
C1735 H1750 0.961 . S
C1735 H1751 0.961 . S
C1736 C1737 1.370 . S
C1736 C1738 1.363 . S
C1736 H1752 0.931 . S
C1737 C1736 1.370 . S
C1737 C1741 1.408 . S
C1738 C1736 1.363 . S
C1738 C1739 1.370 . S
C1738 C1742 1.524 . S
C1739 C1731 1.503 . S
C1739 C1738 1.370 . S
C1739 C1740 1.403 . S
C1740 C1739 1.403 . S
C1740 C1741 1.404 . S
C1740 C1743 1.539 . S
C1741 C1737 1.408 . S
C1741 C1740 1.404 . S
C1741 H1753 0.930 . S
C1742 C1738 1.524 . S
C1742 H1754 0.956 . S
C1742 H1755 0.961 . S
C1742 H1756 0.961 . S
C1743 C1740 1.539 . S
C1743 H1757 0.958 . S
C1743 H1758 0.961 . S
C1743 H1759 0.960 . S
H1744 C1728 0.931 . S
H1745 C1733 0.929 . S
H1746 C1734 0.960 . S
H1747 C1734 0.962 . S
H1748 C1734 0.960 . S
H1749 C1735 0.961 . S
H1750 C1735 0.961 . S
H1751 C1735 0.961 . S
H1752 C1736 0.931 . S
H1753 C1741 0.930 . S
H1754 C1742 0.956 . S
H1755 C1742 0.961 . S
H1756 C1742 0.961 . S
H1757 C1743 0.958 . S
H1758 C1743 0.961 . S
H1759 C1743 0.960 . S
C1760 C1761 1.391 . S
C1760 C1762 1.394 . S
C1760 H1776 0.931 . S
C1761 C1760 1.391 . S
C1761 C1765 1.376 . S
C1762 C1760 1.394 . S
C1762 C1763 1.369 . S
C1762 C1766 1.531 . S
C1763 C1762 1.369 . S
C1763 C1764 1.410 . S
C1763 C1771 1.503 . S
C1764 C1763 1.410 . S
C1764 C1765 1.392 . S
C1764 C1767 1.511 . S
C1765 C1761 1.376 . S
C1765 C1764 1.392 . S
C1765 H1777 0.929 . S
C1766 C1762 1.531 . S
C1766 H1778 0.960 . S
C1766 H1779 0.962 . S
C1766 H1780 0.960 . S
C1767 C1764 1.511 . S
C1767 H1781 0.961 . S
C1767 H1782 0.961 . S
C1767 H1783 0.961 . S
C1768 C1769 1.383 . S
C1768 C1770 1.363 . S
C1768 H1784 0.931 . S
C1769 C1768 1.383 . S
C1769 C1773 1.423 . S
C1770 C1768 1.363 . S
C1770 C1771 1.370 . S
C1770 C1774 1.524 . S
C1771 C1763 1.503 . S
C1771 C1770 1.370 . S
C1771 C1772 1.403 . S
C1772 C1771 1.403 . S
C1772 C1773 1.404 . S
C1772 C1775 1.539 . S
C1773 C1769 1.423 . S
C1773 C1772 1.404 . S
C1773 H1785 0.930 . S
C1774 C1770 1.524 . S
C1774 H1786 0.956 . S
C1774 H1787 0.961 . S
C1774 H1788 0.961 . S
C1775 C1772 1.539 . S
C1775 H1789 0.958 . S
C1775 H1790 0.961 . S
C1775 H1791 0.960 . S
H1776 C1760 0.931 . S
H1777 C1765 0.929 . S
H1778 C1766 0.960 . S
H1779 C1766 0.962 . S
H1780 C1766 0.960 . S
H1781 C1767 0.961 . S
H1782 C1767 0.961 . S
H1783 C1767 0.961 . S
H1784 C1768 0.931 . S
H1785 C1773 0.930 . S
H1786 C1774 0.956 . S
H1787 C1774 0.961 . S
H1788 C1774 0.961 . S
H1789 C1775 0.958 . S
H1790 C1775 0.961 . S
H1791 C1775 0.960 . S
C1792 C1793 1.391 . S
C1792 C1794 1.394 . S
C1792 H1808 0.931 . S
C1793 C1792 1.391 . S
C1793 C1797 1.376 . S
C1794 C1792 1.394 . S
C1794 C1795 1.369 . S
C1794 C1798 1.531 . S
C1795 C1794 1.369 . S
C1795 C1796 1.410 . S
C1795 C1803 1.503 . S
C1796 C1795 1.410 . S
C1796 C1797 1.392 . S
C1796 C1799 1.511 . S
C1797 C1793 1.376 . S
C1797 C1796 1.392 . S
C1797 H1809 0.929 . S
C1798 C1794 1.531 . S
C1798 H1810 0.960 . S
C1798 H1811 0.962 . S
C1798 H1812 0.960 . S
C1799 C1796 1.511 . S
C1799 H1813 0.961 . S
C1799 H1814 0.961 . S
C1799 H1815 0.961 . S
C1800 C1801 1.370 . S
C1800 C1802 1.363 . S
C1800 H1816 0.931 . S
C1801 C1800 1.370 . S
C1801 C1805 1.408 . S
C1802 C1800 1.363 . S
C1802 C1803 1.370 . S
C1802 C1806 1.524 . S
C1803 C1795 1.503 . S
C1803 C1802 1.370 . S
C1803 C1804 1.403 . S
C1804 C1803 1.403 . S
C1804 C1805 1.404 . S
C1804 C1807 1.539 . S
C1805 C1801 1.408 . S
C1805 C1804 1.404 . S
C1805 H1817 0.930 . S
C1806 C1802 1.524 . S
C1806 H1818 0.956 . S
C1806 H1819 0.961 . S
C1806 H1820 0.961 . S
C1807 C1804 1.539 . S
C1807 H1821 0.958 . S
C1807 H1822 0.961 . S
C1807 H1823 0.960 . S
H1808 C1792 0.931 . S
H1809 C1797 0.929 . S
H1810 C1798 0.960 . S
H1811 C1798 0.962 . S
H1812 C1798 0.960 . S
H1813 C1799 0.961 . S
H1814 C1799 0.961 . S
H1815 C1799 0.961 . S
H1816 C1800 0.931 . S
H1817 C1805 0.930 . S
H1818 C1806 0.956 . S
H1819 C1806 0.961 . S
H1820 C1806 0.961 . S
H1821 C1807 0.958 . S
H1822 C1807 0.961 . S
H1823 C1807 0.960 . S
C1824 C1825 1.391 . S
C1824 C1826 1.394 . S
C1824 H1840 0.931 . S
C1825 C1824 1.391 . S
C1825 C1829 1.376 . S
C1826 C1824 1.394 . S
C1826 C1827 1.369 . S
C1826 C1830 1.531 . S
C1827 C1826 1.369 . S
C1827 C1828 1.410 . S
C1827 C1835 1.503 . S
C1828 C1827 1.410 . S
C1828 C1829 1.392 . S
C1828 C1831 1.511 . S
C1829 C1825 1.376 . S
C1829 C1828 1.392 . S
C1829 H1841 0.929 . S
C1830 C1826 1.531 . S
C1830 H1842 0.960 . S
C1830 H1843 0.962 . S
C1830 H1844 0.960 . S
C1831 C1828 1.511 . S
C1831 H1845 0.961 . S
C1831 H1846 0.961 . S
C1831 H1847 0.961 . S
C1832 C1833 1.370 . S
C1832 C1834 1.363 . S
C1832 H1848 0.931 . S
C1833 C1832 1.370 . S
C1833 C1837 1.408 . S
C1834 C1832 1.363 . S
C1834 C1835 1.370 . S
C1834 C1838 1.524 . S
C1835 C1827 1.503 . S
C1835 C1834 1.370 . S
C1835 C1836 1.403 . S
C1836 C1835 1.403 . S
C1836 C1837 1.404 . S
C1836 C1839 1.539 . S
C1837 C1833 1.408 . S
C1837 C1836 1.404 . S
C1837 H1849 0.930 . S
C1838 C1834 1.524 . S
C1838 H1850 0.956 . S
C1838 H1851 0.961 . S
C1838 H1852 0.961 . S
C1839 C1836 1.539 . S
C1839 H1853 0.958 . S
C1839 H1854 0.961 . S
C1839 H1855 0.960 . S
H1840 C1824 0.931 . S
H1841 C1829 0.929 . S
H1842 C1830 0.960 . S
H1843 C1830 0.962 . S
H1844 C1830 0.960 . S
H1845 C1831 0.961 . S
H1846 C1831 0.961 . S
H1847 C1831 0.961 . S
H1848 C1832 0.931 . S
H1849 C1837 0.930 . S
H1850 C1838 0.956 . S
H1851 C1838 0.961 . S
H1852 C1838 0.961 . S
H1853 C1839 0.958 . S
H1854 C1839 0.961 . S
H1855 C1839 0.960 . S
C1856 C1857 1.391 . S
C1856 C1858 1.394 . S
C1856 H1872 0.931 . S
C1857 C1856 1.391 . S
C1857 C1861 1.376 . S
C1858 C1856 1.394 . S
C1858 C1859 1.369 . S
C1858 C1862 1.531 . S
C1859 C1858 1.369 . S
C1859 C1860 1.410 . S
C1859 C1867 1.503 . S
C1860 C1859 1.410 . S
C1860 C1861 1.392 . S
C1860 C1863 1.511 . S
C1861 C1857 1.376 . S
C1861 C1860 1.392 . S
C1861 H1873 0.929 . S
C1862 C1858 1.531 . S
C1862 H1874 0.960 . S
C1862 H1875 0.962 . S
C1862 H1876 0.960 . S
C1863 C1860 1.511 . S
C1863 H1877 0.961 . S
C1863 H1878 0.961 . S
C1863 H1879 0.961 . S
C1864 C1865 1.370 . S
C1864 C1866 1.363 . S
C1864 H1880 0.931 . S
C1865 C1864 1.370 . S
C1865 C1869 1.408 . S
C1866 C1864 1.363 . S
C1866 C1867 1.370 . S
C1866 C1870 1.524 . S
C1867 C1859 1.503 . S
C1867 C1866 1.370 . S
C1867 C1868 1.403 . S
C1868 C1867 1.403 . S
C1868 C1869 1.404 . S
C1868 C1871 1.539 . S
C1869 C1865 1.408 . S
C1869 C1868 1.404 . S
C1869 H1881 0.930 . S
C1870 C1866 1.524 . S
C1870 H1882 0.956 . S
C1870 H1883 0.961 . S
C1870 H1884 0.961 . S
C1871 C1868 1.539 . S
C1871 H1885 0.958 . S
C1871 H1886 0.961 . S
C1871 H1887 0.960 . S
H1872 C1856 0.931 . S
H1873 C1861 0.929 . S
H1874 C1862 0.960 . S
H1875 C1862 0.962 . S
H1876 C1862 0.960 . S
H1877 C1863 0.961 . S
H1878 C1863 0.961 . S
H1879 C1863 0.961 . S
H1880 C1864 0.931 . S
H1881 C1869 0.930 . S
H1882 C1870 0.956 . S
H1883 C1870 0.961 . S
H1884 C1870 0.961 . S
H1885 C1871 0.958 . S
H1886 C1871 0.961 . S
H1887 C1871 0.960 . S
C1888 C1889 1.391 . S
C1888 C1890 1.394 . S
C1888 H1904 0.931 . S
C1889 C1888 1.391 . S
C1889 C1893 1.376 . S
C1890 C1888 1.394 . S
C1890 C1891 1.369 . S
C1890 C1894 1.531 . S
C1891 C1890 1.369 . S
C1891 C1892 1.410 . S
C1891 C1899 1.503 . S
C1892 C1891 1.410 . S
C1892 C1893 1.392 . S
C1892 C1895 1.511 . S
C1893 C1889 1.376 . S
C1893 C1892 1.392 . S
C1893 H1905 0.929 . S
C1894 C1890 1.531 . S
C1894 H1906 0.960 . S
C1894 H1907 0.962 . S
C1894 H1908 0.960 . S
C1895 C1892 1.511 . S
C1895 H1909 0.961 . S
C1895 H1910 0.961 . S
C1895 H1911 0.961 . S
C1896 C1897 1.370 . S
C1896 C1898 1.363 . S
C1896 H1912 0.931 . S
C1897 C1896 1.370 . S
C1897 C1901 1.408 . S
C1898 C1896 1.363 . S
C1898 C1899 1.370 . S
C1898 C1902 1.524 . S
C1899 C1891 1.503 . S
C1899 C1898 1.370 . S
C1899 C1900 1.403 . S
C1900 C1899 1.403 . S
C1900 C1901 1.404 . S
C1900 C1903 1.539 . S
C1901 C1897 1.408 . S
C1901 C1900 1.404 . S
C1901 H1913 0.930 . S
C1902 C1898 1.524 . S
C1902 H1914 0.956 . S
C1902 H1915 0.961 . S
C1902 H1916 0.961 . S
C1903 C1900 1.539 . S
C1903 H1917 0.958 . S
C1903 H1918 0.961 . S
C1903 H1919 0.960 . S
H1904 C1888 0.931 . S
H1905 C1893 0.929 . S
H1906 C1894 0.960 . S
H1907 C1894 0.962 . S
H1908 C1894 0.960 . S
H1909 C1895 0.961 . S
H1910 C1895 0.961 . S
H1911 C1895 0.961 . S
H1912 C1896 0.931 . S
H1913 C1901 0.930 . S
H1914 C1902 0.956 . S
H1915 C1902 0.961 . S
H1916 C1902 0.961 . S
H1917 C1903 0.958 . S
H1918 C1903 0.961 . S
H1919 C1903 0.960 . S
C1920 C1921 1.391 . S
C1920 C1922 1.394 . S
C1920 H1936 0.931 . S
C1921 C1920 1.391 . S
C1921 C1925 1.376 . S
C1922 C1920 1.394 . S
C1922 C1923 1.369 . S
C1922 C1926 1.531 . S
C1923 C1922 1.369 . S
C1923 C1924 1.410 . S
C1923 C1931 1.503 . S
C1924 C1923 1.410 . S
C1924 C1925 1.392 . S
C1924 C1927 1.511 . S
C1925 C1921 1.376 . S
C1925 C1924 1.392 . S
C1925 H1937 0.929 . S
C1926 C1922 1.531 . S
C1926 H1938 0.960 . S
C1926 H1939 0.962 . S
C1926 H1940 0.960 . S
C1927 C1924 1.511 . S
C1927 H1941 0.961 . S
C1927 H1942 0.961 . S
C1927 H1943 0.961 . S
C1928 C1929 1.370 . S
C1928 C1930 1.363 . S
C1928 H1944 0.931 . S
C1929 C1928 1.370 . S
C1929 C1933 1.408 . S
C1930 C1928 1.363 . S
C1930 C1931 1.370 . S
C1930 C1934 1.524 . S
C1931 C1923 1.503 . S
C1931 C1930 1.370 . S
C1931 C1932 1.403 . S
C1932 C1931 1.403 . S
C1932 C1933 1.404 . S
C1932 C1935 1.539 . S
C1933 C1929 1.408 . S
C1933 C1932 1.404 . S
C1933 H1945 0.930 . S
C1934 C1930 1.524 . S
C1934 H1946 0.956 . S
C1934 H1947 0.961 . S
C1934 H1948 0.961 . S
C1935 C1932 1.539 . S
C1935 H1949 0.958 . S
C1935 H1950 0.961 . S
C1935 H1951 0.960 . S
H1936 C1920 0.931 . S
H1937 C1925 0.929 . S
H1938 C1926 0.960 . S
H1939 C1926 0.962 . S
H1940 C1926 0.960 . S
H1941 C1927 0.961 . S
H1942 C1927 0.961 . S
H1943 C1927 0.961 . S
H1944 C1928 0.931 . S
H1945 C1933 0.930 . S
H1946 C1934 0.956 . S
H1947 C1934 0.961 . S
H1948 C1934 0.961 . S
H1949 C1935 0.958 . S
H1950 C1935 0.961 . S
H1951 C1935 0.960 . S
C1952 C1953 1.391 . S
C1952 C1954 1.394 . S
C1952 H1968 0.931 . S
C1953 C1952 1.391 . S
C1953 C1957 1.376 . S
C1954 C1952 1.394 . S
C1954 C1955 1.369 . S
C1954 C1958 1.531 . S
C1955 C1954 1.369 . S
C1955 C1956 1.410 . S
C1955 C1963 1.503 . S
C1956 C1955 1.410 . S
C1956 C1957 1.392 . S
C1956 C1959 1.511 . S
C1957 C1953 1.376 . S
C1957 C1956 1.392 . S
C1957 H1969 0.929 . S
C1958 C1954 1.531 . S
C1958 H1970 0.960 . S
C1958 H1971 0.962 . S
C1958 H1972 0.960 . S
C1959 C1956 1.511 . S
C1959 H1973 0.961 . S
C1959 H1974 0.961 . S
C1959 H1975 0.961 . S
C1960 C1961 1.370 . S
C1960 C1962 1.363 . S
C1960 H1976 0.931 . S
C1961 C1960 1.370 . S
C1961 C1965 1.408 . S
C1962 C1960 1.363 . S
C1962 C1963 1.370 . S
C1962 C1966 1.524 . S
C1963 C1955 1.503 . S
C1963 C1962 1.370 . S
C1963 C1964 1.403 . S
C1964 C1963 1.403 . S
C1964 C1965 1.404 . S
C1964 C1967 1.539 . S
C1965 C1961 1.408 . S
C1965 C1964 1.404 . S
C1965 H1977 0.930 . S
C1966 C1962 1.524 . S
C1966 H1978 0.956 . S
C1966 H1979 0.961 . S
C1966 H1980 0.961 . S
C1967 C1964 1.539 . S
C1967 H1981 0.958 . S
C1967 H1982 0.961 . S
C1967 H1983 0.960 . S
H1968 C1952 0.931 . S
H1969 C1957 0.929 . S
H1970 C1958 0.960 . S
H1971 C1958 0.962 . S
H1972 C1958 0.960 . S
H1973 C1959 0.961 . S
H1974 C1959 0.961 . S
H1975 C1959 0.961 . S
H1976 C1960 0.931 . S
H1977 C1965 0.930 . S
H1978 C1966 0.956 . S
H1979 C1966 0.961 . S
H1980 C1966 0.961 . S
H1981 C1967 0.958 . S
H1982 C1967 0.961 . S
H1983 C1967 0.960 . S
C1984 C1985 1.391 . S
C1984 C1986 1.394 . S
C1984 H2000 0.931 . S
C1985 C1984 1.391 . S
C1985 C1989 1.376 . S
C1986 C1984 1.394 . S
C1986 C1987 1.369 . S
C1986 C1990 1.531 . S
C1987 C1986 1.369 . S
C1987 C1988 1.410 . S
C1987 C1995 1.503 . S
C1988 C1987 1.410 . S
C1988 C1989 1.392 . S
C1988 C1991 1.511 . S
C1989 C1985 1.376 . S
C1989 C1988 1.392 . S
C1989 H2001 0.929 . S
C1990 C1986 1.531 . S
C1990 H2002 0.960 . S
C1990 H2003 0.962 . S
C1990 H2004 0.960 . S
C1991 C1988 1.511 . S
C1991 H2005 0.961 . S
C1991 H2006 0.961 . S
C1991 H2007 0.961 . S
C1992 C1993 1.370 . S
C1992 C1994 1.363 . S
C1992 H2008 0.931 . S
C1993 C1992 1.370 . S
C1993 C1997 1.408 . S
C1994 C1992 1.363 . S
C1994 C1995 1.370 . S
C1994 C1998 1.524 . S
C1995 C1987 1.503 . S
C1995 C1994 1.370 . S
C1995 C1996 1.403 . S
C1996 C1995 1.403 . S
C1996 C1997 1.404 . S
C1996 C1999 1.539 . S
C1997 C1993 1.408 . S
C1997 C1996 1.404 . S
C1997 H2009 0.930 . S
C1998 C1994 1.524 . S
C1998 H2010 0.956 . S
C1998 H2011 0.961 . S
C1998 H2012 0.961 . S
C1999 C1996 1.539 . S
C1999 H2013 0.958 . S
C1999 H2014 0.961 . S
C1999 H2015 0.960 . S
H2000 C1984 0.931 . S
H2001 C1989 0.929 . S
H2002 C1990 0.960 . S
H2003 C1990 0.962 . S
H2004 C1990 0.960 . S
H2005 C1991 0.961 . S
H2006 C1991 0.961 . S
H2007 C1991 0.961 . S
H2008 C1992 0.931 . S
H2009 C1997 0.930 . S
H2010 C1998 0.956 . S
H2011 C1998 0.961 . S
H2012 C1998 0.961 . S
H2013 C1999 0.958 . S
H2014 C1999 0.961 . S
H2015 C1999 0.960 . S
C2016 C2017 1.391 . S
C2016 C2018 1.394 . S
C2016 H2032 0.931 . S
C2017 C2016 1.391 . S
C2017 C2021 1.376 . S
C2018 C2016 1.394 . S
C2018 C2019 1.369 . S
C2018 C2022 1.531 . S
C2019 C2018 1.369 . S
C2019 C2020 1.410 . S
C2019 C2027 1.503 . S
C2020 C2019 1.410 . S
C2020 C2021 1.392 . S
C2020 C2023 1.511 . S
C2021 C2017 1.376 . S
C2021 C2020 1.392 . S
C2021 H2033 0.929 . S
C2022 C2018 1.531 . S
C2022 H2034 0.960 . S
C2022 H2035 0.962 . S
C2022 H2036 0.960 . S
C2023 C2020 1.511 . S
C2023 H2037 0.961 . S
C2023 H2038 0.961 . S
C2023 H2039 0.961 . S
C2024 C2025 1.370 . S
C2024 C2026 1.363 . S
C2024 H2040 0.931 . S
C2025 C2024 1.370 . S
C2025 C2029 1.408 . S
C2026 C2024 1.363 . S
C2026 C2027 1.370 . S
C2026 C2030 1.524 . S
C2027 C2019 1.503 . S
C2027 C2026 1.370 . S
C2027 C2028 1.403 . S
C2028 C2027 1.403 . S
C2028 C2029 1.404 . S
C2028 C2031 1.539 . S
C2029 C2025 1.408 . S
C2029 C2028 1.404 . S
C2029 H2041 0.930 . S
C2030 C2026 1.524 . S
C2030 H2042 0.956 . S
C2030 H2043 0.961 . S
C2030 H2044 0.961 . S
C2031 C2028 1.539 . S
C2031 H2045 0.958 . S
C2031 H2046 0.961 . S
C2031 H2047 0.960 . S
H2032 C2016 0.931 . S
H2033 C2021 0.929 . S
H2034 C2022 0.960 . S
H2035 C2022 0.962 . S
H2036 C2022 0.960 . S
H2037 C2023 0.961 . S
H2038 C2023 0.961 . S
H2039 C2023 0.961 . S
H2040 C2024 0.931 . S
H2041 C2029 0.930 . S
H2042 C2030 0.956 . S
H2043 C2030 0.961 . S
H2044 C2030 0.961 . S
H2045 C2031 0.958 . S
H2046 C2031 0.961 . S
H2047 C2031 0.960 . S
C2048 C2049 1.391 . S
C2048 C2050 1.394 . S
C2048 H2064 0.931 . S
C2049 C2048 1.391 . S
C2049 C2053 1.376 . S
C2050 C2048 1.394 . S
C2050 C2051 1.369 . S
C2050 C2054 1.531 . S
C2051 C2050 1.369 . S
C2051 C2052 1.410 . S
C2051 C2059 1.503 . S
C2052 C2051 1.410 . S
C2052 C2053 1.392 . S
C2052 C2055 1.511 . S
C2053 C2049 1.376 . S
C2053 C2052 1.392 . S
C2053 H2065 0.929 . S
C2054 C2050 1.531 . S
C2054 H2066 0.960 . S
C2054 H2067 0.962 . S
C2054 H2068 0.960 . S
C2055 C2052 1.511 . S
C2055 H2069 0.961 . S
C2055 H2070 0.961 . S
C2055 H2071 0.961 . S
C2056 C2057 1.370 . S
C2056 C2058 1.363 . S
C2056 H2072 0.931 . S
C2057 C2056 1.370 . S
C2057 C2061 1.408 . S
C2058 C2056 1.363 . S
C2058 C2059 1.370 . S
C2058 C2062 1.524 . S
C2059 C2051 1.503 . S
C2059 C2058 1.370 . S
C2059 C2060 1.403 . S
C2060 C2059 1.403 . S
C2060 C2061 1.404 . S
C2060 C2063 1.539 . S
C2061 C2057 1.408 . S
C2061 C2060 1.404 . S
C2061 H2073 0.930 . S
C2062 C2058 1.524 . S
C2062 H2074 0.956 . S
C2062 H2075 0.961 . S
C2062 H2076 0.961 . S
C2063 C2060 1.539 . S
C2063 H2077 0.958 . S
C2063 H2078 0.961 . S
C2063 H2079 0.960 . S
H2064 C2048 0.931 . S
H2065 C2053 0.929 . S
H2066 C2054 0.960 . S
H2067 C2054 0.962 . S
H2068 C2054 0.960 . S
H2069 C2055 0.961 . S
H2070 C2055 0.961 . S
H2071 C2055 0.961 . S
H2072 C2056 0.931 . S
H2073 C2061 0.930 . S
H2074 C2062 0.956 . S
H2075 C2062 0.961 . S
H2076 C2062 0.961 . S
H2077 C2063 0.958 . S
H2078 C2063 0.961 . S
H2079 C2063 0.960 . S
C2080 C2081 1.391 . S
C2080 C2082 1.394 . S
C2080 H2096 0.931 . S
C2081 C2080 1.391 . S
C2081 C2085 1.376 . S
C2082 C2080 1.394 . S
C2082 C2083 1.369 . S
C2082 C2086 1.531 . S
C2083 C2082 1.369 . S
C2083 C2084 1.410 . S
C2083 C2091 1.503 . S
C2084 C2083 1.410 . S
C2084 C2085 1.392 . S
C2084 C2087 1.511 . S
C2085 C2081 1.376 . S
C2085 C2084 1.392 . S
C2085 H2097 0.929 . S
C2086 C2082 1.531 . S
C2086 H2098 0.960 . S
C2086 H2099 0.962 . S
C2086 H2100 0.960 . S
C2087 C2084 1.511 . S
C2087 H2101 0.961 . S
C2087 H2102 0.961 . S
C2087 H2103 0.961 . S
C2088 C2089 1.370 . S
C2088 C2090 1.363 . S
C2088 H2104 0.931 . S
C2089 C2088 1.370 . S
C2089 C2093 1.408 . S
C2090 C2088 1.363 . S
C2090 C2091 1.370 . S
C2090 C2094 1.524 . S
C2091 C2083 1.503 . S
C2091 C2090 1.370 . S
C2091 C2092 1.403 . S
C2092 C2091 1.403 . S
C2092 C2093 1.404 . S
C2092 C2095 1.539 . S
C2093 C2089 1.408 . S
C2093 C2092 1.404 . S
C2093 H2105 0.930 . S
C2094 C2090 1.524 . S
C2094 H2106 0.956 . S
C2094 H2107 0.961 . S
C2094 H2108 0.961 . S
C2095 C2092 1.539 . S
C2095 H2109 0.958 . S
C2095 H2110 0.961 . S
C2095 H2111 0.960 . S
H2096 C2080 0.931 . S
H2097 C2085 0.929 . S
H2098 C2086 0.960 . S
H2099 C2086 0.962 . S
H2100 C2086 0.960 . S
H2101 C2087 0.961 . S
H2102 C2087 0.961 . S
H2103 C2087 0.961 . S
H2104 C2088 0.931 . S
H2105 C2093 0.930 . S
H2106 C2094 0.956 . S
H2107 C2094 0.961 . S
H2108 C2094 0.961 . S
H2109 C2095 0.958 . S
H2110 C2095 0.961 . S
H2111 C2095 0.960 . S
C2112 C2113 1.391 . S
C2112 C2114 1.394 . S
C2112 H2128 0.931 . S
C2113 C2112 1.391 . S
C2113 C2117 1.376 . S
C2114 C2112 1.394 . S
C2114 C2115 1.369 . S
C2114 C2118 1.531 . S
C2115 C2114 1.369 . S
C2115 C2116 1.410 . S
C2115 C2123 1.503 . S
C2116 C2115 1.410 . S
C2116 C2117 1.392 . S
C2116 C2119 1.511 . S
C2117 C2113 1.376 . S
C2117 C2116 1.392 . S
C2117 H2129 0.929 . S
C2118 C2114 1.531 . S
C2118 H2130 0.960 . S
C2118 H2131 0.962 . S
C2118 H2132 0.960 . S
C2119 C2116 1.511 . S
C2119 H2133 0.961 . S
C2119 H2134 0.961 . S
C2119 H2135 0.961 . S
C2120 C2121 1.370 . S
C2120 C2122 1.363 . S
C2120 H2136 0.931 . S
C2121 C2120 1.370 . S
C2121 C2125 1.408 . S
C2122 C2120 1.363 . S
C2122 C2123 1.370 . S
C2122 C2126 1.524 . S
C2123 C2115 1.503 . S
C2123 C2122 1.370 . S
C2123 C2124 1.403 . S
C2124 C2123 1.403 . S
C2124 C2125 1.404 . S
C2124 C2127 1.539 . S
C2125 C2121 1.408 . S
C2125 C2124 1.404 . S
C2125 H2137 0.930 . S
C2126 C2122 1.524 . S
C2126 H2138 0.956 . S
C2126 H2139 0.961 . S
C2126 H2140 0.961 . S
C2127 C2124 1.539 . S
C2127 H2141 0.958 . S
C2127 H2142 0.961 . S
C2127 H2143 0.960 . S
H2128 C2112 0.931 . S
H2129 C2117 0.929 . S
H2130 C2118 0.960 . S
H2131 C2118 0.962 . S
H2132 C2118 0.960 . S
H2133 C2119 0.961 . S
H2134 C2119 0.961 . S
H2135 C2119 0.961 . S
H2136 C2120 0.931 . S
H2137 C2125 0.930 . S
H2138 C2126 0.956 . S
H2139 C2126 0.961 . S
H2140 C2126 0.961 . S
H2141 C2127 0.958 . S
H2142 C2127 0.961 . S
H2143 C2127 0.960 . S
C2144 C2145 1.391 . S
C2144 C2146 1.394 . S
C2144 H2160 0.931 . S
C2145 C2144 1.391 . S
C2145 C2149 1.376 . S
C2146 C2144 1.394 . S
C2146 C2147 1.369 . S
C2146 C2150 1.531 . S
C2147 C2146 1.369 . S
C2147 C2148 1.410 . S
C2147 C2155 1.503 . S
C2148 C2147 1.410 . S
C2148 C2149 1.392 . S
C2148 C2151 1.511 . S
C2149 C2145 1.376 . S
C2149 C2148 1.392 . S
C2149 H2161 0.929 . S
C2150 C2146 1.531 . S
C2150 H2162 0.960 . S
C2150 H2163 0.962 . S
C2150 H2164 0.960 . S
C2151 C2148 1.511 . S
C2151 H2165 0.961 . S
C2151 H2166 0.961 . S
C2151 H2167 0.961 . S
C2152 C2153 1.370 . S
C2152 C2154 1.363 . S
C2152 H2168 0.931 . S
C2153 C2152 1.370 . S
C2153 C2157 1.408 . S
C2154 C2152 1.363 . S
C2154 C2155 1.370 . S
C2154 C2158 1.524 . S
C2155 C2147 1.503 . S
C2155 C2154 1.370 . S
C2155 C2156 1.403 . S
C2156 C2155 1.403 . S
C2156 C2157 1.404 . S
C2156 C2159 1.539 . S
C2157 C2153 1.408 . S
C2157 C2156 1.404 . S
C2157 H2169 0.930 . S
C2158 C2154 1.524 . S
C2158 H2170 0.956 . S
C2158 H2171 0.961 . S
C2158 H2172 0.961 . S
C2159 C2156 1.539 . S
C2159 H2173 0.958 . S
C2159 H2174 0.961 . S
C2159 H2175 0.960 . S
H2160 C2144 0.931 . S
H2161 C2149 0.929 . S
H2162 C2150 0.960 . S
H2163 C2150 0.962 . S
H2164 C2150 0.960 . S
H2165 C2151 0.961 . S
H2166 C2151 0.961 . S
H2167 C2151 0.961 . S
H2168 C2152 0.931 . S
H2169 C2157 0.930 . S
H2170 C2158 0.956 . S
H2171 C2158 0.961 . S
H2172 C2158 0.961 . S
H2173 C2159 0.958 . S
H2174 C2159 0.961 . S
H2175 C2159 0.960 . S
C2176 C2177 1.391 . S
C2176 C2178 1.394 . S
C2176 H2192 0.931 . S
C2177 C2176 1.391 . S
C2177 C2181 1.376 . S
C2178 C2176 1.394 . S
C2178 C2179 1.369 . S
C2178 C2182 1.531 . S
C2179 C2178 1.369 . S
C2179 C2180 1.410 . S
C2179 C2187 1.503 . S
C2180 C2179 1.410 . S
C2180 C2181 1.392 . S
C2180 C2183 1.511 . S
C2181 C2177 1.376 . S
C2181 C2180 1.392 . S
C2181 H2193 0.929 . S
C2182 C2178 1.531 . S
C2182 H2194 0.960 . S
C2182 H2195 0.962 . S
C2182 H2196 0.960 . S
C2183 C2180 1.511 . S
C2183 H2197 0.961 . S
C2183 H2198 0.961 . S
C2183 H2199 0.961 . S
C2184 C2185 1.370 . S
C2184 C2186 1.363 . S
C2184 H2200 0.931 . S
C2185 C2184 1.370 . S
C2185 C2189 1.408 . S
C2186 C2184 1.363 . S
C2186 C2187 1.370 . S
C2186 C2190 1.524 . S
C2187 C2179 1.503 . S
C2187 C2186 1.370 . S
C2187 C2188 1.403 . S
C2188 C2187 1.403 . S
C2188 C2189 1.404 . S
C2188 C2191 1.539 . S
C2189 C2185 1.408 . S
C2189 C2188 1.404 . S
C2189 H2201 0.930 . S
C2190 C2186 1.524 . S
C2190 H2202 0.956 . S
C2190 H2203 0.961 . S
C2190 H2204 0.961 . S
C2191 C2188 1.539 . S
C2191 H2205 0.958 . S
C2191 H2206 0.961 . S
C2191 H2207 0.960 . S
H2192 C2176 0.931 . S
H2193 C2181 0.929 . S
H2194 C2182 0.960 . S
H2195 C2182 0.962 . S
H2196 C2182 0.960 . S
H2197 C2183 0.961 . S
H2198 C2183 0.961 . S
H2199 C2183 0.961 . S
H2200 C2184 0.931 . S
H2201 C2189 0.930 . S
H2202 C2190 0.956 . S
H2203 C2190 0.961 . S
H2204 C2190 0.961 . S
H2205 C2191 0.958 . S
H2206 C2191 0.961 . S
H2207 C2191 0.960 . S
C2208 C2209 1.391 . S
C2208 C2210 1.394 . S
C2208 H2224 0.931 . S
C2209 C2208 1.391 . S
C2209 C2213 1.376 . S
C2210 C2208 1.394 . S
C2210 C2211 1.369 . S
C2210 C2214 1.531 . S
C2211 C2210 1.369 . S
C2211 C2212 1.410 . S
C2211 C2219 1.503 . S
C2212 C2211 1.410 . S
C2212 C2213 1.392 . S
C2212 C2215 1.511 . S
C2213 C2209 1.376 . S
C2213 C2212 1.392 . S
C2213 H2225 0.929 . S
C2214 C2210 1.531 . S
C2214 H2226 0.960 . S
C2214 H2227 0.962 . S
C2214 H2228 0.960 . S
C2215 C2212 1.511 . S
C2215 H2229 0.961 . S
C2215 H2230 0.961 . S
C2215 H2231 0.961 . S
C2216 C2217 1.370 . S
C2216 C2218 1.363 . S
C2216 H2232 0.931 . S
C2217 C2216 1.370 . S
C2217 C2221 1.408 . S
C2218 C2216 1.363 . S
C2218 C2219 1.370 . S
C2218 C2222 1.524 . S
C2219 C2211 1.503 . S
C2219 C2218 1.370 . S
C2219 C2220 1.403 . S
C2220 C2219 1.403 . S
C2220 C2221 1.404 . S
C2220 C2223 1.539 . S
C2221 C2217 1.408 . S
C2221 C2220 1.404 . S
C2221 H2233 0.930 . S
C2222 C2218 1.524 . S
C2222 H2234 0.956 . S
C2222 H2235 0.961 . S
C2222 H2236 0.961 . S
C2223 C2220 1.539 . S
C2223 H2237 0.958 . S
C2223 H2238 0.961 . S
C2223 H2239 0.960 . S
H2224 C2208 0.931 . S
H2225 C2213 0.929 . S
H2226 C2214 0.960 . S
H2227 C2214 0.962 . S
H2228 C2214 0.960 . S
H2229 C2215 0.961 . S
H2230 C2215 0.961 . S
H2231 C2215 0.961 . S
H2232 C2216 0.931 . S
H2233 C2221 0.930 . S
H2234 C2222 0.956 . S
H2235 C2222 0.961 . S
H2236 C2222 0.961 . S
H2237 C2223 0.958 . S
H2238 C2223 0.961 . S
H2239 C2223 0.960 . S
C2240 C2241 1.391 . S
C2240 C2242 1.394 . S
C2240 H2256 0.931 . S
C2241 C2240 1.391 . S
C2241 C2245 1.376 . S
C2242 C2240 1.394 . S
C2242 C2243 1.369 . S
C2242 C2246 1.531 . S
C2243 C2242 1.369 . S
C2243 C2244 1.410 . S
C2243 C2251 1.503 . S
C2244 C2243 1.410 . S
C2244 C2245 1.392 . S
C2244 C2247 1.511 . S
C2245 C2241 1.376 . S
C2245 C2244 1.392 . S
C2245 H2257 0.929 . S
C2246 C2242 1.531 . S
C2246 H2258 0.960 . S
C2246 H2259 0.962 . S
C2246 H2260 0.960 . S
C2247 C2244 1.511 . S
C2247 H2261 0.961 . S
C2247 H2262 0.961 . S
C2247 H2263 0.961 . S
C2248 C2249 1.370 . S
C2248 C2250 1.363 . S
C2248 H2264 0.931 . S
C2249 C2248 1.370 . S
C2249 C2253 1.408 . S
C2250 C2248 1.363 . S
C2250 C2251 1.370 . S
C2250 C2254 1.524 . S
C2251 C2243 1.503 . S
C2251 C2250 1.370 . S
C2251 C2252 1.403 . S
C2252 C2251 1.403 . S
C2252 C2253 1.404 . S
C2252 C2255 1.539 . S
C2253 C2249 1.408 . S
C2253 C2252 1.404 . S
C2253 H2265 0.930 . S
C2254 C2250 1.524 . S
C2254 H2266 0.956 . S
C2254 H2267 0.961 . S
C2254 H2268 0.961 . S
C2255 C2252 1.539 . S
C2255 H2269 0.958 . S
C2255 H2270 0.961 . S
C2255 H2271 0.960 . S
H2256 C2240 0.931 . S
H2257 C2245 0.929 . S
H2258 C2246 0.960 . S
H2259 C2246 0.962 . S
H2260 C2246 0.960 . S
H2261 C2247 0.961 . S
H2262 C2247 0.961 . S
H2263 C2247 0.961 . S
H2264 C2248 0.931 . S
H2265 C2253 0.930 . S
H2266 C2254 0.956 . S
H2267 C2254 0.961 . S
H2268 C2254 0.961 . S
H2269 C2255 0.958 . S
H2270 C2255 0.961 . S
H2271 C2255 0.960 . S
C2272 C2273 1.391 . S
C2272 C2274 1.394 . S
C2272 H2288 0.931 . S
C2273 C2272 1.391 . S
C2273 C2277 1.376 . S
C2274 C2272 1.394 . S
C2274 C2275 1.369 . S
C2274 C2278 1.531 . S
C2275 C2274 1.369 . S
C2275 C2276 1.410 . S
C2275 C2283 1.503 . S
C2276 C2275 1.410 . S
C2276 C2277 1.392 . S
C2276 C2279 1.511 . S
C2277 C2273 1.376 . S
C2277 C2276 1.392 . S
C2277 H2289 0.929 . S
C2278 C2274 1.531 . S
C2278 H2290 0.960 . S
C2278 H2291 0.962 . S
C2278 H2292 0.960 . S
C2279 C2276 1.511 . S
C2279 H2293 0.961 . S
C2279 H2294 0.961 . S
C2279 H2295 0.961 . S
C2280 C2281 1.370 . S
C2280 C2282 1.363 . S
C2280 H2296 0.931 . S
C2281 C2280 1.370 . S
C2281 C2285 1.408 . S
C2282 C2280 1.363 . S
C2282 C2283 1.370 . S
C2282 C2286 1.524 . S
C2283 C2275 1.503 . S
C2283 C2282 1.370 . S
C2283 C2284 1.403 . S
C2284 C2283 1.403 . S
C2284 C2285 1.404 . S
C2284 C2287 1.539 . S
C2285 C2281 1.408 . S
C2285 C2284 1.404 . S
C2285 H2297 0.930 . S
C2286 C2282 1.524 . S
C2286 H2298 0.956 . S
C2286 H2299 0.961 . S
C2286 H2300 0.961 . S
C2287 C2284 1.539 . S
C2287 H2301 0.958 . S
C2287 H2302 0.961 . S
C2287 H2303 0.960 . S
H2288 C2272 0.931 . S
H2289 C2277 0.929 . S
H2290 C2278 0.960 . S
H2291 C2278 0.962 . S
H2292 C2278 0.960 . S
H2293 C2279 0.961 . S
H2294 C2279 0.961 . S
H2295 C2279 0.961 . S
H2296 C2280 0.931 . S
H2297 C2285 0.930 . S
H2298 C2286 0.956 . S
H2299 C2286 0.961 . S
H2300 C2286 0.961 . S
H2301 C2287 0.958 . S
H2302 C2287 0.961 . S
H2303 C2287 0.960 . S
C2304 C2305 1.391 . S
C2304 C2306 1.394 . S
C2304 H2320 0.931 . S
C2305 C2304 1.391 . S
C2305 C2309 1.376 . S
C2306 C2304 1.394 . S
C2306 C2307 1.369 . S
C2306 C2310 1.531 . S
C2307 C2306 1.369 . S
C2307 C2308 1.410 . S
C2307 C2315 1.503 . S
C2308 C2307 1.410 . S
C2308 C2309 1.392 . S
C2308 C2311 1.511 . S
C2309 C2305 1.376 . S
C2309 C2308 1.392 . S
C2309 H2321 0.929 . S
C2310 C2306 1.531 . S
C2310 H2322 0.960 . S
C2310 H2323 0.962 . S
C2310 H2324 0.960 . S
C2311 C2308 1.511 . S
C2311 H2325 0.961 . S
C2311 H2326 0.961 . S
C2311 H2327 0.961 . S
C2312 C2313 1.370 . S
C2312 C2314 1.363 . S
C2312 H2328 0.931 . S
C2313 C2312 1.370 . S
C2313 C2317 1.408 . S
C2314 C2312 1.363 . S
C2314 C2315 1.370 . S
C2314 C2318 1.524 . S
C2315 C2307 1.503 . S
C2315 C2314 1.370 . S
C2315 C2316 1.403 . S
C2316 C2315 1.403 . S
C2316 C2317 1.404 . S
C2316 C2319 1.539 . S
C2317 C2313 1.408 . S
C2317 C2316 1.404 . S
C2317 H2329 0.930 . S
C2318 C2314 1.524 . S
C2318 H2330 0.956 . S
C2318 H2331 0.961 . S
C2318 H2332 0.961 . S
C2319 C2316 1.539 . S
C2319 H2333 0.958 . S
C2319 H2334 0.961 . S
C2319 H2335 0.960 . S
H2320 C2304 0.931 . S
H2321 C2309 0.929 . S
H2322 C2310 0.960 . S
H2323 C2310 0.962 . S
H2324 C2310 0.960 . S
H2325 C2311 0.961 . S
H2326 C2311 0.961 . S
H2327 C2311 0.961 . S
H2328 C2312 0.931 . S
H2329 C2317 0.930 . S
H2330 C2318 0.956 . S
H2331 C2318 0.961 . S
H2332 C2318 0.961 . S
H2333 C2319 0.958 . S
H2334 C2319 0.961 . S
H2335 C2319 0.960 . S
C2336 C2337 1.391 . S
C2336 C2338 1.394 . S
C2336 H2352 0.931 . S
C2337 C2336 1.391 . S
C2337 C2341 1.376 . S
C2338 C2336 1.394 . S
C2338 C2339 1.369 . S
C2338 C2342 1.531 . S
C2339 C2338 1.369 . S
C2339 C2340 1.410 . S
C2339 C2347 1.503 . S
C2340 C2339 1.410 . S
C2340 C2341 1.392 . S
C2340 C2343 1.511 . S
C2341 C2337 1.376 . S
C2341 C2340 1.392 . S
C2341 H2353 0.929 . S
C2342 C2338 1.531 . S
C2342 H2354 0.960 . S
C2342 H2355 0.962 . S
C2342 H2356 0.960 . S
C2343 C2340 1.511 . S
C2343 H2357 0.961 . S
C2343 H2358 0.961 . S
C2343 H2359 0.961 . S
C2344 C2345 1.345 1_455 S
C2344 C2346 1.363 . S
C2344 H2360 0.931 . S
C2345 C2344 1.345 1_655 S
C2345 C2349 1.406 1_655 S
C2346 C2344 1.363 . S
C2346 C2347 1.370 . S
C2346 C2350 1.524 . S
C2347 C2339 1.503 . S
C2347 C2346 1.370 . S
C2347 C2348 1.403 . S
C2348 C2347 1.403 . S
C2348 C2349 1.404 . S
C2348 C2351 1.539 . S
C2349 C2345 1.406 1_455 S
C2349 C2348 1.404 . S
C2349 H2361 0.930 1_455 S
C2350 C2346 1.524 . S
C2350 H2362 0.956 . S
C2350 H2363 0.961 . S
C2350 H2364 0.961 . S
C2351 C2348 1.539 . S
C2351 H2365 0.958 . S
C2351 H2366 0.961 . S
C2351 H2367 0.960 . S
H2352 C2336 0.931 . S
H2353 C2341 0.929 . S
H2354 C2342 0.960 . S
H2355 C2342 0.962 . S
H2356 C2342 0.960 . S
H2357 C2343 0.961 . S
H2358 C2343 0.961 . S
H2359 C2343 0.961 . S
H2360 C2344 0.931 . S
H2361 C2349 0.930 1_655 S
H2362 C2350 0.956 . S
H2363 C2350 0.961 . S
H2364 C2350 0.961 . S
H2365 C2351 0.958 . S
H2366 C2351 0.961 . S
H2367 C2351 0.960 . S
C2368 C2369 1.391 . S
C2368 C2370 1.394 . S
C2368 H2384 0.931 . S
C2369 C2368 1.391 . S
C2369 C2373 1.376 . S
C2370 C2368 1.394 . S
C2370 C2371 1.369 . S
C2370 C2374 1.531 . S
C2371 C2370 1.369 . S
C2371 C2372 1.410 . S
C2371 C2379 1.503 . S
C2372 C2371 1.410 . S
C2372 C2373 1.392 . S
C2372 C2375 1.511 . S
C2373 C2369 1.376 . S
C2373 C2372 1.392 . S
C2373 H2385 0.929 . S
C2374 C2370 1.531 . S
C2374 H2386 0.960 . S
C2374 H2387 0.962 . S
C2374 H2388 0.960 . S
C2375 C2372 1.511 . S
C2375 H2389 0.961 . S
C2375 H2390 0.961 . S
C2375 H2391 0.961 . S
C2376 C2377 1.370 . S
C2376 C2378 1.363 . S
C2376 H2392 0.931 . S
C2377 C2376 1.370 . S
C2377 C2381 1.408 . S
C2378 C2376 1.363 . S
C2378 C2379 1.370 . S
C2378 C2382 1.524 . S
C2379 C2371 1.503 . S
C2379 C2378 1.370 . S
C2379 C2380 1.403 . S
C2380 C2379 1.403 . S
C2380 C2381 1.404 . S
C2380 C2383 1.539 . S
C2381 C2377 1.408 . S
C2381 C2380 1.404 . S
C2381 H2393 0.930 . S
C2382 C2378 1.524 . S
C2382 H2394 0.956 . S
C2382 H2395 0.961 . S
C2382 H2396 0.961 . S
C2383 C2380 1.539 . S
C2383 H2397 0.958 . S
C2383 H2398 0.961 . S
C2383 H2399 0.960 . S
H2384 C2368 0.931 . S
H2385 C2373 0.929 . S
H2386 C2374 0.960 . S
H2387 C2374 0.962 . S
H2388 C2374 0.960 . S
H2389 C2375 0.961 . S
H2390 C2375 0.961 . S
H2391 C2375 0.961 . S
H2392 C2376 0.931 . S
H2393 C2381 0.930 . S
H2394 C2382 0.956 . S
H2395 C2382 0.961 . S
H2396 C2382 0.961 . S
H2397 C2383 0.958 . S
H2398 C2383 0.961 . S
H2399 C2383 0.960 . S
C2400 C2401 1.391 . S
C2400 C2402 1.394 . S
C2400 H2416 0.931 . S
C2401 C2400 1.391 . S
C2401 C2405 1.376 . S
C2402 C2400 1.394 . S
C2402 C2403 1.369 . S
C2402 C2406 1.531 . S
C2403 C2402 1.369 . S
C2403 C2404 1.410 . S
C2403 C2411 1.503 . S
C2404 C2403 1.410 . S
C2404 C2405 1.392 . S
C2404 C2407 1.511 . S
C2405 C2401 1.376 . S
C2405 C2404 1.392 . S
C2405 H2417 0.929 . S
C2406 C2402 1.531 . S
C2406 H2418 0.960 . S
C2406 H2419 0.962 . S
C2406 H2420 0.960 . S
C2407 C2404 1.511 . S
C2407 H2421 0.961 . S
C2407 H2422 0.961 . S
C2407 H2423 0.961 . S
C2408 C2409 1.370 . S
C2408 C2410 1.363 . S
C2408 H2424 0.931 . S
C2409 C2408 1.370 . S
C2409 C2413 1.408 . S
C2410 C2408 1.363 . S
C2410 C2411 1.370 . S
C2410 C2414 1.524 . S
C2411 C2403 1.503 . S
C2411 C2410 1.370 . S
C2411 C2412 1.403 . S
C2412 C2411 1.403 . S
C2412 C2413 1.404 . S
C2412 C2415 1.539 . S
C2413 C2409 1.408 . S
C2413 C2412 1.404 . S
C2413 H2425 0.930 . S
C2414 C2410 1.524 . S
C2414 H2426 0.956 . S
C2414 H2427 0.961 . S
C2414 H2428 0.961 . S
C2415 C2412 1.539 . S
C2415 H2429 0.958 . S
C2415 H2430 0.961 . S
C2415 H2431 0.960 . S
H2416 C2400 0.931 . S
H2417 C2405 0.929 . S
H2418 C2406 0.960 . S
H2419 C2406 0.962 . S
H2420 C2406 0.960 . S
H2421 C2407 0.961 . S
H2422 C2407 0.961 . S
H2423 C2407 0.961 . S
H2424 C2408 0.931 . S
H2425 C2413 0.930 . S
H2426 C2414 0.956 . S
H2427 C2414 0.961 . S
H2428 C2414 0.961 . S
H2429 C2415 0.958 . S
H2430 C2415 0.961 . S
H2431 C2415 0.960 . S
C2432 C2433 1.391 . S
C2432 C2434 1.394 . S
C2432 H2448 0.931 . S
C2433 C2432 1.391 . S
C2433 C2437 1.376 . S
C2434 C2432 1.394 . S
C2434 C2435 1.369 . S
C2434 C2438 1.531 . S
C2435 C2434 1.369 . S
C2435 C2436 1.410 . S
C2435 C2443 1.503 . S
C2436 C2435 1.410 . S
C2436 C2437 1.392 . S
C2436 C2439 1.511 . S
C2437 C2433 1.376 . S
C2437 C2436 1.392 . S
C2437 H2449 0.929 . S
C2438 C2434 1.531 . S
C2438 H2450 0.960 . S
C2438 H2451 0.962 . S
C2438 H2452 0.960 . S
C2439 C2436 1.511 . S
C2439 H2453 0.961 . S
C2439 H2454 0.961 . S
C2439 H2455 0.961 . S
C2440 C2441 1.370 . S
C2440 C2442 1.363 . S
C2440 H2456 0.931 . S
C2441 C2440 1.370 . S
C2441 C2445 1.408 . S
C2442 C2440 1.363 . S
C2442 C2443 1.370 . S
C2442 C2446 1.524 . S
C2443 C2435 1.503 . S
C2443 C2442 1.370 . S
C2443 C2444 1.403 . S
C2444 C2443 1.403 . S
C2444 C2445 1.404 . S
C2444 C2447 1.539 . S
C2445 C2441 1.408 . S
C2445 C2444 1.404 . S
C2445 H2457 0.930 . S
C2446 C2442 1.524 . S
C2446 H2458 0.956 . S
C2446 H2459 0.961 . S
C2446 H2460 0.961 . S
C2447 C2444 1.539 . S
C2447 H2461 0.958 . S
C2447 H2462 0.961 . S
C2447 H2463 0.960 . S
H2448 C2432 0.931 . S
H2449 C2437 0.929 . S
H2450 C2438 0.960 . S
H2451 C2438 0.962 . S
H2452 C2438 0.960 . S
H2453 C2439 0.961 . S
H2454 C2439 0.961 . S
H2455 C2439 0.961 . S
H2456 C2440 0.931 . S
H2457 C2445 0.930 . S
H2458 C2446 0.956 . S
H2459 C2446 0.961 . S
H2460 C2446 0.961 . S
H2461 C2447 0.958 . S
H2462 C2447 0.961 . S
H2463 C2447 0.960 . S
C2464 C2465 1.391 . S
C2464 C2466 1.394 . S
C2464 H2480 0.931 . S
C2465 C2464 1.391 . S
C2465 C2469 1.376 . S
C2466 C2464 1.394 . S
C2466 C2467 1.369 . S
C2466 C2470 1.531 . S
C2467 C2466 1.369 . S
C2467 C2468 1.410 . S
C2467 C2475 1.503 . S
C2468 C2467 1.410 . S
C2468 C2469 1.392 . S
C2468 C2471 1.511 . S
C2469 C2465 1.376 . S
C2469 C2468 1.392 . S
C2469 H2481 0.929 . S
C2470 C2466 1.531 . S
C2470 H2482 0.960 . S
C2470 H2483 0.962 . S
C2470 H2484 0.960 . S
C2471 C2468 1.511 . S
C2471 H2485 0.961 . S
C2471 H2486 0.961 . S
C2471 H2487 0.961 . S
C2472 C2473 1.370 . S
C2472 C2474 1.363 . S
C2472 H2488 0.931 . S
C2473 C2472 1.370 . S
C2473 C2477 1.408 . S
C2474 C2472 1.363 . S
C2474 C2475 1.370 . S
C2474 C2478 1.524 . S
C2475 C2467 1.503 . S
C2475 C2474 1.370 . S
C2475 C2476 1.403 . S
C2476 C2475 1.403 . S
C2476 C2477 1.404 . S
C2476 C2479 1.539 . S
C2477 C2473 1.408 . S
C2477 C2476 1.404 . S
C2477 H2489 0.930 . S
C2478 C2474 1.524 . S
C2478 H2490 0.956 . S
C2478 H2491 0.961 . S
C2478 H2492 0.961 . S
C2479 C2476 1.539 . S
C2479 H2493 0.958 . S
C2479 H2494 0.961 . S
C2479 H2495 0.960 . S
H2480 C2464 0.931 . S
H2481 C2469 0.929 . S
H2482 C2470 0.960 . S
H2483 C2470 0.962 . S
H2484 C2470 0.960 . S
H2485 C2471 0.961 . S
H2486 C2471 0.961 . S
H2487 C2471 0.961 . S
H2488 C2472 0.931 . S
H2489 C2477 0.930 . S
H2490 C2478 0.956 . S
H2491 C2478 0.961 . S
H2492 C2478 0.961 . S
H2493 C2479 0.958 . S
H2494 C2479 0.961 . S
H2495 C2479 0.960 . S
C2496 C2497 1.391 . S
C2496 C2498 1.394 . S
C2496 H2512 0.931 . S
C2497 C2496 1.391 . S
C2497 C2501 1.376 . S
C2498 C2496 1.394 . S
C2498 C2499 1.369 . S
C2498 C2502 1.531 . S
C2499 C2498 1.369 . S
C2499 C2500 1.410 . S
C2499 C2507 1.503 . S
C2500 C2499 1.410 . S
C2500 C2501 1.392 . S
C2500 C2503 1.511 . S
C2501 C2497 1.376 . S
C2501 C2500 1.392 . S
C2501 H2513 0.929 . S
C2502 C2498 1.531 . S
C2502 H2514 0.960 . S
C2502 H2515 0.962 . S
C2502 H2516 0.960 . S
C2503 C2500 1.511 . S
C2503 H2517 0.961 . S
C2503 H2518 0.961 . S
C2503 H2519 0.961 . S
C2504 C2505 1.370 . S
C2504 C2506 1.363 . S
C2504 H2520 0.931 . S
C2505 C2504 1.370 . S
C2505 C2509 1.408 . S
C2506 C2504 1.363 . S
C2506 C2507 1.370 . S
C2506 C2510 1.524 . S
C2507 C2499 1.503 . S
C2507 C2506 1.370 . S
C2507 C2508 1.403 . S
C2508 C2507 1.403 . S
C2508 C2509 1.404 . S
C2508 C2511 1.539 . S
C2509 C2505 1.408 . S
C2509 C2508 1.404 . S
C2509 H2521 0.930 . S
C2510 C2506 1.524 . S
C2510 H2522 0.956 . S
C2510 H2523 0.961 . S
C2510 H2524 0.961 . S
C2511 C2508 1.539 . S
C2511 H2525 0.958 . S
C2511 H2526 0.961 . S
C2511 H2527 0.960 . S
H2512 C2496 0.931 . S
H2513 C2501 0.929 . S
H2514 C2502 0.960 . S
H2515 C2502 0.962 . S
H2516 C2502 0.960 . S
H2517 C2503 0.961 . S
H2518 C2503 0.961 . S
H2519 C2503 0.961 . S
H2520 C2504 0.931 . S
H2521 C2509 0.930 . S
H2522 C2510 0.956 . S
H2523 C2510 0.961 . S
H2524 C2510 0.961 . S
H2525 C2511 0.958 . S
H2526 C2511 0.961 . S
H2527 C2511 0.960 . S
C2528 C2529 1.391 . S
C2528 C2530 1.394 . S
C2528 H2544 0.931 . S
C2529 C2528 1.391 . S
C2529 C2533 1.376 . S
C2530 C2528 1.394 . S
C2530 C2531 1.369 . S
C2530 C2534 1.531 . S
C2531 C2530 1.369 . S
C2531 C2532 1.410 . S
C2531 C2539 1.503 . S
C2532 C2531 1.410 . S
C2532 C2533 1.392 . S
C2532 C2535 1.511 . S
C2533 C2529 1.376 . S
C2533 C2532 1.392 . S
C2533 H2545 0.929 . S
C2534 C2530 1.531 . S
C2534 H2546 0.960 . S
C2534 H2547 0.962 . S
C2534 H2548 0.960 . S
C2535 C2532 1.511 . S
C2535 H2549 0.961 . S
C2535 H2550 0.961 . S
C2535 H2551 0.961 . S
C2536 C2537 1.370 . S
C2536 C2538 1.363 . S
C2536 H2552 0.931 1_455 S
C2537 C2536 1.370 . S
C2537 C2541 1.404 . S
C2538 C2536 1.363 . S
C2538 C2539 1.370 . S
C2538 C2542 1.524 . S
C2539 C2531 1.503 . S
C2539 C2538 1.370 . S
C2539 C2540 1.403 . S
C2540 C2539 1.403 . S
C2540 C2541 1.404 . S
C2540 C2543 1.539 . S
C2541 C2537 1.404 . S
C2541 C2540 1.404 . S
C2541 H2553 0.930 . S
C2542 C2538 1.524 . S
C2542 H2554 0.956 . S
C2542 H2555 0.961 . S
C2542 H2556 0.961 . S
C2543 C2540 1.539 . S
C2543 H2557 0.958 . S
C2543 H2558 0.961 . S
C2543 H2559 0.960 . S
H2544 C2528 0.931 . S
H2545 C2533 0.929 . S
H2546 C2534 0.960 . S
H2547 C2534 0.962 . S
H2548 C2534 0.960 . S
H2549 C2535 0.961 . S
H2550 C2535 0.961 . S
H2551 C2535 0.961 . S
H2552 C2536 0.931 1_655 S
H2553 C2541 0.930 . S
H2554 C2542 0.956 . S
H2555 C2542 0.961 . S
H2556 C2542 0.961 . S
H2557 C2543 0.958 . S
H2558 C2543 0.961 . S
H2559 C2543 0.960 . S
C2560 C2561 1.391 . S
C2560 C2562 1.394 . S
C2560 H2576 0.931 . S
C2561 C2560 1.391 . S
C2561 C2565 1.376 . S
C2562 C2560 1.394 . S
C2562 C2563 1.369 . S
C2562 C2566 1.531 . S
C2563 C2562 1.369 . S
C2563 C2564 1.410 . S
C2563 C2571 1.503 . S
C2564 C2563 1.410 . S
C2564 C2565 1.392 . S
C2564 C2567 1.511 . S
C2565 C2561 1.376 . S
C2565 C2564 1.392 . S
C2565 H2577 0.929 . S
C2566 C2562 1.531 . S
C2566 H2578 0.960 . S
C2566 H2579 0.962 . S
C2566 H2580 0.960 . S
C2567 C2564 1.511 . S
C2567 H2581 0.961 . S
C2567 H2582 0.961 . S
C2567 H2583 0.961 . S
C2568 C2569 1.370 . S
C2568 C2570 1.363 . S
C2568 H2584 0.931 . S
C2569 C2568 1.370 . S
C2569 C2573 1.408 . S
C2570 C2568 1.363 . S
C2570 C2571 1.370 . S
C2570 C2574 1.524 . S
C2571 C2563 1.503 . S
C2571 C2570 1.370 . S
C2571 C2572 1.403 . S
C2572 C2571 1.403 . S
C2572 C2573 1.404 . S
C2572 C2575 1.539 . S
C2573 C2569 1.408 . S
C2573 C2572 1.404 . S
C2573 H2585 0.930 . S
C2574 C2570 1.524 . S
C2574 H2586 0.956 . S
C2574 H2587 0.961 . S
C2574 H2588 0.961 . S
C2575 C2572 1.539 . S
C2575 H2589 0.958 . S
C2575 H2590 0.961 . S
C2575 H2591 0.960 . S
H2576 C2560 0.931 . S
H2577 C2565 0.929 . S
H2578 C2566 0.960 . S
H2579 C2566 0.962 . S
H2580 C2566 0.960 . S
H2581 C2567 0.961 . S
H2582 C2567 0.961 . S
H2583 C2567 0.961 . S
H2584 C2568 0.931 . S
H2585 C2573 0.930 . S
H2586 C2574 0.956 . S
H2587 C2574 0.961 . S
H2588 C2574 0.961 . S
H2589 C2575 0.958 . S
H2590 C2575 0.961 . S
H2591 C2575 0.960 . S
C2592 C2593 1.406 . S
C2592 C2594 1.394 . S
C2592 H2608 0.931 . S
C2593 C2592 1.406 . S
C2593 C2597 1.388 . S
C2594 C2592 1.394 . S
C2594 C2595 1.369 . S
C2594 C2598 1.531 . S
C2595 C2594 1.369 . S
C2595 C2596 1.410 . S
C2595 C2603 1.503 . S
C2596 C2595 1.410 . S
C2596 C2597 1.392 . S
C2596 C2599 1.511 . S
C2597 C2593 1.388 . S
C2597 C2596 1.392 . S
C2597 H2609 0.929 . S
C2598 C2594 1.531 . S
C2598 H2610 0.960 . S
C2598 H2611 0.962 . S
C2598 H2612 0.960 . S
C2599 C2596 1.511 . S
C2599 H2613 0.961 . S
C2599 H2614 0.961 . S
C2599 H2615 0.961 . S
C2600 C2601 1.370 . S
C2600 C2602 1.363 . S
C2600 H2616 0.931 . S
C2601 C2600 1.370 . S
C2601 C2605 1.408 . S
C2602 C2600 1.363 . S
C2602 C2603 1.370 . S
C2602 C2606 1.524 . S
C2603 C2595 1.503 . S
C2603 C2602 1.370 . S
C2603 C2604 1.403 . S
C2604 C2603 1.403 . S
C2604 C2605 1.404 . S
C2604 C2607 1.539 . S
C2605 C2601 1.408 . S
C2605 C2604 1.404 . S
C2605 H2617 0.930 . S
C2606 C2602 1.524 . S
C2606 H2618 0.956 . S
C2606 H2619 0.961 . S
C2606 H2620 0.961 . S
C2607 C2604 1.539 . S
C2607 H2621 0.958 . S
C2607 H2622 0.961 . S
C2607 H2623 0.960 . S
H2608 C2592 0.931 . S
H2609 C2597 0.929 . S
H2610 C2598 0.960 . S
H2611 C2598 0.962 . S
H2612 C2598 0.960 . S
H2613 C2599 0.961 . S
H2614 C2599 0.961 . S
H2615 C2599 0.961 . S
H2616 C2600 0.931 . S
H2617 C2605 0.930 . S
H2618 C2606 0.956 . S
H2619 C2606 0.961 . S
H2620 C2606 0.961 . S
H2621 C2607 0.958 . S
H2622 C2607 0.961 . S
H2623 C2607 0.960 . S
C2624 C2625 1.391 . S
C2624 C2626 1.394 . S
C2624 H2640 0.931 . S
C2625 C2624 1.391 . S
C2625 C2629 1.376 . S
C2626 C2624 1.394 . S
C2626 C2627 1.369 . S
C2626 C2630 1.531 . S
C2627 C2626 1.369 . S
C2627 C2628 1.410 . S
C2627 C2635 1.503 . S
C2628 C2627 1.410 . S
C2628 C2629 1.392 . S
C2628 C2631 1.511 . S
C2629 C2625 1.376 . S
C2629 C2628 1.392 . S
C2629 H2641 0.929 . S
C2630 C2626 1.531 . S
C2630 H2642 0.960 . S
C2630 H2643 0.962 . S
C2630 H2644 0.960 . S
C2631 C2628 1.511 . S
C2631 H2645 0.961 . S
C2631 H2646 0.961 . S
C2631 H2647 0.961 . S
C2632 C2633 1.370 . S
C2632 C2634 1.363 . S
C2632 H2648 0.931 . S
C2633 C2632 1.370 . S
C2633 C2637 1.408 . S
C2634 C2632 1.363 . S
C2634 C2635 1.370 . S
C2634 C2638 1.524 . S
C2635 C2627 1.503 . S
C2635 C2634 1.370 . S
C2635 C2636 1.403 . S
C2636 C2635 1.403 . S
C2636 C2637 1.404 . S
C2636 C2639 1.539 . S
C2637 C2633 1.408 . S
C2637 C2636 1.404 . S
C2637 H2649 0.930 . S
C2638 C2634 1.524 . S
C2638 H2650 0.956 . S
C2638 H2651 0.961 . S
C2638 H2652 0.961 . S
C2639 C2636 1.539 . S
C2639 H2653 0.958 . S
C2639 H2654 0.961 . S
C2639 H2655 0.960 . S
H2640 C2624 0.931 . S
H2641 C2629 0.929 . S
H2642 C2630 0.960 . S
H2643 C2630 0.962 . S
H2644 C2630 0.960 . S
H2645 C2631 0.961 . S
H2646 C2631 0.961 . S
H2647 C2631 0.961 . S
H2648 C2632 0.931 . S
H2649 C2637 0.930 . S
H2650 C2638 0.956 . S
H2651 C2638 0.961 . S
H2652 C2638 0.961 . S
H2653 C2639 0.958 . S
H2654 C2639 0.961 . S
H2655 C2639 0.960 . S
C2656 C2657 1.391 . S
C2656 C2658 1.394 . S
C2656 H2672 0.931 . S
C2657 C2656 1.391 . S
C2657 C2661 1.376 . S
C2658 C2656 1.394 . S
C2658 C2659 1.369 . S
C2658 C2662 1.531 . S
C2659 C2658 1.369 . S
C2659 C2660 1.410 . S
C2659 C2667 1.503 . S
C2660 C2659 1.410 . S
C2660 C2661 1.392 . S
C2660 C2663 1.511 . S
C2661 C2657 1.376 . S
C2661 C2660 1.392 . S
C2661 H2673 0.929 . S
C2662 C2658 1.531 . S
C2662 H2674 0.960 . S
C2662 H2675 0.962 . S
C2662 H2676 0.960 . S
C2663 C2660 1.511 . S
C2663 H2677 0.961 . S
C2663 H2678 0.961 . S
C2663 H2679 0.961 . S
C2664 C2665 1.370 . S
C2664 C2666 1.363 . S
C2664 H2680 0.931 . S
C2665 C2664 1.370 . S
C2665 C2669 1.408 . S
C2666 C2664 1.363 . S
C2666 C2667 1.370 . S
C2666 C2670 1.524 . S
C2667 C2659 1.503 . S
C2667 C2666 1.370 . S
C2667 C2668 1.403 . S
C2668 C2667 1.403 . S
C2668 C2669 1.404 . S
C2668 C2671 1.539 . S
C2669 C2665 1.408 . S
C2669 C2668 1.404 . S
C2669 H2681 0.930 . S
C2670 C2666 1.524 . S
C2670 H2682 0.956 . S
C2670 H2683 0.961 . S
C2670 H2684 0.961 . S
C2671 C2668 1.539 . S
C2671 H2685 0.958 . S
C2671 H2686 0.961 . S
C2671 H2687 0.960 . S
H2672 C2656 0.931 . S
H2673 C2661 0.929 . S
H2674 C2662 0.960 . S
H2675 C2662 0.962 . S
H2676 C2662 0.960 . S
H2677 C2663 0.961 . S
H2678 C2663 0.961 . S
H2679 C2663 0.961 . S
H2680 C2664 0.931 . S
H2681 C2669 0.930 . S
H2682 C2670 0.956 . S
H2683 C2670 0.961 . S
H2684 C2670 0.961 . S
H2685 C2671 0.958 . S
H2686 C2671 0.961 . S
H2687 C2671 0.960 . S
C2688 C2689 1.391 . S
C2688 C2690 1.394 . S
C2688 H2704 0.931 . S
C2689 C2688 1.391 . S
C2689 C2693 1.376 . S
C2690 C2688 1.394 . S
C2690 C2691 1.369 . S
C2690 C2694 1.531 . S
C2691 C2690 1.369 . S
C2691 C2692 1.410 . S
C2691 C2699 1.503 . S
C2692 C2691 1.410 . S
C2692 C2693 1.392 . S
C2692 C2695 1.511 . S
C2693 C2689 1.376 . S
C2693 C2692 1.392 . S
C2693 H2705 0.929 . S
C2694 C2690 1.531 . S
C2694 H2706 0.960 . S
C2694 H2707 0.962 . S
C2694 H2708 0.960 . S
C2695 C2692 1.511 . S
C2695 H2709 0.961 . S
C2695 H2710 0.961 . S
C2695 H2711 0.961 . S
C2696 C2697 1.370 . S
C2696 C2698 1.363 . S
C2696 H2712 0.931 . S
C2697 C2696 1.370 . S
C2697 C2701 1.408 . S
C2698 C2696 1.363 . S
C2698 C2699 1.370 . S
C2698 C2702 1.524 . S
C2699 C2691 1.503 . S
C2699 C2698 1.370 . S
C2699 C2700 1.403 . S
C2700 C2699 1.403 . S
C2700 C2701 1.404 . S
C2700 C2703 1.539 . S
C2701 C2697 1.408 . S
C2701 C2700 1.404 . S
C2701 H2713 0.930 . S
C2702 C2698 1.524 . S
C2702 H2714 0.956 . S
C2702 H2715 0.961 . S
C2702 H2716 0.961 . S
C2703 C2700 1.539 . S
C2703 H2717 0.958 . S
C2703 H2718 0.961 . S
C2703 H2719 0.960 . S
H2704 C2688 0.931 . S
H2705 C2693 0.929 . S
H2706 C2694 0.960 . S
H2707 C2694 0.962 . S
H2708 C2694 0.960 . S
H2709 C2695 0.961 . S
H2710 C2695 0.961 . S
H2711 C2695 0.961 . S
H2712 C2696 0.931 . S
H2713 C2701 0.930 . S
H2714 C2702 0.956 . S
H2715 C2702 0.961 . S
H2716 C2702 0.961 . S
H2717 C2703 0.958 . S
H2718 C2703 0.961 . S
H2719 C2703 0.960 . S
C2720 C2721 1.391 . S
C2720 C2722 1.394 . S
C2720 H2736 0.931 . S
C2721 C2720 1.391 . S
C2721 C2725 1.376 . S
C2722 C2720 1.394 . S
C2722 C2723 1.369 . S
C2722 C2726 1.531 . S
C2723 C2722 1.369 . S
C2723 C2724 1.410 . S
C2723 C2731 1.503 . S
C2724 C2723 1.410 . S
C2724 C2725 1.392 . S
C2724 C2727 1.511 . S
C2725 C2721 1.376 . S
C2725 C2724 1.392 . S
C2725 H2737 0.929 . S
C2726 C2722 1.531 . S
C2726 H2738 0.960 . S
C2726 H2739 0.962 . S
C2726 H2740 0.960 . S
C2727 C2724 1.511 . S
C2727 H2741 0.961 . S
C2727 H2742 0.961 . S
C2727 H2743 0.961 . S
C2728 C2729 1.370 . S
C2728 C2730 1.363 . S
C2728 H2744 0.931 . S
C2729 C2728 1.370 . S
C2729 C2733 1.408 . S
C2730 C2728 1.363 . S
C2730 C2731 1.370 . S
C2730 C2734 1.524 . S
C2731 C2723 1.503 . S
C2731 C2730 1.370 . S
C2731 C2732 1.403 . S
C2732 C2731 1.403 . S
C2732 C2733 1.404 . S
C2732 C2735 1.539 . S
C2733 C2729 1.408 . S
C2733 C2732 1.404 . S
C2733 H2745 0.930 . S
C2734 C2730 1.524 . S
C2734 H2746 0.956 . S
C2734 H2747 0.961 . S
C2734 H2748 0.961 . S
C2735 C2732 1.539 . S
C2735 H2749 0.958 . S
C2735 H2750 0.961 . S
C2735 H2751 0.960 . S
H2736 C2720 0.931 . S
H2737 C2725 0.929 . S
H2738 C2726 0.960 . S
H2739 C2726 0.962 . S
H2740 C2726 0.960 . S
H2741 C2727 0.961 . S
H2742 C2727 0.961 . S
H2743 C2727 0.961 . S
H2744 C2728 0.931 . S
H2745 C2733 0.930 . S
H2746 C2734 0.956 . S
H2747 C2734 0.961 . S
H2748 C2734 0.961 . S
H2749 C2735 0.958 . S
H2750 C2735 0.961 . S
H2751 C2735 0.960 . S
C2752 C2753 1.391 . S
C2752 C2754 1.394 . S
C2752 H2768 0.931 . S
C2753 C2752 1.391 . S
C2753 C2757 1.376 . S
C2754 C2752 1.394 . S
C2754 C2755 1.369 . S
C2754 C2758 1.531 . S
C2755 C2754 1.369 . S
C2755 C2756 1.410 . S
C2755 C2763 1.503 . S
C2756 C2755 1.410 . S
C2756 C2757 1.392 . S
C2756 C2759 1.511 . S
C2757 C2753 1.376 . S
C2757 C2756 1.392 . S
C2757 H2769 0.929 . S
C2758 C2754 1.531 . S
C2758 H2770 0.960 . S
C2758 H2771 0.962 . S
C2758 H2772 0.960 . S
C2759 C2756 1.511 . S
C2759 H2773 0.961 . S
C2759 H2774 0.961 . S
C2759 H2775 0.961 . S
C2760 C2761 1.370 . S
C2760 C2762 1.363 . S
C2760 H2776 0.931 . S
C2761 C2760 1.370 . S
C2761 C2765 1.408 . S
C2762 C2760 1.363 . S
C2762 C2763 1.370 . S
C2762 C2766 1.524 . S
C2763 C2755 1.503 . S
C2763 C2762 1.370 . S
C2763 C2764 1.403 . S
C2764 C2763 1.403 . S
C2764 C2765 1.404 . S
C2764 C2767 1.539 . S
C2765 C2761 1.408 . S
C2765 C2764 1.404 . S
C2765 H2777 0.930 . S
C2766 C2762 1.524 . S
C2766 H2778 0.956 . S
C2766 H2779 0.961 . S
C2766 H2780 0.961 . S
C2767 C2764 1.539 . S
C2767 H2781 0.958 . S
C2767 H2782 0.961 . S
C2767 H2783 0.960 . S
H2768 C2752 0.931 . S
H2769 C2757 0.929 . S
H2770 C2758 0.960 . S
H2771 C2758 0.962 . S
H2772 C2758 0.960 . S
H2773 C2759 0.961 . S
H2774 C2759 0.961 . S
H2775 C2759 0.961 . S
H2776 C2760 0.931 . S
H2777 C2765 0.930 . S
H2778 C2766 0.956 . S
H2779 C2766 0.961 . S
H2780 C2766 0.961 . S
H2781 C2767 0.958 . S
H2782 C2767 0.961 . S
H2783 C2767 0.960 . S
C2784 C2785 1.391 . S
C2784 C2786 1.394 . S
C2784 H2800 0.931 . S
C2785 C2784 1.391 . S
C2785 C2789 1.376 . S
C2786 C2784 1.394 . S
C2786 C2787 1.369 . S
C2786 C2790 1.531 . S
C2787 C2786 1.369 . S
C2787 C2788 1.410 . S
C2787 C2795 1.503 . S
C2788 C2787 1.410 . S
C2788 C2789 1.392 . S
C2788 C2791 1.511 . S
C2789 C2785 1.376 . S
C2789 C2788 1.392 . S
C2789 H2801 0.929 . S
C2790 C2786 1.531 . S
C2790 H2802 0.960 . S
C2790 H2803 0.962 . S
C2790 H2804 0.960 . S
C2791 C2788 1.511 . S
C2791 H2805 0.961 . S
C2791 H2806 0.961 . S
C2791 H2807 0.961 . S
C2792 C2793 1.370 . S
C2792 C2794 1.363 . S
C2792 H2808 0.931 1_655 S
C2793 C2792 1.370 . S
C2793 C2797 1.405 . S
C2794 C2792 1.363 . S
C2794 C2795 1.370 . S
C2794 C2798 1.524 . S
C2795 C2787 1.503 . S
C2795 C2794 1.370 . S
C2795 C2796 1.403 . S
C2796 C2795 1.403 . S
C2796 C2797 1.404 . S
C2796 C2799 1.539 . S
C2797 C2793 1.405 . S
C2797 C2796 1.404 . S
C2797 H2809 0.930 . S
C2798 C2794 1.524 . S
C2798 H2810 0.956 . S
C2798 H2811 0.961 . S
C2798 H2812 0.961 . S
C2799 C2796 1.539 . S
C2799 H2813 0.958 . S
C2799 H2814 0.961 . S
C2799 H2815 0.960 . S
H2800 C2784 0.931 . S
H2801 C2789 0.929 . S
H2802 C2790 0.960 . S
H2803 C2790 0.962 . S
H2804 C2790 0.960 . S
H2805 C2791 0.961 . S
H2806 C2791 0.961 . S
H2807 C2791 0.961 . S
H2808 C2792 0.931 1_455 S
H2809 C2797 0.930 . S
H2810 C2798 0.956 . S
H2811 C2798 0.961 . S
H2812 C2798 0.961 . S
H2813 C2799 0.958 . S
H2814 C2799 0.961 . S
H2815 C2799 0.960 . S
C2816 C2817 1.391 . S
C2816 C2818 1.394 . S
C2816 H2832 0.931 . S
C2817 C2816 1.391 . S
C2817 C2821 1.376 . S
C2818 C2816 1.394 . S
C2818 C2819 1.369 . S
C2818 C2822 1.531 . S
C2819 C2818 1.369 . S
C2819 C2820 1.410 . S
C2819 C2827 1.503 . S
C2820 C2819 1.410 . S
C2820 C2821 1.392 . S
C2820 C2823 1.511 . S
C2821 C2817 1.376 . S
C2821 C2820 1.392 . S
C2821 H2833 0.929 . S
C2822 C2818 1.531 . S
C2822 H2834 0.960 . S
C2822 H2835 0.962 . S
C2822 H2836 0.960 . S
C2823 C2820 1.511 . S
C2823 H2837 0.961 . S
C2823 H2838 0.961 . S
C2823 H2839 0.961 . S
C2824 C2825 1.370 . S
C2824 C2826 1.363 . S
C2824 H2840 0.931 . S
C2825 C2824 1.370 . S
C2825 C2829 1.408 . S
C2826 C2824 1.363 . S
C2826 C2827 1.370 . S
C2826 C2830 1.524 . S
C2827 C2819 1.503 . S
C2827 C2826 1.370 . S
C2827 C2828 1.403 . S
C2828 C2827 1.403 . S
C2828 C2829 1.404 . S
C2828 C2831 1.539 . S
C2829 C2825 1.408 . S
C2829 C2828 1.404 . S
C2829 H2841 0.930 . S
C2830 C2826 1.524 . S
C2830 H2842 0.956 . S
C2830 H2843 0.961 . S
C2830 H2844 0.961 . S
C2831 C2828 1.539 . S
C2831 H2845 0.958 . S
C2831 H2846 0.961 . S
C2831 H2847 0.960 . S
H2832 C2816 0.931 . S
H2833 C2821 0.929 . S
H2834 C2822 0.960 . S
H2835 C2822 0.962 . S
H2836 C2822 0.960 . S
H2837 C2823 0.961 . S
H2838 C2823 0.961 . S
H2839 C2823 0.961 . S
H2840 C2824 0.931 . S
H2841 C2829 0.930 . S
H2842 C2830 0.956 . S
H2843 C2830 0.961 . S
H2844 C2830 0.961 . S
H2845 C2831 0.958 . S
H2846 C2831 0.961 . S
H2847 C2831 0.960 . S
C2848 C2849 1.391 . S
C2848 C2850 1.394 . S
C2848 H2864 0.931 . S
C2849 C2848 1.391 . S
C2849 C2853 1.376 . S
C2850 C2848 1.394 . S
C2850 C2851 1.369 . S
C2850 C2854 1.531 . S
C2851 C2850 1.369 . S
C2851 C2852 1.410 . S
C2851 C2859 1.503 . S
C2852 C2851 1.410 . S
C2852 C2853 1.392 . S
C2852 C2855 1.511 . S
C2853 C2849 1.376 . S
C2853 C2852 1.392 . S
C2853 H2865 0.929 . S
C2854 C2850 1.531 . S
C2854 H2866 0.960 . S
C2854 H2867 0.962 . S
C2854 H2868 0.960 . S
C2855 C2852 1.511 . S
C2855 H2869 0.961 . S
C2855 H2870 0.961 . S
C2855 H2871 0.961 . S
C2856 C2857 1.370 . S
C2856 C2858 1.363 . S
C2856 H2872 0.931 . S
C2857 C2856 1.370 . S
C2857 C2861 1.408 . S
C2858 C2856 1.363 . S
C2858 C2859 1.370 . S
C2858 C2862 1.524 . S
C2859 C2851 1.503 . S
C2859 C2858 1.370 . S
C2859 C2860 1.403 . S
C2860 C2859 1.403 . S
C2860 C2861 1.404 . S
C2860 C2863 1.539 . S
C2861 C2857 1.408 . S
C2861 C2860 1.404 . S
C2861 H2873 0.930 . S
C2862 C2858 1.524 . S
C2862 H2874 0.956 . S
C2862 H2875 0.961 . S
C2862 H2876 0.961 . S
C2863 C2860 1.539 . S
C2863 H2877 0.958 . S
C2863 H2878 0.961 . S
C2863 H2879 0.960 . S
H2864 C2848 0.931 . S
H2865 C2853 0.929 . S
H2866 C2854 0.960 . S
H2867 C2854 0.962 . S
H2868 C2854 0.960 . S
H2869 C2855 0.961 . S
H2870 C2855 0.961 . S
H2871 C2855 0.961 . S
H2872 C2856 0.931 . S
H2873 C2861 0.930 . S
H2874 C2862 0.956 . S
H2875 C2862 0.961 . S
H2876 C2862 0.961 . S
H2877 C2863 0.958 . S
H2878 C2863 0.961 . S
H2879 C2863 0.960 . S
C2880 C2881 1.391 . S
C2880 C2882 1.394 . S
C2880 H2896 0.931 . S
C2881 C2880 1.391 . S
C2881 C2885 1.376 . S
C2882 C2880 1.394 . S
C2882 C2883 1.369 . S
C2882 C2886 1.531 . S
C2883 C2882 1.369 . S
C2883 C2884 1.410 . S
C2883 C2891 1.503 . S
C2884 C2883 1.410 . S
C2884 C2885 1.392 . S
C2884 C2887 1.511 . S
C2885 C2881 1.376 . S
C2885 C2884 1.392 . S
C2885 H2897 0.929 . S
C2886 C2882 1.531 . S
C2886 H2898 0.960 . S
C2886 H2899 0.962 . S
C2886 H2900 0.960 . S
C2887 C2884 1.511 . S
C2887 H2901 0.961 . S
C2887 H2902 0.961 . S
C2887 H2903 0.961 . S
C2888 C2889 1.370 . S
C2888 C2890 1.363 . S
C2888 H2904 0.931 . S
C2889 C2888 1.370 . S
C2889 C2893 1.408 . S
C2890 C2888 1.363 . S
C2890 C2891 1.370 . S
C2890 C2894 1.524 . S
C2891 C2883 1.503 . S
C2891 C2890 1.370 . S
C2891 C2892 1.403 . S
C2892 C2891 1.403 . S
C2892 C2893 1.404 . S
C2892 C2895 1.539 . S
C2893 C2889 1.408 . S
C2893 C2892 1.404 . S
C2893 H2905 0.930 . S
C2894 C2890 1.524 . S
C2894 H2906 0.956 . S
C2894 H2907 0.961 . S
C2894 H2908 0.961 . S
C2895 C2892 1.539 . S
C2895 H2909 0.958 . S
C2895 H2910 0.961 . S
C2895 H2911 0.960 . S
H2896 C2880 0.931 . S
H2897 C2885 0.929 . S
H2898 C2886 0.960 . S
H2899 C2886 0.962 . S
H2900 C2886 0.960 . S
H2901 C2887 0.961 . S
H2902 C2887 0.961 . S
H2903 C2887 0.961 . S
H2904 C2888 0.931 . S
H2905 C2893 0.930 . S
H2906 C2894 0.956 . S
H2907 C2894 0.961 . S
H2908 C2894 0.961 . S
H2909 C2895 0.958 . S
H2910 C2895 0.961 . S
H2911 C2895 0.960 . S
C2912 C2913 1.391 . S
C2912 C2914 1.394 . S
C2912 H2928 0.931 . S
C2913 C2912 1.391 . S
C2913 C2917 1.376 . S
C2914 C2912 1.394 . S
C2914 C2915 1.369 . S
C2914 C2918 1.531 . S
C2915 C2914 1.369 . S
C2915 C2916 1.410 . S
C2915 C2923 1.503 . S
C2916 C2915 1.410 . S
C2916 C2917 1.392 . S
C2916 C2919 1.511 . S
C2917 C2913 1.376 . S
C2917 C2916 1.392 . S
C2917 H2929 0.929 . S
C2918 C2914 1.531 . S
C2918 H2930 0.960 . S
C2918 H2931 0.962 . S
C2918 H2932 0.960 . S
C2919 C2916 1.511 . S
C2919 H2933 0.961 . S
C2919 H2934 0.961 . S
C2919 H2935 0.961 . S
C2920 C2921 1.360 1_655 S
C2920 C2922 1.363 . S
C2920 H2936 0.931 . S
C2921 C2920 1.360 1_455 S
C2921 C2925 1.405 1_455 S
C2922 C2920 1.363 . S
C2922 C2923 1.370 . S
C2922 C2926 1.524 . S
C2923 C2915 1.503 . S
C2923 C2922 1.370 . S
C2923 C2924 1.403 . S
C2924 C2923 1.403 . S
C2924 C2925 1.404 . S
C2924 C2927 1.539 . S
C2925 C2921 1.405 1_655 S
C2925 C2924 1.404 . S
C2925 H2937 0.930 1_655 S
C2926 C2922 1.524 . S
C2926 H2938 0.956 . S
C2926 H2939 0.961 . S
C2926 H2940 0.961 . S
C2927 C2924 1.539 . S
C2927 H2941 0.958 . S
C2927 H2942 0.961 . S
C2927 H2943 0.960 . S
H2928 C2912 0.931 . S
H2929 C2917 0.929 . S
H2930 C2918 0.960 . S
H2931 C2918 0.962 . S
H2932 C2918 0.960 . S
H2933 C2919 0.961 . S
H2934 C2919 0.961 . S
H2935 C2919 0.961 . S
H2936 C2920 0.931 . S
H2937 C2925 0.930 1_455 S
H2938 C2926 0.956 . S
H2939 C2926 0.961 . S
H2940 C2926 0.961 . S
H2941 C2927 0.958 . S
H2942 C2927 0.961 . S
H2943 C2927 0.960 . S
C2944 C2945 1.391 . S
C2944 C2946 1.394 . S
C2944 H2960 0.931 . S
C2945 C2944 1.391 . S
C2945 C2949 1.376 . S
C2946 C2944 1.394 . S
C2946 C2947 1.369 . S
C2946 C2950 1.531 . S
C2947 C2946 1.369 . S
C2947 C2948 1.410 . S
C2947 C2955 1.503 . S
C2948 C2947 1.410 . S
C2948 C2949 1.392 . S
C2948 C2951 1.511 . S
C2949 C2945 1.376 . S
C2949 C2948 1.392 . S
C2949 H2961 0.929 . S
C2950 C2946 1.531 . S
C2950 H2962 0.960 . S
C2950 H2963 0.962 . S
C2950 H2964 0.960 . S
C2951 C2948 1.511 . S
C2951 H2965 0.961 . S
C2951 H2966 0.961 . S
C2951 H2967 0.961 . S
C2952 C2953 1.370 . S
C2952 C2954 1.363 . S
C2952 H2968 0.931 . S
C2953 C2952 1.370 . S
C2953 C2957 1.408 . S
C2954 C2952 1.363 . S
C2954 C2955 1.370 . S
C2954 C2958 1.524 . S
C2955 C2947 1.503 . S
C2955 C2954 1.370 . S
C2955 C2956 1.403 . S
C2956 C2955 1.403 . S
C2956 C2957 1.404 . S
C2956 C2959 1.539 . S
C2957 C2953 1.408 . S
C2957 C2956 1.404 . S
C2957 H2969 0.930 . S
C2958 C2954 1.524 . S
C2958 H2970 0.956 . S
C2958 H2971 0.961 . S
C2958 H2972 0.961 . S
C2959 C2956 1.539 . S
C2959 H2973 0.958 . S
C2959 H2974 0.961 . S
C2959 H2975 0.960 . S
H2960 C2944 0.931 . S
H2961 C2949 0.929 . S
H2962 C2950 0.960 . S
H2963 C2950 0.962 . S
H2964 C2950 0.960 . S
H2965 C2951 0.961 . S
H2966 C2951 0.961 . S
H2967 C2951 0.961 . S
H2968 C2952 0.931 . S
H2969 C2957 0.930 . S
H2970 C2958 0.956 . S
H2971 C2958 0.961 . S
H2972 C2958 0.961 . S
H2973 C2959 0.958 . S
H2974 C2959 0.961 . S
H2975 C2959 0.960 . S
C2976 C2977 1.391 . S
C2976 C2978 1.394 . S
C2976 H2992 0.931 . S
C2977 C2976 1.391 . S
C2977 C2981 1.376 . S
C2978 C2976 1.394 . S
C2978 C2979 1.369 . S
C2978 C2982 1.531 . S
C2979 C2978 1.369 . S
C2979 C2980 1.410 . S
C2979 C2987 1.503 . S
C2980 C2979 1.410 . S
C2980 C2981 1.392 . S
C2980 C2983 1.511 . S
C2981 C2977 1.376 . S
C2981 C2980 1.392 . S
C2981 H2993 0.929 . S
C2982 C2978 1.531 . S
C2982 H2994 0.960 . S
C2982 H2995 0.962 . S
C2982 H2996 0.960 . S
C2983 C2980 1.511 . S
C2983 H2997 0.961 . S
C2983 H2998 0.961 . S
C2983 H2999 0.961 . S
C2984 C2985 1.370 1_655 S
C2984 C2986 1.363 . S
C2984 H3000 0.931 1_655 S
C2985 C2984 1.370 1_455 S
C2985 C2989 1.409 1_455 S
C2986 C2984 1.363 . S
C2986 C2987 1.370 . S
C2986 C2990 1.524 . S
C2987 C2979 1.503 . S
C2987 C2986 1.370 . S
C2987 C2988 1.403 . S
C2988 C2987 1.403 . S
C2988 C2989 1.404 . S
C2988 C2991 1.539 . S
C2989 C2985 1.409 1_655 S
C2989 C2988 1.404 . S
C2989 H3001 0.930 . S
C2990 C2986 1.524 . S
C2990 H3002 0.956 . S
C2990 H3003 0.961 . S
C2990 H3004 0.961 . S
C2991 C2988 1.539 . S
C2991 H3005 0.958 . S
C2991 H3006 0.961 . S
C2991 H3007 0.960 . S
H2992 C2976 0.931 . S
H2993 C2981 0.929 . S
H2994 C2982 0.960 . S
H2995 C2982 0.962 . S
H2996 C2982 0.960 . S
H2997 C2983 0.961 . S
H2998 C2983 0.961 . S
H2999 C2983 0.961 . S
H3000 C2984 0.931 1_455 S
H3001 C2989 0.930 . S
H3002 C2990 0.956 . S
H3003 C2990 0.961 . S
H3004 C2990 0.961 . S
H3005 C2991 0.958 . S
H3006 C2991 0.961 . S
H3007 C2991 0.960 . S
C3008 C3009 1.391 . S
C3008 C3010 1.394 . S
C3008 H3024 0.931 . S
C3009 C3008 1.391 . S
C3009 C3013 1.376 . S
C3010 C3008 1.394 . S
C3010 C3011 1.369 . S
C3010 C3014 1.531 . S
C3011 C3010 1.369 . S
C3011 C3012 1.410 . S
C3011 C3019 1.503 . S
C3012 C3011 1.410 . S
C3012 C3013 1.392 . S
C3012 C3015 1.511 . S
C3013 C3009 1.376 . S
C3013 C3012 1.392 . S
C3013 H3025 0.929 . S
C3014 C3010 1.531 . S
C3014 H3026 0.960 . S
C3014 H3027 0.962 . S
C3014 H3028 0.960 . S
C3015 C3012 1.511 . S
C3015 H3029 0.961 . S
C3015 H3030 0.961 . S
C3015 H3031 0.961 . S
C3016 C3017 1.370 . S
C3016 C3018 1.363 . S
C3016 H3032 0.931 . S
C3017 C3016 1.370 . S
C3017 C3021 1.408 . S
C3018 C3016 1.363 . S
C3018 C3019 1.370 . S
C3018 C3022 1.524 . S
C3019 C3011 1.503 . S
C3019 C3018 1.370 . S
C3019 C3020 1.403 . S
C3020 C3019 1.403 . S
C3020 C3021 1.404 . S
C3020 C3023 1.539 . S
C3021 C3017 1.408 . S
C3021 C3020 1.404 . S
C3021 H3033 0.930 . S
C3022 C3018 1.524 . S
C3022 H3034 0.956 . S
C3022 H3035 0.961 . S
C3022 H3036 0.961 . S
C3023 C3020 1.539 . S
C3023 H3037 0.958 . S
C3023 H3038 0.961 . S
C3023 H3039 0.960 . S
H3024 C3008 0.931 . S
H3025 C3013 0.929 . S
H3026 C3014 0.960 . S
H3027 C3014 0.962 . S
H3028 C3014 0.960 . S
H3029 C3015 0.961 . S
H3030 C3015 0.961 . S
H3031 C3015 0.961 . S
H3032 C3016 0.931 . S
H3033 C3021 0.930 . S
H3034 C3022 0.956 . S
H3035 C3022 0.961 . S
H3036 C3022 0.961 . S
H3037 C3023 0.958 . S
H3038 C3023 0.961 . S
H3039 C3023 0.960 . S
C3040 C3041 1.391 . S
C3040 C3042 1.394 . S
C3040 H3056 0.931 . S
C3041 C3040 1.391 . S
C3041 C3045 1.376 . S
C3042 C3040 1.394 . S
C3042 C3043 1.369 . S
C3042 C3046 1.531 . S
C3043 C3042 1.369 . S
C3043 C3044 1.410 . S
C3043 C3051 1.503 . S
C3044 C3043 1.410 . S
C3044 C3045 1.392 . S
C3044 C3047 1.511 . S
C3045 C3041 1.376 . S
C3045 C3044 1.392 . S
C3045 H3057 0.929 . S
C3046 C3042 1.531 . S
C3046 H3058 0.960 . S
C3046 H3059 0.962 . S
C3046 H3060 0.960 . S
C3047 C3044 1.511 . S
C3047 H3061 0.961 . S
C3047 H3062 0.961 . S
C3047 H3063 0.961 . S
C3048 C3049 1.370 . S
C3048 C3050 1.363 . S
C3048 H3064 0.931 . S
C3049 C3048 1.370 . S
C3049 C3053 1.408 . S
C3050 C3048 1.363 . S
C3050 C3051 1.370 . S
C3050 C3054 1.524 . S
C3051 C3043 1.503 . S
C3051 C3050 1.370 . S
C3051 C3052 1.403 . S
C3052 C3051 1.403 . S
C3052 C3053 1.404 . S
C3052 C3055 1.539 . S
C3053 C3049 1.408 . S
C3053 C3052 1.404 . S
C3053 H3065 0.930 . S
C3054 C3050 1.524 . S
C3054 H3066 0.956 . S
C3054 H3067 0.961 . S
C3054 H3068 0.961 . S
C3055 C3052 1.539 . S
C3055 H3069 0.958 . S
C3055 H3070 0.961 . S
C3055 H3071 0.960 . S
H3056 C3040 0.931 . S
H3057 C3045 0.929 . S
H3058 C3046 0.960 . S
H3059 C3046 0.962 . S
H3060 C3046 0.960 . S
H3061 C3047 0.961 . S
H3062 C3047 0.961 . S
H3063 C3047 0.961 . S
H3064 C3048 0.931 . S
H3065 C3053 0.930 . S
H3066 C3054 0.956 . S
H3067 C3054 0.961 . S
H3068 C3054 0.961 . S
H3069 C3055 0.958 . S
H3070 C3055 0.961 . S
H3071 C3055 0.960 . S
C3072 C3073 1.391 . S
C3072 C3074 1.394 . S
C3072 H3088 0.931 . S
C3073 C3072 1.391 . S
C3073 C3077 1.376 . S
C3074 C3072 1.394 . S
C3074 C3075 1.369 . S
C3074 C3078 1.531 . S
C3075 C3074 1.369 . S
C3075 C3076 1.410 . S
C3075 C3083 1.503 . S
C3076 C3075 1.410 . S
C3076 C3077 1.392 . S
C3076 C3079 1.511 . S
C3077 C3073 1.376 . S
C3077 C3076 1.392 . S
C3077 H3089 0.929 . S
C3078 C3074 1.531 . S
C3078 H3090 0.960 . S
C3078 H3091 0.962 . S
C3078 H3092 0.960 . S
C3079 C3076 1.511 . S
C3079 H3093 0.961 . S
C3079 H3094 0.961 . S
C3079 H3095 0.961 . S
C3080 C3081 1.370 . S
C3080 C3082 1.363 . S
C3080 H3096 0.931 . S
C3081 C3080 1.370 . S
C3081 C3085 1.408 . S
C3082 C3080 1.363 . S
C3082 C3083 1.370 . S
C3082 C3086 1.524 . S
C3083 C3075 1.503 . S
C3083 C3082 1.370 . S
C3083 C3084 1.403 . S
C3084 C3083 1.403 . S
C3084 C3085 1.404 . S
C3084 C3087 1.539 . S
C3085 C3081 1.408 . S
C3085 C3084 1.404 . S
C3085 H3097 0.930 . S
C3086 C3082 1.524 . S
C3086 H3098 0.956 . S
C3086 H3099 0.961 . S
C3086 H3100 0.961 . S
C3087 C3084 1.539 . S
C3087 H3101 0.958 . S
C3087 H3102 0.961 . S
C3087 H3103 0.960 . S
H3088 C3072 0.931 . S
H3089 C3077 0.929 . S
H3090 C3078 0.960 . S
H3091 C3078 0.962 . S
H3092 C3078 0.960 . S
H3093 C3079 0.961 . S
H3094 C3079 0.961 . S
H3095 C3079 0.961 . S
H3096 C3080 0.931 . S
H3097 C3085 0.930 . S
H3098 C3086 0.956 . S
H3099 C3086 0.961 . S
H3100 C3086 0.961 . S
H3101 C3087 0.958 . S
H3102 C3087 0.961 . S
H3103 C3087 0.960 . S
C3104 C3105 1.391 . S
C3104 C3106 1.394 . S
C3104 H3120 0.931 . S
C3105 C3104 1.391 . S
C3105 C3109 1.376 . S
C3106 C3104 1.394 . S
C3106 C3107 1.369 . S
C3106 C3110 1.531 . S
C3107 C3106 1.369 . S
C3107 C3108 1.410 . S
C3107 C3115 1.503 . S
C3108 C3107 1.410 . S
C3108 C3109 1.392 . S
C3108 C3111 1.511 . S
C3109 C3105 1.376 . S
C3109 C3108 1.392 . S
C3109 H3121 0.929 . S
C3110 C3106 1.531 . S
C3110 H3122 0.960 . S
C3110 H3123 0.962 . S
C3110 H3124 0.960 . S
C3111 C3108 1.511 . S
C3111 H3125 0.961 . S
C3111 H3126 0.961 . S
C3111 H3127 0.961 . S
C3112 C3113 1.370 . S
C3112 C3114 1.363 . S
C3112 H3128 0.931 . S
C3113 C3112 1.370 . S
C3113 C3117 1.408 . S
C3114 C3112 1.363 . S
C3114 C3115 1.370 . S
C3114 C3118 1.524 . S
C3115 C3107 1.503 . S
C3115 C3114 1.370 . S
C3115 C3116 1.403 . S
C3116 C3115 1.403 . S
C3116 C3117 1.404 . S
C3116 C3119 1.539 . S
C3117 C3113 1.408 . S
C3117 C3116 1.404 . S
C3117 H3129 0.930 . S
C3118 C3114 1.524 . S
C3118 H3130 0.956 . S
C3118 H3131 0.961 . S
C3118 H3132 0.961 . S
C3119 C3116 1.539 . S
C3119 H3133 0.958 . S
C3119 H3134 0.961 . S
C3119 H3135 0.960 . S
H3120 C3104 0.931 . S
H3121 C3109 0.929 . S
H3122 C3110 0.960 . S
H3123 C3110 0.962 . S
H3124 C3110 0.960 . S
H3125 C3111 0.961 . S
H3126 C3111 0.961 . S
H3127 C3111 0.961 . S
H3128 C3112 0.931 . S
H3129 C3117 0.930 . S
H3130 C3118 0.956 . S
H3131 C3118 0.961 . S
H3132 C3118 0.961 . S
H3133 C3119 0.958 . S
H3134 C3119 0.961 . S
H3135 C3119 0.960 . S
C3136 C3137 1.391 . S
C3136 C3138 1.394 . S
C3136 H3152 0.931 . S
C3137 C3136 1.391 . S
C3137 C3141 1.376 . S
C3138 C3136 1.394 . S
C3138 C3139 1.369 . S
C3138 C3142 1.531 . S
C3139 C3138 1.369 . S
C3139 C3140 1.410 . S
C3139 C3147 1.503 . S
C3140 C3139 1.410 . S
C3140 C3141 1.392 . S
C3140 C3143 1.511 . S
C3141 C3137 1.376 . S
C3141 C3140 1.392 . S
C3141 H3153 0.929 . S
C3142 C3138 1.531 . S
C3142 H3154 0.960 . S
C3142 H3155 0.962 . S
C3142 H3156 0.960 . S
C3143 C3140 1.511 . S
C3143 H3157 0.961 . S
C3143 H3158 0.961 . S
C3143 H3159 0.961 . S
C3144 C3145 1.370 . S
C3144 C3146 1.363 . S
C3144 H3160 0.931 . S
C3145 C3144 1.370 . S
C3145 C3149 1.408 . S
C3146 C3144 1.363 . S
C3146 C3147 1.370 . S
C3146 C3150 1.524 . S
C3147 C3139 1.503 . S
C3147 C3146 1.370 . S
C3147 C3148 1.403 . S
C3148 C3147 1.403 . S
C3148 C3149 1.404 . S
C3148 C3151 1.539 . S
C3149 C3145 1.408 . S
C3149 C3148 1.404 . S
C3149 H3161 0.930 . S
C3150 C3146 1.524 . S
C3150 H3162 0.956 . S
C3150 H3163 0.961 . S
C3150 H3164 0.961 . S
C3151 C3148 1.539 . S
C3151 H3165 0.958 . S
C3151 H3166 0.961 . S
C3151 H3167 0.960 . S
H3152 C3136 0.931 . S
H3153 C3141 0.929 . S
H3154 C3142 0.960 . S
H3155 C3142 0.962 . S
H3156 C3142 0.960 . S
H3157 C3143 0.961 . S
H3158 C3143 0.961 . S
H3159 C3143 0.961 . S
H3160 C3144 0.931 . S
H3161 C3149 0.930 . S
H3162 C3150 0.956 . S
H3163 C3150 0.961 . S
H3164 C3150 0.961 . S
H3165 C3151 0.958 . S
H3166 C3151 0.961 . S
H3167 C3151 0.960 . S
C3168 C3169 1.384 1_455 S
C3168 C3170 1.394 . S
C3168 H3184 0.931 . S
C3169 C3168 1.384 1_655 S
C3169 C3173 1.376 . S
C3170 C3168 1.394 . S
C3170 C3171 1.369 . S
C3170 C3174 1.531 . S
C3171 C3170 1.369 . S
C3171 C3172 1.410 . S
C3171 C3179 1.503 . S
C3172 C3171 1.410 . S
C3172 C3173 1.392 1_455 S
C3172 C3175 1.511 . S
C3173 C3169 1.376 . S
C3173 C3172 1.392 1_655 S
C3173 H3185 0.929 . S
C3174 C3170 1.531 . S
C3174 H3186 0.960 . S
C3174 H3187 0.962 . S
C3174 H3188 0.960 . S
C3175 C3172 1.511 . S
C3175 H3189 0.961 . S
C3175 H3190 0.961 . S
C3175 H3191 0.961 . S
C3176 C3177 1.370 . S
C3176 C3178 1.363 . S
C3176 H3192 0.931 . S
C3177 C3176 1.370 . S
C3177 C3181 1.408 . S
C3178 C3176 1.363 . S
C3178 C3179 1.370 . S
C3178 C3182 1.524 . S
C3179 C3171 1.503 . S
C3179 C3178 1.370 . S
C3179 C3180 1.403 . S
C3180 C3179 1.403 . S
C3180 C3181 1.404 . S
C3180 C3183 1.539 . S
C3181 C3177 1.408 . S
C3181 C3180 1.404 . S
C3181 H3193 0.930 . S
C3182 C3178 1.524 . S
C3182 H3194 0.956 . S
C3182 H3195 0.961 . S
C3182 H3196 0.961 . S
C3183 C3180 1.539 . S
C3183 H3197 0.958 . S
C3183 H3198 0.961 . S
C3183 H3199 0.960 . S
H3184 C3168 0.931 . S
H3185 C3173 0.929 . S
H3186 C3174 0.960 . S
H3187 C3174 0.962 . S
H3188 C3174 0.960 . S
H3189 C3175 0.961 . S
H3190 C3175 0.961 . S
H3191 C3175 0.961 . S
H3192 C3176 0.931 . S
H3193 C3181 0.930 . S
H3194 C3182 0.956 . S
H3195 C3182 0.961 . S
H3196 C3182 0.961 . S
H3197 C3183 0.958 . S
H3198 C3183 0.961 . S
H3199 C3183 0.960 . S
C3200 C3201 1.391 . S
C3200 C3202 1.394 . S
C3200 H3216 0.931 . S
C3201 C3200 1.391 . S
C3201 C3205 1.376 . S
C3202 C3200 1.394 . S
C3202 C3203 1.369 . S
C3202 C3206 1.531 . S
C3203 C3202 1.369 . S
C3203 C3204 1.410 . S
C3203 C3211 1.503 . S
C3204 C3203 1.410 . S
C3204 C3205 1.392 . S
C3204 C3207 1.511 . S
C3205 C3201 1.376 . S
C3205 C3204 1.392 . S
C3205 H3217 0.929 . S
C3206 C3202 1.531 . S
C3206 H3218 0.960 . S
C3206 H3219 0.962 . S
C3206 H3220 0.960 . S
C3207 C3204 1.511 . S
C3207 H3221 0.961 . S
C3207 H3222 0.961 . S
C3207 H3223 0.961 . S
C3208 C3209 1.370 . S
C3208 C3210 1.363 . S
C3208 H3224 0.931 . S
C3209 C3208 1.370 . S
C3209 C3213 1.408 . S
C3210 C3208 1.363 . S
C3210 C3211 1.370 . S
C3210 C3214 1.524 . S
C3211 C3203 1.503 . S
C3211 C3210 1.370 . S
C3211 C3212 1.403 . S
C3212 C3211 1.403 . S
C3212 C3213 1.404 . S
C3212 C3215 1.539 . S
C3213 C3209 1.408 . S
C3213 C3212 1.404 . S
C3213 H3225 0.930 . S
C3214 C3210 1.524 . S
C3214 H3226 0.956 . S
C3214 H3227 0.961 . S
C3214 H3228 0.961 . S
C3215 C3212 1.539 . S
C3215 H3229 0.958 . S
C3215 H3230 0.961 . S
C3215 H3231 0.960 . S
H3216 C3200 0.931 . S
H3217 C3205 0.929 . S
H3218 C3206 0.960 . S
H3219 C3206 0.962 . S
H3220 C3206 0.960 . S
H3221 C3207 0.961 . S
H3222 C3207 0.961 . S
H3223 C3207 0.961 . S
H3224 C3208 0.931 . S
H3225 C3213 0.930 . S
H3226 C3214 0.956 . S
H3227 C3214 0.961 . S
H3228 C3214 0.961 . S
H3229 C3215 0.958 . S
H3230 C3215 0.961 . S
H3231 C3215 0.960 . S
C3232 C3233 1.391 . S
C3232 C3234 1.394 . S
C3232 H3248 0.931 . S
C3233 C3232 1.391 . S
C3233 C3237 1.376 . S
C3234 C3232 1.394 . S
C3234 C3235 1.369 . S
C3234 C3238 1.531 . S
C3235 C3234 1.369 . S
C3235 C3236 1.410 . S
C3235 C3243 1.503 . S
C3236 C3235 1.410 . S
C3236 C3237 1.392 . S
C3236 C3239 1.511 . S
C3237 C3233 1.376 . S
C3237 C3236 1.392 . S
C3237 H3249 0.929 . S
C3238 C3234 1.531 . S
C3238 H3250 0.960 . S
C3238 H3251 0.962 . S
C3238 H3252 0.960 . S
C3239 C3236 1.511 . S
C3239 H3253 0.961 . S
C3239 H3254 0.961 . S
C3239 H3255 0.961 . S
C3240 C3241 1.337 1_455 S
C3240 C3242 1.363 . S
C3240 H3256 0.931 . S
C3241 C3240 1.337 1_655 S
C3241 C3245 1.410 . S
C3242 C3240 1.363 . S
C3242 C3243 1.370 . S
C3242 C3246 1.524 . S
C3243 C3235 1.503 . S
C3243 C3242 1.370 . S
C3243 C3244 1.403 . S
C3244 C3243 1.403 . S
C3244 C3245 1.404 1_455 S
C3244 C3247 1.539 . S
C3245 C3241 1.410 . S
C3245 C3244 1.404 1_655 S
C3245 H3257 0.930 . S
C3246 C3242 1.524 . S
C3246 H3258 0.956 . S
C3246 H3259 0.961 . S
C3246 H3260 0.961 . S
C3247 C3244 1.539 . S
C3247 H3261 0.958 . S
C3247 H3262 1.000 . S
C3247 H3263 0.960 . S
H3248 C3232 0.931 . S
H3249 C3237 0.929 . S
H3250 C3238 0.960 . S
H3251 C3238 0.962 . S
H3252 C3238 0.960 . S
H3253 C3239 0.961 . S
H3254 C3239 0.961 . S
H3255 C3239 0.961 . S
H3256 C3240 0.931 . S
H3257 C3245 0.930 . S
H3258 C3246 0.956 . S
H3259 C3246 0.961 . S
H3260 C3246 0.961 . S
H3261 C3247 0.958 . S
H3262 C3247 1.000 . S
H3263 C3247 0.960 . S
C3264 C3265 1.391 . S
C3264 C3266 1.394 . S
C3264 H3280 0.931 . S
C3265 C3264 1.391 . S
C3265 C3269 1.376 . S
C3266 C3264 1.394 . S
C3266 C3267 1.369 . S
C3266 C3270 1.531 . S
C3267 C3266 1.369 . S
C3267 C3268 1.410 . S
C3267 C3275 1.503 . S
C3268 C3267 1.410 . S
C3268 C3269 1.392 . S
C3268 C3271 1.511 . S
C3269 C3265 1.376 . S
C3269 C3268 1.392 . S
C3269 H3281 0.929 . S
C3270 C3266 1.531 . S
C3270 H3282 0.960 . S
C3270 H3283 0.962 . S
C3270 H3284 0.960 . S
C3271 C3268 1.511 . S
C3271 H3285 0.961 . S
C3271 H3286 0.961 . S
C3271 H3287 0.961 . S
C3272 C3273 1.370 . S
C3272 C3274 1.363 . S
C3272 H3288 0.931 . S
C3273 C3272 1.370 . S
C3273 C3277 1.408 . S
C3274 C3272 1.363 . S
C3274 C3275 1.370 . S
C3274 C3278 1.524 . S
C3275 C3267 1.503 . S
C3275 C3274 1.370 . S
C3275 C3276 1.403 . S
C3276 C3275 1.403 . S
C3276 C3277 1.404 . S
C3276 C3279 1.539 . S
C3277 C3273 1.408 . S
C3277 C3276 1.404 . S
C3277 H3289 0.930 . S
C3278 C3274 1.524 . S
C3278 H3290 0.956 . S
C3278 H3291 0.961 . S
C3278 H3292 0.961 . S
C3279 C3276 1.539 . S
C3279 H3293 0.958 . S
C3279 H3294 0.961 . S
C3279 H3295 0.960 . S
H3280 C3264 0.931 . S
H3281 C3269 0.929 . S
H3282 C3270 0.960 . S
H3283 C3270 0.962 . S
H3284 C3270 0.960 . S
H3285 C3271 0.961 . S
H3286 C3271 0.961 . S
H3287 C3271 0.961 . S
H3288 C3272 0.931 . S
H3289 C3277 0.930 . S
H3290 C3278 0.956 . S
H3291 C3278 0.961 . S
H3292 C3278 0.961 . S
H3293 C3279 0.958 . S
H3294 C3279 0.961 . S
H3295 C3279 0.960 . S
C3296 C3297 1.391 . S
C3296 C3298 1.394 . S
C3296 H3312 0.931 . S
C3297 C3296 1.391 . S
C3297 C3301 1.376 . S
C3298 C3296 1.394 . S
C3298 C3299 1.369 . S
C3298 C3302 1.531 . S
C3299 C3298 1.369 . S
C3299 C3300 1.410 . S
C3299 C3307 1.503 . S
C3300 C3299 1.410 . S
C3300 C3301 1.392 . S
C3300 C3303 1.511 . S
C3301 C3297 1.376 . S
C3301 C3300 1.392 . S
C3301 H3313 0.929 . S
C3302 C3298 1.531 . S
C3302 H3314 0.960 . S
C3302 H3315 0.962 . S
C3302 H3316 0.960 . S
C3303 C3300 1.511 . S
C3303 H3317 0.961 . S
C3303 H3318 0.961 . S
C3303 H3319 0.961 . S
C3304 C3305 1.370 . S
C3304 C3306 1.363 . S
C3304 H3320 0.931 . S
C3305 C3304 1.370 . S
C3305 C3309 1.408 . S
C3306 C3304 1.363 . S
C3306 C3307 1.370 . S
C3306 C3310 1.524 . S
C3307 C3299 1.503 . S
C3307 C3306 1.370 . S
C3307 C3308 1.403 . S
C3308 C3307 1.403 . S
C3308 C3309 1.404 . S
C3308 C3311 1.539 . S
C3309 C3305 1.408 . S
C3309 C3308 1.404 . S
C3309 H3321 0.930 . S
C3310 C3306 1.524 . S
C3310 H3322 0.956 . S
C3310 H3323 0.961 . S
C3310 H3324 0.961 . S
C3311 C3308 1.539 . S
C3311 H3325 0.958 . S
C3311 H3326 0.961 . S
C3311 H3327 0.960 . S
H3312 C3296 0.931 . S
H3313 C3301 0.929 . S
H3314 C3302 0.960 . S
H3315 C3302 0.962 . S
H3316 C3302 0.960 . S
H3317 C3303 0.961 . S
H3318 C3303 0.961 . S
H3319 C3303 0.961 . S
H3320 C3304 0.931 . S
H3321 C3309 0.930 . S
H3322 C3310 0.956 . S
H3323 C3310 0.961 . S
H3324 C3310 0.961 . S
H3325 C3311 0.958 . S
H3326 C3311 0.961 . S
H3327 C3311 0.960 . S
C3328 C3329 1.391 . S
C3328 C3330 1.394 . S
C3328 H3344 0.931 . S
C3329 C3328 1.391 . S
C3329 C3333 1.376 . S
C3330 C3328 1.394 . S
C3330 C3331 1.369 . S
C3330 C3334 1.531 . S
C3331 C3330 1.369 . S
C3331 C3332 1.410 . S
C3331 C3339 1.503 1_545 S
C3332 C3331 1.410 . S
C3332 C3333 1.392 . S
C3332 C3335 1.511 . S
C3333 C3329 1.376 . S
C3333 C3332 1.392 . S
C3333 H3345 0.929 . S
C3334 C3330 1.531 . S
C3334 H3346 0.960 1_545 S
C3334 H3347 0.962 . S
C3334 H3348 0.960 . S
C3335 C3332 1.511 . S
C3335 H3349 0.961 . S
C3335 H3350 0.961 1_545 S
C3335 H3351 0.961 . S
C3336 C3337 1.370 . S
C3336 C3338 1.363 . S
C3336 H3352 0.931 . S
C3337 C3336 1.370 . S
C3337 C3341 1.408 . S
C3338 C3336 1.363 . S
C3338 C3339 1.370 . S
C3338 C3342 1.524 . S
C3339 C3331 1.503 1_565 S
C3339 C3338 1.370 . S
C3339 C3340 1.403 . S
C3340 C3339 1.403 . S
C3340 C3341 1.404 . S
C3340 C3343 1.539 . S
C3341 C3337 1.408 . S
C3341 C3340 1.404 . S
C3341 H3353 0.930 . S
C3342 C3338 1.524 . S
C3342 H3354 0.939 1_565 S
C3342 H3355 0.961 1_565 S
C3342 H3356 0.961 . S
C3343 C3340 1.539 . S
C3343 H3357 0.958 . S
C3343 H3358 0.961 . S
C3343 H3359 0.960 . S
H3344 C3328 0.931 . S
H3345 C3333 0.929 . S
H3346 C3334 0.960 1_565 S
H3347 C3334 0.962 . S
H3348 C3334 0.960 . S
H3349 C3335 0.961 . S
H3350 C3335 0.961 1_565 S
H3351 C3335 0.961 . S
H3352 C3336 0.931 . S
H3353 C3341 0.930 . S
H3354 C3342 0.939 1_545 S
H3355 C3342 0.961 1_545 S
H3356 C3342 0.961 . S
H3357 C3343 0.958 . S
H3358 C3343 0.961 . S
H3359 C3343 0.960 . S
C3360 C3361 1.391 . S
C3360 C3362 1.394 . S
C3360 H3376 0.931 . S
C3361 C3360 1.391 . S
C3361 C3365 1.376 . S
C3362 C3360 1.394 . S
C3362 C3363 1.369 . S
C3362 C3366 1.531 . S
C3363 C3362 1.369 . S
C3363 C3364 1.410 . S
C3363 C3371 1.503 . S
C3364 C3363 1.410 . S
C3364 C3365 1.392 . S
C3364 C3367 1.511 . S
C3365 C3361 1.376 . S
C3365 C3364 1.392 . S
C3365 H3377 0.929 . S
C3366 C3362 1.531 . S
C3366 H3378 0.960 . S
C3366 H3379 0.962 . S
C3366 H3380 0.960 . S
C3367 C3364 1.511 . S
C3367 H3381 0.961 . S
C3367 H3382 0.961 . S
C3367 H3383 0.961 . S
C3368 C3369 1.370 . S
C3368 C3370 1.363 . S
C3368 H3384 0.931 . S
C3369 C3368 1.370 . S
C3369 C3373 1.408 . S
C3370 C3368 1.363 . S
C3370 C3371 1.370 . S
C3370 C3374 1.524 . S
C3371 C3363 1.503 . S
C3371 C3370 1.370 . S
C3371 C3372 1.403 . S
C3372 C3371 1.403 . S
C3372 C3373 1.404 . S
C3372 C3375 1.539 . S
C3373 C3369 1.408 . S
C3373 C3372 1.404 . S
C3373 H3385 0.930 . S
C3374 C3370 1.524 . S
C3374 H3386 0.956 . S
C3374 H3387 0.961 . S
C3374 H3388 0.961 . S
C3375 C3372 1.539 . S
C3375 H3389 0.958 . S
C3375 H3390 0.961 . S
C3375 H3391 0.960 . S
H3376 C3360 0.931 . S
H3377 C3365 0.929 . S
H3378 C3366 0.960 . S
H3379 C3366 0.962 . S
H3380 C3366 0.960 . S
H3381 C3367 0.961 . S
H3382 C3367 0.961 . S
H3383 C3367 0.961 . S
H3384 C3368 0.931 . S
H3385 C3373 0.930 . S
H3386 C3374 0.956 . S
H3387 C3374 0.961 . S
H3388 C3374 0.961 . S
H3389 C3375 0.958 . S
H3390 C3375 0.961 . S
H3391 C3375 0.960 . S
C3392 C3393 1.391 . S
C3392 C3394 1.394 . S
C3392 H3408 0.931 . S
C3393 C3392 1.391 . S
C3393 C3397 1.376 . S
C3394 C3392 1.394 . S
C3394 C3395 1.369 . S
C3394 C3398 1.531 . S
C3395 C3394 1.369 . S
C3395 C3396 1.410 . S
C3395 C3403 1.503 1_565 S
C3396 C3395 1.410 . S
C3396 C3397 1.392 . S
C3396 C3399 1.511 . S
C3397 C3393 1.376 . S
C3397 C3396 1.392 . S
C3397 H3409 0.929 . S
C3398 C3394 1.531 . S
C3398 H3410 0.960 1_565 S
C3398 H3411 0.962 . S
C3398 H3412 0.960 . S
C3399 C3396 1.511 . S
C3399 H3413 0.961 . S
C3399 H3414 0.961 1_565 S
C3399 H3415 0.961 . S
C3400 C3401 1.370 . S
C3400 C3402 1.363 . S
C3400 H3416 0.931 . S
C3401 C3400 1.370 . S
C3401 C3405 1.408 . S
C3402 C3400 1.363 . S
C3402 C3403 1.370 . S
C3402 C3406 1.524 . S
C3403 C3395 1.503 1_545 S
C3403 C3402 1.370 . S
C3403 C3404 1.403 . S
C3404 C3403 1.403 . S
C3404 C3405 1.404 . S
C3404 C3407 1.539 . S
C3405 C3401 1.408 . S
C3405 C3404 1.404 . S
C3405 H3417 0.930 . S
C3406 C3402 1.524 . S
C3406 H3418 0.956 . S
C3406 H3419 0.967 . S
C3406 H3420 0.961 . S
C3407 C3404 1.539 . S
C3407 H3421 0.958 . S
C3407 H3422 0.961 . S
C3407 H3423 0.926 1_545 S
H3408 C3392 0.931 . S
H3409 C3397 0.929 . S
H3410 C3398 0.960 1_545 S
H3411 C3398 0.962 . S
H3412 C3398 0.960 . S
H3413 C3399 0.961 . S
H3414 C3399 0.961 1_545 S
H3415 C3399 0.961 . S
H3416 C3400 0.931 . S
H3417 C3405 0.930 . S
H3418 C3406 0.956 . S
H3419 C3406 0.967 . S
H3420 C3406 0.961 . S
H3421 C3407 0.958 . S
H3422 C3407 0.961 . S
H3423 C3407 0.926 1_565 S
C3424 C3425 1.391 . S
C3424 C3426 1.394 . S
C3424 H3440 0.931 . S
C3425 C3424 1.391 . S
C3425 C3429 1.376 1_556 S
C3426 C3424 1.394 . S
C3426 C3427 1.369 1_556 S
C3426 C3430 1.531 . S
C3427 C3426 1.369 1_554 S
C3427 C3428 1.410 . S
C3427 C3435 1.503 . S
C3428 C3427 1.410 . S
C3428 C3429 1.392 . S
C3428 C3431 1.511 . S
C3429 C3425 1.376 1_554 S
C3429 C3428 1.392 . S
C3429 H3441 0.929 . S
C3430 C3426 1.531 . S
C3430 H3442 0.960 . S
C3430 H3443 0.962 . S
C3430 H3444 0.960 . S
C3431 C3428 1.511 . S
C3431 H3445 0.961 . S
C3431 H3446 0.961 . S
C3431 H3447 0.961 . S
C3432 C3433 1.370 1_556 S
C3432 C3434 1.363 . S
C3432 H3448 0.931 . S
C3433 C3432 1.370 1_554 S
C3433 C3437 1.408 . S
C3434 C3432 1.363 . S
C3434 C3435 1.370 1_556 S
C3434 C3438 1.524 . S
C3435 C3427 1.503 . S
C3435 C3434 1.370 1_554 S
C3435 C3436 1.403 . S
C3436 C3435 1.403 . S
C3436 C3437 1.404 . S
C3436 C3439 1.539 . S
C3437 C3433 1.408 . S
C3437 C3436 1.404 . S
C3437 H3449 0.930 . S
C3438 C3434 1.524 . S
C3438 H3450 0.956 . S
C3438 H3451 0.961 . S
C3438 H3452 0.961 . S
C3439 C3436 1.539 . S
C3439 H3453 0.958 . S
C3439 H3454 0.961 . S
C3439 H3455 0.960 . S
H3440 C3424 0.931 . S
H3441 C3429 0.929 . S
H3442 C3430 0.960 . S
H3443 C3430 0.962 . S
H3444 C3430 0.960 . S
H3445 C3431 0.961 . S
H3446 C3431 0.961 . S
H3447 C3431 0.961 . S
H3448 C3432 0.931 . S
H3449 C3437 0.930 . S
H3450 C3438 0.956 . S
H3451 C3438 0.961 . S
H3452 C3438 0.961 . S
H3453 C3439 0.958 . S
H3454 C3439 0.961 . S
H3455 C3439 0.960 . S
C3456 C3457 1.391 . S
C3456 C3458 1.394 . S
C3456 H3472 0.931 . S
C3457 C3456 1.391 . S
C3457 C3461 1.376 . S
C3458 C3456 1.394 . S
C3458 C3459 1.369 . S
C3458 C3462 1.531 . S
C3459 C3458 1.369 . S
C3459 C3460 1.410 . S
C3459 C3467 1.503 1_545 S
C3460 C3459 1.410 . S
C3460 C3461 1.392 . S
C3460 C3463 1.511 . S
C3461 C3457 1.376 . S
C3461 C3460 1.392 . S
C3461 H3473 0.929 . S
C3462 C3458 1.531 . S
C3462 H3474 0.963 1_545 S
C3462 H3475 0.962 . S
C3462 H3476 0.960 . S
C3463 C3460 1.511 . S
C3463 H3477 0.961 . S
C3463 H3478 0.961 1_545 S
C3463 H3479 0.961 . S
C3464 C3465 1.370 . S
C3464 C3466 1.363 . S
C3464 H3480 0.931 . S
C3465 C3464 1.370 . S
C3465 C3469 1.408 . S
C3466 C3464 1.363 . S
C3466 C3467 1.370 . S
C3466 C3470 1.524 . S
C3467 C3459 1.503 1_565 S
C3467 C3466 1.370 . S
C3467 C3468 1.403 . S
C3468 C3467 1.403 . S
C3468 C3469 1.404 . S
C3468 C3471 1.539 . S
C3469 C3465 1.408 . S
C3469 C3468 1.404 . S
C3469 H3481 0.930 . S
C3470 C3466 1.524 . S
C3470 H3482 0.956 . S
C3470 H3483 0.963 . S
C3470 H3484 0.961 . S
C3471 C3468 1.539 . S
C3471 H3485 0.958 . S
C3471 H3486 0.961 . S
C3471 H3487 0.937 1_565 S
H3472 C3456 0.931 . S
H3473 C3461 0.929 . S
H3474 C3462 0.963 1_565 S
H3475 C3462 0.962 . S
H3476 C3462 0.960 . S
H3477 C3463 0.961 . S
H3478 C3463 0.961 1_565 S
H3479 C3463 0.961 . S
H3480 C3464 0.931 . S
H3481 C3469 0.930 . S
H3482 C3470 0.956 . S
H3483 C3470 0.963 . S
H3484 C3470 0.961 . S
H3485 C3471 0.958 . S
H3486 C3471 0.961 . S
H3487 C3471 0.937 1_545 S
C3488 C3489 1.391 . S
C3488 C3490 1.394 . S
C3488 H3504 0.931 . S
C3489 C3488 1.391 . S
C3489 C3493 1.376 . S
C3490 C3488 1.394 . S
C3490 C3491 1.369 . S
C3490 C3494 1.531 . S
C3491 C3490 1.369 . S
C3491 C3492 1.410 . S
C3491 C3499 1.503 . S
C3492 C3491 1.410 . S
C3492 C3493 1.392 . S
C3492 C3495 1.511 . S
C3493 C3489 1.376 . S
C3493 C3492 1.392 . S
C3493 H3505 0.929 . S
C3494 C3490 1.531 . S
C3494 H3506 0.960 . S
C3494 H3507 0.962 . S
C3494 H3508 0.960 . S
C3495 C3492 1.511 . S
C3495 H3509 0.961 . S
C3495 H3510 0.961 . S
C3495 H3511 0.961 . S
C3496 C3497 1.370 . S
C3496 C3498 1.363 . S
C3496 H3512 0.931 . S
C3497 C3496 1.370 . S
C3497 C3501 1.408 . S
C3498 C3496 1.363 . S
C3498 C3499 1.370 . S
C3498 C3502 1.524 . S
C3499 C3491 1.503 . S
C3499 C3498 1.370 . S
C3499 C3500 1.403 . S
C3500 C3499 1.403 . S
C3500 C3501 1.404 . S
C3500 C3503 1.539 . S
C3501 C3497 1.408 . S
C3501 C3500 1.404 . S
C3501 H3513 0.930 . S
C3502 C3498 1.524 . S
C3502 H3514 0.956 . S
C3502 H3515 0.961 . S
C3502 H3516 0.961 . S
C3503 C3500 1.539 . S
C3503 H3517 0.958 . S
C3503 H3518 0.961 . S
C3503 H3519 0.960 . S
H3504 C3488 0.931 . S
H3505 C3493 0.929 . S
H3506 C3494 0.960 . S
H3507 C3494 0.962 . S
H3508 C3494 0.960 . S
H3509 C3495 0.961 . S
H3510 C3495 0.961 . S
H3511 C3495 0.961 . S
H3512 C3496 0.931 . S
H3513 C3501 0.930 . S
H3514 C3502 0.956 . S
H3515 C3502 0.961 . S
H3516 C3502 0.961 . S
H3517 C3503 0.958 . S
H3518 C3503 0.961 . S
H3519 C3503 0.960 . S
C3520 C3521 1.391 . S
C3520 C3522 1.394 . S
C3520 H3536 0.931 . S
C3521 C3520 1.391 . S
C3521 C3525 1.376 . S
C3522 C3520 1.394 . S
C3522 C3523 1.369 . S
C3522 C3526 1.531 . S
C3523 C3522 1.369 . S
C3523 C3524 1.410 . S
C3523 C3531 1.503 1_545 S
C3524 C3523 1.410 . S
C3524 C3525 1.392 . S
C3524 C3527 1.511 . S
C3525 C3521 1.376 . S
C3525 C3524 1.392 . S
C3525 H3537 0.929 . S
C3526 C3522 1.531 . S
C3526 H3538 0.960 1_545 S
C3526 H3539 0.962 . S
C3526 H3540 0.960 . S
C3527 C3524 1.511 . S
C3527 H3541 0.961 . S
C3527 H3542 0.961 1_545 S
C3527 H3543 0.961 . S
C3528 C3529 1.370 . S
C3528 C3530 1.363 . S
C3528 H3544 0.931 . S
C3529 C3528 1.370 . S
C3529 C3533 1.408 . S
C3530 C3528 1.363 . S
C3530 C3531 1.370 . S
C3530 C3534 1.524 . S
C3531 C3523 1.503 1_565 S
C3531 C3530 1.370 . S
C3531 C3532 1.403 . S
C3532 C3531 1.403 . S
C3532 C3533 1.404 . S
C3532 C3535 1.539 . S
C3533 C3529 1.408 . S
C3533 C3532 1.404 . S
C3533 H3545 0.930 . S
C3534 C3530 1.524 . S
C3534 H3546 0.958 1_565 S
C3534 H3547 0.961 1_565 S
C3534 H3548 0.961 . S
C3535 C3532 1.539 . S
C3535 H3549 0.958 . S
C3535 H3550 0.961 . S
C3535 H3551 0.960 . S
H3536 C3520 0.931 . S
H3537 C3525 0.929 . S
H3538 C3526 0.960 1_565 S
H3539 C3526 0.962 . S
H3540 C3526 0.960 . S
H3541 C3527 0.961 . S
H3542 C3527 0.961 1_565 S
H3543 C3527 0.961 . S
H3544 C3528 0.931 . S
H3545 C3533 0.930 . S
H3546 C3534 0.958 1_545 S
H3547 C3534 0.961 1_545 S
H3548 C3534 0.961 . S
H3549 C3535 0.958 . S
H3550 C3535 0.961 . S
H3551 C3535 0.960 . S
C3552 C3553 1.391 1_554 S
C3552 C3554 1.394 . S
C3552 H3568 0.931 . S
C3553 C3552 1.391 1_556 S
C3553 C3557 1.376 . S
C3554 C3552 1.394 . S
C3554 C3555 1.369 . S
C3554 C3558 1.531 . S
C3555 C3554 1.369 . S
C3555 C3556 1.410 1_554 S
C3555 C3563 1.503 . S
C3556 C3555 1.410 1_556 S
C3556 C3557 1.392 . S
C3556 C3559 1.511 . S
C3557 C3553 1.376 . S
C3557 C3556 1.392 . S
C3557 H3569 0.929 . S
C3558 C3554 1.531 . S
C3558 H3570 0.960 . S
C3558 H3571 0.962 . S
C3558 H3572 0.960 . S
C3559 C3556 1.511 . S
C3559 H3573 0.961 . S
C3559 H3574 0.961 . S
C3559 H3575 0.961 . S
C3560 C3561 1.370 1_556 S
C3560 C3562 1.363 . S
C3560 H3576 0.931 . S
C3561 C3560 1.370 1_554 S
C3561 C3565 1.408 . S
C3562 C3560 1.363 . S
C3562 C3563 1.370 1_556 S
C3562 C3566 1.524 . S
C3563 C3555 1.503 . S
C3563 C3562 1.370 1_554 S
C3563 C3564 1.403 . S
C3564 C3563 1.403 . S
C3564 C3565 1.404 . S
C3564 C3567 1.539 . S
C3565 C3561 1.408 . S
C3565 C3564 1.404 . S
C3565 H3577 0.930 . S
C3566 C3562 1.524 . S
C3566 H3578 0.956 1_556 S
C3566 H3579 0.961 . S
C3566 H3580 0.961 . S
C3567 C3564 1.539 . S
C3567 H3581 0.958 . S
C3567 H3582 0.961 . S
C3567 H3583 0.960 . S
H3568 C3552 0.931 . S
H3569 C3557 0.929 . S
H3570 C3558 0.960 . S
H3571 C3558 0.962 . S
H3572 C3558 0.960 . S
H3573 C3559 0.961 . S
H3574 C3559 0.961 . S
H3575 C3559 0.961 . S
H3576 C3560 0.931 . S
H3577 C3565 0.930 . S
H3578 C3566 0.956 1_554 S
H3579 C3566 0.961 . S
H3580 C3566 0.961 . S
H3581 C3567 0.958 . S
H3582 C3567 0.961 . S
H3583 C3567 0.960 . S
C3584 C3585 1.391 . S
C3584 C3586 1.394 . S
C3584 H3600 0.931 . S
C3585 C3584 1.391 . S
C3585 C3589 1.376 . S
C3586 C3584 1.394 . S
C3586 C3587 1.369 . S
C3586 C3590 1.531 . S
C3587 C3586 1.369 . S
C3587 C3588 1.410 . S
C3587 C3595 1.503 . S
C3588 C3587 1.410 . S
C3588 C3589 1.392 . S
C3588 C3591 1.511 . S
C3589 C3585 1.376 . S
C3589 C3588 1.392 . S
C3589 H3601 0.929 . S
C3590 C3586 1.531 . S
C3590 H3602 0.960 . S
C3590 H3603 0.962 . S
C3590 H3604 0.960 . S
C3591 C3588 1.511 . S
C3591 H3605 0.961 . S
C3591 H3606 0.961 . S
C3591 H3607 0.961 . S
C3592 C3593 1.370 . S
C3592 C3594 1.363 . S
C3592 H3608 0.931 . S
C3593 C3592 1.370 . S
C3593 C3597 1.408 . S
C3594 C3592 1.363 . S
C3594 C3595 1.370 . S
C3594 C3598 1.524 . S
C3595 C3587 1.503 . S
C3595 C3594 1.370 . S
C3595 C3596 1.403 . S
C3596 C3595 1.403 . S
C3596 C3597 1.404 . S
C3596 C3599 1.539 . S
C3597 C3593 1.408 . S
C3597 C3596 1.404 . S
C3597 H3609 0.930 . S
C3598 C3594 1.524 . S
C3598 H3610 0.956 . S
C3598 H3611 0.961 . S
C3598 H3612 0.961 . S
C3599 C3596 1.539 . S
C3599 H3613 0.958 . S
C3599 H3614 0.961 . S
C3599 H3615 0.960 . S
H3600 C3584 0.931 . S
H3601 C3589 0.929 . S
H3602 C3590 0.960 . S
H3603 C3590 0.962 . S
H3604 C3590 0.960 . S
H3605 C3591 0.961 . S
H3606 C3591 0.961 . S
H3607 C3591 0.961 . S
H3608 C3592 0.931 . S
H3609 C3597 0.930 . S
H3610 C3598 0.956 . S
H3611 C3598 0.961 . S
H3612 C3598 0.961 . S
H3613 C3599 0.958 . S
H3614 C3599 0.961 . S
H3615 C3599 0.960 . S
C3616 C3617 1.391 1_554 S
C3616 C3618 1.394 . S
C3616 H3632 0.931 . S
C3617 C3616 1.391 1_556 S
C3617 C3621 1.376 . S
C3618 C3616 1.394 . S
C3618 C3619 1.336 1_554 S
C3618 C3622 1.531 . S
C3619 C3618 1.336 1_556 S
C3619 C3620 1.445 . S
C3619 C3627 1.502 1_556 S
C3620 C3619 1.445 . S
C3620 C3621 1.392 . S
C3620 C3623 1.511 . S
C3621 C3617 1.376 . S
C3621 C3620 1.392 . S
C3621 H3633 0.929 . S
C3622 C3618 1.531 . S
C3622 H3634 0.960 . S
C3622 H3635 0.962 . S
C3622 H3636 0.960 . S
C3623 C3620 1.511 . S
C3623 H3637 0.961 . S
C3623 H3638 0.961 . S
C3623 H3639 0.961 . S
C3624 C3625 1.370 . S
C3624 C3626 1.363 . S
C3624 H3640 0.931 . S
C3625 C3624 1.370 . S
C3625 C3629 1.409 . S
C3626 C3624 1.363 . S
C3626 C3627 1.372 . S
C3626 C3630 1.524 . S
C3627 C3619 1.502 1_554 S
C3627 C3626 1.372 . S
C3627 C3628 1.401 1_554 S
C3628 C3627 1.401 1_556 S
C3628 C3629 1.403 1_556 S
C3628 C3631 1.545 . S
C3629 C3625 1.409 . S
C3629 C3628 1.403 1_554 S
C3629 H3641 0.928 1_554 S
C3630 C3626 1.524 . S
C3630 H3642 0.956 . S
C3630 H3643 0.961 1_554 S
C3630 H3644 0.961 . S
C3631 C3628 1.545 . S
C3631 H3645 0.958 1_556 S
C3631 H3646 0.961 . S
C3631 H3647 0.960 . S
H3632 C3616 0.931 . S
H3633 C3621 0.929 . S
H3634 C3622 0.960 . S
H3635 C3622 0.962 . S
H3636 C3622 0.960 . S
H3637 C3623 0.961 . S
H3638 C3623 0.961 . S
H3639 C3623 0.961 . S
H3640 C3624 0.931 . S
H3641 C3629 0.928 1_556 S
H3642 C3630 0.956 . S
H3643 C3630 0.961 1_556 S
H3644 C3630 0.961 . S
H3645 C3631 0.958 1_554 S
H3646 C3631 0.961 . S
H3647 C3631 0.960 . S
C3648 C3649 1.391 . S
C3648 C3650 1.394 . S
C3648 H3664 0.931 . S
C3649 C3648 1.391 . S
C3649 C3653 1.376 . S
C3650 C3648 1.394 . S
C3650 C3651 1.369 . S
C3650 C3654 1.531 . S
C3651 C3650 1.369 . S
C3651 C3652 1.410 . S
C3651 C3659 1.503 . S
C3652 C3651 1.410 . S
C3652 C3653 1.392 . S
C3652 C3655 1.511 . S
C3653 C3649 1.376 . S
C3653 C3652 1.392 . S
C3653 H3665 0.929 . S
C3654 C3650 1.531 . S
C3654 H3666 0.960 . S
C3654 H3667 0.962 . S
C3654 H3668 0.960 . S
C3655 C3652 1.511 . S
C3655 H3669 0.961 . S
C3655 H3670 0.961 . S
C3655 H3671 0.961 . S
C3656 C3657 1.370 . S
C3656 C3658 1.363 . S
C3656 H3672 0.931 . S
C3657 C3656 1.370 . S
C3657 C3661 1.408 . S
C3658 C3656 1.363 . S
C3658 C3659 1.370 . S
C3658 C3662 1.524 . S
C3659 C3651 1.503 . S
C3659 C3658 1.370 . S
C3659 C3660 1.403 . S
C3660 C3659 1.403 . S
C3660 C3661 1.404 . S
C3660 C3663 1.539 . S
C3661 C3657 1.408 . S
C3661 C3660 1.404 . S
C3661 H3673 0.930 . S
C3662 C3658 1.524 . S
C3662 H3674 0.956 . S
C3662 H3675 0.961 . S
C3662 H3676 0.961 . S
C3663 C3660 1.539 . S
C3663 H3677 0.958 . S
C3663 H3678 0.961 . S
C3663 H3679 0.960 . S
H3664 C3648 0.931 . S
H3665 C3653 0.929 . S
H3666 C3654 0.960 . S
H3667 C3654 0.962 . S
H3668 C3654 0.960 . S
H3669 C3655 0.961 . S
H3670 C3655 0.961 . S
H3671 C3655 0.961 . S
H3672 C3656 0.931 . S
H3673 C3661 0.930 . S
H3674 C3662 0.956 . S
H3675 C3662 0.961 . S
H3676 C3662 0.961 . S
H3677 C3663 0.958 . S
H3678 C3663 0.961 . S
H3679 C3663 0.960 . S
C3680 C3681 1.391 . S
C3680 C3682 1.394 . S
C3680 H3696 0.931 . S
C3681 C3680 1.391 . S
C3681 C3685 1.376 . S
C3682 C3680 1.394 . S
C3682 C3683 1.369 . S
C3682 C3686 1.531 . S
C3683 C3682 1.369 . S
C3683 C3684 1.410 . S
C3683 C3691 1.503 . S
C3684 C3683 1.410 . S
C3684 C3685 1.392 . S
C3684 C3687 1.511 . S
C3685 C3681 1.376 . S
C3685 C3684 1.392 . S
C3685 H3697 0.929 . S
C3686 C3682 1.531 . S
C3686 H3698 0.960 . S
C3686 H3699 0.962 . S
C3686 H3700 0.960 . S
C3687 C3684 1.511 . S
C3687 H3701 0.961 . S
C3687 H3702 0.961 . S
C3687 H3703 0.961 . S
C3688 C3689 1.370 . S
C3688 C3690 1.363 . S
C3688 H3704 0.931 . S
C3689 C3688 1.370 . S
C3689 C3693 1.408 . S
C3690 C3688 1.363 . S
C3690 C3691 1.370 . S
C3690 C3694 1.524 . S
C3691 C3683 1.503 . S
C3691 C3690 1.370 . S
C3691 C3692 1.403 . S
C3692 C3691 1.403 . S
C3692 C3693 1.404 . S
C3692 C3695 1.539 . S
C3693 C3689 1.408 . S
C3693 C3692 1.404 . S
C3693 H3705 0.930 . S
C3694 C3690 1.524 . S
C3694 H3706 0.956 . S
C3694 H3707 0.961 . S
C3694 H3708 0.961 . S
C3695 C3692 1.539 . S
C3695 H3709 0.958 . S
C3695 H3710 0.961 . S
C3695 H3711 0.960 . S
H3696 C3680 0.931 . S
H3697 C3685 0.929 . S
H3698 C3686 0.960 . S
H3699 C3686 0.962 . S
H3700 C3686 0.960 . S
H3701 C3687 0.961 . S
H3702 C3687 0.961 . S
H3703 C3687 0.961 . S
H3704 C3688 0.931 . S
H3705 C3693 0.930 . S
H3706 C3694 0.956 . S
H3707 C3694 0.961 . S
H3708 C3694 0.961 . S
H3709 C3695 0.958 . S
H3710 C3695 0.961 . S
H3711 C3695 0.960 . S
C3712 C3713 1.391 . S
C3712 C3714 1.394 . S
C3712 H3728 0.931 . S
C3713 C3712 1.391 . S
C3713 C3717 1.376 . S
C3714 C3712 1.394 . S
C3714 C3715 1.369 . S
C3714 C3718 1.531 . S
C3715 C3714 1.369 . S
C3715 C3716 1.410 . S
C3715 C3723 1.503 . S
C3716 C3715 1.410 . S
C3716 C3717 1.392 . S
C3716 C3719 1.511 . S
C3717 C3713 1.376 . S
C3717 C3716 1.392 . S
C3717 H3729 0.929 . S
C3718 C3714 1.531 . S
C3718 H3730 0.960 . S
C3718 H3731 0.962 . S
C3718 H3732 0.960 . S
C3719 C3716 1.511 . S
C3719 H3733 0.961 . S
C3719 H3734 0.961 . S
C3719 H3735 0.961 . S
C3720 C3721 1.370 . S
C3720 C3722 1.363 . S
C3720 H3736 0.931 . S
C3721 C3720 1.370 . S
C3721 C3725 1.408 . S
C3722 C3720 1.363 . S
C3722 C3723 1.370 . S
C3722 C3726 1.524 . S
C3723 C3715 1.503 . S
C3723 C3722 1.370 . S
C3723 C3724 1.403 . S
C3724 C3723 1.403 . S
C3724 C3725 1.404 . S
C3724 C3727 1.539 . S
C3725 C3721 1.408 . S
C3725 C3724 1.404 . S
C3725 H3737 0.930 . S
C3726 C3722 1.524 . S
C3726 H3738 0.956 . S
C3726 H3739 0.961 . S
C3726 H3740 0.961 . S
C3727 C3724 1.539 . S
C3727 H3741 0.958 . S
C3727 H3742 0.961 . S
C3727 H3743 0.960 . S
H3728 C3712 0.931 . S
H3729 C3717 0.929 . S
H3730 C3718 0.960 . S
H3731 C3718 0.962 . S
H3732 C3718 0.960 . S
H3733 C3719 0.961 . S
H3734 C3719 0.961 . S
H3735 C3719 0.961 . S
H3736 C3720 0.931 . S
H3737 C3725 0.930 . S
H3738 C3726 0.956 . S
H3739 C3726 0.961 . S
H3740 C3726 0.961 . S
H3741 C3727 0.958 . S
H3742 C3727 0.961 . S
H3743 C3727 0.960 . S
C3744 C3745 1.391 . S
C3744 C3746 1.394 . S
C3744 H3760 0.931 . S
C3745 C3744 1.391 . S
C3745 C3749 1.376 1_556 S
C3746 C3744 1.394 . S
C3746 C3747 1.396 . S
C3746 C3750 1.531 . S
C3747 C3746 1.396 . S
C3747 C3748 1.384 1_556 S
C3747 C3755 1.501 1_556 S
C3748 C3747 1.384 1_554 S
C3748 C3749 1.392 . S
C3748 C3751 1.511 . S
C3749 C3745 1.376 1_554 S
C3749 C3748 1.392 . S
C3749 H3761 0.929 . S
C3750 C3746 1.531 . S
C3750 H3762 0.960 . S
C3750 H3763 0.962 . S
C3750 H3764 0.960 . S
C3751 C3748 1.511 . S
C3751 H3765 0.961 . S
C3751 H3766 0.961 . S
C3751 H3767 0.961 . S
C3752 C3753 1.374 . S
C3752 C3754 1.363 1_554 S
C3752 H3768 0.929 1_554 S
C3753 C3752 1.374 . S
C3753 C3757 1.408 . S
C3754 C3752 1.363 1_556 S
C3754 C3755 1.370 1_556 S
C3754 C3758 1.524 . S
C3755 C3747 1.501 1_554 S
C3755 C3754 1.370 1_554 S
C3755 C3756 1.405 . S
C3756 C3755 1.405 . S
C3756 C3757 1.404 . S
C3756 C3759 1.539 . S
C3757 C3753 1.408 . S
C3757 C3756 1.404 . S
C3757 H3769 0.930 . S
C3758 C3754 1.524 . S
C3758 H3770 0.956 . S
C3758 H3771 0.961 1_556 S
C3758 H3772 0.961 . S
C3759 C3756 1.539 . S
C3759 H3773 0.958 1_554 S
C3759 H3774 0.961 . S
C3759 H3775 0.960 . S
H3760 C3744 0.931 . S
H3761 C3749 0.929 . S
H3762 C3750 0.960 . S
H3763 C3750 0.962 . S
H3764 C3750 0.960 . S
H3765 C3751 0.961 . S
H3766 C3751 0.961 . S
H3767 C3751 0.961 . S
H3768 C3752 0.929 1_556 S
H3769 C3757 0.930 . S
H3770 C3758 0.956 . S
H3771 C3758 0.961 1_554 S
H3772 C3758 0.961 . S
H3773 C3759 0.958 1_556 S
H3774 C3759 0.961 . S
H3775 C3759 0.960 . S
C3776 C3777 1.391 . S
C3776 C3778 1.394 . S
C3776 H3792 0.931 . S
C3777 C3776 1.391 . S
C3777 C3781 1.376 . S
C3778 C3776 1.394 . S
C3778 C3779 1.369 . S
C3778 C3782 1.531 . S
C3779 C3778 1.369 . S
C3779 C3780 1.410 . S
C3779 C3787 1.503 . S
C3780 C3779 1.410 . S
C3780 C3781 1.392 . S
C3780 C3783 1.511 . S
C3781 C3777 1.376 . S
C3781 C3780 1.392 . S
C3781 H3793 0.929 . S
C3782 C3778 1.531 . S
C3782 H3794 0.960 . S
C3782 H3795 0.962 . S
C3782 H3796 0.960 . S
C3783 C3780 1.511 . S
C3783 H3797 0.961 . S
C3783 H3798 0.961 . S
C3783 H3799 0.961 . S
C3784 C3785 1.370 . S
C3784 C3786 1.363 . S
C3784 H3800 0.931 . S
C3785 C3784 1.370 . S
C3785 C3789 1.408 . S
C3786 C3784 1.363 . S
C3786 C3787 1.370 . S
C3786 C3790 1.524 . S
C3787 C3779 1.503 . S
C3787 C3786 1.370 . S
C3787 C3788 1.403 . S
C3788 C3787 1.403 . S
C3788 C3789 1.404 . S
C3788 C3791 1.539 . S
C3789 C3785 1.408 . S
C3789 C3788 1.404 . S
C3789 H3801 0.930 . S
C3790 C3786 1.524 . S
C3790 H3802 0.956 . S
C3790 H3803 0.961 . S
C3790 H3804 0.961 . S
C3791 C3788 1.539 . S
C3791 H3805 0.958 . S
C3791 H3806 0.961 . S
C3791 H3807 0.960 . S
H3792 C3776 0.931 . S
H3793 C3781 0.929 . S
H3794 C3782 0.960 . S
H3795 C3782 0.962 . S
H3796 C3782 0.960 . S
H3797 C3783 0.961 . S
H3798 C3783 0.961 . S
H3799 C3783 0.961 . S
H3800 C3784 0.931 . S
H3801 C3789 0.930 . S
H3802 C3790 0.956 . S
H3803 C3790 0.961 . S
H3804 C3790 0.961 . S
H3805 C3791 0.958 . S
H3806 C3791 0.961 . S
H3807 C3791 0.960 . S
C3808 C3809 1.391 . S
C3808 C3810 1.394 . S
C3808 H3824 0.931 . S
C3809 C3808 1.391 . S
C3809 C3813 1.376 . S
C3810 C3808 1.394 . S
C3810 C3811 1.369 . S
C3810 C3814 1.531 . S
C3811 C3810 1.369 . S
C3811 C3812 1.410 . S
C3811 C3819 1.503 . S
C3812 C3811 1.410 . S
C3812 C3813 1.392 . S
C3812 C3815 1.511 . S
C3813 C3809 1.376 . S
C3813 C3812 1.392 . S
C3813 H3825 0.929 . S
C3814 C3810 1.531 . S
C3814 H3826 0.960 . S
C3814 H3827 0.962 . S
C3814 H3828 0.960 . S
C3815 C3812 1.511 . S
C3815 H3829 0.961 . S
C3815 H3830 0.961 . S
C3815 H3831 0.961 . S
C3816 C3817 1.370 . S
C3816 C3818 1.363 . S
C3816 H3832 0.931 . S
C3817 C3816 1.370 . S
C3817 C3821 1.408 . S
C3818 C3816 1.363 . S
C3818 C3819 1.370 . S
C3818 C3822 1.524 . S
C3819 C3811 1.503 . S
C3819 C3818 1.370 . S
C3819 C3820 1.403 . S
C3820 C3819 1.403 . S
C3820 C3821 1.404 . S
C3820 C3823 1.539 . S
C3821 C3817 1.408 . S
C3821 C3820 1.404 . S
C3821 H3833 0.930 . S
C3822 C3818 1.524 . S
C3822 H3834 0.956 . S
C3822 H3835 0.961 . S
C3822 H3836 0.961 . S
C3823 C3820 1.539 . S
C3823 H3837 0.958 . S
C3823 H3838 0.961 . S
C3823 H3839 0.960 . S
H3824 C3808 0.931 . S
H3825 C3813 0.929 . S
H3826 C3814 0.960 . S
H3827 C3814 0.962 . S
H3828 C3814 0.960 . S
H3829 C3815 0.961 . S
H3830 C3815 0.961 . S
H3831 C3815 0.961 . S
H3832 C3816 0.931 . S
H3833 C3821 0.930 . S
H3834 C3822 0.956 . S
H3835 C3822 0.961 . S
H3836 C3822 0.961 . S
H3837 C3823 0.958 . S
H3838 C3823 0.961 . S
H3839 C3823 0.960 . S
C3840 C3841 1.391 . S
C3840 C3842 1.394 . S
C3840 H3856 0.931 . S
C3841 C3840 1.391 . S
C3841 C3845 1.376 . S
C3842 C3840 1.394 . S
C3842 C3843 1.369 . S
C3842 C3846 1.531 . S
C3843 C3842 1.369 . S
C3843 C3844 1.410 . S
C3843 C3851 1.503 . S
C3844 C3843 1.410 . S
C3844 C3845 1.392 . S
C3844 C3847 1.511 . S
C3845 C3841 1.376 . S
C3845 C3844 1.392 . S
C3845 H3857 0.929 . S
C3846 C3842 1.531 . S
C3846 H3858 0.960 . S
C3846 H3859 0.962 . S
C3846 H3860 0.960 . S
C3847 C3844 1.511 . S
C3847 H3861 0.961 . S
C3847 H3862 0.961 . S
C3847 H3863 0.961 . S
C3848 C3849 1.370 . S
C3848 C3850 1.363 . S
C3848 H3864 0.931 . S
C3849 C3848 1.370 . S
C3849 C3853 1.408 . S
C3850 C3848 1.363 . S
C3850 C3851 1.370 . S
C3850 C3854 1.524 . S
C3851 C3843 1.503 . S
C3851 C3850 1.370 . S
C3851 C3852 1.403 . S
C3852 C3851 1.403 . S
C3852 C3853 1.404 . S
C3852 C3855 1.539 . S
C3853 C3849 1.408 . S
C3853 C3852 1.404 . S
C3853 H3865 0.930 . S
C3854 C3850 1.524 . S
C3854 H3866 0.956 . S
C3854 H3867 0.961 . S
C3854 H3868 0.961 . S
C3855 C3852 1.539 . S
C3855 H3869 0.958 . S
C3855 H3870 0.961 . S
C3855 H3871 0.960 . S
H3856 C3840 0.931 . S
H3857 C3845 0.929 . S
H3858 C3846 0.960 . S
H3859 C3846 0.962 . S
H3860 C3846 0.960 . S
H3861 C3847 0.961 . S
H3862 C3847 0.961 . S
H3863 C3847 0.961 . S
H3864 C3848 0.931 . S
H3865 C3853 0.930 . S
H3866 C3854 0.956 . S
H3867 C3854 0.961 . S
H3868 C3854 0.961 . S
H3869 C3855 0.958 . S
H3870 C3855 0.961 . S
H3871 C3855 0.960 . S
C3872 C3873 1.391 . S
C3872 C3874 1.394 . S
C3872 H3888 0.931 . S
C3873 C3872 1.391 . S
C3873 C3877 1.376 . S
C3874 C3872 1.394 . S
C3874 C3875 1.369 . S
C3874 C3878 1.531 . S
C3875 C3874 1.369 . S
C3875 C3876 1.410 . S
C3875 C3883 1.503 . S
C3876 C3875 1.410 . S
C3876 C3877 1.392 . S
C3876 C3879 1.511 . S
C3877 C3873 1.376 . S
C3877 C3876 1.392 . S
C3877 H3889 0.929 . S
C3878 C3874 1.531 . S
C3878 H3890 0.960 . S
C3878 H3891 0.962 . S
C3878 H3892 0.960 . S
C3879 C3876 1.511 . S
C3879 H3893 0.961 . S
C3879 H3894 0.961 . S
C3879 H3895 0.961 . S
C3880 C3881 1.370 . S
C3880 C3882 1.363 . S
C3880 H3896 0.931 . S
C3881 C3880 1.370 . S
C3881 C3885 1.408 . S
C3882 C3880 1.363 . S
C3882 C3883 1.370 . S
C3882 C3886 1.524 . S
C3883 C3875 1.503 . S
C3883 C3882 1.370 . S
C3883 C3884 1.403 . S
C3884 C3883 1.403 . S
C3884 C3885 1.404 . S
C3884 C3887 1.539 . S
C3885 C3881 1.408 . S
C3885 C3884 1.404 . S
C3885 H3897 0.930 . S
C3886 C3882 1.524 . S
C3886 H3898 0.956 . S
C3886 H3899 0.961 . S
C3886 H3900 0.961 . S
C3887 C3884 1.539 . S
C3887 H3901 0.958 . S
C3887 H3902 0.961 . S
C3887 H3903 0.960 . S
H3888 C3872 0.931 . S
H3889 C3877 0.929 . S
H3890 C3878 0.960 . S
H3891 C3878 0.962 . S
H3892 C3878 0.960 . S
H3893 C3879 0.961 . S
H3894 C3879 0.961 . S
H3895 C3879 0.961 . S
H3896 C3880 0.931 . S
H3897 C3885 0.930 . S
H3898 C3886 0.956 . S
H3899 C3886 0.961 . S
H3900 C3886 0.961 . S
H3901 C3887 0.958 . S
H3902 C3887 0.961 . S
H3903 C3887 0.960 . S
C3904 C3905 1.391 . S
C3904 C3906 1.394 . S
C3904 H3920 0.931 . S
C3905 C3904 1.391 . S
C3905 C3909 1.376 . S
C3906 C3904 1.394 . S
C3906 C3907 1.369 . S
C3906 C3910 1.531 . S
C3907 C3906 1.369 . S
C3907 C3908 1.410 . S
C3907 C3915 1.503 . S
C3908 C3907 1.410 . S
C3908 C3909 1.392 . S
C3908 C3911 1.511 . S
C3909 C3905 1.376 . S
C3909 C3908 1.392 . S
C3909 H3921 0.929 . S
C3910 C3906 1.531 . S
C3910 H3922 0.960 . S
C3910 H3923 0.962 . S
C3910 H3924 0.960 . S
C3911 C3908 1.511 . S
C3911 H3925 0.961 . S
C3911 H3926 0.961 . S
C3911 H3927 0.961 . S
C3912 C3913 1.370 . S
C3912 C3914 1.363 . S
C3912 H3928 0.931 . S
C3913 C3912 1.370 . S
C3913 C3917 1.408 . S
C3914 C3912 1.363 . S
C3914 C3915 1.370 . S
C3914 C3918 1.524 . S
C3915 C3907 1.503 . S
C3915 C3914 1.370 . S
C3915 C3916 1.403 . S
C3916 C3915 1.403 . S
C3916 C3917 1.404 . S
C3916 C3919 1.539 . S
C3917 C3913 1.408 . S
C3917 C3916 1.404 . S
C3917 H3929 0.930 . S
C3918 C3914 1.524 . S
C3918 H3930 0.956 . S
C3918 H3931 0.961 . S
C3918 H3932 0.961 . S
C3919 C3916 1.539 . S
C3919 H3933 0.958 . S
C3919 H3934 0.961 . S
C3919 H3935 0.960 . S
H3920 C3904 0.931 . S
H3921 C3909 0.929 . S
H3922 C3910 0.960 . S
H3923 C3910 0.962 . S
H3924 C3910 0.960 . S
H3925 C3911 0.961 . S
H3926 C3911 0.961 . S
H3927 C3911 0.961 . S
H3928 C3912 0.931 . S
H3929 C3917 0.930 . S
H3930 C3918 0.956 . S
H3931 C3918 0.961 . S
H3932 C3918 0.961 . S
H3933 C3919 0.958 . S
H3934 C3919 0.961 . S
H3935 C3919 0.960 . S
C3936 C3937 1.391 . S
C3936 C3938 1.394 . S
C3936 H3952 0.931 . S
C3937 C3936 1.391 . S
C3937 C3941 1.376 . S
C3938 C3936 1.394 . S
C3938 C3939 1.369 . S
C3938 C3942 1.531 . S
C3939 C3938 1.369 . S
C3939 C3940 1.410 . S
C3939 C3947 1.503 . S
C3940 C3939 1.410 . S
C3940 C3941 1.392 . S
C3940 C3943 1.511 . S
C3941 C3937 1.376 . S
C3941 C3940 1.392 . S
C3941 H3953 0.929 . S
C3942 C3938 1.531 . S
C3942 H3954 0.960 . S
C3942 H3955 0.962 . S
C3942 H3956 0.960 . S
C3943 C3940 1.511 . S
C3943 H3957 0.961 . S
C3943 H3958 0.961 . S
C3943 H3959 0.961 . S
C3944 C3945 1.370 . S
C3944 C3946 1.363 . S
C3944 H3960 0.931 . S
C3945 C3944 1.370 . S
C3945 C3949 1.408 . S
C3946 C3944 1.363 . S
C3946 C3947 1.370 . S
C3946 C3950 1.524 . S
C3947 C3939 1.503 . S
C3947 C3946 1.370 . S
C3947 C3948 1.403 . S
C3948 C3947 1.403 . S
C3948 C3949 1.404 . S
C3948 C3951 1.539 . S
C3949 C3945 1.408 . S
C3949 C3948 1.404 . S
C3949 H3961 0.930 . S
C3950 C3946 1.524 . S
C3950 H3962 0.956 . S
C3950 H3963 0.961 . S
C3950 H3964 0.961 . S
C3951 C3948 1.539 . S
C3951 H3965 0.958 . S
C3951 H3966 0.961 . S
C3951 H3967 0.960 . S
H3952 C3936 0.931 . S
H3953 C3941 0.929 . S
H3954 C3942 0.960 . S
H3955 C3942 0.962 . S
H3956 C3942 0.960 . S
H3957 C3943 0.961 . S
H3958 C3943 0.961 . S
H3959 C3943 0.961 . S
H3960 C3944 0.931 . S
H3961 C3949 0.930 . S
H3962 C3950 0.956 . S
H3963 C3950 0.961 . S
H3964 C3950 0.961 . S
H3965 C3951 0.958 . S
H3966 C3951 0.961 . S
H3967 C3951 0.960 . S
C3968 C3969 1.391 . S
C3968 C3970 1.394 . S
C3968 H3984 0.931 . S
C3969 C3968 1.391 . S
C3969 C3973 1.376 . S
C3970 C3968 1.394 . S
C3970 C3971 1.369 . S
C3970 C3974 1.531 . S
C3971 C3970 1.369 . S
C3971 C3972 1.410 . S
C3971 C3979 1.503 . S
C3972 C3971 1.410 . S
C3972 C3973 1.392 . S
C3972 C3975 1.511 . S
C3973 C3969 1.376 . S
C3973 C3972 1.392 . S
C3973 H3985 0.929 . S
C3974 C3970 1.531 . S
C3974 H3986 0.960 . S
C3974 H3987 0.962 . S
C3974 H3988 0.960 . S
C3975 C3972 1.511 . S
C3975 H3989 0.961 . S
C3975 H3990 0.961 . S
C3975 H3991 0.961 . S
C3976 C3977 1.370 . S
C3976 C3978 1.363 . S
C3976 H3992 0.931 . S
C3977 C3976 1.370 . S
C3977 C3981 1.408 . S
C3978 C3976 1.363 . S
C3978 C3979 1.370 . S
C3978 C3982 1.524 . S
C3979 C3971 1.503 . S
C3979 C3978 1.370 . S
C3979 C3980 1.403 . S
C3980 C3979 1.403 . S
C3980 C3981 1.404 . S
C3980 C3983 1.539 . S
C3981 C3977 1.408 . S
C3981 C3980 1.404 . S
C3981 H3993 0.930 . S
C3982 C3978 1.524 . S
C3982 H3994 0.956 . S
C3982 H3995 0.961 . S
C3982 H3996 0.961 . S
C3983 C3980 1.539 . S
C3983 H3997 0.958 . S
C3983 H3998 0.961 . S
C3983 H3999 0.960 . S
H3984 C3968 0.931 . S
H3985 C3973 0.929 . S
H3986 C3974 0.960 . S
H3987 C3974 0.962 . S
H3988 C3974 0.960 . S
H3989 C3975 0.961 . S
H3990 C3975 0.961 . S
H3991 C3975 0.961 . S
H3992 C3976 0.931 . S
H3993 C3981 0.930 . S
H3994 C3982 0.956 . S
H3995 C3982 0.961 . S
H3996 C3982 0.961 . S
H3997 C3983 0.958 . S
H3998 C3983 0.961 . S
H3999 C3983 0.960 . S
C4000 C4001 1.391 . S
C4000 C4002 1.394 . S
C4000 H4016 0.931 . S
C4001 C4000 1.391 . S
C4001 C4005 1.376 . S
C4002 C4000 1.394 . S
C4002 C4003 1.369 . S
C4002 C4006 1.531 . S
C4003 C4002 1.369 . S
C4003 C4004 1.410 . S
C4003 C4011 1.503 . S
C4004 C4003 1.410 . S
C4004 C4005 1.392 . S
C4004 C4007 1.511 . S
C4005 C4001 1.376 . S
C4005 C4004 1.392 . S
C4005 H4017 0.929 . S
C4006 C4002 1.531 . S
C4006 H4018 0.960 . S
C4006 H4019 0.962 . S
C4006 H4020 0.960 . S
C4007 C4004 1.511 . S
C4007 H4021 0.961 . S
C4007 H4022 0.961 . S
C4007 H4023 0.961 . S
C4008 C4009 1.370 . S
C4008 C4010 1.363 . S
C4008 H4024 0.931 . S
C4009 C4008 1.370 . S
C4009 C4013 1.408 . S
C4010 C4008 1.363 . S
C4010 C4011 1.370 . S
C4010 C4014 1.524 . S
C4011 C4003 1.503 . S
C4011 C4010 1.370 . S
C4011 C4012 1.403 . S
C4012 C4011 1.403 . S
C4012 C4013 1.404 . S
C4012 C4015 1.539 . S
C4013 C4009 1.408 . S
C4013 C4012 1.404 . S
C4013 H4025 0.930 . S
C4014 C4010 1.524 . S
C4014 H4026 0.956 . S
C4014 H4027 0.961 . S
C4014 H4028 0.961 . S
C4015 C4012 1.539 . S
C4015 H4029 0.958 . S
C4015 H4030 0.961 . S
C4015 H4031 0.960 . S
H4016 C4000 0.931 . S
H4017 C4005 0.929 . S
H4018 C4006 0.960 . S
H4019 C4006 0.962 . S
H4020 C4006 0.960 . S
H4021 C4007 0.961 . S
H4022 C4007 0.961 . S
H4023 C4007 0.961 . S
H4024 C4008 0.931 . S
H4025 C4013 0.930 . S
H4026 C4014 0.956 . S
H4027 C4014 0.961 . S
H4028 C4014 0.961 . S
H4029 C4015 0.958 . S
H4030 C4015 0.961 . S
H4031 C4015 0.960 . S
C4032 C4033 1.391 . S
C4032 C4034 1.394 . S
C4032 H4048 0.931 . S
C4033 C4032 1.391 . S
C4033 C4037 1.376 . S
C4034 C4032 1.394 . S
C4034 C4035 1.369 . S
C4034 C4038 1.531 . S
C4035 C4034 1.369 . S
C4035 C4036 1.410 . S
C4035 C4043 1.503 . S
C4036 C4035 1.410 . S
C4036 C4037 1.392 . S
C4036 C4039 1.511 . S
C4037 C4033 1.376 . S
C4037 C4036 1.392 . S
C4037 H4049 0.929 . S
C4038 C4034 1.531 . S
C4038 H4050 0.960 . S
C4038 H4051 0.962 . S
C4038 H4052 0.960 . S
C4039 C4036 1.511 . S
C4039 H4053 0.961 . S
C4039 H4054 0.961 . S
C4039 H4055 0.961 . S
C4040 C4041 1.370 . S
C4040 C4042 1.363 . S
C4040 H4056 0.931 . S
C4041 C4040 1.370 . S
C4041 C4045 1.408 . S
C4042 C4040 1.363 . S
C4042 C4043 1.370 . S
C4042 C4046 1.524 . S
C4043 C4035 1.503 . S
C4043 C4042 1.370 . S
C4043 C4044 1.403 . S
C4044 C4043 1.403 . S
C4044 C4045 1.404 . S
C4044 C4047 1.539 . S
C4045 C4041 1.408 . S
C4045 C4044 1.404 . S
C4045 H4057 0.930 . S
C4046 C4042 1.524 . S
C4046 H4058 0.956 . S
C4046 H4059 0.961 . S
C4046 H4060 0.961 . S
C4047 C4044 1.539 . S
C4047 H4061 0.958 . S
C4047 H4062 0.961 . S
C4047 H4063 0.960 . S
H4048 C4032 0.931 . S
H4049 C4037 0.929 . S
H4050 C4038 0.960 . S
H4051 C4038 0.962 . S
H4052 C4038 0.960 . S
H4053 C4039 0.961 . S
H4054 C4039 0.961 . S
H4055 C4039 0.961 . S
H4056 C4040 0.931 . S
H4057 C4045 0.930 . S
H4058 C4046 0.956 . S
H4059 C4046 0.961 . S
H4060 C4046 0.961 . S
H4061 C4047 0.958 . S
H4062 C4047 0.961 . S
H4063 C4047 0.960 . S
C4064 C4065 1.391 . S
C4064 C4066 1.394 . S
C4064 H4080 0.931 . S
C4065 C4064 1.391 . S
C4065 C4069 1.376 . S
C4066 C4064 1.394 . S
C4066 C4067 1.369 . S
C4066 C4070 1.531 . S
C4067 C4066 1.369 . S
C4067 C4068 1.410 . S
C4067 C4075 1.503 . S
C4068 C4067 1.410 . S
C4068 C4069 1.392 . S
C4068 C4071 1.511 . S
C4069 C4065 1.376 . S
C4069 C4068 1.392 . S
C4069 H4081 0.929 . S
C4070 C4066 1.531 . S
C4070 H4082 0.960 . S
C4070 H4083 0.962 . S
C4070 H4084 0.960 . S
C4071 C4068 1.511 . S
C4071 H4085 0.961 . S
C4071 H4086 0.961 . S
C4071 H4087 0.961 . S
C4072 C4073 1.370 . S
C4072 C4074 1.363 . S
C4072 H4088 0.931 . S
C4073 C4072 1.370 . S
C4073 C4077 1.408 . S
C4074 C4072 1.363 . S
C4074 C4075 1.370 . S
C4074 C4078 1.524 . S
C4075 C4067 1.503 . S
C4075 C4074 1.370 . S
C4075 C4076 1.403 . S
C4076 C4075 1.403 . S
C4076 C4077 1.404 . S
C4076 C4079 1.539 . S
C4077 C4073 1.408 . S
C4077 C4076 1.404 . S
C4077 H4089 0.930 . S
C4078 C4074 1.524 . S
C4078 H4090 0.956 . S
C4078 H4091 0.961 . S
C4078 H4092 0.961 . S
C4079 C4076 1.539 . S
C4079 H4093 0.958 . S
C4079 H4094 0.961 . S
C4079 H4095 0.960 . S
H4080 C4064 0.931 . S
H4081 C4069 0.929 . S
H4082 C4070 0.960 . S
H4083 C4070 0.962 . S
H4084 C4070 0.960 . S
H4085 C4071 0.961 . S
H4086 C4071 0.961 . S
H4087 C4071 0.961 . S
H4088 C4072 0.931 . S
H4089 C4077 0.930 . S
H4090 C4078 0.956 . S
H4091 C4078 0.961 . S
H4092 C4078 0.961 . S
H4093 C4079 0.958 . S
H4094 C4079 0.961 . S
H4095 C4079 0.960 . S
C4096 C4097 1.391 . S
C4096 C4098 1.394 . S
C4096 H4112 0.931 . S
C4097 C4096 1.391 . S
C4097 C4101 1.376 . S
C4098 C4096 1.394 . S
C4098 C4099 1.369 . S
C4098 C4102 1.531 . S
C4099 C4098 1.369 . S
C4099 C4100 1.410 . S
C4099 C4107 1.503 . S
C4100 C4099 1.410 . S
C4100 C4101 1.392 . S
C4100 C4103 1.511 . S
C4101 C4097 1.376 . S
C4101 C4100 1.392 . S
C4101 H4113 0.929 . S
C4102 C4098 1.531 . S
C4102 H4114 0.960 . S
C4102 H4115 0.962 . S
C4102 H4116 0.960 . S
C4103 C4100 1.511 . S
C4103 H4117 0.961 . S
C4103 H4118 0.961 . S
C4103 H4119 0.961 . S
C4104 C4105 1.370 . S
C4104 C4106 1.363 . S
C4104 H4120 0.931 . S
C4105 C4104 1.370 . S
C4105 C4109 1.408 . S
C4106 C4104 1.363 . S
C4106 C4107 1.370 . S
C4106 C4110 1.524 . S
C4107 C4099 1.503 . S
C4107 C4106 1.370 . S
C4107 C4108 1.403 . S
C4108 C4107 1.403 . S
C4108 C4109 1.404 . S
C4108 C4111 1.539 . S
C4109 C4105 1.408 . S
C4109 C4108 1.404 . S
C4109 H4121 0.930 . S
C4110 C4106 1.524 . S
C4110 H4122 0.956 . S
C4110 H4123 0.961 . S
C4110 H4124 0.961 . S
C4111 C4108 1.539 . S
C4111 H4125 0.958 . S
C4111 H4126 0.961 . S
C4111 H4127 0.960 . S
H4112 C4096 0.931 . S
H4113 C4101 0.929 . S
H4114 C4102 0.960 . S
H4115 C4102 0.962 . S
H4116 C4102 0.960 . S
H4117 C4103 0.961 . S
H4118 C4103 0.961 . S
H4119 C4103 0.961 . S
H4120 C4104 0.931 . S
H4121 C4109 0.930 . S
H4122 C4110 0.956 . S
H4123 C4110 0.961 . S
H4124 C4110 0.961 . S
H4125 C4111 0.958 . S
H4126 C4111 0.961 . S
H4127 C4111 0.960 . S
C4128 C4129 1.391 . S
C4128 C4130 1.394 . S
C4128 H4144 0.931 . S
C4129 C4128 1.391 . S
C4129 C4133 1.376 . S
C4130 C4128 1.394 . S
C4130 C4131 1.369 . S
C4130 C4134 1.531 . S
C4131 C4130 1.369 . S
C4131 C4132 1.410 . S
C4131 C4139 1.503 . S
C4132 C4131 1.410 . S
C4132 C4133 1.392 . S
C4132 C4135 1.511 . S
C4133 C4129 1.376 . S
C4133 C4132 1.392 . S
C4133 H4145 0.929 . S
C4134 C4130 1.531 . S
C4134 H4146 0.960 . S
C4134 H4147 0.962 . S
C4134 H4148 0.960 . S
C4135 C4132 1.511 . S
C4135 H4149 0.961 . S
C4135 H4150 0.961 . S
C4135 H4151 0.961 . S
C4136 C4137 1.370 . S
C4136 C4138 1.363 . S
C4136 H4152 0.931 . S
C4137 C4136 1.370 . S
C4137 C4141 1.408 . S
C4138 C4136 1.363 . S
C4138 C4139 1.370 . S
C4138 C4142 1.524 . S
C4139 C4131 1.503 . S
C4139 C4138 1.370 . S
C4139 C4140 1.403 . S
C4140 C4139 1.403 . S
C4140 C4141 1.404 . S
C4140 C4143 1.539 . S
C4141 C4137 1.408 . S
C4141 C4140 1.404 . S
C4141 H4153 0.930 . S
C4142 C4138 1.524 . S
C4142 H4154 0.956 . S
C4142 H4155 0.961 . S
C4142 H4156 0.961 . S
C4143 C4140 1.539 . S
C4143 H4157 0.958 . S
C4143 H4158 0.961 . S
C4143 H4159 0.960 . S
H4144 C4128 0.931 . S
H4145 C4133 0.929 . S
H4146 C4134 0.960 . S
H4147 C4134 0.962 . S
H4148 C4134 0.960 . S
H4149 C4135 0.961 . S
H4150 C4135 0.961 . S
H4151 C4135 0.961 . S
H4152 C4136 0.931 . S
H4153 C4141 0.930 . S
H4154 C4142 0.956 . S
H4155 C4142 0.961 . S
H4156 C4142 0.961 . S
H4157 C4143 0.958 . S
H4158 C4143 0.961 . S
H4159 C4143 0.960 . S
C4160 C4161 1.391 . S
C4160 C4162 1.394 . S
C4160 H4176 0.931 . S
C4161 C4160 1.391 . S
C4161 C4165 1.376 . S
C4162 C4160 1.394 . S
C4162 C4163 1.369 . S
C4162 C4166 1.531 . S
C4163 C4162 1.369 . S
C4163 C4164 1.410 . S
C4163 C4171 1.503 . S
C4164 C4163 1.410 . S
C4164 C4165 1.392 . S
C4164 C4167 1.511 . S
C4165 C4161 1.376 . S
C4165 C4164 1.392 . S
C4165 H4177 0.929 . S
C4166 C4162 1.531 . S
C4166 H4178 0.960 . S
C4166 H4179 0.962 . S
C4166 H4180 0.960 . S
C4167 C4164 1.511 . S
C4167 H4181 0.961 . S
C4167 H4182 0.961 . S
C4167 H4183 0.961 . S
C4168 C4169 1.370 . S
C4168 C4170 1.363 . S
C4168 H4184 0.931 . S
C4169 C4168 1.370 . S
C4169 C4173 1.408 . S
C4170 C4168 1.363 . S
C4170 C4171 1.370 . S
C4170 C4174 1.524 . S
C4171 C4163 1.503 . S
C4171 C4170 1.370 . S
C4171 C4172 1.403 . S
C4172 C4171 1.403 . S
C4172 C4173 1.404 . S
C4172 C4175 1.539 . S
C4173 C4169 1.408 . S
C4173 C4172 1.404 . S
C4173 H4185 0.930 . S
C4174 C4170 1.524 . S
C4174 H4186 0.956 . S
C4174 H4187 0.961 . S
C4174 H4188 0.961 . S
C4175 C4172 1.539 . S
C4175 H4189 0.958 . S
C4175 H4190 0.961 . S
C4175 H4191 0.960 . S
H4176 C4160 0.931 . S
H4177 C4165 0.929 . S
H4178 C4166 0.960 . S
H4179 C4166 0.962 . S
H4180 C4166 0.960 . S
H4181 C4167 0.961 . S
H4182 C4167 0.961 . S
H4183 C4167 0.961 . S
H4184 C4168 0.931 . S
H4185 C4173 0.930 . S
H4186 C4174 0.956 . S
H4187 C4174 0.961 . S
H4188 C4174 0.961 . S
H4189 C4175 0.958 . S
H4190 C4175 0.961 . S
H4191 C4175 0.960 . S
C4192 C4193 1.391 . S
C4192 C4194 1.394 . S
C4192 H4208 0.931 . S
C4193 C4192 1.391 . S
C4193 C4197 1.376 . S
C4194 C4192 1.394 . S
C4194 C4195 1.369 . S
C4194 C4198 1.531 . S
C4195 C4194 1.369 . S
C4195 C4196 1.410 . S
C4195 C4203 1.503 . S
C4196 C4195 1.410 . S
C4196 C4197 1.392 . S
C4196 C4199 1.511 . S
C4197 C4193 1.376 . S
C4197 C4196 1.392 . S
C4197 H4209 0.929 . S
C4198 C4194 1.531 . S
C4198 H4210 0.960 . S
C4198 H4211 0.962 . S
C4198 H4212 0.960 . S
C4199 C4196 1.511 . S
C4199 H4213 0.961 . S
C4199 H4214 0.961 . S
C4199 H4215 0.961 . S
C4200 C4201 1.370 . S
C4200 C4202 1.363 . S
C4200 H4216 0.931 . S
C4201 C4200 1.370 . S
C4201 C4205 1.408 . S
C4202 C4200 1.363 . S
C4202 C4203 1.370 . S
C4202 C4206 1.524 . S
C4203 C4195 1.503 . S
C4203 C4202 1.370 . S
C4203 C4204 1.403 . S
C4204 C4203 1.403 . S
C4204 C4205 1.404 . S
C4204 C4207 1.539 . S
C4205 C4201 1.408 . S
C4205 C4204 1.404 . S
C4205 H4217 0.930 . S
C4206 C4202 1.524 . S
C4206 H4218 0.956 . S
C4206 H4219 0.961 . S
C4206 H4220 0.961 . S
C4207 C4204 1.539 . S
C4207 H4221 0.958 . S
C4207 H4222 0.961 . S
C4207 H4223 0.960 . S
H4208 C4192 0.931 . S
H4209 C4197 0.929 . S
H4210 C4198 0.960 . S
H4211 C4198 0.962 . S
H4212 C4198 0.960 . S
H4213 C4199 0.961 . S
H4214 C4199 0.961 . S
H4215 C4199 0.961 . S
H4216 C4200 0.931 . S
H4217 C4205 0.930 . S
H4218 C4206 0.956 . S
H4219 C4206 0.961 . S
H4220 C4206 0.961 . S
H4221 C4207 0.958 . S
H4222 C4207 0.961 . S
H4223 C4207 0.960 . S
C4224 C4225 1.391 . S
C4224 C4226 1.394 . S
C4224 H4240 0.931 . S
C4225 C4224 1.391 . S
C4225 C4229 1.376 . S
C4226 C4224 1.394 . S
C4226 C4227 1.369 . S
C4226 C4230 1.531 . S
C4227 C4226 1.369 . S
C4227 C4228 1.410 . S
C4227 C4235 1.503 . S
C4228 C4227 1.410 . S
C4228 C4229 1.392 . S
C4228 C4231 1.511 . S
C4229 C4225 1.376 . S
C4229 C4228 1.392 . S
C4229 H4241 0.929 . S
C4230 C4226 1.531 . S
C4230 H4242 0.960 . S
C4230 H4243 0.962 . S
C4230 H4244 0.960 . S
C4231 C4228 1.511 . S
C4231 H4245 0.961 . S
C4231 H4246 0.961 . S
C4231 H4247 0.961 . S
C4232 C4233 1.370 . S
C4232 C4234 1.363 . S
C4232 H4248 0.931 . S
C4233 C4232 1.370 . S
C4233 C4237 1.408 . S
C4234 C4232 1.363 . S
C4234 C4235 1.370 . S
C4234 C4238 1.524 . S
C4235 C4227 1.503 . S
C4235 C4234 1.370 . S
C4235 C4236 1.403 . S
C4236 C4235 1.403 . S
C4236 C4237 1.404 . S
C4236 C4239 1.539 . S
C4237 C4233 1.408 . S
C4237 C4236 1.404 . S
C4237 H4249 0.930 . S
C4238 C4234 1.524 . S
C4238 H4250 0.956 . S
C4238 H4251 0.961 . S
C4238 H4252 0.961 . S
C4239 C4236 1.539 . S
C4239 H4253 0.958 . S
C4239 H4254 0.961 . S
C4239 H4255 0.960 . S
H4240 C4224 0.931 . S
H4241 C4229 0.929 . S
H4242 C4230 0.960 . S
H4243 C4230 0.962 . S
H4244 C4230 0.960 . S
H4245 C4231 0.961 . S
H4246 C4231 0.961 . S
H4247 C4231 0.961 . S
H4248 C4232 0.931 . S
H4249 C4237 0.930 . S
H4250 C4238 0.956 . S
H4251 C4238 0.961 . S
H4252 C4238 0.961 . S
H4253 C4239 0.958 . S
H4254 C4239 0.961 . S
H4255 C4239 0.960 . S
C4256 C4257 1.391 . S
C4256 C4258 1.394 . S
C4256 H4272 0.931 . S
C4257 C4256 1.391 . S
C4257 C4261 1.376 . S
C4258 C4256 1.394 . S
C4258 C4259 1.369 . S
C4258 C4262 1.531 . S
C4259 C4258 1.369 . S
C4259 C4260 1.410 . S
C4259 C4267 1.503 . S
C4260 C4259 1.410 . S
C4260 C4261 1.392 . S
C4260 C4263 1.511 . S
C4261 C4257 1.376 . S
C4261 C4260 1.392 . S
C4261 H4273 0.929 . S
C4262 C4258 1.531 . S
C4262 H4274 0.960 . S
C4262 H4275 0.962 . S
C4262 H4276 0.960 . S
C4263 C4260 1.511 . S
C4263 H4277 0.961 . S
C4263 H4278 0.961 . S
C4263 H4279 0.961 . S
C4264 C4265 1.370 . S
C4264 C4266 1.363 . S
C4264 H4280 0.931 . S
C4265 C4264 1.370 . S
C4265 C4269 1.408 . S
C4266 C4264 1.363 . S
C4266 C4267 1.370 . S
C4266 C4270 1.524 . S
C4267 C4259 1.503 . S
C4267 C4266 1.370 . S
C4267 C4268 1.403 . S
C4268 C4267 1.403 . S
C4268 C4269 1.404 . S
C4268 C4271 1.539 . S
C4269 C4265 1.408 . S
C4269 C4268 1.404 . S
C4269 H4281 0.930 . S
C4270 C4266 1.524 . S
C4270 H4282 0.956 . S
C4270 H4283 0.961 . S
C4270 H4284 0.961 . S
C4271 C4268 1.539 . S
C4271 H4285 0.958 . S
C4271 H4286 0.961 . S
C4271 H4287 0.960 . S
H4272 C4256 0.931 . S
H4273 C4261 0.929 . S
H4274 C4262 0.960 . S
H4275 C4262 0.962 . S
H4276 C4262 0.960 . S
H4277 C4263 0.961 . S
H4278 C4263 0.961 . S
H4279 C4263 0.961 . S
H4280 C4264 0.931 . S
H4281 C4269 0.930 . S
H4282 C4270 0.956 . S
H4283 C4270 0.961 . S
H4284 C4270 0.961 . S
H4285 C4271 0.958 . S
H4286 C4271 0.961 . S
H4287 C4271 0.960 . S
C4288 C4289 1.391 . S
C4288 C4290 1.394 . S
C4288 H4304 0.931 . S
C4289 C4288 1.391 . S
C4289 C4293 1.376 . S
C4290 C4288 1.394 . S
C4290 C4291 1.369 . S
C4290 C4294 1.531 . S
C4291 C4290 1.369 . S
C4291 C4292 1.410 . S
C4291 C4299 1.503 . S
C4292 C4291 1.410 . S
C4292 C4293 1.392 . S
C4292 C4295 1.511 . S
C4293 C4289 1.376 . S
C4293 C4292 1.392 . S
C4293 H4305 0.929 . S
C4294 C4290 1.531 . S
C4294 H4306 0.960 . S
C4294 H4307 0.962 . S
C4294 H4308 0.960 . S
C4295 C4292 1.511 . S
C4295 H4309 0.961 . S
C4295 H4310 0.961 . S
C4295 H4311 0.961 . S
C4296 C4297 1.370 . S
C4296 C4298 1.363 . S
C4296 H4312 0.931 . S
C4297 C4296 1.370 . S
C4297 C4301 1.408 . S
C4298 C4296 1.363 . S
C4298 C4299 1.370 . S
C4298 C4302 1.524 . S
C4299 C4291 1.503 . S
C4299 C4298 1.370 . S
C4299 C4300 1.403 . S
C4300 C4299 1.403 . S
C4300 C4301 1.404 . S
C4300 C4303 1.539 . S
C4301 C4297 1.408 . S
C4301 C4300 1.404 . S
C4301 H4313 0.930 . S
C4302 C4298 1.524 . S
C4302 H4314 0.956 . S
C4302 H4315 0.961 . S
C4302 H4316 0.961 . S
C4303 C4300 1.539 . S
C4303 H4317 0.958 . S
C4303 H4318 0.961 . S
C4303 H4319 0.960 . S
H4304 C4288 0.931 . S
H4305 C4293 0.929 . S
H4306 C4294 0.960 . S
H4307 C4294 0.962 . S
H4308 C4294 0.960 . S
H4309 C4295 0.961 . S
H4310 C4295 0.961 . S
H4311 C4295 0.961 . S
H4312 C4296 0.931 . S
H4313 C4301 0.930 . S
H4314 C4302 0.956 . S
H4315 C4302 0.961 . S
H4316 C4302 0.961 . S
H4317 C4303 0.958 . S
H4318 C4303 0.961 . S
H4319 C4303 0.960 . S
C4320 C4321 1.391 . S
C4320 C4322 1.394 . S
C4320 H4336 0.931 . S
C4321 C4320 1.391 . S
C4321 C4325 1.376 . S
C4322 C4320 1.394 . S
C4322 C4323 1.369 . S
C4322 C4326 1.531 . S
C4323 C4322 1.369 . S
C4323 C4324 1.410 . S
C4323 C4331 1.503 . S
C4324 C4323 1.410 . S
C4324 C4325 1.392 . S
C4324 C4327 1.511 . S
C4325 C4321 1.376 . S
C4325 C4324 1.392 . S
C4325 H4337 0.929 . S
C4326 C4322 1.531 . S
C4326 H4338 0.960 . S
C4326 H4339 0.962 . S
C4326 H4340 0.960 . S
C4327 C4324 1.511 . S
C4327 H4341 0.961 . S
C4327 H4342 0.961 . S
C4327 H4343 0.961 . S
C4328 C4329 1.370 . S
C4328 C4330 1.363 . S
C4328 H4344 0.931 . S
C4329 C4328 1.370 . S
C4329 C4333 1.408 . S
C4330 C4328 1.363 . S
C4330 C4331 1.370 . S
C4330 C4334 1.524 . S
C4331 C4323 1.503 . S
C4331 C4330 1.370 . S
C4331 C4332 1.403 . S
C4332 C4331 1.403 . S
C4332 C4333 1.404 . S
C4332 C4335 1.539 . S
C4333 C4329 1.408 . S
C4333 C4332 1.404 . S
C4333 H4345 0.930 . S
C4334 C4330 1.524 . S
C4334 H4346 0.956 . S
C4334 H4347 0.961 . S
C4334 H4348 0.961 . S
C4335 C4332 1.539 . S
C4335 H4349 0.958 . S
C4335 H4350 0.961 . S
C4335 H4351 0.960 . S
H4336 C4320 0.931 . S
H4337 C4325 0.929 . S
H4338 C4326 0.960 . S
H4339 C4326 0.962 . S
H4340 C4326 0.960 . S
H4341 C4327 0.961 . S
H4342 C4327 0.961 . S
H4343 C4327 0.961 . S
H4344 C4328 0.931 . S
H4345 C4333 0.930 . S
H4346 C4334 0.956 . S
H4347 C4334 0.961 . S
H4348 C4334 0.961 . S
H4349 C4335 0.958 . S
H4350 C4335 0.961 . S
H4351 C4335 0.960 . S
C1281 C6 1.074 . S
C1289 C139 1.021 . S
C1313 C19 0.987 . S
C1321 C46 1.068 1_545 S
C1345 C86 1.081 . S
C1353 C59 1.049 . S
C1377 C99 0.997 . S
C1385 C126 1.061 1_565 S
C1409 C219 1.011 . S
C1417 C166 1.080 . S
C1441 C206 1.081 1_545 S
C1449 C259 1.041 . S
C1473 C299 1.059 . S
C1481 C246 1.081 . S
C1505 C179 1.084 . S
C1513 C286 1.083 1_565 S
C1537 C335 1.079 . S
C1545 C450 1.040 . S
C1569 C375 1.084 1_565 S
C1577 C330 1.053 . S
C1601 C415 1.079 . S
C1609 C370 1.041 . S
C1633 C455 1.085 1_545 S
C1641 C410 1.056 . S
C1665 C495 1.084 . S
C1673 C530 1.054 . S
C1697 C535 1.084 . S
C1705 C570 1.022 . S
C1729 C610 0.999 . S
C1737 C575 1.078 . S
C1761 C490 1.028 . S
C1769 C615 1.053 1_545 S
C1793 C646 1.071 . S
C1801 C779 1.019 . S
C1825 C659 0.992 . S
C1833 C686 1.078 . S
C1857 C699 1.020 . S
C1865 C726 1.080 . S
C1889 C766 1.073 . S
C1897 C739 1.027 . S
C1921 C806 1.076 . S
C1929 C859 1.035 . S
C1953 C899 1.015 . S
C1961 C846 1.078 . S
C1985 C886 1.071 . S
C1993 C939 1.017 . S
C2017 C819 0.984 . S
C2025 C926 1.077 . S
C2049 C1090 0.987 . S
C2057 C975 1.077 . S
C2081 C970 1.057 . S
C2089 C1015 1.081 . S
C2113 C1055 1.085 . S
C2121 C1010 1.057 . S
C2145 C1050 1.077 . S
C2153 C1095 1.083 . S
C2177 C1170 1.002 . S
C2185 C1135 1.078 . S
C2209 C1210 1.026 . S
C2217 C1175 1.080 . S
C2241 C1250 0.993 . S
C2249 C1215 1.078 . S
C2273 C1255 1.082 . S
C2281 C1130 1.046 . S
C2305 C1086 1.605 . S
C2313 C9 1.533 . S
C2337 C49 1.522 . S
C2345 C326 1.627 . S
C2369 C89 1.521 . S
C2377 C1006 1.593 . S
C2401 C129 1.506 . S
C2409 C406 1.598 . S
C2433 C169 1.522 . S
C2441 C1166 1.592 . S
C2465 C566 1.580 . S
C2473 C209 1.540 . S
C2497 C1246 1.607 . S
C2505 C249 1.531 . S
C2529 C289 1.510 . S
C2537 C486 1.601 1_455 S
C2561 C338 1.517 . S
C2569 C775 1.591 . S
C2593 C15 1.562 1_655 S
C2601 C378 1.531 . S
C2625 C695 1.572 . S
C2633 C418 1.551 . S
C2657 C95 1.583 . S
C2665 C458 1.534 . S
C2689 C855 1.592 . S
C2697 C498 1.550 . S
C2721 C255 1.576 . S
C2729 C538 1.554 . S
C2753 C578 1.522 . S
C2761 C935 1.600 . S
C2785 C618 1.532 . S
C2793 C175 1.592 1_655 S
C2817 C649 1.520 . S
C2825 C446 1.593 . S
C2849 C689 1.539 . S
C2857 C966 1.589 . S
C2881 C729 1.539 . S
C2889 C366 1.597 . S
C2913 C769 1.569 . S
C2921 C1046 1.601 . S
C2945 C809 1.549 . S
C2953 C526 1.587 . S
C2977 C849 1.505 . S
C2985 C1206 1.598 . S
C3009 C606 1.589 . S
C3017 C889 1.548 . S
C3041 C929 1.567 . S
C3049 C1126 1.586 . S
C3073 C135 1.589 . S
C3081 C978 1.551 . S
C3105 C655 1.607 . S
C3113 C1018 1.533 . S
C3137 C55 1.598 . S
C3145 C1058 1.545 . S
C3169 C735 1.611 . S
C3177 C1098 1.528 . S
C3201 C215 1.589 . S
C3209 C1138 1.552 . S
C3233 C1178 1.567 . S
C3241 C895 1.623 . S
C3265 C1218 1.535 . S
C3273 C295 1.588 . S
C3297 C815 1.591 . S
C3305 C1258 1.529 . S
C3329 C18 0.595 . S
C3337 C178 0.663 . S
C3361 C58 0.617 . S
C3369 C218 0.622 . S
C3393 C98 0.721 . S
C3401 C258 0.660 . S
C3425 C298 0.636 . S
C3433 C138 0.620 . S
C3457 C489 0.635 . S
C3465 C329 0.622 . S
C3489 C529 0.695 . S
C3497 C369 0.673 . S
C3521 C409 0.650 . S
C3529 C569 0.680 . S
C3553 C449 0.613 . S
C3561 C609 0.627 . S
C3585 C658 0.687 . S
C3593 C818 0.679 . S
C3617 C858 0.699 . S
C3625 C698 0.677 . S
C3649 C898 0.588 . S
C3657 C738 0.658 . S
C3681 C938 0.657 . S
C3689 C778 0.622 . S
C3713 C1129 0.693 . S
C3721 C969 0.625 . S
C3745 C1009 0.707 . S
C3753 C1169 0.668 . S
C3777 C1209 0.647 . S
C3785 C1049 0.621 . S
C3809 C1089 0.719 . S
C3817 C1249 0.657 . S
C3841 C290 2.728 . S
C3849 C10 2.734 . S
C3873 C50 2.730 . S
C3881 C170 2.736 . S
C3905 C90 2.725 . S
C3913 C210 2.737 . S
C3937 C250 2.726 . S
C3945 C130 2.737 . S
C3969 C339 2.725 . S
C3977 C619 2.736 . S
C4001 C499 2.726 . S
C4009 C379 2.735 . S
C4033 C539 2.733 . S
C4041 C419 2.733 . S
C4065 C459 2.733 . S
C4073 C579 2.734 . S
C4097 C650 2.733 . S
C4105 C930 2.735 . S
C4129 C810 2.725 . S
C4137 C690 2.737 . S
C4161 C850 2.729 . S
C4169 C730 2.734 . S
C4193 C890 2.725 . S
C4201 C770 2.737 . S
C4225 C979 2.730 . S
C4233 C1259 2.737 . S
C4257 C1139 2.726 . S
C4265 C1019 2.735 . S
C4289 C1059 2.725 . S
C4297 C1179 2.737 . S
C4321 C1219 2.726 . S
C4329 C1099 2.735 . S
