# Generated by pormake.
# Topology uke, (4)-cn, num edge types: 1
# Building blocks:
#     Node 0, Type 0, BuildingBlock: CEKHIL_clean_sbu_0, # of connection points: 4
#     Node 1, Type 0, BuildingBlock: CEKHIL_clean_sbu_0, # of connection points: 4
#     Node 2, Type 0, BuildingBlock: CEKHIL_clean_sbu_0, # of connection points: 4
#     Node 3, Type 0, BuildingBlock: CEKHIL_clean_sbu_0, # of connection points: 4
#     Node 4, Type 0, BuildingBlock: CEKHIL_clean_sbu_0, # of connection points: 4
#     Node 5, Type 0, BuildingBlock: CEKHIL_clean_sbu_0, # of connection points: 4
#     Node 6, Type 0, BuildingBlock: CEKHIL_clean_sbu_0, # of connection points: 4
#     Node 7, Type 0, BuildingBlock: CEKHIL_clean_sbu_0, # of connection points: 4
#     Node 8, Type 0, BuildingBlock: CEKHIL_clean_sbu_0, # of connection points: 4
#     Node 9, Type 0, BuildingBlock: CEKHIL_clean_sbu_0, # of connection points: 4
#     Node 10, Type 0, BuildingBlock: CEKHIL_clean_sbu_0, # of connection points: 4
#     Node 11, Type 0, BuildingBlock: CEKHIL_clean_sbu_0, # of connection points: 4
#     Node 12, Type 0, BuildingBlock: CEKHIL_clean_sbu_0, # of connection points: 4
#     Node 13, Type 0, BuildingBlock: CEKHIL_clean_sbu_0, # of connection points: 4
#     Node 14, Type 0, BuildingBlock: CEKHIL_clean_sbu_0, # of connection points: 4
#     Node 15, Type 0, BuildingBlock: CEKHIL_clean_sbu_0, # of connection points: 4
#     Node 16, Type 0, BuildingBlock: CEKHIL_clean_sbu_0, # of connection points: 4
#     Node 17, Type 0, BuildingBlock: CEKHIL_clean_sbu_0, # of connection points: 4
#     Node 18, Type 0, BuildingBlock: CEKHIL_clean_sbu_0, # of connection points: 4
#     Node 19, Type 0, BuildingBlock: CEKHIL_clean_sbu_0, # of connection points: 4
#     Node 20, Type 0, BuildingBlock: CEKHIL_clean_sbu_0, # of connection points: 4
#     Node 21, Type 0, BuildingBlock: CEKHIL_clean_sbu_0, # of connection points: 4
#     Node 22, Type 0, BuildingBlock: CEKHIL_clean_sbu_0, # of connection points: 4
#     Node 23, Type 0, BuildingBlock: CEKHIL_clean_sbu_0, # of connection points: 4
#     Node 24, Type 0, BuildingBlock: CEKHIL_clean_sbu_0, # of connection points: 4
#     Node 25, Type 0, BuildingBlock: CEKHIL_clean_sbu_0, # of connection points: 4
#     Node 26, Type 0, BuildingBlock: CEKHIL_clean_sbu_0, # of connection points: 4
#     Node 27, Type 0, BuildingBlock: CEKHIL_clean_sbu_0, # of connection points: 4
#     Node 28, Type 0, BuildingBlock: CEKHIL_clean_sbu_0, # of connection points: 4
#     Node 29, Type 0, BuildingBlock: CEKHIL_clean_sbu_0, # of connection points: 4
#     Node 30, Type 0, BuildingBlock: CEKHIL_clean_sbu_0, # of connection points: 4
#     Node 31, Type 0, BuildingBlock: CEKHIL_clean_sbu_0, # of connection points: 4
#     Edge 32, Type (0, 0), BuildingBlock: XUDNAN_clean_linker_2, # of connection points: 2
#     Edge 33, Type (0, 0), BuildingBlock: XUDNAN_clean_linker_2, # of connection points: 2
#     Edge 34, Type (0, 0), BuildingBlock: XUDNAN_clean_linker_2, # of connection points: 2
#     Edge 35, Type (0, 0), BuildingBlock: XUDNAN_clean_linker_2, # of connection points: 2
#     Edge 36, Type (0, 0), BuildingBlock: XUDNAN_clean_linker_2, # of connection points: 2
#     Edge 37, Type (0, 0), BuildingBlock: XUDNAN_clean_linker_2, # of connection points: 2
#     Edge 38, Type (0, 0), BuildingBlock: XUDNAN_clean_linker_2, # of connection points: 2
#     Edge 39, Type (0, 0), BuildingBlock: XUDNAN_clean_linker_2, # of connection points: 2
#     Edge 40, Type (0, 0), BuildingBlock: XUDNAN_clean_linker_2, # of connection points: 2
#     Edge 41, Type (0, 0), BuildingBlock: XUDNAN_clean_linker_2, # of connection points: 2
#     Edge 42, Type (0, 0), BuildingBlock: XUDNAN_clean_linker_2, # of connection points: 2
#     Edge 43, Type (0, 0), BuildingBlock: XUDNAN_clean_linker_2, # of connection points: 2
#     Edge 44, Type (0, 0), BuildingBlock: XUDNAN_clean_linker_2, # of connection points: 2
#     Edge 45, Type (0, 0), BuildingBlock: XUDNAN_clean_linker_2, # of connection points: 2
#     Edge 46, Type (0, 0), BuildingBlock: XUDNAN_clean_linker_2, # of connection points: 2
#     Edge 47, Type (0, 0), BuildingBlock: XUDNAN_clean_linker_2, # of connection points: 2
#     Edge 48, Type (0, 0), BuildingBlock: XUDNAN_clean_linker_2, # of connection points: 2
#     Edge 49, Type (0, 0), BuildingBlock: XUDNAN_clean_linker_2, # of connection points: 2
#     Edge 50, Type (0, 0), BuildingBlock: XUDNAN_clean_linker_2, # of connection points: 2
#     Edge 51, Type (0, 0), BuildingBlock: XUDNAN_clean_linker_2, # of connection points: 2
#     Edge 52, Type (0, 0), BuildingBlock: XUDNAN_clean_linker_2, # of connection points: 2
#     Edge 53, Type (0, 0), BuildingBlock: XUDNAN_clean_linker_2, # of connection points: 2
#     Edge 54, Type (0, 0), BuildingBlock: XUDNAN_clean_linker_2, # of connection points: 2
#     Edge 55, Type (0, 0), BuildingBlock: XUDNAN_clean_linker_2, # of connection points: 2
#     Edge 56, Type (0, 0), BuildingBlock: XUDNAN_clean_linker_2, # of connection points: 2
#     Edge 57, Type (0, 0), BuildingBlock: XUDNAN_clean_linker_2, # of connection points: 2
#     Edge 58, Type (0, 0), BuildingBlock: XUDNAN_clean_linker_2, # of connection points: 2
#     Edge 59, Type (0, 0), BuildingBlock: XUDNAN_clean_linker_2, # of connection points: 2
#     Edge 60, Type (0, 0), BuildingBlock: XUDNAN_clean_linker_2, # of connection points: 2
#     Edge 61, Type (0, 0), BuildingBlock: XUDNAN_clean_linker_2, # of connection points: 2
#     Edge 62, Type (0, 0), BuildingBlock: XUDNAN_clean_linker_2, # of connection points: 2
#     Edge 63, Type (0, 0), BuildingBlock: XUDNAN_clean_linker_2, # of connection points: 2
#     Edge 64, Type (0, 0), BuildingBlock: XUDNAN_clean_linker_2, # of connection points: 2
#     Edge 65, Type (0, 0), BuildingBlock: XUDNAN_clean_linker_2, # of connection points: 2
#     Edge 66, Type (0, 0), BuildingBlock: XUDNAN_clean_linker_2, # of connection points: 2
#     Edge 67, Type (0, 0), BuildingBlock: XUDNAN_clean_linker_2, # of connection points: 2
#     Edge 68, Type (0, 0), BuildingBlock: XUDNAN_clean_linker_2, # of connection points: 2
#     Edge 69, Type (0, 0), BuildingBlock: XUDNAN_clean_linker_2, # of connection points: 2
#     Edge 70, Type (0, 0), BuildingBlock: XUDNAN_clean_linker_2, # of connection points: 2
#     Edge 71, Type (0, 0), BuildingBlock: XUDNAN_clean_linker_2, # of connection points: 2
#     Edge 72, Type (0, 0), BuildingBlock: XUDNAN_clean_linker_2, # of connection points: 2
#     Edge 73, Type (0, 0), BuildingBlock: XUDNAN_clean_linker_2, # of connection points: 2
#     Edge 74, Type (0, 0), BuildingBlock: XUDNAN_clean_linker_2, # of connection points: 2
#     Edge 75, Type (0, 0), BuildingBlock: XUDNAN_clean_linker_2, # of connection points: 2
#     Edge 76, Type (0, 0), BuildingBlock: XUDNAN_clean_linker_2, # of connection points: 2
#     Edge 77, Type (0, 0), BuildingBlock: XUDNAN_clean_linker_2, # of connection points: 2
#     Edge 78, Type (0, 0), BuildingBlock: XUDNAN_clean_linker_2, # of connection points: 2
#     Edge 79, Type (0, 0), BuildingBlock: XUDNAN_clean_linker_2, # of connection points: 2
#     Edge 80, Type (0, 0), BuildingBlock: XUDNAN_clean_linker_2, # of connection points: 2
#     Edge 81, Type (0, 0), BuildingBlock: XUDNAN_clean_linker_2, # of connection points: 2
#     Edge 82, Type (0, 0), BuildingBlock: XUDNAN_clean_linker_2, # of connection points: 2
#     Edge 83, Type (0, 0), BuildingBlock: XUDNAN_clean_linker_2, # of connection points: 2
#     Edge 84, Type (0, 0), BuildingBlock: XUDNAN_clean_linker_2, # of connection points: 2
#     Edge 85, Type (0, 0), BuildingBlock: XUDNAN_clean_linker_2, # of connection points: 2
#     Edge 86, Type (0, 0), BuildingBlock: XUDNAN_clean_linker_2, # of connection points: 2
#     Edge 87, Type (0, 0), BuildingBlock: XUDNAN_clean_linker_2, # of connection points: 2
#     Edge 88, Type (0, 0), BuildingBlock: XUDNAN_clean_linker_2, # of connection points: 2
#     Edge 89, Type (0, 0), BuildingBlock: XUDNAN_clean_linker_2, # of connection points: 2
#     Edge 90, Type (0, 0), BuildingBlock: XUDNAN_clean_linker_2, # of connection points: 2
#     Edge 91, Type (0, 0), BuildingBlock: XUDNAN_clean_linker_2, # of connection points: 2
#     Edge 92, Type (0, 0), BuildingBlock: XUDNAN_clean_linker_2, # of connection points: 2
#     Edge 93, Type (0, 0), BuildingBlock: XUDNAN_clean_linker_2, # of connection points: 2
#     Edge 94, Type (0, 0), BuildingBlock: XUDNAN_clean_linker_2, # of connection points: 2
#     Edge 95, Type (0, 0), BuildingBlock: XUDNAN_clean_linker_2, # of connection points: 2
# Relax obj value: 0.083
# Max RMSD: 0.185
# Mean RMSD: 0.185
data_MOF--net-uke--node1-CEKHIL_clean_sbu_0--edge1-XUDNAN_clean_linker_2
_symmetry_space_group_name_H-M    P1
_symmetry_Int_Tables_number       1
_symmetry_cell_setting            triclinic
loop_
_symmetry_equiv_pos_as_xyz
'x, y, z'
_cell_length_a     19.743585
_cell_length_b     108.31183
_cell_length_c     53.704868
_cell_angle_alpha  89.984529
_cell_angle_beta   89.998762
_cell_angle_gamma 89.997819
loop_
_atom_site_label
_atom_site_type_symbol
_atom_site_fract_x
_atom_site_fract_y
_atom_site_fract_z
_atom_type_partial_charge
Co0 Co 0.06345 0.05735 0.28113 0.0
O1 O 0.05329 0.05335 0.3155 0.0
O2 O 0.97437 0.06269 0.29311 0.0
C3 C 0.10517 0.03914 0.26879 0.0
O4 O 0.0615 0.06251 0.24419 0.0
Co5 Co 0.21175 0.05894 0.26377 0.0
O6 O 0.16884 0.05972 0.23057 0.0
C7 C 0.15542 0.07988 0.29061 0.0
C8 C 0.9946 0.05858 0.31473 0.0
C9 C 0.10661 0.06215 0.22669 0.0
O10 O 0.09955 0.07391 0.29085 0.0
O11 O 0.2099 0.07542 0.28137 0.0
O12 O 0.04038 0.04079 0.27117 0.0
O13 O 0.14311 0.04794 0.27751 0.0
Co14 Co 0.21128 0.18932 0.26122 0.0
O15 O 0.24554 0.19229 0.29383 0.0
O16 O 0.30241 0.18233 0.26467 0.0
C17 C 0.17427 0.20868 0.25486 0.0
O18 O 0.18579 0.18515 0.22498 0.0
Co19 Co 0.05596 0.19099 0.25853 0.0
O20 O 0.07266 0.18828 0.2226 0.0
C21 C 0.11586 0.16888 0.27974 0.0
C22 C 0.29955 0.18637 0.28758 0.0
C23 C 0.12931 0.18547 0.2127 0.0
O24 O 0.17314 0.17322 0.27287 0.0
O25 O 0.06076 0.17503 0.27789 0.0
O26 O 0.23683 0.20571 0.25064 0.0
O27 O 0.13814 0.20024 0.26573 0.0
Co28 Co 0.03904 0.18841 0.97733 0.0
O29 O 0.01607 0.19106 0.94313 0.0
O30 O 0.94959 0.18146 0.97004 0.0
C31 C 0.07611 0.20763 0.98502 0.0
O32 O 0.05077 0.18483 0.01481 0.0
Co33 Co 0.1923 0.18977 0.98875 0.0
O34 O 0.15786 0.1908 0.02335 0.0
C35 C 0.1381 0.16697 0.96776 0.0
C36 C 0.95974 0.18541 0.94737 0.0
C37 C 0.0992 0.18729 0.03036 0.0
O38 O 0.0793 0.17192 0.96907 0.0
O39 O 0.19255 0.17284 0.97302 0.0
O40 O 0.01192 0.20508 0.98553 0.0
O41 O 0.11469 0.19893 0.97636 0.0
Co42 Co 0.19383 0.0557 0.99484 0.0
O43 O 0.22578 0.05176 0.9622 0.0
O44 O 0.2862 0.06168 0.9905 0.0
C45 C 0.15167 0.03687 1.00283 0.0
O46 O 0.17469 0.06081 0.0311 0.0
Co47 Co 0.04273 0.05647 1.0028 0.0
O48 O 0.0674 0.05492 0.03837 0.0
C49 C 0.10479 0.07757 0.97853 0.0
C50 C 0.2817 0.05726 0.96796 0.0
C51 C 0.12491 0.05857 0.04608 0.0
O52 O 0.16074 0.07191 0.98198 0.0
O53 O 0.04784 0.07295 0.98502 0.0
O54 O 0.21499 0.03946 0.00644 0.0
O55 O 0.11582 0.04543 0.99198 0.0
Co56 Co 0.94178 0.93804 0.74615 0.0
O57 O 0.95936 0.93826 0.71116 0.0
O58 O 0.02427 0.92877 0.73889 0.0
C59 C 0.91834 0.95819 0.74968 0.0
O60 O 0.93533 0.9363 0.78424 0.0
Co61 Co 0.79469 0.94356 0.76216 0.0
O62 O 0.83727 0.94544 0.79543 0.0
C63 C 0.82672 0.91913 0.74228 0.0
C64 C 0.01147 0.9314 0.71566 0.0
C65 C 0.89394 0.9405 0.80091 0.0
O66 O 0.8887 0.92256 0.74178 0.0
O67 O 0.77845 0.92637 0.74863 0.0
O68 O 0.9807 0.95437 0.75007 0.0
O69 O 0.87321 0.9499 0.74441 0.0
Co70 Co 0.82469 0.80268 0.73678 0.0
O71 O 0.79941 0.80233 0.70242 0.0
O72 O 0.72631 0.80308 0.73357 0.0
C73 C 0.90082 0.78739 0.73459 0.0
O74 O 0.83783 0.80258 0.7749 0.0
Co75 Co 0.97234 0.81087 0.74712 0.0
O76 O 0.95127 0.8034 0.77991 0.0
C77 C 0.87151 0.82966 0.73472 0.0
C78 C 0.73702 0.80272 0.70958 0.0
C79 C 0.89178 0.80165 0.78852 0.0
O80 O 0.82611 0.82122 0.73592 0.0
O81 O 0.93491 0.82738 0.73673 0.0
O82 O 0.83677 0.78495 0.73682 0.0
O83 O 0.91553 0.79886 0.73041 0.0
Co84 Co 0.90658 0.80134 0.0256 0.0
O85 O 0.93033 0.80072 0.06035 0.0
O86 O 0.00269 0.80438 0.02978 0.0
C87 C 0.8438 0.78408 0.02497 0.0
O88 O 0.89896 0.80203 0.98749 0.0
Co89 Co 0.75599 0.8052 0.01141 0.0
O90 O 0.78834 0.80215 0.97697 0.0
C91 C 0.83377 0.82593 0.03158 0.0
C92 C 0.992 0.80304 0.05358 0.0
C93 C 0.85089 0.8017 0.97113 0.0
O94 O 0.88807 0.81957 0.02863 0.0
O95 O 0.77445 0.82146 0.02821 0.0
O96 O 0.90935 0.78344 0.02348 0.0
O97 O 0.81927 0.79491 0.0297 0.0
Co98 Co 0.86618 0.94025 0.03797 0.0
O99 O 0.86043 0.94274 0.07313 0.0
O100 O 0.77226 0.93845 0.0494 0.0
C101 C 0.93239 0.95668 0.03018 0.0
O102 O 0.85841 0.93728 1.00014 0.0
Co103 Co 0.00958 0.93366 0.01862 0.0
O104 O 0.96626 0.93666 0.98595 0.0
C105 C 0.92834 0.91424 0.04185 0.0
C106 C 0.79637 0.94047 0.07168 0.0
C107 C 0.90251 0.93686 0.98229 0.0
O108 O 0.88011 0.92212 0.0437 0.0
O109 O 0.98698 0.91704 0.03338 0.0
O110 O 0.86719 0.95797 0.03201 0.0
O111 O 0.95555 0.94588 0.03603 0.0
Co112 Co 0.09223 0.55827 0.77325 0.0
O113 O 0.05688 0.55545 0.80573 0.0
O114 O 0.9937 0.56041 0.77329 0.0
C115 C 0.16002 0.5417 0.77306 0.0
O116 O 0.1173 0.56131 0.73648 0.0
Co117 Co 0.24393 0.56485 0.77218 0.0
O118 O 0.23137 0.56271 0.73587 0.0
C119 C 0.14804 0.5836 0.78835 0.0
C120 C 0.99756 0.55801 0.7971 0.0
C121 C 0.17442 0.56217 0.7247 0.0
O122 O 0.10113 0.57622 0.78136 0.0
O123 O 0.21075 0.58061 0.78799 0.0
O124 O 0.09658 0.54071 0.767 0.0
O125 O 0.17823 0.55235 0.78177 0.0
Co126 Co 0.18895 0.69198 0.77224 0.0
O127 O 0.22143 0.69393 0.8055 0.0
O128 O 0.2768 0.68409 0.77557 0.0
C129 C 0.15498 0.7115 0.76664 0.0
O130 O 0.16852 0.68846 0.7356 0.0
Co131 Co 0.03486 0.69491 0.7638 0.0
O132 O 0.06188 0.69493 0.72819 0.0
C133 C 0.08544 0.67202 0.78591 0.0
C134 C 0.27358 0.68747 0.79885 0.0
C135 C 0.11881 0.6908 0.7207 0.0
O136 O 0.14537 0.67611 0.78209 0.0
O137 O 0.03228 0.67842 0.78139 0.0
O138 O 0.21815 0.70852 0.76347 0.0
O139 O 0.11656 0.70295 0.77589 0.0
Co140 Co 0.0507 0.68788 0.48766 0.0
O141 O 0.02901 0.69162 0.45405 0.0
O142 O 0.96476 0.68015 0.47879 0.0
C143 C 0.08204 0.70702 0.49794 0.0
O144 O 0.06054 0.68282 0.52429 0.0
Co145 Co 0.20221 0.68991 0.50083 0.0
O146 O 0.16801 0.68763 0.53508 0.0
C147 C 0.15624 0.66799 0.47483 0.0
C148 C 0.9755 0.68489 0.45678 0.0
C149 C 0.10858 0.68393 0.54047 0.0
O150 O 0.09657 0.67247 0.47644 0.0
O151 O 0.20884 0.67357 0.48294 0.0
O152 O 0.01856 0.70387 0.49835 0.0
O153 O 0.12336 0.69894 0.4886 0.0
Co154 Co 0.15013 0.55666 0.48585 0.0
O155 O 0.14542 0.5563 0.45038 0.0
O156 O 0.23855 0.56072 0.47141 0.0
C157 C 0.09496 0.53889 0.49261 0.0
O158 O 0.16686 0.55764 0.52363 0.0
Co159 Co 0.00761 0.55994 0.51017 0.0
O160 O 0.06198 0.55673 0.54061 0.0
C161 C 0.07206 0.58094 0.4862 0.0
C162 C 0.20817 0.55961 0.44991 0.0
C163 C 0.12644 0.55687 0.54263 0.0
O164 O 0.12674 0.57463 0.48526 0.0
O165 O 0.01502 0.57646 0.49299 0.0
O166 O 0.15906 0.53874 0.48725 0.0
O167 O 0.06557 0.54949 0.4902 0.0
Co168 Co 0.87808 0.44334 0.22904 0.0
O169 O 0.88979 0.44149 0.19403 0.0
O170 O 0.9734 0.43986 0.22118 0.0
C171 C 0.81492 0.46052 0.22679 0.0
O172 O 0.87816 0.44519 0.26725 0.0
Co173 Co 0.72818 0.44056 0.24668 0.0
O174 O 0.76779 0.44817 0.27693 0.0
C175 C 0.80485 0.41861 0.23178 0.0
C176 C 0.95308 0.43936 0.19805 0.0
C177 C 0.83053 0.44822 0.2827 0.0
O178 O 0.85926 0.42511 0.23168 0.0
O179 O 0.74584 0.42324 0.23502 0.0
O180 O 0.88052 0.46133 0.22613 0.0
O181 O 0.79083 0.44946 0.22579 0.0
Co182 Co 0.87025 0.30323 0.22827 0.0
O183 O 0.8634 0.30308 0.19282 0.0
O184 O 0.77478 0.30376 0.21773 0.0
C185 C 0.9453 0.28787 0.23135 0.0
O186 O 0.86502 0.30306 0.26674 0.0
Co187 Co 0.01028 0.31168 0.24765 0.0
O188 O 0.97473 0.30429 0.27872 0.0
C189 C 0.91659 0.33037 0.22959 0.0
C190 C 0.79846 0.30367 0.195 0.0
C191 C 0.91233 0.3024 0.28347 0.0
O192 O 0.87269 0.32172 0.22757 0.0
O193 O 0.97802 0.32836 0.23601 0.0
O194 O 0.88115 0.28552 0.22913 0.0
O195 O 0.96267 0.29931 0.22805 0.0
Co196 Co 0.93883 0.3067 0.52036 0.0
O197 O 0.94451 0.30823 0.55572 0.0
O198 O 0.02282 0.31515 0.52975 0.0
C199 C 0.90906 0.28678 0.51969 0.0
O200 O 0.94448 0.30607 0.48201 0.0
Co201 Co 0.79253 0.30232 0.50132 0.0
O202 O 0.83911 0.30095 0.4688 0.0
C203 C 0.83112 0.32704 0.51702 0.0
C204 C 0.00125 0.31392 0.5526 0.0
C205 C 0.90125 0.30339 0.46464 0.0
O206 O 0.89188 0.32301 0.51889 0.0
O207 O 0.7808 0.32 0.51216 0.0
O208 O 0.9722 0.28994 0.52171 0.0
O209 O 0.86572 0.29573 0.52158 0.0
Co210 Co 0.81748 0.44348 0.51815 0.0
O211 O 0.79725 0.44245 0.55287 0.0
O212 O 0.72017 0.44153 0.52307 0.0
C213 C 0.88501 0.45996 0.52142 0.0
O214 O 0.82355 0.44477 0.48003 0.0
Co215 Co 0.96244 0.43766 0.50333 0.0
O216 O 0.93341 0.44253 0.46951 0.0
C217 C 0.8745 0.4172 0.51623 0.0
C218 C 0.73425 0.44135 0.54682 0.0
C219 C 0.8719 0.44462 0.46379 0.0
O220 O 0.8266 0.42513 0.51695 0.0
O221 O 0.93635 0.4203 0.51294 0.0
O222 O 0.81987 0.46108 0.5198 0.0
O223 O 0.90804 0.44877 0.52388 0.0
Co224 Co 0.63694 0.05387 0.78498 0.0
O225 O 0.63918 0.05519 0.82038 0.0
O226 O 0.54477 0.05479 0.79826 0.0
C227 C 0.7116 0.03852 0.78147 0.0
O228 O 0.6209 0.0522 0.74719 0.0
Co229 Co 0.76962 0.06172 0.759 0.0
O230 O 0.72656 0.05273 0.73105 0.0
C231 C 0.68013 0.0809 0.77768 0.0
C232 C 0.57387 0.05574 0.82002 0.0
C233 C 0.6632 0.05068 0.72902 0.0
O234 O 0.63807 0.07226 0.7826 0.0
O235 O 0.73963 0.0788 0.76923 0.0
O236 O 0.64862 0.03625 0.78665 0.0
O237 O 0.72935 0.05005 0.78231 0.0
Co238 Co 0.62948 0.1929 0.76327 0.0
O239 O 0.65575 0.19252 0.79758 0.0
O240 O 0.72607 0.18911 0.76621 0.0
C241 C 0.56788 0.21026 0.76624 0.0
O242 O 0.61537 0.19307 0.72519 0.0
Co243 Co 0.47506 0.18982 0.75329 0.0
O244 O 0.50267 0.19526 0.71949 0.0
C245 C 0.55559 0.16834 0.768 0.0
C246 C 0.71603 0.18975 0.79021 0.0
C247 C 0.56313 0.19499 0.71108 0.0
O248 O 0.60941 0.17477 0.76471 0.0
O249 O 0.49587 0.1729 0.76669 0.0
O250 O 0.63307 0.21095 0.7631 0.0
O251 O 0.54433 0.19931 0.76998 0.0
Co252 Co 0.64137 0.19048 0.4737 0.0
O253 O 0.64707 0.1909 0.4382 0.0
O254 O 0.55126 0.18863 0.45896 0.0
C255 C 0.70825 0.20665 0.48108 0.0
O256 O 0.6214 0.18999 0.51141 0.0
Co257 Co 0.77581 0.18365 0.50008 0.0
O258 O 0.72352 0.18829 0.5301 0.0
C259 C 0.69847 0.16417 0.47609 0.0
C260 C 0.58243 0.18912 0.43753 0.0
C261 C 0.65946 0.18975 0.5311 0.0
O262 O 0.65186 0.17219 0.47255 0.0
O263 O 0.75593 0.16686 0.48566 0.0
O264 O 0.64481 0.20827 0.47559 0.0
O265 O 0.73092 0.1955 0.47843 0.0
Co266 Co 0.63521 0.05279 0.49505 0.0
O267 O 0.65406 0.05332 0.46 0.0
O268 O 0.73169 0.055 0.48953 0.0
C269 C 0.56621 0.03648 0.49399 0.0
O270 O 0.63173 0.05207 0.53321 0.0
Co271 Co 0.4873 0.05806 0.51166 0.0
O272 O 0.52258 0.05399 0.54529 0.0
C273 C 0.57079 0.07796 0.49184 0.0
C274 C 0.71709 0.05486 0.46584 0.0
C275 C 0.58508 0.05221 0.55012 0.0
O276 O 0.62298 0.07112 0.49511 0.0
O277 O 0.51009 0.07406 0.49457 0.0
O278 O 0.63147 0.03491 0.4943 0.0
O279 O 0.54561 0.04773 0.49138 0.0
Co280 Co 0.37785 0.94163 0.23518 0.0
O281 O 0.41396 0.94353 0.20231 0.0
O282 O 0.47486 0.93805 0.235 0.0
C283 C 0.31846 0.95936 0.23518 0.0
O284 O 0.35311 0.93915 0.27212 0.0
Co285 Co 0.22173 0.93836 0.23763 0.0
O286 O 0.23873 0.93915 0.27394 0.0
C287 C 0.30569 0.91742 0.22236 0.0
C288 C 0.47223 0.94035 0.21115 0.0
C289 C 0.2967 0.93869 0.28441 0.0
O290 O 0.35838 0.92376 0.22807 0.0
O291 O 0.24573 0.92192 0.22261 0.0
O292 O 0.3824 0.95938 0.24081 0.0
O293 O 0.29507 0.94896 0.22706 0.0
Co294 Co 0.36519 0.8026 0.23317 0.0
O295 O 0.36292 0.80162 0.19774 0.0
O296 O 0.27125 0.80315 0.221 0.0
C297 C 0.43876 0.78718 0.23907 0.0
O298 O 0.35428 0.80329 0.27136 0.0
Co299 Co 0.50205 0.81135 0.25435 0.0
O300 O 0.45969 0.80667 0.28637 0.0
C301 C 0.41422 0.82952 0.23123 0.0
C302 C 0.29785 0.80255 0.19876 0.0
C303 C 0.39711 0.80424 0.28958 0.0
O304 O 0.36895 0.82106 0.23048 0.0
O305 O 0.47473 0.82749 0.23867 0.0
O306 O 0.37473 0.78494 0.236 0.0
O307 O 0.45746 0.79849 0.23498 0.0
Co308 Co 0.38309 0.80142 0.52532 0.0
O309 O 0.38266 0.8029 0.56061 0.0
O310 O 0.47634 0.80207 0.53837 0.0
C311 C 0.30698 0.78619 0.52359 0.0
O312 O 0.39475 0.79959 0.48727 0.0
Co313 Co 0.24629 0.80914 0.50153 0.0
O314 O 0.28702 0.80034 0.47284 0.0
C315 C 0.33989 0.8283 0.51798 0.0
C316 C 0.44783 0.80306 0.56025 0.0
C317 C 0.35008 0.79828 0.46973 0.0
O318 O 0.38328 0.81979 0.52223 0.0
O319 O 0.27867 0.82609 0.51152 0.0
O320 O 0.37036 0.7838 0.52766 0.0
O321 O 0.2905 0.79777 0.52416 0.0
Co322 Co 0.30346 0.93809 0.52341 0.0
O323 O 0.29413 0.93839 0.55881 0.0
O324 O 0.21863 0.93018 0.53335 0.0
C325 C 0.33538 0.95775 0.5193 0.0
O326 O 0.29989 0.93678 0.48519 0.0
Co327 Co 0.44951 0.94157 0.50335 0.0
O328 O 0.40094 0.94369 0.47135 0.0
C329 C 0.40961 0.91743 0.52269 0.0
C330 C 0.23723 0.93266 0.55614 0.0
C331 C 0.34033 0.94011 0.4674 0.0
O332 O 0.34976 0.92176 0.52554 0.0
O333 O 0.45958 0.92404 0.51539 0.0
O334 O 0.2716 0.95496 0.52107 0.0
O335 O 0.37747 0.94878 0.52316 0.0
Co336 Co 0.54929 0.55857 0.26574 0.0
O337 O 0.52327 0.55603 0.29954 0.0
O338 O 0.45804 0.56504 0.27147 0.0
C339 C 0.58907 0.53954 0.25887 0.0
O340 O 0.56523 0.56209 0.22856 0.0
Co341 Co 0.70394 0.55821 0.25844 0.0
O342 O 0.67798 0.55947 0.22289 0.0
C343 C 0.64301 0.5801 0.27978 0.0
C344 C 0.46681 0.56148 0.2945 0.0
C345 C 0.61862 0.5616 0.21458 0.0
O346 O 0.58594 0.57514 0.27476 0.0
O347 O 0.69933 0.57443 0.27701 0.0
O348 O 0.52488 0.54193 0.25721 0.0
O349 O 0.62597 0.54831 0.2683 0.0
Co350 Co 0.68701 0.68735 0.269 0.0
O351 O 0.72636 0.69048 0.3007 0.0
O352 O 0.77372 0.67888 0.27136 0.0
C353 C 0.65556 0.70688 0.26183 0.0
O354 O 0.65885 0.68279 0.23344 0.0
Co355 Co 0.53333 0.69033 0.26447 0.0
O356 O 0.55384 0.69055 0.22838 0.0
C357 C 0.58525 0.66808 0.28794 0.0
C358 C 0.77559 0.68338 0.29388 0.0
C359 C 0.60787 0.68582 0.21969 0.0
O360 O 0.64423 0.67215 0.28273 0.0
O361 O 0.53098 0.67401 0.28278 0.0
O362 O 0.71686 0.70323 0.25698 0.0
O363 O 0.61714 0.69895 0.27326 0.0
Co364 Co 0.60326 0.68419 0.98281 0.0
O365 O 0.60835 0.68375 0.94723 0.0
O366 O 0.52052 0.67718 0.96929 0.0
C367 C 0.63838 0.70375 0.98744 0.0
O368 O 0.58264 0.68344 0.02027 0.0
Co369 Co 0.73519 0.68708 0.01276 0.0
O370 O 0.67165 0.69241 0.03907 0.0
C371 C 0.69045 0.66227 0.99763 0.0
C372 C 0.54848 0.67889 0.94758 0.0
C373 C 0.61172 0.68811 0.03964 0.0
O374 O 0.6436 0.66729 0.98463 0.0
O375 O 0.73262 0.66845 0.01076 0.0
O376 O 0.57582 0.70126 0.98215 0.0
O377 O 0.68 0.69446 0.98677 0.0
Co378 Co 0.64332 0.55508 0.97731 0.0
O379 O 0.64591 0.55553 0.94167 0.0
O380 O 0.72761 0.56263 0.96602 0.0
C381 C 0.61162 0.53527 0.98084 0.0
O382 O 0.65404 0.55586 0.01554 0.0
Co383 Co 0.50369 0.55126 1.00187 0.0
O384 O 0.55976 0.54705 0.03105 0.0
C385 C 0.54931 0.57641 0.98967 0.0
C386 C 0.7045 0.56075 0.94359 0.0
C387 C 0.61883 0.55154 0.03396 0.0
O388 O 0.59952 0.57174 0.97792 0.0
O389 O 0.50477 0.5699 1.00096 0.0
O390 O 0.67454 0.53822 0.97753 0.0
O391 O 0.56837 0.54425 0.97866 0.0
Co392 Co 0.42203 0.4439 0.73993 0.0
O393 O 0.41684 0.44785 0.70542 0.0
O394 O 0.50651 0.43936 0.72311 0.0
C395 C 0.38047 0.4618 0.7538 0.0
O396 O 0.44048 0.43893 0.77634 0.0
Co397 Co 0.285 0.44112 0.76621 0.0
O398 O 0.34223 0.44295 0.79622 0.0
C399 C 0.33504 0.42038 0.73702 0.0
C400 C 0.47667 0.44324 0.70284 0.0
C401 C 0.40507 0.44032 0.79643 0.0
O402 O 0.38716 0.42701 0.73255 0.0
O403 O 0.28486 0.42431 0.74986 0.0
O404 O 0.4442 0.4607 0.74835 0.0
O405 O 0.34207 0.45255 0.74761 0.0
Co406 Co 0.29428 0.30887 0.74603 0.0
O407 O 0.28423 0.30831 0.71062 0.0
O408 O 0.20537 0.3152 0.73627 0.0
C409 C 0.3361 0.28982 0.75072 0.0
O410 O 0.29104 0.31008 0.78422 0.0
Co411 Co 0.44237 0.30847 0.76457 0.0
O412 O 0.39803 0.30676 0.79755 0.0
C413 C 0.38906 0.33117 0.74351 0.0
C414 C 0.22466 0.31303 0.71342 0.0
C415 C 0.33509 0.30842 0.80179 0.0
O416 O 0.33071 0.32605 0.74359 0.0
O417 O 0.44365 0.32539 0.74886 0.0
O418 O 0.27133 0.29162 0.74879 0.0
O419 O 0.37385 0.29936 0.74615 0.0
Co420 Co 0.37346 0.3011 0.0334 0.0
O421 O 0.41018 0.29924 0.0662 0.0
O422 O 0.47106 0.30408 0.03311 0.0
C423 C 0.31026 0.28383 0.03377 0.0
O424 O 0.34746 0.3033 0.99643 0.0
Co425 Co 0.21793 0.30553 0.03189 0.0
O426 O 0.23324 0.30233 0.99598 0.0
C427 C 0.30704 0.32581 0.04658 0.0
C428 C 0.46874 0.302 0.05706 0.0
C429 C 0.29014 0.30268 0.98469 0.0
O430 O 0.35787 0.31917 0.04003 0.0
O431 O 0.24625 0.32171 0.04703 0.0
O432 O 0.37429 0.28326 0.02838 0.0
O433 O 0.28954 0.29441 0.04185 0.0
Co434 Co 0.35113 0.43793 0.02846 0.0
O435 O 0.32246 0.4413 0.06194 0.0
O436 O 0.25462 0.43493 0.03176 0.0
C437 C 0.41389 0.45493 0.02344 0.0
O438 O 0.36524 0.43402 0.9913 0.0
Co439 Co 0.50249 0.43264 0.01943 0.0
O440 O 0.47753 0.43555 0.98418 0.0
C441 C 0.41882 0.41316 0.041 0.0
C442 C 0.26229 0.43797 0.0551 0.0
C443 C 0.41676 0.43463 0.97649 0.0
O444 O 0.36795 0.42033 0.03797 0.0
O445 O 0.47955 0.41633 0.03564 0.0
O446 O 0.34868 0.45531 0.02033 0.0
O447 O 0.43794 0.44469 0.03234 0.0
H448 H 0.07662 0.04456 0.08427 0.0
H449 H 0.18308 0.07867 0.06851 0.0
H450 H 0.17481 0.0845 0.11309 0.0
H451 H 0.96217 0.05592 0.13036 0.0
H452 H 0.96779 0.04248 0.15005 0.0
H453 H 0.98075 0.04104 0.11697 0.0
H454 H 0.09855 0.03113 0.12431 0.0
H455 H 0.08497 0.03219 0.15738 0.0
H456 H 0.15944 0.039 0.14364 0.0
H457 H 0.15119 0.08683 0.1591 0.0
H458 H 0.13649 0.08366 0.20435 0.0
H459 H 0.05074 0.04753 0.19062 0.0
C460 C 0.09879 0.0532 0.0903 0.0
C461 C 0.1305 0.0612 0.07303 0.0
C462 C 0.15927 0.07238 0.08152 0.0
C463 C 0.15394 0.07582 0.10672 0.0
C464 C 0.12051 0.06788 0.12315 0.0
C465 C 0.09515 0.05664 0.1154 0.0
C466 C 0.06574 0.0494 0.13705 0.0
C467 C 0.98959 0.04707 0.13338 0.0
C468 C 0.1045 0.03721 0.14082 0.0
C469 C 0.07828 0.05833 0.15829 0.0
C470 C 0.10866 0.06905 0.14975 0.0
C471 C 0.12709 0.07852 0.16593 0.0
C472 C 0.11763 0.07672 0.19157 0.0
C473 C 0.09035 0.06554 0.20084 0.0
C474 C 0.06892 0.05636 0.18393 0.0
H475 H 0.17562 0.19744 0.06748 0.0
H476 H 0.00417 0.1731 0.05514 0.0
H477 H -4e-05 0.16874 0.10048 0.0
H478 H 0.25756 0.17954 0.11448 0.0
H479 H 0.28455 0.19272 0.13238 0.0
H480 H 0.27352 0.19407 0.09919 0.0
H481 H 0.18984 0.21223 0.10545 0.0
H482 H 0.20161 0.2111 0.13862 0.0
H483 H 0.11761 0.21022 0.12559 0.0
H484 H 0.01605 0.16693 0.14706 0.0
H485 H 0.0422 0.16941 0.19171 0.0
H486 H 0.20447 0.1948 0.17355 0.0
C487 C 0.13688 0.1912 0.07422 0.0
C488 C 0.09027 0.18555 0.05764 0.0
C489 C 0.0401 0.17758 0.06741 0.0
C490 C 0.0378 0.17498 0.09311 0.0
C491 C 0.08585 0.18046 0.10873 0.0
C492 C 0.13384 0.18854 0.09967 0.0
C493 C 0.17869 0.19349 0.12036 0.0
C494 C 0.25298 0.18973 0.11635 0.0
C495 C 0.17147 0.20759 0.12264 0.0
C496 C 0.14854 0.18694 0.14268 0.0
C497 C 0.0953 0.1794 0.13549 0.0
C498 C 0.05777 0.17274 0.15281 0.0
C499 C 0.07331 0.17416 0.17812 0.0
C500 C 0.12609 0.18213 0.18601 0.0
C501 C 0.16522 0.18838 0.168 0.0
H502 H 0.86272 0.95387 0.94711 0.0
H503 H 0.90627 0.91511 0.95864 0.0
H504 H 0.91286 0.91195 0.91317 0.0
H505 H 0.75859 0.94921 0.88881 0.0
H506 H 0.79034 0.96325 0.8751 0.0
H507 H 0.78168 0.96204 0.90841 0.0
H508 H 0.90811 0.96795 0.91316 0.0
H509 H 0.9178 0.96875 0.87987 0.0
H510 H 0.97184 0.95874 0.89787 0.0
H511 H 0.93274 0.91367 0.86706 0.0
H512 H 0.93748 0.9191 0.82227 0.0
H513 H 0.87291 0.95634 0.83985 0.0
C514 C 0.87013 0.94463 0.93993 0.0
C515 C 0.88206 0.93464 0.95628 0.0
C516 C 0.89496 0.92277 0.94633 0.0
C517 C 0.89976 0.92093 0.92055 0.0
C518 C 0.89088 0.93105 0.90489 0.0
C519 C 0.87399 0.94258 0.91409 0.0
C520 C 0.86808 0.9519 0.89307 0.0
C521 C 0.79534 0.95689 0.89123 0.0
C522 C 0.91953 0.96246 0.8962 0.0
C523 C 0.8857 0.94386 0.87082 0.0
C524 C 0.89982 0.93191 0.87811 0.0
C525 C 0.92069 0.92296 0.86106 0.0
C526 C 0.92426 0.92615 0.83572 0.0
C527 C 0.90597 0.93813 0.82767 0.0
C528 C 0.88743 0.94712 0.84555 0.0
H529 H 0.77427 0.80877 0.93078 0.0
H530 H 0.96531 0.79157 0.95077 0.0
H531 H 0.99005 0.78817 0.90617 0.0
H532 H 0.73393 0.78934 0.87803 0.0
H533 H 0.70004 0.80177 0.85949 0.0
H534 H 0.69546 0.80249 0.89298 0.0
H535 H 0.7577 0.82354 0.89261 0.0
H536 H 0.76169 0.82296 0.85914 0.0
H537 H 0.83826 0.82484 0.87702 0.0
H538 H 0.99373 0.7864 0.86002 0.0
H539 H 0.98456 0.78872 0.81465 0.0
H540 H 0.79295 0.80789 0.82345 0.0
C541 C 0.82129 0.80426 0.92577 0.0
C542 C 0.86783 0.80037 0.94432 0.0
C543 C 0.92912 0.79467 0.93696 0.0
C544 C 0.94329 0.79261 0.91167 0.0
C545 C 0.89599 0.79641 0.89395 0.0
C546 C 0.83671 0.80229 0.90058 0.0
C547 C 0.7964 0.80608 0.87768 0.0
C548 C 0.72736 0.79953 0.87702 0.0
C549 C 0.78805 0.82019 0.87655 0.0
C550 C 0.84247 0.80144 0.85706 0.0
C551 C 0.89908 0.79574 0.86702 0.0
C552 C 0.94981 0.79088 0.85203 0.0
C553 C 0.944 0.79225 0.82623 0.0
C554 C 0.88815 0.79854 0.81543 0.0
C555 C 0.83574 0.80292 0.83109 0.0
H556 H 0.08138 0.55323 0.69021 0.0
H557 H 0.27499 0.572 0.69636 0.0
H558 H 0.28809 0.57141 0.65088 0.0
H559 H 0.13052 0.53303 0.63976 0.0
H560 H 0.04967 0.53378 0.62425 0.0
H561 H 0.05443 0.53566 0.65754 0.0
H562 H 0.99328 0.55678 0.65424 0.0
H563 H 0.9874 0.55485 0.62101 0.0
H564 H 0.02679 0.56847 0.63375 0.0
H565 H 0.28134 0.56877 0.60425 0.0
H566 H 0.24887 0.56574 0.56004 0.0
H567 H 0.06163 0.54846 0.58416 0.0
C568 C 0.12609 0.55732 0.68195 0.0
C569 C 0.17711 0.56262 0.697 0.0
C570 C 0.23524 0.56778 0.68536 0.0
C571 C 0.2434 0.56749 0.65946 0.0
C572 C 0.19318 0.56196 0.64519 0.0
C573 C 0.13541 0.55704 0.65596 0.0
C574 C 0.08896 0.55173 0.63623 0.0
C575 C 0.08041 0.53772 0.63966 0.0
C576 C 0.02004 0.55836 0.63631 0.0
C577 C 0.1291 0.55464 0.61283 0.0
C578 C 0.18944 0.56042 0.61836 0.0
C579 C 0.23421 0.56421 0.59966 0.0
C580 C 0.21572 0.56237 0.5746 0.0
C581 C 0.15282 0.55689 0.56855 0.0
C582 C 0.1101 0.55272 0.58807 0.0
H583 H 0.05347 0.70176 0.68159 0.0
H584 H 0.1961 0.67262 0.69957 0.0
H585 H 0.19567 0.66595 0.6555 0.0
H586 H 0.95567 0.68535 0.63561 0.0
H587 H 0.94639 0.69852 0.61534 0.0
H588 H 0.95541 0.70074 0.64843 0.0
H589 H 0.05892 0.71502 0.64124 0.0
H590 H 0.04912 0.71308 0.60816 0.0
H591 H 0.12897 0.70953 0.62277 0.0
H592 H 0.18033 0.66258 0.60972 0.0
H593 H 0.16611 0.66477 0.56423 0.0
H594 H 0.03546 0.69637 0.57559 0.0
C595 C 0.08466 0.69398 0.67623 0.0
C596 C 0.12463 0.68765 0.69399 0.0
C597 C 0.16547 0.67763 0.68624 0.0
C598 C 0.16489 0.6737 0.66132 0.0
C599 C 0.12369 0.67996 0.64441 0.0
C600 C 0.08542 0.69005 0.65142 0.0
C601 C 0.04944 0.69574 0.62926 0.0
C602 C 0.97213 0.69504 0.63236 0.0
C603 C 0.07305 0.70913 0.62511 0.0
C604 C 0.07361 0.6873 0.6086 0.0
C605 C 0.11551 0.67813 0.61786 0.0
C606 C 0.14707 0.66961 0.6023 0.0
C607 C 0.13817 0.67084 0.57654 0.0
C608 C 0.09809 0.68048 0.56662 0.0
C609 C 0.06401 0.68862 0.58284 0.0
H610 H 0.93063 0.43374 0.42334 0.0
H611 H 0.78191 0.4613 0.44437 0.0
H612 H 0.76735 0.4669 0.39993 0.0
H613 H 0.00753 0.45014 0.37207 0.0
H614 H 0.01631 0.43662 0.35276 0.0
H615 H 0.01789 0.43516 0.38619 0.0
H616 H 0.91921 0.41941 0.38449 0.0
H617 H 0.91834 0.42064 0.35107 0.0
H618 H 0.84204 0.42351 0.36857 0.0
H619 H 0.77021 0.46963 0.35368 0.0
H620 H 0.77333 0.46691 0.30817 0.0
H621 H 0.91606 0.43676 0.31644 0.0
C622 C 0.89496 0.44096 0.41854 0.0
C623 C 0.85752 0.44716 0.43724 0.0
C624 C 0.81067 0.45641 0.43031 0.0
C625 C 0.80275 0.45973 0.40517 0.0
C626 C 0.84143 0.4536 0.38724 0.0
C627 C 0.88548 0.44421 0.39354 0.0
C628 C 0.91704 0.43843 0.37052 0.0
C629 C 0.99429 0.4402 0.37039 0.0
C630 C 0.89799 0.42469 0.36855 0.0
C631 C 0.8836 0.44599 0.35017 0.0
C632 C 0.84126 0.45485 0.36036 0.0
C633 C 0.80312 0.46274 0.34552 0.0
C634 C 0.80556 0.46116 0.31968 0.0
C635 C 0.84528 0.45168 0.30879 0.0
C636 C 0.88657 0.44426 0.32421 0.0
H637 H 0.84779 0.31606 0.31963 0.0
H638 H 0.95405 0.28171 0.3063 0.0
H639 H 0.96904 0.27882 0.35158 0.0
H640 H 0.94868 0.32652 0.36796 0.0
H641 H 0.88211 0.33303 0.3868 0.0
H642 H 0.87157 0.33188 0.35357 0.0
H643 H 0.76111 0.31929 0.35923 0.0
H644 H 0.76989 0.32082 0.39247 0.0
H645 H 0.76174 0.30572 0.37868 0.0
H646 H 0.98566 0.28101 0.39796 0.0
H647 H 0.98065 0.28587 0.44306 0.0
H648 H 0.86041 0.31833 0.42684 0.0
C649 C 0.87104 0.30764 0.32638 0.0
C650 C 0.89813 0.29891 0.30953 0.0
C651 C 0.9313 0.2883 0.31898 0.0
C652 C 0.94093 0.28668 0.34465 0.0
C653 C 0.91683 0.29574 0.36076 0.0
C654 C 0.88069 0.30583 0.35211 0.0
C655 C 0.86137 0.3143 0.37349 0.0
C656 C 0.89282 0.32719 0.37024 0.0
C657 C 0.78393 0.31507 0.37613 0.0
C658 C 0.89315 0.30751 0.39532 0.0
C659 C 0.92576 0.29692 0.38754 0.0
C660 C 0.95993 0.28925 0.40429 0.0
C661 C 0.95793 0.29218 0.42981 0.0
C662 C 0.92177 0.30262 0.43828 0.0
C663 C 0.88994 0.31046 0.42073 0.0
H664 H 0.56731 0.06102 0.69798 0.0
H665 H 0.71529 0.03161 0.70346 0.0
H666 H 0.708 0.02817 0.65817 0.0
H667 H 0.46521 0.0465 0.6455 0.0
H668 H 0.44997 0.06133 0.63136 0.0
H669 H 0.45858 0.0601 0.66468 0.0
H670 H 0.55394 0.0765 0.66338 0.0
H671 H 0.54701 0.07754 0.63005 0.0
H672 H 0.62736 0.07385 0.64414 0.0
H673 H 0.70137 0.0305 0.61195 0.0
H674 H 0.67905 0.0359 0.56787 0.0
H675 H 0.53084 0.06298 0.59171 0.0
C676 C 0.59535 0.05346 0.68975 0.0
C677 C 0.64102 0.04642 0.7042 0.0
C678 C 0.67928 0.03695 0.69268 0.0
C679 C 0.67586 0.03499 0.66695 0.0
C680 C 0.63336 0.04251 0.65292 0.0
C681 C 0.59224 0.05133 0.6639 0.0
C682 C 0.55413 0.05861 0.64421 0.0
C683 C 0.47742 0.0565 0.64658 0.0
C684 C 0.57169 0.07244 0.64554 0.0
C685 C 0.58195 0.05278 0.62062 0.0
C686 C 0.62793 0.04357 0.62607 0.0
C687 C 0.66427 0.03751 0.60741 0.0
C688 C 0.65194 0.04071 0.58246 0.0
C689 C 0.60308 0.04978 0.57643 0.0
C690 C 0.56792 0.05589 0.59582 0.0
H691 H 0.66798 0.18727 0.68018 0.0
H692 H 0.47315 0.20587 0.67953 0.0
H693 H 0.47505 0.20634 0.63378 0.0
H694 H 0.73939 0.20381 0.62661 0.0
H695 H 0.78293 0.19036 0.61499 0.0
H696 H 0.76769 0.19201 0.6479 0.0
H697 H 0.70726 0.17077 0.64828 0.0
H698 H 0.72152 0.16914 0.61532 0.0
H699 H 0.63675 0.16814 0.62761 0.0
H700 H 0.49444 0.20379 0.58748 0.0
H701 H 0.53607 0.19988 0.54458 0.0
H702 H 0.71766 0.18319 0.57535 0.0
C703 C 0.62638 0.19164 0.67043 0.0
C704 C 0.57041 0.19649 0.68362 0.0
C705 C 0.51655 0.20199 0.66998 0.0
C706 C 0.51699 0.20232 0.6439 0.0
C707 C 0.57175 0.19714 0.63143 0.0
C708 C 0.62586 0.19203 0.64421 0.0
C709 C 0.67793 0.18694 0.6262 0.0
C710 C 0.74601 0.19368 0.6291 0.0
C711 C 0.68633 0.17291 0.62956 0.0
C712 C 0.64452 0.18997 0.60148 0.0
C713 C 0.58313 0.1958 0.60482 0.0
C714 C 0.54276 0.19929 0.58461 0.0
C715 C 0.56649 0.19698 0.5603 0.0
C716 C 0.63019 0.1913 0.55646 0.0
C717 C 0.66894 0.18766 0.57749 0.0
H718 H 0.40724 0.94908 0.42642 0.0
H719 H 0.22635 0.92889 0.44799 0.0
H720 H 0.19795 0.92602 0.40346 0.0
H721 H 0.33413 0.96466 0.37307 0.0
H722 H 0.41083 0.96366 0.35498 0.0
H723 H 0.41529 0.96442 0.38845 0.0
H724 H 0.48529 0.9442 0.38898 0.0
H725 H 0.48041 0.94328 0.35554 0.0
H726 H 0.45152 0.93054 0.37436 0.0
H727 H 0.19106 0.92495 0.3568 0.0
H728 H 0.20171 0.92655 0.3113 0.0
H729 H 0.38876 0.94719 0.31974 0.0
C730 C 0.36131 0.94409 0.42192 0.0
C731 C 0.31898 0.93918 0.44087 0.0
C732 C 0.25937 0.93279 0.43394 0.0
C733 C 0.24308 0.93106 0.40867 0.0
C734 C 0.28676 0.93582 0.39058 0.0
C735 C 0.34437 0.94229 0.39689 0.0
C736 C 0.38292 0.94647 0.37388 0.0
C737 C 0.38594 0.96064 0.37252 0.0
C738 C 0.45425 0.94078 0.37316 0.0
C739 C 0.33833 0.94122 0.3535 0.0
C740 C 0.28309 0.93515 0.36363 0.0
C741 C 0.23397 0.9297 0.34872 0.0
C742 C 0.2406 0.93068 0.32284 0.0
C743 C 0.2961 0.93701 0.31188 0.0
C744 C 0.34622 0.94219 0.32751 0.0
H745 H 0.43246 0.81077 0.43716 0.0
H746 H 0.30177 0.77885 0.44396 0.0
H747 H 0.2976 0.7769 0.39816 0.0
H748 H 0.35048 0.82405 0.38753 0.0
H749 H 0.42444 0.82961 0.37136 0.0
H750 H 0.42683 0.8275 0.40459 0.0
H751 H 0.53022 0.81291 0.40067 0.0
H752 H 0.52974 0.81532 0.36747 0.0
H753 H 0.52598 0.79987 0.37987 0.0
H754 H 0.29364 0.78036 0.35143 0.0
H755 H 0.30854 0.78667 0.30729 0.0
H756 H 0.44287 0.81607 0.33098 0.0
C757 C 0.40613 0.80299 0.42898 0.0
C758 C 0.36893 0.79475 0.44408 0.0
C759 C 0.33203 0.78505 0.43268 0.0
C760 C 0.32866 0.78397 0.40667 0.0
C761 C 0.36269 0.79265 0.3922 0.0
C762 C 0.40229 0.80178 0.40292 0.0
C763 C 0.43112 0.81028 0.38315 0.0
C764 C 0.40674 0.82365 0.3869 0.0
C765 C 0.50888 0.80954 0.38276 0.0
C766 C 0.40056 0.80466 0.35982 0.0
C767 C 0.36077 0.79456 0.36538 0.0
C768 C 0.32545 0.78818 0.34683 0.0
C769 C 0.33331 0.79191 0.32185 0.0
C770 C 0.37653 0.80187 0.31572 0.0
C771 C 0.40942 0.80841 0.3351 0.0
H772 H 0.57556 0.53895 0.07495 0.0
H773 H 0.70392 0.5695 0.05245 0.0
H774 H 0.71274 0.57606 0.09654 0.0
H775 H 0.48054 0.55508 0.11882 0.0
H776 H 0.47356 0.54255 0.14077 0.0
H777 H 0.48366 0.53932 0.10809 0.0
H778 H 0.59024 0.52609 0.11708 0.0
H779 H 0.57919 0.52894 0.14987 0.0
H780 H 0.65858 0.53261 0.13505 0.0
H781 H 0.70004 0.58007 0.14288 0.0
H782 H 0.67969 0.57968 0.18833 0.0
H783 H 0.55539 0.54701 0.18002 0.0
C784 C 0.60707 0.54685 0.07931 0.0
C785 C 0.63947 0.55368 0.06019 0.0
C786 C 0.67967 0.564 0.06674 0.0
C787 C 0.68415 0.56788 0.09172 0.0
C788 C 0.64836 0.56131 0.10986 0.0
C789 C 0.6117 0.55086 0.10399 0.0
C790 C 0.57633 0.54558 0.1267 0.0
C791 C 0.49894 0.54564 0.12338 0.0
C792 C 0.60268 0.53253 0.13253 0.0
C793 C 0.59812 0.55477 0.14638 0.0
C794 C 0.63959 0.56378 0.13627 0.0
C795 C 0.66747 0.57309 0.15091 0.0
C796 C 0.65497 0.57289 0.17663 0.0
C797 C 0.61433 0.56354 0.18746 0.0
C798 C 0.58449 0.55451 0.17206 0.0
H799 H 0.61625 0.70298 0.18318 0.0
H800 H 0.59782 0.66366 0.19605 0.0
H801 H 0.57943 0.66031 0.15079 0.0
H802 H 0.49236 0.70565 0.13461 0.0
H803 H 0.5404 0.71668 0.11673 0.0
H804 H 0.55011 0.71602 0.15006 0.0
H805 H 0.67958 0.7127 0.14536 0.0
H806 H 0.6704 0.71377 0.1121 0.0
H807 H 0.71018 0.7004 0.12574 0.0
H808 H 0.56029 0.66152 0.10403 0.0
H809 H 0.56633 0.66648 0.05907 0.0
H810 H 0.60299 0.70488 0.07701 0.0
C811 C 0.6094 0.69366 0.1763 0.0
C812 C 0.60924 0.68353 0.19277 0.0
C813 C 0.59929 0.67147 0.18345 0.0
C814 C 0.58786 0.66953 0.1579 0.0
C815 C 0.58683 0.67976 0.1421 0.0
C816 C 0.59901 0.69156 0.15089 0.0
C817 C 0.59964 0.70091 0.12995 0.0
C818 C 0.5422 0.71037 0.13304 0.0
C819 C 0.66908 0.70731 0.12818 0.0
C820 C 0.58684 0.69253 0.10789 0.0
C821 C 0.57774 0.68042 0.1153 0.0
C822 C 0.56701 0.67098 0.09804 0.0
C823 C 0.56943 0.6739 0.07256 0.0
C824 C 0.58376 0.68609 0.0647 0.0
C825 C 0.5903 0.69555 0.08261 0.0
H826 H 0.43116 0.45608 0.83458 0.0
H827 H 0.42952 0.41742 0.81427 0.0
H828 H 0.43033 0.41164 0.85888 0.0
H829 H 0.54211 0.45205 0.89192 0.0
H830 H 0.49664 0.46401 0.9082 0.0
H831 H 0.50616 0.4648 0.87486 0.0
H832 H 0.37591 0.46657 0.87064 0.0
H833 H 0.36564 0.46529 0.90383 0.0
H834 H 0.32278 0.45461 0.88347 0.0
H835 H 0.41172 0.41027 0.90542 0.0
H836 H 0.40037 0.41324 0.95103 0.0
H837 H 0.42034 0.45276 0.94127 0.0
C838 C 0.43486 0.44641 0.83961 0.0
C839 C 0.43247 0.43716 0.82109 0.0
C840 C 0.43395 0.4246 0.82822 0.0
C841 C 0.43328 0.42126 0.85351 0.0
C842 C 0.43216 0.43061 0.87137 0.0
C843 C 0.4355 0.44294 0.86477 0.0
C844 C 0.43173 0.45119 0.88756 0.0
C845 C 0.49812 0.45844 0.89083 0.0
C846 C 0.37036 0.45993 0.88628 0.0
C847 C 0.42298 0.44162 0.9079 0.0
C848 C 0.42287 0.4298 0.89817 0.0
C849 C 0.41269 0.41947 0.91325 0.0
C850 C 0.40525 0.42124 0.93904 0.0
C851 C 0.40809 0.43322 0.94942 0.0
C852 C 0.41664 0.44353 0.93363 0.0
H853 H 0.41491 0.31133 0.8432 0.0
H854 H 0.20717 0.30441 0.82059 0.0
H855 H 0.17489 0.30194 0.86485 0.0
H856 H 0.42181 0.28965 0.8928 0.0
H857 H 0.47226 0.29925 0.91298 0.0
H858 H 0.47898 0.30088 0.87969 0.0
H859 H 0.45034 0.32415 0.88321 0.0
H860 H 0.4442 0.32263 0.91654 0.0
H861 H 0.3741 0.32885 0.89907 0.0
H862 H 0.16675 0.29915 0.91095 0.0
H863 H 0.17892 0.29797 0.95621 0.0
H864 H 0.39253 0.30723 0.94982 0.0
C865 C 0.36242 0.30936 0.84749 0.0
C866 C 0.31345 0.30802 0.82831 0.0
C867 C 0.2454 0.30554 0.83486 0.0
C868 C 0.22676 0.30406 0.85996 0.0
C869 C 0.27663 0.30521 0.87827 0.0
C870 C 0.34289 0.30796 0.8724 0.0
C871 C 0.38654 0.30879 0.89568 0.0
C872 C 0.44324 0.29906 0.89525 0.0
C873 C 0.41549 0.32188 0.89881 0.0
C874 C 0.33456 0.30593 0.91567 0.0
C875 C 0.27166 0.30385 0.90508 0.0
C876 C 0.21556 0.30088 0.91944 0.0
C877 C 0.22332 0.30024 0.94529 0.0
C878 C 0.28678 0.30262 0.95691 0.0
C879 C 0.34339 0.30537 0.9417 0.0
H880 H 0.35407 0.98149 0.25587 0.0
H881 H 0.18926 0.96262 0.21825 0.0
H882 H 0.12094 0.98172 0.21997 0.0
H883 H 0.25052 -0.00138 0.29782 0.0
H884 H 0.30288 0.01225 0.29709 0.0
H885 H 0.34002 0.99731 0.29171 0.0
H886 H 0.38781 0.00501 0.24953 0.0
H887 H 0.35029 0.01996 0.25469 0.0
H888 H 0.33096 0.01147 0.22672 0.0
H889 H 0.07019 0.0024 0.22644 0.0
H890 H 0.03534 0.02312 0.24008 0.0
H891 H 0.2323 0.0288 0.27414 0.0
C892 C 0.3037 0.9814 0.24789 0.0
C893 C 0.27689 0.97062 0.2368 0.0
C894 C 0.21065 0.9708 0.2268 0.0
C895 C 0.1717 0.9816 0.22757 0.0
C896 C 0.19982 0.9921 0.23846 0.0
C897 C 0.26403 0.99208 0.24863 0.0
C898 C 0.28085 0.00446 0.26031 0.0
C899 C 0.29433 0.00307 0.2884 0.0
C900 C 0.34105 0.01059 0.24701 0.0
C901 C 0.2156 0.0114 0.2554 0.0
C902 C 0.17 0.0041 0.24252 0.0
C903 C 0.10544 0.00822 0.23646 0.0
C904 C 0.08618 0.02 0.24433 0.0
C905 C 0.13116 0.02753 0.25819 0.0
C906 C 0.19726 0.02328 0.26334 0.0
H907 H 0.91466 0.26487 0.24771 0.0
H908 H 0.08381 0.28819 0.22648 0.0
H909 H 0.16148 0.27037 0.23142 0.0
H910 H 0.00607 0.2465 0.29409 0.0
H911 H 0.96109 0.23256 0.28617 0.0
H912 H 0.92045 0.24735 0.28256 0.0
H913 H 0.89621 0.24231 0.23624 0.0
H914 H 0.93742 0.22758 0.23958 0.0
H915 H 0.96551 0.23824 0.21597 0.0
H916 H 0.21763 0.24972 0.23502 0.0
H917 H 0.25191 0.22807 0.24041 0.0
H918 H 0.04565 0.21826 0.26038 0.0
C919 C 0.96819 0.26628 0.24435 0.0
C920 C 0.99351 0.27785 0.23657 0.0
C921 C 0.06371 0.27938 0.23249 0.0
C922 C 0.10795 0.26932 0.23519 0.0
C923 C 0.08091 0.25793 0.24227 0.0
C924 C 0.01281 0.25641 0.24713 0.0
C925 C 0.99617 0.24318 0.25396 0.0
C926 C 0.96938 0.24235 0.28079 0.0
C927 C 0.94586 0.2375 0.23532 0.0
C928 C 0.06549 0.23738 0.25163 0.0
C929 C 0.11354 0.24607 0.24487 0.0
C930 C 0.18068 0.24288 0.24061 0.0
C931 C 0.19945 0.23052 0.24362 0.0
C932 C 0.15137 0.22149 0.25094 0.0
C933 C 0.08348 0.22498 0.25494 0.0
H934 H 0.20768 0.21642 0.98621 0.0
H935 H 0.00029 0.22592 1.00522 0.0
H936 H 0.03813 0.2461 0.02073 0.0
H937 H 0.28594 0.23154 0.03945 0.0
H938 H 0.35817 0.23691 0.02201 0.0
H939 H 0.31544 0.22293 0.01285 0.0
H940 H 0.29759 0.23183 0.96852 0.0
H941 H 0.34029 0.24582 0.97755 0.0
H942 H 0.25587 0.24653 0.96485 0.0
H943 H 0.09659 0.26544 0.03325 0.0
H944 H 0.17373 0.28287 0.042 0.0
H945 H 0.34332 0.26111 0.01512 0.0
C946 C 0.17044 0.22275 0.99371 0.0
C947 C 0.10108 0.2196 0.99445 0.0
C948 C 0.05375 0.22812 1.0044 0.0
C949 C 0.07466 0.23962 0.01332 0.0
C950 C 0.14315 0.2425 0.01223 0.0
C951 C 0.19048 0.23434 1.00273 0.0
C952 C 0.26086 0.23991 1.00341 0.0
C953 C 0.30787 0.23237 0.02045 0.0
C954 C 0.29036 0.24109 0.97701 0.0
C955 C 0.2453 0.25246 0.01453 0.0
C956 C 0.17711 0.25373 0.01956 0.0
C957 C 0.15023 0.26456 0.02951 0.0
C958 C 0.19434 0.27441 0.03441 0.0
C959 C 0.26435 0.27332 0.0293 0.0
C960 C 0.29 0.26218 0.01931 0.0
H961 H 0.02061 0.02746 1.0018 0.0
H962 H 0.23148 0.01708 0.01187 0.0
H963 H 0.19831 0.99547 0.01729 0.0
H964 H 0.95565 0.00679 0.04829 0.0
H965 H 0.87975 0.00296 0.03132 0.0
H966 H 0.91967 0.01773 0.02672 0.0
H967 H 0.92721 0.01344 0.97932 0.0
H968 H 0.88757 -0.00138 0.98382 0.0
H969 H 0.96862 -0.00039 0.96851 0.0
H970 H 0.14466 0.97507 0.02223 0.0
H971 H 0.07065 0.95703 0.02931 0.0
H972 H 0.89384 0.98014 0.0174 0.0
C973 C 0.05958 0.02061 1.005 0.0
C974 C 0.12859 0.02399 0.00629 0.0
C975 C 0.17818 0.01477 0.0108 0.0
C976 C 0.16003 0.00242 0.0138 0.0
C977 C 0.09193 -0.00065 0.01242 0.0
C978 C 0.04223 0.00813 0.00834 0.0
C979 C 0.9725 0.00226 0.00897 0.0
C980 C 0.92937 0.00776 0.03008 0.0
C981 C 0.93689 0.00356 0.98364 0.0
C982 C 0.99121 0.98892 0.01424 0.0
C983 C 0.06047 0.98745 0.01587 0.0
C984 C 0.09022 0.97605 0.02097 0.0
C985 C 0.04788 0.96587 0.02494 0.0
C986 C 0.9767 0.9672 0.02395 0.0
C987 C 0.94818 0.97885 0.01823 0.0
H988 H 0.67405 0.01541 0.76887 0.0
H989 H 0.85121 0.03862 0.77854 0.0
H990 H 0.92502 0.02051 0.77002 0.0
H991 H 0.73664 0.98916 0.79885 0.0
H992 H 0.69713 0.97835 0.77788 0.0
H993 H 0.65942 0.99326 0.78295 0.0
H994 H 0.66251 -0.00233 0.73549 0.0
H995 H 0.69973 0.98271 0.73021 0.0
H996 H 0.74156 0.9964 0.7189 0.0
H997 H 0.97791 -0.00067 0.76343 0.0
H998 H 0.0062 0.97733 0.75707 0.0
H999 H 0.79228 0.96855 0.75153 0.0
C1000 C 0.72842 0.01675 0.76904 0.0
C1001 C 0.75723 0.02835 0.77453 0.0
C1002 C 0.82841 0.02976 0.77436 0.0
C1003 C 0.87047 0.01955 0.76959 0.0
C1004 C 0.8401 0.00814 0.7648 0.0
C1005 C 0.77061 0.00677 0.76423 0.0
C1006 C 0.7499 0.99357 0.75925 0.0
C1007 C 0.70834 0.98828 0.78103 0.0
C1008 C 0.71115 0.99253 0.73449 0.0
C1009 C 0.81868 0.98758 0.75758 0.0
C1010 C 0.87017 0.99611 0.76075 0.0
C1011 C 0.93801 0.99261 0.7607 0.0
C1012 C 0.95349 0.9801 0.75718 0.0
C1013 C 0.9013 0.97127 0.75376 0.0
C1014 C 0.83318 0.9751 0.75397 0.0
H1015 H 0.02373 0.71952 0.76715 0.0
H1016 H 0.2295 0.73145 0.75201 0.0
H1017 H 0.18773 0.75239 0.74215 0.0
H1018 H 0.94521 0.73692 0.71803 0.0
H1019 H 0.8706 0.74043 0.73603 0.0
H1020 H 0.91721 0.72646 0.74202 0.0
H1021 H 0.93016 0.73273 0.7884 0.0
H1022 H 0.88365 0.74673 0.78253 0.0
H1023 H 0.96709 0.74747 0.79605 0.0
H1024 H 0.12285 0.77224 0.73468 0.0
H1025 H 0.03908 0.78908 0.72889 0.0
H1026 H 0.87735 0.76369 0.74821 0.0
C1027 C 0.05998 0.72654 0.76178 0.0
C1028 C 0.12974 0.72391 0.76041 0.0
C1029 C 0.17569 0.7333 0.75317 0.0
C1030 C 0.15253 0.74522 0.74757 0.0
C1031 C 0.08333 0.74754 0.74918 0.0
C1032 C 0.03775 0.73844 0.756 0.0
C1033 C 0.96598 0.74324 0.75609 0.0
C1034 C 0.92219 0.73635 0.7369 0.0
C1035 C 0.93493 0.7425 0.78233 0.0
C1036 C 0.9783 0.75646 0.74836 0.0
C1037 C 0.04622 0.75882 0.74452 0.0
C1038 C 0.06945 0.77049 0.73754 0.0
C1039 C 0.02171 0.77999 0.73431 0.0
C1040 C 0.95194 0.77765 0.73798 0.0
C1041 C 0.93037 0.76574 0.74512 0.0
H1042 H 0.76689 0.71326 0.99439 0.0
H1043 H 0.55339 0.72282 0.99702 0.0
H1044 H 0.58269 0.74419 0.00798 0.0
H1045 H 0.81968 0.73297 0.04591 0.0
H1046 H 0.8984 0.7373 0.03133 0.0
H1047 H 0.86092 0.7225 0.02467 0.0
H1048 H 0.86261 0.72756 0.97749 0.0
H1049 H 0.89992 0.74238 0.98402 0.0
H1050 H 0.82222 0.74146 0.96649 0.0
H1051 H 0.63389 0.76464 0.01741 0.0
H1052 H 0.70539 0.78301 0.02482 0.0
H1053 H 0.88555 0.76046 0.01575 0.0
C1054 C 0.72648 0.71984 0.99746 0.0
C1055 C 0.65795 0.71638 0.99482 0.0
C1056 C 0.60635 0.72527 0.99885 0.0
C1057 C 0.62236 0.73744 1.00515 0.0
C1058 C 0.69025 0.74062 0.00734 0.0
C1059 C 0.7416 0.73211 1.00367 0.0
C1060 C 0.81044 0.73811 0.00655 0.0
C1061 C 0.84966 0.73238 0.02842 0.0
C1062 C 0.85117 0.73733 0.98218 0.0
C1063 C 0.78951 0.75128 0.0122 0.0
C1064 C 0.71994 0.75251 0.01267 0.0
C1065 C 0.68851 0.76381 0.01719 0.0
C1066 C 0.72943 0.77418 0.02136 0.0
C1067 C 0.80082 0.77314 0.02088 0.0
C1068 C 0.83103 0.76153 0.01627 0.0
H1069 H 0.12848 0.51865 0.7568 0.0
H1070 H 0.29122 0.54011 0.78968 0.0
H1071 H 0.36214 0.52127 0.79174 0.0
H1072 H 0.15443 0.49086 0.79268 0.0
H1073 H 0.13492 0.48075 0.76701 0.0
H1074 H 0.09652 0.49582 0.76873 0.0
H1075 H 0.14268 0.50115 0.72482 0.0
H1076 H 0.18037 0.48606 0.72283 0.0
H1077 H 0.23205 0.49963 0.71867 0.0
H1078 H 0.41547 0.50034 0.78906 0.0
H1079 H 0.45135 0.47909 0.77917 0.0
H1080 H 0.25243 0.47127 0.74871 0.0
C1081 C 0.17904 0.51941 0.76447 0.0
C1082 C 0.20451 0.5308 0.77316 0.0
C1083 C 0.27093 0.53144 0.78292 0.0
C1084 C 0.31127 0.5208 0.7843 0.0
C1085 C 0.28407 0.50966 0.7759 0.0
C1086 C 0.21966 0.50892 0.76603 0.0
C1087 C 0.20315 0.49596 0.75743 0.0
C1088 C 0.14374 0.49053 0.77236 0.0
C1089 C 0.18875 0.49569 0.72927 0.0
C1090 C 0.26887 0.48951 0.76367 0.0
C1091 C 0.31462 0.49757 0.77451 0.0
C1092 C 0.37998 0.49393 0.78077 0.0
C1093 C 0.3998 0.48186 0.77509 0.0
C1094 C 0.35441 0.47359 0.7633 0.0
C1095 C 0.28761 0.47736 0.75813 0.0
H1096 H 0.33917 0.76273 0.51179 0.0
H1097 H 0.16755 0.78687 0.52507 0.0
H1098 H 0.09002 0.76894 0.52056 0.0
H1099 H 0.25929 0.74349 0.46559 0.0
H1100 H 0.30147 0.72971 0.4763 0.0
H1101 H 0.34163 0.74453 0.47993 0.0
H1102 H 0.35362 0.74052 0.52735 0.0
H1103 H 0.31275 0.72576 0.52394 0.0
H1104 H 0.27926 0.73697 0.54547 0.0
H1105 H 0.0333 0.74805 0.51674 0.0
H1106 H -6e-05 0.72634 0.51016 0.0
H1107 H 0.21062 0.71635 0.4988 0.0
C1108 C 0.28522 0.76429 0.51365 0.0
C1109 C 0.25901 0.77611 0.51894 0.0
C1110 C 0.18828 0.77784 0.52099 0.0
C1111 C 0.14415 0.76773 0.51857 0.0
C1112 C 0.17207 0.7561 0.51392 0.0
C1113 C 0.24095 0.75441 0.51118 0.0
C1114 C 0.25872 0.74107 0.50617 0.0
C1115 C 0.29223 0.73962 0.48047 0.0
C1116 C 0.30373 0.73577 0.52697 0.0
C1117 C 0.18895 0.73543 0.50665 0.0
C1118 C 0.13964 0.74422 0.51129 0.0
C1119 C 0.07142 0.74112 0.51294 0.0
C1120 C 0.0531 0.72876 0.50928 0.0
C1121 C 0.10285 0.71971 0.50389 0.0
C1122 C 0.17159 0.72309 0.50283 0.0
H1123 H 0.00507 0.46747 0.5002 0.0
H1124 H 0.85019 0.47774 0.55353 0.0
H1125 H 0.89469 0.49891 0.55488 0.0
H1126 H 0.14171 0.48923 0.52638 0.0
H1127 H 0.17278 0.49253 0.49553 0.0
H1128 H 0.13778 0.47755 0.50253 0.0
H1129 H 0.05369 0.48008 0.46588 0.0
H1130 H 0.087 0.49517 0.45914 0.0
H1131 H 0.99784 0.49325 0.46524 0.0
H1132 H 0.93577 0.51946 0.54311 0.0
H1133 H 0.98824 0.53806 0.52489 0.0
H1134 H 0.12397 0.51494 0.48179 0.0
C1135 C 0.98308 0.47406 0.51304 0.0
C1136 C 0.92474 0.47106 0.52688 0.0
C1137 C 0.89525 0.47994 0.54288 0.0
C1138 C 0.92005 0.49198 0.54377 0.0
C1139 C 0.97503 0.49494 0.52881 0.0
C1140 C 0.00774 0.48621 0.51428 0.0
C1141 C 0.06223 0.4922 0.49848 0.0
C1142 C 0.13282 0.4876 0.5062 0.0
C1143 C 0.04936 0.49004 0.47054 0.0
C1144 C 0.05218 0.50564 0.50546 0.0
C1145 C 0.00153 0.50699 0.52296 0.0
C1146 C 0.97733 0.51855 0.53011 0.0
C1147 C 0.00694 0.52906 0.51953 0.0
C1148 C 0.06089 0.52788 0.50243 0.0
C1149 C 0.08376 0.51604 0.49534 0.0
H1150 H 0.72097 0.53058 0.25969 0.0
H1151 H 0.51302 0.52052 0.24246 0.0
H1152 H 0.54917 0.49954 0.23213 0.0
H1153 H 0.79736 0.51225 0.21006 0.0
H1154 H 0.8695 0.50767 0.22845 0.0
H1155 H 0.82823 0.52221 0.23444 0.0
H1156 H 0.8107 0.51591 0.28056 0.0
H1157 H 0.85181 0.50135 0.27469 0.0
H1158 H 0.76767 0.50166 0.28769 0.0
H1159 H 0.6041 0.47956 0.22548 0.0
H1160 H 0.67864 0.46148 0.22043 0.0
H1161 H 0.85259 0.48398 0.24019 0.0
C1162 C 0.68336 0.52395 0.25364 0.0
C1163 C 0.61421 0.52719 0.252 0.0
C1164 C 0.56633 0.51828 0.24395 0.0
C1165 C 0.58621 0.5063 0.23802 0.0
C1166 C 0.6543 0.50333 0.24003 0.0
C1167 C 0.70246 0.51185 0.24743 0.0
C1168 C 0.77236 0.50605 0.24785 0.0
C1169 C 0.81965 0.51243 0.22908 0.0
C1170 C 0.80238 0.50626 0.27427 0.0
C1171 C 0.75534 0.49299 0.23973 0.0
C1172 C 0.68681 0.49167 0.23545 0.0
C1173 C 0.65805 0.48045 0.22854 0.0
C1174 C 0.70067 0.47025 0.22577 0.0
C1175 C 0.77117 0.47139 0.22974 0.0
C1176 C 0.79885 0.48291 0.23678 0.0
H1177 H 0.78241 0.27719 0.51097 0.0
H1178 H 0.99381 0.26706 0.51991 0.0
H1179 H 0.96496 0.24523 0.51301 0.0
H1180 H 0.71168 0.24991 0.54113 0.0
H1181 H 0.64173 0.24881 0.51968 0.0
H1182 H 0.67841 0.26364 0.52662 0.0
H1183 H 0.69945 0.26739 0.47955 0.0
H1184 H 0.66281 0.25258 0.47248 0.0
H1185 H 0.74715 0.25621 0.46192 0.0
H1186 H 0.91431 0.22457 0.50376 0.0
H1187 H 0.84419 0.20655 0.49179 0.0
H1188 H 0.66692 0.23023 0.48874 0.0
C1189 C 0.82239 0.27035 0.51167 0.0
C1190 C 0.89016 0.27378 0.51603 0.0
C1191 C 0.94139 0.26461 0.51661 0.0
C1192 C 0.9256 0.25218 0.51278 0.0
C1193 C 0.85838 0.24908 0.50842 0.0
C1194 C 0.80756 0.25787 0.50783 0.0
C1195 C 0.73982 0.25211 0.50185 0.0
C1196 C 0.68998 0.25371 0.52362 0.0
C1197 C 0.71063 0.25739 0.4775 0.0
C1198 C 0.76084 0.23876 0.49886 0.0
C1199 C 0.82929 0.23717 0.5029 0.0
C1200 C 0.86049 0.22567 0.50064 0.0
C1201 C 0.82047 0.21551 0.49384 0.0
C1202 C 0.75044 0.21704 0.48931 0.0
C1203 C 0.72043 0.22879 0.4921 0.0
H1204 H 0.46775 0.28126 0.74739 0.0
H1205 H 0.2632 0.27048 0.76775 0.0
H1206 H 0.30176 0.24924 0.77508 0.0
H1207 H 0.50833 0.25395 0.71439 0.0
H1208 H 0.59496 0.25308 0.72484 0.0
H1209 H 0.55324 0.26783 0.72281 0.0
H1210 H 0.58022 0.27208 0.76925 0.0
H1211 H 0.62251 0.25737 0.77136 0.0
H1212 H 0.55456 0.26104 0.79253 0.0
H1213 H 0.35847 0.22909 0.77743 0.0
H1214 H 0.43335 0.21091 0.77679 0.0
H1215 H 0.60258 0.23425 0.75545 0.0
C1216 C 0.43152 0.27445 0.75375 0.0
C1217 C 0.36252 0.27749 0.75694 0.0
C1218 C 0.31629 0.26834 0.76507 0.0
C1219 C 0.33763 0.25624 0.76934 0.0
C1220 C 0.40546 0.25344 0.76549 0.0
C1221 C 0.45203 0.26224 0.75809 0.0
C1222 C 0.52153 0.25653 0.75461 0.0
C1223 C 0.54592 0.25794 0.72755 0.0
C1224 C 0.57273 0.26209 0.77304 0.0
C1225 C 0.5061 0.24317 0.76082 0.0
C1226 C 0.43879 0.24164 0.76709 0.0
C1227 C 0.4115 0.23014 0.7728 0.0
C1228 C 0.45435 0.21988 0.77229 0.0
C1229 C 0.52367 0.2212 0.76616 0.0
C1230 C 0.54982 0.233 0.76034 0.0
H1231 H 0.59919 0.01231 0.5006 0.0
H1232 H 0.42774 0.03717 0.49349 0.0
H1233 H 0.34953 0.01948 0.49799 0.0
H1234 H 0.52678 0.98685 0.46652 0.0
H1235 H 0.56349 0.97531 0.48659 0.0
H1236 H 0.60572 0.98989 0.48225 0.0
H1237 H 0.60592 0.99344 0.53 0.0
H1238 H 0.56382 0.97887 0.5345 0.0
H1239 H 0.52709 0.99281 0.5469 0.0
H1240 H 0.29084 -0.00077 0.50378 0.0
H1241 H 0.25476 0.97777 0.51146 0.0
H1242 H 0.46525 0.96626 0.51492 0.0
C1243 C 0.54519 0.01404 0.49991 0.0
C1244 C 0.51926 0.02606 0.49666 0.0
C1245 C 0.44842 0.02799 0.49594 0.0
C1246 C 0.40374 0.01802 0.49844 0.0
C1247 C 0.43104 0.00626 0.50159 0.0
C1248 C 0.50007 0.00423 0.50237 0.0
C1249 C 0.51646 0.99075 0.50644 0.0
C1250 C 0.55541 0.98539 0.48412 0.0
C1251 C 0.55561 0.98886 0.53092 0.0
C1252 C 0.44574 0.98551 0.50803 0.0
C1253 C 0.39723 0.9946 0.50506 0.0
C1254 C 0.32828 0.99202 0.50609 0.0
C1255 C 0.30838 0.97982 0.51045 0.0
C1256 C 0.35735 0.9704 0.5138 0.0
C1257 C 0.42681 0.97329 0.5124 0.0
H1258 H 0.5293 0.71717 0.26697 0.0
H1259 H 0.73737 0.72585 0.24759 0.0
H1260 H 0.70664 0.74776 0.24242 0.0
H1261 H 0.45373 0.73763 0.2227 0.0
H1262 H 0.38438 0.74185 0.2428 0.0
H1263 H 0.42379 0.72695 0.24598 0.0
H1264 H 0.44703 0.73148 0.29263 0.0
H1265 H 0.40824 0.74645 0.28951 0.0
H1266 H 0.49354 0.74516 0.30118 0.0
H1267 H 0.65304 0.76884 0.23921 0.0
H1268 H 0.57761 0.78702 0.23461 0.0
H1269 H 0.40551 0.76431 0.25531 0.0
C1270 C 0.56834 0.72369 0.2617 0.0
C1271 C 0.63566 0.71984 0.2578 0.0
C1272 C 0.68533 0.72861 0.25068 0.0
C1273 C 0.66853 0.74109 0.24783 0.0
C1274 C 0.60181 0.74464 0.25203 0.0
C1275 C 0.55237 0.73618 0.25858 0.0
C1276 C 0.48386 0.74228 0.26089 0.0
C1277 C 0.43349 0.73686 0.24196 0.0
C1278 C 0.45659 0.74128 0.28764 0.0
C1279 C 0.50251 0.75545 0.25449 0.0
C1280 C 0.57085 0.75669 0.24969 0.0
C1281 C 0.59938 0.768 0.24295 0.0
C1282 C 0.5564 0.77827 0.24048 0.0
C1283 C 0.48598 0.77703 0.24451 0.0
C1284 C 0.45924 0.76553 0.25204 0.0
H1285 H 0.37065 0.47792 0.0104 0.0
H1286 H 0.55255 0.45635 0.02348 0.0
H1287 H 0.62252 0.47471 0.01387 0.0
H1288 H 0.43427 0.49586 0.9593 0.0
H1289 H 0.3913 0.50979 0.96867 0.0
H1290 H 0.3558 0.49496 0.97637 0.0
H1291 H 0.35377 0.501 0.02306 0.0
H1292 H 0.38931 0.51586 0.01553 0.0
H1293 H 0.43088 0.50604 0.03791 0.0
H1294 H 0.67175 0.4952 1.00273 0.0
H1295 H 0.69869 0.51661 0.99128 0.0
H1296 H 0.48412 0.52509 0.98617 0.0
C1297 C 0.42524 0.47703 0.0112 0.0
C1298 C 0.45642 0.46573 0.01766 0.0
C1299 C 0.52784 0.46494 0.01861 0.0
C1300 C 0.56784 0.4753 0.01316 0.0
C1301 C 0.53538 0.48632 0.00694 0.0
C1302 C 0.46574 0.48727 0.00599 0.0
C1303 C 0.44343 0.50021 0.99905 0.0
C1304 C 0.40388 0.5002 0.97438 0.0
C1305 C 0.4019 0.50612 0.02015 0.0
C1306 C 0.51157 0.50643 0.99619 0.0
C1307 C 0.56381 0.49822 1.00078 0.0
C1308 C 0.63133 0.50171 0.99913 0.0
C1309 C 0.64599 0.51391 0.99258 0.0
C1310 C 0.59339 0.52252 0.98782 0.0
C1311 C 0.52527 0.51872 0.98974 0.0
H1312 H 0.21021 0.15126 0.26992 0.0
H1313 H 0.01943 0.15701 0.30836 0.0
H1314 H 0.01962 0.13501 0.32118 0.0
H1315 H 0.16779 0.12289 0.24453 0.0
H1316 H 0.25171 0.11643 0.24687 0.0
H1317 H 0.24094 0.13285 0.24408 0.0
H1318 H 0.30995 0.13604 0.28464 0.0
H1319 H 0.32045 0.11957 0.28767 0.0
H1320 H 0.28382 0.12834 0.31282 0.0
H1321 H 0.0372 0.1122 0.32714 0.0
H1322 H 0.06149 0.0901 0.32153 0.0
H1323 H 0.23875 0.09921 0.2774 0.0
C1324 C 0.16903 0.148 0.28151 0.0
C1325 C 0.11513 0.15591 0.28846 0.0
C1326 C 0.06135 0.15114 0.30297 0.0
C1327 C 0.0614 0.1387 0.31047 0.0
C1328 C 0.11541 0.13117 0.30318 0.0
C1329 C 0.16788 0.13565 0.28881 0.0
C1330 C 0.21597 0.12545 0.281 0.0
C1331 C 0.21923 0.12434 0.25244 0.0
C1332 C 0.28674 0.12747 0.29221 0.0
C1333 C 0.18141 0.1144 0.29263 0.0
C1334 C 0.1244 0.11795 0.30584 0.0
C1335 C 0.08191 0.10934 0.31701 0.0
C1336 C 0.09626 0.09679 0.31368 0.0
C1337 C 0.1521 0.09291 0.29896 0.0
C1338 C 0.19652 0.10187 0.28909 0.0
H1339 H 0.04111 0.14994 0.97839 0.0
H1340 H 0.24161 0.15367 0.94621 0.0
H1341 H 0.24584 0.13101 0.93978 0.0
H1342 H 0.07824 0.12372 0.01321 0.0
H1343 H 0.99595 0.11671 0.00979 0.0
H1344 H 0.0045 0.13322 0.00818 0.0
H1345 H 0.94668 0.13322 0.96487 0.0
H1346 H 0.93818 0.11666 0.9663 0.0
H1347 H 0.9808 0.12375 0.94028 0.0
H1348 H 0.23115 0.10809 0.93946 0.0
H1349 H 0.20655 0.08644 0.94965 0.0
H1350 H 0.01767 0.09743 0.9846 0.0
C1351 C 0.0853 0.14604 0.96939 0.0
C1352 C 0.14068 0.15358 0.96234 0.0
C1353 C 0.1985 0.14807 0.9515 0.0
C1354 C 0.20105 0.13524 0.94767 0.0
C1355 C 0.14566 0.12807 0.95502 0.0
C1356 C 0.08916 0.13327 0.96591 0.0
C1357 C 0.03994 0.12345 0.97485 0.0
C1358 C 0.02907 0.12433 1.00318 0.0
C1359 C 0.9724 0.12433 0.96072 0.0
C1360 C 0.07827 0.11185 0.96783 0.0
C1361 C 0.13836 0.11476 0.95589 0.0
C1362 C 0.18415 0.10571 0.94866 0.0
C1363 C 0.16959 0.09341 0.95459 0.0
C1364 C 0.11011 0.09021 0.968 0.0
C1365 C 0.06286 0.09954 0.97401 0.0
H1366 H 0.9191 0.90211 0.72694 0.0
H1367 H 0.7062 0.90609 0.74574 0.0
H1368 H 0.69175 0.88346 0.74132 0.0
H1369 H 0.90272 0.87622 0.68292 0.0
H1370 H 0.98016 0.86927 0.69386 0.0
H1371 H 0.97022 0.88581 0.69461 0.0
H1372 H 0.99747 0.88576 0.74181 0.0
H1373 H 0.00674 0.86925 0.74133 0.0
H1374 H 0.94752 0.87632 0.76251 0.0
H1375 H 0.70435 0.86016 0.7388 0.0
H1376 H 0.74203 0.83847 0.73959 0.0
H1377 H 0.94832 0.85023 0.72455 0.0
C1378 C 0.86883 0.89835 0.72969 0.0
C1379 C 0.81363 0.90593 0.73669 0.0
C1380 C 0.74912 0.9005 0.74023 0.0
C1381 C 0.74051 0.88766 0.73774 0.0
C1382 C 0.79684 0.88045 0.73164 0.0
C1383 C 0.85966 0.88566 0.72758 0.0
C1384 C 0.91372 0.87596 0.72357 0.0
C1385 C 0.94344 0.87687 0.69717 0.0
C1386 C 0.96961 0.87688 0.7435 0.0
C1387 C 0.87205 0.86438 0.72673 0.0
C1388 C 0.80455 0.86714 0.73091 0.0
C1389 C 0.75692 0.85792 0.73532 0.0
C1390 C 0.77898 0.84561 0.73575 0.0
C1391 C 0.84835 0.84262 0.73219 0.0
C1392 C 0.89506 0.85218 0.72732 0.0
H1393 H 0.99829 0.89312 0.02875 0.0
H1394 H 0.81921 0.9059 0.06807 0.0
H1395 H 0.78004 0.88448 0.07241 0.0
H1396 H 0.91881 0.87061 0.99384 0.0
H1397 H 0.98577 0.85932 0.99544 0.0
H1398 H 0.00533 0.87549 0.99814 0.0
H1399 H 0.06429 0.87157 0.04051 0.0
H1400 H 0.04563 0.85533 0.03781 0.0
H1401 H 0.01871 0.86377 0.06499 0.0
H1402 H 0.75165 0.86226 0.06729 0.0
H1403 H 0.74161 0.84018 0.05642 0.0
H1404 H 0.94053 0.8414 0.02209 0.0
C1405 C 0.95191 0.89139 0.03893 0.0
C1406 C 0.9119 0.90124 0.04801 0.0
C1407 C 0.85079 0.89855 0.06083 0.0
C1408 C 0.82802 0.88639 0.06346 0.0
C1409 C 0.86721 0.87695 0.05346 0.0
C1410 C 0.92843 0.87925 0.04182 0.0
C1411 C 0.95856 0.86744 0.03146 0.0
C1412 C 0.96761 0.86827 1.00304 0.0
C1413 C 0.02578 0.86434 0.04448 0.0
C1414 C 0.90366 0.85827 0.0384 0.0
C1415 C 0.85151 0.86396 0.05112 0.0
C1416 C 0.79277 0.85763 0.05779 0.0
C1417 C 0.7873 0.84512 0.05139 0.0
C1418 C 0.84048 0.83906 0.03863 0.0
C1419 C 0.89957 0.84574 0.03227 0.0
H1420 H 0.2281 0.60422 0.79445 0.0
H1421 H 0.01953 0.5916 0.79805 0.0
H1422 H 0.98105 0.61297 0.804 0.0
H1423 H 0.20773 0.63044 0.84022 0.0
H1424 H 0.26412 0.64015 0.82252 0.0
H1425 H 0.27651 0.62366 0.82288 0.0
H1426 H 0.27148 0.62329 0.77464 0.0
H1427 H 0.25892 0.63971 0.77416 0.0
H1428 H 0.19869 0.62971 0.75902 0.0
H1429 H 0.96329 0.63585 0.80238 0.0
H1430 H 0.96956 0.65837 0.79479 0.0
H1431 H 0.18922 0.65594 0.79416 0.0
C1432 C 0.17459 0.60591 0.79726 0.0
C1433 C 0.12704 0.59622 0.79566 0.0
C1434 C 0.05717 0.59886 0.79903 0.0
C1435 C 0.03464 0.61098 0.80259 0.0
C1436 C 0.08252 0.62038 0.80314 0.0
C1437 C 0.15116 0.61798 0.80094 0.0
C1438 C 0.19154 0.62982 0.79982 0.0
C1439 C 0.23769 0.63109 0.82273 0.0
C1440 C 0.23251 0.63068 0.77546 0.0
C1441 C 0.13469 0.63919 0.80046 0.0
C1442 C 0.07219 0.63362 0.80272 0.0
C1443 C 0.01205 0.64038 0.8012 0.0
C1444 C 0.01602 0.65315 0.79682 0.0
C1445 C 0.07972 0.65897 0.79394 0.0
C1446 C 0.13952 0.65187 0.79651 0.0
H1447 H 0.22226 0.64862 0.49634 0.0
H1448 H 0.0906 0.65861 0.43504 0.0
H1449 H 0.05923 0.63678 0.42943 0.0
H1450 H 0.27351 0.61685 0.47123 0.0
H1451 H 0.27208 0.61046 0.50223 0.0
H1452 H 0.29584 0.62636 0.49752 0.0
H1453 H 0.20298 0.63293 0.52889 0.0
H1454 H 0.17703 0.61715 0.53299 0.0
H1455 H 0.11621 0.62857 0.5232 0.0
H1456 H 0.02233 0.61505 0.4367 0.0
H1457 H 0.0005 0.59362 0.45101 0.0
H1458 H 0.15849 0.59746 0.50646 0.0
C1459 C 0.19029 0.64607 0.48078 0.0
C1460 C 0.15973 0.6552 0.46583 0.0
C1461 C 0.11537 0.65167 0.44637 0.0
C1462 C 0.09681 0.63931 0.44318 0.0
C1463 C 0.1237 0.6306 0.45945 0.0
C1464 C 0.17115 0.63373 0.47738 0.0
C1465 C 0.18716 0.62279 0.49396 0.0
C1466 C 0.26157 0.61888 0.49104 0.0
C1467 C 0.16979 0.62553 0.52136 0.0
C1468 C 0.13962 0.61324 0.4831 0.0
C1469 C 0.10317 0.61793 0.4633 0.0
C1470 C 0.05178 0.61116 0.45177 0.0
C1471 C 0.03897 0.59911 0.46019 0.0
C1472 C 0.07787 0.59404 0.47972 0.0
C1473 C 0.12848 0.60119 0.49134 0.0
H1474 H 0.98356 0.35245 0.23834 0.0
H1475 H 0.79379 0.33724 0.21099 0.0
H1476 H 0.74724 0.35812 0.20707 0.0
H1477 H 0.91206 0.37609 0.27478 0.0
H1478 H 0.97532 0.38755 0.26762 0.0
H1479 H 0.9969 0.37141 0.26669 0.0
H1480 H 0.03793 0.37375 0.2211 0.0
H1481 H 0.01689 0.38994 0.22194 0.0
H1482 H 0.98151 0.38017 0.19809 0.0
H1483 H 0.71651 0.38021 0.20963 0.0
H1484 H 0.70677 0.40272 0.21569 0.0
H1485 H 0.91667 0.40406 0.23976 0.0
C1486 C 0.93267 0.35353 0.23115 0.0
C1487 C 0.89243 0.34314 0.22514 0.0
C1488 C 0.82577 0.34498 0.21593 0.0
C1489 C 0.79867 0.35684 0.21355 0.0
C1490 C 0.8389 0.36683 0.22018 0.0
C1491 C 0.90469 0.36536 0.2285 0.0
C1492 C 0.93598 0.37773 0.23502 0.0
C1493 C 0.95623 0.37822 0.26267 0.0
C1494 C 0.99667 0.38056 0.21802 0.0
C1495 C 0.8769 0.38627 0.22958 0.0
C1496 C 0.82147 0.37976 0.22105 0.0
C1497 C 0.75979 0.38547 0.21598 0.0
C1498 C 0.75463 0.39824 0.21962 0.0
C1499 C 0.81097 0.40514 0.22807 0.0
C1500 C 0.87295 0.39905 0.23297 0.0
H1501 H 0.92987 0.34447 0.52239 0.0
H1502 H 0.71152 0.34027 0.51652 0.0
H1503 H 0.69906 0.363 0.5181 0.0
H1504 H 0.93031 0.37101 0.56395 0.0
H1505 H 0.0024 0.37791 0.54877 0.0
H1506 H 0.99312 0.36137 0.54929 0.0
H1507 H 0.00146 0.36085 0.50113 0.0
H1508 H 0.01032 0.37738 0.50042 0.0
H1509 H 0.94375 0.37004 0.48286 0.0
H1510 H 0.71145 0.38606 0.51849 0.0
H1511 H 0.74622 0.40779 0.51651 0.0
H1512 H 0.95764 0.39677 0.52071 0.0
C1513 C 0.87911 0.34824 0.52173 0.0
C1514 C 0.8215 0.34054 0.5194 0.0
C1515 C 0.75631 0.34596 0.51837 0.0
C1516 C 0.74881 0.35885 0.51929 0.0
C1517 C 0.80695 0.36612 0.52123 0.0
C1518 C 0.8708 0.361 0.52244 0.0
C1519 C 0.92547 0.3708 0.52313 0.0
C1520 C 0.96515 0.37024 0.54775 0.0
C1521 C 0.97302 0.3697 0.50054 0.0
C1522 C 0.88248 0.38232 0.52166 0.0
C1523 C 0.81426 0.3794 0.5209 0.0
C1524 C 0.76465 0.38845 0.51917 0.0
C1525 C 0.78518 0.40079 0.51804 0.0
C1526 C 0.85494 0.40404 0.5184 0.0
C1527 C 0.90407 0.39463 0.52037 0.0
H1528 H 0.7418 0.10294 0.76418 0.0
H1529 H 0.56151 0.08786 0.79943 0.0
H1530 H 0.5129 0.10859 0.80227 0.0
H1531 H 0.74422 0.13189 0.80113 0.0
H1532 H 0.77265 0.14105 0.77514 0.0
H1533 H 0.79657 0.12502 0.77736 0.0
H1534 H 0.74623 0.12105 0.73351 0.0
H1535 H 0.72181 0.13702 0.73122 0.0
H1536 H 0.65916 0.12506 0.72741 0.0
H1537 H 0.47785 0.1304 0.79777 0.0
H1538 H 0.4632 0.15263 0.78907 0.0
H1539 H 0.66678 0.154 0.75849 0.0
C1540 C 0.69266 0.10403 0.77286 0.0
C1541 C 0.65554 0.0937 0.78136 0.0
C1542 C 0.59107 0.09555 0.79252 0.0
C1543 C 0.5628 0.10733 0.79433 0.0
C1544 C 0.59974 0.11724 0.78521 0.0
C1545 C 0.66361 0.1158 0.77502 0.0
C1546 C 0.69131 0.12807 0.76605 0.0
C1547 C 0.75496 0.13172 0.78081 0.0
C1548 C 0.70543 0.12778 0.73788 0.0
C1549 C 0.63221 0.13647 0.77218 0.0
C1550 C 0.57999 0.13003 0.78325 0.0
C1551 C 0.5187 0.13563 0.78943 0.0
C1552 C 0.51068 0.14822 0.78429 0.0
C1553 C 0.56386 0.15505 0.77323 0.0
C1554 C 0.62544 0.14906 0.76723 0.0
H1555 H 0.75837 0.14284 0.49354 0.0
H1556 H 0.59653 0.15636 0.44596 0.0
H1557 H 0.55075 0.13538 0.44252 0.0
H1558 H 0.77604 0.11199 0.4612 0.0
H1559 H 0.79278 0.10421 0.49022 0.0
H1560 H 0.81905 0.12001 0.48601 0.0
H1561 H 0.75248 0.12615 0.52571 0.0
H1562 H 0.72497 0.11045 0.5298 0.0
H1563 H 0.66331 0.12268 0.52769 0.0
H1564 H 0.51079 0.11406 0.45007 0.0
H1565 H 0.48875 0.09258 0.46342 0.0
H1566 H 0.67886 0.09239 0.504 0.0
C1567 C 0.71474 0.1413 0.48173 0.0
C1568 C 0.68079 0.15126 0.47024 0.0
C1569 C 0.62311 0.1489 0.45519 0.0
C1570 C 0.59668 0.137 0.45302 0.0
C1571 C 0.62913 0.12749 0.46561 0.0
C1572 C 0.68781 0.12941 0.47917 0.0
C1573 C 0.71014 0.11766 0.49204 0.0
C1574 C 0.77856 0.1132 0.48175 0.0
C1575 C 0.71284 0.11935 0.52049 0.0
C1576 C 0.65323 0.10907 0.48447 0.0
C1577 C 0.6071 0.11493 0.46919 0.0
C1578 C 0.5473 0.10924 0.46153 0.0
C1579 C 0.53485 0.09712 0.46939 0.0
C1580 C 0.58233 0.09086 0.48453 0.0
C1581 C 0.64225 0.09692 0.49207 0.0
H1582 H 0.41561 0.90308 0.23372 0.0
H1583 H 0.21576 0.90156 0.20007 0.0
H1584 H 0.22789 0.87901 0.19491 0.0
H1585 H 0.49462 0.8783 0.19622 0.0
H1586 H 0.54217 0.87251 0.22239 0.0
H1587 H 0.52156 0.8887 0.22049 0.0
H1588 H 0.46471 0.88755 0.26391 0.0
H1589 H 0.4848 0.87138 0.26592 0.0
H1590 H 0.39829 0.87643 0.26925 0.0
H1591 H 0.25727 0.85668 0.19658 0.0
H1592 H 0.29961 0.83587 0.20597 0.0
H1593 H 0.47984 0.8517 0.23969 0.0
C1594 C 0.37495 0.89807 0.22472 0.0
C1595 C 0.31486 0.90411 0.2171 0.0
C1596 C 0.26229 0.89715 0.20597 0.0
C1597 C 0.26886 0.88434 0.20287 0.0
C1598 C 0.32822 0.87866 0.21103 0.0
C1599 C 0.38039 0.88528 0.22172 0.0
C1600 C 0.43634 0.87683 0.23087 0.0
C1601 C 0.50259 0.87923 0.21664 0.0
C1602 C 0.44658 0.87813 0.25916 0.0
C1603 C 0.40669 0.86436 0.22421 0.0
C1604 C 0.34474 0.86567 0.21247 0.0
C1605 C 0.30593 0.85553 0.20556 0.0
C1606 C 0.33045 0.84373 0.21112 0.0
C1607 C 0.39312 0.84212 0.22367 0.0
C1608 C 0.43216 0.85261 0.22989 0.0
H1609 H 0.31123 0.90089 0.53507 0.0
H1610 H 0.525 0.90335 0.51637 0.0
H1611 H 0.53163 0.88053 0.51599 0.0
H1612 H 0.32044 0.87278 0.57362 0.0
H1613 H 0.24054 0.8672 0.56191 0.0
H1614 H 0.25568 0.88357 0.56432 0.0
H1615 H 0.2267 0.88606 0.51754 0.0
H1616 H 0.21254 0.86972 0.51481 0.0
H1617 H 0.27303 0.87723 0.49474 0.0
H1618 H 0.51216 0.85761 0.51438 0.0
H1619 H 0.46914 0.83632 0.51145 0.0
H1620 H 0.26628 0.8492 0.52869 0.0
C1621 C 0.36006 0.89671 0.5314 0.0
C1622 C 0.41779 0.90395 0.52581 0.0
C1623 C 0.48024 0.89801 0.52086 0.0
C1624 C 0.48443 0.88507 0.52059 0.0
C1625 C 0.42577 0.87827 0.52532 0.0
C1626 C 0.36488 0.8839 0.53075 0.0
C1627 C 0.30794 0.87462 0.53319 0.0
C1628 C 0.27949 0.87454 0.55985 0.0
C1629 C 0.25178 0.87706 0.51392 0.0
C1630 C 0.34583 0.86285 0.52753 0.0
C1631 C 0.41395 0.86513 0.52351 0.0
C1632 C 0.4591 0.85572 0.51768 0.0
C1633 C 0.43406 0.84366 0.51604 0.0
C1634 C 0.36427 0.84114 0.51982 0.0
C1635 C 0.31969 0.85088 0.52557 0.0
H1636 H 0.50638 0.64875 0.27284 0.0
H1637 H 0.66577 0.659 0.32422 0.0
H1638 H 0.69322 0.63704 0.3309 0.0
H1639 H 0.45789 0.61848 0.30512 0.0
H1640 H 0.44358 0.61117 0.27543 0.0
H1641 H 0.42694 0.62743 0.27919 0.0
H1642 H 0.50646 0.632 0.24195 0.0
H1643 H 0.52508 0.61586 0.23852 0.0
H1644 H 0.59306 0.62674 0.24299 0.0
H1645 H 0.71972 0.61451 0.32471 0.0
H1646 H 0.72985 0.59262 0.3113 0.0
H1647 H 0.55131 0.59714 0.26513 0.0
C1648 C 0.54419 0.64631 0.2866 0.0
C1649 C 0.58339 0.65549 0.29827 0.0
C1650 C 0.63475 0.65202 0.31533 0.0
C1651 C 0.65092 0.63958 0.31916 0.0
C1652 C 0.61459 0.63071 0.30603 0.0
C1653 C 0.56094 0.63388 0.29063 0.0
C1654 C 0.53455 0.6227 0.2768 0.0
C1655 C 0.4614 0.61977 0.28461 0.0
C1656 C 0.54017 0.62444 0.2484 0.0
C1657 C 0.58331 0.61294 0.28604 0.0
C1658 C 0.62916 0.61768 0.30289 0.0
C1659 C 0.6829 0.61059 0.31205 0.0
C1660 C 0.68882 0.59824 0.30417 0.0
C1661 C 0.64095 0.59318 0.28749 0.0
C1662 C 0.58787 0.60069 0.27836 0.0
H1663 H 0.6771 0.64464 0.96158 0.0
H1664 H 0.68368 0.65008 0.04149 0.0
H1665 H 0.63838 0.62902 0.04785 0.0
H1666 H 0.52745 0.62799 0.95819 0.0
H1667 H 0.55466 0.61715 0.93478 0.0
H1668 H 0.59214 0.63229 0.93614 0.0
H1669 H 0.71215 0.62279 0.94009 0.0
H1670 H 0.6753 0.60763 0.93776 0.0
H1671 H 0.72839 0.61146 0.96394 0.0
H1672 H 0.57782 0.60857 0.04511 0.0
H1673 H 0.53608 0.58773 0.03433 0.0
H1674 H 0.57869 0.59481 0.95643 0.0
C1675 C 0.67141 0.64118 0.9804 0.0
C1676 C 0.68474 0.64885 1.00109 0.0
C1677 C 0.67536 0.64419 0.02546 0.0
C1678 C 0.64857 0.63234 0.02922 0.0
C1679 C 0.63292 0.62521 0.00839 0.0
C1680 C 0.64653 0.62925 0.98449 0.0
C1681 C 0.62676 0.61962 0.96535 0.0
C1682 C 0.572 0.62457 0.94757 0.0
C1683 C 0.68938 0.6151 0.95094 0.0
C1684 C 0.59869 0.60964 0.98219 0.0
C1685 C 0.60126 0.61317 0.0069 0.0
C1686 C 0.57629 0.60565 0.02586 0.0
C1687 C 0.55156 0.59392 0.01952 0.0
C1688 C 0.55338 0.58977 0.99454 0.0
C1689 C 0.57584 0.59785 0.97562 0.0
H1690 H 0.2603 0.40049 0.75394 0.0
H1691 H 0.42292 0.41053 0.70334 0.0
H1692 H 0.45213 0.38866 0.69816 0.0
H1693 H 0.34332 0.37756 0.78504 0.0
H1694 H 0.27323 0.36698 0.78772 0.0
H1695 H 0.25755 0.38328 0.78503 0.0
H1696 H 0.18166 0.37962 0.74637 0.0
H1697 H 0.19569 0.36324 0.74928 0.0
H1698 H 0.21449 0.37096 0.72036 0.0
H1699 H 0.47742 0.3662 0.7044 0.0
H1700 H 0.48206 0.34397 0.71558 0.0
H1701 H 0.29907 0.3483 0.75937 0.0
C1702 C 0.30033 0.39807 0.74106 0.0
C1703 C 0.33957 0.40727 0.72929 0.0
C1704 C 0.39232 0.40368 0.7128 0.0
C1705 C 0.40952 0.39125 0.70971 0.0
C1706 C 0.3726 0.38246 0.72274 0.0
C1707 C 0.31774 0.38564 0.73746 0.0
C1708 C 0.28827 0.37436 0.75013 0.0
C1709 C 0.29079 0.37563 0.77866 0.0
C1710 C 0.21573 0.3719 0.74098 0.0
C1711 C 0.33678 0.36452 0.741 0.0
C1712 C 0.38531 0.36937 0.72531 0.0
C1713 C 0.43871 0.36221 0.71618 0.0
C1714 C 0.44148 0.34967 0.72279 0.0
C1715 C 0.39065 0.34448 0.73807 0.0
C1716 C 0.33798 0.35203 0.7473 0.0
H1717 H 0.48435 0.39133 0.02997 0.0
H1718 H 0.31642 0.40667 0.07193 0.0
H1719 H 0.27634 0.38572 0.0817 0.0
H1720 H 0.39346 0.3682 1.00168 0.0
H1721 H 0.45843 0.35652 1.00273 0.0
H1722 H 0.48155 0.37258 1.00244 0.0
H1723 H 0.54998 0.36967 0.04317 0.0
H1724 H 0.52765 0.35353 0.04347 0.0
H1725 H 0.50924 0.36308 0.07012 0.0
H1726 H 0.24408 0.3636 0.08156 0.0
H1727 H 0.22608 0.34138 0.07363 0.0
H1728 H 0.41534 0.34002 0.03255 0.0
C1729 C 0.44068 0.39024 0.04196 0.0
C1730 C 0.40374 0.40061 0.05031 0.0
C1731 C 0.34554 0.39884 0.06535 0.0
C1732 C 0.32241 0.38697 0.07108 0.0
C1733 C 0.35818 0.37693 0.06176 0.0
C1734 C 0.41657 0.37839 0.0478 0.0
C1735 C 0.44174 0.36604 0.03824 0.0
C1736 C 0.44387 0.36583 0.00958 0.0
C1737 C 0.51128 0.3629 0.04942 0.0
C1738 C 0.38709 0.35754 0.04826 0.0
C1739 C 0.3397 0.36401 0.06194 0.0
C1740 C 0.28158 0.35837 0.07134 0.0
C1741 C 0.27155 0.34577 0.06662 0.0
C1742 C 0.31951 0.33894 0.05269 0.0
C1743 C 0.37837 0.34493 0.04369 0.0
H1744 H 0.85771 0.05616 0.32586 0.0
H1745 H 0.05308 0.06569 0.35738 0.0
H1746 H 0.00253 0.06675 0.3992 0.0
H1747 H 0.75387 0.07531 0.36929 0.0
H1748 H 0.68774 0.06388 0.37124 0.0
H1749 H 0.73737 0.06527 0.34321 0.0
H1750 H 0.76887 0.0421 0.34626 0.0
H1751 H 0.72009 0.04067 0.37443 0.0
H1752 H 0.80824 0.03635 0.37425 0.0
H1753 H 0.9348 0.06486 0.43803 0.0
H1754 H 0.85077 0.06123 0.47143 0.0
H1755 H 0.69886 0.05282 0.41548 0.0
C1756 C 0.88907 0.05881 0.34152 0.0
C1757 C 0.95912 0.06091 0.33846 0.0
C1758 C -0.00079 0.06404 0.35941 0.0
C1759 C 0.97104 0.06468 0.38324 0.0
C1760 C 0.90246 0.06215 0.38592 0.0
C1761 C 0.86165 0.05939 0.36569 0.0
C1762 C 0.79031 0.05633 0.37419 0.0
C1763 C 0.73931 0.06576 0.36387 0.0
C1764 C 0.77077 0.04308 0.36684 0.0
C1765 C 0.79814 0.0576 0.40221 0.0
C1766 C 0.86317 0.06102 0.40856 0.0
C1767 C 0.88337 0.06231 0.43333 0.0
C1768 C 0.8355 0.06017 0.45218 0.0
C1769 C 0.76837 0.05677 0.44611 0.0
C1770 C 0.74975 0.05548 0.42076 0.0
H1771 H 0.28393 0.1884 0.33749 0.0
H1772 H 0.43407 0.17988 0.28104 0.0
H1773 H 0.52198 0.17851 0.31407 0.0
H1774 H 0.3843 0.20766 0.37415 0.0
H1775 H 0.35033 0.20248 0.4035 0.0
H1776 H 0.2991 0.20173 0.37584 0.0
H1777 H 0.28017 0.17831 0.38281 0.0
H1778 H 0.33099 0.17899 0.41065 0.0
H1779 H 0.3523 0.16825 0.38624 0.0
H1780 H 0.59385 0.18003 0.35288 0.0
H1781 H 0.64467 0.18313 0.39419 0.0
H1782 H 0.44583 0.19024 0.42556 0.0
C1783 C 0.3352 0.18612 0.33198 0.0
C1784 C 0.35245 0.1843 0.30664 0.0
C1785 C 0.41988 0.18126 0.30031 0.0
C1786 C 0.46993 0.1805 0.31895 0.0
C1787 C 0.45117 0.18263 0.34371 0.0
C1788 C 0.38517 0.18523 0.35024 0.0
C1789 C 0.37807 0.18752 0.37799 0.0
C1790 C 0.35139 0.20063 0.38316 0.0
C1791 C 0.3327 0.17768 0.39013 0.0
C1792 C 0.45096 0.18614 0.38616 0.0
C1793 C 0.49219 0.18327 0.36609 0.0
C1794 C 0.56191 0.18213 0.3687 0.0
C1795 C 0.59025 0.18399 0.3923 0.0
C1796 C 0.54916 0.18694 0.41318 0.0
C1797 C 0.47841 0.18789 0.41005 0.0
H1798 H 0.78498 0.20538 0.82042 0.0
H1799 H 0.75229 0.16668 0.80452 0.0
H1800 H 0.80637 0.16108 0.84467 0.0
H1801 H 0.95173 0.2014 0.85205 0.0
H1802 H 0.93341 0.2136 0.87384 0.0
H1803 H 0.89818 0.2141 0.84293 0.0
H1804 H 0.77833 0.21611 0.86219 0.0
H1805 H 0.81292 0.21515 0.89314 0.0
H1806 H 0.74848 0.2044 0.88339 0.0
H1807 H 0.85228 0.16008 0.88942 0.0
H1808 H 0.90652 0.16354 0.93063 0.0
H1809 H 0.91291 0.20282 0.91577 0.0
C1810 C 0.79215 0.19572 0.82493 0.0
C1811 C 0.76674 0.18642 0.80912 0.0
C1812 C 0.77389 0.17388 0.81605 0.0
C1813 C 0.80351 0.17065 0.83898 0.0
C1814 C 0.82594 0.18008 0.85466 0.0
C1815 C 0.82237 0.19235 0.84756 0.0
C1816 C 0.84922 0.20077 0.86778 0.0
C1817 C 0.91187 0.20788 0.8586 0.0
C1818 C 0.79392 0.20963 0.87717 0.0
C1819 C 0.86772 0.19137 0.88752 0.0
C1820 C 0.85306 0.17949 0.87987 0.0
C1821 C 0.86442 0.16935 0.89546 0.0
C1822 C 0.89421 0.17139 0.91897 0.0
C1823 C 0.91274 0.18345 0.92641 0.0
C1824 C 0.89828 0.19352 0.9106 0.0
H1825 H 0.27267 0.05127 0.91883 0.0
H1826 H 0.41075 0.06654 0.9737 0.0
H1827 H 0.49858 0.06865 0.94095 0.0
H1828 H 0.393 0.03357 0.88528 0.0
H1829 H 0.35554 0.03655 0.85526 0.0
H1830 H 0.3035 0.03664 0.88278 0.0
H1831 H 0.26274 0.05876 0.87219 0.0
H1832 H 0.3148 0.05877 0.84463 0.0
H1833 H 0.3243 0.07083 0.86747 0.0
H1834 H 0.57174 0.06819 0.90282 0.0
H1835 H 0.62656 0.06547 0.86212 0.0
H1836 H 0.43939 0.05091 0.83151 0.0
C1837 C 0.32134 0.05508 0.92406 0.0
C1838 C 0.33514 0.0587 0.94889 0.0
C1839 C 0.39926 0.0637 0.95483 0.0
C1840 C 0.44924 0.06494 0.93635 0.0
C1841 C 0.43381 0.06124 0.91208 0.0
C1842 C 0.37133 0.05646 0.90589 0.0
C1843 C 0.36773 0.05301 0.87853 0.0
C1844 C 0.35416 0.03912 0.87529 0.0
C1845 C 0.31421 0.06081 0.86491 0.0
C1846 C 0.4386 0.05641 0.87026 0.0
C1847 C 0.47566 0.06117 0.88994 0.0
C1848 C 0.5431 0.06456 0.88729 0.0
C1849 C 0.57377 0.06292 0.86405 0.0
C1850 C 0.53719 0.05796 0.84361 0.0
C1851 C 0.46835 0.05482 0.8467 0.0
H1852 H 0.26123 0.94004 0.60362 0.0
H1853 H 0.12463 0.91752 0.55957 0.0
H1854 H 0.06177 0.91199 0.59807 0.0
H1855 H 0.26468 0.92055 0.65942 0.0
H1856 H 0.26643 0.93367 0.68006 0.0
H1857 H 0.30414 0.93475 0.64957 0.0
H1858 H 0.22933 0.95377 0.63942 0.0
H1859 H 0.1923 0.95286 0.66994 0.0
H1860 H 0.13868 0.95262 0.64277 0.0
H1861 H 0.00927 0.91039 0.64105 0.0
H1862 H 0.96507 0.91441 0.68338 0.0
H1863 H 0.13673 0.93801 0.69888 0.0
C1864 C 0.21858 0.93381 0.60198 0.0
C1865 C 0.19791 0.92915 0.57856 0.0
C1866 C 0.14127 0.92119 0.5773 0.0
C1867 C 0.10574 0.91793 0.59909 0.0
C1868 C 0.1278 0.9227 0.62191 0.0
C1869 C 0.18276 0.93053 0.62338 0.0
C1870 C 0.19324 0.93529 0.64963 0.0
C1871 C 0.26116 0.93079 0.66029 0.0
C1872 C 0.18803 0.94947 0.65048 0.0
C1873 C 0.13425 0.92921 0.66276 0.0
C1874 C 0.09783 0.92178 0.64656 0.0
C1875 C 0.03814 0.91598 0.65394 0.0
C1876 C 0.01368 0.91824 0.67805 0.0
C1877 C 0.04883 0.92619 0.69447 0.0
C1878 C 0.11068 0.93148 0.68698 0.0
H1879 H 0.74938 0.79806 0.65988 0.0
H1880 H 0.60225 0.80825 0.71634 0.0
H1881 H 0.51429 0.81002 0.68361 0.0
H1882 H 0.69064 0.81828 0.61189 0.0
H1883 H 0.70534 0.80744 0.587 0.0
H1884 H 0.75657 0.80684 0.61473 0.0
H1885 H 0.72412 0.7839 0.6212 0.0
H1886 H 0.67328 0.78438 0.59337 0.0
H1887 H 0.63596 0.7796 0.62245 0.0
H1888 H 0.44448 0.81121 0.6451 0.0
H1889 H 0.39246 0.81032 0.60379 0.0
H1890 H 0.58434 0.79893 0.57149 0.0
C1891 C 0.69858 0.80063 0.66544 0.0
C1892 C 0.68251 0.80306 0.6907 0.0
C1893 C 0.61549 0.80632 0.69716 0.0
C1894 C 0.56545 0.8074 0.67868 0.0
C1895 C 0.5834 0.8051 0.65394 0.0
C1896 C 0.64813 0.80167 0.6473 0.0
C1897 C 0.65387 0.79953 0.6194 0.0
C1898 C 0.70461 0.80856 0.60756 0.0
C1899 C 0.67292 0.78605 0.61378 0.0
C1900 C 0.58201 0.80236 0.61127 0.0
C1901 C 0.54262 0.8056 0.63158 0.0
C1902 C 0.4747 0.80861 0.62912 0.0
C1903 C 0.44571 0.80806 0.60544 0.0
C1904 C 0.48418 0.80447 0.58427 0.0
C1905 C 0.5537 0.80174 0.58722 0.0
H1906 H 0.15833 0.80059 0.1902 0.0
H1907 H 0.35117 0.80698 0.15336 0.0
H1908 H 0.29377 0.80836 0.11309 0.0
H1909 H 0.08806 0.78148 0.14196 0.0
H1910 H 0.0033 0.78752 0.14457 0.0
H1911 H 0.05848 0.78753 0.17128 0.0
H1912 H 0.04115 0.81112 0.17621 0.0
H1913 H 0.98584 0.81116 0.14951 0.0
H1914 H 0.05872 0.82118 0.15025 0.0
H1915 H 0.21829 0.8086 0.0764 0.0
H1916 H 0.1266 0.80745 0.04521 0.0
H1917 H 0.98132 0.80074 0.10441 0.0
C1918 C 0.18816 0.80236 0.17366 0.0
C1919 C 0.25939 0.80363 0.17508 0.0
C1920 C 0.29666 0.80588 0.15292 0.0
C1921 C 0.26456 0.80673 0.12982 0.0
C1922 C 0.19478 0.80532 0.12893 0.0
C1923 C 0.15672 0.80318 0.15014 0.0
C1924 C 0.0824 0.80169 0.14347 0.0
C1925 C 0.05656 0.78879 0.15075 0.0
C1926 C 0.0395 0.8119 0.15558 0.0
C1927 C 0.08533 0.80322 0.11533 0.0
C1928 C 0.15071 0.80537 0.10742 0.0
C1929 C 0.16668 0.80695 0.08232 0.0
C1930 C 0.11433 0.80628 0.06472 0.0
C1931 C 0.04688 0.804 0.0723 0.0
C1932 C 0.0324 0.8025 0.098 0.0
H1933 H 0.65637 0.94113 0.07824 0.0
H1934 H 0.84661 0.93767 0.11821 0.0
H1935 H 0.78515 0.93649 0.15786 0.0
H1936 H 0.57609 0.96062 0.12337 0.0
H1937 H 0.49342 0.95377 0.11992 0.0
H1938 H 0.55191 0.95367 0.09419 0.0
H1939 H 0.54134 0.92987 0.0912 0.0
H1940 H 0.48278 0.92991 0.11694 0.0
H1941 H 0.55819 0.92055 0.11833 0.0
H1942 H 0.70381 0.93598 0.19377 0.0
H1943 H 0.60688 0.93699 0.22308 0.0
H1944 H 0.47009 0.94136 0.16041 0.0
C1945 C 0.68486 0.94003 0.09532 0.0
C1946 C 0.75635 0.9395 0.09501 0.0
C1947 C 0.79183 0.93816 0.11786 0.0
C1948 C 0.75741 0.93743 0.14059 0.0
C1949 C 0.68718 0.9381 0.14037 0.0
C1950 C 0.65114 0.93941 0.1184 0.0
C1951 C 0.5759 0.94037 0.12366 0.0
C1952 C 0.54769 0.95285 0.11476 0.0
C1953 C 0.53729 0.92953 0.11183 0.0
C1954 C 0.57574 0.93948 0.15189 0.0
C1955 C 0.64035 0.93806 0.16118 0.0
C1956 C 0.65281 0.93709 0.18673 0.0
C1957 C 0.5976 0.93766 0.20326 0.0
C1958 C 0.53106 0.9393 0.19412 0.0
C1959 C 0.5204 0.94015 0.16807 0.0
H1960 H 0.99734 0.55069 0.84528 0.0
H1961 H 0.87041 0.56825 0.78961 0.0
H1962 H 0.78312 0.57212 0.82207 0.0
H1963 H 0.86383 0.53604 0.8801 0.0
H1964 H 0.9058 0.53845 0.9095 0.0
H1965 H 0.95498 0.53675 0.88149 0.0
H1966 H 0.01356 0.55769 0.89058 0.0
H1967 H 0.96349 0.55959 0.91834 0.0
H1968 H 0.96261 0.57136 0.8946 0.0
H1969 H 0.71014 0.57378 0.86125 0.0
H1970 H 0.65567 0.5723 0.90267 0.0
H1971 H 0.83567 0.5549 0.93251 0.0
C1972 C 0.951 0.55528 0.83971 0.0
C1973 C 0.94051 0.55915 0.81484 0.0
C1974 C 0.87914 0.5651 0.80847 0.0
C1975 C 0.8297 0.56741 0.82684 0.0
C1976 C 0.84287 0.56375 0.85136 0.0
C1977 C 0.90196 0.55773 0.85769 0.0
C1978 C 0.90473 0.55471 0.8852 0.0
C1979 C 0.90747 0.54066 0.8893 0.0
C1980 C 0.96466 0.56123 0.89792 0.0
C1981 C 0.83786 0.56003 0.89364 0.0
C1982 C 0.80265 0.56515 0.87385 0.0
C1983 C 0.73768 0.56994 0.87685 0.0
C1984 C 0.70734 0.56912 0.90043 0.0
C1985 C 0.74233 0.56377 0.92077 0.0
C1986 C 0.8089 0.55942 0.91744 0.0
H1987 H 0.25742 0.68817 0.84897 0.0
H1988 H 0.40126 0.67783 0.79156 0.0
H1989 H 0.48409 0.672 0.82428 0.0
H1990 H 0.37141 0.70186 0.88975 0.0
H1991 H 0.33061 0.69638 0.91767 0.0
H1992 H 0.28183 0.69863 0.88977 0.0
H1993 H 0.24098 0.6759 0.89195 0.0
H1994 H 0.2901 0.67355 0.91985 0.0
H1995 H 0.30247 0.66362 0.89332 0.0
H1996 H 0.55455 0.66973 0.86317 0.0
H1997 H 0.60695 0.67089 0.90488 0.0
H1998 H 0.41404 0.68156 0.93675 0.0
C1999 C 0.30618 0.6846 0.8432 0.0
C2000 C 0.32336 0.68354 0.81775 0.0
C2001 C 0.38733 0.67873 0.81098 0.0
C2002 C 0.43441 0.67536 0.82942 0.0
C2003 C 0.4159 0.67664 0.8544 0.0
C2004 C 0.35301 0.68105 0.86125 0.0
C2005 C 0.34628 0.68212 0.88925 0.0
C2006 C 0.33171 0.69554 0.89705 0.0
C2007 C 0.29172 0.67327 0.89917 0.0
C2008 C 0.41627 0.67807 0.89719 0.0
C2009 C 0.45554 0.67486 0.87682 0.0
C2010 C 0.5239 0.67196 0.87926 0.0
C2011 C 0.55319 0.67265 0.90298 0.0
C2012 C 0.51405 0.67611 0.92395 0.0
C2013 C 0.44441 0.67853 0.92111 0.0
H2014 H 0.95253 0.70022 0.41848 0.0
H2015 H 0.91293 0.66299 0.4442 0.0
H2016 H 0.87051 0.65745 0.40201 0.0
H2017 H 0.80746 0.70317 0.37835 0.0
H2018 H 0.85393 0.71217 0.35586 0.0
H2019 H 0.87755 0.71266 0.38817 0.0
H2020 H -0.00013 0.70639 0.37566 0.0
H2021 H 0.9756 0.70535 0.3434 0.0
H2022 H 0.0135 0.69225 0.3587 0.0
H2023 H 0.83611 0.6562 0.35568 0.0
H2024 H 0.79321 0.66038 0.31308 0.0
H2025 H 0.85861 0.69836 0.31925 0.0
C2026 C 0.9336 0.69095 0.41539 0.0
C2027 C 0.93514 0.68205 0.43451 0.0
C2028 C 0.91065 0.67 0.42983 0.0
C2029 C 0.88773 0.66674 0.40585 0.0
C2030 C 0.88994 0.67566 0.38703 0.0
C2031 C 0.91102 0.68759 0.39182 0.0
C2032 C 0.90753 0.69565 0.36895 0.0
C2033 C 0.85868 0.70655 0.37308 0.0
C2034 C 0.97835 0.70017 0.36123 0.0
C2035 C 0.87993 0.6865 0.35039 0.0
C2036 C 0.87125 0.67493 0.36088 0.0
C2037 C 0.84335 0.66519 0.3473 0.0
C2038 C 0.82017 0.66757 0.32299 0.0
C2039 C 0.82448 0.6796 0.31286 0.0
C2040 C 0.857 0.689 0.32637 0.0
H2041 H 0.48989 0.55851 0.34395 0.0
H2042 H 0.33363 0.56929 0.29142 0.0
H2043 H 0.25277 0.57167 0.32653 0.0
H2044 H 0.38854 0.54048 0.38287 0.0
H2045 H 0.42999 0.54504 0.41132 0.0
H2046 H 0.47607 0.54522 0.38242 0.0
H2047 H 0.50591 0.56827 0.38922 0.0
H2048 H 0.45991 0.56817 0.41821 0.0
H2049 H 0.43893 0.57928 0.39443 0.0
H2050 H 0.18788 0.57106 0.36689 0.0
H2051 H 0.14264 0.56787 0.40908 0.0
H2052 H 0.34288 0.5579 0.43559 0.0
C2053 C 0.43879 0.56148 0.33972 0.0
C2054 C 0.4178 0.56367 0.31488 0.0
C2055 C 0.35067 0.56758 0.31027 0.0
C2056 C 0.30463 0.56896 0.3301 0.0
C2057 C 0.32705 0.56655 0.35433 0.0
C2058 C 0.39275 0.56298 0.35919 0.0
C2059 C 0.40382 0.56046 0.38668 0.0
C2060 C 0.42588 0.547 0.39107 0.0
C2061 C 0.45519 0.56959 0.39779 0.0
C2062 C 0.33332 0.56281 0.39664 0.0
C2063 C 0.29003 0.5664 0.37765 0.0
C2064 C 0.2215 0.5684 0.38188 0.0
C2065 C 0.19633 0.56651 0.40593 0.0
C2066 C 0.23938 0.56266 0.42563 0.0
C2067 C 0.3091 0.56102 0.421 0.0
H2068 H 0.0888 0.44493 0.18945 0.0
H2069 H 0.91304 0.42681 0.15756 0.0
H2070 H 0.97368 0.42406 0.11801 0.0
H2071 H 0.13329 0.46173 0.13612 0.0
H2072 H 0.22371 0.46009 0.13941 0.0
H2073 H 0.17016 0.45954 0.16652 0.0
H2074 H 0.21923 0.43815 0.17838 0.0
H2075 H 0.27377 0.43873 0.15149 0.0
H2076 H 0.21754 0.4258 0.15588 0.0
H2077 H 0.04746 0.42501 0.08065 0.0
H2078 H 0.13588 0.42801 0.0486 0.0
H2079 H 0.26513 0.44532 0.10391 0.0
C2080 C 0.06411 0.44007 0.17435 0.0
C2081 C 0.99631 0.43606 0.17658 0.0
C2082 C 0.96496 0.42998 0.15623 0.0
C2083 C -0.00108 0.42837 0.13364 0.0
C2084 C 0.06459 0.43283 0.13159 0.0
C2085 C 0.09749 0.4384 0.15141 0.0
C2086 C 0.16729 0.4428 0.14359 0.0
C2087 C 0.17396 0.45688 0.14659 0.0
C2088 C 0.22274 0.43596 0.1582 0.0
C2089 C 0.16739 0.43908 0.11631 0.0
C2090 C 0.10767 0.43332 0.10982 0.0
C2091 C 0.0949 0.42939 0.08552 0.0
C2092 C 0.14515 0.4312 0.0674 0.0
C2093 C 0.20732 0.43688 0.07371 0.0
C2094 C 0.21816 0.44091 0.09849 0.0
H2095 H 0.65861 0.30091 0.1891 0.0
H2096 H 0.84445 0.30842 0.14853 0.0
H2097 H 0.78113 0.30916 0.10932 0.0
H2098 H 0.58555 0.28107 0.14298 0.0
H2099 H 0.50016 0.28658 0.14719 0.0
H2100 H 0.55926 0.28715 0.1727 0.0
H2101 H 0.53815 0.31065 0.17736 0.0
H2102 H 0.47878 0.31013 0.15191 0.0
H2103 H 0.54958 0.32062 0.1508 0.0
H2104 H 0.69904 0.30864 0.0738 0.0
H2105 H 0.60173 0.3069 0.04483 0.0
H2106 H 0.46942 0.29951 0.10768 0.0
C2107 C 0.68569 0.30281 0.172 0.0
C2108 C 0.75664 0.30457 0.17205 0.0
C2109 C 0.79021 0.30696 0.14914 0.0
C2110 C 0.7547 0.30743 0.12663 0.0
C2111 C 0.68522 0.3055 0.12708 0.0
C2112 C 0.65084 0.30326 0.1491 0.0
C2113 C 0.57609 0.30124 0.14406 0.0
C2114 C 0.55399 0.28823 0.15221 0.0
C2115 C 0.53312 0.31126 0.15679 0.0
C2116 C 0.57443 0.30258 0.1159 0.0
C2117 C 0.63785 0.3051 0.10646 0.0
C2118 C 0.64894 0.30668 0.08095 0.0
C2119 C 0.59352 0.30566 0.06461 0.0
C2120 C 0.52807 0.30303 0.07388 0.0
C2121 C 0.51885 0.30149 0.0999 0.0
H2122 H 0.1291 0.30863 0.56957 0.0
H2123 H 0.94679 0.32915 0.58662 0.0
H2124 H 0.98771 0.33272 0.62946 0.0
H2125 H 0.13579 0.29275 0.6242 0.0
H2126 H 0.22647 0.29286 0.62809 0.0
H2127 H 0.19047 0.294 0.59742 0.0
H2128 H 0.25535 0.31442 0.58953 0.0
H2129 H 0.29294 0.3132 0.62002 0.0
H2130 H 0.24725 0.32696 0.6114 0.0
H2131 H 0.03967 0.33114 0.6723 0.0
H2132 H 0.10461 0.32611 0.71057 0.0
H2133 H 0.25217 0.30653 0.66554 0.0
C2134 C 0.09976 0.31441 0.58199 0.0
C2135 C 0.03576 0.31891 0.57473 0.0
C2136 C 0.99674 0.32589 0.5918 0.0
C2137 C 0.01938 0.3279 0.6162 0.0
C2138 C 0.08127 0.32285 0.62329 0.0
C2139 C 0.12157 0.31644 0.60657 0.0
C2140 C 0.18274 0.31097 0.61955 0.0
C2141 C 0.18387 0.29681 0.61717 0.0
C2142 C 0.24846 0.31674 0.60953 0.0
C2143 C 0.16924 0.31495 0.64616 0.0
C2144 C 0.11081 0.32187 0.648 0.0
C2145 C 0.08626 0.32591 0.67103 0.0
C2146 C 0.12307 0.32295 0.69269 0.0
C2147 C 0.18351 0.31598 0.69109 0.0
C2148 C 0.20646 0.31198 0.66745 0.0
H2149 H 0.60988 0.43916 0.68815 0.0
H2150 H 0.40573 0.44426 0.65985 0.0
H2151 H 0.4478 0.44286 0.61697 0.0
H2152 H 0.69022 0.45766 0.64234 0.0
H2153 H 0.76439 0.44806 0.63953 0.0
H2154 H 0.71784 0.4484 0.66833 0.0
H2155 H 0.70367 0.42462 0.6665 0.0
H2156 H 0.75017 0.42422 0.63764 0.0
H2157 H 0.66645 0.41764 0.63928 0.0
H2158 H 0.51159 0.44195 0.57681 0.0
H2159 H 0.59527 0.44227 0.54238 0.0
H2160 H 0.75748 0.43808 0.59632 0.0
C2161 C 0.57415 0.43983 0.67291 0.0
C2162 C 0.50462 0.44183 0.67742 0.0
C2163 C 0.45942 0.44279 0.65694 0.0
C2164 C 0.48264 0.44194 0.63242 0.0
C2165 C 0.5514 0.44014 0.6285 0.0
C2166 C 0.59665 0.4391 0.64811 0.0
C2167 C 0.66848 0.43788 0.63855 0.0
C2168 C 0.71282 0.44864 0.64773 0.0
C2169 C 0.69897 0.42534 0.64593 0.0
C2170 C 0.65628 0.43862 0.61069 0.0
C2171 C 0.58836 0.43978 0.60524 0.0
C2172 C 0.56505 0.44097 0.58079 0.0
C2173 C 0.61275 0.44113 0.56136 0.0
C2174 C 0.68269 0.44022 0.56664 0.0
C2175 C 0.70428 0.4388 0.59163 0.0
loop_
_geom_bond_atom_site_label_1
_geom_bond_atom_site_label_2
_geom_bond_distance
_geom_bond_site_symmetry_2
_ccdc_geom_bond_type
Co0 O1 2.216 . S
Co0 O2 2.091 1_455 S
Co0 O4 2.004 . S
Co0 O10 2.021 . S
Co0 O12 2.137 . S
Co0 O13 2.244 . S
O1 Co0 2.216 . S
O1 C8 1.247 1_455 S
O2 Co0 2.091 1_655 S
O2 C8 1.261 . S
C3 O12 1.247 . S
C3 O13 1.272 . S
O4 Co0 2.004 . S
O4 C9 1.259 . S
Co5 O6 2.061 . S
Co5 O11 2.052 . S
Co5 O13 2.135 . S
O6 Co5 2.061 . S
O6 C9 1.235 . S
C7 O10 1.238 . S
C7 O11 1.241 . S
C8 O1 1.247 1_655 S
C8 O2 1.261 . S
C9 O4 1.259 . S
C9 O6 1.235 . S
O10 Co0 2.021 . S
O10 C7 1.238 . S
O11 Co5 2.052 . S
O11 C7 1.241 . S
O12 Co0 2.137 . S
O12 C3 1.247 . S
O13 Co0 2.244 . S
O13 C3 1.272 . S
O13 Co5 2.135 . S
Co14 O15 2.216 . S
Co14 O16 2.091 . S
Co14 O18 2.004 . S
Co14 O24 2.021 . S
Co14 O26 2.137 . S
Co14 O27 2.244 . S
O15 Co14 2.216 . S
O15 C22 1.247 . S
O16 Co14 2.091 . S
O16 C22 1.261 . S
C17 O26 1.247 . S
C17 O27 1.272 . S
O18 Co14 2.004 . S
O18 C23 1.259 . S
Co19 O20 2.061 . S
Co19 O25 2.052 . S
Co19 O27 2.135 . S
O20 Co19 2.061 . S
O20 C23 1.235 . S
C21 O24 1.238 . S
C21 O25 1.241 . S
C22 O15 1.247 . S
C22 O16 1.261 . S
C23 O18 1.259 . S
C23 O20 1.235 . S
O24 Co14 2.021 . S
O24 C21 1.238 . S
O25 Co19 2.052 . S
O25 C21 1.241 . S
O26 Co14 2.137 . S
O26 C17 1.247 . S
O27 Co14 2.244 . S
O27 C17 1.272 . S
O27 Co19 2.135 . S
Co28 O29 2.216 . S
Co28 O30 2.091 1_455 S
Co28 O32 2.004 1_556 S
Co28 O38 2.021 . S
Co28 O40 2.137 . S
Co28 O41 2.244 . S
O29 Co28 2.216 . S
O29 C36 1.247 1_455 S
O30 Co28 2.091 1_655 S
O30 C36 1.261 . S
C31 O40 1.247 . S
C31 O41 1.272 . S
O32 Co28 2.004 1_554 S
O32 C37 1.259 . S
Co33 O34 2.061 . S
Co33 O39 2.052 1_554 S
Co33 O41 2.135 1_554 S
O34 Co33 2.061 . S
O34 C37 1.235 . S
C35 O38 1.238 . S
C35 O39 1.241 . S
C36 O29 1.247 1_655 S
C36 O30 1.261 . S
C37 O32 1.259 . S
C37 O34 1.235 . S
O38 Co28 2.021 . S
O38 C35 1.238 . S
O39 Co33 2.052 1_556 S
O39 C35 1.241 . S
O40 Co28 2.137 . S
O40 C31 1.247 . S
O41 Co28 2.244 . S
O41 C31 1.272 . S
O41 Co33 2.135 1_556 S
Co42 O43 2.216 . S
Co42 O44 2.091 . S
Co42 O46 2.004 1_556 S
Co42 O52 2.021 . S
Co42 O54 2.137 . S
Co42 O55 2.244 . S
O43 Co42 2.216 . S
O43 C50 1.247 . S
O44 Co42 2.091 . S
O44 C50 1.261 . S
C45 O54 1.247 . S
C45 O55 1.272 . S
O46 Co42 2.004 1_554 S
O46 C51 1.259 . S
Co47 O48 2.061 . S
Co47 O53 2.052 1_554 S
Co47 O55 2.135 1_554 S
O48 Co47 2.061 . S
O48 C51 1.235 . S
C49 O52 1.238 . S
C49 O53 1.241 . S
C50 O43 1.247 . S
C50 O44 1.261 . S
C51 O46 1.259 . S
C51 O48 1.235 . S
O52 Co42 2.021 . S
O52 C49 1.238 . S
O53 Co47 2.052 1_556 S
O53 C49 1.241 . S
O54 Co42 2.137 . S
O54 C45 1.247 . S
O55 Co42 2.244 . S
O55 C45 1.272 . S
O55 Co47 2.135 1_556 S
Co56 O57 2.216 . S
Co56 O58 2.091 1_655 S
Co56 O60 2.004 . S
Co56 O66 2.021 . S
Co56 O68 2.137 . S
Co56 O69 2.244 . S
O57 Co56 2.216 . S
O57 C64 1.247 1_655 S
O58 Co56 2.091 1_455 S
O58 C64 1.261 . S
C59 O68 1.247 . S
C59 O69 1.272 . S
O60 Co56 2.004 . S
O60 C65 1.259 . S
Co61 O62 2.061 . S
Co61 O67 2.052 . S
Co61 O69 2.135 . S
O62 Co61 2.061 . S
O62 C65 1.235 . S
C63 O66 1.238 . S
C63 O67 1.241 . S
C64 O57 1.247 1_455 S
C64 O58 1.261 . S
C65 O60 1.259 . S
C65 O62 1.235 . S
O66 Co56 2.021 . S
O66 C63 1.238 . S
O67 Co61 2.052 . S
O67 C63 1.241 . S
O68 Co56 2.137 . S
O68 C59 1.247 . S
O69 Co56 2.244 . S
O69 C59 1.272 . S
O69 Co61 2.135 . S
Co70 O71 2.216 . S
Co70 O72 2.091 . S
Co70 O74 2.004 . S
Co70 O80 2.021 . S
Co70 O82 2.137 . S
Co70 O83 2.244 . S
O71 Co70 2.216 . S
O71 C78 1.247 . S
O72 Co70 2.091 . S
O72 C78 1.261 . S
C73 O82 1.247 . S
C73 O83 1.272 . S
O74 Co70 2.004 . S
O74 C79 1.259 . S
Co75 O76 2.061 . S
Co75 O81 2.052 . S
Co75 O83 2.135 . S
O76 Co75 2.061 . S
O76 C79 1.235 . S
C77 O80 1.238 . S
C77 O81 1.241 . S
C78 O71 1.247 . S
C78 O72 1.261 . S
C79 O74 1.259 . S
C79 O76 1.235 . S
O80 Co70 2.021 . S
O80 C77 1.238 . S
O81 Co75 2.052 . S
O81 C77 1.241 . S
O82 Co70 2.137 . S
O82 C73 1.247 . S
O83 Co70 2.244 . S
O83 C73 1.272 . S
O83 Co75 2.135 . S
Co84 O85 2.216 . S
Co84 O86 2.091 1_655 S
Co84 O88 2.004 1_554 S
Co84 O94 2.021 . S
Co84 O96 2.137 . S
Co84 O97 2.244 . S
O85 Co84 2.216 . S
O85 C92 1.247 1_655 S
O86 Co84 2.091 1_455 S
O86 C92 1.261 . S
C87 O96 1.247 . S
C87 O97 1.272 . S
O88 Co84 2.004 1_556 S
O88 C93 1.259 . S
Co89 O90 2.061 . S
Co89 O95 2.052 1_556 S
Co89 O97 2.135 1_556 S
O90 Co89 2.061 . S
O90 C93 1.235 . S
C91 O94 1.238 . S
C91 O95 1.241 . S
C92 O85 1.247 1_455 S
C92 O86 1.261 . S
C93 O88 1.259 . S
C93 O90 1.235 . S
O94 Co84 2.021 . S
O94 C91 1.238 . S
O95 Co89 2.052 1_554 S
O95 C91 1.241 . S
O96 Co84 2.137 . S
O96 C87 1.247 . S
O97 Co84 2.244 . S
O97 C87 1.272 . S
O97 Co89 2.135 1_554 S
Co98 O99 2.216 . S
Co98 O100 2.091 . S
Co98 O102 2.004 1_554 S
Co98 O108 2.021 . S
Co98 O110 2.137 . S
Co98 O111 2.244 . S
O99 Co98 2.216 . S
O99 C106 1.247 . S
O100 Co98 2.091 . S
O100 C106 1.261 . S
C101 O110 1.247 . S
C101 O111 1.272 . S
O102 Co98 2.004 1_556 S
O102 C107 1.259 . S
Co103 O104 2.061 . S
Co103 O109 2.052 1_556 S
Co103 O111 2.135 1_556 S
O104 Co103 2.061 . S
O104 C107 1.235 . S
C105 O108 1.238 . S
C105 O109 1.241 . S
C106 O99 1.247 . S
C106 O100 1.261 . S
C107 O102 1.259 . S
C107 O104 1.235 . S
O108 Co98 2.021 . S
O108 C105 1.238 . S
O109 Co103 2.052 1_554 S
O109 C105 1.241 . S
O110 Co98 2.137 . S
O110 C101 1.247 . S
O111 Co98 2.244 . S
O111 C101 1.272 . S
O111 Co103 2.135 1_554 S
Co112 O113 2.216 . S
Co112 O114 2.091 1_455 S
Co112 O116 2.004 . S
Co112 O122 2.021 . S
Co112 O124 2.137 . S
Co112 O125 2.244 . S
O113 Co112 2.216 . S
O113 C120 1.247 1_455 S
O114 Co112 2.091 1_655 S
O114 C120 1.261 . S
C115 O124 1.247 . S
C115 O125 1.272 . S
O116 Co112 2.004 . S
O116 C121 1.259 . S
Co117 O118 2.061 . S
Co117 O123 2.052 . S
Co117 O125 2.135 . S
O118 Co117 2.061 . S
O118 C121 1.235 . S
C119 O122 1.238 . S
C119 O123 1.241 . S
C120 O113 1.247 1_655 S
C120 O114 1.261 . S
C121 O116 1.259 . S
C121 O118 1.235 . S
O122 Co112 2.021 . S
O122 C119 1.238 . S
O123 Co117 2.052 . S
O123 C119 1.241 . S
O124 Co112 2.137 . S
O124 C115 1.247 . S
O125 Co112 2.244 . S
O125 C115 1.272 . S
O125 Co117 2.135 . S
Co126 O127 2.216 . S
Co126 O128 2.091 . S
Co126 O130 2.004 . S
Co126 O136 2.021 . S
Co126 O138 2.137 . S
Co126 O139 2.244 . S
O127 Co126 2.216 . S
O127 C134 1.247 . S
O128 Co126 2.091 . S
O128 C134 1.261 . S
C129 O138 1.247 . S
C129 O139 1.272 . S
O130 Co126 2.004 . S
O130 C135 1.259 . S
Co131 O132 2.061 . S
Co131 O137 2.052 . S
Co131 O139 2.135 . S
O132 Co131 2.061 . S
O132 C135 1.235 . S
C133 O136 1.238 . S
C133 O137 1.241 . S
C134 O127 1.247 . S
C134 O128 1.261 . S
C135 O130 1.259 . S
C135 O132 1.235 . S
O136 Co126 2.021 . S
O136 C133 1.238 . S
O137 Co131 2.052 . S
O137 C133 1.241 . S
O138 Co126 2.137 . S
O138 C129 1.247 . S
O139 Co126 2.244 . S
O139 C129 1.272 . S
O139 Co131 2.135 . S
Co140 O141 2.216 . S
Co140 O142 2.091 1_455 S
Co140 O144 2.004 . S
Co140 O150 2.021 . S
Co140 O152 2.137 . S
Co140 O153 2.244 . S
O141 Co140 2.216 . S
O141 C148 1.247 1_455 S
O142 Co140 2.091 1_655 S
O142 C148 1.261 . S
C143 O152 1.247 . S
C143 O153 1.272 . S
O144 Co140 2.004 . S
O144 C149 1.259 . S
Co145 O146 2.061 . S
Co145 O151 2.052 . S
Co145 O153 2.135 . S
O146 Co145 2.061 . S
O146 C149 1.235 . S
C147 O150 1.238 . S
C147 O151 1.241 . S
C148 O141 1.247 1_655 S
C148 O142 1.261 . S
C149 O144 1.259 . S
C149 O146 1.235 . S
O150 Co140 2.021 . S
O150 C147 1.238 . S
O151 Co145 2.052 . S
O151 C147 1.241 . S
O152 Co140 2.137 . S
O152 C143 1.247 . S
O153 Co140 2.244 . S
O153 C143 1.272 . S
O153 Co145 2.135 . S
Co154 O155 2.216 . S
Co154 O156 2.091 . S
Co154 O158 2.004 . S
Co154 O164 2.021 . S
Co154 O166 2.137 . S
Co154 O167 2.244 . S
O155 Co154 2.216 . S
O155 C162 1.247 . S
O156 Co154 2.091 . S
O156 C162 1.261 . S
C157 O166 1.247 . S
C157 O167 1.272 . S
O158 Co154 2.004 . S
O158 C163 1.259 . S
Co159 O160 2.061 . S
Co159 O165 2.052 . S
Co159 O167 2.135 . S
O160 Co159 2.061 . S
O160 C163 1.235 . S
C161 O164 1.238 . S
C161 O165 1.241 . S
C162 O155 1.247 . S
C162 O156 1.261 . S
C163 O158 1.259 . S
C163 O160 1.235 . S
O164 Co154 2.021 . S
O164 C161 1.238 . S
O165 Co159 2.052 . S
O165 C161 1.241 . S
O166 Co154 2.137 . S
O166 C157 1.247 . S
O167 Co154 2.244 . S
O167 C157 1.272 . S
O167 Co159 2.135 . S
Co168 O169 2.216 . S
Co168 O170 2.091 1_655 S
Co168 O172 2.004 . S
Co168 O178 2.021 . S
Co168 O180 2.137 . S
Co168 O181 2.244 . S
O169 Co168 2.216 . S
O169 C176 1.247 1_655 S
O170 Co168 2.091 1_455 S
O170 C176 1.261 . S
C171 O180 1.247 . S
C171 O181 1.272 . S
O172 Co168 2.004 . S
O172 C177 1.259 . S
Co173 O174 2.061 . S
Co173 O179 2.052 . S
Co173 O181 2.135 . S
O174 Co173 2.061 . S
O174 C177 1.235 . S
C175 O178 1.238 . S
C175 O179 1.241 . S
C176 O169 1.247 1_455 S
C176 O170 1.261 . S
C177 O172 1.259 . S
C177 O174 1.235 . S
O178 Co168 2.021 . S
O178 C175 1.238 . S
O179 Co173 2.052 . S
O179 C175 1.241 . S
O180 Co168 2.137 . S
O180 C171 1.247 . S
O181 Co168 2.244 . S
O181 C171 1.272 . S
O181 Co173 2.135 . S
Co182 O183 2.216 . S
Co182 O184 2.091 . S
Co182 O186 2.004 . S
Co182 O192 2.021 . S
Co182 O194 2.137 . S
Co182 O195 2.244 . S
O183 Co182 2.216 . S
O183 C190 1.247 . S
O184 Co182 2.091 . S
O184 C190 1.261 . S
C185 O194 1.247 . S
C185 O195 1.272 . S
O186 Co182 2.004 . S
O186 C191 1.259 . S
Co187 O188 2.061 . S
Co187 O193 2.052 . S
Co187 O195 2.135 . S
O188 Co187 2.061 . S
O188 C191 1.235 . S
C189 O192 1.238 . S
C189 O193 1.241 . S
C190 O183 1.247 . S
C190 O184 1.261 . S
C191 O186 1.259 . S
C191 O188 1.235 . S
O192 Co182 2.021 . S
O192 C189 1.238 . S
O193 Co187 2.052 . S
O193 C189 1.241 . S
O194 Co182 2.137 . S
O194 C185 1.247 . S
O195 Co182 2.244 . S
O195 C185 1.272 . S
O195 Co187 2.135 . S
Co196 O197 2.216 . S
Co196 O198 2.091 1_655 S
Co196 O200 2.004 . S
Co196 O206 2.021 . S
Co196 O208 2.137 . S
Co196 O209 2.244 . S
O197 Co196 2.216 . S
O197 C204 1.247 1_655 S
O198 Co196 2.091 1_455 S
O198 C204 1.261 . S
C199 O208 1.247 . S
C199 O209 1.272 . S
O200 Co196 2.004 . S
O200 C205 1.259 . S
Co201 O202 2.061 . S
Co201 O207 2.052 . S
Co201 O209 2.135 . S
O202 Co201 2.061 . S
O202 C205 1.235 . S
C203 O206 1.238 . S
C203 O207 1.241 . S
C204 O197 1.247 1_455 S
C204 O198 1.261 . S
C205 O200 1.259 . S
C205 O202 1.235 . S
O206 Co196 2.021 . S
O206 C203 1.238 . S
O207 Co201 2.052 . S
O207 C203 1.241 . S
O208 Co196 2.137 . S
O208 C199 1.247 . S
O209 Co196 2.244 . S
O209 C199 1.272 . S
O209 Co201 2.135 . S
Co210 O211 2.216 . S
Co210 O212 2.091 . S
Co210 O214 2.004 . S
Co210 O220 2.021 . S
Co210 O222 2.137 . S
Co210 O223 2.244 . S
O211 Co210 2.216 . S
O211 C218 1.247 . S
O212 Co210 2.091 . S
O212 C218 1.261 . S
C213 O222 1.247 . S
C213 O223 1.272 . S
O214 Co210 2.004 . S
O214 C219 1.259 . S
Co215 O216 2.061 . S
Co215 O221 2.052 . S
Co215 O223 2.135 . S
O216 Co215 2.061 . S
O216 C219 1.235 . S
C217 O220 1.238 . S
C217 O221 1.241 . S
C218 O211 1.247 . S
C218 O212 1.261 . S
C219 O214 1.259 . S
C219 O216 1.235 . S
O220 Co210 2.021 . S
O220 C217 1.238 . S
O221 Co215 2.052 . S
O221 C217 1.241 . S
O222 Co210 2.137 . S
O222 C213 1.247 . S
O223 Co210 2.244 . S
O223 C213 1.272 . S
O223 Co215 2.135 . S
Co224 O225 2.216 . S
Co224 O226 2.091 . S
Co224 O228 2.004 . S
Co224 O234 2.021 . S
Co224 O236 2.137 . S
Co224 O237 2.244 . S
O225 Co224 2.216 . S
O225 C232 1.247 . S
O226 Co224 2.091 . S
O226 C232 1.261 . S
C227 O236 1.247 . S
C227 O237 1.272 . S
O228 Co224 2.004 . S
O228 C233 1.259 . S
Co229 O230 2.061 . S
Co229 O235 2.052 . S
Co229 O237 2.135 . S
O230 Co229 2.061 . S
O230 C233 1.235 . S
C231 O234 1.238 . S
C231 O235 1.241 . S
C232 O225 1.247 . S
C232 O226 1.261 . S
C233 O228 1.259 . S
C233 O230 1.235 . S
O234 Co224 2.021 . S
O234 C231 1.238 . S
O235 Co229 2.052 . S
O235 C231 1.241 . S
O236 Co224 2.137 . S
O236 C227 1.247 . S
O237 Co224 2.244 . S
O237 C227 1.272 . S
O237 Co229 2.135 . S
Co238 O239 2.216 . S
Co238 O240 2.091 . S
Co238 O242 2.004 . S
Co238 O248 2.021 . S
Co238 O250 2.137 . S
Co238 O251 2.244 . S
O239 Co238 2.216 . S
O239 C246 1.247 . S
O240 Co238 2.091 . S
O240 C246 1.261 . S
C241 O250 1.247 . S
C241 O251 1.272 . S
O242 Co238 2.004 . S
O242 C247 1.259 . S
Co243 O244 2.061 . S
Co243 O249 2.052 . S
Co243 O251 2.135 . S
O244 Co243 2.061 . S
O244 C247 1.235 . S
C245 O248 1.238 . S
C245 O249 1.241 . S
C246 O239 1.247 . S
C246 O240 1.261 . S
C247 O242 1.259 . S
C247 O244 1.235 . S
O248 Co238 2.021 . S
O248 C245 1.238 . S
O249 Co243 2.052 . S
O249 C245 1.241 . S
O250 Co238 2.137 . S
O250 C241 1.247 . S
O251 Co238 2.244 . S
O251 C241 1.272 . S
O251 Co243 2.135 . S
Co252 O253 2.216 . S
Co252 O254 2.091 . S
Co252 O256 2.004 . S
Co252 O262 2.021 . S
Co252 O264 2.137 . S
Co252 O265 2.244 . S
O253 Co252 2.216 . S
O253 C260 1.247 . S
O254 Co252 2.091 . S
O254 C260 1.261 . S
C255 O264 1.247 . S
C255 O265 1.272 . S
O256 Co252 2.004 . S
O256 C261 1.259 . S
Co257 O258 2.061 . S
Co257 O263 2.052 . S
Co257 O265 2.135 . S
O258 Co257 2.061 . S
O258 C261 1.235 . S
C259 O262 1.238 . S
C259 O263 1.241 . S
C260 O253 1.247 . S
C260 O254 1.261 . S
C261 O256 1.259 . S
C261 O258 1.235 . S
O262 Co252 2.021 . S
O262 C259 1.238 . S
O263 Co257 2.052 . S
O263 C259 1.241 . S
O264 Co252 2.137 . S
O264 C255 1.247 . S
O265 Co252 2.244 . S
O265 C255 1.272 . S
O265 Co257 2.135 . S
Co266 O267 2.216 . S
Co266 O268 2.091 . S
Co266 O270 2.004 . S
Co266 O276 2.021 . S
Co266 O278 2.137 . S
Co266 O279 2.244 . S
O267 Co266 2.216 . S
O267 C274 1.247 . S
O268 Co266 2.091 . S
O268 C274 1.261 . S
C269 O278 1.247 . S
C269 O279 1.272 . S
O270 Co266 2.004 . S
O270 C275 1.259 . S
Co271 O272 2.061 . S
Co271 O277 2.052 . S
Co271 O279 2.135 . S
O272 Co271 2.061 . S
O272 C275 1.235 . S
C273 O276 1.238 . S
C273 O277 1.241 . S
C274 O267 1.247 . S
C274 O268 1.261 . S
C275 O270 1.259 . S
C275 O272 1.235 . S
O276 Co266 2.021 . S
O276 C273 1.238 . S
O277 Co271 2.052 . S
O277 C273 1.241 . S
O278 Co266 2.137 . S
O278 C269 1.247 . S
O279 Co266 2.244 . S
O279 C269 1.272 . S
O279 Co271 2.135 . S
Co280 O281 2.216 . S
Co280 O282 2.091 . S
Co280 O284 2.004 . S
Co280 O290 2.021 . S
Co280 O292 2.137 . S
Co280 O293 2.244 . S
O281 Co280 2.216 . S
O281 C288 1.247 . S
O282 Co280 2.091 . S
O282 C288 1.261 . S
C283 O292 1.247 . S
C283 O293 1.272 . S
O284 Co280 2.004 . S
O284 C289 1.259 . S
Co285 O286 2.061 . S
Co285 O291 2.052 . S
Co285 O293 2.135 . S
O286 Co285 2.061 . S
O286 C289 1.235 . S
C287 O290 1.238 . S
C287 O291 1.241 . S
C288 O281 1.247 . S
C288 O282 1.261 . S
C289 O284 1.259 . S
C289 O286 1.235 . S
O290 Co280 2.021 . S
O290 C287 1.238 . S
O291 Co285 2.052 . S
O291 C287 1.241 . S
O292 Co280 2.137 . S
O292 C283 1.247 . S
O293 Co280 2.244 . S
O293 C283 1.272 . S
O293 Co285 2.135 . S
Co294 O295 2.216 . S
Co294 O296 2.091 . S
Co294 O298 2.004 . S
Co294 O304 2.021 . S
Co294 O306 2.137 . S
Co294 O307 2.244 . S
O295 Co294 2.216 . S
O295 C302 1.247 . S
O296 Co294 2.091 . S
O296 C302 1.261 . S
C297 O306 1.247 . S
C297 O307 1.272 . S
O298 Co294 2.004 . S
O298 C303 1.259 . S
Co299 O300 2.061 . S
Co299 O305 2.052 . S
Co299 O307 2.135 . S
O300 Co299 2.061 . S
O300 C303 1.235 . S
C301 O304 1.238 . S
C301 O305 1.241 . S
C302 O295 1.247 . S
C302 O296 1.261 . S
C303 O298 1.259 . S
C303 O300 1.235 . S
O304 Co294 2.021 . S
O304 C301 1.238 . S
O305 Co299 2.052 . S
O305 C301 1.241 . S
O306 Co294 2.137 . S
O306 C297 1.247 . S
O307 Co294 2.244 . S
O307 C297 1.272 . S
O307 Co299 2.135 . S
Co308 O309 2.216 . S
Co308 O310 2.091 . S
Co308 O312 2.004 . S
Co308 O318 2.021 . S
Co308 O320 2.137 . S
Co308 O321 2.244 . S
O309 Co308 2.216 . S
O309 C316 1.247 . S
O310 Co308 2.091 . S
O310 C316 1.261 . S
C311 O320 1.247 . S
C311 O321 1.272 . S
O312 Co308 2.004 . S
O312 C317 1.259 . S
Co313 O314 2.061 . S
Co313 O319 2.052 . S
Co313 O321 2.135 . S
O314 Co313 2.061 . S
O314 C317 1.235 . S
C315 O318 1.238 . S
C315 O319 1.241 . S
C316 O309 1.247 . S
C316 O310 1.261 . S
C317 O312 1.259 . S
C317 O314 1.235 . S
O318 Co308 2.021 . S
O318 C315 1.238 . S
O319 Co313 2.052 . S
O319 C315 1.241 . S
O320 Co308 2.137 . S
O320 C311 1.247 . S
O321 Co308 2.244 . S
O321 C311 1.272 . S
O321 Co313 2.135 . S
Co322 O323 2.216 . S
Co322 O324 2.091 . S
Co322 O326 2.004 . S
Co322 O332 2.021 . S
Co322 O334 2.137 . S
Co322 O335 2.244 . S
O323 Co322 2.216 . S
O323 C330 1.247 . S
O324 Co322 2.091 . S
O324 C330 1.261 . S
C325 O334 1.247 . S
C325 O335 1.272 . S
O326 Co322 2.004 . S
O326 C331 1.259 . S
Co327 O328 2.061 . S
Co327 O333 2.052 . S
Co327 O335 2.135 . S
O328 Co327 2.061 . S
O328 C331 1.235 . S
C329 O332 1.238 . S
C329 O333 1.241 . S
C330 O323 1.247 . S
C330 O324 1.261 . S
C331 O326 1.259 . S
C331 O328 1.235 . S
O332 Co322 2.021 . S
O332 C329 1.238 . S
O333 Co327 2.052 . S
O333 C329 1.241 . S
O334 Co322 2.137 . S
O334 C325 1.247 . S
O335 Co322 2.244 . S
O335 C325 1.272 . S
O335 Co327 2.135 . S
Co336 O337 2.216 . S
Co336 O338 2.091 . S
Co336 O340 2.004 . S
Co336 O346 2.021 . S
Co336 O348 2.137 . S
Co336 O349 2.244 . S
O337 Co336 2.216 . S
O337 C344 1.247 . S
O338 Co336 2.091 . S
O338 C344 1.261 . S
C339 O348 1.247 . S
C339 O349 1.272 . S
O340 Co336 2.004 . S
O340 C345 1.259 . S
Co341 O342 2.061 . S
Co341 O347 2.052 . S
Co341 O349 2.135 . S
O342 Co341 2.061 . S
O342 C345 1.235 . S
C343 O346 1.238 . S
C343 O347 1.241 . S
C344 O337 1.247 . S
C344 O338 1.261 . S
C345 O340 1.259 . S
C345 O342 1.235 . S
O346 Co336 2.021 . S
O346 C343 1.238 . S
O347 Co341 2.052 . S
O347 C343 1.241 . S
O348 Co336 2.137 . S
O348 C339 1.247 . S
O349 Co336 2.244 . S
O349 C339 1.272 . S
O349 Co341 2.135 . S
Co350 O351 2.216 . S
Co350 O352 2.091 . S
Co350 O354 2.004 . S
Co350 O360 2.021 . S
Co350 O362 2.137 . S
Co350 O363 2.244 . S
O351 Co350 2.216 . S
O351 C358 1.247 . S
O352 Co350 2.091 . S
O352 C358 1.261 . S
C353 O362 1.247 . S
C353 O363 1.272 . S
O354 Co350 2.004 . S
O354 C359 1.259 . S
Co355 O356 2.061 . S
Co355 O361 2.052 . S
Co355 O363 2.135 . S
O356 Co355 2.061 . S
O356 C359 1.235 . S
C357 O360 1.238 . S
C357 O361 1.241 . S
C358 O351 1.247 . S
C358 O352 1.261 . S
C359 O354 1.259 . S
C359 O356 1.235 . S
O360 Co350 2.021 . S
O360 C357 1.238 . S
O361 Co355 2.052 . S
O361 C357 1.241 . S
O362 Co350 2.137 . S
O362 C353 1.247 . S
O363 Co350 2.244 . S
O363 C353 1.272 . S
O363 Co355 2.135 . S
Co364 O365 2.216 . S
Co364 O366 2.091 . S
Co364 O368 2.004 1_556 S
Co364 O374 2.021 . S
Co364 O376 2.137 . S
Co364 O377 2.244 . S
O365 Co364 2.216 . S
O365 C372 1.247 . S
O366 Co364 2.091 . S
O366 C372 1.261 . S
C367 O376 1.247 . S
C367 O377 1.272 . S
O368 Co364 2.004 1_554 S
O368 C373 1.259 . S
Co369 O370 2.061 . S
Co369 O375 2.052 1_554 S
Co369 O377 2.135 1_554 S
O370 Co369 2.061 . S
O370 C373 1.235 . S
C371 O374 1.238 . S
C371 O375 1.241 . S
C372 O365 1.247 . S
C372 O366 1.261 . S
C373 O368 1.259 . S
C373 O370 1.235 . S
O374 Co364 2.021 . S
O374 C371 1.238 . S
O375 Co369 2.052 1_556 S
O375 C371 1.241 . S
O376 Co364 2.137 . S
O376 C367 1.247 . S
O377 Co364 2.244 . S
O377 C367 1.272 . S
O377 Co369 2.135 1_556 S
Co378 O379 2.216 . S
Co378 O380 2.091 . S
Co378 O382 2.004 1_556 S
Co378 O388 2.021 . S
Co378 O390 2.137 . S
Co378 O391 2.244 . S
O379 Co378 2.216 . S
O379 C386 1.247 . S
O380 Co378 2.091 . S
O380 C386 1.261 . S
C381 O390 1.247 . S
C381 O391 1.272 . S
O382 Co378 2.004 1_554 S
O382 C387 1.259 . S
Co383 O384 2.061 . S
Co383 O389 2.052 1_554 S
Co383 O391 2.135 1_554 S
O384 Co383 2.061 . S
O384 C387 1.235 . S
C385 O388 1.238 . S
C385 O389 1.241 . S
C386 O379 1.247 . S
C386 O380 1.261 . S
C387 O382 1.259 . S
C387 O384 1.235 . S
O388 Co378 2.021 . S
O388 C385 1.238 . S
O389 Co383 2.052 1_556 S
O389 C385 1.241 . S
O390 Co378 2.137 . S
O390 C381 1.247 . S
O391 Co378 2.244 . S
O391 C381 1.272 . S
O391 Co383 2.135 1_556 S
Co392 O393 2.216 . S
Co392 O394 2.091 . S
Co392 O396 2.004 . S
Co392 O402 2.021 . S
Co392 O404 2.137 . S
Co392 O405 2.244 . S
O393 Co392 2.216 . S
O393 C400 1.247 . S
O394 Co392 2.091 . S
O394 C400 1.261 . S
C395 O404 1.247 . S
C395 O405 1.272 . S
O396 Co392 2.004 . S
O396 C401 1.259 . S
Co397 O398 2.061 . S
Co397 O403 2.052 . S
Co397 O405 2.135 . S
O398 Co397 2.061 . S
O398 C401 1.235 . S
C399 O402 1.238 . S
C399 O403 1.241 . S
C400 O393 1.247 . S
C400 O394 1.261 . S
C401 O396 1.259 . S
C401 O398 1.235 . S
O402 Co392 2.021 . S
O402 C399 1.238 . S
O403 Co397 2.052 . S
O403 C399 1.241 . S
O404 Co392 2.137 . S
O404 C395 1.247 . S
O405 Co392 2.244 . S
O405 C395 1.272 . S
O405 Co397 2.135 . S
Co406 O407 2.216 . S
Co406 O408 2.091 . S
Co406 O410 2.004 . S
Co406 O416 2.021 . S
Co406 O418 2.137 . S
Co406 O419 2.244 . S
O407 Co406 2.216 . S
O407 C414 1.247 . S
O408 Co406 2.091 . S
O408 C414 1.261 . S
C409 O418 1.247 . S
C409 O419 1.272 . S
O410 Co406 2.004 . S
O410 C415 1.259 . S
Co411 O412 2.061 . S
Co411 O417 2.052 . S
Co411 O419 2.135 . S
O412 Co411 2.061 . S
O412 C415 1.235 . S
C413 O416 1.238 . S
C413 O417 1.241 . S
C414 O407 1.247 . S
C414 O408 1.261 . S
C415 O410 1.259 . S
C415 O412 1.235 . S
O416 Co406 2.021 . S
O416 C413 1.238 . S
O417 Co411 2.052 . S
O417 C413 1.241 . S
O418 Co406 2.137 . S
O418 C409 1.247 . S
O419 Co406 2.244 . S
O419 C409 1.272 . S
O419 Co411 2.135 . S
Co420 O421 2.216 . S
Co420 O422 2.091 . S
Co420 O424 2.004 1_554 S
Co420 O430 2.021 . S
Co420 O432 2.137 . S
Co420 O433 2.244 . S
O421 Co420 2.216 . S
O421 C428 1.247 . S
O422 Co420 2.091 . S
O422 C428 1.261 . S
C423 O432 1.247 . S
C423 O433 1.272 . S
O424 Co420 2.004 1_556 S
O424 C429 1.259 . S
Co425 O426 2.061 . S
Co425 O431 2.052 1_556 S
Co425 O433 2.135 1_556 S
O426 Co425 2.061 . S
O426 C429 1.235 . S
C427 O430 1.238 . S
C427 O431 1.241 . S
C428 O421 1.247 . S
C428 O422 1.261 . S
C429 O424 1.259 . S
C429 O426 1.235 . S
O430 Co420 2.021 . S
O430 C427 1.238 . S
O431 Co425 2.052 1_554 S
O431 C427 1.241 . S
O432 Co420 2.137 . S
O432 C423 1.247 . S
O433 Co420 2.244 . S
O433 C423 1.272 . S
O433 Co425 2.135 1_554 S
Co434 O435 2.216 . S
Co434 O436 2.091 . S
Co434 O438 2.004 1_554 S
Co434 O444 2.021 . S
Co434 O446 2.137 . S
Co434 O447 2.244 . S
O435 Co434 2.216 . S
O435 C442 1.247 . S
O436 Co434 2.091 . S
O436 C442 1.261 . S
C437 O446 1.247 . S
C437 O447 1.272 . S
O438 Co434 2.004 1_556 S
O438 C443 1.259 . S
Co439 O440 2.061 . S
Co439 O445 2.052 1_556 S
Co439 O447 2.135 1_556 S
O440 Co439 2.061 . S
O440 C443 1.235 . S
C441 O444 1.238 . S
C441 O445 1.241 . S
C442 O435 1.247 . S
C442 O436 1.261 . S
C443 O438 1.259 . S
C443 O440 1.235 . S
O444 Co434 2.021 . S
O444 C441 1.238 . S
O445 Co439 2.052 1_554 S
O445 C441 1.241 . S
O446 Co434 2.137 . S
O446 C437 1.247 . S
O447 Co434 2.244 . S
O447 C437 1.272 . S
O447 Co439 2.135 1_554 S
H448 C460 0.930 . S
H449 C462 0.930 . S
H450 C463 0.930 . S
H451 C467 0.959 . S
H452 C467 0.959 . S
H453 C467 0.961 . S
H454 C468 0.960 . S
H455 C468 0.961 . S
H456 C468 0.959 . S
H457 C471 0.929 . S
H458 C472 0.931 . S
H459 C474 0.930 . S
C460 H448 0.930 . S
C460 C461 1.399 . S
C460 C465 1.399 . S
C461 C460 1.399 . S
C461 C462 1.376 . S
C462 H449 0.930 . S
C462 C461 1.376 . S
C462 C463 1.388 . S
C463 H450 0.930 . S
C463 C462 1.388 . S
C463 C464 1.390 . S
C464 C463 1.390 . S
C464 C465 1.394 . S
C464 C470 1.465 . S
C465 C460 1.399 . S
C465 C464 1.394 . S
C465 C466 1.516 . S
C466 C465 1.516 . S
C466 C467 1.502 . S
C466 C468 1.561 . S
C466 C469 1.526 . S
C467 H451 0.959 . S
C467 H452 0.959 . S
C467 H453 0.961 . S
C467 C466 1.502 . S
C468 H454 0.960 . S
C468 H455 0.961 . S
C468 H456 0.959 . S
C468 C466 1.561 . S
C469 C466 1.526 . S
C469 C470 1.396 . S
C469 C474 1.390 . S
C470 C464 1.465 . S
C470 C469 1.396 . S
C470 C471 1.399 . S
C471 H457 0.929 . S
C471 C470 1.399 . S
C471 C472 1.385 . S
C472 H458 0.931 . S
C472 C471 1.385 . S
C472 C473 1.389 . S
C473 C472 1.389 . S
C473 C474 1.387 . S
C474 H459 0.930 . S
C474 C469 1.390 . S
C474 C473 1.387 . S
H475 C487 0.930 . S
H476 C489 0.930 . S
H477 C490 0.930 . S
H478 C494 0.959 . S
H479 C494 0.959 . S
H480 C494 0.961 . S
H481 C495 0.960 . S
H482 C495 0.961 . S
H483 C495 0.959 . S
H484 C498 0.929 . S
H485 C499 0.931 . S
H486 C501 0.930 . S
C487 H475 0.930 . S
C487 C488 1.399 . S
C487 C492 1.399 . S
C488 C487 1.399 . S
C488 C489 1.376 . S
C489 H476 0.930 . S
C489 C488 1.376 . S
C489 C490 1.388 . S
C490 H477 0.930 . S
C490 C489 1.388 . S
C490 C491 1.390 . S
C491 C490 1.390 . S
C491 C492 1.394 . S
C491 C497 1.465 . S
C492 C487 1.399 . S
C492 C491 1.394 . S
C492 C493 1.516 . S
C493 C492 1.516 . S
C493 C494 1.502 . S
C493 C495 1.561 . S
C493 C496 1.526 . S
C494 H478 0.959 . S
C494 H479 0.959 . S
C494 H480 0.961 . S
C494 C493 1.502 . S
C495 H481 0.960 . S
C495 H482 0.961 . S
C495 H483 0.959 . S
C495 C493 1.561 . S
C496 C493 1.526 . S
C496 C497 1.396 . S
C496 C501 1.390 . S
C497 C491 1.465 . S
C497 C496 1.396 . S
C497 C498 1.399 . S
C498 H484 0.929 . S
C498 C497 1.399 . S
C498 C499 1.385 . S
C499 H485 0.931 . S
C499 C498 1.385 . S
C499 C500 1.389 . S
C500 C499 1.389 . S
C500 C501 1.387 . S
C501 H486 0.930 . S
C501 C496 1.390 . S
C501 C500 1.387 . S
H502 C514 0.930 . S
H503 C516 0.930 . S
H504 C517 0.930 . S
H505 C521 0.959 . S
H506 C521 0.959 . S
H507 C521 0.961 . S
H508 C522 0.960 . S
H509 C522 0.961 . S
H510 C522 0.959 . S
H511 C525 0.929 . S
H512 C526 0.931 . S
H513 C528 0.930 . S
C514 H502 0.930 . S
C514 C515 1.399 . S
C514 C519 1.399 . S
C515 C514 1.399 . S
C515 C516 1.376 . S
C516 H503 0.930 . S
C516 C515 1.376 . S
C516 C517 1.388 . S
C517 H504 0.930 . S
C517 C516 1.388 . S
C517 C518 1.390 . S
C518 C517 1.390 . S
C518 C519 1.394 . S
C518 C524 1.465 . S
C519 C514 1.399 . S
C519 C518 1.394 . S
C519 C520 1.516 . S
C520 C519 1.516 . S
C520 C521 1.502 . S
C520 C522 1.561 . S
C520 C523 1.526 . S
C521 H505 0.959 . S
C521 H506 0.959 . S
C521 H507 0.961 . S
C521 C520 1.502 . S
C522 H508 0.960 . S
C522 H509 0.961 . S
C522 H510 0.959 . S
C522 C520 1.561 . S
C523 C520 1.526 . S
C523 C524 1.396 . S
C523 C528 1.390 . S
C524 C518 1.465 . S
C524 C523 1.396 . S
C524 C525 1.399 . S
C525 H511 0.929 . S
C525 C524 1.399 . S
C525 C526 1.385 . S
C526 H512 0.931 . S
C526 C525 1.385 . S
C526 C527 1.389 . S
C527 C526 1.389 . S
C527 C528 1.387 . S
C528 H513 0.930 . S
C528 C523 1.390 . S
C528 C527 1.387 . S
H529 C541 0.930 . S
H530 C543 0.930 1_455 S
H531 C544 0.930 1_455 S
H532 C548 0.959 . S
H533 C548 0.959 . S
H534 C548 0.961 . S
H535 C549 0.960 . S
H536 C549 0.961 . S
H537 C549 0.959 . S
H538 C552 0.929 . S
H539 C553 0.931 . S
H540 C555 0.930 . S
C541 H529 0.930 . S
C541 C542 1.399 . S
C541 C546 1.399 . S
C542 C541 1.399 . S
C542 C543 1.376 . S
C543 H530 0.930 1_655 S
C543 C542 1.376 . S
C543 C544 1.388 . S
C544 H531 0.930 1_655 S
C544 C543 1.388 . S
C544 C545 1.390 . S
C545 C544 1.390 . S
C545 C546 1.394 . S
C545 C551 1.465 . S
C546 C541 1.399 . S
C546 C545 1.394 . S
C546 C547 1.516 . S
C547 C546 1.516 . S
C547 C548 1.502 . S
C547 C549 1.561 . S
C547 C550 1.526 . S
C548 H532 0.959 . S
C548 H533 0.959 . S
C548 H534 0.961 . S
C548 C547 1.502 . S
C549 H535 0.960 . S
C549 H536 0.961 . S
C549 H537 0.959 . S
C549 C547 1.561 . S
C550 C547 1.526 . S
C550 C551 1.396 . S
C550 C555 1.390 . S
C551 C545 1.465 . S
C551 C550 1.396 . S
C551 C552 1.399 . S
C552 H538 0.929 . S
C552 C551 1.399 . S
C552 C553 1.385 . S
C553 H539 0.931 . S
C553 C552 1.385 . S
C553 C554 1.389 . S
C554 C553 1.389 . S
C554 C555 1.387 . S
C555 H540 0.930 . S
C555 C550 1.390 . S
C555 C554 1.387 . S
H556 C568 0.930 . S
H557 C570 0.930 . S
H558 C571 0.930 . S
H559 C575 0.959 . S
H560 C575 0.959 . S
H561 C575 0.961 . S
H562 C576 0.960 . S
H563 C576 0.961 . S
H564 C576 0.959 . S
H565 C579 0.929 . S
H566 C580 0.931 . S
H567 C582 0.930 . S
C568 H556 0.930 . S
C568 C569 1.399 . S
C568 C573 1.399 . S
C569 C568 1.399 . S
C569 C570 1.376 . S
C570 H557 0.930 . S
C570 C569 1.376 . S
C570 C571 1.388 . S
C571 H558 0.930 . S
C571 C570 1.388 . S
C571 C572 1.390 . S
C572 C571 1.390 . S
C572 C573 1.394 . S
C572 C578 1.465 . S
C573 C568 1.399 . S
C573 C572 1.394 . S
C573 C574 1.516 . S
C574 C573 1.516 . S
C574 C575 1.502 . S
C574 C576 1.561 . S
C574 C577 1.526 . S
C575 H559 0.959 . S
C575 H560 0.959 . S
C575 H561 0.961 . S
C575 C574 1.502 . S
C576 H562 0.960 . S
C576 H563 0.961 . S
C576 H564 0.959 . S
C576 C574 1.561 . S
C577 C574 1.526 . S
C577 C578 1.396 . S
C577 C582 1.390 . S
C578 C572 1.465 . S
C578 C577 1.396 . S
C578 C579 1.399 . S
C579 H565 0.929 . S
C579 C578 1.399 . S
C579 C580 1.385 . S
C580 H566 0.931 . S
C580 C579 1.385 . S
C580 C581 1.389 . S
C581 C580 1.389 . S
C581 C582 1.387 . S
C582 H567 0.930 . S
C582 C577 1.390 . S
C582 C581 1.387 . S
H583 C595 0.930 . S
H584 C597 0.930 . S
H585 C598 0.930 . S
H586 C602 0.962 . S
H587 C602 0.959 . S
H588 C602 0.961 . S
H589 C603 0.960 . S
H590 C603 0.961 . S
H591 C603 0.959 . S
H592 C606 0.929 . S
H593 C607 0.931 . S
H594 C609 0.930 . S
C595 H583 0.930 . S
C595 C596 1.399 . S
C595 C600 1.399 . S
C596 C595 1.399 . S
C596 C597 1.376 . S
C597 H584 0.930 . S
C597 C596 1.376 . S
C597 C598 1.388 . S
C598 H585 0.930 . S
C598 C597 1.388 . S
C598 C599 1.390 . S
C599 C598 1.390 . S
C599 C600 1.394 . S
C599 C605 1.465 . S
C600 C595 1.399 . S
C600 C599 1.394 . S
C600 C601 1.516 . S
C601 C600 1.516 . S
C601 C602 1.502 . S
C601 C603 1.561 . S
C601 C604 1.526 . S
C602 H586 0.962 . S
C602 H587 0.959 . S
C602 H588 0.961 . S
C602 C601 1.502 . S
C603 H589 0.960 . S
C603 H590 0.961 . S
C603 H591 0.959 . S
C603 C601 1.561 . S
C604 C601 1.526 . S
C604 C605 1.396 . S
C604 C609 1.390 . S
C605 C599 1.465 . S
C605 C604 1.396 . S
C605 C606 1.399 . S
C606 H592 0.929 . S
C606 C605 1.399 . S
C606 C607 1.385 . S
C607 H593 0.931 . S
C607 C606 1.385 . S
C607 C608 1.389 . S
C608 C607 1.389 . S
C608 C609 1.387 . S
C609 H594 0.930 . S
C609 C604 1.390 . S
C609 C608 1.387 . S
H610 C622 0.930 . S
H611 C624 0.930 . S
H612 C625 0.930 . S
H613 C629 0.959 . S
H614 C629 0.959 . S
H615 C629 0.961 . S
H616 C630 0.960 . S
H617 C630 0.961 . S
H618 C630 0.959 . S
H619 C633 0.929 . S
H620 C634 0.931 . S
H621 C636 0.930 . S
C622 H610 0.930 . S
C622 C623 1.399 . S
C622 C627 1.399 . S
C623 C622 1.399 . S
C623 C624 1.376 . S
C624 H611 0.930 . S
C624 C623 1.376 . S
C624 C625 1.388 . S
C625 H612 0.930 . S
C625 C624 1.388 . S
C625 C626 1.390 . S
C626 C625 1.390 . S
C626 C627 1.394 . S
C626 C632 1.465 . S
C627 C622 1.399 . S
C627 C626 1.394 . S
C627 C628 1.516 . S
C628 C627 1.516 . S
C628 C629 1.502 1_655 S
C628 C630 1.561 . S
C628 C631 1.526 . S
C629 H613 0.959 . S
C629 H614 0.959 . S
C629 H615 0.961 . S
C629 C628 1.502 1_455 S
C630 H616 0.960 . S
C630 H617 0.961 . S
C630 H618 0.959 . S
C630 C628 1.561 . S
C631 C628 1.526 . S
C631 C632 1.396 . S
C631 C636 1.390 . S
C632 C626 1.465 . S
C632 C631 1.396 . S
C632 C633 1.399 . S
C633 H619 0.929 . S
C633 C632 1.399 . S
C633 C634 1.385 . S
C634 H620 0.931 . S
C634 C633 1.385 . S
C634 C635 1.389 . S
C635 C634 1.389 . S
C635 C636 1.387 . S
C636 H621 0.930 . S
C636 C631 1.390 . S
C636 C635 1.387 . S
H637 C649 0.930 . S
H638 C651 0.930 . S
H639 C652 0.930 . S
H640 C656 0.959 . S
H641 C656 0.959 . S
H642 C656 0.961 . S
H643 C657 0.960 . S
H644 C657 0.961 . S
H645 C657 0.959 . S
H646 C660 0.929 . S
H647 C661 0.931 1_455 S
H648 C663 0.930 . S
C649 H637 0.930 . S
C649 C650 1.399 . S
C649 C654 1.399 . S
C650 C649 1.399 . S
C650 C651 1.376 . S
C651 H638 0.930 . S
C651 C650 1.376 . S
C651 C652 1.388 . S
C652 H639 0.930 . S
C652 C651 1.388 . S
C652 C653 1.390 . S
C653 C652 1.390 . S
C653 C654 1.394 . S
C653 C659 1.465 . S
C654 C649 1.399 . S
C654 C653 1.394 . S
C654 C655 1.516 . S
C655 C654 1.516 . S
C655 C656 1.502 . S
C655 C657 1.561 . S
C655 C658 1.526 . S
C656 H640 0.959 . S
C656 H641 0.959 . S
C656 H642 0.961 . S
C656 C655 1.502 . S
C657 H643 0.960 . S
C657 H644 0.961 . S
C657 H645 0.959 . S
C657 C655 1.561 . S
C658 C655 1.526 . S
C658 C659 1.396 . S
C658 C663 1.390 . S
C659 C653 1.465 . S
C659 C658 1.396 . S
C659 C660 1.399 . S
C660 H646 0.929 . S
C660 C659 1.399 . S
C660 C661 1.385 . S
C661 H647 0.931 1_655 S
C661 C660 1.385 . S
C661 C662 1.389 . S
C662 C661 1.389 . S
C662 C663 1.387 . S
C663 H648 0.930 . S
C663 C658 1.390 . S
C663 C662 1.387 . S
H664 C676 0.930 . S
H665 C678 0.930 . S
H666 C679 0.930 . S
H667 C683 0.959 . S
H668 C683 0.959 . S
H669 C683 0.961 . S
H670 C684 0.960 . S
H671 C684 0.961 . S
H672 C684 0.959 . S
H673 C687 0.929 . S
H674 C688 0.931 . S
H675 C690 0.930 . S
C676 H664 0.930 . S
C676 C677 1.399 . S
C676 C681 1.399 . S
C677 C676 1.399 . S
C677 C678 1.376 . S
C678 H665 0.930 . S
C678 C677 1.376 . S
C678 C679 1.388 . S
C679 H666 0.930 . S
C679 C678 1.388 . S
C679 C680 1.390 . S
C680 C679 1.390 . S
C680 C681 1.394 . S
C680 C686 1.465 . S
C681 C676 1.399 . S
C681 C680 1.394 . S
C681 C682 1.516 . S
C682 C681 1.516 . S
C682 C683 1.502 . S
C682 C684 1.561 . S
C682 C685 1.526 . S
C683 H667 0.959 . S
C683 H668 0.959 . S
C683 H669 0.961 . S
C683 C682 1.502 . S
C684 H670 0.960 . S
C684 H671 0.961 . S
C684 H672 0.959 . S
C684 C682 1.561 . S
C685 C682 1.526 . S
C685 C686 1.396 . S
C685 C690 1.390 . S
C686 C680 1.465 . S
C686 C685 1.396 . S
C686 C687 1.399 . S
C687 H673 0.929 . S
C687 C686 1.399 . S
C687 C688 1.385 . S
C688 H674 0.931 . S
C688 C687 1.385 . S
C688 C689 1.389 . S
C689 C688 1.389 . S
C689 C690 1.387 . S
C690 H675 0.930 . S
C690 C685 1.390 . S
C690 C689 1.387 . S
H691 C703 0.930 . S
H692 C705 0.930 . S
H693 C706 0.930 . S
H694 C710 0.959 . S
H695 C710 0.959 . S
H696 C710 0.961 . S
H697 C711 0.960 . S
H698 C711 0.961 . S
H699 C711 0.959 . S
H700 C714 0.929 . S
H701 C715 0.931 . S
H702 C717 0.930 . S
C703 H691 0.930 . S
C703 C704 1.399 . S
C703 C708 1.399 . S
C704 C703 1.399 . S
C704 C705 1.376 . S
C705 H692 0.930 . S
C705 C704 1.376 . S
C705 C706 1.388 . S
C706 H693 0.930 . S
C706 C705 1.388 . S
C706 C707 1.390 . S
C707 C706 1.390 . S
C707 C708 1.394 . S
C707 C713 1.465 . S
C708 C703 1.399 . S
C708 C707 1.394 . S
C708 C709 1.516 . S
C709 C708 1.516 . S
C709 C710 1.502 . S
C709 C711 1.561 . S
C709 C712 1.526 . S
C710 H694 0.959 . S
C710 H695 0.959 . S
C710 H696 0.961 . S
C710 C709 1.502 . S
C711 H697 0.960 . S
C711 H698 0.961 . S
C711 H699 0.959 . S
C711 C709 1.561 . S
C712 C709 1.526 . S
C712 C713 1.396 . S
C712 C717 1.390 . S
C713 C707 1.465 . S
C713 C712 1.396 . S
C713 C714 1.399 . S
C714 H700 0.929 . S
C714 C713 1.399 . S
C714 C715 1.385 . S
C715 H701 0.931 . S
C715 C714 1.385 . S
C715 C716 1.389 . S
C716 C715 1.389 . S
C716 C717 1.387 . S
C717 H702 0.930 . S
C717 C712 1.390 . S
C717 C716 1.387 . S
H718 C730 0.930 . S
H719 C732 0.930 . S
H720 C733 0.930 . S
H721 C737 0.959 . S
H722 C737 0.959 . S
H723 C737 0.961 . S
H724 C738 0.960 . S
H725 C738 0.961 . S
H726 C738 0.959 . S
H727 C741 0.929 . S
H728 C742 0.931 . S
H729 C744 0.930 . S
C730 H718 0.930 . S
C730 C731 1.399 . S
C730 C735 1.399 . S
C731 C730 1.399 . S
C731 C732 1.376 . S
C732 H719 0.930 . S
C732 C731 1.376 . S
C732 C733 1.388 . S
C733 H720 0.930 . S
C733 C732 1.388 . S
C733 C734 1.390 . S
C734 C733 1.390 . S
C734 C735 1.394 . S
C734 C740 1.465 . S
C735 C730 1.399 . S
C735 C734 1.394 . S
C735 C736 1.516 . S
C736 C735 1.516 . S
C736 C737 1.502 . S
C736 C738 1.561 . S
C736 C739 1.526 . S
C737 H721 0.959 . S
C737 H722 0.959 . S
C737 H723 0.961 . S
C737 C736 1.502 . S
C738 H724 0.960 . S
C738 H725 0.961 . S
C738 H726 0.959 . S
C738 C736 1.561 . S
C739 C736 1.526 . S
C739 C740 1.396 . S
C739 C744 1.390 . S
C740 C734 1.465 . S
C740 C739 1.396 . S
C740 C741 1.399 . S
C741 H727 0.929 . S
C741 C740 1.399 . S
C741 C742 1.385 . S
C742 H728 0.931 . S
C742 C741 1.385 . S
C742 C743 1.389 . S
C743 C742 1.389 . S
C743 C744 1.387 . S
C744 H729 0.930 . S
C744 C739 1.390 . S
C744 C743 1.387 . S
H745 C757 0.930 . S
H746 C759 0.930 . S
H747 C760 0.930 . S
H748 C764 0.959 . S
H749 C764 0.959 . S
H750 C764 0.961 . S
H751 C765 0.960 . S
H752 C765 0.961 . S
H753 C765 0.959 . S
H754 C768 0.929 . S
H755 C769 0.931 . S
H756 C771 0.930 . S
C757 H745 0.930 . S
C757 C758 1.399 . S
C757 C762 1.399 . S
C758 C757 1.399 . S
C758 C759 1.376 . S
C759 H746 0.930 . S
C759 C758 1.376 . S
C759 C760 1.388 . S
C760 H747 0.930 . S
C760 C759 1.388 . S
C760 C761 1.390 . S
C761 C760 1.390 . S
C761 C762 1.394 . S
C761 C767 1.465 . S
C762 C757 1.399 . S
C762 C761 1.394 . S
C762 C763 1.516 . S
C763 C762 1.516 . S
C763 C764 1.502 . S
C763 C765 1.561 . S
C763 C766 1.526 . S
C764 H748 0.959 . S
C764 H749 0.959 . S
C764 H750 0.961 . S
C764 C763 1.502 . S
C765 H751 0.960 . S
C765 H752 0.961 . S
C765 H753 0.959 . S
C765 C763 1.561 . S
C766 C763 1.526 . S
C766 C767 1.396 . S
C766 C771 1.390 . S
C767 C761 1.465 . S
C767 C766 1.396 . S
C767 C768 1.399 . S
C768 H754 0.929 . S
C768 C767 1.399 . S
C768 C769 1.385 . S
C769 H755 0.931 . S
C769 C768 1.385 . S
C769 C770 1.389 . S
C770 C769 1.389 . S
C770 C771 1.387 . S
C771 H756 0.930 . S
C771 C766 1.390 . S
C771 C770 1.387 . S
H772 C784 0.930 . S
H773 C786 0.930 . S
H774 C787 0.930 . S
H775 C791 0.959 . S
H776 C791 0.959 . S
H777 C791 0.961 . S
H778 C792 0.960 . S
H779 C792 0.961 . S
H780 C792 0.959 . S
H781 C795 0.929 . S
H782 C796 0.931 . S
H783 C798 0.930 . S
C784 H772 0.930 . S
C784 C785 1.399 . S
C784 C789 1.399 . S
C785 C784 1.399 . S
C785 C786 1.376 . S
C786 H773 0.930 . S
C786 C785 1.376 . S
C786 C787 1.388 . S
C787 H774 0.930 . S
C787 C786 1.388 . S
C787 C788 1.390 . S
C788 C787 1.390 . S
C788 C789 1.394 . S
C788 C794 1.465 . S
C789 C784 1.399 . S
C789 C788 1.394 . S
C789 C790 1.516 . S
C790 C789 1.516 . S
C790 C791 1.502 . S
C790 C792 1.561 . S
C790 C793 1.526 . S
C791 H775 0.959 . S
C791 H776 0.959 . S
C791 H777 0.961 . S
C791 C790 1.502 . S
C792 H778 0.960 . S
C792 H779 0.961 . S
C792 H780 0.959 . S
C792 C790 1.561 . S
C793 C790 1.526 . S
C793 C794 1.396 . S
C793 C798 1.390 . S
C794 C788 1.465 . S
C794 C793 1.396 . S
C794 C795 1.399 . S
C795 H781 0.929 . S
C795 C794 1.399 . S
C795 C796 1.385 . S
C796 H782 0.931 . S
C796 C795 1.385 . S
C796 C797 1.389 . S
C797 C796 1.389 . S
C797 C798 1.387 . S
C798 H783 0.930 . S
C798 C793 1.390 . S
C798 C797 1.387 . S
H799 C811 0.930 . S
H800 C813 0.930 . S
H801 C814 0.930 . S
H802 C818 0.959 . S
H803 C818 0.959 . S
H804 C818 0.961 . S
H805 C819 0.960 . S
H806 C819 0.961 . S
H807 C819 0.959 . S
H808 C822 0.929 . S
H809 C823 0.931 . S
H810 C825 0.930 . S
C811 H799 0.930 . S
C811 C812 1.399 . S
C811 C816 1.399 . S
C812 C811 1.399 . S
C812 C813 1.376 . S
C813 H800 0.930 . S
C813 C812 1.376 . S
C813 C814 1.388 . S
C814 H801 0.930 . S
C814 C813 1.388 . S
C814 C815 1.390 . S
C815 C814 1.390 . S
C815 C816 1.394 . S
C815 C821 1.465 . S
C816 C811 1.399 . S
C816 C815 1.394 . S
C816 C817 1.516 . S
C817 C816 1.516 . S
C817 C818 1.502 . S
C817 C819 1.561 . S
C817 C820 1.526 . S
C818 H802 0.959 . S
C818 H803 0.959 . S
C818 H804 0.961 . S
C818 C817 1.502 . S
C819 H805 0.960 . S
C819 H806 0.961 . S
C819 H807 0.959 . S
C819 C817 1.561 . S
C820 C817 1.526 . S
C820 C821 1.396 . S
C820 C825 1.390 . S
C821 C815 1.465 . S
C821 C820 1.396 . S
C821 C822 1.399 . S
C822 H808 0.929 . S
C822 C821 1.399 . S
C822 C823 1.385 . S
C823 H809 0.931 . S
C823 C822 1.385 . S
C823 C824 1.389 . S
C824 C823 1.389 . S
C824 C825 1.387 . S
C825 H810 0.930 . S
C825 C820 1.390 . S
C825 C824 1.387 . S
H826 C838 0.930 . S
H827 C840 0.930 . S
H828 C841 0.930 . S
H829 C845 0.959 . S
H830 C845 0.959 . S
H831 C845 0.961 . S
H832 C846 0.960 . S
H833 C846 0.961 . S
H834 C846 0.959 . S
H835 C849 0.929 . S
H836 C850 0.931 . S
H837 C852 0.930 . S
C838 H826 0.930 . S
C838 C839 1.399 . S
C838 C843 1.399 . S
C839 C838 1.399 . S
C839 C840 1.376 . S
C840 H827 0.930 . S
C840 C839 1.376 . S
C840 C841 1.388 . S
C841 H828 0.930 . S
C841 C840 1.388 . S
C841 C842 1.390 . S
C842 C841 1.390 . S
C842 C843 1.394 . S
C842 C848 1.465 . S
C843 C838 1.399 . S
C843 C842 1.394 . S
C843 C844 1.516 . S
C844 C843 1.516 . S
C844 C845 1.502 . S
C844 C846 1.561 . S
C844 C847 1.526 . S
C845 H829 0.959 . S
C845 H830 0.959 . S
C845 H831 0.961 . S
C845 C844 1.502 . S
C846 H832 0.960 . S
C846 H833 0.961 . S
C846 H834 0.959 . S
C846 C844 1.561 . S
C847 C844 1.526 . S
C847 C848 1.396 . S
C847 C852 1.390 . S
C848 C842 1.465 . S
C848 C847 1.396 . S
C848 C849 1.399 . S
C849 H835 0.929 . S
C849 C848 1.399 . S
C849 C850 1.385 . S
C850 H836 0.931 . S
C850 C849 1.385 . S
C850 C851 1.389 . S
C851 C850 1.389 . S
C851 C852 1.387 . S
C852 H837 0.930 . S
C852 C847 1.390 . S
C852 C851 1.387 . S
H853 C865 0.930 . S
H854 C867 0.930 . S
H855 C868 0.930 . S
H856 C872 0.959 . S
H857 C872 0.959 . S
H858 C872 0.961 . S
H859 C873 0.960 . S
H860 C873 0.961 . S
H861 C873 0.959 . S
H862 C876 0.929 . S
H863 C877 0.931 . S
H864 C879 0.930 . S
C865 H853 0.930 . S
C865 C866 1.399 . S
C865 C870 1.399 . S
C866 C865 1.399 . S
C866 C867 1.376 . S
C867 H854 0.930 . S
C867 C866 1.376 . S
C867 C868 1.388 . S
C868 H855 0.930 . S
C868 C867 1.388 . S
C868 C869 1.390 . S
C869 C868 1.390 . S
C869 C870 1.394 . S
C869 C875 1.465 . S
C870 C865 1.399 . S
C870 C869 1.394 . S
C870 C871 1.516 . S
C871 C870 1.516 . S
C871 C872 1.502 . S
C871 C873 1.561 . S
C871 C874 1.526 . S
C872 H856 0.959 . S
C872 H857 0.959 . S
C872 H858 0.961 . S
C872 C871 1.502 . S
C873 H859 0.960 . S
C873 H860 0.961 . S
C873 H861 0.959 . S
C873 C871 1.561 . S
C874 C871 1.526 . S
C874 C875 1.396 . S
C874 C879 1.390 . S
C875 C869 1.465 . S
C875 C874 1.396 . S
C875 C876 1.399 . S
C876 H862 0.929 . S
C876 C875 1.399 . S
C876 C877 1.385 . S
C877 H863 0.931 . S
C877 C876 1.385 . S
C877 C878 1.389 . S
C878 C877 1.389 . S
C878 C879 1.387 . S
C879 H864 0.930 . S
C879 C874 1.390 . S
C879 C878 1.387 . S
H880 C892 0.930 . S
H881 C894 0.930 . S
H882 C895 0.930 . S
H883 C899 0.959 . S
H884 C899 0.921 1_545 S
H885 C899 0.961 . S
H886 C900 0.960 1_565 S
H887 C900 0.961 . S
H888 C900 0.959 . S
H889 C903 0.929 . S
H890 C904 0.931 . S
H891 C906 0.930 . S
C892 H880 0.930 . S
C892 C893 1.399 . S
C892 C897 1.399 . S
C893 C892 1.399 . S
C893 C894 1.376 . S
C894 H881 0.930 . S
C894 C893 1.376 . S
C894 C895 1.388 . S
C895 H882 0.930 . S
C895 C894 1.388 . S
C895 C896 1.390 . S
C896 C895 1.390 . S
C896 C897 1.394 . S
C896 C902 1.465 1_565 S
C897 C892 1.399 . S
C897 C896 1.394 . S
C897 C898 1.516 . S
C898 C897 1.516 . S
C898 C899 1.502 . S
C898 C900 1.561 1_565 S
C898 C901 1.526 1_565 S
C899 H883 0.959 . S
C899 H884 0.921 1_565 S
C899 H885 0.961 . S
C899 C898 1.502 . S
C900 H886 0.960 1_545 S
C900 H887 0.961 . S
C900 H888 0.959 . S
C900 C898 1.561 1_545 S
C901 C898 1.526 1_545 S
C901 C902 1.396 . S
C901 C906 1.390 . S
C902 C896 1.465 1_545 S
C902 C901 1.396 . S
C902 C903 1.399 . S
C903 H889 0.929 . S
C903 C902 1.399 . S
C903 C904 1.385 . S
C904 H890 0.931 . S
C904 C903 1.385 . S
C904 C905 1.389 . S
C905 C904 1.389 . S
C905 C906 1.387 . S
C906 H891 0.930 . S
C906 C901 1.390 . S
C906 C905 1.387 . S
H907 C919 0.930 . S
H908 C921 0.927 1_455 S
H909 C922 0.930 . S
H910 C926 0.959 . S
H911 C926 0.959 . S
H912 C926 0.961 . S
H913 C927 0.960 . S
H914 C927 0.961 . S
H915 C927 0.959 1_455 S
H916 C930 0.929 . S
H917 C931 0.931 . S
H918 C933 0.930 1_655 S
C919 H907 0.930 . S
C919 C920 1.399 . S
C919 C924 1.399 . S
C920 C919 1.399 . S
C920 C921 1.385 . S
C921 H908 0.927 1_655 S
C921 C920 1.385 . S
C921 C922 1.383 1_655 S
C922 H909 0.930 . S
C922 C921 1.383 1_455 S
C922 C923 1.390 . S
C923 C922 1.390 . S
C923 C924 1.394 1_455 S
C923 C929 1.465 . S
C924 C919 1.399 . S
C924 C923 1.394 1_655 S
C924 C925 1.516 . S
C925 C924 1.516 . S
C925 C926 1.502 . S
C925 C927 1.561 . S
C925 C928 1.526 1_655 S
C926 H910 0.959 . S
C926 H911 0.959 . S
C926 H912 0.961 . S
C926 C925 1.502 . S
C927 H913 0.960 . S
C927 H914 0.961 . S
C927 H915 0.959 1_655 S
C927 C925 1.561 . S
C928 C925 1.526 1_455 S
C928 C929 1.396 . S
C928 C933 1.390 . S
C929 C923 1.465 . S
C929 C928 1.396 . S
C929 C930 1.399 . S
C930 H916 0.929 . S
C930 C929 1.399 . S
C930 C931 1.385 . S
C931 H917 0.931 . S
C931 C930 1.385 . S
C931 C932 1.389 . S
C932 C931 1.389 . S
C932 C933 1.387 . S
C933 H918 0.930 1_455 S
C933 C928 1.390 . S
C933 C932 1.387 . S
H934 C946 0.930 . S
H935 C948 0.930 . S
H936 C949 0.930 . S
H937 C953 0.959 . S
H938 C953 0.959 . S
H939 C953 0.961 . S
H940 C954 0.960 . S
H941 C954 0.961 . S
H942 C954 0.959 . S
H943 C957 0.929 . S
H944 C958 0.931 . S
H945 C960 0.930 . S
C946 H934 0.930 . S
C946 C947 1.399 . S
C946 C951 1.399 . S
C947 C946 1.399 . S
C947 C948 1.376 1_556 S
C948 H935 0.930 . S
C948 C947 1.376 1_554 S
C948 C949 1.388 . S
C949 H936 0.930 . S
C949 C948 1.388 . S
C949 C950 1.390 . S
C950 C949 1.390 . S
C950 C951 1.394 1_554 S
C950 C956 1.465 . S
C951 C946 1.399 . S
C951 C950 1.394 1_556 S
C951 C952 1.516 . S
C952 C951 1.516 . S
C952 C953 1.502 . S
C952 C954 1.561 . S
C952 C955 1.526 . S
C953 H937 0.959 . S
C953 H938 0.959 . S
C953 H939 0.961 . S
C953 C952 1.502 . S
C954 H940 0.960 . S
C954 H941 0.961 . S
C954 H942 0.959 . S
C954 C952 1.561 . S
C955 C952 1.526 . S
C955 C956 1.396 1_556 S
C955 C960 1.390 . S
C956 C950 1.465 . S
C956 C955 1.396 1_554 S
C956 C957 1.399 . S
C957 H943 0.929 . S
C957 C956 1.399 . S
C957 C958 1.385 . S
C958 H944 0.931 . S
C958 C957 1.385 . S
C958 C959 1.389 . S
C959 C958 1.389 . S
C959 C960 1.387 1_554 S
C960 H945 0.930 . S
C960 C955 1.390 . S
C960 C959 1.387 1_556 S
H961 C973 0.930 1_655 S
H962 C975 0.930 . S
H963 C976 0.930 . S
H964 C980 0.959 . S
H965 C980 0.959 . S
H966 C980 0.961 . S
H967 C981 0.960 . S
H968 C981 0.961 . S
H969 C981 0.959 1_556 S
H970 C984 0.929 . S
H971 C985 0.931 1_455 S
H972 C987 0.930 . S
C973 H961 0.930 1_455 S
C973 C974 1.399 1_554 S
C973 C978 1.399 1_455 S
C974 C973 1.399 1_556 S
C974 C975 1.376 . S
C975 H962 0.930 . S
C975 C974 1.376 . S
C975 C976 1.388 . S
C976 H963 0.930 . S
C976 C975 1.388 . S
C976 C977 1.390 . S
C977 C976 1.390 . S
C977 C978 1.394 1_456 S
C977 C983 1.465 1_545 S
C978 C973 1.399 1_655 S
C978 C977 1.394 1_654 S
C978 C979 1.516 . S
C979 C978 1.516 . S
C979 C980 1.502 . S
C979 C981 1.561 . S
C979 C982 1.526 1_545 S
C980 H964 0.959 . S
C980 H965 0.959 . S
C980 H966 0.961 . S
C980 C979 1.502 . S
C981 H967 0.960 . S
C981 H968 0.961 . S
C981 H969 0.959 1_554 S
C981 C979 1.561 . S
C982 C979 1.526 1_565 S
C982 C983 1.396 1_654 S
C982 C987 1.390 . S
C983 C977 1.465 1_565 S
C983 C982 1.396 1_456 S
C983 C984 1.399 . S
C984 H970 0.929 . S
C984 C983 1.399 . S
C984 C985 1.385 1_455 S
C985 H971 0.931 1_655 S
C985 C984 1.385 1_655 S
C985 C986 1.389 1_556 S
C986 C985 1.389 1_554 S
C986 C987 1.387 . S
C987 H972 0.930 . S
C987 C982 1.390 . S
C987 C986 1.387 . S
H988 C1000 0.930 . S
H989 C1002 0.930 . S
H990 C1003 0.930 . S
H991 C1007 0.959 1_545 S
H992 C1007 0.959 . S
H993 C1007 0.961 1_545 S
H994 C1008 0.960 . S
H995 C1008 0.961 . S
H996 C1008 0.959 . S
H997 C1011 0.929 . S
H998 C1012 0.931 . S
H999 C1014 0.930 . S
C1000 H988 0.930 . S
C1000 C1001 1.399 . S
C1000 C1005 1.399 . S
C1001 C1000 1.399 . S
C1001 C1002 1.376 . S
C1002 H989 0.930 . S
C1002 C1001 1.376 . S
C1002 C1003 1.388 . S
C1003 H990 0.930 . S
C1003 C1002 1.388 . S
C1003 C1004 1.390 . S
C1004 C1003 1.390 . S
C1004 C1005 1.394 . S
C1004 C1010 1.465 1_545 S
C1005 C1000 1.399 . S
C1005 C1004 1.394 . S
C1005 C1006 1.516 1_545 S
C1006 C1005 1.516 1_565 S
C1006 C1007 1.502 . S
C1006 C1008 1.561 . S
C1006 C1009 1.526 . S
C1007 H991 0.959 1_565 S
C1007 H992 0.959 . S
C1007 H993 0.961 1_565 S
C1007 C1006 1.502 . S
C1008 H994 0.960 . S
C1008 H995 0.961 . S
C1008 H996 0.959 . S
C1008 C1006 1.561 . S
C1009 C1006 1.526 . S
C1009 C1010 1.396 . S
C1009 C1014 1.390 . S
C1010 C1004 1.465 1_565 S
C1010 C1009 1.396 . S
C1010 C1011 1.399 . S
C1011 H997 0.929 . S
C1011 C1010 1.399 . S
C1011 C1012 1.385 . S
C1012 H998 0.931 . S
C1012 C1011 1.385 . S
C1012 C1013 1.389 . S
C1013 C1012 1.389 . S
C1013 C1014 1.387 . S
C1014 H999 0.930 . S
C1014 C1009 1.390 . S
C1014 C1013 1.387 . S
H1015 C1027 0.930 . S
H1016 C1029 0.930 . S
H1017 C1030 0.930 . S
H1018 C1034 0.959 . S
H1019 C1034 0.959 . S
H1020 C1034 0.961 . S
H1021 C1035 0.960 . S
H1022 C1035 0.961 1_655 S
H1023 C1035 0.959 . S
H1024 C1038 0.929 . S
H1025 C1039 0.931 . S
H1026 C1041 0.930 . S
C1027 H1015 0.930 . S
C1027 C1028 1.399 . S
C1027 C1032 1.399 . S
C1028 C1027 1.399 . S
C1028 C1029 1.376 . S
C1029 H1016 0.930 . S
C1029 C1028 1.376 . S
C1029 C1030 1.388 . S
C1030 H1017 0.930 . S
C1030 C1029 1.388 . S
C1030 C1031 1.390 . S
C1031 C1030 1.390 . S
C1031 C1032 1.394 . S
C1031 C1037 1.465 . S
C1032 C1027 1.399 . S
C1032 C1031 1.394 . S
C1032 C1033 1.516 1_455 S
C1033 C1032 1.516 1_655 S
C1033 C1034 1.502 . S
C1033 C1035 1.561 1_655 S
C1033 C1036 1.526 . S
C1034 H1018 0.959 . S
C1034 H1019 0.959 . S
C1034 H1020 0.961 . S
C1034 C1033 1.502 . S
C1035 H1021 0.960 . S
C1035 H1022 0.961 1_455 S
C1035 H1023 0.959 . S
C1035 C1033 1.561 1_455 S
C1036 C1033 1.526 . S
C1036 C1037 1.396 1_655 S
C1036 C1041 1.390 . S
C1037 C1031 1.465 . S
C1037 C1036 1.396 1_455 S
C1037 C1038 1.399 . S
C1038 H1024 0.929 . S
C1038 C1037 1.399 . S
C1038 C1039 1.385 1_455 S
C1039 H1025 0.931 . S
C1039 C1038 1.385 1_655 S
C1039 C1040 1.389 . S
C1040 C1039 1.389 . S
C1040 C1041 1.387 . S
C1041 H1026 0.930 . S
C1041 C1036 1.390 . S
C1041 C1040 1.387 . S
H1042 C1054 0.930 . S
H1043 C1056 0.930 . S
H1044 C1057 0.930 . S
H1045 C1061 0.959 . S
H1046 C1061 0.959 . S
H1047 C1061 0.961 . S
H1048 C1062 0.960 . S
H1049 C1062 0.961 . S
H1050 C1062 0.959 . S
H1051 C1065 0.929 . S
H1052 C1066 0.931 . S
H1053 C1068 0.930 . S
C1054 H1042 0.930 . S
C1054 C1055 1.399 . S
C1054 C1059 1.399 . S
C1055 C1054 1.399 . S
C1055 C1056 1.376 1_556 S
C1056 H1043 0.930 . S
C1056 C1055 1.376 1_554 S
C1056 C1057 1.388 . S
C1057 H1044 0.930 . S
C1057 C1056 1.388 . S
C1057 C1058 1.390 . S
C1058 C1057 1.390 . S
C1058 C1059 1.394 1_554 S
C1058 C1064 1.465 . S
C1059 C1054 1.399 . S
C1059 C1058 1.394 1_556 S
C1059 C1060 1.516 . S
C1060 C1059 1.516 . S
C1060 C1061 1.502 . S
C1060 C1062 1.561 . S
C1060 C1063 1.526 . S
C1061 H1045 0.959 . S
C1061 H1046 0.959 . S
C1061 H1047 0.961 . S
C1061 C1060 1.502 . S
C1062 H1048 0.960 . S
C1062 H1049 0.961 . S
C1062 H1050 0.959 . S
C1062 C1060 1.561 . S
C1063 C1060 1.526 . S
C1063 C1064 1.396 1_556 S
C1063 C1068 1.390 . S
C1064 C1058 1.465 . S
C1064 C1063 1.396 1_554 S
C1064 C1065 1.399 . S
C1065 H1051 0.929 . S
C1065 C1064 1.399 . S
C1065 C1066 1.385 . S
C1066 H1052 0.931 . S
C1066 C1065 1.385 . S
C1066 C1067 1.389 . S
C1067 C1066 1.389 . S
C1067 C1068 1.387 1_554 S
C1068 H1053 0.930 . S
C1068 C1063 1.390 . S
C1068 C1067 1.387 1_556 S
H1069 C1081 0.930 . S
H1070 C1083 0.930 . S
H1071 C1084 0.930 . S
H1072 C1088 0.959 . S
H1073 C1088 0.959 . S
H1074 C1088 0.961 . S
H1075 C1089 0.960 . S
H1076 C1089 0.961 . S
H1077 C1089 0.959 . S
H1078 C1092 0.929 . S
H1079 C1093 0.931 . S
H1080 C1095 0.930 . S
C1081 H1069 0.930 . S
C1081 C1082 1.399 . S
C1081 C1086 1.399 . S
C1082 C1081 1.399 . S
C1082 C1083 1.376 . S
C1083 H1070 0.930 . S
C1083 C1082 1.376 . S
C1083 C1084 1.388 . S
C1084 H1071 0.930 . S
C1084 C1083 1.388 . S
C1084 C1085 1.390 . S
C1085 C1084 1.390 . S
C1085 C1086 1.394 . S
C1085 C1091 1.465 . S
C1086 C1081 1.399 . S
C1086 C1085 1.394 . S
C1086 C1087 1.516 . S
C1087 C1086 1.516 . S
C1087 C1088 1.502 . S
C1087 C1089 1.561 . S
C1087 C1090 1.526 . S
C1088 H1072 0.959 . S
C1088 H1073 0.959 . S
C1088 H1074 0.961 . S
C1088 C1087 1.502 . S
C1089 H1075 0.960 . S
C1089 H1076 0.961 . S
C1089 H1077 0.959 . S
C1089 C1087 1.561 . S
C1090 C1087 1.526 . S
C1090 C1091 1.396 . S
C1090 C1095 1.390 . S
C1091 C1085 1.465 . S
C1091 C1090 1.396 . S
C1091 C1092 1.399 . S
C1092 H1078 0.929 . S
C1092 C1091 1.399 . S
C1092 C1093 1.385 . S
C1093 H1079 0.931 . S
C1093 C1092 1.385 . S
C1093 C1094 1.389 . S
C1094 C1093 1.389 . S
C1094 C1095 1.387 . S
C1095 H1080 0.930 . S
C1095 C1090 1.390 . S
C1095 C1094 1.387 . S
H1096 C1108 0.930 . S
H1097 C1110 0.930 . S
H1098 C1111 0.930 . S
H1099 C1115 0.959 . S
H1100 C1115 0.959 . S
H1101 C1115 0.961 . S
H1102 C1116 0.960 . S
H1103 C1116 0.961 . S
H1104 C1116 0.959 . S
H1105 C1119 0.929 . S
H1106 C1120 0.931 . S
H1107 C1122 0.930 . S
C1108 H1096 0.930 . S
C1108 C1109 1.399 . S
C1108 C1113 1.399 . S
C1109 C1108 1.399 . S
C1109 C1110 1.376 . S
C1110 H1097 0.930 . S
C1110 C1109 1.376 . S
C1110 C1111 1.388 . S
C1111 H1098 0.930 . S
C1111 C1110 1.388 . S
C1111 C1112 1.390 . S
C1112 C1111 1.390 . S
C1112 C1113 1.394 . S
C1112 C1118 1.465 . S
C1113 C1108 1.399 . S
C1113 C1112 1.394 . S
C1113 C1114 1.516 . S
C1114 C1113 1.516 . S
C1114 C1115 1.502 . S
C1114 C1116 1.561 . S
C1114 C1117 1.526 . S
C1115 H1099 0.959 . S
C1115 H1100 0.959 . S
C1115 H1101 0.961 . S
C1115 C1114 1.502 . S
C1116 H1102 0.960 . S
C1116 H1103 0.961 . S
C1116 H1104 0.959 . S
C1116 C1114 1.561 . S
C1117 C1114 1.526 . S
C1117 C1118 1.396 . S
C1117 C1122 1.390 . S
C1118 C1112 1.465 . S
C1118 C1117 1.396 . S
C1118 C1119 1.399 . S
C1119 H1105 0.929 . S
C1119 C1118 1.399 . S
C1119 C1120 1.385 . S
C1120 H1106 0.931 . S
C1120 C1119 1.385 . S
C1120 C1121 1.389 . S
C1121 C1120 1.389 . S
C1121 C1122 1.387 . S
C1122 H1107 0.930 . S
C1122 C1117 1.390 . S
C1122 C1121 1.387 . S
H1123 C1135 0.930 . S
H1124 C1137 0.930 . S
H1125 C1138 0.930 . S
H1126 C1142 0.959 . S
H1127 C1142 0.959 . S
H1128 C1142 0.961 . S
H1129 C1143 0.960 . S
H1130 C1143 0.961 1_455 S
H1131 C1143 0.959 . S
H1132 C1146 0.929 . S
H1133 C1147 0.931 . S
H1134 C1149 0.930 . S
C1135 H1123 0.930 . S
C1135 C1136 1.399 . S
C1135 C1140 1.399 . S
C1136 C1135 1.399 . S
C1136 C1137 1.376 . S
C1137 H1124 0.930 . S
C1137 C1136 1.376 . S
C1137 C1138 1.388 . S
C1138 H1125 0.930 . S
C1138 C1137 1.388 . S
C1138 C1139 1.390 . S
C1139 C1138 1.390 . S
C1139 C1140 1.394 . S
C1139 C1145 1.465 . S
C1140 C1135 1.399 . S
C1140 C1139 1.394 . S
C1140 C1141 1.516 1_655 S
C1141 C1140 1.516 1_455 S
C1141 C1142 1.502 . S
C1141 C1143 1.561 1_455 S
C1141 C1144 1.526 . S
C1142 H1126 0.959 . S
C1142 H1127 0.959 . S
C1142 H1128 0.961 . S
C1142 C1141 1.502 . S
C1143 H1129 0.960 . S
C1143 H1130 0.961 1_655 S
C1143 H1131 0.959 . S
C1143 C1141 1.561 1_655 S
C1144 C1141 1.526 . S
C1144 C1145 1.396 1_455 S
C1144 C1149 1.390 . S
C1145 C1139 1.465 . S
C1145 C1144 1.396 1_655 S
C1145 C1146 1.399 . S
C1146 H1132 0.929 . S
C1146 C1145 1.399 . S
C1146 C1147 1.385 1_655 S
C1147 H1133 0.931 . S
C1147 C1146 1.385 1_455 S
C1147 C1148 1.389 . S
C1148 C1147 1.389 . S
C1148 C1149 1.387 . S
C1149 H1134 0.930 . S
C1149 C1144 1.390 . S
C1149 C1148 1.387 . S
H1150 C1162 0.930 . S
H1151 C1164 0.930 . S
H1152 C1165 0.930 . S
H1153 C1169 0.959 . S
H1154 C1169 0.959 . S
H1155 C1169 0.961 . S
H1156 C1170 0.960 . S
H1157 C1170 0.961 . S
H1158 C1170 0.959 . S
H1159 C1173 0.929 . S
H1160 C1174 0.931 . S
H1161 C1176 0.930 . S
C1162 H1150 0.930 . S
C1162 C1163 1.399 . S
C1162 C1167 1.399 . S
C1163 C1162 1.399 . S
C1163 C1164 1.376 . S
C1164 H1151 0.930 . S
C1164 C1163 1.376 . S
C1164 C1165 1.388 . S
C1165 H1152 0.930 . S
C1165 C1164 1.388 . S
C1165 C1166 1.390 . S
C1166 C1165 1.390 . S
C1166 C1167 1.394 . S
C1166 C1172 1.465 . S
C1167 C1162 1.399 . S
C1167 C1166 1.394 . S
C1167 C1168 1.516 . S
C1168 C1167 1.516 . S
C1168 C1169 1.502 . S
C1168 C1170 1.561 . S
C1168 C1171 1.526 . S
C1169 H1153 0.959 . S
C1169 H1154 0.959 . S
C1169 H1155 0.961 . S
C1169 C1168 1.502 . S
C1170 H1156 0.960 . S
C1170 H1157 0.961 . S
C1170 H1158 0.959 . S
C1170 C1168 1.561 . S
C1171 C1168 1.526 . S
C1171 C1172 1.396 . S
C1171 C1176 1.390 . S
C1172 C1166 1.465 . S
C1172 C1171 1.396 . S
C1172 C1173 1.399 . S
C1173 H1159 0.929 . S
C1173 C1172 1.399 . S
C1173 C1174 1.385 . S
C1174 H1160 0.931 . S
C1174 C1173 1.385 . S
C1174 C1175 1.389 . S
C1175 C1174 1.389 . S
C1175 C1176 1.387 . S
C1176 H1161 0.930 . S
C1176 C1171 1.390 . S
C1176 C1175 1.387 . S
H1177 C1189 0.930 . S
H1178 C1191 0.930 . S
H1179 C1192 0.930 . S
H1180 C1196 0.959 . S
H1181 C1196 0.959 . S
H1182 C1196 0.961 . S
H1183 C1197 0.960 . S
H1184 C1197 0.961 . S
H1185 C1197 0.959 . S
H1186 C1200 0.929 . S
H1187 C1201 0.931 . S
H1188 C1203 0.930 . S
C1189 H1177 0.930 . S
C1189 C1190 1.399 . S
C1189 C1194 1.399 . S
C1190 C1189 1.399 . S
C1190 C1191 1.376 . S
C1191 H1178 0.930 . S
C1191 C1190 1.376 . S
C1191 C1192 1.388 . S
C1192 H1179 0.930 . S
C1192 C1191 1.388 . S
C1192 C1193 1.390 . S
C1193 C1192 1.390 . S
C1193 C1194 1.394 . S
C1193 C1199 1.465 . S
C1194 C1189 1.399 . S
C1194 C1193 1.394 . S
C1194 C1195 1.516 . S
C1195 C1194 1.516 . S
C1195 C1196 1.502 . S
C1195 C1197 1.561 . S
C1195 C1198 1.526 . S
C1196 H1180 0.959 . S
C1196 H1181 0.959 . S
C1196 H1182 0.961 . S
C1196 C1195 1.502 . S
C1197 H1183 0.960 . S
C1197 H1184 0.961 . S
C1197 H1185 0.959 . S
C1197 C1195 1.561 . S
C1198 C1195 1.526 . S
C1198 C1199 1.396 . S
C1198 C1203 1.390 . S
C1199 C1193 1.465 . S
C1199 C1198 1.396 . S
C1199 C1200 1.399 . S
C1200 H1186 0.929 . S
C1200 C1199 1.399 . S
C1200 C1201 1.385 . S
C1201 H1187 0.931 . S
C1201 C1200 1.385 . S
C1201 C1202 1.389 . S
C1202 C1201 1.389 . S
C1202 C1203 1.387 . S
C1203 H1188 0.930 . S
C1203 C1198 1.390 . S
C1203 C1202 1.387 . S
H1204 C1216 0.930 . S
H1205 C1218 0.930 . S
H1206 C1219 0.930 . S
H1207 C1223 0.959 . S
H1208 C1223 0.959 . S
H1209 C1223 0.961 . S
H1210 C1224 0.960 . S
H1211 C1224 0.961 . S
H1212 C1224 0.959 . S
H1213 C1227 0.929 . S
H1214 C1228 0.931 . S
H1215 C1230 0.930 . S
C1216 H1204 0.930 . S
C1216 C1217 1.399 . S
C1216 C1221 1.399 . S
C1217 C1216 1.399 . S
C1217 C1218 1.376 . S
C1218 H1205 0.930 . S
C1218 C1217 1.376 . S
C1218 C1219 1.388 . S
C1219 H1206 0.930 . S
C1219 C1218 1.388 . S
C1219 C1220 1.390 . S
C1220 C1219 1.390 . S
C1220 C1221 1.394 . S
C1220 C1226 1.465 . S
C1221 C1216 1.399 . S
C1221 C1220 1.394 . S
C1221 C1222 1.516 . S
C1222 C1221 1.516 . S
C1222 C1223 1.502 . S
C1222 C1224 1.561 . S
C1222 C1225 1.526 . S
C1223 H1207 0.959 . S
C1223 H1208 0.959 . S
C1223 H1209 0.961 . S
C1223 C1222 1.502 . S
C1224 H1210 0.960 . S
C1224 H1211 0.961 . S
C1224 H1212 0.959 . S
C1224 C1222 1.561 . S
C1225 C1222 1.526 . S
C1225 C1226 1.396 . S
C1225 C1230 1.390 . S
C1226 C1220 1.465 . S
C1226 C1225 1.396 . S
C1226 C1227 1.399 . S
C1227 H1213 0.929 . S
C1227 C1226 1.399 . S
C1227 C1228 1.385 . S
C1228 H1214 0.931 . S
C1228 C1227 1.385 . S
C1228 C1229 1.389 . S
C1229 C1228 1.389 . S
C1229 C1230 1.387 . S
C1230 H1215 0.930 . S
C1230 C1225 1.390 . S
C1230 C1229 1.387 . S
H1231 C1243 0.930 . S
H1232 C1245 0.930 . S
H1233 C1246 0.930 . S
H1234 C1250 0.959 . S
H1235 C1250 0.959 . S
H1236 C1250 0.961 . S
H1237 C1251 0.960 . S
H1238 C1251 0.961 . S
H1239 C1251 0.959 . S
H1240 C1254 0.929 . S
H1241 C1255 0.931 . S
H1242 C1257 0.930 . S
C1243 H1231 0.930 . S
C1243 C1244 1.399 . S
C1243 C1248 1.399 . S
C1244 C1243 1.399 . S
C1244 C1245 1.376 . S
C1245 H1232 0.930 . S
C1245 C1244 1.376 . S
C1245 C1246 1.388 . S
C1246 H1233 0.930 . S
C1246 C1245 1.388 . S
C1246 C1247 1.390 . S
C1247 C1246 1.390 . S
C1247 C1248 1.394 . S
C1247 C1253 1.465 1_545 S
C1248 C1243 1.399 . S
C1248 C1247 1.394 . S
C1248 C1249 1.516 1_545 S
C1249 C1248 1.516 1_565 S
C1249 C1250 1.502 . S
C1249 C1251 1.561 . S
C1249 C1252 1.526 . S
C1250 H1234 0.959 . S
C1250 H1235 0.959 . S
C1250 H1236 0.961 . S
C1250 C1249 1.502 . S
C1251 H1237 0.960 . S
C1251 H1238 0.961 . S
C1251 H1239 0.959 . S
C1251 C1249 1.561 . S
C1252 C1249 1.526 . S
C1252 C1253 1.396 . S
C1252 C1257 1.390 . S
C1253 C1247 1.465 1_565 S
C1253 C1252 1.396 . S
C1253 C1254 1.399 . S
C1254 H1240 0.929 . S
C1254 C1253 1.399 . S
C1254 C1255 1.385 . S
C1255 H1241 0.931 . S
C1255 C1254 1.385 . S
C1255 C1256 1.389 . S
C1256 C1255 1.389 . S
C1256 C1257 1.387 . S
C1257 H1242 0.930 . S
C1257 C1252 1.390 . S
C1257 C1256 1.387 . S
H1258 C1270 0.930 . S
H1259 C1272 0.930 . S
H1260 C1273 0.930 . S
H1261 C1277 0.959 . S
H1262 C1277 0.959 . S
H1263 C1277 0.961 . S
H1264 C1278 0.960 . S
H1265 C1278 0.961 . S
H1266 C1278 0.959 . S
H1267 C1281 0.929 . S
H1268 C1282 0.931 . S
H1269 C1284 0.930 . S
C1270 H1258 0.930 . S
C1270 C1271 1.399 . S
C1270 C1275 1.399 . S
C1271 C1270 1.399 . S
C1271 C1272 1.376 . S
C1272 H1259 0.930 . S
C1272 C1271 1.376 . S
C1272 C1273 1.388 . S
C1273 H1260 0.930 . S
C1273 C1272 1.388 . S
C1273 C1274 1.390 . S
C1274 C1273 1.390 . S
C1274 C1275 1.394 . S
C1274 C1280 1.465 . S
C1275 C1270 1.399 . S
C1275 C1274 1.394 . S
C1275 C1276 1.516 . S
C1276 C1275 1.516 . S
C1276 C1277 1.502 . S
C1276 C1278 1.561 . S
C1276 C1279 1.526 . S
C1277 H1261 0.959 . S
C1277 H1262 0.959 . S
C1277 H1263 0.961 . S
C1277 C1276 1.502 . S
C1278 H1264 0.960 . S
C1278 H1265 0.961 . S
C1278 H1266 0.959 . S
C1278 C1276 1.561 . S
C1279 C1276 1.526 . S
C1279 C1280 1.396 . S
C1279 C1284 1.390 . S
C1280 C1274 1.465 . S
C1280 C1279 1.396 . S
C1280 C1281 1.399 . S
C1281 H1267 0.929 . S
C1281 C1280 1.399 . S
C1281 C1282 1.385 . S
C1282 H1268 0.931 . S
C1282 C1281 1.385 . S
C1282 C1283 1.389 . S
C1283 C1282 1.389 . S
C1283 C1284 1.387 . S
C1284 H1269 0.930 . S
C1284 C1279 1.390 . S
C1284 C1283 1.387 . S
H1285 C1297 0.930 . S
H1286 C1299 0.930 . S
H1287 C1300 0.930 . S
H1288 C1304 0.959 . S
H1289 C1304 0.959 . S
H1290 C1304 0.961 . S
H1291 C1305 0.960 . S
H1292 C1305 0.961 . S
H1293 C1305 0.959 . S
H1294 C1308 0.929 . S
H1295 C1309 0.931 . S
H1296 C1311 0.930 . S
C1297 H1285 0.930 . S
C1297 C1298 1.399 . S
C1297 C1302 1.399 . S
C1298 C1297 1.399 . S
C1298 C1299 1.376 1_554 S
C1299 H1286 0.930 . S
C1299 C1298 1.376 1_556 S
C1299 C1300 1.388 . S
C1300 H1287 0.930 . S
C1300 C1299 1.388 . S
C1300 C1301 1.390 . S
C1301 C1300 1.390 . S
C1301 C1302 1.394 1_556 S
C1301 C1307 1.465 . S
C1302 C1297 1.399 . S
C1302 C1301 1.394 1_554 S
C1302 C1303 1.516 . S
C1303 C1302 1.516 . S
C1303 C1304 1.502 . S
C1303 C1305 1.561 . S
C1303 C1306 1.526 . S
C1304 H1288 0.959 . S
C1304 H1289 0.959 . S
C1304 H1290 0.961 . S
C1304 C1303 1.502 . S
C1305 H1291 0.960 . S
C1305 H1292 0.961 . S
C1305 H1293 0.959 . S
C1305 C1303 1.561 . S
C1306 C1303 1.526 . S
C1306 C1307 1.396 1_554 S
C1306 C1311 1.390 . S
C1307 C1301 1.465 . S
C1307 C1306 1.396 1_556 S
C1307 C1308 1.399 . S
C1308 H1294 0.929 . S
C1308 C1307 1.399 . S
C1308 C1309 1.385 . S
C1309 H1295 0.931 . S
C1309 C1308 1.385 . S
C1309 C1310 1.389 . S
C1310 C1309 1.389 . S
C1310 C1311 1.387 1_556 S
C1311 H1296 0.930 . S
C1311 C1306 1.390 . S
C1311 C1310 1.387 1_554 S
H1312 C1324 0.930 . S
H1313 C1326 0.930 . S
H1314 C1327 0.930 . S
H1315 C1331 0.959 . S
H1316 C1331 0.959 . S
H1317 C1331 0.961 . S
H1318 C1332 0.960 . S
H1319 C1332 0.961 . S
H1320 C1332 0.959 . S
H1321 C1335 0.929 . S
H1322 C1336 0.931 . S
H1323 C1338 0.930 . S
C1324 H1312 0.930 . S
C1324 C1325 1.399 . S
C1324 C1329 1.399 . S
C1325 C1324 1.399 . S
C1325 C1326 1.376 . S
C1326 H1313 0.930 . S
C1326 C1325 1.376 . S
C1326 C1327 1.388 . S
C1327 H1314 0.930 . S
C1327 C1326 1.388 . S
C1327 C1328 1.390 . S
C1328 C1327 1.390 . S
C1328 C1329 1.394 . S
C1328 C1334 1.465 . S
C1329 C1324 1.399 . S
C1329 C1328 1.394 . S
C1329 C1330 1.516 . S
C1330 C1329 1.516 . S
C1330 C1331 1.502 . S
C1330 C1332 1.561 . S
C1330 C1333 1.526 . S
C1331 H1315 0.959 . S
C1331 H1316 0.959 . S
C1331 H1317 0.961 . S
C1331 C1330 1.502 . S
C1332 H1318 0.960 . S
C1332 H1319 0.961 . S
C1332 H1320 0.959 . S
C1332 C1330 1.561 . S
C1333 C1330 1.526 . S
C1333 C1334 1.396 . S
C1333 C1338 1.390 . S
C1334 C1328 1.465 . S
C1334 C1333 1.396 . S
C1334 C1335 1.399 . S
C1335 H1321 0.929 . S
C1335 C1334 1.399 . S
C1335 C1336 1.385 . S
C1336 H1322 0.931 . S
C1336 C1335 1.385 . S
C1336 C1337 1.389 . S
C1337 C1336 1.389 . S
C1337 C1338 1.387 . S
C1338 H1323 0.930 . S
C1338 C1333 1.390 . S
C1338 C1337 1.387 . S
H1339 C1351 0.930 . S
H1340 C1353 0.930 . S
H1341 C1354 0.930 . S
H1342 C1358 0.959 . S
H1343 C1358 0.959 . S
H1344 C1358 0.961 . S
H1345 C1359 0.960 . S
H1346 C1359 0.961 . S
H1347 C1359 0.959 1_556 S
H1348 C1362 0.929 . S
H1349 C1363 0.931 . S
H1350 C1365 0.930 . S
C1351 H1339 0.930 . S
C1351 C1352 1.399 1_554 S
C1351 C1356 1.399 1_554 S
C1352 C1351 1.399 1_556 S
C1352 C1353 1.376 . S
C1353 H1340 0.930 . S
C1353 C1352 1.376 . S
C1353 C1354 1.388 . S
C1354 H1341 0.930 . S
C1354 C1353 1.388 . S
C1354 C1355 1.390 . S
C1355 C1354 1.390 . S
C1355 C1356 1.394 . S
C1355 C1361 1.465 . S
C1356 C1351 1.399 1_556 S
C1356 C1355 1.394 . S
C1356 C1357 1.516 1_556 S
C1357 C1356 1.516 1_554 S
C1357 C1358 1.502 . S
C1357 C1359 1.561 1_455 S
C1357 C1360 1.526 1_554 S
C1358 H1342 0.959 . S
C1358 H1343 0.959 . S
C1358 H1344 0.961 . S
C1358 C1357 1.502 . S
C1359 H1345 0.960 . S
C1359 H1346 0.961 . S
C1359 H1347 0.959 1_554 S
C1359 C1357 1.561 1_655 S
C1360 C1357 1.526 1_556 S
C1360 C1361 1.396 . S
C1360 C1365 1.390 1_556 S
C1361 C1355 1.465 . S
C1361 C1360 1.396 . S
C1361 C1362 1.399 . S
C1362 H1348 0.929 . S
C1362 C1361 1.399 . S
C1362 C1363 1.385 . S
C1363 H1349 0.931 . S
C1363 C1362 1.385 . S
C1363 C1364 1.389 . S
C1364 C1363 1.389 . S
C1364 C1365 1.387 1_556 S
C1365 H1350 0.930 . S
C1365 C1360 1.390 1_554 S
C1365 C1364 1.387 1_554 S
H1366 C1378 0.930 . S
H1367 C1380 0.930 . S
H1368 C1381 0.930 . S
H1369 C1385 0.959 . S
H1370 C1385 0.959 . S
H1371 C1385 0.961 . S
H1372 C1386 0.960 . S
H1373 C1386 0.961 . S
H1374 C1386 0.959 . S
H1375 C1389 0.929 . S
H1376 C1390 0.931 . S
H1377 C1392 0.930 . S
C1378 H1366 0.930 . S
C1378 C1379 1.399 . S
C1378 C1383 1.399 . S
C1379 C1378 1.399 . S
C1379 C1380 1.376 . S
C1380 H1367 0.930 . S
C1380 C1379 1.376 . S
C1380 C1381 1.388 . S
C1381 H1368 0.930 . S
C1381 C1380 1.388 . S
C1381 C1382 1.390 . S
C1382 C1381 1.390 . S
C1382 C1383 1.394 . S
C1382 C1388 1.465 . S
C1383 C1378 1.399 . S
C1383 C1382 1.394 . S
C1383 C1384 1.516 . S
C1384 C1383 1.516 . S
C1384 C1385 1.502 . S
C1384 C1386 1.561 . S
C1384 C1387 1.526 . S
C1385 H1369 0.959 . S
C1385 H1370 0.959 . S
C1385 H1371 0.961 . S
C1385 C1384 1.502 . S
C1386 H1372 0.960 . S
C1386 H1373 0.961 . S
C1386 H1374 0.959 . S
C1386 C1384 1.561 . S
C1387 C1384 1.526 . S
C1387 C1388 1.396 . S
C1387 C1392 1.390 . S
C1388 C1382 1.465 . S
C1388 C1387 1.396 . S
C1388 C1389 1.399 . S
C1389 H1375 0.929 . S
C1389 C1388 1.399 . S
C1389 C1390 1.385 . S
C1390 H1376 0.931 . S
C1390 C1389 1.385 . S
C1390 C1391 1.389 . S
C1391 C1390 1.389 . S
C1391 C1392 1.387 . S
C1392 H1377 0.930 . S
C1392 C1387 1.390 . S
C1392 C1391 1.387 . S
H1393 C1405 0.930 . S
H1394 C1407 0.930 . S
H1395 C1408 0.930 . S
H1396 C1412 0.959 1_455 S
H1397 C1412 0.959 . S
H1398 C1412 0.961 . S
H1399 C1413 0.960 . S
H1400 C1413 0.961 . S
H1401 C1413 0.959 . S
H1402 C1416 0.929 . S
H1403 C1417 0.931 . S
H1404 C1419 0.930 . S
C1405 H1393 0.930 . S
C1405 C1406 1.399 . S
C1405 C1410 1.399 . S
C1406 C1405 1.399 . S
C1406 C1407 1.376 1_554 S
C1407 H1394 0.930 . S
C1407 C1406 1.376 1_556 S
C1407 C1408 1.388 . S
C1408 H1395 0.930 . S
C1408 C1407 1.388 . S
C1408 C1409 1.390 1_556 S
C1409 C1408 1.390 1_554 S
C1409 C1410 1.394 . S
C1409 C1415 1.465 . S
C1410 C1405 1.399 . S
C1410 C1409 1.394 . S
C1410 C1411 1.516 . S
C1411 C1410 1.516 . S
C1411 C1412 1.502 . S
C1411 C1413 1.561 . S
C1411 C1414 1.526 . S
C1412 H1396 0.959 1_655 S
C1412 H1397 0.959 . S
C1412 H1398 0.961 . S
C1412 C1411 1.502 . S
C1413 H1399 0.960 . S
C1413 H1400 0.961 . S
C1413 H1401 0.959 . S
C1413 C1411 1.561 . S
C1414 C1411 1.526 . S
C1414 C1415 1.396 . S
C1414 C1419 1.390 . S
C1415 C1409 1.465 . S
C1415 C1414 1.396 . S
C1415 C1416 1.399 1_554 S
C1416 H1402 0.929 . S
C1416 C1415 1.399 1_556 S
C1416 C1417 1.385 . S
C1417 H1403 0.931 . S
C1417 C1416 1.385 . S
C1417 C1418 1.389 1_556 S
C1418 C1417 1.389 1_554 S
C1418 C1419 1.387 . S
C1419 H1404 0.930 . S
C1419 C1414 1.390 . S
C1419 C1418 1.387 . S
H1420 C1432 0.930 . S
H1421 C1434 0.930 . S
H1422 C1435 0.930 . S
H1423 C1439 0.959 . S
H1424 C1439 0.959 . S
H1425 C1439 0.961 . S
H1426 C1440 0.960 . S
H1427 C1440 0.961 . S
H1428 C1440 0.959 . S
H1429 C1443 0.929 . S
H1430 C1444 0.931 . S
H1431 C1446 0.930 . S
C1432 H1420 0.930 . S
C1432 C1433 1.399 . S
C1432 C1437 1.399 . S
C1433 C1432 1.399 . S
C1433 C1434 1.376 . S
C1434 H1421 0.930 . S
C1434 C1433 1.376 . S
C1434 C1435 1.388 . S
C1435 H1422 0.930 . S
C1435 C1434 1.388 . S
C1435 C1436 1.390 . S
C1436 C1435 1.390 . S
C1436 C1437 1.394 . S
C1436 C1442 1.465 . S
C1437 C1432 1.399 . S
C1437 C1436 1.394 . S
C1437 C1438 1.516 . S
C1438 C1437 1.516 . S
C1438 C1439 1.502 . S
C1438 C1440 1.561 . S
C1438 C1441 1.526 . S
C1439 H1423 0.959 . S
C1439 H1424 0.959 . S
C1439 H1425 0.961 . S
C1439 C1438 1.502 . S
C1440 H1426 0.960 . S
C1440 H1427 0.961 . S
C1440 H1428 0.959 . S
C1440 C1438 1.561 . S
C1441 C1438 1.526 . S
C1441 C1442 1.396 . S
C1441 C1446 1.390 . S
C1442 C1436 1.465 . S
C1442 C1441 1.396 . S
C1442 C1443 1.399 . S
C1443 H1429 0.929 . S
C1443 C1442 1.399 . S
C1443 C1444 1.385 . S
C1444 H1430 0.931 . S
C1444 C1443 1.385 . S
C1444 C1445 1.389 . S
C1445 C1444 1.389 . S
C1445 C1446 1.387 . S
C1446 H1431 0.930 . S
C1446 C1441 1.390 . S
C1446 C1445 1.387 . S
H1447 C1459 0.930 . S
H1448 C1461 0.930 . S
H1449 C1462 0.930 . S
H1450 C1466 0.959 . S
H1451 C1466 0.959 . S
H1452 C1466 0.961 . S
H1453 C1467 0.960 . S
H1454 C1467 0.961 . S
H1455 C1467 0.959 . S
H1456 C1470 0.929 . S
H1457 C1471 0.931 . S
H1458 C1473 0.930 . S
C1459 H1447 0.930 . S
C1459 C1460 1.399 . S
C1459 C1464 1.399 . S
C1460 C1459 1.399 . S
C1460 C1461 1.376 . S
C1461 H1448 0.930 . S
C1461 C1460 1.376 . S
C1461 C1462 1.388 . S
C1462 H1449 0.930 . S
C1462 C1461 1.388 . S
C1462 C1463 1.390 . S
C1463 C1462 1.390 . S
C1463 C1464 1.394 . S
C1463 C1469 1.465 . S
C1464 C1459 1.399 . S
C1464 C1463 1.394 . S
C1464 C1465 1.516 . S
C1465 C1464 1.516 . S
C1465 C1466 1.502 . S
C1465 C1467 1.561 . S
C1465 C1468 1.526 . S
C1466 H1450 0.959 . S
C1466 H1451 0.959 . S
C1466 H1452 0.961 . S
C1466 C1465 1.502 . S
C1467 H1453 0.960 . S
C1467 H1454 0.961 . S
C1467 H1455 0.959 . S
C1467 C1465 1.561 . S
C1468 C1465 1.526 . S
C1468 C1469 1.396 . S
C1468 C1473 1.390 . S
C1469 C1463 1.465 . S
C1469 C1468 1.396 . S
C1469 C1470 1.399 . S
C1470 H1456 0.929 . S
C1470 C1469 1.399 . S
C1470 C1471 1.385 . S
C1471 H1457 0.931 . S
C1471 C1470 1.385 . S
C1471 C1472 1.389 . S
C1472 C1471 1.389 . S
C1472 C1473 1.387 . S
C1473 H1458 0.930 . S
C1473 C1468 1.390 . S
C1473 C1472 1.387 . S
H1474 C1486 0.930 . S
H1475 C1488 0.930 . S
H1476 C1489 0.930 . S
H1477 C1493 0.959 1_455 S
H1478 C1493 0.959 1_455 S
H1479 C1493 0.961 1_455 S
H1480 C1494 0.960 . S
H1481 C1494 0.961 . S
H1482 C1494 0.959 . S
H1483 C1497 0.929 . S
H1484 C1498 0.931 . S
H1485 C1500 0.930 . S
C1486 H1474 0.930 . S
C1486 C1487 1.399 . S
C1486 C1491 1.399 . S
C1487 C1486 1.399 . S
C1487 C1488 1.376 . S
C1488 H1475 0.930 . S
C1488 C1487 1.376 . S
C1488 C1489 1.388 . S
C1489 H1476 0.930 . S
C1489 C1488 1.388 . S
C1489 C1490 1.390 . S
C1490 C1489 1.390 . S
C1490 C1491 1.394 . S
C1490 C1496 1.465 . S
C1491 C1486 1.399 . S
C1491 C1490 1.394 . S
C1491 C1492 1.516 . S
C1492 C1491 1.516 . S
C1492 C1493 1.502 . S
C1492 C1494 1.561 . S
C1492 C1495 1.526 . S
C1493 H1477 0.959 1_655 S
C1493 H1478 0.959 1_655 S
C1493 H1479 0.961 1_655 S
C1493 C1492 1.502 . S
C1494 H1480 0.960 . S
C1494 H1481 0.961 . S
C1494 H1482 0.959 . S
C1494 C1492 1.561 . S
C1495 C1492 1.526 . S
C1495 C1496 1.396 . S
C1495 C1500 1.390 . S
C1496 C1490 1.465 . S
C1496 C1495 1.396 . S
C1496 C1497 1.399 . S
C1497 H1483 0.929 . S
C1497 C1496 1.399 . S
C1497 C1498 1.385 . S
C1498 H1484 0.931 . S
C1498 C1497 1.385 . S
C1498 C1499 1.389 . S
C1499 C1498 1.389 . S
C1499 C1500 1.387 . S
C1500 H1485 0.930 . S
C1500 C1495 1.390 . S
C1500 C1499 1.387 . S
H1501 C1513 0.930 . S
H1502 C1515 0.930 . S
H1503 C1516 0.930 . S
H1504 C1520 0.959 . S
H1505 C1520 0.959 . S
H1506 C1520 0.961 . S
H1507 C1521 0.960 1_455 S
H1508 C1521 0.961 1_455 S
H1509 C1521 0.959 1_455 S
H1510 C1524 0.929 . S
H1511 C1525 0.931 . S
H1512 C1527 0.930 . S
C1513 H1501 0.930 . S
C1513 C1514 1.399 . S
C1513 C1518 1.399 . S
C1514 C1513 1.399 . S
C1514 C1515 1.376 . S
C1515 H1502 0.930 . S
C1515 C1514 1.376 . S
C1515 C1516 1.388 . S
C1516 H1503 0.930 . S
C1516 C1515 1.388 . S
C1516 C1517 1.390 . S
C1517 C1516 1.390 . S
C1517 C1518 1.394 . S
C1517 C1523 1.465 . S
C1518 C1513 1.399 . S
C1518 C1517 1.394 . S
C1518 C1519 1.516 . S
C1519 C1518 1.516 . S
C1519 C1520 1.502 . S
C1519 C1521 1.561 . S
C1519 C1522 1.526 . S
C1520 H1504 0.959 . S
C1520 H1505 0.959 . S
C1520 H1506 0.961 . S
C1520 C1519 1.502 . S
C1521 H1507 0.960 1_655 S
C1521 H1508 0.961 1_655 S
C1521 H1509 0.959 1_655 S
C1521 C1519 1.561 . S
C1522 C1519 1.526 . S
C1522 C1523 1.396 . S
C1522 C1527 1.390 . S
C1523 C1517 1.465 . S
C1523 C1522 1.396 . S
C1523 C1524 1.399 . S
C1524 H1510 0.929 . S
C1524 C1523 1.399 . S
C1524 C1525 1.385 . S
C1525 H1511 0.931 . S
C1525 C1524 1.385 . S
C1525 C1526 1.389 . S
C1526 C1525 1.389 . S
C1526 C1527 1.387 . S
C1527 H1512 0.930 . S
C1527 C1522 1.390 . S
C1527 C1526 1.387 . S
H1528 C1540 0.930 . S
H1529 C1542 0.930 . S
H1530 C1543 0.930 . S
H1531 C1547 0.959 . S
H1532 C1547 0.959 . S
H1533 C1547 0.961 . S
H1534 C1548 0.960 . S
H1535 C1548 0.961 . S
H1536 C1548 0.959 . S
H1537 C1551 0.929 . S
H1538 C1552 0.931 . S
H1539 C1554 0.930 . S
C1540 H1528 0.930 . S
C1540 C1541 1.399 . S
C1540 C1545 1.399 . S
C1541 C1540 1.399 . S
C1541 C1542 1.376 . S
C1542 H1529 0.930 . S
C1542 C1541 1.376 . S
C1542 C1543 1.388 . S
C1543 H1530 0.930 . S
C1543 C1542 1.388 . S
C1543 C1544 1.390 . S
C1544 C1543 1.390 . S
C1544 C1545 1.394 . S
C1544 C1550 1.465 . S
C1545 C1540 1.399 . S
C1545 C1544 1.394 . S
C1545 C1546 1.516 . S
C1546 C1545 1.516 . S
C1546 C1547 1.502 . S
C1546 C1548 1.561 . S
C1546 C1549 1.526 . S
C1547 H1531 0.959 . S
C1547 H1532 0.959 . S
C1547 H1533 0.961 . S
C1547 C1546 1.502 . S
C1548 H1534 0.960 . S
C1548 H1535 0.961 . S
C1548 H1536 0.959 . S
C1548 C1546 1.561 . S
C1549 C1546 1.526 . S
C1549 C1550 1.396 . S
C1549 C1554 1.390 . S
C1550 C1544 1.465 . S
C1550 C1549 1.396 . S
C1550 C1551 1.399 . S
C1551 H1537 0.929 . S
C1551 C1550 1.399 . S
C1551 C1552 1.385 . S
C1552 H1538 0.931 . S
C1552 C1551 1.385 . S
C1552 C1553 1.389 . S
C1553 C1552 1.389 . S
C1553 C1554 1.387 . S
C1554 H1539 0.930 . S
C1554 C1549 1.390 . S
C1554 C1553 1.387 . S
H1555 C1567 0.930 . S
H1556 C1569 0.930 . S
H1557 C1570 0.930 . S
H1558 C1574 0.959 . S
H1559 C1574 0.959 . S
H1560 C1574 0.961 . S
H1561 C1575 0.960 . S
H1562 C1575 0.961 . S
H1563 C1575 0.959 . S
H1564 C1578 0.929 . S
H1565 C1579 0.931 . S
H1566 C1581 0.930 . S
C1567 H1555 0.930 . S
C1567 C1568 1.399 . S
C1567 C1572 1.399 . S
C1568 C1567 1.399 . S
C1568 C1569 1.376 . S
C1569 H1556 0.930 . S
C1569 C1568 1.376 . S
C1569 C1570 1.388 . S
C1570 H1557 0.930 . S
C1570 C1569 1.388 . S
C1570 C1571 1.390 . S
C1571 C1570 1.390 . S
C1571 C1572 1.394 . S
C1571 C1577 1.465 . S
C1572 C1567 1.399 . S
C1572 C1571 1.394 . S
C1572 C1573 1.516 . S
C1573 C1572 1.516 . S
C1573 C1574 1.502 . S
C1573 C1575 1.561 . S
C1573 C1576 1.526 . S
C1574 H1558 0.959 . S
C1574 H1559 0.959 . S
C1574 H1560 0.961 . S
C1574 C1573 1.502 . S
C1575 H1561 0.960 . S
C1575 H1562 0.961 . S
C1575 H1563 0.959 . S
C1575 C1573 1.561 . S
C1576 C1573 1.526 . S
C1576 C1577 1.396 . S
C1576 C1581 1.390 . S
C1577 C1571 1.465 . S
C1577 C1576 1.396 . S
C1577 C1578 1.399 . S
C1578 H1564 0.929 . S
C1578 C1577 1.399 . S
C1578 C1579 1.385 . S
C1579 H1565 0.931 . S
C1579 C1578 1.385 . S
C1579 C1580 1.389 . S
C1580 C1579 1.389 . S
C1580 C1581 1.387 . S
C1581 H1566 0.930 . S
C1581 C1576 1.390 . S
C1581 C1580 1.387 . S
H1582 C1594 0.930 . S
H1583 C1596 0.930 . S
H1584 C1597 0.930 . S
H1585 C1601 0.959 . S
H1586 C1601 0.959 . S
H1587 C1601 0.961 . S
H1588 C1602 0.960 . S
H1589 C1602 0.961 . S
H1590 C1602 0.959 . S
H1591 C1605 0.929 . S
H1592 C1606 0.931 . S
H1593 C1608 0.930 . S
C1594 H1582 0.930 . S
C1594 C1595 1.399 . S
C1594 C1599 1.399 . S
C1595 C1594 1.399 . S
C1595 C1596 1.376 . S
C1596 H1583 0.930 . S
C1596 C1595 1.376 . S
C1596 C1597 1.388 . S
C1597 H1584 0.930 . S
C1597 C1596 1.388 . S
C1597 C1598 1.390 . S
C1598 C1597 1.390 . S
C1598 C1599 1.394 . S
C1598 C1604 1.465 . S
C1599 C1594 1.399 . S
C1599 C1598 1.394 . S
C1599 C1600 1.516 . S
C1600 C1599 1.516 . S
C1600 C1601 1.502 . S
C1600 C1602 1.561 . S
C1600 C1603 1.526 . S
C1601 H1585 0.959 . S
C1601 H1586 0.959 . S
C1601 H1587 0.961 . S
C1601 C1600 1.502 . S
C1602 H1588 0.960 . S
C1602 H1589 0.961 . S
C1602 H1590 0.959 . S
C1602 C1600 1.561 . S
C1603 C1600 1.526 . S
C1603 C1604 1.396 . S
C1603 C1608 1.390 . S
C1604 C1598 1.465 . S
C1604 C1603 1.396 . S
C1604 C1605 1.399 . S
C1605 H1591 0.929 . S
C1605 C1604 1.399 . S
C1605 C1606 1.385 . S
C1606 H1592 0.931 . S
C1606 C1605 1.385 . S
C1606 C1607 1.389 . S
C1607 C1606 1.389 . S
C1607 C1608 1.387 . S
C1608 H1593 0.930 . S
C1608 C1603 1.390 . S
C1608 C1607 1.387 . S
H1609 C1621 0.930 . S
H1610 C1623 0.930 . S
H1611 C1624 0.930 . S
H1612 C1628 0.959 . S
H1613 C1628 0.959 . S
H1614 C1628 0.961 . S
H1615 C1629 0.960 . S
H1616 C1629 0.961 . S
H1617 C1629 0.959 . S
H1618 C1632 0.929 . S
H1619 C1633 0.931 . S
H1620 C1635 0.930 . S
C1621 H1609 0.930 . S
C1621 C1622 1.399 . S
C1621 C1626 1.399 . S
C1622 C1621 1.399 . S
C1622 C1623 1.376 . S
C1623 H1610 0.930 . S
C1623 C1622 1.376 . S
C1623 C1624 1.388 . S
C1624 H1611 0.930 . S
C1624 C1623 1.388 . S
C1624 C1625 1.390 . S
C1625 C1624 1.390 . S
C1625 C1626 1.394 . S
C1625 C1631 1.465 . S
C1626 C1621 1.399 . S
C1626 C1625 1.394 . S
C1626 C1627 1.516 . S
C1627 C1626 1.516 . S
C1627 C1628 1.502 . S
C1627 C1629 1.561 . S
C1627 C1630 1.526 . S
C1628 H1612 0.959 . S
C1628 H1613 0.959 . S
C1628 H1614 0.961 . S
C1628 C1627 1.502 . S
C1629 H1615 0.960 . S
C1629 H1616 0.961 . S
C1629 H1617 0.959 . S
C1629 C1627 1.561 . S
C1630 C1627 1.526 . S
C1630 C1631 1.396 . S
C1630 C1635 1.390 . S
C1631 C1625 1.465 . S
C1631 C1630 1.396 . S
C1631 C1632 1.399 . S
C1632 H1618 0.929 . S
C1632 C1631 1.399 . S
C1632 C1633 1.385 . S
C1633 H1619 0.931 . S
C1633 C1632 1.385 . S
C1633 C1634 1.389 . S
C1634 C1633 1.389 . S
C1634 C1635 1.387 . S
C1635 H1620 0.930 . S
C1635 C1630 1.390 . S
C1635 C1634 1.387 . S
H1636 C1648 0.930 . S
H1637 C1650 0.930 . S
H1638 C1651 0.930 . S
H1639 C1655 0.959 . S
H1640 C1655 0.959 . S
H1641 C1655 0.961 . S
H1642 C1656 0.960 . S
H1643 C1656 0.961 . S
H1644 C1656 0.959 . S
H1645 C1659 0.929 . S
H1646 C1660 0.931 . S
H1647 C1662 0.930 . S
C1648 H1636 0.930 . S
C1648 C1649 1.399 . S
C1648 C1653 1.399 . S
C1649 C1648 1.399 . S
C1649 C1650 1.376 . S
C1650 H1637 0.930 . S
C1650 C1649 1.376 . S
C1650 C1651 1.388 . S
C1651 H1638 0.930 . S
C1651 C1650 1.388 . S
C1651 C1652 1.390 . S
C1652 C1651 1.390 . S
C1652 C1653 1.394 . S
C1652 C1658 1.465 . S
C1653 C1648 1.399 . S
C1653 C1652 1.394 . S
C1653 C1654 1.516 . S
C1654 C1653 1.516 . S
C1654 C1655 1.502 . S
C1654 C1656 1.561 . S
C1654 C1657 1.526 . S
C1655 H1639 0.959 . S
C1655 H1640 0.959 . S
C1655 H1641 0.961 . S
C1655 C1654 1.502 . S
C1656 H1642 0.960 . S
C1656 H1643 0.961 . S
C1656 H1644 0.959 . S
C1656 C1654 1.561 . S
C1657 C1654 1.526 . S
C1657 C1658 1.396 . S
C1657 C1662 1.390 . S
C1658 C1652 1.465 . S
C1658 C1657 1.396 . S
C1658 C1659 1.399 . S
C1659 H1645 0.929 . S
C1659 C1658 1.399 . S
C1659 C1660 1.385 . S
C1660 H1646 0.931 . S
C1660 C1659 1.385 . S
C1660 C1661 1.389 . S
C1661 C1660 1.389 . S
C1661 C1662 1.387 . S
C1662 H1647 0.930 . S
C1662 C1657 1.390 . S
C1662 C1661 1.387 . S
H1663 C1675 0.930 . S
H1664 C1677 0.930 . S
H1665 C1678 0.930 . S
H1666 C1682 0.959 . S
H1667 C1682 0.959 . S
H1668 C1682 0.961 . S
H1669 C1683 0.960 . S
H1670 C1683 0.961 . S
H1671 C1683 0.959 . S
H1672 C1686 0.929 . S
H1673 C1687 0.931 . S
H1674 C1689 0.930 . S
C1675 H1663 0.930 . S
C1675 C1676 1.399 . S
C1675 C1680 1.399 . S
C1676 C1675 1.399 . S
C1676 C1677 1.376 1_556 S
C1677 H1664 0.930 . S
C1677 C1676 1.376 1_554 S
C1677 C1678 1.388 . S
C1678 H1665 0.930 . S
C1678 C1677 1.388 . S
C1678 C1679 1.367 1_554 S
C1679 C1678 1.367 1_556 S
C1679 C1680 1.423 . S
C1679 C1685 1.465 . S
C1680 C1675 1.399 . S
C1680 C1679 1.423 . S
C1680 C1681 1.516 . S
C1681 C1680 1.516 . S
C1681 C1682 1.502 . S
C1681 C1683 1.561 . S
C1681 C1684 1.526 . S
C1682 H1666 0.959 . S
C1682 H1667 0.959 . S
C1682 H1668 0.961 . S
C1682 C1681 1.502 . S
C1683 H1669 0.960 . S
C1683 H1670 0.961 . S
C1683 H1671 0.959 . S
C1683 C1681 1.561 . S
C1684 C1681 1.526 . S
C1684 C1685 1.414 . S
C1684 C1689 1.390 . S
C1685 C1679 1.465 . S
C1685 C1684 1.414 . S
C1685 C1686 1.384 1_556 S
C1686 H1672 0.929 . S
C1686 C1685 1.384 1_554 S
C1686 C1687 1.385 . S
C1687 H1673 0.931 . S
C1687 C1686 1.385 . S
C1687 C1688 1.389 1_554 S
C1688 C1687 1.389 1_556 S
C1688 C1689 1.387 . S
C1689 H1674 0.930 . S
C1689 C1684 1.390 . S
C1689 C1688 1.387 . S
H1690 C1702 0.930 . S
H1691 C1704 0.930 . S
H1692 C1705 0.930 . S
H1693 C1709 0.959 . S
H1694 C1709 0.959 . S
H1695 C1709 0.961 . S
H1696 C1710 0.960 . S
H1697 C1710 0.961 . S
H1698 C1710 0.959 . S
H1699 C1713 0.929 . S
H1700 C1714 0.931 . S
H1701 C1716 0.930 . S
C1702 H1690 0.930 . S
C1702 C1703 1.399 . S
C1702 C1707 1.399 . S
C1703 C1702 1.399 . S
C1703 C1704 1.376 . S
C1704 H1691 0.930 . S
C1704 C1703 1.376 . S
C1704 C1705 1.388 . S
C1705 H1692 0.930 . S
C1705 C1704 1.388 . S
C1705 C1706 1.390 . S
C1706 C1705 1.390 . S
C1706 C1707 1.394 . S
C1706 C1712 1.465 . S
C1707 C1702 1.399 . S
C1707 C1706 1.394 . S
C1707 C1708 1.516 . S
C1708 C1707 1.516 . S
C1708 C1709 1.502 . S
C1708 C1710 1.561 . S
C1708 C1711 1.526 . S
C1709 H1693 0.959 . S
C1709 H1694 0.959 . S
C1709 H1695 0.961 . S
C1709 C1708 1.502 . S
C1710 H1696 0.960 . S
C1710 H1697 0.961 . S
C1710 H1698 0.959 . S
C1710 C1708 1.561 . S
C1711 C1708 1.526 . S
C1711 C1712 1.396 . S
C1711 C1716 1.390 . S
C1712 C1706 1.465 . S
C1712 C1711 1.396 . S
C1712 C1713 1.399 . S
C1713 H1699 0.929 . S
C1713 C1712 1.399 . S
C1713 C1714 1.385 . S
C1714 H1700 0.931 . S
C1714 C1713 1.385 . S
C1714 C1715 1.389 . S
C1715 C1714 1.389 . S
C1715 C1716 1.387 . S
C1716 H1701 0.930 . S
C1716 C1711 1.390 . S
C1716 C1715 1.387 . S
H1717 C1729 0.930 . S
H1718 C1731 0.930 . S
H1719 C1732 0.930 . S
H1720 C1736 0.959 . S
H1721 C1736 0.959 . S
H1722 C1736 0.961 . S
H1723 C1737 0.960 . S
H1724 C1737 0.961 . S
H1725 C1737 0.959 . S
H1726 C1740 0.929 . S
H1727 C1741 0.931 . S
H1728 C1743 0.930 . S
C1729 H1717 0.930 . S
C1729 C1730 1.399 . S
C1729 C1734 1.399 . S
C1730 C1729 1.399 . S
C1730 C1731 1.376 1_554 S
C1731 H1718 0.930 . S
C1731 C1730 1.376 1_556 S
C1731 C1732 1.388 . S
C1732 H1719 0.930 . S
C1732 C1731 1.388 . S
C1732 C1733 1.390 1_556 S
C1733 C1732 1.390 1_554 S
C1733 C1734 1.394 . S
C1733 C1739 1.465 . S
C1734 C1729 1.399 . S
C1734 C1733 1.394 . S
C1734 C1735 1.516 . S
C1735 C1734 1.516 . S
C1735 C1736 1.502 . S
C1735 C1737 1.561 . S
C1735 C1738 1.526 . S
C1736 H1720 0.959 . S
C1736 H1721 0.959 . S
C1736 H1722 0.961 . S
C1736 C1735 1.502 . S
C1737 H1723 0.960 . S
C1737 H1724 0.961 . S
C1737 H1725 0.959 . S
C1737 C1735 1.561 . S
C1738 C1735 1.526 . S
C1738 C1739 1.396 . S
C1738 C1743 1.390 . S
C1739 C1733 1.465 . S
C1739 C1738 1.396 . S
C1739 C1740 1.399 1_554 S
C1740 H1726 0.929 . S
C1740 C1739 1.399 1_556 S
C1740 C1741 1.385 . S
C1741 H1727 0.931 . S
C1741 C1740 1.385 . S
C1741 C1742 1.389 1_556 S
C1742 C1741 1.389 1_554 S
C1742 C1743 1.387 . S
C1743 H1728 0.930 . S
C1743 C1738 1.390 . S
C1743 C1742 1.387 . S
H1744 C1756 0.930 . S
H1745 C1758 0.930 1_455 S
H1746 C1759 0.930 . S
H1747 C1763 0.959 . S
H1748 C1763 0.959 . S
H1749 C1763 0.961 . S
H1750 C1764 0.960 . S
H1751 C1764 0.961 . S
H1752 C1764 0.959 . S
H1753 C1767 0.929 . S
H1754 C1768 0.931 . S
H1755 C1770 0.930 . S
C1756 H1744 0.930 . S
C1756 C1757 1.399 . S
C1756 C1761 1.399 . S
C1757 C1756 1.399 . S
C1757 C1758 1.376 . S
C1758 H1745 0.930 1_655 S
C1758 C1757 1.376 . S
C1758 C1759 1.388 . S
C1759 H1746 0.930 . S
C1759 C1758 1.388 . S
C1759 C1760 1.390 . S
C1760 C1759 1.390 . S
C1760 C1761 1.394 . S
C1760 C1766 1.465 . S
C1761 C1756 1.399 . S
C1761 C1760 1.394 . S
C1761 C1762 1.516 . S
C1762 C1761 1.516 . S
C1762 C1763 1.502 . S
C1762 C1764 1.561 . S
C1762 C1765 1.526 . S
C1763 H1747 0.959 . S
C1763 H1748 0.959 . S
C1763 H1749 0.961 . S
C1763 C1762 1.502 . S
C1764 H1750 0.960 . S
C1764 H1751 0.961 . S
C1764 H1752 0.959 . S
C1764 C1762 1.561 . S
C1765 C1762 1.526 . S
C1765 C1766 1.396 . S
C1765 C1770 1.390 . S
C1766 C1760 1.465 . S
C1766 C1765 1.396 . S
C1766 C1767 1.399 . S
C1767 H1753 0.929 . S
C1767 C1766 1.399 . S
C1767 C1768 1.385 . S
C1768 H1754 0.931 . S
C1768 C1767 1.385 . S
C1768 C1769 1.389 . S
C1769 C1768 1.389 . S
C1769 C1770 1.387 . S
C1770 H1755 0.930 . S
C1770 C1765 1.390 . S
C1770 C1769 1.387 . S
H1771 C1783 0.930 . S
H1772 C1785 0.930 . S
H1773 C1786 0.930 . S
H1774 C1790 0.959 . S
H1775 C1790 0.959 . S
H1776 C1790 0.961 . S
H1777 C1791 0.960 . S
H1778 C1791 0.961 . S
H1779 C1791 0.959 . S
H1780 C1794 0.929 . S
H1781 C1795 0.931 . S
H1782 C1797 0.930 . S
C1783 H1771 0.930 . S
C1783 C1784 1.399 . S
C1783 C1788 1.399 . S
C1784 C1783 1.399 . S
C1784 C1785 1.376 . S
C1785 H1772 0.930 . S
C1785 C1784 1.376 . S
C1785 C1786 1.388 . S
C1786 H1773 0.930 . S
C1786 C1785 1.388 . S
C1786 C1787 1.390 . S
C1787 C1786 1.390 . S
C1787 C1788 1.394 . S
C1787 C1793 1.465 . S
C1788 C1783 1.399 . S
C1788 C1787 1.394 . S
C1788 C1789 1.516 . S
C1789 C1788 1.516 . S
C1789 C1790 1.502 . S
C1789 C1791 1.561 . S
C1789 C1792 1.526 . S
C1790 H1774 0.959 . S
C1790 H1775 0.959 . S
C1790 H1776 0.961 . S
C1790 C1789 1.502 . S
C1791 H1777 0.960 . S
C1791 H1778 0.961 . S
C1791 H1779 0.959 . S
C1791 C1789 1.561 . S
C1792 C1789 1.526 . S
C1792 C1793 1.396 . S
C1792 C1797 1.390 . S
C1793 C1787 1.465 . S
C1793 C1792 1.396 . S
C1793 C1794 1.399 . S
C1794 H1780 0.929 . S
C1794 C1793 1.399 . S
C1794 C1795 1.385 . S
C1795 H1781 0.931 . S
C1795 C1794 1.385 . S
C1795 C1796 1.389 . S
C1796 C1795 1.389 . S
C1796 C1797 1.387 . S
C1797 H1782 0.930 . S
C1797 C1792 1.390 . S
C1797 C1796 1.387 . S
H1798 C1810 0.930 . S
H1799 C1812 0.930 . S
H1800 C1813 0.930 . S
H1801 C1817 0.959 . S
H1802 C1817 0.959 . S
H1803 C1817 0.961 . S
H1804 C1818 0.960 . S
H1805 C1818 0.961 . S
H1806 C1818 0.959 . S
H1807 C1821 0.929 . S
H1808 C1822 0.931 . S
H1809 C1824 0.930 . S
C1810 H1798 0.930 . S
C1810 C1811 1.399 . S
C1810 C1815 1.399 . S
C1811 C1810 1.399 . S
C1811 C1812 1.376 . S
C1812 H1799 0.930 . S
C1812 C1811 1.376 . S
C1812 C1813 1.388 . S
C1813 H1800 0.930 . S
C1813 C1812 1.388 . S
C1813 C1814 1.390 . S
C1814 C1813 1.390 . S
C1814 C1815 1.394 . S
C1814 C1820 1.465 . S
C1815 C1810 1.399 . S
C1815 C1814 1.394 . S
C1815 C1816 1.516 . S
C1816 C1815 1.516 . S
C1816 C1817 1.502 . S
C1816 C1818 1.561 . S
C1816 C1819 1.526 . S
C1817 H1801 0.959 . S
C1817 H1802 0.959 . S
C1817 H1803 0.961 . S
C1817 C1816 1.502 . S
C1818 H1804 0.960 . S
C1818 H1805 0.961 . S
C1818 H1806 0.959 . S
C1818 C1816 1.561 . S
C1819 C1816 1.526 . S
C1819 C1820 1.396 . S
C1819 C1824 1.390 . S
C1820 C1814 1.465 . S
C1820 C1819 1.396 . S
C1820 C1821 1.399 . S
C1821 H1807 0.929 . S
C1821 C1820 1.399 . S
C1821 C1822 1.385 . S
C1822 H1808 0.931 . S
C1822 C1821 1.385 . S
C1822 C1823 1.389 . S
C1823 C1822 1.389 . S
C1823 C1824 1.387 . S
C1824 H1809 0.930 . S
C1824 C1819 1.390 . S
C1824 C1823 1.387 . S
H1825 C1837 0.930 . S
H1826 C1839 0.930 . S
H1827 C1840 0.930 . S
H1828 C1844 0.959 . S
H1829 C1844 0.959 . S
H1830 C1844 0.961 . S
H1831 C1845 0.960 . S
H1832 C1845 0.961 . S
H1833 C1845 0.959 . S
H1834 C1848 0.929 . S
H1835 C1849 0.931 . S
H1836 C1851 0.930 . S
C1837 H1825 0.930 . S
C1837 C1838 1.399 . S
C1837 C1842 1.399 . S
C1838 C1837 1.399 . S
C1838 C1839 1.376 . S
C1839 H1826 0.930 . S
C1839 C1838 1.376 . S
C1839 C1840 1.388 . S
C1840 H1827 0.930 . S
C1840 C1839 1.388 . S
C1840 C1841 1.390 . S
C1841 C1840 1.390 . S
C1841 C1842 1.394 . S
C1841 C1847 1.465 . S
C1842 C1837 1.399 . S
C1842 C1841 1.394 . S
C1842 C1843 1.516 . S
C1843 C1842 1.516 . S
C1843 C1844 1.502 . S
C1843 C1845 1.561 . S
C1843 C1846 1.526 . S
C1844 H1828 0.959 . S
C1844 H1829 0.959 . S
C1844 H1830 0.961 . S
C1844 C1843 1.502 . S
C1845 H1831 0.960 . S
C1845 H1832 0.961 . S
C1845 H1833 0.959 . S
C1845 C1843 1.561 . S
C1846 C1843 1.526 . S
C1846 C1847 1.396 . S
C1846 C1851 1.390 . S
C1847 C1841 1.465 . S
C1847 C1846 1.396 . S
C1847 C1848 1.399 . S
C1848 H1834 0.929 . S
C1848 C1847 1.399 . S
C1848 C1849 1.385 . S
C1849 H1835 0.931 . S
C1849 C1848 1.385 . S
C1849 C1850 1.389 . S
C1850 C1849 1.389 . S
C1850 C1851 1.387 . S
C1851 H1836 0.930 . S
C1851 C1846 1.390 . S
C1851 C1850 1.387 . S
H1852 C1864 0.930 . S
H1853 C1866 0.930 . S
H1854 C1867 0.930 . S
H1855 C1871 0.959 . S
H1856 C1871 0.959 . S
H1857 C1871 0.961 . S
H1858 C1872 0.960 . S
H1859 C1872 0.961 . S
H1860 C1872 0.959 . S
H1861 C1875 0.929 . S
H1862 C1876 0.927 1_655 S
H1863 C1878 0.930 . S
C1864 H1852 0.930 . S
C1864 C1865 1.399 . S
C1864 C1869 1.399 . S
C1865 C1864 1.399 . S
C1865 C1866 1.376 . S
C1866 H1853 0.930 . S
C1866 C1865 1.376 . S
C1866 C1867 1.388 . S
C1867 H1854 0.930 . S
C1867 C1866 1.388 . S
C1867 C1868 1.390 . S
C1868 C1867 1.390 . S
C1868 C1869 1.394 . S
C1868 C1874 1.465 . S
C1869 C1864 1.399 . S
C1869 C1868 1.394 . S
C1869 C1870 1.516 . S
C1870 C1869 1.516 . S
C1870 C1871 1.502 . S
C1870 C1872 1.561 . S
C1870 C1873 1.526 . S
C1871 H1855 0.959 . S
C1871 H1856 0.959 . S
C1871 H1857 0.961 . S
C1871 C1870 1.502 . S
C1872 H1858 0.960 . S
C1872 H1859 0.961 . S
C1872 H1860 0.959 . S
C1872 C1870 1.561 . S
C1873 C1870 1.526 . S
C1873 C1874 1.396 . S
C1873 C1878 1.390 . S
C1874 C1868 1.465 . S
C1874 C1873 1.396 . S
C1874 C1875 1.399 . S
C1875 H1861 0.929 . S
C1875 C1874 1.399 . S
C1875 C1876 1.385 . S
C1876 H1862 0.927 1_455 S
C1876 C1875 1.385 . S
C1876 C1877 1.389 . S
C1877 C1876 1.389 . S
C1877 C1878 1.387 . S
C1878 H1863 0.930 . S
C1878 C1873 1.390 . S
C1878 C1877 1.387 . S
H1879 C1891 0.930 . S
H1880 C1893 0.930 . S
H1881 C1894 0.930 . S
H1882 C1898 0.959 . S
H1883 C1898 0.959 . S
H1884 C1898 0.961 . S
H1885 C1899 0.960 . S
H1886 C1899 0.961 . S
H1887 C1899 0.959 . S
H1888 C1902 0.929 . S
H1889 C1903 0.931 . S
H1890 C1905 0.930 . S
C1891 H1879 0.930 . S
C1891 C1892 1.399 . S
C1891 C1896 1.399 . S
C1892 C1891 1.399 . S
C1892 C1893 1.376 . S
C1893 H1880 0.930 . S
C1893 C1892 1.376 . S
C1893 C1894 1.388 . S
C1894 H1881 0.930 . S
C1894 C1893 1.388 . S
C1894 C1895 1.390 . S
C1895 C1894 1.390 . S
C1895 C1896 1.394 . S
C1895 C1901 1.465 . S
C1896 C1891 1.399 . S
C1896 C1895 1.394 . S
C1896 C1897 1.516 . S
C1897 C1896 1.516 . S
C1897 C1898 1.502 . S
C1897 C1899 1.561 . S
C1897 C1900 1.526 . S
C1898 H1882 0.959 . S
C1898 H1883 0.959 . S
C1898 H1884 0.961 . S
C1898 C1897 1.502 . S
C1899 H1885 0.960 . S
C1899 H1886 0.961 . S
C1899 H1887 0.959 . S
C1899 C1897 1.561 . S
C1900 C1897 1.526 . S
C1900 C1901 1.396 . S
C1900 C1905 1.390 . S
C1901 C1895 1.465 . S
C1901 C1900 1.396 . S
C1901 C1902 1.399 . S
C1902 H1888 0.929 . S
C1902 C1901 1.399 . S
C1902 C1903 1.385 . S
C1903 H1889 0.931 . S
C1903 C1902 1.385 . S
C1903 C1904 1.389 . S
C1904 C1903 1.389 . S
C1904 C1905 1.387 . S
C1905 H1890 0.930 . S
C1905 C1900 1.390 . S
C1905 C1904 1.387 . S
H1906 C1918 0.930 . S
H1907 C1920 0.930 . S
H1908 C1921 0.930 . S
H1909 C1925 0.959 . S
H1910 C1925 0.959 . S
H1911 C1925 0.961 . S
H1912 C1926 0.960 . S
H1913 C1926 0.961 . S
H1914 C1926 0.959 . S
H1915 C1929 0.929 . S
H1916 C1930 0.931 . S
H1917 C1932 0.930 . S
C1918 H1906 0.930 . S
C1918 C1919 1.399 . S
C1918 C1923 1.399 . S
C1919 C1918 1.399 . S
C1919 C1920 1.376 . S
C1920 H1907 0.930 . S
C1920 C1919 1.376 . S
C1920 C1921 1.388 . S
C1921 H1908 0.930 . S
C1921 C1920 1.388 . S
C1921 C1922 1.390 . S
C1922 C1921 1.390 . S
C1922 C1923 1.394 . S
C1922 C1928 1.465 . S
C1923 C1918 1.399 . S
C1923 C1922 1.394 . S
C1923 C1924 1.516 . S
C1924 C1923 1.516 . S
C1924 C1925 1.502 . S
C1924 C1926 1.561 . S
C1924 C1927 1.526 . S
C1925 H1909 0.959 . S
C1925 H1910 0.959 . S
C1925 H1911 0.961 . S
C1925 C1924 1.502 . S
C1926 H1912 0.960 . S
C1926 H1913 0.961 . S
C1926 H1914 0.959 . S
C1926 C1924 1.561 . S
C1927 C1924 1.526 . S
C1927 C1928 1.396 . S
C1927 C1932 1.390 . S
C1928 C1922 1.465 . S
C1928 C1927 1.396 . S
C1928 C1929 1.399 . S
C1929 H1915 0.929 . S
C1929 C1928 1.399 . S
C1929 C1930 1.385 . S
C1930 H1916 0.931 . S
C1930 C1929 1.385 . S
C1930 C1931 1.389 . S
C1931 C1930 1.389 . S
C1931 C1932 1.387 . S
C1932 H1917 0.930 . S
C1932 C1927 1.390 . S
C1932 C1931 1.387 . S
H1933 C1945 0.930 . S
H1934 C1947 0.930 . S
H1935 C1948 0.930 . S
H1936 C1952 0.959 . S
H1937 C1952 0.959 . S
H1938 C1952 0.961 . S
H1939 C1953 0.960 . S
H1940 C1953 0.961 . S
H1941 C1953 0.959 . S
H1942 C1956 0.929 . S
H1943 C1957 0.931 . S
H1944 C1959 0.930 . S
C1945 H1933 0.930 . S
C1945 C1946 1.399 . S
C1945 C1950 1.399 . S
C1946 C1945 1.399 . S
C1946 C1947 1.376 . S
C1947 H1934 0.930 . S
C1947 C1946 1.376 . S
C1947 C1948 1.388 . S
C1948 H1935 0.930 . S
C1948 C1947 1.388 . S
C1948 C1949 1.390 . S
C1949 C1948 1.390 . S
C1949 C1950 1.394 . S
C1949 C1955 1.465 . S
C1950 C1945 1.399 . S
C1950 C1949 1.394 . S
C1950 C1951 1.516 . S
C1951 C1950 1.516 . S
C1951 C1952 1.502 . S
C1951 C1953 1.561 . S
C1951 C1954 1.526 . S
C1952 H1936 0.959 . S
C1952 H1937 0.959 . S
C1952 H1938 0.961 . S
C1952 C1951 1.502 . S
C1953 H1939 0.960 . S
C1953 H1940 0.961 . S
C1953 H1941 0.959 . S
C1953 C1951 1.561 . S
C1954 C1951 1.526 . S
C1954 C1955 1.396 . S
C1954 C1959 1.390 . S
C1955 C1949 1.465 . S
C1955 C1954 1.396 . S
C1955 C1956 1.399 . S
C1956 H1942 0.929 . S
C1956 C1955 1.399 . S
C1956 C1957 1.385 . S
C1957 H1943 0.931 . S
C1957 C1956 1.385 . S
C1957 C1958 1.389 . S
C1958 C1957 1.389 . S
C1958 C1959 1.387 . S
C1959 H1944 0.930 . S
C1959 C1954 1.390 . S
C1959 C1958 1.387 . S
H1960 C1972 0.930 . S
H1961 C1974 0.930 . S
H1962 C1975 0.930 . S
H1963 C1979 0.959 . S
H1964 C1979 0.959 . S
H1965 C1979 0.961 . S
H1966 C1980 0.960 . S
H1967 C1980 0.961 . S
H1968 C1980 0.959 . S
H1969 C1983 0.929 . S
H1970 C1984 0.931 . S
H1971 C1986 0.930 . S
C1972 H1960 0.930 . S
C1972 C1973 1.399 . S
C1972 C1977 1.399 . S
C1973 C1972 1.399 . S
C1973 C1974 1.376 . S
C1974 H1961 0.930 . S
C1974 C1973 1.376 . S
C1974 C1975 1.388 . S
C1975 H1962 0.930 . S
C1975 C1974 1.388 . S
C1975 C1976 1.390 . S
C1976 C1975 1.390 . S
C1976 C1977 1.394 . S
C1976 C1982 1.465 . S
C1977 C1972 1.399 . S
C1977 C1976 1.394 . S
C1977 C1978 1.516 . S
C1978 C1977 1.516 . S
C1978 C1979 1.502 . S
C1978 C1980 1.561 . S
C1978 C1981 1.526 . S
C1979 H1963 0.959 . S
C1979 H1964 0.959 . S
C1979 H1965 0.961 . S
C1979 C1978 1.502 . S
C1980 H1966 0.960 . S
C1980 H1967 0.961 . S
C1980 H1968 0.959 . S
C1980 C1978 1.561 . S
C1981 C1978 1.526 . S
C1981 C1982 1.396 . S
C1981 C1986 1.390 . S
C1982 C1976 1.465 . S
C1982 C1981 1.396 . S
C1982 C1983 1.399 . S
C1983 H1969 0.929 . S
C1983 C1982 1.399 . S
C1983 C1984 1.385 . S
C1984 H1970 0.931 . S
C1984 C1983 1.385 . S
C1984 C1985 1.389 . S
C1985 C1984 1.389 . S
C1985 C1986 1.387 . S
C1986 H1971 0.930 . S
C1986 C1981 1.390 . S
C1986 C1985 1.387 . S
H1987 C1999 0.930 . S
H1988 C2001 0.930 . S
H1989 C2002 0.930 . S
H1990 C2006 0.959 . S
H1991 C2006 0.959 . S
H1992 C2006 0.961 . S
H1993 C2007 0.960 . S
H1994 C2007 0.961 . S
H1995 C2007 0.959 . S
H1996 C2010 0.929 . S
H1997 C2011 0.931 . S
H1998 C2013 0.930 . S
C1999 H1987 0.930 . S
C1999 C2000 1.399 . S
C1999 C2004 1.399 . S
C2000 C1999 1.399 . S
C2000 C2001 1.376 . S
C2001 H1988 0.930 . S
C2001 C2000 1.376 . S
C2001 C2002 1.388 . S
C2002 H1989 0.930 . S
C2002 C2001 1.388 . S
C2002 C2003 1.390 . S
C2003 C2002 1.390 . S
C2003 C2004 1.394 . S
C2003 C2009 1.465 . S
C2004 C1999 1.399 . S
C2004 C2003 1.394 . S
C2004 C2005 1.516 . S
C2005 C2004 1.516 . S
C2005 C2006 1.502 . S
C2005 C2007 1.561 . S
C2005 C2008 1.526 . S
C2006 H1990 0.959 . S
C2006 H1991 0.959 . S
C2006 H1992 0.961 . S
C2006 C2005 1.502 . S
C2007 H1993 0.960 . S
C2007 H1994 0.961 . S
C2007 H1995 0.959 . S
C2007 C2005 1.561 . S
C2008 C2005 1.526 . S
C2008 C2009 1.396 . S
C2008 C2013 1.390 . S
C2009 C2003 1.465 . S
C2009 C2008 1.396 . S
C2009 C2010 1.399 . S
C2010 H1996 0.929 . S
C2010 C2009 1.399 . S
C2010 C2011 1.385 . S
C2011 H1997 0.931 . S
C2011 C2010 1.385 . S
C2011 C2012 1.389 . S
C2012 C2011 1.389 . S
C2012 C2013 1.387 . S
C2013 H1998 0.930 . S
C2013 C2008 1.390 . S
C2013 C2012 1.387 . S
H2014 C2026 0.930 1_455 S
H2015 C2028 0.930 . S
H2016 C2029 0.930 . S
H2017 C2033 0.959 . S
H2018 C2033 0.959 . S
H2019 C2033 0.961 1_455 S
H2020 C2034 0.960 1_455 S
H2021 C2034 0.961 1_455 S
H2022 C2034 0.959 . S
H2023 C2037 0.929 . S
H2024 C2038 0.931 . S
H2025 C2040 0.930 . S
C2026 H2014 0.930 1_655 S
C2026 C2027 1.399 . S
C2026 C2031 1.399 . S
C2027 C2026 1.399 . S
C2027 C2028 1.376 . S
C2028 H2015 0.930 . S
C2028 C2027 1.376 . S
C2028 C2029 1.388 . S
C2029 H2016 0.930 . S
C2029 C2028 1.388 . S
C2029 C2030 1.390 . S
C2030 C2029 1.390 . S
C2030 C2031 1.394 . S
C2030 C2036 1.465 . S
C2031 C2026 1.399 . S
C2031 C2030 1.394 . S
C2031 C2032 1.516 . S
C2032 C2031 1.516 . S
C2032 C2033 1.502 . S
C2032 C2034 1.561 . S
C2032 C2035 1.526 . S
C2033 H2017 0.959 . S
C2033 H2018 0.959 . S
C2033 H2019 0.961 1_655 S
C2033 C2032 1.502 . S
C2034 H2020 0.960 1_655 S
C2034 H2021 0.961 1_655 S
C2034 H2022 0.959 . S
C2034 C2032 1.561 . S
C2035 C2032 1.526 . S
C2035 C2036 1.396 . S
C2035 C2040 1.390 . S
C2036 C2030 1.465 . S
C2036 C2035 1.396 . S
C2036 C2037 1.399 . S
C2037 H2023 0.929 . S
C2037 C2036 1.399 . S
C2037 C2038 1.385 . S
C2038 H2024 0.931 . S
C2038 C2037 1.385 . S
C2038 C2039 1.389 . S
C2039 C2038 1.389 . S
C2039 C2040 1.387 . S
C2040 H2025 0.930 . S
C2040 C2035 1.390 . S
C2040 C2039 1.387 . S
H2041 C2053 0.930 . S
H2042 C2055 0.930 . S
H2043 C2056 0.930 . S
H2044 C2060 0.959 . S
H2045 C2060 0.959 . S
H2046 C2060 0.961 . S
H2047 C2061 0.960 . S
H2048 C2061 0.961 . S
H2049 C2061 0.959 . S
H2050 C2064 0.929 . S
H2051 C2065 0.931 . S
H2052 C2067 0.930 . S
C2053 H2041 0.930 . S
C2053 C2054 1.399 . S
C2053 C2058 1.399 . S
C2054 C2053 1.399 . S
C2054 C2055 1.376 . S
C2055 H2042 0.930 . S
C2055 C2054 1.376 . S
C2055 C2056 1.388 . S
C2056 H2043 0.930 . S
C2056 C2055 1.388 . S
C2056 C2057 1.390 . S
C2057 C2056 1.390 . S
C2057 C2058 1.394 . S
C2057 C2063 1.465 . S
C2058 C2053 1.399 . S
C2058 C2057 1.394 . S
C2058 C2059 1.516 . S
C2059 C2058 1.516 . S
C2059 C2060 1.502 . S
C2059 C2061 1.561 . S
C2059 C2062 1.526 . S
C2060 H2044 0.959 . S
C2060 H2045 0.959 . S
C2060 H2046 0.961 . S
C2060 C2059 1.502 . S
C2061 H2047 0.960 . S
C2061 H2048 0.961 . S
C2061 H2049 0.959 . S
C2061 C2059 1.561 . S
C2062 C2059 1.526 . S
C2062 C2063 1.396 . S
C2062 C2067 1.390 . S
C2063 C2057 1.465 . S
C2063 C2062 1.396 . S
C2063 C2064 1.399 . S
C2064 H2050 0.929 . S
C2064 C2063 1.399 . S
C2064 C2065 1.385 . S
C2065 H2051 0.931 . S
C2065 C2064 1.385 . S
C2065 C2066 1.389 . S
C2066 C2065 1.389 . S
C2066 C2067 1.387 . S
C2067 H2052 0.930 . S
C2067 C2062 1.390 . S
C2067 C2066 1.387 . S
H2068 C2080 0.930 . S
H2069 C2082 0.930 1_655 S
H2070 C2083 0.930 . S
H2071 C2087 0.959 . S
H2072 C2087 0.959 . S
H2073 C2087 0.961 . S
H2074 C2088 0.960 . S
H2075 C2088 0.961 . S
H2076 C2088 0.959 . S
H2077 C2091 0.929 . S
H2078 C2092 0.931 . S
H2079 C2094 0.930 . S
C2080 H2068 0.930 . S
C2080 C2081 1.399 . S
C2080 C2085 1.399 . S
C2081 C2080 1.399 . S
C2081 C2082 1.376 . S
C2082 H2069 0.930 1_455 S
C2082 C2081 1.376 . S
C2082 C2083 1.388 . S
C2083 H2070 0.930 . S
C2083 C2082 1.388 . S
C2083 C2084 1.390 . S
C2084 C2083 1.390 . S
C2084 C2085 1.394 . S
C2084 C2090 1.465 . S
C2085 C2080 1.399 . S
C2085 C2084 1.394 . S
C2085 C2086 1.516 . S
C2086 C2085 1.516 . S
C2086 C2087 1.502 . S
C2086 C2088 1.561 . S
C2086 C2089 1.526 . S
C2087 H2071 0.959 . S
C2087 H2072 0.959 . S
C2087 H2073 0.961 . S
C2087 C2086 1.502 . S
C2088 H2074 0.960 . S
C2088 H2075 0.961 . S
C2088 H2076 0.959 . S
C2088 C2086 1.561 . S
C2089 C2086 1.526 . S
C2089 C2090 1.396 . S
C2089 C2094 1.390 . S
C2090 C2084 1.465 . S
C2090 C2089 1.396 . S
C2090 C2091 1.399 . S
C2091 H2077 0.929 . S
C2091 C2090 1.399 . S
C2091 C2092 1.385 . S
C2092 H2078 0.931 . S
C2092 C2091 1.385 . S
C2092 C2093 1.389 . S
C2093 C2092 1.389 . S
C2093 C2094 1.387 . S
C2094 H2079 0.930 . S
C2094 C2089 1.390 . S
C2094 C2093 1.387 . S
H2095 C2107 0.930 . S
H2096 C2109 0.930 . S
H2097 C2110 0.930 . S
H2098 C2114 0.959 . S
H2099 C2114 0.959 . S
H2100 C2114 0.961 . S
H2101 C2115 0.960 . S
H2102 C2115 0.961 . S
H2103 C2115 0.959 . S
H2104 C2118 0.929 . S
H2105 C2119 0.931 . S
H2106 C2121 0.930 . S
C2107 H2095 0.930 . S
C2107 C2108 1.399 . S
C2107 C2112 1.399 . S
C2108 C2107 1.399 . S
C2108 C2109 1.376 . S
C2109 H2096 0.930 . S
C2109 C2108 1.376 . S
C2109 C2110 1.388 . S
C2110 H2097 0.930 . S
C2110 C2109 1.388 . S
C2110 C2111 1.390 . S
C2111 C2110 1.390 . S
C2111 C2112 1.394 . S
C2111 C2117 1.465 . S
C2112 C2107 1.399 . S
C2112 C2111 1.394 . S
C2112 C2113 1.516 . S
C2113 C2112 1.516 . S
C2113 C2114 1.502 . S
C2113 C2115 1.561 . S
C2113 C2116 1.526 . S
C2114 H2098 0.959 . S
C2114 H2099 0.959 . S
C2114 H2100 0.961 . S
C2114 C2113 1.502 . S
C2115 H2101 0.960 . S
C2115 H2102 0.961 . S
C2115 H2103 0.959 . S
C2115 C2113 1.561 . S
C2116 C2113 1.526 . S
C2116 C2117 1.396 . S
C2116 C2121 1.390 . S
C2117 C2111 1.465 . S
C2117 C2116 1.396 . S
C2117 C2118 1.399 . S
C2118 H2104 0.929 . S
C2118 C2117 1.399 . S
C2118 C2119 1.385 . S
C2119 H2105 0.931 . S
C2119 C2118 1.385 . S
C2119 C2120 1.389 . S
C2120 C2119 1.389 . S
C2120 C2121 1.387 . S
C2121 H2106 0.930 . S
C2121 C2116 1.390 . S
C2121 C2120 1.387 . S
H2122 C2134 0.930 . S
H2123 C2136 0.930 1_655 S
H2124 C2137 0.930 . S
H2125 C2141 0.959 . S
H2126 C2141 0.959 . S
H2127 C2141 0.961 . S
H2128 C2142 0.960 . S
H2129 C2142 0.961 . S
H2130 C2142 0.959 . S
H2131 C2145 0.929 . S
H2132 C2146 0.931 . S
H2133 C2148 0.930 . S
C2134 H2122 0.930 . S
C2134 C2135 1.399 . S
C2134 C2139 1.399 . S
C2135 C2134 1.399 . S
C2135 C2136 1.376 . S
C2136 H2123 0.930 1_455 S
C2136 C2135 1.376 . S
C2136 C2137 1.388 . S
C2137 H2124 0.930 . S
C2137 C2136 1.388 . S
C2137 C2138 1.390 . S
C2138 C2137 1.390 . S
C2138 C2139 1.394 . S
C2138 C2144 1.465 . S
C2139 C2134 1.399 . S
C2139 C2138 1.394 . S
C2139 C2140 1.516 . S
C2140 C2139 1.516 . S
C2140 C2141 1.502 . S
C2140 C2142 1.561 . S
C2140 C2143 1.526 . S
C2141 H2125 0.959 . S
C2141 H2126 0.959 . S
C2141 H2127 0.961 . S
C2141 C2140 1.502 . S
C2142 H2128 0.960 . S
C2142 H2129 0.961 . S
C2142 H2130 0.959 . S
C2142 C2140 1.561 . S
C2143 C2140 1.526 . S
C2143 C2144 1.396 . S
C2143 C2148 1.390 . S
C2144 C2138 1.465 . S
C2144 C2143 1.396 . S
C2144 C2145 1.399 . S
C2145 H2131 0.929 . S
C2145 C2144 1.399 . S
C2145 C2146 1.385 . S
C2146 H2132 0.931 . S
C2146 C2145 1.385 . S
C2146 C2147 1.389 . S
C2147 C2146 1.389 . S
C2147 C2148 1.387 . S
C2148 H2133 0.930 . S
C2148 C2143 1.390 . S
C2148 C2147 1.387 . S
H2149 C2161 0.930 . S
H2150 C2163 0.930 . S
H2151 C2164 0.930 . S
H2152 C2168 0.959 . S
H2153 C2168 0.959 . S
H2154 C2168 0.961 . S
H2155 C2169 0.960 . S
H2156 C2169 0.961 . S
H2157 C2169 0.959 . S
H2158 C2172 0.929 . S
H2159 C2173 0.931 . S
H2160 C2175 0.930 . S
C2161 H2149 0.930 . S
C2161 C2162 1.399 . S
C2161 C2166 1.399 . S
C2162 C2161 1.399 . S
C2162 C2163 1.376 . S
C2163 H2150 0.930 . S
C2163 C2162 1.376 . S
C2163 C2164 1.388 . S
C2164 H2151 0.930 . S
C2164 C2163 1.388 . S
C2164 C2165 1.390 . S
C2165 C2164 1.390 . S
C2165 C2166 1.394 . S
C2165 C2171 1.465 . S
C2166 C2161 1.399 . S
C2166 C2165 1.394 . S
C2166 C2167 1.516 . S
C2167 C2166 1.516 . S
C2167 C2168 1.502 . S
C2167 C2169 1.561 . S
C2167 C2170 1.526 . S
C2168 H2152 0.959 . S
C2168 H2153 0.959 . S
C2168 H2154 0.961 . S
C2168 C2167 1.502 . S
C2169 H2155 0.960 . S
C2169 H2156 0.961 . S
C2169 H2157 0.959 . S
C2169 C2167 1.561 . S
C2170 C2167 1.526 . S
C2170 C2171 1.396 . S
C2170 C2175 1.390 . S
C2171 C2165 1.465 . S
C2171 C2170 1.396 . S
C2171 C2172 1.399 . S
C2172 H2158 0.929 . S
C2172 C2171 1.399 . S
C2172 C2173 1.385 . S
C2173 H2159 0.931 . S
C2173 C2172 1.385 . S
C2173 C2174 1.389 . S
C2174 C2173 1.389 . S
C2174 C2175 1.387 . S
C2175 H2160 0.930 . S
C2175 C2170 1.390 . S
C2175 C2174 1.387 . S
C461 C51 1.100 . S
C473 C9 1.026 . S
C488 C37 1.107 . S
C500 C23 1.018 . S
C515 C107 1.001 . S
C527 C65 1.093 . S
C542 C93 1.121 . S
C554 C79 1.002 . S
C569 C121 1.103 . S
C581 C163 1.022 . S
C596 C135 1.106 . S
C608 C149 1.018 . S
C623 C219 1.121 . S
C635 C177 0.995 . S
C650 C191 1.036 . S
C662 C205 1.101 . S
C677 C233 1.004 . S
C689 C275 1.101 . S
C704 C247 1.013 . S
C716 C261 1.091 . S
C731 C331 1.013 . S
C743 C289 1.078 . S
C758 C317 1.100 . S
C770 C303 1.040 . S
C785 C387 1.106 . S
C797 C345 1.018 . S
C812 C359 1.090 . S
C824 C373 1.037 . S
C839 C401 1.005 . S
C851 C443 1.089 . S
C866 C415 1.110 . S
C878 C429 1.026 . S
C893 C283 1.278 . S
C905 C3 1.242 . S
C920 C185 1.287 . S
C932 C17 1.254 . S
C947 C31 1.231 . S
C959 C423 1.291 . S
C974 C45 1.273 . S
C986 C101 1.268 . S
C1001 C227 1.232 . S
C1013 C59 1.290 . S
C1028 C129 1.226 . S
C1040 C73 1.300 . S
C1055 C367 1.229 . S
C1067 C87 1.293 . S
C1082 C115 1.301 . S
C1094 C395 1.231 . S
C1109 C311 1.302 . S
C1121 C143 1.232 . S
C1136 C213 1.251 . S
C1148 C157 1.269 . S
C1163 C339 1.225 . S
C1175 C171 1.299 . S
C1190 C199 1.257 . S
C1202 C255 1.262 . S
C1217 C409 1.260 . S
C1229 C241 1.259 . S
C1244 C269 1.260 . S
C1256 C325 1.258 . S
C1271 C353 1.296 . S
C1283 C297 1.242 . S
C1298 C437 1.280 . S
C1310 C381 1.262 . S
C1325 C21 1.345 . S
C1337 C7 1.344 . S
C1352 C35 1.346 . S
C1364 C49 1.345 . S
C1379 C63 1.339 . S
C1391 C77 1.344 . S
C1406 C105 1.304 . S
C1418 C91 1.297 . S
C1433 C119 1.340 . S
C1445 C133 1.342 . S
C1460 C147 1.339 . S
C1472 C161 1.342 . S
C1487 C189 1.309 . S
C1499 C175 1.299 . S
C1514 C203 1.292 . S
C1526 C217 1.294 . S
C1541 C231 1.340 . S
C1553 C245 1.342 . S
C1568 C259 1.339 . S
C1580 C273 1.342 . S
C1595 C287 1.334 . S
C1607 C301 1.342 . S
C1622 C329 1.304 . S
C1634 C315 1.296 . S
C1649 C357 1.341 . S
C1661 C343 1.343 . S
C1676 C371 1.297 . S
C1688 C385 1.295 . S
C1703 C399 1.345 . S
C1715 C413 1.346 . S
C1730 C441 1.303 . S
C1742 C427 1.296 . S
C1757 C8 1.501 . S
C1769 C274 1.525 . S
C1784 C22 1.524 . S
C1796 C260 1.510 . S
C1811 C246 1.508 . S
C1823 C36 1.515 . S
C1838 C50 1.528 . S
C1850 C232 1.501 . S
C1865 C330 1.525 . S
C1877 C64 1.506 . S
C1892 C78 1.525 . S
C1904 C316 1.506 . S
C1919 C302 1.504 . S
C1931 C92 1.522 . S
C1946 C106 1.503 . S
C1958 C288 1.522 . S
C1973 C120 1.506 . S
C1985 C386 1.516 . S
C2000 C134 1.525 . S
C2012 C372 1.509 . S
C2027 C148 1.525 . S
C2039 C358 1.501 . S
C2054 C344 1.526 . S
C2066 C162 1.507 . S
C2081 C176 1.502 . S
C2093 C442 1.524 . S
C2108 C190 1.504 . S
C2120 C428 1.522 . S
C2135 C204 1.504 . S
C2147 C414 1.523 . S
C2162 C400 1.506 . S
C2174 C218 1.520 . S
