# Generated by pormake.
# Topology zfc, (5)-cn, num edge types: 1
# Building blocks:
#     Node 0, Type 0, BuildingBlock: BEQFEK_clean_sbu_0, # of connection points: 5
#     Node 1, Type 0, BuildingBlock: BEQFEK_clean_sbu_0, # of connection points: 5
#     Node 2, Type 0, BuildingBlock: BEQFEK_clean_sbu_0, # of connection points: 5
#     Node 3, Type 0, BuildingBlock: BEQFEK_clean_sbu_0, # of connection points: 5
#     Node 4, Type 0, BuildingBlock: BEQFEK_clean_sbu_0, # of connection points: 5
#     Node 5, Type 0, BuildingBlock: BEQFEK_clean_sbu_0, # of connection points: 5
#     Node 6, Type 0, BuildingBlock: BEQFEK_clean_sbu_0, # of connection points: 5
#     Node 7, Type 0, BuildingBlock: BEQFEK_clean_sbu_0, # of connection points: 5
#     Node 8, Type 0, BuildingBlock: BEQFEK_clean_sbu_0, # of connection points: 5
#     Node 9, Type 0, BuildingBlock: BEQFEK_clean_sbu_0, # of connection points: 5
#     Node 10, Type 0, BuildingBlock: BEQFEK_clean_sbu_0, # of connection points: 5
#     Node 11, Type 0, BuildingBlock: BEQFEK_clean_sbu_0, # of connection points: 5
#     Node 12, Type 0, BuildingBlock: BEQFEK_clean_sbu_0, # of connection points: 5
#     Node 13, Type 0, BuildingBlock: BEQFEK_clean_sbu_0, # of connection points: 5
#     Node 14, Type 0, BuildingBlock: BEQFEK_clean_sbu_0, # of connection points: 5
#     Node 15, Type 0, BuildingBlock: BEQFEK_clean_sbu_0, # of connection points: 5
#     Edge 16, Type (0, 0), BuildingBlock: EZIPEK_clean_linker_0, # of connection points: 2
#     Edge 17, Type (0, 0), BuildingBlock: EZIPEK_clean_linker_0, # of connection points: 2
#     Edge 18, Type (0, 0), BuildingBlock: EZIPEK_clean_linker_0, # of connection points: 2
#     Edge 19, Type (0, 0), BuildingBlock: EZIPEK_clean_linker_0, # of connection points: 2
#     Edge 20, Type (0, 0), BuildingBlock: EZIPEK_clean_linker_0, # of connection points: 2
#     Edge 21, Type (0, 0), BuildingBlock: EZIPEK_clean_linker_0, # of connection points: 2
#     Edge 22, Type (0, 0), BuildingBlock: EZIPEK_clean_linker_0, # of connection points: 2
#     Edge 23, Type (0, 0), BuildingBlock: EZIPEK_clean_linker_0, # of connection points: 2
#     Edge 24, Type (0, 0), BuildingBlock: EZIPEK_clean_linker_0, # of connection points: 2
#     Edge 25, Type (0, 0), BuildingBlock: EZIPEK_clean_linker_0, # of connection points: 2
#     Edge 26, Type (0, 0), BuildingBlock: EZIPEK_clean_linker_0, # of connection points: 2
#     Edge 27, Type (0, 0), BuildingBlock: EZIPEK_clean_linker_0, # of connection points: 2
#     Edge 28, Type (0, 0), BuildingBlock: EZIPEK_clean_linker_0, # of connection points: 2
#     Edge 29, Type (0, 0), BuildingBlock: EZIPEK_clean_linker_0, # of connection points: 2
#     Edge 30, Type (0, 0), BuildingBlock: EZIPEK_clean_linker_0, # of connection points: 2
#     Edge 31, Type (0, 0), BuildingBlock: EZIPEK_clean_linker_0, # of connection points: 2
#     Edge 32, Type (0, 0), BuildingBlock: EZIPEK_clean_linker_0, # of connection points: 2
#     Edge 33, Type (0, 0), BuildingBlock: EZIPEK_clean_linker_0, # of connection points: 2
#     Edge 34, Type (0, 0), BuildingBlock: EZIPEK_clean_linker_0, # of connection points: 2
#     Edge 35, Type (0, 0), BuildingBlock: EZIPEK_clean_linker_0, # of connection points: 2
#     Edge 36, Type (0, 0), BuildingBlock: EZIPEK_clean_linker_0, # of connection points: 2
#     Edge 37, Type (0, 0), BuildingBlock: EZIPEK_clean_linker_0, # of connection points: 2
#     Edge 38, Type (0, 0), BuildingBlock: EZIPEK_clean_linker_0, # of connection points: 2
#     Edge 39, Type (0, 0), BuildingBlock: EZIPEK_clean_linker_0, # of connection points: 2
#     Edge 40, Type (0, 0), BuildingBlock: EZIPEK_clean_linker_0, # of connection points: 2
#     Edge 41, Type (0, 0), BuildingBlock: EZIPEK_clean_linker_0, # of connection points: 2
#     Edge 42, Type (0, 0), BuildingBlock: EZIPEK_clean_linker_0, # of connection points: 2
#     Edge 43, Type (0, 0), BuildingBlock: EZIPEK_clean_linker_0, # of connection points: 2
#     Edge 44, Type (0, 0), BuildingBlock: EZIPEK_clean_linker_0, # of connection points: 2
#     Edge 45, Type (0, 0), BuildingBlock: EZIPEK_clean_linker_0, # of connection points: 2
#     Edge 46, Type (0, 0), BuildingBlock: EZIPEK_clean_linker_0, # of connection points: 2
#     Edge 47, Type (0, 0), BuildingBlock: EZIPEK_clean_linker_0, # of connection points: 2
#     Edge 48, Type (0, 0), BuildingBlock: EZIPEK_clean_linker_0, # of connection points: 2
#     Edge 49, Type (0, 0), BuildingBlock: EZIPEK_clean_linker_0, # of connection points: 2
#     Edge 50, Type (0, 0), BuildingBlock: EZIPEK_clean_linker_0, # of connection points: 2
#     Edge 51, Type (0, 0), BuildingBlock: EZIPEK_clean_linker_0, # of connection points: 2
#     Edge 52, Type (0, 0), BuildingBlock: EZIPEK_clean_linker_0, # of connection points: 2
#     Edge 53, Type (0, 0), BuildingBlock: EZIPEK_clean_linker_0, # of connection points: 2
#     Edge 54, Type (0, 0), BuildingBlock: EZIPEK_clean_linker_0, # of connection points: 2
#     Edge 55, Type (0, 0), BuildingBlock: EZIPEK_clean_linker_0, # of connection points: 2
# Relax obj value: 0.192
# Max RMSD: 0.209
# Mean RMSD: 0.209
data_MOF--net-zfc--node1-BEQFEK_clean_sbu_0--edge1-EZIPEK_clean_linker_0
_symmetry_space_group_name_H-M    P1
_symmetry_Int_Tables_number       1
_symmetry_cell_setting            triclinic
loop_
_symmetry_equiv_pos_as_xyz
'x, y, z'
_cell_length_a     54.700113
_cell_length_b     54.666375
_cell_length_c     14.869528
_cell_angle_alpha  89.993174
_cell_angle_beta   89.972003
_cell_angle_gamma 90.037692
loop_
_atom_site_label
_atom_site_type_symbol
_atom_site_fract_x
_atom_site_fract_y
_atom_site_fract_z
_atom_type_partial_charge
Co0 Co 0.24635 0.11598 0.17161 0.0
Co1 Co 0.26904 0.12321 0.98147 0.0
C2 C 0.22133 0.14774 0.04696 0.0
O3 O 0.22002 0.13691 0.12276 0.0
O4 O 0.23921 0.14411 0.9936 0.0
C5 C 0.22604 0.11208 0.35571 0.0
O6 O 0.20436 0.11858 0.32633 0.0
C7 C 0.25815 0.11941 0.79228 0.0
C8 C 0.29363 0.12432 0.72396 0.0
C9 C 0.26898 0.12009 0.70858 0.0
N10 N 0.27544 0.1229 0.85511 0.0
N11 N 0.29668 0.12588 0.81396 0.0
C12 C 0.23165 0.11534 0.81222 0.0
H13 H 0.22936 0.10675 0.8793 0.0
H14 H 0.22312 0.10367 0.75981 0.0
H15 H 0.22214 0.13326 0.81252 0.0
C16 C 0.24805 0.06365 0.11232 0.0
N17 N 0.25197 0.08776 0.0994 0.0
N18 N 0.26219 0.09092 0.02012 0.0
C19 C 0.26543 0.06896 0.98078 0.0
C20 C 0.25645 0.05097 0.03742 0.0
C21 C 0.23712 0.05302 0.19568 0.0
H22 H 0.22253 0.06526 0.22144 0.0
H23 H 0.22964 0.03446 0.18301 0.0
H24 H 0.25156 0.05166 0.24782 0.0
O25 O 0.27596 0.13623 0.18009 0.0
O26 O 0.29691 0.13704 0.05363 0.0
H27 H 0.28276 0.04605 0.88041 0.0
H28 H 0.26266 0.06926 0.83822 0.0
C29 C 0.27661 0.06519 0.89004 0.0
H30 H 0.29234 0.07772 0.88077 0.0
H31 H 0.31321 0.12893 0.84715 0.0
O32 O 0.24321 0.10796 0.30047 0.0
C33 C 0.29497 0.14244 0.13677 0.0
Co34 Co 0.88383 0.24769 0.18599 0.0
Co35 Co 0.87797 0.2695 0.99533 0.0
C36 C 0.8527 0.22182 0.06036 0.0
O37 O 0.86238 0.22203 0.13811 0.0
O38 O 0.85755 0.23882 0.004 0.0
C39 C 0.90126 0.23276 0.37533 0.0
O40 O 0.91325 0.21281 0.35376 0.0
C41 C 0.87572 0.26522 0.80025 0.0
C42 C 0.89775 0.29727 0.76055 0.0
C43 C 0.8881 0.27552 0.72782 0.0
N44 N 0.87941 0.27937 0.87287 0.0
N45 N 0.89139 0.29917 0.84759 0.0
C46 C 0.86065 0.24232 0.80108 0.0
H47 H 0.87052 0.2277 0.83785 0.0
H48 H 0.85641 0.236 0.73192 0.0
H49 H 0.84325 0.24585 0.8371 0.0
C50 C 0.9372 0.24859 0.13104 0.0
N51 N 0.91313 0.2529 0.11636 0.0
N52 N 0.91057 0.26246 0.03549 0.0
C53 C 0.93294 0.26427 0.99687 0.0
C54 C 0.95038 0.25581 0.05603 0.0
C55 C 0.94758 0.23685 0.21312 0.0
H56 H 0.94078 0.21778 0.21718 0.0
H57 H 0.96787 0.23654 0.21129 0.0
H58 H 0.94161 0.24694 0.27354 0.0
O59 O 0.86286 0.27655 0.19124 0.0
O60 O 0.863 0.29713 0.06511 0.0
H61 H 0.93639 0.29289 0.90021 0.0
H62 H 0.95696 0.26789 0.88171 0.0
C63 C 0.93815 0.27272 0.90331 0.0
H64 H 0.9253 0.26393 0.8565 0.0
H65 H 0.89722 0.31284 0.89164 0.0
O66 O 0.89046 0.24514 0.31533 0.0
C67 C 0.85646 0.2952 0.14674 0.0
Co68 Co 0.75634 0.88644 0.16957 0.0
Co69 Co 0.7337 0.87393 0.98 0.0
C70 C 0.78154 0.85148 0.05205 0.0
O71 O 0.78129 0.86322 0.12575 0.0
O72 O 0.76469 0.85502 0.99424 0.0
C73 C 0.77071 0.90919 0.36427 0.0
O74 O 0.78409 0.92915 0.3664 0.0
C75 C 0.74066 0.87013 0.78518 0.0
C76 C 0.70545 0.88352 0.73267 0.0
C77 C 0.72925 0.87811 0.70696 0.0
N78 N 0.72486 0.87214 0.85438 0.0
N79 N 0.70352 0.87918 0.82171 0.0
C80 C 0.76648 0.86139 0.79447 0.0
H81 H 0.76646 0.84314 0.82688 0.0
H82 H 0.77688 0.87415 0.83811 0.0
H83 H 0.7757 0.85976 0.72828 0.0
C84 C 0.75479 0.93645 0.09324 0.0
N85 N 0.75051 0.91222 0.08709 0.0
N86 N 0.73919 0.90757 0.01086 0.0
C87 C 0.73531 0.929 0.96761 0.0
C88 C 0.74532 0.94786 0.01783 0.0
C89 C 0.76728 0.94849 0.17077 0.0
H90 H 0.78426 0.93834 0.18704 0.0
H91 H 0.77176 0.96788 0.1561 0.0
H92 H 0.75501 0.94782 0.23013 0.0
O93 O 0.72647 0.86749 0.1914 0.0
O94 O 0.70862 0.85834 0.06118 0.0
H95 H 0.70249 0.92485 0.89176 0.0
H96 H 0.72034 0.95125 0.86018 0.0
C97 C 0.72132 0.93188 0.882 0.0
H98 H 0.7302 0.92123 0.82836 0.0
H99 H 0.68819 0.88291 0.86118 0.0
O100 O 0.76506 0.90025 0.28826 0.0
C101 C 0.70936 0.85739 0.14706 0.0
Co102 Co 0.11703 0.75465 0.17448 0.0
Co103 Co 0.12479 0.73177 0.98601 0.0
C104 C 0.14846 0.77981 0.04995 0.0
O105 O 0.13692 0.78136 0.12407 0.0
O106 O 0.14606 0.76147 0.99778 0.0
C107 C 0.12085 0.77099 0.35595 0.0
O108 O 0.13719 0.78646 0.32487 0.0
C109 C 0.12212 0.7409 0.79511 0.0
C110 C 0.12819 0.70477 0.73276 0.0
C111 C 0.12387 0.72919 0.71322 0.0
N112 N 0.12505 0.72429 0.86077 0.0
N113 N 0.12864 0.70265 0.82323 0.0
C114 C 0.11843 0.76767 0.81083 0.0
H115 H 0.13654 0.77683 0.81253 0.0
H116 H 0.10921 0.77075 0.87633 0.0
H117 H 0.10753 0.77593 0.75572 0.0
C118 C 0.06517 0.75199 0.11638 0.0
N119 N 0.08924 0.74846 0.1026 0.0
N120 N 0.0925 0.73876 0.02258 0.0
C121 C 0.07059 0.73556 0.98311 0.0
C122 C 0.05259 0.74397 0.04089 0.0
C123 C 0.05461 0.76239 0.20085 0.0
H124 H 0.05717 0.74905 0.25632 0.0
H125 H 0.06465 0.77931 0.21932 0.0
H126 H 0.03483 0.7664 0.19335 0.0
O127 O 0.13801 0.72539 0.18594 0.0
O128 O 0.13767 0.70413 0.06032 0.0
H129 H 0.079 0.70888 0.88198 0.0
H130 H 0.04763 0.71936 0.88027 0.0
C131 C 0.06689 0.72492 0.89145 0.0
H132 H 0.07166 0.73896 0.84068 0.0
H133 H 0.1316 0.68653 0.85921 0.0
O134 O 0.10765 0.75905 0.30125 0.0
C135 C 0.14355 0.70611 0.14287 0.0
Co136 Co 0.24898 0.88234 0.82112 0.0
Co137 Co 0.26899 0.87469 0.01657 0.0
C138 C 0.2223 0.85049 0.94625 0.0
O139 O 0.22267 0.86049 0.86867 0.0
O140 O 0.2389 0.85489 0.00389 0.0
C141 C 0.22649 0.88946 0.64128 0.0
O142 O 0.20456 0.88594 0.67486 0.0
C143 C 0.25711 0.87872 0.20462 0.0
C144 C 0.29242 0.87516 0.27509 0.0
C145 C 0.26763 0.87887 0.28879 0.0
N146 N 0.27474 0.87525 0.14303 0.0
N147 N 0.29587 0.87301 0.18545 0.0
C148 C 0.23066 0.88246 0.18297 0.0
H149 H 0.22867 0.89153 0.11662 0.0
H150 H 0.22156 0.89357 0.23573 0.0
H151 H 0.22148 0.86437 0.17987 0.0
C152 C 0.25088 0.93451 0.8801 0.0
N153 N 0.25428 0.91039 0.89413 0.0
N154 N 0.2633 0.90715 0.97531 0.0
C155 C 0.26588 0.92913 0.01542 0.0
C156 C 0.25799 0.94719 0.95678 0.0
C157 C 0.24165 0.94511 0.79404 0.0
H158 H 0.25565 0.94226 0.74107 0.0
H159 H 0.22482 0.93529 0.77321 0.0
H160 H 0.23788 0.96497 0.8004 0.0
O161 O 0.2789 0.86277 0.81381 0.0
O162 O 0.29611 0.85813 0.94783 0.0
H163 H 0.29085 0.92083 0.1223 0.0
H164 H 0.2802 0.9521 0.12207 0.0
C165 C 0.27493 0.93284 0.10933 0.0
H166 H 0.26007 0.92806 0.15677 0.0
H167 H 0.31261 0.87027 0.15333 0.0
O168 O 0.24495 0.89043 0.69268 0.0
C169 C 0.29604 0.85473 0.86288 0.0
Co170 Co 0.11672 0.24686 0.82102 0.0
Co171 Co 0.12707 0.26647 0.01497 0.0
C172 C 0.1488 0.21906 0.93974 0.0
O173 O 0.13729 0.21937 0.86524 0.0
O174 O 0.14662 0.23618 0.9971 0.0
C175 C 0.10632 0.22547 0.64029 0.0
O176 O 0.10588 0.20318 0.67323 0.0
C177 C 0.12289 0.25421 0.20282 0.0
C178 C 0.12885 0.2891 0.27426 0.0
C179 C 0.12333 0.26459 0.28739 0.0
N180 N 0.12772 0.27168 0.14179 0.0
N181 N 0.1315 0.29251 0.18481 0.0
C182 C 0.11695 0.22822 0.18003 0.0
H183 H 0.10878 0.227 0.1119 0.0
H184 H 0.10425 0.22026 0.23044 0.0
H185 H 0.13407 0.21734 0.18053 0.0
C186 C 0.0652 0.24923 0.88835 0.0
N187 N 0.0895 0.25259 0.89758 0.0
N188 N 0.09392 0.2618 0.97782 0.0
C189 C 0.07248 0.26497 0.02127 0.0
C190 C 0.05364 0.2569 0.96659 0.0
C191 C 0.05327 0.23931 0.80574 0.0
H192 H 0.06534 0.22562 0.77326 0.0
H193 H 0.03529 0.23095 0.82166 0.0
H194 H 0.05026 0.25459 0.75795 0.0
O195 O 0.13732 0.27639 0.81339 0.0
O196 O 0.14325 0.29364 0.94664 0.0
H197 H 0.08336 0.28986 0.12549 0.0
H198 H 0.05125 0.28224 0.12645 0.0
C199 C 0.0699 0.27503 0.11429 0.0
H200 H 0.07317 0.26012 0.16326 0.0
H201 H 0.13536 0.30911 0.15316 0.0
O202 O 0.10835 0.24372 0.69239 0.0
C203 C 0.14609 0.29342 0.86149 0.0
Co204 Co 0.75971 0.11672 0.80441 0.0
Co205 Co 0.7366 0.12383 0.99371 0.0
C206 C 0.78378 0.14891 0.9317 0.0
O207 O 0.78564 0.13769 0.85692 0.0
O208 O 0.76579 0.14544 0.98447 0.0
C209 C 0.77193 0.12499 0.62546 0.0
O210 O 0.78206 0.14475 0.65935 0.0
C211 C 0.74386 0.12309 0.18662 0.0
C212 C 0.70651 0.12528 0.24237 0.0
C213 C 0.73096 0.12388 0.26641 0.0
N214 N 0.72791 0.1239 0.11803 0.0
N215 N 0.70556 0.1252 0.15165 0.0
C216 C 0.77103 0.12215 0.17538 0.0
H217 H 0.77808 0.14108 0.16781 0.0
H218 H 0.77578 0.1117 0.11384 0.0
H219 H 0.77997 0.11375 0.23474 0.0
C220 C 0.75633 0.06437 0.86009 0.0
N221 N 0.75345 0.08851 0.87544 0.0
N222 N 0.74423 0.09161 0.95633 0.0
C223 C 0.74119 0.06959 0.99546 0.0
C224 C 0.74872 0.05156 0.93595 0.0
C225 C 0.76545 0.05396 0.77337 0.0
H226 H 0.75284 0.05932 0.71835 0.0
H227 H 0.78364 0.06189 0.75773 0.0
H228 H 0.76675 0.03372 0.77614 0.0
O229 O 0.7301 0.13682 0.79044 0.0
O230 O 0.7095 0.13719 0.9183 0.0
H231 H 0.71431 0.07604 0.09743 0.0
H232 H 0.72879 0.04633 0.10477 0.0
C233 C 0.73171 0.06592 0.08879 0.0
H234 H 0.74527 0.07338 0.13668 0.0
H235 H 0.68971 0.12615 0.11278 0.0
O236 O 0.76528 0.10795 0.67806 0.0
C237 C 0.71123 0.14267 0.83518 0.0
Co238 Co 0.88717 0.75552 0.81208 0.0
Co239 Co 0.87605 0.73501 0.00442 0.0
C240 C 0.85554 0.78331 0.93191 0.0
O241 O 0.86709 0.78322 0.85742 0.0
O242 O 0.85756 0.76594 0.98841 0.0
C243 C 0.88919 0.775 0.6323 0.0
O244 O 0.87803 0.79445 0.66406 0.0
C245 C 0.87909 0.74526 0.19446 0.0
C246 C 0.87223 0.70968 0.25997 0.0
C247 C 0.87764 0.734 0.27721 0.0
N248 N 0.87497 0.72848 0.13031 0.0
N249 N 0.87081 0.70719 0.16976 0.0
C250 C 0.88444 0.77165 0.17664 0.0
H251 H 0.89353 0.77383 0.11041 0.0
H252 H 0.89613 0.77946 0.23051 0.0
H253 H 0.86695 0.78192 0.17551 0.0
C254 C 0.93799 0.75106 0.87773 0.0
N255 N 0.91369 0.74845 0.88839 0.0
N256 N 0.9092 0.7392 0.9684 0.0
C257 C 0.93062 0.73555 0.01121 0.0
C258 C 0.9495 0.74308 0.9555 0.0
C259 C 0.94972 0.76091 0.79441 0.0
H260 H 0.94636 0.74803 0.73806 0.0
H261 H 0.94111 0.77862 0.77631 0.0
H262 H 0.96972 0.76338 0.80313 0.0
O263 O 0.86589 0.72677 0.80097 0.0
O264 O 0.85924 0.70893 0.93277 0.0
H265 H 0.92 0.71081 0.11625 0.0
H266 H 0.95188 0.71945 0.11892 0.0
C267 C 0.93308 0.72598 0.10501 0.0
H268 H 0.92899 0.74097 0.15283 0.0
H269 H 0.8672 0.69096 0.13522 0.0
O270 O 0.89752 0.75907 0.6861 0.0
C271 C 0.85651 0.70974 0.84763 0.0
Co272 Co 0.74856 0.61654 0.68479 0.0
Co273 Co 0.7674 0.62573 0.48922 0.0
C274 C 0.72054 0.64805 0.56457 0.0
O275 O 0.72105 0.63684 0.63965 0.0
O276 O 0.73744 0.64561 0.50652 0.0
C277 C 0.72652 0.61076 0.863 0.0
O278 O 0.70501 0.61561 0.82805 0.0
C279 C 0.75559 0.62262 0.30069 0.0
C280 C 0.79117 0.62589 0.23152 0.0
C281 C 0.76639 0.62239 0.21692 0.0
N282 N 0.77307 0.62587 0.36287 0.0
N283 N 0.79435 0.62798 0.32125 0.0
C284 C 0.72907 0.61901 0.32161 0.0
H285 H 0.72689 0.60973 0.38751 0.0
H286 H 0.71994 0.60819 0.26812 0.0
H287 H 0.72007 0.63717 0.32563 0.0
C288 C 0.75195 0.56485 0.62444 0.0
N289 N 0.75447 0.58908 0.61091 0.0
N290 N 0.76256 0.59291 0.52873 0.0
C291 C 0.76537 0.57115 0.48731 0.0
C292 C 0.75866 0.55268 0.54627 0.0
C293 C 0.7435 0.55377 0.71088 0.0
H294 H 0.75691 0.55823 0.76441 0.0
H295 H 0.72573 0.56199 0.73037 0.0
H296 H 0.74163 0.5336 0.70561 0.0
O297 O 0.77787 0.63721 0.69124 0.0
O298 O 0.79458 0.64197 0.55627 0.0
H299 H 0.78916 0.57998 0.37743 0.0
H300 H 0.7782 0.54881 0.3763 0.0
C301 C 0.77328 0.56801 0.39177 0.0
H302 H 0.75792 0.57327 0.34736 0.0
H303 H 0.81103 0.63044 0.35405 0.0
O304 O 0.74497 0.60801 0.81245 0.0
C305 C 0.79465 0.64555 0.64101 0.0
Co306 Co 0.38678 0.74446 0.68729 0.0
Co307 Co 0.37881 0.76751 0.49791 0.0
C308 C 0.35469 0.71983 0.56008 0.0
O309 O 0.3659 0.71843 0.63492 0.0
O310 O 0.35781 0.73777 0.50681 0.0
C311 C 0.37625 0.73483 0.863 0.0
O312 O 0.35542 0.72866 0.82528 0.0
C313 C 0.37853 0.7601 0.30492 0.0
C314 C 0.38199 0.79745 0.24976 0.0
C315 C 0.3803 0.77302 0.22539 0.0
N316 N 0.37932 0.77602 0.37368 0.0
N317 N 0.38135 0.79836 0.34039 0.0
C318 C 0.37607 0.73299 0.3158 0.0
H319 H 0.3569 0.72858 0.33401 0.0
H320 H 0.38816 0.72671 0.37104 0.0
H321 H 0.38064 0.72304 0.2531 0.0
C322 C 0.43882 0.74742 0.63002 0.0
N323 N 0.4147 0.75071 0.61627 0.0
N324 N 0.41134 0.76078 0.53687 0.0
C325 C 0.43328 0.76422 0.49759 0.0
C326 C 0.45142 0.7558 0.55487 0.0
C327 C 0.44942 0.73705 0.71446 0.0
H328 H 0.44485 0.74927 0.77162 0.0
H329 H 0.44093 0.71899 0.72832 0.0
H330 H 0.46957 0.73507 0.70968 0.0
O331 O 0.36722 0.77443 0.70035 0.0
O332 O 0.36347 0.7941 0.57079 0.0
H333 H 0.42839 0.79364 0.40476 0.0
H334 H 0.45644 0.77666 0.38809 0.0
C335 C 0.43685 0.77522 0.40656 0.0
H336 H 0.42757 0.76356 0.35653 0.0
H337 H 0.38249 0.81418 0.37947 0.0
O338 O 0.39487 0.73838 0.81361 0.0
C339 C 0.35984 0.79266 0.65523 0.0
Co340 Co 0.25435 0.38556 0.68187 0.0
Co341 Co 0.23323 0.37551 0.49009 0.0
C342 C 0.28195 0.35458 0.56003 0.0
O343 O 0.28206 0.36583 0.63512 0.0
O344 O 0.26429 0.35668 0.5048 0.0
C345 C 0.27452 0.3973 0.86586 0.0
O346 O 0.29701 0.39991 0.8364 0.0
C347 C 0.24468 0.38128 0.30227 0.0
C348 C 0.21032 0.37283 0.23103 0.0
C349 C 0.23439 0.38 0.21777 0.0
N350 N 0.22763 0.37526 0.36345 0.0
N351 N 0.20709 0.37009 0.32056 0.0
C352 C 0.27023 0.38889 0.32457 0.0
H353 H 0.27131 0.39582 0.39453 0.0
H354 H 0.27668 0.40317 0.27701 0.0
H355 H 0.28246 0.37281 0.318 0.0
C356 C 0.25144 0.43727 0.61522 0.0
N357 N 0.24766 0.41298 0.60694 0.0
N358 N 0.23726 0.40865 0.52864 0.0
C359 C 0.23343 0.43014 0.48617 0.0
C360 C 0.24256 0.44891 0.53894 0.0
C361 C 0.26349 0.44918 0.69396 0.0
H362 H 0.27484 0.43578 0.73105 0.0
H363 H 0.27496 0.46481 0.67176 0.0
H364 H 0.24916 0.45643 0.73949 0.0
O365 O 0.22544 0.36408 0.6897 0.0
O366 O 0.20675 0.35838 0.55921 0.0
H367 H 0.21333 0.45115 0.38793 0.0
H368 H 0.23613 0.43108 0.34315 0.0
C369 C 0.22185 0.43286 0.39562 0.0
H370 H 0.20773 0.41859 0.38546 0.0
H371 H 0.19085 0.36499 0.35229 0.0
O372 O 0.25717 0.39339 0.81121 0.0
C373 C 0.20803 0.35509 0.64399 0.0
Co374 Co 0.61597 0.25212 0.67318 0.0
Co375 Co 0.62229 0.22977 0.48437 0.0
C376 C 0.64563 0.27842 0.54363 0.0
O377 O 0.63424 0.27924 0.61845 0.0
O378 O 0.64343 0.26022 0.49 0.0
C379 C 0.60171 0.2677 0.868 0.0
O380 O 0.59172 0.2892 0.85386 0.0
C381 C 0.62851 0.22946 0.28939 0.0
C382 C 0.59925 0.2037 0.25172 0.0
C383 C 0.61423 0.22196 0.21745 0.0
N384 N 0.62069 0.21793 0.36378 0.0
N385 N 0.60437 0.20137 0.33978 0.0
C386 C 0.64977 0.24664 0.28681 0.0
H387 H 0.66401 0.24056 0.33505 0.0
H388 H 0.64378 0.26503 0.30702 0.0
H389 H 0.65757 0.24773 0.21797 0.0
C390 C 0.56285 0.24979 0.62166 0.0
N391 N 0.58687 0.24547 0.60647 0.0
N392 N 0.58971 0.23806 0.52278 0.0
C393 C 0.56762 0.23847 0.48179 0.0
C394 C 0.55001 0.2452 0.54326 0.0
C395 C 0.55246 0.25959 0.7072 0.0
H396 H 0.5639 0.27493 0.73108 0.0
H397 H 0.53339 0.26601 0.69811 0.0
H398 H 0.55244 0.24499 0.75865 0.0
O399 O 0.63857 0.22435 0.68109 0.0
O400 O 0.63602 0.20244 0.55839 0.0
H401 H 0.55908 0.2165 0.36738 0.0
H402 H 0.54688 0.24677 0.36237 0.0
C403 C 0.56306 0.23591 0.38325 0.0
H404 H 0.57899 0.24256 0.34511 0.0
H405 H 0.59481 0.19036 0.38511 0.0
O406 O 0.61001 0.25531 0.80288 0.0
C407 C 0.64372 0.20502 0.63829 0.0
Co408 Co 0.74171 0.38621 0.32332 0.0
Co409 Co 0.7661 0.37623 0.50849 0.0
C410 C 0.7168 0.35337 0.44493 0.0
O411 O 0.71453 0.36672 0.37504 0.0
O412 O 0.73584 0.35515 0.49445 0.0
C413 C 0.72952 0.38177 0.13947 0.0
O414 O 0.7158 0.36361 0.16768 0.0
C415 C 0.76085 0.38232 0.70351 0.0
C416 C 0.79436 0.36529 0.75707 0.0
C417 C 0.77263 0.37634 0.78282 0.0
N418 N 0.7747 0.37492 0.63374 0.0
N419 N 0.79488 0.36499 0.66633 0.0
C420 C 0.73653 0.3946 0.69492 0.0
H421 H 0.73098 0.39606 0.6234 0.0
H422 H 0.73739 0.41324 0.72395 0.0
H423 H 0.7227 0.38444 0.73476 0.0
C424 C 0.74632 0.43747 0.38662 0.0
N425 N 0.74936 0.41322 0.39762 0.0
N426 N 0.76061 0.40919 0.47436 0.0
C427 C 0.76596 0.43087 0.51299 0.0
C428 C 0.75666 0.44943 0.45962 0.0
C429 C 0.73433 0.44882 0.30653 0.0
H430 H 0.71781 0.43816 0.28796 0.0
H431 H 0.72935 0.46818 0.31952 0.0
H432 H 0.74718 0.44812 0.2488 0.0
O433 O 0.77022 0.36428 0.30702 0.0
O434 O 0.79237 0.3626 0.43111 0.0
H435 H 0.79231 0.45059 0.59285 0.0
H436 H 0.76802 0.43685 0.65473 0.0
C437 C 0.78058 0.43409 0.59726 0.0
H438 H 0.79234 0.41797 0.60973 0.0
H439 H 0.80873 0.35747 0.62673 0.0
O440 O 0.73804 0.39676 0.19663 0.0
C441 C 0.78938 0.35749 0.34818 0.0
Co442 Co 0.6194 0.74774 0.33444 0.0
Co443 Co 0.62816 0.77092 0.52371 0.0
C444 C 0.65088 0.72236 0.46104 0.0
O445 O 0.64019 0.72149 0.38504 0.0
O446 O 0.64774 0.7403 0.5144 0.0
C447 C 0.6001 0.73228 0.14175 0.0
O448 O 0.58361 0.71518 0.15477 0.0
C449 C 0.63121 0.76498 0.71805 0.0
C450 C 0.61389 0.79897 0.76618 0.0
C451 C 0.6213 0.77589 0.79394 0.0
N452 N 0.62828 0.7802 0.64777 0.0
N453 N 0.61899 0.80095 0.67785 0.0
C454 C 0.64293 0.74025 0.71226 0.0
H455 H 0.66087 0.74192 0.67794 0.0
H456 H 0.63122 0.7278 0.6721 0.0
H457 H 0.64597 0.73223 0.77986 0.0
C458 C 0.56735 0.75032 0.39616 0.0
N459 N 0.59152 0.75428 0.40765 0.0
N460 N 0.59504 0.76474 0.48648 0.0
C461 C 0.57307 0.76783 0.52674 0.0
C462 C 0.55496 0.75867 0.4713 0.0
C463 C 0.55625 0.73867 0.31523 0.0
H464 H 0.56355 0.71984 0.30864 0.0
H465 H 0.53602 0.73787 0.32012 0.0
H466 H 0.5614 0.74934 0.25471 0.0
O467 O 0.63937 0.77759 0.3188 0.0
O468 O 0.64383 0.79688 0.44891 0.0
H469 H 0.57368 0.79896 0.61296 0.0
H470 H 0.54967 0.77759 0.63894 0.0
C471 C 0.56895 0.77928 0.61665 0.0
H472 H 0.58062 0.77027 0.66695 0.0
H473 H 0.61426 0.81569 0.63678 0.0
O474 O 0.61099 0.74182 0.20823 0.0
C475 C 0.6473 0.79554 0.36434 0.0
Co476 Co 0.2563 0.61743 0.31447 0.0
Co477 Co 0.23492 0.62453 0.50585 0.0
C478 C 0.28171 0.64984 0.44056 0.0
O479 O 0.2814 0.64013 0.36274 0.0
O480 O 0.26494 0.64505 0.49737 0.0
C481 C 0.26968 0.6251 0.1364 0.0
O482 O 0.28043 0.64451 0.17036 0.0
C483 C 0.242 0.62406 0.69851 0.0
C484 C 0.20453 0.62609 0.75344 0.0
C485 C 0.22895 0.6248 0.77787 0.0
N486 N 0.22616 0.62474 0.62966 0.0
N487 N 0.20375 0.62599 0.66273 0.0
C488 C 0.2692 0.62323 0.68798 0.0
H489 H 0.27417 0.61255 0.62718 0.0
H490 H 0.27809 0.61513 0.74805 0.0
H491 H 0.27616 0.64217 0.67953 0.0
C492 C 0.25403 0.56492 0.37272 0.0
N493 N 0.25108 0.5891 0.3874 0.0
N494 N 0.24217 0.59228 0.46873 0.0
C495 C 0.23952 0.57034 0.50884 0.0
C496 C 0.24689 0.5522 0.44957 0.0
C497 C 0.2626 0.55432 0.28556 0.0
H498 H 0.24957 0.55944 0.23157 0.0
H499 H 0.28062 0.56233 0.26786 0.0
H500 H 0.26407 0.53409 0.28905 0.0
O501 O 0.22623 0.63644 0.30064 0.0
O502 O 0.20743 0.63832 0.43158 0.0
H503 H 0.21321 0.57687 0.6128 0.0
H504 H 0.22792 0.54728 0.61994 0.0
C505 C 0.23061 0.56684 0.60303 0.0
H506 H 0.24444 0.57448 0.64952 0.0
H507 H 0.18796 0.62683 0.62348 0.0
O508 O 0.26208 0.60844 0.18882 0.0
C509 C 0.20799 0.6429 0.34754 0.0
Co510 Co 0.38225 0.25554 0.31404 0.0
Co511 Co 0.37504 0.23337 0.50516 0.0
C512 C 0.35052 0.28097 0.43844 0.0
O513 O 0.36057 0.28161 0.3611 0.0
O514 O 0.35477 0.26345 0.49272 0.0
C515 C 0.39157 0.27631 0.1294 0.0
O516 O 0.39147 0.29901 0.15827 0.0
C517 C 0.37913 0.24494 0.69334 0.0
C518 C 0.37396 0.20976 0.76363 0.0
C519 C 0.37858 0.23442 0.7776 0.0
N520 N 0.37514 0.22745 0.6316 0.0
N521 N 0.3719 0.20642 0.67391 0.0
C522 C 0.38403 0.27123 0.6718 0.0
H523 H 0.39251 0.27299 0.60434 0.0
H524 H 0.39611 0.2796 0.72332 0.0
H525 H 0.36644 0.28134 0.67158 0.0
C526 C 0.43468 0.25524 0.37745 0.0
N527 N 0.41057 0.25067 0.38792 0.0
N528 N 0.40724 0.24019 0.46676 0.0
C529 C 0.429 0.2373 0.50773 0.0
C530 C 0.44705 0.24693 0.45312 0.0
C531 C 0.4458 0.2667 0.29605 0.0
H532 H 0.43216 0.27822 0.26079 0.0
H533 H 0.46197 0.27787 0.31477 0.0
H534 H 0.45204 0.25199 0.25011 0.0
O535 O 0.36276 0.22537 0.30618 0.0
O536 O 0.36133 0.20523 0.4343 0.0
H537 H 0.45157 0.21897 0.60657 0.0
H538 H 0.429 0.23942 0.65079 0.0
C539 C 0.43258 0.22563 0.5978 0.0
H540 H 0.41975 0.21011 0.60631 0.0
H541 H 0.36855 0.18979 0.64167 0.0
O542 O 0.38978 0.25871 0.18453 0.0
C543 C 0.35648 0.20656 0.35057 0.0
C544 C 0.246 0.13866 0.57995 0.0
C545 C 0.25655 0.11768 0.62034 0.0
C546 C 0.24293 0.09219 0.49391 0.0
C547 C 0.23258 0.11322 0.45267 0.0
N548 N 0.22106 0.15589 0.46101 0.0
N549 N 0.26322 0.07416 0.62342 0.0
C550 C 0.23295 0.13624 0.49751 0.0
C551 C 0.25444 0.09432 0.57951 0.0
N552 N 0.24948 0.16113 0.61864 0.0
N553 N 0.24203 0.07024 0.44984 0.0
H554 H 0.27294 0.07526 0.68356 0.0
H555 H 0.26018 0.05623 0.60301 0.0
H556 H 0.23169 0.06763 0.39172 0.0
H557 H 0.25172 0.05474 0.46903 0.0
H558 H 0.24498 0.17764 0.58813 0.0
H559 H 0.25845 0.16356 0.67986 0.0
H560 H 0.21793 0.17219 0.49519 0.0
H561 H 0.2128 0.15571 0.39808 0.0
C562 C 0.89553 0.2794 0.56074 0.0
C563 C 0.89375 0.26442 0.63845 0.0
C564 C 0.89864 0.228 0.54458 0.0
C565 C 0.90181 0.24299 0.46781 0.0
N566 N 0.91373 0.28304 0.41343 0.0
N567 N 0.9067 0.22575 0.70308 0.0
C568 C 0.90369 0.26878 0.4792 0.0
C569 C 0.89925 0.23905 0.63051 0.0
N570 N 0.88871 0.30344 0.56318 0.0
N571 N 0.89412 0.20353 0.53692 0.0
H572 H 0.91019 0.23368 0.76539 0.0
H573 H 0.91248 0.20763 0.69774 0.0
H574 H 0.89217 0.1946 0.47551 0.0
H575 H 0.88978 0.19269 0.59246 0.0
H576 H 0.89023 0.31521 0.50846 0.0
H577 H 0.87906 0.31111 0.61654 0.0
H578 H 0.91746 0.30158 0.42223 0.0
H579 H 0.92097 0.27583 0.35435 0.0
C580 C 0.73643 0.88902 0.45481 0.0
C581 C 0.76047 0.89903 0.44968 0.0
C582 C 0.76269 0.89808 0.61351 0.0
C583 C 0.74056 0.88444 0.61818 0.0
N584 N 0.70975 0.86166 0.53691 0.0
N585 N 0.79913 0.9047 0.52621 0.0
C586 C 0.72851 0.87815 0.53678 0.0
C587 C 0.77447 0.90087 0.52957 0.0
N588 N 0.72038 0.89132 0.38497 0.0
N589 N 0.77192 0.90981 0.68703 0.0
H590 H 0.80896 0.90484 0.46611 0.0
H591 H 0.81005 0.90448 0.58373 0.0
H592 H 0.76305 0.91032 0.74873 0.0
H593 H 0.78698 0.9215 0.68319 0.0
H594 H 0.7022 0.88572 0.38935 0.0
H595 H 0.72404 0.90163 0.32769 0.0
H596 H 0.70187 0.85506 0.47781 0.0
H597 H 0.70403 0.85258 0.59491 0.0
C598 C 0.10005 0.76005 0.50099 0.0
C599 C 0.12196 0.76233 0.45047 0.0
C600 C 0.14528 0.74554 0.57712 0.0
C601 C 0.12313 0.74064 0.62296 0.0
N602 N 0.07908 0.7397 0.62378 0.0
N603 N 0.16467 0.75134 0.43299 0.0
C604 C 0.10037 0.74693 0.58363 0.0
C605 C 0.14446 0.75365 0.48655 0.0
N606 N 0.07907 0.77089 0.47094 0.0
N607 N 0.16716 0.74264 0.62021 0.0
H608 H 0.16473 0.75507 0.36433 0.0
H609 H 0.18077 0.74298 0.45431 0.0
H610 H 0.16858 0.73632 0.6862 0.0
H611 H 0.18372 0.7486 0.59326 0.0
H612 H 0.06308 0.77183 0.50882 0.0
H613 H 0.0783 0.78097 0.41143 0.0
H614 H 0.06199 0.7415 0.59374 0.0
H615 H 0.07869 0.72988 0.68388 0.0
C616 C 0.25411 0.90585 0.4159 0.0
C617 C 0.25488 0.8823 0.37586 0.0
C618 C 0.22962 0.86561 0.49785 0.0
C619 C 0.23127 0.88844 0.54312 0.0
N620 N 0.24296 0.9308 0.54497 0.0
N621 N 0.24446 0.83948 0.37745 0.0
C622 C 0.24272 0.90879 0.50136 0.0
C623 C 0.24262 0.86217 0.41585 0.0
N624 N 0.26404 0.92539 0.37142 0.0
N625 N 0.21579 0.84716 0.53361 0.0
H626 H 0.25354 0.83631 0.31687 0.0
H627 H 0.23848 0.82341 0.40779 0.0
H628 H 0.2067 0.84855 0.59487 0.0
H629 H 0.21161 0.83104 0.49978 0.0
H630 H 0.26221 0.94349 0.3918 0.0
H631 H 0.27344 0.92367 0.31079 0.0
H632 H 0.25337 0.9458 0.5254 0.0
H633 H 0.23259 0.93393 0.60271 0.0
C634 C 0.12911 0.22358 0.49374 0.0
C635 C 0.10771 0.23031 0.54207 0.0
C636 C 0.09482 0.25657 0.4165 0.0
C637 C 0.11766 0.25233 0.374 0.0
N638 N 0.15735 0.23324 0.37276 0.0
N639 N 0.06961 0.25215 0.54995 0.0
C640 C 0.13488 0.23592 0.41208 0.0
C641 C 0.0903 0.24635 0.50295 0.0
N642 N 0.14412 0.20565 0.52621 0.0
N643 N 0.07729 0.26997 0.37323 0.0
H644 H 0.06466 0.24307 0.60887 0.0
H645 H 0.05772 0.26621 0.5324 0.0
H646 H 0.0802 0.27834 0.31119 0.0
H647 H 0.05934 0.27163 0.39554 0.0
H648 H 0.15836 0.19796 0.48939 0.0
H649 H 0.14131 0.19682 0.58729 0.0
H650 H 0.17186 0.22393 0.40227 0.0
H651 H 0.16227 0.24193 0.313 0.0
C652 C 0.74804 0.14531 0.50144 0.0
C653 C 0.76224 0.12514 0.53225 0.0
C654 C 0.75238 0.10284 0.3941 0.0
C655 C 0.74115 0.12415 0.3588 0.0
N656 N 0.73211 0.16719 0.37266 0.0
N657 N 0.78128 0.08623 0.5012 0.0
C658 C 0.74018 0.14588 0.41052 0.0
C659 C 0.76537 0.1043 0.4766 0.0
N660 N 0.74062 0.16315 0.55989 0.0
N661 N 0.74991 0.08099 0.35043 0.0
H662 H 0.79154 0.08692 0.56025 0.0
H663 H 0.78606 0.07179 0.45898 0.0
H664 H 0.73981 0.07914 0.29144 0.0
H665 H 0.7557 0.06439 0.37741 0.0
H666 H 0.72884 0.17728 0.54185 0.0
H667 H 0.74371 0.16246 0.62892 0.0
H668 H 0.73353 0.1841 0.40451 0.0
H669 H 0.72607 0.16837 0.3063 0.0
C670 C 0.90733 0.76023 0.48776 0.0
C671 C 0.88638 0.7677 0.53687 0.0
C672 C 0.86015 0.75582 0.41029 0.0
C673 C 0.88074 0.74568 0.3663 0.0
N674 N 0.9236 0.73546 0.36628 0.0
N675 N 0.84221 0.76776 0.55191 0.0
C676 C 0.90429 0.74715 0.40579 0.0
C677 C 0.86258 0.76448 0.49984 0.0
N678 N 0.93012 0.76603 0.51896 0.0
N679 N 0.8382 0.75717 0.36663 0.0
H680 H 0.84273 0.7729 0.61928 0.0
H681 H 0.82468 0.76295 0.53102 0.0
H682 H 0.83539 0.75016 0.3022 0.0
H683 H 0.82333 0.767 0.39138 0.0
H684 H 0.9461 0.76312 0.48244 0.0
H685 H 0.93289 0.77586 0.57826 0.0
H686 H 0.94068 0.73367 0.39641 0.0
H687 H 0.92201 0.72576 0.30621 0.0
C688 C 0.753 0.5951 0.0906 0.0
C689 C 0.754 0.61881 0.12936 0.0
C690 C 0.72994 0.63552 0.00443 0.0
C691 C 0.7311 0.61235 0.96109 0.0
N692 N 0.74181 0.56973 0.9627 0.0
N693 N 0.74477 0.66185 0.12431 0.0
C694 C 0.74188 0.59197 0.00485 0.0
C695 C 0.74252 0.63903 0.08721 0.0
N696 N 0.76259 0.57564 0.13638 0.0
N697 N 0.71705 0.65425 0.96609 0.0
H698 H 0.75351 0.66507 0.18551 0.0
H699 H 0.73949 0.67793 0.09248 0.0
H700 H 0.70857 0.65303 0.90369 0.0
H701 H 0.71312 0.67063 0.99857 0.0
H702 H 0.76054 0.55747 0.1172 0.0
H703 H 0.77211 0.57754 0.19664 0.0
H704 H 0.75169 0.55457 0.98404 0.0
H705 H 0.73177 0.56651 0.90423 0.0
C706 C 0.35918 0.76909 0.0768 0.0
C707 C 0.37923 0.76309 0.13276 0.0
C708 C 0.39506 0.7355 0.01658 0.0
C709 C 0.37662 0.74373 0.95699 0.0
N710 N 0.34491 0.77351 0.92453 0.0
N711 N 0.41898 0.74444 0.14922 0.0
C712 C 0.35964 0.76191 0.98532 0.0
C713 C 0.39798 0.74737 0.10079 0.0
N714 N 0.33934 0.78107 0.11124 0.0
N715 N 0.40934 0.71595 0.99388 0.0
H716 H 0.42203 0.75338 0.20995 0.0
H717 H 0.43422 0.7351 0.12503 0.0
H718 H 0.40744 0.70655 0.93323 0.0
H719 H 0.42139 0.70762 0.03866 0.0
H720 H 0.3232 0.78358 0.07516 0.0
H721 H 0.33801 0.78635 0.17844 0.0
H722 H 0.3343 0.7887 0.94093 0.0
H723 H 0.34519 0.76992 0.85589 0.0
C724 C 0.26428 0.36951 0.09567 0.0
C725 C 0.2465 0.38578 0.13098 0.0
C726 C 0.25084 0.4123 0.99887 0.0
C727 C 0.26865 0.39604 0.96332 0.0
N728 N 0.29599 0.36185 0.98533 0.0
N729 N 0.22622 0.42489 0.12661 0.0
C730 C 0.27671 0.37563 0.01457 0.0
C731 C 0.24078 0.40787 0.08562 0.0
N732 N 0.26825 0.3475 0.13702 0.0
N733 N 0.24321 0.43176 0.94841 0.0
H734 H 0.21823 0.42212 0.18946 0.0
H735 H 0.22341 0.44246 0.10179 0.0
H736 H 0.25176 0.4368 0.88852 0.0
H737 H 0.22799 0.44237 0.96386 0.0
H738 H 0.27878 0.33353 0.10947 0.0
H739 H 0.25944 0.34226 0.19617 0.0
H740 H 0.30453 0.34859 0.02452 0.0
H741 H 0.30494 0.36485 0.92457 0.0
C742 C 0.6064 0.21962 0.05111 0.0
C743 C 0.6109 0.23408 0.12846 0.0
C744 C 0.61044 0.2709 0.03459 0.0
C745 C 0.60315 0.25677 0.95941 0.0
N746 N 0.5864 0.21828 0.90685 0.0
N747 N 0.60629 0.27451 0.19463 0.0
C748 C 0.59871 0.23127 0.97083 0.0
C749 C 0.60982 0.26006 0.12095 0.0
N750 N 0.61 0.19489 0.05311 0.0
N751 N 0.61878 0.29429 0.02456 0.0
H752 H 0.60268 0.26749 0.25824 0.0
H753 H 0.60368 0.29336 0.18994 0.0
H754 H 0.62098 0.3027 0.96221 0.0
H755 H 0.62611 0.30423 0.07804 0.0
H756 H 0.60762 0.18364 0.99726 0.0
H757 H 0.6179 0.18588 0.10761 0.0
H758 H 0.58074 0.20025 0.91635 0.0
H759 H 0.57947 0.22621 0.84869 0.0
C760 C 0.74288 0.40209 0.99474 0.0
C761 C 0.7408 0.3807 0.0484 0.0
C762 C 0.75822 0.35636 0.92579 0.0
C763 C 0.76249 0.37799 0.87554 0.0
N764 N 0.76457 0.42205 0.87298 0.0
N765 N 0.75486 0.33925 0.0746 0.0
C766 C 0.75648 0.40109 0.91315 0.0
C767 C 0.75085 0.35829 0.01685 0.0
N768 N 0.73131 0.42314 0.01995 0.0
N769 N 0.76038 0.33388 0.88637 0.0
H770 H 0.75203 0.34045 0.14375 0.0
H771 H 0.76409 0.32338 0.05562 0.0
H772 H 0.76482 0.33146 0.81879 0.0
H773 H 0.75517 0.31775 0.91858 0.0
H774 H 0.73032 0.43853 0.97879 0.0
H775 H 0.72074 0.42445 0.07815 0.0
H776 H 0.76267 0.4393 0.90197 0.0
H777 H 0.77533 0.42191 0.81502 0.0
C778 C 0.60355 0.72888 0.97236 0.0
C779 C 0.60408 0.74333 0.05147 0.0
C780 C 0.61938 0.77783 0.96288 0.0
C781 C 0.61555 0.76446 0.88251 0.0
N782 N 0.59456 0.72991 0.81435 0.0
N783 N 0.60368 0.78465 0.11178 0.0
C784 C 0.60482 0.74074 0.88788 0.0
C785 C 0.6094 0.76877 0.04407 0.0
N786 N 0.60282 0.70395 0.97655 0.0
N787 N 0.63297 0.7988 0.96305 0.0
H788 H 0.59364 0.77953 0.16836 0.0
H789 H 0.60578 0.80353 0.10518 0.0
H790 H 0.6419 0.8054 0.90603 0.0
H791 H 0.63761 0.80792 0.02228 0.0
H792 H 0.60432 0.69301 0.91931 0.0
H793 H 0.60374 0.69421 0.03665 0.0
H794 H 0.58497 0.71345 0.81827 0.0
H795 H 0.593 0.73863 0.75254 0.0
C796 C 0.26301 0.60467 0.98758 0.0
C797 C 0.2602 0.62554 0.04317 0.0
C798 C 0.23839 0.64664 0.92184 0.0
C799 C 0.23901 0.62489 0.87021 0.0
N800 N 0.24714 0.58161 0.86154 0.0
N801 N 0.23921 0.66389 0.07118 0.0
C802 C 0.24996 0.60341 0.90527 0.0
C803 C 0.24631 0.64595 0.01261 0.0
N804 N 0.27862 0.58635 0.01222 0.0
N805 N 0.23057 0.66805 0.88405 0.0
H806 H 0.2424 0.66317 0.14015 0.0
H807 H 0.22763 0.6782 0.05331 0.0
H808 H 0.22443 0.6693 0.81782 0.0
H809 H 0.23226 0.68495 0.91584 0.0
H810 H 0.28319 0.57185 0.97001 0.0
H811 H 0.28885 0.58687 0.07139 0.0
H812 H 0.25277 0.56493 0.88827 0.0
H813 H 0.23688 0.57991 0.80285 0.0
C814 C 0.40903 0.2548 0.99548 0.0
C815 C 0.39063 0.27019 0.03211 0.0
C816 C 0.36446 0.26233 0.90099 0.0
C817 C 0.38285 0.24691 0.86478 0.0
N818 N 0.42422 0.2318 0.86744 0.0
N819 N 0.3528 0.29239 0.01304 0.0
C820 C 0.40563 0.24412 0.90911 0.0
C821 C 0.36906 0.27533 0.98228 0.0
N822 N 0.42961 0.25006 0.04454 0.0
N823 N 0.34209 0.26352 0.86003 0.0
H824 H 0.35475 0.30149 0.07405 0.0
H825 H 0.33827 0.29904 0.97512 0.0
H826 H 0.33802 0.25431 0.80047 0.0
H827 H 0.32689 0.27208 0.88797 0.0
H828 H 0.44219 0.23646 0.02862 0.0
H829 H 0.43373 0.25944 0.10364 0.0
H830 H 0.4421 0.23133 0.89119 0.0
H831 H 0.42223 0.22327 0.80518 0.0
C832 C 0.33101 0.17262 0.14934 0.0
C833 C 0.31476 0.15536 0.1887 0.0
C834 C 0.32679 0.17013 0.33858 0.0
C835 C 0.34421 0.18623 0.29937 0.0
N836 N 0.37002 0.19252 0.16854 0.0
N837 N 0.30759 0.13068 0.32189 0.0
C838 C 0.34867 0.18417 0.20505 0.0
C839 C 0.316 0.1518 0.28374 0.0
N840 N 0.32923 0.17929 0.0611 0.0
N841 N 0.31927 0.17266 0.42565 0.0
H842 H 0.30198 0.1157 0.28362 0.0
H843 H 0.30952 0.12693 0.39033 0.0
H844 H 0.32493 0.18669 0.46795 0.0
H845 H 0.30507 0.1622 0.45252 0.0
H846 H 0.33977 0.19338 0.03381 0.0
H847 H 0.31572 0.17306 0.01771 0.0
H848 H 0.37444 0.18997 0.10092 0.0
H849 H 0.38453 0.19874 0.20791 0.0
C850 C 0.81218 0.3482 0.20337 0.0
C851 C 0.80825 0.34348 0.2967 0.0
C852 C 0.84177 0.31434 0.29076 0.0
C853 C 0.84152 0.31433 0.1949 0.0
N854 N 0.82114 0.32954 0.06022 0.0
N855 N 0.81582 0.3158 0.42118 0.0
C856 C 0.8253 0.33082 0.15064 0.0
C857 C 0.82198 0.32472 0.33839 0.0
N858 N 0.80424 0.36947 0.16514 0.0
N859 N 0.86124 0.30532 0.3372 0.0
H860 H 0.8001 0.32103 0.45572 0.0
H861 H 0.82464 0.30077 0.4497 0.0
H862 H 0.87788 0.30134 0.30625 0.0
H863 H 0.86179 0.30527 0.40708 0.0
H864 H 0.80826 0.37422 0.09883 0.0
H865 H 0.79656 0.38369 0.20236 0.0
H866 H 0.80802 0.34029 0.02825 0.0
H867 H 0.82833 0.31613 0.01849 0.0
C868 C 0.65177 0.83084 0.25668 0.0
C869 C 0.66265 0.81378 0.31671 0.0
C870 C 0.70288 0.82264 0.25273 0.0
C871 C 0.69248 0.84133 0.19853 0.0
N872 N 0.65757 0.86571 0.15735 0.0
N873 N 0.69896 0.7971 0.38482 0.0
C874 C 0.66701 0.84611 0.2025 0.0
C875 C 0.68836 0.81094 0.31902 0.0
N876 N 0.62688 0.83224 0.25099 0.0
N877 N 0.72641 0.81518 0.23775 0.0
H878 H 0.68889 0.78837 0.4349 0.0
H879 H 0.71778 0.79634 0.39518 0.0
H880 H 0.73737 0.82247 0.1869 0.0
H881 H 0.73416 0.79998 0.26889 0.0
H882 H 0.61776 0.84223 0.20176 0.0
H883 H 0.61528 0.82227 0.29302 0.0
H884 H 0.63964 0.87176 0.16508 0.0
H885 H 0.66819 0.87706 0.11663 0.0
C886 C 0.18333 0.65041 0.20727 0.0
C887 C 0.18751 0.65572 0.29986 0.0
C888 C 0.15472 0.68585 0.28969 0.0
C889 C 0.15642 0.68605 0.19383 0.0
N890 N 0.17602 0.66817 0.06166 0.0
N891 N 0.17828 0.68266 0.42565 0.0
C892 C 0.17157 0.6681 0.15208 0.0
C893 C 0.17343 0.6745 0.34072 0.0
N894 N 0.19008 0.62833 0.17219 0.0
N895 N 0.1349 0.69562 0.33248 0.0
H896 H 0.19293 0.67669 0.46431 0.0
H897 H 0.16915 0.69757 0.45369 0.0
H898 H 0.11933 0.70135 0.29792 0.0
H899 H 0.13257 0.69459 0.40202 0.0
H900 H 0.18582 0.62306 0.10664 0.0
H901 H 0.19688 0.61416 0.212 0.0
H902 H 0.18815 0.65599 0.03139 0.0
H903 H 0.17013 0.68166 0.01765 0.0
C904 C 0.35294 0.83216 0.73905 0.0
C905 C 0.34356 0.81014 0.70202 0.0
C906 C 0.30555 0.8154 0.78672 0.0
C907 C 0.314 0.83838 0.81844 0.0
N908 N 0.34434 0.8703 0.81717 0.0
N909 N 0.30968 0.78282 0.67735 0.0
C910 C 0.33739 0.84722 0.79276 0.0
C911 C 0.31947 0.80237 0.72212 0.0
N912 N 0.37682 0.83833 0.72437 0.0
N913 N 0.28432 0.80581 0.81996 0.0
H914 H 0.31924 0.77318 0.62807 0.0
H915 H 0.29143 0.77757 0.68245 0.0
H916 H 0.27352 0.81507 0.86643 0.0
H917 H 0.27852 0.78797 0.80788 0.0
H918 H 0.38561 0.85269 0.75707 0.0
H919 H 0.38828 0.82815 0.68254 0.0
H920 H 0.35989 0.87897 0.79233 0.0
H921 H 0.33369 0.88137 0.85883 0.0
C922 C 0.15124 0.33121 0.76647 0.0
C923 C 0.16188 0.31155 0.81522 0.0
C924 C 0.20042 0.3176 0.73475 0.0
C925 C 0.19074 0.33875 0.69254 0.0
N926 N 0.15785 0.36766 0.6758 0.0
N927 N 0.19774 0.28894 0.85859 0.0
C928 C 0.16633 0.34611 0.71022 0.0
C929 C 0.18688 0.30575 0.80352 0.0
N930 N 0.12667 0.33533 0.77282 0.0
N931 N 0.2222 0.30823 0.70587 0.0
H932 H 0.18834 0.28017 0.91048 0.0
H933 H 0.21647 0.28553 0.8587 0.0
H934 H 0.23167 0.3157 0.65153 0.0
H935 H 0.22934 0.29167 0.72831 0.0
H936 H 0.11727 0.34748 0.73145 0.0
H937 H 0.11544 0.32557 0.81681 0.0
H938 H 0.14119 0.37541 0.6941 0.0
H939 H 0.16822 0.3786 0.63274 0.0
C940 C 0.68656 0.15094 0.6947 0.0
C941 C 0.69131 0.15606 0.78711 0.0
C942 C 0.65827 0.18584 0.78252 0.0
C943 C 0.65822 0.18564 0.68664 0.0
N944 N 0.67664 0.16874 0.55089 0.0
N945 N 0.6843 0.18363 0.9125 0.0
C946 C 0.67345 0.16829 0.64199 0.0
C947 C 0.67791 0.17497 0.82962 0.0
N948 N 0.69397 0.12933 0.65749 0.0
N949 N 0.63916 0.19553 0.82938 0.0
H950 H 0.69979 0.17794 0.94726 0.0
H951 H 0.67579 0.19879 0.9414 0.0
H952 H 0.62275 0.2004 0.79855 0.0
H953 H 0.63849 0.1953 0.89932 0.0
H954 H 0.68932 0.12412 0.59225 0.0
H955 H 0.7019 0.11534 0.69522 0.0
H956 H 0.68881 0.15716 0.51782 0.0
H957 H 0.66958 0.18215 0.50886 0.0
C958 C 0.80895 0.68713 0.68327 0.0
C959 C 0.81303 0.66157 0.68414 0.0
C960 C 0.84611 0.66703 0.7944 0.0
C961 C 0.84031 0.69228 0.79967 0.0
N962 N 0.81255 0.72519 0.76506 0.0
N963 N 0.83343 0.62644 0.74692 0.0
C964 C 0.82073 0.70201 0.74824 0.0
C965 C 0.83103 0.65128 0.74173 0.0
N966 N 0.79368 0.6972 0.62063 0.0
N967 N 0.86648 0.65828 0.83671 0.0
H968 H 0.8237 0.6145 0.70545 0.0
H969 H 0.84405 0.61766 0.79522 0.0
H970 H 0.87774 0.66922 0.8765 0.0
H971 H 0.87317 0.64063 0.82749 0.0
H972 H 0.79191 0.71599 0.61098 0.0
H973 H 0.78449 0.68681 0.57251 0.0
H974 H 0.79692 0.7326 0.73584 0.0
H975 H 0.81983 0.73604 0.81613 0.0
C976 C 0.27892 0.0113 0.01965 0.0
C977 C 0.25643 0.02416 0.02039 0.0
C978 C 0.23458 0.98625 0.98393 0.0
C979 C 0.25732 0.974 0.97423 0.0
N980 N 0.3013 0.97606 0.96526 0.0
N981 N 0.21325 0.02509 0.98784 0.0
C982 C 0.27956 0.98691 0.98688 0.0
C983 C 0.23433 0.01198 0.99818 0.0
N984 N 0.29959 0.02222 0.05218 0.0
N985 N 0.21326 0.97321 0.98281 0.0
H986 H 0.21228 0.04392 0.99847 0.0
H987 H 0.19723 0.01763 0.96173 0.0
H988 H 0.21264 0.95434 0.97293 0.0
H989 H 0.19636 0.98077 -0.00084 0.0
H990 H 0.31598 0.0129 0.06195 0.0
H991 H 0.29977 0.04004 0.07726 0.0
H992 H 0.3179 0.98539 0.96457 0.0
H993 H 0.30246 0.95831 0.93986 0.0
C994 C 0.01539 0.23366 0.00761 0.0
C995 C 0.02711 0.25629 0.98915 0.0
C996 C 0.98984 0.27824 0.03215 0.0
C997 C 0.97731 0.25562 0.0406 0.0
N998 N 0.97702 0.21179 0.02209 0.0
N999 N 0.02445 0.29997 0.969 0.0
C1000 C 0.98978 0.23328 0.02463 0.0
C1001 C 0.01402 0.27856 0.99717 0.0
N1002 N 0.02882 0.21262 0.01152 0.0
N1003 N 0.97879 0.29939 0.0595 0.0
H1004 H 0.04209 0.3009 0.94255 0.0
H1005 H 0.0149 0.3164 0.9644 0.0
H1006 H 0.9612 0.2998 0.08663 0.0
H1007 H 0.98784 0.31612 0.06339 0.0
H1008 H 0.02175 0.19603 0.03421 0.0
H1009 H 0.04759 0.21212 -0.00077 0.0
H1010 H 0.98463 0.19533 0.00065 0.0
H1011 H 0.95829 0.21073 0.03454 0.0
C1012 C 0.72444 0.98838 0.99553 0.0
C1013 C 0.7462 0.97431 0.99454 0.0
C1014 C 0.76995 0.01102 0.95734 0.0
C1015 C 0.74793 0.02462 0.95074 0.0
N1016 N 0.70386 0.02501 0.94409 0.0
N1017 N 0.78893 0.97099 0.95625 0.0
C1018 C 0.72504 0.01289 0.96389 0.0
C1019 C 0.76876 0.98526 0.96991 0.0
N1020 N 0.70335 0.97857 0.02931 0.0
N1021 N 0.792 0.02278 0.95547 0.0
H1022 H 0.78879 0.95204 0.96462 0.0
H1023 H 0.80516 0.97764 0.92889 0.0
H1024 H 0.79369 0.04164 0.94721 0.0
H1025 H 0.8085 0.01412 0.96982 0.0
H1026 H 0.6876 0.98881 0.0407 0.0
H1027 H 0.70223 0.96069 0.05346 0.0
H1028 H 0.68676 0.01662 0.94412 0.0
H1029 H 0.7036 0.04285 0.91921 0.0
C1030 C 0.98875 0.72113 0.98784 0.0
C1031 C 0.97596 0.7435 0.97722 0.0
C1032 C 0.0137 0.76638 0.00563 0.0
C1033 C 0.02589 0.74406 0.02418 0.0
N1034 N 0.02404 0.7006 0.05082 0.0
N1035 N 0.97491 0.78743 0.99309 0.0
C1036 C 0.01309 0.72153 0.02077 0.0
C1037 C 0.98804 0.76617 0.991 0.0
N1038 N 0.9779 0.69956 0.96393 0.0
N1039 N 0.02672 0.78766 0.99892 0.0
H1040 H 0.95604 0.78805 0.98325 0.0
H1041 H 0.98235 0.80417 0.01238 0.0
H1042 H 0.04553 0.78861 0.00974 0.0
H1043 H 0.01923 0.80397 0.97551 0.0
H1044 H 0.9872 0.68296 0.96148 0.0
H1045 H 0.96012 0.69856 0.93883 0.0
H1046 H 0.01477 0.68408 0.05854 0.0
H1047 H 0.04184 0.70026 0.07597 0.0
C1048 C 0.7351 0.48787 0.50715 0.0
C1049 C 0.75692 0.47602 0.47958 0.0
C1050 C 0.78017 0.51342 0.50916 0.0
C1051 C 0.75803 0.526 0.52715 0.0
N1052 N 0.71388 0.52636 0.52653 0.0
N1053 N 0.79939 0.47862 0.43732 0.0
C1054 C 0.7353 0.51356 0.52158 0.0
C1055 C 0.77924 0.48914 0.47551 0.0
N1056 N 0.71436 0.47452 0.52218 0.0
N1057 N 0.80211 0.52445 0.52638 0.0
H1058 H 0.7993 0.46087 0.41151 0.0
H1059 H 0.81546 0.48819 0.42411 0.0
H1060 H 0.8035 0.54214 0.5522 0.0
H1061 H 0.81878 0.5153 0.5229 0.0
H1062 H 0.69873 0.48181 0.5519 0.0
H1063 H 0.71341 0.45566 0.51214 0.0
H1064 H 0.69687 0.51859 0.51321 0.0
H1065 H 0.7132 0.54525 0.53602 0.0
C1066 C 0.49039 0.77904 0.52944 0.0
C1067 C 0.47825 0.75622 0.53813 0.0
C1068 C 0.5169 0.73485 0.5097 0.0
C1069 C 0.52829 0.75762 0.49081 0.0
N1070 N 0.52486 0.80111 0.46695 0.0
N1071 N 0.47891 0.7123 0.5218 0.0
C1072 C 0.51472 0.77966 0.4961 0.0
C1073 C 0.49121 0.73405 0.52433 0.0
N1074 N 0.47888 0.80009 0.55524 0.0
N1075 N 0.5307 0.7141 0.51665 0.0
H1076 H 0.4601 0.71091 0.53197 0.0
H1077 H 0.487 0.6959 0.50218 0.0
H1078 H 0.54957 0.71391 0.50651 0.0
H1079 H 0.52379 0.69752 0.54001 0.0
H1080 H 0.48765 0.81698 0.55879 0.0
H1081 H 0.46118 0.8003 0.58137 0.0
H1082 H 0.51498 0.81729 0.46047 0.0
H1083 H 0.54257 0.80223 0.44127 0.0
C1084 C 0.22223 0.48958 0.51476 0.0
C1085 C 0.24387 0.47533 0.5151 0.0
C1086 C 0.26785 0.51151 0.47271 0.0
C1087 C 0.24594 0.52527 0.46541 0.0
N1088 N 0.20188 0.52599 0.4599 0.0
N1089 N 0.28649 0.47129 0.47626 0.0
C1090 C 0.22298 0.51384 0.48046 0.0
C1091 C 0.26648 0.48587 0.48864 0.0
N1092 N 0.20108 0.48017 0.54946 0.0
N1093 N 0.29 0.52303 0.4682 0.0
H1094 H 0.28623 0.45246 0.48744 0.0
H1095 H 0.30271 0.47753 0.44756 0.0
H1096 H 0.29182 0.54177 0.45689 0.0
H1097 H 0.30647 0.51438 0.48298 0.0
H1098 H 0.18539 0.49058 0.55997 0.0
H1099 H 0.19982 0.46244 0.57506 0.0
H1100 H 0.1847 0.51778 0.4613 0.0
H1101 H 0.20174 0.54361 0.43297 0.0
C1102 C 0.51082 0.22393 0.50619 0.0
C1103 C 0.52323 0.24608 0.52598 0.0
C1104 C 0.48537 0.26906 0.50019 0.0
C1105 C 0.47372 0.24716 0.47209 0.0
N1106 N 0.47646 0.20453 0.43212 0.0
N1107 N 0.5237 0.2902 0.52643 0.0
C1108 C 0.48681 0.22481 0.47014 0.0
C1109 C 0.51089 0.26883 0.51886 0.0
N1110 N 0.52174 0.20198 0.52437 0.0
N1111 N 0.47195 0.28991 0.51163 0.0
H1112 H 0.54238 0.29075 0.54031 0.0
H1113 H 0.51623 0.30727 0.51206 0.0
H1114 H 0.45331 0.29088 0.49732 0.0
H1115 H 0.47888 0.30567 0.54164 0.0
H1116 H 0.51269 0.18526 0.51986 0.0
H1117 H 0.53916 0.20059 0.55239 0.0
H1118 H 0.48602 0.18838 0.42035 0.0
H1119 H 0.45891 0.20455 0.40466 0.0
C1120 C 0.17709 0.15906 0.01924 0.0
C1121 C 0.20225 0.16567 0.01973 0.0
C1122 C 0.19197 0.20489 0.94908 0.0
C1123 C 0.1668 0.19954 0.95896 0.0
N1124 N 0.13499 0.17307 0.01458 0.0
N1125 N 0.23295 0.1972 0.00271 0.0
C1126 C 0.15921 0.17704 0.99726 0.0
C1127 C 0.20954 0.18922 0.98914 0.0
N1128 N 0.1703 0.1354 0.03551 0.0
N1129 N 0.19912 0.22484 0.90024 0.0
H1130 H 0.24612 0.18691 0.03638 0.0
H1131 H 0.23857 0.21506 0.98955 0.0
H1132 H 0.18666 0.23646 0.86876 0.0
H1133 H 0.21727 0.22837 0.8833 0.0
H1134 H 0.15248 0.12907 0.02722 0.0
H1135 H 0.18281 0.12151 0.04899 0.0
H1136 H 0.12864 0.15827 0.05205 0.0
H1137 H 0.12138 0.18554 0.99683 0.0
C1138 C 0.83603 0.17761 0.06341 0.0
C1139 C 0.83433 0.20256 0.03427 0.0
C1140 C 0.80061 0.19131 0.93241 0.0
C1141 C 0.80266 0.16669 0.95995 0.0
N1142 N 0.82386 0.13522 0.04085 0.0
N1143 N 0.80771 0.23351 0.97123 0.0
C1144 C 0.82058 0.15958 0.02337 0.0
C1145 C 0.81468 0.20951 0.97653 0.0
N1146 N 0.85136 0.17096 0.13177 0.0
N1147 N 0.78533 0.19734 0.86314 0.0
H1148 H 0.81518 0.24717 0.01172 0.0
H1149 H 0.79227 0.23939 0.93642 0.0
H1150 H 0.77438 0.18453 0.83018 0.0
H1151 H 0.78526 0.21453 0.83286 0.0
H1152 H 0.84953 0.15461 0.16712 0.0
H1153 H 0.86513 0.18179 0.1583 0.0
H1154 H 0.8385 0.1282 0.07725 0.0
H1155 H 0.81305 0.12159 0.01196 0.0
C1156 C 0.8443 0.82005 0.02274 0.0
C1157 C 0.83821 0.80316 0.95424 0.0
C1158 C 0.79515 0.81407 0.96766 0.0
C1159 C 0.80104 0.83282 0.0307 0.0
N1160 N 0.83068 0.84675 0.14211 0.0
N1161 N 0.80913 0.78816 0.84642 0.0
C1162 C 0.8255 0.8341 0.06507 0.0
C1163 C 0.81405 0.80153 0.92187 0.0
N1164 N 0.86838 0.82322 0.04472 0.0
N1165 N 0.77149 0.80635 0.95856 0.0
H1166 H 0.82276 0.77926 0.80991 0.0
H1167 H 0.79215 0.78827 0.81464 0.0
H1168 H 0.75746 0.81247 0.00041 0.0
H1169 H 0.76643 0.79142 0.91914 0.0
H1170 H 0.87482 0.83714 0.08614 0.0
H1171 H 0.88238 0.81326 0.01414 0.0
H1172 H 0.8475 0.84606 0.17458 0.0
H1173 H 0.81785 0.85539 0.18224 0.0
C1174 C 0.1916 0.79422 0.04746 0.0
C1175 C 0.16679 0.7986 0.02642 0.0
C1176 C 0.17778 0.83801 0.95847 0.0
C1177 C 0.20296 0.83242 0.9707 0.0
N1178 N 0.23374 0.80246 0.01102 0.0
N1179 N 0.13617 0.82265 0.95097 0.0
C1180 C 0.20986 0.8098 0.01117 0.0
C1181 C 0.15984 0.81989 0.97846 0.0
N1182 N 0.19776 0.77531 0.10332 0.0
N1183 N 0.17085 0.86099 0.9328 0.0
H1184 H 0.12242 0.81017 0.96729 0.0
H1185 H 0.13058 0.83632 0.9067 0.0
H1186 H 0.18325 0.87513 0.92122 0.0
H1187 H 0.15271 0.86676 0.93157 0.0
H1188 H 0.21525 0.77298 0.12963 0.0
H1189 H 0.18492 0.76319 0.13007 0.0
H1190 H 0.23933 0.78501 0.03017 0.0
H1191 H 0.24783 0.81276 0.98332 0.0
C1192 C 0.66094 0.67787 0.48975 0.0
C1193 C 0.66832 0.70282 0.48782 0.0
C1194 C 0.7077 0.69155 0.55475 0.0
C1195 C 0.70146 0.66652 0.54652 0.0
N1196 N 0.67362 0.63534 0.49552 0.0
N1197 N 0.7008 0.73262 0.50068 0.0
C1198 C 0.67847 0.65949 0.51103 0.0
C1199 C 0.69225 0.70948 0.51589 0.0
N1200 N 0.63702 0.6718 0.4752 0.0
N1201 N 0.72832 0.69821 0.6006 0.0
H1202 H 0.6906 0.74594 0.46755 0.0
H1203 H 0.71887 0.73781 0.51172 0.0
H1204 H 0.74 0.68549 0.63046 0.0
H1205 H 0.73252 0.71628 0.61657 0.0
H1206 H 0.63015 0.65421 0.48461 0.0
H1207 H 0.62351 0.68473 0.46169 0.0
H1208 H 0.65836 0.62928 0.46003 0.0
H1209 H 0.68579 0.62141 0.51281 0.0
C1210 C 0.31246 0.70277 0.56227 0.0
C1211 C 0.33699 0.70063 0.53371 0.0
C1212 C 0.32619 0.66471 0.44182 0.0
C1213 C 0.30111 0.66792 0.46658 0.0
N1214 N 0.27027 0.69553 0.52472 0.0
N1215 N 0.36826 0.67974 0.45051 0.0
C1216 C 0.29422 0.68843 0.52007 0.0
C1217 C 0.34409 0.68184 0.47327 0.0
N1218 N 0.30656 0.71839 0.6307 0.0
N1219 N 0.33297 0.64528 0.38952 0.0
H1220 H 0.38171 0.69138 0.47589 0.0
H1221 H 0.37552 0.66639 0.40867 0.0
H1222 H 0.32178 0.63028 0.37706 0.0
H1223 H 0.34994 0.64336 0.35903 0.0
H1224 H 0.28936 0.71871 0.66089 0.0
H1225 H 0.3195 0.72919 0.66355 0.0
H1226 H 0.26458 0.71153 0.55655 0.0
H1227 H 0.25645 0.68746 0.48663 0.0
C1228 C 0.33857 0.32582 0.45364 0.0
C1229 C 0.33327 0.30058 0.46788 0.0
C1230 C 0.29859 0.31225 0.56312 0.0
C1231 C 0.30159 0.33696 0.53763 0.0
N1232 N 0.32278 0.3673 0.4497 0.0
N1233 N 0.30379 0.2703 0.51726 0.0
C1234 C 0.32104 0.34376 0.47976 0.0
C1235 C 0.31205 0.29391 0.51761 0.0
N1236 N 0.36078 0.33288 0.4204 0.0
N1237 N 0.28301 0.30627 0.63138 0.0
H1238 H 0.31167 0.25659 0.47814 0.0
H1239 H 0.28728 0.26508 0.54665 0.0
H1240 H 0.2737 0.3195 0.6685 0.0
H1241 H 0.28167 0.28864 0.65765 0.0
H1242 H 0.36624 0.35111 0.41644 0.0
H1243 H 0.37482 0.32065 0.40588 0.0
H1244 H 0.33476 0.37263 0.39883 0.0
H1245 H 0.31111 0.38115 0.47182 0.0
C1246 C 0.68204 0.32391 0.40441 0.0
C1247 C 0.6972 0.33524 0.4703 0.0
C1248 C 0.68005 0.30722 0.58302 0.0
C1249 C 0.66266 0.29864 0.51986 0.0
N1250 N 0.64208 0.30646 0.37928 0.0
N1251 N 0.70241 0.34277 0.62968 0.0
C1252 C 0.66203 0.30934 0.43315 0.0
C1253 C 0.69389 0.32836 0.56198 0.0
N1254 N 0.68741 0.3253 0.315 0.0
N1255 N 0.68399 0.29509 0.66199 0.0
H1256 H 0.70903 0.36021 0.61703 0.0
H1257 H 0.69912 0.3391 0.69747 0.0
H1258 H 0.67526 0.27874 0.67856 0.0
H1259 H 0.69801 0.29993 0.70611 0.0
H1260 H 0.67731 0.31593 0.26645 0.0
H1261 H 0.70374 0.33251 0.29089 0.0
H1262 H 0.64028 0.31555 0.31794 0.0
H1263 H 0.62651 0.29698 0.40025 0.0
loop_
_geom_bond_atom_site_label_1
_geom_bond_atom_site_label_2
_geom_bond_distance
_geom_bond_site_symmetry_2
_ccdc_geom_bond_type
Co0 O3 1.970 . S
Co0 N17 1.989 . S
Co0 O25 1.967 . S
Co0 O32 1.920 . S
Co1 O4 1.966 . S
Co1 N10 2.022 . S
Co1 N18 1.993 1_556 S
Co1 O26 1.941 1_556 S
C2 O3 1.258 . S
C2 O4 1.263 1_554 S
O3 Co0 1.970 . S
O3 C2 1.258 . S
O4 Co1 1.966 . S
O4 C2 1.263 1_556 S
C5 O6 1.235 . S
C5 O32 1.289 . S
O6 C5 1.235 . S
C7 C9 1.400 . S
C7 N10 1.351 . S
C7 C12 1.501 . S
C8 C9 1.387 . S
C8 N11 1.341 . S
C9 C7 1.400 . S
C9 C8 1.387 . S
N10 Co1 2.022 . S
N10 C7 1.351 . S
N10 N11 1.365 . S
N11 C8 1.341 . S
N11 N10 1.365 . S
N11 H31 0.862 . S
C12 C7 1.501 . S
C12 H13 0.961 . S
C12 H14 0.961 . S
C12 H15 0.960 . S
H13 C12 0.961 . S
H14 C12 0.961 . S
H15 C12 0.960 . S
C16 N17 1.342 . S
C16 C20 1.401 . S
C16 C21 1.499 . S
N17 Co0 1.989 . S
N17 C16 1.342 . S
N17 N18 1.388 . S
N18 Co1 1.993 1_554 S
N18 N17 1.388 . S
N18 C19 1.346 1_554 S
C19 N18 1.346 1_556 S
C19 C20 1.396 1_556 S
C19 C29 1.510 . S
C20 C16 1.401 . S
C20 C19 1.396 1_554 S
C21 C16 1.499 . S
C21 H22 0.959 . S
C21 H23 0.960 . S
C21 H24 0.961 . S
H22 C21 0.959 . S
H23 C21 0.960 . S
H24 C21 0.961 . S
O25 Co0 1.967 . S
O25 C33 1.258 . S
O26 Co1 1.941 1_554 S
O26 C33 1.266 . S
H27 C29 0.959 . S
H28 C29 0.961 . S
C29 C19 1.510 . S
C29 H27 0.959 . S
C29 H28 0.961 . S
C29 H30 0.960 . S
H30 C29 0.960 . S
H31 N11 0.862 . S
O32 Co0 1.920 . S
O32 C5 1.289 . S
C33 O25 1.258 . S
C33 O26 1.266 . S
Co34 O37 1.970 . S
Co34 N51 1.989 . S
Co34 O59 1.967 . S
Co34 O66 1.920 . S
Co35 O38 1.966 . S
Co35 N44 2.022 . S
Co35 N52 1.993 1_556 S
Co35 O60 1.941 1_556 S
C36 O37 1.258 . S
C36 O38 1.263 1_554 S
O37 Co34 1.970 . S
O37 C36 1.258 . S
O38 Co35 1.966 . S
O38 C36 1.263 1_556 S
C39 O40 1.235 . S
C39 O66 1.289 . S
O40 C39 1.235 . S
C41 C43 1.400 . S
C41 N44 1.351 . S
C41 C46 1.501 . S
C42 C43 1.387 . S
C42 N45 1.341 . S
C43 C41 1.400 . S
C43 C42 1.387 . S
N44 Co35 2.022 . S
N44 C41 1.351 . S
N44 N45 1.365 . S
N45 C42 1.341 . S
N45 N44 1.365 . S
N45 H65 0.862 . S
C46 C41 1.501 . S
C46 H47 0.961 . S
C46 H48 0.961 . S
C46 H49 0.960 . S
H47 C46 0.961 . S
H48 C46 0.961 . S
H49 C46 0.960 . S
C50 N51 1.342 . S
C50 C54 1.401 . S
C50 C55 1.499 . S
N51 Co34 1.989 . S
N51 C50 1.342 . S
N51 N52 1.388 . S
N52 Co35 1.993 1_554 S
N52 N51 1.388 . S
N52 C53 1.346 1_554 S
C53 N52 1.346 1_556 S
C53 C54 1.396 1_556 S
C53 C63 1.510 . S
C54 C50 1.401 . S
C54 C53 1.396 1_554 S
C55 C50 1.499 . S
C55 H56 0.959 . S
C55 H57 0.960 . S
C55 H58 0.961 . S
H56 C55 0.959 . S
H57 C55 0.960 . S
H58 C55 0.961 . S
O59 Co34 1.967 . S
O59 C67 1.258 . S
O60 Co35 1.941 1_554 S
O60 C67 1.266 . S
H61 C63 0.959 . S
H62 C63 0.961 . S
C63 C53 1.510 . S
C63 H61 0.959 . S
C63 H62 0.961 . S
C63 H64 0.960 . S
H64 C63 0.960 . S
H65 N45 0.862 . S
O66 Co34 1.920 . S
O66 C39 1.289 . S
C67 O59 1.258 . S
C67 O60 1.266 . S
Co68 O71 1.970 . S
Co68 N85 1.989 . S
Co68 O93 1.967 . S
Co68 O100 1.920 . S
Co69 O72 1.966 . S
Co69 N78 2.022 . S
Co69 N86 1.993 1_556 S
Co69 O94 1.941 1_556 S
C70 O71 1.258 . S
C70 O72 1.263 1_554 S
O71 Co68 1.970 . S
O71 C70 1.258 . S
O72 Co69 1.966 . S
O72 C70 1.263 1_556 S
C73 O74 1.235 . S
C73 O100 1.289 . S
O74 C73 1.235 . S
C75 C77 1.400 . S
C75 N78 1.351 . S
C75 C80 1.501 . S
C76 C77 1.387 . S
C76 N79 1.341 . S
C77 C75 1.400 . S
C77 C76 1.387 . S
N78 Co69 2.022 . S
N78 C75 1.351 . S
N78 N79 1.365 . S
N79 C76 1.341 . S
N79 N78 1.365 . S
N79 H99 0.862 . S
C80 C75 1.501 . S
C80 H81 0.961 . S
C80 H82 0.961 . S
C80 H83 0.960 . S
H81 C80 0.961 . S
H82 C80 0.961 . S
H83 C80 0.960 . S
C84 N85 1.342 . S
C84 C88 1.401 . S
C84 C89 1.499 . S
N85 Co68 1.989 . S
N85 C84 1.342 . S
N85 N86 1.388 . S
N86 Co69 1.993 1_554 S
N86 N85 1.388 . S
N86 C87 1.346 1_554 S
C87 N86 1.346 1_556 S
C87 C88 1.396 1_556 S
C87 C97 1.510 . S
C88 C84 1.401 . S
C88 C87 1.396 1_554 S
C89 C84 1.499 . S
C89 H90 0.959 . S
C89 H91 0.960 . S
C89 H92 0.961 . S
H90 C89 0.959 . S
H91 C89 0.960 . S
H92 C89 0.961 . S
O93 Co68 1.967 . S
O93 C101 1.258 . S
O94 Co69 1.941 1_554 S
O94 C101 1.266 . S
H95 C97 0.959 . S
H96 C97 0.961 . S
C97 C87 1.510 . S
C97 H95 0.959 . S
C97 H96 0.961 . S
C97 H98 0.960 . S
H98 C97 0.960 . S
H99 N79 0.862 . S
O100 Co68 1.920 . S
O100 C73 1.289 . S
C101 O93 1.258 . S
C101 O94 1.266 . S
Co102 O105 1.970 . S
Co102 N119 1.989 . S
Co102 O127 1.967 . S
Co102 O134 1.920 . S
Co103 O106 1.966 . S
Co103 N112 2.022 . S
Co103 N120 1.993 1_556 S
Co103 O128 1.941 1_556 S
C104 O105 1.258 . S
C104 O106 1.263 1_554 S
O105 Co102 1.970 . S
O105 C104 1.258 . S
O106 Co103 1.966 . S
O106 C104 1.263 1_556 S
C107 O108 1.235 . S
C107 O134 1.289 . S
O108 C107 1.235 . S
C109 C111 1.400 . S
C109 N112 1.351 . S
C109 C114 1.501 . S
C110 C111 1.387 . S
C110 N113 1.341 . S
C111 C109 1.400 . S
C111 C110 1.387 . S
N112 Co103 2.022 . S
N112 C109 1.351 . S
N112 N113 1.365 . S
N113 C110 1.341 . S
N113 N112 1.365 . S
N113 H133 0.862 . S
C114 C109 1.501 . S
C114 H115 0.961 . S
C114 H116 0.961 . S
C114 H117 0.960 . S
H115 C114 0.961 . S
H116 C114 0.961 . S
H117 C114 0.960 . S
C118 N119 1.342 . S
C118 C122 1.401 . S
C118 C123 1.499 . S
N119 Co102 1.989 . S
N119 C118 1.342 . S
N119 N120 1.388 . S
N120 Co103 1.993 1_554 S
N120 N119 1.388 . S
N120 C121 1.346 1_554 S
C121 N120 1.346 1_556 S
C121 C122 1.396 1_556 S
C121 C131 1.510 . S
C122 C118 1.401 . S
C122 C121 1.396 1_554 S
C123 C118 1.499 . S
C123 H124 0.959 . S
C123 H125 0.960 . S
C123 H126 0.961 . S
H124 C123 0.959 . S
H125 C123 0.960 . S
H126 C123 0.961 . S
O127 Co102 1.967 . S
O127 C135 1.258 . S
O128 Co103 1.941 1_554 S
O128 C135 1.266 . S
H129 C131 0.959 . S
H130 C131 0.961 . S
C131 C121 1.510 . S
C131 H129 0.959 . S
C131 H130 0.961 . S
C131 H132 0.960 . S
H132 C131 0.960 . S
H133 N113 0.862 . S
O134 Co102 1.920 . S
O134 C107 1.289 . S
C135 O127 1.258 . S
C135 O128 1.266 . S
Co136 O139 1.970 . S
Co136 N153 1.989 . S
Co136 O161 1.967 . S
Co136 O168 1.920 . S
Co137 O140 1.966 . S
Co137 N146 2.022 . S
Co137 N154 1.993 1_554 S
Co137 O162 1.941 1_554 S
C138 O139 1.258 . S
C138 O140 1.263 1_556 S
O139 Co136 1.970 . S
O139 C138 1.258 . S
O140 Co137 1.966 . S
O140 C138 1.263 1_554 S
C141 O142 1.235 . S
C141 O168 1.289 . S
O142 C141 1.235 . S
C143 C145 1.400 . S
C143 N146 1.351 . S
C143 C148 1.501 . S
C144 C145 1.387 . S
C144 N147 1.341 . S
C145 C143 1.400 . S
C145 C144 1.387 . S
N146 Co137 2.022 . S
N146 C143 1.351 . S
N146 N147 1.365 . S
N147 C144 1.341 . S
N147 N146 1.365 . S
N147 H167 0.862 . S
C148 C143 1.501 . S
C148 H149 0.961 . S
C148 H150 0.961 . S
C148 H151 0.960 . S
H149 C148 0.961 . S
H150 C148 0.961 . S
H151 C148 0.960 . S
C152 N153 1.342 . S
C152 C156 1.401 . S
C152 C157 1.499 . S
N153 Co136 1.989 . S
N153 C152 1.342 . S
N153 N154 1.388 . S
N154 Co137 1.993 1_556 S
N154 N153 1.388 . S
N154 C155 1.346 1_556 S
C155 N154 1.346 1_554 S
C155 C156 1.396 1_554 S
C155 C165 1.510 . S
C156 C152 1.401 . S
C156 C155 1.396 1_556 S
C157 C152 1.499 . S
C157 H158 0.959 . S
C157 H159 0.960 . S
C157 H160 0.961 . S
H158 C157 0.959 . S
H159 C157 0.960 . S
H160 C157 0.961 . S
O161 Co136 1.967 . S
O161 C169 1.258 . S
O162 Co137 1.941 1_556 S
O162 C169 1.266 . S
H163 C165 0.959 . S
H164 C165 0.961 . S
C165 C155 1.510 . S
C165 H163 0.959 . S
C165 H164 0.961 . S
C165 H166 0.960 . S
H166 C165 0.960 . S
H167 N147 0.862 . S
O168 Co136 1.920 . S
O168 C141 1.289 . S
C169 O161 1.258 . S
C169 O162 1.266 . S
Co170 O173 1.970 . S
Co170 N187 1.989 . S
Co170 O195 1.967 . S
Co170 O202 1.920 . S
Co171 O174 1.966 . S
Co171 N180 2.022 . S
Co171 N188 1.993 1_554 S
Co171 O196 1.941 1_554 S
C172 O173 1.258 . S
C172 O174 1.263 1_556 S
O173 Co170 1.970 . S
O173 C172 1.258 . S
O174 Co171 1.966 . S
O174 C172 1.263 1_554 S
C175 O176 1.235 . S
C175 O202 1.289 . S
O176 C175 1.235 . S
C177 C179 1.400 . S
C177 N180 1.351 . S
C177 C182 1.501 . S
C178 C179 1.387 . S
C178 N181 1.341 . S
C179 C177 1.400 . S
C179 C178 1.387 . S
N180 Co171 2.022 . S
N180 C177 1.351 . S
N180 N181 1.365 . S
N181 C178 1.341 . S
N181 N180 1.365 . S
N181 H201 0.862 . S
C182 C177 1.501 . S
C182 H183 0.961 . S
C182 H184 0.961 . S
C182 H185 0.960 . S
H183 C182 0.961 . S
H184 C182 0.961 . S
H185 C182 0.960 . S
C186 N187 1.342 . S
C186 C190 1.401 . S
C186 C191 1.499 . S
N187 Co170 1.989 . S
N187 C186 1.342 . S
N187 N188 1.388 . S
N188 Co171 1.993 1_556 S
N188 N187 1.388 . S
N188 C189 1.346 1_556 S
C189 N188 1.346 1_554 S
C189 C190 1.396 1_554 S
C189 C199 1.510 . S
C190 C186 1.401 . S
C190 C189 1.396 1_556 S
C191 C186 1.499 . S
C191 H192 0.959 . S
C191 H193 0.960 . S
C191 H194 0.961 . S
H192 C191 0.959 . S
H193 C191 0.960 . S
H194 C191 0.961 . S
O195 Co170 1.967 . S
O195 C203 1.258 . S
O196 Co171 1.941 1_556 S
O196 C203 1.266 . S
H197 C199 0.959 . S
H198 C199 0.961 . S
C199 C189 1.510 . S
C199 H197 0.959 . S
C199 H198 0.961 . S
C199 H200 0.960 . S
H200 C199 0.960 . S
H201 N181 0.862 . S
O202 Co170 1.920 . S
O202 C175 1.289 . S
C203 O195 1.258 . S
C203 O196 1.266 . S
Co204 O207 1.970 . S
Co204 N221 1.989 . S
Co204 O229 1.967 . S
Co204 O236 1.920 . S
Co205 O208 1.966 . S
Co205 N214 2.022 . S
Co205 N222 1.993 1_554 S
Co205 O230 1.941 1_554 S
C206 O207 1.258 . S
C206 O208 1.263 1_556 S
O207 Co204 1.970 . S
O207 C206 1.258 . S
O208 Co205 1.966 . S
O208 C206 1.263 1_554 S
C209 O210 1.235 . S
C209 O236 1.289 . S
O210 C209 1.235 . S
C211 C213 1.400 . S
C211 N214 1.351 . S
C211 C216 1.501 . S
C212 C213 1.387 . S
C212 N215 1.341 . S
C213 C211 1.400 . S
C213 C212 1.387 . S
N214 Co205 2.022 . S
N214 C211 1.351 . S
N214 N215 1.365 . S
N215 C212 1.341 . S
N215 N214 1.365 . S
N215 H235 0.862 . S
C216 C211 1.501 . S
C216 H217 0.961 . S
C216 H218 0.961 . S
C216 H219 0.960 . S
H217 C216 0.961 . S
H218 C216 0.961 . S
H219 C216 0.960 . S
C220 N221 1.342 . S
C220 C224 1.401 . S
C220 C225 1.499 . S
N221 Co204 1.989 . S
N221 C220 1.342 . S
N221 N222 1.388 . S
N222 Co205 1.993 1_556 S
N222 N221 1.388 . S
N222 C223 1.346 1_556 S
C223 N222 1.346 1_554 S
C223 C224 1.396 1_554 S
C223 C233 1.510 . S
C224 C220 1.401 . S
C224 C223 1.396 1_556 S
C225 C220 1.499 . S
C225 H226 0.959 . S
C225 H227 0.960 . S
C225 H228 0.961 . S
H226 C225 0.959 . S
H227 C225 0.960 . S
H228 C225 0.961 . S
O229 Co204 1.967 . S
O229 C237 1.258 . S
O230 Co205 1.941 1_556 S
O230 C237 1.266 . S
H231 C233 0.959 . S
H232 C233 0.961 . S
C233 C223 1.510 . S
C233 H231 0.959 . S
C233 H232 0.961 . S
C233 H234 0.960 . S
H234 C233 0.960 . S
H235 N215 0.862 . S
O236 Co204 1.920 . S
O236 C209 1.289 . S
C237 O229 1.258 . S
C237 O230 1.266 . S
Co238 O241 1.970 . S
Co238 N255 1.989 . S
Co238 O263 1.967 . S
Co238 O270 1.920 . S
Co239 O242 1.966 . S
Co239 N248 2.022 . S
Co239 N256 1.993 1_554 S
Co239 O264 1.941 1_554 S
C240 O241 1.258 . S
C240 O242 1.263 1_556 S
O241 Co238 1.970 . S
O241 C240 1.258 . S
O242 Co239 1.966 . S
O242 C240 1.263 1_554 S
C243 O244 1.235 . S
C243 O270 1.289 . S
O244 C243 1.235 . S
C245 C247 1.400 . S
C245 N248 1.351 . S
C245 C250 1.501 . S
C246 C247 1.387 . S
C246 N249 1.341 . S
C247 C245 1.400 . S
C247 C246 1.387 . S
N248 Co239 2.022 . S
N248 C245 1.351 . S
N248 N249 1.365 . S
N249 C246 1.341 . S
N249 N248 1.365 . S
N249 H269 0.862 . S
C250 C245 1.501 . S
C250 H251 0.961 . S
C250 H252 0.961 . S
C250 H253 0.960 . S
H251 C250 0.961 . S
H252 C250 0.961 . S
H253 C250 0.960 . S
C254 N255 1.342 . S
C254 C258 1.401 . S
C254 C259 1.499 . S
N255 Co238 1.989 . S
N255 C254 1.342 . S
N255 N256 1.388 . S
N256 Co239 1.993 1_556 S
N256 N255 1.388 . S
N256 C257 1.346 1_556 S
C257 N256 1.346 1_554 S
C257 C258 1.396 1_554 S
C257 C267 1.510 . S
C258 C254 1.401 . S
C258 C257 1.396 1_556 S
C259 C254 1.499 . S
C259 H260 0.959 . S
C259 H261 0.960 . S
C259 H262 0.961 . S
H260 C259 0.959 . S
H261 C259 0.960 . S
H262 C259 0.961 . S
O263 Co238 1.967 . S
O263 C271 1.258 . S
O264 Co239 1.941 1_556 S
O264 C271 1.266 . S
H265 C267 0.959 . S
H266 C267 0.961 . S
C267 C257 1.510 . S
C267 H265 0.959 . S
C267 H266 0.961 . S
C267 H268 0.960 . S
H268 C267 0.960 . S
H269 N249 0.862 . S
O270 Co238 1.920 . S
O270 C243 1.289 . S
C271 O263 1.258 . S
C271 O264 1.266 . S
Co272 O275 1.970 . S
Co272 N289 1.989 . S
Co272 O297 1.967 . S
Co272 O304 1.920 . S
Co273 O276 1.966 . S
Co273 N282 2.022 . S
Co273 N290 1.993 . S
Co273 O298 1.941 . S
C274 O275 1.258 . S
C274 O276 1.263 . S
O275 Co272 1.970 . S
O275 C274 1.258 . S
O276 Co273 1.966 . S
O276 C274 1.263 . S
C277 O278 1.235 . S
C277 O304 1.289 . S
O278 C277 1.235 . S
C279 C281 1.400 . S
C279 N282 1.351 . S
C279 C284 1.501 . S
C280 C281 1.387 . S
C280 N283 1.341 . S
C281 C279 1.400 . S
C281 C280 1.387 . S
N282 Co273 2.022 . S
N282 C279 1.351 . S
N282 N283 1.365 . S
N283 C280 1.341 . S
N283 N282 1.365 . S
N283 H303 0.862 . S
C284 C279 1.501 . S
C284 H285 0.961 . S
C284 H286 0.961 . S
C284 H287 0.960 . S
H285 C284 0.961 . S
H286 C284 0.961 . S
H287 C284 0.960 . S
C288 N289 1.342 . S
C288 C292 1.401 . S
C288 C293 1.499 . S
N289 Co272 1.989 . S
N289 C288 1.342 . S
N289 N290 1.388 . S
N290 Co273 1.993 . S
N290 N289 1.388 . S
N290 C291 1.346 . S
C291 N290 1.346 . S
C291 C292 1.396 . S
C291 C301 1.510 . S
C292 C288 1.401 . S
C292 C291 1.396 . S
C293 C288 1.499 . S
C293 H294 0.959 . S
C293 H295 0.960 . S
C293 H296 0.961 . S
H294 C293 0.959 . S
H295 C293 0.960 . S
H296 C293 0.961 . S
O297 Co272 1.967 . S
O297 C305 1.258 . S
O298 Co273 1.941 . S
O298 C305 1.266 . S
H299 C301 0.959 . S
H300 C301 0.961 . S
C301 C291 1.510 . S
C301 H299 0.959 . S
C301 H300 0.961 . S
C301 H302 0.960 . S
H302 C301 0.960 . S
H303 N283 0.862 . S
O304 Co272 1.920 . S
O304 C277 1.289 . S
C305 O297 1.258 . S
C305 O298 1.266 . S
Co306 O309 1.970 . S
Co306 N323 1.989 . S
Co306 O331 1.967 . S
Co306 O338 1.920 . S
Co307 O310 1.966 . S
Co307 N316 2.022 . S
Co307 N324 1.993 . S
Co307 O332 1.941 . S
C308 O309 1.258 . S
C308 O310 1.263 . S
O309 Co306 1.970 . S
O309 C308 1.258 . S
O310 Co307 1.966 . S
O310 C308 1.263 . S
C311 O312 1.235 . S
C311 O338 1.289 . S
O312 C311 1.235 . S
C313 C315 1.400 . S
C313 N316 1.351 . S
C313 C318 1.501 . S
C314 C315 1.387 . S
C314 N317 1.341 . S
C315 C313 1.400 . S
C315 C314 1.387 . S
N316 Co307 2.022 . S
N316 C313 1.351 . S
N316 N317 1.365 . S
N317 C314 1.341 . S
N317 N316 1.365 . S
N317 H337 0.862 . S
C318 C313 1.501 . S
C318 H319 0.961 . S
C318 H320 0.961 . S
C318 H321 0.960 . S
H319 C318 0.961 . S
H320 C318 0.961 . S
H321 C318 0.960 . S
C322 N323 1.342 . S
C322 C326 1.401 . S
C322 C327 1.499 . S
N323 Co306 1.989 . S
N323 C322 1.342 . S
N323 N324 1.388 . S
N324 Co307 1.993 . S
N324 N323 1.388 . S
N324 C325 1.346 . S
C325 N324 1.346 . S
C325 C326 1.396 . S
C325 C335 1.510 . S
C326 C322 1.401 . S
C326 C325 1.396 . S
C327 C322 1.499 . S
C327 H328 0.959 . S
C327 H329 0.960 . S
C327 H330 0.961 . S
H328 C327 0.959 . S
H329 C327 0.960 . S
H330 C327 0.961 . S
O331 Co306 1.967 . S
O331 C339 1.258 . S
O332 Co307 1.941 . S
O332 C339 1.266 . S
H333 C335 0.959 . S
H334 C335 0.961 . S
C335 C325 1.510 . S
C335 H333 0.959 . S
C335 H334 0.961 . S
C335 H336 0.960 . S
H336 C335 0.960 . S
H337 N317 0.862 . S
O338 Co306 1.920 . S
O338 C311 1.289 . S
C339 O331 1.258 . S
C339 O332 1.266 . S
Co340 O343 1.970 . S
Co340 N357 1.989 . S
Co340 O365 1.967 . S
Co340 O372 1.920 . S
Co341 O344 1.966 . S
Co341 N350 2.022 . S
Co341 N358 1.993 . S
Co341 O366 1.941 . S
C342 O343 1.258 . S
C342 O344 1.263 . S
O343 Co340 1.970 . S
O343 C342 1.258 . S
O344 Co341 1.966 . S
O344 C342 1.263 . S
C345 O346 1.235 . S
C345 O372 1.289 . S
O346 C345 1.235 . S
C347 C349 1.400 . S
C347 N350 1.351 . S
C347 C352 1.501 . S
C348 C349 1.387 . S
C348 N351 1.341 . S
C349 C347 1.400 . S
C349 C348 1.387 . S
N350 Co341 2.022 . S
N350 C347 1.351 . S
N350 N351 1.365 . S
N351 C348 1.341 . S
N351 N350 1.365 . S
N351 H371 0.862 . S
C352 C347 1.501 . S
C352 H353 0.961 . S
C352 H354 0.961 . S
C352 H355 0.960 . S
H353 C352 0.961 . S
H354 C352 0.961 . S
H355 C352 0.960 . S
C356 N357 1.342 . S
C356 C360 1.401 . S
C356 C361 1.499 . S
N357 Co340 1.989 . S
N357 C356 1.342 . S
N357 N358 1.388 . S
N358 Co341 1.993 . S
N358 N357 1.388 . S
N358 C359 1.346 . S
C359 N358 1.346 . S
C359 C360 1.396 . S
C359 C369 1.510 . S
C360 C356 1.401 . S
C360 C359 1.396 . S
C361 C356 1.499 . S
C361 H362 0.959 . S
C361 H363 0.960 . S
C361 H364 0.961 . S
H362 C361 0.959 . S
H363 C361 0.960 . S
H364 C361 0.961 . S
O365 Co340 1.967 . S
O365 C373 1.258 . S
O366 Co341 1.941 . S
O366 C373 1.266 . S
H367 C369 0.959 . S
H368 C369 0.961 . S
C369 C359 1.510 . S
C369 H367 0.959 . S
C369 H368 0.961 . S
C369 H370 0.960 . S
H370 C369 0.960 . S
H371 N351 0.862 . S
O372 Co340 1.920 . S
O372 C345 1.289 . S
C373 O365 1.258 . S
C373 O366 1.266 . S
Co374 O377 1.970 . S
Co374 N391 1.989 . S
Co374 O399 1.967 . S
Co374 O406 1.920 . S
Co375 O378 1.966 . S
Co375 N384 2.022 . S
Co375 N392 1.993 . S
Co375 O400 1.941 . S
C376 O377 1.258 . S
C376 O378 1.263 . S
O377 Co374 1.970 . S
O377 C376 1.258 . S
O378 Co375 1.966 . S
O378 C376 1.263 . S
C379 O380 1.235 . S
C379 O406 1.289 . S
O380 C379 1.235 . S
C381 C383 1.400 . S
C381 N384 1.351 . S
C381 C386 1.501 . S
C382 C383 1.387 . S
C382 N385 1.341 . S
C383 C381 1.400 . S
C383 C382 1.387 . S
N384 Co375 2.022 . S
N384 C381 1.351 . S
N384 N385 1.365 . S
N385 C382 1.341 . S
N385 N384 1.365 . S
N385 H405 0.862 . S
C386 C381 1.501 . S
C386 H387 0.961 . S
C386 H388 0.961 . S
C386 H389 0.960 . S
H387 C386 0.961 . S
H388 C386 0.961 . S
H389 C386 0.960 . S
C390 N391 1.342 . S
C390 C394 1.401 . S
C390 C395 1.499 . S
N391 Co374 1.989 . S
N391 C390 1.342 . S
N391 N392 1.388 . S
N392 Co375 1.993 . S
N392 N391 1.388 . S
N392 C393 1.346 . S
C393 N392 1.346 . S
C393 C394 1.396 . S
C393 C403 1.510 . S
C394 C390 1.401 . S
C394 C393 1.396 . S
C395 C390 1.499 . S
C395 H396 0.959 . S
C395 H397 0.960 . S
C395 H398 0.961 . S
H396 C395 0.959 . S
H397 C395 0.960 . S
H398 C395 0.961 . S
O399 Co374 1.967 . S
O399 C407 1.258 . S
O400 Co375 1.941 . S
O400 C407 1.266 . S
H401 C403 0.959 . S
H402 C403 0.961 . S
C403 C393 1.510 . S
C403 H401 0.959 . S
C403 H402 0.961 . S
C403 H404 0.960 . S
H404 C403 0.960 . S
H405 N385 0.862 . S
O406 Co374 1.920 . S
O406 C379 1.289 . S
C407 O399 1.258 . S
C407 O400 1.266 . S
Co408 O411 1.970 . S
Co408 N425 1.989 . S
Co408 O433 1.967 . S
Co408 O440 1.920 . S
Co409 O412 1.966 . S
Co409 N418 2.022 . S
Co409 N426 1.993 . S
Co409 O434 1.941 . S
C410 O411 1.258 . S
C410 O412 1.263 . S
O411 Co408 1.970 . S
O411 C410 1.258 . S
O412 Co409 1.966 . S
O412 C410 1.263 . S
C413 O414 1.235 . S
C413 O440 1.289 . S
O414 C413 1.235 . S
C415 C417 1.400 . S
C415 N418 1.351 . S
C415 C420 1.501 . S
C416 C417 1.387 . S
C416 N419 1.341 . S
C417 C415 1.400 . S
C417 C416 1.387 . S
N418 Co409 2.022 . S
N418 C415 1.351 . S
N418 N419 1.365 . S
N419 C416 1.341 . S
N419 N418 1.365 . S
N419 H439 0.862 . S
C420 C415 1.501 . S
C420 H421 0.961 . S
C420 H422 0.961 . S
C420 H423 0.960 . S
H421 C420 0.961 . S
H422 C420 0.961 . S
H423 C420 0.960 . S
C424 N425 1.342 . S
C424 C428 1.401 . S
C424 C429 1.499 . S
N425 Co408 1.989 . S
N425 C424 1.342 . S
N425 N426 1.388 . S
N426 Co409 1.993 . S
N426 N425 1.388 . S
N426 C427 1.346 . S
C427 N426 1.346 . S
C427 C428 1.396 . S
C427 C437 1.510 . S
C428 C424 1.401 . S
C428 C427 1.396 . S
C429 C424 1.499 . S
C429 H430 0.959 . S
C429 H431 0.960 . S
C429 H432 0.961 . S
H430 C429 0.959 . S
H431 C429 0.960 . S
H432 C429 0.961 . S
O433 Co408 1.967 . S
O433 C441 1.258 . S
O434 Co409 1.941 . S
O434 C441 1.266 . S
H435 C437 0.959 . S
H436 C437 0.961 . S
C437 C427 1.510 . S
C437 H435 0.959 . S
C437 H436 0.961 . S
C437 H438 0.960 . S
H438 C437 0.960 . S
H439 N419 0.862 . S
O440 Co408 1.920 . S
O440 C413 1.289 . S
C441 O433 1.258 . S
C441 O434 1.266 . S
Co442 O445 1.970 . S
Co442 N459 1.989 . S
Co442 O467 1.967 . S
Co442 O474 1.920 . S
Co443 O446 1.966 . S
Co443 N452 2.022 . S
Co443 N460 1.993 . S
Co443 O468 1.941 . S
C444 O445 1.258 . S
C444 O446 1.263 . S
O445 Co442 1.970 . S
O445 C444 1.258 . S
O446 Co443 1.966 . S
O446 C444 1.263 . S
C447 O448 1.235 . S
C447 O474 1.289 . S
O448 C447 1.235 . S
C449 C451 1.400 . S
C449 N452 1.351 . S
C449 C454 1.501 . S
C450 C451 1.387 . S
C450 N453 1.341 . S
C451 C449 1.400 . S
C451 C450 1.387 . S
N452 Co443 2.022 . S
N452 C449 1.351 . S
N452 N453 1.365 . S
N453 C450 1.341 . S
N453 N452 1.365 . S
N453 H473 0.862 . S
C454 C449 1.501 . S
C454 H455 0.961 . S
C454 H456 0.961 . S
C454 H457 0.960 . S
H455 C454 0.961 . S
H456 C454 0.961 . S
H457 C454 0.960 . S
C458 N459 1.342 . S
C458 C462 1.401 . S
C458 C463 1.499 . S
N459 Co442 1.989 . S
N459 C458 1.342 . S
N459 N460 1.388 . S
N460 Co443 1.993 . S
N460 N459 1.388 . S
N460 C461 1.346 . S
C461 N460 1.346 . S
C461 C462 1.396 . S
C461 C471 1.510 . S
C462 C458 1.401 . S
C462 C461 1.396 . S
C463 C458 1.499 . S
C463 H464 0.959 . S
C463 H465 0.960 . S
C463 H466 0.961 . S
H464 C463 0.959 . S
H465 C463 0.960 . S
H466 C463 0.961 . S
O467 Co442 1.967 . S
O467 C475 1.258 . S
O468 Co443 1.941 . S
O468 C475 1.266 . S
H469 C471 0.959 . S
H470 C471 0.961 . S
C471 C461 1.510 . S
C471 H469 0.959 . S
C471 H470 0.961 . S
C471 H472 0.960 . S
H472 C471 0.960 . S
H473 N453 0.862 . S
O474 Co442 1.920 . S
O474 C447 1.289 . S
C475 O467 1.258 . S
C475 O468 1.266 . S
Co476 O479 1.970 . S
Co476 N493 1.989 . S
Co476 O501 1.967 . S
Co476 O508 1.920 . S
Co477 O480 1.966 . S
Co477 N486 2.022 . S
Co477 N494 1.993 . S
Co477 O502 1.941 . S
C478 O479 1.258 . S
C478 O480 1.263 . S
O479 Co476 1.970 . S
O479 C478 1.258 . S
O480 Co477 1.966 . S
O480 C478 1.263 . S
C481 O482 1.235 . S
C481 O508 1.289 . S
O482 C481 1.235 . S
C483 C485 1.400 . S
C483 N486 1.351 . S
C483 C488 1.501 . S
C484 C485 1.387 . S
C484 N487 1.341 . S
C485 C483 1.400 . S
C485 C484 1.387 . S
N486 Co477 2.022 . S
N486 C483 1.351 . S
N486 N487 1.365 . S
N487 C484 1.341 . S
N487 N486 1.365 . S
N487 H507 0.862 . S
C488 C483 1.501 . S
C488 H489 0.961 . S
C488 H490 0.961 . S
C488 H491 0.960 . S
H489 C488 0.961 . S
H490 C488 0.961 . S
H491 C488 0.960 . S
C492 N493 1.342 . S
C492 C496 1.401 . S
C492 C497 1.499 . S
N493 Co476 1.989 . S
N493 C492 1.342 . S
N493 N494 1.388 . S
N494 Co477 1.993 . S
N494 N493 1.388 . S
N494 C495 1.346 . S
C495 N494 1.346 . S
C495 C496 1.396 . S
C495 C505 1.510 . S
C496 C492 1.401 . S
C496 C495 1.396 . S
C497 C492 1.499 . S
C497 H498 0.959 . S
C497 H499 0.960 . S
C497 H500 0.961 . S
H498 C497 0.959 . S
H499 C497 0.960 . S
H500 C497 0.961 . S
O501 Co476 1.967 . S
O501 C509 1.258 . S
O502 Co477 1.941 . S
O502 C509 1.266 . S
H503 C505 0.959 . S
H504 C505 0.961 . S
C505 C495 1.510 . S
C505 H503 0.959 . S
C505 H504 0.961 . S
C505 H506 0.960 . S
H506 C505 0.960 . S
H507 N487 0.862 . S
O508 Co476 1.920 . S
O508 C481 1.289 . S
C509 O501 1.258 . S
C509 O502 1.266 . S
Co510 O513 1.970 . S
Co510 N527 1.989 . S
Co510 O535 1.967 . S
Co510 O542 1.920 . S
Co511 O514 1.966 . S
Co511 N520 2.022 . S
Co511 N528 1.993 . S
Co511 O536 1.941 . S
C512 O513 1.258 . S
C512 O514 1.263 . S
O513 Co510 1.970 . S
O513 C512 1.258 . S
O514 Co511 1.966 . S
O514 C512 1.263 . S
C515 O516 1.235 . S
C515 O542 1.289 . S
O516 C515 1.235 . S
C517 C519 1.400 . S
C517 N520 1.351 . S
C517 C522 1.501 . S
C518 C519 1.387 . S
C518 N521 1.341 . S
C519 C517 1.400 . S
C519 C518 1.387 . S
N520 Co511 2.022 . S
N520 C517 1.351 . S
N520 N521 1.365 . S
N521 C518 1.341 . S
N521 N520 1.365 . S
N521 H541 0.862 . S
C522 C517 1.501 . S
C522 H523 0.961 . S
C522 H524 0.961 . S
C522 H525 0.960 . S
H523 C522 0.961 . S
H524 C522 0.961 . S
H525 C522 0.960 . S
C526 N527 1.342 . S
C526 C530 1.401 . S
C526 C531 1.499 . S
N527 Co510 1.989 . S
N527 C526 1.342 . S
N527 N528 1.388 . S
N528 Co511 1.993 . S
N528 N527 1.388 . S
N528 C529 1.346 . S
C529 N528 1.346 . S
C529 C530 1.396 . S
C529 C539 1.510 . S
C530 C526 1.401 . S
C530 C529 1.396 . S
C531 C526 1.499 . S
C531 H532 0.959 . S
C531 H533 0.960 . S
C531 H534 0.961 . S
H532 C531 0.959 . S
H533 C531 0.960 . S
H534 C531 0.961 . S
O535 Co510 1.967 . S
O535 C543 1.258 . S
O536 Co511 1.941 . S
O536 C543 1.266 . S
H537 C539 0.959 . S
H538 C539 0.961 . S
C539 C529 1.510 . S
C539 H537 0.959 . S
C539 H538 0.961 . S
C539 H540 0.960 . S
H540 C539 0.960 . S
H541 N521 0.862 . S
O542 Co510 1.920 . S
O542 C515 1.289 . S
C543 O535 1.258 . S
C543 O536 1.266 . S
C544 C545 1.363 . S
C544 C550 1.379 . S
C544 N552 1.356 . S
C545 C544 1.363 . S
C545 C551 1.363 . S
C546 C547 1.363 . S
C546 C551 1.379 . S
C546 N553 1.356 . S
C547 C546 1.363 . S
C547 C550 1.363 . S
N548 C550 1.356 . S
N548 H560 0.984 . S
N548 H561 0.985 . S
N549 C551 1.356 . S
N549 H554 0.984 . S
N549 H555 0.985 . S
C550 C544 1.379 . S
C550 C547 1.363 . S
C550 N548 1.356 . S
C551 C545 1.363 . S
C551 C546 1.379 . S
C551 N549 1.356 . S
N552 C544 1.356 . S
N552 H558 0.984 . S
N552 H559 0.984 . S
N553 C546 1.356 . S
N553 H556 0.984 . S
N553 H557 0.985 . S
H554 N549 0.984 . S
H555 N549 0.985 . S
H556 N553 0.984 . S
H557 N553 0.985 . S
H558 N552 0.984 . S
H559 N552 0.984 . S
H560 N548 0.984 . S
H561 N548 0.985 . S
C562 C563 1.363 . S
C562 C568 1.379 . S
C562 N570 1.356 . S
C563 C562 1.363 . S
C563 C569 1.363 . S
C564 C565 1.363 . S
C564 C569 1.379 . S
C564 N571 1.356 . S
C565 C564 1.363 . S
C565 C568 1.363 . S
N566 C568 1.356 . S
N566 H578 0.984 . S
N566 H579 0.985 . S
N567 C569 1.356 . S
N567 H572 0.984 . S
N567 H573 0.985 . S
C568 C562 1.379 . S
C568 C565 1.363 . S
C568 N566 1.356 . S
C569 C563 1.363 . S
C569 C564 1.379 . S
C569 N567 1.356 . S
N570 C562 1.356 . S
N570 H576 0.984 . S
N570 H577 0.984 . S
N571 C564 1.356 . S
N571 H574 0.984 . S
N571 H575 0.985 . S
H572 N567 0.984 . S
H573 N567 0.985 . S
H574 N571 0.984 . S
H575 N571 0.985 . S
H576 N570 0.984 . S
H577 N570 0.984 . S
H578 N566 0.984 . S
H579 N566 0.985 . S
C580 C581 1.363 . S
C580 C586 1.379 . S
C580 N588 1.356 . S
C581 C580 1.363 . S
C581 C587 1.363 . S
C582 C583 1.363 . S
C582 C587 1.379 . S
C582 N589 1.356 . S
C583 C582 1.363 . S
C583 C586 1.363 . S
N584 C586 1.356 . S
N584 H596 0.984 . S
N584 H597 0.985 . S
N585 C587 1.356 . S
N585 H590 0.984 . S
N585 H591 0.985 . S
C586 C580 1.379 . S
C586 C583 1.363 . S
C586 N584 1.356 . S
C587 C581 1.363 . S
C587 C582 1.379 . S
C587 N585 1.356 . S
N588 C580 1.356 . S
N588 H594 0.984 . S
N588 H595 0.984 . S
N589 C582 1.356 . S
N589 H592 0.984 . S
N589 H593 0.985 . S
H590 N585 0.984 . S
H591 N585 0.985 . S
H592 N589 0.984 . S
H593 N589 0.985 . S
H594 N588 0.984 . S
H595 N588 0.984 . S
H596 N584 0.984 . S
H597 N584 0.985 . S
C598 C599 1.363 . S
C598 C604 1.379 . S
C598 N606 1.356 . S
C599 C598 1.363 . S
C599 C605 1.363 . S
C600 C601 1.363 . S
C600 C605 1.379 . S
C600 N607 1.356 . S
C601 C600 1.363 . S
C601 C604 1.363 . S
N602 C604 1.356 . S
N602 H614 0.984 . S
N602 H615 0.985 . S
N603 C605 1.356 . S
N603 H608 0.984 . S
N603 H609 0.985 . S
C604 C598 1.379 . S
C604 C601 1.363 . S
C604 N602 1.356 . S
C605 C599 1.363 . S
C605 C600 1.379 . S
C605 N603 1.356 . S
N606 C598 1.356 . S
N606 H612 0.984 . S
N606 H613 0.984 . S
N607 C600 1.356 . S
N607 H610 0.984 . S
N607 H611 0.985 . S
H608 N603 0.984 . S
H609 N603 0.985 . S
H610 N607 0.984 . S
H611 N607 0.985 . S
H612 N606 0.984 . S
H613 N606 0.984 . S
H614 N602 0.984 . S
H615 N602 0.985 . S
C616 C617 1.363 . S
C616 C622 1.379 . S
C616 N624 1.356 . S
C617 C616 1.363 . S
C617 C623 1.363 . S
C618 C619 1.363 . S
C618 C623 1.379 . S
C618 N625 1.356 . S
C619 C618 1.363 . S
C619 C622 1.363 . S
N620 C622 1.356 . S
N620 H632 0.984 . S
N620 H633 0.985 . S
N621 C623 1.356 . S
N621 H626 0.984 . S
N621 H627 0.985 . S
C622 C616 1.379 . S
C622 C619 1.363 . S
C622 N620 1.356 . S
C623 C617 1.363 . S
C623 C618 1.379 . S
C623 N621 1.356 . S
N624 C616 1.356 . S
N624 H630 0.984 . S
N624 H631 0.984 . S
N625 C618 1.356 . S
N625 H628 0.984 . S
N625 H629 0.985 . S
H626 N621 0.984 . S
H627 N621 0.985 . S
H628 N625 0.984 . S
H629 N625 0.985 . S
H630 N624 0.984 . S
H631 N624 0.984 . S
H632 N620 0.984 . S
H633 N620 0.985 . S
C634 C635 1.363 . S
C634 C640 1.379 . S
C634 N642 1.356 . S
C635 C634 1.363 . S
C635 C641 1.363 . S
C636 C637 1.363 . S
C636 C641 1.379 . S
C636 N643 1.356 . S
C637 C636 1.363 . S
C637 C640 1.363 . S
N638 C640 1.356 . S
N638 H650 0.984 . S
N638 H651 0.985 . S
N639 C641 1.356 . S
N639 H644 0.984 . S
N639 H645 0.985 . S
C640 C634 1.379 . S
C640 C637 1.363 . S
C640 N638 1.356 . S
C641 C635 1.363 . S
C641 C636 1.379 . S
C641 N639 1.356 . S
N642 C634 1.356 . S
N642 H648 0.984 . S
N642 H649 0.984 . S
N643 C636 1.356 . S
N643 H646 0.984 . S
N643 H647 0.985 . S
H644 N639 0.984 . S
H645 N639 0.985 . S
H646 N643 0.984 . S
H647 N643 0.985 . S
H648 N642 0.984 . S
H649 N642 0.984 . S
H650 N638 0.984 . S
H651 N638 0.985 . S
C652 C653 1.363 . S
C652 C658 1.379 . S
C652 N660 1.356 . S
C653 C652 1.363 . S
C653 C659 1.363 . S
C654 C655 1.363 . S
C654 C659 1.379 . S
C654 N661 1.356 . S
C655 C654 1.363 . S
C655 C658 1.363 . S
N656 C658 1.356 . S
N656 H668 0.984 . S
N656 H669 0.985 . S
N657 C659 1.356 . S
N657 H662 0.984 . S
N657 H663 0.985 . S
C658 C652 1.379 . S
C658 C655 1.363 . S
C658 N656 1.356 . S
C659 C653 1.363 . S
C659 C654 1.379 . S
C659 N657 1.356 . S
N660 C652 1.356 . S
N660 H666 0.984 . S
N660 H667 0.984 . S
N661 C654 1.356 . S
N661 H664 0.984 . S
N661 H665 0.985 . S
H662 N657 0.984 . S
H663 N657 0.985 . S
H664 N661 0.984 . S
H665 N661 0.985 . S
H666 N660 0.984 . S
H667 N660 0.984 . S
H668 N656 0.984 . S
H669 N656 0.985 . S
C670 C671 1.363 . S
C670 C676 1.379 . S
C670 N678 1.356 . S
C671 C670 1.363 . S
C671 C677 1.363 . S
C672 C673 1.363 . S
C672 C677 1.379 . S
C672 N679 1.356 . S
C673 C672 1.363 . S
C673 C676 1.363 . S
N674 C676 1.356 . S
N674 H686 0.984 . S
N674 H687 0.985 . S
N675 C677 1.356 . S
N675 H680 0.984 . S
N675 H681 0.985 . S
C676 C670 1.379 . S
C676 C673 1.363 . S
C676 N674 1.356 . S
C677 C671 1.363 . S
C677 C672 1.379 . S
C677 N675 1.356 . S
N678 C670 1.356 . S
N678 H684 0.984 . S
N678 H685 0.984 . S
N679 C672 1.356 . S
N679 H682 0.984 . S
N679 H683 0.985 . S
H680 N675 0.984 . S
H681 N675 0.985 . S
H682 N679 0.984 . S
H683 N679 0.985 . S
H684 N678 0.984 . S
H685 N678 0.984 . S
H686 N674 0.984 . S
H687 N674 0.985 . S
C688 C689 1.363 . S
C688 C694 1.379 1_554 S
C688 N696 1.356 . S
C689 C688 1.363 . S
C689 C695 1.363 . S
C690 C691 1.363 . S
C690 C695 1.379 1_556 S
C690 N697 1.356 . S
C691 C690 1.363 . S
C691 C694 1.363 . S
N692 C694 1.356 . S
N692 H704 0.984 . S
N692 H705 0.985 . S
N693 C695 1.356 . S
N693 H698 0.984 . S
N693 H699 0.985 . S
C694 C688 1.379 1_556 S
C694 C691 1.363 . S
C694 N692 1.356 . S
C695 C689 1.363 . S
C695 C690 1.379 1_554 S
C695 N693 1.356 . S
N696 C688 1.356 . S
N696 H702 0.984 . S
N696 H703 0.984 . S
N697 C690 1.356 . S
N697 H700 0.984 . S
N697 H701 0.985 . S
H698 N693 0.984 . S
H699 N693 0.985 . S
H700 N697 0.984 . S
H701 N697 0.985 . S
H702 N696 0.984 . S
H703 N696 0.984 . S
H704 N692 0.984 . S
H705 N692 0.985 . S
C706 C707 1.363 . S
C706 C712 1.379 1_554 S
C706 N714 1.356 . S
C707 C706 1.363 . S
C707 C713 1.363 . S
C708 C709 1.363 1_554 S
C708 C713 1.379 . S
C708 N715 1.356 1_554 S
C709 C708 1.363 1_556 S
C709 C712 1.363 . S
N710 C712 1.356 . S
N710 H722 0.984 . S
N710 H723 0.985 . S
N711 C713 1.356 . S
N711 H716 0.984 . S
N711 H717 0.985 . S
C712 C706 1.379 1_556 S
C712 C709 1.363 . S
C712 N710 1.356 . S
C713 C707 1.363 . S
C713 C708 1.379 . S
C713 N711 1.356 . S
N714 C706 1.356 . S
N714 H720 0.984 . S
N714 H721 0.984 . S
N715 C708 1.356 1_556 S
N715 H718 0.984 . S
N715 H719 0.985 1_556 S
H716 N711 0.984 . S
H717 N711 0.985 . S
H718 N715 0.984 . S
H719 N715 0.985 1_554 S
H720 N714 0.984 . S
H721 N714 0.984 . S
H722 N710 0.984 . S
H723 N710 0.985 . S
C724 C725 1.363 . S
C724 C730 1.379 1_554 S
C724 N732 1.356 . S
C725 C724 1.363 . S
C725 C731 1.363 . S
C726 C727 1.363 . S
C726 C731 1.379 1_556 S
C726 N733 1.356 . S
C727 C726 1.363 . S
C727 C730 1.363 . S
N728 C730 1.356 . S
N728 H740 0.984 . S
N728 H741 0.985 . S
N729 C731 1.356 . S
N729 H734 0.984 . S
N729 H735 0.985 . S
C730 C724 1.379 1_556 S
C730 C727 1.363 . S
C730 N728 1.356 . S
C731 C725 1.363 . S
C731 C726 1.379 1_554 S
C731 N729 1.356 . S
N732 C724 1.356 . S
N732 H738 0.984 . S
N732 H739 0.984 . S
N733 C726 1.356 . S
N733 H736 0.984 . S
N733 H737 0.985 . S
H734 N729 0.984 . S
H735 N729 0.985 . S
H736 N733 0.984 . S
H737 N733 0.985 . S
H738 N732 0.984 . S
H739 N732 0.984 . S
H740 N728 0.984 . S
H741 N728 0.985 . S
C742 C743 1.363 . S
C742 C748 1.379 1_554 S
C742 N750 1.356 . S
C743 C742 1.363 . S
C743 C749 1.363 . S
C744 C745 1.354 1_554 S
C744 C749 1.389 . S
C744 N751 1.352 1_554 S
C745 C744 1.354 1_556 S
C745 C748 1.363 . S
N746 C748 1.356 . S
N746 H758 0.984 . S
N746 H759 0.985 . S
N747 C749 1.356 . S
N747 H752 0.984 . S
N747 H753 0.985 . S
C748 C742 1.379 1_556 S
C748 C745 1.363 . S
C748 N746 1.356 . S
C749 C743 1.363 . S
C749 C744 1.389 . S
C749 N747 1.356 . S
N750 C742 1.356 . S
N750 H756 0.984 . S
N750 H757 0.984 . S
N751 C744 1.352 1_556 S
N751 H754 0.984 . S
N751 H755 0.982 1_556 S
H752 N747 0.984 . S
H753 N747 0.985 . S
H754 N751 0.984 . S
H755 N751 0.982 1_554 S
H756 N750 0.984 . S
H757 N750 0.984 . S
H758 N746 0.984 . S
H759 N746 0.985 . S
C760 C761 1.363 . S
C760 C766 1.379 1_554 S
C760 N768 1.356 . S
C761 C760 1.363 . S
C761 C767 1.363 . S
C762 C763 1.363 . S
C762 C767 1.379 1_556 S
C762 N769 1.356 . S
C763 C762 1.363 . S
C763 C766 1.363 . S
N764 C766 1.356 . S
N764 H776 0.984 . S
N764 H777 0.985 . S
N765 C767 1.356 . S
N765 H770 0.984 . S
N765 H771 0.985 . S
C766 C760 1.379 1_556 S
C766 C763 1.363 . S
C766 N764 1.356 . S
C767 C761 1.363 . S
C767 C762 1.379 1_554 S
C767 N765 1.356 . S
N768 C760 1.356 . S
N768 H774 0.984 . S
N768 H775 0.984 . S
N769 C762 1.356 . S
N769 H772 0.984 . S
N769 H773 0.985 . S
H770 N765 0.984 . S
H771 N765 0.985 . S
H772 N769 0.984 . S
H773 N769 0.985 . S
H774 N768 0.984 . S
H775 N768 0.984 . S
H776 N764 0.984 . S
H777 N764 0.985 . S
C778 C779 1.359 1_556 S
C778 C784 1.384 . S
C778 N786 1.354 1_556 S
C779 C778 1.359 1_554 S
C779 C785 1.363 . S
C780 C781 1.363 . S
C780 C785 1.379 1_556 S
C780 N787 1.356 . S
C781 C780 1.363 . S
C781 C784 1.363 . S
N782 C784 1.356 . S
N782 H794 0.984 . S
N782 H795 0.985 . S
N783 C785 1.356 . S
N783 H788 0.984 . S
N783 H789 0.985 . S
C784 C778 1.384 . S
C784 C781 1.363 . S
C784 N782 1.356 . S
C785 C779 1.363 . S
C785 C780 1.379 1_554 S
C785 N783 1.356 . S
N786 C778 1.354 1_554 S
N786 H792 0.988 . S
N786 H793 0.984 . S
N787 C780 1.356 . S
N787 H790 0.984 . S
N787 H791 0.985 . S
H788 N783 0.984 . S
H789 N783 0.985 . S
H790 N787 0.984 . S
H791 N787 0.985 . S
H792 N786 0.988 . S
H793 N786 0.984 . S
H794 N782 0.984 . S
H795 N782 0.985 . S
C796 C797 1.363 . S
C796 C802 1.379 1_554 S
C796 N804 1.356 . S
C797 C796 1.363 . S
C797 C803 1.363 . S
C798 C799 1.363 . S
C798 C803 1.379 1_556 S
C798 N805 1.356 . S
C799 C798 1.363 . S
C799 C802 1.363 . S
N800 C802 1.356 . S
N800 H812 0.984 . S
N800 H813 0.985 . S
N801 C803 1.356 . S
N801 H806 0.984 . S
N801 H807 0.985 . S
C802 C796 1.379 1_556 S
C802 C799 1.363 . S
C802 N800 1.356 . S
C803 C797 1.363 . S
C803 C798 1.379 1_554 S
C803 N801 1.356 . S
N804 C796 1.356 . S
N804 H810 0.984 . S
N804 H811 0.984 . S
N805 C798 1.356 . S
N805 H808 0.984 . S
N805 H809 0.985 . S
H806 N801 0.984 . S
H807 N801 0.985 . S
H808 N805 0.984 . S
H809 N805 0.985 . S
H810 N804 0.984 . S
H811 N804 0.984 . S
H812 N800 0.984 . S
H813 N800 0.985 . S
C814 C815 1.363 . S
C814 C820 1.379 1_554 S
C814 N822 1.356 . S
C815 C814 1.363 . S
C815 C821 1.363 . S
C816 C817 1.363 . S
C816 C821 1.379 1_556 S
C816 N823 1.356 . S
C817 C816 1.363 . S
C817 C820 1.363 . S
N818 C820 1.356 . S
N818 H830 0.984 . S
N818 H831 0.985 . S
N819 C821 1.356 . S
N819 H824 0.984 . S
N819 H825 0.985 . S
C820 C814 1.379 1_556 S
C820 C817 1.363 . S
C820 N818 1.356 . S
C821 C815 1.363 . S
C821 C816 1.379 1_554 S
C821 N819 1.356 . S
N822 C814 1.356 . S
N822 H828 0.984 . S
N822 H829 0.984 . S
N823 C816 1.356 . S
N823 H826 0.984 . S
N823 H827 0.985 . S
H824 N819 0.984 . S
H825 N819 0.985 . S
H826 N823 0.984 . S
H827 N823 0.985 . S
H828 N822 0.984 . S
H829 N822 0.984 . S
H830 N818 0.984 . S
H831 N818 0.985 . S
C832 C833 1.363 . S
C832 C838 1.379 . S
C832 N840 1.356 . S
C833 C832 1.363 . S
C833 C839 1.363 . S
C834 C835 1.363 . S
C834 C839 1.379 . S
C834 N841 1.356 . S
C835 C834 1.363 . S
C835 C838 1.363 . S
N836 C838 1.356 . S
N836 H848 0.984 . S
N836 H849 0.985 . S
N837 C839 1.356 . S
N837 H842 0.984 . S
N837 H843 0.985 . S
C838 C832 1.379 . S
C838 C835 1.363 . S
C838 N836 1.356 . S
C839 C833 1.363 . S
C839 C834 1.379 . S
C839 N837 1.356 . S
N840 C832 1.356 . S
N840 H846 0.984 . S
N840 H847 0.984 . S
N841 C834 1.356 . S
N841 H844 0.984 . S
N841 H845 0.985 . S
H842 N837 0.984 . S
H843 N837 0.985 . S
H844 N841 0.984 . S
H845 N841 0.985 . S
H846 N840 0.984 . S
H847 N840 0.984 . S
H848 N836 0.984 . S
H849 N836 0.985 . S
C850 C851 1.363 . S
C850 C856 1.379 . S
C850 N858 1.356 . S
C851 C850 1.363 . S
C851 C857 1.363 . S
C852 C853 1.363 . S
C852 C857 1.379 . S
C852 N859 1.356 . S
C853 C852 1.363 . S
C853 C856 1.363 . S
N854 C856 1.356 . S
N854 H866 0.984 . S
N854 H867 0.985 . S
N855 C857 1.356 . S
N855 H860 0.984 . S
N855 H861 0.985 . S
C856 C850 1.379 . S
C856 C853 1.363 . S
C856 N854 1.356 . S
C857 C851 1.363 . S
C857 C852 1.379 . S
C857 N855 1.356 . S
N858 C850 1.356 . S
N858 H864 0.984 . S
N858 H865 0.984 . S
N859 C852 1.356 . S
N859 H862 0.984 . S
N859 H863 0.985 . S
H860 N855 0.984 . S
H861 N855 0.985 . S
H862 N859 0.984 . S
H863 N859 0.985 . S
H864 N858 0.984 . S
H865 N858 0.984 . S
H866 N854 0.984 . S
H867 N854 0.985 . S
C868 C869 1.363 . S
C868 C874 1.379 . S
C868 N876 1.356 . S
C869 C868 1.363 . S
C869 C875 1.363 . S
C870 C871 1.363 . S
C870 C875 1.379 . S
C870 N877 1.356 . S
C871 C870 1.363 . S
C871 C874 1.363 . S
N872 C874 1.356 . S
N872 H884 0.984 . S
N872 H885 0.985 . S
N873 C875 1.356 . S
N873 H878 0.984 . S
N873 H879 0.985 . S
C874 C868 1.379 . S
C874 C871 1.363 . S
C874 N872 1.356 . S
C875 C869 1.363 . S
C875 C870 1.379 . S
C875 N873 1.356 . S
N876 C868 1.356 . S
N876 H882 0.984 . S
N876 H883 0.984 . S
N877 C870 1.356 . S
N877 H880 0.984 . S
N877 H881 0.985 . S
H878 N873 0.984 . S
H879 N873 0.985 . S
H880 N877 0.984 . S
H881 N877 0.985 . S
H882 N876 0.984 . S
H883 N876 0.984 . S
H884 N872 0.984 . S
H885 N872 0.985 . S
C886 C887 1.363 . S
C886 C892 1.379 . S
C886 N894 1.356 . S
C887 C886 1.363 . S
C887 C893 1.363 . S
C888 C889 1.363 . S
C888 C893 1.379 . S
C888 N895 1.356 . S
C889 C888 1.363 . S
C889 C892 1.363 . S
N890 C892 1.356 . S
N890 H902 0.984 . S
N890 H903 0.985 . S
N891 C893 1.356 . S
N891 H896 0.984 . S
N891 H897 0.985 . S
C892 C886 1.379 . S
C892 C889 1.363 . S
C892 N890 1.356 . S
C893 C887 1.363 . S
C893 C888 1.379 . S
C893 N891 1.356 . S
N894 C886 1.356 . S
N894 H900 0.984 . S
N894 H901 0.984 . S
N895 C888 1.356 . S
N895 H898 0.984 . S
N895 H899 0.985 . S
H896 N891 0.984 . S
H897 N891 0.985 . S
H898 N895 0.984 . S
H899 N895 0.985 . S
H900 N894 0.984 . S
H901 N894 0.984 . S
H902 N890 0.984 . S
H903 N890 0.985 . S
C904 C905 1.363 . S
C904 C910 1.379 . S
C904 N912 1.356 . S
C905 C904 1.363 . S
C905 C911 1.363 . S
C906 C907 1.363 . S
C906 C911 1.379 . S
C906 N913 1.356 . S
C907 C906 1.363 . S
C907 C910 1.363 . S
N908 C910 1.356 . S
N908 H920 0.984 . S
N908 H921 0.985 . S
N909 C911 1.356 . S
N909 H914 0.984 . S
N909 H915 0.985 . S
C910 C904 1.379 . S
C910 C907 1.363 . S
C910 N908 1.356 . S
C911 C905 1.363 . S
C911 C906 1.379 . S
C911 N909 1.356 . S
N912 C904 1.356 . S
N912 H918 0.984 . S
N912 H919 0.984 . S
N913 C906 1.356 . S
N913 H916 0.984 . S
N913 H917 0.985 . S
H914 N909 0.984 . S
H915 N909 0.985 . S
H916 N913 0.984 . S
H917 N913 0.985 . S
H918 N912 0.984 . S
H919 N912 0.984 . S
H920 N908 0.984 . S
H921 N908 0.985 . S
C922 C923 1.363 . S
C922 C928 1.379 . S
C922 N930 1.356 . S
C923 C922 1.363 . S
C923 C929 1.363 . S
C924 C925 1.363 . S
C924 C929 1.379 . S
C924 N931 1.356 . S
C925 C924 1.363 . S
C925 C928 1.363 . S
N926 C928 1.356 . S
N926 H938 0.984 . S
N926 H939 0.985 . S
N927 C929 1.356 . S
N927 H932 0.984 . S
N927 H933 0.985 . S
C928 C922 1.379 . S
C928 C925 1.363 . S
C928 N926 1.356 . S
C929 C923 1.363 . S
C929 C924 1.379 . S
C929 N927 1.356 . S
N930 C922 1.356 . S
N930 H936 0.984 . S
N930 H937 0.984 . S
N931 C924 1.356 . S
N931 H934 0.984 . S
N931 H935 0.985 . S
H932 N927 0.984 . S
H933 N927 0.985 . S
H934 N931 0.984 . S
H935 N931 0.985 . S
H936 N930 0.984 . S
H937 N930 0.984 . S
H938 N926 0.984 . S
H939 N926 0.985 . S
C940 C941 1.363 . S
C940 C946 1.379 . S
C940 N948 1.356 . S
C941 C940 1.363 . S
C941 C947 1.363 . S
C942 C943 1.363 . S
C942 C947 1.379 . S
C942 N949 1.356 . S
C943 C942 1.363 . S
C943 C946 1.363 . S
N944 C946 1.356 . S
N944 H956 0.984 . S
N944 H957 0.985 . S
N945 C947 1.356 . S
N945 H950 0.984 . S
N945 H951 0.985 . S
C946 C940 1.379 . S
C946 C943 1.363 . S
C946 N944 1.356 . S
C947 C941 1.363 . S
C947 C942 1.379 . S
C947 N945 1.356 . S
N948 C940 1.356 . S
N948 H954 0.984 . S
N948 H955 0.984 . S
N949 C942 1.356 . S
N949 H952 0.984 . S
N949 H953 0.985 . S
H950 N945 0.984 . S
H951 N945 0.985 . S
H952 N949 0.984 . S
H953 N949 0.985 . S
H954 N948 0.984 . S
H955 N948 0.984 . S
H956 N944 0.984 . S
H957 N944 0.985 . S
C958 C959 1.363 . S
C958 C964 1.379 . S
C958 N966 1.356 . S
C959 C958 1.363 . S
C959 C965 1.363 . S
C960 C961 1.363 . S
C960 C965 1.379 . S
C960 N967 1.356 . S
C961 C960 1.363 . S
C961 C964 1.363 . S
N962 C964 1.356 . S
N962 H974 0.984 . S
N962 H975 0.985 . S
N963 C965 1.356 . S
N963 H968 0.984 . S
N963 H969 0.985 . S
C964 C958 1.379 . S
C964 C961 1.363 . S
C964 N962 1.356 . S
C965 C959 1.363 . S
C965 C960 1.379 . S
C965 N963 1.356 . S
N966 C958 1.356 . S
N966 H972 0.984 . S
N966 H973 0.984 . S
N967 C960 1.356 . S
N967 H970 0.984 . S
N967 H971 0.985 . S
H968 N963 0.984 . S
H969 N963 0.985 . S
H970 N967 0.984 . S
H971 N967 0.985 . S
H972 N966 0.984 . S
H973 N966 0.984 . S
H974 N962 0.984 . S
H975 N962 0.985 . S
C976 C977 1.363 . S
C976 C982 1.379 1_545 S
C976 N984 1.356 . S
C977 C976 1.363 . S
C977 C983 1.363 1_554 S
C978 C979 1.363 . S
C978 C983 1.379 1_565 S
C978 N985 1.356 . S
C979 C978 1.363 . S
C979 C982 1.363 1_556 S
N980 C982 1.356 . S
N980 H992 0.984 . S
N980 H993 0.985 . S
N981 C983 1.356 . S
N981 H986 0.984 . S
N981 H987 0.985 . S
C982 C976 1.379 1_565 S
C982 C979 1.363 1_554 S
C982 N980 1.356 . S
C983 C977 1.363 1_556 S
C983 C978 1.379 1_545 S
C983 N981 1.356 . S
N984 C976 1.356 . S
N984 H990 0.984 . S
N984 H991 0.984 . S
N985 C978 1.356 . S
N985 H988 0.984 . S
N985 H989 0.985 . S
H986 N981 0.984 . S
H987 N981 0.985 . S
H988 N985 0.984 . S
H989 N985 0.985 . S
H990 N984 0.984 . S
H991 N984 0.984 . S
H992 N980 0.984 . S
H993 N980 0.985 . S
C994 C995 1.363 . S
C994 C1000 1.379 1_455 S
C994 N1002 1.356 . S
C995 C994 1.363 . S
C995 C1001 1.363 1_556 S
C996 C997 1.363 . S
C996 C1001 1.379 1_655 S
C996 N1003 1.356 . S
C997 C996 1.363 . S
C997 C1000 1.363 1_554 S
N998 C1000 1.356 . S
N998 H1010 0.984 . S
N998 H1011 0.985 . S
N999 C1001 1.356 . S
N999 H1004 0.984 . S
N999 H1005 0.985 . S
C1000 C994 1.379 1_655 S
C1000 C997 1.363 1_556 S
C1000 N998 1.356 . S
C1001 C995 1.363 1_554 S
C1001 C996 1.379 1_455 S
C1001 N999 1.356 . S
N1002 C994 1.356 . S
N1002 H1008 0.984 . S
N1002 H1009 0.984 . S
N1003 C996 1.356 . S
N1003 H1006 0.984 . S
N1003 H1007 0.985 . S
H1004 N999 0.984 . S
H1005 N999 0.985 . S
H1006 N1003 0.984 . S
H1007 N1003 0.985 . S
H1008 N1002 0.984 . S
H1009 N1002 0.984 . S
H1010 N998 0.984 . S
H1011 N998 0.985 . S
C1012 C1013 1.363 . S
C1012 C1018 1.379 1_565 S
C1012 N1020 1.356 . S
C1013 C1012 1.363 . S
C1013 C1019 1.363 1_554 S
C1014 C1015 1.363 . S
C1014 C1019 1.379 1_545 S
C1014 N1021 1.356 . S
C1015 C1014 1.363 . S
C1015 C1018 1.363 1_556 S
N1016 C1018 1.356 . S
N1016 H1028 0.984 . S
N1016 H1029 0.985 . S
N1017 C1019 1.356 . S
N1017 H1022 0.984 . S
N1017 H1023 0.985 . S
C1018 C1012 1.379 1_545 S
C1018 C1015 1.363 1_554 S
C1018 N1016 1.356 . S
C1019 C1013 1.363 1_556 S
C1019 C1014 1.379 1_565 S
C1019 N1017 1.356 . S
N1020 C1012 1.356 . S
N1020 H1026 0.984 . S
N1020 H1027 0.984 . S
N1021 C1014 1.356 . S
N1021 H1024 0.984 . S
N1021 H1025 0.985 . S
H1022 N1017 0.984 . S
H1023 N1017 0.985 . S
H1024 N1021 0.984 . S
H1025 N1021 0.985 . S
H1026 N1020 0.984 . S
H1027 N1020 0.984 . S
H1028 N1016 0.984 . S
H1029 N1016 0.985 . S
C1030 C1031 1.363 1_554 S
C1030 C1036 1.379 1_655 S
C1030 N1038 1.356 . S
C1031 C1030 1.363 1_556 S
C1031 C1037 1.363 . S
C1032 C1033 1.363 1_556 S
C1032 C1037 1.379 1_455 S
C1032 N1039 1.356 . S
C1033 C1032 1.363 1_554 S
C1033 C1036 1.363 . S
N1034 C1036 1.356 . S
N1034 H1046 0.984 . S
N1034 H1047 0.985 . S
N1035 C1037 1.356 . S
N1035 H1040 0.984 . S
N1035 H1041 0.985 . S
C1036 C1030 1.379 1_455 S
C1036 C1033 1.363 . S
C1036 N1034 1.356 . S
C1037 C1031 1.363 . S
C1037 C1032 1.379 1_655 S
C1037 N1035 1.356 . S
N1038 C1030 1.356 . S
N1038 H1044 0.984 . S
N1038 H1045 0.984 . S
N1039 C1032 1.356 . S
N1039 H1042 0.984 . S
N1039 H1043 0.985 . S
H1040 N1035 0.984 . S
H1041 N1035 0.985 . S
H1042 N1039 0.984 . S
H1043 N1039 0.985 . S
H1044 N1038 0.984 . S
H1045 N1038 0.984 . S
H1046 N1034 0.984 . S
H1047 N1034 0.985 . S
C1048 C1049 1.363 . S
C1048 C1054 1.379 . S
C1048 N1056 1.356 . S
C1049 C1048 1.363 . S
C1049 C1055 1.363 . S
C1050 C1051 1.363 . S
C1050 C1055 1.379 . S
C1050 N1057 1.356 . S
C1051 C1050 1.363 . S
C1051 C1054 1.363 . S
N1052 C1054 1.356 . S
N1052 H1064 0.984 . S
N1052 H1065 0.985 . S
N1053 C1055 1.356 . S
N1053 H1058 0.984 . S
N1053 H1059 0.985 . S
C1054 C1048 1.379 . S
C1054 C1051 1.363 . S
C1054 N1052 1.356 . S
C1055 C1049 1.363 . S
C1055 C1050 1.379 . S
C1055 N1053 1.356 . S
N1056 C1048 1.356 . S
N1056 H1062 0.984 . S
N1056 H1063 0.984 . S
N1057 C1050 1.356 . S
N1057 H1060 0.984 . S
N1057 H1061 0.985 . S
H1058 N1053 0.984 . S
H1059 N1053 0.985 . S
H1060 N1057 0.984 . S
H1061 N1057 0.985 . S
H1062 N1056 0.984 . S
H1063 N1056 0.984 . S
H1064 N1052 0.984 . S
H1065 N1052 0.985 . S
C1066 C1067 1.363 . S
C1066 C1072 1.379 . S
C1066 N1074 1.356 . S
C1067 C1066 1.363 . S
C1067 C1073 1.363 . S
C1068 C1069 1.363 . S
C1068 C1073 1.379 . S
C1068 N1075 1.356 . S
C1069 C1068 1.363 . S
C1069 C1072 1.363 . S
N1070 C1072 1.356 . S
N1070 H1082 0.984 . S
N1070 H1083 0.985 . S
N1071 C1073 1.356 . S
N1071 H1076 0.984 . S
N1071 H1077 0.985 . S
C1072 C1066 1.379 . S
C1072 C1069 1.363 . S
C1072 N1070 1.356 . S
C1073 C1067 1.363 . S
C1073 C1068 1.379 . S
C1073 N1071 1.356 . S
N1074 C1066 1.356 . S
N1074 H1080 0.984 . S
N1074 H1081 0.984 . S
N1075 C1068 1.356 . S
N1075 H1078 0.984 . S
N1075 H1079 0.985 . S
H1076 N1071 0.984 . S
H1077 N1071 0.985 . S
H1078 N1075 0.984 . S
H1079 N1075 0.985 . S
H1080 N1074 0.984 . S
H1081 N1074 0.984 . S
H1082 N1070 0.984 . S
H1083 N1070 0.985 . S
C1084 C1085 1.363 . S
C1084 C1090 1.379 . S
C1084 N1092 1.356 . S
C1085 C1084 1.363 . S
C1085 C1091 1.363 . S
C1086 C1087 1.363 . S
C1086 C1091 1.379 . S
C1086 N1093 1.356 . S
C1087 C1086 1.363 . S
C1087 C1090 1.363 . S
N1088 C1090 1.356 . S
N1088 H1100 0.984 . S
N1088 H1101 0.985 . S
N1089 C1091 1.356 . S
N1089 H1094 0.984 . S
N1089 H1095 0.985 . S
C1090 C1084 1.379 . S
C1090 C1087 1.363 . S
C1090 N1088 1.356 . S
C1091 C1085 1.363 . S
C1091 C1086 1.379 . S
C1091 N1089 1.356 . S
N1092 C1084 1.356 . S
N1092 H1098 0.984 . S
N1092 H1099 0.984 . S
N1093 C1086 1.356 . S
N1093 H1096 0.984 . S
N1093 H1097 0.985 . S
H1094 N1089 0.984 . S
H1095 N1089 0.985 . S
H1096 N1093 0.984 . S
H1097 N1093 0.985 . S
H1098 N1092 0.984 . S
H1099 N1092 0.984 . S
H1100 N1088 0.984 . S
H1101 N1088 0.985 . S
C1102 C1103 1.363 . S
C1102 C1108 1.379 . S
C1102 N1110 1.356 . S
C1103 C1102 1.363 . S
C1103 C1109 1.363 . S
C1104 C1105 1.363 . S
C1104 C1109 1.379 . S
C1104 N1111 1.356 . S
C1105 C1104 1.363 . S
C1105 C1108 1.363 . S
N1106 C1108 1.356 . S
N1106 H1118 0.984 . S
N1106 H1119 0.985 . S
N1107 C1109 1.356 . S
N1107 H1112 0.984 . S
N1107 H1113 0.985 . S
C1108 C1102 1.379 . S
C1108 C1105 1.363 . S
C1108 N1106 1.356 . S
C1109 C1103 1.363 . S
C1109 C1104 1.379 . S
C1109 N1107 1.356 . S
N1110 C1102 1.356 . S
N1110 H1116 0.984 . S
N1110 H1117 0.984 . S
N1111 C1104 1.356 . S
N1111 H1114 0.984 . S
N1111 H1115 0.985 . S
H1112 N1107 0.984 . S
H1113 N1107 0.985 . S
H1114 N1111 0.984 . S
H1115 N1111 0.985 . S
H1116 N1110 0.984 . S
H1117 N1110 0.984 . S
H1118 N1106 0.984 . S
H1119 N1106 0.985 . S
C1120 C1121 1.363 . S
C1120 C1126 1.379 . S
C1120 N1128 1.356 . S
C1121 C1120 1.363 . S
C1121 C1127 1.363 1_554 S
C1122 C1123 1.363 . S
C1122 C1127 1.379 . S
C1122 N1129 1.356 . S
C1123 C1122 1.363 . S
C1123 C1126 1.363 1_556 S
N1124 C1126 1.356 . S
N1124 H1136 0.984 . S
N1124 H1137 0.985 . S
N1125 C1127 1.356 . S
N1125 H1130 0.984 . S
N1125 H1131 0.985 . S
C1126 C1120 1.379 . S
C1126 C1123 1.363 1_554 S
C1126 N1124 1.356 . S
C1127 C1121 1.363 1_556 S
C1127 C1122 1.379 . S
C1127 N1125 1.356 . S
N1128 C1120 1.356 . S
N1128 H1134 0.984 . S
N1128 H1135 0.984 . S
N1129 C1122 1.356 . S
N1129 H1132 0.984 . S
N1129 H1133 0.985 . S
H1130 N1125 0.984 . S
H1131 N1125 0.985 . S
H1132 N1129 0.984 . S
H1133 N1129 0.985 . S
H1134 N1128 0.984 . S
H1135 N1128 0.984 . S
H1136 N1124 0.984 . S
H1137 N1124 0.985 . S
C1138 C1139 1.363 . S
C1138 C1144 1.379 . S
C1138 N1146 1.356 . S
C1139 C1138 1.363 . S
C1139 C1145 1.363 1_554 S
C1140 C1141 1.363 . S
C1140 C1145 1.379 . S
C1140 N1147 1.356 . S
C1141 C1140 1.363 . S
C1141 C1144 1.363 1_556 S
N1142 C1144 1.356 . S
N1142 H1154 0.984 . S
N1142 H1155 0.985 . S
N1143 C1145 1.356 . S
N1143 H1148 0.984 . S
N1143 H1149 0.985 . S
C1144 C1138 1.379 . S
C1144 C1141 1.363 1_554 S
C1144 N1142 1.356 . S
C1145 C1139 1.363 1_556 S
C1145 C1140 1.379 . S
C1145 N1143 1.356 . S
N1146 C1138 1.356 . S
N1146 H1152 0.984 . S
N1146 H1153 0.984 . S
N1147 C1140 1.356 . S
N1147 H1150 0.984 . S
N1147 H1151 0.985 . S
H1148 N1143 0.984 . S
H1149 N1143 0.985 . S
H1150 N1147 0.984 . S
H1151 N1147 0.985 . S
H1152 N1146 0.984 . S
H1153 N1146 0.984 . S
H1154 N1142 0.984 . S
H1155 N1142 0.985 . S
C1156 C1157 1.363 1_554 S
C1156 C1162 1.379 . S
C1156 N1164 1.356 . S
C1157 C1156 1.363 1_556 S
C1157 C1163 1.363 . S
C1158 C1159 1.363 1_556 S
C1158 C1163 1.379 . S
C1158 N1165 1.356 . S
C1159 C1158 1.363 1_554 S
C1159 C1162 1.363 . S
N1160 C1162 1.356 . S
N1160 H1172 0.984 . S
N1160 H1173 0.985 . S
N1161 C1163 1.356 . S
N1161 H1166 0.984 . S
N1161 H1167 0.985 . S
C1162 C1156 1.379 . S
C1162 C1159 1.363 . S
C1162 N1160 1.356 . S
C1163 C1157 1.363 . S
C1163 C1158 1.379 . S
C1163 N1161 1.356 . S
N1164 C1156 1.356 . S
N1164 H1170 0.984 . S
N1164 H1171 0.984 . S
N1165 C1158 1.356 . S
N1165 H1168 0.984 . S
N1165 H1169 0.985 . S
H1166 N1161 0.984 . S
H1167 N1161 0.985 . S
H1168 N1165 0.984 . S
H1169 N1165 0.985 . S
H1170 N1164 0.984 . S
H1171 N1164 0.984 . S
H1172 N1160 0.984 . S
H1173 N1160 0.985 . S
C1174 C1175 1.363 . S
C1174 C1180 1.379 . S
C1174 N1182 1.356 . S
C1175 C1174 1.363 . S
C1175 C1181 1.363 1_554 S
C1176 C1177 1.363 . S
C1176 C1181 1.379 . S
C1176 N1183 1.356 . S
C1177 C1176 1.363 . S
C1177 C1180 1.363 1_556 S
N1178 C1180 1.356 . S
N1178 H1190 0.984 . S
N1178 H1191 0.985 . S
N1179 C1181 1.356 . S
N1179 H1184 0.984 . S
N1179 H1185 0.985 . S
C1180 C1174 1.379 . S
C1180 C1177 1.363 1_554 S
C1180 N1178 1.356 . S
C1181 C1175 1.363 1_556 S
C1181 C1176 1.379 . S
C1181 N1179 1.356 . S
N1182 C1174 1.356 . S
N1182 H1188 0.984 . S
N1182 H1189 0.984 . S
N1183 C1176 1.356 . S
N1183 H1186 0.984 . S
N1183 H1187 0.985 . S
H1184 N1179 0.984 . S
H1185 N1179 0.985 . S
H1186 N1183 0.984 . S
H1187 N1183 0.985 . S
H1188 N1182 0.984 . S
H1189 N1182 0.984 . S
H1190 N1178 0.984 . S
H1191 N1178 0.985 . S
C1192 C1193 1.363 . S
C1192 C1198 1.379 . S
C1192 N1200 1.356 . S
C1193 C1192 1.363 . S
C1193 C1199 1.363 . S
C1194 C1195 1.363 . S
C1194 C1199 1.379 . S
C1194 N1201 1.356 . S
C1195 C1194 1.363 . S
C1195 C1198 1.363 . S
N1196 C1198 1.356 . S
N1196 H1208 0.984 . S
N1196 H1209 0.985 . S
N1197 C1199 1.356 . S
N1197 H1202 0.984 . S
N1197 H1203 0.985 . S
C1198 C1192 1.379 . S
C1198 C1195 1.363 . S
C1198 N1196 1.356 . S
C1199 C1193 1.363 . S
C1199 C1194 1.379 . S
C1199 N1197 1.356 . S
N1200 C1192 1.356 . S
N1200 H1206 0.984 . S
N1200 H1207 0.984 . S
N1201 C1194 1.356 . S
N1201 H1204 0.984 . S
N1201 H1205 0.985 . S
H1202 N1197 0.984 . S
H1203 N1197 0.985 . S
H1204 N1201 0.984 . S
H1205 N1201 0.985 . S
H1206 N1200 0.984 . S
H1207 N1200 0.984 . S
H1208 N1196 0.984 . S
H1209 N1196 0.985 . S
C1210 C1211 1.363 . S
C1210 C1216 1.379 . S
C1210 N1218 1.356 . S
C1211 C1210 1.363 . S
C1211 C1217 1.363 . S
C1212 C1213 1.363 . S
C1212 C1217 1.379 . S
C1212 N1219 1.356 . S
C1213 C1212 1.363 . S
C1213 C1216 1.363 . S
N1214 C1216 1.356 . S
N1214 H1226 0.984 . S
N1214 H1227 0.985 . S
N1215 C1217 1.356 . S
N1215 H1220 0.984 . S
N1215 H1221 0.985 . S
C1216 C1210 1.379 . S
C1216 C1213 1.363 . S
C1216 N1214 1.356 . S
C1217 C1211 1.363 . S
C1217 C1212 1.379 . S
C1217 N1215 1.356 . S
N1218 C1210 1.356 . S
N1218 H1224 0.984 . S
N1218 H1225 0.984 . S
N1219 C1212 1.356 . S
N1219 H1222 0.984 . S
N1219 H1223 0.985 . S
H1220 N1215 0.984 . S
H1221 N1215 0.985 . S
H1222 N1219 0.984 . S
H1223 N1219 0.985 . S
H1224 N1218 0.984 . S
H1225 N1218 0.984 . S
H1226 N1214 0.984 . S
H1227 N1214 0.985 . S
C1228 C1229 1.363 . S
C1228 C1234 1.379 . S
C1228 N1236 1.356 . S
C1229 C1228 1.363 . S
C1229 C1235 1.363 . S
C1230 C1231 1.363 . S
C1230 C1235 1.379 . S
C1230 N1237 1.356 . S
C1231 C1230 1.363 . S
C1231 C1234 1.363 . S
N1232 C1234 1.356 . S
N1232 H1244 0.984 . S
N1232 H1245 0.985 . S
N1233 C1235 1.356 . S
N1233 H1238 0.984 . S
N1233 H1239 0.985 . S
C1234 C1228 1.379 . S
C1234 C1231 1.363 . S
C1234 N1232 1.356 . S
C1235 C1229 1.363 . S
C1235 C1230 1.379 . S
C1235 N1233 1.356 . S
N1236 C1228 1.356 . S
N1236 H1242 0.984 . S
N1236 H1243 0.984 . S
N1237 C1230 1.356 . S
N1237 H1240 0.984 . S
N1237 H1241 0.985 . S
H1238 N1233 0.984 . S
H1239 N1233 0.985 . S
H1240 N1237 0.984 . S
H1241 N1237 0.985 . S
H1242 N1236 0.984 . S
H1243 N1236 0.984 . S
H1244 N1232 0.984 . S
H1245 N1232 0.985 . S
C1246 C1247 1.363 . S
C1246 C1252 1.379 . S
C1246 N1254 1.356 . S
C1247 C1246 1.363 . S
C1247 C1253 1.363 . S
C1248 C1249 1.363 . S
C1248 C1253 1.379 . S
C1248 N1255 1.356 . S
C1249 C1248 1.363 . S
C1249 C1252 1.363 . S
N1250 C1252 1.356 . S
N1250 H1262 0.984 . S
N1250 H1263 0.985 . S
N1251 C1253 1.356 . S
N1251 H1256 0.984 . S
N1251 H1257 0.985 . S
C1252 C1246 1.379 . S
C1252 C1249 1.363 . S
C1252 N1250 1.356 . S
C1253 C1247 1.363 . S
C1253 C1248 1.379 . S
C1253 N1251 1.356 . S
N1254 C1246 1.356 . S
N1254 H1260 0.984 . S
N1254 H1261 0.984 . S
N1255 C1248 1.356 . S
N1255 H1258 0.984 . S
N1255 H1259 0.985 . S
H1256 N1251 0.984 . S
H1257 N1251 0.985 . S
H1258 N1255 0.984 . S
H1259 N1255 0.985 . S
H1260 N1254 0.984 . S
H1261 N1254 0.984 . S
H1262 N1250 0.984 . S
H1263 N1250 0.985 . S
C545 C9 1.397 . S
C547 C5 1.369 . S
C563 C43 1.397 . S
C565 C39 1.369 . S
C581 C73 1.369 . S
C583 C77 1.397 . S
C599 C107 1.369 . S
C601 C111 1.397 . S
C617 C145 1.397 . S
C619 C141 1.369 . S
C635 C175 1.369 . S
C637 C179 1.397 . S
C653 C209 1.369 . S
C655 C213 1.397 . S
C671 C243 1.369 . S
C673 C247 1.397 . S
C689 C281 1.397 . S
C691 C277 1.369 . S
C707 C315 1.397 . S
C709 C311 1.369 . S
C725 C349 1.397 . S
C727 C345 1.369 . S
C743 C383 1.397 . S
C745 C379 1.369 . S
C761 C413 1.369 . S
C763 C417 1.397 . S
C779 C447 1.369 . S
C781 C451 1.397 . S
C797 C481 1.369 . S
C799 C485 1.397 . S
C815 C515 1.369 . S
C817 C519 1.397 . S
C833 C33 1.554 . S
C835 C543 1.554 . S
C851 C441 1.554 . S
C853 C67 1.554 . S
C869 C475 1.554 . S
C871 C101 1.554 . S
C887 C509 1.554 . S
C889 C135 1.554 . S
C905 C339 1.554 . S
C907 C169 1.554 . S
C923 C203 1.554 . S
C925 C373 1.554 . S
C941 C237 1.554 . S
C943 C407 1.554 . S
C959 C305 1.554 . S
C961 C271 1.554 . S
C977 C20 1.583 . S
C979 C156 1.583 . S
C995 C190 1.583 . S
C997 C54 1.583 . S
C1013 C88 1.583 . S
C1015 C224 1.583 . S
C1031 C258 1.583 . S
C1033 C122 1.583 . S
C1049 C428 1.583 . S
C1051 C292 1.583 . S
C1067 C326 1.583 . S
C1069 C462 1.583 . S
C1085 C360 1.583 . S
C1087 C496 1.583 . S
C1103 C394 1.583 . S
C1105 C530 1.583 . S
C1121 C2 1.738 . S
C1123 C172 1.738 . S
C1139 C36 1.738 . S
C1141 C206 1.738 . S
C1157 C240 1.738 . S
C1159 C70 1.738 . S
C1175 C104 1.738 . S
C1177 C138 1.738 . S
C1193 C444 1.738 . S
C1195 C274 1.738 . S
C1211 C308 1.738 . S
C1213 C478 1.738 . S
C1229 C512 1.738 . S
C1231 C342 1.738 . S
C1247 C410 1.738 . S
C1249 C376 1.738 . S
