# Generated by pormake.
# Topology umw, (4)-cn, num edge types: 1
# Building blocks:
#     Node 0, Type 0, BuildingBlock: QUQFOY_clean_sbu_1, # of connection points: 4
#     Node 1, Type 0, BuildingBlock: QUQFOY_clean_sbu_1, # of connection points: 4
#     Node 2, Type 0, BuildingBlock: QUQFOY_clean_sbu_1, # of connection points: 4
#     Node 3, Type 0, BuildingBlock: QUQFOY_clean_sbu_1, # of connection points: 4
#     Node 4, Type 0, BuildingBlock: QUQFOY_clean_sbu_1, # of connection points: 4
#     Node 5, Type 0, BuildingBlock: QUQFOY_clean_sbu_1, # of connection points: 4
#     Node 6, Type 0, BuildingBlock: QUQFOY_clean_sbu_1, # of connection points: 4
#     Node 7, Type 0, BuildingBlock: QUQFOY_clean_sbu_1, # of connection points: 4
#     Edge 8, Type (0, 0), BuildingBlock: XUDNAN_clean_linker_2, # of connection points: 2
#     Edge 9, Type (0, 0), BuildingBlock: XUDNAN_clean_linker_2, # of connection points: 2
#     Edge 10, Type (0, 0), BuildingBlock: XUDNAN_clean_linker_2, # of connection points: 2
#     Edge 11, Type (0, 0), BuildingBlock: XUDNAN_clean_linker_2, # of connection points: 2
#     Edge 12, Type (0, 0), BuildingBlock: XUDNAN_clean_linker_2, # of connection points: 2
#     Edge 13, Type (0, 0), BuildingBlock: XUDNAN_clean_linker_2, # of connection points: 2
#     Edge 14, Type (0, 0), BuildingBlock: XUDNAN_clean_linker_2, # of connection points: 2
#     Edge 15, Type (0, 0), BuildingBlock: XUDNAN_clean_linker_2, # of connection points: 2
#     Edge 16, Type (0, 0), BuildingBlock: XUDNAN_clean_linker_2, # of connection points: 2
#     Edge 17, Type (0, 0), BuildingBlock: XUDNAN_clean_linker_2, # of connection points: 2
#     Edge 18, Type (0, 0), BuildingBlock: XUDNAN_clean_linker_2, # of connection points: 2
#     Edge 19, Type (0, 0), BuildingBlock: XUDNAN_clean_linker_2, # of connection points: 2
#     Edge 20, Type (0, 0), BuildingBlock: XUDNAN_clean_linker_2, # of connection points: 2
#     Edge 21, Type (0, 0), BuildingBlock: XUDNAN_clean_linker_2, # of connection points: 2
#     Edge 22, Type (0, 0), BuildingBlock: XUDNAN_clean_linker_2, # of connection points: 2
#     Edge 23, Type (0, 0), BuildingBlock: XUDNAN_clean_linker_2, # of connection points: 2
# Relax obj value: 0.048
# Max RMSD: 0.094
# Mean RMSD: 0.094
data_MOF--net-umw--node1-QUQFOY_clean_sbu_1--edge1-XUDNAN_clean_linker_2
_symmetry_space_group_name_H-M    P1
_symmetry_Int_Tables_number       1
_symmetry_cell_setting            triclinic
loop_
_symmetry_equiv_pos_as_xyz
'x, y, z'
_cell_length_a     42.832366
_cell_length_b     42.827555
_cell_length_c     27.783417
_cell_angle_alpha  90.062921
_cell_angle_beta   89.953481
_cell_angle_gamma 90.041278
loop_
_atom_site_label
_atom_site_type_symbol
_atom_site_fract_x
_atom_site_fract_y
_atom_site_fract_z
_atom_type_partial_charge
O0 O 0.41878 0.19772 0.41523 0.0
Cd1 Cd 0.38951 0.17607 0.36688 0.0
Cd2 Cd 0.44946 0.18629 0.31595 0.0
O3 O 0.46198 0.21104 0.37683 0.0
O4 O 0.35425 0.16901 0.41255 0.0
O5 O 0.35026 0.20025 0.34999 0.0
C6 C 0.33824 0.18926 0.38908 0.0
C7 C 0.45752 0.20387 0.23717 0.0
C8 C 0.44529 0.21096 0.41469 0.0
C9 C 0.42591 0.12021 0.33207 0.0
O10 O 0.44847 0.13853 0.32272 0.0
O11 O 0.39948 0.13078 0.34525 0.0
O12 O 0.4805 0.19471 0.26362 0.0
O13 O 0.43007 0.20478 0.25656 0.0
O14 O 0.81751 0.42343 0.64798 0.0
Cd15 Cd 0.83223 0.39486 0.59322 0.0
Cd16 Cd 0.81983 0.45026 0.54316 0.0
O17 O 0.79571 0.46096 0.60564 0.0
O18 O 0.83045 0.35388 0.62667 0.0
O19 O 0.80115 0.36536 0.56347 0.0
C20 C 0.80824 0.34627 0.59774 0.0
C21 C 0.80094 0.46821 0.46893 0.0
C22 C 0.80103 0.44798 0.64592 0.0
C23 C 0.88706 0.42768 0.55446 0.0
O24 O 0.86806 0.44992 0.54657 0.0
O25 O 0.87718 0.40126 0.56874 0.0
O26 O 0.81101 0.48714 0.5014 0.0
O27 O 0.80039 0.4388 0.47904 0.0
O28 O 0.56729 0.809 0.91225 0.0
Cd29 Cd 0.60225 0.82662 0.86928 0.0
Cd30 Cd 0.5404 0.83618 0.81669 0.0
O31 O 0.52152 0.81559 0.87715 0.0
O32 O 0.6348 0.82705 0.92049 0.0
O33 O 0.63843 0.79708 0.85633 0.0
C34 C 0.6494 0.80548 0.89762 0.0
C35 C 0.52957 0.81686 0.73982 0.0
C36 C 0.53783 0.80593 0.91224 0.0
C37 C 0.58248 0.89173 0.83349 0.0
O38 O 0.55556 0.88181 0.82168 0.0
O39 O 0.60336 0.87321 0.84915 0.0
O40 O 0.50954 0.83373 0.76288 0.0
O41 O 0.55562 0.81034 0.76108 0.0
O42 O 0.19542 0.57227 0.15746 0.0
Cd43 Cd 0.18068 0.6085 0.11474 0.0
Cd44 Cd 0.17772 0.54767 0.05005 0.0
O45 O 0.19901 0.53037 0.11126 0.0
O46 O 0.17701 0.64003 0.16736 0.0
O47 O 0.21032 0.64529 0.10751 0.0
C48 C 0.19946 0.65542 0.14796 0.0
C49 C 0.19255 0.52509 0.97624 0.0
C50 C 0.20262 0.54379 0.1517 0.0
C51 C 0.11957 0.58784 0.06717 0.0
O52 O 0.13155 0.56205 0.05379 0.0
O53 O 0.1359 0.60892 0.08742 0.0
O54 O 0.17644 0.50992 1.00759 0.0
O55 O 0.20067 0.55334 0.98665 0.0
O56 O 0.41935 0.82149 0.2251 0.0
Cd57 Cd 0.39112 0.83588 0.28042 0.0
Cd58 Cd 0.44664 0.82358 0.32948 0.0
O59 O 0.45666 0.79901 0.26704 0.0
O60 O 0.34989 0.83369 0.24779 0.0
O61 O 0.36224 0.80445 0.31069 0.0
C62 C 0.3428 0.81133 0.27678 0.0
C63 C 0.46476 0.80508 0.4039 0.0
C64 C 0.44366 0.80464 0.22687 0.0
C65 C 0.42409 0.89079 0.31803 0.0
O66 O 0.44645 0.87181 0.32528 0.0
O67 O 0.39746 0.88085 0.30481 0.0
O68 O 0.48364 0.81471 0.37106 0.0
O69 O 0.4353 0.80473 0.39408 0.0
O70 O 0.19599 0.42019 0.4638 0.0
Cd71 Cd 0.17379 0.39352 0.51502 0.0
Cd72 Cd 0.18231 0.45259 0.56071 0.0
O73 O 0.20771 0.46449 0.50023 0.0
O74 O 0.1725 0.35389 0.47742 0.0
O75 O 0.19814 0.35846 0.54603 0.0
C76 C 0.19104 0.34192 0.50873 0.0
C77 C 0.19996 0.45979 0.63951 0.0
C78 C 0.2087 0.44696 0.46331 0.0
C79 C 0.11647 0.42954 0.54258 0.0
O80 O 0.13458 0.4521 0.5529 0.0
O81 O 0.12741 0.40306 0.53042 0.0
O82 O 0.19117 0.48312 0.61349 0.0
O83 O 0.2003 0.43243 0.61975 0.0
O84 O 0.57189 0.19646 0.71979 0.0
Cd85 Cd 0.60825 0.18197 0.76235 0.0
Cd86 Cd 0.54746 0.17861 0.82738 0.0
O87 O 0.53005 0.19989 0.76613 0.0
O88 O 0.63962 0.17848 0.70949 0.0
O89 O 0.6449 0.21183 0.76929 0.0
C90 C 0.65493 0.20105 0.72873 0.0
C91 C 0.52471 0.19334 0.90121 0.0
C92 C 0.54339 0.20353 0.72564 0.0
C93 C 0.58797 0.12066 0.80962 0.0
O94 O 0.56218 0.13251 0.8233 0.0
O95 O 0.60893 0.13713 0.78937 0.0
O96 O 0.50969 0.17711 0.86984 0.0
O97 O 0.55293 0.20158 0.89089 0.0
O98 O 0.80653 0.5706 0.96451 0.0
Cd99 Cd 0.82438 0.60131 0.01446 0.0
Cd100 Cd 0.83493 0.541 0.05682 0.0
O101 O 0.81402 0.52378 0.99542 0.0
O102 O 0.81714 0.64017 0.97679 0.0
O103 O 0.79476 0.63148 0.04712 0.0
C104 C 0.79802 0.64903 1.00971 0.0
C105 C 0.81448 0.53095 0.13303 0.0
C106 C 0.80399 0.54113 0.96177 0.0
C107 C 0.8908 0.58205 0.04099 0.0
O108 O 0.88095 0.55504 0.05242 0.0
O109 O 0.87192 0.60321 0.02743 0.0
O110 O 0.83074 0.51023 0.11036 0.0
O111 O 0.80923 0.55727 0.11169 0.0
H112 H 0.50563 0.21076 0.44719 0.0
H113 H 0.41124 0.23645 0.48716 0.0
H114 H 0.42827 0.2451 0.57084 0.0
H115 H 0.51962 0.16596 0.54424 0.0
H116 H 0.5601 0.17611 0.55275 0.0
H117 H 0.54283 0.17922 0.49406 0.0
H118 H 0.55888 0.23746 0.48924 0.0
H119 H 0.57671 0.23443 0.54782 0.0
H120 H 0.54754 0.26386 0.53671 0.0
H121 H 0.45266 0.24098 0.6519 0.0
H122 H 0.48362 0.22705 0.72376 0.0
H123 H 0.56224 0.20402 0.63159 0.0
C124 C 0.48897 0.21967 0.47312 0.0
C125 C 0.45726 0.22334 0.46071 0.0
C126 C 0.43574 0.23378 0.49596 0.0
C127 C 0.44519 0.2388 0.54357 0.0
C128 C 0.47629 0.2334 0.55538 0.0
C129 C 0.49802 0.2245 0.52105 0.0
C130 C 0.52896 0.21638 0.54423 0.0
C131 C 0.5384 0.18241 0.53317 0.0
C132 C 0.55453 0.23942 0.52857 0.0
C133 C 0.52074 0.22063 0.59687 0.0
C134 C 0.49042 0.23091 0.60257 0.0
C135 C 0.4767 0.23366 0.64795 0.0
C136 C 0.49439 0.22552 0.68856 0.0
C137 C 0.52542 0.21464 0.68345 0.0
C138 C 0.53876 0.21274 0.63692 0.0
H139 H 0.81409 0.42906 0.73758 0.0
H140 H 0.76457 0.50034 0.65708 0.0
H141 H 0.75237 0.52767 0.73313 0.0
H142 H 0.76377 0.43087 0.84808 0.0
H143 H 0.79708 0.42546 0.88678 0.0
H144 H 0.79681 0.40855 0.82732 0.0
H145 H 0.84879 0.43684 0.80765 0.0
H146 H 0.84918 0.45384 0.86677 0.0
H147 H 0.85113 0.47865 0.81447 0.0
H148 H 0.75258 0.55111 0.81526 0.0
H149 H 0.76587 0.56952 0.89676 0.0
H150 H 0.81534 0.48299 0.92414 0.0
C151 C 0.79992 0.44995 0.7359 0.0
C152 C 0.79016 0.46249 0.69131 0.0
C153 C 0.77217 0.49021 0.69078 0.0
C154 C 0.76501 0.50581 0.73384 0.0
C155 C 0.77579 0.49325 0.77705 0.0
C156 C 0.79271 0.46583 0.77841 0.0
C157 C 0.80464 0.45907 0.82865 0.0
C158 C 0.78967 0.42922 0.8489 0.0
C159 C 0.84055 0.457 0.82939 0.0
C160 C 0.79306 0.48774 0.85499 0.0
C161 C 0.77595 0.50686 0.82476 0.0
C162 C 0.76537 0.53606 0.83951 0.0
C163 C 0.77314 0.54635 0.88583 0.0
C164 C 0.79146 0.52756 0.91685 0.0
C165 C 0.80071 0.49752 0.90163 0.0
H166 H 0.42573 0.81969 0.13546 0.0
H167 H 0.49414 0.76572 0.21505 0.0
H168 H 0.52075 0.75257 0.13876 0.0
H169 H 0.4247 0.77026 0.02402 0.0
H170 H 0.42125 0.80412 0.98592 0.0
H171 H 0.40433 0.8044 0.04537 0.0
H172 H 0.43558 0.85449 0.06605 0.0
H173 H 0.45254 0.85435 1.00691 0.0
H174 H 0.47745 0.85446 0.05918 0.0
H175 H 0.54408 0.75195 0.05671 0.0
H176 H 0.56348 0.76513 0.97573 0.0
H177 H 0.47997 0.81959 0.94899 0.0
C178 C 0.44581 0.80437 0.13686 0.0
C179 C 0.45776 0.79358 0.18128 0.0
C180 C 0.48447 0.77413 0.18149 0.0
C181 C 0.49963 0.76641 0.13829 0.0
C182 C 0.48766 0.77814 0.09526 0.0
C183 C 0.46125 0.79661 0.09421 0.0
C184 C 0.45521 0.80929 0.04418 0.0
C185 C 0.42455 0.79623 0.02366 0.0
C186 C 0.45522 0.84526 0.04411 0.0
C187 C 0.48316 0.79626 0.01759 0.0
C188 C 0.50124 0.77784 0.04753 0.0
C189 C 0.52982 0.76576 0.03267 0.0
C190 C 0.54067 0.77345 0.98665 0.0
C191 C 0.52305 0.79315 0.95602 0.0
C192 C 0.49349 0.80384 0.97118 0.0
H193 H 0.20975 0.5071 0.43015 0.0
H194 H 0.23352 0.41202 0.39106 0.0
H195 H 0.24259 0.42858 0.30727 0.0
H196 H 0.16527 0.5216 0.33313 0.0
H197 H 0.17621 0.56184 0.32433 0.0
H198 H 0.179 0.54471 0.38312 0.0
H199 H 0.23755 0.55963 0.38781 0.0
H200 H 0.23485 0.57732 0.32909 0.0
H201 H 0.2637 0.5476 0.34042 0.0
H202 H 0.23898 0.45281 0.22597 0.0
H203 H 0.22539 0.48373 0.15392 0.0
H204 H 0.20391 0.56309 0.24551 0.0
C205 C 0.21831 0.49014 0.4044 0.0
C206 C 0.22129 0.45839 0.41709 0.0
C207 C 0.23134 0.43653 0.38206 0.0
C208 C 0.23661 0.44573 0.33438 0.0
C209 C 0.23187 0.47691 0.32232 0.0
C210 C 0.22338 0.49892 0.35645 0.0
C211 C 0.21586 0.52994 0.33305 0.0
C212 C 0.18209 0.54008 0.34406 0.0
C213 C 0.2394 0.55511 0.34851 0.0
C214 C 0.21994 0.52146 0.28049 0.0
C215 C 0.22967 0.49093 0.27502 0.0
C216 C 0.2321 0.477 0.22975 0.0
C217 C 0.22416 0.49467 0.18903 0.0
C218 C 0.21376 0.52589 0.19393 0.0
C219 C 0.21225 0.53946 0.24033 0.0
H220 H 0.29818 0.23265 0.34999 0.0
H221 H 0.31433 0.17705 0.47808 0.0
H222 H 0.27368 0.2066 0.52101 0.0
H223 H 0.28917 0.30297 0.40595 0.0
H224 H 0.25827 0.31768 0.36827 0.0
H225 H 0.28512 0.2892 0.34492 0.0
H226 H 0.23909 0.25251 0.32324 0.0
H227 H 0.21197 0.2811 0.34608 0.0
H228 H 0.21126 0.24176 0.36905 0.0
H229 H 0.23948 0.24886 0.55473 0.0
H230 H 0.20861 0.29647 0.57281 0.0
H231 H 0.21078 0.32148 0.42177 0.0
C232 C 0.29241 0.226 0.38651 0.0
C233 C 0.30947 0.20252 0.41056 0.0
C234 C 0.30152 0.19482 0.45868 0.0
C235 C 0.27845 0.21152 0.48352 0.0
C236 C 0.26297 0.23542 0.45948 0.0
C237 C 0.26903 0.24213 0.41166 0.0
C238 C 0.25039 0.27017 0.39512 0.0
C239 C 0.27203 0.29655 0.37756 0.0
C240 C 0.22677 0.26082 0.35606 0.0
C241 C 0.23407 0.27894 0.4416 0.0
C242 C 0.24164 0.25867 0.47841 0.0
C243 C 0.23248 0.26431 0.5259 0.0
C244 C 0.21512 0.29139 0.53595 0.0
C245 C 0.20672 0.31203 0.4985 0.0
C246 C 0.21596 0.30541 0.45077 0.0
H247 H 0.79109 0.32473 0.6854 0.0
H248 H 0.78034 0.30695 0.53273 0.0
H249 H 0.74412 0.26332 0.55107 0.0
H250 H 0.7835 0.24392 0.72961 0.0
H251 H 0.7606 0.25566 0.781 0.0
H252 H 0.7893 0.28191 0.75617 0.0
H253 H 0.74679 0.32442 0.74609 0.0
H254 H 0.71799 0.29834 0.77073 0.0
H255 H 0.71198 0.31554 0.71229 0.0
H256 H 0.70753 0.2235 0.58618 0.0
H257 H 0.66861 0.19442 0.63364 0.0
H258 H 0.69945 0.24184 0.76334 0.0
C259 C 0.7818 0.31101 0.65592 0.0
C260 C 0.789 0.3185 0.60768 0.0
C261 C 0.7754 0.30111 0.56988 0.0
C262 C 0.75494 0.27631 0.58002 0.0
C263 C 0.74797 0.26976 0.62808 0.0
C264 C 0.76071 0.28688 0.66539 0.0
C265 C 0.74657 0.27776 0.71341 0.0
C266 C 0.77148 0.26399 0.74703 0.0
C267 C 0.72984 0.30567 0.73699 0.0
C268 C 0.72357 0.25303 0.69731 0.0
C269 C 0.7253 0.24828 0.64812 0.0
C270 C 0.70605 0.22695 0.62471 0.0
C271 C 0.68406 0.21048 0.65209 0.0
C272 C 0.681 0.21585 0.70225 0.0
C273 C 0.70132 0.23717 0.72514 0.0
H274 H 0.77721 0.67172 0.92449 0.0
H275 H 0.77452 0.6887 0.07831 0.0
H276 H 0.74048 0.73468 0.06465 0.0
H277 H 0.77436 0.75295 0.8834 0.0
H278 H 0.74868 0.74395 0.83391 0.0
H279 H 0.77586 0.71502 0.85528 0.0
H280 H 0.73033 0.67604 0.86833 0.0
H281 H 0.70307 0.70476 0.8469 0.0
H282 H 0.69766 0.68737 0.90537 0.0
H283 H 0.70572 0.77751 0.03412 0.0
H284 H 0.66756 0.81017 0.99125 0.0
H285 H 0.68961 0.7624 0.85757 0.0
C286 C 0.76998 0.68554 0.95521 0.0
C287 C 0.77886 0.67718 1.00241 0.0
C288 C 0.76812 0.69503 0.04189 0.0
C289 C 0.74897 0.72119 0.0344 0.0
C290 C 0.74048 0.72872 0.98731 0.0
C291 C 0.75031 0.71116 0.94845 0.0
C292 C 0.73529 0.7221 0.90207 0.0
C293 C 0.76003 0.73423 0.86658 0.0
C294 C 0.71541 0.69602 0.87936 0.0
C295 C 0.71514 0.74843 0.92091 0.0
C296 C 0.71902 0.75227 0.96999 0.0
C297 C 0.70254 0.77475 0.99571 0.0
C298 C 0.68096 0.79326 0.9709 0.0
C299 C 0.67558 0.78884 0.92098 0.0
C300 C 0.69331 0.76642 0.89563 0.0
H301 H 0.23977 0.70015 0.11275 0.0
H302 H 0.19273 0.66957 0.24288 0.0
H303 H 0.22138 0.70909 0.28979 0.0
H304 H 0.31301 0.71348 0.16348 0.0
H305 H 0.32175 0.74812 0.12923 0.0
H306 H 0.29573 0.71913 0.10498 0.0
H307 H 0.25277 0.76113 0.09422 0.0
H308 H 0.27877 0.79033 0.1183 0.0
H309 H 0.24091 0.78439 0.14516 0.0
H310 H 0.26074 0.7464 0.32441 0.0
H311 H 0.3039 0.78331 0.34222 0.0
H312 H 0.3215 0.79333 0.18939 0.0
C313 C 0.23509 0.70221 0.15093 0.0
C314 C 0.21401 0.68179 0.1741 0.0
C315 C 0.20861 0.68509 0.22422 0.0
C316 C 0.22483 0.70744 0.25128 0.0
C317 C 0.24591 0.7268 0.2276 0.0
C318 C 0.25063 0.72487 0.17841 0.0
C319 C 0.27518 0.74801 0.16205 0.0
C320 C 0.30306 0.73117 0.13857 0.0
C321 C 0.26105 0.77242 0.12792 0.0
C322 C 0.28415 0.76249 0.20987 0.0
C323 C 0.26716 0.74981 0.24734 0.0
C324 C 0.27361 0.75718 0.2953 0.0
C325 C 0.29812 0.77804 0.30515 0.0
C326 C 0.31531 0.79166 0.26714 0.0
C327 C 0.30793 0.78403 0.21901 0.0
H328 H 0.38108 0.93876 0.31891 0.0
H329 H 0.48054 0.9196 0.32741 0.0
H330 H 0.49131 0.97596 0.3314 0.0
H331 H 0.38656 0.00717 0.24541 0.0
H332 H 0.35573 0.02789 0.27595 0.0
H333 H 0.35539 0.98585 0.27413 0.0
H334 H 0.35263 0.98398 0.36725 0.0
H335 H 0.35281 0.02603 0.36935 0.0
H336 H 0.38177 0.00423 0.4022 0.0
H337 H 0.49189 0.03379 0.33073 0.0
H338 H 0.48203 0.09038 0.33182 0.0
H339 H 0.38212 0.073 0.32734 0.0
C340 C 0.4051 0.94643 0.32179 0.0
C341 C 0.42996 0.92471 0.32273 0.0
C342 C 0.46107 0.93572 0.32674 0.0
C343 C 0.46747 0.96772 0.32888 0.0
C344 C 0.44253 0.98846 0.32744 0.0
C345 C 0.41194 0.97838 0.32451 0.0
C346 C 0.38954 0.0058 0.3242 0.0
C347 C 0.3707 0.00672 0.27712 0.0
C348 C 0.36792 0.00495 0.36839 0.0
C349 C 0.4124 0.03279 0.32708 0.0
C350 C 0.44282 0.02215 0.32853 0.0
C351 C 0.46817 0.04246 0.32995 0.0
C352 C 0.46229 0.07458 0.33034 0.0
C353 C 0.4313 0.08614 0.32979 0.0
C354 C 0.40605 0.06487 0.32812 0.0
H355 H 0.93507 0.38469 0.55515 0.0
H356 H 0.9158 0.48393 0.54212 0.0
H357 H 0.97213 0.49466 0.53721 0.0
H358 H 0.00332 0.39163 0.62807 0.0
H359 H 0.02412 0.36025 0.59902 0.0
H360 H 0.98209 0.3599 0.60067 0.0
H361 H 0.98039 0.35536 0.5077 0.0
H362 H 0.02244 0.35556 0.50577 0.0
H363 H 0.00064 0.38385 0.47154 0.0
H364 H 0.02996 0.49533 0.53806 0.0
H365 H 0.08659 0.48555 0.53869 0.0
H366 H 0.06931 0.38576 0.54755 0.0
C367 C 0.94271 0.40865 0.55102 0.0
C368 C 0.92096 0.43346 0.54913 0.0
C369 C 0.93193 0.46449 0.54354 0.0
C370 C 0.96391 0.47087 0.54083 0.0
C371 C 0.98469 0.44598 0.54327 0.0
C372 C 0.97464 0.41546 0.54772 0.0
C373 C 0.00208 0.39311 0.54917 0.0
C374 C 0.00295 0.37517 0.59709 0.0
C375 C 0.00134 0.37065 0.50597 0.0
C376 C 0.02904 0.41593 0.54535 0.0
C377 C 0.01838 0.4463 0.54229 0.0
C378 C 0.03866 0.47164 0.54004 0.0
C379 C 0.07079 0.46583 0.54064 0.0
C380 C 0.08238 0.43489 0.54301 0.0
C381 C 0.06114 0.40963 0.54529 0.0
H382 H 0.54102 0.94054 0.8287 0.0
H383 H 0.6401 0.91924 0.83095 0.0
H384 H 0.65223 0.97552 0.82634 0.0
H385 H 0.54484 0.00514 0.74644 0.0
H386 H 0.51546 0.0276 0.77745 0.0
H387 H 0.51461 0.9856 0.78012 0.0
H388 H 0.51529 0.98812 0.87332 0.0
H389 H 0.51629 0.03013 0.87093 0.0
H390 H 0.54608 0.00921 0.90336 0.0
H391 H 0.65362 0.03388 0.81902 0.0
H392 H 0.64418 0.09059 0.8125 0.0
H393 H 0.54425 0.07416 0.81934 0.0
C394 C 0.56527 0.9477 0.82796 0.0
C395 C 0.58963 0.92547 0.82992 0.0
C396 C 0.62106 0.93583 0.8295 0.0
C397 C 0.62819 0.96774 0.82685 0.0
C398 C 0.60364 0.98903 0.8252 0.0
C399 C 0.57282 0.97949 0.82602 0.0
C400 C 0.55085 0.00719 0.82479 0.0
C401 C 0.53023 0.00632 0.7795 0.0
C402 C 0.53096 0.00874 0.87085 0.0
C403 C 0.57414 0.03379 0.82274 0.0
C404 C 0.60446 0.02277 0.82274 0.0
C405 C 0.62999 0.04281 0.81935 0.0
C406 C 0.62439 0.07496 0.8156 0.0
C407 C 0.59351 0.08681 0.81578 0.0
C408 C 0.56813 0.06585 0.81981 0.0
H409 H 0.93968 0.54056 0.0452 0.0
H410 H 0.91835 0.63965 0.04212 0.0
H411 H 0.97459 0.65181 0.04677 0.0
H412 H 0.00355 0.54469 0.12794 0.0
H413 H 0.02636 0.51526 0.09765 0.0
H414 H 0.9844 0.51431 0.09405 0.0
H415 H 0.98771 0.51474 1.00091 0.0
H416 H 0.02971 0.51577 1.00423 0.0
H417 H 0.00907 0.54545 0.97112 0.0
H418 H 0.0328 0.6533 0.05524 0.0
H419 H 0.08944 0.64398 0.06335 0.0
H420 H 0.07324 0.54399 0.0568 0.0
C421 C 0.94683 0.56482 0.04558 0.0
C422 C 0.92459 0.58916 0.04349 0.0
C423 C 0.93494 0.6206 0.0436 0.0
C424 C 0.96683 0.62776 0.04629 0.0
C425 C 0.98812 0.60323 0.04829 0.0
C426 C 0.97861 0.57239 0.04759 0.0
C427 C 0.00632 0.55046 0.0496 0.0
C428 C 0.00508 0.52998 0.09502 0.0
C429 C 0.00831 0.53043 1.00373 0.0
C430 C 0.03287 0.5738 0.05206 0.0
C431 C 0.02182 0.6041 0.05149 0.0
C432 C 0.04177 0.62969 0.05529 0.0
C433 C 0.07388 0.62415 0.05998 0.0
C434 C 0.08576 0.59329 0.06034 0.0
C435 C 0.0649 0.56785 0.05594 0.0
H436 H 0.55252 0.20004 0.98986 0.0
H437 H 0.46299 0.2036 0.91742 0.0
H438 H 0.43673 0.21299 0.99527 0.0
H439 H 0.52567 0.15654 0.0884 0.0
H440 H 0.5501 0.17539 0.13253 0.0
H441 H 0.56242 0.17359 0.07068 0.0
H442 H 0.56814 0.23381 0.06906 0.0
H443 H 0.55579 0.23578 0.13103 0.0
H444 H 0.5354 0.25793 0.08578 0.0
H445 H 0.41968 0.21839 0.08118 0.0
H446 H 0.41266 0.2153 0.16924 0.0
H447 H 0.51286 0.20548 0.18691 0.0
C448 C 0.5275 0.20359 0.99039 0.0
C449 C 0.50979 0.20156 0.9476 0.0
C450 C 0.47697 0.20529 0.94979 0.0
C451 C 0.46187 0.21077 0.9938 0.0
C452 C 0.47987 0.21214 0.03551 0.0
C453 C 0.51194 0.20846 0.0343 0.0
C454 C 0.52536 0.20772 0.08481 0.0
C455 C 0.54185 0.17645 0.09467 0.0
C456 C 0.54748 0.23547 0.09315 0.0
C457 C 0.49579 0.21095 0.11452 0.0
C458 C 0.46988 0.21406 0.08535 0.0
C459 C 0.43983 0.21622 0.10441 0.0
C460 C 0.43607 0.2145 0.15455 0.0
C461 C 0.46217 0.21024 0.18512 0.0
C462 C 0.49243 0.209 0.16464 0.0
H463 H 0.81954 0.47687 0.18542 0.0
H464 H 0.78583 0.57227 0.19411 0.0
H465 H 0.77277 0.5643 0.2798 0.0
H466 H 0.76129 0.44261 0.26971 0.0
H467 H 0.78949 0.41606 0.29496 0.0
H468 H 0.79285 0.42811 0.23302 0.0
H469 H 0.84927 0.44734 0.249 0.0
H470 H 0.84609 0.4354 0.31083 0.0
H471 H 0.85625 0.47517 0.29654 0.0
H472 H 0.77015 0.54839 0.36645 0.0
H473 H 0.7764 0.52504 0.44716 0.0
H474 H 0.80928 0.4391 0.38207 0.0
C475 C 0.80882 0.49591 0.20505 0.0
C476 C 0.80366 0.52521 0.18296 0.0
C477 C 0.78988 0.54959 0.21011 0.0
C478 C 0.78233 0.54526 0.25883 0.0
C479 C 0.7883 0.51629 0.27974 0.0
C480 C 0.80092 0.49191 0.2536 0.0
C481 C 0.80683 0.46373 0.28534 0.0
C482 C 0.78639 0.43599 0.26983 0.0
C483 C 0.84167 0.45492 0.28543 0.0
C484 C 0.79661 0.47644 0.33378 0.0
C485 C 0.78581 0.50676 0.32967 0.0
C486 C 0.77785 0.52445 0.36998 0.0
C487 C 0.78152 0.51103 0.41565 0.0
C488 C 0.79275 0.48013 0.42068 0.0
C489 C 0.79973 0.46243 0.37913 0.0
H490 H 0.47575 0.82465 0.68749 0.0
H491 H 0.56957 0.78685 0.67819 0.0
H492 H 0.5609 0.77441 0.59241 0.0
H493 H 0.43881 0.76818 0.60376 0.0
H494 H 0.41343 0.79744 0.57853 0.0
H495 H 0.42587 0.80048 0.64032 0.0
H496 H 0.44753 0.85594 0.6237 0.0
H497 H 0.43518 0.85308 0.56199 0.0
H498 H 0.47542 0.86152 0.57582 0.0
H499 H 0.54455 0.77233 0.50578 0.0
H500 H 0.5209 0.77888 0.42529 0.0
H501 H 0.4367 0.8154 0.49109 0.0
C502 C 0.4943 0.81323 0.66768 0.0
C503 C 0.52336 0.80668 0.68966 0.0
C504 C 0.54708 0.79197 0.66228 0.0
C505 C 0.54235 0.78478 0.6135 0.0
C506 C 0.51364 0.79206 0.59274 0.0
C507 C 0.48988 0.80567 0.61907 0.0
C508 C 0.46185 0.81269 0.58754 0.0
C509 C 0.4333 0.79355 0.60349 0.0
C510 C 0.45459 0.84789 0.58725 0.0
C511 C 0.47389 0.80176 0.53905 0.0
C512 C 0.50379 0.78984 0.54291 0.0
C513 C 0.5209 0.78095 0.50247 0.0
C514 C 0.50732 0.78478 0.45693 0.0
C515 C 0.4768 0.79705 0.45215 0.0
C516 C 0.45969 0.80505 0.49385 0.0
H517 H 0.19911 0.55335 0.88802 0.0
H518 H 0.20245 0.46338 0.95919 0.0
H519 H 0.21109 0.43747 0.88085 0.0
H520 H 0.15469 0.52753 0.79015 0.0
H521 H 0.1734 0.552 0.74593 0.0
H522 H 0.17228 0.56401 0.80797 0.0
H523 H 0.23257 0.56909 0.80843 0.0
H524 H 0.23385 0.55708 0.74626 0.0
H525 H 0.25619 0.53619 0.79075 0.0
H526 H 0.21543 0.42085 0.79463 0.0
H527 H 0.21137 0.41436 0.70656 0.0
H528 H 0.20258 0.51479 0.69049 0.0
C529 C 0.2025 0.5283 0.8871 0.0
C530 C 0.20058 0.51036 0.92966 0.0
C531 C 0.20406 0.47753 0.927 0.0
C532 C 0.20911 0.46263 0.8827 0.0
C533 C 0.21033 0.48085 0.84122 0.0
C534 C 0.20695 0.51296 0.84293 0.0
C535 C 0.20589 0.52667 0.79264 0.0
C536 C 0.17471 0.54354 0.78366 0.0
C537 C 0.23379 0.54855 0.78402 0.0
C538 C 0.20855 0.49723 0.76249 0.0
C539 C 0.21167 0.47113 0.79123 0.0
C540 C 0.21327 0.44115 0.77173 0.0
C541 C 0.21099 0.4377 0.7216 0.0
C542 C 0.20674 0.46403 0.6915 0.0
C543 C 0.20607 0.49419 0.7124 0.0
loop_
_geom_bond_atom_site_label_1
_geom_bond_atom_site_label_2
_geom_bond_distance
_geom_bond_site_symmetry_2
_ccdc_geom_bond_type
O0 Cd1 2.223 . S
O0 C8 1.315 . S
Cd1 O0 2.223 . S
Cd1 O4 2.297 . S
Cd1 O5 2.439 . S
Cd1 O11 2.240 . S
Cd2 O3 2.240 . S
Cd2 O10 2.223 . S
Cd2 O12 2.297 . S
Cd2 O13 2.439 . S
O3 Cd2 2.240 . S
O3 C8 1.279 . S
O4 Cd1 2.297 . S
O4 C6 1.247 . S
O5 Cd1 2.439 . S
O5 C6 1.208 . S
C6 O4 1.247 . S
C6 O5 1.208 . S
C7 O12 1.247 . S
C7 O13 1.208 . S
C8 O0 1.315 . S
C8 O3 1.279 . S
C9 O10 1.315 . S
C9 O11 1.279 . S
O10 Cd2 2.223 . S
O10 C9 1.315 . S
O11 Cd1 2.240 . S
O11 C9 1.279 . S
O12 Cd2 2.297 . S
O12 C7 1.247 . S
O13 Cd2 2.439 . S
O13 C7 1.208 . S
O14 Cd15 2.223 . S
O14 C22 1.315 . S
Cd15 O14 2.223 . S
Cd15 O18 2.297 . S
Cd15 O19 2.439 . S
Cd15 O25 2.240 . S
Cd16 O17 2.240 . S
Cd16 O24 2.223 . S
Cd16 O26 2.297 . S
Cd16 O27 2.439 . S
O17 Cd16 2.240 . S
O17 C22 1.279 . S
O18 Cd15 2.297 . S
O18 C20 1.247 . S
O19 Cd15 2.439 . S
O19 C20 1.208 . S
C20 O18 1.247 . S
C20 O19 1.208 . S
C21 O26 1.247 . S
C21 O27 1.208 . S
C22 O14 1.315 . S
C22 O17 1.279 . S
C23 O24 1.315 . S
C23 O25 1.279 . S
O24 Cd16 2.223 . S
O24 C23 1.315 . S
O25 Cd15 2.240 . S
O25 C23 1.279 . S
O26 Cd16 2.297 . S
O26 C21 1.247 . S
O27 Cd16 2.439 . S
O27 C21 1.208 . S
O28 Cd29 2.223 . S
O28 C36 1.315 . S
Cd29 O28 2.223 . S
Cd29 O32 2.297 . S
Cd29 O33 2.439 . S
Cd29 O39 2.240 . S
Cd30 O31 2.240 . S
Cd30 O38 2.223 . S
Cd30 O40 2.297 . S
Cd30 O41 2.439 . S
O31 Cd30 2.240 . S
O31 C36 1.279 . S
O32 Cd29 2.297 . S
O32 C34 1.247 . S
O33 Cd29 2.439 . S
O33 C34 1.208 . S
C34 O32 1.247 . S
C34 O33 1.208 . S
C35 O40 1.247 . S
C35 O41 1.208 . S
C36 O28 1.315 . S
C36 O31 1.279 . S
C37 O38 1.315 . S
C37 O39 1.279 . S
O38 Cd30 2.223 . S
O38 C37 1.315 . S
O39 Cd29 2.240 . S
O39 C37 1.279 . S
O40 Cd30 2.297 . S
O40 C35 1.247 . S
O41 Cd30 2.439 . S
O41 C35 1.208 . S
O42 Cd43 2.223 . S
O42 C50 1.315 . S
Cd43 O42 2.223 . S
Cd43 O46 2.297 . S
Cd43 O47 2.439 . S
Cd43 O53 2.240 . S
Cd44 O45 2.240 . S
Cd44 O52 2.223 . S
Cd44 O54 2.297 1_554 S
Cd44 O55 2.439 1_554 S
O45 Cd44 2.240 . S
O45 C50 1.279 . S
O46 Cd43 2.297 . S
O46 C48 1.247 . S
O47 Cd43 2.439 . S
O47 C48 1.208 . S
C48 O46 1.247 . S
C48 O47 1.208 . S
C49 O54 1.247 . S
C49 O55 1.208 . S
C50 O42 1.315 . S
C50 O45 1.279 . S
C51 O52 1.315 . S
C51 O53 1.279 . S
O52 Cd44 2.223 . S
O52 C51 1.315 . S
O53 Cd43 2.240 . S
O53 C51 1.279 . S
O54 Cd44 2.297 1_556 S
O54 C49 1.247 . S
O55 Cd44 2.439 1_556 S
O55 C49 1.208 . S
O56 Cd57 2.223 . S
O56 C64 1.315 . S
Cd57 O56 2.223 . S
Cd57 O60 2.297 . S
Cd57 O61 2.439 . S
Cd57 O67 2.240 . S
Cd58 O59 2.240 . S
Cd58 O66 2.223 . S
Cd58 O68 2.297 . S
Cd58 O69 2.439 . S
O59 Cd58 2.240 . S
O59 C64 1.279 . S
O60 Cd57 2.297 . S
O60 C62 1.247 . S
O61 Cd57 2.439 . S
O61 C62 1.208 . S
C62 O60 1.247 . S
C62 O61 1.208 . S
C63 O68 1.247 . S
C63 O69 1.208 . S
C64 O56 1.315 . S
C64 O59 1.279 . S
C65 O66 1.315 . S
C65 O67 1.279 . S
O66 Cd58 2.223 . S
O66 C65 1.315 . S
O67 Cd57 2.240 . S
O67 C65 1.279 . S
O68 Cd58 2.297 . S
O68 C63 1.247 . S
O69 Cd58 2.439 . S
O69 C63 1.208 . S
O70 Cd71 2.223 . S
O70 C78 1.315 . S
Cd71 O70 2.223 . S
Cd71 O74 2.297 . S
Cd71 O75 2.439 . S
Cd71 O81 2.240 . S
Cd72 O73 2.240 . S
Cd72 O80 2.223 . S
Cd72 O82 2.297 . S
Cd72 O83 2.439 . S
O73 Cd72 2.240 . S
O73 C78 1.279 . S
O74 Cd71 2.297 . S
O74 C76 1.247 . S
O75 Cd71 2.439 . S
O75 C76 1.208 . S
C76 O74 1.247 . S
C76 O75 1.208 . S
C77 O82 1.247 . S
C77 O83 1.208 . S
C78 O70 1.315 . S
C78 O73 1.279 . S
C79 O80 1.315 . S
C79 O81 1.279 . S
O80 Cd72 2.223 . S
O80 C79 1.315 . S
O81 Cd71 2.240 . S
O81 C79 1.279 . S
O82 Cd72 2.297 . S
O82 C77 1.247 . S
O83 Cd72 2.439 . S
O83 C77 1.208 . S
O84 Cd85 2.223 . S
O84 C92 1.315 . S
Cd85 O84 2.223 . S
Cd85 O88 2.297 . S
Cd85 O89 2.439 . S
Cd85 O95 2.240 . S
Cd86 O87 2.240 . S
Cd86 O94 2.223 . S
Cd86 O96 2.297 . S
Cd86 O97 2.439 . S
O87 Cd86 2.240 . S
O87 C92 1.279 . S
O88 Cd85 2.297 . S
O88 C90 1.247 . S
O89 Cd85 2.439 . S
O89 C90 1.208 . S
C90 O88 1.247 . S
C90 O89 1.208 . S
C91 O96 1.247 . S
C91 O97 1.208 . S
C92 O84 1.315 . S
C92 O87 1.279 . S
C93 O94 1.315 . S
C93 O95 1.279 . S
O94 Cd86 2.223 . S
O94 C93 1.315 . S
O95 Cd85 2.240 . S
O95 C93 1.279 . S
O96 Cd86 2.297 . S
O96 C91 1.247 . S
O97 Cd86 2.439 . S
O97 C91 1.208 . S
O98 Cd99 2.223 . S
O98 C106 1.315 . S
Cd99 O98 2.223 . S
Cd99 O102 2.297 . S
Cd99 O103 2.439 1_556 S
Cd99 O109 2.240 1_556 S
Cd100 O101 2.240 1_554 S
Cd100 O108 2.223 . S
Cd100 O110 2.297 . S
Cd100 O111 2.439 . S
O101 Cd100 2.240 1_556 S
O101 C106 1.279 . S
O102 Cd99 2.297 . S
O102 C104 1.247 . S
O103 Cd99 2.439 1_554 S
O103 C104 1.208 1_554 S
C104 O102 1.247 . S
C104 O103 1.208 1_556 S
C105 O110 1.247 . S
C105 O111 1.208 . S
C106 O98 1.315 . S
C106 O101 1.279 . S
C107 O108 1.315 . S
C107 O109 1.279 . S
O108 Cd100 2.223 . S
O108 C107 1.315 . S
O109 Cd99 2.240 1_554 S
O109 C107 1.279 . S
O110 Cd100 2.297 . S
O110 C105 1.247 . S
O111 Cd100 2.439 . S
O111 C105 1.208 . S
H112 C124 0.930 . S
H113 C126 0.930 . S
H114 C127 0.930 . S
H115 C131 0.959 . S
H116 C131 0.959 . S
H117 C131 0.961 . S
H118 C132 0.960 . S
H119 C132 0.961 . S
H120 C132 0.959 . S
H121 C135 0.929 . S
H122 C136 0.931 . S
H123 C138 0.930 . S
C124 H112 0.930 . S
C124 C125 1.399 . S
C124 C129 1.399 . S
C125 C124 1.399 . S
C125 C126 1.376 . S
C126 H113 0.930 . S
C126 C125 1.376 . S
C126 C127 1.388 . S
C127 H114 0.930 . S
C127 C126 1.388 . S
C127 C128 1.390 . S
C128 C127 1.390 . S
C128 C129 1.394 . S
C128 C134 1.465 . S
C129 C124 1.399 . S
C129 C128 1.394 . S
C129 C130 1.516 . S
C130 C129 1.516 . S
C130 C131 1.502 . S
C130 C132 1.561 . S
C130 C133 1.526 . S
C131 H115 0.959 . S
C131 H116 0.959 . S
C131 H117 0.961 . S
C131 C130 1.502 . S
C132 H118 0.960 . S
C132 H119 0.961 . S
C132 H120 0.959 . S
C132 C130 1.561 . S
C133 C130 1.526 . S
C133 C134 1.396 . S
C133 C138 1.390 . S
C134 C128 1.465 . S
C134 C133 1.396 . S
C134 C135 1.399 . S
C135 H121 0.929 . S
C135 C134 1.399 . S
C135 C136 1.385 . S
C136 H122 0.931 . S
C136 C135 1.385 . S
C136 C137 1.389 . S
C137 C136 1.389 . S
C137 C138 1.387 . S
C138 H123 0.930 . S
C138 C133 1.390 . S
C138 C137 1.387 . S
H139 C151 0.930 . S
H140 C153 0.930 . S
H141 C154 0.930 . S
H142 C158 0.959 . S
H143 C158 0.959 . S
H144 C158 0.961 . S
H145 C159 0.960 . S
H146 C159 0.961 . S
H147 C159 0.959 . S
H148 C162 0.929 . S
H149 C163 0.931 . S
H150 C165 0.930 . S
C151 H139 0.930 . S
C151 C152 1.399 . S
C151 C156 1.399 . S
C152 C151 1.399 . S
C152 C153 1.376 . S
C153 H140 0.930 . S
C153 C152 1.376 . S
C153 C154 1.388 . S
C154 H141 0.930 . S
C154 C153 1.388 . S
C154 C155 1.390 . S
C155 C154 1.390 . S
C155 C156 1.394 . S
C155 C161 1.465 . S
C156 C151 1.399 . S
C156 C155 1.394 . S
C156 C157 1.516 . S
C157 C156 1.516 . S
C157 C158 1.502 . S
C157 C159 1.561 . S
C157 C160 1.526 . S
C158 H142 0.959 . S
C158 H143 0.959 . S
C158 H144 0.961 . S
C158 C157 1.502 . S
C159 H145 0.960 . S
C159 H146 0.961 . S
C159 H147 0.959 . S
C159 C157 1.561 . S
C160 C157 1.526 . S
C160 C161 1.396 . S
C160 C165 1.390 . S
C161 C155 1.465 . S
C161 C160 1.396 . S
C161 C162 1.399 . S
C162 H148 0.929 . S
C162 C161 1.399 . S
C162 C163 1.385 . S
C163 H149 0.931 . S
C163 C162 1.385 . S
C163 C164 1.389 . S
C164 C163 1.389 . S
C164 C165 1.387 . S
C165 H150 0.930 . S
C165 C160 1.390 . S
C165 C164 1.387 . S
H166 C178 0.930 . S
H167 C180 0.930 . S
H168 C181 0.930 . S
H169 C185 0.959 . S
H170 C185 0.959 . S
H171 C185 0.961 . S
H172 C186 0.960 . S
H173 C186 0.961 . S
H174 C186 0.959 . S
H175 C189 0.929 . S
H176 C190 0.931 . S
H177 C192 0.930 . S
C178 H166 0.930 . S
C178 C179 1.399 . S
C178 C183 1.399 . S
C179 C178 1.399 . S
C179 C180 1.376 . S
C180 H167 0.930 . S
C180 C179 1.376 . S
C180 C181 1.388 . S
C181 H168 0.930 . S
C181 C180 1.388 . S
C181 C182 1.390 . S
C182 C181 1.390 . S
C182 C183 1.394 . S
C182 C188 1.465 . S
C183 C178 1.399 . S
C183 C182 1.394 . S
C183 C184 1.516 . S
C184 C183 1.516 . S
C184 C185 1.502 . S
C184 C186 1.561 . S
C184 C187 1.526 . S
C185 H169 0.959 . S
C185 H170 0.959 . S
C185 H171 0.961 . S
C185 C184 1.502 . S
C186 H172 0.960 . S
C186 H173 0.961 . S
C186 H174 0.959 . S
C186 C184 1.561 . S
C187 C184 1.526 . S
C187 C188 1.396 . S
C187 C192 1.390 1_554 S
C188 C182 1.465 . S
C188 C187 1.396 . S
C188 C189 1.399 . S
C189 H175 0.929 . S
C189 C188 1.399 . S
C189 C190 1.385 1_554 S
C190 H176 0.931 . S
C190 C189 1.385 1_556 S
C190 C191 1.389 . S
C191 C190 1.389 . S
C191 C192 1.387 . S
C192 H177 0.930 . S
C192 C187 1.390 1_556 S
C192 C191 1.387 . S
H193 C205 0.930 . S
H194 C207 0.930 . S
H195 C208 0.930 . S
H196 C212 0.959 . S
H197 C212 0.959 . S
H198 C212 0.961 . S
H199 C213 0.960 . S
H200 C213 0.961 . S
H201 C213 0.959 . S
H202 C216 0.929 . S
H203 C217 0.931 . S
H204 C219 0.930 . S
C205 H193 0.930 . S
C205 C206 1.399 . S
C205 C210 1.399 . S
C206 C205 1.399 . S
C206 C207 1.376 . S
C207 H194 0.930 . S
C207 C206 1.376 . S
C207 C208 1.388 . S
C208 H195 0.930 . S
C208 C207 1.388 . S
C208 C209 1.390 . S
C209 C208 1.390 . S
C209 C210 1.394 . S
C209 C215 1.465 . S
C210 C205 1.399 . S
C210 C209 1.394 . S
C210 C211 1.516 . S
C211 C210 1.516 . S
C211 C212 1.502 . S
C211 C213 1.561 . S
C211 C214 1.526 . S
C212 H196 0.959 . S
C212 H197 0.959 . S
C212 H198 0.961 . S
C212 C211 1.502 . S
C213 H199 0.960 . S
C213 H200 0.961 . S
C213 H201 0.959 . S
C213 C211 1.561 . S
C214 C211 1.526 . S
C214 C215 1.396 . S
C214 C219 1.390 . S
C215 C209 1.465 . S
C215 C214 1.396 . S
C215 C216 1.399 . S
C216 H202 0.929 . S
C216 C215 1.399 . S
C216 C217 1.385 . S
C217 H203 0.931 . S
C217 C216 1.385 . S
C217 C218 1.389 . S
C218 C217 1.389 . S
C218 C219 1.387 . S
C219 H204 0.930 . S
C219 C214 1.390 . S
C219 C218 1.387 . S
H220 C232 0.930 . S
H221 C234 0.930 . S
H222 C235 0.930 . S
H223 C239 0.959 . S
H224 C239 0.959 . S
H225 C239 0.961 . S
H226 C240 0.960 . S
H227 C240 0.961 . S
H228 C240 0.959 . S
H229 C243 0.929 . S
H230 C244 0.931 . S
H231 C246 0.930 . S
C232 H220 0.930 . S
C232 C233 1.399 . S
C232 C237 1.399 . S
C233 C232 1.399 . S
C233 C234 1.376 . S
C234 H221 0.930 . S
C234 C233 1.376 . S
C234 C235 1.388 . S
C235 H222 0.930 . S
C235 C234 1.388 . S
C235 C236 1.390 . S
C236 C235 1.390 . S
C236 C237 1.394 . S
C236 C242 1.465 . S
C237 C232 1.399 . S
C237 C236 1.394 . S
C237 C238 1.516 . S
C238 C237 1.516 . S
C238 C239 1.502 . S
C238 C240 1.561 . S
C238 C241 1.526 . S
C239 H223 0.959 . S
C239 H224 0.959 . S
C239 H225 0.961 . S
C239 C238 1.502 . S
C240 H226 0.960 . S
C240 H227 0.961 . S
C240 H228 0.959 . S
C240 C238 1.561 . S
C241 C238 1.526 . S
C241 C242 1.396 . S
C241 C246 1.390 . S
C242 C236 1.465 . S
C242 C241 1.396 . S
C242 C243 1.399 . S
C243 H229 0.929 . S
C243 C242 1.399 . S
C243 C244 1.385 . S
C244 H230 0.931 . S
C244 C243 1.385 . S
C244 C245 1.389 . S
C245 C244 1.389 . S
C245 C246 1.387 . S
C246 H231 0.930 . S
C246 C241 1.390 . S
C246 C245 1.387 . S
H247 C259 0.930 . S
H248 C261 0.930 . S
H249 C262 0.930 . S
H250 C266 0.959 . S
H251 C266 0.959 . S
H252 C266 0.961 . S
H253 C267 0.960 . S
H254 C267 0.961 . S
H255 C267 0.959 . S
H256 C270 0.929 . S
H257 C271 0.931 . S
H258 C273 0.930 . S
C259 H247 0.930 . S
C259 C260 1.399 . S
C259 C264 1.399 . S
C260 C259 1.399 . S
C260 C261 1.376 . S
C261 H248 0.930 . S
C261 C260 1.376 . S
C261 C262 1.388 . S
C262 H249 0.930 . S
C262 C261 1.388 . S
C262 C263 1.390 . S
C263 C262 1.390 . S
C263 C264 1.394 . S
C263 C269 1.465 . S
C264 C259 1.399 . S
C264 C263 1.394 . S
C264 C265 1.516 . S
C265 C264 1.516 . S
C265 C266 1.502 . S
C265 C267 1.561 . S
C265 C268 1.526 . S
C266 H250 0.959 . S
C266 H251 0.959 . S
C266 H252 0.961 . S
C266 C265 1.502 . S
C267 H253 0.960 . S
C267 H254 0.961 . S
C267 H255 0.959 . S
C267 C265 1.561 . S
C268 C265 1.526 . S
C268 C269 1.396 . S
C268 C273 1.390 . S
C269 C263 1.465 . S
C269 C268 1.396 . S
C269 C270 1.399 . S
C270 H256 0.929 . S
C270 C269 1.399 . S
C270 C271 1.385 . S
C271 H257 0.931 . S
C271 C270 1.385 . S
C271 C272 1.389 . S
C272 C271 1.389 . S
C272 C273 1.387 . S
C273 H258 0.930 . S
C273 C268 1.390 . S
C273 C272 1.387 . S
H274 C286 0.930 . S
H275 C288 0.930 . S
H276 C289 0.930 1_554 S
H277 C293 0.959 . S
H278 C293 0.959 . S
H279 C293 0.961 . S
H280 C294 0.960 . S
H281 C294 0.961 . S
H282 C294 0.959 . S
H283 C297 0.929 . S
H284 C298 0.931 . S
H285 C300 0.930 . S
C286 H274 0.930 . S
C286 C287 1.399 . S
C286 C291 1.399 . S
C287 C286 1.399 . S
C287 C288 1.376 1_556 S
C288 H275 0.930 . S
C288 C287 1.376 1_554 S
C288 C289 1.388 1_554 S
C289 H276 0.930 1_556 S
C289 C288 1.388 1_556 S
C289 C290 1.390 . S
C290 C289 1.390 . S
C290 C291 1.394 . S
C290 C296 1.465 . S
C291 C286 1.399 . S
C291 C290 1.394 . S
C291 C292 1.516 . S
C292 C291 1.516 . S
C292 C293 1.502 . S
C292 C294 1.561 . S
C292 C295 1.526 . S
C293 H277 0.959 . S
C293 H278 0.959 . S
C293 H279 0.961 . S
C293 C292 1.502 . S
C294 H280 0.960 . S
C294 H281 0.961 . S
C294 H282 0.959 . S
C294 C292 1.561 . S
C295 C292 1.526 . S
C295 C296 1.396 . S
C295 C300 1.390 . S
C296 C290 1.465 . S
C296 C295 1.396 . S
C296 C297 1.399 . S
C297 H283 0.929 . S
C297 C296 1.399 . S
C297 C298 1.385 . S
C298 H284 0.931 . S
C298 C297 1.385 . S
C298 C299 1.389 . S
C299 C298 1.389 . S
C299 C300 1.387 . S
C300 H285 0.930 . S
C300 C295 1.390 . S
C300 C299 1.387 . S
H301 C313 0.930 . S
H302 C315 0.930 . S
H303 C316 0.930 . S
H304 C320 0.959 . S
H305 C320 0.959 . S
H306 C320 0.961 . S
H307 C321 0.960 . S
H308 C321 0.961 . S
H309 C321 0.959 . S
H310 C324 0.929 . S
H311 C325 0.931 . S
H312 C327 0.930 . S
C313 H301 0.930 . S
C313 C314 1.399 . S
C313 C318 1.399 . S
C314 C313 1.399 . S
C314 C315 1.376 . S
C315 H302 0.930 . S
C315 C314 1.376 . S
C315 C316 1.388 . S
C316 H303 0.930 . S
C316 C315 1.388 . S
C316 C317 1.390 . S
C317 C316 1.390 . S
C317 C318 1.394 . S
C317 C323 1.465 . S
C318 C313 1.399 . S
C318 C317 1.394 . S
C318 C319 1.516 . S
C319 C318 1.516 . S
C319 C320 1.502 . S
C319 C321 1.561 . S
C319 C322 1.526 . S
C320 H304 0.959 . S
C320 H305 0.959 . S
C320 H306 0.961 . S
C320 C319 1.502 . S
C321 H307 0.960 . S
C321 H308 0.961 . S
C321 H309 0.959 . S
C321 C319 1.561 . S
C322 C319 1.526 . S
C322 C323 1.396 . S
C322 C327 1.390 . S
C323 C317 1.465 . S
C323 C322 1.396 . S
C323 C324 1.399 . S
C324 H310 0.929 . S
C324 C323 1.399 . S
C324 C325 1.385 . S
C325 H311 0.931 . S
C325 C324 1.385 . S
C325 C326 1.389 . S
C326 C325 1.389 . S
C326 C327 1.387 . S
C327 H312 0.930 . S
C327 C322 1.390 . S
C327 C326 1.387 . S
H328 C340 0.930 . S
H329 C342 0.930 . S
H330 C343 0.930 . S
H331 C347 0.959 . S
H332 C347 0.959 . S
H333 C347 0.961 1_565 S
H334 C348 0.960 1_565 S
H335 C348 0.961 . S
H336 C348 0.959 . S
H337 C351 0.929 . S
H338 C352 0.931 . S
H339 C354 0.930 . S
C340 H328 0.930 . S
C340 C341 1.399 . S
C340 C345 1.399 . S
C341 C340 1.399 . S
C341 C342 1.376 . S
C342 H329 0.930 . S
C342 C341 1.376 . S
C342 C343 1.388 . S
C343 H330 0.930 . S
C343 C342 1.388 . S
C343 C344 1.390 . S
C344 C343 1.390 . S
C344 C345 1.394 . S
C344 C350 1.465 1_565 S
C345 C340 1.399 . S
C345 C344 1.394 . S
C345 C346 1.516 1_565 S
C346 C345 1.516 1_545 S
C346 C347 1.502 . S
C346 C348 1.561 . S
C346 C349 1.526 . S
C347 H331 0.959 . S
C347 H332 0.959 . S
C347 H333 0.961 1_545 S
C347 C346 1.502 . S
C348 H334 0.960 1_545 S
C348 H335 0.961 . S
C348 H336 0.959 . S
C348 C346 1.561 . S
C349 C346 1.526 . S
C349 C350 1.396 . S
C349 C354 1.390 . S
C350 C344 1.465 1_545 S
C350 C349 1.396 . S
C350 C351 1.399 . S
C351 H337 0.929 . S
C351 C350 1.399 . S
C351 C352 1.385 . S
C352 H338 0.931 . S
C352 C351 1.385 . S
C352 C353 1.389 . S
C353 C352 1.389 . S
C353 C354 1.387 . S
C354 H339 0.930 . S
C354 C349 1.390 . S
C354 C353 1.387 . S
H355 C367 0.930 . S
H356 C369 0.930 . S
H357 C370 0.930 . S
H358 C374 0.959 . S
H359 C374 0.959 . S
H360 C374 0.961 1_655 S
H361 C375 0.960 . S
H362 C375 0.961 1_455 S
H363 C375 0.959 . S
H364 C378 0.929 . S
H365 C379 0.931 . S
H366 C381 0.930 . S
C367 H355 0.930 . S
C367 C368 1.399 . S
C367 C372 1.399 . S
C368 C367 1.399 . S
C368 C369 1.376 . S
C369 H356 0.930 . S
C369 C368 1.376 . S
C369 C370 1.388 . S
C370 H357 0.930 . S
C370 C369 1.388 . S
C370 C371 1.390 . S
C371 C370 1.390 . S
C371 C372 1.394 . S
C371 C377 1.465 1_655 S
C372 C367 1.399 . S
C372 C371 1.394 . S
C372 C373 1.516 1_655 S
C373 C372 1.516 1_455 S
C373 C374 1.502 . S
C373 C375 1.561 1_455 S
C373 C376 1.526 . S
C374 H358 0.959 . S
C374 H359 0.959 . S
C374 H360 0.961 1_455 S
C374 C373 1.502 . S
C375 H361 0.960 . S
C375 H362 0.961 1_655 S
C375 H363 0.959 . S
C375 C373 1.561 1_655 S
C376 C373 1.526 . S
C376 C377 1.396 . S
C376 C381 1.390 . S
C377 C371 1.465 1_455 S
C377 C376 1.396 . S
C377 C378 1.399 . S
C378 H364 0.929 . S
C378 C377 1.399 . S
C378 C379 1.385 . S
C379 H365 0.931 . S
C379 C378 1.385 . S
C379 C380 1.389 . S
C380 C379 1.389 . S
C380 C381 1.387 . S
C381 H366 0.930 . S
C381 C376 1.390 . S
C381 C380 1.387 . S
H382 C394 0.930 . S
H383 C396 0.930 . S
H384 C397 0.930 . S
H385 C401 0.959 . S
H386 C401 0.959 . S
H387 C401 0.961 1_565 S
H388 C402 0.960 1_565 S
H389 C402 0.961 . S
H390 C402 0.959 . S
H391 C405 0.929 . S
H392 C406 0.931 . S
H393 C408 0.930 . S
C394 H382 0.930 . S
C394 C395 1.399 . S
C394 C399 1.399 . S
C395 C394 1.399 . S
C395 C396 1.376 . S
C396 H383 0.930 . S
C396 C395 1.376 . S
C396 C397 1.388 . S
C397 H384 0.930 . S
C397 C396 1.388 . S
C397 C398 1.390 . S
C398 C397 1.390 . S
C398 C399 1.394 . S
C398 C404 1.465 1_565 S
C399 C394 1.399 . S
C399 C398 1.394 . S
C399 C400 1.516 1_565 S
C400 C399 1.516 1_545 S
C400 C401 1.502 . S
C400 C402 1.561 . S
C400 C403 1.526 . S
C401 H385 0.959 . S
C401 H386 0.959 . S
C401 H387 0.961 1_545 S
C401 C400 1.502 . S
C402 H388 0.960 1_545 S
C402 H389 0.961 . S
C402 H390 0.959 . S
C402 C400 1.561 . S
C403 C400 1.526 . S
C403 C404 1.396 . S
C403 C408 1.390 . S
C404 C398 1.465 1_545 S
C404 C403 1.396 . S
C404 C405 1.399 . S
C405 H391 0.929 . S
C405 C404 1.399 . S
C405 C406 1.385 . S
C406 H392 0.931 . S
C406 C405 1.385 . S
C406 C407 1.389 . S
C407 C406 1.389 . S
C407 C408 1.387 . S
C408 H393 0.930 . S
C408 C403 1.390 . S
C408 C407 1.387 . S
H409 C421 0.930 . S
H410 C423 0.930 . S
H411 C424 0.930 . S
H412 C428 0.959 . S
H413 C428 0.959 1_455 S
H414 C428 0.961 . S
H415 C429 0.960 1_655 S
H416 C429 0.961 . S
H417 C429 0.959 1_556 S
H418 C432 0.929 . S
H419 C433 0.931 . S
H420 C435 0.930 . S
C421 H409 0.930 . S
C421 C422 1.399 . S
C421 C426 1.399 . S
C422 C421 1.399 . S
C422 C423 1.376 . S
C423 H410 0.930 . S
C423 C422 1.376 . S
C423 C424 1.388 . S
C424 H411 0.930 . S
C424 C423 1.388 . S
C424 C425 1.390 . S
C425 C424 1.390 . S
C425 C426 1.394 . S
C425 C431 1.465 1_655 S
C426 C421 1.399 . S
C426 C425 1.394 . S
C426 C427 1.518 . S
C427 C426 1.518 . S
C427 C428 1.502 . S
C427 C429 1.561 1_655 S
C427 C430 1.524 1_655 S
C428 H412 0.959 . S
C428 H413 0.959 1_655 S
C428 H414 0.961 . S
C428 C427 1.502 . S
C429 H415 0.960 1_455 S
C429 H416 0.961 . S
C429 H417 0.959 1_554 S
C429 C427 1.561 1_455 S
C430 C427 1.524 1_455 S
C430 C431 1.396 . S
C430 C435 1.390 . S
C431 C425 1.465 1_455 S
C431 C430 1.396 . S
C431 C432 1.399 . S
C432 H418 0.929 . S
C432 C431 1.399 . S
C432 C433 1.385 . S
C433 H419 0.931 . S
C433 C432 1.385 . S
C433 C434 1.389 . S
C434 C433 1.389 . S
C434 C435 1.387 . S
C435 H420 0.930 . S
C435 C430 1.390 . S
C435 C434 1.387 . S
H436 C448 0.930 . S
H437 C450 0.930 . S
H438 C451 0.930 . S
H439 C455 0.959 . S
H440 C455 0.959 . S
H441 C455 0.961 . S
H442 C456 0.960 . S
H443 C456 0.961 . S
H444 C456 0.959 . S
H445 C459 0.929 . S
H446 C460 0.931 . S
H447 C462 0.930 . S
C448 H436 0.930 . S
C448 C449 1.399 . S
C448 C453 1.399 1_556 S
C449 C448 1.399 . S
C449 C450 1.376 . S
C450 H437 0.930 . S
C450 C449 1.376 . S
C450 C451 1.388 . S
C451 H438 0.930 . S
C451 C450 1.388 . S
C451 C452 1.390 1_556 S
C452 C451 1.390 1_554 S
C452 C453 1.394 . S
C452 C458 1.465 . S
C453 C448 1.399 1_554 S
C453 C452 1.394 . S
C453 C454 1.516 . S
C454 C453 1.516 . S
C454 C455 1.502 . S
C454 C456 1.561 . S
C454 C457 1.526 . S
C455 H439 0.959 . S
C455 H440 0.959 . S
C455 H441 0.961 . S
C455 C454 1.502 . S
C456 H442 0.960 . S
C456 H443 0.961 . S
C456 H444 0.959 . S
C456 C454 1.561 . S
C457 C454 1.526 . S
C457 C458 1.396 . S
C457 C462 1.390 . S
C458 C452 1.465 . S
C458 C457 1.396 . S
C458 C459 1.399 . S
C459 H445 0.929 . S
C459 C458 1.399 . S
C459 C460 1.385 . S
C460 H446 0.931 . S
C460 C459 1.385 . S
C460 C461 1.389 . S
C461 C460 1.389 . S
C461 C462 1.387 . S
C462 H447 0.930 . S
C462 C457 1.390 . S
C462 C461 1.387 . S
H463 C475 0.930 . S
H464 C477 0.930 . S
H465 C478 0.930 . S
H466 C482 0.959 . S
H467 C482 0.959 . S
H468 C482 0.961 . S
H469 C483 0.960 . S
H470 C483 0.961 . S
H471 C483 0.959 . S
H472 C486 0.929 . S
H473 C487 0.931 . S
H474 C489 0.930 . S
C475 H463 0.930 . S
C475 C476 1.399 . S
C475 C480 1.399 . S
C476 C475 1.399 . S
C476 C477 1.376 . S
C477 H464 0.930 . S
C477 C476 1.376 . S
C477 C478 1.388 . S
C478 H465 0.930 . S
C478 C477 1.388 . S
C478 C479 1.390 . S
C479 C478 1.390 . S
C479 C480 1.394 . S
C479 C485 1.465 . S
C480 C475 1.399 . S
C480 C479 1.394 . S
C480 C481 1.516 . S
C481 C480 1.516 . S
C481 C482 1.502 . S
C481 C483 1.561 . S
C481 C484 1.526 . S
C482 H466 0.959 . S
C482 H467 0.959 . S
C482 H468 0.961 . S
C482 C481 1.502 . S
C483 H469 0.960 . S
C483 H470 0.961 . S
C483 H471 0.959 . S
C483 C481 1.561 . S
C484 C481 1.526 . S
C484 C485 1.396 . S
C484 C489 1.390 . S
C485 C479 1.465 . S
C485 C484 1.396 . S
C485 C486 1.399 . S
C486 H472 0.929 . S
C486 C485 1.399 . S
C486 C487 1.385 . S
C487 H473 0.931 . S
C487 C486 1.385 . S
C487 C488 1.389 . S
C488 C487 1.389 . S
C488 C489 1.387 . S
C489 H474 0.930 . S
C489 C484 1.390 . S
C489 C488 1.387 . S
H490 C502 0.930 . S
H491 C504 0.930 . S
H492 C505 0.930 . S
H493 C509 0.959 . S
H494 C509 0.959 . S
H495 C509 0.961 . S
H496 C510 0.960 . S
H497 C510 0.961 . S
H498 C510 0.959 . S
H499 C513 0.929 . S
H500 C514 0.931 . S
H501 C516 0.930 . S
C502 H490 0.930 . S
C502 C503 1.399 . S
C502 C507 1.399 . S
C503 C502 1.399 . S
C503 C504 1.376 . S
C504 H491 0.930 . S
C504 C503 1.376 . S
C504 C505 1.388 . S
C505 H492 0.930 . S
C505 C504 1.388 . S
C505 C506 1.390 . S
C506 C505 1.390 . S
C506 C507 1.394 . S
C506 C512 1.465 . S
C507 C502 1.399 . S
C507 C506 1.394 . S
C507 C508 1.516 . S
C508 C507 1.516 . S
C508 C509 1.502 . S
C508 C510 1.561 . S
C508 C511 1.526 . S
C509 H493 0.959 . S
C509 H494 0.959 . S
C509 H495 0.961 . S
C509 C508 1.502 . S
C510 H496 0.960 . S
C510 H497 0.961 . S
C510 H498 0.959 . S
C510 C508 1.561 . S
C511 C508 1.526 . S
C511 C512 1.396 . S
C511 C516 1.390 . S
C512 C506 1.465 . S
C512 C511 1.396 . S
C512 C513 1.399 . S
C513 H499 0.929 . S
C513 C512 1.399 . S
C513 C514 1.385 . S
C514 H500 0.931 . S
C514 C513 1.385 . S
C514 C515 1.389 . S
C515 C514 1.389 . S
C515 C516 1.387 . S
C516 H501 0.930 . S
C516 C511 1.390 . S
C516 C515 1.387 . S
H517 C529 0.930 . S
H518 C531 0.930 . S
H519 C532 0.930 . S
H520 C536 0.959 . S
H521 C536 0.959 . S
H522 C536 0.961 . S
H523 C537 0.960 . S
H524 C537 0.961 . S
H525 C537 0.959 . S
H526 C540 0.929 . S
H527 C541 0.931 . S
H528 C543 0.930 . S
C529 H517 0.930 . S
C529 C530 1.399 . S
C529 C534 1.399 . S
C530 C529 1.399 . S
C530 C531 1.376 . S
C531 H518 0.930 . S
C531 C530 1.376 . S
C531 C532 1.388 . S
C532 H519 0.930 . S
C532 C531 1.388 . S
C532 C533 1.390 . S
C533 C532 1.390 . S
C533 C534 1.394 . S
C533 C539 1.465 . S
C534 C529 1.399 . S
C534 C533 1.394 . S
C534 C535 1.516 . S
C535 C534 1.516 . S
C535 C536 1.502 . S
C535 C537 1.561 . S
C535 C538 1.526 . S
C536 H520 0.959 . S
C536 H521 0.959 . S
C536 H522 0.961 . S
C536 C535 1.502 . S
C537 H523 0.960 . S
C537 H524 0.961 . S
C537 H525 0.959 . S
C537 C535 1.561 . S
C538 C535 1.526 . S
C538 C539 1.396 . S
C538 C543 1.390 . S
C539 C533 1.465 . S
C539 C538 1.396 . S
C539 C540 1.399 . S
C540 H526 0.929 . S
C540 C539 1.399 . S
C540 C541 1.385 . S
C541 H527 0.931 . S
C541 C540 1.385 . S
C541 C542 1.389 . S
C542 C541 1.389 . S
C542 C543 1.387 . S
C543 H528 0.930 . S
C543 C538 1.390 . S
C543 C542 1.387 . S
C125 C8 1.165 . S
C137 C92 1.212 . S
C152 C22 1.220 . S
C164 C106 1.159 . S
C179 C64 1.212 . S
C191 C36 1.169 . S
C206 C78 1.159 . S
C218 C50 1.220 . S
C233 C6 1.458 . S
C245 C76 1.498 . S
C260 C20 1.526 . S
C272 C90 1.465 . S
C287 C104 1.529 . S
C299 C34 1.491 . S
C314 C48 1.460 . S
C326 C62 1.521 . S
C341 C65 1.515 . S
C353 C9 1.548 . S
C368 C23 1.503 . S
C380 C79 1.525 . S
C395 C37 1.534 . S
C407 C93 1.559 . S
C422 C107 1.560 . S
C434 C51 1.546 . S
C449 C91 1.284 . S
C461 C7 1.321 . S
C476 C105 1.342 . S
C488 C21 1.283 . S
C503 C35 1.354 . S
C515 C63 1.329 . S
C530 C49 1.313 . S
C542 C77 1.359 . S
