# Generated by pormake.
# Topology vbr, (6)-cn, num edge types: 1
# Building blocks:
#     Node 0, Type 0, BuildingBlock: IZENUY_clean_sbu_0, # of connection points: 6
#     Node 1, Type 0, BuildingBlock: IZENUY_clean_sbu_0, # of connection points: 6
#     Node 2, Type 0, BuildingBlock: IZENUY_clean_sbu_0, # of connection points: 6
#     Node 3, Type 0, BuildingBlock: IZENUY_clean_sbu_0, # of connection points: 6
#     Node 4, Type 0, BuildingBlock: IZENUY_clean_sbu_0, # of connection points: 6
#     Node 5, Type 0, BuildingBlock: IZENUY_clean_sbu_0, # of connection points: 6
#     Node 6, Type 0, BuildingBlock: IZENUY_clean_sbu_0, # of connection points: 6
#     Node 7, Type 0, BuildingBlock: IZENUY_clean_sbu_0, # of connection points: 6
#     Node 8, Type 0, BuildingBlock: IZENUY_clean_sbu_0, # of connection points: 6
#     Node 9, Type 0, BuildingBlock: IZENUY_clean_sbu_0, # of connection points: 6
#     Node 10, Type 0, BuildingBlock: IZENUY_clean_sbu_0, # of connection points: 6
#     Node 11, Type 0, BuildingBlock: IZENUY_clean_sbu_0, # of connection points: 6
#     Node 12, Type 0, BuildingBlock: IZENUY_clean_sbu_0, # of connection points: 6
#     Node 13, Type 0, BuildingBlock: IZENUY_clean_sbu_0, # of connection points: 6
#     Node 14, Type 0, BuildingBlock: IZENUY_clean_sbu_0, # of connection points: 6
#     Node 15, Type 0, BuildingBlock: IZENUY_clean_sbu_0, # of connection points: 6
#     Edge 16, Type (0, 0), BuildingBlock: UVAHIK_clean_linker_0, # of connection points: 2
#     Edge 17, Type (0, 0), BuildingBlock: UVAHIK_clean_linker_0, # of connection points: 2
#     Edge 18, Type (0, 0), BuildingBlock: UVAHIK_clean_linker_0, # of connection points: 2
#     Edge 19, Type (0, 0), BuildingBlock: UVAHIK_clean_linker_0, # of connection points: 2
#     Edge 20, Type (0, 0), BuildingBlock: UVAHIK_clean_linker_0, # of connection points: 2
#     Edge 21, Type (0, 0), BuildingBlock: UVAHIK_clean_linker_0, # of connection points: 2
#     Edge 22, Type (0, 0), BuildingBlock: UVAHIK_clean_linker_0, # of connection points: 2
#     Edge 23, Type (0, 0), BuildingBlock: UVAHIK_clean_linker_0, # of connection points: 2
#     Edge 24, Type (0, 0), BuildingBlock: UVAHIK_clean_linker_0, # of connection points: 2
#     Edge 25, Type (0, 0), BuildingBlock: UVAHIK_clean_linker_0, # of connection points: 2
#     Edge 26, Type (0, 0), BuildingBlock: UVAHIK_clean_linker_0, # of connection points: 2
#     Edge 27, Type (0, 0), BuildingBlock: UVAHIK_clean_linker_0, # of connection points: 2
#     Edge 28, Type (0, 0), BuildingBlock: UVAHIK_clean_linker_0, # of connection points: 2
#     Edge 29, Type (0, 0), BuildingBlock: UVAHIK_clean_linker_0, # of connection points: 2
#     Edge 30, Type (0, 0), BuildingBlock: UVAHIK_clean_linker_0, # of connection points: 2
#     Edge 31, Type (0, 0), BuildingBlock: UVAHIK_clean_linker_0, # of connection points: 2
#     Edge 32, Type (0, 0), BuildingBlock: UVAHIK_clean_linker_0, # of connection points: 2
#     Edge 33, Type (0, 0), BuildingBlock: UVAHIK_clean_linker_0, # of connection points: 2
#     Edge 34, Type (0, 0), BuildingBlock: UVAHIK_clean_linker_0, # of connection points: 2
#     Edge 35, Type (0, 0), BuildingBlock: UVAHIK_clean_linker_0, # of connection points: 2
#     Edge 36, Type (0, 0), BuildingBlock: UVAHIK_clean_linker_0, # of connection points: 2
#     Edge 37, Type (0, 0), BuildingBlock: UVAHIK_clean_linker_0, # of connection points: 2
#     Edge 38, Type (0, 0), BuildingBlock: UVAHIK_clean_linker_0, # of connection points: 2
#     Edge 39, Type (0, 0), BuildingBlock: UVAHIK_clean_linker_0, # of connection points: 2
#     Edge 40, Type (0, 0), BuildingBlock: UVAHIK_clean_linker_0, # of connection points: 2
#     Edge 41, Type (0, 0), BuildingBlock: UVAHIK_clean_linker_0, # of connection points: 2
#     Edge 42, Type (0, 0), BuildingBlock: UVAHIK_clean_linker_0, # of connection points: 2
#     Edge 43, Type (0, 0), BuildingBlock: UVAHIK_clean_linker_0, # of connection points: 2
#     Edge 44, Type (0, 0), BuildingBlock: UVAHIK_clean_linker_0, # of connection points: 2
#     Edge 45, Type (0, 0), BuildingBlock: UVAHIK_clean_linker_0, # of connection points: 2
#     Edge 46, Type (0, 0), BuildingBlock: UVAHIK_clean_linker_0, # of connection points: 2
#     Edge 47, Type (0, 0), BuildingBlock: UVAHIK_clean_linker_0, # of connection points: 2
#     Edge 48, Type (0, 0), BuildingBlock: UVAHIK_clean_linker_0, # of connection points: 2
#     Edge 49, Type (0, 0), BuildingBlock: UVAHIK_clean_linker_0, # of connection points: 2
#     Edge 50, Type (0, 0), BuildingBlock: UVAHIK_clean_linker_0, # of connection points: 2
#     Edge 51, Type (0, 0), BuildingBlock: UVAHIK_clean_linker_0, # of connection points: 2
#     Edge 52, Type (0, 0), BuildingBlock: UVAHIK_clean_linker_0, # of connection points: 2
#     Edge 53, Type (0, 0), BuildingBlock: UVAHIK_clean_linker_0, # of connection points: 2
#     Edge 54, Type (0, 0), BuildingBlock: UVAHIK_clean_linker_0, # of connection points: 2
#     Edge 55, Type (0, 0), BuildingBlock: UVAHIK_clean_linker_0, # of connection points: 2
#     Edge 56, Type (0, 0), BuildingBlock: UVAHIK_clean_linker_0, # of connection points: 2
#     Edge 57, Type (0, 0), BuildingBlock: UVAHIK_clean_linker_0, # of connection points: 2
#     Edge 58, Type (0, 0), BuildingBlock: UVAHIK_clean_linker_0, # of connection points: 2
#     Edge 59, Type (0, 0), BuildingBlock: UVAHIK_clean_linker_0, # of connection points: 2
#     Edge 60, Type (0, 0), BuildingBlock: UVAHIK_clean_linker_0, # of connection points: 2
#     Edge 61, Type (0, 0), BuildingBlock: UVAHIK_clean_linker_0, # of connection points: 2
#     Edge 62, Type (0, 0), BuildingBlock: UVAHIK_clean_linker_0, # of connection points: 2
#     Edge 63, Type (0, 0), BuildingBlock: UVAHIK_clean_linker_0, # of connection points: 2
# Relax obj value: 0.289
# Max RMSD: 0.272
# Mean RMSD: 0.272
data_MOF--net-vbr--node1-IZENUY_clean_sbu_0--edge1-UVAHIK_clean_linker_0
_symmetry_space_group_name_H-M    P1
_symmetry_Int_Tables_number       1
_symmetry_cell_setting            triclinic
loop_
_symmetry_equiv_pos_as_xyz
'x, y, z'
_cell_length_a     55.677735
_cell_length_b     36.603877
_cell_length_c     69.716071
_cell_angle_alpha  89.99705
_cell_angle_beta   89.986667
_cell_angle_gamma 90.001384
loop_
_atom_site_label
_atom_site_type_symbol
_atom_site_fract_x
_atom_site_fract_y
_atom_site_fract_z
_atom_type_partial_charge
Fe0 Fe 0.3464 0.16009 0.10742 0.0
Fe1 Fe 0.33999 0.09359 0.13378 0.0
O2 O 0.32786 0.13307 0.12254 0.0
Fe3 Fe 0.29725 0.14459 0.12611 0.0
O4 O 0.29258 0.16307 0.102 0.0
O5 O 0.32672 0.15386 0.08695 0.0
O6 O 0.36378 0.12124 0.09839 0.0
C7 C 0.35737 0.08818 0.09697 0.0
C8 C 0.3176 0.21294 0.12669 0.0
O9 O 0.34589 0.07297 0.11042 0.0
C10 C 0.3134 0.12258 0.163 0.0
O11 O 0.36775 0.16864 0.12664 0.0
O12 O 0.37063 0.11143 0.1356 0.0
O13 O 0.30496 0.18951 0.13538 0.0
O14 O 0.33199 0.20348 0.11355 0.0
C15 C 0.29373 0.07003 0.12355 0.0
O16 O 0.33399 0.11182 0.15767 0.0
O17 O 0.29678 0.12872 0.151 0.0
C18 C 0.37878 0.14367 0.13547 0.0
O19 O 0.31197 0.06811 0.13419 0.0
O20 O 0.28693 0.10044 0.11695 0.0
C21 C 0.3046 0.16121 0.08664 0.0
Fe22 Fe 0.21501 0.85135 0.63081 0.0
Fe23 Fe 0.16932 0.83018 0.60932 0.0
O24 O 0.1852 0.86166 0.62387 0.0
Fe25 Fe 0.17144 0.90325 0.6311 0.0
O26 O 0.19503 0.93055 0.62045 0.0
O27 O 0.22556 0.89895 0.63138 0.0
O28 O 0.22506 0.84916 0.60595 0.0
C29 C 0.21613 0.82686 0.59415 0.0
C30 C 0.19748 0.87952 0.66423 0.0
O31 O 0.19585 0.81259 0.59712 0.0
C32 C 0.13301 0.85689 0.63403 0.0
O33 O 0.21002 0.80179 0.63192 0.0
O34 O 0.17121 0.79455 0.6274 0.0
O35 O 0.18629 0.90415 0.65494 0.0
O36 O 0.20686 0.85264 0.6558 0.0
C37 C 0.15863 0.89535 0.59186 0.0
O38 O 0.13963 0.84177 0.61864 0.0
O39 O 0.14639 0.87963 0.64241 0.0
C40 C 0.19111 0.78269 0.6335 0.0
O41 O 0.16704 0.86349 0.59035 0.0
O42 O 0.15481 0.9095 0.60826 0.0
C43 C 0.21702 0.92811 0.62444 0.0
Fe44 Fe 0.34086 0.90749 0.87535 0.0
Fe45 Fe 0.29793 0.85677 0.88296 0.0
O46 O 0.32855 0.8681 0.8866 0.0
Fe47 Fe 0.34708 0.84109 0.90177 0.0
O48 O 0.36429 0.88013 0.91078 0.0
O49 O 0.34624 0.92829 0.89876 0.0
O50 O 0.31293 0.93299 0.87425 0.0
C51 C 0.29372 0.93113 0.88372 0.0
C52 C 0.37967 0.85757 0.87391 0.0
O53 O 0.28745 0.90143 0.89142 0.0
C54 C 0.31805 0.78806 0.88287 0.0
O55 O 0.33527 0.88895 0.85146 0.0
O56 O 0.29801 0.87153 0.85787 0.0
O57 O 0.36853 0.83253 0.88258 0.0
O58 O 0.37158 0.88983 0.87395 0.0
C59 C 0.30513 0.84052 0.92258 0.0
O60 O 0.30534 0.81141 0.87425 0.0
O61 O 0.33284 0.79755 0.89569 0.0
C62 C 0.31476 0.87799 0.84599 0.0
O63 O 0.29294 0.83936 0.90727 0.0
O64 O 0.32735 0.84719 0.92222 0.0
C65 C 0.35764 0.91308 0.91227 0.0
Fe66 Fe 0.16647 0.17074 0.40121 0.0
Fe67 Fe 0.1711 0.09901 0.37846 0.0
O68 O 0.18352 0.14099 0.38653 0.0
Fe69 Fe 0.21334 0.15326 0.38027 0.0
O70 O 0.22269 0.15379 0.40532 0.0
O71 O 0.1922 0.18755 0.41461 0.0
O72 O 0.16369 0.13617 0.41947 0.0
C73 C 0.15631 0.10392 0.41736 0.0
C74 C 0.18857 0.22128 0.37885 0.0
O75 O 0.15377 0.09026 0.40071 0.0
C76 C 0.19744 0.12634 0.34617 0.0
O77 O 0.13748 0.15891 0.3907 0.0
O78 O 0.1458 0.12166 0.36692 0.0
O79 O 0.20768 0.20269 0.38033 0.0
O80 O 0.16865 0.20799 0.38404 0.0
C81 C 0.21703 0.07647 0.38559 0.0
O82 O 0.18681 0.10047 0.35496 0.0
O83 O 0.20568 0.15352 0.35513 0.0
C84 C 0.13164 0.14357 0.37516 0.0
O85 O 0.19507 0.0727 0.38939 0.0
O86 O 0.22481 0.10617 0.3787 0.0
C87 C 0.21222 0.1727 0.41796 0.0
Fe88 Fe 0.67009 0.90584 0.87836 0.0
Fe89 Fe 0.66561 0.83422 0.90151 0.0
O90 O 0.68303 0.86516 0.8877 0.0
Fe91 Fe 0.7138 0.85505 0.88356 0.0
O92 O 0.72403 0.90261 0.88189 0.0
O93 O 0.69236 0.93458 0.88975 0.0
O94 O 0.65122 0.91465 0.8998 0.0
C95 C 0.65178 0.90064 0.91652 0.0
C96 C 0.69998 0.87843 0.84804 0.0
O97 O 0.65947 0.8687 0.91921 0.0
C98 C 0.69178 0.78521 0.88117 0.0
O99 O 0.64616 0.88131 0.86605 0.0
O100 O 0.63735 0.84309 0.88924 0.0
O101 O 0.70874 0.85294 0.85802 0.0
O102 O 0.68747 0.90379 0.85562 0.0
C103 C 0.70944 0.83723 0.92127 0.0
O104 O 0.67092 0.79692 0.88476 0.0
O105 O 0.70987 0.8054 0.88409 0.0
C106 C 0.63208 0.8585 0.87363 0.0
O107 O 0.69052 0.82022 0.91676 0.0
O108 O 0.72047 0.85655 0.90911 0.0
C109 C 0.71466 0.93228 0.88728 0.0
Fe110 Fe 0.84514 0.16052 0.40193 0.0
Fe111 Fe 0.79621 0.14547 0.38263 0.0
O112 O 0.82675 0.13387 0.38649 0.0
Fe113 Fe 0.83908 0.09456 0.37517 0.0
O114 O 0.84415 0.07334 0.39854 0.0
O115 O 0.86209 0.12124 0.41098 0.0
O116 O 0.8251 0.1543 0.42217 0.0
C117 C 0.80291 0.1612 0.42235 0.0
C118 C 0.87812 0.14418 0.37435 0.0
O119 O 0.79095 0.16267 0.40695 0.0
C120 C 0.81343 0.12467 0.34572 0.0
O121 O 0.83112 0.20425 0.39586 0.0
O122 O 0.80387 0.19086 0.37412 0.0
O123 O 0.86988 0.11201 0.37409 0.0
O124 O 0.86691 0.16917 0.38299 0.0
C125 C 0.79182 0.07112 0.3832 0.0
O126 O 0.79653 0.13098 0.35748 0.0
O127 O 0.83384 0.11351 0.35131 0.0
C128 C 0.81652 0.21402 0.38294 0.0
O129 O 0.78553 0.1008 0.39091 0.0
O130 O 0.81107 0.06926 0.37378 0.0
C131 C 0.85544 0.08824 0.41221 0.0
Fe132 Fe 0.67006 0.09789 0.13073 0.0
Fe133 Fe 0.66542 0.16964 0.10798 0.0
O134 O 0.68265 0.13945 0.12229 0.0
Fe135 Fe 0.71284 0.15088 0.12785 0.0
O136 O 0.72382 0.10351 0.12931 0.0
O137 O 0.69331 0.07102 0.1193 0.0
O138 O 0.65197 0.08939 0.10885 0.0
C139 C 0.6536 0.10322 0.09216 0.0
C140 C 0.6977 0.12492 0.16239 0.0
O141 O 0.66131 0.13523 0.08982 0.0
C142 C 0.68897 0.21944 0.12981 0.0
O143 O 0.64539 0.12116 0.14276 0.0
O144 O 0.6367 0.1588 0.11923 0.0
O145 O 0.70608 0.15165 0.15314 0.0
O146 O 0.68654 0.09917 0.15391 0.0
C147 C 0.71058 0.1699 0.09014 0.0
O148 O 0.66874 0.20676 0.12507 0.0
O149 O 0.70781 0.20044 0.12776 0.0
C150 C 0.63121 0.14346 0.13486 0.0
O151 O 0.69089 0.18549 0.0939 0.0
O152 O 0.72124 0.15084 0.10262 0.0
C153 C 0.71543 0.0741 0.12257 0.0
Fe154 Fe 0.84549 0.8414 0.60818 0.0
Fe155 Fe 0.79691 0.85904 0.62735 0.0
O156 O 0.82763 0.86939 0.6233 0.0
Fe157 Fe 0.84061 0.90873 0.63408 0.0
O158 O 0.84613 0.92864 0.61048 0.0
O159 O 0.86311 0.87951 0.59856 0.0
O160 O 0.82549 0.84753 0.58792 0.0
C161 C 0.80326 0.84104 0.58789 0.0
C162 C 0.87886 0.85763 0.63543 0.0
O163 O 0.79141 0.84031 0.60338 0.0
C164 C 0.81436 0.88115 0.6639 0.0
O165 O 0.83075 0.79863 0.61491 0.0
O166 O 0.80397 0.81398 0.6367 0.0
O167 O 0.87114 0.89011 0.63546 0.0
O168 O 0.86707 0.83277 0.62719 0.0
C169 C 0.79443 0.93362 0.62453 0.0
O170 O 0.79733 0.8753 0.65221 0.0
O171 O 0.83497 0.89113 0.65816 0.0
C172 C 0.81631 0.79002 0.62817 0.0
O173 O 0.78709 0.90338 0.61813 0.0
O174 O 0.81297 0.9351 0.63485 0.0
C175 C 0.85705 0.9127 0.59695 0.0
Fe176 Fe 0.84121 0.66878 0.10866 0.0
Fe177 Fe 0.83663 0.5969 0.13149 0.0
O178 O 0.82407 0.63861 0.1231 0.0
Fe179 Fe 0.79396 0.65023 0.12884 0.0
O180 O 0.78527 0.65023 0.10364 0.0
O181 O 0.81567 0.68457 0.09467 0.0
O182 O 0.84522 0.63423 0.09052 0.0
C183 C 0.85282 0.60214 0.09282 0.0
C184 C 0.81789 0.7186 0.13073 0.0
O185 O 0.85441 0.58821 0.10949 0.0
C186 C 0.80933 0.62423 0.16331 0.0
O187 O 0.86992 0.65804 0.11981 0.0
O188 O 0.86161 0.61996 0.14328 0.0
O189 O 0.79905 0.69966 0.12869 0.0
O190 O 0.83806 0.70613 0.12568 0.0
C191 C 0.79103 0.57344 0.1238 0.0
O192 O 0.82043 0.59845 0.15481 0.0
O193 O 0.80097 0.65101 0.15409 0.0
C194 C 0.87553 0.64266 0.13539 0.0
O195 O 0.81309 0.57001 0.12033 0.0
O196 O 0.78289 0.60306 0.13044 0.0
C197 C 0.79588 0.66917 0.09108 0.0
Fe198 Fe 0.66245 0.3414 0.60893 0.0
Fe199 Fe 0.66812 0.40911 0.63445 0.0
O200 O 0.68075 0.36956 0.62362 0.0
Fe201 Fe 0.71154 0.35915 0.6272 0.0
O202 O 0.71639 0.34002 0.60322 0.0
O203 O 0.68193 0.34713 0.5883 0.0
O204 O 0.64465 0.37945 0.59944 0.0
C205 C 0.65069 0.41262 0.59762 0.0
C206 C 0.69207 0.29022 0.62863 0.0
O207 O 0.66201 0.42869 0.61089 0.0
C208 C 0.69507 0.38188 0.66394 0.0
O209 O 0.64137 0.33316 0.62836 0.0
O210 O 0.63761 0.39064 0.63643 0.0
O211 O 0.70464 0.31428 0.63687 0.0
O212 O 0.67731 0.29868 0.61558 0.0
C213 C 0.71407 0.43367 0.62402 0.0
O214 O 0.67434 0.39183 0.6585 0.0
O215 O 0.7118 0.3758 0.65199 0.0
C216 C 0.62987 0.35818 0.63672 0.0
O217 O 0.69581 0.43538 0.63465 0.0
O218 O 0.72122 0.4033 0.61763 0.0
C219 C 0.70415 0.34054 0.58793 0.0
Fe220 Fe 0.84349 0.33332 0.90117 0.0
Fe221 Fe 0.83901 0.40573 0.87876 0.0
O222 O 0.82615 0.36454 0.88749 0.0
Fe223 Fe 0.79553 0.35431 0.88289 0.0
O224 O 0.78841 0.35469 0.90836 0.0
O225 O 0.81838 0.31838 0.91597 0.0
O226 O 0.84907 0.36726 0.91931 0.0
C227 C 0.85671 0.39934 0.91697 0.0
C228 C 0.81798 0.28498 0.87981 0.0
O229 O 0.85769 0.41371 0.90037 0.0
C230 C 0.80976 0.37938 0.84784 0.0
O231 O 0.87188 0.34311 0.88925 0.0
O232 O 0.86311 0.38188 0.86628 0.0
O233 O 0.7997 0.3047 0.88285 0.0
O234 O 0.8387 0.29656 0.88398 0.0
C235 C 0.79423 0.43113 0.88793 0.0
O236 O 0.82183 0.40469 0.85589 0.0
O237 O 0.80106 0.35329 0.85741 0.0
C238 C 0.8772 0.35895 0.87375 0.0
O239 O 0.81652 0.43357 0.8905 0.0
O240 O 0.78514 0.40186 0.8817 0.0
C241 C 0.79929 0.335 0.92044 0.0
Fe242 Fe 0.66067 0.65991 0.40273 0.0
Fe243 Fe 0.667 0.5937 0.37613 0.0
O244 O 0.67914 0.63312 0.38744 0.0
Fe245 Fe 0.70972 0.64477 0.38377 0.0
O246 O 0.71456 0.6631 0.4079 0.0
O247 O 0.68054 0.65368 0.42308 0.0
O248 O 0.64349 0.62088 0.4118 0.0
C249 C 0.64989 0.58779 0.41303 0.0
C250 C 0.68927 0.71307 0.38343 0.0
O251 O 0.66128 0.57279 0.39946 0.0
C252 C 0.69341 0.62295 0.34685 0.0
O253 O 0.63906 0.66848 0.38368 0.0
O254 O 0.63628 0.61138 0.37451 0.0
O255 O 0.70189 0.68975 0.37464 0.0
O256 O 0.67492 0.70345 0.39657 0.0
C257 C 0.71338 0.57019 0.38611 0.0
O258 O 0.67284 0.61219 0.35224 0.0
O259 O 0.71007 0.62911 0.35883 0.0
C260 C 0.62793 0.6435 0.37494 0.0
O261 O 0.69507 0.56835 0.37553 0.0
O262 O 0.72016 0.60055 0.39279 0.0
C263 C 0.70263 0.66119 0.42331 0.0
Fe264 Fe 0.16855 0.40847 0.87521 0.0
Fe265 Fe 0.16236 0.34201 0.90159 0.0
O266 O 0.18075 0.36888 0.88629 0.0
Fe267 Fe 0.21127 0.35715 0.88238 0.0
O268 O 0.22189 0.4013 0.89138 0.0
O269 O 0.19662 0.43376 0.87445 0.0
O270 O 0.16313 0.42911 0.89865 0.0
C271 C 0.15177 0.41396 0.91219 0.0
C272 C 0.1945 0.37934 0.84565 0.0
O273 O 0.14521 0.38097 0.91078 0.0
C274 C 0.1908 0.28887 0.88217 0.0
O275 O 0.13782 0.39084 0.87373 0.0
O276 O 0.14069 0.33356 0.88257 0.0
O277 O 0.21133 0.37289 0.85744 0.0
O278 O 0.17406 0.39023 0.85126 0.0
C279 C 0.20449 0.34076 0.92196 0.0
O280 O 0.17657 0.29852 0.89538 0.0
O281 O 0.20331 0.31218 0.87328 0.0
C282 C 0.12962 0.35863 0.87385 0.0
O283 O 0.18238 0.34817 0.92186 0.0
O284 O 0.2163 0.33881 0.90649 0.0
C285 C 0.21507 0.43175 0.88485 0.0
Fe286 Fe 0.29226 0.65377 0.38047 0.0
Fe287 Fe 0.33427 0.59925 0.37959 0.0
O288 O 0.32181 0.64145 0.38728 0.0
Fe289 Fe 0.33864 0.67142 0.40202 0.0
O290 O 0.31262 0.68945 0.41476 0.0
O291 O 0.28232 0.65534 0.40537 0.0
O292 O 0.28061 0.60672 0.37919 0.0
C293 C 0.28819 0.57709 0.38632 0.0
C294 C 0.31746 0.72147 0.37883 0.0
O295 O 0.31006 0.57328 0.39041 0.0
C296 C 0.37392 0.64339 0.37661 0.0
O297 O 0.30049 0.65325 0.35548 0.0
O298 O 0.319 0.60001 0.35588 0.0
O299 O 0.33716 0.7081 0.38447 0.0
O300 O 0.29821 0.70315 0.38009 0.0
C301 C 0.3485 0.60507 0.41868 0.0
O302 O 0.3598 0.62165 0.36822 0.0
O303 O 0.36786 0.6588 0.39209 0.0
C304 C 0.30872 0.6258 0.34679 0.0
O305 O 0.35112 0.59113 0.4021 0.0
O306 O 0.34081 0.63725 0.42063 0.0
C307 C 0.29192 0.67636 0.41749 0.0
Fe308 Fe 0.16772 0.59459 0.13416 0.0
Fe309 Fe 0.16229 0.66104 0.10773 0.0
O310 O 0.1804 0.63394 0.12313 0.0
Fe311 Fe 0.21094 0.64516 0.12724 0.0
O312 O 0.2215 0.60049 0.1189 0.0
O313 O 0.1956 0.569 0.1357 0.0
O314 O 0.1629 0.57382 0.11065 0.0
C315 C 0.1518 0.58912 0.097 0.0
C316 C 0.19312 0.62402 0.16394 0.0
O317 O 0.14519 0.6221 0.09844 0.0
C318 C 0.19094 0.71393 0.12707 0.0
O319 O 0.13696 0.61234 0.13504 0.0
O320 O 0.14052 0.66966 0.12666 0.0
O321 O 0.21022 0.63034 0.15235 0.0
O322 O 0.17273 0.61316 0.15811 0.0
C323 C 0.20468 0.66149 0.08753 0.0
O324 O 0.17648 0.70448 0.11401 0.0
O325 O 0.20343 0.69055 0.13587 0.0
C326 C 0.12896 0.64466 0.135 0.0
O327 O 0.18245 0.65485 0.08757 0.0
O328 O 0.21653 0.6626 0.10301 0.0
C329 C 0.21498 0.57079 0.12646 0.0
Fe330 Fe 0.33925 0.40313 0.63149 0.0
Fe331 Fe 0.3442 0.33112 0.60875 0.0
O332 O 0.32667 0.36194 0.6225 0.0
Fe333 Fe 0.29603 0.35141 0.62688 0.0
O334 O 0.28552 0.39885 0.62855 0.0
O335 O 0.3167 0.43088 0.6197 0.0
O336 O 0.35806 0.41175 0.61007 0.0
C337 C 0.35727 0.39774 0.59339 0.0
C338 C 0.30989 0.37571 0.66212 0.0
O339 O 0.34999 0.36553 0.59085 0.0
C340 C 0.3185 0.28212 0.62958 0.0
O341 O 0.36339 0.37944 0.64398 0.0
O342 O 0.37236 0.34063 0.62101 0.0
O343 O 0.30143 0.34966 0.65237 0.0
O344 O 0.32186 0.40136 0.65425 0.0
C345 C 0.30032 0.33355 0.58916 0.0
O346 O 0.33924 0.29391 0.62565 0.0
O347 O 0.30024 0.30182 0.62647 0.0
C348 C 0.37742 0.3563 0.63661 0.0
O349 O 0.31927 0.3166 0.59367 0.0
O350 O 0.28916 0.35264 0.60135 0.0
C351 C 0.29446 0.42829 0.62243 0.0
C352 C 0.30733 0.17895 0.0519 0.0
C353 C 0.29346 0.17416 0.06858 0.0
C354 C 0.29757 0.19625 0.0358 0.0
C355 C 0.25003 0.26185 0.02306 0.0
H356 H 0.2636 0.23159 0.9709 0.0
C357 C 0.20222 0.32329 0.95675 0.0
C358 C 0.21587 0.32792 0.93995 0.0
C359 C 0.21217 0.30612 0.97281 0.0
C360 C 0.25991 0.24068 0.98539 0.0
H361 H 0.258 0.18178 0.08094 0.0
H362 H 0.24101 0.2114 0.05282 0.0
H363 H 0.27937 0.19593 0.99763 0.0
H364 H 0.25117 0.32014 0.92732 0.0
H365 H 0.26851 0.29077 0.95538 0.0
H366 H 0.23058 0.3066 0.01083 0.0
C367 C 0.25957 0.20258 0.05235 0.0
C368 C 0.2689 0.22017 1.00069 0.0
C369 C 0.26929 0.1853 0.06841 0.0
C370 C 0.24004 0.31674 0.93994 0.0
C371 C 0.24996 0.29961 0.95598 0.0
C372 C 0.24106 0.28237 0.00776 0.0
C373 C 0.27376 0.20907 0.03604 0.0
C374 C 0.26402 0.23048 0.0197 0.0
C375 C 0.23598 0.29329 0.97242 0.0
C376 C 0.24589 0.27202 0.98875 0.0
H377 H 0.326 0.17065 0.05151 0.0
H378 H 0.309 0.20093 0.02347 0.0
H379 H 0.24633 0.27092 0.03755 0.0
H380 H 0.18356 0.33161 0.95727 0.0
H381 H 0.20088 0.30155 0.98523 0.0
C382 C 0.26749 0.66869 0.44721 0.0
C383 C 0.27806 0.69147 0.43345 0.0
C384 C 0.25954 0.68346 0.46461 0.0
C385 C 0.24564 0.77032 0.48961 0.0
H386 H 0.27059 0.72008 0.53435 0.0
C387 C 0.2406 0.83542 0.56451 0.0
C388 C 0.23027 0.81225 0.57821 0.0
C389 C 0.24881 0.82097 0.5471 0.0
C390 C 0.26346 0.73435 0.52199 0.0
H391 H 0.28711 0.74731 0.4261 0.0
H392 H 0.273 0.7731 0.45618 0.0
H393 H 0.2756 0.6929 0.50265 0.0
H394 H 0.22192 0.75611 0.58545 0.0
H395 H 0.23639 0.73093 0.55536 0.0
H396 H 0.23343 0.81173 0.50894 0.0
C397 C 0.27082 0.74405 0.45378 0.0
C398 C 0.26611 0.71862 0.50389 0.0
C399 C 0.27895 0.7293 0.4366 0.0
C400 C 0.22987 0.77442 0.575 0.0
C401 C 0.23823 0.76002 0.55781 0.0
C402 C 0.24296 0.78603 0.50772 0.0
C403 C 0.26185 0.72117 0.46824 0.0
C404 C 0.25721 0.73644 0.48753 0.0
C405 C 0.24697 0.78323 0.5434 0.0
C406 C 0.25182 0.76818 0.52409 0.0
H407 H 0.26688 0.63939 0.44506 0.0
H408 H 0.25242 0.66531 0.47549 0.0
H409 H 0.23852 0.78458 0.47724 0.0
H410 H 0.24083 0.86472 0.5667 0.0
H411 H 0.25574 0.8394 0.53628 0.0
C412 C 0.20274 0.67798 0.05259 0.0
C413 C 0.21619 0.6743 0.06956 0.0
C414 C 0.21262 0.6952 0.03652 0.0
C415 C 0.26989 0.72583 0.01467 0.0
H416 H 0.22931 0.79705 0.98925 0.0
C417 C 0.30769 0.82409 0.95752 0.0
C418 C 0.29395 0.82783 0.9407 0.0
C419 C 0.29802 0.80709 0.97374 0.0
C420 C 0.24082 0.77706 0.99608 0.0
H421 H 0.25107 0.68414 0.08251 0.0
H422 H 0.26817 0.71414 0.05454 0.0
H423 H 0.21316 0.76091 0.01564 0.0
H424 H 0.2588 0.81825 0.92818 0.0
H425 H 0.24208 0.78857 0.95635 0.0
H426 H 0.29753 0.74193 0.99509 0.0
C427 C 0.25002 0.70367 0.05363 0.0
C428 C 0.23154 0.75624 0.01116 0.0
C429 C 0.24015 0.68652 0.06971 0.0
C430 C 0.26994 0.81583 0.94085 0.0
C431 C 0.26029 0.79887 0.95705 0.0
C432 C 0.27917 0.74664 0.99957 0.0
C433 C 0.23618 0.70899 0.03701 0.0
C434 C 0.24595 0.73034 0.02062 0.0
C435 C 0.27438 0.79355 0.97355 0.0
C436 C 0.26474 0.77248 0.99008 0.0
H437 H 0.18429 0.66868 0.05191 0.0
H438 H 0.20165 0.69823 0.02378 0.0
H439 H 0.28138 0.70584 0.02152 0.0
H440 H 0.3262 0.83321 0.95797 0.0
H441 H 0.30919 0.80404 0.98636 0.0
C442 C 0.26586 0.31994 0.56728 0.0
C443 C 0.29041 0.32648 0.57005 0.0
C444 C 0.2578 0.30565 0.54982 0.0
C445 C 0.28095 0.24964 0.51022 0.0
H446 H 0.22035 0.27322 0.48593 0.0
C447 C 0.24852 0.19016 0.43716 0.0
C448 C 0.22392 0.18217 0.43614 0.0
C449 C 0.25791 0.20681 0.45363 0.0
C450 C 0.23725 0.26615 0.49267 0.0
H451 H 0.32548 0.32683 0.55653 0.0
H452 H 0.31136 0.30302 0.52597 0.0
H453 H 0.23349 0.3083 0.51374 0.0
H454 H 0.19028 0.18199 0.45181 0.0
H455 H 0.2067 0.20992 0.48054 0.0
H456 H 0.2846 0.20734 0.48917 0.0
C457 C 0.29844 0.30756 0.53734 0.0
C458 C 0.24475 0.28626 0.50856 0.0
C459 C 0.30647 0.32141 0.55475 0.0
C460 C 0.20929 0.18832 0.45221 0.0
C461 C 0.21861 0.2046 0.46857 0.0
C462 C 0.27346 0.22955 0.4943 0.0
C463 C 0.27421 0.29813 0.53494 0.0
C464 C 0.2666 0.27806 0.51756 0.0
C465 C 0.24275 0.21538 0.46916 0.0
C466 C 0.25141 0.23736 0.48553 0.0
H467 H 0.25323 0.32352 0.57896 0.0
H468 H 0.239 0.29859 0.54836 0.0
H469 H 0.29772 0.24227 0.51707 0.0
H470 H 0.26008 0.18577 0.42487 0.0
H471 H 0.27665 0.21476 0.45379 0.0
C472 C 0.70398 0.82445 0.95568 0.0
C473 C 0.71972 0.82938 0.94018 0.0
C474 C 0.71214 0.80923 0.97275 0.0
C475 C 0.76608 0.78307 1.00022 0.0
H476 H 0.72432 0.70649 0.01963 0.0
C477 C 0.79928 0.68304 0.05664 0.0
C478 C 0.78447 0.6782 0.07273 0.0
C479 C 0.7904 0.69945 0.04013 0.0
C480 C 0.73603 0.72799 0.01447 0.0
H481 H 0.75653 0.82465 0.93054 0.0
H482 H 0.77099 0.7974 0.96051 0.0
H483 H 0.71163 0.74308 0.9922 0.0
H484 H 0.74842 0.6842 0.08391 0.0
H485 H 0.73264 0.71334 0.05479 0.0
H486 H 0.79056 0.76772 0.02239 0.0
C487 C 0.75235 0.80564 0.95952 0.0
C488 C 0.72878 0.74905 0.99883 0.0
C489 C 0.74416 0.82129 0.9424 0.0
C490 C 0.76009 0.68751 0.0716 0.0
C491 C 0.75115 0.70426 0.055 0.0
C492 C 0.77334 0.76196 0.01583 0.0
C493 C 0.73617 0.79824 0.97457 0.0
C494 C 0.74375 0.77678 0.99152 0.0
C495 C 0.76654 0.71163 0.03943 0.0
C496 C 0.75846 0.73407 0.02302 0.0
H497 H 0.68506 0.83092 0.9543 0.0
H498 H 0.69942 0.80484 0.98428 0.0
H499 H 0.77784 0.80449 0.99506 0.0
H500 H 0.81812 0.67562 0.05715 0.0
H501 H 0.80246 0.70385 0.02816 0.0
C502 C 0.73925 0.31521 0.56979 0.0
C503 C 0.71523 0.32716 0.56991 0.0
C504 C 0.74883 0.29781 0.55369 0.0
C505 C 0.73946 0.28146 0.50186 0.0
H506 H 0.77706 0.19411 0.51148 0.0
C507 C 0.76751 0.18559 0.44047 0.0
C508 C 0.79156 0.17384 0.44042 0.0
C509 C 0.75773 0.20261 0.45661 0.0
C510 C 0.76678 0.2186 0.50855 0.0
H511 H 0.68286 0.3318 0.55273 0.0
H512 H 0.6996 0.30132 0.52466 0.0
H513 H 0.76165 0.22957 0.53841 0.0
H514 H 0.82379 0.16906 0.45776 0.0
H515 H 0.80672 0.19888 0.48589 0.0
H516 H 0.74462 0.27053 0.472 0.0
C517 C 0.71102 0.30548 0.53704 0.0
C518 C 0.758 0.239 0.52398 0.0
C519 C 0.7014 0.32288 0.55317 0.0
C520 C 0.80522 0.17782 0.45727 0.0
C521 C 0.79541 0.19486 0.47343 0.0
C522 C 0.74825 0.26107 0.48643 0.0
C523 C 0.73467 0.29199 0.53729 0.0
C524 C 0.74426 0.2707 0.52082 0.0
C525 C 0.77173 0.20825 0.47311 0.0
C526 C 0.76201 0.22939 0.48959 0.0
H527 H 0.7505 0.31824 0.58236 0.0
H528 H 0.76727 0.28843 0.55419 0.0
H529 H 0.7292 0.30597 0.49893 0.0
H530 H 0.75639 0.18277 0.42781 0.0
H531 H 0.73927 0.2119 0.45605 0.0
C532 C 0.70692 0.1851 0.05584 0.0
C533 C 0.72186 0.17862 0.07169 0.0
C534 C 0.71621 0.20014 0.03912 0.0
C535 C 0.76409 0.26102 0.02401 0.0
H536 H 0.742 0.23598 0.9729 0.0
C537 C 0.80415 0.31962 0.95464 0.0
C538 C 0.78869 0.32653 0.93916 0.0
C539 C 0.79535 0.30457 0.97154 0.0
C540 C 0.74798 0.24362 0.98713 0.0
H541 H 0.7584 0.18043 0.08226 0.0
H542 H 0.77492 0.20693 0.0527 0.0
H543 H 0.73027 0.19803 1.00009 0.0
H544 H 0.75177 0.3255 0.92944 0.0
H545 H 0.73615 0.29885 0.95927 0.0
H546 H 0.78188 0.30656 0.01101 0.0
C547 C 0.75593 0.20061 0.05338 0.0
C548 C 0.74147 0.22173 1.00265 0.0
C549 C 0.74659 0.18517 0.07017 0.0
C550 C 0.76397 0.32044 0.94125 0.0
C551 C 0.75514 0.30492 0.95818 0.0
C552 C 0.77065 0.28288 0.00848 0.0
C553 C 0.74064 0.20918 0.03793 0.0
C554 C 0.74939 0.23029 0.02125 0.0
C555 C 0.77092 0.29587 0.97323 0.0
C556 C 0.7626 0.27443 0.98991 0.0
H557 H 0.68777 0.17999 0.05668 0.0
H558 H 0.70394 0.20661 0.02755 0.0
H559 H 0.77003 0.26872 0.03824 0.0
H560 H 0.8233 0.32438 0.95334 0.0
H561 H 0.80794 0.29775 0.98283 0.0
C562 C 0.70006 0.67864 0.45811 0.0
C563 C 0.71383 0.67424 0.44134 0.0
C564 C 0.70981 0.69597 0.47421 0.0
C565 C 0.75702 0.76221 0.48694 0.0
H566 H 0.74403 0.73121 0.53908 0.0
C567 C 0.80516 0.82363 0.55308 0.0
C568 C 0.7917 0.82798 0.57001 0.0
C569 C 0.79511 0.80642 0.53707 0.0
C570 C 0.74755 0.74052 0.5246 0.0
H571 H 0.74912 0.68268 0.42882 0.0
H572 H 0.7661 0.71234 0.45694 0.0
H573 H 0.72824 0.69566 0.51232 0.0
H574 H 0.75665 0.81947 0.58294 0.0
H575 H 0.73913 0.79003 0.55495 0.0
H576 H 0.77633 0.80707 0.49921 0.0
C577 C 0.74762 0.70317 0.45748 0.0
C578 C 0.73855 0.72006 0.50927 0.0
C579 C 0.7379 0.68587 0.44142 0.0
C580 C 0.76762 0.81636 0.5702 0.0
C581 C 0.7576 0.79917 0.55421 0.0
C582 C 0.76601 0.78267 0.50226 0.0
C583 C 0.73352 0.70923 0.47389 0.0
C584 C 0.74324 0.73062 0.49026 0.0
C585 C 0.77139 0.79323 0.53762 0.0
C586 C 0.76139 0.77206 0.52128 0.0
H587 H 0.68148 0.66998 0.45858 0.0
H588 H 0.69845 0.7003 0.48662 0.0
H589 H 0.76057 0.7715 0.47246 0.0
H590 H 0.82374 0.83229 0.5524 0.0
H591 H 0.80627 0.80215 0.52454 0.0
C592 C 0.36737 0.91201 0.94722 0.0
C593 C 0.36201 0.93243 0.93065 0.0
C594 C 0.36882 0.92885 0.96513 0.0
C595 C 0.38061 0.01373 0.99006 0.0
H596 H 0.33924 0.97487 0.02991 0.0
C597 C 0.36744 0.08868 0.06207 0.0
C598 C 0.36205 0.06858 0.07872 0.0
C599 C 0.36911 0.07149 0.04425 0.0
C600 C 0.35132 0.9857 0.01915 0.0
H601 H 0.35467 0.98688 0.91991 0.0
H602 H 0.35808 0.01667 0.95139 0.0
H603 H 0.33934 0.94683 0.99823 0.0
H604 H 0.35496 0.01433 0.08974 0.0
H605 H 0.35912 0.98383 0.05876 0.0
H606 H 0.39333 0.05175 0.01096 0.0
C607 C 0.36088 0.98745 0.95034 0.0
C608 C 0.35117 0.96977 1.00092 0.0
C609 C 0.35893 0.97043 0.93236 0.0
C610 C 0.35915 0.03058 0.0772 0.0
C611 C 0.36127 0.0132 0.05935 0.0
C612 C 0.38114 0.02925 0.00841 0.0
C613 C 0.36538 0.96664 0.96691 0.0
C614 C 0.36568 0.98378 0.98618 0.0
C615 C 0.36586 0.03352 0.04254 0.0
C616 C 0.36633 0.01568 0.02322 0.0
H617 H 0.36963 0.88264 0.94651 0.0
H618 H 0.37246 0.91225 0.97767 0.0
H619 H 0.39218 0.02474 0.97898 0.0
H620 H 0.36942 0.11811 0.06262 0.0
H621 H 0.37213 0.08838 0.03174 0.0
C622 C 0.16416 0.90501 0.55666 0.0
C623 C 0.1533 0.91586 0.57396 0.0
C624 C 0.1603 0.92452 0.53973 0.0
C625 C 0.1395 0.01502 0.52182 0.0
H626 H 0.14466 0.96575 0.47276 0.0
C627 C 0.15933 0.09482 0.45279 0.0
C628 C 0.15105 0.08221 0.43491 0.0
C629 C 0.1559 0.07434 0.46943 0.0
C630 C 0.14274 0.98005 0.48626 0.0
H631 H 0.12943 0.95554 0.5869 0.0
H632 H 0.12186 0.989 0.55714 0.0
H633 H 0.14421 0.93013 0.50211 0.0
H634 H 0.1322 0.03811 0.42068 0.0
H635 H 0.1254 0.00264 0.44997 0.0
H636 H 0.13707 0.0648 0.50595 0.0
C637 C 0.13394 0.96584 0.55674 0.0
C638 C 0.14292 0.95956 0.50323 0.0
C639 C 0.13814 0.94654 0.57383 0.0
C640 C 0.13883 0.04862 0.4342 0.0
C641 C 0.13509 0.02819 0.45101 0.0
C642 C 0.1389 0.03544 0.50485 0.0
C643 C 0.14513 0.95526 0.53944 0.0
C644 C 0.14202 0.97679 0.52131 0.0
C645 C 0.14374 0.04068 0.46888 0.0
C646 C 0.14125 0.0184 0.48681 0.0
H647 H 0.17624 0.88182 0.55624 0.0
H648 H 0.16983 0.9159 0.52698 0.0
H649 H 0.13885 0.02953 0.53533 0.0
H650 H 0.16913 0.12029 0.45394 0.0
H651 H 0.16348 0.08463 0.48267 0.0
C652 C 0.64414 0.96029 0.93369 0.0
C653 C 0.64432 0.92188 0.93369 0.0
C654 C 0.64098 0.9797 0.9509 0.0
C655 C 0.64936 0.9671 1.00321 0.0
H656 H 0.61533 0.05907 0.00738 0.0
C657 C 0.64267 0.04407 0.07561 0.0
C658 C 0.64685 0.08192 0.07478 0.0
C659 C 0.63898 0.02393 0.05872 0.0
C660 C 0.62503 0.03349 0.00644 0.0
H661 H 0.63972 0.87388 0.95163 0.0
H662 H 0.63375 0.90748 0.98125 0.0
H663 H 0.61509 0.02585 0.97698 0.0
H664 H 0.64956 0.12833 0.05546 0.0
H665 H 0.64337 0.09344 0.02635 0.0
H666 H 0.65971 0.97492 0.03248 0.0
C667 C 0.6367 0.92274 0.96815 0.0
C668 C 0.6249 0.01448 0.98898 0.0
C669 C 0.63995 0.90346 0.95107 0.0
C670 C 0.6464 0.09923 0.05674 0.0
C671 C 0.64267 0.0792 0.03995 0.0
C672 C 0.64951 0.98608 0.02063 0.0
C673 C 0.63786 0.96108 0.96843 0.0
C674 C 0.63718 0.9811 0.9871 0.0
C675 C 0.6393 0.04119 0.04064 0.0
C676 C 0.63752 0.01969 0.02247 0.0
H677 H 0.64764 0.97531 0.9206 0.0
H678 H 0.64208 0.00923 0.95058 0.0
H679 H 0.65941 0.94184 1.00225 0.0
H680 H 0.64295 0.02983 0.08922 0.0
H681 H 0.63615 0.99473 0.05982 0.0
C682 C 0.86642 0.91085 0.56191 0.0
C683 C 0.86147 0.93162 0.57845 0.0
C684 C 0.8678 0.92742 0.54391 0.0
C685 C 0.87961 0.01236 0.5187 0.0
H686 H 0.83805 0.97325 0.47907 0.0
C687 C 0.86521 0.08814 0.44716 0.0
C688 C 0.8599 0.0683 0.43041 0.0
C689 C 0.86704 0.07065 0.46489 0.0
C690 C 0.85018 0.98416 0.48976 0.0
H691 H 0.85476 0.98639 0.58901 0.0
H692 H 0.85802 0.01563 0.55741 0.0
H693 H 0.83862 0.94502 0.51071 0.0
H694 H 0.85301 0.01418 0.41914 0.0
H695 H 0.8574 0.98316 0.44998 0.0
H696 H 0.89188 0.05072 0.49779 0.0
C697 C 0.86058 0.98637 0.55854 0.0
C698 C 0.85032 0.96809 0.50797 0.0
C699 C 0.85873 0.96966 0.57659 0.0
C700 C 0.85713 0.03025 0.43176 0.0
C701 C 0.8594 0.01256 0.44953 0.0
C702 C 0.87985 0.02802 0.50038 0.0
C703 C 0.86467 0.96525 0.542 0.0
C704 C 0.86487 0.98222 0.52266 0.0
C705 C 0.86405 0.0326 0.46643 0.0
C706 C 0.86493 0.01443 0.48566 0.0
H707 H 0.86841 0.88145 0.56273 0.0
H708 H 0.87112 0.91056 0.53141 0.0
H709 H 0.89122 0.02348 0.52972 0.0
H710 H 0.86707 0.1176 0.44675 0.0
H711 H 0.87005 0.08736 0.47747 0.0
C712 C 0.86009 0.59806 0.0574 0.0
C713 C 0.8595 0.58078 0.07545 0.0
C714 C 0.86388 0.57796 0.04063 0.0
C715 C 0.85692 0.48489 0.02129 0.0
H716 H 0.89234 0.52399 0.97798 0.0
C717 C 0.86721 0.40185 0.95184 0.0
C718 C 0.86362 0.42036 0.93437 0.0
C719 C 0.87011 0.4211 0.96898 0.0
C720 C 0.88223 0.5128 0.98988 0.0
H721 H 0.86316 0.52867 0.08992 0.0
H722 H 0.87001 0.49348 0.06056 0.0
H723 H 0.8917 0.5574 0.00831 0.0
H724 H 0.86121 0.47388 0.92123 0.0
H725 H 0.86612 0.50767 0.95129 0.0
H726 H 0.84708 0.44068 1.00286 0.0
C727 C 0.86727 0.52269 0.05944 0.0
C728 C 0.88189 0.53193 0.0073 0.0
C729 C 0.86355 0.5429 0.0763 0.0
C730 C 0.86412 0.45877 0.93439 0.0
C731 C 0.86692 0.47812 0.95165 0.0
C732 C 0.85726 0.46581 1.0039 0.0
C733 C 0.86714 0.53992 0.04135 0.0
C734 C 0.86906 0.51836 0.02321 0.0
C735 C 0.86935 0.45947 0.96924 0.0
C736 C 0.86981 0.47956 0.98791 0.0
H737 H 0.85704 0.62718 0.05611 0.0
H738 H 0.86334 0.59217 0.02701 0.0
H739 H 0.84646 0.47392 0.03305 0.0
H740 H 0.86714 0.37228 0.95239 0.0
H741 H 0.87253 0.40577 0.98213 0.0
C742 C 0.64811 0.52978 0.43251 0.0
C743 C 0.64519 0.56781 0.43117 0.0
C744 C 0.64588 0.51205 0.45026 0.0
C745 C 0.62562 0.52719 0.5012 0.0
H746 H 0.66756 0.4449 0.5113 0.0
C747 C 0.64832 0.46943 0.57723 0.0
C748 C 0.64578 0.43138 0.57917 0.0
C749 C 0.64603 0.48605 0.55919 0.0
C750 C 0.65566 0.46777 0.50862 0.0
H751 H 0.63769 0.61701 0.44751 0.0
H752 H 0.63478 0.58668 0.47821 0.0
H753 H 0.66764 0.47312 0.47965 0.0
H754 H 0.63874 0.38106 0.56362 0.0
H755 H 0.63529 0.41001 0.53229 0.0
H756 H 0.61456 0.5225 0.53061 0.0
C757 C 0.6379 0.57003 0.46563 0.0
C758 C 0.65552 0.48382 0.49041 0.0
C759 C 0.63968 0.58757 0.44791 0.0
C760 C 0.64057 0.41048 0.56273 0.0
C761 C 0.63877 0.42695 0.54473 0.0
C762 C 0.62614 0.51156 0.51952 0.0
C763 C 0.64114 0.53203 0.46716 0.0
C764 C 0.64051 0.51384 0.48639 0.0
C765 C 0.6417 0.46481 0.54273 0.0
C766 C 0.64114 0.48168 0.52339 0.0
H767 H 0.65238 0.51378 0.4199 0.0
H768 H 0.64805 0.48268 0.4507 0.0
H769 H 0.61341 0.54969 0.49867 0.0
H770 H 0.65247 0.48626 0.58957 0.0
H771 H 0.64846 0.51532 0.55799 0.0
C772 C 0.1426 0.59026 0.06197 0.0
C773 C 0.14765 0.56979 0.07859 0.0
C774 C 0.14123 0.57339 0.04406 0.0
C775 C 0.12915 0.4885 0.01917 0.0
H776 H 0.17064 0.52705 0.97932 0.0
C777 C 0.14198 0.41348 0.94714 0.0
C778 C 0.14734 0.43356 0.93048 0.0
C779 C 0.14045 0.43066 0.96497 0.0
C780 C 0.15853 0.5163 0.99008 0.0
H781 H 0.15456 0.51528 0.08941 0.0
H782 H 0.15132 0.48547 0.05792 0.0
H783 H 0.17062 0.55511 0.011 0.0
H784 H 0.15457 0.48778 0.91946 0.0
H785 H 0.15067 0.51826 0.95047 0.0
H786 H 0.11632 0.45055 0.99827 0.0
C787 C 0.14868 0.51473 0.05893 0.0
C788 C 0.15872 0.53224 0.00831 0.0
C789 C 0.15054 0.53176 0.07691 0.0
C790 C 0.1504 0.47154 0.93201 0.0
C791 C 0.14842 0.48891 0.94987 0.0
C792 C 0.12858 0.47297 1.00083 0.0
C793 C 0.14446 0.53556 0.04232 0.0
C794 C 0.14416 0.51836 0.02305 0.0
C795 C 0.14382 0.4686 0.96669 0.0
C796 C 0.14343 0.48642 0.98602 0.0
H797 H 0.14049 0.61965 0.06265 0.0
H798 H 0.13781 0.59002 0.03149 0.0
H799 H 0.11753 0.47759 0.03025 0.0
H800 H 0.13989 0.38407 0.94658 0.0
H801 H 0.13743 0.41377 0.97748 0.0
C802 C 0.36305 0.45803 0.57648 0.0
C803 C 0.36361 0.41963 0.57615 0.0
C804 C 0.36508 0.47812 0.55939 0.0
C805 C 0.35531 0.46684 0.50704 0.0
H806 H 0.38621 0.56146 0.50348 0.0
C807 C 0.36002 0.5463 0.43526 0.0
C808 C 0.35465 0.5838 0.43622 0.0
C809 C 0.36387 0.52604 0.45207 0.0
C810 C 0.37738 0.53514 0.50426 0.0
H811 H 0.36819 0.37241 0.55768 0.0
H812 H 0.37234 0.40722 0.52821 0.0
H813 H 0.38828 0.52702 0.53346 0.0
H814 H 0.34975 0.62946 0.45573 0.0
H815 H 0.35637 0.59428 0.4848 0.0
H816 H 0.34418 0.47504 0.47797 0.0
C817 C 0.36966 0.42194 0.54151 0.0
C818 C 0.37854 0.5154 0.52148 0.0
C819 C 0.36749 0.40195 0.55849 0.0
C820 C 0.35387 0.60065 0.45437 0.0
C821 C 0.35782 0.58049 0.47111 0.0
C822 C 0.35421 0.4865 0.48985 0.0
C823 C 0.3678 0.46025 0.54161 0.0
C824 C 0.36742 0.48104 0.52314 0.0
C825 C 0.36258 0.54282 0.47023 0.0
C826 C 0.36507 0.52103 0.48824 0.0
H827 H 0.35985 0.47251 0.58979 0.0
H828 H 0.36341 0.50757 0.56005 0.0
H829 H 0.34608 0.44085 0.50783 0.0
H830 H 0.36073 0.53239 0.42156 0.0
H831 H 0.36776 0.49714 0.45084 0.0
C832 C 0.29323 0.15349 0.19013 0.0
C833 C 0.30675 0.12379 0.18346 0.0
C834 C 0.28208 0.15219 0.20804 0.0
C835 C 0.27749 0.09951 0.2538 0.0
H836 H 0.21465 0.1453 0.25514 0.0
C837 C 0.21237 0.0879 0.3189 0.0
C838 C 0.20487 0.12203 0.32594 0.0
C839 C 0.22377 0.0853 0.30101 0.0
C840 C 0.23216 0.13239 0.25498 0.0
H841 H 0.31994 0.06981 0.19038 0.0
H842 H 0.2999 0.06689 0.22166 0.0
H843 H 0.2381 0.14677 0.22571 0.0
H844 H 0.20238 0.17981 0.31953 0.0
H845 H 0.22141 0.17509 0.28807 0.0
H846 H 0.27104 0.08465 0.28316 0.0
C847 C 0.29832 0.09165 0.21327 0.0
C848 C 0.24578 0.1335 0.23816 0.0
C849 C 0.30991 0.0933 0.1954 0.0
C850 C 0.20785 0.15313 0.31438 0.0
C851 C 0.21875 0.15043 0.2964 0.0
C852 C 0.26367 0.09798 0.2706 0.0
C853 C 0.28361 0.12068 0.21955 0.0
C854 C 0.26886 0.11776 0.23741 0.0
C855 C 0.22737 0.11667 0.28972 0.0
C856 C 0.24103 0.11495 0.27143 0.0
H857 H 0.29056 0.17732 0.18115 0.0
H858 H 0.27165 0.1756 0.21259 0.0
H859 H 0.29518 0.08724 0.25386 0.0
H860 H 0.21063 0.06357 0.32764 0.0
H861 H 0.23014 0.05892 0.29614 0.0
C862 C 0.31131 0.90877 0.81401 0.0
C863 C 0.30813 0.87769 0.82553 0.0
C864 C 0.29936 0.91165 0.79634 0.0
C865 C 0.2455 0.87312 0.77209 0.0
H866 H 0.27046 0.92135 0.72679 0.0
C867 C 0.20603 0.85418 0.69657 0.0
C868 C 0.20396 0.88481 0.68457 0.0
C869 C 0.21681 0.85717 0.71457 0.0
C870 C 0.26314 0.90828 0.73945 0.0
H871 H 0.29152 0.82437 0.82724 0.0
H872 H 0.27186 0.82832 0.79615 0.0
H873 H 0.29535 0.9173 0.75565 0.0
H874 H 0.21103 0.94281 0.68209 0.0
H875 H 0.23029 0.94801 0.71369 0.0
H876 H 0.21365 0.86306 0.7557 0.0
C877 C 0.28268 0.85118 0.80089 0.0
C878 C 0.27741 0.90588 0.75598 0.0
C879 C 0.29425 0.84861 0.81857 0.0
C880 C 0.21205 0.9189 0.69122 0.0
C881 C 0.22332 0.92177 0.70915 0.0
C882 C 0.2314 0.8752 0.75557 0.0
C883 C 0.28421 0.88333 0.78988 0.0
C884 C 0.26893 0.88766 0.77242 0.0
C885 C 0.2262 0.89074 0.72084 0.0
C886 C 0.24017 0.89232 0.73898 0.0
H887 H 0.32159 0.93183 0.81926 0.0
H888 H 0.30095 0.93684 0.7883 0.0
H889 H 0.23798 0.85992 0.78463 0.0
H890 H 0.20014 0.82753 0.6917 0.0
H891 H 0.21891 0.83273 0.72318 0.0
C892 C 0.79479 0.85094 0.69163 0.0
C893 C 0.80839 0.88026 0.68451 0.0
C894 C 0.78523 0.85208 0.71013 0.0
C895 C 0.76105 0.91493 0.74493 0.0
H896 H 0.76631 0.83385 0.78042 0.0
C897 C 0.71537 0.91522 0.82026 0.0
C898 C 0.7084 0.88139 0.82797 0.0
C899 C 0.72784 0.91683 0.80277 0.0
C900 C 0.76423 0.85652 0.77059 0.0
H901 H 0.82286 0.93368 0.69109 0.0
H902 H 0.80551 0.93614 0.72358 0.0
H903 H 0.78926 0.83311 0.75072 0.0
H904 H 0.7075 0.82306 0.82294 0.0
H905 H 0.72777 0.82587 0.79207 0.0
H906 H 0.7352 0.9377 0.76429 0.0
C907 C 0.80266 0.91204 0.71485 0.0
C908 C 0.77766 0.85621 0.75366 0.0
C909 C 0.81278 0.91049 0.69641 0.0
C910 C 0.71279 0.8495 0.81736 0.0
C911 C 0.72477 0.85114 0.79977 0.0
C912 C 0.74725 0.915 0.76177 0.0
C913 C 0.78853 0.883 0.72177 0.0
C914 C 0.77607 0.88522 0.74057 0.0
C915 C 0.73325 0.88465 0.79251 0.0
C916 C 0.7484 0.88554 0.77475 0.0
H917 H 0.79096 0.82752 0.68262 0.0
H918 H 0.77429 0.82944 0.71503 0.0
H919 H 0.75929 0.93747 0.73496 0.0
H920 H 0.71252 0.94019 0.82828 0.0
H921 H 0.73414 0.94315 0.7978 0.0
C922 C 0.70868 0.15258 0.19383 0.0
C923 C 0.70532 0.12112 0.18261 0.0
C924 C 0.71965 0.15032 0.21181 0.0
C925 C 0.76399 0.09768 0.23821 0.0
H926 H 0.73909 0.14933 0.28246 0.0
C927 C 0.80993 0.09459 0.31356 0.0
C928 C 0.80716 0.12562 0.32518 0.0
C929 C 0.79843 0.09268 0.29565 0.0
C930 C 0.74659 0.13525 0.27018 0.0
H931 H 0.71048 0.06249 0.18151 0.0
H932 H 0.7301 0.05859 0.21301 0.0
H933 H 0.71565 0.14725 0.25305 0.0
H934 H 0.79171 0.17972 0.3269 0.0
H935 H 0.77299 0.1775 0.29539 0.0
H936 H 0.79534 0.08667 0.25511 0.0
C937 C 0.72399 0.08493 0.20787 0.0
C938 C 0.73297 0.13379 0.25338 0.0
C939 C 0.71253 0.0871 0.18998 0.0
C940 C 0.79412 0.15552 0.31815 0.0
C941 C 0.78306 0.15393 0.30021 0.0
C942 C 0.77783 0.09952 0.255 0.0
C943 C 0.72795 0.11663 0.21883 0.0
C944 C 0.7416 0.11532 0.23715 0.0
C945 C 0.78418 0.12195 0.28902 0.0
C946 C 0.76945 0.11879 0.27116 0.0
H947 H 0.70344 0.17918 0.18843 0.0
H948 H 0.72258 0.17524 0.21986 0.0
H949 H 0.77119 0.08353 0.22583 0.0
H950 H 0.81953 0.07092 0.31886 0.0
H951 H 0.79968 0.06754 0.28754 0.0
C952 C 0.6969 0.59341 0.3145 0.0
C953 C 0.70004 0.62401 0.32637 0.0
C954 C 0.70844 0.59163 0.2966 0.0
C955 C 0.76072 0.63373 0.2713 0.0
H956 H 0.73556 0.58337 0.22672 0.0
C957 C 0.79847 0.65177 0.19484 0.0
C958 C 0.80171 0.62037 0.18355 0.0
C959 C 0.7875 0.64947 0.21283 0.0
C960 C 0.74291 0.59715 0.23916 0.0
H961 H 0.7162 0.67758 0.32851 0.0
H962 H 0.73499 0.67566 0.29703 0.0
H963 H 0.71156 0.58633 0.25608 0.0
H964 H 0.79626 0.56182 0.18231 0.0
H965 H 0.77662 0.55785 0.21381 0.0
H966 H 0.79167 0.64561 0.25412 0.0
C967 C 0.72462 0.65224 0.30165 0.0
C968 C 0.72916 0.59887 0.256 0.0
C969 C 0.71353 0.65367 0.31959 0.0
C970 C 0.79433 0.58637 0.19085 0.0
C971 C 0.78285 0.58416 0.20873 0.0
C972 C 0.77425 0.63243 0.25443 0.0
C973 C 0.7231 0.62064 0.2902 0.0
C974 C 0.73775 0.61763 0.27226 0.0
C975 C 0.77905 0.6158 0.21978 0.0
C976 C 0.76543 0.61443 0.23812 0.0
H977 H 0.6869 0.56993 0.31959 0.0
H978 H 0.70686 0.56678 0.28829 0.0
H979 H 0.7684 0.6474 0.28362 0.0
H980 H 0.80382 0.67836 0.1895 0.0
H981 H 0.78469 0.67433 0.22095 0.0
C982 C 0.79382 0.4167 0.82048 0.0
C983 C 0.80165 0.38295 0.82774 0.0
C984 C 0.78141 0.41841 0.80298 0.0
C985 C 0.74653 0.35746 0.77018 0.0
H986 H 0.74942 0.43987 0.73533 0.0
C987 C 0.71593 0.35251 0.69132 0.0
C988 C 0.70151 0.38114 0.68446 0.0
C989 C 0.7256 0.35378 0.70977 0.0
C990 C 0.74822 0.41691 0.74509 0.0
H991 H 0.80417 0.32501 0.8219 0.0
H992 H 0.784 0.3281 0.79102 0.0
H993 H 0.77355 0.44043 0.76465 0.0
H994 H 0.68567 0.43345 0.69149 0.0
H995 H 0.70321 0.43617 0.72391 0.0
H996 H 0.72203 0.33335 0.75012 0.0
C997 C 0.7863 0.35315 0.79907 0.0
C998 C 0.76206 0.41716 0.76191 0.0
C999 C 0.79822 0.35137 0.81666 0.0
C1000 C 0.69643 0.41079 0.69659 0.0
C1001 C 0.70664 0.41251 0.71499 0.0
C1002 C 0.73307 0.35699 0.75327 0.0
C1003 C 0.77689 0.38644 0.79227 0.0
C1004 C 0.76167 0.38717 0.77458 0.0
C1005 C 0.72155 0.38416 0.72164 0.0
C1006 C 0.73394 0.38651 0.74046 0.0
H1007 H 0.79592 0.44139 0.82888 0.0
H1008 H 0.7744 0.44454 0.79835 0.0
H1009 H 0.74504 0.33433 0.77978 0.0
H1010 H 0.72025 0.32951 0.68216 0.0
H1011 H 0.73713 0.33168 0.71447 0.0
C1012 C 0.19594 0.40814 0.81301 0.0
C1013 C 0.20063 0.37825 0.82508 0.0
C1014 C 0.20609 0.4096 0.79459 0.0
C1015 C 0.23197 0.35365 0.75619 0.0
H1016 H 0.2734 0.43622 0.74523 0.0
C1017 C 0.29759 0.34738 0.69305 0.0
C1018 C 0.30144 0.37905 0.68214 0.0
C1019 C 0.28548 0.34914 0.71057 0.0
C1020 C 0.26164 0.41321 0.74786 0.0
H1021 H 0.21856 0.32594 0.82725 0.0
H1022 H 0.23533 0.32771 0.79489 0.0
H1023 H 0.24909 0.43592 0.77445 0.0
H1024 H 0.29621 0.43763 0.6812 0.0
H1025 H 0.27438 0.44076 0.71158 0.0
H1026 H 0.24388 0.33101 0.72965 0.0
C1027 C 0.22414 0.35017 0.79965 0.0
C1028 C 0.24771 0.4131 0.76461 0.0
C1029 C 0.21453 0.34912 0.81813 0.0
C1030 C 0.29379 0.41285 0.68947 0.0
C1031 C 0.28121 0.41456 0.70689 0.0
C1032 C 0.24554 0.35399 0.73934 0.0
C1033 C 0.22055 0.38079 0.78786 0.0
C1034 C 0.23307 0.38301 0.76909 0.0
C1035 C 0.27632 0.38254 0.71745 0.0
C1036 C 0.26101 0.38339 0.73508 0.0
H1037 H 0.18558 0.43117 0.81819 0.0
H1038 H 0.20301 0.43346 0.78573 0.0
H1039 H 0.22066 0.33026 0.75922 0.0
H1040 H 0.30339 0.32098 0.68775 0.0
H1041 H 0.28287 0.32404 0.71851 0.0
C1042 C 0.19409 0.59492 0.19651 0.0
C1043 C 0.19896 0.62491 0.18456 0.0
C1044 C 0.2043 0.59298 0.2149 0.0
C1045 C 0.23203 0.64841 0.25302 0.0
H1046 H 0.27057 0.56281 0.26433 0.0
C1047 C 0.29931 0.65204 0.31478 0.0
C1048 C 0.30122 0.62116 0.32661 0.0
C1049 C 0.2872 0.6501 0.29728 0.0
C1050 C 0.25965 0.58671 0.26156 0.0
H1051 H 0.2173 0.67692 0.18256 0.0
H1052 H 0.23427 0.67429 0.21478 0.0
H1053 H 0.24575 0.56418 0.23537 0.0
H1054 H 0.29279 0.56361 0.3291 0.0
H1055 H 0.27114 0.56022 0.29861 0.0
H1056 H 0.24548 0.67101 0.2791 0.0
C1057 C 0.22282 0.65214 0.21002 0.0
C1058 C 0.2454 0.58743 0.24498 0.0
C1059 C 0.21309 0.65369 0.1916 0.0
C1060 C 0.2919 0.58771 0.32011 0.0
C1061 C 0.27939 0.58587 0.30266 0.0
C1062 C 0.24601 0.64756 0.26964 0.0
C1063 C 0.21907 0.62138 0.22169 0.0
C1064 C 0.2318 0.61859 0.24037 0.0
C1065 C 0.27619 0.61739 0.29133 0.0
C1066 C 0.26046 0.61706 0.27396 0.0
H1067 H 0.18359 0.57211 0.19124 0.0
H1068 H 0.20106 0.56903 0.22365 0.0
H1069 H 0.22151 0.67262 0.24994 0.0
H1070 H 0.30638 0.67815 0.31945 0.0
H1071 H 0.28585 0.67467 0.2887 0.0
C1072 C 0.41715 0.17993 0.13629 0.0
C1073 C 0.40353 0.14993 0.14261 0.0
C1074 C 0.44168 0.18224 0.1406 0.0
C1075 C 0.49244 0.12126 0.15194 0.0
H1076 H 0.52735 0.21205 0.15833 0.0
C1077 C 0.59592 0.12305 0.15479 0.0
C1078 C 0.60648 0.14854 0.14228 0.0
C1079 C 0.57144 0.12544 0.15934 0.0
C1080 C 0.51784 0.18645 0.15658 0.0
H1081 H 0.40453 0.10041 0.1597 0.0
H1082 H 0.44701 0.10488 0.16752 0.0
H1083 H 0.48346 0.21266 0.15807 0.0
H1084 H 0.59999 0.19789 0.12582 0.0
H1085 H 0.55759 0.20192 0.13367 0.0
H1086 H 0.5267 0.09517 0.1499 0.0
C1087 C 0.439 0.12607 0.15877 0.0
C1088 C 0.4927 0.18682 0.15638 0.0
C1089 C 0.41459 0.12363 0.15437 0.0
C1090 C 0.5924 0.17761 0.13538 0.0
C1091 C 0.56807 0.18012 0.14001 0.0
C1092 C 0.51753 0.1209 0.15218 0.0
C1093 C 0.45306 0.15475 0.15143 0.0
C1094 C 0.47968 0.15429 0.15369 0.0
C1095 C 0.55712 0.15355 0.15163 0.0
C1096 C 0.53056 0.15356 0.1541 0.0
H1097 H 0.4092 0.20063 0.12719 0.0
H1098 H 0.45195 0.20461 0.13459 0.0
H1099 H 0.48309 0.09574 0.14951 0.0
H1100 H 0.60628 0.10038 0.16038 0.0
H1101 H 0.56359 0.10477 0.16852 0.0
C1102 C 0.0958 0.81914 0.6349 0.0
C1103 C 0.10796 0.85104 0.64047 0.0
C1104 C 0.07125 0.8152 0.63835 0.0
C1105 C 0.01868 0.85475 0.6642 0.0
H1106 H 0.98384 0.81549 0.62066 0.0
C1107 C 0.91734 0.87856 0.6505 0.0
C1108 C 0.90395 0.85065 0.64164 0.0
C1109 C 0.94196 0.87439 0.65371 0.0
C1110 C 0.99325 0.82588 0.63312 0.0
H1111 H 0.10418 0.90312 0.65492 0.0
H1112 H 0.06101 0.89671 0.66058 0.0
H1113 H 0.02738 0.81652 0.62012 0.0
H1114 H 0.90575 0.79543 0.63042 0.0
H1115 H 0.94873 0.78811 0.63613 0.0
H1116 H 0.98421 0.8652 0.67684 0.0
C1117 C 0.07055 0.87443 0.65377 0.0
C1118 C 0.0183 0.82649 0.63282 0.0
C1119 C 0.09529 0.87818 0.6505 0.0
C1120 C 0.91551 0.81759 0.63714 0.0
C1121 C 0.94019 0.81348 0.6403 0.0
C1122 C 0.99351 0.85428 0.66445 0.0
C1123 C 0.05811 0.8433 0.64724 0.0
C1124 C 0.0314 0.84112 0.64829 0.0
C1125 C 0.95382 0.84223 0.64812 0.0
C1126 C 0.98051 0.84007 0.64883 0.0
H1127 H 0.10516 0.79748 0.62739 0.0
H1128 H 0.06246 0.79041 0.6336 0.0
H1129 H 0.02816 0.86585 0.67644 0.0
H1130 H 0.909 0.90431 0.65427 0.0
H1131 H 0.95191 0.89715 0.65966 0.0
C1132 C 0.59677 0.87879 0.8537 0.0
C1133 C 0.60753 0.85296 0.86589 0.0
C1134 C 0.57227 0.87629 0.84923 0.0
C1135 C 0.51871 0.81495 0.85205 0.0
H1136 H 0.4841 0.90552 0.86003 0.0
C1137 C 0.41808 0.82131 0.873 0.0
C1138 C 0.40446 0.8514 0.86681 0.0
C1139 C 0.44261 0.81902 0.86865 0.0
C1140 C 0.49341 0.88004 0.85736 0.0
H1141 H 0.60142 0.80282 0.88178 0.0
H1142 H 0.559 0.79861 0.8741 0.0
H1143 H 0.5277 0.90607 0.85922 0.0
H1144 H 0.40548 0.90116 0.84992 0.0
H1145 H 0.44794 0.89676 0.84203 0.0
H1146 H 0.48429 0.78881 0.85076 0.0
C1147 C 0.56931 0.82077 0.86793 0.0
C1148 C 0.51849 0.88039 0.85687 0.0
C1149 C 0.59367 0.82336 0.87246 0.0
C1150 C 0.41553 0.87787 0.85516 0.0
C1151 C 0.43994 0.87547 0.85072 0.0
C1152 C 0.49356 0.81459 0.85252 0.0
C1153 C 0.55812 0.84776 0.85674 0.0
C1154 C 0.53149 0.84778 0.85458 0.0
C1155 C 0.45398 0.84665 0.85791 0.0
C1156 C 0.4806 0.84707 0.85552 0.0
H1157 H 0.60695 0.90188 0.84838 0.0
H1158 H 0.56425 0.89727 0.84035 0.0
H1159 H 0.52817 0.78938 0.85002 0.0
H1160 H 0.41012 0.80048 0.88202 0.0
H1161 H 0.45288 0.79654 0.87453 0.0
C1162 C 0.91439 0.12381 0.35609 0.0
C1163 C 0.90312 0.1502 0.36766 0.0
C1164 C 0.93892 0.12606 0.35206 0.0
C1165 C 0.99265 0.18664 0.355 0.0
H1166 H 0.02651 0.09482 0.36131 0.0
C1167 C 0.09261 0.17719 0.37539 0.0
C1168 C 0.10665 0.1483 0.36822 0.0
C1169 C 0.06818 0.17959 0.37108 0.0
C1170 C 0.01738 0.1206 0.3591 0.0
H1171 H 0.90859 0.20082 0.3832 0.0
H1172 H 0.95154 0.20449 0.37644 0.0
H1173 H 0.98288 0.09554 0.36165 0.0
H1174 H 0.10619 0.10023 0.35006 0.0
H1175 H 0.06332 0.10442 0.3425 0.0
H1176 H 0.02734 0.21176 0.35312 0.0
C1177 C 0.94135 0.18219 0.37029 0.0
C1178 C 0.99228 0.12105 0.35931 0.0
C1179 C 0.9167 0.18006 0.37422 0.0
C1180 C 0.09589 0.12278 0.35584 0.0
C1181 C 0.0713 0.12505 0.35162 0.0
C1182 C 0.0178 0.18618 0.35483 0.0
C1183 C 0.95289 0.15464 0.3596 0.0
C1184 C 0.97956 0.15414 0.35758 0.0
C1185 C 0.05707 0.15308 0.35954 0.0
C1186 C 0.03047 0.15322 0.35723 0.0
H1187 H 0.90439 0.10069 0.35059 0.0
H1188 H 0.94706 0.10485 0.3434 0.0
H1189 H 0.98347 0.21252 0.35332 0.0
H1190 H 0.10035 0.19749 0.38486 0.0
H1191 H 0.05779 0.20132 0.37758 0.0
C1192 C 0.91188 0.68167 0.1385 0.0
C1193 C 0.90014 0.64867 0.14273 0.0
C1194 C 0.93636 0.68581 0.14211 0.0
C1195 C 0.98977 0.6443 0.16578 0.0
H1196 H 0.02319 0.68819 0.12273 0.0
C1197 C 0.09078 0.62274 0.15013 0.0
C1198 C 0.1039 0.65114 0.14144 0.0
C1199 C 0.06623 0.62657 0.15377 0.0
C1200 C 0.01421 0.67652 0.13508 0.0
H1201 H 0.9045 0.59485 0.15514 0.0
H1202 H 0.94762 0.60172 0.16113 0.0
H1203 H 0.97967 0.68684 0.12301 0.0
H1204 H 0.1017 0.70683 0.13095 0.0
H1205 H 0.05885 0.71366 0.1375 0.0
H1206 H 0.02461 0.63308 0.17751 0.0
C1207 C 0.93778 0.62463 0.15523 0.0
C1208 C 0.98916 0.67571 0.13525 0.0
C1209 C 0.91308 0.62063 0.1518 0.0
C1210 C 0.09214 0.6843 0.13751 0.0
C1211 C 0.06753 0.68812 0.14115 0.0
C1212 C 0.01495 0.64508 0.1656 0.0
C1213 C 0.94986 0.65687 0.14981 0.0
C1214 C 0.97657 0.65936 0.15051 0.0
C1215 C 0.05415 0.65893 0.14884 0.0
C1216 C 0.02747 0.66091 0.15013 0.0
H1217 H 0.90227 0.70398 0.13175 0.0
H1218 H 0.94489 0.71138 0.13826 0.0
H1219 H 0.98067 0.63182 0.17784 0.0
H1220 H 0.09926 0.59688 0.15347 0.0
H1221 H 0.05652 0.60344 0.15957 0.0
C1222 C 0.59165 0.37981 0.65195 0.0
C1223 C 0.60504 0.35131 0.64361 0.0
C1224 C 0.5672 0.37543 0.65585 0.0
C1225 C 0.51578 0.32299 0.63812 0.0
H1226 H 0.48179 0.36926 0.68019 0.0
C1227 C 0.4135 0.3171 0.64095 0.0
C1228 C 0.40171 0.35031 0.64458 0.0
C1229 C 0.43791 0.31311 0.64494 0.0
C1230 C 0.49102 0.35631 0.66832 0.0
H1231 H 0.60347 0.29493 0.63411 0.0
H1232 H 0.56082 0.28717 0.64111 0.0
H1233 H 0.52574 0.36898 0.67988 0.0
H1234 H 0.40586 0.40468 0.65637 0.0
H1235 H 0.44881 0.39809 0.66299 0.0
H1236 H 0.48137 0.31131 0.62619 0.0
C1237 C 0.5692 0.31319 0.64428 0.0
C1238 C 0.5162 0.35609 0.66816 0.0
C1239 C 0.59369 0.31756 0.64037 0.0
C1240 C 0.41448 0.37872 0.6535 0.0
C1241 C 0.43909 0.37488 0.65729 0.0
C1242 C 0.49072 0.32326 0.63827 0.0
C1243 C 0.55551 0.34242 0.65154 0.0
C1244 C 0.52887 0.33975 0.65293 0.0
C1245 C 0.45126 0.34244 0.6524 0.0
C1246 C 0.47797 0.34019 0.65327 0.0
H1247 H 0.59981 0.40613 0.65476 0.0
H1248 H 0.55723 0.3986 0.66132 0.0
H1249 H 0.52488 0.31089 0.62595 0.0
H1250 H 0.40402 0.29454 0.63431 0.0
H1251 H 0.44651 0.2874 0.64149 0.0
C1252 C 0.0912 0.32242 0.87292 0.0
C1253 C 0.10483 0.35253 0.86675 0.0
C1254 C 0.06667 0.32015 0.86857 0.0
C1255 C 0.01589 0.38119 0.85743 0.0
H1256 H 0.98116 0.29057 0.84986 0.0
C1257 C 0.9125 0.37975 0.85395 0.0
C1258 C 0.9018 0.35372 0.86605 0.0
C1259 C 0.937 0.3774 0.84945 0.0
C1260 C 0.99061 0.31612 0.85196 0.0
H1261 H 0.10382 0.40236 0.84991 0.0
H1262 H 0.06135 0.398 0.84204 0.0
H1263 H 0.02504 0.29004 0.85055 0.0
H1264 H 0.90801 0.30339 0.88175 0.0
H1265 H 0.95042 0.29945 0.87403 0.0
H1266 H 0.98158 0.40716 0.85941 0.0
C1267 C 0.06936 0.37667 0.85069 0.0
C1268 C 0.01575 0.31579 0.8524 0.0
C1269 C 0.09376 0.37905 0.85513 0.0
C1270 C 0.91572 0.3241 0.87251 0.0
C1271 C 0.94007 0.32166 0.86795 0.0
C1272 C 0.9908 0.38152 0.85697 0.0
C1273 C 0.05531 0.34783 0.85786 0.0
C1274 C 0.0287 0.34825 0.85548 0.0
C1275 C 0.9512 0.34882 0.85683 0.0
C1276 C 0.97782 0.34891 0.85462 0.0
H1277 H 0.09915 0.30155 0.88192 0.0
H1278 H 0.05639 0.29765 0.87443 0.0
H1279 H 0.02519 0.40665 0.86016 0.0
H1280 H 0.90228 0.40286 0.84871 0.0
H1281 H 0.94498 0.39852 0.84062 0.0
C1282 C 0.40981 0.6224 0.35747 0.0
C1283 C 0.39908 0.6478 0.36994 0.0
C1284 C 0.43443 0.62452 0.35334 0.0
C1285 C 0.48798 0.68542 0.35665 0.0
H1286 H 0.52296 0.59468 0.36285 0.0
C1287 C 0.58933 0.67931 0.37505 0.0
C1288 C 0.60287 0.64949 0.36838 0.0
C1289 C 0.56463 0.68139 0.37134 0.0
C1290 C 0.51354 0.62023 0.36067 0.0
H1291 H 0.40551 0.69655 0.3869 0.0
H1292 H 0.44813 0.70013 0.37975 0.0
H1293 H 0.47931 0.59398 0.36282 0.0
H1294 H 0.60141 0.59995 0.35134 0.0
H1295 H 0.55864 0.60403 0.34451 0.0
H1296 H 0.52229 0.71176 0.35493 0.0
C1297 C 0.43768 0.67861 0.37312 0.0
C1298 C 0.48843 0.61979 0.36066 0.0
C1299 C 0.41321 0.67636 0.37735 0.0
C1300 C 0.59147 0.62306 0.35691 0.0
C1301 C 0.56687 0.62526 0.3531 0.0
C1302 C 0.51313 0.68586 0.35661 0.0
C1303 C 0.44874 0.65228 0.36142 0.0
C1304 C 0.47533 0.65244 0.35901 0.0
C1305 C 0.55296 0.65382 0.36076 0.0
C1306 C 0.52625 0.65332 0.35895 0.0
H1307 H 0.39944 0.60011 0.35151 0.0
H1308 H 0.44237 0.60402 0.3441 0.0
H1309 H 0.47843 0.71102 0.35509 0.0
H1310 H 0.59753 0.7001 0.38397 0.0
H1311 H 0.55451 0.70367 0.37759 0.0
C1312 C 0.2555 0.03587 0.11525 0.0
C1313 C 0.2799 0.03596 0.12045 0.0
C1314 C 0.24277 0.00273 0.11416 0.0
C1315 C 0.2529 0.90227 0.11096 0.0
H1316 H 0.19112 0.89311 0.13621 0.0
C1317 C 0.2186 0.76432 0.13712 0.0
C1318 C 0.19648 0.75329 0.12933 0.0
C1319 C 0.22597 0.8007 0.13578 0.0
C1320 C 0.20829 0.89545 0.12901 0.0
H1321 H 0.31023 1.00136 0.1278 0.0
H1322 H 0.28834 0.9447 0.12618 0.0
H1323 H 0.2093 0.95379 0.13216 0.0
H1324 H 0.16395 0.77238 0.1154 0.0
H1325 H 0.17675 0.8363 0.11353 0.0
H1326 H 0.25245 0.84401 0.10855 0.0
C1327 C 0.27887 0.96971 0.12276 0.0
C1328 C 0.21861 0.93012 0.12655 0.0
C1329 C 0.29141 0.00243 0.12389 0.0
C1330 C 0.18116 0.77999 0.12146 0.0
C1331 C 0.18841 0.81655 0.12039 0.0
C1332 C 0.24281 0.86782 0.11366 0.0
C1333 C 0.25437 0.96929 0.11801 0.0
C1334 C 0.24136 0.93376 0.11795 0.0
C1335 C 0.21124 0.82691 0.12693 0.0
C1336 C 0.22071 0.86399 0.1231 0.0
H1337 H 0.24616 0.0613 0.11255 0.0
H1338 H 0.22391 0.00326 0.11038 0.0
H1339 H 0.27014 0.90413 0.10382 0.0
H1340 H 0.23085 0.74454 0.14327 0.0
H1341 H 0.24358 0.80819 0.14111 0.0
C1342 C 0.25714 0.95973 0.62572 0.0
C1343 C 0.23196 0.96165 0.62419 0.0
C1344 C 0.27086 0.99167 0.62757 0.0
C1345 C 0.26751 0.08161 0.64778 0.0
H1346 H 0.31405 0.11558 0.61045 0.0
C1347 C 0.29184 0.23211 0.64097 0.0
C1348 C 0.31447 0.24307 0.63417 0.0
C1349 C 0.28595 0.19524 0.64241 0.0
C1350 C 0.30158 0.10616 0.62129 0.0
H1351 H 0.20154 0.99872 0.62298 0.0
H1352 H 0.22544 0.05407 0.62667 0.0
H1353 H 0.29579 0.05508 0.60675 0.0
H1354 H 0.34926 0.22368 0.6246 0.0
H1355 H 0.33908 0.15872 0.62746 0.0
H1356 H 0.27306 0.13215 0.66242 0.0
C1357 C 0.2345 0.02789 0.62629 0.0
C1358 C 0.29105 0.07162 0.61907 0.0
C1359 C 0.22088 0.99618 0.62406 0.0
C1360 C 0.33166 0.21611 0.62989 0.0
C1361 C 0.32573 0.17892 0.63135 0.0
C1362 C 0.27828 0.11573 0.6502 0.0
C1363 C 0.25954 0.02589 0.62832 0.0
C1364 C 0.27336 0.05969 0.63197 0.0
C1365 C 0.30258 0.16807 0.63722 0.0
C1366 C 0.29477 0.1291 0.63659 0.0
H1367 H 0.2662 0.93354 0.62585 0.0
H1368 H 0.29017 0.98958 0.6291 0.0
H1369 H 0.25414 0.07267 0.65806 0.0
H1370 H 0.2782 0.25214 0.64449 0.0
H1371 H 0.26785 0.18821 0.64671 0.0
C1372 C 0.18543 0.22355 0.89214 0.0
C1373 C 0.19586 0.24934 0.87965 0.0
C1374 C 0.1929 0.18709 0.89196 0.0
C1375 C 0.24596 0.13268 0.87872 0.0
H1376 H 0.20479 0.04903 0.88823 0.0
C1377 C 0.28083 0.98883 0.86822 0.0
C1378 C 0.27774 0.96349 0.88319 0.0
C1379 C 0.26824 0.02157 0.86804 0.0
C1380 C 0.21647 0.07224 0.88579 0.0
H1381 H 0.22107 0.25624 0.85622 0.0
H1382 H 0.23368 0.19247 0.85559 0.0
H1383 H 0.1872 0.11038 0.886 0.0
H1384 H 0.25781 0.95179 0.90916 0.0
H1385 H 0.23549 0.01008 0.90888 0.0
H1386 H 0.27514 0.09483 0.87832 0.0
C1387 C 0.22021 0.20072 0.86593 0.0
C1388 C 0.20644 0.10732 0.88445 0.0
C1389 C 0.21284 0.23725 0.86617 0.0
C1390 C 0.26063 0.97089 0.89751 0.0
C1391 C 0.24789 0.00413 0.89734 0.0
C1392 C 0.25589 0.09782 0.87997 0.0
C1393 C 0.21088 0.17544 0.87922 0.0
C1394 C 0.22108 0.13791 0.88065 0.0
C1395 C 0.25217 0.03016 0.88284 0.0
C1396 C 0.24127 0.06715 0.88325 0.0
H1397 H 0.17224 0.23179 0.9027 0.0
H1398 H 0.18538 0.16849 0.90244 0.0
H1399 H 0.25789 0.15562 0.8764 0.0
H1400 H 0.29342 0.98373 0.85667 0.0
H1401 H 0.27146 0.04063 0.85643 0.0
C1402 C 0.32917 0.7861 0.38611 0.0
C1403 C 0.31529 0.76123 0.37547 0.0
C1404 C 0.32329 0.82333 0.38626 0.0
C1405 C 0.29116 0.88925 0.39601 0.0
H1406 H 0.27356 0.9453 0.35093 0.0
C1407 C 0.22656 0.01318 0.39715 0.0
C1408 C 0.2329 0.04394 0.38618 0.0
C1409 C 0.24033 0.98124 0.3963 0.0
C1410 C 0.27864 0.93014 0.36365 0.0
H1411 H 0.28549 0.75603 0.3557 0.0
H1412 H 0.27574 0.82109 0.35547 0.0
H1413 H 0.29199 0.88499 0.34716 0.0
H1414 H 0.25896 0.06544 0.36597 0.0
H1415 H 0.28274 0.00938 0.36426 0.0
H1416 H 0.27691 0.93375 0.41249 0.0
C1417 C 0.29097 0.81186 0.36383 0.0
C1418 C 0.28907 0.89559 0.36148 0.0
C1419 C 0.29654 0.77462 0.36396 0.0
C1420 C 0.25364 0.04231 0.37468 0.0
C1421 C 0.26718 0.01016 0.37359 0.0
C1422 C 0.28037 0.92354 0.39817 0.0
C1423 C 0.30376 0.8364 0.37548 0.0
C1424 C 0.2952 0.87462 0.37764 0.0
C1425 C 0.26052 0.97917 0.38423 0.0
C1426 C 0.27374 0.94415 0.38202 0.0
H1427 H 0.34355 0.77652 0.39529 0.0
H1428 H 0.33352 0.84172 0.39529 0.0
H1429 H 0.29545 0.87354 0.40872 0.0
H1430 H 0.2107 0.01358 0.40615 0.0
H1431 H 0.23467 0.9577 0.40455 0.0
C1432 C 0.79143 0.23526 0.86796 0.0
C1433 C 0.8139 0.24597 0.8752 0.0
C1434 C 0.78525 0.19847 0.86676 0.0
C1435 C 0.79927 0.11023 0.88948 0.0
H1436 H 0.75266 0.07575 0.85232 0.0
C1437 C 0.75458 0.96445 0.88733 0.0
C1438 C 0.72931 0.96609 0.88734 0.0
C1439 C 0.76827 0.99634 0.88526 0.0
C1440 C 0.76576 0.08499 0.86273 0.0
H1441 H 0.84816 0.22623 0.88571 0.0
H1442 H 0.83749 0.16142 0.88326 0.0
H1443 H 0.77223 0.13459 0.84745 0.0
H1444 H 0.69868 0.00266 0.88563 0.0
H1445 H 0.72258 0.05793 0.8816 0.0
H1446 H 0.79259 0.06012 0.90466 0.0
C1447 C 0.82448 0.18174 0.87886 0.0
C1448 C 0.77692 0.11873 0.86002 0.0
C1449 C 0.8307 0.21884 0.88007 0.0
C1450 C 0.71808 1.00036 0.88574 0.0
C1451 C 0.73172 0.032 0.8833 0.0
C1452 C 0.78834 0.07608 0.89202 0.0
C1453 C 0.80141 0.17117 0.87265 0.0
C1454 C 0.79316 0.13246 0.87371 0.0
C1455 C 0.75689 0.03023 0.88277 0.0
C1456 C 0.77092 0.0638 0.87898 0.0
H1457 H 0.77811 0.25545 0.86398 0.0
H1458 H 0.76723 0.19166 0.86216 0.0
H1459 H 0.81151 0.11996 0.90041 0.0
H1460 H 0.76376 0.93847 0.88857 0.0
H1461 H 0.78768 0.9944 0.88493 0.0
C1462 C 0.75873 0.03154 0.3971 0.0
C1463 C 0.77591 0.03868 0.38279 0.0
C1464 C 0.74605 0.99826 0.39709 0.0
C1465 C 0.7542 0.90419 0.38026 0.0
H1466 H 0.68556 0.89161 0.3866 0.0
C1467 C 0.71115 0.76455 0.36721 0.0
C1468 C 0.69431 0.75258 0.38083 0.0
C1469 C 0.71849 0.80108 0.3668 0.0
C1470 C 0.70479 0.89468 0.38496 0.0
H1471 H 0.7918 0.01789 0.35648 0.0
H1472 H 0.76991 0.96091 0.3565 0.0
H1473 H 0.7031 0.95304 0.3884 0.0
H1474 H 0.67091 0.77031 0.40398 0.0
H1475 H 0.68399 0.83367 0.40343 0.0
H1476 H 0.75624 0.84633 0.377 0.0
C1477 C 0.76659 0.98021 0.36798 0.0
C1478 C 0.71479 0.92981 0.38605 0.0
C1479 C 0.77914 0.013 0.368 0.0
C1480 C 0.68399 0.77847 0.39331 0.0
C1481 C 0.69142 0.81495 0.39296 0.0
C1482 C 0.7443 0.8693 0.37924 0.0
C1483 C 0.75045 0.97191 0.38277 0.0
C1484 C 0.73957 0.9349 0.38339 0.0
C1485 C 0.70926 0.82649 0.38007 0.0
C1486 C 0.71944 0.86405 0.38129 0.0
H1487 H 0.75581 0.05089 0.40861 0.0
H1488 H 0.73359 0.99253 0.40863 0.0
H1489 H 0.77344 0.90718 0.37853 0.0
H1490 H 0.7193 0.74548 0.35725 0.0
H1491 H 0.73185 0.80925 0.35636 0.0
C1492 C 0.75233 0.03885 0.13195 0.0
C1493 C 0.73069 0.04099 0.12159 0.0
C1494 C 0.76497 0.00584 0.13312 0.0
C1495 C 0.79315 0.93452 0.12772 0.0
H1496 H 0.75261 0.84908 0.1332 0.0
C1497 C 0.8277 0.78431 0.12432 0.0
C1498 C 0.81482 0.75792 0.13474 0.0
C1499 C 0.82036 0.82095 0.12452 0.0
C1500 C 0.76429 0.87263 0.13198 0.0
H1501 H 0.70628 0.01086 0.10323 0.0
H1502 H 0.72858 0.95377 0.10481 0.0
H1503 H 0.73435 0.90847 0.12884 0.0
H1504 H 0.7858 0.74945 0.15492 0.0
H1505 H 0.77369 0.81333 0.15598 0.0
H1506 H 0.82313 0.89828 0.13132 0.0
C1507 C 0.73543 0.97719 0.11257 0.0
C1508 C 0.75377 0.90675 0.1291 0.0
C1509 C 0.72271 0.01001 0.11155 0.0
C1510 C 0.7959 0.76924 0.14663 0.0
C1511 C 0.78881 0.80578 0.14705 0.0
C1512 C 0.80374 0.9002 0.13067 0.0
C1513 C 0.75632 0.97435 0.12383 0.0
C1514 C 0.768 0.93814 0.1268 0.0
C1515 C 0.80017 0.8318 0.13528 0.0
C1516 C 0.7894 0.86881 0.13286 0.0
H1517 H 0.75893 0.06221 0.1399 0.0
H1518 H 0.78091 0.00463 0.14199 0.0
H1519 H 0.80467 0.95811 0.12592 0.0
H1520 H 0.84224 0.77623 0.1149 0.0
H1521 H 0.82951 0.8402 0.11526 0.0
C1522 C 0.72037 0.24071 0.63875 0.0
C1523 C 0.6979 0.25109 0.63138 0.0
C1524 C 0.7279 0.20437 0.63765 0.0
C1525 C 0.71013 0.10909 0.63172 0.0
H1526 H 0.77153 0.10026 0.60585 0.0
C1527 C 0.75632 0.96849 0.61685 0.0
C1528 C 0.78083 0.96796 0.62171 0.0
C1529 C 0.7438 0.00182 0.61607 0.0
C1530 C 0.75442 0.10217 0.61319 0.0
H1531 H 0.66493 0.23099 0.61855 0.0
H1532 H 0.67802 0.16723 0.61707 0.0
H1533 H 0.75406 0.16042 0.61085 0.0
H1534 H 0.81156 0.00197 0.62877 0.0
H1535 H 0.79 0.05899 0.62768 0.0
H1536 H 0.71103 0.05074 0.63473 0.0
C1537 C 0.68984 0.18739 0.62342 0.0
C1538 C 0.74446 0.13665 0.61606 0.0
C1539 C 0.68241 0.22387 0.62425 0.0
C1540 C 0.79265 1.00126 0.62511 0.0
C1541 C 0.78029 0.03418 0.62429 0.0
C1542 C 0.72032 0.0744 0.62908 0.0
C1543 C 0.71299 0.17762 0.62945 0.0
C1544 C 0.72252 0.14053 0.62572 0.0
C1545 C 0.7557 0.03502 0.61991 0.0
C1546 C 0.74289 0.07069 0.6202 0.0
H1547 H 0.73274 0.26093 0.64433 0.0
H1548 H 0.74576 0.19735 0.64261 0.0
H1549 H 0.69307 0.11146 0.63908 0.0
H1550 H 0.74675 0.94325 0.61419 0.0
H1551 H 0.72485 0.00163 0.61255 0.0
C1552 C 0.67767 0.28448 0.12329 0.0
C1553 C 0.69188 0.25902 0.13324 0.0
C1554 C 0.68388 0.32156 0.12325 0.0
C1555 C 0.71671 0.38666 0.11305 0.0
H1556 H 0.73517 0.44189 0.15818 0.0
C1557 C 0.782 0.50993 0.11235 0.0
C1558 C 0.77537 0.54076 0.12313 0.0
C1559 C 0.76824 0.47797 0.11311 0.0
C1560 C 0.72987 0.42692 0.14547 0.0
H1561 H 0.72265 0.25252 0.15194 0.0
H1562 H 0.73298 0.3174 0.15241 0.0
H1563 H 0.71651 0.38169 0.16189 0.0
H1564 H 0.74886 0.5624 0.14295 0.0
H1565 H 0.72517 0.50629 0.14454 0.0
H1566 H 0.73105 0.43117 0.09661 0.0
C1567 C 0.71726 0.3087 0.14448 0.0
C1568 C 0.71929 0.39249 0.1476 0.0
C1569 C 0.71136 0.27161 0.1442 0.0
C1570 C 0.7544 0.53919 0.13438 0.0
C1571 C 0.7409 0.50704 0.1354 0.0
C1572 C 0.72769 0.4208 0.11092 0.0
C1573 C 0.70407 0.33384 0.13349 0.0
C1574 C 0.71283 0.37189 0.13141 0.0
C1575 C 0.74782 0.47601 0.12493 0.0
C1576 C 0.73459 0.44108 0.12711 0.0
H1577 H 0.6627 0.27549 0.11456 0.0
H1578 H 0.67338 0.34047 0.11474 0.0
H1579 H 0.71214 0.37116 0.10033 0.0
H1580 H 0.79803 0.51031 0.10354 0.0
H1581 H 0.77405 0.45434 0.10499 0.0
C1582 C 0.75223 0.46828 0.61623 0.0
C1583 C 0.72765 0.4679 0.62085 0.0
C1584 C 0.76478 0.50159 0.61535 0.0
C1585 C 0.75434 0.60201 0.612 0.0
H1586 H 0.81521 0.61124 0.63859 0.0
C1587 C 0.78805 0.74037 0.63815 0.0
C1588 C 0.81053 0.75087 0.63084 0.0
C1589 C 0.78055 0.70403 0.63694 0.0
C1590 C 0.79829 0.60888 0.63104 0.0
H1591 H 0.6968 0.50207 0.62728 0.0
H1592 H 0.71838 0.55907 0.62601 0.0
H1593 H 0.79726 0.55055 0.63412 0.0
H1594 H 0.84356 0.73097 0.61801 0.0
H1595 H 0.83054 0.66717 0.61637 0.0
H1596 H 0.75482 0.66026 0.60963 0.0
C1597 C 0.72815 0.53417 0.6229 0.0
C1598 C 0.78811 0.57421 0.62832 0.0
C1599 C 0.71577 0.50128 0.62382 0.0
C1600 C 0.82607 0.72375 0.62367 0.0
C1601 C 0.81868 0.68726 0.62274 0.0
C1602 C 0.76428 0.63647 0.61496 0.0
C1603 C 0.75283 0.53489 0.61884 0.0
C1604 C 0.76569 0.57052 0.61918 0.0
C1605 C 0.79552 0.67738 0.62872 0.0
C1606 C 0.78605 0.64032 0.62487 0.0
H1607 H 0.76185 0.44296 0.6139 0.0
H1608 H 0.78379 0.50128 0.61207 0.0
H1609 H 0.73738 0.60012 0.60446 0.0
H1610 H 0.77564 0.76052 0.64375 0.0
H1611 H 0.76268 0.69692 0.64184 0.0
C1612 C 0.71939 0.73391 0.87322 0.0
C1613 C 0.6961 0.74571 0.87802 0.0
C1614 C 0.72543 0.69703 0.87408 0.0
C1615 C 0.71086 0.60482 0.87063 0.0
H1616 H 0.75388 0.58839 0.91358 0.0
C1617 C 0.75457 0.46354 0.88498 0.0
C1618 C 0.77917 0.4644 0.88962 0.0
C1619 C 0.74094 0.49569 0.88492 0.0
C1620 C 0.74198 0.59245 0.90148 0.0
H1621 H 0.66037 0.72751 0.886 0.0
H1622 H 0.67107 0.66232 0.88715 0.0
H1623 H 0.73575 0.64843 0.90895 0.0
H1624 H 0.80849 0.49972 0.89838 0.0
H1625 H 0.78499 0.5555 0.89796 0.0
H1626 H 0.7181 0.54948 0.86245 0.0
C1627 C 0.68453 0.68212 0.88293 0.0
C1628 C 0.73146 0.6267 0.89896 0.0
C1629 C 0.67845 0.71932 0.88222 0.0
C1630 C 0.78961 0.49796 0.89475 0.0
C1631 C 0.77603 0.53001 0.89463 0.0
C1632 C 0.7216 0.57048 0.87302 0.0
C1633 C 0.70828 0.67103 0.87948 0.0
C1634 C 0.71623 0.63332 0.88334 0.0
C1635 C 0.75159 0.52941 0.88952 0.0
C1636 C 0.73777 0.56418 0.88823 0.0
H1637 H 0.73337 0.75339 0.86972 0.0
H1638 H 0.74381 0.6889 0.87125 0.0
H1639 H 0.69927 0.60958 0.8584 0.0
H1640 H 0.74592 0.43814 0.88101 0.0
H1641 H 0.7221 0.49415 0.88115 0.0
C1642 C 0.71599 0.50259 0.38509 0.0
C1643 C 0.72727 0.5361 0.38906 0.0
C1644 C 0.72857 0.46991 0.38627 0.0
C1645 C 0.78895 0.43036 0.38381 0.0
H1646 H 0.75446 0.34412 0.40083 0.0
C1647 C 0.82615 0.28001 0.38913 0.0
C1648 C 0.81105 0.25347 0.38085 0.0
C1649 C 0.81889 0.31658 0.39023 0.0
C1650 C 0.76429 0.36796 0.396 0.0
H1651 H 0.76068 0.56138 0.39789 0.0
H1652 H 0.78298 0.50338 0.40014 0.0
H1653 H 0.73661 0.4042 0.40527 0.0
H1654 H 0.77708 0.24506 0.36623 0.0
H1655 H 0.76435 0.30866 0.36844 0.0
H1656 H 0.81677 0.39341 0.3747 0.0
C1657 C 0.76426 0.50287 0.39591 0.0
C1658 C 0.75411 0.40239 0.39854 0.0
C1659 C 0.7515 0.53599 0.39477 0.0
C1660 C 0.78916 0.26469 0.37271 0.0
C1661 C 0.78178 0.30106 0.37408 0.0
C1662 C 0.79935 0.3957 0.38152 0.0
C1663 C 0.75287 0.46947 0.3916 0.0
C1664 C 0.76588 0.43394 0.39188 0.0
C1665 C 0.79627 0.3271 0.38331 0.0
C1666 C 0.78671 0.36418 0.38706 0.0
H1667 H 0.69731 0.5015 0.38076 0.0
H1668 H 0.71927 0.44494 0.38248 0.0
H1669 H 0.79845 0.45408 0.37847 0.0
H1670 H 0.84318 0.27229 0.39546 0.0
H1671 H 0.83037 0.33621 0.39739 0.0
C1672 C 0.32773 0.72195 0.88862 0.0
C1673 C 0.31251 0.74867 0.88062 0.0
C1674 C 0.32048 0.68536 0.88957 0.0
C1675 C 0.26594 0.63382 0.89544 0.0
H1676 H 0.30004 0.54812 0.87727 0.0
C1677 C 0.21768 0.49935 0.88404 0.0
C1678 C 0.22899 0.46578 0.88784 0.0
C1679 C 0.23026 0.53201 0.88532 0.0
C1680 C 0.29056 0.57171 0.88279 0.0
H1681 H 0.27835 0.75739 0.86636 0.0
H1682 H 0.26564 0.69374 0.86831 0.0
H1683 H 0.31826 0.6089 0.87371 0.0
H1684 H 0.26246 0.44039 0.89644 0.0
H1685 H 0.28475 0.49838 0.89884 0.0
H1686 H 0.23838 0.59733 0.90468 0.0
C1687 C 0.28315 0.70122 0.87384 0.0
C1688 C 0.3009 0.60644 0.88062 0.0
C1689 C 0.29051 0.73762 0.87262 0.0
C1690 C 0.25326 0.46583 0.89345 0.0
C1691 C 0.26602 0.49893 0.89469 0.0
C1692 C 0.25582 0.59932 0.89786 0.0
C1693 C 0.29777 0.67499 0.88279 0.0
C1694 C 0.28828 0.63782 0.88639 0.0
C1695 C 0.25458 0.53239 0.89057 0.0
C1696 C 0.26757 0.56793 0.89097 0.0
H1697 H 0.34485 0.72954 0.89483 0.0
H1698 H 0.33206 0.66559 0.89651 0.0
H1699 H 0.25613 0.65754 0.90045 0.0
H1700 H 0.19898 0.5005 0.87979 0.0
H1701 H 0.22093 0.55704 0.88167 0.0
C1702 C 0.27823 0.51412 0.39812 0.0
C1703 C 0.27229 0.54458 0.38679 0.0
C1704 C 0.26455 0.48209 0.39713 0.0
C1705 C 0.22784 0.42994 0.3638 0.0
H1706 H 0.20916 0.3743 0.40874 0.0
C1707 C 0.17662 0.28606 0.38567 0.0
C1708 C 0.19099 0.26105 0.37554 0.0
C1709 C 0.18246 0.32332 0.38582 0.0
C1710 C 0.21398 0.38973 0.39605 0.0
H1711 H 0.24706 0.56545 0.36575 0.0
H1712 H 0.22347 0.50921 0.3638 0.0
H1713 H 0.22737 0.43473 0.41263 0.0
H1714 H 0.22168 0.25564 0.35664 0.0
H1715 H 0.23137 0.32071 0.35641 0.0
H1716 H 0.21536 0.38429 0.34725 0.0
C1717 C 0.23862 0.51031 0.37353 0.0
C1718 C 0.22458 0.42415 0.39829 0.0
C1719 C 0.25204 0.54257 0.37477 0.0
C1720 C 0.21025 0.27432 0.36453 0.0
C1721 C 0.21579 0.31157 0.36439 0.0
C1722 C 0.21761 0.39526 0.36157 0.0
C1723 C 0.24489 0.47961 0.38454 0.0
C1724 C 0.23187 0.44443 0.3822 0.0
C1725 C 0.20245 0.33628 0.37553 0.0
C1726 C 0.21082 0.37463 0.37768 0.0
H1727 H 0.29371 0.51481 0.40752 0.0
H1728 H 0.26991 0.45877 0.40568 0.0
H1729 H 0.23344 0.44483 0.35114 0.0
H1730 H 0.16181 0.2766 0.39444 0.0
H1731 H 0.17179 0.34183 0.39444 0.0
C1732 C 0.2484 0.53138 0.11294 0.0
C1733 C 0.23079 0.53825 0.12695 0.0
C1734 C 0.26109 0.49811 0.11303 0.0
C1735 C 0.25254 0.40377 0.12929 0.0
H1736 H 0.3214 0.39154 0.12434 0.0
C1737 C 0.29537 0.26421 0.14279 0.0
C1738 C 0.31254 0.25241 0.12938 0.0
C1739 C 0.28804 0.30073 0.1432 0.0
C1740 C 0.30211 0.39452 0.12559 0.0
H1741 H 0.21411 0.51695 0.15284 0.0
H1742 H 0.23602 0.46001 0.15296 0.0
H1743 H 0.30381 0.45293 0.12239 0.0
H1744 H 0.33653 0.27042 0.10668 0.0
H1745 H 0.32344 0.33378 0.10725 0.0
H1746 H 0.25051 0.34586 0.13232 0.0
C1747 C 0.23967 0.47952 0.14163 0.0
C1748 C 0.29209 0.42962 0.12441 0.0
C1749 C 0.22711 0.51229 0.14153 0.0
C1750 C 0.32318 0.27845 0.11717 0.0
C1751 C 0.31576 0.31493 0.11753 0.0
C1752 C 0.26248 0.36891 0.13041 0.0
C1753 C 0.25627 0.47152 0.12713 0.0
C1754 C 0.26722 0.43457 0.12657 0.0
C1755 C 0.29759 0.32628 0.13016 0.0
C1756 C 0.2874 0.36381 0.12887 0.0
H1757 H 0.25168 0.55096 0.10159 0.0
H1758 H 0.27391 0.49261 0.10171 0.0
H1759 H 0.23325 0.40666 0.13063 0.0
H1760 H 0.28698 0.24502 0.15254 0.0
H1761 H 0.27441 0.30877 0.15345 0.0
C1762 C 0.21278 0.73195 0.64964 0.0
C1763 C 0.19417 0.74338 0.63748 0.0
C1764 C 0.2201 0.69549 0.64984 0.0
C1765 C 0.24552 0.62949 0.63459 0.0
H1766 H 0.20571 0.54427 0.62578 0.0
C1767 C 0.28824 0.49347 0.61272 0.0
C1768 C 0.27956 0.46177 0.62172 0.0
C1769 C 0.27561 0.52634 0.6141 0.0
C1770 C 0.21708 0.56776 0.62836 0.0
H1771 H 0.16753 0.72533 0.61691 0.0
H1772 H 0.18067 0.66171 0.61686 0.0
H1773 H 0.18684 0.6034 0.63196 0.0
H1774 H 0.25026 0.43941 0.63856 0.0
H1775 H 0.2285 0.49693 0.64131 0.0
H1776 H 0.27571 0.5941 0.63152 0.0
C1777 C 0.18938 0.68069 0.62653 0.0
C1778 C 0.20625 0.60172 0.63175 0.0
C1779 C 0.18179 0.71717 0.62657 0.0
C1780 C 0.25741 0.46332 0.63141 0.0
C1781 C 0.24488 0.49632 0.63294 0.0
C1782 C 0.25629 0.59567 0.63131 0.0
C1783 C 0.2093 0.66976 0.63757 0.0
C1784 C 0.22037 0.63304 0.6349 0.0
C1785 C 0.25412 0.52844 0.62469 0.0
C1786 C 0.24226 0.56438 0.62802 0.0
H1787 H 0.22251 0.75161 0.65828 0.0
H1788 H 0.235 0.68785 0.65898 0.0
H1789 H 0.25705 0.65302 0.63653 0.0
H1790 H 0.3051 0.49309 0.60496 0.0
H1791 H 0.28295 0.5503 0.60713 0.0
loop_
_geom_bond_atom_site_label_1
_geom_bond_atom_site_label_2
_geom_bond_distance
_geom_bond_site_symmetry_2
_ccdc_geom_bond_type
Fe0 O2 1.918 . S
Fe0 O5 1.997 . S
Fe0 O6 2.002 . S
Fe0 O11 1.976 . S
Fe0 O14 1.996 . S
Fe1 O2 1.918 . S
Fe1 O9 1.997 . S
Fe1 O12 1.996 . S
Fe1 O16 1.976 . S
Fe1 O19 2.002 . S
O2 Fe0 1.918 . S
O2 Fe1 1.918 . S
O2 Fe3 1.918 . S
Fe3 O2 1.918 . S
Fe3 O4 2.002 . S
Fe3 O13 1.976 . S
Fe3 O17 1.996 . S
Fe3 O20 1.997 . S
O4 Fe3 2.002 . S
O4 C21 1.295 . S
O5 Fe0 1.997 . S
O5 C21 1.235 . S
O6 Fe0 2.002 . S
O6 C7 1.295 . S
C7 O6 1.295 . S
C7 O9 1.235 . S
C8 O13 1.287 . S
C8 O14 1.255 . S
O9 Fe1 1.997 . S
O9 C7 1.235 . S
C10 O16 1.287 . S
C10 O17 1.255 . S
O11 Fe0 1.976 . S
O11 C18 1.287 . S
O12 Fe1 1.996 . S
O12 C18 1.255 . S
O13 Fe3 1.976 . S
O13 C8 1.287 . S
O14 Fe0 1.996 . S
O14 C8 1.255 . S
C15 O19 1.295 . S
C15 O20 1.235 . S
O16 Fe1 1.976 . S
O16 C10 1.287 . S
O17 Fe3 1.996 . S
O17 C10 1.255 . S
C18 O11 1.287 . S
C18 O12 1.255 . S
O19 Fe1 2.002 . S
O19 C15 1.295 . S
O20 Fe3 1.997 . S
O20 C15 1.235 . S
C21 O4 1.295 . S
C21 O5 1.235 . S
Fe22 O24 1.918 . S
Fe22 O27 1.997 . S
Fe22 O28 2.002 . S
Fe22 O33 1.976 . S
Fe22 O36 1.996 . S
Fe23 O24 1.918 . S
Fe23 O31 1.997 . S
Fe23 O34 1.996 . S
Fe23 O38 1.976 . S
Fe23 O41 2.002 . S
O24 Fe22 1.918 . S
O24 Fe23 1.918 . S
O24 Fe25 1.918 . S
Fe25 O24 1.918 . S
Fe25 O26 2.002 . S
Fe25 O35 1.976 . S
Fe25 O39 1.996 . S
Fe25 O42 1.997 . S
O26 Fe25 2.002 . S
O26 C43 1.295 . S
O27 Fe22 1.997 . S
O27 C43 1.235 . S
O28 Fe22 2.002 . S
O28 C29 1.295 . S
C29 O28 1.295 . S
C29 O31 1.235 . S
C30 O35 1.287 . S
C30 O36 1.255 . S
O31 Fe23 1.997 . S
O31 C29 1.235 . S
C32 O38 1.287 . S
C32 O39 1.255 . S
O33 Fe22 1.976 . S
O33 C40 1.287 . S
O34 Fe23 1.996 . S
O34 C40 1.255 . S
O35 Fe25 1.976 . S
O35 C30 1.287 . S
O36 Fe22 1.996 . S
O36 C30 1.255 . S
C37 O41 1.295 . S
C37 O42 1.235 . S
O38 Fe23 1.976 . S
O38 C32 1.287 . S
O39 Fe25 1.996 . S
O39 C32 1.255 . S
C40 O33 1.287 . S
C40 O34 1.255 . S
O41 Fe23 2.002 . S
O41 C37 1.295 . S
O42 Fe25 1.997 . S
O42 C37 1.235 . S
C43 O26 1.295 . S
C43 O27 1.235 . S
Fe44 O46 1.918 . S
Fe44 O49 1.997 . S
Fe44 O50 2.002 . S
Fe44 O55 1.976 . S
Fe44 O58 1.996 . S
Fe45 O46 1.918 . S
Fe45 O53 1.997 . S
Fe45 O56 1.996 . S
Fe45 O60 1.976 . S
Fe45 O63 2.002 . S
O46 Fe44 1.918 . S
O46 Fe45 1.918 . S
O46 Fe47 1.918 . S
Fe47 O46 1.918 . S
Fe47 O48 2.002 . S
Fe47 O57 1.976 . S
Fe47 O61 1.996 . S
Fe47 O64 1.997 . S
O48 Fe47 2.002 . S
O48 C65 1.295 . S
O49 Fe44 1.997 . S
O49 C65 1.235 . S
O50 Fe44 2.002 . S
O50 C51 1.295 . S
C51 O50 1.295 . S
C51 O53 1.235 . S
C52 O57 1.287 . S
C52 O58 1.255 . S
O53 Fe45 1.997 . S
O53 C51 1.235 . S
C54 O60 1.287 . S
C54 O61 1.255 . S
O55 Fe44 1.976 . S
O55 C62 1.287 . S
O56 Fe45 1.996 . S
O56 C62 1.255 . S
O57 Fe47 1.976 . S
O57 C52 1.287 . S
O58 Fe44 1.996 . S
O58 C52 1.255 . S
C59 O63 1.295 . S
C59 O64 1.235 . S
O60 Fe45 1.976 . S
O60 C54 1.287 . S
O61 Fe47 1.996 . S
O61 C54 1.255 . S
C62 O55 1.287 . S
C62 O56 1.255 . S
O63 Fe45 2.002 . S
O63 C59 1.295 . S
O64 Fe47 1.997 . S
O64 C59 1.235 . S
C65 O48 1.295 . S
C65 O49 1.235 . S
Fe66 O68 1.918 . S
Fe66 O71 1.997 . S
Fe66 O72 2.002 . S
Fe66 O77 1.976 . S
Fe66 O80 1.996 . S
Fe67 O68 1.918 . S
Fe67 O75 1.997 . S
Fe67 O78 1.996 . S
Fe67 O82 1.976 . S
Fe67 O85 2.002 . S
O68 Fe66 1.918 . S
O68 Fe67 1.918 . S
O68 Fe69 1.918 . S
Fe69 O68 1.918 . S
Fe69 O70 2.002 . S
Fe69 O79 1.976 . S
Fe69 O83 1.996 . S
Fe69 O86 1.997 . S
O70 Fe69 2.002 . S
O70 C87 1.295 . S
O71 Fe66 1.997 . S
O71 C87 1.235 . S
O72 Fe66 2.002 . S
O72 C73 1.295 . S
C73 O72 1.295 . S
C73 O75 1.235 . S
C74 O79 1.287 . S
C74 O80 1.255 . S
O75 Fe67 1.997 . S
O75 C73 1.235 . S
C76 O82 1.287 . S
C76 O83 1.255 . S
O77 Fe66 1.976 . S
O77 C84 1.287 . S
O78 Fe67 1.996 . S
O78 C84 1.255 . S
O79 Fe69 1.976 . S
O79 C74 1.287 . S
O80 Fe66 1.996 . S
O80 C74 1.255 . S
C81 O85 1.295 . S
C81 O86 1.235 . S
O82 Fe67 1.976 . S
O82 C76 1.287 . S
O83 Fe69 1.996 . S
O83 C76 1.255 . S
C84 O77 1.287 . S
C84 O78 1.255 . S
O85 Fe67 2.002 . S
O85 C81 1.295 . S
O86 Fe69 1.997 . S
O86 C81 1.235 . S
C87 O70 1.295 . S
C87 O71 1.235 . S
Fe88 O90 1.918 . S
Fe88 O93 1.997 . S
Fe88 O94 2.002 . S
Fe88 O99 1.976 . S
Fe88 O102 1.996 . S
Fe89 O90 1.918 . S
Fe89 O97 1.997 . S
Fe89 O100 1.996 . S
Fe89 O104 1.976 . S
Fe89 O107 2.002 . S
O90 Fe88 1.918 . S
O90 Fe89 1.918 . S
O90 Fe91 1.918 . S
Fe91 O90 1.918 . S
Fe91 O92 2.002 . S
Fe91 O101 1.976 . S
Fe91 O105 1.996 . S
Fe91 O108 1.997 . S
O92 Fe91 2.002 . S
O92 C109 1.295 . S
O93 Fe88 1.997 . S
O93 C109 1.235 . S
O94 Fe88 2.002 . S
O94 C95 1.295 . S
C95 O94 1.295 . S
C95 O97 1.235 . S
C96 O101 1.287 . S
C96 O102 1.255 . S
O97 Fe89 1.997 . S
O97 C95 1.235 . S
C98 O104 1.287 . S
C98 O105 1.255 . S
O99 Fe88 1.976 . S
O99 C106 1.287 . S
O100 Fe89 1.996 . S
O100 C106 1.255 . S
O101 Fe91 1.976 . S
O101 C96 1.287 . S
O102 Fe88 1.996 . S
O102 C96 1.255 . S
C103 O107 1.295 . S
C103 O108 1.235 . S
O104 Fe89 1.976 . S
O104 C98 1.287 . S
O105 Fe91 1.996 . S
O105 C98 1.255 . S
C106 O99 1.287 . S
C106 O100 1.255 . S
O107 Fe89 2.002 . S
O107 C103 1.295 . S
O108 Fe91 1.997 . S
O108 C103 1.235 . S
C109 O92 1.295 . S
C109 O93 1.235 . S
Fe110 O112 1.918 . S
Fe110 O115 1.997 . S
Fe110 O116 2.002 . S
Fe110 O121 1.976 . S
Fe110 O124 1.996 . S
Fe111 O112 1.918 . S
Fe111 O119 1.997 . S
Fe111 O122 1.996 . S
Fe111 O126 1.976 . S
Fe111 O129 2.002 . S
O112 Fe110 1.918 . S
O112 Fe111 1.918 . S
O112 Fe113 1.918 . S
Fe113 O112 1.918 . S
Fe113 O114 2.002 . S
Fe113 O123 1.976 . S
Fe113 O127 1.996 . S
Fe113 O130 1.997 . S
O114 Fe113 2.002 . S
O114 C131 1.295 . S
O115 Fe110 1.997 . S
O115 C131 1.235 . S
O116 Fe110 2.002 . S
O116 C117 1.295 . S
C117 O116 1.295 . S
C117 O119 1.235 . S
C118 O123 1.287 . S
C118 O124 1.255 . S
O119 Fe111 1.997 . S
O119 C117 1.235 . S
C120 O126 1.287 . S
C120 O127 1.255 . S
O121 Fe110 1.976 . S
O121 C128 1.287 . S
O122 Fe111 1.996 . S
O122 C128 1.255 . S
O123 Fe113 1.976 . S
O123 C118 1.287 . S
O124 Fe110 1.996 . S
O124 C118 1.255 . S
C125 O129 1.295 . S
C125 O130 1.235 . S
O126 Fe111 1.976 . S
O126 C120 1.287 . S
O127 Fe113 1.996 . S
O127 C120 1.255 . S
C128 O121 1.287 . S
C128 O122 1.255 . S
O129 Fe111 2.002 . S
O129 C125 1.295 . S
O130 Fe113 1.997 . S
O130 C125 1.235 . S
C131 O114 1.295 . S
C131 O115 1.235 . S
Fe132 O134 1.918 . S
Fe132 O137 1.997 . S
Fe132 O138 2.002 . S
Fe132 O143 1.976 . S
Fe132 O146 1.996 . S
Fe133 O134 1.918 . S
Fe133 O141 1.997 . S
Fe133 O144 1.996 . S
Fe133 O148 1.976 . S
Fe133 O151 2.002 . S
O134 Fe132 1.918 . S
O134 Fe133 1.918 . S
O134 Fe135 1.918 . S
Fe135 O134 1.918 . S
Fe135 O136 2.002 . S
Fe135 O145 1.976 . S
Fe135 O149 1.996 . S
Fe135 O152 1.997 . S
O136 Fe135 2.002 . S
O136 C153 1.295 . S
O137 Fe132 1.997 . S
O137 C153 1.235 . S
O138 Fe132 2.002 . S
O138 C139 1.295 . S
C139 O138 1.295 . S
C139 O141 1.235 . S
C140 O145 1.287 . S
C140 O146 1.255 . S
O141 Fe133 1.997 . S
O141 C139 1.235 . S
C142 O148 1.287 . S
C142 O149 1.255 . S
O143 Fe132 1.976 . S
O143 C150 1.287 . S
O144 Fe133 1.996 . S
O144 C150 1.255 . S
O145 Fe135 1.976 . S
O145 C140 1.287 . S
O146 Fe132 1.996 . S
O146 C140 1.255 . S
C147 O151 1.295 . S
C147 O152 1.235 . S
O148 Fe133 1.976 . S
O148 C142 1.287 . S
O149 Fe135 1.996 . S
O149 C142 1.255 . S
C150 O143 1.287 . S
C150 O144 1.255 . S
O151 Fe133 2.002 . S
O151 C147 1.295 . S
O152 Fe135 1.997 . S
O152 C147 1.235 . S
C153 O136 1.295 . S
C153 O137 1.235 . S
Fe154 O156 1.918 . S
Fe154 O159 1.997 . S
Fe154 O160 2.002 . S
Fe154 O165 1.976 . S
Fe154 O168 1.996 . S
Fe155 O156 1.918 . S
Fe155 O163 1.997 . S
Fe155 O166 1.996 . S
Fe155 O170 1.976 . S
Fe155 O173 2.002 . S
O156 Fe154 1.918 . S
O156 Fe155 1.918 . S
O156 Fe157 1.918 . S
Fe157 O156 1.918 . S
Fe157 O158 2.002 . S
Fe157 O167 1.976 . S
Fe157 O171 1.996 . S
Fe157 O174 1.997 . S
O158 Fe157 2.002 . S
O158 C175 1.295 . S
O159 Fe154 1.997 . S
O159 C175 1.235 . S
O160 Fe154 2.002 . S
O160 C161 1.295 . S
C161 O160 1.295 . S
C161 O163 1.235 . S
C162 O167 1.287 . S
C162 O168 1.255 . S
O163 Fe155 1.997 . S
O163 C161 1.235 . S
C164 O170 1.287 . S
C164 O171 1.255 . S
O165 Fe154 1.976 . S
O165 C172 1.287 . S
O166 Fe155 1.996 . S
O166 C172 1.255 . S
O167 Fe157 1.976 . S
O167 C162 1.287 . S
O168 Fe154 1.996 . S
O168 C162 1.255 . S
C169 O173 1.295 . S
C169 O174 1.235 . S
O170 Fe155 1.976 . S
O170 C164 1.287 . S
O171 Fe157 1.996 . S
O171 C164 1.255 . S
C172 O165 1.287 . S
C172 O166 1.255 . S
O173 Fe155 2.002 . S
O173 C169 1.295 . S
O174 Fe157 1.997 . S
O174 C169 1.235 . S
C175 O158 1.295 . S
C175 O159 1.235 . S
Fe176 O178 1.918 . S
Fe176 O181 1.997 . S
Fe176 O182 2.002 . S
Fe176 O187 1.976 . S
Fe176 O190 1.996 . S
Fe177 O178 1.918 . S
Fe177 O185 1.997 . S
Fe177 O188 1.996 . S
Fe177 O192 1.976 . S
Fe177 O195 2.002 . S
O178 Fe176 1.918 . S
O178 Fe177 1.918 . S
O178 Fe179 1.918 . S
Fe179 O178 1.918 . S
Fe179 O180 2.002 . S
Fe179 O189 1.976 . S
Fe179 O193 1.996 . S
Fe179 O196 1.997 . S
O180 Fe179 2.002 . S
O180 C197 1.295 . S
O181 Fe176 1.997 . S
O181 C197 1.235 . S
O182 Fe176 2.002 . S
O182 C183 1.295 . S
C183 O182 1.295 . S
C183 O185 1.235 . S
C184 O189 1.287 . S
C184 O190 1.255 . S
O185 Fe177 1.997 . S
O185 C183 1.235 . S
C186 O192 1.287 . S
C186 O193 1.255 . S
O187 Fe176 1.976 . S
O187 C194 1.287 . S
O188 Fe177 1.996 . S
O188 C194 1.255 . S
O189 Fe179 1.976 . S
O189 C184 1.287 . S
O190 Fe176 1.996 . S
O190 C184 1.255 . S
C191 O195 1.295 . S
C191 O196 1.235 . S
O192 Fe177 1.976 . S
O192 C186 1.287 . S
O193 Fe179 1.996 . S
O193 C186 1.255 . S
C194 O187 1.287 . S
C194 O188 1.255 . S
O195 Fe177 2.002 . S
O195 C191 1.295 . S
O196 Fe179 1.997 . S
O196 C191 1.235 . S
C197 O180 1.295 . S
C197 O181 1.235 . S
Fe198 O200 1.918 . S
Fe198 O203 1.997 . S
Fe198 O204 2.002 . S
Fe198 O209 1.976 . S
Fe198 O212 1.996 . S
Fe199 O200 1.918 . S
Fe199 O207 1.997 . S
Fe199 O210 1.996 . S
Fe199 O214 1.976 . S
Fe199 O217 2.002 . S
O200 Fe198 1.918 . S
O200 Fe199 1.918 . S
O200 Fe201 1.918 . S
Fe201 O200 1.918 . S
Fe201 O202 2.002 . S
Fe201 O211 1.976 . S
Fe201 O215 1.996 . S
Fe201 O218 1.997 . S
O202 Fe201 2.002 . S
O202 C219 1.295 . S
O203 Fe198 1.997 . S
O203 C219 1.235 . S
O204 Fe198 2.002 . S
O204 C205 1.295 . S
C205 O204 1.295 . S
C205 O207 1.235 . S
C206 O211 1.287 . S
C206 O212 1.255 . S
O207 Fe199 1.997 . S
O207 C205 1.235 . S
C208 O214 1.287 . S
C208 O215 1.255 . S
O209 Fe198 1.976 . S
O209 C216 1.287 . S
O210 Fe199 1.996 . S
O210 C216 1.255 . S
O211 Fe201 1.976 . S
O211 C206 1.287 . S
O212 Fe198 1.996 . S
O212 C206 1.255 . S
C213 O217 1.295 . S
C213 O218 1.235 . S
O214 Fe199 1.976 . S
O214 C208 1.287 . S
O215 Fe201 1.996 . S
O215 C208 1.255 . S
C216 O209 1.287 . S
C216 O210 1.255 . S
O217 Fe199 2.002 . S
O217 C213 1.295 . S
O218 Fe201 1.997 . S
O218 C213 1.235 . S
C219 O202 1.295 . S
C219 O203 1.235 . S
Fe220 O222 1.918 . S
Fe220 O225 1.997 . S
Fe220 O226 2.002 . S
Fe220 O231 1.976 . S
Fe220 O234 1.996 . S
Fe221 O222 1.918 . S
Fe221 O229 1.997 . S
Fe221 O232 1.996 . S
Fe221 O236 1.976 . S
Fe221 O239 2.002 . S
O222 Fe220 1.918 . S
O222 Fe221 1.918 . S
O222 Fe223 1.918 . S
Fe223 O222 1.918 . S
Fe223 O224 2.002 . S
Fe223 O233 1.976 . S
Fe223 O237 1.996 . S
Fe223 O240 1.997 . S
O224 Fe223 2.002 . S
O224 C241 1.295 . S
O225 Fe220 1.997 . S
O225 C241 1.235 . S
O226 Fe220 2.002 . S
O226 C227 1.295 . S
C227 O226 1.295 . S
C227 O229 1.235 . S
C228 O233 1.287 . S
C228 O234 1.255 . S
O229 Fe221 1.997 . S
O229 C227 1.235 . S
C230 O236 1.287 . S
C230 O237 1.255 . S
O231 Fe220 1.976 . S
O231 C238 1.287 . S
O232 Fe221 1.996 . S
O232 C238 1.255 . S
O233 Fe223 1.976 . S
O233 C228 1.287 . S
O234 Fe220 1.996 . S
O234 C228 1.255 . S
C235 O239 1.295 . S
C235 O240 1.235 . S
O236 Fe221 1.976 . S
O236 C230 1.287 . S
O237 Fe223 1.996 . S
O237 C230 1.255 . S
C238 O231 1.287 . S
C238 O232 1.255 . S
O239 Fe221 2.002 . S
O239 C235 1.295 . S
O240 Fe223 1.997 . S
O240 C235 1.235 . S
C241 O224 1.295 . S
C241 O225 1.235 . S
Fe242 O244 1.918 . S
Fe242 O247 1.997 . S
Fe242 O248 2.002 . S
Fe242 O253 1.976 . S
Fe242 O256 1.996 . S
Fe243 O244 1.918 . S
Fe243 O251 1.997 . S
Fe243 O254 1.996 . S
Fe243 O258 1.976 . S
Fe243 O261 2.002 . S
O244 Fe242 1.918 . S
O244 Fe243 1.918 . S
O244 Fe245 1.918 . S
Fe245 O244 1.918 . S
Fe245 O246 2.002 . S
Fe245 O255 1.976 . S
Fe245 O259 1.996 . S
Fe245 O262 1.997 . S
O246 Fe245 2.002 . S
O246 C263 1.295 . S
O247 Fe242 1.997 . S
O247 C263 1.235 . S
O248 Fe242 2.002 . S
O248 C249 1.295 . S
C249 O248 1.295 . S
C249 O251 1.235 . S
C250 O255 1.287 . S
C250 O256 1.255 . S
O251 Fe243 1.997 . S
O251 C249 1.235 . S
C252 O258 1.287 . S
C252 O259 1.255 . S
O253 Fe242 1.976 . S
O253 C260 1.287 . S
O254 Fe243 1.996 . S
O254 C260 1.255 . S
O255 Fe245 1.976 . S
O255 C250 1.287 . S
O256 Fe242 1.996 . S
O256 C250 1.255 . S
C257 O261 1.295 . S
C257 O262 1.235 . S
O258 Fe243 1.976 . S
O258 C252 1.287 . S
O259 Fe245 1.996 . S
O259 C252 1.255 . S
C260 O253 1.287 . S
C260 O254 1.255 . S
O261 Fe243 2.002 . S
O261 C257 1.295 . S
O262 Fe245 1.997 . S
O262 C257 1.235 . S
C263 O246 1.295 . S
C263 O247 1.235 . S
Fe264 O266 1.918 . S
Fe264 O269 1.997 . S
Fe264 O270 2.002 . S
Fe264 O275 1.976 . S
Fe264 O278 1.996 . S
Fe265 O266 1.918 . S
Fe265 O273 1.997 . S
Fe265 O276 1.996 . S
Fe265 O280 1.976 . S
Fe265 O283 2.002 . S
O266 Fe264 1.918 . S
O266 Fe265 1.918 . S
O266 Fe267 1.918 . S
Fe267 O266 1.918 . S
Fe267 O268 2.002 . S
Fe267 O277 1.976 . S
Fe267 O281 1.996 . S
Fe267 O284 1.997 . S
O268 Fe267 2.002 . S
O268 C285 1.295 . S
O269 Fe264 1.997 . S
O269 C285 1.235 . S
O270 Fe264 2.002 . S
O270 C271 1.295 . S
C271 O270 1.295 . S
C271 O273 1.235 . S
C272 O277 1.287 . S
C272 O278 1.255 . S
O273 Fe265 1.997 . S
O273 C271 1.235 . S
C274 O280 1.287 . S
C274 O281 1.255 . S
O275 Fe264 1.976 . S
O275 C282 1.287 . S
O276 Fe265 1.996 . S
O276 C282 1.255 . S
O277 Fe267 1.976 . S
O277 C272 1.287 . S
O278 Fe264 1.996 . S
O278 C272 1.255 . S
C279 O283 1.295 . S
C279 O284 1.235 . S
O280 Fe265 1.976 . S
O280 C274 1.287 . S
O281 Fe267 1.996 . S
O281 C274 1.255 . S
C282 O275 1.287 . S
C282 O276 1.255 . S
O283 Fe265 2.002 . S
O283 C279 1.295 . S
O284 Fe267 1.997 . S
O284 C279 1.235 . S
C285 O268 1.295 . S
C285 O269 1.235 . S
Fe286 O288 1.918 . S
Fe286 O291 1.997 . S
Fe286 O292 2.002 . S
Fe286 O297 1.976 . S
Fe286 O300 1.996 . S
Fe287 O288 1.918 . S
Fe287 O295 1.997 . S
Fe287 O298 1.996 . S
Fe287 O302 1.976 . S
Fe287 O305 2.002 . S
O288 Fe286 1.918 . S
O288 Fe287 1.918 . S
O288 Fe289 1.918 . S
Fe289 O288 1.918 . S
Fe289 O290 2.002 . S
Fe289 O299 1.976 . S
Fe289 O303 1.996 . S
Fe289 O306 1.997 . S
O290 Fe289 2.002 . S
O290 C307 1.295 . S
O291 Fe286 1.997 . S
O291 C307 1.235 . S
O292 Fe286 2.002 . S
O292 C293 1.295 . S
C293 O292 1.295 . S
C293 O295 1.235 . S
C294 O299 1.287 . S
C294 O300 1.255 . S
O295 Fe287 1.997 . S
O295 C293 1.235 . S
C296 O302 1.287 . S
C296 O303 1.255 . S
O297 Fe286 1.976 . S
O297 C304 1.287 . S
O298 Fe287 1.996 . S
O298 C304 1.255 . S
O299 Fe289 1.976 . S
O299 C294 1.287 . S
O300 Fe286 1.996 . S
O300 C294 1.255 . S
C301 O305 1.295 . S
C301 O306 1.235 . S
O302 Fe287 1.976 . S
O302 C296 1.287 . S
O303 Fe289 1.996 . S
O303 C296 1.255 . S
C304 O297 1.287 . S
C304 O298 1.255 . S
O305 Fe287 2.002 . S
O305 C301 1.295 . S
O306 Fe289 1.997 . S
O306 C301 1.235 . S
C307 O290 1.295 . S
C307 O291 1.235 . S
Fe308 O310 1.918 . S
Fe308 O313 1.997 . S
Fe308 O314 2.002 . S
Fe308 O319 1.976 . S
Fe308 O322 1.996 . S
Fe309 O310 1.918 . S
Fe309 O317 1.997 . S
Fe309 O320 1.996 . S
Fe309 O324 1.976 . S
Fe309 O327 2.002 . S
O310 Fe308 1.918 . S
O310 Fe309 1.918 . S
O310 Fe311 1.918 . S
Fe311 O310 1.918 . S
Fe311 O312 2.002 . S
Fe311 O321 1.976 . S
Fe311 O325 1.996 . S
Fe311 O328 1.997 . S
O312 Fe311 2.002 . S
O312 C329 1.295 . S
O313 Fe308 1.997 . S
O313 C329 1.235 . S
O314 Fe308 2.002 . S
O314 C315 1.295 . S
C315 O314 1.295 . S
C315 O317 1.235 . S
C316 O321 1.287 . S
C316 O322 1.255 . S
O317 Fe309 1.997 . S
O317 C315 1.235 . S
C318 O324 1.287 . S
C318 O325 1.255 . S
O319 Fe308 1.976 . S
O319 C326 1.287 . S
O320 Fe309 1.996 . S
O320 C326 1.255 . S
O321 Fe311 1.976 . S
O321 C316 1.287 . S
O322 Fe308 1.996 . S
O322 C316 1.255 . S
C323 O327 1.295 . S
C323 O328 1.235 . S
O324 Fe309 1.976 . S
O324 C318 1.287 . S
O325 Fe311 1.996 . S
O325 C318 1.255 . S
C326 O319 1.287 . S
C326 O320 1.255 . S
O327 Fe309 2.002 . S
O327 C323 1.295 . S
O328 Fe311 1.997 . S
O328 C323 1.235 . S
C329 O312 1.295 . S
C329 O313 1.235 . S
Fe330 O332 1.918 . S
Fe330 O335 1.997 . S
Fe330 O336 2.002 . S
Fe330 O341 1.976 . S
Fe330 O344 1.996 . S
Fe331 O332 1.918 . S
Fe331 O339 1.997 . S
Fe331 O342 1.996 . S
Fe331 O346 1.976 . S
Fe331 O349 2.002 . S
O332 Fe330 1.918 . S
O332 Fe331 1.918 . S
O332 Fe333 1.918 . S
Fe333 O332 1.918 . S
Fe333 O334 2.002 . S
Fe333 O343 1.976 . S
Fe333 O347 1.996 . S
Fe333 O350 1.997 . S
O334 Fe333 2.002 . S
O334 C351 1.295 . S
O335 Fe330 1.997 . S
O335 C351 1.235 . S
O336 Fe330 2.002 . S
O336 C337 1.295 . S
C337 O336 1.295 . S
C337 O339 1.235 . S
C338 O343 1.287 . S
C338 O344 1.255 . S
O339 Fe331 1.997 . S
O339 C337 1.235 . S
C340 O346 1.287 . S
C340 O347 1.255 . S
O341 Fe330 1.976 . S
O341 C348 1.287 . S
O342 Fe331 1.996 . S
O342 C348 1.255 . S
O343 Fe333 1.976 . S
O343 C338 1.287 . S
O344 Fe330 1.996 . S
O344 C338 1.255 . S
C345 O349 1.295 . S
C345 O350 1.235 . S
O346 Fe331 1.976 . S
O346 C340 1.287 . S
O347 Fe333 1.996 . S
O347 C340 1.255 . S
C348 O341 1.287 . S
C348 O342 1.255 . S
O349 Fe331 2.002 . S
O349 C345 1.295 . S
O350 Fe333 1.997 . S
O350 C345 1.235 . S
C351 O334 1.295 . S
C351 O335 1.235 . S
C352 C353 1.349 . S
C352 C354 1.327 . S
C352 H377 0.950 . S
C353 C352 1.349 . S
C353 C369 1.349 . S
C354 C352 1.327 . S
C354 C373 1.429 . S
C354 H378 0.950 . S
C355 C372 1.574 1_554 S
C355 C374 1.368 . S
C355 H379 0.949 . S
H356 C360 0.949 . S
C357 C358 1.349 . S
C357 C359 1.327 . S
C357 H380 0.950 . S
C358 C357 1.349 . S
C358 C370 1.349 . S
C359 C357 1.327 . S
C359 C375 1.429 . S
C359 H381 0.950 . S
C360 H356 0.949 . S
C360 C368 1.574 1_556 S
C360 C376 1.368 . S
H361 C369 0.950 . S
H362 C367 0.950 . S
H363 C368 0.949 . S
H364 C370 0.950 . S
H365 C371 0.950 . S
H366 C372 0.949 . S
C367 H362 0.950 . S
C367 C369 1.327 . S
C367 C373 1.429 . S
C368 C360 1.574 1_554 S
C368 H363 0.949 . S
C368 C374 1.368 . S
C369 C353 1.349 . S
C369 H361 0.950 . S
C369 C367 1.327 . S
C370 C358 1.349 . S
C370 H364 0.950 . S
C370 C371 1.327 . S
C371 H365 0.950 . S
C371 C370 1.327 . S
C371 C375 1.429 . S
C372 C355 1.574 1_556 S
C372 H366 0.949 . S
C372 C376 1.368 . S
C373 C354 1.429 . S
C373 C367 1.429 . S
C373 C374 1.523 . S
C374 C355 1.368 . S
C374 C368 1.368 . S
C374 C373 1.523 . S
C375 C359 1.429 . S
C375 C371 1.429 . S
C375 C376 1.523 . S
C376 C360 1.368 . S
C376 C372 1.368 . S
C376 C375 1.523 . S
H377 C352 0.950 . S
H378 C354 0.950 . S
H379 C355 0.949 . S
H380 C357 0.950 . S
H381 C359 0.950 . S
C382 C383 1.349 . S
C382 C384 1.327 . S
C382 H407 0.950 . S
C383 C382 1.349 . S
C383 C399 1.349 . S
C384 C382 1.327 . S
C384 C403 1.429 . S
C384 H408 0.950 . S
C385 C402 1.574 . S
C385 C404 1.368 . S
C385 H409 0.949 . S
H386 C390 0.949 . S
C387 C388 1.349 . S
C387 C389 1.327 . S
C387 H410 0.950 . S
C388 C387 1.349 . S
C388 C400 1.349 . S
C389 C387 1.327 . S
C389 C405 1.429 . S
C389 H411 0.950 . S
C390 H386 0.949 . S
C390 C398 1.574 . S
C390 C406 1.368 . S
H391 C399 0.950 . S
H392 C397 0.950 . S
H393 C398 0.949 . S
H394 C400 0.950 . S
H395 C401 0.950 . S
H396 C402 0.949 . S
C397 H392 0.950 . S
C397 C399 1.327 . S
C397 C403 1.429 . S
C398 C390 1.574 . S
C398 H393 0.949 . S
C398 C404 1.368 . S
C399 C383 1.349 . S
C399 H391 0.950 . S
C399 C397 1.327 . S
C400 C388 1.349 . S
C400 H394 0.950 . S
C400 C401 1.327 . S
C401 H395 0.950 . S
C401 C400 1.327 . S
C401 C405 1.429 . S
C402 C385 1.574 . S
C402 H396 0.949 . S
C402 C406 1.368 . S
C403 C384 1.429 . S
C403 C397 1.429 . S
C403 C404 1.523 . S
C404 C385 1.368 . S
C404 C398 1.368 . S
C404 C403 1.523 . S
C405 C389 1.429 . S
C405 C401 1.429 . S
C405 C406 1.523 . S
C406 C390 1.368 . S
C406 C402 1.368 . S
C406 C405 1.523 . S
H407 C382 0.950 . S
H408 C384 0.950 . S
H409 C385 0.949 . S
H410 C387 0.950 . S
H411 C389 0.950 . S
C412 C413 1.349 . S
C412 C414 1.327 . S
C412 H437 0.950 . S
C413 C412 1.349 . S
C413 C429 1.349 . S
C414 C412 1.327 . S
C414 C433 1.429 . S
C414 H438 0.950 . S
C415 C432 1.574 1_554 S
C415 C434 1.368 . S
C415 H439 0.949 . S
H416 C420 0.949 . S
C417 C418 1.349 . S
C417 C419 1.327 . S
C417 H440 0.950 . S
C418 C417 1.349 . S
C418 C430 1.349 . S
C419 C417 1.327 . S
C419 C435 1.429 . S
C419 H441 0.950 . S
C420 H416 0.949 . S
C420 C428 1.574 1_556 S
C420 C436 1.368 . S
H421 C429 0.950 . S
H422 C427 0.950 . S
H423 C428 0.949 . S
H424 C430 0.950 . S
H425 C431 0.950 . S
H426 C432 0.949 . S
C427 H422 0.950 . S
C427 C429 1.327 . S
C427 C433 1.429 . S
C428 C420 1.574 1_554 S
C428 H423 0.949 . S
C428 C434 1.368 . S
C429 C413 1.349 . S
C429 H421 0.950 . S
C429 C427 1.327 . S
C430 C418 1.349 . S
C430 H424 0.950 . S
C430 C431 1.327 . S
C431 H425 0.950 . S
C431 C430 1.327 . S
C431 C435 1.429 . S
C432 C415 1.574 1_556 S
C432 H426 0.949 . S
C432 C436 1.368 . S
C433 C414 1.429 . S
C433 C427 1.429 . S
C433 C434 1.523 . S
C434 C415 1.368 . S
C434 C428 1.368 . S
C434 C433 1.523 . S
C435 C419 1.429 . S
C435 C431 1.429 . S
C435 C436 1.523 . S
C436 C420 1.368 . S
C436 C432 1.368 . S
C436 C435 1.523 . S
H437 C412 0.950 . S
H438 C414 0.950 . S
H439 C415 0.949 . S
H440 C417 0.950 . S
H441 C419 0.950 . S
C442 C443 1.349 . S
C442 C444 1.327 . S
C442 H467 0.950 . S
C443 C442 1.349 . S
C443 C459 1.349 . S
C444 C442 1.327 . S
C444 C463 1.429 . S
C444 H468 0.950 . S
C445 C462 1.574 . S
C445 C464 1.368 . S
C445 H469 0.949 . S
H446 C450 0.949 . S
C447 C448 1.349 . S
C447 C449 1.327 . S
C447 H470 0.950 . S
C448 C447 1.349 . S
C448 C460 1.349 . S
C449 C447 1.327 . S
C449 C465 1.429 . S
C449 H471 0.950 . S
C450 H446 0.949 . S
C450 C458 1.574 . S
C450 C466 1.368 . S
H451 C459 0.950 . S
H452 C457 0.950 . S
H453 C458 0.949 . S
H454 C460 0.950 . S
H455 C461 0.950 . S
H456 C462 0.949 . S
C457 H452 0.950 . S
C457 C459 1.327 . S
C457 C463 1.429 . S
C458 C450 1.574 . S
C458 H453 0.949 . S
C458 C464 1.368 . S
C459 C443 1.349 . S
C459 H451 0.950 . S
C459 C457 1.327 . S
C460 C448 1.349 . S
C460 H454 0.950 . S
C460 C461 1.327 . S
C461 H455 0.950 . S
C461 C460 1.327 . S
C461 C465 1.429 . S
C462 C445 1.574 . S
C462 H456 0.949 . S
C462 C466 1.368 . S
C463 C444 1.429 . S
C463 C457 1.429 . S
C463 C464 1.523 . S
C464 C445 1.368 . S
C464 C458 1.368 . S
C464 C463 1.523 . S
C465 C449 1.429 . S
C465 C461 1.429 . S
C465 C466 1.523 . S
C466 C450 1.368 . S
C466 C462 1.368 . S
C466 C465 1.523 . S
H467 C442 0.950 . S
H468 C444 0.950 . S
H469 C445 0.949 . S
H470 C447 0.950 . S
H471 C449 0.950 . S
C472 C473 1.349 . S
C472 C474 1.327 . S
C472 H497 0.950 . S
C473 C472 1.349 . S
C473 C489 1.349 . S
C474 C472 1.327 . S
C474 C493 1.429 . S
C474 H498 0.950 . S
C475 C492 1.574 1_556 S
C475 C494 1.368 . S
C475 H499 0.949 . S
H476 C480 0.949 . S
C477 C478 1.349 . S
C477 C479 1.327 . S
C477 H500 0.950 . S
C478 C477 1.349 . S
C478 C490 1.349 . S
C479 C477 1.327 . S
C479 C495 1.429 . S
C479 H501 0.950 . S
C480 H476 0.949 . S
C480 C488 1.574 1_554 S
C480 C496 1.368 . S
H481 C489 0.950 . S
H482 C487 0.950 . S
H483 C488 0.949 . S
H484 C490 0.950 . S
H485 C491 0.950 . S
H486 C492 0.949 . S
C487 H482 0.950 . S
C487 C489 1.327 . S
C487 C493 1.429 . S
C488 C480 1.574 1_556 S
C488 H483 0.949 . S
C488 C494 1.368 . S
C489 C473 1.349 . S
C489 H481 0.950 . S
C489 C487 1.327 . S
C490 C478 1.349 . S
C490 H484 0.950 . S
C490 C491 1.327 . S
C491 H485 0.950 . S
C491 C490 1.327 . S
C491 C495 1.429 . S
C492 C475 1.574 1_554 S
C492 H486 0.949 . S
C492 C496 1.368 . S
C493 C474 1.429 . S
C493 C487 1.429 . S
C493 C494 1.523 . S
C494 C475 1.368 . S
C494 C488 1.368 . S
C494 C493 1.523 . S
C495 C479 1.429 . S
C495 C491 1.429 . S
C495 C496 1.523 . S
C496 C480 1.368 . S
C496 C492 1.368 . S
C496 C495 1.523 . S
H497 C472 0.950 . S
H498 C474 0.950 . S
H499 C475 0.949 . S
H500 C477 0.950 . S
H501 C479 0.950 . S
C502 C503 1.349 . S
C502 C504 1.327 . S
C502 H527 0.950 . S
C503 C502 1.349 . S
C503 C519 1.349 . S
C504 C502 1.327 . S
C504 C523 1.429 . S
C504 H528 0.950 . S
C505 C522 1.574 . S
C505 C524 1.368 . S
C505 H529 0.949 . S
H506 C510 0.949 . S
C507 C508 1.349 . S
C507 C509 1.327 . S
C507 H530 0.950 . S
C508 C507 1.349 . S
C508 C520 1.349 . S
C509 C507 1.327 . S
C509 C525 1.429 . S
C509 H531 0.950 . S
C510 H506 0.949 . S
C510 C518 1.574 . S
C510 C526 1.368 . S
H511 C519 0.950 . S
H512 C517 0.950 . S
H513 C518 0.949 . S
H514 C520 0.950 . S
H515 C521 0.950 . S
H516 C522 0.949 . S
C517 H512 0.950 . S
C517 C519 1.327 . S
C517 C523 1.429 . S
C518 C510 1.574 . S
C518 H513 0.949 . S
C518 C524 1.368 . S
C519 C503 1.349 . S
C519 H511 0.950 . S
C519 C517 1.327 . S
C520 C508 1.349 . S
C520 H514 0.950 . S
C520 C521 1.327 . S
C521 H515 0.950 . S
C521 C520 1.327 . S
C521 C525 1.429 . S
C522 C505 1.574 . S
C522 H516 0.949 . S
C522 C526 1.368 . S
C523 C504 1.429 . S
C523 C517 1.429 . S
C523 C524 1.523 . S
C524 C505 1.368 . S
C524 C518 1.368 . S
C524 C523 1.523 . S
C525 C509 1.429 . S
C525 C521 1.429 . S
C525 C526 1.523 . S
C526 C510 1.368 . S
C526 C522 1.368 . S
C526 C525 1.523 . S
H527 C502 0.950 . S
H528 C504 0.950 . S
H529 C505 0.949 . S
H530 C507 0.950 . S
H531 C509 0.950 . S
C532 C533 1.349 . S
C532 C534 1.327 . S
C532 H557 0.950 . S
C533 C532 1.349 . S
C533 C549 1.349 . S
C534 C532 1.327 . S
C534 C553 1.429 . S
C534 H558 0.950 . S
C535 C552 1.574 1_554 S
C535 C554 1.368 . S
C535 H559 0.949 . S
H536 C540 0.949 . S
C537 C538 1.349 . S
C537 C539 1.327 . S
C537 H560 0.950 . S
C538 C537 1.349 . S
C538 C550 1.349 . S
C539 C537 1.327 . S
C539 C555 1.429 . S
C539 H561 0.950 . S
C540 H536 0.949 . S
C540 C548 1.574 1_556 S
C540 C556 1.368 . S
H541 C549 0.950 . S
H542 C547 0.950 . S
H543 C548 0.949 . S
H544 C550 0.950 . S
H545 C551 0.950 . S
H546 C552 0.949 . S
C547 H542 0.950 . S
C547 C549 1.327 . S
C547 C553 1.429 . S
C548 C540 1.574 1_554 S
C548 H543 0.949 . S
C548 C554 1.368 . S
C549 C533 1.349 . S
C549 H541 0.950 . S
C549 C547 1.327 . S
C550 C538 1.349 . S
C550 H544 0.950 . S
C550 C551 1.327 . S
C551 H545 0.950 . S
C551 C550 1.327 . S
C551 C555 1.429 . S
C552 C535 1.574 1_556 S
C552 H546 0.949 . S
C552 C556 1.368 . S
C553 C534 1.429 . S
C553 C547 1.429 . S
C553 C554 1.523 . S
C554 C535 1.368 . S
C554 C548 1.368 . S
C554 C553 1.523 . S
C555 C539 1.429 . S
C555 C551 1.429 . S
C555 C556 1.523 . S
C556 C540 1.368 . S
C556 C552 1.368 . S
C556 C555 1.523 . S
H557 C532 0.950 . S
H558 C534 0.950 . S
H559 C535 0.949 . S
H560 C537 0.950 . S
H561 C539 0.950 . S
C562 C563 1.349 . S
C562 C564 1.327 . S
C562 H587 0.950 . S
C563 C562 1.349 . S
C563 C579 1.349 . S
C564 C562 1.327 . S
C564 C583 1.429 . S
C564 H588 0.950 . S
C565 C582 1.574 . S
C565 C584 1.368 . S
C565 H589 0.949 . S
H566 C570 0.949 . S
C567 C568 1.349 . S
C567 C569 1.327 . S
C567 H590 0.950 . S
C568 C567 1.349 . S
C568 C580 1.349 . S
C569 C567 1.327 . S
C569 C585 1.429 . S
C569 H591 0.950 . S
C570 H566 0.949 . S
C570 C578 1.574 . S
C570 C586 1.368 . S
H571 C579 0.950 . S
H572 C577 0.950 . S
H573 C578 0.949 . S
H574 C580 0.950 . S
H575 C581 0.950 . S
H576 C582 0.949 . S
C577 H572 0.950 . S
C577 C579 1.327 . S
C577 C583 1.429 . S
C578 C570 1.574 . S
C578 H573 0.949 . S
C578 C584 1.368 . S
C579 C563 1.349 . S
C579 H571 0.950 . S
C579 C577 1.327 . S
C580 C568 1.349 . S
C580 H574 0.950 . S
C580 C581 1.327 . S
C581 H575 0.950 . S
C581 C580 1.327 . S
C581 C585 1.429 . S
C582 C565 1.574 . S
C582 H576 0.949 . S
C582 C586 1.368 . S
C583 C564 1.429 . S
C583 C577 1.429 . S
C583 C584 1.523 . S
C584 C565 1.368 . S
C584 C578 1.368 . S
C584 C583 1.523 . S
C585 C569 1.429 . S
C585 C581 1.429 . S
C585 C586 1.523 . S
C586 C570 1.368 . S
C586 C582 1.368 . S
C586 C585 1.523 . S
H587 C562 0.950 . S
H588 C564 0.950 . S
H589 C565 0.949 . S
H590 C567 0.950 . S
H591 C569 0.950 . S
C592 C593 1.349 . S
C592 C594 1.327 . S
C592 H617 0.950 . S
C593 C592 1.349 . S
C593 C609 1.349 . S
C594 C592 1.327 . S
C594 C613 1.429 . S
C594 H618 0.950 . S
C595 C612 1.574 . S
C595 C614 1.368 1_545 S
C595 H619 0.949 . S
H596 C600 0.949 . S
C597 C598 1.349 . S
C597 C599 1.327 . S
C597 H620 0.950 . S
C598 C597 1.349 . S
C598 C610 1.349 . S
C599 C597 1.327 . S
C599 C615 1.429 . S
C599 H621 0.950 . S
C600 H596 0.949 . S
C600 C608 1.574 . S
C600 C616 1.368 1_565 S
H601 C609 0.950 . S
H602 C607 0.950 . S
H603 C608 0.949 . S
H604 C610 0.950 . S
H605 C611 0.950 . S
H606 C612 0.949 . S
C607 H602 0.950 . S
C607 C609 1.327 . S
C607 C613 1.429 . S
C608 C600 1.574 . S
C608 H603 0.949 . S
C608 C614 1.368 1_554 S
C609 C593 1.349 . S
C609 H601 0.950 . S
C609 C607 1.327 . S
C610 C598 1.349 . S
C610 H604 0.950 . S
C610 C611 1.327 . S
C611 H605 0.950 . S
C611 C610 1.327 . S
C611 C615 1.429 . S
C612 C595 1.574 . S
C612 H606 0.949 . S
C612 C616 1.368 1_556 S
C613 C594 1.429 . S
C613 C607 1.429 . S
C613 C614 1.523 . S
C614 C595 1.368 1_565 S
C614 C608 1.368 1_556 S
C614 C613 1.523 . S
C615 C599 1.429 . S
C615 C611 1.429 . S
C615 C616 1.523 . S
C616 C600 1.368 1_545 S
C616 C612 1.368 1_554 S
C616 C615 1.523 . S
H617 C592 0.950 . S
H618 C594 0.950 . S
H619 C595 0.949 . S
H620 C597 0.950 . S
H621 C599 0.950 . S
C622 C623 1.349 . S
C622 C624 1.327 . S
C622 H647 0.950 . S
C623 C622 1.349 . S
C623 C639 1.349 . S
C624 C622 1.327 . S
C624 C643 1.429 . S
C624 H648 0.950 . S
C625 C642 1.574 . S
C625 C644 1.368 1_545 S
C625 H649 0.949 . S
H626 C630 0.949 . S
C627 C628 1.349 . S
C627 C629 1.327 . S
C627 H650 0.950 . S
C628 C627 1.349 . S
C628 C640 1.349 . S
C629 C627 1.327 . S
C629 C645 1.429 . S
C629 H651 0.950 . S
C630 H626 0.949 . S
C630 C638 1.574 . S
C630 C646 1.368 1_565 S
H631 C639 0.950 . S
H632 C637 0.950 . S
H633 C638 0.949 . S
H634 C640 0.950 . S
H635 C641 0.950 . S
H636 C642 0.949 . S
C637 H632 0.950 . S
C637 C639 1.327 . S
C637 C643 1.429 . S
C638 C630 1.574 . S
C638 H633 0.949 . S
C638 C644 1.368 . S
C639 C623 1.349 . S
C639 H631 0.950 . S
C639 C637 1.327 . S
C640 C628 1.349 . S
C640 H634 0.950 . S
C640 C641 1.327 . S
C641 H635 0.950 . S
C641 C640 1.327 . S
C641 C645 1.429 . S
C642 C625 1.574 . S
C642 H636 0.949 . S
C642 C646 1.368 . S
C643 C624 1.429 . S
C643 C637 1.429 . S
C643 C644 1.523 . S
C644 C625 1.368 1_565 S
C644 C638 1.368 . S
C644 C643 1.523 . S
C645 C629 1.429 . S
C645 C641 1.429 . S
C645 C646 1.523 . S
C646 C630 1.368 1_545 S
C646 C642 1.368 . S
C646 C645 1.523 . S
H647 C622 0.950 . S
H648 C624 0.950 . S
H649 C625 0.949 . S
H650 C627 0.950 . S
H651 C629 0.950 . S
C652 C653 1.349 . S
C652 C654 1.327 . S
C652 H677 0.950 . S
C653 C652 1.349 . S
C653 C669 1.349 . S
C654 C652 1.327 . S
C654 C673 1.429 . S
C654 H678 0.950 . S
C655 C672 1.588 . S
C655 C674 1.354 1_554 S
C655 H679 0.949 . S
H656 C660 0.949 . S
C657 C658 1.349 . S
C657 C659 1.327 . S
C657 H680 0.950 . S
C658 C657 1.349 . S
C658 C670 1.349 . S
C659 C657 1.327 . S
C659 C675 1.429 . S
C659 H681 0.950 . S
C660 H656 0.949 . S
C660 C668 1.588 . S
C660 C676 1.354 1_556 S
H661 C669 0.950 . S
H662 C667 0.950 . S
H663 C668 0.949 . S
H664 C670 0.950 . S
H665 C671 0.950 . S
H666 C672 0.949 . S
C667 H662 0.950 . S
C667 C669 1.327 . S
C667 C673 1.429 . S
C668 C660 1.588 . S
C668 H663 0.949 . S
C668 C674 1.368 1_545 S
C669 C653 1.349 . S
C669 H661 0.950 . S
C669 C667 1.327 . S
C670 C658 1.349 . S
C670 H664 0.950 . S
C670 C671 1.327 . S
C671 H665 0.950 . S
C671 C670 1.327 . S
C671 C675 1.429 . S
C672 C655 1.588 . S
C672 H666 0.949 . S
C672 C676 1.368 1_565 S
C673 C654 1.429 . S
C673 C667 1.429 . S
C673 C674 1.523 . S
C674 C655 1.354 1_556 S
C674 C668 1.368 1_565 S
C674 C673 1.523 . S
C675 C659 1.429 . S
C675 C671 1.429 . S
C675 C676 1.523 . S
C676 C660 1.354 1_554 S
C676 C672 1.368 1_545 S
C676 C675 1.523 . S
H677 C652 0.950 . S
H678 C654 0.950 . S
H679 C655 0.949 . S
H680 C657 0.950 . S
H681 C659 0.950 . S
C682 C683 1.349 . S
C682 C684 1.327 . S
C682 H707 0.950 . S
C683 C682 1.349 . S
C683 C699 1.349 . S
C684 C682 1.327 . S
C684 C703 1.429 . S
C684 H708 0.950 . S
C685 C702 1.574 . S
C685 C704 1.368 1_545 S
C685 H709 0.949 . S
H686 C690 0.949 . S
C687 C688 1.349 . S
C687 C689 1.327 . S
C687 H710 0.950 . S
C688 C687 1.349 . S
C688 C700 1.349 . S
C689 C687 1.327 . S
C689 C705 1.429 . S
C689 H711 0.950 . S
C690 H686 0.949 . S
C690 C698 1.574 . S
C690 C706 1.368 1_565 S
H691 C699 0.950 . S
H692 C697 0.950 . S
H693 C698 0.949 . S
H694 C700 0.950 . S
H695 C701 0.950 . S
H696 C702 0.949 . S
C697 H692 0.950 . S
C697 C699 1.327 . S
C697 C703 1.429 . S
C698 C690 1.574 . S
C698 H693 0.949 . S
C698 C704 1.368 . S
C699 C683 1.349 . S
C699 H691 0.950 . S
C699 C697 1.327 . S
C700 C688 1.349 . S
C700 H694 0.950 . S
C700 C701 1.327 . S
C701 H695 0.950 . S
C701 C700 1.327 . S
C701 C705 1.429 . S
C702 C685 1.574 . S
C702 H696 0.949 . S
C702 C706 1.368 . S
C703 C684 1.429 . S
C703 C697 1.429 . S
C703 C704 1.523 . S
C704 C685 1.368 1_565 S
C704 C698 1.368 . S
C704 C703 1.523 . S
C705 C689 1.429 . S
C705 C701 1.429 . S
C705 C706 1.523 . S
C706 C690 1.368 1_545 S
C706 C702 1.368 . S
C706 C705 1.523 . S
H707 C682 0.950 . S
H708 C684 0.950 . S
H709 C685 0.949 . S
H710 C687 0.950 . S
H711 C689 0.950 . S
C712 C713 1.349 . S
C712 C714 1.327 . S
C712 H737 0.950 . S
C713 C712 1.349 . S
C713 C729 1.349 . S
C714 C712 1.327 . S
C714 C733 1.429 . S
C714 H738 0.950 . S
C715 C732 1.574 . S
C715 C734 1.368 . S
C715 H739 0.949 . S
H716 C720 0.949 . S
C717 C718 1.349 . S
C717 C719 1.327 . S
C717 H740 0.950 . S
C718 C717 1.349 . S
C718 C730 1.349 . S
C719 C717 1.327 . S
C719 C735 1.429 . S
C719 H741 0.950 . S
C720 H716 0.949 . S
C720 C728 1.574 . S
C720 C736 1.368 . S
H721 C729 0.950 . S
H722 C727 0.950 . S
H723 C728 0.949 . S
H724 C730 0.950 . S
H725 C731 0.950 . S
H726 C732 0.949 . S
C727 H722 0.950 . S
C727 C729 1.327 . S
C727 C733 1.429 . S
C728 C720 1.574 . S
C728 H723 0.949 . S
C728 C734 1.368 1_556 S
C729 C713 1.349 . S
C729 H721 0.950 . S
C729 C727 1.327 . S
C730 C718 1.349 . S
C730 H724 0.950 . S
C730 C731 1.327 . S
C731 H725 0.950 . S
C731 C730 1.327 . S
C731 C735 1.429 . S
C732 C715 1.574 . S
C732 H726 0.949 . S
C732 C736 1.368 1_554 S
C733 C714 1.429 . S
C733 C727 1.429 . S
C733 C734 1.523 . S
C734 C715 1.368 . S
C734 C728 1.368 1_554 S
C734 C733 1.523 . S
C735 C719 1.429 . S
C735 C731 1.429 . S
C735 C736 1.523 . S
C736 C720 1.368 . S
C736 C732 1.368 1_556 S
C736 C735 1.523 . S
H737 C712 0.950 . S
H738 C714 0.950 . S
H739 C715 0.949 . S
H740 C717 0.950 . S
H741 C719 0.950 . S
C742 C743 1.349 . S
C742 C744 1.327 . S
C742 H767 0.950 . S
C743 C742 1.349 . S
C743 C759 1.349 . S
C744 C742 1.327 . S
C744 C763 1.429 . S
C744 H768 0.950 . S
C745 C762 1.574 . S
C745 C764 1.368 . S
C745 H769 0.949 . S
H746 C750 0.949 . S
C747 C748 1.349 . S
C747 C749 1.327 . S
C747 H770 0.950 . S
C748 C747 1.349 . S
C748 C760 1.349 . S
C749 C747 1.327 . S
C749 C765 1.429 . S
C749 H771 0.950 . S
C750 H746 0.949 . S
C750 C758 1.574 . S
C750 C766 1.368 . S
H751 C759 0.950 . S
H752 C757 0.950 . S
H753 C758 0.949 . S
H754 C760 0.950 . S
H755 C761 0.950 . S
H756 C762 0.949 . S
C757 H752 0.950 . S
C757 C759 1.327 . S
C757 C763 1.429 . S
C758 C750 1.574 . S
C758 H753 0.949 . S
C758 C764 1.368 . S
C759 C743 1.349 . S
C759 H751 0.950 . S
C759 C757 1.327 . S
C760 C748 1.349 . S
C760 H754 0.950 . S
C760 C761 1.327 . S
C761 H755 0.950 . S
C761 C760 1.327 . S
C761 C765 1.429 . S
C762 C745 1.574 . S
C762 H756 0.949 . S
C762 C766 1.368 . S
C763 C744 1.429 . S
C763 C757 1.429 . S
C763 C764 1.523 . S
C764 C745 1.368 . S
C764 C758 1.368 . S
C764 C763 1.523 . S
C765 C749 1.429 . S
C765 C761 1.429 . S
C765 C766 1.523 . S
C766 C750 1.368 . S
C766 C762 1.368 . S
C766 C765 1.523 . S
H767 C742 0.950 . S
H768 C744 0.950 . S
H769 C745 0.949 . S
H770 C747 0.950 . S
H771 C749 0.950 . S
C772 C773 1.349 . S
C772 C774 1.327 . S
C772 H797 0.950 . S
C773 C772 1.349 . S
C773 C789 1.349 . S
C774 C772 1.327 . S
C774 C793 1.429 . S
C774 H798 0.950 . S
C775 C792 1.564 1_554 S
C775 C794 1.368 . S
C775 H799 0.949 . S
H776 C780 0.949 . S
C777 C778 1.349 . S
C777 C779 1.327 . S
C777 H800 0.950 . S
C778 C777 1.349 . S
C778 C790 1.349 . S
C779 C777 1.327 . S
C779 C795 1.429 . S
C779 H801 0.950 . S
C780 H776 0.949 . S
C780 C788 1.564 1_556 S
C780 C796 1.368 . S
H781 C789 0.950 . S
H782 C787 0.950 . S
H783 C788 0.948 . S
H784 C790 0.950 . S
H785 C791 0.950 . S
H786 C792 0.948 . S
C787 H782 0.950 . S
C787 C789 1.327 . S
C787 C793 1.429 . S
C788 C780 1.564 1_554 S
C788 H783 0.948 . S
C788 C794 1.377 . S
C789 C773 1.349 . S
C789 H781 0.950 . S
C789 C787 1.327 . S
C790 C778 1.349 . S
C790 H784 0.950 . S
C790 C791 1.327 . S
C791 H785 0.950 . S
C791 C790 1.327 . S
C791 C795 1.429 . S
C792 C775 1.564 1_556 S
C792 H786 0.948 . S
C792 C796 1.377 . S
C793 C774 1.429 . S
C793 C787 1.429 . S
C793 C794 1.523 . S
C794 C775 1.368 . S
C794 C788 1.377 . S
C794 C793 1.523 . S
C795 C779 1.429 . S
C795 C791 1.429 . S
C795 C796 1.523 . S
C796 C780 1.368 . S
C796 C792 1.377 . S
C796 C795 1.523 . S
H797 C772 0.950 . S
H798 C774 0.950 . S
H799 C775 0.949 . S
H800 C777 0.950 . S
H801 C779 0.950 . S
C802 C803 1.349 . S
C802 C804 1.327 . S
C802 H827 0.950 . S
C803 C802 1.349 . S
C803 C819 1.349 . S
C804 C802 1.327 . S
C804 C823 1.429 . S
C804 H828 0.950 . S
C805 C822 1.574 . S
C805 C824 1.368 . S
C805 H829 0.949 . S
H806 C810 0.949 . S
C807 C808 1.349 . S
C807 C809 1.327 . S
C807 H830 0.950 . S
C808 C807 1.349 . S
C808 C820 1.349 . S
C809 C807 1.327 . S
C809 C825 1.429 . S
C809 H831 0.950 . S
C810 H806 0.949 . S
C810 C818 1.574 . S
C810 C826 1.368 . S
H811 C819 0.950 . S
H812 C817 0.950 . S
H813 C818 0.949 . S
H814 C820 0.950 . S
H815 C821 0.950 . S
H816 C822 0.949 . S
C817 H812 0.950 . S
C817 C819 1.327 . S
C817 C823 1.429 . S
C818 C810 1.574 . S
C818 H813 0.949 . S
C818 C824 1.368 . S
C819 C803 1.349 . S
C819 H811 0.950 . S
C819 C817 1.327 . S
C820 C808 1.349 . S
C820 H814 0.950 . S
C820 C821 1.327 . S
C821 H815 0.950 . S
C821 C820 1.327 . S
C821 C825 1.429 . S
C822 C805 1.574 . S
C822 H816 0.949 . S
C822 C826 1.368 . S
C823 C804 1.429 . S
C823 C817 1.429 . S
C823 C824 1.523 . S
C824 C805 1.368 . S
C824 C818 1.368 . S
C824 C823 1.523 . S
C825 C809 1.429 . S
C825 C821 1.429 . S
C825 C826 1.523 . S
C826 C810 1.368 . S
C826 C822 1.368 . S
C826 C825 1.523 . S
H827 C802 0.950 . S
H828 C804 0.950 . S
H829 C805 0.949 . S
H830 C807 0.950 . S
H831 C809 0.950 . S
C832 C833 1.349 . S
C832 C834 1.327 . S
C832 H857 0.950 . S
C833 C832 1.349 . S
C833 C849 1.349 . S
C834 C832 1.327 . S
C834 C853 1.429 . S
C834 H858 0.950 . S
C835 C852 1.574 . S
C835 C854 1.368 . S
C835 H859 0.949 . S
H836 C840 0.949 . S
C837 C838 1.349 . S
C837 C839 1.327 . S
C837 H860 0.950 . S
C838 C837 1.349 . S
C838 C850 1.349 . S
C839 C837 1.327 . S
C839 C855 1.429 . S
C839 H861 0.950 . S
C840 H836 0.949 . S
C840 C848 1.574 . S
C840 C856 1.368 . S
H841 C849 0.950 . S
H842 C847 0.950 . S
H843 C848 0.949 . S
H844 C850 0.950 . S
H845 C851 0.950 . S
H846 C852 0.949 . S
C847 H842 0.950 . S
C847 C849 1.327 . S
C847 C853 1.429 . S
C848 C840 1.574 . S
C848 H843 0.949 . S
C848 C854 1.368 . S
C849 C833 1.349 . S
C849 H841 0.950 . S
C849 C847 1.327 . S
C850 C838 1.349 . S
C850 H844 0.950 . S
C850 C851 1.327 . S
C851 H845 0.950 . S
C851 C850 1.327 . S
C851 C855 1.429 . S
C852 C835 1.574 . S
C852 H846 0.949 . S
C852 C856 1.368 . S
C853 C834 1.429 . S
C853 C847 1.429 . S
C853 C854 1.523 . S
C854 C835 1.368 . S
C854 C848 1.368 . S
C854 C853 1.523 . S
C855 C839 1.429 . S
C855 C851 1.429 . S
C855 C856 1.523 . S
C856 C840 1.368 . S
C856 C852 1.368 . S
C856 C855 1.523 . S
H857 C832 0.950 . S
H858 C834 0.950 . S
H859 C835 0.949 . S
H860 C837 0.950 . S
H861 C839 0.950 . S
C862 C863 1.349 . S
C862 C864 1.327 . S
C862 H887 0.950 . S
C863 C862 1.349 . S
C863 C879 1.349 . S
C864 C862 1.327 . S
C864 C883 1.429 . S
C864 H888 0.950 . S
C865 C882 1.574 . S
C865 C884 1.368 . S
C865 H889 0.949 . S
H866 C870 0.949 . S
C867 C868 1.349 . S
C867 C869 1.327 . S
C867 H890 0.950 . S
C868 C867 1.349 . S
C868 C880 1.349 . S
C869 C867 1.327 . S
C869 C885 1.429 . S
C869 H891 0.950 . S
C870 H866 0.949 . S
C870 C878 1.574 . S
C870 C886 1.368 . S
H871 C879 0.950 . S
H872 C877 0.950 . S
H873 C878 0.949 . S
H874 C880 0.950 . S
H875 C881 0.950 . S
H876 C882 0.949 . S
C877 H872 0.950 . S
C877 C879 1.327 . S
C877 C883 1.429 . S
C878 C870 1.574 . S
C878 H873 0.949 . S
C878 C884 1.368 . S
C879 C863 1.349 . S
C879 H871 0.950 . S
C879 C877 1.327 . S
C880 C868 1.349 . S
C880 H874 0.950 . S
C880 C881 1.327 . S
C881 H875 0.950 . S
C881 C880 1.327 . S
C881 C885 1.429 . S
C882 C865 1.574 . S
C882 H876 0.949 . S
C882 C886 1.368 . S
C883 C864 1.429 . S
C883 C877 1.429 . S
C883 C884 1.523 . S
C884 C865 1.368 . S
C884 C878 1.368 . S
C884 C883 1.523 . S
C885 C869 1.429 . S
C885 C881 1.429 . S
C885 C886 1.523 . S
C886 C870 1.368 . S
C886 C882 1.368 . S
C886 C885 1.523 . S
H887 C862 0.950 . S
H888 C864 0.950 . S
H889 C865 0.949 . S
H890 C867 0.950 . S
H891 C869 0.950 . S
C892 C893 1.349 . S
C892 C894 1.327 . S
C892 H917 0.950 . S
C893 C892 1.349 . S
C893 C909 1.349 . S
C894 C892 1.327 . S
C894 C913 1.429 . S
C894 H918 0.950 . S
C895 C912 1.574 . S
C895 C914 1.368 . S
C895 H919 0.949 . S
H896 C900 0.949 . S
C897 C898 1.349 . S
C897 C899 1.327 . S
C897 H920 0.950 . S
C898 C897 1.349 . S
C898 C910 1.349 . S
C899 C897 1.327 . S
C899 C915 1.429 . S
C899 H921 0.950 . S
C900 H896 0.949 . S
C900 C908 1.574 . S
C900 C916 1.368 . S
H901 C909 0.950 . S
H902 C907 0.950 . S
H903 C908 0.949 . S
H904 C910 0.950 . S
H905 C911 0.950 . S
H906 C912 0.949 . S
C907 H902 0.950 . S
C907 C909 1.327 . S
C907 C913 1.429 . S
C908 C900 1.574 . S
C908 H903 0.949 . S
C908 C914 1.368 . S
C909 C893 1.349 . S
C909 H901 0.950 . S
C909 C907 1.327 . S
C910 C898 1.349 . S
C910 H904 0.950 . S
C910 C911 1.327 . S
C911 H905 0.950 . S
C911 C910 1.327 . S
C911 C915 1.429 . S
C912 C895 1.574 . S
C912 H906 0.949 . S
C912 C916 1.368 . S
C913 C894 1.429 . S
C913 C907 1.429 . S
C913 C914 1.523 . S
C914 C895 1.368 . S
C914 C908 1.368 . S
C914 C913 1.523 . S
C915 C899 1.429 . S
C915 C911 1.429 . S
C915 C916 1.523 . S
C916 C900 1.368 . S
C916 C912 1.368 . S
C916 C915 1.523 . S
H917 C892 0.950 . S
H918 C894 0.950 . S
H919 C895 0.949 . S
H920 C897 0.950 . S
H921 C899 0.950 . S
C922 C923 1.349 . S
C922 C924 1.327 . S
C922 H947 0.950 . S
C923 C922 1.349 . S
C923 C939 1.349 . S
C924 C922 1.327 . S
C924 C943 1.429 . S
C924 H948 0.950 . S
C925 C942 1.574 . S
C925 C944 1.368 . S
C925 H949 0.949 . S
H926 C930 0.949 . S
C927 C928 1.349 . S
C927 C929 1.327 . S
C927 H950 0.950 . S
C928 C927 1.349 . S
C928 C940 1.349 . S
C929 C927 1.327 . S
C929 C945 1.429 . S
C929 H951 0.950 . S
C930 H926 0.949 . S
C930 C938 1.574 . S
C930 C946 1.368 . S
H931 C939 0.950 . S
H932 C937 0.950 . S
H933 C938 0.949 . S
H934 C940 0.950 . S
H935 C941 0.950 . S
H936 C942 0.949 . S
C937 H932 0.950 . S
C937 C939 1.327 . S
C937 C943 1.429 . S
C938 C930 1.574 . S
C938 H933 0.949 . S
C938 C944 1.368 . S
C939 C923 1.349 . S
C939 H931 0.950 . S
C939 C937 1.327 . S
C940 C928 1.349 . S
C940 H934 0.950 . S
C940 C941 1.327 . S
C941 H935 0.950 . S
C941 C940 1.327 . S
C941 C945 1.429 . S
C942 C925 1.574 . S
C942 H936 0.949 . S
C942 C946 1.368 . S
C943 C924 1.429 . S
C943 C937 1.429 . S
C943 C944 1.523 . S
C944 C925 1.368 . S
C944 C938 1.368 . S
C944 C943 1.523 . S
C945 C929 1.429 . S
C945 C941 1.429 . S
C945 C946 1.523 . S
C946 C930 1.368 . S
C946 C942 1.368 . S
C946 C945 1.523 . S
H947 C922 0.950 . S
H948 C924 0.950 . S
H949 C925 0.949 . S
H950 C927 0.950 . S
H951 C929 0.950 . S
C952 C953 1.349 . S
C952 C954 1.327 . S
C952 H977 0.950 . S
C953 C952 1.349 . S
C953 C969 1.349 . S
C954 C952 1.327 . S
C954 C973 1.429 . S
C954 H978 0.950 . S
C955 C972 1.574 . S
C955 C974 1.368 . S
C955 H979 0.949 . S
H956 C960 0.949 . S
C957 C958 1.349 . S
C957 C959 1.327 . S
C957 H980 0.950 . S
C958 C957 1.349 . S
C958 C970 1.349 . S
C959 C957 1.327 . S
C959 C975 1.429 . S
C959 H981 0.950 . S
C960 H956 0.949 . S
C960 C968 1.574 . S
C960 C976 1.368 . S
H961 C969 0.950 . S
H962 C967 0.950 . S
H963 C968 0.949 . S
H964 C970 0.950 . S
H965 C971 0.950 . S
H966 C972 0.949 . S
C967 H962 0.950 . S
C967 C969 1.327 . S
C967 C973 1.429 . S
C968 C960 1.574 . S
C968 H963 0.949 . S
C968 C974 1.368 . S
C969 C953 1.349 . S
C969 H961 0.950 . S
C969 C967 1.327 . S
C970 C958 1.349 . S
C970 H964 0.950 . S
C970 C971 1.327 . S
C971 H965 0.950 . S
C971 C970 1.327 . S
C971 C975 1.429 . S
C972 C955 1.574 . S
C972 H966 0.949 . S
C972 C976 1.368 . S
C973 C954 1.429 . S
C973 C967 1.429 . S
C973 C974 1.523 . S
C974 C955 1.368 . S
C974 C968 1.368 . S
C974 C973 1.523 . S
C975 C959 1.429 . S
C975 C971 1.429 . S
C975 C976 1.523 . S
C976 C960 1.368 . S
C976 C972 1.368 . S
C976 C975 1.523 . S
H977 C952 0.950 . S
H978 C954 0.950 . S
H979 C955 0.949 . S
H980 C957 0.950 . S
H981 C959 0.950 . S
C982 C983 1.349 . S
C982 C984 1.327 . S
C982 H1007 0.950 . S
C983 C982 1.349 . S
C983 C999 1.349 . S
C984 C982 1.327 . S
C984 C1003 1.429 . S
C984 H1008 0.950 . S
C985 C1002 1.574 . S
C985 C1004 1.368 . S
C985 H1009 0.949 . S
H986 C990 0.949 . S
C987 C988 1.349 . S
C987 C989 1.327 . S
C987 H1010 0.950 . S
C988 C987 1.349 . S
C988 C1000 1.349 . S
C989 C987 1.327 . S
C989 C1005 1.429 . S
C989 H1011 0.950 . S
C990 H986 0.949 . S
C990 C998 1.574 . S
C990 C1006 1.368 . S
H991 C999 0.950 . S
H992 C997 0.950 . S
H993 C998 0.949 . S
H994 C1000 0.950 . S
H995 C1001 0.950 . S
H996 C1002 0.949 . S
C997 H992 0.950 . S
C997 C999 1.327 . S
C997 C1003 1.429 . S
C998 C990 1.574 . S
C998 H993 0.949 . S
C998 C1004 1.368 . S
C999 C983 1.349 . S
C999 H991 0.950 . S
C999 C997 1.327 . S
C1000 C988 1.349 . S
C1000 H994 0.950 . S
C1000 C1001 1.327 . S
C1001 H995 0.950 . S
C1001 C1000 1.327 . S
C1001 C1005 1.429 . S
C1002 C985 1.574 . S
C1002 H996 0.949 . S
C1002 C1006 1.368 . S
C1003 C984 1.429 . S
C1003 C997 1.429 . S
C1003 C1004 1.523 . S
C1004 C985 1.368 . S
C1004 C998 1.368 . S
C1004 C1003 1.523 . S
C1005 C989 1.429 . S
C1005 C1001 1.429 . S
C1005 C1006 1.523 . S
C1006 C990 1.368 . S
C1006 C1002 1.368 . S
C1006 C1005 1.523 . S
H1007 C982 0.950 . S
H1008 C984 0.950 . S
H1009 C985 0.949 . S
H1010 C987 0.950 . S
H1011 C989 0.950 . S
C1012 C1013 1.349 . S
C1012 C1014 1.327 . S
C1012 H1037 0.950 . S
C1013 C1012 1.349 . S
C1013 C1029 1.349 . S
C1014 C1012 1.327 . S
C1014 C1033 1.429 . S
C1014 H1038 0.950 . S
C1015 C1032 1.574 . S
C1015 C1034 1.368 . S
C1015 H1039 0.949 . S
H1016 C1020 0.949 . S
C1017 C1018 1.349 . S
C1017 C1019 1.327 . S
C1017 H1040 0.950 . S
C1018 C1017 1.349 . S
C1018 C1030 1.349 . S
C1019 C1017 1.327 . S
C1019 C1035 1.429 . S
C1019 H1041 0.950 . S
C1020 H1016 0.949 . S
C1020 C1028 1.574 . S
C1020 C1036 1.368 . S
H1021 C1029 0.950 . S
H1022 C1027 0.950 . S
H1023 C1028 0.949 . S
H1024 C1030 0.950 . S
H1025 C1031 0.950 . S
H1026 C1032 0.949 . S
C1027 H1022 0.950 . S
C1027 C1029 1.327 . S
C1027 C1033 1.429 . S
C1028 C1020 1.574 . S
C1028 H1023 0.949 . S
C1028 C1034 1.368 . S
C1029 C1013 1.349 . S
C1029 H1021 0.950 . S
C1029 C1027 1.327 . S
C1030 C1018 1.349 . S
C1030 H1024 0.950 . S
C1030 C1031 1.327 . S
C1031 H1025 0.950 . S
C1031 C1030 1.327 . S
C1031 C1035 1.429 . S
C1032 C1015 1.574 . S
C1032 H1026 0.949 . S
C1032 C1036 1.368 . S
C1033 C1014 1.429 . S
C1033 C1027 1.429 . S
C1033 C1034 1.523 . S
C1034 C1015 1.368 . S
C1034 C1028 1.368 . S
C1034 C1033 1.523 . S
C1035 C1019 1.429 . S
C1035 C1031 1.429 . S
C1035 C1036 1.523 . S
C1036 C1020 1.368 . S
C1036 C1032 1.368 . S
C1036 C1035 1.523 . S
H1037 C1012 0.950 . S
H1038 C1014 0.950 . S
H1039 C1015 0.949 . S
H1040 C1017 0.950 . S
H1041 C1019 0.950 . S
C1042 C1043 1.349 . S
C1042 C1044 1.327 . S
C1042 H1067 0.950 . S
C1043 C1042 1.349 . S
C1043 C1059 1.349 . S
C1044 C1042 1.327 . S
C1044 C1063 1.429 . S
C1044 H1068 0.950 . S
C1045 C1062 1.574 . S
C1045 C1064 1.368 . S
C1045 H1069 0.949 . S
H1046 C1050 0.949 . S
C1047 C1048 1.349 . S
C1047 C1049 1.327 . S
C1047 H1070 0.950 . S
C1048 C1047 1.349 . S
C1048 C1060 1.349 . S
C1049 C1047 1.327 . S
C1049 C1065 1.429 . S
C1049 H1071 0.950 . S
C1050 H1046 0.949 . S
C1050 C1058 1.574 . S
C1050 C1066 1.368 . S
H1051 C1059 0.950 . S
H1052 C1057 0.950 . S
H1053 C1058 0.949 . S
H1054 C1060 0.950 . S
H1055 C1061 0.950 . S
H1056 C1062 0.949 . S
C1057 H1052 0.950 . S
C1057 C1059 1.327 . S
C1057 C1063 1.429 . S
C1058 C1050 1.574 . S
C1058 H1053 0.949 . S
C1058 C1064 1.368 . S
C1059 C1043 1.349 . S
C1059 H1051 0.950 . S
C1059 C1057 1.327 . S
C1060 C1048 1.349 . S
C1060 H1054 0.950 . S
C1060 C1061 1.327 . S
C1061 H1055 0.950 . S
C1061 C1060 1.327 . S
C1061 C1065 1.429 . S
C1062 C1045 1.574 . S
C1062 H1056 0.949 . S
C1062 C1066 1.368 . S
C1063 C1044 1.429 . S
C1063 C1057 1.429 . S
C1063 C1064 1.523 . S
C1064 C1045 1.368 . S
C1064 C1058 1.368 . S
C1064 C1063 1.523 . S
C1065 C1049 1.429 . S
C1065 C1061 1.429 . S
C1065 C1066 1.523 . S
C1066 C1050 1.368 . S
C1066 C1062 1.368 . S
C1066 C1065 1.523 . S
H1067 C1042 0.950 . S
H1068 C1044 0.950 . S
H1069 C1045 0.949 . S
H1070 C1047 0.950 . S
H1071 C1049 0.950 . S
C1072 C1073 1.349 . S
C1072 C1074 1.327 . S
C1072 H1097 0.950 . S
C1073 C1072 1.349 . S
C1073 C1089 1.349 . S
C1074 C1072 1.327 . S
C1074 C1093 1.429 . S
C1074 H1098 0.950 . S
C1075 C1092 1.574 . S
C1075 C1094 1.368 . S
C1075 H1099 0.949 . S
H1076 C1080 0.949 . S
C1077 C1078 1.349 . S
C1077 C1079 1.327 . S
C1077 H1100 0.950 . S
C1078 C1077 1.349 . S
C1078 C1090 1.349 . S
C1079 C1077 1.327 . S
C1079 C1095 1.429 . S
C1079 H1101 0.950 . S
C1080 H1076 0.949 . S
C1080 C1088 1.574 . S
C1080 C1096 1.368 . S
H1081 C1089 0.950 . S
H1082 C1087 0.950 . S
H1083 C1088 0.949 . S
H1084 C1090 0.950 . S
H1085 C1091 0.950 . S
H1086 C1092 0.949 . S
C1087 H1082 0.950 . S
C1087 C1089 1.327 . S
C1087 C1093 1.429 . S
C1088 C1080 1.574 . S
C1088 H1083 0.949 . S
C1088 C1094 1.368 . S
C1089 C1073 1.349 . S
C1089 H1081 0.950 . S
C1089 C1087 1.327 . S
C1090 C1078 1.349 . S
C1090 H1084 0.950 . S
C1090 C1091 1.327 . S
C1091 H1085 0.950 . S
C1091 C1090 1.327 . S
C1091 C1095 1.429 . S
C1092 C1075 1.574 . S
C1092 H1086 0.949 . S
C1092 C1096 1.368 . S
C1093 C1074 1.429 . S
C1093 C1087 1.429 . S
C1093 C1094 1.523 . S
C1094 C1075 1.368 . S
C1094 C1088 1.368 . S
C1094 C1093 1.523 . S
C1095 C1079 1.429 . S
C1095 C1091 1.429 . S
C1095 C1096 1.523 . S
C1096 C1080 1.368 . S
C1096 C1092 1.368 . S
C1096 C1095 1.523 . S
H1097 C1072 0.950 . S
H1098 C1074 0.950 . S
H1099 C1075 0.949 . S
H1100 C1077 0.950 . S
H1101 C1079 0.950 . S
C1102 C1103 1.349 . S
C1102 C1104 1.327 . S
C1102 H1127 0.950 . S
C1103 C1102 1.349 . S
C1103 C1119 1.349 . S
C1104 C1102 1.327 . S
C1104 C1123 1.429 . S
C1104 H1128 0.950 . S
C1105 C1122 1.574 1_455 S
C1105 C1124 1.368 . S
C1105 H1129 0.949 . S
H1106 C1110 0.949 . S
C1107 C1108 1.349 . S
C1107 C1109 1.327 . S
C1107 H1130 0.950 . S
C1108 C1107 1.349 . S
C1108 C1120 1.349 . S
C1109 C1107 1.327 . S
C1109 C1125 1.429 . S
C1109 H1131 0.950 . S
C1110 H1106 0.949 . S
C1110 C1118 1.574 1_655 S
C1110 C1126 1.368 . S
H1111 C1119 0.950 . S
H1112 C1117 0.950 . S
H1113 C1118 0.949 . S
H1114 C1120 0.950 . S
H1115 C1121 0.950 . S
H1116 C1122 0.949 . S
C1117 H1112 0.950 . S
C1117 C1119 1.327 . S
C1117 C1123 1.429 . S
C1118 C1110 1.574 1_455 S
C1118 H1113 0.949 . S
C1118 C1124 1.368 . S
C1119 C1103 1.349 . S
C1119 H1111 0.950 . S
C1119 C1117 1.327 . S
C1120 C1108 1.349 . S
C1120 H1114 0.950 . S
C1120 C1121 1.327 . S
C1121 H1115 0.950 . S
C1121 C1120 1.327 . S
C1121 C1125 1.429 . S
C1122 C1105 1.574 1_655 S
C1122 H1116 0.949 . S
C1122 C1126 1.368 . S
C1123 C1104 1.429 . S
C1123 C1117 1.429 . S
C1123 C1124 1.523 . S
C1124 C1105 1.368 . S
C1124 C1118 1.368 . S
C1124 C1123 1.523 . S
C1125 C1109 1.429 . S
C1125 C1121 1.429 . S
C1125 C1126 1.523 . S
C1126 C1110 1.368 . S
C1126 C1122 1.368 . S
C1126 C1125 1.523 . S
H1127 C1102 0.950 . S
H1128 C1104 0.950 . S
H1129 C1105 0.949 . S
H1130 C1107 0.950 . S
H1131 C1109 0.950 . S
C1132 C1133 1.349 . S
C1132 C1134 1.327 . S
C1132 H1157 0.950 . S
C1133 C1132 1.349 . S
C1133 C1149 1.349 . S
C1134 C1132 1.327 . S
C1134 C1153 1.429 . S
C1134 H1158 0.950 . S
C1135 C1152 1.574 . S
C1135 C1154 1.368 . S
C1135 H1159 0.949 . S
H1136 C1140 0.949 . S
C1137 C1138 1.349 . S
C1137 C1139 1.327 . S
C1137 H1160 0.950 . S
C1138 C1137 1.349 . S
C1138 C1150 1.349 . S
C1139 C1137 1.327 . S
C1139 C1155 1.429 . S
C1139 H1161 0.950 . S
C1140 H1136 0.949 . S
C1140 C1148 1.574 . S
C1140 C1156 1.368 . S
H1141 C1149 0.950 . S
H1142 C1147 0.950 . S
H1143 C1148 0.949 . S
H1144 C1150 0.950 . S
H1145 C1151 0.950 . S
H1146 C1152 0.949 . S
C1147 H1142 0.950 . S
C1147 C1149 1.327 . S
C1147 C1153 1.429 . S
C1148 C1140 1.574 . S
C1148 H1143 0.949 . S
C1148 C1154 1.368 . S
C1149 C1133 1.349 . S
C1149 H1141 0.950 . S
C1149 C1147 1.327 . S
C1150 C1138 1.349 . S
C1150 H1144 0.950 . S
C1150 C1151 1.327 . S
C1151 H1145 0.950 . S
C1151 C1150 1.327 . S
C1151 C1155 1.429 . S
C1152 C1135 1.574 . S
C1152 H1146 0.949 . S
C1152 C1156 1.368 . S
C1153 C1134 1.429 . S
C1153 C1147 1.429 . S
C1153 C1154 1.523 . S
C1154 C1135 1.368 . S
C1154 C1148 1.368 . S
C1154 C1153 1.523 . S
C1155 C1139 1.429 . S
C1155 C1151 1.429 . S
C1155 C1156 1.523 . S
C1156 C1140 1.368 . S
C1156 C1152 1.368 . S
C1156 C1155 1.523 . S
H1157 C1132 0.950 . S
H1158 C1134 0.950 . S
H1159 C1135 0.949 . S
H1160 C1137 0.950 . S
H1161 C1139 0.950 . S
C1162 C1163 1.349 . S
C1162 C1164 1.327 . S
C1162 H1187 0.950 . S
C1163 C1162 1.349 . S
C1163 C1179 1.349 . S
C1164 C1162 1.327 . S
C1164 C1183 1.429 . S
C1164 H1188 0.950 . S
C1165 C1182 1.574 1_655 S
C1165 C1184 1.368 . S
C1165 H1189 0.949 . S
H1166 C1170 0.949 . S
C1167 C1168 1.349 . S
C1167 C1169 1.327 . S
C1167 H1190 0.950 . S
C1168 C1167 1.349 . S
C1168 C1180 1.349 . S
C1169 C1167 1.327 . S
C1169 C1185 1.429 . S
C1169 H1191 0.950 . S
C1170 H1166 0.949 . S
C1170 C1178 1.574 1_455 S
C1170 C1186 1.368 . S
H1171 C1179 0.950 . S
H1172 C1177 0.950 . S
H1173 C1178 0.949 . S
H1174 C1180 0.950 . S
H1175 C1181 0.950 . S
H1176 C1182 0.949 . S
C1177 H1172 0.950 . S
C1177 C1179 1.327 . S
C1177 C1183 1.429 . S
C1178 C1170 1.574 1_655 S
C1178 H1173 0.949 . S
C1178 C1184 1.368 . S
C1179 C1163 1.349 . S
C1179 H1171 0.950 . S
C1179 C1177 1.327 . S
C1180 C1168 1.349 . S
C1180 H1174 0.950 . S
C1180 C1181 1.327 . S
C1181 H1175 0.950 . S
C1181 C1180 1.327 . S
C1181 C1185 1.429 . S
C1182 C1165 1.574 1_455 S
C1182 H1176 0.949 . S
C1182 C1186 1.368 . S
C1183 C1164 1.429 . S
C1183 C1177 1.429 . S
C1183 C1184 1.523 . S
C1184 C1165 1.368 . S
C1184 C1178 1.368 . S
C1184 C1183 1.523 . S
C1185 C1169 1.429 . S
C1185 C1181 1.429 . S
C1185 C1186 1.523 . S
C1186 C1170 1.368 . S
C1186 C1182 1.368 . S
C1186 C1185 1.523 . S
H1187 C1162 0.950 . S
H1188 C1164 0.950 . S
H1189 C1165 0.949 . S
H1190 C1167 0.950 . S
H1191 C1169 0.950 . S
C1192 C1193 1.349 . S
C1192 C1194 1.327 . S
C1192 H1217 0.950 . S
C1193 C1192 1.349 . S
C1193 C1209 1.349 . S
C1194 C1192 1.327 . S
C1194 C1213 1.429 . S
C1194 H1218 0.950 . S
C1195 C1212 1.574 1_655 S
C1195 C1214 1.368 . S
C1195 H1219 0.949 . S
H1196 C1200 0.949 . S
C1197 C1198 1.349 . S
C1197 C1199 1.327 . S
C1197 H1220 0.950 . S
C1198 C1197 1.349 . S
C1198 C1210 1.349 . S
C1199 C1197 1.327 . S
C1199 C1215 1.429 . S
C1199 H1221 0.950 . S
C1200 H1196 0.949 . S
C1200 C1208 1.574 1_455 S
C1200 C1216 1.368 . S
H1201 C1209 0.950 . S
H1202 C1207 0.950 . S
H1203 C1208 0.949 . S
H1204 C1210 0.950 . S
H1205 C1211 0.950 . S
H1206 C1212 0.949 . S
C1207 H1202 0.950 . S
C1207 C1209 1.327 . S
C1207 C1213 1.429 . S
C1208 C1200 1.574 1_655 S
C1208 H1203 0.949 . S
C1208 C1214 1.368 . S
C1209 C1193 1.349 . S
C1209 H1201 0.950 . S
C1209 C1207 1.327 . S
C1210 C1198 1.349 . S
C1210 H1204 0.950 . S
C1210 C1211 1.327 . S
C1211 H1205 0.950 . S
C1211 C1210 1.327 . S
C1211 C1215 1.429 . S
C1212 C1195 1.574 1_455 S
C1212 H1206 0.949 . S
C1212 C1216 1.368 . S
C1213 C1194 1.429 . S
C1213 C1207 1.429 . S
C1213 C1214 1.523 . S
C1214 C1195 1.368 . S
C1214 C1208 1.368 . S
C1214 C1213 1.523 . S
C1215 C1199 1.429 . S
C1215 C1211 1.429 . S
C1215 C1216 1.523 . S
C1216 C1200 1.368 . S
C1216 C1212 1.368 . S
C1216 C1215 1.523 . S
H1217 C1192 0.950 . S
H1218 C1194 0.950 . S
H1219 C1195 0.949 . S
H1220 C1197 0.950 . S
H1221 C1199 0.950 . S
C1222 C1223 1.349 . S
C1222 C1224 1.327 . S
C1222 H1247 0.950 . S
C1223 C1222 1.349 . S
C1223 C1239 1.349 . S
C1224 C1222 1.327 . S
C1224 C1243 1.429 . S
C1224 H1248 0.950 . S
C1225 C1242 1.574 . S
C1225 C1244 1.368 . S
C1225 H1249 0.949 . S
H1226 C1230 0.949 . S
C1227 C1228 1.349 . S
C1227 C1229 1.327 . S
C1227 H1250 0.950 . S
C1228 C1227 1.349 . S
C1228 C1240 1.349 . S
C1229 C1227 1.327 . S
C1229 C1245 1.429 . S
C1229 H1251 0.950 . S
C1230 H1226 0.949 . S
C1230 C1238 1.574 . S
C1230 C1246 1.368 . S
H1231 C1239 0.950 . S
H1232 C1237 0.950 . S
H1233 C1238 0.949 . S
H1234 C1240 0.950 . S
H1235 C1241 0.950 . S
H1236 C1242 0.949 . S
C1237 H1232 0.950 . S
C1237 C1239 1.327 . S
C1237 C1243 1.429 . S
C1238 C1230 1.574 . S
C1238 H1233 0.949 . S
C1238 C1244 1.368 . S
C1239 C1223 1.349 . S
C1239 H1231 0.950 . S
C1239 C1237 1.327 . S
C1240 C1228 1.349 . S
C1240 H1234 0.950 . S
C1240 C1241 1.327 . S
C1241 H1235 0.950 . S
C1241 C1240 1.327 . S
C1241 C1245 1.429 . S
C1242 C1225 1.574 . S
C1242 H1236 0.949 . S
C1242 C1246 1.368 . S
C1243 C1224 1.429 . S
C1243 C1237 1.429 . S
C1243 C1244 1.523 . S
C1244 C1225 1.368 . S
C1244 C1238 1.368 . S
C1244 C1243 1.523 . S
C1245 C1229 1.429 . S
C1245 C1241 1.429 . S
C1245 C1246 1.523 . S
C1246 C1230 1.368 . S
C1246 C1242 1.368 . S
C1246 C1245 1.523 . S
H1247 C1222 0.950 . S
H1248 C1224 0.950 . S
H1249 C1225 0.949 . S
H1250 C1227 0.950 . S
H1251 C1229 0.950 . S
C1252 C1253 1.349 . S
C1252 C1254 1.327 . S
C1252 H1277 0.950 . S
C1253 C1252 1.349 . S
C1253 C1269 1.349 . S
C1254 C1252 1.327 . S
C1254 C1273 1.429 . S
C1254 H1278 0.950 . S
C1255 C1272 1.574 1_455 S
C1255 C1274 1.368 . S
C1255 H1279 0.949 . S
H1256 C1260 0.949 . S
C1257 C1258 1.349 . S
C1257 C1259 1.327 . S
C1257 H1280 0.950 . S
C1258 C1257 1.349 . S
C1258 C1270 1.349 . S
C1259 C1257 1.327 . S
C1259 C1275 1.429 . S
C1259 H1281 0.950 . S
C1260 H1256 0.949 . S
C1260 C1268 1.574 1_655 S
C1260 C1276 1.368 . S
H1261 C1269 0.950 . S
H1262 C1267 0.950 . S
H1263 C1268 0.949 . S
H1264 C1270 0.950 . S
H1265 C1271 0.950 . S
H1266 C1272 0.949 . S
C1267 H1262 0.950 . S
C1267 C1269 1.327 . S
C1267 C1273 1.429 . S
C1268 C1260 1.574 1_455 S
C1268 H1263 0.949 . S
C1268 C1274 1.368 . S
C1269 C1253 1.349 . S
C1269 H1261 0.950 . S
C1269 C1267 1.327 . S
C1270 C1258 1.349 . S
C1270 H1264 0.950 . S
C1270 C1271 1.327 . S
C1271 H1265 0.950 . S
C1271 C1270 1.327 . S
C1271 C1275 1.429 . S
C1272 C1255 1.574 1_655 S
C1272 H1266 0.949 . S
C1272 C1276 1.368 . S
C1273 C1254 1.429 . S
C1273 C1267 1.429 . S
C1273 C1274 1.523 . S
C1274 C1255 1.368 . S
C1274 C1268 1.368 . S
C1274 C1273 1.523 . S
C1275 C1259 1.429 . S
C1275 C1271 1.429 . S
C1275 C1276 1.523 . S
C1276 C1260 1.368 . S
C1276 C1272 1.368 . S
C1276 C1275 1.523 . S
H1277 C1252 0.950 . S
H1278 C1254 0.950 . S
H1279 C1255 0.949 . S
H1280 C1257 0.950 . S
H1281 C1259 0.950 . S
C1282 C1283 1.349 . S
C1282 C1284 1.327 . S
C1282 H1307 0.950 . S
C1283 C1282 1.349 . S
C1283 C1299 1.349 . S
C1284 C1282 1.327 . S
C1284 C1303 1.429 . S
C1284 H1308 0.950 . S
C1285 C1302 1.574 . S
C1285 C1304 1.368 . S
C1285 H1309 0.949 . S
H1286 C1290 0.949 . S
C1287 C1288 1.349 . S
C1287 C1289 1.327 . S
C1287 H1310 0.950 . S
C1288 C1287 1.349 . S
C1288 C1300 1.349 . S
C1289 C1287 1.327 . S
C1289 C1305 1.429 . S
C1289 H1311 0.950 . S
C1290 H1286 0.949 . S
C1290 C1298 1.574 . S
C1290 C1306 1.368 . S
H1291 C1299 0.950 . S
H1292 C1297 0.950 . S
H1293 C1298 0.949 . S
H1294 C1300 0.950 . S
H1295 C1301 0.950 . S
H1296 C1302 0.949 . S
C1297 H1292 0.950 . S
C1297 C1299 1.327 . S
C1297 C1303 1.429 . S
C1298 C1290 1.574 . S
C1298 H1293 0.949 . S
C1298 C1304 1.368 . S
C1299 C1283 1.349 . S
C1299 H1291 0.950 . S
C1299 C1297 1.327 . S
C1300 C1288 1.349 . S
C1300 H1294 0.950 . S
C1300 C1301 1.327 . S
C1301 H1295 0.950 . S
C1301 C1300 1.327 . S
C1301 C1305 1.429 . S
C1302 C1285 1.574 . S
C1302 H1296 0.949 . S
C1302 C1306 1.368 . S
C1303 C1284 1.429 . S
C1303 C1297 1.429 . S
C1303 C1304 1.523 . S
C1304 C1285 1.368 . S
C1304 C1298 1.368 . S
C1304 C1303 1.523 . S
C1305 C1289 1.429 . S
C1305 C1301 1.429 . S
C1305 C1306 1.523 . S
C1306 C1290 1.368 . S
C1306 C1302 1.368 . S
C1306 C1305 1.523 . S
H1307 C1282 0.950 . S
H1308 C1284 0.950 . S
H1309 C1285 0.949 . S
H1310 C1287 0.950 . S
H1311 C1289 0.950 . S
C1312 C1313 1.349 . S
C1312 C1314 1.327 . S
C1312 H1337 0.950 . S
C1313 C1312 1.349 . S
C1313 C1329 1.349 . S
C1314 C1312 1.327 . S
C1314 C1333 1.429 1_545 S
C1314 H1338 0.950 . S
C1315 C1332 1.574 . S
C1315 C1334 1.368 . S
C1315 H1339 0.949 . S
H1316 C1320 0.949 . S
C1317 C1318 1.349 . S
C1317 C1319 1.327 . S
C1317 H1340 0.950 . S
C1318 C1317 1.349 . S
C1318 C1330 1.349 . S
C1319 C1317 1.327 . S
C1319 C1335 1.429 . S
C1319 H1341 0.950 . S
C1320 H1316 0.949 . S
C1320 C1328 1.574 . S
C1320 C1336 1.368 . S
H1321 C1329 0.950 . S
H1322 C1327 0.950 1_565 S
H1323 C1328 0.949 . S
H1324 C1330 0.950 . S
H1325 C1331 0.950 . S
H1326 C1332 0.949 . S
C1327 H1322 0.950 1_545 S
C1327 C1329 1.327 . S
C1327 C1333 1.429 1_545 S
C1328 C1320 1.574 . S
C1328 H1323 0.949 . S
C1328 C1334 1.368 . S
C1329 C1313 1.349 . S
C1329 H1321 0.950 . S
C1329 C1327 1.327 . S
C1330 C1318 1.349 . S
C1330 H1324 0.950 . S
C1330 C1331 1.327 . S
C1331 H1325 0.950 . S
C1331 C1330 1.327 . S
C1331 C1335 1.429 . S
C1332 C1315 1.574 . S
C1332 H1326 0.949 . S
C1332 C1336 1.368 . S
C1333 C1314 1.429 1_565 S
C1333 C1327 1.429 1_565 S
C1333 C1334 1.523 . S
C1334 C1315 1.368 . S
C1334 C1328 1.368 . S
C1334 C1333 1.523 . S
C1335 C1319 1.429 . S
C1335 C1331 1.429 . S
C1335 C1336 1.523 . S
C1336 C1320 1.368 . S
C1336 C1332 1.368 . S
C1336 C1335 1.523 . S
H1337 C1312 0.950 . S
H1338 C1314 0.950 . S
H1339 C1315 0.949 . S
H1340 C1317 0.950 . S
H1341 C1319 0.950 . S
C1342 C1343 1.349 . S
C1342 C1344 1.327 . S
C1342 H1367 0.950 . S
C1343 C1342 1.349 . S
C1343 C1359 1.349 . S
C1344 C1342 1.327 . S
C1344 C1363 1.429 1_565 S
C1344 H1368 0.950 . S
C1345 C1362 1.574 . S
C1345 C1364 1.368 . S
C1345 H1369 0.949 . S
H1346 C1350 0.949 . S
C1347 C1348 1.349 . S
C1347 C1349 1.327 . S
C1347 H1370 0.950 . S
C1348 C1347 1.349 . S
C1348 C1360 1.349 . S
C1349 C1347 1.327 . S
C1349 C1365 1.429 . S
C1349 H1371 0.950 . S
C1350 H1346 0.949 . S
C1350 C1358 1.574 . S
C1350 C1366 1.368 . S
H1351 C1359 0.950 . S
H1352 C1357 0.950 1_545 S
H1353 C1358 0.949 . S
H1354 C1360 0.950 . S
H1355 C1361 0.950 . S
H1356 C1362 0.949 . S
C1357 H1352 0.950 1_565 S
C1357 C1359 1.327 . S
C1357 C1363 1.429 1_565 S
C1358 C1350 1.574 . S
C1358 H1353 0.949 . S
C1358 C1364 1.368 . S
C1359 C1343 1.349 . S
C1359 H1351 0.950 . S
C1359 C1357 1.327 . S
C1360 C1348 1.349 . S
C1360 H1354 0.950 . S
C1360 C1361 1.327 . S
C1361 H1355 0.950 . S
C1361 C1360 1.327 . S
C1361 C1365 1.429 . S
C1362 C1345 1.574 . S
C1362 H1356 0.949 . S
C1362 C1366 1.368 . S
C1363 C1344 1.429 1_545 S
C1363 C1357 1.429 1_545 S
C1363 C1364 1.523 . S
C1364 C1345 1.368 . S
C1364 C1358 1.368 . S
C1364 C1363 1.523 . S
C1365 C1349 1.429 . S
C1365 C1361 1.429 . S
C1365 C1366 1.523 . S
C1366 C1350 1.368 . S
C1366 C1362 1.368 . S
C1366 C1365 1.523 . S
H1367 C1342 0.950 . S
H1368 C1344 0.950 . S
H1369 C1345 0.949 . S
H1370 C1347 0.950 . S
H1371 C1349 0.950 . S
C1372 C1373 1.349 . S
C1372 C1374 1.327 . S
C1372 H1397 0.950 . S
C1373 C1372 1.349 . S
C1373 C1389 1.349 . S
C1374 C1372 1.327 . S
C1374 C1393 1.429 . S
C1374 H1398 0.950 . S
C1375 C1392 1.574 . S
C1375 C1394 1.368 . S
C1375 H1399 0.949 . S
H1376 C1380 0.949 . S
C1377 C1378 1.349 . S
C1377 C1379 1.327 . S
C1377 H1400 0.950 . S
C1378 C1377 1.349 . S
C1378 C1390 1.349 . S
C1379 C1377 1.327 . S
C1379 C1395 1.429 1_565 S
C1379 H1401 0.950 1_565 S
C1380 H1376 0.949 . S
C1380 C1388 1.574 . S
C1380 C1396 1.368 . S
H1381 C1389 0.950 . S
H1382 C1387 0.950 . S
H1383 C1388 0.949 . S
H1384 C1390 0.950 . S
H1385 C1391 0.950 . S
H1386 C1392 0.949 . S
C1387 H1382 0.950 . S
C1387 C1389 1.327 . S
C1387 C1393 1.429 . S
C1388 C1380 1.574 . S
C1388 H1383 0.949 . S
C1388 C1394 1.368 . S
C1389 C1373 1.349 . S
C1389 H1381 0.950 . S
C1389 C1387 1.327 . S
C1390 C1378 1.349 . S
C1390 H1384 0.950 . S
C1390 C1391 1.327 . S
C1391 H1385 0.950 . S
C1391 C1390 1.327 . S
C1391 C1395 1.429 1_565 S
C1392 C1375 1.574 . S
C1392 H1386 0.949 . S
C1392 C1396 1.368 . S
C1393 C1374 1.429 . S
C1393 C1387 1.429 . S
C1393 C1394 1.523 . S
C1394 C1375 1.368 . S
C1394 C1388 1.368 . S
C1394 C1393 1.523 . S
C1395 C1379 1.429 1_545 S
C1395 C1391 1.429 1_545 S
C1395 C1396 1.523 . S
C1396 C1380 1.368 . S
C1396 C1392 1.368 . S
C1396 C1395 1.523 . S
H1397 C1372 0.950 . S
H1398 C1374 0.950 . S
H1399 C1375 0.949 . S
H1400 C1377 0.950 . S
H1401 C1379 0.950 1_545 S
C1402 C1403 1.349 . S
C1402 C1404 1.327 . S
C1402 H1427 0.950 . S
C1403 C1402 1.349 . S
C1403 C1419 1.349 . S
C1404 C1402 1.327 . S
C1404 C1423 1.429 . S
C1404 H1428 0.950 . S
C1405 C1422 1.574 . S
C1405 C1424 1.368 . S
C1405 H1429 0.949 . S
H1406 C1410 0.949 . S
C1407 C1408 1.349 . S
C1407 C1409 1.327 . S
C1407 H1430 0.950 . S
C1408 C1407 1.349 . S
C1408 C1420 1.349 . S
C1409 C1407 1.327 . S
C1409 C1425 1.429 1_545 S
C1409 H1431 0.950 1_545 S
C1410 H1406 0.949 . S
C1410 C1418 1.574 . S
C1410 C1426 1.368 . S
H1411 C1419 0.950 . S
H1412 C1417 0.950 . S
H1413 C1418 0.949 . S
H1414 C1420 0.950 . S
H1415 C1421 0.950 . S
H1416 C1422 0.949 . S
C1417 H1412 0.950 . S
C1417 C1419 1.327 . S
C1417 C1423 1.429 . S
C1418 C1410 1.574 . S
C1418 H1413 0.949 . S
C1418 C1424 1.368 . S
C1419 C1403 1.349 . S
C1419 H1411 0.950 . S
C1419 C1417 1.327 . S
C1420 C1408 1.349 . S
C1420 H1414 0.950 . S
C1420 C1421 1.327 . S
C1421 H1415 0.950 . S
C1421 C1420 1.327 . S
C1421 C1425 1.429 1_545 S
C1422 C1405 1.574 . S
C1422 H1416 0.949 . S
C1422 C1426 1.368 . S
C1423 C1404 1.429 . S
C1423 C1417 1.429 . S
C1423 C1424 1.523 . S
C1424 C1405 1.368 . S
C1424 C1418 1.368 . S
C1424 C1423 1.523 . S
C1425 C1409 1.429 1_565 S
C1425 C1421 1.429 1_565 S
C1425 C1426 1.523 . S
C1426 C1410 1.368 . S
C1426 C1422 1.368 . S
C1426 C1425 1.523 . S
H1427 C1402 0.950 . S
H1428 C1404 0.950 . S
H1429 C1405 0.949 . S
H1430 C1407 0.950 . S
H1431 C1409 0.950 1_565 S
C1432 C1433 1.349 . S
C1432 C1434 1.327 . S
C1432 H1457 0.950 . S
C1433 C1432 1.349 . S
C1433 C1449 1.349 . S
C1434 C1432 1.327 . S
C1434 C1453 1.429 . S
C1434 H1458 0.950 . S
C1435 C1452 1.574 . S
C1435 C1454 1.368 . S
C1435 H1459 0.949 . S
H1436 C1440 0.949 . S
C1437 C1438 1.349 . S
C1437 C1439 1.327 . S
C1437 H1460 0.950 . S
C1438 C1437 1.349 . S
C1438 C1450 1.349 . S
C1439 C1437 1.327 . S
C1439 C1455 1.429 1_565 S
C1439 H1461 0.950 . S
C1440 H1436 0.949 . S
C1440 C1448 1.574 . S
C1440 C1456 1.368 . S
H1441 C1449 0.950 . S
H1442 C1447 0.950 . S
H1443 C1448 0.949 . S
H1444 C1450 0.950 . S
H1445 C1451 0.950 1_545 S
H1446 C1452 0.949 . S
C1447 H1442 0.950 . S
C1447 C1449 1.327 . S
C1447 C1453 1.429 . S
C1448 C1440 1.574 . S
C1448 H1443 0.949 . S
C1448 C1454 1.368 . S
C1449 C1433 1.349 . S
C1449 H1441 0.950 . S
C1449 C1447 1.327 . S
C1450 C1438 1.349 . S
C1450 H1444 0.950 . S
C1450 C1451 1.327 . S
C1451 H1445 0.950 1_565 S
C1451 C1450 1.327 . S
C1451 C1455 1.429 1_565 S
C1452 C1435 1.574 . S
C1452 H1446 0.949 . S
C1452 C1456 1.368 . S
C1453 C1434 1.429 . S
C1453 C1447 1.429 . S
C1453 C1454 1.523 . S
C1454 C1435 1.368 . S
C1454 C1448 1.368 . S
C1454 C1453 1.523 . S
C1455 C1439 1.429 1_545 S
C1455 C1451 1.429 1_545 S
C1455 C1456 1.523 . S
C1456 C1440 1.368 . S
C1456 C1452 1.368 . S
C1456 C1455 1.523 . S
H1457 C1432 0.950 . S
H1458 C1434 0.950 . S
H1459 C1435 0.949 . S
H1460 C1437 0.950 . S
H1461 C1439 0.950 . S
C1462 C1463 1.349 . S
C1462 C1464 1.327 . S
C1462 H1487 0.950 . S
C1463 C1462 1.349 . S
C1463 C1479 1.349 . S
C1464 C1462 1.327 . S
C1464 C1483 1.429 1_545 S
C1464 H1488 0.950 . S
C1465 C1482 1.574 . S
C1465 C1484 1.368 . S
C1465 H1489 0.949 . S
H1466 C1470 0.949 . S
C1467 C1468 1.349 . S
C1467 C1469 1.327 . S
C1467 H1490 0.950 . S
C1468 C1467 1.349 . S
C1468 C1480 1.349 . S
C1469 C1467 1.327 . S
C1469 C1485 1.429 . S
C1469 H1491 0.950 . S
C1470 H1466 0.949 . S
C1470 C1478 1.574 . S
C1470 C1486 1.368 . S
H1471 C1479 0.950 . S
H1472 C1477 0.950 1_565 S
H1473 C1478 0.949 . S
H1474 C1480 0.950 . S
H1475 C1481 0.950 . S
H1476 C1482 0.949 . S
C1477 H1472 0.950 1_545 S
C1477 C1479 1.327 . S
C1477 C1483 1.429 1_545 S
C1478 C1470 1.574 . S
C1478 H1473 0.949 . S
C1478 C1484 1.368 . S
C1479 C1463 1.349 . S
C1479 H1471 0.950 . S
C1479 C1477 1.327 . S
C1480 C1468 1.349 . S
C1480 H1474 0.950 . S
C1480 C1481 1.327 . S
C1481 H1475 0.950 . S
C1481 C1480 1.327 . S
C1481 C1485 1.429 . S
C1482 C1465 1.574 . S
C1482 H1476 0.949 . S
C1482 C1486 1.368 . S
C1483 C1464 1.429 1_565 S
C1483 C1477 1.429 1_565 S
C1483 C1484 1.523 . S
C1484 C1465 1.368 . S
C1484 C1478 1.368 . S
C1484 C1483 1.523 . S
C1485 C1469 1.429 . S
C1485 C1481 1.429 . S
C1485 C1486 1.523 . S
C1486 C1470 1.368 . S
C1486 C1482 1.368 . S
C1486 C1485 1.523 . S
H1487 C1462 0.950 . S
H1488 C1464 0.950 . S
H1489 C1465 0.949 . S
H1490 C1467 0.950 . S
H1491 C1469 0.950 . S
C1492 C1493 1.349 . S
C1492 C1494 1.327 . S
C1492 H1517 0.950 . S
C1493 C1492 1.349 . S
C1493 C1509 1.349 . S
C1494 C1492 1.327 . S
C1494 C1513 1.429 1_545 S
C1494 H1518 0.950 1_545 S
C1495 C1512 1.574 . S
C1495 C1514 1.368 . S
C1495 H1519 0.949 . S
H1496 C1500 0.949 . S
C1497 C1498 1.349 . S
C1497 C1499 1.327 . S
C1497 H1520 0.950 . S
C1498 C1497 1.349 . S
C1498 C1510 1.349 . S
C1499 C1497 1.327 . S
C1499 C1515 1.429 . S
C1499 H1521 0.950 . S
C1500 H1496 0.949 . S
C1500 C1508 1.574 . S
C1500 C1516 1.368 . S
H1501 C1509 0.950 . S
H1502 C1507 0.950 . S
H1503 C1508 0.949 . S
H1504 C1510 0.950 . S
H1505 C1511 0.950 . S
H1506 C1512 0.949 . S
C1507 H1502 0.950 . S
C1507 C1509 1.327 . S
C1507 C1513 1.429 1_545 S
C1508 C1500 1.574 . S
C1508 H1503 0.949 . S
C1508 C1514 1.368 . S
C1509 C1493 1.349 . S
C1509 H1501 0.950 . S
C1509 C1507 1.327 . S
C1510 C1498 1.349 . S
C1510 H1504 0.950 . S
C1510 C1511 1.327 . S
C1511 H1505 0.950 . S
C1511 C1510 1.327 . S
C1511 C1515 1.429 . S
C1512 C1495 1.574 . S
C1512 H1506 0.949 . S
C1512 C1516 1.368 . S
C1513 C1494 1.429 1_565 S
C1513 C1507 1.429 1_565 S
C1513 C1514 1.523 . S
C1514 C1495 1.368 . S
C1514 C1508 1.368 . S
C1514 C1513 1.523 . S
C1515 C1499 1.429 . S
C1515 C1511 1.429 . S
C1515 C1516 1.523 . S
C1516 C1500 1.368 . S
C1516 C1512 1.368 . S
C1516 C1515 1.523 . S
H1517 C1492 0.950 . S
H1518 C1494 0.950 1_565 S
H1519 C1495 0.949 . S
H1520 C1497 0.950 . S
H1521 C1499 0.950 . S
C1522 C1523 1.349 . S
C1522 C1524 1.327 . S
C1522 H1547 0.950 . S
C1523 C1522 1.349 . S
C1523 C1539 1.349 . S
C1524 C1522 1.327 . S
C1524 C1543 1.429 . S
C1524 H1548 0.950 . S
C1525 C1542 1.574 . S
C1525 C1544 1.368 . S
C1525 H1549 0.949 . S
H1526 C1530 0.949 . S
C1527 C1528 1.349 . S
C1527 C1529 1.327 . S
C1527 H1550 0.950 . S
C1528 C1527 1.349 . S
C1528 C1540 1.349 . S
C1529 C1527 1.327 . S
C1529 C1545 1.429 1_565 S
C1529 H1551 0.950 . S
C1530 H1526 0.949 . S
C1530 C1538 1.574 . S
C1530 C1546 1.368 . S
H1531 C1539 0.950 . S
H1532 C1537 0.950 . S
H1533 C1538 0.949 . S
H1534 C1540 0.950 . S
H1535 C1541 0.950 1_545 S
H1536 C1542 0.949 . S
C1537 H1532 0.950 . S
C1537 C1539 1.327 . S
C1537 C1543 1.429 . S
C1538 C1530 1.574 . S
C1538 H1533 0.949 . S
C1538 C1544 1.368 . S
C1539 C1523 1.349 . S
C1539 H1531 0.950 . S
C1539 C1537 1.327 . S
C1540 C1528 1.349 . S
C1540 H1534 0.950 . S
C1540 C1541 1.327 . S
C1541 H1535 0.950 1_565 S
C1541 C1540 1.327 . S
C1541 C1545 1.429 1_565 S
C1542 C1525 1.574 . S
C1542 H1536 0.949 . S
C1542 C1546 1.368 . S
C1543 C1524 1.429 . S
C1543 C1537 1.429 . S
C1543 C1544 1.523 . S
C1544 C1525 1.368 . S
C1544 C1538 1.368 . S
C1544 C1543 1.523 . S
C1545 C1529 1.429 1_545 S
C1545 C1541 1.429 1_545 S
C1545 C1546 1.523 . S
C1546 C1530 1.368 . S
C1546 C1542 1.368 . S
C1546 C1545 1.523 . S
H1547 C1522 0.950 . S
H1548 C1524 0.950 . S
H1549 C1525 0.949 . S
H1550 C1527 0.950 . S
H1551 C1529 0.950 . S
C1552 C1553 1.349 . S
C1552 C1554 1.327 . S
C1552 H1577 0.950 . S
C1553 C1552 1.349 . S
C1553 C1569 1.349 . S
C1554 C1552 1.327 . S
C1554 C1573 1.429 . S
C1554 H1578 0.950 . S
C1555 C1572 1.574 . S
C1555 C1574 1.368 . S
C1555 H1579 0.949 . S
H1556 C1560 0.949 . S
C1557 C1558 1.349 . S
C1557 C1559 1.327 . S
C1557 H1580 0.950 . S
C1558 C1557 1.349 . S
C1558 C1570 1.349 . S
C1559 C1557 1.327 . S
C1559 C1575 1.429 . S
C1559 H1581 0.950 . S
C1560 H1556 0.949 . S
C1560 C1568 1.574 . S
C1560 C1576 1.368 . S
H1561 C1569 0.950 . S
H1562 C1567 0.950 . S
H1563 C1568 0.949 . S
H1564 C1570 0.950 . S
H1565 C1571 0.950 . S
H1566 C1572 0.949 . S
C1567 H1562 0.950 . S
C1567 C1569 1.327 . S
C1567 C1573 1.429 . S
C1568 C1560 1.574 . S
C1568 H1563 0.949 . S
C1568 C1574 1.368 . S
C1569 C1553 1.349 . S
C1569 H1561 0.950 . S
C1569 C1567 1.327 . S
C1570 C1558 1.349 . S
C1570 H1564 0.950 . S
C1570 C1571 1.327 . S
C1571 H1565 0.950 . S
C1571 C1570 1.327 . S
C1571 C1575 1.429 . S
C1572 C1555 1.574 . S
C1572 H1566 0.949 . S
C1572 C1576 1.368 . S
C1573 C1554 1.429 . S
C1573 C1567 1.429 . S
C1573 C1574 1.523 . S
C1574 C1555 1.368 . S
C1574 C1568 1.368 . S
C1574 C1573 1.523 . S
C1575 C1559 1.429 . S
C1575 C1571 1.429 . S
C1575 C1576 1.523 . S
C1576 C1560 1.368 . S
C1576 C1572 1.368 . S
C1576 C1575 1.523 . S
H1577 C1552 0.950 . S
H1578 C1554 0.950 . S
H1579 C1555 0.949 . S
H1580 C1557 0.950 . S
H1581 C1559 0.950 . S
C1582 C1583 1.349 . S
C1582 C1584 1.327 . S
C1582 H1607 0.950 . S
C1583 C1582 1.349 . S
C1583 C1599 1.349 . S
C1584 C1582 1.327 . S
C1584 C1603 1.429 . S
C1584 H1608 0.950 . S
C1585 C1602 1.574 . S
C1585 C1604 1.368 . S
C1585 H1609 0.949 . S
H1586 C1590 0.949 . S
C1587 C1588 1.349 . S
C1587 C1589 1.327 . S
C1587 H1610 0.950 . S
C1588 C1587 1.349 . S
C1588 C1600 1.349 . S
C1589 C1587 1.327 . S
C1589 C1605 1.429 . S
C1589 H1611 0.950 . S
C1590 H1586 0.949 . S
C1590 C1598 1.574 . S
C1590 C1606 1.368 . S
H1591 C1599 0.950 . S
H1592 C1597 0.950 . S
H1593 C1598 0.949 . S
H1594 C1600 0.950 . S
H1595 C1601 0.950 . S
H1596 C1602 0.949 . S
C1597 H1592 0.950 . S
C1597 C1599 1.327 . S
C1597 C1603 1.429 . S
C1598 C1590 1.574 . S
C1598 H1593 0.949 . S
C1598 C1604 1.368 . S
C1599 C1583 1.349 . S
C1599 H1591 0.950 . S
C1599 C1597 1.327 . S
C1600 C1588 1.349 . S
C1600 H1594 0.950 . S
C1600 C1601 1.327 . S
C1601 H1595 0.950 . S
C1601 C1600 1.327 . S
C1601 C1605 1.429 . S
C1602 C1585 1.574 . S
C1602 H1596 0.949 . S
C1602 C1606 1.368 . S
C1603 C1584 1.429 . S
C1603 C1597 1.429 . S
C1603 C1604 1.523 . S
C1604 C1585 1.368 . S
C1604 C1598 1.368 . S
C1604 C1603 1.523 . S
C1605 C1589 1.429 . S
C1605 C1601 1.429 . S
C1605 C1606 1.523 . S
C1606 C1590 1.368 . S
C1606 C1602 1.368 . S
C1606 C1605 1.523 . S
H1607 C1582 0.950 . S
H1608 C1584 0.950 . S
H1609 C1585 0.949 . S
H1610 C1587 0.950 . S
H1611 C1589 0.950 . S
C1612 C1613 1.349 . S
C1612 C1614 1.327 . S
C1612 H1637 0.950 . S
C1613 C1612 1.349 . S
C1613 C1629 1.349 . S
C1614 C1612 1.327 . S
C1614 C1633 1.429 . S
C1614 H1638 0.950 . S
C1615 C1632 1.574 . S
C1615 C1634 1.368 . S
C1615 H1639 0.949 . S
H1616 C1620 0.949 . S
C1617 C1618 1.349 . S
C1617 C1619 1.327 . S
C1617 H1640 0.950 . S
C1618 C1617 1.349 . S
C1618 C1630 1.349 . S
C1619 C1617 1.327 . S
C1619 C1635 1.429 . S
C1619 H1641 0.950 . S
C1620 H1616 0.949 . S
C1620 C1628 1.574 . S
C1620 C1636 1.368 . S
H1621 C1629 0.950 . S
H1622 C1627 0.950 . S
H1623 C1628 0.949 . S
H1624 C1630 0.950 . S
H1625 C1631 0.950 . S
H1626 C1632 0.949 . S
C1627 H1622 0.950 . S
C1627 C1629 1.327 . S
C1627 C1633 1.429 . S
C1628 C1620 1.574 . S
C1628 H1623 0.949 . S
C1628 C1634 1.368 . S
C1629 C1613 1.349 . S
C1629 H1621 0.950 . S
C1629 C1627 1.327 . S
C1630 C1618 1.349 . S
C1630 H1624 0.950 . S
C1630 C1631 1.327 . S
C1631 H1625 0.950 . S
C1631 C1630 1.327 . S
C1631 C1635 1.429 . S
C1632 C1615 1.574 . S
C1632 H1626 0.949 . S
C1632 C1636 1.368 . S
C1633 C1614 1.429 . S
C1633 C1627 1.429 . S
C1633 C1634 1.523 . S
C1634 C1615 1.368 . S
C1634 C1628 1.368 . S
C1634 C1633 1.523 . S
C1635 C1619 1.429 . S
C1635 C1631 1.429 . S
C1635 C1636 1.523 . S
C1636 C1620 1.368 . S
C1636 C1632 1.368 . S
C1636 C1635 1.523 . S
H1637 C1612 0.950 . S
H1638 C1614 0.950 . S
H1639 C1615 0.949 . S
H1640 C1617 0.950 . S
H1641 C1619 0.950 . S
C1642 C1643 1.349 . S
C1642 C1644 1.327 . S
C1642 H1667 0.950 . S
C1643 C1642 1.349 . S
C1643 C1659 1.349 . S
C1644 C1642 1.327 . S
C1644 C1663 1.429 . S
C1644 H1668 0.950 . S
C1645 C1662 1.574 . S
C1645 C1664 1.368 . S
C1645 H1669 0.949 . S
H1646 C1650 0.949 . S
C1647 C1648 1.349 . S
C1647 C1649 1.327 . S
C1647 H1670 0.950 . S
C1648 C1647 1.349 . S
C1648 C1660 1.349 . S
C1649 C1647 1.327 . S
C1649 C1665 1.429 . S
C1649 H1671 0.950 . S
C1650 H1646 0.949 . S
C1650 C1658 1.574 . S
C1650 C1666 1.368 . S
H1651 C1659 0.950 . S
H1652 C1657 0.950 . S
H1653 C1658 0.949 . S
H1654 C1660 0.950 . S
H1655 C1661 0.950 . S
H1656 C1662 0.949 . S
C1657 H1652 0.950 . S
C1657 C1659 1.327 . S
C1657 C1663 1.429 . S
C1658 C1650 1.574 . S
C1658 H1653 0.949 . S
C1658 C1664 1.368 . S
C1659 C1643 1.349 . S
C1659 H1651 0.950 . S
C1659 C1657 1.327 . S
C1660 C1648 1.349 . S
C1660 H1654 0.950 . S
C1660 C1661 1.327 . S
C1661 H1655 0.950 . S
C1661 C1660 1.327 . S
C1661 C1665 1.429 . S
C1662 C1645 1.574 . S
C1662 H1656 0.949 . S
C1662 C1666 1.368 . S
C1663 C1644 1.429 . S
C1663 C1657 1.429 . S
C1663 C1664 1.523 . S
C1664 C1645 1.368 . S
C1664 C1658 1.368 . S
C1664 C1663 1.523 . S
C1665 C1649 1.429 . S
C1665 C1661 1.429 . S
C1665 C1666 1.523 . S
C1666 C1650 1.368 . S
C1666 C1662 1.368 . S
C1666 C1665 1.523 . S
H1667 C1642 0.950 . S
H1668 C1644 0.950 . S
H1669 C1645 0.949 . S
H1670 C1647 0.950 . S
H1671 C1649 0.950 . S
C1672 C1673 1.349 . S
C1672 C1674 1.327 . S
C1672 H1697 0.950 . S
C1673 C1672 1.349 . S
C1673 C1689 1.349 . S
C1674 C1672 1.327 . S
C1674 C1693 1.429 . S
C1674 H1698 0.950 . S
C1675 C1692 1.574 . S
C1675 C1694 1.368 . S
C1675 H1699 0.949 . S
H1676 C1680 0.949 . S
C1677 C1678 1.349 . S
C1677 C1679 1.327 . S
C1677 H1700 0.950 . S
C1678 C1677 1.349 . S
C1678 C1690 1.349 . S
C1679 C1677 1.327 . S
C1679 C1695 1.429 . S
C1679 H1701 0.950 . S
C1680 H1676 0.949 . S
C1680 C1688 1.574 . S
C1680 C1696 1.368 . S
H1681 C1689 0.950 . S
H1682 C1687 0.950 . S
H1683 C1688 0.949 . S
H1684 C1690 0.950 . S
H1685 C1691 0.950 . S
H1686 C1692 0.949 . S
C1687 H1682 0.950 . S
C1687 C1689 1.327 . S
C1687 C1693 1.429 . S
C1688 C1680 1.574 . S
C1688 H1683 0.949 . S
C1688 C1694 1.368 . S
C1689 C1673 1.349 . S
C1689 H1681 0.950 . S
C1689 C1687 1.327 . S
C1690 C1678 1.349 . S
C1690 H1684 0.950 . S
C1690 C1691 1.327 . S
C1691 H1685 0.950 . S
C1691 C1690 1.327 . S
C1691 C1695 1.429 . S
C1692 C1675 1.574 . S
C1692 H1686 0.949 . S
C1692 C1696 1.368 . S
C1693 C1674 1.429 . S
C1693 C1687 1.429 . S
C1693 C1694 1.523 . S
C1694 C1675 1.368 . S
C1694 C1688 1.368 . S
C1694 C1693 1.523 . S
C1695 C1679 1.429 . S
C1695 C1691 1.429 . S
C1695 C1696 1.523 . S
C1696 C1680 1.368 . S
C1696 C1692 1.368 . S
C1696 C1695 1.523 . S
H1697 C1672 0.950 . S
H1698 C1674 0.950 . S
H1699 C1675 0.949 . S
H1700 C1677 0.950 . S
H1701 C1679 0.950 . S
C1702 C1703 1.349 . S
C1702 C1704 1.327 . S
C1702 H1727 0.950 . S
C1703 C1702 1.349 . S
C1703 C1719 1.349 . S
C1704 C1702 1.327 . S
C1704 C1723 1.429 . S
C1704 H1728 0.950 . S
C1705 C1722 1.574 . S
C1705 C1724 1.368 . S
C1705 H1729 0.949 . S
H1706 C1710 0.949 . S
C1707 C1708 1.349 . S
C1707 C1709 1.327 . S
C1707 H1730 0.950 . S
C1708 C1707 1.349 . S
C1708 C1720 1.349 . S
C1709 C1707 1.327 . S
C1709 C1725 1.429 . S
C1709 H1731 0.950 . S
C1710 H1706 0.949 . S
C1710 C1718 1.574 . S
C1710 C1726 1.368 . S
H1711 C1719 0.950 . S
H1712 C1717 0.950 . S
H1713 C1718 0.949 . S
H1714 C1720 0.950 . S
H1715 C1721 0.950 . S
H1716 C1722 0.949 . S
C1717 H1712 0.950 . S
C1717 C1719 1.327 . S
C1717 C1723 1.429 . S
C1718 C1710 1.574 . S
C1718 H1713 0.949 . S
C1718 C1724 1.368 . S
C1719 C1703 1.349 . S
C1719 H1711 0.950 . S
C1719 C1717 1.327 . S
C1720 C1708 1.349 . S
C1720 H1714 0.950 . S
C1720 C1721 1.327 . S
C1721 H1715 0.950 . S
C1721 C1720 1.327 . S
C1721 C1725 1.429 . S
C1722 C1705 1.574 . S
C1722 H1716 0.949 . S
C1722 C1726 1.368 . S
C1723 C1704 1.429 . S
C1723 C1717 1.429 . S
C1723 C1724 1.523 . S
C1724 C1705 1.368 . S
C1724 C1718 1.368 . S
C1724 C1723 1.523 . S
C1725 C1709 1.429 . S
C1725 C1721 1.429 . S
C1725 C1726 1.523 . S
C1726 C1710 1.368 . S
C1726 C1722 1.368 . S
C1726 C1725 1.523 . S
H1727 C1702 0.950 . S
H1728 C1704 0.950 . S
H1729 C1705 0.949 . S
H1730 C1707 0.950 . S
H1731 C1709 0.950 . S
C1732 C1733 1.349 . S
C1732 C1734 1.327 . S
C1732 H1757 0.950 . S
C1733 C1732 1.349 . S
C1733 C1749 1.349 . S
C1734 C1732 1.327 . S
C1734 C1753 1.429 . S
C1734 H1758 0.950 . S
C1735 C1752 1.574 . S
C1735 C1754 1.368 . S
C1735 H1759 0.949 . S
H1736 C1740 0.949 . S
C1737 C1738 1.349 . S
C1737 C1739 1.327 . S
C1737 H1760 0.950 . S
C1738 C1737 1.349 . S
C1738 C1750 1.349 . S
C1739 C1737 1.327 . S
C1739 C1755 1.429 . S
C1739 H1761 0.950 . S
C1740 H1736 0.949 . S
C1740 C1748 1.574 . S
C1740 C1756 1.368 . S
H1741 C1749 0.950 . S
H1742 C1747 0.950 . S
H1743 C1748 0.949 . S
H1744 C1750 0.950 . S
H1745 C1751 0.950 . S
H1746 C1752 0.949 . S
C1747 H1742 0.950 . S
C1747 C1749 1.327 . S
C1747 C1753 1.429 . S
C1748 C1740 1.574 . S
C1748 H1743 0.949 . S
C1748 C1754 1.368 . S
C1749 C1733 1.349 . S
C1749 H1741 0.950 . S
C1749 C1747 1.327 . S
C1750 C1738 1.349 . S
C1750 H1744 0.950 . S
C1750 C1751 1.327 . S
C1751 H1745 0.950 . S
C1751 C1750 1.327 . S
C1751 C1755 1.429 . S
C1752 C1735 1.574 . S
C1752 H1746 0.949 . S
C1752 C1756 1.368 . S
C1753 C1734 1.429 . S
C1753 C1747 1.429 . S
C1753 C1754 1.523 . S
C1754 C1735 1.368 . S
C1754 C1748 1.368 . S
C1754 C1753 1.523 . S
C1755 C1739 1.429 . S
C1755 C1751 1.429 . S
C1755 C1756 1.523 . S
C1756 C1740 1.368 . S
C1756 C1752 1.368 . S
C1756 C1755 1.523 . S
H1757 C1732 0.950 . S
H1758 C1734 0.950 . S
H1759 C1735 0.949 . S
H1760 C1737 0.950 . S
H1761 C1739 0.950 . S
C1762 C1763 1.349 . S
C1762 C1764 1.327 . S
C1762 H1787 0.950 . S
C1763 C1762 1.349 . S
C1763 C1779 1.349 . S
C1764 C1762 1.327 . S
C1764 C1783 1.429 . S
C1764 H1788 0.950 . S
C1765 C1782 1.574 . S
C1765 C1784 1.368 . S
C1765 H1789 0.949 . S
H1766 C1770 0.949 . S
C1767 C1768 1.349 . S
C1767 C1769 1.327 . S
C1767 H1790 0.950 . S
C1768 C1767 1.349 . S
C1768 C1780 1.349 . S
C1769 C1767 1.327 . S
C1769 C1785 1.429 . S
C1769 H1791 0.950 . S
C1770 H1766 0.949 . S
C1770 C1778 1.574 . S
C1770 C1786 1.368 . S
H1771 C1779 0.950 . S
H1772 C1777 0.950 . S
H1773 C1778 0.949 . S
H1774 C1780 0.950 . S
H1775 C1781 0.950 . S
H1776 C1782 0.949 . S
C1777 H1772 0.950 . S
C1777 C1779 1.327 . S
C1777 C1783 1.429 . S
C1778 C1770 1.574 . S
C1778 H1773 0.949 . S
C1778 C1784 1.368 . S
C1779 C1763 1.349 . S
C1779 H1771 0.950 . S
C1779 C1777 1.327 . S
C1780 C1768 1.349 . S
C1780 H1774 0.950 . S
C1780 C1781 1.327 . S
C1781 H1775 0.950 . S
C1781 C1780 1.327 . S
C1781 C1785 1.429 . S
C1782 C1765 1.574 . S
C1782 H1776 0.949 . S
C1782 C1786 1.368 . S
C1783 C1764 1.429 . S
C1783 C1777 1.429 . S
C1783 C1784 1.523 . S
C1784 C1765 1.368 . S
C1784 C1778 1.368 . S
C1784 C1783 1.523 . S
C1785 C1769 1.429 . S
C1785 C1781 1.429 . S
C1785 C1786 1.523 . S
C1786 C1770 1.368 . S
C1786 C1782 1.368 . S
C1786 C1785 1.523 . S
H1787 C1762 0.950 . S
H1788 C1764 0.950 . S
H1789 C1765 0.949 . S
H1790 C1767 0.950 . S
H1791 C1769 0.950 . S
C353 C21 0.685 . S
C358 C279 0.687 . S
C383 C307 0.687 . S
C388 C29 0.685 . S
C413 C323 0.687 . S
C418 C59 0.685 . S
C443 C345 0.687 . S
C448 C87 0.685 . S
C473 C103 0.687 . S
C478 C197 0.685 . S
C503 C219 0.685 . S
C508 C117 0.687 . S
C533 C147 0.687 . S
C538 C241 0.685 . S
C563 C263 0.685 . S
C568 C161 0.687 . S
C593 C65 1.475 . S
C598 C7 1.475 . S
C623 C37 1.475 . S
C628 C73 1.475 . S
C653 C95 1.467 . S
C658 C139 1.467 . S
C683 C175 1.467 . S
C688 C131 1.467 . S
C713 C183 1.475 . S
C718 C227 1.475 . S
C743 C249 1.475 . S
C748 C205 1.475 . S
C773 C315 1.467 . S
C778 C271 1.467 . S
C803 C337 1.467 . S
C808 C301 1.467 . S
C833 C10 1.807 . S
C838 C76 1.807 . S
C863 C62 1.807 . S
C868 C30 1.807 . S
C893 C164 1.823 . S
C898 C96 1.823 . S
C923 C140 1.823 . S
C928 C120 1.823 . S
C953 C252 1.807 . S
C958 C186 1.807 . S
C983 C230 1.807 . S
C988 C208 1.807 . S
C1013 C272 1.823 . S
C1018 C338 1.823 . S
C1043 C316 1.823 . S
C1048 C304 1.823 . S
C1073 C18 1.406 . S
C1078 C150 1.406 . S
C1103 C32 1.406 . S
C1108 C162 1.406 . S
C1133 C106 1.406 . S
C1138 C52 1.406 . S
C1163 C118 1.406 . S
C1168 C84 1.406 . S
C1193 C194 1.406 . S
C1198 C326 1.406 . S
C1223 C216 1.406 . S
C1228 C348 1.406 . S
C1253 C282 1.406 . S
C1258 C238 1.406 . S
C1283 C296 1.406 . S
C1288 C260 1.406 . S
C1313 C15 1.288 . S
C1318 C318 1.275 . S
C1343 C43 1.288 . S
C1348 C340 1.275 . S
C1373 C274 1.275 . S
C1378 C51 1.288 . S
C1403 C294 1.275 . S
C1408 C81 1.288 . S
C1433 C228 1.280 . S
C1438 C109 1.293 . S
C1463 C125 1.293 . S
C1468 C250 1.280 . S
C1493 C153 1.293 . S
C1498 C184 1.280 . S
C1523 C206 1.280 . S
C1528 C169 1.293 . S
C1553 C142 1.275 . S
C1558 C191 1.288 . S
C1583 C213 1.288 . S
C1588 C172 1.275 . S
C1613 C98 1.275 . S
C1618 C235 1.288 . S
C1643 C257 1.288 . S
C1648 C128 1.275 . S
C1673 C54 1.280 . S
C1678 C285 1.293 . S
C1703 C293 1.293 . S
C1708 C74 1.280 . S
C1733 C329 1.293 . S
C1738 C8 1.280 . S
C1763 C40 1.280 . S
C1768 C351 1.293 . S
