# Generated by pormake.
# Topology cbo, (4)-cn, num edge types: 1
# Building blocks:
#     Node 0, Type 0, BuildingBlock: KUFVIS_clean_sbu_0, # of connection points: 4
#     Node 1, Type 0, BuildingBlock: KUFVIS_clean_sbu_0, # of connection points: 4
#     Node 2, Type 0, BuildingBlock: KUFVIS_clean_sbu_0, # of connection points: 4
#     Node 3, Type 0, BuildingBlock: KUFVIS_clean_sbu_0, # of connection points: 4
#     Node 4, Type 0, BuildingBlock: KUFVIS_clean_sbu_0, # of connection points: 4
#     Node 5, Type 0, BuildingBlock: KUFVIS_clean_sbu_0, # of connection points: 4
#     Node 6, Type 0, BuildingBlock: KUFVIS_clean_sbu_0, # of connection points: 4
#     Node 7, Type 0, BuildingBlock: KUFVIS_clean_sbu_0, # of connection points: 4
#     Node 8, Type 0, BuildingBlock: KUFVIS_clean_sbu_0, # of connection points: 4
#     Node 9, Type 0, BuildingBlock: KUFVIS_clean_sbu_0, # of connection points: 4
#     Node 10, Type 0, BuildingBlock: KUFVIS_clean_sbu_0, # of connection points: 4
#     Node 11, Type 0, BuildingBlock: KUFVIS_clean_sbu_0, # of connection points: 4
#     Node 12, Type 0, BuildingBlock: KUFVIS_clean_sbu_0, # of connection points: 4
#     Node 13, Type 0, BuildingBlock: KUFVIS_clean_sbu_0, # of connection points: 4
#     Node 14, Type 0, BuildingBlock: KUFVIS_clean_sbu_0, # of connection points: 4
#     Node 15, Type 0, BuildingBlock: KUFVIS_clean_sbu_0, # of connection points: 4
#     Node 16, Type 0, BuildingBlock: KUFVIS_clean_sbu_0, # of connection points: 4
#     Node 17, Type 0, BuildingBlock: KUFVIS_clean_sbu_0, # of connection points: 4
#     Node 18, Type 0, BuildingBlock: KUFVIS_clean_sbu_0, # of connection points: 4
#     Node 19, Type 0, BuildingBlock: KUFVIS_clean_sbu_0, # of connection points: 4
#     Node 20, Type 0, BuildingBlock: KUFVIS_clean_sbu_0, # of connection points: 4
#     Node 21, Type 0, BuildingBlock: KUFVIS_clean_sbu_0, # of connection points: 4
#     Node 22, Type 0, BuildingBlock: KUFVIS_clean_sbu_0, # of connection points: 4
#     Node 23, Type 0, BuildingBlock: KUFVIS_clean_sbu_0, # of connection points: 4
#     Edge 24, Type (0, 0), BuildingBlock: XUDNAN_clean_linker_2, # of connection points: 2
#     Edge 25, Type (0, 0), BuildingBlock: XUDNAN_clean_linker_2, # of connection points: 2
#     Edge 26, Type (0, 0), BuildingBlock: XUDNAN_clean_linker_2, # of connection points: 2
#     Edge 27, Type (0, 0), BuildingBlock: XUDNAN_clean_linker_2, # of connection points: 2
#     Edge 28, Type (0, 0), BuildingBlock: XUDNAN_clean_linker_2, # of connection points: 2
#     Edge 29, Type (0, 0), BuildingBlock: XUDNAN_clean_linker_2, # of connection points: 2
#     Edge 30, Type (0, 0), BuildingBlock: XUDNAN_clean_linker_2, # of connection points: 2
#     Edge 31, Type (0, 0), BuildingBlock: XUDNAN_clean_linker_2, # of connection points: 2
#     Edge 32, Type (0, 0), BuildingBlock: XUDNAN_clean_linker_2, # of connection points: 2
#     Edge 33, Type (0, 0), BuildingBlock: XUDNAN_clean_linker_2, # of connection points: 2
#     Edge 34, Type (0, 0), BuildingBlock: XUDNAN_clean_linker_2, # of connection points: 2
#     Edge 35, Type (0, 0), BuildingBlock: XUDNAN_clean_linker_2, # of connection points: 2
#     Edge 36, Type (0, 0), BuildingBlock: XUDNAN_clean_linker_2, # of connection points: 2
#     Edge 37, Type (0, 0), BuildingBlock: XUDNAN_clean_linker_2, # of connection points: 2
#     Edge 38, Type (0, 0), BuildingBlock: XUDNAN_clean_linker_2, # of connection points: 2
#     Edge 39, Type (0, 0), BuildingBlock: XUDNAN_clean_linker_2, # of connection points: 2
#     Edge 40, Type (0, 0), BuildingBlock: XUDNAN_clean_linker_2, # of connection points: 2
#     Edge 41, Type (0, 0), BuildingBlock: XUDNAN_clean_linker_2, # of connection points: 2
#     Edge 42, Type (0, 0), BuildingBlock: XUDNAN_clean_linker_2, # of connection points: 2
#     Edge 43, Type (0, 0), BuildingBlock: XUDNAN_clean_linker_2, # of connection points: 2
#     Edge 44, Type (0, 0), BuildingBlock: XUDNAN_clean_linker_2, # of connection points: 2
#     Edge 45, Type (0, 0), BuildingBlock: XUDNAN_clean_linker_2, # of connection points: 2
#     Edge 46, Type (0, 0), BuildingBlock: XUDNAN_clean_linker_2, # of connection points: 2
#     Edge 47, Type (0, 0), BuildingBlock: XUDNAN_clean_linker_2, # of connection points: 2
#     Edge 48, Type (0, 0), BuildingBlock: XUDNAN_clean_linker_2, # of connection points: 2
#     Edge 49, Type (0, 0), BuildingBlock: XUDNAN_clean_linker_2, # of connection points: 2
#     Edge 50, Type (0, 0), BuildingBlock: XUDNAN_clean_linker_2, # of connection points: 2
#     Edge 51, Type (0, 0), BuildingBlock: XUDNAN_clean_linker_2, # of connection points: 2
#     Edge 52, Type (0, 0), BuildingBlock: XUDNAN_clean_linker_2, # of connection points: 2
#     Edge 53, Type (0, 0), BuildingBlock: XUDNAN_clean_linker_2, # of connection points: 2
#     Edge 54, Type (0, 0), BuildingBlock: XUDNAN_clean_linker_2, # of connection points: 2
#     Edge 55, Type (0, 0), BuildingBlock: XUDNAN_clean_linker_2, # of connection points: 2
#     Edge 56, Type (0, 0), BuildingBlock: XUDNAN_clean_linker_2, # of connection points: 2
#     Edge 57, Type (0, 0), BuildingBlock: XUDNAN_clean_linker_2, # of connection points: 2
#     Edge 58, Type (0, 0), BuildingBlock: XUDNAN_clean_linker_2, # of connection points: 2
#     Edge 59, Type (0, 0), BuildingBlock: XUDNAN_clean_linker_2, # of connection points: 2
#     Edge 60, Type (0, 0), BuildingBlock: XUDNAN_clean_linker_2, # of connection points: 2
#     Edge 61, Type (0, 0), BuildingBlock: XUDNAN_clean_linker_2, # of connection points: 2
#     Edge 62, Type (0, 0), BuildingBlock: XUDNAN_clean_linker_2, # of connection points: 2
#     Edge 63, Type (0, 0), BuildingBlock: XUDNAN_clean_linker_2, # of connection points: 2
#     Edge 64, Type (0, 0), BuildingBlock: XUDNAN_clean_linker_2, # of connection points: 2
#     Edge 65, Type (0, 0), BuildingBlock: XUDNAN_clean_linker_2, # of connection points: 2
#     Edge 66, Type (0, 0), BuildingBlock: XUDNAN_clean_linker_2, # of connection points: 2
#     Edge 67, Type (0, 0), BuildingBlock: XUDNAN_clean_linker_2, # of connection points: 2
#     Edge 68, Type (0, 0), BuildingBlock: XUDNAN_clean_linker_2, # of connection points: 2
#     Edge 69, Type (0, 0), BuildingBlock: XUDNAN_clean_linker_2, # of connection points: 2
#     Edge 70, Type (0, 0), BuildingBlock: XUDNAN_clean_linker_2, # of connection points: 2
#     Edge 71, Type (0, 0), BuildingBlock: XUDNAN_clean_linker_2, # of connection points: 2
# Relax obj value: 0.204
# Max RMSD: 0.226
# Mean RMSD: 0.214
data_MOF--net-cbo--node1-KUFVIS_clean_sbu_0--edge1-XUDNAN_clean_linker_2
_symmetry_space_group_name_H-M    P1
_symmetry_Int_Tables_number       1
_symmetry_cell_setting            triclinic
loop_
_symmetry_equiv_pos_as_xyz
'x, y, z'
_cell_length_a     51.234451
_cell_length_b     50.676294
_cell_length_c     52.130748
_cell_angle_alpha  89.990877
_cell_angle_beta   89.987916
_cell_angle_gamma 90.017409
loop_
_atom_site_label
_atom_site_type_symbol
_atom_site_fract_x
_atom_site_fract_y
_atom_site_fract_z
_atom_type_partial_charge
Mn0 Mn 0.12077 0.16859 0.32809 0.0
Mn1 Mn 0.11477 0.10481 0.34487 0.0
C2 C 0.15225 0.13883 0.31549 0.0
C3 C 0.11044 0.20262 0.30005 0.0
C4 C 0.13023 0.14826 0.38201 0.0
O5 O 0.08289 0.16504 0.33876 0.0
O6 O 0.07919 0.12096 0.3442 0.0
C7 C 0.0861 0.08363 0.30011 0.0
N8 N 0.1076 0.08348 0.31547 0.0
C9 C 0.12766 0.04931 0.29021 0.0
C10 C 0.10565 0.04896 0.27423 0.0
C11 C 0.08479 0.0662 0.27921 0.0
C12 C 0.12771 0.06683 0.31098 0.0
H13 H 0.07013 0.09702 0.30372 0.0
C14 C 0.0694 0.14425 0.34273 0.0
O15 O 0.11727 0.20748 0.32357 0.0
O16 O 0.10959 0.17814 0.29288 0.0
N17 N 0.14797 0.08745 0.34554 0.0
C18 C 0.16863 0.09181 0.36145 0.0
C19 C 0.19161 0.07707 0.35824 0.0
C20 C 0.19311 0.05802 0.33873 0.0
C21 C 0.1716 0.05386 0.32261 0.0
C22 C 0.14912 0.06897 0.32687 0.0
H23 H 0.16771 0.10661 0.37631 0.0
O24 O 0.15744 0.1639 0.31614 0.0
O25 O 0.12865 0.13216 0.32206 0.0
O26 O 0.13247 0.16657 0.36542 0.0
O27 O 0.12257 0.12492 0.37658 0.0
C28 C 0.17183 0.03581 0.30206 0.0
C29 C 0.14985 0.03349 0.28591 0.0
H30 H 0.1047 0.03577 0.25791 0.0
H31 H 0.06781 0.06617 0.26687 0.0
H32 H 0.20819 0.08052 0.37064 0.0
H33 H 0.21098 0.04693 0.33611 0.0
H34 H 0.18895 0.02391 0.29827 0.0
H35 H 0.15041 0.01982 0.26995 0.0
Mn36 Mn 0.37943 0.83372 0.82127 0.0
Mn37 Mn 0.3799 0.90016 0.8251 0.0
C38 C 0.34443 0.8581 0.80639 0.0
C39 C 0.3879 0.79559 0.79766 0.0
C40 C 0.37188 0.86406 0.8711 0.0
O41 O 0.41778 0.84206 0.82679 0.0
O42 O 0.41657 0.88679 0.82503 0.0
C43 C 0.40436 0.91427 0.77547 0.0
N44 N 0.38379 0.91584 0.79193 0.0
C45 C 0.36025 0.94402 0.76283 0.0
C46 C 0.38127 0.94279 0.74565 0.0
C47 C 0.40341 0.92783 0.75201 0.0
C48 C 0.36247 0.9304 0.78611 0.0
H49 H 0.4213 0.90269 0.7802 0.0
C50 C 0.42877 0.86469 0.82655 0.0
O51 O 0.38523 0.79467 0.82245 0.0
O52 O 0.38695 0.81864 0.78701 0.0
N53 N 0.34536 0.91472 0.82455 0.0
C54 C 0.32556 0.9112 0.84166 0.0
C55 C 0.30145 0.92363 0.83743 0.0
C56 C 0.29786 0.93936 0.81555 0.0
C57 C 0.31835 0.94233 0.79796 0.0
C58 C 0.34206 0.92971 0.80334 0.0
H59 H 0.32794 0.89858 0.85812 0.0
O60 O 0.34127 0.83358 0.81282 0.0
O61 O 0.36773 0.86754 0.80947 0.0
O62 O 0.37205 0.84216 0.85903 0.0
O63 O 0.3751 0.88642 0.86024 0.0
C64 C 0.3159 0.95661 0.7749 0.0
C65 C 0.33685 0.95751 0.75738 0.0
H66 H 0.38048 0.95296 0.72739 0.0
H67 H 0.41966 0.92665 0.73879 0.0
H68 H 0.28558 0.92085 0.85086 0.0
H69 H 0.27914 0.94866 0.81219 0.0
H70 H 0.29779 0.96653 0.77022 0.0
H71 H 0.33456 0.96815 0.7395 0.0
Mn72 Mn 0.62812 0.32277 0.67078 0.0
Mn73 Mn 0.63751 0.38834 0.66585 0.0
C74 C 0.66918 0.34059 0.67725 0.0
C75 C 0.61727 0.28677 0.69639 0.0
C76 C 0.62945 0.35222 0.62004 0.0
O77 O 0.59109 0.33784 0.67191 0.0
O78 O 0.60032 0.38136 0.67381 0.0
C79 C 0.62785 0.40447 0.71955 0.0
N80 N 0.64408 0.40315 0.69891 0.0
C81 C 0.67756 0.42731 0.72116 0.0
C82 C 0.66112 0.42914 0.7426 0.0
C83 C 0.63623 0.41751 0.74185 0.0
C84 C 0.66821 0.41393 0.69957 0.0
H85 H 0.60863 0.39572 0.71893 0.0
C86 C 0.58417 0.36201 0.67394 0.0
O87 O 0.6151 0.28549 0.67159 0.0
O88 O 0.62486 0.30892 0.7062 0.0
N89 N 0.67288 0.39755 0.65814 0.0
C90 C 0.68628 0.39408 0.63581 0.0
C91 C 0.71175 0.40409 0.63358 0.0
C92 C 0.72305 0.41779 0.65421 0.0
C93 C 0.70872 0.42146 0.67685 0.0
C94 C 0.68342 0.41105 0.67795 0.0
H95 H 0.67762 0.38373 0.61983 0.0
O96 O 0.66663 0.31573 0.67191 0.0
O97 O 0.64768 0.3539 0.6789 0.0
O98 O 0.62974 0.33029 0.63211 0.0
O99 O 0.63129 0.37472 0.63093 0.0
C100 C 0.71852 0.43507 0.69834 0.0
C101 C 0.7029 0.43813 0.72042 0.0
H102 H 0.66749 0.43923 0.75982 0.0
H103 H 0.62349 0.41871 0.75837 0.0
H104 H 0.72263 0.40126 0.616 0.0
H105 H 0.74272 0.42542 0.65244 0.0
H106 H 0.73803 0.4433 0.69808 0.0
H107 H 0.71065 0.44866 0.73682 0.0
Mn108 Mn 0.87514 0.67477 0.17471 0.0
Mn109 Mn 0.88602 0.60955 0.16837 0.0
C110 C 0.84359 0.6448 0.187 0.0
C111 C 0.87758 0.71266 0.19994 0.0
C112 C 0.87573 0.6462 0.1234 0.0
O113 O 0.91459 0.67243 0.1712 0.0
O114 O 0.92022 0.62808 0.1706 0.0
C115 C 0.90979 0.59681 0.21856 0.0
N116 N 0.89038 0.59315 0.20108 0.0
C117 C 0.86924 0.56112 0.22811 0.0
C118 C 0.88906 0.56447 0.24637 0.0
C119 C 0.90942 0.58238 0.24156 0.0
C120 C 0.87087 0.57571 0.20535 0.0
H121 H 0.92536 0.61071 0.21501 0.0
C122 C 0.92899 0.65184 0.17073 0.0
O123 O 0.87558 0.71425 0.17513 0.0
O124 O 0.87888 0.68925 0.2098 0.0
N125 N 0.85401 0.59018 0.16637 0.0
C126 C 0.83517 0.59122 0.14795 0.0
C127 C 0.81265 0.57566 0.15058 0.0
C128 C 0.80971 0.55924 0.1721 0.0
C129 C 0.82936 0.55852 0.19081 0.0
C130 C 0.85147 0.5743 0.18706 0.0
H131 H 0.8372 0.60406 0.13154 0.0
O132 O 0.83708 0.66882 0.18117 0.0
O133 O 0.86816 0.63913 0.1846 0.0
O134 O 0.87086 0.6671 0.13617 0.0
O135 O 0.88178 0.62419 0.13367 0.0
C136 C 0.82752 0.54333 0.21338 0.0
C137 C 0.84749 0.54456 0.23197 0.0
H138 H 0.88866 0.55365 0.26429 0.0
H139 H 0.92471 0.58517 0.25562 0.0
H140 H 0.79748 0.57647 0.13615 0.0
H141 H 0.79216 0.54751 0.17421 0.0
H142 H 0.81063 0.53096 0.21682 0.0
H143 H 0.84565 0.53311 0.24943 0.0
Mn144 Mn 0.32404 0.11622 0.1738 0.0
Mn145 Mn 0.34717 0.13339 0.11551 0.0
C146 C 0.31999 0.15913 0.15919 0.0
C147 C 0.29029 0.10083 0.19987 0.0
C148 C 0.38182 0.12619 0.16191 0.0
O149 O 0.32861 0.08065 0.15664 0.0
O150 O 0.34391 0.09424 0.11832 0.0
C151 C 0.30281 0.11597 0.08331 0.0
N152 N 0.31921 0.13543 0.09137 0.0
C153 C 0.30207 0.16577 0.06013 0.0
C154 C 0.28501 0.14605 0.05146 0.0
C155 C 0.28524 0.12111 0.06325 0.0
C156 C 0.31878 0.15964 0.08051 0.0
H157 H 0.3033 0.09662 0.09199 0.0
C158 C 0.33697 0.07603 0.13404 0.0
O159 O 0.31445 0.09962 0.20734 0.0
O160 O 0.2859 0.11024 0.17717 0.0
N161 N 0.35103 0.17053 0.11005 0.0
C162 C 0.36777 0.18773 0.12157 0.0
C163 C 0.36872 0.21405 0.11318 0.0
C164 C 0.35288 0.22225 0.09268 0.0
C165 C 0.33606 0.20408 0.08091 0.0
C166 C 0.33555 0.17827 0.09047 0.0
H167 H 0.38005 0.18149 0.13724 0.0
O168 O 0.31928 0.15387 0.18353 0.0
O169 O 0.32287 0.13906 0.14391 0.0
O170 O 0.36391 0.11936 0.17761 0.0
O171 O 0.37752 0.13237 0.13858 0.0
C172 C 0.31987 0.21053 0.06 0.0
C173 C 0.30304 0.19132 0.04947 0.0
H174 H 0.27158 0.14988 0.03585 0.0
H175 H 0.27212 0.1058 0.05668 0.0
H176 H 0.38174 0.22794 0.12238 0.0
H177 H 0.3538 0.24251 0.08613 0.0
H178 H 0.31999 0.23027 0.05203 0.0
H179 H 0.29046 0.19659 0.03358 0.0
Mn180 Mn 0.16937 0.87904 0.65918 0.0
Mn181 Mn 0.14413 0.88384 0.59977 0.0
C182 C 0.17391 0.84404 0.63148 0.0
C183 C 0.20384 0.88773 0.68675 0.0
C184 C 0.11158 0.8742 0.64755 0.0
O185 O 0.16279 0.91802 0.65479 0.0
O186 O 0.15062 0.92024 0.61328 0.0
C187 C 0.18854 0.90724 0.57146 0.0
N188 N 0.17089 0.88738 0.57447 0.0
C189 C 0.1876 0.86447 0.53753 0.0
C190 C 0.20583 0.88478 0.53391 0.0
C191 C 0.20631 0.90624 0.55097 0.0
C192 C 0.17008 0.86675 0.55804 0.0
H193 H 0.18908 0.92369 0.58462 0.0
C194 C 0.15702 0.931 0.63467 0.0
O195 O 0.18032 0.88443 0.69556 0.0
O196 O 0.20711 0.88599 0.66216 0.0
N197 N 0.13756 0.85005 0.58467 0.0
C198 C 0.12066 0.83087 0.59241 0.0
C199 C 0.11893 0.8073 0.57836 0.0
C200 C 0.13455 0.80371 0.55649 0.0
C201 C 0.1518 0.82372 0.54889 0.0
C202 C 0.15254 0.84688 0.56354 0.0
H203 H 0.10875 0.83342 0.60931 0.0
O204 O 0.17613 0.84074 0.65608 0.0
O205 O 0.16936 0.86812 0.62377 0.0
O206 O 0.13036 0.87187 0.66339 0.0
O207 O 0.11469 0.87983 0.62388 0.0
C208 C 0.16884 0.82128 0.52781 0.0
C209 C 0.18669 0.84166 0.5221 0.0
H210 H 0.21979 0.88392 0.51833 0.0
H211 H 0.22043 0.9219 0.5484 0.0
H212 H 0.10569 0.79188 0.58444 0.0
H213 H 0.13335 0.78539 0.54586 0.0
H214 H 0.1687 0.8036 0.51613 0.0
H215 H 0.20001 0.83933 0.50612 0.0
Mn216 Mn 0.84247 0.3721 0.82783 0.0
Mn217 Mn 0.85809 0.36947 0.89046 0.0
C218 C 0.84093 0.33266 0.84962 0.0
C219 C 0.81298 0.37645 0.79426 0.0
C220 C 0.89833 0.37328 0.84869 0.0
O221 O 0.83849 0.41003 0.83861 0.0
O222 O 0.85192 0.40702 0.87984 0.0
C223 C 0.80796 0.3874 0.91276 0.0
N224 N 0.82686 0.36865 0.91052 0.0
C225 C 0.80621 0.34147 0.94249 0.0
C226 C 0.78659 0.36055 0.94522 0.0
C227 C 0.78739 0.38354 0.93017 0.0
C228 C 0.82611 0.34632 0.9247 0.0
H229 H 0.80863 0.40524 0.90146 0.0
C230 C 0.84393 0.42022 0.8603 0.0
O231 O 0.8377 0.38098 0.79098 0.0
O232 O 0.80533 0.37036 0.81724 0.0
N233 N 0.86397 0.33445 0.90298 0.0
C234 C 0.88348 0.31729 0.89686 0.0
C235 C 0.88449 0.29255 0.90896 0.0
C236 C 0.86563 0.28584 0.9274 0.0
C237 C 0.84582 0.30388 0.93346 0.0
C238 C 0.84563 0.32811 0.92055 0.0
H239 H 0.89796 0.32234 0.88265 0.0
O240 O 0.84486 0.33317 0.82502 0.0
O241 O 0.83886 0.35545 0.86094 0.0
O242 O 0.88214 0.37543 0.83033 0.0
O243 O 0.89164 0.36968 0.87196 0.0
C244 C 0.82618 0.29872 0.9517 0.0
C245 C 0.80657 0.31764 0.95643 0.0
H246 H 0.7707 0.35765 0.95863 0.0
H247 H 0.77227 0.39831 0.9321 0.0
H248 H 0.89979 0.27871 0.9041 0.0
H249 H 0.86649 0.26676 0.93673 0.0
H250 H 0.82587 0.2802 0.96208 0.0
H251 H 0.79144 0.31336 0.97034 0.0
Mn252 Mn 0.6739 0.61593 0.3366 0.0
Mn253 Mn 0.64877 0.61191 0.3963 0.0
C254 C 0.67906 0.65088 0.36424 0.0
C255 C 0.70797 0.60683 0.30851 0.0
C256 C 0.61621 0.62228 0.34883 0.0
O257 O 0.66645 0.57711 0.34105 0.0
O258 O 0.65331 0.57546 0.38233 0.0
C259 C 0.69282 0.58658 0.42349 0.0
N260 N 0.67577 0.60704 0.4211 0.0
C261 C 0.69371 0.62868 0.45821 0.0
C262 C 0.71133 0.60774 0.46119 0.0
C263 C 0.7109 0.58662 0.44373 0.0
C264 C 0.67588 0.62737 0.43789 0.0
H265 H 0.69264 0.57039 0.41001 0.0
C266 C 0.65934 0.56446 0.36097 0.0
O267 O 0.68435 0.61038 0.30009 0.0
O268 O 0.71157 0.60838 0.33307 0.0
N269 N 0.64364 0.64566 0.41198 0.0
C270 C 0.6272 0.66548 0.40483 0.0
C271 C 0.62638 0.6888 0.41936 0.0
C272 C 0.64233 0.69143 0.44112 0.0
C273 C 0.659 0.67072 0.44815 0.0
C274 C 0.65888 0.64787 0.43303 0.0
H275 H 0.61503 0.66363 0.38802 0.0
O276 O 0.68139 0.65413 0.33964 0.0
O277 O 0.67422 0.6269 0.37204 0.0
O278 O 0.63491 0.62366 0.33275 0.0
O279 O 0.61934 0.61728 0.37262 0.0
C280 C 0.67635 0.67218 0.46907 0.0
C281 C 0.69366 0.65116 0.47412 0.0
H282 H 0.72551 0.60783 0.4766 0.0
H283 H 0.72456 0.57047 0.44581 0.0
H284 H 0.61358 0.70476 0.41372 0.0
H285 H 0.64185 0.70957 0.4521 0.0
H286 H 0.6769 0.6896 0.48109 0.0
H287 H 0.70724 0.65273 0.48997 0.0
Mn288 Mn 0.16619 0.32943 0.12582 0.0
Mn289 Mn 0.2206 0.35499 0.099 0.0
C290 C 0.20324 0.30401 0.12283 0.0
C291 C 0.13996 0.32112 0.16136 0.0
C292 C 0.17372 0.33699 0.06818 0.0
O293 O 0.15938 0.36886 0.1267 0.0
O294 O 0.19749 0.38428 0.11078 0.0
C295 C 0.2448 0.37984 0.14453 0.0
N296 N 0.24622 0.36254 0.12459 0.0
C297 C 0.29008 0.35024 0.13597 0.0
C298 C 0.28915 0.36806 0.15653 0.0
C299 C 0.2664 0.3829 0.16084 0.0
C300 C 0.26808 0.34831 0.12015 0.0
H301 H 0.2273 0.39119 0.14796 0.0
C302 C 0.17469 0.38769 0.12047 0.0
O303 O 0.13041 0.3211 0.13828 0.0
O304 O 0.16437 0.32742 0.16381 0.0
N305 N 0.24451 0.32864 0.08714 0.0
C306 C 0.24122 0.31042 0.06818 0.0
C307 C 0.26157 0.2928 0.06249 0.0
C308 C 0.28512 0.2942 0.07621 0.0
C309 C 0.2881 0.31321 0.09554 0.0
C310 C 0.26717 0.3303 0.10032 0.0
H311 H 0.22308 0.30913 0.05771 0.0
O312 O 0.18046 0.29305 0.12499 0.0
O313 O 0.2037 0.32972 0.12234 0.0
O314 O 0.16024 0.32837 0.08693 0.0
O315 O 0.19607 0.34775 0.07076 0.0
C316 C 0.31066 0.31524 0.11086 0.0
C317 C 0.31167 0.33378 0.13102 0.0
H318 H 0.30567 0.37028 0.16932 0.0
H319 H 0.26549 0.39657 0.17675 0.0
H320 H 0.25904 0.27805 0.04769 0.0
H321 H 0.30063 0.28034 0.07199 0.0
H322 H 0.32714 0.30226 0.10764 0.0
H323 H 0.32895 0.33483 0.14296 0.0
Mn324 Mn 0.67557 0.17122 0.87964 0.0
Mn325 Mn 0.72673 0.1527 0.91647 0.0
C326 C 0.7113 0.19854 0.88437 0.0
C327 C 0.65369 0.17558 0.84054 0.0
C328 C 0.676 0.17202 0.93875 0.0
O329 O 0.67054 0.13148 0.88165 0.0
O330 O 0.70429 0.1218 0.90805 0.0
C331 C 0.75452 0.12012 0.87805 0.0
N332 N 0.75446 0.14059 0.89497 0.0
C333 C 0.79958 0.15023 0.88615 0.0
C334 C 0.80017 0.12914 0.86874 0.0
C335 C 0.77752 0.11406 0.86465 0.0
C336 C 0.77616 0.15518 0.89913 0.0
H337 H 0.73714 0.10853 0.87481 0.0
C338 C 0.68413 0.11533 0.89489 0.0
O339 O 0.64132 0.17658 0.86225 0.0
O340 O 0.67847 0.17037 0.84152 0.0
N341 N 0.74999 0.18062 0.92593 0.0
C342 C 0.74548 0.20164 0.94161 0.0
C343 C 0.76578 0.21952 0.94669 0.0
C344 C 0.79054 0.21547 0.9358 0.0
C345 C 0.79478 0.19354 0.91993 0.0
C346 C 0.77382 0.17634 0.91562 0.0
H347 H 0.72644 0.2049 0.94992 0.0
O348 O 0.68857 0.20835 0.87895 0.0
O349 O 0.71234 0.17316 0.88777 0.0
O350 O 0.66416 0.17462 0.91736 0.0
O351 O 0.69982 0.16505 0.94054 0.0
C352 C 0.81871 0.18856 0.90753 0.0
C353 C 0.82111 0.16691 0.89066 0.0
H354 H 0.81781 0.12452 0.8582 0.0
H355 H 0.77779 0.09785 0.85114 0.0
H356 H 0.76232 0.23647 0.95885 0.0
H357 H 0.80605 0.2295 0.9395 0.0
H358 H 0.83524 0.20156 0.91042 0.0
H359 H 0.83947 0.16357 0.88089 0.0
Mn360 Mn 0.81267 0.82582 0.38729 0.0
Mn361 Mn 0.76357 0.85307 0.42137 0.0
C362 C 0.77955 0.79941 0.40222 0.0
C363 C 0.8307 0.81639 0.34735 0.0
C364 C 0.81656 0.8403 0.44412 0.0
O365 O 0.81723 0.8649 0.38109 0.0
O366 O 0.78209 0.88117 0.40165 0.0
C367 C 0.72988 0.86971 0.37818 0.0
N368 N 0.73327 0.8556 0.40017 0.0
C369 C 0.68873 0.84059 0.39926 0.0
C370 C 0.68471 0.85507 0.37668 0.0
C371 C 0.70542 0.86959 0.36603 0.0
C372 C 0.71358 0.84127 0.41037 0.0
H373 H 0.74572 0.88099 0.37001 0.0
C374 C 0.80245 0.88392 0.38759 0.0
O375 O 0.84526 0.81783 0.36771 0.0
O376 O 0.8059 0.82044 0.35019 0.0
N377 N 0.74379 0.82841 0.44126 0.0
C378 C 0.75103 0.81509 0.46284 0.0
C379 C 0.7328 0.79887 0.47534 0.0
C380 C 0.70722 0.79692 0.46585 0.0
C381 C 0.70006 0.8113 0.44397 0.0
C382 C 0.71912 0.82696 0.43218 0.0
H383 H 0.77061 0.81665 0.47033 0.0
O384 O 0.80154 0.78927 0.39487 0.0
O385 O 0.77696 0.82483 0.39927 0.0
O386 O 0.82649 0.82958 0.42417 0.0
O387 O 0.79374 0.85048 0.44472 0.0
C388 C 0.67477 0.81072 0.43341 0.0
C389 C 0.66907 0.82544 0.41113 0.0
H390 H 0.66584 0.85509 0.3673 0.0
H391 H 0.7025 0.88074 0.34856 0.0
H392 H 0.73844 0.78794 0.49229 0.0
H393 H 0.69321 0.78441 0.47556 0.0
H394 H 0.65959 0.79887 0.44216 0.0
H395 H 0.64961 0.82463 0.40305 0.0
Mn396 Mn 0.32257 0.67952 0.61312 0.0
Mn397 Mn 0.27475 0.64914 0.57965 0.0
C398 C 0.28692 0.70351 0.59981 0.0
C399 C 0.3413 0.68942 0.65269 0.0
C400 C 0.32572 0.66721 0.55578 0.0
O401 O 0.33054 0.64067 0.61803 0.0
O402 O 0.29605 0.62231 0.59817 0.0
C403 C 0.24387 0.62862 0.62331 0.0
N404 N 0.24539 0.64341 0.60154 0.0
C405 C 0.19957 0.65355 0.60341 0.0
C406 C 0.19747 0.63835 0.62579 0.0
C407 C 0.21976 0.62595 0.63586 0.0
C408 C 0.22418 0.6558 0.59196 0.0
H409 H 0.26092 0.61889 0.63098 0.0
C410 C 0.317 0.62072 0.61148 0.0
O411 O 0.35508 0.68968 0.63178 0.0
O412 O 0.31681 0.68332 0.65064 0.0
N413 N 0.25233 0.67227 0.56078 0.0
C414 C 0.25769 0.68639 0.53915 0.0
C415 C 0.23765 0.70069 0.52716 0.0
C416 C 0.21218 0.69977 0.5371 0.0
C417 C 0.20699 0.68449 0.55894 0.0
C418 C 0.22782 0.67097 0.5703 0.0
H419 H 0.27715 0.68692 0.53122 0.0
O420 O 0.3082 0.71522 0.607 0.0
O421 O 0.28645 0.67788 0.60212 0.0
O422 O 0.33542 0.67817 0.5757 0.0
O423 O 0.3039 0.65498 0.55563 0.0
C424 C 0.18192 0.68201 0.56979 0.0
C425 C 0.17821 0.66654 0.592 0.0
H426 H 0.17887 0.63609 0.63543 0.0
H427 H 0.21831 0.61423 0.65316 0.0
H428 H 0.24178 0.71228 0.5102 0.0
H429 H 0.19675 0.71073 0.52773 0.0
H430 H 0.1654 0.6921 0.56133 0.0
H431 H 0.15889 0.66502 0.60032 0.0
Mn432 Mn 0.87176 0.82529 0.67936 0.0
Mn433 Mn 0.87637 0.89006 0.66531 0.0
C434 C 0.83866 0.85402 0.69053 0.0
C435 C 0.87793 0.78972 0.707 0.0
C436 C 0.86547 0.84816 0.62535 0.0
O437 O 0.9106 0.83029 0.67398 0.0
O438 O 0.91203 0.87411 0.66558 0.0
C439 C 0.9044 0.90886 0.71148 0.0
N440 N 0.88304 0.90966 0.69595 0.0
C441 C 0.86241 0.94214 0.72284 0.0
C442 C 0.88425 0.94176 0.73903 0.0
C443 C 0.90534 0.92505 0.73331 0.0
C444 C 0.86275 0.92588 0.70112 0.0
H445 H 0.92057 0.89588 0.7073 0.0
C446 C 0.923 0.85158 0.6691 0.0
O447 O 0.87536 0.7863 0.68244 0.0
O448 O 0.87769 0.81383 0.71534 0.0
N449 N 0.84302 0.90713 0.66528 0.0
C450 C 0.82248 0.90333 0.6491 0.0
C451 C 0.7993 0.91757 0.65293 0.0
C452 C 0.79744 0.93549 0.6734 0.0
C453 C 0.8188 0.939 0.68986 0.0
C454 C 0.8415 0.92445 0.68494 0.0
H455 H 0.82363 0.88925 0.63361 0.0
O456 O 0.83364 0.82915 0.68709 0.0
O457 O 0.86254 0.86122 0.68615 0.0
O458 O 0.86556 0.82864 0.64075 0.0
O459 O 0.86898 0.87198 0.63249 0.0
C460 C 0.81819 0.9558 0.71138 0.0
C461 C 0.84 0.95743 0.72782 0.0
H462 H 0.88491 0.95397 0.75607 0.0
H463 H 0.9222 0.92453 0.7458 0.0
H464 H 0.78281 0.91456 0.64029 0.0
H465 H 0.77941 0.94619 0.67649 0.0
H466 H 0.80088 0.96724 0.7157 0.0
H467 H 0.83914 0.97012 0.74451 0.0
Mn468 Mn 0.61776 0.16855 0.17135 0.0
Mn469 Mn 0.62447 0.10587 0.15207 0.0
C470 C 0.6578 0.14806 0.17546 0.0
C471 C 0.60474 0.1965 0.20428 0.0
C472 C 0.62032 0.15275 0.11572 0.0
O473 O 0.58052 0.15545 0.16658 0.0
O474 O 0.58738 0.11166 0.16237 0.0
C475 C 0.61481 0.07767 0.20089 0.0
N476 N 0.63083 0.08327 0.18076 0.0
C477 C 0.66461 0.0553 0.19775 0.0
C478 C 0.6483 0.04889 0.21843 0.0
C479 C 0.62335 0.06024 0.22008 0.0
C480 C 0.65499 0.07269 0.17915 0.0
H481 H 0.59572 0.08652 0.20235 0.0
C482 C 0.57237 0.13166 0.16562 0.0
O483 O 0.60534 0.20481 0.18068 0.0
O484 O 0.6116 0.17232 0.20851 0.0
N485 N 0.65967 0.09806 0.14222 0.0
C486 C 0.67336 0.10695 0.12152 0.0
C487 C 0.69901 0.09812 0.11753 0.0
C488 C 0.71031 0.08017 0.13479 0.0
C489 C 0.69579 0.0711 0.15581 0.0
C490 C 0.67023 0.08044 0.15869 0.0
H491 H 0.66484 0.1207 0.10814 0.0
O492 O 0.65613 0.17358 0.1766 0.0
O493 O 0.63585 0.13562 0.17276 0.0
O494 O 0.62242 0.17093 0.13252 0.0
O495 O 0.61882 0.12814 0.1211 0.0
C496 C 0.70578 0.05338 0.17417 0.0
C497 C 0.69017 0.04542 0.19507 0.0
H498 H 0.65488 0.03557 0.23335 0.0
H499 H 0.61077 0.05563 0.23614 0.0
H500 H 0.71008 0.10521 0.10124 0.0
H501 H 0.73018 0.07356 0.13176 0.0
H502 H 0.72549 0.04587 0.17247 0.0
H503 H 0.69812 0.0319 0.20914 0.0
Mn504 Mn 0.37849 0.67562 0.31767 0.0
Mn505 Mn 0.37875 0.61257 0.33823 0.0
C506 C 0.34282 0.64885 0.31015 0.0
C507 C 0.38941 0.70514 0.28506 0.0
C508 C 0.37121 0.65966 0.37366 0.0
O509 O 0.41661 0.66841 0.32433 0.0
O510 O 0.41557 0.62518 0.33488 0.0
C511 C 0.40307 0.58609 0.29364 0.0
N512 N 0.38252 0.58883 0.31 0.0
C513 C 0.35873 0.55428 0.28864 0.0
C514 C 0.37971 0.55097 0.27167 0.0
C515 C 0.40197 0.56696 0.27418 0.0
C516 C 0.36111 0.57337 0.30792 0.0
H517 H 0.42015 0.59846 0.29536 0.0
C518 C 0.42781 0.64669 0.32984 0.0
O519 O 0.386 0.71339 0.30845 0.0
O520 O 0.38623 0.68019 0.28086 0.0
N521 N 0.34425 0.59837 0.3415 0.0
C522 C 0.32468 0.60598 0.35759 0.0
C523 C 0.30048 0.59302 0.35652 0.0
C524 C 0.29661 0.57244 0.33889 0.0
C525 C 0.31699 0.56504 0.32243 0.0
C526 C 0.34077 0.57852 0.32453 0.0
H527 H 0.32735 0.62211 0.37083 0.0
O528 O 0.34031 0.67434 0.30994 0.0
O529 O 0.36608 0.64002 0.31511 0.0
O530 O 0.37152 0.67774 0.35654 0.0
O531 O 0.37418 0.63518 0.36862 0.0
C532 C 0.31436 0.54538 0.3035 0.0
C533 C 0.33523 0.53995 0.28667 0.0
H534 H 0.3788 0.53647 0.25643 0.0
H535 H 0.41817 0.56464 0.26106 0.0
H536 H 0.28476 0.59904 0.3691 0.0
H537 H 0.27781 0.56272 0.33789 0.0
H538 H 0.2962 0.53464 0.30143 0.0
H539 H 0.33282 0.5251 0.27192 0.0
Mn540 Mn 0.13251 0.32895 0.82822 0.0
Mn541 Mn 0.14274 0.39212 0.84545 0.0
C542 C 0.17306 0.34801 0.82193 0.0
C543 C 0.11729 0.3002 0.79666 0.0
C544 C 0.13928 0.3465 0.88349 0.0
O545 O 0.09606 0.34335 0.83403 0.0
O546 O 0.10475 0.38676 0.83887 0.0
C547 C 0.12893 0.41891 0.79684 0.0
N548 N 0.14659 0.41385 0.81572 0.0
C549 C 0.17803 0.44305 0.79648 0.0
C550 C 0.16002 0.44889 0.77704 0.0
C551 C 0.13544 0.4366 0.77711 0.0
C552 C 0.17049 0.42514 0.81553 0.0
H553 H 0.11004 0.40949 0.79683 0.0
C554 C 0.08891 0.36733 0.83633 0.0
O555 O 0.11852 0.29279 0.82051 0.0
O556 O 0.12485 0.32396 0.79136 0.0
N557 N 0.17871 0.39997 0.85197 0.0
C558 C 0.19419 0.39151 0.87157 0.0
C559 C 0.21978 0.40121 0.87373 0.0
C560 C 0.22914 0.41961 0.8558 0.0
C561 C 0.21281 0.42817 0.8359 0.0
C562 C 0.18748 0.41786 0.83476 0.0
H563 H 0.18722 0.37726 0.8853 0.0
O564 O 0.17054 0.32254 0.82178 0.0
O565 O 0.1517 0.36133 0.82501 0.0
O566 O 0.13806 0.32773 0.86715 0.0
O567 O 0.13986 0.37094 0.87727 0.0
C568 C 0.22068 0.44654 0.81715 0.0
C569 C 0.20323 0.45412 0.79757 0.0
H570 H 0.16498 0.46254 0.7618 0.0
H571 H 0.12154 0.4408 0.76203 0.0
H572 H 0.23227 0.39445 0.88912 0.0
H573 H 0.24892 0.42697 0.85747 0.0
H574 H 0.24014 0.4549 0.81756 0.0
H575 H 0.20954 0.4682 0.78322 0.0
Mn576 Mn 0.67474 0.88 0.84365 0.0
Mn577 Mn 0.65235 0.86942 0.90365 0.0
C578 C 0.67955 0.83914 0.86274 0.0
C579 C 0.70759 0.89346 0.81579 0.0
C580 C 0.61728 0.87172 0.85691 0.0
O581 O 0.66905 0.91725 0.85714 0.0
O582 O 0.65703 0.90788 0.89774 0.0
C583 C 0.69904 0.88718 0.9323 0.0
N584 N 0.6814 0.86794 0.92659 0.0
C585 C 0.70201 0.83761 0.95573 0.0
C586 C 0.72031 0.85714 0.96205 0.0
C587 C 0.71888 0.88199 0.95019 0.0
C588 C 0.68284 0.84384 0.93761 0.0
H589 H 0.69798 0.90632 0.92326 0.0
C590 C 0.66261 0.92427 0.8798 0.0
O591 O 0.68332 0.89314 0.80861 0.0
O592 O 0.7126 0.88678 0.83931 0.0
N593 N 0.64722 0.833 0.912 0.0
C594 C 0.62796 0.8164 0.90395 0.0
C595 C 0.62676 0.79064 0.91383 0.0
C596 C 0.64517 0.78233 0.93209 0.0
C597 C 0.66446 0.79995 0.94049 0.0
C598 C 0.66462 0.82541 0.93003 0.0
H599 H 0.61369 0.8227 0.89 0.0
O600 O 0.68076 0.84147 0.83799 0.0
O601 O 0.67603 0.86081 0.87551 0.0
O602 O 0.63547 0.87491 0.84053 0.0
O603 O 0.62128 0.8699 0.88105 0.0
C604 C 0.68344 0.79331 0.95894 0.0
C605 C 0.70212 0.81217 0.96664 0.0
H606 H 0.73561 0.85322 0.97587 0.0
H607 H 0.73299 0.89713 0.95488 0.0
H608 H 0.61171 0.77722 0.90737 0.0
H609 H 0.64425 0.76242 0.9396 0.0
H610 H 0.68384 0.77377 0.96734 0.0
H611 H 0.71663 0.80682 0.98083 0.0
Mn612 Mn 0.82523 0.12387 0.32754 0.0
Mn613 Mn 0.8354 0.12008 0.39131 0.0
C614 C 0.81458 0.15914 0.35351 0.0
C615 C 0.79914 0.11581 0.29176 0.0
C616 C 0.87861 0.12895 0.35249 0.0
O617 O 0.83092 0.08461 0.33384 0.0
O618 O 0.83158 0.08391 0.37713 0.0
C619 C 0.78416 0.09866 0.40739 0.0
N620 N 0.8027 0.11787 0.40885 0.0
C621 C 0.77766 0.1419 0.44012 0.0
C622 C 0.75846 0.12219 0.43923 0.0
C623 C 0.76166 0.10057 0.42266 0.0
C624 C 0.79958 0.13901 0.42435 0.0
H625 H 0.78649 0.08207 0.39462 0.0
C626 C 0.83121 0.07235 0.35526 0.0
O627 O 0.82425 0.11854 0.28972 0.0
O628 O 0.7893 0.11708 0.31468 0.0
N629 N 0.83896 0.15386 0.40739 0.0
C630 C 0.85904 0.17142 0.40567 0.0
C631 C 0.85843 0.19458 0.42044 0.0
C632 C 0.83735 0.19932 0.43704 0.0
C633 C 0.81714 0.18076 0.43883 0.0
C634 C 0.81882 0.15801 0.42366 0.0
H635 H 0.87537 0.16786 0.39306 0.0
O636 O 0.81765 0.16251 0.32902 0.0
O637 O 0.81707 0.13514 0.36184 0.0
O638 O 0.86387 0.13121 0.33296 0.0
O639 O 0.87031 0.12309 0.37491 0.0
C640 C 0.79541 0.18391 0.45509 0.0
C641 C 0.77577 0.16441 0.45586 0.0
H642 H 0.74108 0.1236 0.45098 0.0
H643 H 0.74682 0.08539 0.42169 0.0
H644 H 0.87417 0.20875 0.41903 0.0
H645 H 0.83691 0.21724 0.44834 0.0
H646 H 0.79358 0.20128 0.46707 0.0
H647 H 0.75912 0.16709 0.4684 0.0
Mn648 Mn 0.17302 0.62794 0.16557 0.0
Mn649 Mn 0.1543 0.62802 0.1038 0.0
C650 C 0.18617 0.66196 0.13913 0.0
C651 C 0.20267 0.61343 0.19624 0.0
C652 C 0.11829 0.64064 0.14858 0.0
O653 O 0.15975 0.59061 0.15927 0.0
O654 O 0.1556 0.59078 0.1161 0.0
C655 C 0.19892 0.60132 0.07879 0.0
N656 N 0.18307 0.62276 0.08104 0.0
C657 C 0.206 0.64546 0.04732 0.0
C658 C 0.22235 0.62348 0.04442 0.0
C659 C 0.21882 0.60134 0.06027 0.0
C660 C 0.18622 0.64415 0.06583 0.0
H661 H 0.19649 0.58443 0.09116 0.0
C662 C 0.15589 0.57894 0.13788 0.0
O663 O 0.17923 0.62058 0.20275 0.0
O664 O 0.20855 0.61432 0.17208 0.0
N665 N 0.15293 0.66305 0.09003 0.0
C666 C 0.13741 0.68362 0.09714 0.0
C667 C 0.13974 0.70792 0.0844 0.0
C668 C 0.15794 0.71081 0.06445 0.0
C669 C 0.17367 0.68937 0.05743 0.0
C670 C 0.17036 0.66556 0.0707 0.0
H671 H 0.12352 0.68161 0.11258 0.0
O672 O 0.18684 0.66477 0.16386 0.0
O673 O 0.17836 0.63911 0.1308 0.0
O674 O 0.13566 0.64172 0.16602 0.0
O675 O 0.12303 0.63405 0.12537 0.0
C676 C 0.19305 0.69092 0.0383 0.0
C677 C 0.20915 0.66897 0.0332 0.0
H678 H 0.23795 0.62355 0.03039 0.0
H679 H 0.23153 0.5844 0.05833 0.0
H680 H 0.12766 0.72444 0.09005 0.0
H681 H 0.15989 0.72968 0.05487 0.0
H682 H 0.19606 0.70908 0.02774 0.0
H683 H 0.22431 0.67058 0.0188 0.0
Mn684 Mn 0.342 0.3814 0.67279 0.0
Mn685 Mn 0.35213 0.38393 0.60914 0.0
C686 C 0.32905 0.34657 0.64711 0.0
C687 C 0.3157 0.38954 0.70827 0.0
C688 C 0.39525 0.37706 0.64855 0.0
O689 O 0.34816 0.42059 0.66556 0.0
O690 O 0.34792 0.42064 0.62207 0.0
C691 C 0.30197 0.40496 0.5898 0.0
N692 N 0.32012 0.38534 0.59036 0.0
C693 C 0.29515 0.35907 0.56074 0.0
C694 C 0.2763 0.37909 0.55971 0.0
C695 C 0.27973 0.40213 0.5743 0.0
C696 C 0.31716 0.3632 0.57618 0.0
H697 H 0.30433 0.42252 0.60127 0.0
C698 C 0.34807 0.43252 0.64386 0.0
O699 O 0.3408 0.38688 0.71057 0.0
O700 O 0.30613 0.38869 0.68525 0.0
N701 N 0.35572 0.34907 0.59536 0.0
C702 C 0.37435 0.33063 0.60048 0.0
C703 C 0.37286 0.30575 0.58871 0.0
C704 C 0.35223 0.30006 0.57187 0.0
C705 C 0.33325 0.31933 0.56692 0.0
C706 C 0.33586 0.34386 0.57905 0.0
H707 H 0.39009 0.33476 0.61363 0.0
O708 O 0.33334 0.3428 0.67138 0.0
O709 O 0.33326 0.37034 0.63886 0.0
O710 O 0.38069 0.3738 0.66801 0.0
O711 O 0.38667 0.3824 0.62618 0.0
C712 C 0.31147 0.3149 0.55101 0.0
C713 C 0.29249 0.33479 0.54783 0.0
H714 H 0.25892 0.37681 0.54809 0.0
H715 H 0.26515 0.41757 0.57378 0.0
H716 H 0.38748 0.29092 0.59276 0.0
H717 H 0.35097 0.28074 0.56308 0.0
H718 H 0.30891 0.2961 0.54143 0.0
H719 H 0.27561 0.33099 0.53588 0.0
Mn720 Mn 0.82827 0.66754 0.89162 0.0
Mn721 Mn 0.89214 0.65424 0.88247 0.0
C722 C 0.84738 0.67512 0.85219 0.0
C723 C 0.79425 0.69541 0.90317 0.0
C724 C 0.85037 0.61215 0.8826 0.0
O725 O 0.84175 0.66418 0.92827 0.0
O726 O 0.88414 0.65626 0.91971 0.0
C727 C 0.91346 0.70442 0.90262 0.0
N728 N 0.91097 0.68678 0.88307 0.0
C729 C 0.93891 0.71269 0.85583 0.0
C730 C 0.94187 0.73109 0.87571 0.0
C731 C 0.92899 0.72699 0.89916 0.0
C732 C 0.92295 0.69075 0.86029 0.0
H733 H 0.90369 0.70127 0.92072 0.0
C734 C 0.86516 0.65962 0.9354 0.0
O735 O 0.79151 0.66995 0.9034 0.0
O736 O 0.81721 0.70463 0.8976 0.0
N737 N 0.90271 0.65187 0.84734 0.0
C738 C 0.89803 0.63212 0.8302 0.0
C739 C 0.90914 0.63347 0.8056 0.0
C740 C 0.92528 0.65484 0.79905 0.0
C741 C 0.93037 0.67455 0.81725 0.0
C742 C 0.91869 0.6722 0.84142 0.0
H743 H 0.88576 0.61556 0.83519 0.0
O744 O 0.82232 0.67231 0.85414 0.0
O745 O 0.86057 0.674 0.87347 0.0
O746 O 0.83131 0.62778 0.88654 0.0
O747 O 0.87409 0.61973 0.88097 0.0
C748 C 0.94677 0.69631 0.81243 0.0
C749 C 0.95114 0.71529 0.83175 0.0
H750 H 0.95392 0.74846 0.87314 0.0
H751 H 0.93111 0.74113 0.91457 0.0
H752 H 0.90527 0.61807 0.79173 0.0
H753 H 0.9338 0.65582 0.78005 0.0
H754 H 0.9561 0.69865 0.79392 0.0
H755 H 0.9637 0.732 0.82779 0.0
Mn756 Mn 0.33549 0.83054 0.10731 0.0
Mn757 Mn 0.39975 0.8428 0.10449 0.0
C758 C 0.3616 0.81818 0.14124 0.0
C759 C 0.30226 0.80142 0.09608 0.0
C760 C 0.35812 0.88499 0.11261 0.0
O761 O 0.34232 0.83986 0.07011 0.0
O762 O 0.38644 0.83951 0.06855 0.0
C763 C 0.42024 0.79312 0.08262 0.0
N764 N 0.41968 0.81107 0.10205 0.0
C765 C 0.45126 0.78633 0.1263 0.0
C766 C 0.45231 0.76766 0.10647 0.0
C767 C 0.43672 0.77107 0.08454 0.0
C768 C 0.43479 0.80813 0.12312 0.0
H769 H 0.40813 0.7956 0.06583 0.0
C770 C 0.36388 0.84105 0.05792 0.0
O771 O 0.29707 0.82606 0.10088 0.0
O772 O 0.32638 0.79411 0.09767 0.0
N773 N 0.41439 0.84614 0.13812 0.0
C774 C 0.40914 0.86451 0.15649 0.0
C775 C 0.4219 0.86301 0.18028 0.0
C776 C 0.43992 0.84268 0.18493 0.0
C777 C 0.44502 0.82402 0.16572 0.0
C778 C 0.43186 0.82662 0.14232 0.0
H779 H 0.39513 0.88003 0.15311 0.0
O780 O 0.33655 0.8203 0.14425 0.0
O781 O 0.3703 0.82296 0.11825 0.0
O782 O 0.33861 0.8698 0.1164 0.0
O783 O 0.38103 0.87676 0.1071 0.0
C784 C 0.46208 0.8025 0.16915 0.0
C785 C 0.46526 0.78371 0.14943 0.0
H786 H 0.46473 0.75044 0.10803 0.0
H787 H 0.4373 0.75666 0.06924 0.0
H788 H 0.41773 0.87739 0.19508 0.0
H789 H 0.44948 0.84141 0.20342 0.0
H790 H 0.4725 0.79996 0.18706 0.0
H791 H 0.47809 0.76702 0.15246 0.0
Mn792 Mn 0.16867 0.18099 0.61939 0.0
Mn793 Mn 0.10567 0.16279 0.61464 0.0
C794 C 0.14069 0.18898 0.65312 0.0
C795 C 0.20043 0.21277 0.61138 0.0
C796 C 0.14992 0.12421 0.62415 0.0
O797 O 0.16371 0.17479 0.58138 0.0
O798 O 0.12049 0.16635 0.57927 0.0
C799 C 0.08342 0.21071 0.59072 0.0
N800 N 0.08402 0.19318 0.61051 0.0
C801 C 0.05017 0.2167 0.6329 0.0
C802 C 0.04905 0.23489 0.61266 0.0
C803 C 0.06575 0.23188 0.59149 0.0
C804 C 0.06789 0.19576 0.63089 0.0
H805 H 0.09638 0.2086 0.57451 0.0
C806 C 0.14286 0.1702 0.5688 0.0
O807 O 0.20685 0.18816 0.61457 0.0
O808 O 0.17587 0.2186 0.61279 0.0
N809 N 0.08942 0.15914 0.64752 0.0
C810 C 0.09457 0.14126 0.66639 0.0
C811 C 0.08051 0.1424 0.68948 0.0
C812 C 0.06131 0.16186 0.69294 0.0
C813 C 0.05632 0.18001 0.67323 0.0
C814 C 0.07081 0.17778 0.65054 0.0
H815 H 0.10949 0.12644 0.66395 0.0
O816 O 0.16573 0.18823 0.65679 0.0
O817 O 0.13291 0.18511 0.62962 0.0
O818 O 0.16823 0.14118 0.62606 0.0
O819 O 0.12622 0.1302 0.61928 0.0
C820 C 0.03806 0.20065 0.67548 0.0
C821 C 0.03494 0.21895 0.65531 0.0
H822 H 0.03567 0.25143 0.61332 0.0
H823 H 0.06512 0.24594 0.57587 0.0
H824 H 0.08458 0.12844 0.70467 0.0
H825 H 0.05073 0.16287 0.7109 0.0
H826 H 0.02659 0.20289 0.6928 0.0
H827 H 0.02111 0.23497 0.65742 0.0
Mn828 Mn 0.65587 0.31878 0.38703 0.0
Mn829 Mn 0.59165 0.33305 0.38239 0.0
C830 C 0.63254 0.30582 0.35143 0.0
C831 C 0.69065 0.29208 0.39912 0.0
C832 C 0.63414 0.37323 0.37342 0.0
O833 O 0.64599 0.3274 0.42388 0.0
O834 O 0.60297 0.33576 0.41882 0.0
C835 C 0.57055 0.28704 0.41056 0.0
N836 N 0.57177 0.30183 0.38878 0.0
C837 C 0.5414 0.27317 0.36722 0.0
C838 C 0.53968 0.25774 0.38949 0.0
C839 C 0.55434 0.2647 0.41123 0.0
C840 C 0.55766 0.29538 0.36777 0.0
H841 H 0.58192 0.29223 0.42726 0.0
C842 C 0.62356 0.33364 0.43268 0.0
O843 O 0.6935 0.31727 0.39568 0.0
O844 O 0.66722 0.28257 0.39676 0.0
N845 N 0.5784 0.33089 0.34812 0.0
C846 C 0.58378 0.34668 0.32763 0.0
C847 C 0.57155 0.34171 0.30401 0.0
C848 C 0.55385 0.32068 0.30175 0.0
C849 C 0.54851 0.3048 0.32315 0.0
C850 C 0.56113 0.31082 0.34625 0.0
H851 H 0.59753 0.36275 0.32923 0.0
O852 O 0.6577 0.30854 0.35017 0.0
O853 O 0.62179 0.31085 0.37351 0.0
O854 O 0.65313 0.35753 0.37708 0.0
O855 O 0.61023 0.36642 0.37509 0.0
C856 C 0.53168 0.28282 0.32229 0.0
C857 C 0.52812 0.26703 0.34431 0.0
H858 H 0.52739 0.24036 0.39001 0.0
H859 H 0.55324 0.2528 0.42844 0.0
H860 H 0.57589 0.35395 0.28754 0.0
H861 H 0.54467 0.31673 0.28343 0.0
H862 H 0.52171 0.27764 0.30468 0.0
H863 H 0.51544 0.24996 0.3433 0.0
H864 H 0.15515 0.31909 0.21156 0.0
H865 H 0.0922 0.29706 0.1602 0.0
H866 H 0.07305 0.26934 0.1942 0.0
H867 H 0.16609 0.25944 0.23594 0.0
H868 H 0.1728 0.26907 0.26856 0.0
H869 H 0.17819 0.29208 0.24292 0.0
H870 H 0.1476 0.32599 0.26477 0.0
H871 H 0.14236 0.30318 0.29082 0.0
H872 H 0.11489 0.31641 0.27348 0.0
H873 H 0.06732 0.23613 0.22873 0.0
H874 H 0.07266 0.20341 0.26354 0.0
H875 H 0.13739 0.24847 0.29413 0.0
C876 C 0.13674 0.30932 0.20783 0.0
C877 C 0.12514 0.31025 0.18326 0.0
C878 C 0.10133 0.29681 0.17894 0.0
C879 C 0.09029 0.28099 0.19816 0.0
C880 C 0.10301 0.27929 0.22174 0.0
C881 C 0.12538 0.29362 0.22689 0.0
C882 C 0.13688 0.28608 0.25266 0.0
C883 C 0.16514 0.27607 0.24982 0.0
C884 C 0.13533 0.3093 0.27155 0.0
C885 C 0.1185 0.26408 0.2604 0.0
C886 C 0.09892 0.26066 0.24242 0.0
C887 C 0.08192 0.2392 0.24343 0.0
C888 C 0.08517 0.22065 0.26312 0.0
C889 C 0.10505 0.22389 0.28165 0.0
C890 C 0.12147 0.24617 0.28064 0.0
H891 H 0.40407 0.79152 0.74808 0.0
H892 H 0.37008 0.74636 0.81031 0.0
H893 H 0.35989 0.71025 0.78005 0.0
H894 H 0.35865 0.77834 0.70368 0.0
H895 H 0.38004 0.77551 0.67636 0.0
H896 H 0.38966 0.79517 0.70341 0.0
H897 H 0.43222 0.76803 0.70813 0.0
H898 H 0.42295 0.74843 0.68074 0.0
H899 H 0.43045 0.73261 0.71081 0.0
H900 H 0.34439 0.68453 0.74186 0.0
H901 H 0.3297 0.66848 0.69941 0.0
H902 H 0.37647 0.72853 0.66219 0.0
C903 C 0.39543 0.77358 0.7555 0.0
C904 C 0.38795 0.77164 0.78152 0.0
C905 C 0.37629 0.74808 0.79052 0.0
C906 C 0.37035 0.72751 0.77343 0.0
C907 C 0.3768 0.73061 0.74758 0.0
C908 C 0.38974 0.75277 0.73878 0.0
C909 C 0.39241 0.75242 0.70983 0.0
C910 C 0.3794 0.77679 0.69763 0.0
C911 C 0.42122 0.75023 0.70192 0.0
C912 C 0.37764 0.72738 0.70355 0.0
C913 C 0.36889 0.71498 0.72559 0.0
C914 C 0.35189 0.69351 0.72453 0.0
C915 C 0.34353 0.68463 0.70039 0.0
C916 C 0.35244 0.69697 0.67768 0.0
C917 C 0.37011 0.71823 0.6793 0.0
H918 H 0.65583 0.2536 0.70998 0.0
H919 H 0.57383 0.26979 0.72175 0.0
H920 H 0.57249 0.2363 0.75649 0.0
H921 H 0.65429 0.18096 0.72694 0.0
H922 H 0.68544 0.18328 0.74285 0.0
H923 H 0.67841 0.20416 0.71571 0.0
H924 H 0.68923 0.24543 0.74309 0.0
H925 H 0.69611 0.22478 0.77025 0.0
H926 H 0.67214 0.25066 0.77289 0.0
H927 H 0.58214 0.20689 0.7943 0.0
H928 H 0.60166 0.18461 0.83185 0.0
H929 H 0.67757 0.18749 0.79514 0.0
C930 C 0.63738 0.24913 0.71918 0.0
C931 C 0.61472 0.26345 0.71289 0.0
C932 C 0.59113 0.2583 0.72597 0.0
C933 C 0.59027 0.23939 0.74569 0.0
C934 C 0.61319 0.22592 0.75196 0.0
C935 C 0.63629 0.23042 0.73889 0.0
C936 C 0.65889 0.21597 0.75126 0.0
C937 C 0.6699 0.19483 0.73311 0.0
C938 C 0.68033 0.23537 0.75989 0.0
C939 C 0.64521 0.20351 0.77398 0.0
C940 C 0.61879 0.2091 0.77386 0.0
C941 C 0.60267 0.20189 0.79427 0.0
C942 C 0.61394 0.18924 0.81554 0.0
C943 C 0.64109 0.18403 0.81632 0.0
C944 C 0.65667 0.19063 0.79489 0.0
H945 H 0.89334 0.71638 0.24967 0.0
H946 H 0.85643 0.76088 0.18861 0.0
H947 H 0.8455 0.79625 0.2195 0.0
H948 H 0.84837 0.72807 0.29577 0.0
H949 H 0.87069 0.73128 0.32232 0.0
H950 H 0.87973 0.71194 0.29485 0.0
H951 H 0.92151 0.74008 0.28886 0.0
H952 H 0.91276 0.75943 0.31658 0.0
H953 H 0.91887 0.77546 0.2863 0.0
H954 H 0.83067 0.82149 0.25824 0.0
H955 H 0.8172 0.83721 0.3012 0.0
H956 H 0.86659 0.77829 0.33673 0.0
C957 C 0.8837 0.73398 0.24265 0.0
C958 C 0.87575 0.73599 0.21679 0.0
C959 C 0.86293 0.75912 0.2083 0.0
C960 C 0.85661 0.77926 0.22573 0.0
C961 C 0.86382 0.77618 0.25138 0.0
C962 C 0.87765 0.75438 0.25969 0.0
C963 C 0.88133 0.75475 0.28852 0.0
C964 C 0.8693 0.73006 0.30108 0.0
C965 C 0.91035 0.75761 0.29547 0.0
C966 C 0.86623 0.77942 0.29535 0.0
C967 C 0.85636 0.79159 0.27364 0.0
C968 C 0.83899 0.81269 0.2753 0.0
C969 C 0.83136 0.82141 0.29972 0.0
C970 C 0.84137 0.80928 0.32208 0.0
C971 C 0.85942 0.78843 0.31985 0.0
H972 H 0.28749 0.10833 0.25166 0.0
H973 H 0.24304 0.08107 0.18617 0.0
H974 H 0.20339 0.07878 0.21295 0.0
H975 H 0.24746 0.07241 0.30366 0.0
H976 H 0.25008 0.10037 0.32485 0.0
H977 H 0.27639 0.09268 0.30309 0.0
H978 H 0.274 0.14001 0.28442 0.0
H979 H 0.2478 0.14782 0.30597 0.0
H980 H 0.2434 0.15199 0.2719 0.0
H981 H 0.16762 0.08803 0.24327 0.0
H982 H 0.13829 0.10957 0.27439 0.0
H983 H 0.20479 0.13231 0.32052 0.0
C984 C 0.26964 0.10068 0.24339 0.0
C985 C 0.26831 0.09437 0.21704 0.0
C986 C 0.24444 0.08563 0.20642 0.0
C987 C 0.22187 0.08415 0.22154 0.0
C988 C 0.22346 0.09159 0.24724 0.0
C989 C 0.24678 0.09958 0.25818 0.0
C990 C 0.24235 0.11078 0.28483 0.0
C991 C 0.25482 0.09299 0.30532 0.0
C992 C 0.25247 0.13934 0.28687 0.0
C993 C 0.21284 0.10959 0.28636 0.0
C994 C 0.20241 0.09757 0.26486 0.0
C995 C 0.17556 0.09666 0.26058 0.0
C996 C 0.15902 0.10881 0.27841 0.0
C997 C 0.16931 0.12151 0.30031 0.0
C998 C 0.19651 0.12174 0.3044 0.0
H999 H 0.29103 0.86079 0.80974 0.0
H1000 H 0.35682 0.87932 0.76077 0.0
H1001 H 0.32708 0.89677 0.7279 0.0
H1002 H 0.25303 0.83519 0.7614 0.0
H1003 H 0.22207 0.84719 0.77298 0.0
H1004 H 0.24835 0.84151 0.79513 0.0
H1005 H 0.24521 0.88999 0.81109 0.0
H1006 H 0.21853 0.89548 0.78913 0.0
H1007 H 0.24686 0.91653 0.78812 0.0
H1008 H 0.29144 0.90702 0.69867 0.0
H1009 H 0.25151 0.90574 0.67258 0.0
H1010 H 0.20744 0.87869 0.73869 0.0
C1011 C 0.299 0.86935 0.79239 0.0
C1012 C 0.32617 0.87025 0.78826 0.0
C1013 C 0.33609 0.87997 0.7648 0.0
C1014 C 0.31935 0.88981 0.746 0.0
C1015 C 0.29265 0.88919 0.75072 0.0
C1016 C 0.2824 0.879 0.77319 0.0
C1017 C 0.2529 0.87718 0.7717 0.0
C1018 C 0.24355 0.84857 0.77552 0.0
C1019 C 0.24012 0.89591 0.79117 0.0
C1020 C 0.24841 0.88658 0.74443 0.0
C1021 C 0.27162 0.89411 0.73304 0.0
C1022 C 0.27305 0.90158 0.70741 0.0
C1023 C 0.25028 0.90065 0.69273 0.0
C1024 C 0.22644 0.89212 0.70365 0.0
C1025 C 0.22535 0.88568 0.73 0.0
H1026 H 0.7601 0.37017 0.79622 0.0
H1027 H 0.8245 0.38087 0.7431 0.0
H1028 H 0.79415 0.37519 0.70662 0.0
H1029 H 0.72818 0.31988 0.76007 0.0
H1030 H 0.69586 0.33089 0.76853 0.0
H1031 H 0.72271 0.33663 0.79008 0.0
H1032 H 0.71118 0.38552 0.79034 0.0
H1033 H 0.68547 0.38177 0.76706 0.0
H1034 H 0.71214 0.40431 0.7612 0.0
H1035 H 0.7579 0.36124 0.67652 0.0
H1036 H 0.71694 0.34743 0.65482 0.0
H1037 H 0.67582 0.35168 0.72722 0.0
C1038 C 0.76779 0.37175 0.77692 0.0
C1039 C 0.79462 0.37602 0.77246 0.0
C1040 C 0.80395 0.37774 0.74693 0.0
C1041 C 0.7869 0.37444 0.72611 0.0
C1042 C 0.76062 0.36971 0.73121 0.0
C1043 C 0.75108 0.36868 0.75599 0.0
C1044 C 0.7222 0.36263 0.75641 0.0
C1045 C 0.71695 0.33592 0.76954 0.0
C1046 C 0.7068 0.38489 0.76947 0.0
C1047 C 0.71679 0.36108 0.72792 0.0
C1048 C 0.73935 0.3643 0.71369 0.0
C1049 C 0.73992 0.35965 0.6873 0.0
C1050 C 0.71671 0.35184 0.67515 0.0
C1051 C 0.69329 0.34993 0.68927 0.0
C1052 C 0.69336 0.35443 0.71592 0.0
H1053 H 0.7908 0.63639 0.18358 0.0
H1054 H 0.85819 0.6236 0.23204 0.0
H1055 H 0.83039 0.60322 0.26487 0.0
H1056 H 0.7523 0.65939 0.23172 0.0
H1057 H 0.72189 0.64532 0.22095 0.0
H1058 H 0.74734 0.6522 0.19819 0.0
H1059 H 0.74661 0.6035 0.18308 0.0
H1060 H 0.72099 0.5964 0.20582 0.0
H1061 H 0.75075 0.5774 0.2062 0.0
H1062 H 0.79602 0.59093 0.29479 0.0
H1063 H 0.75674 0.59106 0.32183 0.0
H1064 H 0.70995 0.61443 0.25624 0.0
C1065 C 0.79963 0.62823 0.2007 0.0
C1066 C 0.82682 0.62982 0.20463 0.0
C1067 C 0.83766 0.62081 0.22795 0.0
C1068 C 0.82197 0.60937 0.24681 0.0
C1069 C 0.79525 0.60783 0.2424 0.0
C1070 C 0.78402 0.61721 0.22005 0.0
C1071 C 0.75449 0.61729 0.22211 0.0
C1072 C 0.74337 0.64521 0.21802 0.0
C1073 C 0.74249 0.59746 0.20318 0.0
C1074 C 0.75105 0.60812 0.24962 0.0
C1075 C 0.77484 0.60196 0.26058 0.0
C1076 C 0.7772 0.59523 0.28636 0.0
C1077 C 0.75477 0.59551 0.3016 0.0
C1078 C 0.73032 0.60274 0.29112 0.0
C1079 C 0.72833 0.60841 0.26463 0.0
H1080 H 0.28177 0.16951 0.12442 0.0
H1081 H 0.33622 0.20675 0.17661 0.0
H1082 H 0.31479 0.24984 0.16925 0.0
H1083 H 0.27091 0.22646 0.07899 0.0
H1084 H 0.23659 0.21947 0.07688 0.0
H1085 H 0.25912 0.19283 0.08202 0.0
H1086 H 0.23367 0.17904 0.1225 0.0
H1087 H 0.21125 0.2059 0.1177 0.0
H1088 H 0.22849 0.20286 0.14768 0.0
H1089 H 0.28228 0.28606 0.16341 0.0
H1090 H 0.24412 0.31459 0.15457 0.0
H1091 H 0.21234 0.25503 0.10405 0.0
C1092 C 0.28994 0.18703 0.13321 0.0
C1093 C 0.31113 0.18519 0.1504 0.0
C1094 C 0.32036 0.20808 0.16293 0.0
C1095 C 0.30831 0.23255 0.15887 0.0
C1096 C 0.28689 0.23364 0.14243 0.0
C1097 C 0.27795 0.21156 0.12948 0.0
C1098 C 0.2525 0.21732 0.11573 0.0
C1099 C 0.25503 0.21379 0.08665 0.0
C1100 C 0.23017 0.20027 0.12656 0.0
C1101 C 0.24884 0.24602 0.12258 0.0
C1102 C 0.26861 0.25499 0.13834 0.0
C1103 C 0.26744 0.27973 0.14998 0.0
C1104 C 0.24594 0.29593 0.14462 0.0
C1105 C 0.2266 0.28779 0.12699 0.0
C1106 C 0.22779 0.2623 0.11635 0.0
H1107 H 0.79739 0.32886 0.87926 0.0
H1108 H 0.85737 0.28241 0.84198 0.0
H1109 H 0.83148 0.24195 0.84949 0.0
H1110 H 0.77657 0.27864 0.92774 0.0
H1111 H 0.74234 0.28598 0.92439 0.0
H1112 H 0.76593 0.31178 0.92006 0.0
H1113 H 0.74919 0.32282 0.87534 0.0
H1114 H 0.72425 0.29809 0.87886 0.0
H1115 H 0.74606 0.29701 0.85175 0.0
H1116 H 0.79514 0.20929 0.85173 0.0
H1117 H 0.7546 0.18366 0.8582 0.0
H1118 H 0.71952 0.25011 0.89727 0.0
C1119 C 0.80574 0.30997 0.87407 0.0
C1120 C 0.82968 0.30851 0.8607 0.0
C1121 C 0.83931 0.28371 0.85272 0.0
C1122 C 0.82469 0.26072 0.85678 0.0
C1123 C 0.80053 0.26298 0.86887 0.0
C1124 C 0.79138 0.28685 0.87806 0.0
C1125 C 0.76368 0.28424 0.88808 0.0
C1126 C 0.76211 0.29051 0.91681 0.0
C1127 C 0.74469 0.30156 0.87257 0.0
C1128 C 0.7588 0.25529 0.88315 0.0
C1129 C 0.78007 0.24353 0.87153 0.0
C1130 C 0.77891 0.21788 0.86206 0.0
C1131 C 0.75594 0.20343 0.86597 0.0
C1132 C 0.73493 0.21434 0.87998 0.0
C1133 C 0.73598 0.2409 0.88781 0.0
H1134 H 0.73189 0.79364 0.37983 0.0
H1135 H 0.78216 0.76259 0.43922 0.0
H1136 H 0.75431 0.72313 0.44278 0.0
H1137 H 0.66749 0.76151 0.40377 0.0
H1138 H 0.65747 0.75388 0.37149 0.0
H1139 H 0.67585 0.78346 0.37767 0.0
H1140 H 0.71087 0.77041 0.3451 0.0
H1141 H 0.69284 0.74106 0.33761 0.0
H1142 H 0.72642 0.73859 0.34763 0.0
H1143 H 0.73231 0.68274 0.42931 0.0
H1144 H 0.71198 0.64659 0.40486 0.0
H1145 H 0.67093 0.70323 0.35794 0.0
C1146 C 0.73585 0.77928 0.39472 0.0
C1147 C 0.75855 0.78136 0.40988 0.0
C1148 C 0.76439 0.76152 0.428 0.0
C1149 C 0.74867 0.73908 0.43013 0.0
C1150 C 0.72716 0.73677 0.41396 0.0
C1151 C 0.72021 0.75666 0.39703 0.0
C1152 C 0.69897 0.74736 0.37886 0.0
C1153 C 0.67343 0.76247 0.38328 0.0
C1154 C 0.70783 0.74947 0.35066 0.0
C1155 C 0.6963 0.71886 0.38718 0.0
C1156 C 0.7127 0.71315 0.40749 0.0
C1157 C 0.71796 0.68718 0.41471 0.0
C1158 C 0.70606 0.66669 0.401 0.0
C1159 C 0.68805 0.6722 0.38123 0.0
C1160 C 0.68318 0.69863 0.37427 0.0
H1161 H 0.16906 0.79144 0.63864 0.0
H1162 H 0.20654 0.84971 0.59077 0.0
H1163 H 0.23 0.81471 0.56772 0.0
H1164 H 0.227 0.76309 0.6515 0.0
H1165 H 0.21515 0.72983 0.65537 0.0
H1166 H 0.19366 0.75716 0.66096 0.0
H1167 H 0.16093 0.73892 0.62748 0.0
H1168 H 0.1823 0.7112 0.62265 0.0
H1169 H 0.17212 0.73112 0.59564 0.0
H1170 H 0.25619 0.77628 0.55662 0.0
H1171 H 0.28741 0.73976 0.56227 0.0
H1172 H 0.23854 0.70628 0.62162 0.0
C1173 C 0.18109 0.79651 0.62227 0.0
C1174 C 0.184 0.82306 0.61464 0.0
C1175 C 0.20183 0.82936 0.59493 0.0
C1176 C 0.21566 0.80951 0.58211 0.0
C1177 C 0.21262 0.78348 0.59027 0.0
C1178 C 0.19622 0.77704 0.61039 0.0
C1179 C 0.20165 0.74943 0.62022 0.0
C1180 C 0.20986 0.74994 0.64867 0.0
C1181 C 0.17784 0.73157 0.61619 0.0
C1182 C 0.22422 0.74155 0.603 0.0
C1183 C 0.22963 0.76123 0.58534 0.0
C1184 C 0.25174 0.76041 0.5698 0.0
C1185 C 0.26937 0.73964 0.57313 0.0
C1186 C 0.26478 0.7199 0.59171 0.0
C1187 C 0.24166 0.72047 0.60639 0.0
H1188 H 0.86966 0.72288 0.84454 0.0
H1189 H 0.84626 0.65133 0.80557 0.0
H1190 H 0.85835 0.67123 0.76382 0.0
H1191 H 0.83861 0.76274 0.80066 0.0
H1192 H 0.86132 0.78986 0.80213 0.0
H1193 H 0.85752 0.76835 0.82931 0.0
H1194 H 0.90748 0.75696 0.8289 0.0
H1195 H 0.91048 0.78048 0.80313 0.0
H1196 H 0.92226 0.74741 0.7988 0.0
H1197 H 0.869 0.70022 0.72631 0.0
H1198 H 0.87267 0.73721 0.69564 0.0
H1199 H 0.88446 0.79142 0.75904 0.0
C1200 C 0.86823 0.71113 0.82724 0.0
C1201 C 0.85833 0.6852 0.8281 0.0
C1202 C 0.85477 0.6709 0.80513 0.0
C1203 C 0.86162 0.68203 0.78144 0.0
C1204 C 0.8711 0.70783 0.78108 0.0
C1205 C 0.87409 0.72235 0.80338 0.0
C1206 C 0.87975 0.75108 0.79749 0.0
C1207 C 0.85801 0.76905 0.80801 0.0
C1208 C 0.9066 0.75943 0.80774 0.0
C1209 C 0.87958 0.75041 0.76848 0.0
C1210 C 0.87504 0.72522 0.75938 0.0
C1211 C 0.87285 0.71998 0.73321 0.0
C1212 C 0.87498 0.74111 0.71594 0.0
C1213 C 0.87893 0.76717 0.72495 0.0
C1214 C 0.88166 0.7717 0.75155 0.0
H1215 H 0.61705 0.24864 0.21127 0.0
H1216 H 0.57867 0.18185 0.24694 0.0
H1217 H 0.57495 0.20667 0.2874 0.0
H1218 H 0.65666 0.26258 0.26071 0.0
H1219 H 0.65598 0.29808 0.25852 0.0
H1220 H 0.6497 0.27844 0.23051 0.0
H1221 H 0.60534 0.30192 0.22418 0.0
H1222 H 0.61133 0.32182 0.25226 0.0
H1223 H 0.58195 0.30241 0.25 0.0
H1224 H 0.58378 0.2336 0.3254 0.0
H1225 H 0.60258 0.26263 0.35856 0.0
H1226 H 0.63523 0.31289 0.29955 0.0
C1227 C 0.60679 0.23985 0.2273 0.0
C1228 C 0.59779 0.21356 0.22604 0.0
C1229 C 0.58545 0.20209 0.24759 0.0
C1230 C 0.58317 0.21606 0.2706 0.0
C1231 C 0.59335 0.24151 0.27173 0.0
C1232 C 0.60467 0.25351 0.25062 0.0
C1233 C 0.61731 0.27949 0.25807 0.0
C1234 C 0.64664 0.27963 0.25157 0.0
C1235 C 0.60313 0.30279 0.24537 0.0
C1236 C 0.61277 0.27928 0.28679 0.0
C1237 C 0.59838 0.25747 0.29414 0.0
C1238 C 0.59416 0.2513 0.31985 0.0
C1239 C 0.6048 0.26791 0.33854 0.0
C1240 C 0.6191 0.2906 0.33145 0.0
C1241 C 0.62335 0.29622 0.30529 0.0
H1242 H 0.37782 0.75796 0.27934 0.0
H1243 H 0.41478 0.69148 0.24164 0.0
H1244 H 0.41926 0.71752 0.2021 0.0
H1245 H 0.33915 0.7756 0.23033 0.0
H1246 H 0.34137 0.81092 0.23379 0.0
H1247 H 0.34674 0.78999 0.26108 0.0
H1248 H 0.39221 0.81126 0.26818 0.0
H1249 H 0.38685 0.83245 0.24087 0.0
H1250 H 0.41547 0.81185 0.24222 0.0
H1251 H 0.41041 0.74532 0.16492 0.0
H1252 H 0.39107 0.77496 0.1327 0.0
H1253 H 0.36193 0.82559 0.19305 0.0
C1254 C 0.38781 0.74939 0.26305 0.0
C1255 C 0.39606 0.7228 0.26351 0.0
C1256 C 0.40832 0.71184 0.24165 0.0
C1257 C 0.41112 0.72653 0.21914 0.0
C1258 C 0.40176 0.75229 0.21879 0.0
C1259 C 0.39067 0.76388 0.24023 0.0
C1260 C 0.37919 0.79064 0.23358 0.0
C1261 C 0.34988 0.79183 0.24007 0.0
C1262 C 0.39434 0.81286 0.24702 0.0
C1263 C 0.38384 0.79126 0.20485 0.0
C1264 C 0.39744 0.76918 0.19686 0.0
C1265 C 0.40089 0.76333 0.17097 0.0
C1266 C 0.39006 0.78039 0.15277 0.0
C1267 C 0.37663 0.80338 0.16045 0.0
C1268 C 0.37344 0.80886 0.1868 0.0
H1269 H 0.14034 0.18026 0.70461 0.0
H1270 H 0.10843 0.2304 0.64528 0.0
H1271 H 0.08918 0.25934 0.6781 0.0
H1272 H 0.08727 0.19341 0.75575 0.0
H1273 H 0.11157 0.19384 0.78077 0.0
H1274 H 0.11571 0.17266 0.75325 0.0
H1275 H 0.16091 0.19373 0.74464 0.0
H1276 H 0.1569 0.21509 0.7718 0.0
H1277 H 0.1633 0.229 0.74059 0.0
H1278 H 0.083 0.28796 0.71535 0.0
H1279 H 0.09018 0.31435 0.75439 0.0
H1280 H 0.12672 0.24719 0.79116 0.0
C1281 C 0.1281 0.19661 0.69874 0.0
C1282 C 0.12448 0.20231 0.67249 0.0
C1283 C 0.10993 0.22478 0.66526 0.0
C1284 C 0.09914 0.24147 0.68384 0.0
C1285 C 0.10351 0.2357 0.70963 0.0
C1286 C 0.11752 0.21368 0.71717 0.0
C1287 C 0.12327 0.21445 0.74573 0.0
C1288 C 0.10857 0.19227 0.75971 0.0
C1289 C 0.15284 0.213 0.75097 0.0
C1290 C 0.11219 0.24128 0.75264 0.0
C1291 C 0.10023 0.25282 0.73163 0.0
C1292 C 0.09157 0.27886 0.73214 0.0
C1293 C 0.09585 0.29375 0.75434 0.0
C1294 C 0.10862 0.28261 0.77581 0.0
C1295 C 0.11614 0.25582 0.77526 0.0
H1296 H 0.70737 0.88542 0.76392 0.0
H1297 H 0.75642 0.9109 0.82698 0.0
H1298 H 0.79461 0.91116 0.79822 0.0
H1299 H 0.74859 0.84003 0.74068 0.0
H1300 H 0.74255 0.84496 0.70695 0.0
H1301 H 0.71783 0.85337 0.72997 0.0
H1302 H 0.71616 0.9011 0.71224 0.0
H1303 H 0.74088 0.89284 0.68894 0.0
H1304 H 0.74575 0.92026 0.7104 0.0
H1305 H 0.82801 0.90003 0.76648 0.0
H1306 H 0.85485 0.87906 0.73316 0.0
H1307 H 0.78536 0.8603 0.68952 0.0
C1308 C 0.72596 0.89216 0.7713 0.0
C1309 C 0.72899 0.89848 0.79753 0.0
C1310 C 0.75373 0.90621 0.80687 0.0
C1311 C 0.77549 0.90654 0.79065 0.0
C1312 C 0.77216 0.89909 0.76512 0.0
C1313 C 0.748 0.89225 0.75535 0.0
C1314 C 0.75047 0.88139 0.7283 0.0
C1315 C 0.73921 0.85327 0.72639 0.0
C1316 C 0.73754 0.90001 0.70882 0.0
C1317 C 0.77987 0.88147 0.72517 0.0
C1318 C 0.79189 0.89249 0.74639 0.0
C1319 C 0.81886 0.89227 0.74936 0.0
C1320 C 0.83396 0.88042 0.73027 0.0
C1321 C 0.82218 0.86926 0.70826 0.0
C1322 C 0.79479 0.8697 0.70571 0.0
H1323 H 0.66313 0.12279 0.22051 0.0
H1324 H 0.70595 0.14797 0.15334 0.0
H1325 H 0.74737 0.1341 0.17385 0.0
H1326 H 0.70532 0.15182 0.26193 0.0
H1327 H 0.70256 0.12791 0.28738 0.0
H1328 H 0.67605 0.13235 0.26525 0.0
H1329 H 0.67729 0.08267 0.25364 0.0
H1330 H 0.70348 0.07809 0.27625 0.0
H1331 H 0.70763 0.06791 0.24343 0.0
H1332 H 0.78415 0.12357 0.2038 0.0
H1333 H 0.81338 0.12092 0.24137 0.0
H1334 H 0.74649 0.10678 0.29055 0.0
C1335 C 0.68119 0.12412 0.20976 0.0
C1336 C 0.68152 0.13522 0.18499 0.0
C1337 C 0.70546 0.13854 0.17198 0.0
C1338 C 0.72897 0.1307 0.18349 0.0
C1339 C 0.72815 0.12034 0.2083 0.0
C1340 C 0.70483 0.11722 0.22137 0.0
C1341 C 0.70946 0.11068 0.24936 0.0
C1342 C 0.69766 0.13196 0.267 0.0
C1343 C 0.69882 0.08318 0.25603 0.0
C1344 C 0.73897 0.11112 0.25016 0.0
C1345 C 0.74942 0.11611 0.22619 0.0
C1346 C 0.7762 0.11924 0.22257 0.0
C1347 C 0.79265 0.11773 0.24404 0.0
C1348 C 0.78221 0.11359 0.26888 0.0
C1349 C 0.75508 0.10972 0.27178 0.0
H1350 H 0.28967 0.65053 0.31468 0.0
H1351 H 0.35265 0.61441 0.27201 0.0
H1352 H 0.32095 0.59194 0.24421 0.0
H1353 H 0.23892 0.59567 0.30468 0.0
H1354 H 0.21326 0.61961 0.30037 0.0
H1355 H 0.24011 0.62659 0.32171 0.0
H1356 H 0.24964 0.6698 0.29683 0.0
H1357 H 0.223 0.66301 0.27547 0.0
H1358 H 0.25528 0.66834 0.26271 0.0
H1359 H 0.28453 0.58074 0.21632 0.0
H1360 H 0.24617 0.58417 0.18813 0.0
H1361 H 0.20545 0.62906 0.24655 0.0
C1362 C 0.29653 0.63691 0.30017 0.0
C1363 C 0.32348 0.63272 0.29646 0.0
C1364 C 0.33205 0.61636 0.27622 0.0
C1365 C 0.31415 0.60366 0.26022 0.0
C1366 C 0.28765 0.6081 0.26426 0.0
C1367 C 0.27878 0.62444 0.28366 0.0
C1368 C 0.24977 0.62968 0.28092 0.0
C1369 C 0.23461 0.61714 0.30324 0.0
C1370 C 0.24411 0.65946 0.27884 0.0
C1371 C 0.24422 0.61543 0.2559 0.0
C1372 C 0.26619 0.60236 0.24718 0.0
C1373 C 0.267 0.59033 0.22318 0.0
C1374 C 0.24516 0.59249 0.20725 0.0
C1375 C 0.22287 0.60671 0.21529 0.0
C1376 C 0.22204 0.6175 0.24026 0.0
H1377 H 0.26274 0.39538 0.70866 0.0
H1378 H 0.32936 0.3838 0.75879 0.0
H1379 H 0.29952 0.37721 0.79549 0.0
H1380 H 0.2212 0.42937 0.75411 0.0
H1381 H 0.19145 0.41288 0.74462 0.0
H1382 H 0.21699 0.41873 0.72154 0.0
H1383 H 0.22078 0.3699 0.71004 0.0
H1384 H 0.19408 0.3629 0.73137 0.0
H1385 H 0.22464 0.34572 0.73511 0.0
H1386 H 0.26275 0.36243 0.82395 0.0
H1387 H 0.22144 0.34679 0.84355 0.0
H1388 H 0.17877 0.37289 0.7766 0.0
C1389 C 0.2711 0.39223 0.72748 0.0
C1390 C 0.29836 0.39021 0.7309 0.0
C1391 C 0.30852 0.38563 0.75577 0.0
C1392 C 0.29173 0.38182 0.77672 0.0
C1393 C 0.26489 0.38302 0.7725 0.0
C1394 C 0.25466 0.38851 0.74856 0.0
C1395 C 0.22519 0.38678 0.7486 0.0
C1396 C 0.21294 0.41354 0.74187 0.0
C1397 C 0.21563 0.36503 0.7302 0.0
C1398 C 0.22037 0.37923 0.7763 0.0
C1399 C 0.24356 0.37668 0.78968 0.0
C1400 C 0.24439 0.36543 0.81411 0.0
C1401 C 0.22096 0.35657 0.82508 0.0
C1402 C 0.19707 0.35997 0.81202 0.0
C1403 C 0.19676 0.37152 0.78745 0.0
H1404 H 0.79426 0.74895 0.91005 0.0
H1405 H 0.74289 0.68177 0.89939 0.0
H1406 H 0.7056 0.71192 0.89343 0.0
H1407 H 0.74637 0.79065 0.94408 0.0
H1408 H 0.75621 0.82097 0.92865 0.0
H1409 H 0.77979 0.7953 0.9347 0.0
H1410 H 0.7929 0.79209 0.8875 0.0
H1411 H 0.77116 0.81891 0.88034 0.0
H1412 H 0.7681 0.78812 0.86329 0.0
H1413 H 0.67737 0.74864 0.87757 0.0
H1414 H 0.65784 0.79012 0.86124 0.0
H1415 H 0.72496 0.83381 0.88824 0.0
C1416 C 0.775 0.74059 0.90733 0.0
C1417 C 0.77144 0.71306 0.90521 0.0
C1418 C 0.74603 0.70282 0.90132 0.0
C1419 C 0.72473 0.71979 0.89783 0.0
C1420 C 0.72907 0.74689 0.89894 0.0
C1421 C 0.75345 0.75725 0.90427 0.0
C1422 C 0.75326 0.78708 0.9028 0.0
C1423 C 0.75922 0.79926 0.92912 0.0
C1424 C 0.77248 0.79711 0.88226 0.0
C1425 C 0.72522 0.79183 0.89485 0.0
C1426 C 0.71167 0.76835 0.89236 0.0
C1427 C 0.68721 0.76727 0.88064 0.0
C1428 C 0.67629 0.79079 0.87136 0.0
C1429 C 0.68938 0.81503 0.87485 0.0
C1430 C 0.71402 0.81557 0.8868 0.0
H1431 H 0.18263 0.71568 0.13987 0.0
H1432 H 0.22434 0.65058 0.10528 0.0
H1433 H 0.25219 0.68182 0.08161 0.0
H1434 H 0.19074 0.76511 0.08511 0.0
H1435 H 0.19623 0.79177 0.10737 0.0
H1436 H 0.17489 0.76486 0.11597 0.0
H1437 H 0.20227 0.75655 0.157 0.0
H1438 H 0.2236 0.78329 0.14853 0.0
H1439 H 0.23689 0.75085 0.15408 0.0
H1440 H 0.27948 0.71837 0.06743 0.0
H1441 H 0.30828 0.75716 0.06795 0.0
H1442 H 0.25165 0.79988 0.11369 0.0
C1443 C 0.19697 0.70823 0.12644 0.0
C1444 C 0.20031 0.68085 0.12291 0.0
C1445 C 0.2204 0.67152 0.10677 0.0
C1446 C 0.23637 0.68914 0.09337 0.0
C1447 C 0.23245 0.7161 0.09691 0.0
C1448 C 0.21344 0.72568 0.11328 0.0
C1449 C 0.2165 0.75518 0.11729 0.0
C1450 C 0.1932 0.77012 0.10574 0.0
C1451 C 0.22004 0.76183 0.14592 0.0
C1452 C 0.24123 0.7603 0.10207 0.0
C1453 C 0.24943 0.73761 0.08969 0.0
C1454 C 0.27305 0.73639 0.07659 0.0
C1455 C 0.28932 0.75851 0.07706 0.0
C1456 C 0.28205 0.78148 0.09072 0.0
C1457 C 0.25728 0.78278 0.10254 0.0
H1458 H 0.32984 0.29229 0.64408 0.0
H1459 H 0.28496 0.3615 0.62349 0.0
H1460 H 0.25132 0.3335 0.60399 0.0
H1461 H 0.30875 0.24886 0.58853 0.0
H1462 H 0.30627 0.22013 0.60879 0.0
H1463 H 0.33007 0.24537 0.6158 0.0
H1464 H 0.31122 0.25014 0.6617 0.0
H1465 H 0.28744 0.22502 0.65489 0.0
H1466 H 0.27695 0.25708 0.66576 0.0
H1467 H 0.22043 0.29954 0.59177 0.0
H1468 H 0.19104 0.26129 0.59193 0.0
H1469 H 0.25309 0.21241 0.62286 0.0
C1470 C 0.31333 0.30136 0.63458 0.0
C1471 C 0.31074 0.32907 0.63364 0.0
C1472 C 0.28811 0.34039 0.62277 0.0
C1473 C 0.2688 0.32462 0.61179 0.0
C1474 C 0.27202 0.2974 0.6125 0.0
C1475 C 0.29348 0.28571 0.62389 0.0
C1476 C 0.28989 0.25602 0.62565 0.0
C1477 C 0.30994 0.24175 0.60868 0.0
C1478 C 0.29145 0.24652 0.65366 0.0
C1479 C 0.26248 0.25318 0.61488 0.0
C1480 C 0.25305 0.27729 0.60665 0.0
C1481 C 0.22765 0.28046 0.59779 0.0
C1482 C 0.21106 0.25861 0.59809 0.0
C1483 C 0.2198 0.23392 0.60742 0.0
C1484 C 0.24608 0.23097 0.61523 0.0
H1485 H 0.69159 0.23808 0.39876 0.0
H1486 H 0.74163 0.30694 0.40433 0.0
H1487 H 0.7804 0.27848 0.40011 0.0
H1488 H 0.73529 0.19157 0.43228 0.0
H1489 H 0.72857 0.16432 0.41092 0.0
H1490 H 0.70372 0.18854 0.4176 0.0
H1491 H 0.69764 0.19958 0.37011 0.0
H1492 H 0.72102 0.17451 0.36205 0.0
H1493 H 0.72564 0.2078 0.35074 0.0
H1494 H 0.81208 0.24493 0.38469 0.0
H1495 H 0.83509 0.20722 0.36467 0.0
H1496 H 0.76595 0.15904 0.37336 0.0
C1497 C 0.71073 0.24706 0.40006 0.0
C1498 C 0.7136 0.2747 0.40198 0.0
C1499 C 0.73896 0.28578 0.40301 0.0
C1500 C 0.76112 0.26977 0.40064 0.0
C1501 C 0.75761 0.24269 0.39763 0.0
C1502 C 0.73306 0.23134 0.39776 0.0
C1503 C 0.73443 0.20218 0.39161 0.0
C1504 C 0.72498 0.18563 0.41447 0.0
C1505 C 0.71877 0.19566 0.36718 0.0
C1506 C 0.76349 0.19906 0.38719 0.0
C1507 C 0.77651 0.22274 0.39058 0.0
C1508 C 0.80246 0.226 0.38309 0.0
C1509 C 0.81536 0.2046 0.3717 0.0
C1510 C 0.80256 0.18013 0.36878 0.0
C1511 C 0.77646 0.17725 0.37682 0.0
H1512 H 0.1135 0.14179 0.53433 0.0
H1513 H 0.17674 0.19854 0.53952 0.0
H1514 H 0.18045 0.199 0.49233 0.0
H1515 H 0.1416 0.10442 0.48217 0.0
H1516 H 0.11065 0.09777 0.46706 0.0
H1517 H 0.11233 0.10245 0.50127 0.0
H1518 H 0.07793 0.13981 0.49821 0.0
H1519 H 0.07611 0.13521 0.464 0.0
H1520 H 0.08367 0.16728 0.47697 0.0
H1521 H 0.17619 0.19473 0.4447 0.0
H1522 H 0.16622 0.18361 0.39958 0.0
H1523 H 0.10798 0.12728 0.42521 0.0
C1524 C 0.12802 0.15438 0.52548 0.0
C1525 C 0.14476 0.17022 0.54052 0.0
C1526 C 0.16378 0.18618 0.52832 0.0
C1527 C 0.16599 0.18664 0.50155 0.0
C1528 C 0.14929 0.17073 0.48725 0.0
C1529 C 0.13085 0.15469 0.49874 0.0
C1530 C 0.11592 0.13888 0.4789 0.0
C1531 C 0.1204 0.10912 0.48257 0.0
C1532 C 0.08668 0.14571 0.47957 0.0
C1533 C 0.12869 0.14877 0.4545 0.0
C1534 C 0.14772 0.16732 0.45975 0.0
C1535 C 0.16151 0.18006 0.44032 0.0
C1536 C 0.15568 0.17368 0.41479 0.0
C1537 C 0.13653 0.15445 0.40897 0.0
C1538 C 0.12301 0.14176 0.42914 0.0
H1539 H 0.38566 0.81483 0.01682 0.0
H1540 H 0.33871 0.88264 0.03786 0.0
H1541 H 0.33573 0.8957 0.99232 0.0
H1542 H 0.42122 0.84493 0.96474 0.0
H1543 H 0.42021 0.81618 0.94441 0.0
H1544 H 0.41953 0.81246 0.97877 0.0
H1545 H 0.37662 0.78563 0.97529 0.0
H1546 H 0.37715 0.7893 0.94092 0.0
H1547 H 0.34896 0.79977 0.95893 0.0
H1548 H 0.33988 0.90292 0.94563 0.0
H1549 H 0.34716 0.90186 0.89903 0.0
H1550 H 0.38743 0.82688 0.90652 0.0
C1551 C 0.37486 0.83242 0.01167 0.0
C1552 C 0.36248 0.8479 0.0306 0.0
C1553 C 0.34821 0.8706 0.02343 0.0
C1554 C 0.34648 0.87818 0.99771 0.0
C1555 C 0.35873 0.86252 0.97938 0.0
C1556 C 0.37234 0.83992 0.98587 0.0
C1557 C 0.38271 0.8262 0.96207 0.0
C1558 C 0.4127 0.82488 0.96253 0.0
C1559 C 0.37063 0.79859 0.95914 0.0
C1560 C 0.37305 0.84483 0.94134 0.0
C1561 C 0.35957 0.86579 0.95191 0.0
C1562 C 0.34999 0.8864 0.93703 0.0
C1563 C 0.35421 0.88559 0.91054 0.0
C1564 C 0.36735 0.86401 0.89908 0.0
C1565 C 0.3768 0.84331 0.91473 0.0
H1566 H 0.65026 0.3113 0.47302 0.0
H1567 H 0.59089 0.36932 0.45445 0.0
H1568 H 0.58612 0.37998 0.50036 0.0
H1569 H 0.61852 0.28753 0.53068 0.0
H1570 H 0.64858 0.28246 0.54795 0.0
H1571 H 0.64808 0.27978 0.51349 0.0
H1572 H 0.68473 0.31485 0.51025 0.0
H1573 H 0.68537 0.31763 0.54469 0.0
H1574 H 0.68025 0.34658 0.52525 0.0
H1575 H 0.58909 0.38596 0.5474 0.0
H1576 H 0.59706 0.38453 0.59405 0.0
H1577 H 0.65188 0.32024 0.5834 0.0
C1578 C 0.63636 0.32631 0.4787 0.0
C1579 C 0.62102 0.33962 0.46025 0.0
C1580 C 0.60275 0.35886 0.46832 0.0
C1581 C 0.59997 0.3651 0.49431 0.0
C1582 C 0.61529 0.35161 0.51203 0.0
C1583 C 0.63291 0.33241 0.50471 0.0
C1584 C 0.64629 0.32035 0.52789 0.0
C1585 C 0.63998 0.29078 0.53013 0.0
C1586 C 0.67592 0.32515 0.52696 0.0
C1587 C 0.63358 0.33601 0.54931 0.0
C1588 C 0.61598 0.35411 0.5396 0.0
C1589 C 0.60261 0.37171 0.5553 0.0
C1590 C 0.60731 0.37081 0.5817 0.0
C1591 C 0.62489 0.35216 0.59218 0.0
C1592 C 0.63806 0.3344 0.57581 0.0
H1593 H 0.84223 0.66937 0.08806 0.0
H1594 H 0.91497 0.62617 0.09551 0.0
H1595 H 0.92055 0.62677 0.04866 0.0
H1596 H 0.82061 0.63474 0.03168 0.0
H1597 H 0.80576 0.66309 0.01675 0.0
H1598 H 0.80795 0.66118 0.05119 0.0
H1599 H 0.83219 0.70604 0.05216 0.0
H1600 H 0.83003 0.70808 0.01771 0.0
H1601 H 0.86137 0.7103 0.03327 0.0
H1602 H 0.91874 0.63136 0.00202 0.0
H1603 H 0.9084 0.63737 0.95649 0.0
H1604 H 0.83539 0.6756 0.97716 0.0
C1605 C 0.85938 0.66032 0.0797 0.0
C1606 C 0.87824 0.64776 0.09529 0.0
C1607 C 0.90027 0.63574 0.08382 0.0
C1608 C 0.90369 0.63609 0.05726 0.0
C1609 C 0.88473 0.64828 0.04234 0.0
C1610 C 0.86288 0.66001 0.05294 0.0
C1611 C 0.84492 0.67037 0.03201 0.0
C1612 C 0.81823 0.65651 0.03297 0.0
C1613 C 0.84196 0.70049 0.03391 0.0
C1614 C 0.86017 0.66253 0.00818 0.0
C1615 C 0.88318 0.6501 0.01479 0.0
C1616 C 0.90078 0.64106 0.99651 0.0
C1617 C 0.8947 0.64465 0.97064 0.0
C1618 C 0.87105 0.65696 0.96313 0.0
C1619 C 0.85356 0.66603 0.98225 0.0
H1620 H 0.4208 0.15972 0.1477 0.0
H1621 H 0.40509 0.09013 0.19355 0.0
H1622 H 0.45256 0.08447 0.20087 0.0
H1623 H 0.47607 0.13728 0.11663 0.0
H1624 H 0.49355 0.16814 0.11744 0.0
H1625 H 0.45844 0.16805 0.11772 0.0
H1626 H 0.4582 0.19536 0.15973 0.0
H1627 H 0.49337 0.19595 0.15938 0.0
H1628 H 0.47626 0.18368 0.18715 0.0
H1629 H 0.50196 0.08314 0.19765 0.0
H1630 H 0.54915 0.09002 0.19003 0.0
H1631 H 0.53203 0.1626 0.14931 0.0
C1632 C 0.4273 0.14365 0.15979 0.0
C1633 C 0.40936 0.12537 0.17014 0.0
C1634 C 0.41856 0.10451 0.18574 0.0
C1635 C 0.44546 0.10106 0.18983 0.0
C1636 C 0.46271 0.11903 0.17866 0.0
C1637 C 0.45392 0.14032 0.16453 0.0
C1638 C 0.47637 0.15664 0.15429 0.0
C1639 C 0.47608 0.15756 0.12477 0.0
C1640 C 0.47603 0.18456 0.16583 0.0
C1641 C 0.49925 0.14079 0.16418 0.0
C1642 C 0.49101 0.11904 0.17802 0.0
C1643 C 0.50864 0.10041 0.18735 0.0
C1644 C 0.53536 0.10437 0.18277 0.0
C1645 C 0.54418 0.12698 0.16935 0.0
C1646 C 0.52582 0.14538 0.16002 0.0
H1647 H 0.95656 0.88269 0.64167 0.0
H1648 H 0.95425 0.8184 0.69661 0.0
H1649 H 0.00245 0.81862 0.69878 0.0
H1650 H 0.01282 0.85872 0.60723 0.0
H1651 H 0.02555 0.89129 0.60112 0.0
H1652 H 0.99092 0.88643 0.60462 0.0
H1653 H 0.98999 0.92153 0.6408 0.0
H1654 H 0.02468 0.92629 0.63759 0.0
H1655 H 0.01097 0.9176 0.66829 0.0
H1656 H 0.05088 0.82722 0.69625 0.0
H1657 H 0.09619 0.83959 0.68487 0.0
H1658 H 0.06657 0.89616 0.6296 0.0
C1659 C 0.96623 0.86866 0.65413 0.0
C1660 C 0.95176 0.8506 0.66904 0.0
C1661 C 0.96504 0.83231 0.68491 0.0
C1662 C 0.99236 0.83241 0.68642 0.0
C1663 C 0.00606 0.85067 0.67166 0.0
C1664 C 0.99346 0.86815 0.65549 0.0
C1665 C 0.01275 0.88492 0.64075 0.0
C1666 C 0.01037 0.88003 0.61171 0.0
C1667 C 0.00939 0.91432 0.64726 0.0
C1668 C 0.03815 0.87422 0.65123 0.0
C1669 C 0.03391 0.85477 0.66933 0.0
C1670 C 0.05447 0.84232 0.68199 0.0
C1671 C 0.08008 0.84958 0.67555 0.0
C1672 C 0.08478 0.86875 0.65635 0.0
C1673 C 0.0635 0.88133 0.64426 0.0
H1674 H 0.04983 0.33932 0.85905 0.0
H1675 H 0.06477 0.40822 0.81193 0.0
H1676 H 0.01729 0.41649 0.8088 0.0
H1677 H 0.99115 0.31747 0.82853 0.0
H1678 H 0.97521 0.30818 0.85801 0.0
H1679 H 0.01028 0.30713 0.85576 0.0
H1680 H 0.01404 0.33791 0.89529 0.0
H1681 H 0.97899 0.33893 0.89776 0.0
H1682 H 0.99729 0.3692 0.89517 0.0
H1683 H 0.96813 0.41547 0.80875 0.0
H1684 H 0.92091 0.40906 0.81679 0.0
H1685 H 0.93852 0.34374 0.86765 0.0
C1686 C 0.04302 0.3561 0.84804 0.0
C1687 C 0.06077 0.37299 0.83546 0.0
C1688 C 0.05137 0.39505 0.82163 0.0
C1689 C 0.02449 0.39982 0.81967 0.0
C1690 C 0.00744 0.38266 0.83215 0.0
C1691 C 0.01634 0.36156 0.8465 0.0
C1692 C 0.99403 0.34697 0.8592 0.0
C1693 C 0.99259 0.31824 0.8498 0.0
C1694 C 0.99622 0.34835 0.8886 0.0
C1695 C 0.97115 0.36298 0.84951 0.0
C1696 C 0.97926 0.3832 0.83358 0.0
C1697 C 0.96156 0.39991 0.82142 0.0
C1698 C 0.93485 0.39606 0.82597 0.0
C1699 C 0.92628 0.37606 0.84293 0.0
C1700 C 0.94466 0.35935 0.85481 0.0
H1701 H 0.46128 0.61549 0.35748 0.0
H1702 H 0.459 0.67656 0.29914 0.0
H1703 H 0.50701 0.67502 0.29566 0.0
H1704 H 0.5182 0.64028 0.38915 0.0
H1705 H 0.53086 0.60805 0.39686 0.0
H1706 H 0.49621 0.61287 0.39359 0.0
H1707 H 0.49452 0.57579 0.35936 0.0
H1708 H 0.52922 0.57099 0.3624 0.0
H1709 H 0.51518 0.57798 0.33144 0.0
H1710 H 0.55522 0.66642 0.29808 0.0
H1711 H 0.60062 0.65485 0.30984 0.0
H1712 H 0.57138 0.60155 0.36833 0.0
C1713 C 0.47093 0.62842 0.34391 0.0
C1714 C 0.45652 0.64608 0.32854 0.0
C1715 C 0.46976 0.66298 0.31122 0.0
C1716 C 0.49697 0.66212 0.30895 0.0
C1717 C 0.51064 0.64447 0.32435 0.0
C1718 C 0.49813 0.62819 0.34175 0.0
C1719 C 0.51751 0.61219 0.35712 0.0
C1720 C 0.51558 0.61875 0.38588 0.0
C1721 C 0.51388 0.58248 0.35228 0.0
C1722 C 0.54283 0.6221 0.34571 0.0
C1723 C 0.53847 0.64038 0.32654 0.0
C1724 C 0.55892 0.65217 0.3131 0.0
C1725 C 0.58458 0.64542 0.3198 0.0
C1726 C 0.5894 0.62744 0.34002 0.0
C1727 C 0.56822 0.6155 0.35289 0.0
H1728 H 0.18772 0.43226 0.09378 0.0
H1729 H 0.1427 0.40469 0.159 0.0
H1730 H 0.13108 0.45078 0.16962 0.0
H1731 H 0.21363 0.48952 0.12218 0.0
H1732 H 0.21096 0.50972 0.09384 0.0
H1733 H 0.21481 0.47455 0.09082 0.0
H1734 H 0.17263 0.4721 0.06348 0.0
H1735 H 0.16869 0.50732 0.06635 0.0
H1736 H 0.14266 0.48555 0.07605 0.0
H1737 H 0.12845 0.50012 0.17565 0.0
H1738 H 0.13134 0.54889 0.1741 0.0
H1739 H 0.1747 0.54376 0.10283 0.0
C1740 C 0.17523 0.43594 0.11017 0.0
C1741 C 0.16616 0.41499 0.12565 0.0
C1742 C 0.14972 0.42049 0.14683 0.0
C1743 C 0.14309 0.44658 0.15304 0.0
C1744 C 0.15262 0.46683 0.13756 0.0
C1745 C 0.16796 0.46177 0.11629 0.0
C1746 C 0.17568 0.48704 0.1028 0.0
C1747 C 0.20554 0.49039 0.1024 0.0
C1748 C 0.16422 0.48806 0.07556 0.0
C1749 C 0.16285 0.50715 0.12015 0.0
C1750 C 0.1498 0.49513 0.1402 0.0
C1751 C 0.13817 0.50975 0.15977 0.0
C1752 C 0.13997 0.53737 0.15879 0.0
C1753 C 0.15292 0.55 0.13818 0.0
C1754 C 0.16421 0.53464 0.11852 0.0
H1755 H 0.66838 0.96691 0.84718 0.0
H1756 H 0.6559 0.94625 0.92721 0.0
H1757 H 0.65655 0.99321 0.93875 0.0
H1758 H 0.71272 0.01902 0.85837 0.0
H1759 H 0.70059 0.03994 0.83308 0.0
H1760 H 0.69741 0.00466 0.83054 0.0
H1761 H 0.64748 0.00962 0.82436 0.0
H1762 H 0.65049 0.04496 0.82694 0.0
H1763 H 0.62863 0.02734 0.84795 0.0
H1764 H 0.66252 0.0414 0.94262 0.0
H1765 H 0.67225 0.08894 0.93812 0.0
H1766 H 0.67879 0.07963 0.85574 0.0
C1767 C 0.66553 0.97226 0.86709 0.0
C1768 C 0.66205 0.95276 0.88624 0.0
C1769 C 0.65849 0.96068 0.9121 0.0
C1770 C 0.65879 0.98737 0.91891 0.0
C1771 C 0.66243 0.006 0.89965 0.0
C1772 C 0.66558 0.99892 0.87426 0.0
C1773 C 0.67009 0.02302 0.85755 0.0
C1774 C 0.69679 0.02156 0.8441 0.0
C1775 C 0.64784 0.02643 0.83805 0.0
C1776 C 0.66956 0.04462 0.87766 0.0
C1777 C 0.66506 0.03427 0.90181 0.0
C1778 C 0.66558 0.04985 0.9238 0.0
C1779 C 0.67113 0.07673 0.92109 0.0
C1780 C 0.67574 0.08773 0.8966 0.0
C1781 C 0.6746 0.07163 0.87456 0.0
H1782 H 0.81175 0.04053 0.39289 0.0
H1783 H 0.84704 0.03843 0.31721 0.0
H1784 H 0.84403 0.98964 0.31736 0.0
H1785 H 0.84132 0.98215 0.4184 0.0
H1786 H 0.8124 0.97198 0.43545 0.0
H1787 H 0.81835 0.00649 0.42962 0.0
H1788 H 0.77327 0.01059 0.40742 0.0
H1789 H 0.76717 0.97609 0.41316 0.0
H1790 H 0.76542 0.98905 0.381 0.0
H1791 H 0.83829 0.94096 0.3267 0.0
H1792 H 0.82727 0.89644 0.34285 0.0
H1793 H 0.79276 0.93127 0.4109 0.0
C1794 C 0.81901 0.02987 0.37637 0.0
C1795 C 0.82984 0.04324 0.3551 0.0
C1796 C 0.83871 0.02854 0.33371 0.0
C1797 C 0.83713 0.00087 0.33366 0.0
C1798 C 0.82624 0.98834 0.35496 0.0
C1799 C 0.81708 0.00241 0.37578 0.0
C1800 C 0.80524 0.98444 0.39583 0.0
C1801 C 0.82023 0.98639 0.42133 0.0
C1802 C 0.77604 0.9904 0.39956 0.0
C1803 C 0.80934 0.95794 0.38316 0.0
C1804 C 0.82174 0.96056 0.35973 0.0
C1805 C 0.8284 0.9387 0.34491 0.0
C1806 C 0.82215 0.91353 0.35428 0.0
C1807 C 0.80903 0.9105 0.37803 0.0
C1808 C 0.80249 0.93304 0.39254 0.0
H1809 H 0.32751 0.46409 0.60657 0.0
H1810 H 0.36588 0.46686 0.68072 0.0
H1811 H 0.36359 0.5157 0.67993 0.0
H1812 H 0.35657 0.52204 0.57897 0.0
H1813 H 0.32698 0.53219 0.56309 0.0
H1814 H 0.33298 0.49771 0.56902 0.0
H1815 H 0.28892 0.49409 0.59322 0.0
H1816 H 0.28275 0.52854 0.58733 0.0
H1817 H 0.28237 0.51601 0.61969 0.0
H1818 H 0.35767 0.56448 0.67026 0.0
H1819 H 0.34518 0.60879 0.65456 0.0
H1820 H 0.30788 0.57314 0.58837 0.0
C1821 C 0.33561 0.47491 0.6226 0.0
C1822 C 0.34707 0.46169 0.64363 0.0
C1823 C 0.35705 0.47661 0.6644 0.0
C1824 C 0.35591 0.50432 0.66407 0.0
C1825 C 0.34438 0.5167 0.64302 0.0
C1826 C 0.33414 0.50241 0.62282 0.0
C1827 C 0.32152 0.52022 0.6031 0.0
C1828 C 0.33535 0.5179 0.57701 0.0
C1829 C 0.29215 0.51436 0.60071 0.0
C1830 C 0.32633 0.54686 0.61527 0.0
C1831 C 0.33984 0.54449 0.63811 0.0
C1832 C 0.34698 0.56653 0.65248 0.0
C1833 C 0.33989 0.5916 0.64336 0.0
C1834 C 0.32547 0.59436 0.62032 0.0
C1835 C 0.31869 0.57163 0.60616 0.0
H1836 H 0.81449 0.87573 0.48347 0.0
H1837 H 0.84982 0.80161 0.46061 0.0
H1838 H 0.86756 0.79606 0.50446 0.0
H1839 H 0.86804 0.89664 0.52669 0.0
H1840 H 0.8457 0.91165 0.54906 0.0
H1841 H 0.83774 0.91051 0.51541 0.0
H1842 H 0.79415 0.88714 0.52633 0.0
H1843 H 0.80212 0.88778 0.55995 0.0
H1844 H 0.79468 0.85686 0.5445 0.0
H1845 H 0.87628 0.79601 0.55223 0.0
H1846 H 0.88076 0.80436 0.59877 0.0
H1847 H 0.84228 0.88 0.58948 0.0
C1848 C 0.82644 0.85861 0.48756 0.0
C1849 C 0.83087 0.8391 0.46869 0.0
C1850 C 0.84649 0.81692 0.47473 0.0
C1851 C 0.85647 0.81354 0.49961 0.0
C1852 C 0.85106 0.83278 0.518 0.0
C1853 C 0.83692 0.85518 0.51209 0.0
C1854 C 0.83345 0.87272 0.53536 0.0
C1855 C 0.84705 0.89946 0.53139 0.0
C1856 C 0.80438 0.87632 0.54191 0.0
C1857 C 0.84726 0.85636 0.5555 0.0
C1858 C 0.85711 0.8333 0.54516 0.0
C1859 C 0.86908 0.81423 0.56042 0.0
C1860 C 0.87135 0.81905 0.58684 0.0
C1861 C 0.86201 0.84288 0.59767 0.0
C1862 C 0.8499 0.86176 0.58169 0.0
H1863 H 0.69535 0.18279 0.98654 0.0
H1864 H 0.62321 0.16669 0.94584 0.0
H1865 H 0.59971 0.16426 0.9872 0.0
H1866 H 0.6859 0.13914 0.03632 0.0
H1867 H 0.69979 0.15966 0.06103 0.0
H1868 H 0.71025 0.16349 0.02831 0.0
H1869 H 0.69803 0.21309 0.02961 0.0
H1870 H 0.68775 0.2095 0.06249 0.0
H1871 H 0.66553 0.22271 0.03897 0.0
H1872 H 0.5859 0.15615 0.03307 0.0
H1873 H 0.58203 0.14779 0.07984 0.0
H1874 H 0.66225 0.1723 0.09044 0.0
C1875 C 0.67448 0.17938 0.98627 0.0
C1876 C 0.6611 0.17496 0.96294 0.0
C1877 C 0.63382 0.17041 0.96343 0.0
C1878 C 0.62033 0.1689 0.98685 0.0
C1879 C 0.6343 0.17251 0.00955 0.0
C1880 C 0.66069 0.17819 0.0094 0.0
C1881 C 0.67149 0.17994 0.03639 0.0
C1882 C 0.69313 0.15933 0.04075 0.0
C1883 C 0.68127 0.20798 0.0422 0.0
C1884 C 0.64728 0.17346 0.05177 0.0
C1885 C 0.626 0.16918 0.03597 0.0
C1886 C 0.6022 0.1602 0.04567 0.0
C1887 C 0.60016 0.15545 0.07214 0.0
C1888 C 0.62165 0.1601 0.08851 0.0
C1889 C 0.64534 0.16948 0.07826 0.0
H1890 H 0.35177 0.62797 0.41121 0.0
H1891 H 0.38134 0.70705 0.39794 0.0
H1892 H 0.37632 0.71688 0.44435 0.0
H1893 H 0.30272 0.64671 0.45618 0.0
H1894 H 0.30629 0.61706 0.47494 0.0
H1895 H 0.31351 0.61658 0.44116 0.0
H1896 H 0.35982 0.59863 0.45117 0.0
H1897 H 0.35286 0.59947 0.48503 0.0
H1898 H 0.38085 0.61679 0.47256 0.0
H1899 H 0.36844 0.71715 0.49317 0.0
H1900 H 0.35312 0.70995 0.53781 0.0
H1901 H 0.32702 0.63145 0.51703 0.0
C1902 C 0.35726 0.64741 0.41794 0.0
C1903 C 0.3671 0.66672 0.40095 0.0
C1904 C 0.37371 0.69197 0.41062 0.0
C1905 C 0.3711 0.69764 0.43695 0.0
C1906 C 0.36159 0.67793 0.4532 0.0
C1907 C 0.35441 0.65347 0.44387 0.0
C1908 C 0.34332 0.63603 0.4647 0.0
C1909 C 0.31477 0.62868 0.4589 0.0
C1910 C 0.36023 0.61127 0.46859 0.0
C1911 C 0.3453 0.65444 0.48738 0.0
C1912 C 0.35625 0.67839 0.48061 0.0
C1913 C 0.35984 0.69846 0.49862 0.0
C1914 C 0.35131 0.69414 0.52395 0.0
C1915 C 0.339 0.67013 0.5308 0.0
C1916 C 0.33643 0.64998 0.51232 0.0
H1917 H 0.17991 0.37139 0.02866 0.0
H1918 H 0.14492 0.29616 0.04836 0.0
H1919 H 0.13145 0.29011 0.00301 0.0
H1920 H 0.1296 0.39105 0.98308 0.0
H1921 H 0.15264 0.40729 0.96225 0.0
H1922 H 0.15886 0.40548 0.99621 0.0
H1923 H 0.20361 0.38352 0.98708 0.0
H1924 H 0.19744 0.38503 0.95313 0.0
H1925 H 0.20488 0.35384 0.96806 0.0
H1926 H 0.12545 0.29104 0.95425 0.0
H1927 H 0.12303 0.30108 0.90776 0.0
H1928 H 0.15885 0.37733 0.9219 0.0
C1929 C 0.16924 0.35372 0.02345 0.0
C1930 C 0.16352 0.33416 0.04186 0.0
C1931 C 0.14934 0.31142 0.03447 0.0
C1932 C 0.14175 0.30779 0.00878 0.0
C1933 C 0.14807 0.32734 0.99097 0.0
C1934 C 0.16107 0.35008 0.99816 0.0
C1935 C 0.16526 0.36835 0.97561 0.0
C1936 C 0.15071 0.39459 0.97953 0.0
C1937 C 0.19453 0.37294 0.97069 0.0
C1938 C 0.15302 0.35217 0.95445 0.0
C1939 C 0.14343 0.32846 0.96351 0.0
C1940 C 0.13258 0.30973 0.94703 0.0
C1941 C 0.13139 0.31553 0.92066 0.0
C1942 C 0.14066 0.34001 0.91116 0.0
C1943 C 0.15143 0.3585 0.92846 0.0
H1944 H 0.57294 0.85759 0.88352 0.0
H1945 H 0.60008 0.88336 0.80857 0.0
H1946 H 0.5549 0.8828 0.79264 0.0
H1947 H 0.52215 0.81357 0.85982 0.0
H1948 H 0.49975 0.82159 0.88532 0.0
H1949 H 0.53443 0.82321 0.89084 0.0
H1950 H 0.52983 0.87183 0.90556 0.0
H1951 H 0.49518 0.87037 0.90003 0.0
H1952 H 0.51452 0.89546 0.88454 0.0
H1953 H 0.50715 0.88165 0.78517 0.0
H1954 H 0.45908 0.87853 0.78636 0.0
H1955 H 0.46237 0.85261 0.86552 0.0
C1956 C 0.56942 0.86302 0.86373 0.0
C1957 C 0.59012 0.87055 0.84733 0.0
C1958 C 0.58463 0.87743 0.82152 0.0
C1959 C 0.55901 0.8772 0.81226 0.0
C1960 C 0.53911 0.86985 0.82894 0.0
C1961 C 0.54394 0.86272 0.85407 0.0
C1962 C 0.51885 0.8559 0.868 0.0
C1963 C 0.5188 0.82684 0.87649 0.0
C1964 C 0.51434 0.87451 0.89088 0.0
C1965 C 0.49917 0.86074 0.84684 0.0
C1966 C 0.51135 0.86878 0.82449 0.0
C1967 C 0.49736 0.87528 0.8025 0.0
C1968 C 0.47013 0.87364 0.80338 0.0
C1969 C 0.45731 0.86553 0.82604 0.0
C1970 C 0.47193 0.85873 0.84796 0.0
H1971 H 0.92126 0.10375 0.37323 0.0
H1972 H 0.89843 0.16897 0.32424 0.0
H1973 H 0.9447 0.18119 0.31856 0.0
H1974 H 0.97696 0.13519 0.40374 0.0
H1975 H 0.99687 0.10588 0.40326 0.0
H1976 H 0.96185 0.10308 0.40501 0.0
H1977 H 0.9619 0.07352 0.36445 0.0
H1978 H 0.99691 0.07616 0.36264 0.0
H1979 H 0.97714 0.08539 0.33549 0.0
H1980 H 0.99276 0.18686 0.3186 0.0
H1981 H 0.04062 0.18298 0.32032 0.0
H1982 H 0.03332 0.11198 0.36645 0.0
C1983 C 0.92612 0.12068 0.36148 0.0
C1984 C 0.90641 0.13555 0.34924 0.0
C1985 C 0.91334 0.15732 0.33366 0.0
C1986 C 0.93951 0.16449 0.33045 0.0
C1987 C 0.95853 0.14942 0.34265 0.0
C1988 C 0.95229 0.12775 0.35754 0.0
C1989 C 0.97674 0.114 0.36707 0.0
C1990 C 0.97818 0.11458 0.39652 0.0
C1991 C 0.97826 0.08558 0.35679 0.0
C1992 C 0.99761 0.13136 0.35517 0.0
C1993 C 0.98658 0.15191 0.34155 0.0
C1994 C 0.00168 0.17082 0.32913 0.0
C1995 C 0.02886 0.1685 0.33033 0.0
C1996 C 0.0407 0.14718 0.34352 0.0
C1997 C 0.02481 0.12842 0.35616 0.0
H1998 H 0.07453 0.61682 0.13051 0.0
H1999 H 0.10102 0.67826 0.18219 0.0
H2000 H 0.05503 0.68907 0.19271 0.0
H2001 H 0.01724 0.6493 0.10662 0.0
H2002 H 0.99785 0.61962 0.10616 0.0
H2003 H 0.03269 0.61769 0.10199 0.0
H2004 H 0.03582 0.58503 0.14016 0.0
H2005 H 0.00098 0.58678 0.14439 0.0
H2006 H 0.02239 0.59428 0.17084 0.0
H2007 H 0.00583 0.69403 0.19599 0.0
H2008 H 0.95764 0.68948 0.19562 0.0
H2009 H 0.96434 0.62228 0.14456 0.0
C2010 C 0.07061 0.63266 0.14392 0.0
C2011 C 0.09113 0.64693 0.15539 0.0
C2012 C 0.08542 0.66716 0.17324 0.0
C2013 C 0.05943 0.67348 0.17921 0.0
C2014 C 0.03958 0.65902 0.16747 0.0
C2015 C 0.04492 0.63877 0.15051 0.0
C2016 C 0.02023 0.62529 0.14153 0.0
C2017 C 0.01681 0.62816 0.11235 0.0
C2018 C 0.01984 0.59612 0.14973 0.0
C2019 C 9e-05 0.64119 0.15598 0.0
C2020 C 0.01154 0.66084 0.17054 0.0
C2021 C 0.99668 0.67857 0.18485 0.0
C2022 C 0.9694 0.67592 0.18446 0.0
C2023 C 0.95748 0.65539 0.17026 0.0
C2024 C 0.97306 0.63791 0.15585 0.0
H2025 H 0.43025 0.33707 0.65792 0.0
H2026 H 0.42307 0.42181 0.64912 0.0
H2027 H 0.47012 0.42707 0.65828 0.0
H2028 H 0.47906 0.33742 0.70882 0.0
H2029 H 0.49699 0.30974 0.69615 0.0
H2030 H 0.46239 0.31242 0.69045 0.0
H2031 H 0.47025 0.3094 0.64144 0.0
H2032 H 0.50481 0.30646 0.64701 0.0
H2033 H 0.49255 0.33215 0.62635 0.0
H2034 H 0.51691 0.42348 0.66852 0.0
H2035 H 0.56284 0.41136 0.67401 0.0
H2036 H 0.54149 0.32826 0.67374 0.0
C2037 C 0.43877 0.35664 0.65802 0.0
C2038 C 0.42338 0.37913 0.65296 0.0
C2039 C 0.43483 0.40447 0.65294 0.0
C2040 C 0.46139 0.40763 0.65827 0.0
C2041 C 0.47617 0.38516 0.66332 0.0
C2042 C 0.46548 0.36011 0.66288 0.0
C2043 C 0.4863 0.3393 0.66739 0.0
C2044 C 0.48085 0.32381 0.69218 0.0
C2045 C 0.48861 0.32074 0.64416 0.0
C2046 C 0.51031 0.35662 0.67017 0.0
C2047 C 0.50378 0.38299 0.66822 0.0
C2048 C 0.52234 0.4029 0.67001 0.0
C2049 C 0.54845 0.39572 0.6732 0.0
C2050 C 0.55599 0.36878 0.67419 0.0
C2051 C 0.53647 0.349 0.6731 0.0
H2052 H 0.8814 0.56933 0.89343 0.0
H2053 H 0.80574 0.59147 0.86276 0.0
H2054 H 0.79567 0.54462 0.85466 0.0
H2055 H 0.89459 0.51633 0.85026 0.0
H2056 H 0.90934 0.49535 0.87412 0.0
H2057 H 0.91073 0.53067 0.87765 0.0
H2058 H 0.88929 0.52691 0.92253 0.0
H2059 H 0.88785 0.49155 0.91915 0.0
H2060 H 0.85853 0.50996 0.92584 0.0
H2061 H 0.79498 0.49618 0.84703 0.0
H2062 H 0.80217 0.44808 0.84373 0.0
H2063 H 0.87655 0.45645 0.88256 0.0
C2064 C 0.86272 0.56425 0.88505 0.0
C2065 C 0.84436 0.58398 0.87865 0.0
C2066 C 0.82002 0.57663 0.86793 0.0
C2067 C 0.81415 0.55011 0.86319 0.0
C2068 C 0.83265 0.53115 0.86967 0.0
C2069 C 0.8563 0.53777 0.88068 0.0
C2070 C 0.87248 0.51338 0.8862 0.0
C2071 C 0.89831 0.51398 0.87115 0.0
C2072 C 0.87731 0.51027 0.91515 0.0
C2073 C 0.85438 0.49209 0.87619 0.0
C2074 C 0.83162 0.50286 0.86653 0.0
C2075 C 0.81253 0.48744 0.85485 0.0
C2076 C 0.8168 0.46024 0.85299 0.0
C2077 C 0.83973 0.44875 0.86315 0.0
C2078 C 0.85865 0.46482 0.87509 0.0
H2079 H 0.33448 0.91824 0.14767 0.0
H2080 H 0.37289 0.91602 0.07356 0.0
H2081 H 0.36878 0.96432 0.06987 0.0
H2082 H 0.28937 0.97314 0.13355 0.0
H2083 H 0.29278 0.98763 0.16494 0.0
H2084 H 0.29627 0.95249 0.16089 0.0
H2085 H 0.34196 0.9545 0.1821 0.0
H2086 H 0.33862 0.98961 0.18617 0.0
H2087 H 0.36635 0.97644 0.16917 0.0
H2088 H 0.36257 0.01227 0.0746 0.0
H2089 H 0.35629 0.05822 0.0883 0.0
H2090 H 0.32341 0.03071 0.16043 0.0
C2091 C 0.34156 0.92802 0.13056 0.0
C2092 C 0.35387 0.91361 0.1108 0.0
C2093 C 0.36346 0.9269 0.08887 0.0
C2094 C 0.36111 0.95425 0.08655 0.0
C2095 C 0.3493 0.96807 0.10645 0.0
C2096 C 0.33977 0.95557 0.12811 0.0
C2097 C 0.32972 0.97557 0.1474 0.0
C2098 C 0.30028 0.97199 0.15195 0.0
C2099 C 0.34508 0.97393 0.1727 0.0
C2100 C 0.33539 0.00111 0.13324 0.0
C2101 C 0.34639 0.99621 0.10954 0.0
C2102 C 0.35387 0.01645 0.09308 0.0
C2103 C 0.35023 0.04253 0.10109 0.0
C2104 C 0.3394 0.04822 0.1255 0.0
C2105 C 0.33171 0.02711 0.14165 0.0
H2106 H 0.12946 0.96882 0.60811 0.0
H2107 H 0.19121 0.95843 0.66421 0.0
H2108 H 0.19723 0.00664 0.66642 0.0
H2109 H 0.1573 0.02477 0.57487 0.0
H2110 H 0.12643 0.04126 0.57066 0.0
H2111 H 0.12763 0.00578 0.57252 0.0
H2112 H 0.09455 0.00656 0.61015 0.0
H2113 H 0.09319 0.04202 0.60833 0.0
H2114 H 0.10157 0.02616 0.63817 0.0
H2115 H 0.1974 0.05581 0.66189 0.0
H2116 H 0.18866 0.10312 0.6539 0.0
H2117 H 0.125 0.08178 0.60305 0.0
C2118 C 0.1443 0.97675 0.62074 0.0
C2119 C 0.1599 0.95995 0.63594 0.0
C2120 C 0.17892 0.971 0.65251 0.0
C2121 C 0.18261 0.99833 0.6538 0.0
C2122 C 0.16691 0.01439 0.63864 0.0
C2123 C 0.14791 0.00409 0.62267 0.0
C2124 C 0.13283 0.02586 0.6094 0.0
C2125 C 0.13626 0.02432 0.58013 0.0
C2126 C 0.10382 0.0251 0.61697 0.0
C2127 C 0.14637 0.04991 0.62039 0.0
C2128 C 0.16621 0.04285 0.63694 0.0
C2129 C 0.18182 0.06163 0.64907 0.0
C2130 C 0.1768 0.0884 0.64435 0.0
C2131 C 0.15609 0.09605 0.62801 0.0
C2132 C 0.14081 0.07648 0.61585 0.0
H2133 H 0.61008 0.41791 0.39096 0.0
H2134 H 0.67282 0.39031 0.34197 0.0
H2135 H 0.68509 0.43646 0.33245 0.0
H2136 H 0.59252 0.47646 0.35415 0.0
H2137 H 0.58697 0.49641 0.38225 0.0
H2138 H 0.58175 0.46127 0.38359 0.0
H2139 H 0.61372 0.45796 0.42198 0.0
H2140 H 0.61913 0.49305 0.42068 0.0
H2141 H 0.64642 0.47069 0.4187 0.0
H2142 H 0.69051 0.48505 0.32823 0.0
H2143 H 0.69079 0.53359 0.33167 0.0
H2144 H 0.62677 0.52998 0.38612 0.0
C2145 C 0.62612 0.4217 0.37793 0.0
C2146 C 0.64039 0.40074 0.36692 0.0
C2147 C 0.66168 0.40623 0.35048 0.0
C2148 C 0.66872 0.4323 0.34493 0.0
C2149 C 0.6545 0.45257 0.35632 0.0
C2150 C 0.6338 0.44764 0.37265 0.0
C2151 C 0.6229 0.47305 0.38361 0.0
C2152 C 0.59434 0.47703 0.3754 0.0
C2153 C 0.62572 0.47372 0.41298 0.0
C2154 C 0.64072 0.493 0.37089 0.0
C2155 C 0.65855 0.48072 0.35497 0.0
C2156 C 0.67672 0.49491 0.34069 0.0
C2157 C 0.67669 0.52244 0.34274 0.0
C2158 C 0.65889 0.53544 0.35924 0.0
C2159 C 0.64076 0.52048 0.37357 0.0
loop_
_geom_bond_atom_site_label_1
_geom_bond_atom_site_label_2
_geom_bond_distance
_geom_bond_site_symmetry_2
_ccdc_geom_bond_type
Mn0 O5 2.095 . S
Mn0 O15 2.162 . S
Mn0 O16 2.297 . S
Mn0 O24 2.385 . S
Mn0 O25 2.209 . S
Mn0 O26 2.094 . S
Mn1 O6 2.121 . S
Mn1 N8 2.257 . S
Mn1 N17 2.282 . S
Mn1 O25 2.215 . S
Mn1 O27 2.117 . S
C2 O24 1.234 . S
C2 O25 1.283 . S
C3 O15 1.281 . S
C3 O16 1.236 . S
C4 O26 1.240 . S
C4 O27 1.264 . S
O5 Mn0 2.095 . S
O5 C14 1.250 . S
O6 Mn1 2.121 . S
O6 C14 1.258 . S
C7 N8 1.326 . S
C7 C11 1.460 . S
C7 H13 0.929 . S
N8 Mn1 2.257 . S
N8 C7 1.326 . S
N8 C12 1.362 . S
C9 C10 1.258 . S
C9 C12 1.431 . S
C9 C29 1.449 . S
C10 C9 1.258 . S
C10 C11 1.477 . S
C10 H30 0.931 . S
C11 C7 1.460 . S
C11 C10 1.477 . S
C11 H31 0.930 . S
C12 N8 1.362 . S
C12 C9 1.431 . S
C12 C22 1.476 . S
H13 C7 0.929 . S
C14 O5 1.250 . S
C14 O6 1.258 . S
O15 Mn0 2.162 . S
O15 C3 1.281 . S
O16 Mn0 2.297 . S
O16 C3 1.236 . S
N17 Mn1 2.282 . S
N17 C18 1.328 . S
N17 C22 1.318 . S
C18 N17 1.328 . S
C18 C19 1.457 . S
C18 H23 0.929 . S
C19 C18 1.457 . S
C19 C20 1.291 . S
C19 H32 0.931 . S
C20 C19 1.291 . S
C20 C21 1.373 . S
C20 H33 0.929 . S
C21 C20 1.373 . S
C21 C22 1.396 . S
C21 C28 1.403 . S
C22 C12 1.476 . S
C22 N17 1.318 . S
C22 C21 1.396 . S
H23 C18 0.929 . S
O24 Mn0 2.385 . S
O24 C2 1.234 . S
O25 Mn0 2.209 . S
O25 Mn1 2.215 . S
O25 C2 1.283 . S
O26 Mn0 2.094 . S
O26 C4 1.240 . S
O27 Mn1 2.117 . S
O27 C4 1.264 . S
C28 C21 1.403 . S
C28 C29 1.399 . S
C28 H34 0.929 . S
C29 C9 1.449 . S
C29 C28 1.399 . S
C29 H35 0.930 . S
H30 C10 0.931 . S
H31 C11 0.930 . S
H32 C19 0.931 . S
H33 C20 0.929 . S
H34 C28 0.929 . S
H35 C29 0.930 . S
Mn36 O41 2.095 . S
Mn36 O51 2.162 . S
Mn36 O52 2.297 . S
Mn36 O60 2.385 . S
Mn36 O61 2.209 . S
Mn36 O62 2.094 . S
Mn37 O42 2.121 . S
Mn37 N44 2.257 . S
Mn37 N53 2.282 . S
Mn37 O61 2.215 . S
Mn37 O63 2.117 . S
C38 O60 1.234 . S
C38 O61 1.283 . S
C39 O51 1.281 . S
C39 O52 1.236 . S
C40 O62 1.240 . S
C40 O63 1.264 . S
O41 Mn36 2.095 . S
O41 C50 1.250 . S
O42 Mn37 2.121 . S
O42 C50 1.258 . S
C43 N44 1.326 . S
C43 C47 1.460 . S
C43 H49 0.929 . S
N44 Mn37 2.257 . S
N44 C43 1.326 . S
N44 C48 1.362 . S
C45 C46 1.258 . S
C45 C48 1.431 . S
C45 C65 1.449 . S
C46 C45 1.258 . S
C46 C47 1.477 . S
C46 H66 0.931 . S
C47 C43 1.460 . S
C47 C46 1.477 . S
C47 H67 0.930 . S
C48 N44 1.362 . S
C48 C45 1.431 . S
C48 C58 1.476 . S
H49 C43 0.929 . S
C50 O41 1.250 . S
C50 O42 1.258 . S
O51 Mn36 2.162 . S
O51 C39 1.281 . S
O52 Mn36 2.297 . S
O52 C39 1.236 . S
N53 Mn37 2.282 . S
N53 C54 1.328 . S
N53 C58 1.318 . S
C54 N53 1.328 . S
C54 C55 1.457 . S
C54 H59 0.929 . S
C55 C54 1.457 . S
C55 C56 1.291 . S
C55 H68 0.931 . S
C56 C55 1.291 . S
C56 C57 1.373 . S
C56 H69 0.929 . S
C57 C56 1.373 . S
C57 C58 1.396 . S
C57 C64 1.403 . S
C58 C48 1.476 . S
C58 N53 1.318 . S
C58 C57 1.396 . S
H59 C54 0.929 . S
O60 Mn36 2.385 . S
O60 C38 1.234 . S
O61 Mn36 2.209 . S
O61 Mn37 2.215 . S
O61 C38 1.283 . S
O62 Mn36 2.094 . S
O62 C40 1.240 . S
O63 Mn37 2.117 . S
O63 C40 1.264 . S
C64 C57 1.403 . S
C64 C65 1.399 . S
C64 H70 0.929 . S
C65 C45 1.449 . S
C65 C64 1.399 . S
C65 H71 0.930 . S
H66 C46 0.931 . S
H67 C47 0.930 . S
H68 C55 0.931 . S
H69 C56 0.929 . S
H70 C64 0.929 . S
H71 C65 0.930 . S
Mn72 O77 2.095 . S
Mn72 O87 2.162 . S
Mn72 O88 2.297 . S
Mn72 O96 2.385 . S
Mn72 O97 2.209 . S
Mn72 O98 2.094 . S
Mn73 O78 2.121 . S
Mn73 N80 2.257 . S
Mn73 N89 2.282 . S
Mn73 O97 2.215 . S
Mn73 O99 2.117 . S
C74 O96 1.234 . S
C74 O97 1.283 . S
C75 O87 1.281 . S
C75 O88 1.236 . S
C76 O98 1.240 . S
C76 O99 1.264 . S
O77 Mn72 2.095 . S
O77 C86 1.250 . S
O78 Mn73 2.121 . S
O78 C86 1.258 . S
C79 N80 1.326 . S
C79 C83 1.460 . S
C79 H85 0.929 . S
N80 Mn73 2.257 . S
N80 C79 1.326 . S
N80 C84 1.362 . S
C81 C82 1.258 . S
C81 C84 1.431 . S
C81 C101 1.449 . S
C82 C81 1.258 . S
C82 C83 1.477 . S
C82 H102 0.931 . S
C83 C79 1.460 . S
C83 C82 1.477 . S
C83 H103 0.930 . S
C84 N80 1.362 . S
C84 C81 1.431 . S
C84 C94 1.476 . S
H85 C79 0.929 . S
C86 O77 1.250 . S
C86 O78 1.258 . S
O87 Mn72 2.162 . S
O87 C75 1.281 . S
O88 Mn72 2.297 . S
O88 C75 1.236 . S
N89 Mn73 2.282 . S
N89 C90 1.328 . S
N89 C94 1.318 . S
C90 N89 1.328 . S
C90 C91 1.457 . S
C90 H95 0.929 . S
C91 C90 1.457 . S
C91 C92 1.291 . S
C91 H104 0.931 . S
C92 C91 1.291 . S
C92 C93 1.373 . S
C92 H105 0.929 . S
C93 C92 1.373 . S
C93 C94 1.396 . S
C93 C100 1.403 . S
C94 C84 1.476 . S
C94 N89 1.318 . S
C94 C93 1.396 . S
H95 C90 0.929 . S
O96 Mn72 2.385 . S
O96 C74 1.234 . S
O97 Mn72 2.209 . S
O97 Mn73 2.215 . S
O97 C74 1.283 . S
O98 Mn72 2.094 . S
O98 C76 1.240 . S
O99 Mn73 2.117 . S
O99 C76 1.264 . S
C100 C93 1.403 . S
C100 C101 1.399 . S
C100 H106 0.929 . S
C101 C81 1.449 . S
C101 C100 1.399 . S
C101 H107 0.930 . S
H102 C82 0.931 . S
H103 C83 0.930 . S
H104 C91 0.931 . S
H105 C92 0.929 . S
H106 C100 0.929 . S
H107 C101 0.930 . S
Mn108 O113 2.095 . S
Mn108 O123 2.162 . S
Mn108 O124 2.297 . S
Mn108 O132 2.385 . S
Mn108 O133 2.209 . S
Mn108 O134 2.094 . S
Mn109 O114 2.121 . S
Mn109 N116 2.257 . S
Mn109 N125 2.282 . S
Mn109 O133 2.215 . S
Mn109 O135 2.117 . S
C110 O132 1.234 . S
C110 O133 1.283 . S
C111 O123 1.281 . S
C111 O124 1.236 . S
C112 O134 1.240 . S
C112 O135 1.264 . S
O113 Mn108 2.095 . S
O113 C122 1.250 . S
O114 Mn109 2.121 . S
O114 C122 1.258 . S
C115 N116 1.326 . S
C115 C119 1.460 . S
C115 H121 0.929 . S
N116 Mn109 2.257 . S
N116 C115 1.326 . S
N116 C120 1.362 . S
C117 C118 1.258 . S
C117 C120 1.431 . S
C117 C137 1.449 . S
C118 C117 1.258 . S
C118 C119 1.477 . S
C118 H138 0.931 . S
C119 C115 1.460 . S
C119 C118 1.477 . S
C119 H139 0.930 . S
C120 N116 1.362 . S
C120 C117 1.431 . S
C120 C130 1.476 . S
H121 C115 0.929 . S
C122 O113 1.250 . S
C122 O114 1.258 . S
O123 Mn108 2.162 . S
O123 C111 1.281 . S
O124 Mn108 2.297 . S
O124 C111 1.236 . S
N125 Mn109 2.282 . S
N125 C126 1.328 . S
N125 C130 1.318 . S
C126 N125 1.328 . S
C126 C127 1.457 . S
C126 H131 0.929 . S
C127 C126 1.457 . S
C127 C128 1.291 . S
C127 H140 0.931 . S
C128 C127 1.291 . S
C128 C129 1.373 . S
C128 H141 0.929 . S
C129 C128 1.373 . S
C129 C130 1.396 . S
C129 C136 1.403 . S
C130 C120 1.476 . S
C130 N125 1.318 . S
C130 C129 1.396 . S
H131 C126 0.929 . S
O132 Mn108 2.385 . S
O132 C110 1.234 . S
O133 Mn108 2.209 . S
O133 Mn109 2.215 . S
O133 C110 1.283 . S
O134 Mn108 2.094 . S
O134 C112 1.240 . S
O135 Mn109 2.117 . S
O135 C112 1.264 . S
C136 C129 1.403 . S
C136 C137 1.399 . S
C136 H142 0.929 . S
C137 C117 1.449 . S
C137 C136 1.399 . S
C137 H143 0.930 . S
H138 C118 0.931 . S
H139 C119 0.930 . S
H140 C127 0.931 . S
H141 C128 0.929 . S
H142 C136 0.929 . S
H143 C137 0.930 . S
Mn144 O149 2.095 . S
Mn144 O159 2.162 . S
Mn144 O160 2.297 . S
Mn144 O168 2.385 . S
Mn144 O169 2.209 . S
Mn144 O170 2.094 . S
Mn145 O150 2.121 . S
Mn145 N152 2.257 . S
Mn145 N161 2.282 . S
Mn145 O169 2.215 . S
Mn145 O171 2.117 . S
C146 O168 1.234 . S
C146 O169 1.283 . S
C147 O159 1.281 . S
C147 O160 1.236 . S
C148 O170 1.240 . S
C148 O171 1.264 . S
O149 Mn144 2.095 . S
O149 C158 1.250 . S
O150 Mn145 2.121 . S
O150 C158 1.258 . S
C151 N152 1.326 . S
C151 C155 1.460 . S
C151 H157 0.929 . S
N152 Mn145 2.257 . S
N152 C151 1.326 . S
N152 C156 1.362 . S
C153 C154 1.258 . S
C153 C156 1.431 . S
C153 C173 1.449 . S
C154 C153 1.258 . S
C154 C155 1.477 . S
C154 H174 0.931 . S
C155 C151 1.460 . S
C155 C154 1.477 . S
C155 H175 0.930 . S
C156 N152 1.362 . S
C156 C153 1.431 . S
C156 C166 1.476 . S
H157 C151 0.929 . S
C158 O149 1.250 . S
C158 O150 1.258 . S
O159 Mn144 2.162 . S
O159 C147 1.281 . S
O160 Mn144 2.297 . S
O160 C147 1.236 . S
N161 Mn145 2.282 . S
N161 C162 1.328 . S
N161 C166 1.318 . S
C162 N161 1.328 . S
C162 C163 1.457 . S
C162 H167 0.929 . S
C163 C162 1.457 . S
C163 C164 1.291 . S
C163 H176 0.931 . S
C164 C163 1.291 . S
C164 C165 1.373 . S
C164 H177 0.929 . S
C165 C164 1.373 . S
C165 C166 1.396 . S
C165 C172 1.403 . S
C166 C156 1.476 . S
C166 N161 1.318 . S
C166 C165 1.396 . S
H167 C162 0.929 . S
O168 Mn144 2.385 . S
O168 C146 1.234 . S
O169 Mn144 2.209 . S
O169 Mn145 2.215 . S
O169 C146 1.283 . S
O170 Mn144 2.094 . S
O170 C148 1.240 . S
O171 Mn145 2.117 . S
O171 C148 1.264 . S
C172 C165 1.403 . S
C172 C173 1.399 . S
C172 H178 0.929 . S
C173 C153 1.449 . S
C173 C172 1.399 . S
C173 H179 0.930 . S
H174 C154 0.931 . S
H175 C155 0.930 . S
H176 C163 0.931 . S
H177 C164 0.929 . S
H178 C172 0.929 . S
H179 C173 0.930 . S
Mn180 O185 2.095 . S
Mn180 O195 2.162 . S
Mn180 O196 2.297 . S
Mn180 O204 2.385 . S
Mn180 O205 2.209 . S
Mn180 O206 2.094 . S
Mn181 O186 2.121 . S
Mn181 N188 2.257 . S
Mn181 N197 2.282 . S
Mn181 O205 2.215 . S
Mn181 O207 2.117 . S
C182 O204 1.234 . S
C182 O205 1.283 . S
C183 O195 1.281 . S
C183 O196 1.236 . S
C184 O206 1.240 . S
C184 O207 1.264 . S
O185 Mn180 2.095 . S
O185 C194 1.250 . S
O186 Mn181 2.121 . S
O186 C194 1.258 . S
C187 N188 1.326 . S
C187 C191 1.460 . S
C187 H193 0.929 . S
N188 Mn181 2.257 . S
N188 C187 1.326 . S
N188 C192 1.362 . S
C189 C190 1.258 . S
C189 C192 1.431 . S
C189 C209 1.449 . S
C190 C189 1.258 . S
C190 C191 1.477 . S
C190 H210 0.931 . S
C191 C187 1.460 . S
C191 C190 1.477 . S
C191 H211 0.930 . S
C192 N188 1.362 . S
C192 C189 1.431 . S
C192 C202 1.476 . S
H193 C187 0.929 . S
C194 O185 1.250 . S
C194 O186 1.258 . S
O195 Mn180 2.162 . S
O195 C183 1.281 . S
O196 Mn180 2.297 . S
O196 C183 1.236 . S
N197 Mn181 2.282 . S
N197 C198 1.328 . S
N197 C202 1.318 . S
C198 N197 1.328 . S
C198 C199 1.457 . S
C198 H203 0.929 . S
C199 C198 1.457 . S
C199 C200 1.291 . S
C199 H212 0.931 . S
C200 C199 1.291 . S
C200 C201 1.373 . S
C200 H213 0.929 . S
C201 C200 1.373 . S
C201 C202 1.396 . S
C201 C208 1.403 . S
C202 C192 1.476 . S
C202 N197 1.318 . S
C202 C201 1.396 . S
H203 C198 0.929 . S
O204 Mn180 2.385 . S
O204 C182 1.234 . S
O205 Mn180 2.209 . S
O205 Mn181 2.215 . S
O205 C182 1.283 . S
O206 Mn180 2.094 . S
O206 C184 1.240 . S
O207 Mn181 2.117 . S
O207 C184 1.264 . S
C208 C201 1.403 . S
C208 C209 1.399 . S
C208 H214 0.929 . S
C209 C189 1.449 . S
C209 C208 1.399 . S
C209 H215 0.930 . S
H210 C190 0.931 . S
H211 C191 0.930 . S
H212 C199 0.931 . S
H213 C200 0.929 . S
H214 C208 0.929 . S
H215 C209 0.930 . S
Mn216 O221 2.095 . S
Mn216 O231 2.162 . S
Mn216 O232 2.297 . S
Mn216 O240 2.385 . S
Mn216 O241 2.209 . S
Mn216 O242 2.094 . S
Mn217 O222 2.121 . S
Mn217 N224 2.257 . S
Mn217 N233 2.282 . S
Mn217 O241 2.215 . S
Mn217 O243 2.117 . S
C218 O240 1.234 . S
C218 O241 1.283 . S
C219 O231 1.281 . S
C219 O232 1.236 . S
C220 O242 1.240 . S
C220 O243 1.264 . S
O221 Mn216 2.095 . S
O221 C230 1.250 . S
O222 Mn217 2.121 . S
O222 C230 1.258 . S
C223 N224 1.326 . S
C223 C227 1.460 . S
C223 H229 0.929 . S
N224 Mn217 2.257 . S
N224 C223 1.326 . S
N224 C228 1.362 . S
C225 C226 1.258 . S
C225 C228 1.431 . S
C225 C245 1.449 . S
C226 C225 1.258 . S
C226 C227 1.477 . S
C226 H246 0.931 . S
C227 C223 1.460 . S
C227 C226 1.477 . S
C227 H247 0.930 . S
C228 N224 1.362 . S
C228 C225 1.431 . S
C228 C238 1.476 . S
H229 C223 0.929 . S
C230 O221 1.250 . S
C230 O222 1.258 . S
O231 Mn216 2.162 . S
O231 C219 1.281 . S
O232 Mn216 2.297 . S
O232 C219 1.236 . S
N233 Mn217 2.282 . S
N233 C234 1.328 . S
N233 C238 1.318 . S
C234 N233 1.328 . S
C234 C235 1.457 . S
C234 H239 0.929 . S
C235 C234 1.457 . S
C235 C236 1.291 . S
C235 H248 0.931 . S
C236 C235 1.291 . S
C236 C237 1.373 . S
C236 H249 0.929 . S
C237 C236 1.373 . S
C237 C238 1.396 . S
C237 C244 1.403 . S
C238 C228 1.476 . S
C238 N233 1.318 . S
C238 C237 1.396 . S
H239 C234 0.929 . S
O240 Mn216 2.385 . S
O240 C218 1.234 . S
O241 Mn216 2.209 . S
O241 Mn217 2.215 . S
O241 C218 1.283 . S
O242 Mn216 2.094 . S
O242 C220 1.240 . S
O243 Mn217 2.117 . S
O243 C220 1.264 . S
C244 C237 1.403 . S
C244 C245 1.399 . S
C244 H250 0.929 . S
C245 C225 1.449 . S
C245 C244 1.399 . S
C245 H251 0.930 . S
H246 C226 0.931 . S
H247 C227 0.930 . S
H248 C235 0.931 . S
H249 C236 0.929 . S
H250 C244 0.929 . S
H251 C245 0.930 . S
Mn252 O257 2.095 . S
Mn252 O267 2.162 . S
Mn252 O268 2.297 . S
Mn252 O276 2.385 . S
Mn252 O277 2.209 . S
Mn252 O278 2.094 . S
Mn253 O258 2.121 . S
Mn253 N260 2.257 . S
Mn253 N269 2.282 . S
Mn253 O277 2.215 . S
Mn253 O279 2.117 . S
C254 O276 1.234 . S
C254 O277 1.283 . S
C255 O267 1.281 . S
C255 O268 1.236 . S
C256 O278 1.240 . S
C256 O279 1.264 . S
O257 Mn252 2.095 . S
O257 C266 1.250 . S
O258 Mn253 2.121 . S
O258 C266 1.258 . S
C259 N260 1.326 . S
C259 C263 1.460 . S
C259 H265 0.929 . S
N260 Mn253 2.257 . S
N260 C259 1.326 . S
N260 C264 1.362 . S
C261 C262 1.258 . S
C261 C264 1.431 . S
C261 C281 1.449 . S
C262 C261 1.258 . S
C262 C263 1.477 . S
C262 H282 0.931 . S
C263 C259 1.460 . S
C263 C262 1.477 . S
C263 H283 0.930 . S
C264 N260 1.362 . S
C264 C261 1.431 . S
C264 C274 1.476 . S
H265 C259 0.929 . S
C266 O257 1.250 . S
C266 O258 1.258 . S
O267 Mn252 2.162 . S
O267 C255 1.281 . S
O268 Mn252 2.297 . S
O268 C255 1.236 . S
N269 Mn253 2.282 . S
N269 C270 1.328 . S
N269 C274 1.318 . S
C270 N269 1.328 . S
C270 C271 1.457 . S
C270 H275 0.929 . S
C271 C270 1.457 . S
C271 C272 1.291 . S
C271 H284 0.931 . S
C272 C271 1.291 . S
C272 C273 1.373 . S
C272 H285 0.929 . S
C273 C272 1.373 . S
C273 C274 1.396 . S
C273 C280 1.403 . S
C274 C264 1.476 . S
C274 N269 1.318 . S
C274 C273 1.396 . S
H275 C270 0.929 . S
O276 Mn252 2.385 . S
O276 C254 1.234 . S
O277 Mn252 2.209 . S
O277 Mn253 2.215 . S
O277 C254 1.283 . S
O278 Mn252 2.094 . S
O278 C256 1.240 . S
O279 Mn253 2.117 . S
O279 C256 1.264 . S
C280 C273 1.403 . S
C280 C281 1.399 . S
C280 H286 0.929 . S
C281 C261 1.449 . S
C281 C280 1.399 . S
C281 H287 0.930 . S
H282 C262 0.931 . S
H283 C263 0.930 . S
H284 C271 0.931 . S
H285 C272 0.929 . S
H286 C280 0.929 . S
H287 C281 0.930 . S
Mn288 O293 2.095 . S
Mn288 O303 2.162 . S
Mn288 O304 2.297 . S
Mn288 O312 2.385 . S
Mn288 O313 2.209 . S
Mn288 O314 2.094 . S
Mn289 O294 2.121 . S
Mn289 N296 2.257 . S
Mn289 N305 2.282 . S
Mn289 O313 2.215 . S
Mn289 O315 2.117 . S
C290 O312 1.234 . S
C290 O313 1.283 . S
C291 O303 1.281 . S
C291 O304 1.236 . S
C292 O314 1.240 . S
C292 O315 1.264 . S
O293 Mn288 2.095 . S
O293 C302 1.250 . S
O294 Mn289 2.121 . S
O294 C302 1.258 . S
C295 N296 1.326 . S
C295 C299 1.460 . S
C295 H301 0.929 . S
N296 Mn289 2.257 . S
N296 C295 1.326 . S
N296 C300 1.362 . S
C297 C298 1.258 . S
C297 C300 1.431 . S
C297 C317 1.449 . S
C298 C297 1.258 . S
C298 C299 1.477 . S
C298 H318 0.931 . S
C299 C295 1.460 . S
C299 C298 1.477 . S
C299 H319 0.930 . S
C300 N296 1.362 . S
C300 C297 1.431 . S
C300 C310 1.476 . S
H301 C295 0.929 . S
C302 O293 1.250 . S
C302 O294 1.258 . S
O303 Mn288 2.162 . S
O303 C291 1.281 . S
O304 Mn288 2.297 . S
O304 C291 1.236 . S
N305 Mn289 2.282 . S
N305 C306 1.328 . S
N305 C310 1.318 . S
C306 N305 1.328 . S
C306 C307 1.457 . S
C306 H311 0.929 . S
C307 C306 1.457 . S
C307 C308 1.291 . S
C307 H320 0.931 . S
C308 C307 1.291 . S
C308 C309 1.373 . S
C308 H321 0.929 . S
C309 C308 1.373 . S
C309 C310 1.396 . S
C309 C316 1.403 . S
C310 C300 1.476 . S
C310 N305 1.318 . S
C310 C309 1.396 . S
H311 C306 0.929 . S
O312 Mn288 2.385 . S
O312 C290 1.234 . S
O313 Mn288 2.209 . S
O313 Mn289 2.215 . S
O313 C290 1.283 . S
O314 Mn288 2.094 . S
O314 C292 1.240 . S
O315 Mn289 2.117 . S
O315 C292 1.264 . S
C316 C309 1.403 . S
C316 C317 1.399 . S
C316 H322 0.929 . S
C317 C297 1.449 . S
C317 C316 1.399 . S
C317 H323 0.930 . S
H318 C298 0.931 . S
H319 C299 0.930 . S
H320 C307 0.931 . S
H321 C308 0.929 . S
H322 C316 0.929 . S
H323 C317 0.930 . S
Mn324 O329 2.095 . S
Mn324 O339 2.162 . S
Mn324 O340 2.297 . S
Mn324 O348 2.385 . S
Mn324 O349 2.209 . S
Mn324 O350 2.094 . S
Mn325 O330 2.121 . S
Mn325 N332 2.257 . S
Mn325 N341 2.282 . S
Mn325 O349 2.215 . S
Mn325 O351 2.117 . S
C326 O348 1.234 . S
C326 O349 1.283 . S
C327 O339 1.281 . S
C327 O340 1.236 . S
C328 O350 1.240 . S
C328 O351 1.264 . S
O329 Mn324 2.095 . S
O329 C338 1.250 . S
O330 Mn325 2.121 . S
O330 C338 1.258 . S
C331 N332 1.326 . S
C331 C335 1.460 . S
C331 H337 0.929 . S
N332 Mn325 2.257 . S
N332 C331 1.326 . S
N332 C336 1.362 . S
C333 C334 1.258 . S
C333 C336 1.431 . S
C333 C353 1.449 . S
C334 C333 1.258 . S
C334 C335 1.477 . S
C334 H354 0.931 . S
C335 C331 1.460 . S
C335 C334 1.477 . S
C335 H355 0.930 . S
C336 N332 1.362 . S
C336 C333 1.431 . S
C336 C346 1.476 . S
H337 C331 0.929 . S
C338 O329 1.250 . S
C338 O330 1.258 . S
O339 Mn324 2.162 . S
O339 C327 1.281 . S
O340 Mn324 2.297 . S
O340 C327 1.236 . S
N341 Mn325 2.282 . S
N341 C342 1.328 . S
N341 C346 1.318 . S
C342 N341 1.328 . S
C342 C343 1.457 . S
C342 H347 0.929 . S
C343 C342 1.457 . S
C343 C344 1.291 . S
C343 H356 0.931 . S
C344 C343 1.291 . S
C344 C345 1.373 . S
C344 H357 0.929 . S
C345 C344 1.373 . S
C345 C346 1.396 . S
C345 C352 1.403 . S
C346 C336 1.476 . S
C346 N341 1.318 . S
C346 C345 1.396 . S
H347 C342 0.929 . S
O348 Mn324 2.385 . S
O348 C326 1.234 . S
O349 Mn324 2.209 . S
O349 Mn325 2.215 . S
O349 C326 1.283 . S
O350 Mn324 2.094 . S
O350 C328 1.240 . S
O351 Mn325 2.117 . S
O351 C328 1.264 . S
C352 C345 1.403 . S
C352 C353 1.399 . S
C352 H358 0.929 . S
C353 C333 1.449 . S
C353 C352 1.399 . S
C353 H359 0.930 . S
H354 C334 0.931 . S
H355 C335 0.930 . S
H356 C343 0.931 . S
H357 C344 0.929 . S
H358 C352 0.929 . S
H359 C353 0.930 . S
Mn360 O365 2.095 . S
Mn360 O375 2.162 . S
Mn360 O376 2.297 . S
Mn360 O384 2.385 . S
Mn360 O385 2.209 . S
Mn360 O386 2.094 . S
Mn361 O366 2.121 . S
Mn361 N368 2.257 . S
Mn361 N377 2.282 . S
Mn361 O385 2.215 . S
Mn361 O387 2.117 . S
C362 O384 1.234 . S
C362 O385 1.283 . S
C363 O375 1.281 . S
C363 O376 1.236 . S
C364 O386 1.240 . S
C364 O387 1.264 . S
O365 Mn360 2.095 . S
O365 C374 1.250 . S
O366 Mn361 2.121 . S
O366 C374 1.258 . S
C367 N368 1.326 . S
C367 C371 1.460 . S
C367 H373 0.929 . S
N368 Mn361 2.257 . S
N368 C367 1.326 . S
N368 C372 1.362 . S
C369 C370 1.258 . S
C369 C372 1.431 . S
C369 C389 1.449 . S
C370 C369 1.258 . S
C370 C371 1.477 . S
C370 H390 0.931 . S
C371 C367 1.460 . S
C371 C370 1.477 . S
C371 H391 0.930 . S
C372 N368 1.362 . S
C372 C369 1.431 . S
C372 C382 1.476 . S
H373 C367 0.929 . S
C374 O365 1.250 . S
C374 O366 1.258 . S
O375 Mn360 2.162 . S
O375 C363 1.281 . S
O376 Mn360 2.297 . S
O376 C363 1.236 . S
N377 Mn361 2.282 . S
N377 C378 1.328 . S
N377 C382 1.318 . S
C378 N377 1.328 . S
C378 C379 1.457 . S
C378 H383 0.929 . S
C379 C378 1.457 . S
C379 C380 1.291 . S
C379 H392 0.931 . S
C380 C379 1.291 . S
C380 C381 1.373 . S
C380 H393 0.929 . S
C381 C380 1.373 . S
C381 C382 1.396 . S
C381 C388 1.403 . S
C382 C372 1.476 . S
C382 N377 1.318 . S
C382 C381 1.396 . S
H383 C378 0.929 . S
O384 Mn360 2.385 . S
O384 C362 1.234 . S
O385 Mn360 2.209 . S
O385 Mn361 2.215 . S
O385 C362 1.283 . S
O386 Mn360 2.094 . S
O386 C364 1.240 . S
O387 Mn361 2.117 . S
O387 C364 1.264 . S
C388 C381 1.403 . S
C388 C389 1.399 . S
C388 H394 0.929 . S
C389 C369 1.449 . S
C389 C388 1.399 . S
C389 H395 0.930 . S
H390 C370 0.931 . S
H391 C371 0.930 . S
H392 C379 0.931 . S
H393 C380 0.929 . S
H394 C388 0.929 . S
H395 C389 0.930 . S
Mn396 O401 2.095 . S
Mn396 O411 2.162 . S
Mn396 O412 2.297 . S
Mn396 O420 2.385 . S
Mn396 O421 2.209 . S
Mn396 O422 2.094 . S
Mn397 O402 2.121 . S
Mn397 N404 2.257 . S
Mn397 N413 2.282 . S
Mn397 O421 2.215 . S
Mn397 O423 2.117 . S
C398 O420 1.234 . S
C398 O421 1.283 . S
C399 O411 1.281 . S
C399 O412 1.236 . S
C400 O422 1.240 . S
C400 O423 1.264 . S
O401 Mn396 2.095 . S
O401 C410 1.250 . S
O402 Mn397 2.121 . S
O402 C410 1.258 . S
C403 N404 1.326 . S
C403 C407 1.460 . S
C403 H409 0.929 . S
N404 Mn397 2.257 . S
N404 C403 1.326 . S
N404 C408 1.362 . S
C405 C406 1.258 . S
C405 C408 1.431 . S
C405 C425 1.449 . S
C406 C405 1.258 . S
C406 C407 1.477 . S
C406 H426 0.931 . S
C407 C403 1.460 . S
C407 C406 1.477 . S
C407 H427 0.930 . S
C408 N404 1.362 . S
C408 C405 1.431 . S
C408 C418 1.476 . S
H409 C403 0.929 . S
C410 O401 1.250 . S
C410 O402 1.258 . S
O411 Mn396 2.162 . S
O411 C399 1.281 . S
O412 Mn396 2.297 . S
O412 C399 1.236 . S
N413 Mn397 2.282 . S
N413 C414 1.328 . S
N413 C418 1.318 . S
C414 N413 1.328 . S
C414 C415 1.457 . S
C414 H419 0.929 . S
C415 C414 1.457 . S
C415 C416 1.291 . S
C415 H428 0.931 . S
C416 C415 1.291 . S
C416 C417 1.373 . S
C416 H429 0.929 . S
C417 C416 1.373 . S
C417 C418 1.396 . S
C417 C424 1.403 . S
C418 C408 1.476 . S
C418 N413 1.318 . S
C418 C417 1.396 . S
H419 C414 0.929 . S
O420 Mn396 2.385 . S
O420 C398 1.234 . S
O421 Mn396 2.209 . S
O421 Mn397 2.215 . S
O421 C398 1.283 . S
O422 Mn396 2.094 . S
O422 C400 1.240 . S
O423 Mn397 2.117 . S
O423 C400 1.264 . S
C424 C417 1.403 . S
C424 C425 1.399 . S
C424 H430 0.929 . S
C425 C405 1.449 . S
C425 C424 1.399 . S
C425 H431 0.930 . S
H426 C406 0.931 . S
H427 C407 0.930 . S
H428 C415 0.931 . S
H429 C416 0.929 . S
H430 C424 0.929 . S
H431 C425 0.930 . S
Mn432 O437 2.095 . S
Mn432 O447 2.162 . S
Mn432 O448 2.297 . S
Mn432 O456 2.385 . S
Mn432 O457 2.209 . S
Mn432 O458 2.094 . S
Mn433 O438 2.121 . S
Mn433 N440 2.257 . S
Mn433 N449 2.282 . S
Mn433 O457 2.215 . S
Mn433 O459 2.117 . S
C434 O456 1.234 . S
C434 O457 1.283 . S
C435 O447 1.281 . S
C435 O448 1.236 . S
C436 O458 1.240 . S
C436 O459 1.264 . S
O437 Mn432 2.095 . S
O437 C446 1.250 . S
O438 Mn433 2.121 . S
O438 C446 1.258 . S
C439 N440 1.326 . S
C439 C443 1.460 . S
C439 H445 0.929 . S
N440 Mn433 2.257 . S
N440 C439 1.326 . S
N440 C444 1.362 . S
C441 C442 1.258 . S
C441 C444 1.431 . S
C441 C461 1.449 . S
C442 C441 1.258 . S
C442 C443 1.477 . S
C442 H462 0.931 . S
C443 C439 1.460 . S
C443 C442 1.477 . S
C443 H463 0.930 . S
C444 N440 1.362 . S
C444 C441 1.431 . S
C444 C454 1.476 . S
H445 C439 0.929 . S
C446 O437 1.250 . S
C446 O438 1.258 . S
O447 Mn432 2.162 . S
O447 C435 1.281 . S
O448 Mn432 2.297 . S
O448 C435 1.236 . S
N449 Mn433 2.282 . S
N449 C450 1.328 . S
N449 C454 1.318 . S
C450 N449 1.328 . S
C450 C451 1.457 . S
C450 H455 0.929 . S
C451 C450 1.457 . S
C451 C452 1.291 . S
C451 H464 0.931 . S
C452 C451 1.291 . S
C452 C453 1.373 . S
C452 H465 0.929 . S
C453 C452 1.373 . S
C453 C454 1.396 . S
C453 C460 1.403 . S
C454 C444 1.476 . S
C454 N449 1.318 . S
C454 C453 1.396 . S
H455 C450 0.929 . S
O456 Mn432 2.385 . S
O456 C434 1.234 . S
O457 Mn432 2.209 . S
O457 Mn433 2.215 . S
O457 C434 1.283 . S
O458 Mn432 2.094 . S
O458 C436 1.240 . S
O459 Mn433 2.117 . S
O459 C436 1.264 . S
C460 C453 1.403 . S
C460 C461 1.399 . S
C460 H466 0.929 . S
C461 C441 1.449 . S
C461 C460 1.399 . S
C461 H467 0.930 . S
H462 C442 0.931 . S
H463 C443 0.930 . S
H464 C451 0.931 . S
H465 C452 0.929 . S
H466 C460 0.929 . S
H467 C461 0.930 . S
Mn468 O473 2.095 . S
Mn468 O483 2.162 . S
Mn468 O484 2.297 . S
Mn468 O492 2.385 . S
Mn468 O493 2.209 . S
Mn468 O494 2.094 . S
Mn469 O474 2.121 . S
Mn469 N476 2.257 . S
Mn469 N485 2.282 . S
Mn469 O493 2.215 . S
Mn469 O495 2.117 . S
C470 O492 1.234 . S
C470 O493 1.283 . S
C471 O483 1.281 . S
C471 O484 1.236 . S
C472 O494 1.240 . S
C472 O495 1.264 . S
O473 Mn468 2.095 . S
O473 C482 1.250 . S
O474 Mn469 2.121 . S
O474 C482 1.258 . S
C475 N476 1.326 . S
C475 C479 1.460 . S
C475 H481 0.929 . S
N476 Mn469 2.257 . S
N476 C475 1.326 . S
N476 C480 1.362 . S
C477 C478 1.258 . S
C477 C480 1.431 . S
C477 C497 1.449 . S
C478 C477 1.258 . S
C478 C479 1.477 . S
C478 H498 0.931 . S
C479 C475 1.460 . S
C479 C478 1.477 . S
C479 H499 0.930 . S
C480 N476 1.362 . S
C480 C477 1.431 . S
C480 C490 1.476 . S
H481 C475 0.929 . S
C482 O473 1.250 . S
C482 O474 1.258 . S
O483 Mn468 2.162 . S
O483 C471 1.281 . S
O484 Mn468 2.297 . S
O484 C471 1.236 . S
N485 Mn469 2.282 . S
N485 C486 1.328 . S
N485 C490 1.318 . S
C486 N485 1.328 . S
C486 C487 1.457 . S
C486 H491 0.929 . S
C487 C486 1.457 . S
C487 C488 1.291 . S
C487 H500 0.931 . S
C488 C487 1.291 . S
C488 C489 1.373 . S
C488 H501 0.929 . S
C489 C488 1.373 . S
C489 C490 1.396 . S
C489 C496 1.403 . S
C490 C480 1.476 . S
C490 N485 1.318 . S
C490 C489 1.396 . S
H491 C486 0.929 . S
O492 Mn468 2.385 . S
O492 C470 1.234 . S
O493 Mn468 2.209 . S
O493 Mn469 2.215 . S
O493 C470 1.283 . S
O494 Mn468 2.094 . S
O494 C472 1.240 . S
O495 Mn469 2.117 . S
O495 C472 1.264 . S
C496 C489 1.403 . S
C496 C497 1.399 . S
C496 H502 0.929 . S
C497 C477 1.449 . S
C497 C496 1.399 . S
C497 H503 0.930 . S
H498 C478 0.931 . S
H499 C479 0.930 . S
H500 C487 0.931 . S
H501 C488 0.929 . S
H502 C496 0.929 . S
H503 C497 0.930 . S
Mn504 O509 2.095 . S
Mn504 O519 2.162 . S
Mn504 O520 2.297 . S
Mn504 O528 2.385 . S
Mn504 O529 2.209 . S
Mn504 O530 2.094 . S
Mn505 O510 2.121 . S
Mn505 N512 2.257 . S
Mn505 N521 2.282 . S
Mn505 O529 2.215 . S
Mn505 O531 2.117 . S
C506 O528 1.234 . S
C506 O529 1.283 . S
C507 O519 1.281 . S
C507 O520 1.236 . S
C508 O530 1.240 . S
C508 O531 1.264 . S
O509 Mn504 2.095 . S
O509 C518 1.250 . S
O510 Mn505 2.121 . S
O510 C518 1.258 . S
C511 N512 1.326 . S
C511 C515 1.460 . S
C511 H517 0.929 . S
N512 Mn505 2.257 . S
N512 C511 1.326 . S
N512 C516 1.362 . S
C513 C514 1.258 . S
C513 C516 1.431 . S
C513 C533 1.449 . S
C514 C513 1.258 . S
C514 C515 1.477 . S
C514 H534 0.931 . S
C515 C511 1.460 . S
C515 C514 1.477 . S
C515 H535 0.930 . S
C516 N512 1.362 . S
C516 C513 1.431 . S
C516 C526 1.476 . S
H517 C511 0.929 . S
C518 O509 1.250 . S
C518 O510 1.258 . S
O519 Mn504 2.162 . S
O519 C507 1.281 . S
O520 Mn504 2.297 . S
O520 C507 1.236 . S
N521 Mn505 2.282 . S
N521 C522 1.328 . S
N521 C526 1.318 . S
C522 N521 1.328 . S
C522 C523 1.457 . S
C522 H527 0.929 . S
C523 C522 1.457 . S
C523 C524 1.291 . S
C523 H536 0.931 . S
C524 C523 1.291 . S
C524 C525 1.373 . S
C524 H537 0.929 . S
C525 C524 1.373 . S
C525 C526 1.396 . S
C525 C532 1.403 . S
C526 C516 1.476 . S
C526 N521 1.318 . S
C526 C525 1.396 . S
H527 C522 0.929 . S
O528 Mn504 2.385 . S
O528 C506 1.234 . S
O529 Mn504 2.209 . S
O529 Mn505 2.215 . S
O529 C506 1.283 . S
O530 Mn504 2.094 . S
O530 C508 1.240 . S
O531 Mn505 2.117 . S
O531 C508 1.264 . S
C532 C525 1.403 . S
C532 C533 1.399 . S
C532 H538 0.929 . S
C533 C513 1.449 . S
C533 C532 1.399 . S
C533 H539 0.930 . S
H534 C514 0.931 . S
H535 C515 0.930 . S
H536 C523 0.931 . S
H537 C524 0.929 . S
H538 C532 0.929 . S
H539 C533 0.930 . S
Mn540 O545 2.095 . S
Mn540 O555 2.162 . S
Mn540 O556 2.297 . S
Mn540 O564 2.385 . S
Mn540 O565 2.209 . S
Mn540 O566 2.094 . S
Mn541 O546 2.121 . S
Mn541 N548 2.257 . S
Mn541 N557 2.282 . S
Mn541 O565 2.215 . S
Mn541 O567 2.117 . S
C542 O564 1.234 . S
C542 O565 1.283 . S
C543 O555 1.281 . S
C543 O556 1.236 . S
C544 O566 1.240 . S
C544 O567 1.264 . S
O545 Mn540 2.095 . S
O545 C554 1.250 . S
O546 Mn541 2.121 . S
O546 C554 1.258 . S
C547 N548 1.326 . S
C547 C551 1.460 . S
C547 H553 0.929 . S
N548 Mn541 2.257 . S
N548 C547 1.326 . S
N548 C552 1.362 . S
C549 C550 1.258 . S
C549 C552 1.431 . S
C549 C569 1.449 . S
C550 C549 1.258 . S
C550 C551 1.477 . S
C550 H570 0.931 . S
C551 C547 1.460 . S
C551 C550 1.477 . S
C551 H571 0.930 . S
C552 N548 1.362 . S
C552 C549 1.431 . S
C552 C562 1.476 . S
H553 C547 0.929 . S
C554 O545 1.250 . S
C554 O546 1.258 . S
O555 Mn540 2.162 . S
O555 C543 1.281 . S
O556 Mn540 2.297 . S
O556 C543 1.236 . S
N557 Mn541 2.282 . S
N557 C558 1.328 . S
N557 C562 1.318 . S
C558 N557 1.328 . S
C558 C559 1.457 . S
C558 H563 0.929 . S
C559 C558 1.457 . S
C559 C560 1.291 . S
C559 H572 0.931 . S
C560 C559 1.291 . S
C560 C561 1.373 . S
C560 H573 0.929 . S
C561 C560 1.373 . S
C561 C562 1.396 . S
C561 C568 1.403 . S
C562 C552 1.476 . S
C562 N557 1.318 . S
C562 C561 1.396 . S
H563 C558 0.929 . S
O564 Mn540 2.385 . S
O564 C542 1.234 . S
O565 Mn540 2.209 . S
O565 Mn541 2.215 . S
O565 C542 1.283 . S
O566 Mn540 2.094 . S
O566 C544 1.240 . S
O567 Mn541 2.117 . S
O567 C544 1.264 . S
C568 C561 1.403 . S
C568 C569 1.399 . S
C568 H574 0.929 . S
C569 C549 1.449 . S
C569 C568 1.399 . S
C569 H575 0.930 . S
H570 C550 0.931 . S
H571 C551 0.930 . S
H572 C559 0.931 . S
H573 C560 0.929 . S
H574 C568 0.929 . S
H575 C569 0.930 . S
Mn576 O581 2.095 . S
Mn576 O591 2.162 . S
Mn576 O592 2.297 . S
Mn576 O600 2.385 . S
Mn576 O601 2.209 . S
Mn576 O602 2.094 . S
Mn577 O582 2.121 . S
Mn577 N584 2.257 . S
Mn577 N593 2.282 . S
Mn577 O601 2.215 . S
Mn577 O603 2.117 . S
C578 O600 1.234 . S
C578 O601 1.283 . S
C579 O591 1.281 . S
C579 O592 1.236 . S
C580 O602 1.240 . S
C580 O603 1.264 . S
O581 Mn576 2.095 . S
O581 C590 1.250 . S
O582 Mn577 2.121 . S
O582 C590 1.258 . S
C583 N584 1.326 . S
C583 C587 1.460 . S
C583 H589 0.929 . S
N584 Mn577 2.257 . S
N584 C583 1.326 . S
N584 C588 1.362 . S
C585 C586 1.258 . S
C585 C588 1.431 . S
C585 C605 1.449 . S
C586 C585 1.258 . S
C586 C587 1.477 . S
C586 H606 0.931 . S
C587 C583 1.460 . S
C587 C586 1.477 . S
C587 H607 0.930 . S
C588 N584 1.362 . S
C588 C585 1.431 . S
C588 C598 1.476 . S
H589 C583 0.929 . S
C590 O581 1.250 . S
C590 O582 1.258 . S
O591 Mn576 2.162 . S
O591 C579 1.281 . S
O592 Mn576 2.297 . S
O592 C579 1.236 . S
N593 Mn577 2.282 . S
N593 C594 1.328 . S
N593 C598 1.318 . S
C594 N593 1.328 . S
C594 C595 1.457 . S
C594 H599 0.929 . S
C595 C594 1.457 . S
C595 C596 1.291 . S
C595 H608 0.931 . S
C596 C595 1.291 . S
C596 C597 1.373 . S
C596 H609 0.929 . S
C597 C596 1.373 . S
C597 C598 1.396 . S
C597 C604 1.403 . S
C598 C588 1.476 . S
C598 N593 1.318 . S
C598 C597 1.396 . S
H599 C594 0.929 . S
O600 Mn576 2.385 . S
O600 C578 1.234 . S
O601 Mn576 2.209 . S
O601 Mn577 2.215 . S
O601 C578 1.283 . S
O602 Mn576 2.094 . S
O602 C580 1.240 . S
O603 Mn577 2.117 . S
O603 C580 1.264 . S
C604 C597 1.403 . S
C604 C605 1.399 . S
C604 H610 0.929 . S
C605 C585 1.449 . S
C605 C604 1.399 . S
C605 H611 0.930 . S
H606 C586 0.931 . S
H607 C587 0.930 . S
H608 C595 0.931 . S
H609 C596 0.929 . S
H610 C604 0.929 . S
H611 C605 0.930 . S
Mn612 O617 2.095 . S
Mn612 O627 2.162 . S
Mn612 O628 2.297 . S
Mn612 O636 2.385 . S
Mn612 O637 2.209 . S
Mn612 O638 2.094 . S
Mn613 O618 2.121 . S
Mn613 N620 2.257 . S
Mn613 N629 2.282 . S
Mn613 O637 2.215 . S
Mn613 O639 2.117 . S
C614 O636 1.234 . S
C614 O637 1.283 . S
C615 O627 1.281 . S
C615 O628 1.236 . S
C616 O638 1.240 . S
C616 O639 1.264 . S
O617 Mn612 2.095 . S
O617 C626 1.250 . S
O618 Mn613 2.121 . S
O618 C626 1.258 . S
C619 N620 1.326 . S
C619 C623 1.460 . S
C619 H625 0.929 . S
N620 Mn613 2.257 . S
N620 C619 1.326 . S
N620 C624 1.362 . S
C621 C622 1.258 . S
C621 C624 1.431 . S
C621 C641 1.449 . S
C622 C621 1.258 . S
C622 C623 1.477 . S
C622 H642 0.931 . S
C623 C619 1.460 . S
C623 C622 1.477 . S
C623 H643 0.930 . S
C624 N620 1.362 . S
C624 C621 1.431 . S
C624 C634 1.476 . S
H625 C619 0.929 . S
C626 O617 1.250 . S
C626 O618 1.258 . S
O627 Mn612 2.162 . S
O627 C615 1.281 . S
O628 Mn612 2.297 . S
O628 C615 1.236 . S
N629 Mn613 2.282 . S
N629 C630 1.328 . S
N629 C634 1.318 . S
C630 N629 1.328 . S
C630 C631 1.457 . S
C630 H635 0.929 . S
C631 C630 1.457 . S
C631 C632 1.291 . S
C631 H644 0.931 . S
C632 C631 1.291 . S
C632 C633 1.373 . S
C632 H645 0.929 . S
C633 C632 1.373 . S
C633 C634 1.396 . S
C633 C640 1.403 . S
C634 C624 1.476 . S
C634 N629 1.318 . S
C634 C633 1.396 . S
H635 C630 0.929 . S
O636 Mn612 2.385 . S
O636 C614 1.234 . S
O637 Mn612 2.209 . S
O637 Mn613 2.215 . S
O637 C614 1.283 . S
O638 Mn612 2.094 . S
O638 C616 1.240 . S
O639 Mn613 2.117 . S
O639 C616 1.264 . S
C640 C633 1.403 . S
C640 C641 1.399 . S
C640 H646 0.929 . S
C641 C621 1.449 . S
C641 C640 1.399 . S
C641 H647 0.930 . S
H642 C622 0.931 . S
H643 C623 0.930 . S
H644 C631 0.931 . S
H645 C632 0.929 . S
H646 C640 0.929 . S
H647 C641 0.930 . S
Mn648 O653 2.095 . S
Mn648 O663 2.162 . S
Mn648 O664 2.297 . S
Mn648 O672 2.385 . S
Mn648 O673 2.209 . S
Mn648 O674 2.094 . S
Mn649 O654 2.121 . S
Mn649 N656 2.257 . S
Mn649 N665 2.282 . S
Mn649 O673 2.215 . S
Mn649 O675 2.117 . S
C650 O672 1.234 . S
C650 O673 1.283 . S
C651 O663 1.281 . S
C651 O664 1.236 . S
C652 O674 1.240 . S
C652 O675 1.264 . S
O653 Mn648 2.095 . S
O653 C662 1.250 . S
O654 Mn649 2.121 . S
O654 C662 1.258 . S
C655 N656 1.326 . S
C655 C659 1.460 . S
C655 H661 0.929 . S
N656 Mn649 2.257 . S
N656 C655 1.326 . S
N656 C660 1.362 . S
C657 C658 1.258 . S
C657 C660 1.431 . S
C657 C677 1.449 . S
C658 C657 1.258 . S
C658 C659 1.477 . S
C658 H678 0.931 . S
C659 C655 1.460 . S
C659 C658 1.477 . S
C659 H679 0.930 . S
C660 N656 1.362 . S
C660 C657 1.431 . S
C660 C670 1.476 . S
H661 C655 0.929 . S
C662 O653 1.250 . S
C662 O654 1.258 . S
O663 Mn648 2.162 . S
O663 C651 1.281 . S
O664 Mn648 2.297 . S
O664 C651 1.236 . S
N665 Mn649 2.282 . S
N665 C666 1.328 . S
N665 C670 1.318 . S
C666 N665 1.328 . S
C666 C667 1.457 . S
C666 H671 0.929 . S
C667 C666 1.457 . S
C667 C668 1.291 . S
C667 H680 0.931 . S
C668 C667 1.291 . S
C668 C669 1.373 . S
C668 H681 0.929 . S
C669 C668 1.373 . S
C669 C670 1.396 . S
C669 C676 1.403 . S
C670 C660 1.476 . S
C670 N665 1.318 . S
C670 C669 1.396 . S
H671 C666 0.929 . S
O672 Mn648 2.385 . S
O672 C650 1.234 . S
O673 Mn648 2.209 . S
O673 Mn649 2.215 . S
O673 C650 1.283 . S
O674 Mn648 2.094 . S
O674 C652 1.240 . S
O675 Mn649 2.117 . S
O675 C652 1.264 . S
C676 C669 1.403 . S
C676 C677 1.399 . S
C676 H682 0.929 . S
C677 C657 1.449 . S
C677 C676 1.399 . S
C677 H683 0.930 . S
H678 C658 0.931 . S
H679 C659 0.930 . S
H680 C667 0.931 . S
H681 C668 0.929 . S
H682 C676 0.929 . S
H683 C677 0.930 . S
Mn684 O689 2.095 . S
Mn684 O699 2.162 . S
Mn684 O700 2.297 . S
Mn684 O708 2.385 . S
Mn684 O709 2.209 . S
Mn684 O710 2.094 . S
Mn685 O690 2.121 . S
Mn685 N692 2.257 . S
Mn685 N701 2.282 . S
Mn685 O709 2.215 . S
Mn685 O711 2.117 . S
C686 O708 1.234 . S
C686 O709 1.283 . S
C687 O699 1.281 . S
C687 O700 1.236 . S
C688 O710 1.240 . S
C688 O711 1.264 . S
O689 Mn684 2.095 . S
O689 C698 1.250 . S
O690 Mn685 2.121 . S
O690 C698 1.258 . S
C691 N692 1.326 . S
C691 C695 1.460 . S
C691 H697 0.929 . S
N692 Mn685 2.257 . S
N692 C691 1.326 . S
N692 C696 1.362 . S
C693 C694 1.258 . S
C693 C696 1.431 . S
C693 C713 1.449 . S
C694 C693 1.258 . S
C694 C695 1.477 . S
C694 H714 0.931 . S
C695 C691 1.460 . S
C695 C694 1.477 . S
C695 H715 0.930 . S
C696 N692 1.362 . S
C696 C693 1.431 . S
C696 C706 1.476 . S
H697 C691 0.929 . S
C698 O689 1.250 . S
C698 O690 1.258 . S
O699 Mn684 2.162 . S
O699 C687 1.281 . S
O700 Mn684 2.297 . S
O700 C687 1.236 . S
N701 Mn685 2.282 . S
N701 C702 1.328 . S
N701 C706 1.318 . S
C702 N701 1.328 . S
C702 C703 1.457 . S
C702 H707 0.929 . S
C703 C702 1.457 . S
C703 C704 1.291 . S
C703 H716 0.931 . S
C704 C703 1.291 . S
C704 C705 1.373 . S
C704 H717 0.929 . S
C705 C704 1.373 . S
C705 C706 1.396 . S
C705 C712 1.403 . S
C706 C696 1.476 . S
C706 N701 1.318 . S
C706 C705 1.396 . S
H707 C702 0.929 . S
O708 Mn684 2.385 . S
O708 C686 1.234 . S
O709 Mn684 2.209 . S
O709 Mn685 2.215 . S
O709 C686 1.283 . S
O710 Mn684 2.094 . S
O710 C688 1.240 . S
O711 Mn685 2.117 . S
O711 C688 1.264 . S
C712 C705 1.403 . S
C712 C713 1.399 . S
C712 H718 0.929 . S
C713 C693 1.449 . S
C713 C712 1.399 . S
C713 H719 0.930 . S
H714 C694 0.931 . S
H715 C695 0.930 . S
H716 C703 0.931 . S
H717 C704 0.929 . S
H718 C712 0.929 . S
H719 C713 0.930 . S
Mn720 O725 2.095 . S
Mn720 O735 2.162 . S
Mn720 O736 2.297 . S
Mn720 O744 2.385 . S
Mn720 O745 2.209 . S
Mn720 O746 2.094 . S
Mn721 O726 2.121 . S
Mn721 N728 2.257 . S
Mn721 N737 2.282 . S
Mn721 O745 2.215 . S
Mn721 O747 2.117 . S
C722 O744 1.234 . S
C722 O745 1.283 . S
C723 O735 1.281 . S
C723 O736 1.236 . S
C724 O746 1.240 . S
C724 O747 1.264 . S
O725 Mn720 2.095 . S
O725 C734 1.250 . S
O726 Mn721 2.121 . S
O726 C734 1.258 . S
C727 N728 1.326 . S
C727 C731 1.460 . S
C727 H733 0.929 . S
N728 Mn721 2.257 . S
N728 C727 1.326 . S
N728 C732 1.362 . S
C729 C730 1.258 . S
C729 C732 1.431 . S
C729 C749 1.449 . S
C730 C729 1.258 . S
C730 C731 1.477 . S
C730 H750 0.931 . S
C731 C727 1.460 . S
C731 C730 1.477 . S
C731 H751 0.930 . S
C732 N728 1.362 . S
C732 C729 1.431 . S
C732 C742 1.476 . S
H733 C727 0.929 . S
C734 O725 1.250 . S
C734 O726 1.258 . S
O735 Mn720 2.162 . S
O735 C723 1.281 . S
O736 Mn720 2.297 . S
O736 C723 1.236 . S
N737 Mn721 2.282 . S
N737 C738 1.328 . S
N737 C742 1.318 . S
C738 N737 1.328 . S
C738 C739 1.457 . S
C738 H743 0.929 . S
C739 C738 1.457 . S
C739 C740 1.291 . S
C739 H752 0.931 . S
C740 C739 1.291 . S
C740 C741 1.373 . S
C740 H753 0.929 . S
C741 C740 1.373 . S
C741 C742 1.396 . S
C741 C748 1.403 . S
C742 C732 1.476 . S
C742 N737 1.318 . S
C742 C741 1.396 . S
H743 C738 0.929 . S
O744 Mn720 2.385 . S
O744 C722 1.234 . S
O745 Mn720 2.209 . S
O745 Mn721 2.215 . S
O745 C722 1.283 . S
O746 Mn720 2.094 . S
O746 C724 1.240 . S
O747 Mn721 2.117 . S
O747 C724 1.264 . S
C748 C741 1.403 . S
C748 C749 1.399 . S
C748 H754 0.929 . S
C749 C729 1.449 . S
C749 C748 1.399 . S
C749 H755 0.930 . S
H750 C730 0.931 . S
H751 C731 0.930 . S
H752 C739 0.931 . S
H753 C740 0.929 . S
H754 C748 0.929 . S
H755 C749 0.930 . S
Mn756 O761 2.095 . S
Mn756 O771 2.162 . S
Mn756 O772 2.297 . S
Mn756 O780 2.385 . S
Mn756 O781 2.209 . S
Mn756 O782 2.094 . S
Mn757 O762 2.121 . S
Mn757 N764 2.257 . S
Mn757 N773 2.282 . S
Mn757 O781 2.215 . S
Mn757 O783 2.117 . S
C758 O780 1.234 . S
C758 O781 1.283 . S
C759 O771 1.281 . S
C759 O772 1.236 . S
C760 O782 1.240 . S
C760 O783 1.264 . S
O761 Mn756 2.095 . S
O761 C770 1.250 . S
O762 Mn757 2.121 . S
O762 C770 1.258 . S
C763 N764 1.326 . S
C763 C767 1.460 . S
C763 H769 0.929 . S
N764 Mn757 2.257 . S
N764 C763 1.326 . S
N764 C768 1.362 . S
C765 C766 1.258 . S
C765 C768 1.431 . S
C765 C785 1.449 . S
C766 C765 1.258 . S
C766 C767 1.477 . S
C766 H786 0.931 . S
C767 C763 1.460 . S
C767 C766 1.477 . S
C767 H787 0.930 . S
C768 N764 1.362 . S
C768 C765 1.431 . S
C768 C778 1.476 . S
H769 C763 0.929 . S
C770 O761 1.250 . S
C770 O762 1.258 . S
O771 Mn756 2.162 . S
O771 C759 1.281 . S
O772 Mn756 2.297 . S
O772 C759 1.236 . S
N773 Mn757 2.282 . S
N773 C774 1.328 . S
N773 C778 1.318 . S
C774 N773 1.328 . S
C774 C775 1.457 . S
C774 H779 0.929 . S
C775 C774 1.457 . S
C775 C776 1.291 . S
C775 H788 0.931 . S
C776 C775 1.291 . S
C776 C777 1.373 . S
C776 H789 0.929 . S
C777 C776 1.373 . S
C777 C778 1.396 . S
C777 C784 1.403 . S
C778 C768 1.476 . S
C778 N773 1.318 . S
C778 C777 1.396 . S
H779 C774 0.929 . S
O780 Mn756 2.385 . S
O780 C758 1.234 . S
O781 Mn756 2.209 . S
O781 Mn757 2.215 . S
O781 C758 1.283 . S
O782 Mn756 2.094 . S
O782 C760 1.240 . S
O783 Mn757 2.117 . S
O783 C760 1.264 . S
C784 C777 1.403 . S
C784 C785 1.399 . S
C784 H790 0.929 . S
C785 C765 1.449 . S
C785 C784 1.399 . S
C785 H791 0.930 . S
H786 C766 0.931 . S
H787 C767 0.930 . S
H788 C775 0.931 . S
H789 C776 0.929 . S
H790 C784 0.929 . S
H791 C785 0.930 . S
Mn792 O797 2.095 . S
Mn792 O807 2.162 . S
Mn792 O808 2.297 . S
Mn792 O816 2.385 . S
Mn792 O817 2.209 . S
Mn792 O818 2.094 . S
Mn793 O798 2.121 . S
Mn793 N800 2.257 . S
Mn793 N809 2.282 . S
Mn793 O817 2.215 . S
Mn793 O819 2.117 . S
C794 O816 1.234 . S
C794 O817 1.283 . S
C795 O807 1.281 . S
C795 O808 1.236 . S
C796 O818 1.240 . S
C796 O819 1.264 . S
O797 Mn792 2.095 . S
O797 C806 1.250 . S
O798 Mn793 2.121 . S
O798 C806 1.258 . S
C799 N800 1.326 . S
C799 C803 1.460 . S
C799 H805 0.929 . S
N800 Mn793 2.257 . S
N800 C799 1.326 . S
N800 C804 1.362 . S
C801 C802 1.258 . S
C801 C804 1.431 . S
C801 C821 1.449 . S
C802 C801 1.258 . S
C802 C803 1.477 . S
C802 H822 0.931 . S
C803 C799 1.460 . S
C803 C802 1.477 . S
C803 H823 0.930 . S
C804 N800 1.362 . S
C804 C801 1.431 . S
C804 C814 1.476 . S
H805 C799 0.929 . S
C806 O797 1.250 . S
C806 O798 1.258 . S
O807 Mn792 2.162 . S
O807 C795 1.281 . S
O808 Mn792 2.297 . S
O808 C795 1.236 . S
N809 Mn793 2.282 . S
N809 C810 1.328 . S
N809 C814 1.318 . S
C810 N809 1.328 . S
C810 C811 1.457 . S
C810 H815 0.929 . S
C811 C810 1.457 . S
C811 C812 1.291 . S
C811 H824 0.931 . S
C812 C811 1.291 . S
C812 C813 1.373 . S
C812 H825 0.929 . S
C813 C812 1.373 . S
C813 C814 1.396 . S
C813 C820 1.403 . S
C814 C804 1.476 . S
C814 N809 1.318 . S
C814 C813 1.396 . S
H815 C810 0.929 . S
O816 Mn792 2.385 . S
O816 C794 1.234 . S
O817 Mn792 2.209 . S
O817 Mn793 2.215 . S
O817 C794 1.283 . S
O818 Mn792 2.094 . S
O818 C796 1.240 . S
O819 Mn793 2.117 . S
O819 C796 1.264 . S
C820 C813 1.403 . S
C820 C821 1.399 . S
C820 H826 0.929 . S
C821 C801 1.449 . S
C821 C820 1.399 . S
C821 H827 0.930 . S
H822 C802 0.931 . S
H823 C803 0.930 . S
H824 C811 0.931 . S
H825 C812 0.929 . S
H826 C820 0.929 . S
H827 C821 0.930 . S
Mn828 O833 2.095 . S
Mn828 O843 2.162 . S
Mn828 O844 2.297 . S
Mn828 O852 2.385 . S
Mn828 O853 2.209 . S
Mn828 O854 2.094 . S
Mn829 O834 2.121 . S
Mn829 N836 2.257 . S
Mn829 N845 2.282 . S
Mn829 O853 2.215 . S
Mn829 O855 2.117 . S
C830 O852 1.234 . S
C830 O853 1.283 . S
C831 O843 1.281 . S
C831 O844 1.236 . S
C832 O854 1.240 . S
C832 O855 1.264 . S
O833 Mn828 2.095 . S
O833 C842 1.250 . S
O834 Mn829 2.121 . S
O834 C842 1.258 . S
C835 N836 1.326 . S
C835 C839 1.460 . S
C835 H841 0.929 . S
N836 Mn829 2.257 . S
N836 C835 1.326 . S
N836 C840 1.362 . S
C837 C838 1.258 . S
C837 C840 1.431 . S
C837 C857 1.449 . S
C838 C837 1.258 . S
C838 C839 1.477 . S
C838 H858 0.931 . S
C839 C835 1.460 . S
C839 C838 1.477 . S
C839 H859 0.930 . S
C840 N836 1.362 . S
C840 C837 1.431 . S
C840 C850 1.476 . S
H841 C835 0.929 . S
C842 O833 1.250 . S
C842 O834 1.258 . S
O843 Mn828 2.162 . S
O843 C831 1.281 . S
O844 Mn828 2.297 . S
O844 C831 1.236 . S
N845 Mn829 2.282 . S
N845 C846 1.328 . S
N845 C850 1.318 . S
C846 N845 1.328 . S
C846 C847 1.457 . S
C846 H851 0.929 . S
C847 C846 1.457 . S
C847 C848 1.291 . S
C847 H860 0.931 . S
C848 C847 1.291 . S
C848 C849 1.373 . S
C848 H861 0.929 . S
C849 C848 1.373 . S
C849 C850 1.396 . S
C849 C856 1.403 . S
C850 C840 1.476 . S
C850 N845 1.318 . S
C850 C849 1.396 . S
H851 C846 0.929 . S
O852 Mn828 2.385 . S
O852 C830 1.234 . S
O853 Mn828 2.209 . S
O853 Mn829 2.215 . S
O853 C830 1.283 . S
O854 Mn828 2.094 . S
O854 C832 1.240 . S
O855 Mn829 2.117 . S
O855 C832 1.264 . S
C856 C849 1.403 . S
C856 C857 1.399 . S
C856 H862 0.929 . S
C857 C837 1.449 . S
C857 C856 1.399 . S
C857 H863 0.930 . S
H858 C838 0.931 . S
H859 C839 0.930 . S
H860 C847 0.931 . S
H861 C848 0.929 . S
H862 C856 0.929 . S
H863 C857 0.930 . S
H864 C876 0.930 . S
H865 C878 0.930 . S
H866 C879 0.930 . S
H867 C883 0.959 . S
H868 C883 0.959 . S
H869 C883 0.961 . S
H870 C884 0.960 . S
H871 C884 0.961 . S
H872 C884 0.959 . S
H873 C887 0.929 . S
H874 C888 0.931 . S
H875 C890 0.930 . S
C876 H864 0.930 . S
C876 C877 1.399 . S
C876 C881 1.399 . S
C877 C876 1.399 . S
C877 C878 1.376 . S
C878 H865 0.930 . S
C878 C877 1.376 . S
C878 C879 1.388 . S
C879 H866 0.930 . S
C879 C878 1.388 . S
C879 C880 1.390 . S
C880 C879 1.390 . S
C880 C881 1.394 . S
C880 C886 1.465 . S
C881 C876 1.399 . S
C881 C880 1.394 . S
C881 C882 1.516 . S
C882 C881 1.516 . S
C882 C883 1.502 . S
C882 C884 1.561 . S
C882 C885 1.526 . S
C883 H867 0.959 . S
C883 H868 0.959 . S
C883 H869 0.961 . S
C883 C882 1.502 . S
C884 H870 0.960 . S
C884 H871 0.961 . S
C884 H872 0.959 . S
C884 C882 1.561 . S
C885 C882 1.526 . S
C885 C886 1.396 . S
C885 C890 1.390 . S
C886 C880 1.465 . S
C886 C885 1.396 . S
C886 C887 1.399 . S
C887 H873 0.929 . S
C887 C886 1.399 . S
C887 C888 1.385 . S
C888 H874 0.931 . S
C888 C887 1.385 . S
C888 C889 1.389 . S
C889 C888 1.389 . S
C889 C890 1.387 . S
C890 H875 0.930 . S
C890 C885 1.390 . S
C890 C889 1.387 . S
H891 C903 0.930 . S
H892 C905 0.930 . S
H893 C906 0.930 . S
H894 C910 0.959 . S
H895 C910 0.959 . S
H896 C910 0.961 . S
H897 C911 0.960 . S
H898 C911 0.961 . S
H899 C911 0.959 . S
H900 C914 0.929 . S
H901 C915 0.931 . S
H902 C917 0.930 . S
C903 H891 0.930 . S
C903 C904 1.399 . S
C903 C908 1.399 . S
C904 C903 1.399 . S
C904 C905 1.376 . S
C905 H892 0.930 . S
C905 C904 1.376 . S
C905 C906 1.388 . S
C906 H893 0.930 . S
C906 C905 1.388 . S
C906 C907 1.390 . S
C907 C906 1.390 . S
C907 C908 1.394 . S
C907 C913 1.465 . S
C908 C903 1.399 . S
C908 C907 1.394 . S
C908 C909 1.516 . S
C909 C908 1.516 . S
C909 C910 1.502 . S
C909 C911 1.561 . S
C909 C912 1.526 . S
C910 H894 0.959 . S
C910 H895 0.959 . S
C910 H896 0.961 . S
C910 C909 1.502 . S
C911 H897 0.960 . S
C911 H898 0.961 . S
C911 H899 0.959 . S
C911 C909 1.561 . S
C912 C909 1.526 . S
C912 C913 1.396 . S
C912 C917 1.390 . S
C913 C907 1.465 . S
C913 C912 1.396 . S
C913 C914 1.399 . S
C914 H900 0.929 . S
C914 C913 1.399 . S
C914 C915 1.385 . S
C915 H901 0.931 . S
C915 C914 1.385 . S
C915 C916 1.389 . S
C916 C915 1.389 . S
C916 C917 1.387 . S
C917 H902 0.930 . S
C917 C912 1.390 . S
C917 C916 1.387 . S
H918 C930 0.930 . S
H919 C932 0.930 . S
H920 C933 0.930 . S
H921 C937 0.959 . S
H922 C937 0.959 . S
H923 C937 0.961 . S
H924 C938 0.960 . S
H925 C938 0.961 . S
H926 C938 0.959 . S
H927 C941 0.929 . S
H928 C942 0.931 . S
H929 C944 0.930 . S
C930 H918 0.930 . S
C930 C931 1.399 . S
C930 C935 1.399 . S
C931 C930 1.399 . S
C931 C932 1.376 . S
C932 H919 0.930 . S
C932 C931 1.376 . S
C932 C933 1.388 . S
C933 H920 0.930 . S
C933 C932 1.388 . S
C933 C934 1.390 . S
C934 C933 1.390 . S
C934 C935 1.394 . S
C934 C940 1.465 . S
C935 C930 1.399 . S
C935 C934 1.394 . S
C935 C936 1.516 . S
C936 C935 1.516 . S
C936 C937 1.502 . S
C936 C938 1.561 . S
C936 C939 1.526 . S
C937 H921 0.959 . S
C937 H922 0.959 . S
C937 H923 0.961 . S
C937 C936 1.502 . S
C938 H924 0.960 . S
C938 H925 0.961 . S
C938 H926 0.959 . S
C938 C936 1.561 . S
C939 C936 1.526 . S
C939 C940 1.396 . S
C939 C944 1.390 . S
C940 C934 1.465 . S
C940 C939 1.396 . S
C940 C941 1.399 . S
C941 H927 0.929 . S
C941 C940 1.399 . S
C941 C942 1.385 . S
C942 H928 0.931 . S
C942 C941 1.385 . S
C942 C943 1.389 . S
C943 C942 1.389 . S
C943 C944 1.387 . S
C944 H929 0.930 . S
C944 C939 1.390 . S
C944 C943 1.387 . S
H945 C957 0.930 . S
H946 C959 0.930 . S
H947 C960 0.930 . S
H948 C964 0.959 . S
H949 C964 0.959 . S
H950 C964 0.961 . S
H951 C965 0.960 . S
H952 C965 0.961 . S
H953 C965 0.959 . S
H954 C968 0.929 . S
H955 C969 0.931 . S
H956 C971 0.930 . S
C957 H945 0.930 . S
C957 C958 1.399 . S
C957 C962 1.399 . S
C958 C957 1.399 . S
C958 C959 1.376 . S
C959 H946 0.930 . S
C959 C958 1.376 . S
C959 C960 1.388 . S
C960 H947 0.930 . S
C960 C959 1.388 . S
C960 C961 1.390 . S
C961 C960 1.390 . S
C961 C962 1.394 . S
C961 C967 1.465 . S
C962 C957 1.399 . S
C962 C961 1.394 . S
C962 C963 1.516 . S
C963 C962 1.516 . S
C963 C964 1.502 . S
C963 C965 1.561 . S
C963 C966 1.526 . S
C964 H948 0.959 . S
C964 H949 0.959 . S
C964 H950 0.961 . S
C964 C963 1.502 . S
C965 H951 0.960 . S
C965 H952 0.961 . S
C965 H953 0.959 . S
C965 C963 1.561 . S
C966 C963 1.526 . S
C966 C967 1.396 . S
C966 C971 1.390 . S
C967 C961 1.465 . S
C967 C966 1.396 . S
C967 C968 1.399 . S
C968 H954 0.929 . S
C968 C967 1.399 . S
C968 C969 1.385 . S
C969 H955 0.931 . S
C969 C968 1.385 . S
C969 C970 1.389 . S
C970 C969 1.389 . S
C970 C971 1.387 . S
C971 H956 0.930 . S
C971 C966 1.390 . S
C971 C970 1.387 . S
H972 C984 0.930 . S
H973 C986 0.930 . S
H974 C987 0.930 . S
H975 C991 0.959 . S
H976 C991 0.959 . S
H977 C991 0.961 . S
H978 C992 0.960 . S
H979 C992 0.961 . S
H980 C992 0.959 . S
H981 C995 0.929 . S
H982 C996 0.931 . S
H983 C998 0.930 . S
C984 H972 0.930 . S
C984 C985 1.399 . S
C984 C989 1.399 . S
C985 C984 1.399 . S
C985 C986 1.376 . S
C986 H973 0.930 . S
C986 C985 1.376 . S
C986 C987 1.388 . S
C987 H974 0.930 . S
C987 C986 1.388 . S
C987 C988 1.390 . S
C988 C987 1.390 . S
C988 C989 1.394 . S
C988 C994 1.465 . S
C989 C984 1.399 . S
C989 C988 1.394 . S
C989 C990 1.516 . S
C990 C989 1.516 . S
C990 C991 1.502 . S
C990 C992 1.561 . S
C990 C993 1.526 . S
C991 H975 0.959 . S
C991 H976 0.959 . S
C991 H977 0.961 . S
C991 C990 1.502 . S
C992 H978 0.960 . S
C992 H979 0.961 . S
C992 H980 0.959 . S
C992 C990 1.561 . S
C993 C990 1.526 . S
C993 C994 1.396 . S
C993 C998 1.390 . S
C994 C988 1.465 . S
C994 C993 1.396 . S
C994 C995 1.399 . S
C995 H981 0.929 . S
C995 C994 1.399 . S
C995 C996 1.385 . S
C996 H982 0.931 . S
C996 C995 1.385 . S
C996 C997 1.389 . S
C997 C996 1.389 . S
C997 C998 1.387 . S
C998 H983 0.930 . S
C998 C993 1.390 . S
C998 C997 1.387 . S
H999 C1011 0.930 . S
H1000 C1013 0.930 . S
H1001 C1014 0.930 . S
H1002 C1018 0.959 . S
H1003 C1018 0.959 . S
H1004 C1018 0.961 . S
H1005 C1019 0.960 . S
H1006 C1019 0.961 . S
H1007 C1019 0.959 . S
H1008 C1022 0.929 . S
H1009 C1023 0.931 . S
H1010 C1025 0.930 . S
C1011 H999 0.930 . S
C1011 C1012 1.399 . S
C1011 C1016 1.399 . S
C1012 C1011 1.399 . S
C1012 C1013 1.376 . S
C1013 H1000 0.930 . S
C1013 C1012 1.376 . S
C1013 C1014 1.388 . S
C1014 H1001 0.930 . S
C1014 C1013 1.388 . S
C1014 C1015 1.390 . S
C1015 C1014 1.390 . S
C1015 C1016 1.394 . S
C1015 C1021 1.465 . S
C1016 C1011 1.399 . S
C1016 C1015 1.394 . S
C1016 C1017 1.516 . S
C1017 C1016 1.516 . S
C1017 C1018 1.502 . S
C1017 C1019 1.561 . S
C1017 C1020 1.526 . S
C1018 H1002 0.959 . S
C1018 H1003 0.959 . S
C1018 H1004 0.961 . S
C1018 C1017 1.502 . S
C1019 H1005 0.960 . S
C1019 H1006 0.961 . S
C1019 H1007 0.959 . S
C1019 C1017 1.561 . S
C1020 C1017 1.526 . S
C1020 C1021 1.396 . S
C1020 C1025 1.390 . S
C1021 C1015 1.465 . S
C1021 C1020 1.396 . S
C1021 C1022 1.399 . S
C1022 H1008 0.929 . S
C1022 C1021 1.399 . S
C1022 C1023 1.385 . S
C1023 H1009 0.931 . S
C1023 C1022 1.385 . S
C1023 C1024 1.389 . S
C1024 C1023 1.389 . S
C1024 C1025 1.387 . S
C1025 H1010 0.930 . S
C1025 C1020 1.390 . S
C1025 C1024 1.387 . S
H1026 C1038 0.930 . S
H1027 C1040 0.930 . S
H1028 C1041 0.930 . S
H1029 C1045 0.959 . S
H1030 C1045 0.959 . S
H1031 C1045 0.961 . S
H1032 C1046 0.960 . S
H1033 C1046 0.961 . S
H1034 C1046 0.959 . S
H1035 C1049 0.929 . S
H1036 C1050 0.931 . S
H1037 C1052 0.930 . S
C1038 H1026 0.930 . S
C1038 C1039 1.399 . S
C1038 C1043 1.399 . S
C1039 C1038 1.399 . S
C1039 C1040 1.376 . S
C1040 H1027 0.930 . S
C1040 C1039 1.376 . S
C1040 C1041 1.388 . S
C1041 H1028 0.930 . S
C1041 C1040 1.388 . S
C1041 C1042 1.390 . S
C1042 C1041 1.390 . S
C1042 C1043 1.394 . S
C1042 C1048 1.465 . S
C1043 C1038 1.399 . S
C1043 C1042 1.394 . S
C1043 C1044 1.516 . S
C1044 C1043 1.516 . S
C1044 C1045 1.502 . S
C1044 C1046 1.561 . S
C1044 C1047 1.526 . S
C1045 H1029 0.959 . S
C1045 H1030 0.959 . S
C1045 H1031 0.961 . S
C1045 C1044 1.502 . S
C1046 H1032 0.960 . S
C1046 H1033 0.961 . S
C1046 H1034 0.959 . S
C1046 C1044 1.561 . S
C1047 C1044 1.526 . S
C1047 C1048 1.396 . S
C1047 C1052 1.390 . S
C1048 C1042 1.465 . S
C1048 C1047 1.396 . S
C1048 C1049 1.399 . S
C1049 H1035 0.929 . S
C1049 C1048 1.399 . S
C1049 C1050 1.385 . S
C1050 H1036 0.931 . S
C1050 C1049 1.385 . S
C1050 C1051 1.389 . S
C1051 C1050 1.389 . S
C1051 C1052 1.387 . S
C1052 H1037 0.930 . S
C1052 C1047 1.390 . S
C1052 C1051 1.387 . S
H1053 C1065 0.930 . S
H1054 C1067 0.930 . S
H1055 C1068 0.930 . S
H1056 C1072 0.959 . S
H1057 C1072 0.959 . S
H1058 C1072 0.961 . S
H1059 C1073 0.960 . S
H1060 C1073 0.961 . S
H1061 C1073 0.959 . S
H1062 C1076 0.929 . S
H1063 C1077 0.931 . S
H1064 C1079 0.930 . S
C1065 H1053 0.930 . S
C1065 C1066 1.399 . S
C1065 C1070 1.399 . S
C1066 C1065 1.399 . S
C1066 C1067 1.376 . S
C1067 H1054 0.930 . S
C1067 C1066 1.376 . S
C1067 C1068 1.388 . S
C1068 H1055 0.930 . S
C1068 C1067 1.388 . S
C1068 C1069 1.390 . S
C1069 C1068 1.390 . S
C1069 C1070 1.394 . S
C1069 C1075 1.465 . S
C1070 C1065 1.399 . S
C1070 C1069 1.394 . S
C1070 C1071 1.516 . S
C1071 C1070 1.516 . S
C1071 C1072 1.502 . S
C1071 C1073 1.561 . S
C1071 C1074 1.526 . S
C1072 H1056 0.959 . S
C1072 H1057 0.959 . S
C1072 H1058 0.961 . S
C1072 C1071 1.502 . S
C1073 H1059 0.960 . S
C1073 H1060 0.961 . S
C1073 H1061 0.959 . S
C1073 C1071 1.561 . S
C1074 C1071 1.526 . S
C1074 C1075 1.396 . S
C1074 C1079 1.390 . S
C1075 C1069 1.465 . S
C1075 C1074 1.396 . S
C1075 C1076 1.399 . S
C1076 H1062 0.929 . S
C1076 C1075 1.399 . S
C1076 C1077 1.385 . S
C1077 H1063 0.931 . S
C1077 C1076 1.385 . S
C1077 C1078 1.389 . S
C1078 C1077 1.389 . S
C1078 C1079 1.387 . S
C1079 H1064 0.930 . S
C1079 C1074 1.390 . S
C1079 C1078 1.387 . S
H1080 C1092 0.930 . S
H1081 C1094 0.930 . S
H1082 C1095 0.930 . S
H1083 C1099 0.959 . S
H1084 C1099 0.959 . S
H1085 C1099 0.961 . S
H1086 C1100 0.960 . S
H1087 C1100 0.961 . S
H1088 C1100 0.959 . S
H1089 C1103 0.929 . S
H1090 C1104 0.931 . S
H1091 C1106 0.930 . S
C1092 H1080 0.930 . S
C1092 C1093 1.399 . S
C1092 C1097 1.399 . S
C1093 C1092 1.399 . S
C1093 C1094 1.376 . S
C1094 H1081 0.930 . S
C1094 C1093 1.376 . S
C1094 C1095 1.388 . S
C1095 H1082 0.930 . S
C1095 C1094 1.388 . S
C1095 C1096 1.390 . S
C1096 C1095 1.390 . S
C1096 C1097 1.394 . S
C1096 C1102 1.465 . S
C1097 C1092 1.399 . S
C1097 C1096 1.394 . S
C1097 C1098 1.516 . S
C1098 C1097 1.516 . S
C1098 C1099 1.502 . S
C1098 C1100 1.561 . S
C1098 C1101 1.526 . S
C1099 H1083 0.959 . S
C1099 H1084 0.959 . S
C1099 H1085 0.961 . S
C1099 C1098 1.502 . S
C1100 H1086 0.960 . S
C1100 H1087 0.961 . S
C1100 H1088 0.959 . S
C1100 C1098 1.561 . S
C1101 C1098 1.526 . S
C1101 C1102 1.396 . S
C1101 C1106 1.390 . S
C1102 C1096 1.465 . S
C1102 C1101 1.396 . S
C1102 C1103 1.399 . S
C1103 H1089 0.929 . S
C1103 C1102 1.399 . S
C1103 C1104 1.385 . S
C1104 H1090 0.931 . S
C1104 C1103 1.385 . S
C1104 C1105 1.389 . S
C1105 C1104 1.389 . S
C1105 C1106 1.387 . S
C1106 H1091 0.930 . S
C1106 C1101 1.390 . S
C1106 C1105 1.387 . S
H1107 C1119 0.930 . S
H1108 C1121 0.930 . S
H1109 C1122 0.930 . S
H1110 C1126 0.959 . S
H1111 C1126 0.959 . S
H1112 C1126 0.961 . S
H1113 C1127 0.960 . S
H1114 C1127 0.961 . S
H1115 C1127 0.959 . S
H1116 C1130 0.929 . S
H1117 C1131 0.931 . S
H1118 C1133 0.930 . S
C1119 H1107 0.930 . S
C1119 C1120 1.399 . S
C1119 C1124 1.399 . S
C1120 C1119 1.399 . S
C1120 C1121 1.376 . S
C1121 H1108 0.930 . S
C1121 C1120 1.376 . S
C1121 C1122 1.388 . S
C1122 H1109 0.930 . S
C1122 C1121 1.388 . S
C1122 C1123 1.390 . S
C1123 C1122 1.390 . S
C1123 C1124 1.394 . S
C1123 C1129 1.465 . S
C1124 C1119 1.399 . S
C1124 C1123 1.394 . S
C1124 C1125 1.516 . S
C1125 C1124 1.516 . S
C1125 C1126 1.502 . S
C1125 C1127 1.561 . S
C1125 C1128 1.526 . S
C1126 H1110 0.959 . S
C1126 H1111 0.959 . S
C1126 H1112 0.961 . S
C1126 C1125 1.502 . S
C1127 H1113 0.960 . S
C1127 H1114 0.961 . S
C1127 H1115 0.959 . S
C1127 C1125 1.561 . S
C1128 C1125 1.526 . S
C1128 C1129 1.396 . S
C1128 C1133 1.390 . S
C1129 C1123 1.465 . S
C1129 C1128 1.396 . S
C1129 C1130 1.399 . S
C1130 H1116 0.929 . S
C1130 C1129 1.399 . S
C1130 C1131 1.385 . S
C1131 H1117 0.931 . S
C1131 C1130 1.385 . S
C1131 C1132 1.389 . S
C1132 C1131 1.389 . S
C1132 C1133 1.387 . S
C1133 H1118 0.930 . S
C1133 C1128 1.390 . S
C1133 C1132 1.387 . S
H1134 C1146 0.930 . S
H1135 C1148 0.930 . S
H1136 C1149 0.930 . S
H1137 C1153 0.959 . S
H1138 C1153 0.959 . S
H1139 C1153 0.961 . S
H1140 C1154 0.960 . S
H1141 C1154 0.961 . S
H1142 C1154 0.959 . S
H1143 C1157 0.929 . S
H1144 C1158 0.931 . S
H1145 C1160 0.930 . S
C1146 H1134 0.930 . S
C1146 C1147 1.399 . S
C1146 C1151 1.399 . S
C1147 C1146 1.399 . S
C1147 C1148 1.376 . S
C1148 H1135 0.930 . S
C1148 C1147 1.376 . S
C1148 C1149 1.388 . S
C1149 H1136 0.930 . S
C1149 C1148 1.388 . S
C1149 C1150 1.390 . S
C1150 C1149 1.390 . S
C1150 C1151 1.394 . S
C1150 C1156 1.465 . S
C1151 C1146 1.399 . S
C1151 C1150 1.394 . S
C1151 C1152 1.516 . S
C1152 C1151 1.516 . S
C1152 C1153 1.502 . S
C1152 C1154 1.561 . S
C1152 C1155 1.526 . S
C1153 H1137 0.959 . S
C1153 H1138 0.959 . S
C1153 H1139 0.961 . S
C1153 C1152 1.502 . S
C1154 H1140 0.960 . S
C1154 H1141 0.961 . S
C1154 H1142 0.959 . S
C1154 C1152 1.561 . S
C1155 C1152 1.526 . S
C1155 C1156 1.396 . S
C1155 C1160 1.390 . S
C1156 C1150 1.465 . S
C1156 C1155 1.396 . S
C1156 C1157 1.399 . S
C1157 H1143 0.929 . S
C1157 C1156 1.399 . S
C1157 C1158 1.385 . S
C1158 H1144 0.931 . S
C1158 C1157 1.385 . S
C1158 C1159 1.389 . S
C1159 C1158 1.389 . S
C1159 C1160 1.387 . S
C1160 H1145 0.930 . S
C1160 C1155 1.390 . S
C1160 C1159 1.387 . S
H1161 C1173 0.930 . S
H1162 C1175 0.930 . S
H1163 C1176 0.930 . S
H1164 C1180 0.959 . S
H1165 C1180 0.959 . S
H1166 C1180 0.961 . S
H1167 C1181 0.960 . S
H1168 C1181 0.961 . S
H1169 C1181 0.959 . S
H1170 C1184 0.929 . S
H1171 C1185 0.931 . S
H1172 C1187 0.930 . S
C1173 H1161 0.930 . S
C1173 C1174 1.399 . S
C1173 C1178 1.399 . S
C1174 C1173 1.399 . S
C1174 C1175 1.376 . S
C1175 H1162 0.930 . S
C1175 C1174 1.376 . S
C1175 C1176 1.388 . S
C1176 H1163 0.930 . S
C1176 C1175 1.388 . S
C1176 C1177 1.390 . S
C1177 C1176 1.390 . S
C1177 C1178 1.394 . S
C1177 C1183 1.465 . S
C1178 C1173 1.399 . S
C1178 C1177 1.394 . S
C1178 C1179 1.516 . S
C1179 C1178 1.516 . S
C1179 C1180 1.502 . S
C1179 C1181 1.561 . S
C1179 C1182 1.526 . S
C1180 H1164 0.959 . S
C1180 H1165 0.959 . S
C1180 H1166 0.961 . S
C1180 C1179 1.502 . S
C1181 H1167 0.960 . S
C1181 H1168 0.961 . S
C1181 H1169 0.959 . S
C1181 C1179 1.561 . S
C1182 C1179 1.526 . S
C1182 C1183 1.396 . S
C1182 C1187 1.390 . S
C1183 C1177 1.465 . S
C1183 C1182 1.396 . S
C1183 C1184 1.399 . S
C1184 H1170 0.929 . S
C1184 C1183 1.399 . S
C1184 C1185 1.385 . S
C1185 H1171 0.931 . S
C1185 C1184 1.385 . S
C1185 C1186 1.389 . S
C1186 C1185 1.389 . S
C1186 C1187 1.387 . S
C1187 H1172 0.930 . S
C1187 C1182 1.390 . S
C1187 C1186 1.387 . S
H1188 C1200 0.930 . S
H1189 C1202 0.930 . S
H1190 C1203 0.930 . S
H1191 C1207 0.959 . S
H1192 C1207 0.959 . S
H1193 C1207 0.961 . S
H1194 C1208 0.960 . S
H1195 C1208 0.961 . S
H1196 C1208 0.959 . S
H1197 C1211 0.929 . S
H1198 C1212 0.931 . S
H1199 C1214 0.930 . S
C1200 H1188 0.930 . S
C1200 C1201 1.399 . S
C1200 C1205 1.399 . S
C1201 C1200 1.399 . S
C1201 C1202 1.376 . S
C1202 H1189 0.930 . S
C1202 C1201 1.376 . S
C1202 C1203 1.388 . S
C1203 H1190 0.930 . S
C1203 C1202 1.388 . S
C1203 C1204 1.390 . S
C1204 C1203 1.390 . S
C1204 C1205 1.394 . S
C1204 C1210 1.465 . S
C1205 C1200 1.399 . S
C1205 C1204 1.394 . S
C1205 C1206 1.516 . S
C1206 C1205 1.516 . S
C1206 C1207 1.502 . S
C1206 C1208 1.561 . S
C1206 C1209 1.526 . S
C1207 H1191 0.959 . S
C1207 H1192 0.959 . S
C1207 H1193 0.961 . S
C1207 C1206 1.502 . S
C1208 H1194 0.960 . S
C1208 H1195 0.961 . S
C1208 H1196 0.959 . S
C1208 C1206 1.561 . S
C1209 C1206 1.526 . S
C1209 C1210 1.396 . S
C1209 C1214 1.390 . S
C1210 C1204 1.465 . S
C1210 C1209 1.396 . S
C1210 C1211 1.399 . S
C1211 H1197 0.929 . S
C1211 C1210 1.399 . S
C1211 C1212 1.385 . S
C1212 H1198 0.931 . S
C1212 C1211 1.385 . S
C1212 C1213 1.389 . S
C1213 C1212 1.389 . S
C1213 C1214 1.387 . S
C1214 H1199 0.930 . S
C1214 C1209 1.390 . S
C1214 C1213 1.387 . S
H1215 C1227 0.930 . S
H1216 C1229 0.930 . S
H1217 C1230 0.930 . S
H1218 C1234 0.959 . S
H1219 C1234 0.959 . S
H1220 C1234 0.961 . S
H1221 C1235 0.960 . S
H1222 C1235 0.961 . S
H1223 C1235 0.959 . S
H1224 C1238 0.929 . S
H1225 C1239 0.931 . S
H1226 C1241 0.930 . S
C1227 H1215 0.930 . S
C1227 C1228 1.399 . S
C1227 C1232 1.399 . S
C1228 C1227 1.399 . S
C1228 C1229 1.376 . S
C1229 H1216 0.930 . S
C1229 C1228 1.376 . S
C1229 C1230 1.388 . S
C1230 H1217 0.930 . S
C1230 C1229 1.388 . S
C1230 C1231 1.390 . S
C1231 C1230 1.390 . S
C1231 C1232 1.394 . S
C1231 C1237 1.465 . S
C1232 C1227 1.399 . S
C1232 C1231 1.394 . S
C1232 C1233 1.516 . S
C1233 C1232 1.516 . S
C1233 C1234 1.502 . S
C1233 C1235 1.561 . S
C1233 C1236 1.526 . S
C1234 H1218 0.959 . S
C1234 H1219 0.959 . S
C1234 H1220 0.961 . S
C1234 C1233 1.502 . S
C1235 H1221 0.960 . S
C1235 H1222 0.961 . S
C1235 H1223 0.959 . S
C1235 C1233 1.561 . S
C1236 C1233 1.526 . S
C1236 C1237 1.396 . S
C1236 C1241 1.390 . S
C1237 C1231 1.465 . S
C1237 C1236 1.396 . S
C1237 C1238 1.399 . S
C1238 H1224 0.929 . S
C1238 C1237 1.399 . S
C1238 C1239 1.385 . S
C1239 H1225 0.931 . S
C1239 C1238 1.385 . S
C1239 C1240 1.389 . S
C1240 C1239 1.389 . S
C1240 C1241 1.387 . S
C1241 H1226 0.930 . S
C1241 C1236 1.390 . S
C1241 C1240 1.387 . S
H1242 C1254 0.930 . S
H1243 C1256 0.930 . S
H1244 C1257 0.930 . S
H1245 C1261 0.959 . S
H1246 C1261 0.959 . S
H1247 C1261 0.961 . S
H1248 C1262 0.960 . S
H1249 C1262 0.961 . S
H1250 C1262 0.959 . S
H1251 C1265 0.929 . S
H1252 C1266 0.931 . S
H1253 C1268 0.930 . S
C1254 H1242 0.930 . S
C1254 C1255 1.399 . S
C1254 C1259 1.399 . S
C1255 C1254 1.399 . S
C1255 C1256 1.376 . S
C1256 H1243 0.930 . S
C1256 C1255 1.376 . S
C1256 C1257 1.388 . S
C1257 H1244 0.930 . S
C1257 C1256 1.388 . S
C1257 C1258 1.390 . S
C1258 C1257 1.390 . S
C1258 C1259 1.394 . S
C1258 C1264 1.465 . S
C1259 C1254 1.399 . S
C1259 C1258 1.394 . S
C1259 C1260 1.516 . S
C1260 C1259 1.516 . S
C1260 C1261 1.502 . S
C1260 C1262 1.561 . S
C1260 C1263 1.526 . S
C1261 H1245 0.959 . S
C1261 H1246 0.959 . S
C1261 H1247 0.961 . S
C1261 C1260 1.502 . S
C1262 H1248 0.960 . S
C1262 H1249 0.961 . S
C1262 H1250 0.959 . S
C1262 C1260 1.561 . S
C1263 C1260 1.526 . S
C1263 C1264 1.396 . S
C1263 C1268 1.390 . S
C1264 C1258 1.465 . S
C1264 C1263 1.396 . S
C1264 C1265 1.399 . S
C1265 H1251 0.929 . S
C1265 C1264 1.399 . S
C1265 C1266 1.385 . S
C1266 H1252 0.931 . S
C1266 C1265 1.385 . S
C1266 C1267 1.389 . S
C1267 C1266 1.389 . S
C1267 C1268 1.387 . S
C1268 H1253 0.930 . S
C1268 C1263 1.390 . S
C1268 C1267 1.387 . S
H1269 C1281 0.930 . S
H1270 C1283 0.930 . S
H1271 C1284 0.930 . S
H1272 C1288 0.959 . S
H1273 C1288 0.959 . S
H1274 C1288 0.961 . S
H1275 C1289 0.960 . S
H1276 C1289 0.961 . S
H1277 C1289 0.959 . S
H1278 C1292 0.929 . S
H1279 C1293 0.931 . S
H1280 C1295 0.930 . S
C1281 H1269 0.930 . S
C1281 C1282 1.399 . S
C1281 C1286 1.399 . S
C1282 C1281 1.399 . S
C1282 C1283 1.376 . S
C1283 H1270 0.930 . S
C1283 C1282 1.376 . S
C1283 C1284 1.388 . S
C1284 H1271 0.930 . S
C1284 C1283 1.388 . S
C1284 C1285 1.390 . S
C1285 C1284 1.390 . S
C1285 C1286 1.394 . S
C1285 C1291 1.465 . S
C1286 C1281 1.399 . S
C1286 C1285 1.394 . S
C1286 C1287 1.516 . S
C1287 C1286 1.516 . S
C1287 C1288 1.502 . S
C1287 C1289 1.561 . S
C1287 C1290 1.526 . S
C1288 H1272 0.959 . S
C1288 H1273 0.959 . S
C1288 H1274 0.961 . S
C1288 C1287 1.502 . S
C1289 H1275 0.960 . S
C1289 H1276 0.961 . S
C1289 H1277 0.959 . S
C1289 C1287 1.561 . S
C1290 C1287 1.526 . S
C1290 C1291 1.396 . S
C1290 C1295 1.390 . S
C1291 C1285 1.465 . S
C1291 C1290 1.396 . S
C1291 C1292 1.399 . S
C1292 H1278 0.929 . S
C1292 C1291 1.399 . S
C1292 C1293 1.385 . S
C1293 H1279 0.931 . S
C1293 C1292 1.385 . S
C1293 C1294 1.389 . S
C1294 C1293 1.389 . S
C1294 C1295 1.387 . S
C1295 H1280 0.930 . S
C1295 C1290 1.390 . S
C1295 C1294 1.387 . S
H1296 C1308 0.930 . S
H1297 C1310 0.930 . S
H1298 C1311 0.930 . S
H1299 C1315 0.959 . S
H1300 C1315 0.959 . S
H1301 C1315 0.961 . S
H1302 C1316 0.960 . S
H1303 C1316 0.961 . S
H1304 C1316 0.959 . S
H1305 C1319 0.929 . S
H1306 C1320 0.931 . S
H1307 C1322 0.930 . S
C1308 H1296 0.930 . S
C1308 C1309 1.399 . S
C1308 C1313 1.399 . S
C1309 C1308 1.399 . S
C1309 C1310 1.376 . S
C1310 H1297 0.930 . S
C1310 C1309 1.376 . S
C1310 C1311 1.388 . S
C1311 H1298 0.930 . S
C1311 C1310 1.388 . S
C1311 C1312 1.390 . S
C1312 C1311 1.390 . S
C1312 C1313 1.394 . S
C1312 C1318 1.465 . S
C1313 C1308 1.399 . S
C1313 C1312 1.394 . S
C1313 C1314 1.516 . S
C1314 C1313 1.516 . S
C1314 C1315 1.502 . S
C1314 C1316 1.561 . S
C1314 C1317 1.526 . S
C1315 H1299 0.959 . S
C1315 H1300 0.959 . S
C1315 H1301 0.961 . S
C1315 C1314 1.502 . S
C1316 H1302 0.960 . S
C1316 H1303 0.961 . S
C1316 H1304 0.959 . S
C1316 C1314 1.561 . S
C1317 C1314 1.526 . S
C1317 C1318 1.396 . S
C1317 C1322 1.390 . S
C1318 C1312 1.465 . S
C1318 C1317 1.396 . S
C1318 C1319 1.399 . S
C1319 H1305 0.929 . S
C1319 C1318 1.399 . S
C1319 C1320 1.385 . S
C1320 H1306 0.931 . S
C1320 C1319 1.385 . S
C1320 C1321 1.389 . S
C1321 C1320 1.389 . S
C1321 C1322 1.387 . S
C1322 H1307 0.930 . S
C1322 C1317 1.390 . S
C1322 C1321 1.387 . S
H1323 C1335 0.930 . S
H1324 C1337 0.930 . S
H1325 C1338 0.930 . S
H1326 C1342 0.959 . S
H1327 C1342 0.959 . S
H1328 C1342 0.961 . S
H1329 C1343 0.960 . S
H1330 C1343 0.961 . S
H1331 C1343 0.959 . S
H1332 C1346 0.929 . S
H1333 C1347 0.931 . S
H1334 C1349 0.930 . S
C1335 H1323 0.930 . S
C1335 C1336 1.399 . S
C1335 C1340 1.399 . S
C1336 C1335 1.399 . S
C1336 C1337 1.376 . S
C1337 H1324 0.930 . S
C1337 C1336 1.376 . S
C1337 C1338 1.388 . S
C1338 H1325 0.930 . S
C1338 C1337 1.388 . S
C1338 C1339 1.390 . S
C1339 C1338 1.390 . S
C1339 C1340 1.394 . S
C1339 C1345 1.465 . S
C1340 C1335 1.399 . S
C1340 C1339 1.394 . S
C1340 C1341 1.516 . S
C1341 C1340 1.516 . S
C1341 C1342 1.502 . S
C1341 C1343 1.561 . S
C1341 C1344 1.526 . S
C1342 H1326 0.959 . S
C1342 H1327 0.959 . S
C1342 H1328 0.961 . S
C1342 C1341 1.502 . S
C1343 H1329 0.960 . S
C1343 H1330 0.961 . S
C1343 H1331 0.959 . S
C1343 C1341 1.561 . S
C1344 C1341 1.526 . S
C1344 C1345 1.396 . S
C1344 C1349 1.390 . S
C1345 C1339 1.465 . S
C1345 C1344 1.396 . S
C1345 C1346 1.399 . S
C1346 H1332 0.929 . S
C1346 C1345 1.399 . S
C1346 C1347 1.385 . S
C1347 H1333 0.931 . S
C1347 C1346 1.385 . S
C1347 C1348 1.389 . S
C1348 C1347 1.389 . S
C1348 C1349 1.387 . S
C1349 H1334 0.930 . S
C1349 C1344 1.390 . S
C1349 C1348 1.387 . S
H1350 C1362 0.930 . S
H1351 C1364 0.930 . S
H1352 C1365 0.930 . S
H1353 C1369 0.959 . S
H1354 C1369 0.959 . S
H1355 C1369 0.961 . S
H1356 C1370 0.960 . S
H1357 C1370 0.961 . S
H1358 C1370 0.959 . S
H1359 C1373 0.929 . S
H1360 C1374 0.931 . S
H1361 C1376 0.930 . S
C1362 H1350 0.930 . S
C1362 C1363 1.399 . S
C1362 C1367 1.399 . S
C1363 C1362 1.399 . S
C1363 C1364 1.376 . S
C1364 H1351 0.930 . S
C1364 C1363 1.376 . S
C1364 C1365 1.388 . S
C1365 H1352 0.930 . S
C1365 C1364 1.388 . S
C1365 C1366 1.390 . S
C1366 C1365 1.390 . S
C1366 C1367 1.394 . S
C1366 C1372 1.465 . S
C1367 C1362 1.399 . S
C1367 C1366 1.394 . S
C1367 C1368 1.516 . S
C1368 C1367 1.516 . S
C1368 C1369 1.502 . S
C1368 C1370 1.561 . S
C1368 C1371 1.526 . S
C1369 H1353 0.959 . S
C1369 H1354 0.959 . S
C1369 H1355 0.961 . S
C1369 C1368 1.502 . S
C1370 H1356 0.960 . S
C1370 H1357 0.961 . S
C1370 H1358 0.959 . S
C1370 C1368 1.561 . S
C1371 C1368 1.526 . S
C1371 C1372 1.396 . S
C1371 C1376 1.390 . S
C1372 C1366 1.465 . S
C1372 C1371 1.396 . S
C1372 C1373 1.399 . S
C1373 H1359 0.929 . S
C1373 C1372 1.399 . S
C1373 C1374 1.385 . S
C1374 H1360 0.931 . S
C1374 C1373 1.385 . S
C1374 C1375 1.389 . S
C1375 C1374 1.389 . S
C1375 C1376 1.387 . S
C1376 H1361 0.930 . S
C1376 C1371 1.390 . S
C1376 C1375 1.387 . S
H1377 C1389 0.930 . S
H1378 C1391 0.930 . S
H1379 C1392 0.930 . S
H1380 C1396 0.959 . S
H1381 C1396 0.959 . S
H1382 C1396 0.961 . S
H1383 C1397 0.960 . S
H1384 C1397 0.961 . S
H1385 C1397 0.959 . S
H1386 C1400 0.929 . S
H1387 C1401 0.931 . S
H1388 C1403 0.930 . S
C1389 H1377 0.930 . S
C1389 C1390 1.399 . S
C1389 C1394 1.399 . S
C1390 C1389 1.399 . S
C1390 C1391 1.376 . S
C1391 H1378 0.930 . S
C1391 C1390 1.376 . S
C1391 C1392 1.388 . S
C1392 H1379 0.930 . S
C1392 C1391 1.388 . S
C1392 C1393 1.390 . S
C1393 C1392 1.390 . S
C1393 C1394 1.394 . S
C1393 C1399 1.465 . S
C1394 C1389 1.399 . S
C1394 C1393 1.394 . S
C1394 C1395 1.516 . S
C1395 C1394 1.516 . S
C1395 C1396 1.502 . S
C1395 C1397 1.561 . S
C1395 C1398 1.526 . S
C1396 H1380 0.959 . S
C1396 H1381 0.959 . S
C1396 H1382 0.961 . S
C1396 C1395 1.502 . S
C1397 H1383 0.960 . S
C1397 H1384 0.961 . S
C1397 H1385 0.959 . S
C1397 C1395 1.561 . S
C1398 C1395 1.526 . S
C1398 C1399 1.396 . S
C1398 C1403 1.390 . S
C1399 C1393 1.465 . S
C1399 C1398 1.396 . S
C1399 C1400 1.399 . S
C1400 H1386 0.929 . S
C1400 C1399 1.399 . S
C1400 C1401 1.385 . S
C1401 H1387 0.931 . S
C1401 C1400 1.385 . S
C1401 C1402 1.389 . S
C1402 C1401 1.389 . S
C1402 C1403 1.387 . S
C1403 H1388 0.930 . S
C1403 C1398 1.390 . S
C1403 C1402 1.387 . S
H1404 C1416 0.930 . S
H1405 C1418 0.930 . S
H1406 C1419 0.930 . S
H1407 C1423 0.959 . S
H1408 C1423 0.959 . S
H1409 C1423 0.961 . S
H1410 C1424 0.960 . S
H1411 C1424 0.961 . S
H1412 C1424 0.959 . S
H1413 C1427 0.929 . S
H1414 C1428 0.931 . S
H1415 C1430 0.930 . S
C1416 H1404 0.930 . S
C1416 C1417 1.399 . S
C1416 C1421 1.399 . S
C1417 C1416 1.399 . S
C1417 C1418 1.376 . S
C1418 H1405 0.930 . S
C1418 C1417 1.376 . S
C1418 C1419 1.388 . S
C1419 H1406 0.930 . S
C1419 C1418 1.388 . S
C1419 C1420 1.390 . S
C1420 C1419 1.390 . S
C1420 C1421 1.394 . S
C1420 C1426 1.465 . S
C1421 C1416 1.399 . S
C1421 C1420 1.394 . S
C1421 C1422 1.516 . S
C1422 C1421 1.516 . S
C1422 C1423 1.502 . S
C1422 C1424 1.561 . S
C1422 C1425 1.526 . S
C1423 H1407 0.959 . S
C1423 H1408 0.959 . S
C1423 H1409 0.961 . S
C1423 C1422 1.502 . S
C1424 H1410 0.960 . S
C1424 H1411 0.961 . S
C1424 H1412 0.959 . S
C1424 C1422 1.561 . S
C1425 C1422 1.526 . S
C1425 C1426 1.396 . S
C1425 C1430 1.390 . S
C1426 C1420 1.465 . S
C1426 C1425 1.396 . S
C1426 C1427 1.399 . S
C1427 H1413 0.929 . S
C1427 C1426 1.399 . S
C1427 C1428 1.385 . S
C1428 H1414 0.931 . S
C1428 C1427 1.385 . S
C1428 C1429 1.389 . S
C1429 C1428 1.389 . S
C1429 C1430 1.387 . S
C1430 H1415 0.930 . S
C1430 C1425 1.390 . S
C1430 C1429 1.387 . S
H1431 C1443 0.930 . S
H1432 C1445 0.930 . S
H1433 C1446 0.930 . S
H1434 C1450 0.959 . S
H1435 C1450 0.959 . S
H1436 C1450 0.961 . S
H1437 C1451 0.960 . S
H1438 C1451 0.961 . S
H1439 C1451 0.959 . S
H1440 C1454 0.929 . S
H1441 C1455 0.931 . S
H1442 C1457 0.930 . S
C1443 H1431 0.930 . S
C1443 C1444 1.399 . S
C1443 C1448 1.399 . S
C1444 C1443 1.399 . S
C1444 C1445 1.376 . S
C1445 H1432 0.930 . S
C1445 C1444 1.376 . S
C1445 C1446 1.388 . S
C1446 H1433 0.930 . S
C1446 C1445 1.388 . S
C1446 C1447 1.390 . S
C1447 C1446 1.390 . S
C1447 C1448 1.394 . S
C1447 C1453 1.465 . S
C1448 C1443 1.399 . S
C1448 C1447 1.394 . S
C1448 C1449 1.516 . S
C1449 C1448 1.516 . S
C1449 C1450 1.502 . S
C1449 C1451 1.561 . S
C1449 C1452 1.526 . S
C1450 H1434 0.959 . S
C1450 H1435 0.959 . S
C1450 H1436 0.961 . S
C1450 C1449 1.502 . S
C1451 H1437 0.960 . S
C1451 H1438 0.961 . S
C1451 H1439 0.959 . S
C1451 C1449 1.561 . S
C1452 C1449 1.526 . S
C1452 C1453 1.396 . S
C1452 C1457 1.390 . S
C1453 C1447 1.465 . S
C1453 C1452 1.396 . S
C1453 C1454 1.399 . S
C1454 H1440 0.929 . S
C1454 C1453 1.399 . S
C1454 C1455 1.385 . S
C1455 H1441 0.931 . S
C1455 C1454 1.385 . S
C1455 C1456 1.389 . S
C1456 C1455 1.389 . S
C1456 C1457 1.387 . S
C1457 H1442 0.930 . S
C1457 C1452 1.390 . S
C1457 C1456 1.387 . S
H1458 C1470 0.930 . S
H1459 C1472 0.930 . S
H1460 C1473 0.930 . S
H1461 C1477 0.959 . S
H1462 C1477 0.959 . S
H1463 C1477 0.961 . S
H1464 C1478 0.960 . S
H1465 C1478 0.961 . S
H1466 C1478 0.959 . S
H1467 C1481 0.929 . S
H1468 C1482 0.931 . S
H1469 C1484 0.930 . S
C1470 H1458 0.930 . S
C1470 C1471 1.399 . S
C1470 C1475 1.399 . S
C1471 C1470 1.399 . S
C1471 C1472 1.376 . S
C1472 H1459 0.930 . S
C1472 C1471 1.376 . S
C1472 C1473 1.388 . S
C1473 H1460 0.930 . S
C1473 C1472 1.388 . S
C1473 C1474 1.390 . S
C1474 C1473 1.390 . S
C1474 C1475 1.394 . S
C1474 C1480 1.465 . S
C1475 C1470 1.399 . S
C1475 C1474 1.394 . S
C1475 C1476 1.516 . S
C1476 C1475 1.516 . S
C1476 C1477 1.502 . S
C1476 C1478 1.561 . S
C1476 C1479 1.526 . S
C1477 H1461 0.959 . S
C1477 H1462 0.959 . S
C1477 H1463 0.961 . S
C1477 C1476 1.502 . S
C1478 H1464 0.960 . S
C1478 H1465 0.961 . S
C1478 H1466 0.959 . S
C1478 C1476 1.561 . S
C1479 C1476 1.526 . S
C1479 C1480 1.396 . S
C1479 C1484 1.390 . S
C1480 C1474 1.465 . S
C1480 C1479 1.396 . S
C1480 C1481 1.399 . S
C1481 H1467 0.929 . S
C1481 C1480 1.399 . S
C1481 C1482 1.385 . S
C1482 H1468 0.931 . S
C1482 C1481 1.385 . S
C1482 C1483 1.389 . S
C1483 C1482 1.389 . S
C1483 C1484 1.387 . S
C1484 H1469 0.930 . S
C1484 C1479 1.390 . S
C1484 C1483 1.387 . S
H1485 C1497 0.930 . S
H1486 C1499 0.930 . S
H1487 C1500 0.930 . S
H1488 C1504 0.959 . S
H1489 C1504 0.959 . S
H1490 C1504 0.961 . S
H1491 C1505 0.960 . S
H1492 C1505 0.961 . S
H1493 C1505 0.959 . S
H1494 C1508 0.929 . S
H1495 C1509 0.931 . S
H1496 C1511 0.930 . S
C1497 H1485 0.930 . S
C1497 C1498 1.399 . S
C1497 C1502 1.399 . S
C1498 C1497 1.399 . S
C1498 C1499 1.376 . S
C1499 H1486 0.930 . S
C1499 C1498 1.376 . S
C1499 C1500 1.388 . S
C1500 H1487 0.930 . S
C1500 C1499 1.388 . S
C1500 C1501 1.390 . S
C1501 C1500 1.390 . S
C1501 C1502 1.394 . S
C1501 C1507 1.465 . S
C1502 C1497 1.399 . S
C1502 C1501 1.394 . S
C1502 C1503 1.516 . S
C1503 C1502 1.516 . S
C1503 C1504 1.502 . S
C1503 C1505 1.561 . S
C1503 C1506 1.526 . S
C1504 H1488 0.959 . S
C1504 H1489 0.959 . S
C1504 H1490 0.961 . S
C1504 C1503 1.502 . S
C1505 H1491 0.960 . S
C1505 H1492 0.961 . S
C1505 H1493 0.959 . S
C1505 C1503 1.561 . S
C1506 C1503 1.526 . S
C1506 C1507 1.396 . S
C1506 C1511 1.390 . S
C1507 C1501 1.465 . S
C1507 C1506 1.396 . S
C1507 C1508 1.399 . S
C1508 H1494 0.929 . S
C1508 C1507 1.399 . S
C1508 C1509 1.385 . S
C1509 H1495 0.931 . S
C1509 C1508 1.385 . S
C1509 C1510 1.389 . S
C1510 C1509 1.389 . S
C1510 C1511 1.387 . S
C1511 H1496 0.930 . S
C1511 C1506 1.390 . S
C1511 C1510 1.387 . S
H1512 C1524 0.930 . S
H1513 C1526 0.930 . S
H1514 C1527 0.930 . S
H1515 C1531 0.959 . S
H1516 C1531 0.959 . S
H1517 C1531 0.961 . S
H1518 C1532 0.960 . S
H1519 C1532 0.961 . S
H1520 C1532 0.959 . S
H1521 C1535 0.929 . S
H1522 C1536 0.931 . S
H1523 C1538 0.930 . S
C1524 H1512 0.930 . S
C1524 C1525 1.399 . S
C1524 C1529 1.399 . S
C1525 C1524 1.399 . S
C1525 C1526 1.376 . S
C1526 H1513 0.930 . S
C1526 C1525 1.376 . S
C1526 C1527 1.388 . S
C1527 H1514 0.930 . S
C1527 C1526 1.388 . S
C1527 C1528 1.390 . S
C1528 C1527 1.390 . S
C1528 C1529 1.394 . S
C1528 C1534 1.465 . S
C1529 C1524 1.399 . S
C1529 C1528 1.394 . S
C1529 C1530 1.516 . S
C1530 C1529 1.516 . S
C1530 C1531 1.502 . S
C1530 C1532 1.561 . S
C1530 C1533 1.526 . S
C1531 H1515 0.959 . S
C1531 H1516 0.959 . S
C1531 H1517 0.961 . S
C1531 C1530 1.502 . S
C1532 H1518 0.960 . S
C1532 H1519 0.961 . S
C1532 H1520 0.959 . S
C1532 C1530 1.561 . S
C1533 C1530 1.526 . S
C1533 C1534 1.396 . S
C1533 C1538 1.390 . S
C1534 C1528 1.465 . S
C1534 C1533 1.396 . S
C1534 C1535 1.399 . S
C1535 H1521 0.929 . S
C1535 C1534 1.399 . S
C1535 C1536 1.385 . S
C1536 H1522 0.931 . S
C1536 C1535 1.385 . S
C1536 C1537 1.389 . S
C1537 C1536 1.389 . S
C1537 C1538 1.387 . S
C1538 H1523 0.930 . S
C1538 C1533 1.390 . S
C1538 C1537 1.387 . S
H1539 C1551 0.930 . S
H1540 C1553 0.930 . S
H1541 C1554 0.930 1_556 S
H1542 C1558 0.959 . S
H1543 C1558 0.959 . S
H1544 C1558 0.961 1_554 S
H1545 C1559 0.960 1_554 S
H1546 C1559 0.961 . S
H1547 C1559 0.959 . S
H1548 C1562 0.929 . S
H1549 C1563 0.931 . S
H1550 C1565 0.930 . S
C1551 H1539 0.930 . S
C1551 C1552 1.399 . S
C1551 C1556 1.399 . S
C1552 C1551 1.399 . S
C1552 C1553 1.376 . S
C1553 H1540 0.930 . S
C1553 C1552 1.376 . S
C1553 C1554 1.388 . S
C1554 H1541 0.930 1_554 S
C1554 C1553 1.388 . S
C1554 C1555 1.390 1_554 S
C1555 C1554 1.390 1_556 S
C1555 C1556 1.394 1_556 S
C1555 C1561 1.465 . S
C1556 C1551 1.399 . S
C1556 C1555 1.394 1_554 S
C1556 C1557 1.516 1_554 S
C1557 C1556 1.516 1_556 S
C1557 C1558 1.502 . S
C1557 C1559 1.561 . S
C1557 C1560 1.526 . S
C1558 H1542 0.959 . S
C1558 H1543 0.959 . S
C1558 H1544 0.961 1_556 S
C1558 C1557 1.502 . S
C1559 H1545 0.960 1_556 S
C1559 H1546 0.961 . S
C1559 H1547 0.959 . S
C1559 C1557 1.561 . S
C1560 C1557 1.526 . S
C1560 C1561 1.396 . S
C1560 C1565 1.390 . S
C1561 C1555 1.465 . S
C1561 C1560 1.396 . S
C1561 C1562 1.399 . S
C1562 H1548 0.929 . S
C1562 C1561 1.399 . S
C1562 C1563 1.385 . S
C1563 H1549 0.931 . S
C1563 C1562 1.385 . S
C1563 C1564 1.389 . S
C1564 C1563 1.389 . S
C1564 C1565 1.387 . S
C1565 H1550 0.930 . S
C1565 C1560 1.390 . S
C1565 C1564 1.387 . S
H1566 C1578 0.930 . S
H1567 C1580 0.930 . S
H1568 C1581 0.930 . S
H1569 C1585 0.959 . S
H1570 C1585 0.959 . S
H1571 C1585 0.961 . S
H1572 C1586 0.960 . S
H1573 C1586 0.961 . S
H1574 C1586 0.959 . S
H1575 C1589 0.929 . S
H1576 C1590 0.931 . S
H1577 C1592 0.930 . S
C1578 H1566 0.930 . S
C1578 C1579 1.399 . S
C1578 C1583 1.399 . S
C1579 C1578 1.399 . S
C1579 C1580 1.376 . S
C1580 H1567 0.930 . S
C1580 C1579 1.376 . S
C1580 C1581 1.388 . S
C1581 H1568 0.930 . S
C1581 C1580 1.388 . S
C1581 C1582 1.390 . S
C1582 C1581 1.390 . S
C1582 C1583 1.394 . S
C1582 C1588 1.465 . S
C1583 C1578 1.399 . S
C1583 C1582 1.394 . S
C1583 C1584 1.516 . S
C1584 C1583 1.516 . S
C1584 C1585 1.502 . S
C1584 C1586 1.561 . S
C1584 C1587 1.526 . S
C1585 H1569 0.959 . S
C1585 H1570 0.959 . S
C1585 H1571 0.961 . S
C1585 C1584 1.502 . S
C1586 H1572 0.960 . S
C1586 H1573 0.961 . S
C1586 H1574 0.959 . S
C1586 C1584 1.561 . S
C1587 C1584 1.526 . S
C1587 C1588 1.396 . S
C1587 C1592 1.390 . S
C1588 C1582 1.465 . S
C1588 C1587 1.396 . S
C1588 C1589 1.399 . S
C1589 H1575 0.929 . S
C1589 C1588 1.399 . S
C1589 C1590 1.385 . S
C1590 H1576 0.931 . S
C1590 C1589 1.385 . S
C1590 C1591 1.389 . S
C1591 C1590 1.389 . S
C1591 C1592 1.387 . S
C1592 H1577 0.930 . S
C1592 C1587 1.390 . S
C1592 C1591 1.387 . S
H1593 C1605 0.930 . S
H1594 C1607 0.930 . S
H1595 C1608 0.930 . S
H1596 C1612 0.959 . S
H1597 C1612 0.959 . S
H1598 C1612 0.961 . S
H1599 C1613 0.960 . S
H1600 C1613 0.961 1_556 S
H1601 C1613 0.959 . S
H1602 C1616 0.929 . S
H1603 C1617 0.931 . S
H1604 C1619 0.930 . S
C1605 H1593 0.930 . S
C1605 C1606 1.399 . S
C1605 C1610 1.399 . S
C1606 C1605 1.399 . S
C1606 C1607 1.376 . S
C1607 H1594 0.930 . S
C1607 C1606 1.376 . S
C1607 C1608 1.388 . S
C1608 H1595 0.930 . S
C1608 C1607 1.388 . S
C1608 C1609 1.390 . S
C1609 C1608 1.390 . S
C1609 C1610 1.394 . S
C1609 C1615 1.465 . S
C1610 C1605 1.399 . S
C1610 C1609 1.394 . S
C1610 C1611 1.516 . S
C1611 C1610 1.516 . S
C1611 C1612 1.502 . S
C1611 C1613 1.561 . S
C1611 C1614 1.526 1_554 S
C1612 H1596 0.959 . S
C1612 H1597 0.959 . S
C1612 H1598 0.961 . S
C1612 C1611 1.502 . S
C1613 H1599 0.960 . S
C1613 H1600 0.961 1_554 S
C1613 H1601 0.959 . S
C1613 C1611 1.561 . S
C1614 C1611 1.526 1_556 S
C1614 C1615 1.396 1_556 S
C1614 C1619 1.390 . S
C1615 C1609 1.465 . S
C1615 C1614 1.396 1_554 S
C1615 C1616 1.399 1_554 S
C1616 H1602 0.929 . S
C1616 C1615 1.399 1_556 S
C1616 C1617 1.385 . S
C1617 H1603 0.931 . S
C1617 C1616 1.385 . S
C1617 C1618 1.389 . S
C1618 C1617 1.389 . S
C1618 C1619 1.387 . S
C1619 H1604 0.930 . S
C1619 C1614 1.390 . S
C1619 C1618 1.387 . S
H1620 C1632 0.930 . S
H1621 C1634 0.930 . S
H1622 C1635 0.930 . S
H1623 C1639 0.959 . S
H1624 C1639 0.959 . S
H1625 C1639 0.961 . S
H1626 C1640 0.960 . S
H1627 C1640 0.961 . S
H1628 C1640 0.959 . S
H1629 C1643 0.929 . S
H1630 C1644 0.931 . S
H1631 C1646 0.930 . S
C1632 H1620 0.930 . S
C1632 C1633 1.399 . S
C1632 C1637 1.399 . S
C1633 C1632 1.399 . S
C1633 C1634 1.376 . S
C1634 H1621 0.930 . S
C1634 C1633 1.376 . S
C1634 C1635 1.388 . S
C1635 H1622 0.930 . S
C1635 C1634 1.388 . S
C1635 C1636 1.390 . S
C1636 C1635 1.390 . S
C1636 C1637 1.394 . S
C1636 C1642 1.465 . S
C1637 C1632 1.399 . S
C1637 C1636 1.394 . S
C1637 C1638 1.516 . S
C1638 C1637 1.516 . S
C1638 C1639 1.502 . S
C1638 C1640 1.561 . S
C1638 C1641 1.526 . S
C1639 H1623 0.959 . S
C1639 H1624 0.959 . S
C1639 H1625 0.961 . S
C1639 C1638 1.502 . S
C1640 H1626 0.960 . S
C1640 H1627 0.961 . S
C1640 H1628 0.959 . S
C1640 C1638 1.561 . S
C1641 C1638 1.526 . S
C1641 C1642 1.396 . S
C1641 C1646 1.390 . S
C1642 C1636 1.465 . S
C1642 C1641 1.396 . S
C1642 C1643 1.399 . S
C1643 H1629 0.929 . S
C1643 C1642 1.399 . S
C1643 C1644 1.385 . S
C1644 H1630 0.931 . S
C1644 C1643 1.385 . S
C1644 C1645 1.389 . S
C1645 C1644 1.389 . S
C1645 C1646 1.387 . S
C1646 H1631 0.930 . S
C1646 C1641 1.390 . S
C1646 C1645 1.387 . S
H1647 C1659 0.930 . S
H1648 C1661 0.930 . S
H1649 C1662 0.915 1_455 S
H1650 C1666 0.959 . S
H1651 C1666 0.959 . S
H1652 C1666 0.961 1_655 S
H1653 C1667 0.960 1_655 S
H1654 C1667 0.961 . S
H1655 C1667 0.959 . S
H1656 C1670 0.929 . S
H1657 C1671 0.931 . S
H1658 C1673 0.930 . S
C1659 H1647 0.930 . S
C1659 C1660 1.399 . S
C1659 C1664 1.399 . S
C1660 C1659 1.399 . S
C1660 C1661 1.376 . S
C1661 H1648 0.930 . S
C1661 C1660 1.376 . S
C1661 C1662 1.416 . S
C1662 H1649 0.915 1_655 S
C1662 C1661 1.416 . S
C1662 C1663 1.378 1_655 S
C1663 C1662 1.378 1_455 S
C1663 C1664 1.394 1_455 S
C1663 C1669 1.465 . S
C1664 C1659 1.399 . S
C1664 C1663 1.394 1_655 S
C1664 C1665 1.516 1_655 S
C1665 C1664 1.516 1_455 S
C1665 C1666 1.502 . S
C1665 C1667 1.561 . S
C1665 C1668 1.526 . S
C1666 H1650 0.959 . S
C1666 H1651 0.959 . S
C1666 H1652 0.961 1_455 S
C1666 C1665 1.502 . S
C1667 H1653 0.960 1_455 S
C1667 H1654 0.961 . S
C1667 H1655 0.959 . S
C1667 C1665 1.561 . S
C1668 C1665 1.526 . S
C1668 C1669 1.396 . S
C1668 C1673 1.390 . S
C1669 C1663 1.465 . S
C1669 C1668 1.396 . S
C1669 C1670 1.399 . S
C1670 H1656 0.929 . S
C1670 C1669 1.399 . S
C1670 C1671 1.385 . S
C1671 H1657 0.931 . S
C1671 C1670 1.385 . S
C1671 C1672 1.389 . S
C1672 C1671 1.389 . S
C1672 C1673 1.387 . S
C1673 H1658 0.930 . S
C1673 C1668 1.390 . S
C1673 C1672 1.387 . S
H1674 C1686 0.930 . S
H1675 C1688 0.930 . S
H1676 C1689 0.930 . S
H1677 C1693 0.959 . S
H1678 C1693 0.959 . S
H1679 C1693 0.961 . S
H1680 C1694 0.960 . S
H1681 C1694 0.961 . S
H1682 C1694 0.959 . S
H1683 C1697 0.929 . S
H1684 C1698 0.931 . S
H1685 C1700 0.930 . S
C1686 H1674 0.930 . S
C1686 C1687 1.399 . S
C1686 C1691 1.399 1_455 S
C1687 C1686 1.399 . S
C1687 C1688 1.376 . S
C1688 H1675 0.930 . S
C1688 C1687 1.376 . S
C1688 C1689 1.388 . S
C1689 H1676 0.930 . S
C1689 C1688 1.388 . S
C1689 C1690 1.390 1_455 S
C1690 C1689 1.390 1_655 S
C1690 C1691 1.394 . S
C1690 C1696 1.465 . S
C1691 C1686 1.399 1_655 S
C1691 C1690 1.394 . S
C1691 C1692 1.516 . S
C1692 C1691 1.516 . S
C1692 C1693 1.502 . S
C1692 C1694 1.561 . S
C1692 C1695 1.526 . S
C1693 H1677 0.959 . S
C1693 H1678 0.959 . S
C1693 H1679 0.961 . S
C1693 C1692 1.502 . S
C1694 H1680 0.960 . S
C1694 H1681 0.961 . S
C1694 H1682 0.959 . S
C1694 C1692 1.561 . S
C1695 C1692 1.526 . S
C1695 C1696 1.396 . S
C1695 C1700 1.390 . S
C1696 C1690 1.465 . S
C1696 C1695 1.396 . S
C1696 C1697 1.399 . S
C1697 H1683 0.929 . S
C1697 C1696 1.399 . S
C1697 C1698 1.385 . S
C1698 H1684 0.931 . S
C1698 C1697 1.385 . S
C1698 C1699 1.389 . S
C1699 C1698 1.389 . S
C1699 C1700 1.387 . S
C1700 H1685 0.930 . S
C1700 C1695 1.390 . S
C1700 C1699 1.387 . S
H1701 C1713 0.930 . S
H1702 C1715 0.930 . S
H1703 C1716 0.930 . S
H1704 C1720 0.959 . S
H1705 C1720 0.959 . S
H1706 C1720 0.961 . S
H1707 C1721 0.960 . S
H1708 C1721 0.961 . S
H1709 C1721 0.959 . S
H1710 C1724 0.929 . S
H1711 C1725 0.931 . S
H1712 C1727 0.930 . S
C1713 H1701 0.930 . S
C1713 C1714 1.399 . S
C1713 C1718 1.399 . S
C1714 C1713 1.399 . S
C1714 C1715 1.376 . S
C1715 H1702 0.930 . S
C1715 C1714 1.376 . S
C1715 C1716 1.388 . S
C1716 H1703 0.930 . S
C1716 C1715 1.388 . S
C1716 C1717 1.390 . S
C1717 C1716 1.390 . S
C1717 C1718 1.394 . S
C1717 C1723 1.465 . S
C1718 C1713 1.399 . S
C1718 C1717 1.394 . S
C1718 C1719 1.516 . S
C1719 C1718 1.516 . S
C1719 C1720 1.502 . S
C1719 C1721 1.561 . S
C1719 C1722 1.526 . S
C1720 H1704 0.959 . S
C1720 H1705 0.959 . S
C1720 H1706 0.961 . S
C1720 C1719 1.502 . S
C1721 H1707 0.960 . S
C1721 H1708 0.961 . S
C1721 H1709 0.959 . S
C1721 C1719 1.561 . S
C1722 C1719 1.526 . S
C1722 C1723 1.396 . S
C1722 C1727 1.390 . S
C1723 C1717 1.465 . S
C1723 C1722 1.396 . S
C1723 C1724 1.399 . S
C1724 H1710 0.929 . S
C1724 C1723 1.399 . S
C1724 C1725 1.385 . S
C1725 H1711 0.931 . S
C1725 C1724 1.385 . S
C1725 C1726 1.389 . S
C1726 C1725 1.389 . S
C1726 C1727 1.387 . S
C1727 H1712 0.930 . S
C1727 C1722 1.390 . S
C1727 C1726 1.387 . S
H1728 C1740 0.930 . S
H1729 C1742 0.930 . S
H1730 C1743 0.930 . S
H1731 C1747 0.959 . S
H1732 C1747 0.959 . S
H1733 C1747 0.961 . S
H1734 C1748 0.960 . S
H1735 C1748 0.961 . S
H1736 C1748 0.959 . S
H1737 C1751 0.929 . S
H1738 C1752 0.931 . S
H1739 C1754 0.930 . S
C1740 H1728 0.930 . S
C1740 C1741 1.399 . S
C1740 C1745 1.399 . S
C1741 C1740 1.399 . S
C1741 C1742 1.376 . S
C1742 H1729 0.930 . S
C1742 C1741 1.376 . S
C1742 C1743 1.388 . S
C1743 H1730 0.930 . S
C1743 C1742 1.388 . S
C1743 C1744 1.390 . S
C1744 C1743 1.390 . S
C1744 C1745 1.394 . S
C1744 C1750 1.465 . S
C1745 C1740 1.399 . S
C1745 C1744 1.394 . S
C1745 C1746 1.516 . S
C1746 C1745 1.516 . S
C1746 C1747 1.502 . S
C1746 C1748 1.561 . S
C1746 C1749 1.526 . S
C1747 H1731 0.959 . S
C1747 H1732 0.959 . S
C1747 H1733 0.961 . S
C1747 C1746 1.502 . S
C1748 H1734 0.960 . S
C1748 H1735 0.961 . S
C1748 H1736 0.959 . S
C1748 C1746 1.561 . S
C1749 C1746 1.526 . S
C1749 C1750 1.396 . S
C1749 C1754 1.390 . S
C1750 C1744 1.465 . S
C1750 C1749 1.396 . S
C1750 C1751 1.399 . S
C1751 H1737 0.929 . S
C1751 C1750 1.399 . S
C1751 C1752 1.385 . S
C1752 H1738 0.931 . S
C1752 C1751 1.385 . S
C1752 C1753 1.389 . S
C1753 C1752 1.389 . S
C1753 C1754 1.387 . S
C1754 H1739 0.930 . S
C1754 C1749 1.390 . S
C1754 C1753 1.387 . S
H1755 C1767 0.930 . S
H1756 C1769 0.930 . S
H1757 C1770 0.930 . S
H1758 C1774 0.959 . S
H1759 C1774 0.959 . S
H1760 C1774 0.961 . S
H1761 C1775 0.960 . S
H1762 C1775 0.961 . S
H1763 C1775 0.959 . S
H1764 C1778 0.929 . S
H1765 C1779 0.931 . S
H1766 C1781 0.930 . S
C1767 H1755 0.930 . S
C1767 C1768 1.399 . S
C1767 C1772 1.399 1_565 S
C1768 C1767 1.399 . S
C1768 C1769 1.376 . S
C1769 H1756 0.930 . S
C1769 C1768 1.376 . S
C1769 C1770 1.388 . S
C1770 H1757 0.930 . S
C1770 C1769 1.388 . S
C1770 C1771 1.390 1_565 S
C1771 C1770 1.390 1_545 S
C1771 C1772 1.394 . S
C1771 C1777 1.465 . S
C1772 C1767 1.399 1_545 S
C1772 C1771 1.394 . S
C1772 C1773 1.516 . S
C1773 C1772 1.516 . S
C1773 C1774 1.502 . S
C1773 C1775 1.561 . S
C1773 C1776 1.526 . S
C1774 H1758 0.959 . S
C1774 H1759 0.959 . S
C1774 H1760 0.961 . S
C1774 C1773 1.502 . S
C1775 H1761 0.960 . S
C1775 H1762 0.961 . S
C1775 H1763 0.959 . S
C1775 C1773 1.561 . S
C1776 C1773 1.526 . S
C1776 C1777 1.396 . S
C1776 C1781 1.390 . S
C1777 C1771 1.465 . S
C1777 C1776 1.396 . S
C1777 C1778 1.399 . S
C1778 H1764 0.929 . S
C1778 C1777 1.399 . S
C1778 C1779 1.385 . S
C1779 H1765 0.931 . S
C1779 C1778 1.385 . S
C1779 C1780 1.389 . S
C1780 C1779 1.389 . S
C1780 C1781 1.387 . S
C1781 H1766 0.930 . S
C1781 C1776 1.390 . S
C1781 C1780 1.387 . S
H1782 C1794 0.930 . S
H1783 C1796 0.930 . S
H1784 C1797 0.930 . S
H1785 C1801 0.959 . S
H1786 C1801 0.959 . S
H1787 C1801 0.961 1_545 S
H1788 C1802 0.960 1_545 S
H1789 C1802 0.961 . S
H1790 C1802 0.959 . S
H1791 C1805 0.929 . S
H1792 C1806 0.931 . S
H1793 C1808 0.930 . S
C1794 H1782 0.930 . S
C1794 C1795 1.399 . S
C1794 C1799 1.396 . S
C1795 C1794 1.399 . S
C1795 C1796 1.376 . S
C1796 H1783 0.930 . S
C1796 C1795 1.376 . S
C1796 C1797 1.388 1_545 S
C1797 H1784 0.930 . S
C1797 C1796 1.388 1_565 S
C1797 C1798 1.390 . S
C1798 C1797 1.390 . S
C1798 C1799 1.395 1_565 S
C1798 C1804 1.465 . S
C1799 C1794 1.396 . S
C1799 C1798 1.395 1_545 S
C1799 C1800 1.518 1_545 S
C1800 C1799 1.518 1_565 S
C1800 C1801 1.502 . S
C1800 C1802 1.561 . S
C1800 C1803 1.526 . S
C1801 H1785 0.959 . S
C1801 H1786 0.959 . S
C1801 H1787 0.961 1_565 S
C1801 C1800 1.502 . S
C1802 H1788 0.960 1_565 S
C1802 H1789 0.961 . S
C1802 H1790 0.959 . S
C1802 C1800 1.561 . S
C1803 C1800 1.526 . S
C1803 C1804 1.396 . S
C1803 C1808 1.390 . S
C1804 C1798 1.465 . S
C1804 C1803 1.396 . S
C1804 C1805 1.399 . S
C1805 H1791 0.929 . S
C1805 C1804 1.399 . S
C1805 C1806 1.385 . S
C1806 H1792 0.931 . S
C1806 C1805 1.385 . S
C1806 C1807 1.389 . S
C1807 C1806 1.389 . S
C1807 C1808 1.387 . S
C1808 H1793 0.930 . S
C1808 C1803 1.390 . S
C1808 C1807 1.387 . S
H1809 C1821 0.930 . S
H1810 C1823 0.930 . S
H1811 C1824 0.930 . S
H1812 C1828 0.959 . S
H1813 C1828 0.959 . S
H1814 C1828 0.961 . S
H1815 C1829 0.960 . S
H1816 C1829 0.961 . S
H1817 C1829 0.959 . S
H1818 C1832 0.929 . S
H1819 C1833 0.931 . S
H1820 C1835 0.930 . S
C1821 H1809 0.930 . S
C1821 C1822 1.399 . S
C1821 C1826 1.399 . S
C1822 C1821 1.399 . S
C1822 C1823 1.376 . S
C1823 H1810 0.930 . S
C1823 C1822 1.376 . S
C1823 C1824 1.388 . S
C1824 H1811 0.930 . S
C1824 C1823 1.388 . S
C1824 C1825 1.390 . S
C1825 C1824 1.390 . S
C1825 C1826 1.394 . S
C1825 C1831 1.465 . S
C1826 C1821 1.399 . S
C1826 C1825 1.394 . S
C1826 C1827 1.516 . S
C1827 C1826 1.516 . S
C1827 C1828 1.502 . S
C1827 C1829 1.561 . S
C1827 C1830 1.526 . S
C1828 H1812 0.959 . S
C1828 H1813 0.959 . S
C1828 H1814 0.961 . S
C1828 C1827 1.502 . S
C1829 H1815 0.960 . S
C1829 H1816 0.961 . S
C1829 H1817 0.959 . S
C1829 C1827 1.561 . S
C1830 C1827 1.526 . S
C1830 C1831 1.396 . S
C1830 C1835 1.390 . S
C1831 C1825 1.465 . S
C1831 C1830 1.396 . S
C1831 C1832 1.399 . S
C1832 H1818 0.929 . S
C1832 C1831 1.399 . S
C1832 C1833 1.385 . S
C1833 H1819 0.931 . S
C1833 C1832 1.385 . S
C1833 C1834 1.389 . S
C1834 C1833 1.389 . S
C1834 C1835 1.387 . S
C1835 H1820 0.930 . S
C1835 C1830 1.390 . S
C1835 C1834 1.387 . S
H1836 C1848 0.930 . S
H1837 C1850 0.930 . S
H1838 C1851 0.930 . S
H1839 C1855 0.959 . S
H1840 C1855 0.959 . S
H1841 C1855 0.961 . S
H1842 C1856 0.960 . S
H1843 C1856 0.961 . S
H1844 C1856 0.959 . S
H1845 C1859 0.929 . S
H1846 C1860 0.931 . S
H1847 C1862 0.930 . S
C1848 H1836 0.930 . S
C1848 C1849 1.399 . S
C1848 C1853 1.399 . S
C1849 C1848 1.399 . S
C1849 C1850 1.376 . S
C1850 H1837 0.930 . S
C1850 C1849 1.376 . S
C1850 C1851 1.388 . S
C1851 H1838 0.930 . S
C1851 C1850 1.388 . S
C1851 C1852 1.390 . S
C1852 C1851 1.390 . S
C1852 C1853 1.394 . S
C1852 C1858 1.465 . S
C1853 C1848 1.399 . S
C1853 C1852 1.394 . S
C1853 C1854 1.516 . S
C1854 C1853 1.516 . S
C1854 C1855 1.502 . S
C1854 C1856 1.561 . S
C1854 C1857 1.526 . S
C1855 H1839 0.959 . S
C1855 H1840 0.959 . S
C1855 H1841 0.961 . S
C1855 C1854 1.502 . S
C1856 H1842 0.960 . S
C1856 H1843 0.961 . S
C1856 H1844 0.959 . S
C1856 C1854 1.561 . S
C1857 C1854 1.526 . S
C1857 C1858 1.396 . S
C1857 C1862 1.390 . S
C1858 C1852 1.465 . S
C1858 C1857 1.396 . S
C1858 C1859 1.399 . S
C1859 H1845 0.929 . S
C1859 C1858 1.399 . S
C1859 C1860 1.385 . S
C1860 H1846 0.931 . S
C1860 C1859 1.385 . S
C1860 C1861 1.389 . S
C1861 C1860 1.389 . S
C1861 C1862 1.387 . S
C1862 H1847 0.930 . S
C1862 C1857 1.390 . S
C1862 C1861 1.387 . S
H1863 C1875 0.930 . S
H1864 C1877 0.930 . S
H1865 C1878 0.930 . S
H1866 C1882 0.959 . S
H1867 C1882 0.959 . S
H1868 C1882 0.961 . S
H1869 C1883 0.960 . S
H1870 C1883 0.961 . S
H1871 C1883 0.959 . S
H1872 C1886 0.929 . S
H1873 C1887 0.931 . S
H1874 C1889 0.930 . S
C1875 H1863 0.930 . S
C1875 C1876 1.399 . S
C1875 C1880 1.399 1_556 S
C1876 C1875 1.399 . S
C1876 C1877 1.376 . S
C1877 H1864 0.930 . S
C1877 C1876 1.376 . S
C1877 C1878 1.388 . S
C1878 H1865 0.930 . S
C1878 C1877 1.388 . S
C1878 C1879 1.390 1_556 S
C1879 C1878 1.390 1_554 S
C1879 C1880 1.394 . S
C1879 C1885 1.465 . S
C1880 C1875 1.399 1_554 S
C1880 C1879 1.394 . S
C1880 C1881 1.516 . S
C1881 C1880 1.516 . S
C1881 C1882 1.502 . S
C1881 C1883 1.561 . S
C1881 C1884 1.526 . S
C1882 H1866 0.959 . S
C1882 H1867 0.959 . S
C1882 H1868 0.961 . S
C1882 C1881 1.502 . S
C1883 H1869 0.960 . S
C1883 H1870 0.961 . S
C1883 H1871 0.959 . S
C1883 C1881 1.561 . S
C1884 C1881 1.526 . S
C1884 C1885 1.396 . S
C1884 C1889 1.390 . S
C1885 C1879 1.465 . S
C1885 C1884 1.396 . S
C1885 C1886 1.399 . S
C1886 H1872 0.929 . S
C1886 C1885 1.399 . S
C1886 C1887 1.385 . S
C1887 H1873 0.931 . S
C1887 C1886 1.385 . S
C1887 C1888 1.389 . S
C1888 C1887 1.389 . S
C1888 C1889 1.387 . S
C1889 H1874 0.930 . S
C1889 C1884 1.390 . S
C1889 C1888 1.387 . S
H1890 C1902 0.930 . S
H1891 C1904 0.930 . S
H1892 C1905 0.930 . S
H1893 C1909 0.959 . S
H1894 C1909 0.959 . S
H1895 C1909 0.961 . S
H1896 C1910 0.960 . S
H1897 C1910 0.961 . S
H1898 C1910 0.959 . S
H1899 C1913 0.929 . S
H1900 C1914 0.931 . S
H1901 C1916 0.930 . S
C1902 H1890 0.930 . S
C1902 C1903 1.399 . S
C1902 C1907 1.399 . S
C1903 C1902 1.399 . S
C1903 C1904 1.376 . S
C1904 H1891 0.930 . S
C1904 C1903 1.376 . S
C1904 C1905 1.388 . S
C1905 H1892 0.930 . S
C1905 C1904 1.388 . S
C1905 C1906 1.390 . S
C1906 C1905 1.390 . S
C1906 C1907 1.394 . S
C1906 C1912 1.465 . S
C1907 C1902 1.399 . S
C1907 C1906 1.394 . S
C1907 C1908 1.516 . S
C1908 C1907 1.516 . S
C1908 C1909 1.502 . S
C1908 C1910 1.561 . S
C1908 C1911 1.526 . S
C1909 H1893 0.959 . S
C1909 H1894 0.959 . S
C1909 H1895 0.961 . S
C1909 C1908 1.502 . S
C1910 H1896 0.960 . S
C1910 H1897 0.961 . S
C1910 H1898 0.959 . S
C1910 C1908 1.561 . S
C1911 C1908 1.526 . S
C1911 C1912 1.396 . S
C1911 C1916 1.390 . S
C1912 C1906 1.465 . S
C1912 C1911 1.396 . S
C1912 C1913 1.399 . S
C1913 H1899 0.929 . S
C1913 C1912 1.399 . S
C1913 C1914 1.385 . S
C1914 H1900 0.931 . S
C1914 C1913 1.385 . S
C1914 C1915 1.389 . S
C1915 C1914 1.389 . S
C1915 C1916 1.387 . S
C1916 H1901 0.930 . S
C1916 C1911 1.390 . S
C1916 C1915 1.387 . S
H1917 C1929 0.930 . S
H1918 C1931 0.930 . S
H1919 C1932 0.937 . S
H1920 C1936 0.959 . S
H1921 C1936 0.959 . S
H1922 C1936 0.961 . S
H1923 C1937 0.960 . S
H1924 C1937 0.961 . S
H1925 C1937 0.959 . S
H1926 C1940 0.929 . S
H1927 C1941 0.931 . S
H1928 C1943 0.930 . S
C1929 H1917 0.930 . S
C1929 C1930 1.399 . S
C1929 C1934 1.399 1_554 S
C1930 C1929 1.399 . S
C1930 C1931 1.376 . S
C1931 H1918 0.930 . S
C1931 C1930 1.376 . S
C1931 C1932 1.388 . S
C1932 H1919 0.937 . S
C1932 C1931 1.388 . S
C1932 C1933 1.390 1_554 S
C1933 C1932 1.390 1_556 S
C1933 C1934 1.394 . S
C1933 C1939 1.465 . S
C1934 C1929 1.399 1_556 S
C1934 C1933 1.394 . S
C1934 C1935 1.516 . S
C1935 C1934 1.516 . S
C1935 C1936 1.502 . S
C1935 C1937 1.561 . S
C1935 C1938 1.526 . S
C1936 H1920 0.959 . S
C1936 H1921 0.959 . S
C1936 H1922 0.961 . S
C1936 C1935 1.502 . S
C1937 H1923 0.960 . S
C1937 H1924 0.961 . S
C1937 H1925 0.959 . S
C1937 C1935 1.561 . S
C1938 C1935 1.526 . S
C1938 C1939 1.396 . S
C1938 C1943 1.390 . S
C1939 C1933 1.465 . S
C1939 C1938 1.396 . S
C1939 C1940 1.399 . S
C1940 H1926 0.929 . S
C1940 C1939 1.399 . S
C1940 C1941 1.385 . S
C1941 H1927 0.931 . S
C1941 C1940 1.385 . S
C1941 C1942 1.389 . S
C1942 C1941 1.389 . S
C1942 C1943 1.387 . S
C1943 H1928 0.930 . S
C1943 C1938 1.390 . S
C1943 C1942 1.387 . S
H1944 C1956 0.930 . S
H1945 C1958 0.930 . S
H1946 C1959 0.930 . S
H1947 C1963 0.959 . S
H1948 C1963 0.959 . S
H1949 C1963 0.961 . S
H1950 C1964 0.960 . S
H1951 C1964 0.961 . S
H1952 C1964 0.959 . S
H1953 C1967 0.929 . S
H1954 C1968 0.931 . S
H1955 C1970 0.930 . S
C1956 H1944 0.930 . S
C1956 C1957 1.399 . S
C1956 C1961 1.399 . S
C1957 C1956 1.399 . S
C1957 C1958 1.376 . S
C1958 H1945 0.930 . S
C1958 C1957 1.376 . S
C1958 C1959 1.388 . S
C1959 H1946 0.930 . S
C1959 C1958 1.388 . S
C1959 C1960 1.390 . S
C1960 C1959 1.390 . S
C1960 C1961 1.394 . S
C1960 C1966 1.465 . S
C1961 C1956 1.399 . S
C1961 C1960 1.394 . S
C1961 C1962 1.516 . S
C1962 C1961 1.516 . S
C1962 C1963 1.502 . S
C1962 C1964 1.561 . S
C1962 C1965 1.526 . S
C1963 H1947 0.959 . S
C1963 H1948 0.959 . S
C1963 H1949 0.961 . S
C1963 C1962 1.502 . S
C1964 H1950 0.960 . S
C1964 H1951 0.961 . S
C1964 H1952 0.959 . S
C1964 C1962 1.561 . S
C1965 C1962 1.526 . S
C1965 C1966 1.396 . S
C1965 C1970 1.390 . S
C1966 C1960 1.465 . S
C1966 C1965 1.396 . S
C1966 C1967 1.399 . S
C1967 H1953 0.929 . S
C1967 C1966 1.399 . S
C1967 C1968 1.385 . S
C1968 H1954 0.931 . S
C1968 C1967 1.385 . S
C1968 C1969 1.389 . S
C1969 C1968 1.389 . S
C1969 C1970 1.387 . S
C1970 H1955 0.930 . S
C1970 C1965 1.390 . S
C1970 C1969 1.387 . S
H1971 C1983 0.930 . S
H1972 C1985 0.930 . S
H1973 C1986 0.930 . S
H1974 C1990 0.959 . S
H1975 C1990 0.959 . S
H1976 C1990 0.961 . S
H1977 C1991 0.960 . S
H1978 C1991 0.961 . S
H1979 C1991 0.959 . S
H1980 C1994 0.929 . S
H1981 C1995 0.931 . S
H1982 C1997 0.930 . S
C1983 H1971 0.930 . S
C1983 C1984 1.399 . S
C1983 C1988 1.399 . S
C1984 C1983 1.399 . S
C1984 C1985 1.376 . S
C1985 H1972 0.930 . S
C1985 C1984 1.376 . S
C1985 C1986 1.388 . S
C1986 H1973 0.930 . S
C1986 C1985 1.388 . S
C1986 C1987 1.390 . S
C1987 C1986 1.390 . S
C1987 C1988 1.394 . S
C1987 C1993 1.465 . S
C1988 C1983 1.399 . S
C1988 C1987 1.394 . S
C1988 C1989 1.516 . S
C1989 C1988 1.516 . S
C1989 C1990 1.502 . S
C1989 C1991 1.561 . S
C1989 C1992 1.554 . S
C1990 H1974 0.959 . S
C1990 H1975 0.959 . S
C1990 H1976 0.961 . S
C1990 C1989 1.502 . S
C1991 H1977 0.960 . S
C1991 H1978 0.961 . S
C1991 H1979 0.959 . S
C1991 C1989 1.561 . S
C1992 C1989 1.554 . S
C1992 C1993 1.403 . S
C1992 C1997 1.359 1_655 S
C1993 C1987 1.465 . S
C1993 C1992 1.403 . S
C1993 C1994 1.399 1_655 S
C1994 H1980 0.929 . S
C1994 C1993 1.399 1_455 S
C1994 C1995 1.385 . S
C1995 H1981 0.931 . S
C1995 C1994 1.385 . S
C1995 C1996 1.389 . S
C1996 C1995 1.389 . S
C1996 C1997 1.387 . S
C1997 H1982 0.930 . S
C1997 C1992 1.359 1_455 S
C1997 C1996 1.387 . S
H1998 C2010 0.930 . S
H1999 C2012 0.930 . S
H2000 C2013 0.930 . S
H2001 C2017 0.959 . S
H2002 C2017 0.959 . S
H2003 C2017 0.961 . S
H2004 C2018 0.960 . S
H2005 C2018 0.961 . S
H2006 C2018 0.959 . S
H2007 C2021 0.929 . S
H2008 C2022 0.931 . S
H2009 C2024 0.930 . S
C2010 H1998 0.930 . S
C2010 C2011 1.399 . S
C2010 C2015 1.399 . S
C2011 C2010 1.399 . S
C2011 C2012 1.376 . S
C2012 H1999 0.930 . S
C2012 C2011 1.376 . S
C2012 C2013 1.388 . S
C2013 H2000 0.930 . S
C2013 C2012 1.388 . S
C2013 C2014 1.390 . S
C2014 C2013 1.390 . S
C2014 C2015 1.394 . S
C2014 C2020 1.465 . S
C2015 C2010 1.399 . S
C2015 C2014 1.394 . S
C2015 C2016 1.516 . S
C2016 C2015 1.516 . S
C2016 C2017 1.502 . S
C2016 C2018 1.561 . S
C2016 C2019 1.544 . S
C2017 H2001 0.959 . S
C2017 H2002 0.959 . S
C2017 H2003 0.961 . S
C2017 C2016 1.502 . S
C2018 H2004 0.960 . S
C2018 H2005 0.961 . S
C2018 H2006 0.959 . S
C2018 C2016 1.561 . S
C2019 C2016 1.544 . S
C2019 C2020 1.401 . S
C2019 C2024 1.369 1_455 S
C2020 C2014 1.465 . S
C2020 C2019 1.401 . S
C2020 C2021 1.399 1_455 S
C2021 H2007 0.929 . S
C2021 C2020 1.399 1_655 S
C2021 C2022 1.385 . S
C2022 H2008 0.931 . S
C2022 C2021 1.385 . S
C2022 C2023 1.389 . S
C2023 C2022 1.389 . S
C2023 C2024 1.387 . S
C2024 H2009 0.930 . S
C2024 C2019 1.369 1_655 S
C2024 C2023 1.387 . S
H2025 C2037 0.930 . S
H2026 C2039 0.930 . S
H2027 C2040 0.930 . S
H2028 C2044 0.959 . S
H2029 C2044 0.959 . S
H2030 C2044 0.961 . S
H2031 C2045 0.960 . S
H2032 C2045 0.961 . S
H2033 C2045 0.959 . S
H2034 C2048 0.929 . S
H2035 C2049 0.931 . S
H2036 C2051 0.930 . S
C2037 H2025 0.930 . S
C2037 C2038 1.399 . S
C2037 C2042 1.399 . S
C2038 C2037 1.399 . S
C2038 C2039 1.376 . S
C2039 H2026 0.930 . S
C2039 C2038 1.376 . S
C2039 C2040 1.388 . S
C2040 H2027 0.930 . S
C2040 C2039 1.388 . S
C2040 C2041 1.390 . S
C2041 C2040 1.390 . S
C2041 C2042 1.394 . S
C2041 C2047 1.465 . S
C2042 C2037 1.399 . S
C2042 C2041 1.394 . S
C2042 C2043 1.516 . S
C2043 C2042 1.516 . S
C2043 C2044 1.502 . S
C2043 C2045 1.561 . S
C2043 C2046 1.526 . S
C2044 H2028 0.959 . S
C2044 H2029 0.959 . S
C2044 H2030 0.961 . S
C2044 C2043 1.502 . S
C2045 H2031 0.960 . S
C2045 H2032 0.961 . S
C2045 H2033 0.959 . S
C2045 C2043 1.561 . S
C2046 C2043 1.526 . S
C2046 C2047 1.396 . S
C2046 C2051 1.390 . S
C2047 C2041 1.465 . S
C2047 C2046 1.396 . S
C2047 C2048 1.399 . S
C2048 H2034 0.929 . S
C2048 C2047 1.399 . S
C2048 C2049 1.385 . S
C2049 H2035 0.931 . S
C2049 C2048 1.385 . S
C2049 C2050 1.389 . S
C2050 C2049 1.389 . S
C2050 C2051 1.387 . S
C2051 H2036 0.930 . S
C2051 C2046 1.390 . S
C2051 C2050 1.387 . S
H2052 C2064 0.930 . S
H2053 C2066 0.930 . S
H2054 C2067 0.930 . S
H2055 C2071 0.959 . S
H2056 C2071 0.959 . S
H2057 C2071 0.961 . S
H2058 C2072 0.960 . S
H2059 C2072 0.961 . S
H2060 C2072 0.959 . S
H2061 C2075 0.929 . S
H2062 C2076 0.931 . S
H2063 C2078 0.930 . S
C2064 H2052 0.930 . S
C2064 C2065 1.399 . S
C2064 C2069 1.399 . S
C2065 C2064 1.399 . S
C2065 C2066 1.376 . S
C2066 H2053 0.930 . S
C2066 C2065 1.376 . S
C2066 C2067 1.388 . S
C2067 H2054 0.930 . S
C2067 C2066 1.388 . S
C2067 C2068 1.390 . S
C2068 C2067 1.390 . S
C2068 C2069 1.394 . S
C2068 C2074 1.465 . S
C2069 C2064 1.399 . S
C2069 C2068 1.394 . S
C2069 C2070 1.516 . S
C2070 C2069 1.516 . S
C2070 C2071 1.502 . S
C2070 C2072 1.561 . S
C2070 C2073 1.526 . S
C2071 H2055 0.959 . S
C2071 H2056 0.959 . S
C2071 H2057 0.961 . S
C2071 C2070 1.502 . S
C2072 H2058 0.960 . S
C2072 H2059 0.961 . S
C2072 H2060 0.959 . S
C2072 C2070 1.561 . S
C2073 C2070 1.526 . S
C2073 C2074 1.396 . S
C2073 C2078 1.390 . S
C2074 C2068 1.465 . S
C2074 C2073 1.396 . S
C2074 C2075 1.399 . S
C2075 H2061 0.929 . S
C2075 C2074 1.399 . S
C2075 C2076 1.385 . S
C2076 H2062 0.931 . S
C2076 C2075 1.385 . S
C2076 C2077 1.389 . S
C2077 C2076 1.389 . S
C2077 C2078 1.387 . S
C2078 H2063 0.930 . S
C2078 C2073 1.390 . S
C2078 C2077 1.387 . S
H2079 C2091 0.930 . S
H2080 C2093 0.930 . S
H2081 C2094 0.930 . S
H2082 C2098 0.959 . S
H2083 C2098 0.959 . S
H2084 C2098 0.961 . S
H2085 C2099 0.960 . S
H2086 C2099 0.961 . S
H2087 C2099 0.959 . S
H2088 C2102 0.929 . S
H2089 C2103 0.931 . S
H2090 C2105 0.930 . S
C2091 H2079 0.930 . S
C2091 C2092 1.399 . S
C2091 C2096 1.399 . S
C2092 C2091 1.399 . S
C2092 C2093 1.376 . S
C2093 H2080 0.930 . S
C2093 C2092 1.376 . S
C2093 C2094 1.388 . S
C2094 H2081 0.930 . S
C2094 C2093 1.388 . S
C2094 C2095 1.390 . S
C2095 C2094 1.390 . S
C2095 C2096 1.394 . S
C2095 C2101 1.484 . S
C2096 C2091 1.399 . S
C2096 C2095 1.394 . S
C2096 C2097 1.516 . S
C2097 C2096 1.516 . S
C2097 C2098 1.502 . S
C2097 C2099 1.561 . S
C2097 C2100 1.526 1_565 S
C2098 H2082 0.959 . S
C2098 H2083 0.959 . S
C2098 H2084 0.961 . S
C2098 C2097 1.502 . S
C2099 H2085 0.960 . S
C2099 H2086 0.961 . S
C2099 H2087 0.959 . S
C2099 C2097 1.561 . S
C2100 C2097 1.526 1_545 S
C2100 C2101 1.394 1_545 S
C2100 C2105 1.390 . S
C2101 C2095 1.484 . S
C2101 C2100 1.394 1_565 S
C2101 C2102 1.383 1_565 S
C2102 H2088 0.929 . S
C2102 C2101 1.383 1_545 S
C2102 C2103 1.385 . S
C2103 H2089 0.931 . S
C2103 C2102 1.385 . S
C2103 C2104 1.389 . S
C2104 C2103 1.389 . S
C2104 C2105 1.387 . S
C2105 H2090 0.930 . S
C2105 C2100 1.390 . S
C2105 C2104 1.387 . S
H2106 C2118 0.930 . S
H2107 C2120 0.930 . S
H2108 C2121 0.930 1_545 S
H2109 C2125 0.959 . S
H2110 C2125 0.959 . S
H2111 C2125 0.961 1_565 S
H2112 C2126 0.960 1_565 S
H2113 C2126 0.961 . S
H2114 C2126 0.959 . S
H2115 C2129 0.929 . S
H2116 C2130 0.931 . S
H2117 C2132 0.930 . S
C2118 H2106 0.930 . S
C2118 C2119 1.399 . S
C2118 C2123 1.399 . S
C2119 C2118 1.399 . S
C2119 C2120 1.376 . S
C2120 H2107 0.930 . S
C2120 C2119 1.376 . S
C2120 C2121 1.388 . S
C2121 H2108 0.930 1_565 S
C2121 C2120 1.388 . S
C2121 C2122 1.390 1_565 S
C2122 C2121 1.390 1_545 S
C2122 C2123 1.394 1_545 S
C2122 C2128 1.465 . S
C2123 C2118 1.399 . S
C2123 C2122 1.394 1_565 S
C2123 C2124 1.516 1_565 S
C2124 C2123 1.516 1_545 S
C2124 C2125 1.502 . S
C2124 C2126 1.561 . S
C2124 C2127 1.526 . S
C2125 H2109 0.959 . S
C2125 H2110 0.959 . S
C2125 H2111 0.961 1_545 S
C2125 C2124 1.502 . S
C2126 H2112 0.960 1_545 S
C2126 H2113 0.961 . S
C2126 H2114 0.959 . S
C2126 C2124 1.561 . S
C2127 C2124 1.526 . S
C2127 C2128 1.396 . S
C2127 C2132 1.390 . S
C2128 C2122 1.465 . S
C2128 C2127 1.396 . S
C2128 C2129 1.399 . S
C2129 H2115 0.929 . S
C2129 C2128 1.399 . S
C2129 C2130 1.385 . S
C2130 H2116 0.931 . S
C2130 C2129 1.385 . S
C2130 C2131 1.389 . S
C2131 C2130 1.389 . S
C2131 C2132 1.387 . S
C2132 H2117 0.930 . S
C2132 C2127 1.390 . S
C2132 C2131 1.387 . S
H2133 C2145 0.930 . S
H2134 C2147 0.930 . S
H2135 C2148 0.930 . S
H2136 C2152 0.959 . S
H2137 C2152 0.959 . S
H2138 C2152 0.961 . S
H2139 C2153 0.960 . S
H2140 C2153 0.961 . S
H2141 C2153 0.959 . S
H2142 C2156 0.929 . S
H2143 C2157 0.931 . S
H2144 C2159 0.930 . S
C2145 H2133 0.930 . S
C2145 C2146 1.399 . S
C2145 C2150 1.399 . S
C2146 C2145 1.399 . S
C2146 C2147 1.376 . S
C2147 H2134 0.930 . S
C2147 C2146 1.376 . S
C2147 C2148 1.388 . S
C2148 H2135 0.930 . S
C2148 C2147 1.388 . S
C2148 C2149 1.390 . S
C2149 C2148 1.390 . S
C2149 C2150 1.394 . S
C2149 C2155 1.465 . S
C2150 C2145 1.399 . S
C2150 C2149 1.394 . S
C2150 C2151 1.516 . S
C2151 C2150 1.516 . S
C2151 C2152 1.502 . S
C2151 C2153 1.561 . S
C2151 C2154 1.526 . S
C2152 H2136 0.959 . S
C2152 H2137 0.959 . S
C2152 H2138 0.961 . S
C2152 C2151 1.502 . S
C2153 H2139 0.960 . S
C2153 H2140 0.961 . S
C2153 H2141 0.959 . S
C2153 C2151 1.561 . S
C2154 C2151 1.526 . S
C2154 C2155 1.396 . S
C2154 C2159 1.390 . S
C2155 C2149 1.465 . S
C2155 C2154 1.396 . S
C2155 C2156 1.399 . S
C2156 H2142 0.929 . S
C2156 C2155 1.399 . S
C2156 C2157 1.385 . S
C2157 H2143 0.931 . S
C2157 C2156 1.385 . S
C2157 C2158 1.389 . S
C2158 C2157 1.389 . S
C2158 C2159 1.387 . S
C2159 H2144 0.930 . S
C2159 C2154 1.390 . S
C2159 C2158 1.387 . S
C877 C291 1.007 . S
C889 C3 0.960 . S
C904 C39 1.024 . S
C916 C399 1.000 . S
C931 C75 0.955 . S
C943 C327 1.003 . S
C958 C111 1.024 . S
C970 C363 1.001 . S
C985 C147 1.019 . S
C997 C2 1.053 . S
C1012 C38 1.053 . S
C1024 C183 1.026 . S
C1039 C219 1.002 . S
C1051 C74 0.948 . S
C1066 C110 0.989 . S
C1078 C255 0.988 . S
C1093 C146 1.048 . S
C1105 C290 1.002 . S
C1120 C218 1.038 . S
C1132 C326 1.013 . S
C1147 C362 1.062 . S
C1159 C254 1.110 . S
C1174 C182 1.094 . S
C1186 C398 1.090 . S
C1201 C722 1.047 . S
C1213 C435 1.049 . S
C1228 C471 0.982 . S
C1240 C830 1.000 . S
C1255 C507 1.015 . S
C1267 C758 1.045 . S
C1282 C794 1.053 . S
C1294 C543 1.045 . S
C1309 C579 1.073 . S
C1321 C434 1.058 . S
C1336 C470 0.975 . S
C1348 C615 1.030 . S
C1363 C506 1.067 . S
C1375 C651 1.041 . S
C1390 C687 1.067 . S
C1402 C542 1.028 . S
C1417 C723 0.985 . S
C1429 C578 0.965 . S
C1444 C650 1.053 . S
C1456 C759 1.021 . S
C1471 C686 1.054 . S
C1483 C795 1.023 . S
C1498 C831 1.014 . S
C1510 C614 0.957 . S
C1525 C806 1.321 . S
C1537 C4 1.369 . S
C1552 C770 1.345 . S
C1564 C40 1.319 . S
C1579 C842 1.317 . S
C1591 C76 1.322 . S
C1606 C112 1.334 . S
C1618 C734 1.303 . S
C1633 C148 1.381 . S
C1645 C482 1.326 . S
C1660 C446 1.375 . S
C1672 C184 1.350 . S
C1687 C554 1.347 . S
C1699 C220 1.388 . S
C1714 C518 1.361 . S
C1726 C256 1.386 . S
C1741 C302 1.361 . S
C1753 C662 1.342 . S
C1768 C590 1.295 . S
C1780 C338 1.319 . S
C1795 C626 1.354 . S
C1807 C374 1.365 . S
C1822 C698 1.357 . S
C1834 C410 1.349 . S
C1849 C364 1.403 . S
C1861 C436 1.423 . S
C1876 C328 1.425 . S
C1888 C472 1.386 . S
C1903 C508 1.421 . S
C1915 C400 1.412 . S
C1930 C292 1.398 . S
C1942 C544 1.418 . S
C1957 C580 1.389 . S
C1969 C50 1.353 . S
C1984 C616 1.398 . S
C1996 C14 1.375 . S
C2011 C652 1.398 . S
C2023 C122 1.377 . S
C2038 C688 1.346 . S
C2050 C86 1.345 . S
C2065 C724 1.384 . S
C2077 C230 1.395 . S
C2092 C760 1.366 . S
C2104 C158 1.329 . S
C2119 C194 1.365 . S
C2131 C796 1.352 . S
C2146 C832 1.389 . S
C2158 C266 1.394 . S
