# Generated by pormake.
# Topology wji, (4)-cn, num edge types: 1
# Building blocks:
#     Node 0, Type 0, BuildingBlock: CEKHIL_clean_sbu_0, # of connection points: 4
#     Node 1, Type 0, BuildingBlock: CEKHIL_clean_sbu_0, # of connection points: 4
#     Node 2, Type 0, BuildingBlock: CEKHIL_clean_sbu_0, # of connection points: 4
#     Node 3, Type 0, BuildingBlock: CEKHIL_clean_sbu_0, # of connection points: 4
#     Node 4, Type 0, BuildingBlock: CEKHIL_clean_sbu_0, # of connection points: 4
#     Node 5, Type 0, BuildingBlock: CEKHIL_clean_sbu_0, # of connection points: 4
#     Node 6, Type 0, BuildingBlock: CEKHIL_clean_sbu_0, # of connection points: 4
#     Node 7, Type 0, BuildingBlock: CEKHIL_clean_sbu_0, # of connection points: 4
#     Node 8, Type 0, BuildingBlock: CEKHIL_clean_sbu_0, # of connection points: 4
#     Node 9, Type 0, BuildingBlock: CEKHIL_clean_sbu_0, # of connection points: 4
#     Node 10, Type 0, BuildingBlock: CEKHIL_clean_sbu_0, # of connection points: 4
#     Node 11, Type 0, BuildingBlock: CEKHIL_clean_sbu_0, # of connection points: 4
#     Edge 12, Type (0, 0), BuildingBlock: MIFKUJ_clean_linker_0, # of connection points: 2
#     Edge 13, Type (0, 0), BuildingBlock: MIFKUJ_clean_linker_0, # of connection points: 2
#     Edge 14, Type (0, 0), BuildingBlock: MIFKUJ_clean_linker_0, # of connection points: 2
#     Edge 15, Type (0, 0), BuildingBlock: MIFKUJ_clean_linker_0, # of connection points: 2
#     Edge 16, Type (0, 0), BuildingBlock: MIFKUJ_clean_linker_0, # of connection points: 2
#     Edge 17, Type (0, 0), BuildingBlock: MIFKUJ_clean_linker_0, # of connection points: 2
#     Edge 18, Type (0, 0), BuildingBlock: MIFKUJ_clean_linker_0, # of connection points: 2
#     Edge 19, Type (0, 0), BuildingBlock: MIFKUJ_clean_linker_0, # of connection points: 2
#     Edge 20, Type (0, 0), BuildingBlock: MIFKUJ_clean_linker_0, # of connection points: 2
#     Edge 21, Type (0, 0), BuildingBlock: MIFKUJ_clean_linker_0, # of connection points: 2
#     Edge 22, Type (0, 0), BuildingBlock: MIFKUJ_clean_linker_0, # of connection points: 2
#     Edge 23, Type (0, 0), BuildingBlock: MIFKUJ_clean_linker_0, # of connection points: 2
#     Edge 24, Type (0, 0), BuildingBlock: MIFKUJ_clean_linker_0, # of connection points: 2
#     Edge 25, Type (0, 0), BuildingBlock: MIFKUJ_clean_linker_0, # of connection points: 2
#     Edge 26, Type (0, 0), BuildingBlock: MIFKUJ_clean_linker_0, # of connection points: 2
#     Edge 27, Type (0, 0), BuildingBlock: MIFKUJ_clean_linker_0, # of connection points: 2
#     Edge 28, Type (0, 0), BuildingBlock: MIFKUJ_clean_linker_0, # of connection points: 2
#     Edge 29, Type (0, 0), BuildingBlock: MIFKUJ_clean_linker_0, # of connection points: 2
#     Edge 30, Type (0, 0), BuildingBlock: MIFKUJ_clean_linker_0, # of connection points: 2
#     Edge 31, Type (0, 0), BuildingBlock: MIFKUJ_clean_linker_0, # of connection points: 2
#     Edge 32, Type (0, 0), BuildingBlock: MIFKUJ_clean_linker_0, # of connection points: 2
#     Edge 33, Type (0, 0), BuildingBlock: MIFKUJ_clean_linker_0, # of connection points: 2
#     Edge 34, Type (0, 0), BuildingBlock: MIFKUJ_clean_linker_0, # of connection points: 2
#     Edge 35, Type (0, 0), BuildingBlock: MIFKUJ_clean_linker_0, # of connection points: 2
# Relax obj value: 0.222
# Max RMSD: 0.135
# Mean RMSD: 0.135
data_MOF--net-wji--node1-CEKHIL_clean_sbu_0--edge1-MIFKUJ_clean_linker_0
_symmetry_space_group_name_H-M    P1
_symmetry_Int_Tables_number       1
_symmetry_cell_setting            triclinic
loop_
_symmetry_equiv_pos_as_xyz
'x, y, z'
_cell_length_a     73.525394
_cell_length_b     73.50569
_cell_length_c     29.618209
_cell_angle_alpha  89.985669
_cell_angle_beta   89.978307
_cell_angle_gamma 119.99331
loop_
_atom_site_label
_atom_site_type_symbol
_atom_site_fract_x
_atom_site_fract_y
_atom_site_fract_z
_atom_type_partial_charge
Co0 Co 0.42471 0.32687 0.44028 0.0
O1 O 0.43125 0.31428 0.48985 0.0
O2 O 0.41177 0.29646 0.4317 0.0
C3 C 0.45792 0.35397 0.43188 0.0
O4 O 0.41535 0.33564 0.38224 0.0
Co5 Co 0.43136 0.37193 0.45371 0.0
O6 O 0.42794 0.37053 0.38755 0.0
C7 C 0.39437 0.33541 0.49384 0.0
C8 C 0.42019 0.29627 0.47033 0.0
C9 C 0.41905 0.35343 0.36521 0.0
O10 O 0.39903 0.32274 0.47389 0.0
O11 O 0.40585 0.35543 0.49209 0.0
O12 O 0.45238 0.33592 0.4133 0.0
O13 O 0.44392 0.35441 0.45731 0.0
Co14 Co 0.10053 0.42459 0.59959 0.0
O15 O 0.11969 0.43171 0.64951 0.0
O16 O 0.11781 0.41145 0.5926 0.0
C17 C 0.10667 0.45766 0.58855 0.0
O18 O 0.08254 0.41426 0.54159 0.0
Co19 Co 0.06208 0.43139 0.60796 0.0
O20 O 0.06142 0.42828 0.54172 0.0
C21 C 0.06122 0.39496 0.6525 0.0
C22 C 0.12644 0.42026 0.63091 0.0
C23 C 0.06929 0.41842 0.52199 0.0
O24 O 0.07892 0.3995 0.63455 0.0
O25 O 0.05249 0.40617 0.64771 0.0
O26 O 0.11918 0.45185 0.57109 0.0
O27 O 0.0921 0.44401 0.61431 0.0
Co28 Co 0.67852 0.09937 0.7724 0.0
O29 O 0.69322 0.1216 0.81543 0.0
O30 O 0.70874 0.11354 0.76133 0.0
C31 C 0.65335 0.10784 0.759 0.0
O32 O 0.66792 0.07778 0.72064 0.0
Co33 Co 0.63217 0.06487 0.79065 0.0
O34 O 0.6327 0.05811 0.72602 0.0
C35 C 0.66694 0.06521 0.84161 0.0
C36 C 0.71044 0.12541 0.79559 0.0
C37 C 0.64983 0.06395 0.70477 0.0
O38 O 0.68058 0.07883 0.81435 0.0
O39 O 0.64734 0.05932 0.84023 0.0
O40 O 0.67108 0.11749 0.73722 0.0
O41 O 0.65201 0.09454 0.7889 0.0
Co42 Co 0.57872 0.67636 0.93826 0.0
O43 O 0.57102 0.68886 0.98618 0.0
O44 O 0.59366 0.70696 0.93231 0.0
C45 C 0.54548 0.65096 0.92291 0.0
O46 O 0.59004 0.66822 0.88285 0.0
Co47 Co 0.56861 0.63006 0.94832 0.0
O48 O 0.57606 0.63303 0.88332 0.0
C49 C 0.60229 0.66379 0.00233 0.0
C50 C 0.58388 0.70703 0.96899 0.0
C51 C 0.58663 0.65088 0.86423 0.0
O52 O 0.6019 0.67785 0.9772 0.0
O53 O 0.58894 0.64415 0.99925 0.0
O54 O 0.5529 0.66948 0.90504 0.0
O55 O 0.55759 0.64893 0.95129 0.0
Co56 Co 0.90824 0.58263 0.11185 0.0
O57 O 0.89079 0.57755 0.16441 0.0
O58 O 0.89237 0.59726 0.10658 0.0
C59 C 0.89949 0.54857 0.10233 0.0
O60 O 0.92439 0.59123 0.05149 0.0
Co61 Co 0.9445 0.57211 0.11281 0.0
O62 O 0.94446 0.57608 0.04684 0.0
C63 C 0.94939 0.60991 0.16038 0.0
C64 C 0.88437 0.58929 0.14584 0.0
C65 C 0.93669 0.58655 0.02948 0.0
O66 O 0.93222 0.6075 0.14315 0.0
O67 O 0.95572 0.59669 0.15481 0.0
O68 O 0.88735 0.55521 0.0865 0.0
O69 O 0.91534 0.56212 0.12535 0.0
Co70 Co 0.3237 0.9011 0.26467 0.0
O71 O 0.31156 0.88194 0.31455 0.0
O72 O 0.29337 0.88357 0.25698 0.0
C73 C 0.35095 0.89535 0.25501 0.0
O74 O 0.33151 0.91896 0.20642 0.0
Co75 Co 0.36865 0.93999 0.27392 0.0
O76 O 0.36652 0.94098 0.20758 0.0
C77 C 0.33258 0.94019 0.31727 0.0
C78 C 0.29343 0.87496 0.29543 0.0
C79 C 0.3489 0.93258 0.1873 0.0
O80 O 0.31967 0.92258 0.29872 0.0
O81 O 0.35256 0.94906 0.31366 0.0
O82 O 0.33278 0.88264 0.23716 0.0
O83 O 0.35154 0.9099 0.28029 0.0
Co84 Co 0.67819 0.58077 0.40179 0.0
O85 O 0.69086 0.57513 0.35068 0.0
O86 O 0.7087 0.59524 0.40823 0.0
C87 C 0.65258 0.54697 0.41233 0.0
O88 O 0.66996 0.58977 0.46097 0.0
Co89 Co 0.63166 0.57088 0.39543 0.0
O90 O 0.63475 0.57525 0.46136 0.0
C91 C 0.66564 0.6087 0.35071 0.0
C92 C 0.70893 0.58699 0.36946 0.0
C93 C 0.65253 0.58539 0.48083 0.0
O94 O 0.67984 0.6056 0.36855 0.0
O95 O 0.64591 0.59598 0.35513 0.0
O96 O 0.67121 0.55355 0.42886 0.0
O97 O 0.65068 0.56031 0.38754 0.0
Co98 Co 0.09545 0.67651 0.5638 0.0
O99 O 0.11356 0.69024 0.51302 0.0
O100 O 0.11216 0.70671 0.57431 0.0
C101 C 0.10274 0.65002 0.56821 0.0
O102 O 0.07834 0.66692 0.62298 0.0
Co103 Co 0.05791 0.63083 0.55219 0.0
O104 O 0.05664 0.63192 0.61864 0.0
C105 C 0.05551 0.66686 0.51409 0.0
C106 C 0.12013 0.70777 0.53444 0.0
C107 C 0.0648 0.64911 0.64068 0.0
O108 O 0.07277 0.67999 0.53369 0.0
O109 O 0.04796 0.64693 0.51505 0.0
O110 O 0.11512 0.668 0.58723 0.0
O111 O 0.08764 0.64933 0.54483 0.0
Co112 Co 0.42295 0.09454 0.7234 0.0
O113 O 0.42947 0.11359 0.67356 0.0
O114 O 0.40968 0.11172 0.7313 0.0
C115 C 0.45642 0.1014 0.73136 0.0
O116 O 0.41331 0.07671 0.78171 0.0
Co117 Co 0.43044 0.05674 0.71512 0.0
O118 O 0.42741 0.0557 0.78146 0.0
C119 C 0.39306 0.05478 0.67253 0.0
C120 C 0.41822 0.12039 0.69278 0.0
C121 C 0.41754 0.06353 0.80133 0.0
O122 O 0.39759 0.07262 0.68977 0.0
O123 O 0.40465 0.04645 0.67692 0.0
O124 O 0.4504 0.11336 0.75085 0.0
O125 O 0.44258 0.08659 0.70644 0.0
Co126 Co 0.32686 0.42026 0.89409 0.0
O127 O 0.31429 0.4261 0.8432 0.0
O128 O 0.29664 0.40801 0.9032 0.0
C129 C 0.35425 0.45349 0.89983 0.0
O130 O 0.33505 0.41131 0.95331 0.0
Co131 Co 0.37167 0.42617 0.88595 0.0
O132 O 0.3701 0.42476 0.95254 0.0
C133 C 0.33522 0.38849 0.84702 0.0
C134 C 0.2964 0.41563 0.86362 0.0
C135 C 0.35248 0.41557 0.97284 0.0
O136 O 0.32241 0.39398 0.86294 0.0
O137 O 0.35521 0.3995 0.85078 0.0
O138 O 0.33638 0.44836 0.91887 0.0
O139 O 0.35457 0.43893 0.87618 0.0
Co140 Co 0.9037 0.32747 0.06609 0.0
O141 O 0.88448 0.3152 0.01643 0.0
O142 O 0.88749 0.29695 0.07225 0.0
C143 C 0.89622 0.35346 0.07815 0.0
O144 O 0.92169 0.3353 0.12406 0.0
Co145 Co 0.94095 0.37351 0.05927 0.0
O146 O 0.94204 0.37053 0.12528 0.0
C147 C 0.94399 0.33902 0.01513 0.0
C148 C 0.87832 0.29703 0.03467 0.0
C149 C 0.93463 0.35265 0.14421 0.0
O150 O 0.92601 0.32523 0.03093 0.0
O151 O 0.95213 0.35883 0.02102 0.0
O152 O 0.88426 0.3349 0.09521 0.0
O153 O 0.91111 0.35518 0.05232 0.0
Co154 Co 0.57851 0.90329 0.23634 0.0
O155 O 0.57189 0.88377 0.18723 0.0
O156 O 0.59342 0.88773 0.24334 0.0
C157 C 0.54503 0.89541 0.24975 0.0
O158 O 0.58868 0.92204 0.29332 0.0
Co159 Co 0.56838 0.93968 0.2257 0.0
O160 O 0.57547 0.94391 0.29063 0.0
C161 C 0.60176 0.93899 0.17157 0.0
C162 C 0.58449 0.87841 0.20566 0.0
C163 C 0.58524 0.93613 0.31123 0.0
O164 O 0.60214 0.92547 0.19863 0.0
O165 O 0.5881 0.9449 0.17434 0.0
O166 O 0.55191 0.8837 0.26696 0.0
O167 O 0.55779 0.9099 0.2228 0.0
H168 H 0.32701 0.3758 0.00547 0.0
H169 H 0.33454 0.35993 0.07067 0.0
H170 H 0.3866 0.42064 0.1066 0.0
H171 H 0.37953 0.4362 0.04094 0.0
H172 H 0.39938 0.39342 0.09968 0.0
H173 H 0.33915 0.39243 0.17099 0.0
H174 H 0.30179 0.3824 0.17604 0.0
H175 H 0.28391 0.31717 0.17105 0.0
H176 H 0.32117 0.32683 0.16544 0.0
H177 H 0.43322 0.38845 0.31395 0.0
H178 H 0.41811 0.39339 0.24594 0.0
H179 H 0.37279 0.32714 0.24214 0.0
H180 H 0.38755 0.32213 0.31281 0.0
H181 H 0.35388 0.34964 0.22516 0.0
H182 H 0.41387 0.35024 0.16365 0.0
H183 H 0.45107 0.35974 0.1586 0.0
H184 H 0.46922 0.42471 0.14267 0.0
H185 H 0.43217 0.41566 0.14824 0.0
C186 C 0.33954 0.38583 0.02834 0.0
C187 C 0.35261 0.40726 0.01834 0.0
C188 C 0.34394 0.37673 0.0655 0.0
C189 C 0.36128 0.38902 0.09362 0.0
C190 C 0.37328 0.41072 0.08533 0.0
C191 C 0.3691 0.41969 0.04803 0.0
C192 C 0.36844 0.3794 0.12886 0.0
C193 C 0.38943 0.38401 0.12732 0.0
C194 C 0.35526 0.36611 0.16368 0.0
C195 C 0.33292 0.36036 0.1673 0.0
C196 C 0.32724 0.37596 0.17062 0.0
C197 C 0.30609 0.37034 0.17366 0.0
C198 C 0.29049 0.34916 0.17372 0.0
C199 C 0.29601 0.33356 0.17091 0.0
C200 C 0.31714 0.3391 0.16785 0.0
C201 C 0.42018 0.37475 0.29868 0.0
C202 C 0.41162 0.35484 0.31917 0.0
C203 C 0.41159 0.37763 0.2593 0.0
C204 C 0.39444 0.36064 0.23818 0.0
C205 C 0.38609 0.34052 0.25763 0.0
C206 C 0.39467 0.33761 0.29774 0.0
C207 C 0.3851 0.36463 0.19711 0.0
C208 C 0.36374 0.35883 0.19722 0.0
C209 C 0.39788 0.37676 0.16058 0.0
C210 C 0.42021 0.38225 0.1565 0.0
C211 C 0.42579 0.36656 0.15926 0.0
C212 C 0.44686 0.37188 0.1563 0.0
C213 C 0.4625 0.39282 0.15035 0.0
C214 C 0.45709 0.40849 0.14723 0.0
C215 C 0.43605 0.40327 0.15019 0.0
H216 H 0.4788 0.39689 0.14812 0.0
H217 H 0.27412 0.34485 0.17606 0.0
H218 H 0.05995 0.38014 0.48548 0.0
H219 H 0.0361 0.36258 0.42142 0.0
H220 H 0.03336 0.41884 0.39514 0.0
H221 H 0.05702 0.43632 0.45818 0.0
H222 H 0.99393 0.38297 0.41135 0.0
H223 H 0.05723 0.40397 0.32285 0.0
H224 H 0.09012 0.40431 0.3046 0.0
H225 H 0.05619 0.33713 0.2916 0.0
H226 H 0.02312 0.33639 0.31039 0.0
H227 H 0.9482 0.38327 0.20738 0.0
H228 H 0.96951 0.38763 0.27347 0.0
H229 H 0.96344 0.32694 0.24958 0.0
H230 H 0.9422 0.32267 0.18182 0.0
H231 H 0.0039 0.35597 0.26553 0.0
H232 H 0.94004 0.33492 0.34256 0.0
H233 H 0.90676 0.33378 0.36077 0.0
H234 H 0.94064 0.39893 0.398 0.0
H235 H 0.97412 0.40056 0.37947 0.0
C236 C 0.05486 0.38896 0.46492 0.0
C237 C 0.06028 0.40958 0.47702 0.0
C238 C 0.0411 0.37886 0.42859 0.0
C239 C 0.03267 0.3893 0.40394 0.0
C240 C 0.03943 0.41038 0.41396 0.0
C241 C 0.05308 0.4204 0.4499 0.0
C242 C 0.0154 0.37818 0.37056 0.0
C243 C 0.99612 0.3771 0.3794 0.0
C244 C 0.01788 0.36961 0.32982 0.0
C245 C 0.03776 0.3701 0.31864 0.0
C246 C 0.05682 0.38926 0.31658 0.0
C247 C 0.07549 0.38952 0.30601 0.0
C248 C 0.07526 0.37074 0.29711 0.0
C249 C 0.05635 0.35166 0.29861 0.0
C250 C 0.03764 0.35131 0.3092 0.0
C251 C 0.95099 0.37059 0.21658 0.0
C252 C 0.94343 0.35259 0.18932 0.0
C253 C 0.96318 0.37309 0.25462 0.0
C254 C 0.96804 0.35757 0.26697 0.0
C255 C 0.95988 0.33913 0.24085 0.0
C256 C 0.94753 0.33658 0.20247 0.0
C257 C 0.98272 0.36164 0.30549 0.0
C258 C 1.00147 0.36136 0.29784 0.0
C259 C 0.97971 0.36878 0.34774 0.0
C260 C 0.95961 0.36787 0.35946 0.0
C261 C 0.9404 0.34904 0.35442 0.0
C262 C 0.92149 0.3483 0.36483 0.0
C263 C 0.92158 0.36627 0.3805 0.0
C264 C 0.94059 0.38501 0.3859 0.0
C265 C 0.95955 0.38584 0.37554 0.0
H266 H 0.90693 0.36567 0.38849 0.0
H267 H 0.08973 0.37099 0.28892 0.0
H268 H 0.56936 0.95294 0.36964 0.0
H269 H 0.58609 0.97426 0.43598 0.0
H270 H 0.63744 0.96213 0.4225 0.0
H271 H 0.62062 0.94054 0.35489 0.0
H272 H 0.6236 0.96317 0.51694 0.0
H273 H 0.64769 0.0057 0.38534 0.0
H274 H 0.64458 0.01886 0.31085 0.0
H275 H 0.60507 0.04047 0.36797 0.0
H276 H 0.60765 0.02712 0.44271 0.0
H277 H 0.67737 0.0527 0.66898 0.0
H278 H 0.67183 0.03075 0.60177 0.0
H279 H 0.61328 0.02901 0.57588 0.0
H280 H 0.61846 0.05037 0.643 0.0
H281 H 0.63884 0.03658 0.49765 0.0
H282 H 0.61172 0.9894 0.62689 0.0
H283 H 0.6151 0.97608 0.701 0.0
H284 H 0.66229 0.964 0.6473 0.0
H285 H 0.65941 0.97756 0.57298 0.0
C286 C 0.58406 0.95446 0.38099 0.0
C287 C 0.59376 0.94521 0.35649 0.0
C288 C 0.59362 0.9667 0.41904 0.0
C289 C 0.61319 0.97013 0.43379 0.0
C290 C 0.62235 0.95976 0.41156 0.0
C291 C 0.6127 0.94737 0.37306 0.0
C292 C 0.62434 0.98592 0.47008 0.0
C293 C 0.62745 0.97936 0.51246 0.0
C294 C 0.62927 0.00705 0.46441 0.0
C295 C 0.62776 0.01527 0.41961 0.0
C296 C 0.6382 0.01311 0.38197 0.0
C297 C 0.63656 0.02063 0.3397 0.0
C298 C 0.62461 0.03047 0.33466 0.0
C299 C 0.61432 0.03284 0.37192 0.0
C300 C 0.61589 0.02532 0.41427 0.0
C301 C 0.66351 0.04789 0.64847 0.0
C302 C 0.64835 0.05326 0.66126 0.0
C303 C 0.66029 0.03524 0.61031 0.0
C304 C 0.64207 0.02812 0.58394 0.0
C305 C 0.62744 0.03428 0.59567 0.0
C306 C 0.63042 0.04649 0.63409 0.0
C307 C 0.63758 0.01373 0.54484 0.0
C308 C 0.63558 0.02056 0.50188 0.0
C309 C 0.63392 0.99299 0.55 0.0
C310 C 0.63556 0.98476 0.59457 0.0
C311 C 0.62297 0.9841 0.631 0.0
C312 C 0.62476 0.97647 0.67303 0.0
C313 C 0.63896 0.96927 0.6789 0.0
C314 C 0.65134 0.96963 0.64272 0.0
C315 C 0.64963 0.97728 0.60066 0.0
H316 H 0.64032 0.96333 0.71141 0.0
H317 H 0.62336 0.03628 0.30191 0.0
H318 H 0.62001 0.57037 0.53995 0.0
H319 H 0.61599 0.58824 0.60497 0.0
H320 H 0.68007 0.63817 0.59055 0.0
H321 H 0.68421 0.62043 0.52387 0.0
H322 H 0.65971 0.62004 0.68936 0.0
H323 H 0.65496 0.65411 0.55517 0.0
H324 H 0.64388 0.65502 0.47704 0.0
H325 H 0.57918 0.6189 0.51684 0.0
H326 H 0.58989 0.61744 0.5951 0.0
H327 H 0.62736 0.67692 0.83763 0.0
H328 H 0.64504 0.67197 0.772 0.0
H329 H 0.58599 0.61998 0.72776 0.0
H330 H 0.56851 0.62449 0.79358 0.0
H331 H 0.61124 0.64701 0.65617 0.0
H332 H 0.61579 0.60897 0.7855 0.0
H333 H 0.62569 0.60599 0.86353 0.0
H334 H 0.69045 0.64903 0.83289 0.0
H335 H 0.68086 0.6525 0.75476 0.0
C336 C 0.63347 0.58497 0.55086 0.0
C337 C 0.65239 0.59407 0.5262 0.0
C338 C 0.6311 0.59516 0.58818 0.0
C339 C 0.64761 0.61463 0.60225 0.0
C340 C 0.66711 0.62313 0.58012 0.0
C341 C 0.66948 0.61293 0.54218 0.0
C342 C 0.64331 0.62649 0.6373 0.0
C343 C 0.64967 0.62657 0.68197 0.0
C344 C 0.62981 0.63456 0.62781 0.0
C345 C 0.62324 0.63552 0.58092 0.0
C346 C 0.63837 0.64619 0.54718 0.0
C347 C 0.63216 0.64683 0.50288 0.0
C348 C 0.61084 0.63698 0.49196 0.0
C349 C 0.59569 0.62651 0.52535 0.0
C350 C 0.60182 0.62579 0.56969 0.0
C351 C 0.61811 0.66482 0.81317 0.0
C352 C 0.59655 0.65115 0.82049 0.0
C353 C 0.62824 0.6619 0.77595 0.0
C354 C 0.61686 0.64551 0.7451 0.0
C355 C 0.5951 0.63273 0.75101 0.0
C356 C 0.58511 0.63533 0.78859 0.0
C357 C 0.62751 0.64048 0.70841 0.0
C358 C 0.62199 0.64132 0.66344 0.0
C359 C 0.64181 0.63332 0.71769 0.0
C360 C 0.64758 0.63124 0.76454 0.0
C361 C 0.63211 0.61797 0.79554 0.0
C362 C 0.63767 0.61615 0.83975 0.0
C363 C 0.65868 0.62738 0.85322 0.0
C364 C 0.67418 0.6404 0.82244 0.0
C365 C 0.66869 0.64229 0.7782 0.0
H366 H 0.66296 0.62595 0.88745 0.0
H367 H 0.60606 0.6375 0.45764 0.0
H368 H 0.06328 0.68048 0.68942 0.0
H369 H 0.04133 0.67552 0.75638 0.0
H370 H 0.02332 0.61002 0.76033 0.0
H371 H 0.04524 0.61482 0.69488 0.0
H372 H 0.98899 0.61803 0.7552 0.0
H373 H 0.05356 0.63947 0.83818 0.0
H374 H 0.09037 0.66404 0.85893 0.0
H375 H 0.07376 0.71009 0.89832 0.0
H376 H 0.03687 0.68585 0.87716 0.0
H377 H 0.94298 0.56717 0.95842 0.0
H378 H 0.96368 0.58364 0.89071 0.0
H379 H 0.9711 0.64327 0.93182 0.0
H380 H 0.94996 0.6266 0.99986 0.0
H381 H 0.00938 0.6454 0.91104 0.0
H382 H 0.94384 0.62194 0.83988 0.0
H383 H 0.90695 0.59749 0.81966 0.0
H384 H 0.92491 0.55613 0.7571 0.0
H385 H 0.96189 0.58018 0.77753 0.0
C386 C 0.05513 0.6652 0.70542 0.0
C387 C 0.05587 0.64802 0.6864 0.0
C388 C 0.04248 0.66235 0.74345 0.0
C389 C 0.03041 0.6423 0.76283 0.0
C390 C 0.03225 0.62555 0.74559 0.0
C391 C 0.04489 0.62838 0.70815 0.0
C392 C 0.01468 0.63799 0.79897 0.0
C393 C 0.99344 0.62401 0.7893 0.0
C394 C 0.02037 0.6464 0.843 0.0
C395 C 0.04253 0.66098 0.85545 0.0
C396 C 0.0578 0.65492 0.85076 0.0
C397 C 0.07867 0.66877 0.86272 0.0
C398 C 0.08442 0.68865 0.87976 0.0
C399 C 0.06929 0.6947 0.885 0.0
C400 C 0.04841 0.68092 0.87304 0.0
C401 C 0.94846 0.58365 0.95235 0.0
C402 C 0.94467 0.59555 0.98417 0.0
C403 C 0.96036 0.59309 0.91368 0.0
C404 C 0.96899 0.61472 0.9061 0.0
C405 C 0.96458 0.62655 0.93694 0.0
C406 C 0.9523 0.61698 0.97547 0.0
C407 C 0.98376 0.62481 0.8676 0.0
C408 C 0.00481 0.63983 0.87672 0.0
C409 C 0.9779 0.61744 0.82287 0.0
C410 C 0.95566 0.60284 0.8105 0.0
C411 C 0.93992 0.60755 0.82213 0.0
C412 C 0.91898 0.59378 0.81056 0.0
C413 C 0.91359 0.57526 0.78716 0.0
C414 C 0.92912 0.57049 0.77522 0.0
C415 C 0.95008 0.58421 0.78673 0.0
H416 H 0.89737 0.56461 0.77823 0.0
H417 H 0.10058 0.69934 0.88904 0.0
H418 H 0.43454 0.04961 0.8641 0.0
H419 H 0.41692 0.02699 0.9286 0.0
H420 H 0.36253 0.03338 0.90504 0.0
H421 H 0.38028 0.05632 0.83978 0.0
H422 H 0.37261 0.03138 0.00133 0.0
H423 H 0.35955 0.99247 0.86383 0.0
H424 H 0.36952 0.98317 0.79162 0.0
H425 H 0.40946 0.96559 0.862 0.0
H426 H 0.4 0.97513 0.93459 0.0
H427 H 0.32026 0.94184 0.14924 0.0
H428 H 0.3257 0.96319 0.08103 0.0
H429 H 0.38416 0.96453 0.05597 0.0
H430 H 0.37876 0.94335 0.12325 0.0
H431 H 0.36424 0.96068 0.97851 0.0
H432 H 0.38202 0.0044 0.1126 0.0
H433 H 0.3742 0.01505 0.18573 0.0
H434 H 0.32666 0.02405 0.12286 0.0
H435 H 0.33402 0.01316 0.04944 0.0
C436 C 0.41902 0.04668 0.8732 0.0
C437 C 0.40875 0.05464 0.8465 0.0
C438 C 0.40894 0.03367 0.91008 0.0
C439 C 0.38824 0.02812 0.92113 0.0
C440 C 0.37848 0.03739 0.89698 0.0
C441 C 0.38868 0.05058 0.85984 0.0
C442 C 0.37655 0.01111 0.95485 0.0
C443 C 0.37031 0.01576 0.99601 0.0
C444 C 0.37371 0.99077 0.94816 0.0
C445 C 0.37914 0.98462 0.90464 0.0
C446 C 0.37055 0.98674 0.86389 0.0
C447 C 0.37611 0.98142 0.82289 0.0
C448 C 0.39014 0.97382 0.82222 0.0
C449 C 0.3986 0.97148 0.86257 0.0
C450 C 0.39312 0.97681 0.90366 0.0
C451 C 0.33391 0.94617 0.1283 0.0
C452 C 0.34907 0.9409 0.14154 0.0
C453 C 0.33715 0.95859 0.08966 0.0
C454 C 0.35553 0.96579 0.06362 0.0
C455 C 0.36989 0.95928 0.07537 0.0
C456 C 0.36677 0.94712 0.11389 0.0
C457 C 0.36083 0.98105 0.0257 0.0
C458 C 0.36598 0.97609 0.98357 0.0
C459 C 0.36272 1.00108 0.0317 0.0
C460 C 0.35837 0.00771 0.07571 0.0
C461 C 0.36979 0.00849 0.11447 0.0
C462 C 0.36546 0.01459 0.15594 0.0
C463 C 0.34989 0.02015 0.15897 0.0
C464 C 0.33867 0.01969 0.12049 0.0
C465 C 0.34291 0.01355 0.07894 0.0
H466 H 0.34656 0.02488 0.19111 0.0
H467 H 0.39443 0.96972 0.79044 0.0
H468 H 0.65286 0.51053 0.4305 0.0
H469 H 0.62208 0.47496 0.43739 0.0
H470 H 0.58104 0.50063 0.42146 0.0
H471 H 0.6114 0.53575 0.41303 0.0
H472 H 0.57211 0.46899 0.49774 0.0
H473 H 0.58644 0.48235 0.33493 0.0
H474 H 0.60952 0.49064 0.26853 0.0
H475 H 0.6163 0.43695 0.29583 0.0
H476 H 0.59348 0.42854 0.36285 0.0
H477 H 0.46949 0.39477 0.44691 0.0
H478 H 0.50482 0.42515 0.44624 0.0
H479 H 0.52998 0.3854 0.40829 0.0
H480 H 0.49428 0.35492 0.40691 0.0
H481 H 0.55088 0.42083 0.36616 0.0
H482 H 0.53301 0.40311 0.51938 0.0
H483 H 0.51139 0.39362 0.58837 0.0
H484 H 0.51367 0.45313 0.5857 0.0
H485 H 0.53505 0.46287 0.51629 0.0
C486 C 0.63725 0.50853 0.42897 0.0
C487 C 0.63449 0.52587 0.42116 0.0
C488 C 0.61974 0.48827 0.43275 0.0
C489 C 0.59936 0.48527 0.42984 0.0
C490 C 0.59666 0.50267 0.42383 0.0
C491 C 0.61404 0.52273 0.41893 0.0
C492 C 0.58058 0.46404 0.4313 0.0
C493 C 0.56739 0.45841 0.46907 0.0
C494 C 0.57494 0.44998 0.39454 0.0
C495 C 0.58852 0.45499 0.35418 0.0
C496 C 0.59304 0.47245 0.32704 0.0
C497 C 0.60603 0.47714 0.28924 0.0
C498 C 0.61444 0.46437 0.27806 0.0
C499 C 0.60982 0.44685 0.30459 0.0
C500 C 0.59686 0.44212 0.34247 0.0
C501 C 0.48252 0.39251 0.43804 0.0
C502 C 0.47916 0.37246 0.4273 0.0
C503 C 0.50276 0.40988 0.43804 0.0
C504 C 0.52021 0.40752 0.42861 0.0
C505 C 0.51683 0.38761 0.41612 0.0
C506 C 0.49644 0.37022 0.41529 0.0
C507 C 0.54183 0.42594 0.43217 0.0
C508 C 0.55563 0.43109 0.39538 0.0
C509 C 0.54828 0.43935 0.47042 0.0
C510 C 0.53555 0.43367 0.51243 0.0
C511 C 0.5288 0.41413 0.53334 0.0
C512 C 0.5166 0.40871 0.57255 0.0
C513 C 0.51113 0.42275 0.59137 0.0
C514 C 0.51791 0.44227 0.57108 0.0
C515 C 0.53011 0.44776 0.53183 0.0
H516 H 0.50167 0.41852 0.62171 0.0
H517 H 0.62449 0.46802 0.24877 0.0
H518 H 0.07732 0.46925 0.60212 0.0
H519 H 0.08166 0.50434 0.59513 0.0
H520 H 0.14598 0.52894 0.55391 0.0
H521 H 0.14158 0.49355 0.55949 0.0
H522 H 0.12478 0.5464 0.6419 0.0
H523 H 0.13626 0.53892 0.47948 0.0
H524 H 0.12645 0.51787 0.40956 0.0
H525 H 0.06378 0.50777 0.4193 0.0
H526 H 0.07319 0.52852 0.48969 0.0
H527 H 0.13683 0.64838 0.60093 0.0
H528 H 0.14194 0.61783 0.60192 0.0
H529 H 0.08003 0.5795 0.54552 0.0
H530 H 0.07521 0.60992 0.5431 0.0
H531 H 0.10563 0.57108 0.5036 0.0
H532 H 0.09208 0.57795 0.66002 0.0
H533 H 0.09789 0.59597 0.7333 0.0
H534 H 0.16004 0.60451 0.73988 0.0
H535 H 0.15467 0.58677 0.66631 0.0
C536 C 0.09234 0.48205 0.59109 0.0
C537 C 0.1091 0.47866 0.5812 0.0
C538 C 0.09479 0.50208 0.58723 0.0
C539 C 0.1141 0.51913 0.57398 0.0
C540 C 0.13091 0.51588 0.56389 0.0
C541 C 0.12836 0.4957 0.56696 0.0
C542 C 0.11642 0.54029 0.57171 0.0
C543 C 0.12115 0.55217 0.61145 0.0
C544 C 0.11097 0.5473 0.53242 0.0
C545 C 0.10535 0.53502 0.49003 0.0
C546 C 0.12034 0.53201 0.46694 0.0
C547 C 0.11487 0.52019 0.42718 0.0
C548 C 0.09449 0.51142 0.41008 0.0
C549 C 0.07955 0.51453 0.43262 0.0
C550 C 0.08495 0.52632 0.47242 0.0
C551 C 0.1243 0.63338 0.58903 0.0
C552 C 0.10562 0.63155 0.57198 0.0
C553 C 0.12721 0.61593 0.58965 0.0
C554 C 0.11133 0.59628 0.57394 0.0
C555 C 0.09259 0.59447 0.55751 0.0
C556 C 0.0898 0.61189 0.5564 0.0
C557 C 0.11404 0.5775 0.574 0.0
C558 C 0.10993 0.56583 0.53391 0.0
C559 C 0.11982 0.57058 0.61328 0.0
C560 C 0.12307 0.58128 0.65742 0.0
C561 C 0.10705 0.58384 0.67692 0.0
C562 C 0.11025 0.59396 0.71853 0.0
C563 C 0.12935 0.60144 0.74116 0.0
C564 C 0.14527 0.59876 0.72227 0.0
C565 C 0.14216 0.58866 0.68062 0.0
H566 H 0.13179 0.60927 0.77338 0.0
H567 H 0.09028 0.50228 0.3793 0.0
H568 H 0.48296 0.11257 0.8039 0.0
H569 H 0.5185 0.11747 0.80493 0.0
H570 H 0.51482 0.10639 0.66104 0.0
H571 H 0.47883 0.09973 0.66108 0.0
H572 H 0.5315 0.08769 0.69147 0.0
H573 H 0.54639 0.15785 0.71745 0.0
H574 H 0.54382 0.18664 0.75395 0.0
H575 H 0.56499 0.17424 0.8792 0.0
H576 H 0.56744 0.1452 0.84361 0.0
H577 H 0.64213 0.12098 0.6822 0.0
H578 H 0.61086 0.12478 0.67248 0.0
H579 H 0.59466 0.10852 0.81241 0.0
H580 H 0.6252 0.10411 0.82188 0.0
H581 H 0.59063 0.14439 0.77706 0.0
H582 H 0.57199 0.07145 0.7457 0.0
H583 H 0.57722 0.04549 0.70351 0.0
H584 H 0.56541 0.06755 0.57877 0.0
H585 H 0.56051 0.09393 0.62023 0.0
C586 C 0.48989 0.11127 0.77264 0.0
C587 C 0.47826 0.10574 0.73248 0.0
C588 C 0.51028 0.11427 0.77304 0.0
C589 C 0.51971 0.1127 0.73285 0.0
C590 C 0.50806 0.10761 0.6926 0.0
C591 C 0.48748 0.10387 0.69257 0.0
C592 C 0.54123 0.1153 0.73278 0.0
C593 C 0.54443 0.10042 0.7095 0.0
C594 C 0.55836 0.13176 0.75638 0.0
C595 C 0.55693 0.14923 0.77793 0.0
C596 C 0.55037 0.16117 0.75285 0.0
C597 C 0.54895 0.17755 0.77337 0.0
C598 C 0.55419 0.18223 0.81889 0.0
C599 C 0.56092 0.17058 0.84396 0.0
C600 C 0.56235 0.15418 0.82361 0.0
C601 C 0.63198 0.11847 0.71085 0.0
C602 C 0.63593 0.1121 0.75264 0.0
C603 C 0.61421 0.12066 0.70533 0.0
C604 C 0.60054 0.11697 0.74184 0.0
C605 C 0.60507 0.11155 0.78396 0.0
C606 C 0.62243 0.10889 0.78917 0.0
C607 C 0.5805 0.11689 0.73596 0.0
C608 C 0.57762 0.13205 0.75838 0.0
C609 C 0.56383 0.10109 0.71065 0.0
C610 C 0.56612 0.0848 0.68599 0.0
C611 C 0.57065 0.07085 0.70925 0.0
C612 C 0.57355 0.05606 0.68548 0.0
C613 C 0.57171 0.05491 0.63847 0.0
C614 C 0.56687 0.06849 0.61517 0.0
C615 C 0.56403 0.08336 0.63878 0.0
H616 H 0.57399 0.04347 0.62012 0.0
H617 H 0.55308 0.19491 0.83471 0.0
H618 H 0.52906 0.62575 0.84919 0.0
H619 H 0.49458 0.59366 0.84415 0.0
H620 H 0.47913 0.60565 0.97748 0.0
H621 H 0.51391 0.63705 0.98303 0.0
H622 H 0.46957 0.56757 0.97451 0.0
H623 H 0.45523 0.6102 0.87632 0.0
H624 H 0.46071 0.63406 0.81271 0.0
H625 H 0.45646 0.58748 0.71911 0.0
H626 H 0.45123 0.56343 0.78222 0.0
H627 H 0.36135 0.48514 0.95889 0.0
H628 H 0.39237 0.52054 0.96212 0.0
H629 H 0.41965 0.50536 0.84969 0.0
H630 H 0.38907 0.47001 0.84684 0.0
H631 H 0.42125 0.54566 0.84336 0.0
H632 H 0.43711 0.5041 0.94627 0.0
H633 H 0.42972 0.48063 0.01164 0.0
H634 H 0.42905 0.52691 0.09902 0.0
H635 H 0.43608 0.55051 0.03397 0.0
C636 C 0.51803 0.62166 0.87683 0.0
C637 C 0.52383 0.63384 0.91622 0.0
C638 C 0.49833 0.60337 0.87402 0.0
C639 C 0.48404 0.59723 0.91031 0.0
C640 C 0.48978 0.60993 0.94907 0.0
C641 C 0.50956 0.62795 0.95213 0.0
C642 C 0.4638 0.57689 0.90937 0.0
C643 C 0.45888 0.56305 0.94608 0.0
C644 C 0.44984 0.57065 0.87215 0.0
C645 C 0.45304 0.58508 0.83407 0.0
C646 C 0.45563 0.6051 0.8422 0.0
C647 C 0.45866 0.61865 0.80623 0.0
C648 C 0.45899 0.61231 0.76191 0.0
C649 C 0.45623 0.59238 0.75347 0.0
C650 C 0.45321 0.57878 0.78933 0.0
C651 C 0.37399 0.48938 0.93496 0.0
C652 C 0.37284 0.4748 0.90276 0.0
C653 C 0.39165 0.50957 0.93679 0.0
C654 C 0.40825 0.51554 0.90603 0.0
C655 C 0.40697 0.50109 0.87355 0.0
C656 C 0.38954 0.48085 0.8722 0.0
C657 C 0.42729 0.53664 0.90828 0.0
C658 C 0.43195 0.55048 0.87182 0.0
C659 C 0.44084 0.54305 0.946 0.0
C660 C 0.43688 0.52897 0.98518 0.0
C661 C 0.4352 0.5092 0.97935 0.0
C662 C 0.43111 0.49588 0.01636 0.0
C663 C 0.42886 0.50225 0.05944 0.0
C664 C 0.43076 0.52198 0.06562 0.0
C665 C 0.4348 0.53533 0.0287 0.0
H666 H 0.42569 0.49192 0.08805 0.0
H667 H 0.46133 0.62282 0.7341 0.0
H668 H 0.92505 0.39485 0.07001 0.0
H669 H 0.91953 0.42481 0.07799 0.0
H670 H 0.85432 0.38296 0.10966 0.0
H671 H 0.85989 0.35267 0.10297 0.0
H672 H 0.86804 0.4186 0.03375 0.0
H673 H 0.8742 0.40508 0.19071 0.0
H674 H 0.89055 0.39709 0.25463 0.0
H675 H 0.94868 0.45411 0.23031 0.0
H676 H 0.93276 0.46227 0.16575 0.0
H677 H 0.8625 0.51268 0.08118 0.0
H678 H 0.85633 0.47656 0.07962 0.0
H679 H 0.9221 0.50016 0.10629 0.0
H680 H 0.92806 0.53574 0.10957 0.0
H681 H 0.90057 0.46927 0.15963 0.0
H682 H 0.89774 0.48117 0.99967 0.0
H683 H 0.88426 0.48943 0.93106 0.0
H684 H 0.82295 0.43663 0.95612 0.0
H685 H 0.83603 0.42821 0.02522 0.0
C686 C 0.90956 0.39198 0.07905 0.0
C687 C 0.89291 0.37144 0.08604 0.0
C688 C 0.90643 0.40911 0.08347 0.0
C689 C 0.88652 0.40604 0.09417 0.0
C690 C 0.86978 0.38557 0.10124 0.0
C691 C 0.87302 0.36836 0.09775 0.0
C692 C 0.88366 0.42453 0.09796 0.0
C693 C 0.87465 0.42951 0.06173 0.0
C694 C 0.89278 0.43887 0.13395 0.0
C695 C 0.90232 0.43419 0.17318 0.0
C696 C 0.89052 0.41583 0.19876 0.0
C697 C 0.8997 0.41128 0.23515 0.0
C698 C 0.92066 0.42506 0.24647 0.0
C699 C 0.93245 0.44344 0.22149 0.0
C700 C 0.92335 0.44805 0.18503 0.0
C701 C 0.87562 0.51008 0.08615 0.0
C702 C 0.89574 0.52702 0.09567 0.0
C703 C 0.8721 0.48946 0.08525 0.0
C704 C 0.88875 0.48556 0.09298 0.0
C705 C 0.90893 0.50264 0.10079 0.0
C706 C 0.91235 0.52306 0.1024 0.0
C707 C 0.88548 0.46386 0.09462 0.0
C708 C 0.89344 0.45825 0.13198 0.0
C709 C 0.87567 0.44912 0.05927 0.0
C710 C 0.86779 0.45424 0.01791 0.0
C711 C 0.88134 0.47144 0.99076 0.0
C712 C 0.87378 0.47613 0.95174 0.0
C713 C 0.85274 0.46361 0.93932 0.0
C714 C 0.83923 0.44634 0.96584 0.0
C715 C 0.8467 0.4416 0.00492 0.0
H716 H 0.84692 0.46725 0.90909 0.0
H717 H 0.92774 0.4215 0.27463 0.0
H718 H 0.35217 0.85999 0.23073 0.0
H719 H 0.38324 0.85563 0.2284 0.0
H720 H 0.4226 0.92083 0.26394 0.0
H721 H 0.39177 0.92515 0.26734 0.0
H722 H 0.4373 0.90569 0.18909 0.0
H723 H 0.41037 0.88768 0.34326 0.0
H724 H 0.3829 0.86673 0.39919 0.0
H725 H 0.37992 0.81036 0.34997 0.0
H726 H 0.40719 0.83097 0.29328 0.0
H727 H 0.53465 0.9257 0.25754 0.0
H728 H 0.49962 0.9214 0.25863 0.0
H729 H 0.47241 0.85402 0.25871 0.0
H730 H 0.50788 0.85839 0.25996 0.0
H731 H 0.44856 0.86438 0.30719 0.0
H732 H 0.47724 0.88088 0.15964 0.0
H733 H 0.50392 0.90009 0.10107 0.0
H734 H 0.50198 0.95623 0.13112 0.0
H735 H 0.47551 0.93744 0.19037 0.0
C736 C 0.36749 0.8734 0.23759 0.0
C737 C 0.36958 0.8929 0.24925 0.0
C738 C 0.38517 0.87087 0.23648 0.0
C739 C 0.40516 0.8879 0.24623 0.0
C740 C 0.4073 0.90751 0.25636 0.0
C741 C 0.38967 0.90994 0.25832 0.0
C742 C 0.42402 0.88552 0.24679 0.0
C743 C 0.43983 0.89672 0.21494 0.0
C744 C 0.42689 0.87314 0.27947 0.0
C745 C 0.41061 0.86082 0.31369 0.0
C746 C 0.40371 0.87079 0.34408 0.0
C747 C 0.38821 0.85899 0.37598 0.0
C748 C 0.37962 0.83722 0.37803 0.0
C749 C 0.38656 0.82722 0.34828 0.0
C750 C 0.40204 0.83895 0.31628 0.0
C751 C 0.52123 0.90996 0.25866 0.0
C752 C 0.52394 0.89237 0.25827 0.0
C753 C 0.50118 0.9075 0.25892 0.0
C754 C 0.48334 0.88738 0.25711 0.0
C755 C 0.48594 0.8697 0.25958 0.0
C756 C 0.50616 0.87219 0.26042 0.0
C757 C 0.46227 0.8852 0.25036 0.0
C758 C 0.44599 0.87309 0.28082 0.0
C759 C 0.45875 0.89643 0.21574 0.0
C760 C 0.47446 0.90776 0.17965 0.0
C761 C 0.48258 0.89735 0.15392 0.0
C762 C 0.49767 0.90816 0.12059 0.0
C763 C 0.50466 0.92937 0.11242 0.0
C764 C 0.49654 0.9398 0.13749 0.0
C765 C 0.48147 0.92907 0.17091 0.0
H766 H 0.51636 0.93772 0.08662 0.0
H767 H 0.36762 0.82811 0.40276 0.0
H768 H 0.31554 0.38159 0.7669 0.0
H769 H 0.31161 0.35554 0.71118 0.0
H770 H 0.33198 0.32614 0.80984 0.0
H771 H 0.3376 0.35351 0.86435 0.0
H772 H 0.3551 0.33431 0.74515 0.0
H773 H 0.28158 0.29874 0.74901 0.0
H774 H 0.24574 0.29339 0.75264 0.0
H775 H 0.25461 0.32367 0.62404 0.0
H776 H 0.29061 0.32952 0.61986 0.0
H777 H 0.3778 0.29974 0.54514 0.0
H778 H 0.35292 0.29102 0.60777 0.0
H779 H 0.34427 0.343 0.57119 0.0
H780 H 0.36919 0.35191 0.50929 0.0
H781 H 0.30755 0.30777 0.6128 0.0
H782 H 0.38475 0.3545 0.63426 0.0
H783 H 0.42083 0.36034 0.63082 0.0
H784 H 0.40262 0.30633 0.71501 0.0
H785 H 0.36635 0.30007 0.71841 0.0
C786 C 0.31843 0.36909 0.77698 0.0
C787 C 0.32691 0.36945 0.81949 0.0
C788 C 0.31599 0.354 0.74524 0.0
C789 C 0.32138 0.33862 0.75607 0.0
C790 C 0.32782 0.33783 0.80041 0.0
C791 C 0.33095 0.35338 0.83162 0.0
C792 C 0.3246 0.32672 0.71922 0.0
C793 C 0.34417 0.32769 0.71722 0.0
C794 C 0.31061 0.31813 0.68216 0.0
C795 C 0.28886 0.31456 0.68415 0.0
C796 C 0.27594 0.30435 0.72157 0.0
C797 C 0.25558 0.30123 0.72372 0.0
C798 C 0.2479 0.30818 0.68859 0.0
C799 C 0.26056 0.31825 0.65119 0.0
C800 C 0.28094 0.32142 0.64886 0.0
C801 C 0.36995 0.30878 0.54949 0.0
C802 C 0.37567 0.32674 0.52309 0.0
C803 C 0.35571 0.30373 0.58512 0.0
C804 C 0.34692 0.31648 0.59422 0.0
C805 C 0.35081 0.33292 0.5646 0.0
C806 C 0.36523 0.33814 0.52956 0.0
C807 C 0.33803 0.31629 0.63908 0.0
C808 C 0.31767 0.31326 0.64222 0.0
C809 C 0.35107 0.32274 0.67763 0.0
C810 C 0.37288 0.32669 0.67618 0.0
C811 C 0.38846 0.34384 0.65184 0.0
C812 C 0.40892 0.34722 0.6499 0.0
C813 C 0.414 0.33368 0.67259 0.0
C814 C 0.39865 0.31677 0.69738 0.0
C815 C 0.37814 0.31329 0.69931 0.0
H816 H 0.42985 0.33632 0.67104 0.0
H817 H 0.23214 0.30576 0.69034 0.0
H818 H 0.98423 0.34854 0.02648 0.0
H819 H 0.0067 0.34573 0.96933 0.0
H820 H 0.95321 0.3131 0.88111 0.0
H821 H 0.93048 0.31489 0.93953 0.0
H822 H 0.98306 0.30257 0.86112 0.0
H823 H 0.97925 0.36529 0.88156 0.0
H824 H 0.98075 0.3948 0.92428 0.0
H825 H 0.04538 0.41696 0.9571 0.0
H826 H 0.04413 0.38733 0.91513 0.0
H827 H 0.01966 0.36666 0.66011 0.0
H828 H 0.0024 0.34411 0.72533 0.0
H829 H 0.06284 0.36207 0.78336 0.0
H830 H 0.08023 0.38407 0.7172 0.0
H831 H 0.03409 0.37687 0.82382 0.0
H832 H 0.03714 0.31603 0.78112 0.0
H833 H 0.03248 0.28732 0.73081 0.0
H834 H 0.96585 0.2629 0.72933 0.0
H835 H 0.97012 0.29167 0.77907 0.0
C836 C 0.97718 0.33999 0.99562 0.0
C837 C 0.95581 0.33216 0.98684 0.0
C838 C 0.98998 0.33838 0.96303 0.0
C839 C 0.98171 0.32974 0.92053 0.0
C840 C 0.95992 0.31989 0.91361 0.0
C841 C 0.94697 0.32099 0.94684 0.0
C842 C 0.99601 0.33486 0.88136 0.0
C843 C 0.99428 0.31878 0.85291 0.0
C844 C 0.01064 0.35606 0.8707 0.0
C845 C 0.01151 0.37395 0.8958 0.0
C846 C 0.99373 0.37636 0.89821 0.0
C847 C 0.99454 0.39312 0.92224 0.0
C848 C 0.01313 0.40771 0.94352 0.0
C849 C 0.03097 0.40561 0.9407 0.0
C850 C 0.03022 0.38883 0.91683 0.0
C851 C 0.02922 0.36502 0.68583 0.0
C852 C 0.05121 0.37717 0.68405 0.0
C853 C 0.01937 0.35204 0.72285 0.0
C854 C 0.03138 0.35144 0.75895 0.0
C855 C 0.05336 0.36215 0.75545 0.0
C856 C 0.06324 0.37472 0.71777 0.0
C857 C 0.02125 0.34464 0.80352 0.0
C858 C 0.02346 0.36058 0.83276 0.0
C859 C 0.00667 0.32345 0.81368 0.0
C860 C 0.00398 0.30614 0.78361 0.0
C861 C 0.02151 0.30468 0.76972 0.0
C862 C 0.01893 0.28835 0.74138 0.0
C863 C 0.99889 0.27332 0.72681 0.0
C864 C 0.98137 0.27456 0.74063 0.0
C865 C 0.98386 0.29087 0.76896 0.0
H866 H 0.99693 0.26068 0.70489 0.0
H867 H 0.01374 0.42068 0.96209 0.0
H868 H 0.64135 0.94341 0.16519 0.0
H869 H 0.66705 0.96102 0.10388 0.0
H870 H 0.62197 0.97184 0.03331 0.0
H871 H 0.59672 0.95462 0.09321 0.0
H872 H 0.64326 0.96006 0.97539 0.0
H873 H 0.65833 0.00977 0.10542 0.0
H874 H 0.66974 0.01995 0.18434 0.0
H875 H 0.72569 0.017 0.15832 0.0
H876 H 0.71447 0.00666 0.07933 0.0
H877 H 0.65048 0.0523 0.92473 0.0
H878 H 0.65627 0.02981 0.97597 0.0
H879 H 0.70365 0.03191 0.88676 0.0
H880 H 0.69796 0.05481 0.83476 0.0
H881 H 0.69882 0.03232 0.01488 0.0
H882 H 0.68339 0.99221 0.86976 0.0
H883 H 0.66733 0.98493 0.79384 0.0
H884 H 0.60821 0.97092 0.85199 0.0
H885 H 0.624 0.97831 0.92809 0.0
C886 C 0.63695 0.94935 0.1362 0.0
C887 C 0.61715 0.94793 0.13431 0.0
C888 C 0.65159 0.95933 0.10128 0.0
C889 C 0.64637 0.96765 0.06396 0.0
C890 C 0.6263 0.96537 0.06148 0.0
C891 C 0.61193 0.95572 0.09615 0.0
C892 C 0.66184 0.98078 0.02907 0.0
C893 C 0.65613 0.97557 0.98369 0.0
C894 C 0.67875 1.00094 0.03975 0.0
C895 C 0.68552 0.00731 0.08685 0.0
C896 C 0.67303 0.01126 0.11668 0.0
C897 C 0.67945 0.01704 0.16135 0.0
C898 C 0.69841 0.01908 0.17636 0.0
C899 C 0.711 0.01538 0.14668 0.0
C900 C 0.70462 0.00956 0.10198 0.0
C901 C 0.66247 0.04838 0.9164 0.0
C902 C 0.67357 0.05503 0.87556 0.0
C903 C 0.66588 0.03568 0.94587 0.0
C904 C 0.68031 0.02919 0.93498 0.0
C905 C 0.69249 0.03686 0.89568 0.0
C906 C 0.68923 0.04989 0.86613 0.0
C907 C 0.67942 0.01183 0.96176 0.0
C908 C 0.68753 0.01625 0.00576 0.0
C909 C 0.66454 0.99095 0.94992 0.0
C910 C 0.65487 0.98579 0.90444 0.0
C911 C 0.66698 0.98757 0.86625 0.0
C912 C 0.65793 0.98345 0.82323 0.0
C913 C 0.63677 0.97748 0.81812 0.0
C914 C 0.62459 0.97553 0.85601 0.0
C915 C 0.63356 0.97963 0.89906 0.0
H916 H 0.6298 0.97437 0.78483 0.0
H917 H 0.70336 0.02355 0.21096 0.0
H918 H 0.59644 0.65118 0.08901 0.0
H919 H 0.62325 0.6588 0.14616 0.0
H920 H 0.67174 0.69765 0.05109 0.0
H921 H 0.64461 0.69067 0.99378 0.0
H922 H 0.67069 0.65854 0.09956 0.0
H923 H 0.67651 0.72475 0.12575 0.0
H924 H 0.66348 0.74961 0.13439 0.0
H925 H 0.6281 0.71601 0.25134 0.0
H926 H 0.64061 0.69072 0.24302 0.0
H927 H 0.70221 0.63172 0.30224 0.0
H928 H 0.70842 0.65787 0.24351 0.0
H929 H 0.64886 0.65305 0.2755 0.0
H930 H 0.64297 0.62775 0.33417 0.0
H931 H 0.67495 0.69139 0.24832 0.0
H932 H 0.65406 0.61921 0.19582 0.0
H933 H 0.66091 0.58978 0.18644 0.0
H934 H 0.7192 0.63089 0.1197 0.0
H935 H 0.71272 0.66058 0.1291 0.0
C936 C 0.61279 0.66166 0.08057 0.0
C937 C 0.61857 0.67032 0.03722 0.0
C938 C 0.62805 0.66608 0.11319 0.0
C939 C 0.64939 0.67887 0.10276 0.0
C940 C 0.6553 0.68792 0.0597 0.0
C941 C 0.63988 0.68395 0.02721 0.0
C942 C 0.66494 0.68041 0.13627 0.0
C943 C 0.67254 0.66642 0.13163 0.0
C944 C 0.667 0.69052 0.17803 0.0
C945 C 0.65957 0.70583 0.18375 0.0
C946 C 0.66587 0.72259 0.1532 0.0
C947 C 0.65858 0.73677 0.15805 0.0
C948 C 0.64498 0.73441 0.19342 0.0
C949 C 0.63867 0.71786 0.22403 0.0
C950 C 0.64591 0.70362 0.21932 0.0
C951 C 0.69081 0.63679 0.29751 0.0
C952 C 0.67188 0.62735 0.32201 0.0
C953 C 0.69434 0.65167 0.26392 0.0
C954 C 0.67894 0.65716 0.2545 0.0
C955 C 0.66101 0.64912 0.28194 0.0
C956 C 0.65752 0.63441 0.31525 0.0
C957 C 0.67917 0.66828 0.21245 0.0
C958 C 0.67448 0.68457 0.21556 0.0
C959 C 0.6792 0.65986 0.16943 0.0
C960 C 0.68306 0.64209 0.16364 0.0
C961 C 0.66837 0.62194 0.17932 0.0
C962 C 0.67218 0.60524 0.17401 0.0
C963 C 0.69052 0.60848 0.15263 0.0
C964 C 0.70504 0.62842 0.13638 0.0
C965 C 0.70132 0.64519 0.1417 0.0
H966 H 0.69345 0.59554 0.14855 0.0
H967 H 0.63934 0.74539 0.19709 0.0
H968 H 0.0149 0.64524 0.48678 0.0
H969 H 0.99888 0.65478 0.42695 0.0
H970 H 0.05408 0.71635 0.41881 0.0
H971 H 0.07071 0.70646 0.47831 0.0
H972 H 0.98747 0.68135 0.39938 0.0
H973 H 0.06413 0.7279 0.3108 0.0
H974 H 0.10115 0.73642 0.31528 0.0
H975 H 0.08136 0.67411 0.36323 0.0
H976 H 0.04427 0.66524 0.35866 0.0
H977 H 0.94427 0.64395 0.18003 0.0
H978 H 0.96518 0.67262 0.23319 0.0
H979 H 0.00421 0.64532 0.26004 0.0
H980 H 0.98439 0.61772 0.20672 0.0
H981 H 0.02778 0.68541 0.26186 0.0
H982 H 0.95674 0.63419 0.32619 0.0
H983 H 0.91814 0.61826 0.32535 0.0
H984 H 0.9246 0.67962 0.32997 0.0
H985 H 0.96325 0.69586 0.33049 0.0
C986 C 0.02354 0.66098 0.473 0.0
C987 C 0.04432 0.67485 0.48628 0.0
C988 C 0.01422 0.66656 0.43905 0.0
C989 C 0.02541 0.68616 0.4176 0.0
C990 C 0.04527 0.70101 0.43438 0.0
C991 C 0.05474 0.69534 0.46842 0.0
C992 C 0.01769 0.68865 0.37299 0.0
C993 C 0.99645 0.68293 0.36907 0.0
C994 C 0.0294 0.691 0.33326 0.0
C995 C 0.05155 0.69602 0.33478 0.0
C996 C 0.06773 0.71603 0.32212 0.0
C997 C 0.0887 0.72092 0.32471 0.0
C998 C 0.09361 0.70584 0.33968 0.0
C999 C 0.07755 0.68579 0.35173 0.0
C1000 C 0.05657 0.68081 0.34907 0.0
C1001 C 0.95755 0.64433 0.19684 0.0
C1002 C 0.96246 0.62835 0.1894 0.0
C1003 C 0.96948 0.66073 0.22717 0.0
C1004 C 0.98625 0.66114 0.25092 0.0
C1005 C 0.99156 0.64564 0.24191 0.0
C1006 C 0.97996 0.62959 0.21153 0.0
C1007 C 0.99707 0.67572 0.28911 0.0
C1008 C 0.01905 0.68519 0.29161 0.0
C1009 C 0.98586 0.67592 0.32779 0.0
C1010 C 0.96275 0.66619 0.32792 0.0
C1011 C 0.94987 0.64424 0.32694 0.0
C1012 C 0.92802 0.63517 0.32648 0.0
C1013 C 0.91892 0.64792 0.32747 0.0
C1014 C 0.93167 0.66977 0.32908 0.0
C1015 C 0.95353 0.67891 0.32944 0.0
H1016 H 0.902 0.64088 0.32708 0.0
H1017 H 0.10984 0.70969 0.3419 0.0
H1018 H 0.31633 0.92714 0.40027 0.0
H1019 H 0.31232 0.94839 0.45824 0.0
H1020 H 0.32621 0.99702 0.35966 0.0
H1021 H 0.33177 0.97618 0.30249 0.0
H1022 H 0.35111 0.0134 0.42179 0.0
H1023 H 0.27785 0.97049 0.42559 0.0
H1024 H 0.24317 0.93827 0.4261 0.0
H1025 H 0.25706 0.92077 0.55427 0.0
H1026 H 0.29204 0.95253 0.55407 0.0
H1027 H 0.3747 0.0719 0.62033 0.0
H1028 H 0.34943 0.05414 0.55914 0.0
H1029 H 0.34429 0.99519 0.59809 0.0
H1030 H 0.36945 0.01275 0.65878 0.0
H1031 H 0.30655 0.9907 0.55912 0.0
H1032 H 0.38341 0.02574 0.53087 0.0
H1033 H 0.41856 0.05747 0.53089 0.0
H1034 H 0.39567 0.08938 0.44705 0.0
H1035 H 0.3603 0.05786 0.44707 0.0
C1036 C 0.31779 0.94206 0.39083 0.0
C1037 C 0.32434 0.95016 0.34733 0.0
C1038 C 0.3153 0.95419 0.42387 0.0
C1039 C 0.31881 0.97439 0.41353 0.0
C1040 C 0.32346 0.98156 0.36865 0.0
C1041 C 0.32656 0.96967 0.33595 0.0
C1042 C 0.32192 0.9893 0.45074 0.0
C1043 C 0.3408 0.00865 0.45094 0.0
C1044 C 0.30875 0.98327 0.48937 0.0
C1045 C 0.28767 0.964 0.48976 0.0
C1046 C 0.27361 0.95971 0.45375 0.0
C1047 C 0.25388 0.94149 0.45398 0.0
C1048 C 0.24792 0.92749 0.49019 0.0
C1049 C 0.26169 0.93165 0.52626 0.0
C1050 C 0.28148 0.94977 0.5261 0.0
C1051 C 0.36759 0.05504 0.61678 0.0
C1052 C 0.37434 0.04374 0.64354 0.0
C1053 C 0.35312 0.04491 0.58195 0.0
C1054 C 0.3452 0.02341 0.57388 0.0
C1055 C 0.35018 0.01178 0.60381 0.0
C1056 C 0.36475 0.02188 0.63815 0.0
C1057 C 0.33581 0.01388 0.52985 0.0
C1058 C 0.31601 0.99563 0.52867 0.0
C1059 C 0.34796 0.02085 0.49002 0.0
C1060 C 0.36924 0.03961 0.48938 0.0
C1061 C 0.38589 0.03957 0.51263 0.0
C1062 C 0.40583 0.0575 0.51264 0.0
C1063 C 0.40933 0.07545 0.48909 0.0
C1064 C 0.39292 0.07548 0.46536 0.0
C1065 C 0.37293 0.0576 0.46536 0.0
H1066 H 0.42478 0.08932 0.48914 0.0
H1067 H 0.23264 0.91339 0.49031 0.0
H1068 H 0.39922 0.25518 0.43926 0.0
H1069 H 0.39612 0.22398 0.47751 0.0
H1070 H 0.43173 0.26262 0.59003 0.0
H1071 H 0.43509 0.29347 0.55226 0.0
H1072 H 0.44632 0.23808 0.56748 0.0
H1073 H 0.37803 0.22929 0.5956 0.0
H1074 H 0.34389 0.22564 0.57477 0.0
H1075 H 0.32832 0.16983 0.49935 0.0
H1076 H 0.36252 0.17332 0.51924 0.0
H1077 H 0.39624 0.13957 0.72291 0.0
H1078 H 0.39375 0.16827 0.68578 0.0
H1079 H 0.4316 0.16736 0.57557 0.0
H1080 H 0.43425 0.13914 0.61208 0.0
H1081 H 0.37918 0.17289 0.60028 0.0
H1082 H 0.46646 0.21729 0.54647 0.0
H1083 H 0.50046 0.222 0.57225 0.0
H1084 H 0.47766 0.20896 0.70866 0.0
H1085 H 0.44365 0.20447 0.6838 0.0
C1086 C 0.40633 0.25695 0.47217 0.0
C1087 C 0.41749 0.27688 0.49249 0.0
C1088 C 0.40447 0.2391 0.49414 0.0
C1089 C 0.41365 0.24088 0.53687 0.0
C1090 C 0.42459 0.26076 0.5571 0.0
C1091 C 0.42647 0.27845 0.53532 0.0
C1092 C 0.41267 0.22241 0.56042 0.0
C1093 C 0.43159 0.22384 0.57444 0.0
C1094 C 0.3935 0.20386 0.57036 0.0
C1095 C 0.37292 0.20169 0.55852 0.0
C1096 C 0.3674 0.21633 0.57428 0.0
C1097 C 0.34803 0.21428 0.5627 0.0
C1098 C 0.33397 0.19754 0.53565 0.0
C1099 C 0.33924 0.1828 0.52024 0.0
C1100 C 0.35861 0.1848 0.53168 0.0
C1101 C 0.40394 0.14547 0.69071 0.0
C1102 C 0.41562 0.13717 0.67078 0.0
C1103 C 0.40242 0.16178 0.66939 0.0
C1104 C 0.41267 0.17013 0.62803 0.0
C1105 C 0.42377 0.1614 0.60766 0.0
C1106 C 0.42527 0.14521 0.62874 0.0
C1107 C 0.41283 0.18862 0.60677 0.0
C1108 C 0.39384 0.18716 0.59314 0.0
C1109 C 0.43192 0.20736 0.59774 0.0
C1110 C 0.45244 0.21035 0.61316 0.0
C1111 C 0.46874 0.21552 0.58198 0.0
C1112 C 0.488 0.21813 0.59643 0.0
C1113 C 0.49119 0.21571 0.64204 0.0
C1114 C 0.47515 0.21075 0.67332 0.0
C1115 C 0.45586 0.20815 0.65906 0.0
H1116 H 0.50611 0.21772 0.65314 0.0
H1117 H 0.31898 0.19598 0.52673 0.0
H1118 H 0.28711 0.40898 0.77473 0.0
H1119 H 0.2568 0.40638 0.73528 0.0
H1120 H 0.23211 0.41388 0.86181 0.0
H1121 H 0.26196 0.41499 0.90182 0.0
H1122 H 0.20095 0.38892 0.81413 0.0
H1123 H 0.26039 0.45581 0.78011 0.0
H1124 H 0.29635 0.48083 0.7545 0.0
H1125 H 0.28195 0.45264 0.62282 0.0
H1126 H 0.24597 0.42728 0.64782 0.0
H1127 H 0.13938 0.42933 0.7181 0.0
H1128 H 0.16657 0.42541 0.7565 0.0
H1129 H 0.17814 0.40088 0.63443 0.0
H1130 H 0.15053 0.40454 0.59556 0.0
H1131 H 0.21513 0.4335 0.67815 0.0
H1132 H 0.15333 0.36793 0.71616 0.0
H1133 H 0.11725 0.34624 0.74504 0.0
H1134 H 0.13645 0.37639 0.87428 0.0
H1135 H 0.17259 0.3985 0.84596 0.0
C1136 C 0.2751 0.40987 0.79419 0.0
C1137 C 0.27696 0.41237 0.84129 0.0
C1138 C 0.25782 0.40858 0.77153 0.0
C1139 C 0.24236 0.41067 0.79511 0.0
C1140 C 0.24382 0.41239 0.84256 0.0
C1141 C 0.26088 0.41304 0.86549 0.0
C1142 C 0.22504 0.41146 0.77007 0.0
C1143 C 0.20417 0.39888 0.78473 0.0
C1144 C 0.22895 0.42424 0.73118 0.0
C1145 C 0.25056 0.43952 0.71598 0.0
C1146 C 0.26494 0.45487 0.74578 0.0
C1147 C 0.28532 0.46912 0.73136 0.0
C1148 C 0.29144 0.46829 0.6871 0.0
C1149 C 0.27719 0.45324 0.65712 0.0
C1150 C 0.2568 0.43894 0.67138 0.0
C1151 C 0.14762 0.42302 0.69929 0.0
C1152 C 0.14278 0.41727 0.65366 0.0
C1153 C 0.16313 0.42071 0.72145 0.0
C1154 C 0.17432 0.41272 0.69851 0.0
C1155 C 0.16964 0.40702 0.65284 0.0
C1156 C 0.15385 0.40907 0.6307 0.0
C1157 C 0.19126 0.41096 0.7222 0.0
C1158 C 0.21202 0.42346 0.70737 0.0
C1159 C 0.18729 0.39854 0.7615 0.0
C1160 C 0.16564 0.38498 0.77881 0.0
C1161 C 0.14983 0.37003 0.75065 0.0
C1162 C 0.12937 0.35765 0.76693 0.0
C1163 C 0.12455 0.35996 0.81143 0.0
C1164 C 0.1402 0.37462 0.8398 0.0
C1165 C 0.16069 0.38706 0.82366 0.0
H1166 H 0.10869 0.35038 0.82396 0.0
H1167 H 0.30723 0.47933 0.676 0.0
H1168 H 0.86914 0.25601 0.04604 0.0
H1169 H 0.84206 0.22471 0.00606 0.0
H1170 H 0.82267 0.26331 0.9348 0.0
H1171 H 0.84971 0.29441 0.9735 0.0
H1172 H 0.78907 0.22558 0.97486 0.0
H1173 H 0.85128 0.24929 0.88092 0.0
H1174 H 0.88791 0.25817 0.86744 0.0
H1175 H 0.87245 0.19565 0.90532 0.0
H1176 H 0.83577 0.18651 0.91969 0.0
H1177 H 0.72167 0.16622 0.80327 0.0
H1178 H 0.752 0.19382 0.84322 0.0
H1179 H 0.77394 0.15034 0.87066 0.0
H1180 H 0.74407 0.12299 0.82782 0.0
H1181 H 0.80653 0.18731 0.86059 0.0
H1182 H 0.74486 0.16179 0.95022 0.0
H1183 H 0.70821 0.15159 0.96812 0.0
H1184 H 0.7222 0.21504 0.9462 0.0
H1185 H 0.75887 0.22557 0.92755 0.0
C1186 C 0.85903 0.25774 0.02196 0.0
C1187 C 0.86158 0.27768 0.01289 0.0
C1188 C 0.84365 0.2399 0.99903 0.0
C1189 C 0.8304 0.24171 0.96734 0.0
C1190 C 0.83271 0.26154 0.95906 0.0
C1191 C 0.84823 0.27931 0.98119 0.0
C1192 C 0.81395 0.22315 0.94252 0.0
C1193 C 0.79287 0.21726 0.9497 0.0
C1194 C 0.81887 0.21183 0.91087 0.0
C1195 C 0.84086 0.2173 0.90191 0.0
C1196 C 0.85574 0.2375 0.88679 0.0
C1197 C 0.8765 0.24257 0.8789 0.0
C1198 C 0.88252 0.2275 0.88566 0.0
C1199 C 0.86777 0.20732 0.90019 0.0
C1200 C 0.847 0.20218 0.90819 0.0
C1201 C 0.7333 0.16276 0.81683 0.0
C1202 C 0.73068 0.1426 0.81232 0.0
C1203 C 0.75049 0.17844 0.84023 0.0
C1204 C 0.76499 0.17406 0.86149 0.0
C1205 C 0.76296 0.15414 0.85498 0.0
C1206 C 0.74596 0.13854 0.83037 0.0
C1207 C 0.78151 0.19001 0.89195 0.0
C1208 C 0.80261 0.19539 0.88604 0.0
C1209 C 0.77659 0.20065 0.92557 0.0
C1210 C 0.75458 0.19443 0.93718 0.0
C1211 C 0.74009 0.17354 0.94898 0.0
C1212 C 0.71932 0.1677 0.95927 0.0
C1213 C 0.71287 0.18265 0.95822 0.0
C1214 C 0.72721 0.20348 0.94698 0.0
C1215 C 0.748 0.2094 0.9366 0.0
H1216 H 0.69678 0.17809 0.96618 0.0
H1217 H 0.8986 0.23145 0.87953 0.0
H1218 H 0.58334 0.84351 0.24168 0.0
H1219 H 0.58626 0.81609 0.20072 0.0
H1220 H 0.59944 0.85216 0.07768 0.0
H1221 H 0.59469 0.87848 0.11802 0.0
H1222 H 0.57537 0.81607 0.05555 0.0
H1223 H 0.63765 0.84396 0.14549 0.0
H1224 H 0.65905 0.85521 0.21486 0.0
H1225 H 0.62427 0.7925 0.26765 0.0
H1226 H 0.60248 0.78093 0.19884 0.0
H1227 H 0.603 0.74762 0.93577 0.0
H1228 H 0.6069 0.77903 0.97454 0.0
H1229 H 0.57647 0.74167 0.09244 0.0
H1230 H 0.57236 0.7105 0.05417 0.0
H1231 H 0.61219 0.77987 0.11361 0.0
H1232 H 0.54916 0.75387 0.02172 0.0
H1233 H 0.52973 0.74373 0.9497 0.0
H1234 H 0.56997 0.80567 0.89707 0.0
H1235 H 0.58982 0.81609 0.96862 0.0
C1236 C 0.5871 0.84559 0.20601 0.0
C1237 C 0.58887 0.86308 0.18298 0.0
C1238 C 0.58893 0.82998 0.18251 0.0
C1239 C 0.59345 0.832 0.13584 0.0
C1240 C 0.59585 0.84996 0.11341 0.0
C1241 C 0.59327 0.86511 0.13654 0.0
C1242 C 0.59451 0.81503 0.10971 0.0
C1243 C 0.58386 0.80857 0.06811 0.0
C1244 C 0.60522 0.80472 0.12575 0.0
C1245 C 0.61832 0.81163 0.16716 0.0
C1246 C 0.63448 0.8326 0.17202 0.0
C1247 C 0.64669 0.83903 0.21123 0.0
C1248 C 0.64299 0.82459 0.24569 0.0
C1249 C 0.6271 0.80368 0.24096 0.0
C1250 C 0.61483 0.79717 0.20184 0.0
C1251 C 0.59723 0.74617 0.96999 0.0
C1252 C 0.58725 0.72652 0.99172 0.0
C1253 C 0.59943 0.7641 0.99209 0.0
C1254 C 0.5919 0.7627 0.03643 0.0
C1255 C 0.58243 0.74319 0.05836 0.0
C1256 C 0.58 0.72533 0.03623 0.0
C1257 C 0.59318 0.78123 0.06001 0.0
C1258 C 0.6041 0.7878 0.1011 0.0
C1259 C 0.58312 0.79194 0.04314 0.0
C1260 C 0.57111 0.78568 1.0003 0.0
C1261 C 0.55396 0.76527 0.99465 0.0
C1262 C 0.54286 0.75948 0.95395 0.0
C1263 C 0.54865 0.77402 0.91878 0.0
C1264 C 0.56553 0.79441 0.9243 0.0
C1265 C 0.5767 0.80027 0.96492 0.0
H1266 H 0.54003 0.76952 0.8873 0.0
H1267 H 0.65246 0.8296 0.27601 0.0
H1268 H 0.74728 0.59836 0.40778 0.0
H1269 H 0.77834 0.60127 0.37008 0.0
H1270 H 0.74597 0.58744 0.24217 0.0
H1271 H 0.71475 0.58345 0.28006 0.0
H1272 H 0.76412 0.56653 0.24448 0.0
H1273 H 0.78826 0.63876 0.27635 0.0
H1274 H 0.79618 0.66971 0.32276 0.0
H1275 H 0.83909 0.65972 0.40281 0.0
H1276 H 0.83122 0.62853 0.35723 0.0
H1277 H 0.85602 0.59854 0.10709 0.0
H1278 H 0.82744 0.60081 0.14503 0.0
H1279 H 0.84822 0.5905 0.27362 0.0
H1280 H 0.87632 0.58759 0.23591 0.0
H1281 H 0.83694 0.6246 0.26964 0.0
H1282 H 0.81061 0.55103 0.23469 0.0
H1283 H 0.80294 0.52163 0.1834 0.0
H1284 H 0.76405 0.53697 0.10235 0.0
H1285 H 0.77176 0.56669 0.15284 0.0
C1286 C 0.74691 0.59612 0.37159 0.0
C1287 C 0.72854 0.59062 0.34696 0.0
C1288 C 0.76474 0.59789 0.3499 0.0
C1289 C 0.76477 0.59479 0.3029 0.0
C1290 C 0.74649 0.58979 0.27836 0.0
C1291 C 0.7286 0.58758 0.3001 0.0
C1292 C 0.78334 0.59584 0.27933 0.0
C1293 C 0.77995 0.57948 0.24964 0.0
C1294 C 0.80422 0.61247 0.28613 0.0
C1295 C 0.80897 0.63118 0.31367 0.0
C1296 C 0.79926 0.64307 0.30408 0.0
C1297 C 0.80376 0.66067 0.33019 0.0
C1298 C 0.81808 0.66664 0.36579 0.0
C1299 C 0.82798 0.65505 0.37527 0.0
C1300 C 0.82351 0.63742 0.34929 0.0
C1301 C 0.85461 0.59699 0.14348 0.0
C1302 C 0.86835 0.59279 0.16849 0.0
C1303 C 0.83827 0.59825 0.1651 0.0
C1304 C 0.83569 0.59579 0.21217 0.0
C1305 C 0.84994 0.59248 0.23733 0.0
C1306 C 0.86593 0.59074 0.21568 0.0
C1307 C 0.81748 0.59548 0.235 0.0
C1308 C 0.821 0.61186 0.26453 0.0
C1309 C 0.79668 0.57913 0.22743 0.0
C1310 C 0.79197 0.56123 0.19721 0.0
C1311 C 0.8006 0.54826 0.20567 0.0
C1312 C 0.79621 0.53151 0.17681 0.0
C1313 C 0.78307 0.52747 0.13955 0.0
C1314 C 0.77425 0.54014 0.13117 0.0
C1315 C 0.77862 0.55693 0.15991 0.0
H1316 H 0.77968 0.51449 0.11725 0.0
H1317 H 0.82155 0.68028 0.38596 0.0
H1318 H 0.11705 0.72184 0.45211 0.0
H1319 H 0.14392 0.75245 0.41138 0.0
H1320 H 0.18567 0.76803 0.52553 0.0
H1321 H 0.15796 0.73821 0.56757 0.0
H1322 H 0.19324 0.80233 0.4898 0.0
H1323 H 0.18648 0.73908 0.42453 0.0
H1324 H 0.16712 0.70393 0.38976 0.0
H1325 H 0.14908 0.72934 0.27924 0.0
H1326 H 0.1682 0.76462 0.31358 0.0
H1327 H 0.29057 0.85683 0.37716 0.0
H1328 H 0.25926 0.83033 0.41594 0.0
H1329 H 0.22089 0.82891 0.30445 0.0
H1330 H 0.25247 0.85564 0.26489 0.0
H1331 H 0.21017 0.78893 0.33551 0.0
H1332 H 0.22179 0.85383 0.40025 0.0
H1333 H 0.24352 0.88845 0.43593 0.0
H1334 H 0.25469 0.85907 0.54953 0.0
H1335 H 0.23334 0.8243 0.5142 0.0
C1336 C 0.13185 0.73209 0.46873 0.0
C1337 C 0.13551 0.72774 0.51287 0.0
C1338 C 0.14734 0.74946 0.44524 0.0
C1339 C 0.16726 0.76229 0.46453 0.0
C1340 C 0.17057 0.7584 0.50954 0.0
C1341 C 0.15475 0.74137 0.53365 0.0
C1342 C 0.18481 0.77916 0.43735 0.0
C1343 C 0.197 0.79926 0.45627 0.0
C1344 C 0.18968 0.77551 0.39301 0.0
C1345 C 0.17862 0.75443 0.37178 0.0
C1346 C 0.17834 0.73715 0.39286 0.0
C1347 C 0.16742 0.71721 0.37324 0.0
C1348 C 0.15685 0.7144 0.33236 0.0
C1349 C 0.15728 0.73154 0.31089 0.0
C1350 C 0.16818 0.75152 0.33038 0.0
C1351 C 0.27551 0.85094 0.36067 0.0
C1352 C 0.27406 0.85846 0.31786 0.0
C1353 C 0.25757 0.8358 0.3831 0.0
C1354 C 0.23764 0.8278 0.3635 0.0
C1355 C 0.23609 0.83494 0.32036 0.0
C1356 C 0.25413 0.85023 0.29782 0.0
C1357 C 0.21862 0.81187 0.38827 0.0
C1358 C 0.20622 0.79197 0.3689 0.0
C1359 C 0.21379 0.81561 0.43242 0.0
C1360 C 0.22607 0.83646 0.4544 0.0
C1361 C 0.22895 0.85476 0.43276 0.0
C1362 C 0.2412 0.87441 0.45292 0.0
C1363 C 0.25052 0.87595 0.49491 0.0
C1364 C 0.24748 0.85784 0.51698 0.0
C1365 C 0.23528 0.83816 0.49693 0.0
H1366 H 0.26011 0.89117 0.51035 0.0
H1367 H 0.14834 0.69894 0.31728 0.0
loop_
_geom_bond_atom_site_label_1
_geom_bond_atom_site_label_2
_geom_bond_distance
_geom_bond_site_symmetry_2
_ccdc_geom_bond_type
Co0 O1 2.216 . S
Co0 O2 2.091 . S
Co0 O4 2.004 . S
Co0 O10 2.021 . S
Co0 O12 2.137 . S
Co0 O13 2.244 . S
O1 Co0 2.216 . S
O1 C8 1.247 . S
O2 Co0 2.091 . S
O2 C8 1.261 . S
C3 O12 1.247 . S
C3 O13 1.272 . S
O4 Co0 2.004 . S
O4 C9 1.259 . S
Co5 O6 2.061 . S
Co5 O11 2.052 . S
Co5 O13 2.135 . S
O6 Co5 2.061 . S
O6 C9 1.235 . S
C7 O10 1.238 . S
C7 O11 1.241 . S
C8 O1 1.247 . S
C8 O2 1.261 . S
C9 O4 1.259 . S
C9 O6 1.235 . S
O10 Co0 2.021 . S
O10 C7 1.238 . S
O11 Co5 2.052 . S
O11 C7 1.241 . S
O12 Co0 2.137 . S
O12 C3 1.247 . S
O13 Co0 2.244 . S
O13 C3 1.272 . S
O13 Co5 2.135 . S
Co14 O15 2.216 . S
Co14 O16 2.091 . S
Co14 O18 2.004 . S
Co14 O24 2.021 . S
Co14 O26 2.137 . S
Co14 O27 2.244 . S
O15 Co14 2.216 . S
O15 C22 1.247 . S
O16 Co14 2.091 . S
O16 C22 1.261 . S
C17 O26 1.247 . S
C17 O27 1.272 . S
O18 Co14 2.004 . S
O18 C23 1.259 . S
Co19 O20 2.061 . S
Co19 O25 2.052 . S
Co19 O27 2.135 . S
O20 Co19 2.061 . S
O20 C23 1.235 . S
C21 O24 1.238 . S
C21 O25 1.241 . S
C22 O15 1.247 . S
C22 O16 1.261 . S
C23 O18 1.259 . S
C23 O20 1.235 . S
O24 Co14 2.021 . S
O24 C21 1.238 . S
O25 Co19 2.052 . S
O25 C21 1.241 . S
O26 Co14 2.137 . S
O26 C17 1.247 . S
O27 Co14 2.244 . S
O27 C17 1.272 . S
O27 Co19 2.135 . S
Co28 O29 2.216 . S
Co28 O30 2.091 . S
Co28 O32 2.004 . S
Co28 O38 2.021 . S
Co28 O40 2.137 . S
Co28 O41 2.244 . S
O29 Co28 2.216 . S
O29 C36 1.247 . S
O30 Co28 2.091 . S
O30 C36 1.261 . S
C31 O40 1.247 . S
C31 O41 1.272 . S
O32 Co28 2.004 . S
O32 C37 1.259 . S
Co33 O34 2.061 . S
Co33 O39 2.052 . S
Co33 O41 2.135 . S
O34 Co33 2.061 . S
O34 C37 1.235 . S
C35 O38 1.238 . S
C35 O39 1.241 . S
C36 O29 1.247 . S
C36 O30 1.261 . S
C37 O32 1.259 . S
C37 O34 1.235 . S
O38 Co28 2.021 . S
O38 C35 1.238 . S
O39 Co33 2.052 . S
O39 C35 1.241 . S
O40 Co28 2.137 . S
O40 C31 1.247 . S
O41 Co28 2.244 . S
O41 C31 1.272 . S
O41 Co33 2.135 . S
Co42 O43 2.216 . S
Co42 O44 2.091 . S
Co42 O46 2.004 . S
Co42 O52 2.021 . S
Co42 O54 2.137 . S
Co42 O55 2.244 . S
O43 Co42 2.216 . S
O43 C50 1.247 . S
O44 Co42 2.091 . S
O44 C50 1.261 . S
C45 O54 1.247 . S
C45 O55 1.272 . S
O46 Co42 2.004 . S
O46 C51 1.259 . S
Co47 O48 2.061 . S
Co47 O53 2.052 . S
Co47 O55 2.135 . S
O48 Co47 2.061 . S
O48 C51 1.235 . S
C49 O52 1.238 . S
C49 O53 1.241 . S
C50 O43 1.247 . S
C50 O44 1.261 . S
C51 O46 1.259 . S
C51 O48 1.235 . S
O52 Co42 2.021 . S
O52 C49 1.238 . S
O53 Co47 2.052 . S
O53 C49 1.241 . S
O54 Co42 2.137 . S
O54 C45 1.247 . S
O55 Co42 2.244 . S
O55 C45 1.272 . S
O55 Co47 2.135 . S
Co56 O57 2.216 . S
Co56 O58 2.091 . S
Co56 O60 2.004 . S
Co56 O66 2.021 . S
Co56 O68 2.137 . S
Co56 O69 2.244 . S
O57 Co56 2.216 . S
O57 C64 1.247 . S
O58 Co56 2.091 . S
O58 C64 1.261 . S
C59 O68 1.247 . S
C59 O69 1.272 . S
O60 Co56 2.004 . S
O60 C65 1.259 . S
Co61 O62 2.061 . S
Co61 O67 2.052 . S
Co61 O69 2.135 . S
O62 Co61 2.061 . S
O62 C65 1.235 . S
C63 O66 1.238 . S
C63 O67 1.241 . S
C64 O57 1.247 . S
C64 O58 1.261 . S
C65 O60 1.259 . S
C65 O62 1.235 . S
O66 Co56 2.021 . S
O66 C63 1.238 . S
O67 Co61 2.052 . S
O67 C63 1.241 . S
O68 Co56 2.137 . S
O68 C59 1.247 . S
O69 Co56 2.244 . S
O69 C59 1.272 . S
O69 Co61 2.135 . S
Co70 O71 2.216 . S
Co70 O72 2.091 . S
Co70 O74 2.004 . S
Co70 O80 2.021 . S
Co70 O82 2.137 . S
Co70 O83 2.244 . S
O71 Co70 2.216 . S
O71 C78 1.247 . S
O72 Co70 2.091 . S
O72 C78 1.261 . S
C73 O82 1.247 . S
C73 O83 1.272 . S
O74 Co70 2.004 . S
O74 C79 1.259 . S
Co75 O76 2.061 . S
Co75 O81 2.052 . S
Co75 O83 2.135 . S
O76 Co75 2.061 . S
O76 C79 1.235 . S
C77 O80 1.238 . S
C77 O81 1.241 . S
C78 O71 1.247 . S
C78 O72 1.261 . S
C79 O74 1.259 . S
C79 O76 1.235 . S
O80 Co70 2.021 . S
O80 C77 1.238 . S
O81 Co75 2.052 . S
O81 C77 1.241 . S
O82 Co70 2.137 . S
O82 C73 1.247 . S
O83 Co70 2.244 . S
O83 C73 1.272 . S
O83 Co75 2.135 . S
Co84 O85 2.216 . S
Co84 O86 2.091 . S
Co84 O88 2.004 . S
Co84 O94 2.021 . S
Co84 O96 2.137 . S
Co84 O97 2.244 . S
O85 Co84 2.216 . S
O85 C92 1.247 . S
O86 Co84 2.091 . S
O86 C92 1.261 . S
C87 O96 1.247 . S
C87 O97 1.272 . S
O88 Co84 2.004 . S
O88 C93 1.259 . S
Co89 O90 2.061 . S
Co89 O95 2.052 . S
Co89 O97 2.135 . S
O90 Co89 2.061 . S
O90 C93 1.235 . S
C91 O94 1.238 . S
C91 O95 1.241 . S
C92 O85 1.247 . S
C92 O86 1.261 . S
C93 O88 1.259 . S
C93 O90 1.235 . S
O94 Co84 2.021 . S
O94 C91 1.238 . S
O95 Co89 2.052 . S
O95 C91 1.241 . S
O96 Co84 2.137 . S
O96 C87 1.247 . S
O97 Co84 2.244 . S
O97 C87 1.272 . S
O97 Co89 2.135 . S
Co98 O99 2.216 . S
Co98 O100 2.091 . S
Co98 O102 2.004 . S
Co98 O108 2.021 . S
Co98 O110 2.137 . S
Co98 O111 2.244 . S
O99 Co98 2.216 . S
O99 C106 1.247 . S
O100 Co98 2.091 . S
O100 C106 1.261 . S
C101 O110 1.247 . S
C101 O111 1.272 . S
O102 Co98 2.004 . S
O102 C107 1.259 . S
Co103 O104 2.061 . S
Co103 O109 2.052 . S
Co103 O111 2.135 . S
O104 Co103 2.061 . S
O104 C107 1.235 . S
C105 O108 1.238 . S
C105 O109 1.241 . S
C106 O99 1.247 . S
C106 O100 1.261 . S
C107 O102 1.259 . S
C107 O104 1.235 . S
O108 Co98 2.021 . S
O108 C105 1.238 . S
O109 Co103 2.052 . S
O109 C105 1.241 . S
O110 Co98 2.137 . S
O110 C101 1.247 . S
O111 Co98 2.244 . S
O111 C101 1.272 . S
O111 Co103 2.135 . S
Co112 O113 2.216 . S
Co112 O114 2.091 . S
Co112 O116 2.004 . S
Co112 O122 2.021 . S
Co112 O124 2.137 . S
Co112 O125 2.244 . S
O113 Co112 2.216 . S
O113 C120 1.247 . S
O114 Co112 2.091 . S
O114 C120 1.261 . S
C115 O124 1.247 . S
C115 O125 1.272 . S
O116 Co112 2.004 . S
O116 C121 1.259 . S
Co117 O118 2.061 . S
Co117 O123 2.052 . S
Co117 O125 2.135 . S
O118 Co117 2.061 . S
O118 C121 1.235 . S
C119 O122 1.238 . S
C119 O123 1.241 . S
C120 O113 1.247 . S
C120 O114 1.261 . S
C121 O116 1.259 . S
C121 O118 1.235 . S
O122 Co112 2.021 . S
O122 C119 1.238 . S
O123 Co117 2.052 . S
O123 C119 1.241 . S
O124 Co112 2.137 . S
O124 C115 1.247 . S
O125 Co112 2.244 . S
O125 C115 1.272 . S
O125 Co117 2.135 . S
Co126 O127 2.216 . S
Co126 O128 2.091 . S
Co126 O130 2.004 . S
Co126 O136 2.021 . S
Co126 O138 2.137 . S
Co126 O139 2.244 . S
O127 Co126 2.216 . S
O127 C134 1.247 . S
O128 Co126 2.091 . S
O128 C134 1.261 . S
C129 O138 1.247 . S
C129 O139 1.272 . S
O130 Co126 2.004 . S
O130 C135 1.259 . S
Co131 O132 2.061 . S
Co131 O137 2.052 . S
Co131 O139 2.135 . S
O132 Co131 2.061 . S
O132 C135 1.235 . S
C133 O136 1.238 . S
C133 O137 1.241 . S
C134 O127 1.247 . S
C134 O128 1.261 . S
C135 O130 1.259 . S
C135 O132 1.235 . S
O136 Co126 2.021 . S
O136 C133 1.238 . S
O137 Co131 2.052 . S
O137 C133 1.241 . S
O138 Co126 2.137 . S
O138 C129 1.247 . S
O139 Co126 2.244 . S
O139 C129 1.272 . S
O139 Co131 2.135 . S
Co140 O141 2.216 . S
Co140 O142 2.091 . S
Co140 O144 2.004 . S
Co140 O150 2.021 . S
Co140 O152 2.137 . S
Co140 O153 2.244 . S
O141 Co140 2.216 . S
O141 C148 1.247 . S
O142 Co140 2.091 . S
O142 C148 1.261 . S
C143 O152 1.247 . S
C143 O153 1.272 . S
O144 Co140 2.004 . S
O144 C149 1.259 . S
Co145 O146 2.061 . S
Co145 O151 2.052 . S
Co145 O153 2.135 . S
O146 Co145 2.061 . S
O146 C149 1.235 . S
C147 O150 1.238 . S
C147 O151 1.241 . S
C148 O141 1.247 . S
C148 O142 1.261 . S
C149 O144 1.259 . S
C149 O146 1.235 . S
O150 Co140 2.021 . S
O150 C147 1.238 . S
O151 Co145 2.052 . S
O151 C147 1.241 . S
O152 Co140 2.137 . S
O152 C143 1.247 . S
O153 Co140 2.244 . S
O153 C143 1.272 . S
O153 Co145 2.135 . S
Co154 O155 2.216 . S
Co154 O156 2.091 . S
Co154 O158 2.004 . S
Co154 O164 2.021 . S
Co154 O166 2.137 . S
Co154 O167 2.244 . S
O155 Co154 2.216 . S
O155 C162 1.247 . S
O156 Co154 2.091 . S
O156 C162 1.261 . S
C157 O166 1.247 . S
C157 O167 1.272 . S
O158 Co154 2.004 . S
O158 C163 1.259 . S
Co159 O160 2.061 . S
Co159 O165 2.052 . S
Co159 O167 2.135 . S
O160 Co159 2.061 . S
O160 C163 1.235 . S
C161 O164 1.238 . S
C161 O165 1.241 . S
C162 O155 1.247 . S
C162 O156 1.261 . S
C163 O158 1.259 . S
C163 O160 1.235 . S
O164 Co154 2.021 . S
O164 C161 1.238 . S
O165 Co159 2.052 . S
O165 C161 1.241 . S
O166 Co154 2.137 . S
O166 C157 1.247 . S
O167 Co154 2.244 . S
O167 C157 1.272 . S
O167 Co159 2.135 . S
H168 C186 0.951 1_556 S
H169 C188 0.951 . S
H170 C190 0.950 . S
H171 C191 0.950 . S
H172 C193 0.950 . S
H173 C196 0.950 . S
H174 C197 0.950 . S
H175 C199 0.950 . S
H176 C200 0.950 . S
H177 C201 0.951 . S
H178 C203 0.951 . S
H179 C205 0.950 . S
H180 C206 0.950 . S
H181 C208 0.950 . S
H182 C211 0.950 . S
H183 C212 0.950 . S
H184 C214 0.950 . S
H185 C215 0.950 . S
C186 H168 0.951 1_554 S
C186 C187 1.366 . S
C186 C188 1.388 . S
C187 C186 1.366 . S
C187 C191 1.385 . S
C188 H169 0.951 . S
C188 C186 1.388 . S
C188 C189 1.366 . S
C189 C188 1.366 . S
C189 C190 1.414 . S
C189 C192 1.499 . S
C190 H170 0.950 . S
C190 C189 1.414 . S
C190 C191 1.374 . S
C191 H171 0.950 . S
C191 C187 1.385 . S
C191 C190 1.374 . S
C192 C189 1.499 . S
C192 C193 1.373 . S
C192 C194 1.389 . S
C193 H172 0.950 . S
C193 C192 1.373 . S
C193 C209 1.377 . S
C194 C192 1.389 . S
C194 C195 1.524 . S
C194 C208 1.377 . S
C195 C194 1.524 . S
C195 C196 1.397 . S
C195 C200 1.363 . S
C196 H173 0.950 . S
C196 C195 1.397 . S
C196 C197 1.334 . S
C197 H174 0.950 . S
C197 C196 1.334 . S
C197 C198 1.287 . S
C198 C197 1.287 . S
C198 C199 1.524 . S
C198 H217 0.913 . S
C199 H175 0.950 . S
C199 C198 1.524 . S
C199 C200 1.415 . S
C200 H176 0.950 . S
C200 C195 1.363 . S
C200 C199 1.415 . S
C201 H177 0.951 . S
C201 C202 1.366 . S
C201 C203 1.388 . S
C202 C201 1.366 . S
C202 C206 1.385 . S
C203 H178 0.951 . S
C203 C201 1.388 . S
C203 C204 1.366 . S
C204 C203 1.366 . S
C204 C205 1.414 . S
C204 C207 1.499 . S
C205 H179 0.950 . S
C205 C204 1.414 . S
C205 C206 1.374 . S
C206 H180 0.950 . S
C206 C202 1.385 . S
C206 C205 1.374 . S
C207 C204 1.499 . S
C207 C208 1.373 . S
C207 C209 1.389 . S
C208 H181 0.950 . S
C208 C194 1.377 . S
C208 C207 1.373 . S
C209 C193 1.377 . S
C209 C207 1.389 . S
C209 C210 1.524 . S
C210 C209 1.524 . S
C210 C211 1.397 . S
C210 C215 1.363 . S
C211 H182 0.950 . S
C211 C210 1.397 . S
C211 C212 1.334 . S
C212 H183 0.950 . S
C212 C211 1.334 . S
C212 C213 1.287 . S
C213 C212 1.287 . S
C213 C214 1.524 . S
C213 H216 0.999 . S
C214 H184 0.950 . S
C214 C213 1.524 . S
C214 C215 1.415 . S
C215 H185 0.950 . S
C215 C210 1.363 . S
C215 C214 1.415 . S
H216 C213 0.999 . S
H217 C198 0.913 . S
H218 C236 0.951 . S
H219 C238 0.951 . S
H220 C240 0.950 . S
H221 C241 0.950 . S
H222 C243 0.950 . S
H223 C246 0.950 . S
H224 C247 0.950 . S
H225 C249 0.950 . S
H226 C250 0.950 . S
H227 C251 0.951 . S
H228 C253 0.951 . S
H229 C255 0.950 . S
H230 C256 0.950 . S
H231 C258 0.950 . S
H232 C261 0.950 . S
H233 C262 0.950 . S
H234 C264 0.950 . S
H235 C265 0.950 . S
C236 H218 0.951 . S
C236 C237 1.366 . S
C236 C238 1.388 . S
C237 C236 1.366 . S
C237 C241 1.385 . S
C238 H219 0.951 . S
C238 C236 1.388 . S
C238 C239 1.366 . S
C239 C238 1.366 . S
C239 C240 1.414 . S
C239 C242 1.499 . S
C240 H220 0.950 . S
C240 C239 1.414 . S
C240 C241 1.374 . S
C241 H221 0.950 . S
C241 C237 1.385 . S
C241 C240 1.374 . S
C242 C239 1.499 . S
C242 C243 1.373 1_455 S
C242 C244 1.389 . S
C243 H222 0.950 . S
C243 C242 1.373 1_655 S
C243 C259 1.377 . S
C244 C242 1.389 . S
C244 C245 1.524 . S
C244 C258 1.377 . S
C245 C244 1.524 . S
C245 C246 1.397 . S
C245 C250 1.363 . S
C246 H223 0.950 . S
C246 C245 1.397 . S
C246 C247 1.334 . S
C247 H224 0.950 . S
C247 C246 1.334 . S
C247 C248 1.287 . S
C248 C247 1.287 . S
C248 C249 1.524 . S
C248 H267 0.913 . S
C249 H225 0.950 . S
C249 C248 1.524 . S
C249 C250 1.415 . S
C250 H226 0.950 . S
C250 C245 1.363 . S
C250 C249 1.415 . S
C251 H227 0.951 . S
C251 C252 1.366 . S
C251 C253 1.388 . S
C252 C251 1.366 . S
C252 C256 1.385 . S
C253 H228 0.951 . S
C253 C251 1.388 . S
C253 C254 1.366 . S
C254 C253 1.366 . S
C254 C255 1.414 . S
C254 C257 1.499 . S
C255 H229 0.950 . S
C255 C254 1.414 . S
C255 C256 1.374 . S
C256 H230 0.950 . S
C256 C252 1.385 . S
C256 C255 1.374 . S
C257 C254 1.499 . S
C257 C258 1.373 1_655 S
C257 C259 1.389 . S
C258 H231 0.950 . S
C258 C244 1.377 . S
C258 C257 1.373 1_455 S
C259 C243 1.377 . S
C259 C257 1.389 . S
C259 C260 1.524 . S
C260 C259 1.524 . S
C260 C261 1.397 . S
C260 C265 1.363 . S
C261 H232 0.950 . S
C261 C260 1.397 . S
C261 C262 1.334 . S
C262 H233 0.950 . S
C262 C261 1.334 . S
C262 C263 1.287 . S
C263 C262 1.287 . S
C263 C264 1.524 . S
C263 H266 0.999 . S
C264 H234 0.950 . S
C264 C263 1.524 . S
C264 C265 1.415 . S
C265 H235 0.950 . S
C265 C260 1.363 . S
C265 C264 1.415 . S
H266 C263 0.999 . S
H267 C248 0.913 . S
H268 C286 0.951 . S
H269 C288 0.951 . S
H270 C290 0.950 . S
H271 C291 0.950 . S
H272 C293 0.950 . S
H273 C296 0.950 . S
H274 C297 0.950 . S
H275 C299 0.950 . S
H276 C300 0.950 . S
H277 C301 0.951 . S
H278 C303 0.951 . S
H279 C305 0.950 . S
H280 C306 0.950 . S
H281 C308 0.950 . S
H282 C311 0.950 . S
H283 C312 0.950 . S
H284 C314 0.950 . S
H285 C315 0.950 . S
C286 H268 0.951 . S
C286 C287 1.366 . S
C286 C288 1.388 . S
C287 C286 1.366 . S
C287 C291 1.385 . S
C288 H269 0.951 . S
C288 C286 1.388 . S
C288 C289 1.366 . S
C289 C288 1.366 . S
C289 C290 1.414 . S
C289 C292 1.499 . S
C290 H270 0.950 . S
C290 C289 1.414 . S
C290 C291 1.374 . S
C291 H271 0.950 . S
C291 C287 1.385 . S
C291 C290 1.374 . S
C292 C289 1.499 . S
C292 C293 1.373 . S
C292 C294 1.389 1_565 S
C293 H272 0.950 . S
C293 C292 1.373 . S
C293 C309 1.377 . S
C294 C292 1.389 1_545 S
C294 C295 1.524 . S
C294 C308 1.377 . S
C295 C294 1.524 . S
C295 C296 1.397 . S
C295 C300 1.363 . S
C296 H273 0.950 . S
C296 C295 1.397 . S
C296 C297 1.334 . S
C297 H274 0.950 . S
C297 C296 1.334 . S
C297 C298 1.287 . S
C298 C297 1.287 . S
C298 C299 1.524 . S
C298 H317 0.913 . S
C299 H275 0.950 . S
C299 C298 1.524 . S
C299 C300 1.415 . S
C300 H276 0.950 . S
C300 C295 1.363 . S
C300 C299 1.415 . S
C301 H277 0.951 . S
C301 C302 1.366 . S
C301 C303 1.388 . S
C302 C301 1.366 . S
C302 C306 1.385 . S
C303 H278 0.951 . S
C303 C301 1.388 . S
C303 C304 1.366 . S
C304 C303 1.366 . S
C304 C305 1.414 . S
C304 C307 1.499 . S
C305 H279 0.950 . S
C305 C304 1.414 . S
C305 C306 1.374 . S
C306 H280 0.950 . S
C306 C302 1.385 . S
C306 C305 1.374 . S
C307 C304 1.499 . S
C307 C308 1.373 . S
C307 C309 1.389 1_545 S
C308 H281 0.950 . S
C308 C294 1.377 . S
C308 C307 1.373 . S
C309 C293 1.377 . S
C309 C307 1.389 1_565 S
C309 C310 1.524 . S
C310 C309 1.524 . S
C310 C311 1.397 . S
C310 C315 1.363 . S
C311 H282 0.950 . S
C311 C310 1.397 . S
C311 C312 1.334 . S
C312 H283 0.950 . S
C312 C311 1.334 . S
C312 C313 1.287 . S
C313 C312 1.287 . S
C313 C314 1.524 . S
C313 H316 0.999 . S
C314 H284 0.950 . S
C314 C313 1.524 . S
C314 C315 1.415 . S
C315 H285 0.950 . S
C315 C310 1.363 . S
C315 C314 1.415 . S
H316 C313 0.999 . S
H317 C298 0.913 . S
H318 C336 0.951 . S
H319 C338 0.951 . S
H320 C340 0.950 . S
H321 C341 0.950 . S
H322 C343 0.950 . S
H323 C346 0.950 . S
H324 C347 0.950 . S
H325 C349 0.950 . S
H326 C350 0.950 . S
H327 C351 0.951 . S
H328 C353 0.951 . S
H329 C355 0.950 . S
H330 C356 0.950 . S
H331 C358 0.950 . S
H332 C361 0.950 . S
H333 C362 0.950 . S
H334 C364 0.950 . S
H335 C365 0.950 . S
C336 H318 0.951 . S
C336 C337 1.366 . S
C336 C338 1.388 . S
C337 C336 1.366 . S
C337 C341 1.385 . S
C338 H319 0.951 . S
C338 C336 1.388 . S
C338 C339 1.366 . S
C339 C338 1.366 . S
C339 C340 1.414 . S
C339 C342 1.499 . S
C340 H320 0.950 . S
C340 C339 1.414 . S
C340 C341 1.374 . S
C341 H321 0.950 . S
C341 C337 1.385 . S
C341 C340 1.374 . S
C342 C339 1.499 . S
C342 C343 1.373 . S
C342 C344 1.389 . S
C343 H322 0.950 . S
C343 C342 1.373 . S
C343 C359 1.377 . S
C344 C342 1.389 . S
C344 C345 1.524 . S
C344 C358 1.377 . S
C345 C344 1.524 . S
C345 C346 1.397 . S
C345 C350 1.363 . S
C346 H323 0.950 . S
C346 C345 1.397 . S
C346 C347 1.334 . S
C347 H324 0.950 . S
C347 C346 1.334 . S
C347 C348 1.287 . S
C348 C347 1.287 . S
C348 C349 1.524 . S
C348 H367 0.913 . S
C349 H325 0.950 . S
C349 C348 1.524 . S
C349 C350 1.415 . S
C350 H326 0.950 . S
C350 C345 1.363 . S
C350 C349 1.415 . S
C351 H327 0.951 . S
C351 C352 1.366 . S
C351 C353 1.388 . S
C352 C351 1.366 . S
C352 C356 1.385 . S
C353 H328 0.951 . S
C353 C351 1.388 . S
C353 C354 1.366 . S
C354 C353 1.366 . S
C354 C355 1.414 . S
C354 C357 1.499 . S
C355 H329 0.950 . S
C355 C354 1.414 . S
C355 C356 1.374 . S
C356 H330 0.950 . S
C356 C352 1.385 . S
C356 C355 1.374 . S
C357 C354 1.499 . S
C357 C358 1.373 . S
C357 C359 1.389 . S
C358 H331 0.950 . S
C358 C344 1.377 . S
C358 C357 1.373 . S
C359 C343 1.377 . S
C359 C357 1.389 . S
C359 C360 1.524 . S
C360 C359 1.524 . S
C360 C361 1.397 . S
C360 C365 1.363 . S
C361 H332 0.950 . S
C361 C360 1.397 . S
C361 C362 1.334 . S
C362 H333 0.950 . S
C362 C361 1.334 . S
C362 C363 1.287 . S
C363 C362 1.287 . S
C363 C364 1.524 . S
C363 H366 0.999 . S
C364 H334 0.950 . S
C364 C363 1.524 . S
C364 C365 1.415 . S
C365 H335 0.950 . S
C365 C360 1.363 . S
C365 C364 1.415 . S
H366 C363 0.999 . S
H367 C348 0.913 . S
H368 C386 0.951 . S
H369 C388 0.951 . S
H370 C390 0.950 . S
H371 C391 0.950 . S
H372 C393 0.950 . S
H373 C396 0.950 . S
H374 C397 0.950 . S
H375 C399 0.950 . S
H376 C400 0.950 . S
H377 C401 0.951 . S
H378 C403 0.951 . S
H379 C405 0.950 . S
H380 C406 0.950 1_554 S
H381 C408 0.950 . S
H382 C411 0.950 . S
H383 C412 0.950 . S
H384 C414 0.950 . S
H385 C415 0.950 . S
C386 H368 0.951 . S
C386 C387 1.366 . S
C386 C388 1.388 . S
C387 C386 1.366 . S
C387 C391 1.385 . S
C388 H369 0.951 . S
C388 C386 1.388 . S
C388 C389 1.366 . S
C389 C388 1.366 . S
C389 C390 1.414 . S
C389 C392 1.499 . S
C390 H370 0.950 . S
C390 C389 1.414 . S
C390 C391 1.374 . S
C391 H371 0.950 . S
C391 C387 1.385 . S
C391 C390 1.374 . S
C392 C389 1.499 . S
C392 C393 1.373 1_455 S
C392 C394 1.389 . S
C393 H372 0.950 . S
C393 C392 1.373 1_655 S
C393 C409 1.377 . S
C394 C392 1.389 . S
C394 C395 1.524 . S
C394 C408 1.377 . S
C395 C394 1.524 . S
C395 C396 1.397 . S
C395 C400 1.363 . S
C396 H373 0.950 . S
C396 C395 1.397 . S
C396 C397 1.334 . S
C397 H374 0.950 . S
C397 C396 1.334 . S
C397 C398 1.287 . S
C398 C397 1.287 . S
C398 C399 1.524 . S
C398 H417 0.913 . S
C399 H375 0.950 . S
C399 C398 1.524 . S
C399 C400 1.415 . S
C400 H376 0.950 . S
C400 C395 1.363 . S
C400 C399 1.415 . S
C401 H377 0.951 . S
C401 C402 1.366 . S
C401 C403 1.388 . S
C402 C401 1.366 . S
C402 C406 1.385 . S
C403 H378 0.951 . S
C403 C401 1.388 . S
C403 C404 1.366 . S
C404 C403 1.366 . S
C404 C405 1.414 . S
C404 C407 1.499 . S
C405 H379 0.950 . S
C405 C404 1.414 . S
C405 C406 1.374 . S
C406 H380 0.950 1_556 S
C406 C402 1.385 . S
C406 C405 1.374 . S
C407 C404 1.499 . S
C407 C408 1.373 1_655 S
C407 C409 1.389 . S
C408 H381 0.950 . S
C408 C394 1.377 . S
C408 C407 1.373 1_455 S
C409 C393 1.377 . S
C409 C407 1.389 . S
C409 C410 1.524 . S
C410 C409 1.524 . S
C410 C411 1.397 . S
C410 C415 1.363 . S
C411 H382 0.950 . S
C411 C410 1.397 . S
C411 C412 1.334 . S
C412 H383 0.950 . S
C412 C411 1.334 . S
C412 C413 1.287 . S
C413 C412 1.287 . S
C413 C414 1.524 . S
C413 H416 0.999 . S
C414 H384 0.950 . S
C414 C413 1.524 . S
C414 C415 1.415 . S
C415 H385 0.950 . S
C415 C410 1.363 . S
C415 C414 1.415 . S
H416 C413 0.999 . S
H417 C398 0.913 . S
H418 C436 0.951 . S
H419 C438 0.951 . S
H420 C440 0.950 . S
H421 C441 0.950 . S
H422 C443 0.950 . S
H423 C446 0.950 . S
H424 C447 0.950 . S
H425 C449 0.950 . S
H426 C450 0.950 . S
H427 C451 0.951 . S
H428 C453 0.951 . S
H429 C455 0.950 . S
H430 C456 0.950 . S
H431 C458 0.950 . S
H432 C461 0.950 . S
H433 C462 0.950 . S
H434 C464 0.950 . S
H435 C465 0.950 . S
C436 H418 0.951 . S
C436 C437 1.366 . S
C436 C438 1.388 . S
C437 C436 1.366 . S
C437 C441 1.385 . S
C438 H419 0.951 . S
C438 C436 1.388 . S
C438 C439 1.366 . S
C439 C438 1.366 . S
C439 C440 1.414 . S
C439 C442 1.499 . S
C440 H420 0.950 . S
C440 C439 1.414 . S
C440 C441 1.374 . S
C441 H421 0.950 . S
C441 C437 1.385 . S
C441 C440 1.374 . S
C442 C439 1.499 . S
C442 C443 1.373 . S
C442 C444 1.389 1_545 S
C443 H422 0.950 . S
C443 C442 1.373 . S
C443 C459 1.377 1_556 S
C444 C442 1.389 1_565 S
C444 C445 1.524 . S
C444 C458 1.377 1_556 S
C445 C444 1.524 . S
C445 C446 1.397 . S
C445 C450 1.363 . S
C446 H423 0.950 . S
C446 C445 1.397 . S
C446 C447 1.334 . S
C447 H424 0.950 . S
C447 C446 1.334 . S
C447 C448 1.287 . S
C448 C447 1.287 . S
C448 C449 1.524 . S
C448 H467 0.913 . S
C449 H425 0.950 . S
C449 C448 1.524 . S
C449 C450 1.415 . S
C450 H426 0.950 . S
C450 C445 1.363 . S
C450 C449 1.415 . S
C451 H427 0.951 . S
C451 C452 1.366 . S
C451 C453 1.388 . S
C452 C451 1.366 . S
C452 C456 1.385 . S
C453 H428 0.951 . S
C453 C451 1.388 . S
C453 C454 1.366 . S
C454 C453 1.366 . S
C454 C455 1.414 . S
C454 C457 1.499 . S
C455 H429 0.950 . S
C455 C454 1.414 . S
C455 C456 1.374 . S
C456 H430 0.950 . S
C456 C452 1.385 . S
C456 C455 1.374 . S
C457 C454 1.499 . S
C457 C458 1.373 . S
C457 C459 1.389 1_565 S
C458 H431 0.950 . S
C458 C444 1.377 1_554 S
C458 C457 1.373 . S
C459 C443 1.377 1_554 S
C459 C457 1.389 1_545 S
C459 C460 1.524 . S
C460 C459 1.524 . S
C460 C461 1.397 . S
C460 C465 1.363 . S
C461 H432 0.950 . S
C461 C460 1.397 . S
C461 C462 1.334 . S
C462 H433 0.950 . S
C462 C461 1.334 . S
C462 C463 1.287 . S
C463 C462 1.287 . S
C463 C464 1.524 . S
C463 H466 0.999 . S
C464 H434 0.950 . S
C464 C463 1.524 . S
C464 C465 1.415 . S
C465 H435 0.950 . S
C465 C460 1.363 . S
C465 C464 1.415 . S
H466 C463 0.999 . S
H467 C448 0.913 . S
H468 C486 0.951 . S
H469 C488 0.951 . S
H470 C490 0.950 . S
H471 C491 0.950 . S
H472 C493 0.950 . S
H473 C496 0.950 . S
H474 C497 0.950 . S
H475 C499 0.950 . S
H476 C500 0.950 . S
H477 C501 0.951 . S
H478 C503 0.951 . S
H479 C505 0.950 . S
H480 C506 0.950 . S
H481 C508 0.950 . S
H482 C511 0.950 . S
H483 C512 0.950 . S
H484 C514 0.950 . S
H485 C515 0.950 . S
C486 H468 0.951 . S
C486 C487 1.366 . S
C486 C488 1.388 . S
C487 C486 1.366 . S
C487 C491 1.385 . S
C488 H469 0.951 . S
C488 C486 1.388 . S
C488 C489 1.366 . S
C489 C488 1.366 . S
C489 C490 1.414 . S
C489 C492 1.499 . S
C490 H470 0.950 . S
C490 C489 1.414 . S
C490 C491 1.374 . S
C491 H471 0.950 . S
C491 C487 1.385 . S
C491 C490 1.374 . S
C492 C489 1.499 . S
C492 C493 1.373 . S
C492 C494 1.389 . S
C493 H472 0.950 . S
C493 C492 1.373 . S
C493 C509 1.377 . S
C494 C492 1.389 . S
C494 C495 1.524 . S
C494 C508 1.377 . S
C495 C494 1.524 . S
C495 C496 1.397 . S
C495 C500 1.363 . S
C496 H473 0.950 . S
C496 C495 1.397 . S
C496 C497 1.334 . S
C497 H474 0.950 . S
C497 C496 1.334 . S
C497 C498 1.287 . S
C498 C497 1.287 . S
C498 C499 1.524 . S
C498 H517 0.913 . S
C499 H475 0.950 . S
C499 C498 1.524 . S
C499 C500 1.415 . S
C500 H476 0.950 . S
C500 C495 1.363 . S
C500 C499 1.415 . S
C501 H477 0.951 . S
C501 C502 1.366 . S
C501 C503 1.388 . S
C502 C501 1.366 . S
C502 C506 1.385 . S
C503 H478 0.951 . S
C503 C501 1.388 . S
C503 C504 1.366 . S
C504 C503 1.366 . S
C504 C505 1.414 . S
C504 C507 1.499 . S
C505 H479 0.950 . S
C505 C504 1.414 . S
C505 C506 1.374 . S
C506 H480 0.950 . S
C506 C502 1.385 . S
C506 C505 1.374 . S
C507 C504 1.499 . S
C507 C508 1.373 . S
C507 C509 1.389 . S
C508 H481 0.950 . S
C508 C494 1.377 . S
C508 C507 1.373 . S
C509 C493 1.377 . S
C509 C507 1.389 . S
C509 C510 1.524 . S
C510 C509 1.524 . S
C510 C511 1.397 . S
C510 C515 1.363 . S
C511 H482 0.950 . S
C511 C510 1.397 . S
C511 C512 1.334 . S
C512 H483 0.950 . S
C512 C511 1.334 . S
C512 C513 1.287 . S
C513 C512 1.287 . S
C513 C514 1.524 . S
C513 H516 0.999 . S
C514 H484 0.950 . S
C514 C513 1.524 . S
C514 C515 1.415 . S
C515 H485 0.950 . S
C515 C510 1.363 . S
C515 C514 1.415 . S
H516 C513 0.999 . S
H517 C498 0.913 . S
H518 C536 0.951 . S
H519 C538 0.951 . S
H520 C540 0.950 . S
H521 C541 0.950 . S
H522 C543 0.950 . S
H523 C546 0.950 . S
H524 C547 0.950 . S
H525 C549 0.950 . S
H526 C550 0.950 . S
H527 C551 0.951 . S
H528 C553 0.951 . S
H529 C555 0.950 . S
H530 C556 0.950 . S
H531 C558 0.950 . S
H532 C561 0.950 . S
H533 C562 0.950 . S
H534 C564 0.950 . S
H535 C565 0.950 . S
C536 H518 0.951 . S
C536 C537 1.366 . S
C536 C538 1.388 . S
C537 C536 1.366 . S
C537 C541 1.385 . S
C538 H519 0.951 . S
C538 C536 1.388 . S
C538 C539 1.366 . S
C539 C538 1.366 . S
C539 C540 1.414 . S
C539 C542 1.499 . S
C540 H520 0.950 . S
C540 C539 1.414 . S
C540 C541 1.374 . S
C541 H521 0.950 . S
C541 C537 1.385 . S
C541 C540 1.374 . S
C542 C539 1.499 . S
C542 C543 1.373 . S
C542 C544 1.389 . S
C543 H522 0.950 . S
C543 C542 1.373 . S
C543 C559 1.377 . S
C544 C542 1.389 . S
C544 C545 1.524 . S
C544 C558 1.377 . S
C545 C544 1.524 . S
C545 C546 1.397 . S
C545 C550 1.363 . S
C546 H523 0.950 . S
C546 C545 1.397 . S
C546 C547 1.334 . S
C547 H524 0.950 . S
C547 C546 1.334 . S
C547 C548 1.287 . S
C548 C547 1.287 . S
C548 C549 1.524 . S
C548 H567 0.913 . S
C549 H525 0.950 . S
C549 C548 1.524 . S
C549 C550 1.415 . S
C550 H526 0.950 . S
C550 C545 1.363 . S
C550 C549 1.415 . S
C551 H527 0.951 . S
C551 C552 1.366 . S
C551 C553 1.388 . S
C552 C551 1.366 . S
C552 C556 1.385 . S
C553 H528 0.951 . S
C553 C551 1.388 . S
C553 C554 1.366 . S
C554 C553 1.366 . S
C554 C555 1.414 . S
C554 C557 1.499 . S
C555 H529 0.950 . S
C555 C554 1.414 . S
C555 C556 1.374 . S
C556 H530 0.950 . S
C556 C552 1.385 . S
C556 C555 1.374 . S
C557 C554 1.499 . S
C557 C558 1.373 . S
C557 C559 1.389 . S
C558 H531 0.950 . S
C558 C544 1.377 . S
C558 C557 1.373 . S
C559 C543 1.377 . S
C559 C557 1.389 . S
C559 C560 1.524 . S
C560 C559 1.524 . S
C560 C561 1.397 . S
C560 C565 1.363 . S
C561 H532 0.950 . S
C561 C560 1.397 . S
C561 C562 1.334 . S
C562 H533 0.950 . S
C562 C561 1.334 . S
C562 C563 1.287 . S
C563 C562 1.287 . S
C563 C564 1.524 . S
C563 H566 0.999 . S
C564 H534 0.950 . S
C564 C563 1.524 . S
C564 C565 1.415 . S
C565 H535 0.950 . S
C565 C560 1.363 . S
C565 C564 1.415 . S
H566 C563 0.999 . S
H567 C548 0.913 . S
H568 C586 0.951 . S
H569 C588 0.951 . S
H570 C590 0.950 . S
H571 C591 0.950 . S
H572 C593 0.950 . S
H573 C596 0.950 . S
H574 C597 0.950 . S
H575 C599 0.950 . S
H576 C600 0.950 . S
H577 C601 0.951 . S
H578 C603 0.951 . S
H579 C605 0.950 . S
H580 C606 0.950 . S
H581 C608 0.950 . S
H582 C611 0.950 . S
H583 C612 0.950 . S
H584 C614 0.950 . S
H585 C615 0.950 . S
C586 H568 0.951 . S
C586 C587 1.366 . S
C586 C588 1.388 . S
C587 C586 1.366 . S
C587 C591 1.385 . S
C588 H569 0.951 . S
C588 C586 1.388 . S
C588 C589 1.366 . S
C589 C588 1.366 . S
C589 C590 1.414 . S
C589 C592 1.499 . S
C590 H570 0.950 . S
C590 C589 1.414 . S
C590 C591 1.374 . S
C591 H571 0.950 . S
C591 C587 1.385 . S
C591 C590 1.374 . S
C592 C589 1.499 . S
C592 C593 1.373 . S
C592 C594 1.389 . S
C593 H572 0.950 . S
C593 C592 1.373 . S
C593 C609 1.377 . S
C594 C592 1.389 . S
C594 C595 1.524 . S
C594 C608 1.377 . S
C595 C594 1.524 . S
C595 C596 1.397 . S
C595 C600 1.363 . S
C596 H573 0.950 . S
C596 C595 1.397 . S
C596 C597 1.334 . S
C597 H574 0.950 . S
C597 C596 1.334 . S
C597 C598 1.287 . S
C598 C597 1.287 . S
C598 C599 1.524 . S
C598 H617 0.913 . S
C599 H575 0.950 . S
C599 C598 1.524 . S
C599 C600 1.415 . S
C600 H576 0.950 . S
C600 C595 1.363 . S
C600 C599 1.415 . S
C601 H577 0.951 . S
C601 C602 1.366 . S
C601 C603 1.388 . S
C602 C601 1.366 . S
C602 C606 1.385 . S
C603 H578 0.951 . S
C603 C601 1.388 . S
C603 C604 1.366 . S
C604 C603 1.366 . S
C604 C605 1.414 . S
C604 C607 1.499 . S
C605 H579 0.950 . S
C605 C604 1.414 . S
C605 C606 1.374 . S
C606 H580 0.950 . S
C606 C602 1.385 . S
C606 C605 1.374 . S
C607 C604 1.499 . S
C607 C608 1.373 . S
C607 C609 1.389 . S
C608 H581 0.950 . S
C608 C594 1.377 . S
C608 C607 1.373 . S
C609 C593 1.377 . S
C609 C607 1.389 . S
C609 C610 1.524 . S
C610 C609 1.524 . S
C610 C611 1.397 . S
C610 C615 1.363 . S
C611 H582 0.950 . S
C611 C610 1.397 . S
C611 C612 1.334 . S
C612 H583 0.950 . S
C612 C611 1.334 . S
C612 C613 1.287 . S
C613 C612 1.287 . S
C613 C614 1.524 . S
C613 H616 0.999 . S
C614 H584 0.950 . S
C614 C613 1.524 . S
C614 C615 1.415 . S
C615 H585 0.950 . S
C615 C610 1.363 . S
C615 C614 1.415 . S
H616 C613 0.999 . S
H617 C598 0.913 . S
H618 C636 0.951 . S
H619 C638 0.951 . S
H620 C640 0.950 . S
H621 C641 0.950 . S
H622 C643 0.950 . S
H623 C646 0.950 . S
H624 C647 0.950 . S
H625 C649 0.950 . S
H626 C650 0.950 . S
H627 C651 0.951 . S
H628 C653 0.951 . S
H629 C655 0.950 . S
H630 C656 0.950 . S
H631 C658 0.950 . S
H632 C661 0.950 . S
H633 C662 0.955 . S
H634 C664 0.950 . S
H635 C665 0.950 . S
C636 H618 0.951 . S
C636 C637 1.366 . S
C636 C638 1.388 . S
C637 C636 1.366 . S
C637 C641 1.385 . S
C638 H619 0.951 . S
C638 C636 1.388 . S
C638 C639 1.366 . S
C639 C638 1.366 . S
C639 C640 1.414 . S
C639 C642 1.499 . S
C640 H620 0.950 . S
C640 C639 1.414 . S
C640 C641 1.374 . S
C641 H621 0.950 . S
C641 C637 1.385 . S
C641 C640 1.374 . S
C642 C639 1.499 . S
C642 C643 1.373 . S
C642 C644 1.389 . S
C643 H622 0.950 . S
C643 C642 1.373 . S
C643 C659 1.377 . S
C644 C642 1.389 . S
C644 C645 1.524 . S
C644 C658 1.377 . S
C645 C644 1.524 . S
C645 C646 1.397 . S
C645 C650 1.363 . S
C646 H623 0.950 . S
C646 C645 1.397 . S
C646 C647 1.334 . S
C647 H624 0.950 . S
C647 C646 1.334 . S
C647 C648 1.287 . S
C648 C647 1.287 . S
C648 C649 1.524 . S
C648 H667 0.913 . S
C649 H625 0.950 . S
C649 C648 1.524 . S
C649 C650 1.415 . S
C650 H626 0.950 . S
C650 C645 1.363 . S
C650 C649 1.415 . S
C651 H627 0.951 . S
C651 C652 1.366 . S
C651 C653 1.388 . S
C652 C651 1.366 . S
C652 C656 1.385 . S
C653 H628 0.951 . S
C653 C651 1.388 . S
C653 C654 1.366 . S
C654 C653 1.366 . S
C654 C655 1.414 . S
C654 C657 1.499 . S
C655 H629 0.950 . S
C655 C654 1.414 . S
C655 C656 1.374 . S
C656 H630 0.950 . S
C656 C652 1.385 . S
C656 C655 1.374 . S
C657 C654 1.499 . S
C657 C658 1.373 . S
C657 C659 1.389 . S
C658 H631 0.950 . S
C658 C644 1.377 . S
C658 C657 1.373 . S
C659 C643 1.377 . S
C659 C657 1.389 . S
C659 C660 1.524 . S
C660 C659 1.524 . S
C660 C661 1.397 . S
C660 C665 1.363 1_556 S
C661 H632 0.950 . S
C661 C660 1.397 . S
C661 C662 1.334 1_556 S
C662 H633 0.955 . S
C662 C661 1.334 1_554 S
C662 C663 1.287 . S
C663 C662 1.287 . S
C663 C664 1.524 . S
C663 H666 0.999 . S
C664 H634 0.950 . S
C664 C663 1.524 . S
C664 C665 1.415 . S
C665 H635 0.950 . S
C665 C660 1.363 1_554 S
C665 C664 1.415 . S
H666 C663 0.999 . S
H667 C648 0.913 . S
H668 C686 0.951 . S
H669 C688 0.951 . S
H670 C690 0.950 . S
H671 C691 0.950 . S
H672 C693 0.950 . S
H673 C696 0.950 . S
H674 C697 0.950 . S
H675 C699 0.950 . S
H676 C700 0.950 . S
H677 C701 0.951 . S
H678 C703 0.951 . S
H679 C705 0.950 . S
H680 C706 0.950 . S
H681 C708 0.950 . S
H682 C711 0.950 . S
H683 C712 0.950 . S
H684 C714 0.950 . S
H685 C715 0.949 . S
C686 H668 0.951 . S
C686 C687 1.366 . S
C686 C688 1.388 . S
C687 C686 1.366 . S
C687 C691 1.385 . S
C688 H669 0.951 . S
C688 C686 1.388 . S
C688 C689 1.366 . S
C689 C688 1.366 . S
C689 C690 1.414 . S
C689 C692 1.499 . S
C690 H670 0.950 . S
C690 C689 1.414 . S
C690 C691 1.374 . S
C691 H671 0.950 . S
C691 C687 1.385 . S
C691 C690 1.374 . S
C692 C689 1.499 . S
C692 C693 1.373 . S
C692 C694 1.389 . S
C693 H672 0.950 . S
C693 C692 1.373 . S
C693 C709 1.377 . S
C694 C692 1.389 . S
C694 C695 1.524 . S
C694 C708 1.377 . S
C695 C694 1.524 . S
C695 C696 1.397 . S
C695 C700 1.363 . S
C696 H673 0.950 . S
C696 C695 1.397 . S
C696 C697 1.334 . S
C697 H674 0.950 . S
C697 C696 1.334 . S
C697 C698 1.287 . S
C698 C697 1.287 . S
C698 C699 1.524 . S
C698 H717 0.913 . S
C699 H675 0.950 . S
C699 C698 1.524 . S
C699 C700 1.415 . S
C700 H676 0.950 . S
C700 C695 1.363 . S
C700 C699 1.415 . S
C701 H677 0.951 . S
C701 C702 1.366 . S
C701 C703 1.388 . S
C702 C701 1.366 . S
C702 C706 1.385 . S
C703 H678 0.951 . S
C703 C701 1.388 . S
C703 C704 1.366 . S
C704 C703 1.366 . S
C704 C705 1.414 . S
C704 C707 1.499 . S
C705 H679 0.950 . S
C705 C704 1.414 . S
C705 C706 1.374 . S
C706 H680 0.950 . S
C706 C702 1.385 . S
C706 C705 1.374 . S
C707 C704 1.499 . S
C707 C708 1.373 . S
C707 C709 1.389 . S
C708 H681 0.950 . S
C708 C694 1.377 . S
C708 C707 1.373 . S
C709 C693 1.377 . S
C709 C707 1.389 . S
C709 C710 1.546 . S
C710 C709 1.546 . S
C710 C711 1.385 1_554 S
C710 C715 1.354 1_554 S
C711 H682 0.950 . S
C711 C710 1.385 1_556 S
C711 C712 1.334 . S
C712 H683 0.950 . S
C712 C711 1.334 . S
C712 C713 1.287 . S
C713 C712 1.287 . S
C713 C714 1.524 . S
C713 H716 0.999 . S
C714 H684 0.950 . S
C714 C713 1.524 . S
C714 C715 1.415 . S
C715 H685 0.949 . S
C715 C710 1.354 1_556 S
C715 C714 1.415 . S
H716 C713 0.999 . S
H717 C698 0.913 . S
H718 C736 0.951 . S
H719 C738 0.951 . S
H720 C740 0.950 . S
H721 C741 0.950 . S
H722 C743 0.950 . S
H723 C746 0.950 . S
H724 C747 0.950 . S
H725 C749 0.950 . S
H726 C750 0.950 . S
H727 C751 0.951 . S
H728 C753 0.951 . S
H729 C755 0.950 . S
H730 C756 0.950 . S
H731 C758 0.950 . S
H732 C761 0.950 . S
H733 C762 0.950 . S
H734 C764 0.950 . S
H735 C765 0.950 . S
C736 H718 0.951 . S
C736 C737 1.366 . S
C736 C738 1.388 . S
C737 C736 1.366 . S
C737 C741 1.385 . S
C738 H719 0.951 . S
C738 C736 1.388 . S
C738 C739 1.366 . S
C739 C738 1.366 . S
C739 C740 1.414 . S
C739 C742 1.499 . S
C740 H720 0.950 . S
C740 C739 1.414 . S
C740 C741 1.374 . S
C741 H721 0.950 . S
C741 C737 1.385 . S
C741 C740 1.374 . S
C742 C739 1.499 . S
C742 C743 1.373 . S
C742 C744 1.389 . S
C743 H722 0.950 . S
C743 C742 1.373 . S
C743 C759 1.377 . S
C744 C742 1.389 . S
C744 C745 1.524 . S
C744 C758 1.377 . S
C745 C744 1.524 . S
C745 C746 1.397 . S
C745 C750 1.363 . S
C746 H723 0.950 . S
C746 C745 1.397 . S
C746 C747 1.334 . S
C747 H724 0.950 . S
C747 C746 1.334 . S
C747 C748 1.287 . S
C748 C747 1.287 . S
C748 C749 1.524 . S
C748 H767 0.913 . S
C749 H725 0.950 . S
C749 C748 1.524 . S
C749 C750 1.415 . S
C750 H726 0.950 . S
C750 C745 1.363 . S
C750 C749 1.415 . S
C751 H727 0.951 . S
C751 C752 1.366 . S
C751 C753 1.388 . S
C752 C751 1.366 . S
C752 C756 1.385 . S
C753 H728 0.951 . S
C753 C751 1.388 . S
C753 C754 1.366 . S
C754 C753 1.366 . S
C754 C755 1.414 . S
C754 C757 1.499 . S
C755 H729 0.950 . S
C755 C754 1.414 . S
C755 C756 1.374 . S
C756 H730 0.950 . S
C756 C752 1.385 . S
C756 C755 1.374 . S
C757 C754 1.499 . S
C757 C758 1.373 . S
C757 C759 1.389 . S
C758 H731 0.950 . S
C758 C744 1.377 . S
C758 C757 1.373 . S
C759 C743 1.377 . S
C759 C757 1.389 . S
C759 C760 1.524 . S
C760 C759 1.524 . S
C760 C761 1.397 . S
C760 C765 1.363 . S
C761 H732 0.950 . S
C761 C760 1.397 . S
C761 C762 1.334 . S
C762 H733 0.950 . S
C762 C761 1.334 . S
C762 C763 1.287 . S
C763 C762 1.287 . S
C763 C764 1.524 . S
C763 H766 0.999 . S
C764 H734 0.950 . S
C764 C763 1.524 . S
C764 C765 1.415 . S
C765 H735 0.950 . S
C765 C760 1.363 . S
C765 C764 1.415 . S
H766 C763 0.999 . S
H767 C748 0.913 . S
H768 C786 0.951 . S
H769 C788 0.951 . S
H770 C790 0.950 . S
H771 C791 0.950 . S
H772 C793 0.950 . S
H773 C796 0.950 . S
H774 C797 0.950 . S
H775 C799 0.950 . S
H776 C800 0.950 . S
H777 C801 0.951 . S
H778 C803 0.951 . S
H779 C805 0.950 . S
H780 C806 0.950 . S
H781 C808 0.950 . S
H782 C811 0.950 . S
H783 C812 0.950 . S
H784 C814 0.950 . S
H785 C815 0.950 . S
C786 H768 0.951 . S
C786 C787 1.366 . S
C786 C788 1.388 . S
C787 C786 1.366 . S
C787 C791 1.385 . S
C788 H769 0.951 . S
C788 C786 1.388 . S
C788 C789 1.366 . S
C789 C788 1.366 . S
C789 C790 1.414 . S
C789 C792 1.499 . S
C790 H770 0.950 . S
C790 C789 1.414 . S
C790 C791 1.374 . S
C791 H771 0.950 . S
C791 C787 1.385 . S
C791 C790 1.374 . S
C792 C789 1.499 . S
C792 C793 1.373 . S
C792 C794 1.389 . S
C793 H772 0.950 . S
C793 C792 1.373 . S
C793 C809 1.377 . S
C794 C792 1.389 . S
C794 C795 1.524 . S
C794 C808 1.377 . S
C795 C794 1.524 . S
C795 C796 1.397 . S
C795 C800 1.363 . S
C796 H773 0.950 . S
C796 C795 1.397 . S
C796 C797 1.334 . S
C797 H774 0.950 . S
C797 C796 1.334 . S
C797 C798 1.287 . S
C798 C797 1.287 . S
C798 C799 1.524 . S
C798 H817 0.913 . S
C799 H775 0.950 . S
C799 C798 1.524 . S
C799 C800 1.415 . S
C800 H776 0.950 . S
C800 C795 1.363 . S
C800 C799 1.415 . S
C801 H777 0.951 . S
C801 C802 1.366 . S
C801 C803 1.388 . S
C802 C801 1.366 . S
C802 C806 1.385 . S
C803 H778 0.951 . S
C803 C801 1.388 . S
C803 C804 1.366 . S
C804 C803 1.366 . S
C804 C805 1.414 . S
C804 C807 1.499 . S
C805 H779 0.950 . S
C805 C804 1.414 . S
C805 C806 1.374 . S
C806 H780 0.950 . S
C806 C802 1.385 . S
C806 C805 1.374 . S
C807 C804 1.499 . S
C807 C808 1.373 . S
C807 C809 1.389 . S
C808 H781 0.950 . S
C808 C794 1.377 . S
C808 C807 1.373 . S
C809 C793 1.377 . S
C809 C807 1.389 . S
C809 C810 1.524 . S
C810 C809 1.524 . S
C810 C811 1.397 . S
C810 C815 1.363 . S
C811 H782 0.950 . S
C811 C810 1.397 . S
C811 C812 1.334 . S
C812 H783 0.950 . S
C812 C811 1.334 . S
C812 C813 1.287 . S
C813 C812 1.287 . S
C813 C814 1.524 . S
C813 H816 0.999 . S
C814 H784 0.950 . S
C814 C813 1.524 . S
C814 C815 1.415 . S
C815 H785 0.950 . S
C815 C810 1.363 . S
C815 C814 1.415 . S
H816 C813 0.999 . S
H817 C798 0.913 . S
H818 C836 0.951 1_554 S
H819 C838 0.951 . S
H820 C840 0.950 . S
H821 C841 0.950 . S
H822 C843 0.950 . S
H823 C846 0.950 . S
H824 C847 0.950 . S
H825 C849 0.950 . S
H826 C850 0.950 . S
H827 C851 0.951 . S
H828 C853 0.951 . S
H829 C855 0.950 . S
H830 C856 0.950 . S
H831 C858 0.950 . S
H832 C861 0.950 . S
H833 C862 0.950 . S
H834 C864 0.950 . S
H835 C865 0.950 . S
C836 H818 0.951 1_556 S
C836 C837 1.366 . S
C836 C838 1.388 . S
C837 C836 1.366 . S
C837 C841 1.385 . S
C838 H819 0.951 . S
C838 C836 1.388 . S
C838 C839 1.366 . S
C839 C838 1.366 . S
C839 C840 1.414 . S
C839 C842 1.499 . S
C840 H820 0.950 . S
C840 C839 1.414 . S
C840 C841 1.374 . S
C841 H821 0.950 . S
C841 C837 1.385 . S
C841 C840 1.374 . S
C842 C839 1.499 . S
C842 C843 1.373 . S
C842 C844 1.389 . S
C843 H822 0.950 . S
C843 C842 1.373 . S
C843 C859 1.377 1_655 S
C844 C842 1.389 . S
C844 C845 1.524 . S
C844 C858 1.377 1_655 S
C845 C844 1.524 . S
C845 C846 1.397 . S
C845 C850 1.363 1_655 S
C846 H823 0.950 . S
C846 C845 1.397 . S
C846 C847 1.334 . S
C847 H824 0.950 . S
C847 C846 1.334 . S
C847 C848 1.287 . S
C848 C847 1.287 . S
C848 C849 1.524 1_655 S
C848 H867 0.913 . S
C849 H825 0.950 . S
C849 C848 1.524 1_455 S
C849 C850 1.415 . S
C850 H826 0.950 . S
C850 C845 1.363 1_455 S
C850 C849 1.415 . S
C851 H827 0.951 . S
C851 C852 1.366 . S
C851 C853 1.388 . S
C852 C851 1.366 . S
C852 C856 1.385 . S
C853 H828 0.951 . S
C853 C851 1.388 . S
C853 C854 1.366 . S
C854 C853 1.366 . S
C854 C855 1.414 . S
C854 C857 1.499 . S
C855 H829 0.950 . S
C855 C854 1.414 . S
C855 C856 1.374 . S
C856 H830 0.950 . S
C856 C852 1.385 . S
C856 C855 1.374 . S
C857 C854 1.499 . S
C857 C858 1.373 . S
C857 C859 1.389 . S
C858 H831 0.950 . S
C858 C844 1.377 1_455 S
C858 C857 1.373 . S
C859 C843 1.377 1_455 S
C859 C857 1.389 . S
C859 C860 1.524 . S
C860 C859 1.524 . S
C860 C861 1.397 . S
C860 C865 1.363 1_455 S
C861 H832 0.950 . S
C861 C860 1.397 . S
C861 C862 1.334 . S
C862 H833 0.950 . S
C862 C861 1.334 . S
C862 C863 1.287 . S
C863 C862 1.287 . S
C863 C864 1.524 1_455 S
C863 H866 0.999 . S
C864 H834 0.950 . S
C864 C863 1.524 1_655 S
C864 C865 1.415 . S
C865 H835 0.950 . S
C865 C860 1.363 1_655 S
C865 C864 1.415 . S
H866 C863 0.999 . S
H867 C848 0.913 . S
H868 C886 0.951 . S
H869 C888 0.951 . S
H870 C890 0.950 . S
H871 C891 0.950 . S
H872 C893 0.950 . S
H873 C896 0.950 . S
H874 C897 0.950 . S
H875 C899 0.950 . S
H876 C900 0.950 . S
H877 C901 0.951 . S
H878 C903 0.951 . S
H879 C905 0.950 . S
H880 C906 0.950 . S
H881 C908 0.950 . S
H882 C911 0.950 . S
H883 C912 0.950 . S
H884 C914 0.950 . S
H885 C915 0.950 . S
C886 H868 0.951 . S
C886 C887 1.366 . S
C886 C888 1.388 . S
C887 C886 1.366 . S
C887 C891 1.385 . S
C888 H869 0.951 . S
C888 C886 1.388 . S
C888 C889 1.366 . S
C889 C888 1.366 . S
C889 C890 1.414 . S
C889 C892 1.499 . S
C890 H870 0.950 . S
C890 C889 1.414 . S
C890 C891 1.374 . S
C891 H871 0.950 . S
C891 C887 1.385 . S
C891 C890 1.374 . S
C892 C889 1.499 . S
C892 C893 1.373 . S
C892 C894 1.389 1_565 S
C893 H872 0.950 . S
C893 C892 1.373 . S
C893 C909 1.377 1_554 S
C894 C892 1.389 1_545 S
C894 C895 1.524 . S
C894 C908 1.377 1_554 S
C895 C894 1.524 . S
C895 C896 1.397 . S
C895 C900 1.363 . S
C896 H873 0.950 . S
C896 C895 1.397 . S
C896 C897 1.334 . S
C897 H874 0.950 . S
C897 C896 1.334 . S
C897 C898 1.287 . S
C898 C897 1.287 . S
C898 C899 1.524 . S
C898 H917 0.913 . S
C899 H875 0.950 . S
C899 C898 1.524 . S
C899 C900 1.415 . S
C900 H876 0.950 . S
C900 C895 1.363 . S
C900 C899 1.415 . S
C901 H877 0.951 . S
C901 C902 1.366 . S
C901 C903 1.388 . S
C902 C901 1.366 . S
C902 C906 1.385 . S
C903 H878 0.951 . S
C903 C901 1.388 . S
C903 C904 1.366 . S
C904 C903 1.366 . S
C904 C905 1.414 . S
C904 C907 1.499 . S
C905 H879 0.950 . S
C905 C904 1.414 . S
C905 C906 1.374 . S
C906 H880 0.950 . S
C906 C902 1.385 . S
C906 C905 1.374 . S
C907 C904 1.499 . S
C907 C908 1.373 . S
C907 C909 1.389 1_545 S
C908 H881 0.950 . S
C908 C894 1.377 1_556 S
C908 C907 1.373 . S
C909 C893 1.377 1_556 S
C909 C907 1.389 1_565 S
C909 C910 1.524 . S
C910 C909 1.524 . S
C910 C911 1.397 . S
C910 C915 1.363 . S
C911 H882 0.950 . S
C911 C910 1.397 . S
C911 C912 1.334 . S
C912 H883 0.950 . S
C912 C911 1.334 . S
C912 C913 1.287 . S
C913 C912 1.287 . S
C913 C914 1.524 . S
C913 H916 0.999 . S
C914 H884 0.950 . S
C914 C913 1.524 . S
C914 C915 1.415 . S
C915 H885 0.950 . S
C915 C910 1.363 . S
C915 C914 1.415 . S
H916 C913 0.999 . S
H917 C898 0.913 . S
H918 C936 0.951 . S
H919 C938 0.951 . S
H920 C940 0.950 . S
H921 C941 0.950 1_556 S
H922 C943 0.950 . S
H923 C946 0.950 . S
H924 C947 0.950 . S
H925 C949 0.950 . S
H926 C950 0.950 . S
H927 C951 0.951 . S
H928 C953 0.951 . S
H929 C955 0.950 . S
H930 C956 0.950 . S
H931 C958 0.950 . S
H932 C961 0.950 . S
H933 C962 0.950 . S
H934 C964 0.950 . S
H935 C965 0.950 . S
C936 H918 0.951 . S
C936 C937 1.366 . S
C936 C938 1.388 . S
C937 C936 1.366 . S
C937 C941 1.385 . S
C938 H919 0.951 . S
C938 C936 1.388 . S
C938 C939 1.366 . S
C939 C938 1.366 . S
C939 C940 1.414 . S
C939 C942 1.499 . S
C940 H920 0.950 . S
C940 C939 1.414 . S
C940 C941 1.374 . S
C941 H921 0.950 1_554 S
C941 C937 1.385 . S
C941 C940 1.374 . S
C942 C939 1.499 . S
C942 C943 1.373 . S
C942 C944 1.389 . S
C943 H922 0.950 . S
C943 C942 1.373 . S
C943 C959 1.377 . S
C944 C942 1.389 . S
C944 C945 1.524 . S
C944 C958 1.377 . S
C945 C944 1.524 . S
C945 C946 1.397 . S
C945 C950 1.363 . S
C946 H923 0.950 . S
C946 C945 1.397 . S
C946 C947 1.334 . S
C947 H924 0.950 . S
C947 C946 1.334 . S
C947 C948 1.287 . S
C948 C947 1.287 . S
C948 C949 1.524 . S
C948 H967 0.913 . S
C949 H925 0.950 . S
C949 C948 1.524 . S
C949 C950 1.415 . S
C950 H926 0.950 . S
C950 C945 1.363 . S
C950 C949 1.415 . S
C951 H927 0.951 . S
C951 C952 1.366 . S
C951 C953 1.388 . S
C952 C951 1.366 . S
C952 C956 1.385 . S
C953 H928 0.951 . S
C953 C951 1.388 . S
C953 C954 1.366 . S
C954 C953 1.366 . S
C954 C955 1.414 . S
C954 C957 1.499 . S
C955 H929 0.950 . S
C955 C954 1.414 . S
C955 C956 1.374 . S
C956 H930 0.950 . S
C956 C952 1.385 . S
C956 C955 1.374 . S
C957 C954 1.499 . S
C957 C958 1.373 . S
C957 C959 1.389 . S
C958 H931 0.950 . S
C958 C944 1.377 . S
C958 C957 1.373 . S
C959 C943 1.377 . S
C959 C957 1.389 . S
C959 C960 1.524 . S
C960 C959 1.524 . S
C960 C961 1.397 . S
C960 C965 1.363 . S
C961 H932 0.950 . S
C961 C960 1.397 . S
C961 C962 1.334 . S
C962 H933 0.950 . S
C962 C961 1.334 . S
C962 C963 1.287 . S
C963 C962 1.287 . S
C963 C964 1.524 . S
C963 H966 0.999 . S
C964 H934 0.950 . S
C964 C963 1.524 . S
C964 C965 1.415 . S
C965 H935 0.950 . S
C965 C960 1.363 . S
C965 C964 1.415 . S
H966 C963 0.999 . S
H967 C948 0.913 . S
H968 C986 0.951 . S
H969 C988 0.951 . S
H970 C990 0.950 . S
H971 C991 0.950 . S
H972 C993 0.966 . S
H973 C996 0.950 . S
H974 C997 0.950 . S
H975 C999 0.950 . S
H976 C1000 0.950 . S
H977 C1001 0.951 . S
H978 C1003 0.951 . S
H979 C1005 0.950 . S
H980 C1006 0.950 . S
H981 C1008 0.966 . S
H982 C1011 0.950 . S
H983 C1012 0.950 . S
H984 C1014 0.950 . S
H985 C1015 0.950 . S
C986 H968 0.951 . S
C986 C987 1.366 . S
C986 C988 1.388 . S
C987 C986 1.366 . S
C987 C991 1.385 . S
C988 H969 0.951 . S
C988 C986 1.388 . S
C988 C989 1.366 . S
C989 C988 1.366 . S
C989 C990 1.414 . S
C989 C992 1.499 . S
C990 H970 0.950 . S
C990 C989 1.414 . S
C990 C991 1.374 . S
C991 H971 0.950 . S
C991 C987 1.385 . S
C991 C990 1.374 . S
C992 C989 1.499 . S
C992 C993 1.335 1_455 S
C992 C994 1.389 . S
C993 H972 0.966 . S
C993 C992 1.335 1_655 S
C993 C1009 1.400 . S
C994 C992 1.389 . S
C994 C995 1.524 . S
C994 C1008 1.399 . S
C995 C994 1.524 . S
C995 C996 1.397 . S
C995 C1000 1.363 . S
C996 H973 0.950 . S
C996 C995 1.397 . S
C996 C997 1.334 . S
C997 H974 0.950 . S
C997 C996 1.334 . S
C997 C998 1.287 . S
C998 C997 1.287 . S
C998 C999 1.524 . S
C998 H1017 0.913 . S
C999 H975 0.950 . S
C999 C998 1.524 . S
C999 C1000 1.415 . S
C1000 H976 0.950 . S
C1000 C995 1.363 . S
C1000 C999 1.415 . S
C1001 H977 0.951 . S
C1001 C1002 1.366 . S
C1001 C1003 1.388 . S
C1002 C1001 1.366 . S
C1002 C1006 1.385 . S
C1003 H978 0.951 . S
C1003 C1001 1.388 . S
C1003 C1004 1.366 . S
C1004 C1003 1.366 . S
C1004 C1005 1.414 . S
C1004 C1007 1.499 . S
C1005 H979 0.950 . S
C1005 C1004 1.414 . S
C1005 C1006 1.374 . S
C1006 H980 0.950 . S
C1006 C1002 1.385 . S
C1006 C1005 1.374 . S
C1007 C1004 1.499 . S
C1007 C1008 1.336 1_655 S
C1007 C1009 1.389 . S
C1008 H981 0.966 . S
C1008 C994 1.399 . S
C1008 C1007 1.336 1_455 S
C1009 C993 1.400 . S
C1009 C1007 1.389 . S
C1009 C1010 1.524 . S
C1010 C1009 1.524 . S
C1010 C1011 1.397 . S
C1010 C1015 1.363 . S
C1011 H982 0.950 . S
C1011 C1010 1.397 . S
C1011 C1012 1.334 . S
C1012 H983 0.950 . S
C1012 C1011 1.334 . S
C1012 C1013 1.287 . S
C1013 C1012 1.287 . S
C1013 C1014 1.524 . S
C1013 H1016 0.999 . S
C1014 H984 0.950 . S
C1014 C1013 1.524 . S
C1014 C1015 1.415 . S
C1015 H985 0.950 . S
C1015 C1010 1.363 . S
C1015 C1014 1.415 . S
H1016 C1013 0.999 . S
H1017 C998 0.913 . S
H1018 C1036 0.951 . S
H1019 C1038 0.951 . S
H1020 C1040 0.950 . S
H1021 C1041 0.950 . S
H1022 C1043 0.950 . S
H1023 C1046 0.950 . S
H1024 C1047 0.950 . S
H1025 C1049 0.950 . S
H1026 C1050 0.950 . S
H1027 C1051 0.951 . S
H1028 C1053 0.951 . S
H1029 C1055 0.950 . S
H1030 C1056 0.950 . S
H1031 C1058 0.950 . S
H1032 C1061 0.950 . S
H1033 C1062 0.950 . S
H1034 C1064 0.950 . S
H1035 C1065 0.950 . S
C1036 H1018 0.951 . S
C1036 C1037 1.366 . S
C1036 C1038 1.388 . S
C1037 C1036 1.366 . S
C1037 C1041 1.385 . S
C1038 H1019 0.951 . S
C1038 C1036 1.388 . S
C1038 C1039 1.366 . S
C1039 C1038 1.366 . S
C1039 C1040 1.414 . S
C1039 C1042 1.499 . S
C1040 H1020 0.950 . S
C1040 C1039 1.414 . S
C1040 C1041 1.374 . S
C1041 H1021 0.950 . S
C1041 C1037 1.385 . S
C1041 C1040 1.374 . S
C1042 C1039 1.499 . S
C1042 C1043 1.373 1_565 S
C1042 C1044 1.389 . S
C1043 H1022 0.950 . S
C1043 C1042 1.373 1_545 S
C1043 C1059 1.377 . S
C1044 C1042 1.389 . S
C1044 C1045 1.524 . S
C1044 C1058 1.377 . S
C1045 C1044 1.524 . S
C1045 C1046 1.397 . S
C1045 C1050 1.363 . S
C1046 H1023 0.950 . S
C1046 C1045 1.397 . S
C1046 C1047 1.334 . S
C1047 H1024 0.950 . S
C1047 C1046 1.334 . S
C1047 C1048 1.287 . S
C1048 C1047 1.287 . S
C1048 C1049 1.524 . S
C1048 H1067 0.913 . S
C1049 H1025 0.950 . S
C1049 C1048 1.524 . S
C1049 C1050 1.415 . S
C1050 H1026 0.950 . S
C1050 C1045 1.363 . S
C1050 C1049 1.415 . S
C1051 H1027 0.951 . S
C1051 C1052 1.366 . S
C1051 C1053 1.388 . S
C1052 C1051 1.366 . S
C1052 C1056 1.385 . S
C1053 H1028 0.951 . S
C1053 C1051 1.388 . S
C1053 C1054 1.366 . S
C1054 C1053 1.366 . S
C1054 C1055 1.414 . S
C1054 C1057 1.499 . S
C1055 H1029 0.950 . S
C1055 C1054 1.414 . S
C1055 C1056 1.374 . S
C1056 H1030 0.950 . S
C1056 C1052 1.385 . S
C1056 C1055 1.374 . S
C1057 C1054 1.499 . S
C1057 C1058 1.373 1_545 S
C1057 C1059 1.389 . S
C1058 H1031 0.950 . S
C1058 C1044 1.377 . S
C1058 C1057 1.373 1_565 S
C1059 C1043 1.377 . S
C1059 C1057 1.389 . S
C1059 C1060 1.524 . S
C1060 C1059 1.524 . S
C1060 C1061 1.397 . S
C1060 C1065 1.363 . S
C1061 H1032 0.950 . S
C1061 C1060 1.397 . S
C1061 C1062 1.334 . S
C1062 H1033 0.950 . S
C1062 C1061 1.334 . S
C1062 C1063 1.287 . S
C1063 C1062 1.287 . S
C1063 C1064 1.524 . S
C1063 H1066 0.999 . S
C1064 H1034 0.950 . S
C1064 C1063 1.524 . S
C1064 C1065 1.415 . S
C1065 H1035 0.950 . S
C1065 C1060 1.363 . S
C1065 C1064 1.415 . S
H1066 C1063 0.999 . S
H1067 C1048 0.913 . S
H1068 C1086 0.951 . S
H1069 C1088 0.951 . S
H1070 C1090 0.950 . S
H1071 C1091 0.950 . S
H1072 C1093 0.950 . S
H1073 C1096 0.950 . S
H1074 C1097 0.950 . S
H1075 C1099 0.950 . S
H1076 C1100 0.950 . S
H1077 C1101 0.951 . S
H1078 C1103 0.951 . S
H1079 C1105 0.950 . S
H1080 C1106 0.950 . S
H1081 C1108 0.950 . S
H1082 C1111 0.950 . S
H1083 C1112 0.950 . S
H1084 C1114 0.950 . S
H1085 C1115 0.950 . S
C1086 H1068 0.951 . S
C1086 C1087 1.366 . S
C1086 C1088 1.388 . S
C1087 C1086 1.366 . S
C1087 C1091 1.385 . S
C1088 H1069 0.951 . S
C1088 C1086 1.388 . S
C1088 C1089 1.366 . S
C1089 C1088 1.366 . S
C1089 C1090 1.414 . S
C1089 C1092 1.499 . S
C1090 H1070 0.950 . S
C1090 C1089 1.414 . S
C1090 C1091 1.374 . S
C1091 H1071 0.950 . S
C1091 C1087 1.385 . S
C1091 C1090 1.374 . S
C1092 C1089 1.499 . S
C1092 C1093 1.373 . S
C1092 C1094 1.389 . S
C1093 H1072 0.950 . S
C1093 C1092 1.373 . S
C1093 C1109 1.377 . S
C1094 C1092 1.389 . S
C1094 C1095 1.524 . S
C1094 C1108 1.377 . S
C1095 C1094 1.524 . S
C1095 C1096 1.397 . S
C1095 C1100 1.363 . S
C1096 H1073 0.950 . S
C1096 C1095 1.397 . S
C1096 C1097 1.334 . S
C1097 H1074 0.950 . S
C1097 C1096 1.334 . S
C1097 C1098 1.287 . S
C1098 C1097 1.287 . S
C1098 C1099 1.524 . S
C1098 H1117 0.913 . S
C1099 H1075 0.950 . S
C1099 C1098 1.524 . S
C1099 C1100 1.415 . S
C1100 H1076 0.950 . S
C1100 C1095 1.363 . S
C1100 C1099 1.415 . S
C1101 H1077 0.951 . S
C1101 C1102 1.366 . S
C1101 C1103 1.388 . S
C1102 C1101 1.366 . S
C1102 C1106 1.385 . S
C1103 H1078 0.951 . S
C1103 C1101 1.388 . S
C1103 C1104 1.366 . S
C1104 C1103 1.366 . S
C1104 C1105 1.414 . S
C1104 C1107 1.499 . S
C1105 H1079 0.950 . S
C1105 C1104 1.414 . S
C1105 C1106 1.374 . S
C1106 H1080 0.950 . S
C1106 C1102 1.385 . S
C1106 C1105 1.374 . S
C1107 C1104 1.499 . S
C1107 C1108 1.373 . S
C1107 C1109 1.389 . S
C1108 H1081 0.950 . S
C1108 C1094 1.377 . S
C1108 C1107 1.373 . S
C1109 C1093 1.377 . S
C1109 C1107 1.389 . S
C1109 C1110 1.524 . S
C1110 C1109 1.524 . S
C1110 C1111 1.397 . S
C1110 C1115 1.363 . S
C1111 H1082 0.950 . S
C1111 C1110 1.397 . S
C1111 C1112 1.334 . S
C1112 H1083 0.950 . S
C1112 C1111 1.334 . S
C1112 C1113 1.287 . S
C1113 C1112 1.287 . S
C1113 C1114 1.524 . S
C1113 H1116 0.999 . S
C1114 H1084 0.950 . S
C1114 C1113 1.524 . S
C1114 C1115 1.415 . S
C1115 H1085 0.950 . S
C1115 C1110 1.363 . S
C1115 C1114 1.415 . S
H1116 C1113 0.999 . S
H1117 C1098 0.913 . S
H1118 C1136 0.951 . S
H1119 C1138 0.951 . S
H1120 C1140 0.950 . S
H1121 C1141 0.950 . S
H1122 C1143 0.950 . S
H1123 C1146 0.950 . S
H1124 C1147 0.950 . S
H1125 C1149 0.950 . S
H1126 C1150 0.950 . S
H1127 C1151 0.951 . S
H1128 C1153 0.951 . S
H1129 C1155 0.950 . S
H1130 C1156 0.950 . S
H1131 C1158 0.950 . S
H1132 C1161 0.950 . S
H1133 C1162 0.950 . S
H1134 C1164 0.950 . S
H1135 C1165 0.950 . S
C1136 H1118 0.951 . S
C1136 C1137 1.366 . S
C1136 C1138 1.388 . S
C1137 C1136 1.366 . S
C1137 C1141 1.385 . S
C1138 H1119 0.951 . S
C1138 C1136 1.388 . S
C1138 C1139 1.366 . S
C1139 C1138 1.366 . S
C1139 C1140 1.414 . S
C1139 C1142 1.499 . S
C1140 H1120 0.950 . S
C1140 C1139 1.414 . S
C1140 C1141 1.374 . S
C1141 H1121 0.950 . S
C1141 C1137 1.385 . S
C1141 C1140 1.374 . S
C1142 C1139 1.499 . S
C1142 C1143 1.373 . S
C1142 C1144 1.389 . S
C1143 H1122 0.950 . S
C1143 C1142 1.373 . S
C1143 C1159 1.377 . S
C1144 C1142 1.389 . S
C1144 C1145 1.524 . S
C1144 C1158 1.377 . S
C1145 C1144 1.524 . S
C1145 C1146 1.397 . S
C1145 C1150 1.363 . S
C1146 H1123 0.950 . S
C1146 C1145 1.397 . S
C1146 C1147 1.334 . S
C1147 H1124 0.950 . S
C1147 C1146 1.334 . S
C1147 C1148 1.287 . S
C1148 C1147 1.287 . S
C1148 C1149 1.524 . S
C1148 H1167 0.913 . S
C1149 H1125 0.950 . S
C1149 C1148 1.524 . S
C1149 C1150 1.415 . S
C1150 H1126 0.950 . S
C1150 C1145 1.363 . S
C1150 C1149 1.415 . S
C1151 H1127 0.951 . S
C1151 C1152 1.366 . S
C1151 C1153 1.388 . S
C1152 C1151 1.366 . S
C1152 C1156 1.385 . S
C1153 H1128 0.951 . S
C1153 C1151 1.388 . S
C1153 C1154 1.366 . S
C1154 C1153 1.366 . S
C1154 C1155 1.414 . S
C1154 C1157 1.499 . S
C1155 H1129 0.950 . S
C1155 C1154 1.414 . S
C1155 C1156 1.374 . S
C1156 H1130 0.950 . S
C1156 C1152 1.385 . S
C1156 C1155 1.374 . S
C1157 C1154 1.499 . S
C1157 C1158 1.373 . S
C1157 C1159 1.389 . S
C1158 H1131 0.950 . S
C1158 C1144 1.377 . S
C1158 C1157 1.373 . S
C1159 C1143 1.377 . S
C1159 C1157 1.389 . S
C1159 C1160 1.524 . S
C1160 C1159 1.524 . S
C1160 C1161 1.397 . S
C1160 C1165 1.363 . S
C1161 H1132 0.950 . S
C1161 C1160 1.397 . S
C1161 C1162 1.334 . S
C1162 H1133 0.950 . S
C1162 C1161 1.334 . S
C1162 C1163 1.287 . S
C1163 C1162 1.287 . S
C1163 C1164 1.524 . S
C1163 H1166 0.999 . S
C1164 H1134 0.950 . S
C1164 C1163 1.524 . S
C1164 C1165 1.415 . S
C1165 H1135 0.950 . S
C1165 C1160 1.363 . S
C1165 C1164 1.415 . S
H1166 C1163 0.999 . S
H1167 C1148 0.913 . S
H1168 C1186 0.951 . S
H1169 C1188 0.949 1_554 S
H1170 C1190 0.950 . S
H1171 C1191 0.950 . S
H1172 C1193 0.950 . S
H1173 C1196 0.950 . S
H1174 C1197 0.950 . S
H1175 C1199 0.950 . S
H1176 C1200 0.950 . S
H1177 C1201 0.951 . S
H1178 C1203 0.951 . S
H1179 C1205 0.950 . S
H1180 C1206 0.950 . S
H1181 C1208 0.950 . S
H1182 C1211 0.950 . S
H1183 C1212 0.950 . S
H1184 C1214 0.950 . S
H1185 C1215 0.950 . S
C1186 H1168 0.951 . S
C1186 C1187 1.366 . S
C1186 C1188 1.388 1_554 S
C1187 C1186 1.366 . S
C1187 C1191 1.385 1_554 S
C1188 H1169 0.949 1_556 S
C1188 C1186 1.388 1_556 S
C1188 C1189 1.366 . S
C1189 C1188 1.366 . S
C1189 C1190 1.414 . S
C1189 C1192 1.499 . S
C1190 H1170 0.950 . S
C1190 C1189 1.414 . S
C1190 C1191 1.374 . S
C1191 H1171 0.950 . S
C1191 C1187 1.385 1_556 S
C1191 C1190 1.374 . S
C1192 C1189 1.499 . S
C1192 C1193 1.373 . S
C1192 C1194 1.389 . S
C1193 H1172 0.950 . S
C1193 C1192 1.373 . S
C1193 C1209 1.377 . S
C1194 C1192 1.389 . S
C1194 C1195 1.524 . S
C1194 C1208 1.377 . S
C1195 C1194 1.524 . S
C1195 C1196 1.397 . S
C1195 C1200 1.363 . S
C1196 H1173 0.950 . S
C1196 C1195 1.397 . S
C1196 C1197 1.334 . S
C1197 H1174 0.950 . S
C1197 C1196 1.334 . S
C1197 C1198 1.287 . S
C1198 C1197 1.287 . S
C1198 C1199 1.524 . S
C1198 H1217 0.913 . S
C1199 H1175 0.950 . S
C1199 C1198 1.524 . S
C1199 C1200 1.415 . S
C1200 H1176 0.950 . S
C1200 C1195 1.363 . S
C1200 C1199 1.415 . S
C1201 H1177 0.951 . S
C1201 C1202 1.366 . S
C1201 C1203 1.388 . S
C1202 C1201 1.366 . S
C1202 C1206 1.385 . S
C1203 H1178 0.951 . S
C1203 C1201 1.388 . S
C1203 C1204 1.366 . S
C1204 C1203 1.366 . S
C1204 C1205 1.414 . S
C1204 C1207 1.499 . S
C1205 H1179 0.950 . S
C1205 C1204 1.414 . S
C1205 C1206 1.374 . S
C1206 H1180 0.950 . S
C1206 C1202 1.385 . S
C1206 C1205 1.374 . S
C1207 C1204 1.499 . S
C1207 C1208 1.373 . S
C1207 C1209 1.389 . S
C1208 H1181 0.950 . S
C1208 C1194 1.377 . S
C1208 C1207 1.373 . S
C1209 C1193 1.377 . S
C1209 C1207 1.389 . S
C1209 C1210 1.524 . S
C1210 C1209 1.524 . S
C1210 C1211 1.397 . S
C1210 C1215 1.363 . S
C1211 H1182 0.950 . S
C1211 C1210 1.397 . S
C1211 C1212 1.334 . S
C1212 H1183 0.950 . S
C1212 C1211 1.334 . S
C1212 C1213 1.287 . S
C1213 C1212 1.287 . S
C1213 C1214 1.524 . S
C1213 H1216 0.999 . S
C1214 H1184 0.950 . S
C1214 C1213 1.524 . S
C1214 C1215 1.415 . S
C1215 H1185 0.950 . S
C1215 C1210 1.363 . S
C1215 C1214 1.415 . S
H1216 C1213 0.999 . S
H1217 C1198 0.913 . S
H1218 C1236 0.951 . S
H1219 C1238 0.951 . S
H1220 C1240 0.950 . S
H1221 C1241 0.950 . S
H1222 C1243 0.950 . S
H1223 C1246 0.950 . S
H1224 C1247 0.950 . S
H1225 C1249 0.950 . S
H1226 C1250 0.950 . S
H1227 C1251 0.951 . S
H1228 C1253 0.951 . S
H1229 C1255 0.950 . S
H1230 C1256 0.950 . S
H1231 C1258 0.950 . S
H1232 C1261 0.950 . S
H1233 C1262 0.950 . S
H1234 C1264 0.950 . S
H1235 C1265 0.950 . S
C1236 H1218 0.951 . S
C1236 C1237 1.366 . S
C1236 C1238 1.388 . S
C1237 C1236 1.366 . S
C1237 C1241 1.385 . S
C1238 H1219 0.951 . S
C1238 C1236 1.388 . S
C1238 C1239 1.366 . S
C1239 C1238 1.366 . S
C1239 C1240 1.414 . S
C1239 C1242 1.499 . S
C1240 H1220 0.950 . S
C1240 C1239 1.414 . S
C1240 C1241 1.374 . S
C1241 H1221 0.950 . S
C1241 C1237 1.385 . S
C1241 C1240 1.374 . S
C1242 C1239 1.499 . S
C1242 C1243 1.373 . S
C1242 C1244 1.389 . S
C1243 H1222 0.950 . S
C1243 C1242 1.373 . S
C1243 C1259 1.377 . S
C1244 C1242 1.389 . S
C1244 C1245 1.524 . S
C1244 C1258 1.377 . S
C1245 C1244 1.524 . S
C1245 C1246 1.397 . S
C1245 C1250 1.363 . S
C1246 H1223 0.950 . S
C1246 C1245 1.397 . S
C1246 C1247 1.334 . S
C1247 H1224 0.950 . S
C1247 C1246 1.334 . S
C1247 C1248 1.287 . S
C1248 C1247 1.287 . S
C1248 C1249 1.524 . S
C1248 H1267 0.913 . S
C1249 H1225 0.950 . S
C1249 C1248 1.524 . S
C1249 C1250 1.415 . S
C1250 H1226 0.950 . S
C1250 C1245 1.363 . S
C1250 C1249 1.415 . S
C1251 H1227 0.951 . S
C1251 C1252 1.366 . S
C1251 C1253 1.388 . S
C1252 C1251 1.366 . S
C1252 C1256 1.385 1_556 S
C1253 H1228 0.951 . S
C1253 C1251 1.388 . S
C1253 C1254 1.366 1_556 S
C1254 C1253 1.366 1_554 S
C1254 C1255 1.414 . S
C1254 C1257 1.499 . S
C1255 H1229 0.950 . S
C1255 C1254 1.414 . S
C1255 C1256 1.374 . S
C1256 H1230 0.950 . S
C1256 C1252 1.385 1_554 S
C1256 C1255 1.374 . S
C1257 C1254 1.499 . S
C1257 C1258 1.373 . S
C1257 C1259 1.389 . S
C1258 H1231 0.950 . S
C1258 C1244 1.377 . S
C1258 C1257 1.373 . S
C1259 C1243 1.377 . S
C1259 C1257 1.389 . S
C1259 C1260 1.524 1_554 S
C1260 C1259 1.524 1_556 S
C1260 C1261 1.397 . S
C1260 C1265 1.363 . S
C1261 H1232 0.950 . S
C1261 C1260 1.397 . S
C1261 C1262 1.334 . S
C1262 H1233 0.950 . S
C1262 C1261 1.334 . S
C1262 C1263 1.287 . S
C1263 C1262 1.287 . S
C1263 C1264 1.524 . S
C1263 H1266 0.999 . S
C1264 H1234 0.950 . S
C1264 C1263 1.524 . S
C1264 C1265 1.415 . S
C1265 H1235 0.950 . S
C1265 C1260 1.363 . S
C1265 C1264 1.415 . S
H1266 C1263 0.999 . S
H1267 C1248 0.913 . S
H1268 C1286 0.951 . S
H1269 C1288 0.951 . S
H1270 C1290 0.950 . S
H1271 C1291 0.950 . S
H1272 C1293 0.950 . S
H1273 C1296 0.950 . S
H1274 C1297 0.950 . S
H1275 C1299 0.950 . S
H1276 C1300 0.950 . S
H1277 C1301 0.951 . S
H1278 C1303 0.951 . S
H1279 C1305 0.950 . S
H1280 C1306 0.950 . S
H1281 C1308 0.950 . S
H1282 C1311 0.950 . S
H1283 C1312 0.950 . S
H1284 C1314 0.950 . S
H1285 C1315 0.950 . S
C1286 H1268 0.951 . S
C1286 C1287 1.366 . S
C1286 C1288 1.388 . S
C1287 C1286 1.366 . S
C1287 C1291 1.385 . S
C1288 H1269 0.951 . S
C1288 C1286 1.388 . S
C1288 C1289 1.366 . S
C1289 C1288 1.366 . S
C1289 C1290 1.414 . S
C1289 C1292 1.499 . S
C1290 H1270 0.950 . S
C1290 C1289 1.414 . S
C1290 C1291 1.374 . S
C1291 H1271 0.950 . S
C1291 C1287 1.385 . S
C1291 C1290 1.374 . S
C1292 C1289 1.499 . S
C1292 C1293 1.373 . S
C1292 C1294 1.389 . S
C1293 H1272 0.950 . S
C1293 C1292 1.373 . S
C1293 C1309 1.377 . S
C1294 C1292 1.389 . S
C1294 C1295 1.524 . S
C1294 C1308 1.377 . S
C1295 C1294 1.524 . S
C1295 C1296 1.397 . S
C1295 C1300 1.363 . S
C1296 H1273 0.950 . S
C1296 C1295 1.397 . S
C1296 C1297 1.334 . S
C1297 H1274 0.950 . S
C1297 C1296 1.334 . S
C1297 C1298 1.287 . S
C1298 C1297 1.287 . S
C1298 C1299 1.524 . S
C1298 H1317 0.913 . S
C1299 H1275 0.950 . S
C1299 C1298 1.524 . S
C1299 C1300 1.415 . S
C1300 H1276 0.950 . S
C1300 C1295 1.363 . S
C1300 C1299 1.415 . S
C1301 H1277 0.951 . S
C1301 C1302 1.366 . S
C1301 C1303 1.388 . S
C1302 C1301 1.366 . S
C1302 C1306 1.385 . S
C1303 H1278 0.951 . S
C1303 C1301 1.388 . S
C1303 C1304 1.366 . S
C1304 C1303 1.366 . S
C1304 C1305 1.414 . S
C1304 C1307 1.499 . S
C1305 H1279 0.950 . S
C1305 C1304 1.414 . S
C1305 C1306 1.374 . S
C1306 H1280 0.950 . S
C1306 C1302 1.385 . S
C1306 C1305 1.374 . S
C1307 C1304 1.499 . S
C1307 C1308 1.373 . S
C1307 C1309 1.389 . S
C1308 H1281 0.950 . S
C1308 C1294 1.377 . S
C1308 C1307 1.373 . S
C1309 C1293 1.377 . S
C1309 C1307 1.389 . S
C1309 C1310 1.524 . S
C1310 C1309 1.524 . S
C1310 C1311 1.397 . S
C1310 C1315 1.363 . S
C1311 H1282 0.950 . S
C1311 C1310 1.397 . S
C1311 C1312 1.334 . S
C1312 H1283 0.950 . S
C1312 C1311 1.334 . S
C1312 C1313 1.287 . S
C1313 C1312 1.287 . S
C1313 C1314 1.524 . S
C1313 H1316 0.999 . S
C1314 H1284 0.950 . S
C1314 C1313 1.524 . S
C1314 C1315 1.415 . S
C1315 H1285 0.950 . S
C1315 C1310 1.363 . S
C1315 C1314 1.415 . S
H1316 C1313 0.999 . S
H1317 C1298 0.913 . S
H1318 C1336 0.951 . S
H1319 C1338 0.951 . S
H1320 C1340 0.950 . S
H1321 C1341 0.950 . S
H1322 C1343 0.950 . S
H1323 C1346 0.950 . S
H1324 C1347 0.950 . S
H1325 C1349 0.950 . S
H1326 C1350 0.950 . S
H1327 C1351 0.951 . S
H1328 C1353 0.951 . S
H1329 C1355 0.950 . S
H1330 C1356 0.950 . S
H1331 C1358 0.950 . S
H1332 C1361 0.950 . S
H1333 C1362 0.950 . S
H1334 C1364 0.950 . S
H1335 C1365 0.950 . S
C1336 H1318 0.951 . S
C1336 C1337 1.366 . S
C1336 C1338 1.388 . S
C1337 C1336 1.366 . S
C1337 C1341 1.385 . S
C1338 H1319 0.951 . S
C1338 C1336 1.388 . S
C1338 C1339 1.366 . S
C1339 C1338 1.366 . S
C1339 C1340 1.414 . S
C1339 C1342 1.499 . S
C1340 H1320 0.950 . S
C1340 C1339 1.414 . S
C1340 C1341 1.374 . S
C1341 H1321 0.950 . S
C1341 C1337 1.385 . S
C1341 C1340 1.374 . S
C1342 C1339 1.499 . S
C1342 C1343 1.373 . S
C1342 C1344 1.389 . S
C1343 H1322 0.950 . S
C1343 C1342 1.373 . S
C1343 C1359 1.377 . S
C1344 C1342 1.389 . S
C1344 C1345 1.524 . S
C1344 C1358 1.377 . S
C1345 C1344 1.524 . S
C1345 C1346 1.397 . S
C1345 C1350 1.363 . S
C1346 H1323 0.950 . S
C1346 C1345 1.397 . S
C1346 C1347 1.334 . S
C1347 H1324 0.950 . S
C1347 C1346 1.334 . S
C1347 C1348 1.287 . S
C1348 C1347 1.287 . S
C1348 C1349 1.524 . S
C1348 H1367 0.913 . S
C1349 H1325 0.950 . S
C1349 C1348 1.524 . S
C1349 C1350 1.415 . S
C1350 H1326 0.950 . S
C1350 C1345 1.363 . S
C1350 C1349 1.415 . S
C1351 H1327 0.951 . S
C1351 C1352 1.366 . S
C1351 C1353 1.388 . S
C1352 C1351 1.366 . S
C1352 C1356 1.385 . S
C1353 H1328 0.951 . S
C1353 C1351 1.388 . S
C1353 C1354 1.366 . S
C1354 C1353 1.366 . S
C1354 C1355 1.414 . S
C1354 C1357 1.499 . S
C1355 H1329 0.950 . S
C1355 C1354 1.414 . S
C1355 C1356 1.374 . S
C1356 H1330 0.950 . S
C1356 C1352 1.385 . S
C1356 C1355 1.374 . S
C1357 C1354 1.499 . S
C1357 C1358 1.373 . S
C1357 C1359 1.389 . S
C1358 H1331 0.950 . S
C1358 C1344 1.377 . S
C1358 C1357 1.373 . S
C1359 C1343 1.377 . S
C1359 C1357 1.389 . S
C1359 C1360 1.524 . S
C1360 C1359 1.524 . S
C1360 C1361 1.397 . S
C1360 C1365 1.363 . S
C1361 H1332 0.950 . S
C1361 C1360 1.397 . S
C1361 C1362 1.334 . S
C1362 H1333 0.950 . S
C1362 C1361 1.334 . S
C1362 C1363 1.287 . S
C1363 C1362 1.287 . S
C1363 C1364 1.524 . S
C1363 H1366 0.999 . S
C1364 H1334 0.950 . S
C1364 C1363 1.524 . S
C1364 C1365 1.415 . S
C1365 H1335 0.950 . S
C1365 C1360 1.363 . S
C1365 C1364 1.415 . S
H1366 C1363 0.999 . S
H1367 C1348 0.913 . S
C187 C135 1.584 1_554 S
C202 C9 1.584 . S
C237 C23 1.584 . S
C252 C149 1.584 . S
C287 C163 1.584 . S
C302 C37 1.584 . S
C337 C93 1.584 . S
C352 C51 1.585 . S
C387 C107 1.584 . S
C402 C65 1.584 1_556 S
C437 C121 1.584 . S
C452 C79 1.584 . S
C487 C87 1.466 . S
C502 C3 1.466 . S
C537 C17 1.466 . S
C552 C101 1.466 . S
C587 C115 1.466 . S
C602 C31 1.466 . S
C637 C45 1.466 . S
C652 C129 1.466 . S
C687 C143 1.466 . S
C702 C59 1.466 . S
C737 C73 1.466 . S
C752 C157 1.466 . S
C787 C133 1.210 . S
C802 C7 1.211 . S
C837 C147 1.212 1_556 S
C852 C21 1.210 . S
C887 C161 1.211 . S
C902 C35 1.212 . S
C937 C49 1.210 1_554 S
C952 C91 1.211 . S
C987 C105 1.211 . S
C1002 C63 1.211 . S
C1037 C77 1.210 . S
C1052 C119 1.212 . S
C1087 C8 1.083 . S
C1102 C120 1.083 . S
C1137 C134 1.083 . S
C1152 C22 1.083 . S
C1187 C148 1.084 . S
C1202 C36 1.084 . S
C1237 C162 1.083 . S
C1252 C50 1.083 . S
C1287 C92 1.083 . S
C1302 C64 1.083 . S
C1337 C106 1.084 . S
C1352 C78 1.084 . S
