# Generated by pormake.
# Topology xfz, (5)-cn, num edge types: 1
# Building blocks:
#     Node 0, Type 0, BuildingBlock: XOMCOT_clean_sbu_1, # of connection points: 5
#     Node 1, Type 0, BuildingBlock: XOMCOT_clean_sbu_1, # of connection points: 5
#     Node 2, Type 0, BuildingBlock: XOMCOT_clean_sbu_1, # of connection points: 5
#     Node 3, Type 0, BuildingBlock: XOMCOT_clean_sbu_1, # of connection points: 5
#     Node 4, Type 0, BuildingBlock: XOMCOT_clean_sbu_1, # of connection points: 5
#     Node 5, Type 0, BuildingBlock: XOMCOT_clean_sbu_1, # of connection points: 5
#     Node 6, Type 0, BuildingBlock: XOMCOT_clean_sbu_1, # of connection points: 5
#     Node 7, Type 0, BuildingBlock: XOMCOT_clean_sbu_1, # of connection points: 5
#     Node 8, Type 0, BuildingBlock: XOMCOT_clean_sbu_1, # of connection points: 5
#     Node 9, Type 0, BuildingBlock: XOMCOT_clean_sbu_1, # of connection points: 5
#     Node 10, Type 0, BuildingBlock: XOMCOT_clean_sbu_1, # of connection points: 5
#     Node 11, Type 0, BuildingBlock: XOMCOT_clean_sbu_1, # of connection points: 5
#     Node 12, Type 0, BuildingBlock: XOMCOT_clean_sbu_1, # of connection points: 5
#     Node 13, Type 0, BuildingBlock: XOMCOT_clean_sbu_1, # of connection points: 5
#     Node 14, Type 0, BuildingBlock: XOMCOT_clean_sbu_1, # of connection points: 5
#     Node 15, Type 0, BuildingBlock: XOMCOT_clean_sbu_1, # of connection points: 5
#     Edge 16, Type (0, 0), BuildingBlock: XIVTED_clean_linker_0, # of connection points: 2
#     Edge 17, Type (0, 0), BuildingBlock: XIVTED_clean_linker_0, # of connection points: 2
#     Edge 18, Type (0, 0), BuildingBlock: XIVTED_clean_linker_0, # of connection points: 2
#     Edge 19, Type (0, 0), BuildingBlock: XIVTED_clean_linker_0, # of connection points: 2
#     Edge 20, Type (0, 0), BuildingBlock: XIVTED_clean_linker_0, # of connection points: 2
#     Edge 21, Type (0, 0), BuildingBlock: XIVTED_clean_linker_0, # of connection points: 2
#     Edge 22, Type (0, 0), BuildingBlock: XIVTED_clean_linker_0, # of connection points: 2
#     Edge 23, Type (0, 0), BuildingBlock: XIVTED_clean_linker_0, # of connection points: 2
#     Edge 24, Type (0, 0), BuildingBlock: XIVTED_clean_linker_0, # of connection points: 2
#     Edge 25, Type (0, 0), BuildingBlock: XIVTED_clean_linker_0, # of connection points: 2
#     Edge 26, Type (0, 0), BuildingBlock: XIVTED_clean_linker_0, # of connection points: 2
#     Edge 27, Type (0, 0), BuildingBlock: XIVTED_clean_linker_0, # of connection points: 2
#     Edge 28, Type (0, 0), BuildingBlock: XIVTED_clean_linker_0, # of connection points: 2
#     Edge 29, Type (0, 0), BuildingBlock: XIVTED_clean_linker_0, # of connection points: 2
#     Edge 30, Type (0, 0), BuildingBlock: XIVTED_clean_linker_0, # of connection points: 2
#     Edge 31, Type (0, 0), BuildingBlock: XIVTED_clean_linker_0, # of connection points: 2
#     Edge 32, Type (0, 0), BuildingBlock: XIVTED_clean_linker_0, # of connection points: 2
#     Edge 33, Type (0, 0), BuildingBlock: XIVTED_clean_linker_0, # of connection points: 2
#     Edge 34, Type (0, 0), BuildingBlock: XIVTED_clean_linker_0, # of connection points: 2
#     Edge 35, Type (0, 0), BuildingBlock: XIVTED_clean_linker_0, # of connection points: 2
#     Edge 36, Type (0, 0), BuildingBlock: XIVTED_clean_linker_0, # of connection points: 2
#     Edge 37, Type (0, 0), BuildingBlock: XIVTED_clean_linker_0, # of connection points: 2
#     Edge 38, Type (0, 0), BuildingBlock: XIVTED_clean_linker_0, # of connection points: 2
#     Edge 39, Type (0, 0), BuildingBlock: XIVTED_clean_linker_0, # of connection points: 2
#     Edge 40, Type (0, 0), BuildingBlock: XIVTED_clean_linker_0, # of connection points: 2
#     Edge 41, Type (0, 0), BuildingBlock: XIVTED_clean_linker_0, # of connection points: 2
#     Edge 42, Type (0, 0), BuildingBlock: XIVTED_clean_linker_0, # of connection points: 2
#     Edge 43, Type (0, 0), BuildingBlock: XIVTED_clean_linker_0, # of connection points: 2
#     Edge 44, Type (0, 0), BuildingBlock: XIVTED_clean_linker_0, # of connection points: 2
#     Edge 45, Type (0, 0), BuildingBlock: XIVTED_clean_linker_0, # of connection points: 2
#     Edge 46, Type (0, 0), BuildingBlock: XIVTED_clean_linker_0, # of connection points: 2
#     Edge 47, Type (0, 0), BuildingBlock: XIVTED_clean_linker_0, # of connection points: 2
#     Edge 48, Type (0, 0), BuildingBlock: XIVTED_clean_linker_0, # of connection points: 2
#     Edge 49, Type (0, 0), BuildingBlock: XIVTED_clean_linker_0, # of connection points: 2
#     Edge 50, Type (0, 0), BuildingBlock: XIVTED_clean_linker_0, # of connection points: 2
#     Edge 51, Type (0, 0), BuildingBlock: XIVTED_clean_linker_0, # of connection points: 2
#     Edge 52, Type (0, 0), BuildingBlock: XIVTED_clean_linker_0, # of connection points: 2
#     Edge 53, Type (0, 0), BuildingBlock: XIVTED_clean_linker_0, # of connection points: 2
#     Edge 54, Type (0, 0), BuildingBlock: XIVTED_clean_linker_0, # of connection points: 2
#     Edge 55, Type (0, 0), BuildingBlock: XIVTED_clean_linker_0, # of connection points: 2
# Relax obj value: 0.582
# Max RMSD: 0.323
# Mean RMSD: 0.323
data_MOF--net-xfz--node1-XOMCOT_clean_sbu_1--edge1-XIVTED_clean_linker_0
_symmetry_space_group_name_H-M    P1
_symmetry_Int_Tables_number       1
_symmetry_cell_setting            triclinic
loop_
_symmetry_equiv_pos_as_xyz
'x, y, z'
_cell_length_a     37.814749
_cell_length_b     37.84441
_cell_length_c     60.333453
_cell_angle_alpha  90.064732
_cell_angle_beta   89.907885
_cell_angle_gamma 89.912634
loop_
_atom_site_label
_atom_site_type_symbol
_atom_site_fract_x
_atom_site_fract_y
_atom_site_fract_z
_atom_type_partial_charge
C0 C 0.24488 0.42303 0.31022 0.0
C1 C 0.24129 0.39948 0.29298 0.0
N2 N 0.20859 0.38548 0.29402 0.0
N3 N 0.21448 0.42407 0.32185 0.0
C4 C 0.19299 0.4007 0.31178 0.0
H5 H 0.2679 0.43894 0.31384 0.0
Co6 Co 0.20651 0.45284 0.34608 0.0
C7 C 0.1313 0.44466 0.35831 0.0
O8 O 0.14062 0.43644 0.37863 0.0
N9 N 0.19912 0.48228 0.37082 0.0
C10 C 0.17752 0.52435 0.39286 0.0
C11 C 0.1788 0.51172 0.37153 0.0
C12 C 0.20984 0.47767 0.39197 0.0
N13 N 0.19686 0.50267 0.40568 0.0
O14 O 0.21013 0.41148 0.36446 0.0
H15 H 0.16443 0.5225 0.3576 0.0
H16 H 0.22597 0.45589 0.39753 0.0
O17 O 0.15508 0.44824 0.34343 0.0
C18 C 0.2423 0.40526 0.36941 0.0
O19 O 0.26633 0.42889 0.36418 0.0
N20 N 0.20534 0.49212 0.32719 0.0
C21 C 0.20447 0.55029 0.29926 0.0
C22 C 0.18092 0.52242 0.29595 0.0
C23 C 0.18189 0.49343 0.31002 0.0
C24 C 0.22961 0.5184 0.33008 0.0
C25 C 0.22931 0.54825 0.31638 0.0
H26 H 0.16393 0.47187 0.30689 0.0
H27 H 0.2488 0.51645 0.3433 0.0
H28 H 0.16594 0.396 0.31682 0.0
H29 H 0.26099 0.39355 0.28048 0.0
H30 H 0.16196 0.54653 0.3987 0.0
H31 H 0.16173 0.52321 0.28264 0.0
H32 H 0.24802 0.56943 0.31914 0.0
C33 C 0.39787 0.78115 0.65121 0.0
C34 C 0.37471 0.79234 0.66726 0.0
N35 N 0.37977 0.82719 0.6705 0.0
N36 N 0.41744 0.80872 0.64432 0.0
C37 C 0.40559 0.8366 0.65614 0.0
H38 H 0.40088 0.75438 0.6452 0.0
Co39 Co 0.45281 0.80207 0.62381 0.0
C40 C 0.48783 0.87009 0.61483 0.0
O41 O 0.51732 0.85172 0.61554 0.0
N42 N 0.48786 0.79309 0.60222 0.0
C43 C 0.53073 0.77117 0.58089 0.0
C44 C 0.51636 0.77145 0.60187 0.0
C45 C 0.48564 0.8055 0.58129 0.0
N46 N 0.51122 0.79263 0.568 0.0
O47 O 0.41657 0.79782 0.60164 0.0
H48 H 0.52578 0.75569 0.61549 0.0
H49 H 0.46452 0.8226 0.57568 0.0
O50 O 0.45811 0.85426 0.61821 0.0
C51 C 0.41189 0.76623 0.59491 0.0
O52 O 0.435 0.74193 0.60062 0.0
N53 N 0.48598 0.8033 0.64715 0.0
C54 C 0.52544 0.79832 0.68604 0.0
C55 C 0.51149 0.83075 0.67923 0.0
C56 C 0.49138 0.83258 0.66003 0.0
C57 C 0.4979 0.77117 0.6542 0.0
C58 C 0.51868 0.76818 0.67328 0.0
H59 H 0.47895 0.85747 0.65634 0.0
H60 H 0.49021 0.74751 0.64538 0.0
H61 H 0.41671 0.86284 0.65497 0.0
H62 H 0.35612 0.77588 0.67615 0.0
H63 H 0.55327 0.75575 0.57546 0.0
H64 H 0.51564 0.85455 0.68888 0.0
H65 H 0.52815 0.74246 0.67846 0.0
C66 C 0.76485 0.58015 0.32116 0.0
C67 C 0.76342 0.6059 0.30516 0.0
N68 N 0.79614 0.61933 0.3026 0.0
N69 N 0.79839 0.57703 0.32842 0.0
C70 C 0.81682 0.60156 0.31707 0.0
H71 H 0.7429 0.56455 0.32716 0.0
Co72 Co 0.81188 0.54682 0.35107 0.0
C73 C 0.88486 0.5276 0.33313 0.0
O74 O 0.87304 0.4986 0.32392 0.0
N75 N 0.8247 0.51757 0.37511 0.0
C76 C 0.85025 0.47865 0.39778 0.0
C77 C 0.84675 0.4894 0.3761 0.0
C78 C 0.815 0.52296 0.3964 0.0
N79 N 0.83047 0.50018 0.41049 0.0
O80 O 0.81698 0.58836 0.36925 0.0
H81 H 0.85972 0.47728 0.36211 0.0
H82 H 0.79706 0.54339 0.40175 0.0
O83 O 0.86355 0.54885 0.34318 0.0
C84 C 0.78679 0.59794 0.37662 0.0
O85 O 0.75968 0.57678 0.37359 0.0
N86 N 0.80279 0.50684 0.33238 0.0
C87 C 0.7877 0.44962 0.3046 0.0
C88 C 0.80084 0.4812 0.29592 0.0
C89 C 0.80792 0.5094 0.30994 0.0
C90 C 0.7868 0.47731 0.3408 0.0
C91 C 0.78013 0.44788 0.32731 0.0
H92 H 0.82013 0.53242 0.30272 0.0
H93 H 0.77949 0.4761 0.3581 0.0
H94 H 0.84494 0.60573 0.31905 0.0
H95 H 0.7401 0.61412 0.29614 0.0
H96 H 0.86694 0.45746 0.40378 0.0
H97 H 0.80749 0.48358 0.27851 0.0
H98 H 0.76925 0.42407 0.33454 0.0
C99 C 0.60978 0.22011 0.65495 0.0
C100 C 0.63426 0.20688 0.6695 0.0
N101 N 0.63025 0.1715 0.67052 0.0
N102 N 0.5904 0.19334 0.64677 0.0
C103 C 0.60352 0.16398 0.65639 0.0
H104 H 0.60629 0.24755 0.65046 0.0
Co105 Co 0.55551 0.2014 0.62619 0.0
C106 C 0.51823 0.13455 0.61756 0.0
O107 O 0.4893 0.15379 0.61852 0.0
N108 N 0.52099 0.21134 0.60449 0.0
C109 C 0.48013 0.235 0.58246 0.0
C110 C 0.49332 0.23401 0.60372 0.0
C111 C 0.52366 0.19881 0.58359 0.0
N112 N 0.49946 0.21287 0.56985 0.0
O113 O 0.59216 0.20456 0.60413 0.0
H114 H 0.48395 0.25025 0.61717 0.0
H115 H 0.54454 0.18115 0.57826 0.0
O116 O 0.54846 0.14953 0.62051 0.0
C117 C 0.59756 0.23621 0.59774 0.0
O118 O 0.57535 0.26099 0.60406 0.0
N119 N 0.52219 0.20144 0.64941 0.0
C120 C 0.48448 0.20849 0.68885 0.0
C121 C 0.49759 0.17559 0.68226 0.0
C122 C 0.51685 0.1727 0.66273 0.0
C123 C 0.51082 0.23399 0.65616 0.0
C124 C 0.49086 0.23801 0.67555 0.0
H125 H 0.52912 0.14761 0.6592 0.0
H126 H 0.51877 0.25724 0.64704 0.0
H127 H 0.59317 0.13779 0.65341 0.0
H128 H 0.65354 0.22229 0.67851 0.0
H129 H 0.45885 0.25169 0.57661 0.0
H130 H 0.49391 0.15241 0.69255 0.0
H131 H 0.48213 0.26405 0.68066 0.0
C132 C 0.22694 0.57176 0.66847 0.0
C133 C 0.22935 0.59679 0.68481 0.0
N134 N 0.20624 0.62297 0.68029 0.0
N135 N 0.20178 0.58138 0.65388 0.0
C136 C 0.19067 0.61336 0.66101 0.0
H137 H 0.24192 0.54743 0.66761 0.0
Co138 Co 0.19051 0.55383 0.62929 0.0
C139 C 0.11191 0.57711 0.63898 0.0
O140 O 0.11471 0.6002 0.65512 0.0
N141 N 0.18064 0.52601 0.60445 0.0
C142 C 0.15571 0.48756 0.58134 0.0
C143 C 0.15614 0.50019 0.60273 0.0
C144 C 0.19486 0.52834 0.58398 0.0
N145 N 0.17996 0.50558 0.56959 0.0
O146 O 0.1978 0.59466 0.61099 0.0
H147 H 0.13895 0.49172 0.61605 0.0
H148 H 0.21548 0.54662 0.57946 0.0
O149 O 0.13957 0.56247 0.63099 0.0
C150 C 0.23054 0.59846 0.60664 0.0
O151 O 0.25282 0.57393 0.6132 0.0
N152 N 0.1851 0.51434 0.64793 0.0
C153 C 0.18416 0.46048 0.67926 0.0
C154 C 0.16197 0.48983 0.68149 0.0
C155 C 0.16295 0.51648 0.66577 0.0
C156 C 0.20654 0.48559 0.64515 0.0
C157 C 0.20615 0.45792 0.66059 0.0
H158 H 0.14746 0.53986 0.66885 0.0
H159 H 0.22471 0.48463 0.6313 0.0
H160 H 0.17177 0.62939 0.65215 0.0
H161 H 0.24556 0.59468 0.69951 0.0
H162 H 0.1379 0.46781 0.57475 0.0
H163 H 0.14462 0.49268 0.6957 0.0
H164 H 0.2238 0.43561 0.65848 0.0
C165 C 0.62127 0.78088 0.3169 0.0
C166 C 0.64488 0.78532 0.2998 0.0
N167 N 0.6531 0.81988 0.29857 0.0
N168 N 0.61454 0.81248 0.32631 0.0
C169 C 0.63464 0.83569 0.31502 0.0
H170 H 0.60868 0.75639 0.32165 0.0
Co171 Co 0.5815 0.81871 0.34855 0.0
C172 C 0.58529 0.89335 0.3629 0.0
O173 O 0.59091 0.88298 0.38337 0.0
N174 N 0.54772 0.82387 0.3712 0.0
C175 C 0.50239 0.84342 0.3914 0.0
C176 C 0.51838 0.84435 0.37091 0.0
C177 C 0.54854 0.81037 0.39188 0.0
N178 N 0.52155 0.822 0.40453 0.0
O179 O 0.61956 0.8151 0.36952 0.0
H180 H 0.50992 0.86015 0.35696 0.0
H181 H 0.5695 0.79383 0.39811 0.0
O182 O 0.58504 0.87043 0.34732 0.0
C183 C 0.62573 0.78283 0.37417 0.0
O184 O 0.60348 0.75863 0.36719 0.0
N185 N 0.5458 0.81987 0.32709 0.0
C186 C 0.49641 0.81685 0.29299 0.0
C187 C 0.52232 0.84319 0.29332 0.0
C188 C 0.54679 0.84416 0.3104 0.0
C189 C 0.52099 0.79374 0.32706 0.0
C190 C 0.49555 0.79203 0.31024 0.0
H191 H 0.56714 0.86402 0.30971 0.0
H192 H 0.52114 0.77404 0.34004 0.0
H193 H 0.6339 0.86393 0.3178 0.0
H194 H 0.65417 0.76492 0.28862 0.0
H195 H 0.47905 0.858 0.39637 0.0
H196 H 0.52364 0.86315 0.28048 0.0
H197 H 0.47591 0.77123 0.31049 0.0
C198 C 0.77219 0.41667 0.66799 0.0
C199 C 0.77734 0.39296 0.68493 0.0
N200 N 0.81143 0.38246 0.6845 0.0
N201 N 0.80288 0.42121 0.65703 0.0
C202 C 0.82619 0.39974 0.66725 0.0
H203 H 0.74787 0.43045 0.66419 0.0
Co204 Co 0.80897 0.45242 0.63377 0.0
C205 C 0.88348 0.44505 0.61988 0.0
O206 O 0.87339 0.4361 0.59982 0.0
N207 N 0.8147 0.48412 0.60996 0.0
C208 C 0.83696 0.52624 0.58828 0.0
C209 C 0.83469 0.51374 0.60964 0.0
C210 C 0.80484 0.47959 0.58865 0.0
N211 N 0.81849 0.50434 0.5751 0.0
O212 O 0.80508 0.41285 0.61394 0.0
H213 H 0.84879 0.52426 0.62376 0.0
H214 H 0.7894 0.45762 0.58274 0.0
O215 O 0.86035 0.44862 0.63515 0.0
C216 C 0.77267 0.40721 0.60941 0.0
O217 O 0.7489 0.43018 0.61623 0.0
N218 N 0.81033 0.48989 0.65419 0.0
C219 C 0.80728 0.54111 0.68729 0.0
C220 C 0.83275 0.51431 0.68797 0.0
C221 C 0.83382 0.489 0.67134 0.0
C222 C 0.78513 0.51571 0.65321 0.0
C223 C 0.78352 0.54216 0.66949 0.0
H224 H 0.85284 0.4679 0.67283 0.0
H225 H 0.766 0.51555 0.6399 0.0
H226 H 0.85388 0.39818 0.66283 0.0
H227 H 0.75767 0.38467 0.69688 0.0
H228 H 0.85305 0.54813 0.58268 0.0
H229 H 0.85169 0.51281 0.7014 0.0
H230 H 0.76346 0.56255 0.66852 0.0
C231 C 0.42852 0.24954 0.31871 0.0
C232 C 0.40141 0.24876 0.30361 0.0
N233 N 0.38959 0.21527 0.30214 0.0
N234 N 0.43404 0.21664 0.3265 0.0
C235 C 0.40963 0.19636 0.31637 0.0
H236 H 0.44344 0.27256 0.32371 0.0
Co237 Co 0.46674 0.20596 0.34834 0.0
C238 C 0.48594 0.13219 0.33155 0.0
O239 O 0.51257 0.14425 0.31995 0.0
N240 N 0.49856 0.19583 0.37153 0.0
C241 C 0.53928 0.17151 0.39346 0.0
C242 C 0.52654 0.1735 0.37213 0.0
C243 C 0.49551 0.20751 0.39258 0.0
N244 N 0.51953 0.19295 0.40626 0.0
O245 O 0.42702 0.20162 0.36818 0.0
H246 H 0.53701 0.15914 0.35815 0.0
H247 H 0.47494 0.22503 0.39825 0.0
O248 O 0.4656 0.15357 0.34227 0.0
C249 C 0.41803 0.23248 0.37467 0.0
O250 O 0.43901 0.25913 0.37003 0.0
N251 N 0.50473 0.21471 0.32794 0.0
C252 C 0.55863 0.23051 0.29779 0.0
C253 C 0.52666 0.21621 0.29052 0.0
C254 C 0.50012 0.20877 0.30571 0.0
C255 C 0.53461 0.23176 0.33497 0.0
C256 C 0.56245 0.23879 0.32028 0.0
H257 H 0.4768 0.19571 0.29952 0.0
H258 H 0.53733 0.23985 0.35206 0.0
H259 H 0.40724 0.16819 0.31898 0.0
H260 H 0.39127 0.2711 0.2944 0.0
H261 H 0.5609 0.15511 0.39914 0.0
H262 H 0.52278 0.20898 0.27331 0.0
H263 H 0.58665 0.25052 0.3264 0.0
C264 C 0.73513 0.88304 0.82123 0.0
C265 C 0.72133 0.8585 0.80694 0.0
N266 N 0.68585 0.86232 0.80666 0.0
N267 N 0.70865 0.90226 0.83001 0.0
C268 C 0.67887 0.88893 0.82103 0.0
H269 H 0.76282 0.88676 0.82506 0.0
Co270 Co 0.7177 0.93742 0.85027 0.0
C271 C 0.65071 0.97089 0.86368 0.0
O272 O 0.66771 1.00099 0.86186 0.0
N273 N 0.72889 0.97225 0.87159 0.0
C274 C 0.74733 0.01781 0.89191 0.0
C275 C 0.74791 1.00249 0.87117 0.0
C276 C 0.71793 0.96956 0.89282 0.0
N277 N 0.72814 0.99704 0.90544 0.0
O278 O 0.72567 0.90098 0.87185 0.0
H279 H 0.7613 0.0133 0.85694 0.0
H280 H 0.70229 0.94766 0.8988 0.0
O281 O 0.66648 0.94163 0.85889 0.0
C282 C 0.75796 0.89668 0.87723 0.0
O283 O 0.78137 0.91992 0.87047 0.0
N284 N 0.71234 0.97098 0.82741 0.0
C285 C 0.71017 0.01205 0.78908 0.0
C286 C 0.67948 0.99627 0.79734 0.0
C287 C 0.6812 0.97541 0.81623 0.0
C288 C 0.74282 0.98474 0.81893 0.0
C289 C 0.74223 0.00633 0.80011 0.0
H290 H 0.65749 0.96177 0.82112 0.0
H291 H 0.76791 0.97806 0.82642 0.0
H292 H 0.65276 0.89913 0.82459 0.0
H293 H 0.73647 0.83947 0.79747 0.0
H294 H 0.75954 0.0426 0.89649 0.0
H295 H 0.65429 0.9996 0.78905 0.0
H296 H 0.76668 0.01728 0.79377 0.0
C297 C 0.92212 0.27406 0.1706 0.0
C298 C 0.89885 0.27328 0.18815 0.0
N299 N 0.88107 0.30416 0.18855 0.0
N300 N 0.9193 0.30545 0.16024 0.0
C301 C 0.89387 0.32309 0.17136 0.0
H302 H 0.94036 0.25334 0.16584 0.0
Co303 Co 0.94564 0.31898 0.13584 0.0
C304 C 0.92919 0.39475 0.13085 0.0
O305 O 0.9131 0.3885 0.11197 0.0
N306 N 0.97225 0.33218 0.11097 0.0
C307 C 0.01033 0.35956 0.08871 0.0
C308 C 0.99869 0.35614 0.11021 0.0
C309 C 0.96854 0.32127 0.08981 0.0
N310 N 0.99109 0.33772 0.07591 0.0
O311 O 0.903 0.31756 0.1187 0.0
H312 H 0.00854 0.37065 0.12435 0.0
H313 H 0.94972 0.30162 0.08454 0.0
O314 O 0.94002 0.36895 0.14262 0.0
C315 C 0.89707 0.28633 0.11179 0.0
O316 O 0.92107 0.26181 0.11529 0.0
N317 N 0.9866 0.31788 0.15322 0.0
C318 C 0.04468 0.31073 0.18103 0.0
C319 C 0.01668 0.33316 0.18674 0.0
C320 C 0.9879 0.3364 0.17263 0.0
C321 C 0.01352 0.29567 0.14738 0.0
C322 C 0.04333 0.29215 0.16095 0.0
H323 H 0.9661 0.35299 0.17775 0.0
H324 H 0.01169 0.28039 0.13226 0.0
H325 H 0.88571 0.34975 0.16736 0.0
H326 H 0.89549 0.25182 0.1998 0.0
H327 H 0.03064 0.37743 0.0829 0.0
H328 H 0.01697 0.34805 0.20209 0.0
H329 H 0.06456 0.2745 0.15613 0.0
C330 C 0.30378 0.0903 0.82265 0.0
C331 C 0.31195 0.11616 0.80756 0.0
N332 N 0.34432 0.12892 0.81241 0.0
N333 N 0.3309 0.08661 0.83689 0.0
C334 C 0.35506 0.11065 0.83044 0.0
H335 H 0.28 0.07447 0.82294 0.0
Co336 Co 0.33156 0.05419 0.85972 0.0
C337 C 0.40352 0.05959 0.87855 0.0
O338 O 0.39029 0.06868 0.89789 0.0
N339 N 0.3313 0.0214 0.8829 0.0
C340 C 0.3471 0.97993 0.90706 0.0
C341 C 0.35282 0.99336 0.88613 0.0
C342 C 0.31204 0.02361 0.90165 0.0
N343 N 0.32167 0.99944 0.91687 0.0
O344 O 0.32525 0.09277 0.88008 0.0
H345 H 0.3729 0.98462 0.87455 0.0
H346 H 0.29206 0.0434 0.90451 0.0
O347 O 0.38297 0.05607 0.86196 0.0
C348 C 0.29251 0.10068 0.88083 0.0
O349 O 0.26986 0.0807 0.87012 0.0
N350 N 0.33541 0.01787 0.83894 0.0
C351 C 0.33244 0.97232 0.80285 0.0
C352 C 0.36079 0.99569 0.80535 0.0
C353 C 0.36167 0.01841 0.8234 0.0
C354 C 0.30812 0.99451 0.83726 0.0
C355 C 0.30629 0.97107 0.81934 0.0
H356 H 0.38233 0.03801 0.82397 0.0
H357 H 0.28693 0.99518 0.84931 0.0
H358 H 0.38022 0.1142 0.83862 0.0
H359 H 0.29594 0.12367 0.79348 0.0
H360 H 0.36211 0.95905 0.9149 0.0
H361 H 0.38162 0.99723 0.79304 0.0
H362 H 0.28388 0.95345 0.81785 0.0
C363 C 0.05223 0.74308 0.17918 0.0
C364 C 0.07557 0.73792 0.19633 0.0
N365 N 0.09143 0.70635 0.19338 0.0
N366 N 0.05311 0.71476 0.16564 0.0
C367 C 0.07735 0.69292 0.17462 0.0
H368 H 0.03587 0.76616 0.17655 0.0
Co369 Co 0.02785 0.71151 0.13949 0.0
C370 C 0.04489 0.63281 0.13539 0.0
O371 O 0.07751 0.63553 0.12809 0.0
N372 N 1.00235 0.70871 0.11287 0.0
C373 C 0.96356 0.69211 0.08717 0.0
C374 C 0.97166 0.69132 0.10938 0.0
C375 C 0.01215 0.71996 0.09253 0.0
N376 N 0.98932 0.70991 0.07661 0.0
O377 O 0.07189 0.71273 0.12373 0.0
H378 H 0.95674 0.67766 0.12202 0.0
H379 H 0.0361 0.73439 0.08915 0.0
O380 O 0.02708 0.66042 0.14001 0.0
C381 C 0.08076 0.74488 0.12099 0.0
O382 O 0.05832 0.76978 0.1268 0.0
N383 N 0.98583 0.71248 0.15588 0.0
C384 C 0.9278 0.71927 0.18374 0.0
C385 C 0.9505 0.69033 0.18568 0.0
C386 C 0.97957 0.68754 0.17175 0.0
C387 C 0.96387 0.74092 0.15367 0.0
C388 C 0.93429 0.74479 0.16749 0.0
H389 H 0.99786 0.66606 0.1745 0.0
H390 H 0.96984 0.76103 0.1415 0.0
H391 H 0.08443 0.66762 0.16762 0.0
H392 H 0.08079 0.75623 0.20971 0.0
H393 H 0.94154 0.67889 0.07928 0.0
H394 H 0.94636 0.67053 0.19839 0.0
H395 H 0.91728 0.76769 0.16587 0.0
C396 C 0.72363 0.09132 0.16038 0.0
C397 C 0.72516 0.11411 0.17808 0.0
N398 N 0.6943 0.13189 0.17918 0.0
N399 N 0.6919 0.09451 0.15048 0.0
C400 C 0.67462 0.11955 0.16216 0.0
H401 H 0.74428 0.07344 0.155 0.0
Co402 Co 0.67935 0.06935 0.12549 0.0
C403 C 0.60557 0.08886 0.11683 0.0
O404 O 0.616 0.10322 0.09812 0.0
N405 N 0.66773 0.04366 0.1001 0.0
C406 C 0.64122 0.00756 0.07634 0.0
C407 C 0.64161 0.01967 0.09782 0.0
C408 C 0.68323 0.04509 0.07999 0.0
N409 N 0.66745 0.02369 0.06509 0.0
O410 O 0.68443 0.11213 0.1088 0.0
H411 H 0.62364 0.01185 0.11088 0.0
H412 H 0.70586 0.06135 0.07636 0.0
O413 O 0.62872 0.07735 0.13042 0.0
C414 C 0.71661 0.11687 0.10331 0.0
O415 O 0.73959 0.09165 0.10747 0.0
N416 N 0.67738 0.02836 0.14246 0.0
C417 C 0.68724 0.97375 0.17246 0.0
C418 C 0.66122 0.99943 0.17618 0.0
C419 C 0.65672 0.02661 0.16099 0.0
C420 C 0.70194 1.00285 0.13809 0.0
C421 C 0.70705 0.97484 0.15284 0.0
H422 H 0.63832 0.0475 0.165 0.0
H423 H 0.71881 1.00523 0.12367 0.0
H424 H 0.64793 0.12802 0.1585 0.0
H425 H 0.74732 0.11735 0.18922 0.0
H426 H 0.62253 0.98886 0.06957 0.0
H427 H 0.6454 0.99924 0.19117 0.0
H428 H 0.72752 0.95546 0.14959 0.0
C429 C 0.10613 0.25924 0.82551 0.0
C430 C 0.12594 0.26802 0.80718 0.0
N431 N 0.11876 0.30185 0.80198 0.0
N432 N 0.08645 0.28734 0.83164 0.0
C433 C 0.09468 0.31292 0.817 0.0
H434 H 0.10601 0.234 0.8339 0.0
Co435 Co 0.05574 0.28747 0.85546 0.0
C436 C 0.07134 0.36436 0.86611 0.0
O437 O 0.09618 0.35818 0.88079 0.0
N438 N 0.02523 0.28649 0.87957 0.0
C439 C 0.98304 0.26953 0.90282 0.0
C440 C 0.99686 0.26527 0.88189 0.0
C441 C 0.02839 0.30312 0.89923 0.0
N442 N 1.00309 0.29323 0.91374 0.0
O443 O 0.09601 0.28403 0.87469 0.0
H444 H 0.9876 0.24696 0.86942 0.0
H445 H 0.04956 0.32121 0.90307 0.0
O446 O 0.05619 0.33875 0.85625 0.0
C447 C 0.10044 0.25489 0.88486 0.0
O448 O 0.07541 0.23089 0.88383 0.0
N449 N 0.01692 0.28921 0.83615 0.0
C450 C 0.96291 0.29234 0.80487 0.0
C451 C 0.96483 0.31734 0.822 0.0
C452 C 0.99193 0.31521 0.83754 0.0
C453 C 0.01426 0.26341 0.82045 0.0
C454 C 0.98766 0.26471 0.80443 0.0
H455 H 0.99293 0.33472 0.85061 0.0
H456 H 0.03333 0.24211 0.82003 0.0
H457 H 0.08292 0.33901 0.81712 0.0
H458 H 0.14461 0.25111 0.79862 0.0
H459 H 0.96107 0.25497 0.90977 0.0
H460 H 0.94626 0.33911 0.82298 0.0
H461 H 0.98667 0.24449 0.79173 0.0
C462 C 0.27739 0.94753 0.18367 0.0
C463 C 0.29134 0.92486 0.19906 0.0
N464 N 0.32251 0.91269 0.19129 0.0
N465 N 0.29982 0.9501 0.16641 0.0
C466 C 0.32705 0.9285 0.17139 0.0
H467 H 0.25211 0.96081 0.18476 0.0
Co468 Co 0.28843 0.97438 0.14107 0.0
C469 C 0.3536 0.00619 0.12279 0.0
O470 O 0.33377 0.03357 0.1178 0.0
N471 N 0.27464 0.99794 0.11493 0.0
C472 C 0.24802 0.03001 0.08894 0.0
C473 C 0.2509 0.02405 0.11133 0.0
C474 C 0.28514 0.9881 0.09439 0.0
N475 N 0.26958 0.00729 0.07833 0.0
O476 O 0.28436 0.93002 0.12583 0.0
H477 H 0.23571 0.03765 0.1238 0.0
H478 H 0.3043 0.96738 0.09136 0.0
O479 O 0.33957 0.9793 0.13246 0.0
C480 C 0.25188 0.92207 0.12342 0.0
O481 O 0.22772 0.94452 0.13035 0.0
N482 N 0.28991 0.01669 0.15761 0.0
C483 C 0.28721 0.07361 0.18681 0.0
C484 C 0.31961 0.05854 0.18088 0.0
C485 C 0.32031 0.0293 0.16696 0.0
C486 C 0.25798 0.02989 0.16427 0.0
C487 C 0.25597 0.05869 0.17877 0.0
H488 H 0.34525 0.01593 0.16482 0.0
H489 H 0.23388 0.01706 0.159 0.0
H490 H 0.34906 0.92362 0.16032 0.0
H491 H 0.2794 0.91808 0.21479 0.0
H492 H 0.23068 0.04903 0.08111 0.0
H493 H 0.34412 0.06813 0.18796 0.0
H494 H 0.23042 0.06872 0.18396 0.0
C495 C 0.9669 0.71039 0.8069 0.0
C496 C 0.94106 0.70678 0.79114 0.0
N497 N 0.91642 0.68424 0.79884 0.0
N498 N 0.95925 0.68968 0.82448 0.0
C499 C 0.92778 0.67491 0.81925 0.0
H500 H 0.98961 0.72733 0.80532 0.0
Co501 Co 0.98378 0.68534 0.8515 0.0
C502 C 0.97767 0.60883 0.83638 0.0
O503 O 0.97365 0.61731 0.81543 0.0
N504 N 0.00753 0.68188 0.87847 0.0
C505 C 0.04135 0.66296 0.90615 0.0
C506 C 0.03327 0.6588 0.88409 0.0
C507 C 1.00076 0.69998 0.89729 0.0
N508 N 0.02058 0.6887 0.91443 0.0
O509 O 0.93918 0.68784 0.86678 0.0
H510 H 0.0445 0.63911 0.87318 0.0
H511 H 0.98108 0.72054 0.89866 0.0
O512 O 0.98132 0.63321 0.85093 0.0
C513 C 0.93005 0.72013 0.86858 0.0
O514 O 0.95154 0.74464 0.86109 0.0
N515 N 0.02765 0.68634 0.83663 0.0
C516 C 0.08591 0.69837 0.80947 0.0
C517 C 0.07596 0.66387 0.81506 0.0
C518 C 0.04677 0.65837 0.82873 0.0
C519 C 0.03962 0.71996 0.83354 0.0
C520 C 0.0682 0.72672 0.81946 0.0
H521 H 0.03982 0.63158 0.8325 0.0
H522 H 0.02503 0.74185 0.84063 0.0
H523 H 0.91388 0.65704 0.83018 0.0
H524 H 0.94123 0.71898 0.77493 0.0
H525 H 0.05961 0.64693 0.91561 0.0
H526 H 0.08934 0.64122 0.80791 0.0
H527 H 0.07549 0.75375 0.81577 0.0
H528 H 0.92165 0.53753 0.37171 0.0
H529 H 0.10082 0.4608 0.31824 0.0
H530 H 0.93537 0.51703 0.30199 0.0
H531 H 0.0793 0.46093 0.3885 0.0
H532 H 0.0434 0.48884 0.31186 0.0
H533 H 0.98335 0.51952 0.37799 0.0
C534 C 0.9381 0.53069 0.35762 0.0
C535 C 0.92358 0.5292 0.33626 0.0
C536 C 0.0512 0.48267 0.32868 0.0
C537 C 0.99363 0.50734 0.34334 0.0
C538 C 0.08396 0.46647 0.33233 0.0
C539 C 0.09495 0.45816 0.35393 0.0
C540 C 0.02918 0.49101 0.34676 0.0
C541 C 0.07188 0.46641 0.37153 0.0
C542 C 0.9731 0.51974 0.36124 0.0
C543 C 0.94571 0.51892 0.31868 0.0
N544 N 0.04022 0.48242 0.36756 0.0
N545 N 0.97944 0.50814 0.32261 0.0
H546 H 0.45661 0.09763 0.61451 0.0
H547 H 0.54751 0.90772 0.60625 0.0
H548 H 0.56973 0.0822 0.61626 0.0
H549 H 0.43614 0.92193 0.61945 0.0
H550 H 0.55522 0.97141 0.60609 0.0
H551 H 0.44839 0.03403 0.61272 0.0
C552 C 0.47989 0.08093 0.61444 0.0
C553 C 0.51407 0.09556 0.61557 0.0
C554 C 0.52907 0.96072 0.60898 0.0
C555 C 0.50448 0.02201 0.61345 0.0
C556 C 0.52448 0.9242 0.60903 0.0
C557 C 0.49102 0.90917 0.613 0.0
C558 C 0.5 0.98287 0.61276 0.0
C559 C 0.46237 0.9322 0.61631 0.0
C560 C 0.47502 0.04445 0.61347 0.0
C561 C 0.54295 0.07225 0.6154 0.0
N562 N 0.46753 0.96792 0.61615 0.0
N563 N 0.53749 0.03663 0.61434 0.0
H564 H 0.91145 0.47265 0.65814 0.0
H565 H 0.09151 0.53951 0.60225 0.0
H566 H 0.93719 0.45324 0.58947 0.0
H567 H 0.05338 0.5756 0.66579 0.0
H568 H 0.03728 0.50486 0.59771 0.0
H569 H 0.96621 0.5059 0.66209 0.0
C570 C 0.92872 0.47499 0.64391 0.0
C571 C 0.91936 0.46019 0.62338 0.0
C572 C 0.0407 0.52052 0.61259 0.0
C573 C 0.98242 0.4987 0.62781 0.0
C574 C 0.07167 0.54029 0.61519 0.0
C575 C 0.07718 0.56032 0.6345 0.0
C576 C 0.0151 0.52051 0.62949 0.0
C577 C 0.05029 0.56072 0.65058 0.0
C578 C 0.95999 0.49425 0.64617 0.0
C579 C 0.94318 0.46412 0.60562 0.0
N580 N 0.02063 0.5409 0.6478 0.0
N581 N 0.9735 0.48308 0.60823 0.0
H582 H 0.56543 0.94379 0.39337 0.0
H583 H 0.49343 0.0791 0.30191 0.0
H584 H 0.5691 0.92434 0.32292 0.0
H585 H 0.48545 0.09906 0.37202 0.0
H586 H 0.51583 0.01986 0.30971 0.0
H587 H 0.53403 0.99927 0.38633 0.0
C588 C 0.56003 0.95127 0.37639 0.0
C589 C 0.57015 0.92916 0.35871 0.0
C590 C 0.50854 0.03678 0.32346 0.0
C591 C 0.53341 0.99264 0.35057 0.0
C592 C 0.49521 0.07046 0.31899 0.0
C593 C 0.48705 0.09385 0.33633 0.0
C594 C 0.51449 0.02643 0.3455 0.0
C595 C 0.4907 0.0816 0.35817 0.0
C596 C 0.54172 0.98287 0.37241 0.0
C597 C 0.5619 0.9403 0.33711 0.0
N598 N 0.50467 0.04892 0.36215 0.0
N599 N 0.54409 0.97111 0.33368 0.0
H600 H 0.59392 0.9446 0.84064 0.0
H601 H 0.45626 0.06392 0.90967 0.0
H602 H 0.62202 1.00548 0.89833 0.0
H603 H 0.43447 0.0223 0.8445 0.0
H604 H 0.51476 0.03625 0.90826 0.0
H605 H 0.53219 0.96445 0.84497 0.0
C606 C 0.58679 0.96107 0.85465 0.0
C607 C 0.61283 0.97317 0.8693 0.0
C608 C 0.49718 0.03325 0.89424 0.0
C609 C 0.54293 0.99678 0.87401 0.0
C610 C 0.46381 0.04924 0.89498 0.0
C611 C 0.44035 0.04582 0.8771 0.0
C612 C 0.50721 0.01332 0.87556 0.0
C613 C 0.45165 0.0261 0.85859 0.0
C614 C 0.55176 0.97289 0.85693 0.0
C615 C 0.60253 0.99537 0.88681 0.0
N616 N 0.48414 0.01056 0.85833 0.0
N617 N 0.56851 0.0066 0.88861 0.0
H618 H 0.98714 0.41272 0.15561 0.0
H619 H 0.97394 0.61967 0.13625 0.0
H620 H 0.90433 0.45847 0.11568 0.0
H621 H 0.0749 0.56642 0.13794 0.0
H622 H 0.94428 0.56239 0.13713 0.0
H623 H 0.01539 0.47078 0.15801 0.0
C624 C 0.97447 0.43506 0.1477 0.0
C625 C 0.94324 0.43066 0.13537 0.0
C626 C 0.9729 0.5633 0.13737 0.0
C627 C 0.9755 0.49715 0.13823 0.0
C628 C 0.98995 0.59597 0.13692 0.0
C629 C 0.02708 0.59793 0.13684 0.0
C630 C 0.993 0.53222 0.13833 0.0
C631 C 0.04627 0.56617 0.1378 0.0
C632 C 0.99086 0.46808 0.14892 0.0
C633 C 0.92835 0.46062 0.12532 0.0
N634 N 0.02901 0.53458 0.13865 0.0
N635 N 0.94454 0.49263 0.12703 0.0
H636 H 0.4075 0.9807 0.14951 0.0
H637 H 0.54954 0.10815 0.091 0.0
H638 H 0.38759 0.04421 0.09157 0.0
H639 H 0.5758 0.04369 0.14761 0.0
H640 H 0.48985 0.0843 0.09168 0.0
H641 H 0.46964 1.00062 0.14896 0.0
C642 C 0.41639 0.99808 0.13639 0.0
C643 C 0.39238 0.01084 0.12056 0.0
C644 C 0.50851 0.07538 0.10407 0.0
C645 C 0.46283 0.03435 0.12012 0.0
C646 C 0.54268 0.08925 0.10377 0.0
C647 C 0.56791 0.07807 0.11929 0.0
C648 C 0.49912 0.04992 0.11998 0.0
C649 C 0.55724 0.05332 0.13539 0.0
C650 C 0.45169 0.00981 0.13623 0.0
C651 C 0.40514 0.03383 0.10416 0.0
N652 N 0.52372 0.03998 0.13527 0.0
N653 N 0.43922 0.04494 0.10446 0.0
H654 H 0.97074 0.5499 0.81042 0.0
H655 H 0.08289 0.42438 0.89094 0.0
H656 H 0.00666 0.58306 0.87503 0.0
H657 H 0.02939 0.3875 0.83219 0.0
H658 H 0.05769 0.48336 0.8848 0.0
H659 H 0.99316 0.49058 0.81791 0.0
C660 C 0.98305 0.54468 0.82628 0.0
C661 C 0.98694 0.57171 0.84205 0.0
C662 C 0.05147 0.46231 0.87328 0.0
C663 C 0.0133 0.50366 0.85063 0.0
C664 C 0.06605 0.42869 0.87669 0.0
C665 C 0.05823 0.40084 0.8621 0.0
C666 C 0.02914 0.46825 0.85503 0.0
C667 C 0.03603 0.40802 0.84398 0.0
C668 C 0.99597 0.51074 0.83053 0.0
C669 C 1.00311 0.56318 0.86234 0.0
N670 N 0.02238 0.44092 0.84096 0.0
N671 N 0.01597 0.53003 0.86596 0.0
H672 H 0.22613 0.33872 0.35472 0.0
H673 H 0.4017 0.26862 0.41189 0.0
H674 H 0.28779 0.39479 0.40329 0.0
H675 H 0.35457 0.21917 0.35487 0.0
H676 H 0.34778 0.30312 0.4174 0.0
H677 H 0.26071 0.28496 0.3625 0.0
C678 C 0.24595 0.33927 0.36766 0.0
C679 C 0.25428 0.37109 0.3784 0.0
C680 C 0.34865 0.28399 0.40405 0.0
C681 C 0.29407 0.31023 0.38714 0.0
C682 C 0.3793 0.26396 0.4011 0.0
C683 C 0.38242 0.24098 0.383 0.0
C684 C 0.32127 0.28179 0.38837 0.0
C685 C 0.35294 0.23634 0.3692 0.0
C686 C 0.26591 0.30874 0.37194 0.0
C687 C 0.28068 0.37074 0.39465 0.0
N688 N 0.32384 0.25728 0.37183 0.0
N689 N 0.29984 0.34096 0.39835 0.0
H690 H 0.27548 0.59983 0.57189 0.0
H691 H 0.34569 0.78781 0.60759 0.0
H692 H 0.21958 0.66802 0.61717 0.0
H693 H 0.40021 0.71538 0.56422 0.0
H694 H 0.29146 0.75297 0.60306 0.0
H695 H 0.31215 0.64959 0.5605 0.0
C696 C 0.27035 0.62568 0.57896 0.0
C697 C 0.24473 0.62997 0.5955 0.0
C698 C 0.31497 0.74534 0.59396 0.0
C699 C 0.28759 0.68683 0.58336 0.0
C700 C 0.34582 0.76546 0.59635 0.0
C701 C 0.37745 0.75418 0.58638 0.0
C702 C 0.316 0.71388 0.58152 0.0
C703 C 0.37639 0.72475 0.57231 0.0
C704 C 0.29139 0.65409 0.57257 0.0
C705 C 0.23907 0.66385 0.60426 0.0
N706 N 0.34638 0.70533 0.57058 0.0
N707 N 0.26098 0.6909 0.59847 0.0
H708 H 0.63457 0.74313 0.41095 0.0
H709 H 0.80668 0.66105 0.35838 0.0
H710 H 0.69214 0.79243 0.35774 0.0
H711 H 0.74785 0.61575 0.41249 0.0
H712 H 0.7761 0.71755 0.3646 0.0
H713 H 0.6859 0.70609 0.41887 0.0
C714 C 0.65865 0.74703 0.4015 0.0
C715 C 0.65936 0.77087 0.3838 0.0
C716 C 0.77075 0.69562 0.37561 0.0
C717 C 0.71762 0.72717 0.39181 0.0
C718 C 0.78853 0.66351 0.37222 0.0
C719 C 0.77958 0.63383 0.38493 0.0
C720 C 0.74386 0.69774 0.39175 0.0
C721 C 0.75532 0.63808 0.4023 0.0
C722 C 0.6879 0.72564 0.40584 0.0
C723 C 0.69086 0.77456 0.37173 0.0
N724 N 0.73792 0.66919 0.40497 0.0
N725 N 0.71851 0.75225 0.37558 0.0
H726 H 0.79005 0.33841 0.61833 0.0
H727 H 0.60843 0.28204 0.56409 0.0
H728 H 0.72567 0.40336 0.57588 0.0
H729 H 0.66379 0.21856 0.61205 0.0
H730 H 0.6618 0.31711 0.55855 0.0
H731 H 0.75503 0.28655 0.60726 0.0
C732 C 0.76948 0.34143 0.606 0.0
C733 C 0.76042 0.37505 0.59807 0.0
C734 C 0.66276 0.29494 0.56987 0.0
C735 C 0.72013 0.31641 0.58563 0.0
C736 C 0.63235 0.27471 0.57284 0.0
C737 C 0.63179 0.24757 0.58858 0.0
C738 C 0.6925 0.2887 0.58328 0.0
C739 C 0.66331 0.23924 0.59966 0.0
C740 C 0.7493 0.31195 0.59983 0.0
C741 C 0.73322 0.37783 0.58245 0.0
N742 N 0.69221 0.26038 0.59726 0.0
N743 N 0.71378 0.34903 0.57697 0.0
H744 H 0.92349 0.75883 0.90586 0.0
H745 H 0.73696 0.83001 0.86567 0.0
H746 H 0.86245 0.70965 0.85419 0.0
H747 H 0.81041 0.88658 0.90707 0.0
H748 H 0.77216 0.77602 0.87086 0.0
H749 H 0.87201 0.79425 0.91625 0.0
C750 C 0.89872 0.75464 0.89725 0.0
C751 C 0.89697 0.7314 0.87923 0.0
C752 C 0.77992 0.79998 0.87938 0.0
C753 C 0.83846 0.77295 0.89024 0.0
C754 C 0.75965 0.83068 0.87661 0.0
C755 C 0.77106 0.86272 0.88588 0.0
C756 C 0.81152 0.80153 0.8916 0.0
C757 C 0.80093 0.86239 0.89956 0.0
C758 C 0.86942 0.77506 0.90302 0.0
C759 C 0.86456 0.72717 0.86833 0.0
N760 N 0.82036 0.83243 0.90177 0.0
N761 N 0.83667 0.7484 0.87368 0.0
H762 H 0.70146 0.18239 0.12014 0.0
H763 H 0.88696 0.24678 0.07512 0.0
H764 H 0.7644 0.12878 0.0709 0.0
H765 H 0.83051 0.29976 0.12758 0.0
H766 H 0.83336 0.21438 0.06566 0.0
H767 H 0.7388 0.23507 0.1157 0.0
C768 C 0.72221 0.18228 0.10773 0.0
C769 C 0.73015 0.15132 0.09593 0.0
C770 C 0.83225 0.23364 0.07893 0.0
C771 C 0.77317 0.21081 0.09107 0.0
C772 C 0.86283 0.25229 0.08421 0.0
C773 C 0.86301 0.27571 0.10216 0.0
C774 C 0.80189 0.23758 0.0922 0.0
C775 C 0.83122 0.28194 0.11353 0.0
C776 C 0.74374 0.21217 0.10536 0.0
C777 C 0.75765 0.15216 0.08039 0.0
N778 N 0.80205 0.26227 0.10871 0.0
N779 N 0.77844 0.1812 0.07863 0.0
H780 H 0.16576 0.27938 0.87225 0.0
H781 H 0.25094 0.10269 0.9172 0.0
H782 H 0.11481 0.2057 0.91639 0.0
H783 H 0.30016 0.16913 0.86825 0.0
H784 H 0.21012 0.15064 0.92639 0.0
H785 H 0.22249 0.25004 0.8794 0.0
C786 C 0.1667 0.25777 0.88401 0.0
C787 C 0.1355 0.24449 0.89346 0.0
C788 C 0.23049 0.1553 0.9141 0.0
C789 C 0.20005 0.21066 0.90151 0.0
C790 C 0.25405 0.12804 0.90908 0.0
C791 C 0.27891 0.13225 0.8921 0.0
C792 C 0.23114 0.18654 0.90151 0.0
C793 C 0.28151 0.16519 0.88166 0.0
C794 C 0.19905 0.24089 0.88798 0.0
C795 C 0.13818 0.21637 0.90847 0.0
N796 N 0.25729 0.1909 0.88616 0.0
N797 N 0.16974 0.20007 0.91176 0.0
H798 H 0.27595 0.85546 0.13354 0.0
H799 H 0.14564 0.72829 0.13781 0.0
H800 H 0.2 0.91148 0.09366 0.0
H801 H 0.0941 0.78795 0.08645 0.0
H802 H 0.19918 0.76334 0.13231 0.0
H803 H 0.24393 0.80027 0.12634 0.0
C804 C 0.2531 0.85584 0.12273 0.0
C805 C 0.24014 0.88792 0.11441 0.0
C806 C 0.17688 0.76803 0.12153 0.0
C807 C 0.20263 0.82551 0.1067 0.0
C808 C 0.14631 0.74769 0.12462 0.0
C809 C 0.11562 0.7555 0.1126 0.0
C810 C 0.17635 0.7963 0.10632 0.0
C811 C 0.11732 0.78133 0.09608 0.0
C812 C 0.23441 0.82442 0.11888 0.0
C813 C 0.21047 0.88726 0.10062 0.0
N814 N 0.14693 0.80115 0.09369 0.0
N815 N 0.19254 0.85671 0.09742 0.0
H816 H 0.23461 0.56026 0.25886 0.0
H817 H 0.14047 0.65691 0.18218 0.0
H818 H 0.1657 0.60919 0.30679 0.0
H819 H 0.10059 0.7175 0.23747 0.0
H820 H 0.17821 0.62419 0.20732 0.0
H821 H 0.21695 0.60449 0.23153 0.0
C822 C 0.21629 0.58096 0.26365 0.0
C823 C 0.20151 0.58142 0.28492 0.0
C824 C 0.16208 0.64521 0.21405 0.0
C825 C 0.1792 0.63058 0.25355 0.0
C826 C 0.13995 0.6636 0.19962 0.0
C827 C 0.11686 0.68965 0.20773 0.0
C828 C 0.16118 0.65295 0.23686 0.0
C829 C 0.11793 0.6977 0.23043 0.0
C830 C 0.2056 0.60583 0.24796 0.0
C831 C 0.1777 0.6083 0.29048 0.0
N832 N 0.13932 0.67908 0.24421 0.0
N833 N 0.1669 0.63158 0.27478 0.0
H834 H 0.5906 0.76856 0.69206 0.0
H835 H 0.6141 0.85852 0.811 0.0
H836 H 0.50788 0.82472 0.7266 0.0
H837 H 0.70078 0.82431 0.76936 0.0
H838 H 0.57279 0.83382 0.78417 0.0
H839 H 0.62884 0.77556 0.72458 0.0
C840 C 0.58032 0.7817 0.70668 0.0
C841 C 0.5464 0.79662 0.70663 0.0
C842 C 0.60092 0.83145 0.78109 0.0
C843 C 0.58973 0.80496 0.7436 0.0
C844 C 0.62459 0.84578 0.79635 0.0
C845 C 0.66118 0.84427 0.79236 0.0
C846 C 0.61386 0.81538 0.76172 0.0
C847 C 0.67299 0.82635 0.77329 0.0
C848 C 0.60213 0.78589 0.72514 0.0
C849 C 0.53419 0.81344 0.72591 0.0
N850 N 0.6494 0.81295 0.7586 0.0
N851 N 0.55598 0.8175 0.74356 0.0
H852 H 0.81417 0.3836 0.31232 0.0
H853 H 0.82691 0.35022 0.18319 0.0
H854 H 0.7584 0.44495 0.26335 0.0
H855 H 0.87953 0.28582 0.232 0.0
H856 H 0.79156 0.37712 0.21263 0.0
H857 H 0.8269 0.33893 0.28406 0.0
C858 C 0.80358 0.38706 0.29579 0.0
C859 C 0.78584 0.41826 0.29 0.0
C860 C 0.81044 0.35671 0.21691 0.0
C861 C 0.80106 0.36793 0.2575 0.0
C862 C 0.83077 0.34154 0.2001 0.0
C863 C 0.85666 0.3163 0.20522 0.0
C864 C 0.8164 0.34694 0.23907 0.0
C865 C 0.85998 0.30531 0.22734 0.0
C866 C 0.81114 0.36173 0.27959 0.0
C867 C 0.77282 0.42154 0.26833 0.0
N868 N 0.84055 0.32116 0.24351 0.0
N869 N 0.7813 0.39706 0.25276 0.0
H870 H 0.32019 0.17732 0.78267 0.0
H871 H 0.51139 0.19389 0.72933 0.0
H872 H 0.416 0.13513 0.81122 0.0
H873 H 0.41623 0.22868 0.69676 0.0
H874 H 0.4781 0.18618 0.76369 0.0
H875 H 0.35582 0.20902 0.7554 0.0
C876 C 0.34867 0.17493 0.78338 0.0
C877 C 0.36498 0.15266 0.79896 0.0
C878 C 0.46449 0.19611 0.74919 0.0
C879 C 0.40589 0.18927 0.76796 0.0
C880 C 0.48351 0.20058 0.72965 0.0
C881 C 0.46624 0.21146 0.71032 0.0
C882 C 0.4278 0.20192 0.74923 0.0
C883 C 0.43027 0.22007 0.71142 0.0
C884 C 0.369 0.19326 0.76788 0.0
C885 C 0.40207 0.15164 0.79952 0.0
N886 N 0.41197 0.21444 0.73051 0.0
N887 N 0.42119 0.16921 0.78403 0.0
H888 H 0.1942 0.47299 0.72295 0.0
H889 H 0.13967 0.27854 0.76147 0.0
H890 H 0.1752 0.38859 0.67644 0.0
H891 H 0.13301 0.37169 0.80249 0.0
H892 H 0.16372 0.31481 0.73126 0.0
H893 H 0.18444 0.43198 0.75347 0.0
C894 C 0.1884 0.44558 0.71923 0.0
C895 C 0.1849 0.43413 0.69725 0.0
C896 C 0.15717 0.32718 0.74694 0.0
C897 C 0.17329 0.38715 0.73203 0.0
C898 C 0.14358 0.30655 0.76415 0.0
C899 C 0.13406 0.3223 0.78437 0.0
C900 C 0.16163 0.36363 0.75017 0.0
C901 C 0.13943 0.35867 0.78702 0.0
C902 C 0.18272 0.42223 0.73662 0.0
C903 C 0.17794 0.39833 0.69323 0.0
N904 N 0.15282 0.37808 0.77012 0.0
N905 N 0.17184 0.37606 0.71052 0.0
H906 H 0.50843 0.82426 0.24866 0.0
H907 H 0.30579 0.86512 0.22341 0.0
H908 H 0.42449 0.81016 0.29631 0.0
H909 H 0.39325 0.90473 0.18466 0.0
H910 H 0.34723 0.8306 0.2455 0.0
H911 H 0.46448 0.83817 0.22035 0.0
C912 C 0.48065 0.82352 0.25304 0.0
C913 C 0.47002 0.81689 0.27494 0.0
C914 C 0.35724 0.84655 0.23199 0.0
C915 C 0.41974 0.83282 0.24272 0.0
C916 C 0.33365 0.86653 0.21945 0.0
C917 C 0.34609 0.88867 0.20246 0.0
C918 C 0.39354 0.84855 0.22747 0.0
C919 C 0.3824 0.88829 0.19763 0.0
C920 C 0.45563 0.83147 0.2369 0.0
C921 C 0.43375 0.8154 0.27965 0.0
N922 N 0.4049 0.86889 0.21026 0.0
N923 N 0.40984 0.82395 0.26373 0.0
H924 H 0.81146 0.61311 0.684 0.0
H925 H 0.88126 0.62277 0.80711 0.0
H926 H 0.80289 0.52857 0.73149 0.0
H927 H 0.88495 0.71103 0.76182 0.0
H928 H 0.84066 0.59295 0.78229 0.0
H929 H 0.82612 0.65389 0.71427 0.0
C930 C 0.81162 0.60346 0.7009 0.0
C931 C 0.80663 0.56748 0.70533 0.0
C932 C 0.84996 0.61907 0.77788 0.0
C933 C 0.82393 0.61342 0.73983 0.0
C934 C 0.87315 0.63631 0.79218 0.0
C935 C 0.88756 0.6692 0.78636 0.0
C936 C 0.84136 0.63453 0.75742 0.0
C937 C 0.87566 0.68518 0.76669 0.0
C938 C 0.8202 0.6266 0.71815 0.0
C939 C 0.80721 0.5561 0.72743 0.0
N940 N 0.85382 0.66741 0.75273 0.0
N941 N 0.81635 0.57885 0.74381 0.0
H942 H 0.55891 0.26004 0.25654 0.0
H943 H 0.71847 0.13609 0.22149 0.0
H944 H 0.62524 0.20415 0.30282 0.0
H945 H 0.64549 0.18427 0.1756 0.0
H946 H 0.69473 0.1732 0.25102 0.0
H947 H 0.60085 0.24623 0.22692 0.0
C948 C 0.58291 0.24573 0.26054 0.0
C949 C 0.58841 0.23261 0.28199 0.0
C950 C 0.68425 0.17603 0.23442 0.0
C951 C 0.63596 0.21597 0.24821 0.0
C952 C 0.69787 0.15489 0.21749 0.0
C953 C 0.68345 0.15654 0.19608 0.0
C954 C 0.6559 0.19891 0.22995 0.0
C955 C 0.65671 0.18139 0.19198 0.0
C956 C 0.60673 0.23768 0.24363 0.0
C957 C 0.61999 0.21455 0.28644 0.0
N958 N 0.64349 0.20128 0.20881 0.0
N959 N 0.64224 0.20603 0.26955 0.0
H960 H 0.63522 0.09985 0.66664 0.0
H961 H 0.7355 0.07886 0.78252 0.0
H962 H 0.66842 0.18763 0.70745 0.0
H963 H 0.6797 0.99439 0.74977 0.0
H964 H 0.72302 0.11738 0.75077 0.0
H965 H 0.66246 0.05944 0.69305 0.0
C966 C 0.64821 0.11075 0.68105 0.0
C967 C 0.6489 0.14737 0.68488 0.0
C968 C 0.71392 0.09027 0.75043 0.0
C969 C 0.68071 0.1011 0.71502 0.0
C970 C 0.72123 0.0683 0.76844 0.0
C971 C 0.70812 0.03371 0.76879 0.0
C972 C 0.6936 0.07733 0.7327 0.0
C973 C 0.68971 0.02118 0.75022 0.0
C974 C 0.66399 0.08761 0.69606 0.0
C975 C 0.66711 0.15977 0.70364 0.0
N976 N 0.68271 0.04308 0.73299 0.0
N977 N 0.68202 0.13669 0.71808 0.0
H978 H 0.15581 0.33866 0.30134 0.0
H979 H 0.11471 0.32226 0.17235 0.0
H980 H 0.22297 0.3809 0.24999 0.0
H981 H 0.04263 0.29282 0.22453 0.0
H982 H 0.1616 0.32977 0.20007 0.0
H983 H 0.12122 0.30813 0.27309 0.0
C984 C 0.16345 0.34123 0.28412 0.0
C985 C 0.1918 0.36296 0.27797 0.0
C986 C 0.13572 0.32095 0.20539 0.0
C987 C 0.15241 0.32816 0.24551 0.0
C988 C 0.10912 0.31647 0.18958 0.0
C989 C 0.07485 0.30747 0.19634 0.0
C990 C 0.12774 0.31632 0.22798 0.0
C991 C 0.06871 0.30034 0.2188 0.0
C992 C 0.14383 0.32368 0.268 0.0
C993 C 0.20121 0.36458 0.25547 0.0
N994 N 0.09477 0.30536 0.23386 0.0
N995 N 0.18117 0.34791 0.23999 0.0
H996 H 0.37176 0.89848 0.6709 0.0
H997 H 0.31803 0.90157 0.799 0.0
H998 H 0.35327 0.80473 0.70991 0.0
H999 H 0.34094 0.99462 0.76036 0.0
H1000 H 0.32159 0.86589 0.76511 0.0
H1001 H 0.35197 0.93448 0.70216 0.0
C1002 C 0.36337 0.88546 0.68597 0.0
C1003 C 0.3646 0.84855 0.68783 0.0
C1004 C 0.32548 0.89418 0.76403 0.0
C1005 C 0.34181 0.8895 0.72368 0.0
C1006 C 0.3233 0.91448 0.78333 0.0
C1007 C 0.32991 0.95086 0.78246 0.0
C1008 C 0.33424 0.91052 0.74382 0.0
C1009 C 0.33655 0.96644 0.76178 0.0
C1010 C 0.3519 0.90599 0.70379 0.0
C1011 C 0.35267 0.83305 0.70763 0.0
N1012 N 0.33889 0.94614 0.74332 0.0
N1013 N 0.34215 0.85361 0.72486 0.0
H1014 H 0.93153 0.74741 0.22483 0.0
H1015 H 0.76673 0.63196 0.2624 0.0
H1016 H 0.86046 0.69542 0.17971 0.0
H1017 H 0.85097 0.6652 0.30578 0.0
H1018 H 0.79043 0.67011 0.23338 0.0
H1019 H 0.89136 0.73369 0.25551 0.0
C1020 C 0.90664 0.73439 0.22134 0.0
C1021 C 0.89895 0.72258 0.19989 0.0
C1022 C 0.80342 0.66946 0.24937 0.0
C1023 C 0.85377 0.70563 0.23473 0.0
C1024 C 0.78984 0.64777 0.26598 0.0
C1025 C 0.80731 0.6449 0.28642 0.0
C1026 C 0.83467 0.68843 0.25322 0.0
C1027 C 0.83724 0.66594 0.29007 0.0
C1028 C 0.88396 0.7262 0.23882 0.0
C1029 C 0.86694 0.70515 0.19609 0.0
N1030 N 0.85021 0.68653 0.27354 0.0
N1031 N 0.8457 0.69662 0.21345 0.0
H1032 H 0.68896 0.90152 0.16919 0.0
H1033 H 0.68858 0.88181 0.30072 0.0
H1034 H 0.70283 0.98736 0.21538 0.0
H1035 H 0.65882 0.79834 0.25574 0.0
H1036 H 0.70907 0.91667 0.26919 0.0
H1037 H 0.69267 0.85956 0.20019 0.0
C1038 C 0.69344 0.91137 0.18582 0.0
C1039 C 0.69487 0.94775 0.18996 0.0
C1040 C 0.69855 0.89049 0.26624 0.0
C1041 C 0.69914 0.90046 0.22522 0.0
C1042 C 0.68678 0.87067 0.28423 0.0
C1043 C 0.67128 0.83751 0.28081 0.0
C1044 C 0.69446 0.87716 0.24465 0.0
C1045 C 0.67041 0.82387 0.25915 0.0
C1046 C 0.69547 0.88755 0.20346 0.0
C1047 C 0.70086 0.95943 0.21168 0.0
N1048 N 0.68124 0.84403 0.24182 0.0
N1049 N 0.70239 0.93587 0.22853 0.0
H1050 H 0.89296 0.31048 0.80861 0.0
H1051 H 0.87157 0.34417 0.67875 0.0
H1052 H 0.9731 0.28451 0.76023 0.0
H1053 H 0.79306 0.37269 0.72762 0.0
H1054 H 0.90572 0.31469 0.70768 0.0
H1055 H 0.85254 0.3256 0.77853 0.0
C1056 C 0.90193 0.30768 0.79163 0.0
C1057 C 0.93657 0.29663 0.78691 0.0
C1058 C 0.88082 0.32709 0.71202 0.0
C1059 C 0.89051 0.31394 0.7524 0.0
C1060 C 0.8614 0.34408 0.69552 0.0
C1061 C 0.82961 0.36139 0.70078 0.0
C1062 C 0.86846 0.32752 0.73398 0.0
C1063 C 0.81732 0.35968 0.72273 0.0
C1064 C 0.87882 0.31621 0.77446 0.0
C1065 C 0.9466 0.29282 0.76463 0.0
N1066 N 0.83695 0.34343 0.73855 0.0
N1067 N 0.92381 0.30188 0.74819 0.0
H1068 H 0.26099 0.07175 0.22879 0.0
H1069 H 0.37275 0.24211 0.26187 0.0
H1070 H 0.31494 0.13922 0.1823 0.0
H1071 H 0.34759 0.1577 0.30723 0.0
H1072 H 0.33498 0.21463 0.23407 0.0
H1073 H 0.27575 0.11329 0.25868 0.0
C1074 C 0.27484 0.09598 0.22482 0.0
C1075 C 0.28698 0.10228 0.20325 0.0
C1076 C 0.33732 0.20241 0.25023 0.0
C1077 C 0.30428 0.14923 0.23705 0.0
C1078 C 0.35875 0.21816 0.26616 0.0
C1079 C 0.36384 0.20181 0.28678 0.0
C1080 C 0.32081 0.1701 0.25494 0.0
C1081 C 0.3451 0.17067 0.29134 0.0
C1082 C 0.28351 0.11944 0.24184 0.0
C1083 C 0.30527 0.13362 0.19883 0.0
N1084 N 0.32469 0.15557 0.27544 0.0
N1085 N 0.31374 0.1558 0.21566 0.0
H1086 H 0.07745 0.73942 0.77277 0.0
H1087 H 0.14418 0.65992 0.68013 0.0
H1088 H 0.15159 0.66909 0.8044 0.0
H1089 H 0.2426 0.64895 0.71572 0.0
H1090 H 0.12022 0.69346 0.71097 0.0
H1091 H 0.11254 0.73619 0.73864 0.0
C1092 C 0.10167 0.72409 0.77269 0.0
C1093 C 0.11142 0.70397 0.79123 0.0
C1094 C 0.14747 0.68476 0.71177 0.0
C1095 C 0.15092 0.69939 0.75227 0.0
C1096 C 0.16124 0.66535 0.69408 0.0
C1097 C 0.19518 0.65035 0.69551 0.0
C1098 C 0.16766 0.68898 0.73112 0.0
C1099 C 0.21582 0.65865 0.71417 0.0
C1100 C 0.12138 0.72189 0.75314 0.0
C1101 C 0.14293 0.68448 0.79029 0.0
N1102 N 0.20139 0.67648 0.73151 0.0
N1103 N 0.16136 0.68233 0.77101 0.0
H1104 H 0.174 0.4482 0.54295 0.0
H1105 H 0.19739 0.56028 0.4322 0.0
H1106 H 0.19921 0.55933 0.54259 0.0
H1107 H 0.20028 0.44638 0.4333 0.0
H1108 H 0.19637 0.56066 0.47275 0.0
H1109 H 0.18162 0.44686 0.50262 0.0
C1110 C 0.18122 0.47224 0.53437 0.0
C1111 C 0.186 0.50388 0.54609 0.0
C1112 C 0.19755 0.53558 0.46412 0.0
C1113 C 0.19467 0.50266 0.50013 0.0
C1114 C 0.19798 0.5354 0.44102 0.0
C1115 C 0.19892 0.50329 0.42945 0.0
C1116 C 0.19754 0.50339 0.4757 0.0
C1117 C 0.19995 0.47171 0.44161 0.0
C1118 C 0.18577 0.47145 0.51142 0.0
C1119 C 0.19569 0.53428 0.53425 0.0
N1120 N 0.19891 0.47254 0.4641 0.0
N1121 N 0.19943 0.53297 0.5119 0.0
H1122 H 0.54167 0.76422 0.42777 0.0
H1123 H 0.49041 0.85009 0.54466 0.0
H1124 H 0.49254 0.8666 0.43481 0.0
H1125 H 0.5381 0.74704 0.53752 0.0
H1126 H 0.491 0.85669 0.50444 0.0
H1127 H 0.53993 0.75712 0.46794 0.0
C1128 C 0.53044 0.78518 0.43778 0.0
C1129 C 0.51742 0.81614 0.42794 0.0
C1130 C 0.5014 0.83265 0.51166 0.0
C1131 C 0.51527 0.8082 0.47394 0.0
C1132 C 0.50099 0.82884 0.53462 0.0
C1133 C 0.51405 0.79788 0.54446 0.0
C1134 C 0.51496 0.80529 0.4984 0.0
C1135 C 0.52807 0.77147 0.53067 0.0
C1136 C 0.52939 0.78109 0.46071 0.0
C1137 C 0.50258 0.84219 0.44167 0.0
N1138 N 0.52803 0.77572 0.50832 0.0
N1139 N 0.5021 0.83771 0.464 0.0
H1140 H 0.82081 0.55779 0.43648 0.0
H1141 H 0.81616 0.44639 0.54867 0.0
H1142 H 0.8356 0.4448 0.43883 0.0
H1143 H 0.82211 0.5602 0.5471 0.0
H1144 H 0.81836 0.44522 0.50833 0.0
H1145 H 0.81666 0.55902 0.4768 0.0
C1146 C 0.8229 0.53316 0.44549 0.0
C1147 C 0.8283 0.50106 0.43429 0.0
C1148 C 0.8191 0.47048 0.51678 0.0
C1149 C 0.82393 0.50236 0.4805 0.0
C1150 C 0.81748 0.47121 0.53983 0.0
C1151 C 0.81865 0.50353 0.55126 0.0
C1152 C 0.82176 0.50229 0.505 0.0
C1153 C 0.82128 0.53477 0.53891 0.0
C1154 C 0.82081 0.53394 0.46853 0.0
C1155 C 0.83161 0.47009 0.44684 0.0
N1156 N 0.82265 0.53339 0.51641 0.0
N1157 N 0.82923 0.47148 0.46931 0.0
H1158 H 0.53971 0.14348 0.43626 0.0
H1159 H 0.47886 0.26179 0.53962 0.0
H1160 H 0.4995 0.24982 0.43047 0.0
H1161 H 0.52002 0.15587 0.54588 0.0
H1162 H 0.48482 0.25724 0.49944 0.0
H1163 H 0.53372 0.14768 0.47653 0.0
C1164 C 0.53009 0.16787 0.44348 0.0
C1165 C 0.5199 0.19628 0.43 0.0
C1166 C 0.49244 0.23492 0.50959 0.0
C1167 C 0.51231 0.20105 0.47596 0.0
C1168 C 0.48868 0.23739 0.53253 0.0
C1169 C 0.49912 0.20922 0.54612 0.0
C1170 C 0.50672 0.20405 0.50018 0.0
C1171 C 0.51217 0.1784 0.53602 0.0
C1172 C 0.52632 0.17014 0.46644 0.0
C1173 C 0.50713 0.22709 0.44022 0.0
N1174 N 0.51573 0.17668 0.51366 0.0
N1175 N 0.50356 0.22862 0.46257 0.0
H1176 H 0.76301 0.03809 0.93538 0.0
H1177 H 0.64685 0.97119 0.03699 0.0
H1178 H 0.67255 0.96947 0.92813 0.0
H1179 H 0.70838 0.06733 0.03972 0.0
H1180 H 0.66127 0.96582 -0.00217 0.0
H1181 H 0.74817 0.04544 0.97463 0.0
C1182 C 0.74002 0.02469 0.94194 0.0
C1183 C 0.71933 1.00275 0.92841 0.0
C1184 C 0.67155 0.9881 0.00707 0.0
C1185 C 0.7026 0.01062 0.97327 0.0
C1186 C 0.66323 0.99128 0.02949 0.0
C1187 C 0.67629 0.0198 0.04193 0.0
C1188 C 0.69339 0.01335 -0.00301 0.0
C1189 C 0.698 0.04458 0.03111 0.0
C1190 C 0.73166 0.0288 0.96435 0.0
C1191 C 0.68993 0.98586 0.93793 0.0
N1192 N 0.70595 0.04071 0.00929 0.0
N1193 N 0.6826 0.98998 0.95977 0.0
H1194 H 0.94408 0.29286 0.93932 0.0
H1195 H 0.0483 0.34784 0.04945 0.0
H1196 H 0.05592 0.31536 0.94095 0.0
H1197 H 0.93803 0.31869 0.04818 0.0
H1198 H 0.05089 0.33995 0.00924 0.0
H1199 H 0.94063 0.3058 0.97891 0.0
C1200 C 0.9679 0.30052 0.94799 0.0
C1201 C 1.00034 0.30286 0.93677 0.0
C1202 C 0.02613 0.33531 0.01778 0.0
C1203 C 0.99659 0.31794 0.98209 0.0
C1204 C 0.02461 0.33996 0.04071 0.0
C1205 C 0.99299 0.33365 0.05222 0.0
C1206 C 0.99575 0.3244 0.00629 0.0
C1207 C 0.96314 0.32319 0.04008 0.0
C1208 C 0.96591 0.30805 0.97058 0.0
C1209 C 0.03027 0.31355 0.94879 0.0
N1210 N 0.96528 0.31886 0.01779 0.0
N1211 N 0.02769 0.32053 0.97081 0.0
H1212 H 0.29104 0.94923 0.05525 0.0
H1213 H 0.29615 0.05469 0.94086 0.0
H1214 H 0.26109 0.05864 0.04757 0.0
H1215 H 0.32471 0.94443 0.94592 0.0
H1216 H 0.28115 0.05512 0.97978 0.0
H1217 H 0.30226 0.94578 0.01538 0.0
C1218 C 0.28692 0.97256 0.04522 0.0
C1219 C 0.27523 1.00436 0.05481 0.0
C1220 C 0.29047 0.03069 0.97243 0.0
C1221 C 0.28765 1.00044 0.00919 0.0
C1222 C 0.29878 0.03029 0.95001 0.0
C1223 C 0.31144 0.99929 0.93989 0.0
C1224 C 0.295 0.99998 0.98508 0.0
C1225 C 0.31523 0.96893 0.95304 0.0
C1226 C 0.29312 0.97048 0.02244 0.0
C1227 C 0.2697 0.03351 0.04092 0.0
N1228 N 0.3071 0.97003 0.97501 0.0
N1229 N 0.27608 0.03086 0.01886 0.0
H1230 H 0.96065 0.71066 0.93512 0.0
H1231 H 0.05174 0.71319 0.05445 0.0
H1232 H 0.07101 0.68776 0.94623 0.0
H1233 H 0.93867 0.71262 0.04485 0.0
H1234 H 0.05998 0.71383 0.01442 0.0
H1235 H 0.95318 0.72139 0.97477 0.0
C1236 C 0.98346 0.70843 0.94584 0.0
C1237 C 0.01654 0.69816 0.93739 0.0
C1238 C 0.03335 0.71381 0.02105 0.0
C1239 C 0.00802 0.71001 0.98278 0.0
C1240 C 0.02859 0.71375 0.04394 0.0
C1241 C 0.99439 0.7128 0.05303 0.0
C1242 C 1.00375 0.71302 0.00709 0.0
C1243 C 0.96545 0.71291 0.03852 0.0
C1244 C 0.97908 0.71427 0.9685 0.0
C1245 C 0.04501 0.69517 0.95212 0.0
N1246 N 0.97077 0.7129 0.01623 0.0
N1247 N 0.04008 0.70096 0.97413 0.0
loop_
_geom_bond_atom_site_label_1
_geom_bond_atom_site_label_2
_geom_bond_distance
_geom_bond_site_symmetry_2
_ccdc_geom_bond_type
C0 C1 1.351 . S
C0 N3 1.368 . S
C0 H5 0.931 . S
C1 C0 1.351 . S
C1 N2 1.373 . S
C1 H29 0.930 . S
N2 C1 1.373 . S
N2 C4 1.340 . S
N3 C0 1.368 . S
N3 C4 1.321 . S
N3 Co6 2.135 . S
C4 N2 1.340 . S
C4 N3 1.321 . S
C4 H28 0.930 . S
H5 C0 0.931 . S
Co6 N3 2.135 . S
Co6 N9 2.121 . S
Co6 O14 2.055 . S
Co6 O17 2.039 . S
Co6 N20 2.140 . S
C7 O8 1.227 . S
C7 O17 1.265 . S
O8 C7 1.227 . S
N9 Co6 2.121 . S
N9 C11 1.375 . S
N9 C12 1.313 . S
C10 C11 1.338 . S
C10 N13 1.377 . S
C10 H30 0.930 . S
C11 N9 1.375 . S
C11 C10 1.338 . S
C11 H15 0.931 . S
C12 N9 1.313 . S
C12 N13 1.344 . S
C12 H16 0.930 . S
N13 C10 1.377 . S
N13 C12 1.344 . S
O14 Co6 2.055 . S
O14 C18 1.253 . S
H15 C11 0.931 . S
H16 C12 0.930 . S
O17 Co6 2.039 . S
O17 C7 1.265 . S
C18 O14 1.253 . S
C18 O19 1.227 . S
O19 C18 1.227 . S
N20 Co6 2.140 . S
N20 C23 1.346 . S
N20 C24 1.345 . S
C21 C22 1.387 . S
C21 C25 1.391 . S
C22 C21 1.387 . S
C22 C23 1.369 . S
C22 H31 0.929 . S
C23 N20 1.346 . S
C23 C22 1.369 . S
C23 H26 0.928 . S
C24 N20 1.345 . S
C24 C25 1.371 . S
C24 H27 0.931 . S
C25 C21 1.391 . S
C25 C24 1.371 . S
C25 H32 0.930 . S
H26 C23 0.928 . S
H27 C24 0.931 . S
H28 C4 0.930 . S
H29 C1 0.930 . S
H30 C10 0.930 . S
H31 C22 0.929 . S
H32 C25 0.930 . S
C33 C34 1.351 . S
C33 N36 1.368 . S
C33 H38 0.931 . S
C34 C33 1.351 . S
C34 N35 1.373 . S
C34 H62 0.930 . S
N35 C34 1.373 . S
N35 C37 1.340 . S
N36 C33 1.368 . S
N36 C37 1.321 . S
N36 Co39 2.135 . S
C37 N35 1.340 . S
C37 N36 1.321 . S
C37 H61 0.930 . S
H38 C33 0.931 . S
Co39 N36 2.135 . S
Co39 N42 2.121 . S
Co39 O47 2.055 . S
Co39 O50 2.039 . S
Co39 N53 2.140 . S
C40 O41 1.227 . S
C40 O50 1.265 . S
O41 C40 1.227 . S
N42 Co39 2.121 . S
N42 C44 1.375 . S
N42 C45 1.313 . S
C43 C44 1.338 . S
C43 N46 1.377 . S
C43 H63 0.930 . S
C44 N42 1.375 . S
C44 C43 1.338 . S
C44 H48 0.931 . S
C45 N42 1.313 . S
C45 N46 1.344 . S
C45 H49 0.930 . S
N46 C43 1.377 . S
N46 C45 1.344 . S
O47 Co39 2.055 . S
O47 C51 1.253 . S
H48 C44 0.931 . S
H49 C45 0.930 . S
O50 Co39 2.039 . S
O50 C40 1.265 . S
C51 O47 1.253 . S
C51 O52 1.227 . S
O52 C51 1.227 . S
N53 Co39 2.140 . S
N53 C56 1.346 . S
N53 C57 1.345 . S
C54 C55 1.387 . S
C54 C58 1.391 . S
C55 C54 1.387 . S
C55 C56 1.369 . S
C55 H64 0.929 . S
C56 N53 1.346 . S
C56 C55 1.369 . S
C56 H59 0.928 . S
C57 N53 1.345 . S
C57 C58 1.371 . S
C57 H60 0.931 . S
C58 C54 1.391 . S
C58 C57 1.371 . S
C58 H65 0.930 . S
H59 C56 0.928 . S
H60 C57 0.931 . S
H61 C37 0.930 . S
H62 C34 0.930 . S
H63 C43 0.930 . S
H64 C55 0.929 . S
H65 C58 0.930 . S
C66 C67 1.351 . S
C66 N69 1.368 . S
C66 H71 0.931 . S
C67 C66 1.351 . S
C67 N68 1.373 . S
C67 H95 0.930 . S
N68 C67 1.373 . S
N68 C70 1.340 . S
N69 C66 1.368 . S
N69 C70 1.321 . S
N69 Co72 2.135 . S
C70 N68 1.340 . S
C70 N69 1.321 . S
C70 H94 0.930 . S
H71 C66 0.931 . S
Co72 N69 2.135 . S
Co72 N75 2.121 . S
Co72 O80 2.055 . S
Co72 O83 2.039 . S
Co72 N86 2.140 . S
C73 O74 1.227 . S
C73 O83 1.265 . S
O74 C73 1.227 . S
N75 Co72 2.121 . S
N75 C77 1.375 . S
N75 C78 1.313 . S
C76 C77 1.338 . S
C76 N79 1.377 . S
C76 H96 0.930 . S
C77 N75 1.375 . S
C77 C76 1.338 . S
C77 H81 0.931 . S
C78 N75 1.313 . S
C78 N79 1.344 . S
C78 H82 0.930 . S
N79 C76 1.377 . S
N79 C78 1.344 . S
O80 Co72 2.055 . S
O80 C84 1.253 . S
H81 C77 0.931 . S
H82 C78 0.930 . S
O83 Co72 2.039 . S
O83 C73 1.265 . S
C84 O80 1.253 . S
C84 O85 1.227 . S
O85 C84 1.227 . S
N86 Co72 2.140 . S
N86 C89 1.346 . S
N86 C90 1.345 . S
C87 C88 1.387 . S
C87 C91 1.391 . S
C88 C87 1.387 . S
C88 C89 1.369 . S
C88 H97 0.929 . S
C89 N86 1.346 . S
C89 C88 1.369 . S
C89 H92 0.928 . S
C90 N86 1.345 . S
C90 C91 1.371 . S
C90 H93 0.931 . S
C91 C87 1.391 . S
C91 C90 1.371 . S
C91 H98 0.930 . S
H92 C89 0.928 . S
H93 C90 0.931 . S
H94 C70 0.930 . S
H95 C67 0.930 . S
H96 C76 0.930 . S
H97 C88 0.929 . S
H98 C91 0.930 . S
C99 C100 1.351 . S
C99 N102 1.368 . S
C99 H104 0.931 . S
C100 C99 1.351 . S
C100 N101 1.373 . S
C100 H128 0.930 . S
N101 C100 1.373 . S
N101 C103 1.340 . S
N102 C99 1.368 . S
N102 C103 1.321 . S
N102 Co105 2.135 . S
C103 N101 1.340 . S
C103 N102 1.321 . S
C103 H127 0.930 . S
H104 C99 0.931 . S
Co105 N102 2.135 . S
Co105 N108 2.121 . S
Co105 O113 2.055 . S
Co105 O116 2.039 . S
Co105 N119 2.140 . S
C106 O107 1.227 . S
C106 O116 1.265 . S
O107 C106 1.227 . S
N108 Co105 2.121 . S
N108 C110 1.375 . S
N108 C111 1.313 . S
C109 C110 1.338 . S
C109 N112 1.377 . S
C109 H129 0.930 . S
C110 N108 1.375 . S
C110 C109 1.338 . S
C110 H114 0.931 . S
C111 N108 1.313 . S
C111 N112 1.344 . S
C111 H115 0.930 . S
N112 C109 1.377 . S
N112 C111 1.344 . S
O113 Co105 2.055 . S
O113 C117 1.253 . S
H114 C110 0.931 . S
H115 C111 0.930 . S
O116 Co105 2.039 . S
O116 C106 1.265 . S
C117 O113 1.253 . S
C117 O118 1.227 . S
O118 C117 1.227 . S
N119 Co105 2.140 . S
N119 C122 1.346 . S
N119 C123 1.345 . S
C120 C121 1.387 . S
C120 C124 1.391 . S
C121 C120 1.387 . S
C121 C122 1.369 . S
C121 H130 0.929 . S
C122 N119 1.346 . S
C122 C121 1.369 . S
C122 H125 0.928 . S
C123 N119 1.345 . S
C123 C124 1.371 . S
C123 H126 0.931 . S
C124 C120 1.391 . S
C124 C123 1.371 . S
C124 H131 0.930 . S
H125 C122 0.928 . S
H126 C123 0.931 . S
H127 C103 0.930 . S
H128 C100 0.930 . S
H129 C109 0.930 . S
H130 C121 0.929 . S
H131 C124 0.930 . S
C132 C133 1.351 . S
C132 N135 1.368 . S
C132 H137 0.931 . S
C133 C132 1.351 . S
C133 N134 1.373 . S
C133 H161 0.930 . S
N134 C133 1.373 . S
N134 C136 1.340 . S
N135 C132 1.368 . S
N135 C136 1.321 . S
N135 Co138 2.135 . S
C136 N134 1.340 . S
C136 N135 1.321 . S
C136 H160 0.930 . S
H137 C132 0.931 . S
Co138 N135 2.135 . S
Co138 N141 2.121 . S
Co138 O146 2.055 . S
Co138 O149 2.039 . S
Co138 N152 2.140 . S
C139 O140 1.227 . S
C139 O149 1.265 . S
O140 C139 1.227 . S
N141 Co138 2.121 . S
N141 C143 1.375 . S
N141 C144 1.313 . S
C142 C143 1.338 . S
C142 N145 1.377 . S
C142 H162 0.930 . S
C143 N141 1.375 . S
C143 C142 1.338 . S
C143 H147 0.931 . S
C144 N141 1.313 . S
C144 N145 1.344 . S
C144 H148 0.930 . S
N145 C142 1.377 . S
N145 C144 1.344 . S
O146 Co138 2.055 . S
O146 C150 1.253 . S
H147 C143 0.931 . S
H148 C144 0.930 . S
O149 Co138 2.039 . S
O149 C139 1.265 . S
C150 O146 1.253 . S
C150 O151 1.227 . S
O151 C150 1.227 . S
N152 Co138 2.140 . S
N152 C155 1.346 . S
N152 C156 1.345 . S
C153 C154 1.387 . S
C153 C157 1.391 . S
C154 C153 1.387 . S
C154 C155 1.369 . S
C154 H163 0.929 . S
C155 N152 1.346 . S
C155 C154 1.369 . S
C155 H158 0.928 . S
C156 N152 1.345 . S
C156 C157 1.371 . S
C156 H159 0.931 . S
C157 C153 1.391 . S
C157 C156 1.371 . S
C157 H164 0.930 . S
H158 C155 0.928 . S
H159 C156 0.931 . S
H160 C136 0.930 . S
H161 C133 0.930 . S
H162 C142 0.930 . S
H163 C154 0.929 . S
H164 C157 0.930 . S
C165 C166 1.351 . S
C165 N168 1.368 . S
C165 H170 0.931 . S
C166 C165 1.351 . S
C166 N167 1.373 . S
C166 H194 0.930 . S
N167 C166 1.373 . S
N167 C169 1.340 . S
N168 C165 1.368 . S
N168 C169 1.321 . S
N168 Co171 2.135 . S
C169 N167 1.340 . S
C169 N168 1.321 . S
C169 H193 0.930 . S
H170 C165 0.931 . S
Co171 N168 2.135 . S
Co171 N174 2.121 . S
Co171 O179 2.055 . S
Co171 O182 2.039 . S
Co171 N185 2.140 . S
C172 O173 1.227 . S
C172 O182 1.265 . S
O173 C172 1.227 . S
N174 Co171 2.121 . S
N174 C176 1.375 . S
N174 C177 1.313 . S
C175 C176 1.338 . S
C175 N178 1.377 . S
C175 H195 0.930 . S
C176 N174 1.375 . S
C176 C175 1.338 . S
C176 H180 0.931 . S
C177 N174 1.313 . S
C177 N178 1.344 . S
C177 H181 0.930 . S
N178 C175 1.377 . S
N178 C177 1.344 . S
O179 Co171 2.055 . S
O179 C183 1.253 . S
H180 C176 0.931 . S
H181 C177 0.930 . S
O182 Co171 2.039 . S
O182 C172 1.265 . S
C183 O179 1.253 . S
C183 O184 1.227 . S
O184 C183 1.227 . S
N185 Co171 2.140 . S
N185 C188 1.346 . S
N185 C189 1.345 . S
C186 C187 1.387 . S
C186 C190 1.391 . S
C187 C186 1.387 . S
C187 C188 1.369 . S
C187 H196 0.929 . S
C188 N185 1.346 . S
C188 C187 1.369 . S
C188 H191 0.928 . S
C189 N185 1.345 . S
C189 C190 1.371 . S
C189 H192 0.931 . S
C190 C186 1.391 . S
C190 C189 1.371 . S
C190 H197 0.930 . S
H191 C188 0.928 . S
H192 C189 0.931 . S
H193 C169 0.930 . S
H194 C166 0.930 . S
H195 C175 0.930 . S
H196 C187 0.929 . S
H197 C190 0.930 . S
C198 C199 1.351 . S
C198 N201 1.368 . S
C198 H203 0.931 . S
C199 C198 1.351 . S
C199 N200 1.373 . S
C199 H227 0.930 . S
N200 C199 1.373 . S
N200 C202 1.340 . S
N201 C198 1.368 . S
N201 C202 1.321 . S
N201 Co204 2.135 . S
C202 N200 1.340 . S
C202 N201 1.321 . S
C202 H226 0.930 . S
H203 C198 0.931 . S
Co204 N201 2.135 . S
Co204 N207 2.121 . S
Co204 O212 2.055 . S
Co204 O215 2.039 . S
Co204 N218 2.140 . S
C205 O206 1.227 . S
C205 O215 1.265 . S
O206 C205 1.227 . S
N207 Co204 2.121 . S
N207 C209 1.375 . S
N207 C210 1.313 . S
C208 C209 1.338 . S
C208 N211 1.377 . S
C208 H228 0.930 . S
C209 N207 1.375 . S
C209 C208 1.338 . S
C209 H213 0.931 . S
C210 N207 1.313 . S
C210 N211 1.344 . S
C210 H214 0.930 . S
N211 C208 1.377 . S
N211 C210 1.344 . S
O212 Co204 2.055 . S
O212 C216 1.253 . S
H213 C209 0.931 . S
H214 C210 0.930 . S
O215 Co204 2.039 . S
O215 C205 1.265 . S
C216 O212 1.253 . S
C216 O217 1.227 . S
O217 C216 1.227 . S
N218 Co204 2.140 . S
N218 C221 1.346 . S
N218 C222 1.345 . S
C219 C220 1.387 . S
C219 C223 1.391 . S
C220 C219 1.387 . S
C220 C221 1.369 . S
C220 H229 0.929 . S
C221 N218 1.346 . S
C221 C220 1.369 . S
C221 H224 0.928 . S
C222 N218 1.345 . S
C222 C223 1.371 . S
C222 H225 0.931 . S
C223 C219 1.391 . S
C223 C222 1.371 . S
C223 H230 0.930 . S
H224 C221 0.928 . S
H225 C222 0.931 . S
H226 C202 0.930 . S
H227 C199 0.930 . S
H228 C208 0.930 . S
H229 C220 0.929 . S
H230 C223 0.930 . S
C231 C232 1.351 . S
C231 N234 1.368 . S
C231 H236 0.931 . S
C232 C231 1.351 . S
C232 N233 1.373 . S
C232 H260 0.930 . S
N233 C232 1.373 . S
N233 C235 1.340 . S
N234 C231 1.368 . S
N234 C235 1.321 . S
N234 Co237 2.135 . S
C235 N233 1.340 . S
C235 N234 1.321 . S
C235 H259 0.930 . S
H236 C231 0.931 . S
Co237 N234 2.135 . S
Co237 N240 2.121 . S
Co237 O245 2.055 . S
Co237 O248 2.039 . S
Co237 N251 2.140 . S
C238 O239 1.227 . S
C238 O248 1.265 . S
O239 C238 1.227 . S
N240 Co237 2.121 . S
N240 C242 1.375 . S
N240 C243 1.313 . S
C241 C242 1.338 . S
C241 N244 1.377 . S
C241 H261 0.930 . S
C242 N240 1.375 . S
C242 C241 1.338 . S
C242 H246 0.931 . S
C243 N240 1.313 . S
C243 N244 1.344 . S
C243 H247 0.930 . S
N244 C241 1.377 . S
N244 C243 1.344 . S
O245 Co237 2.055 . S
O245 C249 1.253 . S
H246 C242 0.931 . S
H247 C243 0.930 . S
O248 Co237 2.039 . S
O248 C238 1.265 . S
C249 O245 1.253 . S
C249 O250 1.227 . S
O250 C249 1.227 . S
N251 Co237 2.140 . S
N251 C254 1.346 . S
N251 C255 1.345 . S
C252 C253 1.387 . S
C252 C256 1.391 . S
C253 C252 1.387 . S
C253 C254 1.369 . S
C253 H262 0.929 . S
C254 N251 1.346 . S
C254 C253 1.369 . S
C254 H257 0.928 . S
C255 N251 1.345 . S
C255 C256 1.371 . S
C255 H258 0.931 . S
C256 C252 1.391 . S
C256 C255 1.371 . S
C256 H263 0.930 . S
H257 C254 0.928 . S
H258 C255 0.931 . S
H259 C235 0.930 . S
H260 C232 0.930 . S
H261 C241 0.930 . S
H262 C253 0.929 . S
H263 C256 0.930 . S
C264 C265 1.351 . S
C264 N267 1.368 . S
C264 H269 0.931 . S
C265 C264 1.351 . S
C265 N266 1.373 . S
C265 H293 0.930 . S
N266 C265 1.373 . S
N266 C268 1.340 . S
N267 C264 1.368 . S
N267 C268 1.321 . S
N267 Co270 2.135 . S
C268 N266 1.340 . S
C268 N267 1.321 . S
C268 H292 0.930 . S
H269 C264 0.931 . S
Co270 N267 2.135 . S
Co270 N273 2.121 . S
Co270 O278 2.055 . S
Co270 O281 2.039 . S
Co270 N284 2.140 . S
C271 O272 1.227 . S
C271 O281 1.265 . S
O272 C271 1.227 . S
N273 Co270 2.121 . S
N273 C275 1.375 1_565 S
N273 C276 1.313 . S
C274 C275 1.338 . S
C274 N277 1.385 . S
C274 H294 0.930 . S
C275 N273 1.375 1_545 S
C275 C274 1.338 . S
C275 H279 0.931 . S
C276 N273 1.313 . S
C276 N277 1.333 1_565 S
C276 H280 0.930 . S
N277 C274 1.385 . S
N277 C276 1.333 1_545 S
O278 Co270 2.055 . S
O278 C282 1.253 . S
H279 C275 0.931 . S
H280 C276 0.930 . S
O281 Co270 2.039 . S
O281 C271 1.265 . S
C282 O278 1.253 . S
C282 O283 1.227 . S
O283 C282 1.227 . S
N284 Co270 2.140 . S
N284 C287 1.346 1_565 S
N284 C288 1.345 1_565 S
C285 C286 1.387 . S
C285 C289 1.391 . S
C286 C285 1.387 . S
C286 C287 1.369 . S
C286 H295 0.929 . S
C287 N284 1.346 1_545 S
C287 C286 1.369 . S
C287 H290 0.928 1_545 S
C288 N284 1.345 1_545 S
C288 C289 1.371 . S
C288 H291 0.931 . S
C289 C285 1.391 . S
C289 C288 1.371 . S
C289 H296 0.930 . S
H290 C287 0.928 1_565 S
H291 C288 0.931 . S
H292 C268 0.930 . S
H293 C265 0.930 . S
H294 C274 0.930 . S
H295 C286 0.929 . S
H296 C289 0.930 . S
C297 C298 1.351 . S
C297 N300 1.368 . S
C297 H302 0.931 . S
C298 C297 1.351 . S
C298 N299 1.373 . S
C298 H326 0.930 . S
N299 C298 1.373 . S
N299 C301 1.340 . S
N300 C297 1.368 . S
N300 C301 1.321 . S
N300 Co303 2.135 . S
C301 N299 1.340 . S
C301 N300 1.321 . S
C301 H325 0.930 . S
H302 C297 0.931 . S
Co303 N300 2.135 . S
Co303 N306 2.121 . S
Co303 O311 2.055 . S
Co303 O314 2.039 . S
Co303 N317 2.140 . S
C304 O305 1.227 . S
C304 O314 1.265 . S
O305 C304 1.227 . S
N306 Co303 2.121 . S
N306 C308 1.375 1_655 S
N306 C309 1.313 . S
C307 C308 1.338 . S
C307 N310 1.385 . S
C307 H327 0.930 . S
C308 N306 1.375 1_455 S
C308 C307 1.338 . S
C308 H312 0.931 . S
C309 N306 1.313 . S
C309 N310 1.333 1_655 S
C309 H313 0.930 . S
N310 C307 1.385 . S
N310 C309 1.333 1_455 S
O311 Co303 2.055 . S
O311 C315 1.253 . S
H312 C308 0.931 . S
H313 C309 0.930 . S
O314 Co303 2.039 . S
O314 C304 1.265 . S
C315 O311 1.253 . S
C315 O316 1.227 . S
O316 C315 1.227 . S
N317 Co303 2.140 . S
N317 C320 1.346 1_655 S
N317 C321 1.345 1_655 S
C318 C319 1.387 . S
C318 C322 1.391 . S
C319 C318 1.387 . S
C319 C320 1.369 . S
C319 H328 0.929 . S
C320 N317 1.346 1_455 S
C320 C319 1.369 . S
C320 H323 0.928 1_455 S
C321 N317 1.345 1_455 S
C321 C322 1.371 . S
C321 H324 0.931 . S
C322 C318 1.391 . S
C322 C321 1.371 . S
C322 H329 0.930 . S
H323 C320 0.928 1_655 S
H324 C321 0.931 . S
H325 C301 0.930 . S
H326 C298 0.930 . S
H327 C307 0.930 . S
H328 C319 0.929 . S
H329 C322 0.930 . S
C330 C331 1.351 . S
C330 N333 1.368 . S
C330 H335 0.931 . S
C331 C330 1.351 . S
C331 N332 1.373 . S
C331 H359 0.930 . S
N332 C331 1.373 . S
N332 C334 1.340 . S
N333 C330 1.368 . S
N333 C334 1.321 . S
N333 Co336 2.135 . S
C334 N332 1.340 . S
C334 N333 1.321 . S
C334 H358 0.930 . S
H335 C330 0.931 . S
Co336 N333 2.135 . S
Co336 N339 2.121 . S
Co336 O344 2.055 . S
Co336 O347 2.039 . S
Co336 N350 2.140 . S
C337 O338 1.227 . S
C337 O347 1.265 . S
O338 C337 1.227 . S
N339 Co336 2.121 . S
N339 C341 1.375 1_545 S
N339 C342 1.313 . S
C340 C341 1.338 . S
C340 N343 1.385 . S
C340 H360 0.930 . S
C341 N339 1.375 1_565 S
C341 C340 1.338 . S
C341 H345 0.931 . S
C342 N339 1.313 . S
C342 N343 1.333 1_545 S
C342 H346 0.930 . S
N343 C340 1.385 . S
N343 C342 1.333 1_565 S
O344 Co336 2.055 . S
O344 C348 1.253 . S
H345 C341 0.931 . S
H346 C342 0.930 . S
O347 Co336 2.039 . S
O347 C337 1.265 . S
C348 O344 1.253 . S
C348 O349 1.227 . S
O349 C348 1.227 . S
N350 Co336 2.140 . S
N350 C353 1.346 1_545 S
N350 C354 1.345 1_545 S
C351 C352 1.387 . S
C351 C355 1.391 . S
C352 C351 1.387 . S
C352 C353 1.369 . S
C352 H361 0.929 . S
C353 N350 1.346 1_565 S
C353 C352 1.369 . S
C353 H356 0.928 1_565 S
C354 N350 1.345 1_565 S
C354 C355 1.371 . S
C354 H357 0.931 . S
C355 C351 1.391 . S
C355 C354 1.371 . S
C355 H362 0.930 . S
H356 C353 0.928 1_545 S
H357 C354 0.931 . S
H358 C334 0.930 . S
H359 C331 0.930 . S
H360 C340 0.930 . S
H361 C352 0.929 . S
H362 C355 0.930 . S
C363 C364 1.351 . S
C363 N366 1.368 . S
C363 H368 0.931 . S
C364 C363 1.351 . S
C364 N365 1.373 . S
C364 H392 0.930 . S
N365 C364 1.373 . S
N365 C367 1.340 . S
N366 C363 1.368 . S
N366 C367 1.321 . S
N366 Co369 2.135 . S
C367 N365 1.340 . S
C367 N366 1.321 . S
C367 H391 0.930 . S
H368 C363 0.931 . S
Co369 N366 2.135 . S
Co369 N372 2.121 . S
Co369 O377 2.055 . S
Co369 O380 2.039 . S
Co369 N383 2.140 . S
C370 O371 1.227 . S
C370 O380 1.265 . S
O371 C370 1.227 . S
N372 Co369 2.121 . S
N372 C374 1.375 1_455 S
N372 C375 1.313 . S
C373 C374 1.338 . S
C373 N376 1.385 . S
C373 H393 0.930 . S
C374 N372 1.375 1_655 S
C374 C373 1.338 . S
C374 H378 0.931 . S
C375 N372 1.313 . S
C375 N376 1.333 1_455 S
C375 H379 0.930 . S
N376 C373 1.385 . S
N376 C375 1.333 1_655 S
O377 Co369 2.055 . S
O377 C381 1.253 . S
H378 C374 0.931 . S
H379 C375 0.930 . S
O380 Co369 2.039 . S
O380 C370 1.265 . S
C381 O377 1.253 . S
C381 O382 1.227 . S
O382 C381 1.227 . S
N383 Co369 2.140 . S
N383 C386 1.346 1_455 S
N383 C387 1.345 1_455 S
C384 C385 1.387 . S
C384 C388 1.391 . S
C385 C384 1.387 . S
C385 C386 1.369 . S
C385 H394 0.929 . S
C386 N383 1.346 1_655 S
C386 C385 1.369 . S
C386 H389 0.928 1_655 S
C387 N383 1.345 1_655 S
C387 C388 1.371 . S
C387 H390 0.931 . S
C388 C384 1.391 . S
C388 C387 1.371 . S
C388 H395 0.930 . S
H389 C386 0.928 1_455 S
H390 C387 0.931 . S
H391 C367 0.930 . S
H392 C364 0.930 . S
H393 C373 0.930 . S
H394 C385 0.929 . S
H395 C388 0.930 . S
C396 C397 1.351 . S
C396 N399 1.368 . S
C396 H401 0.931 . S
C397 C396 1.351 . S
C397 N398 1.373 . S
C397 H425 0.930 . S
N398 C397 1.373 . S
N398 C400 1.340 . S
N399 C396 1.368 . S
N399 C400 1.321 . S
N399 Co402 2.135 . S
C400 N398 1.340 . S
C400 N399 1.321 . S
C400 H424 0.930 . S
H401 C396 0.931 . S
Co402 N399 2.135 . S
Co402 N405 2.121 . S
Co402 O410 2.055 . S
Co402 O413 2.039 . S
Co402 N416 2.140 . S
C403 O404 1.227 . S
C403 O413 1.265 . S
O404 C403 1.227 . S
N405 Co402 2.121 . S
N405 C407 1.375 1_545 S
N405 C408 1.313 . S
C406 C407 1.338 . S
C406 N409 1.385 . S
C406 H426 0.930 . S
C407 N405 1.375 1_565 S
C407 C406 1.338 . S
C407 H411 0.931 . S
C408 N405 1.313 . S
C408 N409 1.333 1_545 S
C408 H412 0.930 . S
N409 C406 1.385 . S
N409 C408 1.333 1_565 S
O410 Co402 2.055 . S
O410 C414 1.253 . S
H411 C407 0.931 . S
H412 C408 0.930 . S
O413 Co402 2.039 . S
O413 C403 1.265 . S
C414 O410 1.253 . S
C414 O415 1.227 . S
O415 C414 1.227 . S
N416 Co402 2.140 . S
N416 C419 1.346 1_545 S
N416 C420 1.345 1_545 S
C417 C418 1.387 . S
C417 C421 1.391 . S
C418 C417 1.387 . S
C418 C419 1.369 . S
C418 H427 0.929 . S
C419 N416 1.346 1_565 S
C419 C418 1.369 . S
C419 H422 0.928 1_565 S
C420 N416 1.345 1_565 S
C420 C421 1.371 . S
C420 H423 0.931 . S
C421 C417 1.391 . S
C421 C420 1.371 . S
C421 H428 0.930 . S
H422 C419 0.928 1_545 S
H423 C420 0.931 . S
H424 C400 0.930 . S
H425 C397 0.930 . S
H426 C406 0.930 . S
H427 C418 0.929 . S
H428 C421 0.930 . S
C429 C430 1.351 . S
C429 N432 1.368 . S
C429 H434 0.931 . S
C430 C429 1.351 . S
C430 N431 1.373 . S
C430 H458 0.930 . S
N431 C430 1.373 . S
N431 C433 1.340 . S
N432 C429 1.368 . S
N432 C433 1.321 . S
N432 Co435 2.135 . S
C433 N431 1.340 . S
C433 N432 1.321 . S
C433 H457 0.930 . S
H434 C429 0.931 . S
Co435 N432 2.135 . S
Co435 N438 2.121 . S
Co435 O443 2.055 . S
Co435 O446 2.039 . S
Co435 N449 2.140 . S
C436 O437 1.227 . S
C436 O446 1.265 . S
O437 C436 1.227 . S
N438 Co435 2.121 . S
N438 C440 1.375 1_455 S
N438 C441 1.313 . S
C439 C440 1.338 . S
C439 N442 1.385 . S
C439 H459 0.930 . S
C440 N438 1.375 1_655 S
C440 C439 1.338 . S
C440 H444 0.931 . S
C441 N438 1.313 . S
C441 N442 1.333 1_455 S
C441 H445 0.930 . S
N442 C439 1.385 . S
N442 C441 1.333 1_655 S
O443 Co435 2.055 . S
O443 C447 1.253 . S
H444 C440 0.931 . S
H445 C441 0.930 . S
O446 Co435 2.039 . S
O446 C436 1.265 . S
C447 O443 1.253 . S
C447 O448 1.227 . S
O448 C447 1.227 . S
N449 Co435 2.140 . S
N449 C452 1.346 1_455 S
N449 C453 1.345 1_455 S
C450 C451 1.387 . S
C450 C454 1.391 . S
C451 C450 1.387 . S
C451 C452 1.369 . S
C451 H460 0.929 . S
C452 N449 1.346 1_655 S
C452 C451 1.369 . S
C452 H455 0.928 1_655 S
C453 N449 1.345 1_655 S
C453 C454 1.371 . S
C453 H456 0.931 . S
C454 C450 1.391 . S
C454 C453 1.371 . S
C454 H461 0.930 . S
H455 C452 0.928 1_455 S
H456 C453 0.931 . S
H457 C433 0.930 . S
H458 C430 0.930 . S
H459 C439 0.930 . S
H460 C451 0.929 . S
H461 C454 0.930 . S
C462 C463 1.351 . S
C462 N465 1.368 . S
C462 H467 0.931 . S
C463 C462 1.351 . S
C463 N464 1.373 . S
C463 H491 0.930 . S
N464 C463 1.373 . S
N464 C466 1.340 . S
N465 C462 1.368 . S
N465 C466 1.321 . S
N465 Co468 2.135 . S
C466 N464 1.340 . S
C466 N465 1.321 . S
C466 H490 0.930 . S
H467 C462 0.931 . S
Co468 N465 2.135 . S
Co468 N471 2.121 . S
Co468 O476 2.055 . S
Co468 O479 2.039 . S
Co468 N482 2.140 . S
C469 O470 1.227 . S
C469 O479 1.265 . S
O470 C469 1.227 . S
N471 Co468 2.121 . S
N471 C473 1.375 1_565 S
N471 C474 1.313 . S
C472 C473 1.338 . S
C472 N475 1.385 . S
C472 H492 0.930 . S
C473 N471 1.375 1_545 S
C473 C472 1.338 . S
C473 H477 0.931 . S
C474 N471 1.313 . S
C474 N475 1.333 1_565 S
C474 H478 0.930 . S
N475 C472 1.385 . S
N475 C474 1.333 1_545 S
O476 Co468 2.055 . S
O476 C480 1.253 . S
H477 C473 0.931 . S
H478 C474 0.930 . S
O479 Co468 2.039 . S
O479 C469 1.265 . S
C480 O476 1.253 . S
C480 O481 1.227 . S
O481 C480 1.227 . S
N482 Co468 2.140 . S
N482 C485 1.346 1_565 S
N482 C486 1.345 1_565 S
C483 C484 1.387 . S
C483 C487 1.391 . S
C484 C483 1.387 . S
C484 C485 1.369 . S
C484 H493 0.929 . S
C485 N482 1.346 1_545 S
C485 C484 1.369 . S
C485 H488 0.928 1_545 S
C486 N482 1.345 1_545 S
C486 C487 1.371 . S
C486 H489 0.931 . S
C487 C483 1.391 . S
C487 C486 1.371 . S
C487 H494 0.930 . S
H488 C485 0.928 1_565 S
H489 C486 0.931 . S
H490 C466 0.930 . S
H491 C463 0.930 . S
H492 C472 0.930 . S
H493 C484 0.929 . S
H494 C487 0.930 . S
C495 C496 1.351 . S
C495 N498 1.368 . S
C495 H500 0.931 . S
C496 C495 1.351 . S
C496 N497 1.373 . S
C496 H524 0.930 . S
N497 C496 1.373 . S
N497 C499 1.340 . S
N498 C495 1.368 . S
N498 C499 1.321 . S
N498 Co501 2.135 . S
C499 N497 1.340 . S
C499 N498 1.321 . S
C499 H523 0.930 . S
H500 C495 0.931 . S
Co501 N498 2.135 . S
Co501 N504 2.121 . S
Co501 O509 2.055 . S
Co501 O512 2.039 . S
Co501 N515 2.140 . S
C502 O503 1.227 . S
C502 O512 1.265 . S
O503 C502 1.227 . S
N504 Co501 2.121 . S
N504 C506 1.375 1_655 S
N504 C507 1.313 . S
C505 C506 1.338 . S
C505 N508 1.385 . S
C505 H525 0.930 . S
C506 N504 1.375 1_455 S
C506 C505 1.338 . S
C506 H510 0.931 . S
C507 N504 1.313 . S
C507 N508 1.333 1_655 S
C507 H511 0.930 . S
N508 C505 1.385 . S
N508 C507 1.333 1_455 S
O509 Co501 2.055 . S
O509 C513 1.253 . S
H510 C506 0.931 . S
H511 C507 0.930 . S
O512 Co501 2.039 . S
O512 C502 1.265 . S
C513 O509 1.253 . S
C513 O514 1.227 . S
O514 C513 1.227 . S
N515 Co501 2.140 . S
N515 C518 1.346 1_655 S
N515 C519 1.345 1_655 S
C516 C517 1.387 . S
C516 C520 1.391 . S
C517 C516 1.387 . S
C517 C518 1.369 . S
C517 H526 0.929 . S
C518 N515 1.346 1_455 S
C518 C517 1.369 . S
C518 H521 0.928 1_455 S
C519 N515 1.345 1_455 S
C519 C520 1.371 . S
C519 H522 0.931 . S
C520 C516 1.391 . S
C520 C519 1.371 . S
C520 H527 0.930 . S
H521 C518 0.928 1_655 S
H522 C519 0.931 . S
H523 C499 0.930 . S
H524 C496 0.930 . S
H525 C505 0.930 . S
H526 C517 0.929 . S
H527 C520 0.930 . S
H528 C534 0.930 . S
H529 C538 0.930 . S
H530 C543 0.929 . S
H531 C541 0.929 . S
H532 C536 0.929 . S
H533 C542 0.929 . S
C534 H528 0.930 . S
C534 C535 1.367 . S
C534 C542 1.378 . S
C535 C534 1.367 . S
C535 C543 1.433 . S
C536 H532 0.929 . S
C536 C538 1.378 . S
C536 C540 1.350 . S
C537 C540 1.463 1_655 S
C537 C542 1.350 . S
C537 N545 1.427 . S
C538 H529 0.930 . S
C538 C536 1.378 . S
C538 C539 1.367 . S
C539 C538 1.367 . S
C539 C541 1.433 . S
C540 C536 1.350 . S
C540 C537 1.463 1_455 S
C540 N544 1.427 . S
C541 H531 0.929 . S
C541 C539 1.433 . S
C541 N544 1.384 . S
C542 H533 0.929 . S
C542 C534 1.378 . S
C542 C537 1.350 . S
C543 H530 0.929 . S
C543 C535 1.433 . S
C543 N545 1.384 . S
N544 C540 1.427 . S
N544 C541 1.384 . S
N545 C537 1.427 . S
N545 C543 1.384 . S
H546 C552 0.930 . S
H547 C556 0.930 . S
H548 C561 0.929 . S
H549 C559 0.929 . S
H550 C554 0.929 . S
H551 C560 0.929 . S
C552 H546 0.930 . S
C552 C553 1.367 . S
C552 C560 1.378 . S
C553 C552 1.367 . S
C553 C561 1.433 . S
C554 H550 0.929 . S
C554 C556 1.378 . S
C554 C558 1.350 . S
C555 C558 1.463 1_545 S
C555 C560 1.350 . S
C555 N563 1.427 . S
C556 H547 0.930 . S
C556 C554 1.378 . S
C556 C557 1.367 . S
C557 C556 1.367 . S
C557 C559 1.433 . S
C558 C554 1.350 . S
C558 C555 1.463 1_565 S
C558 N562 1.427 . S
C559 H549 0.929 . S
C559 C557 1.433 . S
C559 N562 1.384 . S
C560 H551 0.929 . S
C560 C552 1.378 . S
C560 C555 1.350 . S
C561 H548 0.929 . S
C561 C553 1.433 . S
C561 N563 1.384 . S
N562 C558 1.427 . S
N562 C559 1.384 . S
N563 C555 1.427 . S
N563 C561 1.384 . S
H564 C570 0.930 . S
H565 C574 0.930 . S
H566 C579 0.929 . S
H567 C577 0.929 . S
H568 C572 0.929 . S
H569 C578 0.929 . S
C570 H564 0.930 . S
C570 C571 1.367 . S
C570 C578 1.378 . S
C571 C570 1.367 . S
C571 C579 1.433 . S
C572 H568 0.929 . S
C572 C574 1.378 . S
C572 C576 1.350 . S
C573 C576 1.463 1_655 S
C573 C578 1.350 . S
C573 N581 1.427 . S
C574 H565 0.930 . S
C574 C572 1.378 . S
C574 C575 1.367 . S
C575 C574 1.367 . S
C575 C577 1.433 . S
C576 C572 1.350 . S
C576 C573 1.463 1_455 S
C576 N580 1.427 . S
C577 H567 0.929 . S
C577 C575 1.433 . S
C577 N580 1.384 . S
C578 H569 0.929 . S
C578 C570 1.378 . S
C578 C573 1.350 . S
C579 H566 0.929 . S
C579 C571 1.433 . S
C579 N581 1.384 . S
N580 C576 1.427 . S
N580 C577 1.384 . S
N581 C573 1.427 . S
N581 C579 1.384 . S
H582 C588 0.930 . S
H583 C592 0.930 . S
H584 C597 0.929 . S
H585 C595 0.929 . S
H586 C590 0.929 . S
H587 C596 0.929 . S
C588 H582 0.930 . S
C588 C589 1.367 . S
C588 C596 1.378 . S
C589 C588 1.367 . S
C589 C597 1.433 . S
C590 H586 0.929 . S
C590 C592 1.378 . S
C590 C594 1.350 . S
C591 C594 1.463 1_565 S
C591 C596 1.350 . S
C591 N599 1.427 . S
C592 H583 0.930 . S
C592 C590 1.378 . S
C592 C593 1.367 . S
C593 C592 1.367 . S
C593 C595 1.433 . S
C594 C590 1.350 . S
C594 C591 1.463 1_545 S
C594 N598 1.427 . S
C595 H585 0.929 . S
C595 C593 1.433 . S
C595 N598 1.384 . S
C596 H587 0.929 . S
C596 C588 1.378 . S
C596 C591 1.350 . S
C597 H584 0.929 . S
C597 C589 1.433 . S
C597 N599 1.384 . S
N598 C594 1.427 . S
N598 C595 1.384 . S
N599 C591 1.427 . S
N599 C597 1.384 . S
H600 C606 0.930 . S
H601 C610 0.930 . S
H602 C615 0.929 . S
H603 C613 0.929 . S
H604 C608 0.929 . S
H605 C614 0.929 . S
C606 H600 0.930 . S
C606 C607 1.367 . S
C606 C614 1.378 . S
C607 C606 1.367 . S
C607 C615 1.433 . S
C608 H604 0.929 . S
C608 C610 1.378 . S
C608 C612 1.350 . S
C609 C612 1.463 1_565 S
C609 C614 1.350 . S
C609 N617 1.427 1_565 S
C610 H601 0.930 . S
C610 C608 1.378 . S
C610 C611 1.367 . S
C611 C610 1.367 . S
C611 C613 1.433 . S
C612 C608 1.350 . S
C612 C609 1.463 1_545 S
C612 N616 1.427 1_545 S
C613 H603 0.929 . S
C613 C611 1.433 . S
C613 N616 1.384 1_545 S
C614 H605 0.929 . S
C614 C606 1.378 . S
C614 C609 1.350 . S
C615 H602 0.929 . S
C615 C607 1.433 . S
C615 N617 1.384 1_565 S
N616 C612 1.427 1_565 S
N616 C613 1.384 1_565 S
N617 C609 1.427 1_545 S
N617 C615 1.384 1_545 S
H618 C624 0.930 1_455 S
H619 C628 0.930 1_655 S
H620 C633 0.929 . S
H621 C631 0.929 . S
H622 C626 0.929 . S
H623 C632 0.929 . S
C624 H618 0.930 1_655 S
C624 C625 1.367 . S
C624 C632 1.378 1_655 S
C625 C624 1.367 . S
C625 C633 1.433 . S
C626 H622 0.929 . S
C626 C628 1.378 1_655 S
C626 C630 1.350 1_655 S
C627 C630 1.463 1_655 S
C627 C632 1.350 1_655 S
C627 N635 1.427 . S
C628 H619 0.930 1_455 S
C628 C626 1.378 1_455 S
C628 C629 1.367 . S
C629 C628 1.367 . S
C629 C631 1.433 . S
C630 C626 1.350 1_455 S
C630 C627 1.463 1_455 S
C630 N634 1.427 . S
C631 H621 0.929 . S
C631 C629 1.433 . S
C631 N634 1.384 . S
C632 H623 0.929 . S
C632 C624 1.378 1_455 S
C632 C627 1.350 1_455 S
C633 H620 0.929 . S
C633 C625 1.433 . S
C633 N635 1.384 . S
N634 C630 1.427 . S
N634 C631 1.384 . S
N635 C627 1.427 . S
N635 C633 1.384 . S
H636 C642 0.930 . S
H637 C646 0.930 . S
H638 C651 0.929 . S
H639 C649 0.929 . S
H640 C644 0.929 . S
H641 C650 0.929 . S
C642 H636 0.930 . S
C642 C643 1.367 . S
C642 C650 1.378 1_565 S
C643 C642 1.367 . S
C643 C651 1.433 . S
C644 H640 0.929 . S
C644 C646 1.378 1_565 S
C644 C648 1.350 1_565 S
C645 C648 1.463 1_565 S
C645 C650 1.350 1_565 S
C645 N653 1.427 . S
C646 H637 0.930 . S
C646 C644 1.378 1_545 S
C646 C647 1.367 . S
C647 C646 1.367 . S
C647 C649 1.433 . S
C648 C644 1.350 1_545 S
C648 C645 1.463 1_545 S
C648 N652 1.427 . S
C649 H639 0.929 . S
C649 C647 1.433 . S
C649 N652 1.384 . S
C650 H641 0.929 . S
C650 C642 1.378 1_545 S
C650 C645 1.350 1_545 S
C651 H638 0.929 . S
C651 C643 1.433 . S
C651 N653 1.384 . S
N652 C648 1.427 . S
N652 C649 1.384 . S
N653 C645 1.427 . S
N653 C651 1.384 . S
H654 C660 0.932 . S
H655 C664 0.932 . S
H656 C669 0.929 . S
H657 C667 0.929 . S
H658 C662 0.929 . S
H659 C668 0.929 . S
C660 H654 0.932 . S
C660 C661 1.367 . S
C660 C668 1.378 1_655 S
C661 C660 1.367 . S
C661 C669 1.433 . S
C662 H658 0.929 . S
C662 C664 1.378 1_655 S
C662 C666 1.350 1_655 S
C663 C666 1.463 1_655 S
C663 C668 1.350 1_655 S
C663 N671 1.427 . S
C664 H655 0.932 . S
C664 C662 1.378 1_455 S
C664 C665 1.367 . S
C665 C664 1.367 . S
C665 C667 1.433 . S
C666 C662 1.350 1_455 S
C666 C663 1.463 1_455 S
C666 N670 1.427 . S
C667 H657 0.929 . S
C667 C665 1.433 . S
C667 N670 1.384 . S
C668 H659 0.929 . S
C668 C660 1.378 1_455 S
C668 C663 1.350 1_455 S
C669 H656 0.929 . S
C669 C661 1.433 . S
C669 N671 1.384 . S
N670 C666 1.427 . S
N670 C667 1.384 . S
N671 C663 1.427 . S
N671 C669 1.384 . S
H672 C678 0.930 . S
H673 C682 0.930 . S
H674 C687 0.929 . S
H675 C685 0.929 . S
H676 C680 0.929 . S
H677 C686 0.929 . S
C678 H672 0.930 . S
C678 C679 1.367 . S
C678 C686 1.378 . S
C679 C678 1.367 . S
C679 C687 1.433 . S
C680 H676 0.929 . S
C680 C682 1.378 . S
C680 C684 1.350 . S
C681 C684 1.463 . S
C681 C686 1.350 . S
C681 N689 1.427 . S
C682 H673 0.930 . S
C682 C680 1.378 . S
C682 C683 1.367 . S
C683 C682 1.367 . S
C683 C685 1.433 . S
C684 C680 1.350 . S
C684 C681 1.463 . S
C684 N688 1.427 . S
C685 H675 0.929 . S
C685 C683 1.433 . S
C685 N688 1.384 . S
C686 H677 0.929 . S
C686 C678 1.378 . S
C686 C681 1.350 . S
C687 H674 0.929 . S
C687 C679 1.433 . S
C687 N689 1.384 . S
N688 C684 1.427 . S
N688 C685 1.384 . S
N689 C681 1.427 . S
N689 C687 1.384 . S
H690 C696 0.930 . S
H691 C700 0.930 . S
H692 C705 0.929 . S
H693 C703 0.929 . S
H694 C698 0.929 . S
H695 C704 0.929 . S
C696 H690 0.930 . S
C696 C697 1.367 . S
C696 C704 1.378 . S
C697 C696 1.367 . S
C697 C705 1.433 . S
C698 H694 0.929 . S
C698 C700 1.378 . S
C698 C702 1.350 . S
C699 C702 1.463 . S
C699 C704 1.350 . S
C699 N707 1.427 . S
C700 H691 0.930 . S
C700 C698 1.378 . S
C700 C701 1.367 . S
C701 C700 1.367 . S
C701 C703 1.433 . S
C702 C698 1.350 . S
C702 C699 1.463 . S
C702 N706 1.427 . S
C703 H693 0.929 . S
C703 C701 1.433 . S
C703 N706 1.384 . S
C704 H695 0.929 . S
C704 C696 1.378 . S
C704 C699 1.350 . S
C705 H692 0.929 . S
C705 C697 1.433 . S
C705 N707 1.384 . S
N706 C702 1.427 . S
N706 C703 1.384 . S
N707 C699 1.427 . S
N707 C705 1.384 . S
H708 C714 0.930 . S
H709 C718 0.930 . S
H710 C723 0.929 . S
H711 C721 0.929 . S
H712 C716 0.929 . S
H713 C722 0.929 . S
C714 H708 0.930 . S
C714 C715 1.367 . S
C714 C722 1.378 . S
C715 C714 1.367 . S
C715 C723 1.433 . S
C716 H712 0.929 . S
C716 C718 1.378 . S
C716 C720 1.350 . S
C717 C720 1.463 . S
C717 C722 1.350 . S
C717 N725 1.427 . S
C718 H709 0.930 . S
C718 C716 1.378 . S
C718 C719 1.367 . S
C719 C718 1.367 . S
C719 C721 1.433 . S
C720 C716 1.350 . S
C720 C717 1.463 . S
C720 N724 1.427 . S
C721 H711 0.929 . S
C721 C719 1.433 . S
C721 N724 1.384 . S
C722 H713 0.929 . S
C722 C714 1.378 . S
C722 C717 1.350 . S
C723 H710 0.929 . S
C723 C715 1.433 . S
C723 N725 1.384 . S
N724 C720 1.427 . S
N724 C721 1.384 . S
N725 C717 1.427 . S
N725 C723 1.384 . S
H726 C732 0.930 . S
H727 C736 0.930 . S
H728 C741 0.929 . S
H729 C739 0.929 . S
H730 C734 0.929 . S
H731 C740 0.929 . S
C732 H726 0.930 . S
C732 C733 1.367 . S
C732 C740 1.378 . S
C733 C732 1.367 . S
C733 C741 1.433 . S
C734 H730 0.929 . S
C734 C736 1.378 . S
C734 C738 1.350 . S
C735 C738 1.463 . S
C735 C740 1.350 . S
C735 N743 1.427 . S
C736 H727 0.930 . S
C736 C734 1.378 . S
C736 C737 1.367 . S
C737 C736 1.367 . S
C737 C739 1.433 . S
C738 C734 1.350 . S
C738 C735 1.463 . S
C738 N742 1.427 . S
C739 H729 0.929 . S
C739 C737 1.433 . S
C739 N742 1.384 . S
C740 H731 0.929 . S
C740 C732 1.378 . S
C740 C735 1.350 . S
C741 H728 0.929 . S
C741 C733 1.433 . S
C741 N743 1.384 . S
N742 C738 1.427 . S
N742 C739 1.384 . S
N743 C735 1.427 . S
N743 C741 1.384 . S
H744 C750 0.930 . S
H745 C754 0.930 . S
H746 C759 0.929 . S
H747 C757 0.929 . S
H748 C752 0.929 . S
H749 C758 0.929 . S
C750 H744 0.930 . S
C750 C751 1.367 . S
C750 C758 1.378 . S
C751 C750 1.367 . S
C751 C759 1.433 . S
C752 H748 0.929 . S
C752 C754 1.378 . S
C752 C756 1.350 . S
C753 C756 1.463 . S
C753 C758 1.350 . S
C753 N761 1.427 . S
C754 H745 0.930 . S
C754 C752 1.378 . S
C754 C755 1.367 . S
C755 C754 1.367 . S
C755 C757 1.433 . S
C756 C752 1.350 . S
C756 C753 1.463 . S
C756 N760 1.427 . S
C757 H747 0.929 . S
C757 C755 1.433 . S
C757 N760 1.384 . S
C758 H749 0.929 . S
C758 C750 1.378 . S
C758 C753 1.350 . S
C759 H746 0.929 . S
C759 C751 1.433 . S
C759 N761 1.384 . S
N760 C756 1.427 . S
N760 C757 1.384 . S
N761 C753 1.427 . S
N761 C759 1.384 . S
H762 C768 0.930 . S
H763 C772 0.930 . S
H764 C777 0.929 . S
H765 C775 0.929 . S
H766 C770 0.929 . S
H767 C776 0.929 . S
C768 H762 0.930 . S
C768 C769 1.367 . S
C768 C776 1.378 . S
C769 C768 1.367 . S
C769 C777 1.433 . S
C770 H766 0.929 . S
C770 C772 1.378 . S
C770 C774 1.350 . S
C771 C774 1.463 . S
C771 C776 1.350 . S
C771 N779 1.427 . S
C772 H763 0.930 . S
C772 C770 1.378 . S
C772 C773 1.367 . S
C773 C772 1.367 . S
C773 C775 1.433 . S
C774 C770 1.350 . S
C774 C771 1.463 . S
C774 N778 1.427 . S
C775 H765 0.929 . S
C775 C773 1.433 . S
C775 N778 1.384 . S
C776 H767 0.929 . S
C776 C768 1.378 . S
C776 C771 1.350 . S
C777 H764 0.929 . S
C777 C769 1.433 . S
C777 N779 1.384 . S
N778 C774 1.427 . S
N778 C775 1.384 . S
N779 C771 1.427 . S
N779 C777 1.384 . S
H780 C786 0.930 . S
H781 C790 0.930 . S
H782 C795 0.929 . S
H783 C793 0.929 . S
H784 C788 0.929 . S
H785 C794 0.929 . S
C786 H780 0.930 . S
C786 C787 1.367 . S
C786 C794 1.378 . S
C787 C786 1.367 . S
C787 C795 1.433 . S
C788 H784 0.929 . S
C788 C790 1.378 . S
C788 C792 1.350 . S
C789 C792 1.463 . S
C789 C794 1.350 . S
C789 N797 1.427 . S
C790 H781 0.930 . S
C790 C788 1.378 . S
C790 C791 1.367 . S
C791 C790 1.367 . S
C791 C793 1.433 . S
C792 C788 1.350 . S
C792 C789 1.463 . S
C792 N796 1.427 . S
C793 H783 0.929 . S
C793 C791 1.433 . S
C793 N796 1.384 . S
C794 H785 0.929 . S
C794 C786 1.378 . S
C794 C789 1.350 . S
C795 H782 0.929 . S
C795 C787 1.433 . S
C795 N797 1.384 . S
N796 C792 1.427 . S
N796 C793 1.384 . S
N797 C789 1.427 . S
N797 C795 1.384 . S
H798 C804 0.930 . S
H799 C808 0.930 . S
H800 C813 0.929 . S
H801 C811 0.929 . S
H802 C806 0.929 . S
H803 C812 0.929 . S
C804 H798 0.930 . S
C804 C805 1.367 . S
C804 C812 1.378 . S
C805 C804 1.367 . S
C805 C813 1.433 . S
C806 H802 0.929 . S
C806 C808 1.378 . S
C806 C810 1.350 . S
C807 C810 1.463 . S
C807 C812 1.350 . S
C807 N815 1.427 . S
C808 H799 0.930 . S
C808 C806 1.378 . S
C808 C809 1.367 . S
C809 C808 1.367 . S
C809 C811 1.433 . S
C810 C806 1.350 . S
C810 C807 1.463 . S
C810 N814 1.427 . S
C811 H801 0.929 . S
C811 C809 1.433 . S
C811 N814 1.384 . S
C812 H803 0.929 . S
C812 C804 1.378 . S
C812 C807 1.350 . S
C813 H800 0.929 . S
C813 C805 1.433 . S
C813 N815 1.384 . S
N814 C810 1.427 . S
N814 C811 1.384 . S
N815 C807 1.427 . S
N815 C813 1.384 . S
H816 C822 0.930 . S
H817 C826 0.930 . S
H818 C831 0.929 . S
H819 C829 0.929 . S
H820 C824 0.929 . S
H821 C830 0.929 . S
C822 H816 0.930 . S
C822 C823 1.367 . S
C822 C830 1.378 . S
C823 C822 1.367 . S
C823 C831 1.433 . S
C824 H820 0.929 . S
C824 C826 1.378 . S
C824 C828 1.350 . S
C825 C828 1.463 . S
C825 C830 1.350 . S
C825 N833 1.427 . S
C826 H817 0.930 . S
C826 C824 1.378 . S
C826 C827 1.367 . S
C827 C826 1.367 . S
C827 C829 1.433 . S
C828 C824 1.350 . S
C828 C825 1.463 . S
C828 N832 1.427 . S
C829 H819 0.929 . S
C829 C827 1.433 . S
C829 N832 1.384 . S
C830 H821 0.929 . S
C830 C822 1.378 . S
C830 C825 1.350 . S
C831 H818 0.929 . S
C831 C823 1.433 . S
C831 N833 1.384 . S
N832 C828 1.427 . S
N832 C829 1.384 . S
N833 C825 1.427 . S
N833 C831 1.384 . S
H834 C840 0.930 . S
H835 C844 0.930 . S
H836 C849 0.929 . S
H837 C847 0.929 . S
H838 C842 0.929 . S
H839 C848 0.929 . S
C840 H834 0.930 . S
C840 C841 1.367 . S
C840 C848 1.378 . S
C841 C840 1.367 . S
C841 C849 1.433 . S
C842 H838 0.929 . S
C842 C844 1.378 . S
C842 C846 1.350 . S
C843 C846 1.463 . S
C843 C848 1.350 . S
C843 N851 1.427 . S
C844 H835 0.930 . S
C844 C842 1.378 . S
C844 C845 1.367 . S
C845 C844 1.367 . S
C845 C847 1.433 . S
C846 C842 1.350 . S
C846 C843 1.463 . S
C846 N850 1.427 . S
C847 H837 0.929 . S
C847 C845 1.433 . S
C847 N850 1.384 . S
C848 H839 0.929 . S
C848 C840 1.378 . S
C848 C843 1.350 . S
C849 H836 0.929 . S
C849 C841 1.433 . S
C849 N851 1.384 . S
N850 C846 1.427 . S
N850 C847 1.384 . S
N851 C843 1.427 . S
N851 C849 1.384 . S
H852 C858 0.930 . S
H853 C862 0.930 . S
H854 C867 0.929 . S
H855 C865 0.929 . S
H856 C860 0.929 . S
H857 C866 0.929 . S
C858 H852 0.930 . S
C858 C859 1.367 . S
C858 C866 1.378 . S
C859 C858 1.367 . S
C859 C867 1.433 . S
C860 H856 0.929 . S
C860 C862 1.378 . S
C860 C864 1.350 . S
C861 C864 1.463 . S
C861 C866 1.350 . S
C861 N869 1.427 . S
C862 H853 0.930 . S
C862 C860 1.378 . S
C862 C863 1.367 . S
C863 C862 1.367 . S
C863 C865 1.433 . S
C864 C860 1.350 . S
C864 C861 1.463 . S
C864 N868 1.427 . S
C865 H855 0.929 . S
C865 C863 1.433 . S
C865 N868 1.384 . S
C866 H857 0.929 . S
C866 C858 1.378 . S
C866 C861 1.350 . S
C867 H854 0.929 . S
C867 C859 1.433 . S
C867 N869 1.384 . S
N868 C864 1.427 . S
N868 C865 1.384 . S
N869 C861 1.427 . S
N869 C867 1.384 . S
H870 C876 0.930 . S
H871 C880 0.930 . S
H872 C885 0.929 . S
H873 C883 0.929 . S
H874 C878 0.929 . S
H875 C884 0.929 . S
C876 H870 0.930 . S
C876 C877 1.367 . S
C876 C884 1.378 . S
C877 C876 1.367 . S
C877 C885 1.433 . S
C878 H874 0.929 . S
C878 C880 1.378 . S
C878 C882 1.350 . S
C879 C882 1.463 . S
C879 C884 1.350 . S
C879 N887 1.427 . S
C880 H871 0.930 . S
C880 C878 1.378 . S
C880 C881 1.367 . S
C881 C880 1.367 . S
C881 C883 1.433 . S
C882 C878 1.350 . S
C882 C879 1.463 . S
C882 N886 1.427 . S
C883 H873 0.929 . S
C883 C881 1.433 . S
C883 N886 1.384 . S
C884 H875 0.929 . S
C884 C876 1.378 . S
C884 C879 1.350 . S
C885 H872 0.929 . S
C885 C877 1.433 . S
C885 N887 1.384 . S
N886 C882 1.427 . S
N886 C883 1.384 . S
N887 C879 1.427 . S
N887 C885 1.384 . S
H888 C894 0.930 . S
H889 C898 0.930 . S
H890 C903 0.929 . S
H891 C901 0.929 . S
H892 C896 0.929 . S
H893 C902 0.929 . S
C894 H888 0.930 . S
C894 C895 1.367 . S
C894 C902 1.378 . S
C895 C894 1.367 . S
C895 C903 1.433 . S
C896 H892 0.929 . S
C896 C898 1.378 . S
C896 C900 1.350 . S
C897 C900 1.463 . S
C897 C902 1.350 . S
C897 N905 1.427 . S
C898 H889 0.930 . S
C898 C896 1.378 . S
C898 C899 1.367 . S
C899 C898 1.367 . S
C899 C901 1.433 . S
C900 C896 1.350 . S
C900 C897 1.463 . S
C900 N904 1.427 . S
C901 H891 0.929 . S
C901 C899 1.433 . S
C901 N904 1.384 . S
C902 H893 0.929 . S
C902 C894 1.378 . S
C902 C897 1.350 . S
C903 H890 0.929 . S
C903 C895 1.433 . S
C903 N905 1.384 . S
N904 C900 1.427 . S
N904 C901 1.384 . S
N905 C897 1.427 . S
N905 C903 1.384 . S
H906 C912 0.930 . S
H907 C916 0.930 . S
H908 C921 0.929 . S
H909 C919 0.929 . S
H910 C914 0.929 . S
H911 C920 0.929 . S
C912 H906 0.930 . S
C912 C913 1.367 . S
C912 C920 1.378 . S
C913 C912 1.367 . S
C913 C921 1.433 . S
C914 H910 0.929 . S
C914 C916 1.378 . S
C914 C918 1.350 . S
C915 C918 1.463 . S
C915 C920 1.350 . S
C915 N923 1.427 . S
C916 H907 0.930 . S
C916 C914 1.378 . S
C916 C917 1.367 . S
C917 C916 1.367 . S
C917 C919 1.433 . S
C918 C914 1.350 . S
C918 C915 1.463 . S
C918 N922 1.427 . S
C919 H909 0.929 . S
C919 C917 1.433 . S
C919 N922 1.384 . S
C920 H911 0.929 . S
C920 C912 1.378 . S
C920 C915 1.350 . S
C921 H908 0.929 . S
C921 C913 1.433 . S
C921 N923 1.384 . S
N922 C918 1.427 . S
N922 C919 1.384 . S
N923 C915 1.427 . S
N923 C921 1.384 . S
H924 C930 0.930 . S
H925 C934 0.930 . S
H926 C939 0.929 . S
H927 C937 0.929 . S
H928 C932 0.929 . S
H929 C938 0.929 . S
C930 H924 0.930 . S
C930 C931 1.367 . S
C930 C938 1.378 . S
C931 C930 1.367 . S
C931 C939 1.433 . S
C932 H928 0.929 . S
C932 C934 1.378 . S
C932 C936 1.350 . S
C933 C936 1.463 . S
C933 C938 1.350 . S
C933 N941 1.427 . S
C934 H925 0.930 . S
C934 C932 1.378 . S
C934 C935 1.367 . S
C935 C934 1.367 . S
C935 C937 1.433 . S
C936 C932 1.350 . S
C936 C933 1.463 . S
C936 N940 1.427 . S
C937 H927 0.929 . S
C937 C935 1.433 . S
C937 N940 1.384 . S
C938 H929 0.929 . S
C938 C930 1.378 . S
C938 C933 1.350 . S
C939 H926 0.929 . S
C939 C931 1.433 . S
C939 N941 1.384 . S
N940 C936 1.427 . S
N940 C937 1.384 . S
N941 C933 1.427 . S
N941 C939 1.384 . S
H942 C948 0.930 . S
H943 C952 0.930 . S
H944 C957 0.929 . S
H945 C955 0.929 . S
H946 C950 0.929 . S
H947 C956 0.929 . S
C948 H942 0.930 . S
C948 C949 1.367 . S
C948 C956 1.378 . S
C949 C948 1.367 . S
C949 C957 1.433 . S
C950 H946 0.929 . S
C950 C952 1.378 . S
C950 C954 1.350 . S
C951 C954 1.463 . S
C951 C956 1.350 . S
C951 N959 1.427 . S
C952 H943 0.930 . S
C952 C950 1.378 . S
C952 C953 1.367 . S
C953 C952 1.367 . S
C953 C955 1.433 . S
C954 C950 1.350 . S
C954 C951 1.463 . S
C954 N958 1.427 . S
C955 H945 0.929 . S
C955 C953 1.433 . S
C955 N958 1.384 . S
C956 H947 0.929 . S
C956 C948 1.378 . S
C956 C951 1.350 . S
C957 H944 0.929 . S
C957 C949 1.433 . S
C957 N959 1.384 . S
N958 C954 1.427 . S
N958 C955 1.384 . S
N959 C951 1.427 . S
N959 C957 1.384 . S
H960 C966 0.930 . S
H961 C970 0.930 . S
H962 C975 0.929 . S
H963 C973 0.929 . S
H964 C968 0.929 . S
H965 C974 0.929 . S
C966 H960 0.930 . S
C966 C967 1.367 . S
C966 C974 1.378 . S
C967 C966 1.367 . S
C967 C975 1.433 . S
C968 H964 0.929 . S
C968 C970 1.378 . S
C968 C972 1.350 . S
C969 C972 1.463 . S
C969 C974 1.350 . S
C969 N977 1.427 . S
C970 H961 0.930 . S
C970 C968 1.378 . S
C970 C971 1.367 . S
C971 C970 1.367 . S
C971 C973 1.433 . S
C972 C968 1.350 . S
C972 C969 1.463 . S
C972 N976 1.427 . S
C973 H963 0.929 . S
C973 C971 1.433 . S
C973 N976 1.384 . S
C974 H965 0.929 . S
C974 C966 1.378 . S
C974 C969 1.350 . S
C975 H962 0.929 . S
C975 C967 1.433 . S
C975 N977 1.384 . S
N976 C972 1.427 . S
N976 C973 1.384 . S
N977 C969 1.427 . S
N977 C975 1.384 . S
H978 C984 0.930 . S
H979 C988 0.930 . S
H980 C993 0.929 . S
H981 C991 0.929 . S
H982 C986 0.929 . S
H983 C992 0.929 . S
C984 H978 0.930 . S
C984 C985 1.367 . S
C984 C992 1.378 . S
C985 C984 1.367 . S
C985 C993 1.433 . S
C986 H982 0.929 . S
C986 C988 1.378 . S
C986 C990 1.350 . S
C987 C990 1.463 . S
C987 C992 1.350 . S
C987 N995 1.427 . S
C988 H979 0.930 . S
C988 C986 1.378 . S
C988 C989 1.367 . S
C989 C988 1.367 . S
C989 C991 1.433 . S
C990 C986 1.350 . S
C990 C987 1.463 . S
C990 N994 1.427 . S
C991 H981 0.929 . S
C991 C989 1.433 . S
C991 N994 1.384 . S
C992 H983 0.929 . S
C992 C984 1.378 . S
C992 C987 1.350 . S
C993 H980 0.929 . S
C993 C985 1.433 . S
C993 N995 1.384 . S
N994 C990 1.427 . S
N994 C991 1.384 . S
N995 C987 1.427 . S
N995 C993 1.384 . S
H996 C1002 0.930 . S
H997 C1006 0.930 . S
H998 C1011 0.929 . S
H999 C1009 0.929 . S
H1000 C1004 0.929 . S
H1001 C1010 0.929 . S
C1002 H996 0.930 . S
C1002 C1003 1.367 . S
C1002 C1010 1.378 . S
C1003 C1002 1.367 . S
C1003 C1011 1.433 . S
C1004 H1000 0.929 . S
C1004 C1006 1.378 . S
C1004 C1008 1.350 . S
C1005 C1008 1.463 . S
C1005 C1010 1.350 . S
C1005 N1013 1.427 . S
C1006 H997 0.930 . S
C1006 C1004 1.378 . S
C1006 C1007 1.367 . S
C1007 C1006 1.367 . S
C1007 C1009 1.433 . S
C1008 C1004 1.350 . S
C1008 C1005 1.463 . S
C1008 N1012 1.427 . S
C1009 H999 0.929 . S
C1009 C1007 1.433 . S
C1009 N1012 1.384 . S
C1010 H1001 0.929 . S
C1010 C1002 1.378 . S
C1010 C1005 1.350 . S
C1011 H998 0.929 . S
C1011 C1003 1.433 . S
C1011 N1013 1.384 . S
N1012 C1008 1.427 . S
N1012 C1009 1.384 . S
N1013 C1005 1.427 . S
N1013 C1011 1.384 . S
H1014 C1020 0.930 . S
H1015 C1024 0.930 . S
H1016 C1029 0.929 . S
H1017 C1027 0.929 . S
H1018 C1022 0.929 . S
H1019 C1028 0.929 . S
C1020 H1014 0.930 . S
C1020 C1021 1.367 . S
C1020 C1028 1.378 . S
C1021 C1020 1.367 . S
C1021 C1029 1.433 . S
C1022 H1018 0.929 . S
C1022 C1024 1.378 . S
C1022 C1026 1.350 . S
C1023 C1026 1.463 . S
C1023 C1028 1.350 . S
C1023 N1031 1.427 . S
C1024 H1015 0.930 . S
C1024 C1022 1.378 . S
C1024 C1025 1.367 . S
C1025 C1024 1.367 . S
C1025 C1027 1.433 . S
C1026 C1022 1.350 . S
C1026 C1023 1.463 . S
C1026 N1030 1.427 . S
C1027 H1017 0.929 . S
C1027 C1025 1.433 . S
C1027 N1030 1.384 . S
C1028 H1019 0.929 . S
C1028 C1020 1.378 . S
C1028 C1023 1.350 . S
C1029 H1016 0.929 . S
C1029 C1021 1.433 . S
C1029 N1031 1.384 . S
N1030 C1026 1.427 . S
N1030 C1027 1.384 . S
N1031 C1023 1.427 . S
N1031 C1029 1.384 . S
H1032 C1038 0.930 . S
H1033 C1042 0.930 . S
H1034 C1047 0.929 . S
H1035 C1045 0.929 . S
H1036 C1040 0.929 . S
H1037 C1046 0.929 . S
C1038 H1032 0.930 . S
C1038 C1039 1.367 . S
C1038 C1046 1.378 . S
C1039 C1038 1.367 . S
C1039 C1047 1.433 . S
C1040 H1036 0.929 . S
C1040 C1042 1.378 . S
C1040 C1044 1.350 . S
C1041 C1044 1.463 . S
C1041 C1046 1.350 . S
C1041 N1049 1.427 . S
C1042 H1033 0.930 . S
C1042 C1040 1.378 . S
C1042 C1043 1.367 . S
C1043 C1042 1.367 . S
C1043 C1045 1.433 . S
C1044 C1040 1.350 . S
C1044 C1041 1.463 . S
C1044 N1048 1.427 . S
C1045 H1035 0.929 . S
C1045 C1043 1.433 . S
C1045 N1048 1.384 . S
C1046 H1037 0.929 . S
C1046 C1038 1.378 . S
C1046 C1041 1.350 . S
C1047 H1034 0.929 . S
C1047 C1039 1.433 . S
C1047 N1049 1.384 . S
N1048 C1044 1.427 . S
N1048 C1045 1.384 . S
N1049 C1041 1.427 . S
N1049 C1047 1.384 . S
H1050 C1056 0.930 . S
H1051 C1060 0.930 . S
H1052 C1065 0.929 . S
H1053 C1063 0.929 . S
H1054 C1058 0.929 . S
H1055 C1064 0.929 . S
C1056 H1050 0.930 . S
C1056 C1057 1.367 . S
C1056 C1064 1.378 . S
C1057 C1056 1.367 . S
C1057 C1065 1.433 . S
C1058 H1054 0.929 . S
C1058 C1060 1.378 . S
C1058 C1062 1.350 . S
C1059 C1062 1.463 . S
C1059 C1064 1.350 . S
C1059 N1067 1.427 . S
C1060 H1051 0.930 . S
C1060 C1058 1.378 . S
C1060 C1061 1.367 . S
C1061 C1060 1.367 . S
C1061 C1063 1.433 . S
C1062 C1058 1.350 . S
C1062 C1059 1.463 . S
C1062 N1066 1.427 . S
C1063 H1053 0.929 . S
C1063 C1061 1.433 . S
C1063 N1066 1.384 . S
C1064 H1055 0.929 . S
C1064 C1056 1.378 . S
C1064 C1059 1.350 . S
C1065 H1052 0.929 . S
C1065 C1057 1.433 . S
C1065 N1067 1.384 . S
N1066 C1062 1.427 . S
N1066 C1063 1.384 . S
N1067 C1059 1.427 . S
N1067 C1065 1.384 . S
H1068 C1074 0.930 . S
H1069 C1078 0.930 . S
H1070 C1083 0.929 . S
H1071 C1081 0.929 . S
H1072 C1076 0.929 . S
H1073 C1082 0.929 . S
C1074 H1068 0.930 . S
C1074 C1075 1.367 . S
C1074 C1082 1.378 . S
C1075 C1074 1.367 . S
C1075 C1083 1.433 . S
C1076 H1072 0.929 . S
C1076 C1078 1.378 . S
C1076 C1080 1.350 . S
C1077 C1080 1.463 . S
C1077 C1082 1.350 . S
C1077 N1085 1.427 . S
C1078 H1069 0.930 . S
C1078 C1076 1.378 . S
C1078 C1079 1.367 . S
C1079 C1078 1.367 . S
C1079 C1081 1.433 . S
C1080 C1076 1.350 . S
C1080 C1077 1.463 . S
C1080 N1084 1.427 . S
C1081 H1071 0.929 . S
C1081 C1079 1.433 . S
C1081 N1084 1.384 . S
C1082 H1073 0.929 . S
C1082 C1074 1.378 . S
C1082 C1077 1.350 . S
C1083 H1070 0.929 . S
C1083 C1075 1.433 . S
C1083 N1085 1.384 . S
N1084 C1080 1.427 . S
N1084 C1081 1.384 . S
N1085 C1077 1.427 . S
N1085 C1083 1.384 . S
H1086 C1092 0.930 . S
H1087 C1096 0.930 . S
H1088 C1101 0.929 . S
H1089 C1099 0.929 . S
H1090 C1094 0.929 . S
H1091 C1100 0.929 . S
C1092 H1086 0.930 . S
C1092 C1093 1.367 . S
C1092 C1100 1.378 . S
C1093 C1092 1.367 . S
C1093 C1101 1.433 . S
C1094 H1090 0.929 . S
C1094 C1096 1.378 . S
C1094 C1098 1.350 . S
C1095 C1098 1.463 . S
C1095 C1100 1.350 . S
C1095 N1103 1.427 . S
C1096 H1087 0.930 . S
C1096 C1094 1.378 . S
C1096 C1097 1.367 . S
C1097 C1096 1.367 . S
C1097 C1099 1.433 . S
C1098 C1094 1.350 . S
C1098 C1095 1.463 . S
C1098 N1102 1.427 . S
C1099 H1089 0.929 . S
C1099 C1097 1.433 . S
C1099 N1102 1.384 . S
C1100 H1091 0.929 . S
C1100 C1092 1.378 . S
C1100 C1095 1.350 . S
C1101 H1088 0.929 . S
C1101 C1093 1.433 . S
C1101 N1103 1.384 . S
N1102 C1098 1.427 . S
N1102 C1099 1.384 . S
N1103 C1095 1.427 . S
N1103 C1101 1.384 . S
H1104 C1110 0.930 . S
H1105 C1114 0.930 . S
H1106 C1119 0.929 . S
H1107 C1117 0.929 . S
H1108 C1112 0.929 . S
H1109 C1118 0.929 . S
C1110 H1104 0.930 . S
C1110 C1111 1.367 . S
C1110 C1118 1.378 . S
C1111 C1110 1.367 . S
C1111 C1119 1.433 . S
C1112 H1108 0.929 . S
C1112 C1114 1.378 . S
C1112 C1116 1.350 . S
C1113 C1116 1.463 . S
C1113 C1118 1.350 . S
C1113 N1121 1.427 . S
C1114 H1105 0.930 . S
C1114 C1112 1.378 . S
C1114 C1115 1.367 . S
C1115 C1114 1.367 . S
C1115 C1117 1.433 . S
C1116 C1112 1.350 . S
C1116 C1113 1.463 . S
C1116 N1120 1.427 . S
C1117 H1107 0.929 . S
C1117 C1115 1.433 . S
C1117 N1120 1.384 . S
C1118 H1109 0.929 . S
C1118 C1110 1.378 . S
C1118 C1113 1.350 . S
C1119 H1106 0.929 . S
C1119 C1111 1.433 . S
C1119 N1121 1.384 . S
N1120 C1116 1.427 . S
N1120 C1117 1.384 . S
N1121 C1113 1.427 . S
N1121 C1119 1.384 . S
H1122 C1128 0.930 . S
H1123 C1132 0.930 . S
H1124 C1137 0.929 . S
H1125 C1135 0.929 . S
H1126 C1130 0.929 . S
H1127 C1136 0.929 . S
C1128 H1122 0.930 . S
C1128 C1129 1.367 . S
C1128 C1136 1.378 . S
C1129 C1128 1.367 . S
C1129 C1137 1.433 . S
C1130 H1126 0.929 . S
C1130 C1132 1.378 . S
C1130 C1134 1.350 . S
C1131 C1134 1.463 . S
C1131 C1136 1.350 . S
C1131 N1139 1.427 . S
C1132 H1123 0.930 . S
C1132 C1130 1.378 . S
C1132 C1133 1.367 . S
C1133 C1132 1.367 . S
C1133 C1135 1.433 . S
C1134 C1130 1.350 . S
C1134 C1131 1.463 . S
C1134 N1138 1.427 . S
C1135 H1125 0.929 . S
C1135 C1133 1.433 . S
C1135 N1138 1.384 . S
C1136 H1127 0.929 . S
C1136 C1128 1.378 . S
C1136 C1131 1.350 . S
C1137 H1124 0.929 . S
C1137 C1129 1.433 . S
C1137 N1139 1.384 . S
N1138 C1134 1.427 . S
N1138 C1135 1.384 . S
N1139 C1131 1.427 . S
N1139 C1137 1.384 . S
H1140 C1146 0.930 . S
H1141 C1150 0.930 . S
H1142 C1155 0.929 . S
H1143 C1153 0.929 . S
H1144 C1148 0.929 . S
H1145 C1154 0.929 . S
C1146 H1140 0.930 . S
C1146 C1147 1.367 . S
C1146 C1154 1.378 . S
C1147 C1146 1.367 . S
C1147 C1155 1.433 . S
C1148 H1144 0.929 . S
C1148 C1150 1.378 . S
C1148 C1152 1.350 . S
C1149 C1152 1.463 . S
C1149 C1154 1.350 . S
C1149 N1157 1.427 . S
C1150 H1141 0.930 . S
C1150 C1148 1.378 . S
C1150 C1151 1.367 . S
C1151 C1150 1.367 . S
C1151 C1153 1.433 . S
C1152 C1148 1.350 . S
C1152 C1149 1.463 . S
C1152 N1156 1.427 . S
C1153 H1143 0.929 . S
C1153 C1151 1.433 . S
C1153 N1156 1.384 . S
C1154 H1145 0.929 . S
C1154 C1146 1.378 . S
C1154 C1149 1.350 . S
C1155 H1142 0.929 . S
C1155 C1147 1.433 . S
C1155 N1157 1.384 . S
N1156 C1152 1.427 . S
N1156 C1153 1.384 . S
N1157 C1149 1.427 . S
N1157 C1155 1.384 . S
H1158 C1164 0.930 . S
H1159 C1168 0.930 . S
H1160 C1173 0.929 . S
H1161 C1171 0.929 . S
H1162 C1166 0.929 . S
H1163 C1172 0.929 . S
C1164 H1158 0.930 . S
C1164 C1165 1.367 . S
C1164 C1172 1.378 . S
C1165 C1164 1.367 . S
C1165 C1173 1.433 . S
C1166 H1162 0.929 . S
C1166 C1168 1.378 . S
C1166 C1170 1.350 . S
C1167 C1170 1.463 . S
C1167 C1172 1.350 . S
C1167 N1175 1.427 . S
C1168 H1159 0.930 . S
C1168 C1166 1.378 . S
C1168 C1169 1.367 . S
C1169 C1168 1.367 . S
C1169 C1171 1.433 . S
C1170 C1166 1.350 . S
C1170 C1167 1.463 . S
C1170 N1174 1.427 . S
C1171 H1161 0.929 . S
C1171 C1169 1.433 . S
C1171 N1174 1.384 . S
C1172 H1163 0.929 . S
C1172 C1164 1.378 . S
C1172 C1167 1.350 . S
C1173 H1160 0.929 . S
C1173 C1165 1.433 . S
C1173 N1175 1.384 . S
N1174 C1170 1.427 . S
N1174 C1171 1.384 . S
N1175 C1167 1.427 . S
N1175 C1173 1.384 . S
H1176 C1182 0.930 . S
H1177 C1186 0.930 . S
H1178 C1191 0.929 . S
H1179 C1189 0.929 . S
H1180 C1184 0.929 . S
H1181 C1190 0.929 . S
C1182 H1176 0.930 . S
C1182 C1183 1.367 . S
C1182 C1190 1.378 . S
C1183 C1182 1.367 . S
C1183 C1191 1.433 1_545 S
C1184 H1180 0.929 . S
C1184 C1186 1.378 . S
C1184 C1188 1.350 . S
C1185 C1188 1.463 1_546 S
C1185 C1190 1.350 . S
C1185 N1193 1.427 1_545 S
C1186 H1177 0.930 . S
C1186 C1184 1.378 . S
C1186 C1187 1.367 . S
C1187 C1186 1.367 . S
C1187 C1189 1.433 1_565 S
C1188 C1184 1.350 . S
C1188 C1185 1.463 1_564 S
C1188 N1192 1.427 1_565 S
C1189 H1179 0.929 . S
C1189 C1187 1.433 1_545 S
C1189 N1192 1.384 . S
C1190 H1181 0.929 . S
C1190 C1182 1.378 . S
C1190 C1185 1.350 . S
C1191 H1178 0.929 . S
C1191 C1183 1.433 1_565 S
C1191 N1193 1.384 . S
N1192 C1188 1.427 1_545 S
N1192 C1189 1.384 . S
N1193 C1185 1.427 1_565 S
N1193 C1191 1.384 . S
H1194 C1200 0.930 . S
H1195 C1204 0.930 . S
H1196 C1209 0.929 . S
H1197 C1207 0.929 . S
H1198 C1202 0.929 . S
H1199 C1208 0.929 . S
C1200 H1194 0.930 . S
C1200 C1201 1.367 . S
C1200 C1208 1.378 . S
C1201 C1200 1.367 . S
C1201 C1209 1.433 1_655 S
C1202 H1198 0.929 . S
C1202 C1204 1.378 . S
C1202 C1206 1.350 . S
C1203 C1206 1.463 1_656 S
C1203 C1208 1.350 . S
C1203 N1211 1.427 1_655 S
C1204 H1195 0.930 . S
C1204 C1202 1.378 . S
C1204 C1205 1.367 . S
C1205 C1204 1.367 . S
C1205 C1207 1.433 1_455 S
C1206 C1202 1.350 . S
C1206 C1203 1.463 1_454 S
C1206 N1210 1.427 1_455 S
C1207 H1197 0.929 . S
C1207 C1205 1.433 1_655 S
C1207 N1210 1.384 . S
C1208 H1199 0.929 . S
C1208 C1200 1.378 . S
C1208 C1203 1.350 . S
C1209 H1196 0.929 . S
C1209 C1201 1.433 1_455 S
C1209 N1211 1.384 . S
N1210 C1206 1.427 1_655 S
N1210 C1207 1.384 . S
N1211 C1203 1.427 1_455 S
N1211 C1209 1.384 . S
H1212 C1218 0.930 . S
H1213 C1222 0.930 . S
H1214 C1227 0.929 . S
H1215 C1225 0.929 . S
H1216 C1220 0.929 . S
H1217 C1226 0.929 . S
C1218 H1212 0.930 . S
C1218 C1219 1.367 1_565 S
C1218 C1226 1.378 . S
C1219 C1218 1.367 1_545 S
C1219 C1227 1.433 . S
C1220 H1216 0.929 . S
C1220 C1222 1.378 . S
C1220 C1224 1.357 . S
C1221 C1224 1.462 1_564 S
C1221 C1226 1.357 . S
C1221 N1229 1.420 1_565 S
C1222 H1213 0.930 . S
C1222 C1220 1.378 . S
C1222 C1223 1.367 1_545 S
C1223 C1222 1.367 1_565 S
C1223 C1225 1.433 . S
C1224 C1220 1.357 . S
C1224 C1221 1.462 1_546 S
C1224 N1228 1.420 1_545 S
C1225 H1215 0.929 . S
C1225 C1223 1.433 . S
C1225 N1228 1.384 . S
C1226 H1217 0.929 . S
C1226 C1218 1.378 . S
C1226 C1221 1.357 . S
C1227 H1214 0.929 . S
C1227 C1219 1.433 . S
C1227 N1229 1.384 . S
N1228 C1224 1.420 1_565 S
N1228 C1225 1.384 . S
N1229 C1221 1.420 1_545 S
N1229 C1227 1.384 . S
H1230 C1236 0.930 . S
H1231 C1240 0.930 . S
H1232 C1245 0.929 . S
H1233 C1243 0.929 . S
H1234 C1238 0.929 . S
H1235 C1244 0.929 . S
C1236 H1230 0.930 . S
C1236 C1237 1.367 1_655 S
C1236 C1244 1.378 . S
C1237 C1236 1.367 1_455 S
C1237 C1245 1.433 . S
C1238 H1234 0.929 . S
C1238 C1240 1.378 . S
C1238 C1242 1.354 . S
C1239 C1242 1.462 1_656 S
C1239 C1244 1.354 . S
C1239 N1247 1.423 1_655 S
C1240 H1231 0.930 . S
C1240 C1238 1.378 . S
C1240 C1241 1.367 1_455 S
C1241 C1240 1.367 1_655 S
C1241 C1243 1.433 . S
C1242 C1238 1.354 . S
C1242 C1239 1.462 1_454 S
C1242 N1246 1.423 1_455 S
C1243 H1233 0.929 . S
C1243 C1241 1.433 . S
C1243 N1246 1.384 . S
C1244 H1235 0.929 . S
C1244 C1236 1.378 . S
C1244 C1239 1.354 . S
C1245 H1232 0.929 . S
C1245 C1237 1.433 . S
C1245 N1247 1.384 . S
N1246 C1242 1.423 1_655 S
N1246 C1243 1.384 . S
N1247 C1239 1.423 1_455 S
N1247 C1245 1.384 . S
C535 C73 1.105 . S
C539 C7 1.088 . S
C553 C106 1.086 . S
C557 C40 1.099 . S
C571 C205 1.088 . S
C575 C139 1.092 . S
C589 C172 1.110 . S
C593 C238 1.102 . S
C607 C271 1.099 . S
C611 C337 1.111 . S
C625 C304 1.088 . S
C629 C370 1.092 . S
C643 C469 1.086 . S
C647 C403 1.099 . S
C661 C502 1.086 . S
C665 C436 1.097 . S
C679 C18 1.234 . S
C683 C249 1.241 . S
C697 C150 1.239 . S
C701 C51 1.236 . S
C715 C183 1.240 . S
C719 C84 1.235 . S
C733 C216 1.234 . S
C737 C117 1.241 . S
C751 C513 1.239 . S
C755 C282 1.235 . S
C769 C414 1.235 . S
C773 C315 1.240 . S
C787 C447 1.234 . S
C791 C348 1.241 . S
C805 C480 1.239 . S
C809 C381 1.236 . S
C823 C21 0.827 . S
C827 N365 0.844 . S
C841 C54 0.823 . S
C845 N266 0.842 . S
C859 C87 0.784 . S
C863 N299 0.818 . S
C877 N332 0.829 . S
C881 C120 0.802 . S
C895 C153 0.810 . S
C899 N431 0.833 . S
C913 C186 0.783 . S
C917 N464 0.817 . S
C931 C219 0.815 . S
C935 N497 0.837 . S
C949 C252 0.825 . S
C953 N398 0.843 . S
C967 N101 0.828 . S
C971 C285 0.801 . S
C985 N2 0.838 . S
C989 C318 0.817 . S
C1003 N35 0.840 . S
C1007 C351 0.820 . S
C1021 C384 0.815 . S
C1025 N68 0.837 . S
C1039 C417 0.820 . S
C1043 N167 0.840 . S
C1057 C450 0.783 . S
C1061 N200 0.817 . S
C1075 C483 0.786 . S
C1079 N233 0.819 . S
C1093 C516 0.827 . S
C1097 N134 0.844 . S
C1111 N145 1.674 . S
C1115 N13 1.687 . S
C1129 N178 1.683 . S
C1133 N46 1.671 . S
C1147 N79 1.683 . S
C1151 N211 1.671 . S
C1165 N244 1.674 . S
C1169 N112 1.686 . S
C1183 N277 1.677 . S
C1187 N409 1.687 . S
C1201 N442 1.674 . S
C1205 N310 1.688 . S
C1219 N475 1.681 . S
C1223 N343 1.673 . S
C1237 N508 1.682 . S
C1241 N376 1.672 . S
