# Generated by pormake.
# Topology rob, (6)-cn, num edge types: 1
# Building blocks:
#     Node 0, Type 0, BuildingBlock: UKALOJ_clean_sbu_0, # of connection points: 6
#     Node 1, Type 0, BuildingBlock: UKALOJ_clean_sbu_0, # of connection points: 6
#     Node 2, Type 0, BuildingBlock: UKALOJ_clean_sbu_0, # of connection points: 6
#     Node 3, Type 0, BuildingBlock: UKALOJ_clean_sbu_0, # of connection points: 6
#     Edge 4, Type (0, 0), BuildingBlock: XUDNAN_clean_linker_2, # of connection points: 2
#     Edge 5, Type (0, 0), BuildingBlock: XUDNAN_clean_linker_2, # of connection points: 2
#     Edge 6, Type (0, 0), BuildingBlock: XUDNAN_clean_linker_2, # of connection points: 2
#     Edge 7, Type (0, 0), BuildingBlock: XUDNAN_clean_linker_2, # of connection points: 2
#     Edge 8, Type (0, 0), BuildingBlock: XUDNAN_clean_linker_2, # of connection points: 2
#     Edge 9, Type (0, 0), BuildingBlock: XUDNAN_clean_linker_2, # of connection points: 2
#     Edge 10, Type (0, 0), BuildingBlock: XUDNAN_clean_linker_2, # of connection points: 2
#     Edge 11, Type (0, 0), BuildingBlock: XUDNAN_clean_linker_2, # of connection points: 2
#     Edge 12, Type (0, 0), BuildingBlock: XUDNAN_clean_linker_2, # of connection points: 2
#     Edge 13, Type (0, 0), BuildingBlock: XUDNAN_clean_linker_2, # of connection points: 2
#     Edge 14, Type (0, 0), BuildingBlock: XUDNAN_clean_linker_2, # of connection points: 2
#     Edge 15, Type (0, 0), BuildingBlock: XUDNAN_clean_linker_2, # of connection points: 2
# Relax obj value: 0.150
# Max RMSD: 0.190
# Mean RMSD: 0.190
data_MOF--net-rob--node1-UKALOJ_clean_sbu_0--edge1-XUDNAN_clean_linker_2
_symmetry_space_group_name_H-M    P1
_symmetry_Int_Tables_number       1
_symmetry_cell_setting            triclinic
loop_
_symmetry_equiv_pos_as_xyz
'x, y, z'
_cell_length_a     14.362825
_cell_length_b     37.817439
_cell_length_c     23.817327
_cell_angle_alpha  100.27175
_cell_angle_beta   89.875033
_cell_angle_gamma 90.038641
loop_
_atom_site_label
_atom_site_type_symbol
_atom_site_fract_x
_atom_site_fract_y
_atom_site_fract_z
_atom_type_partial_charge
Zn0 Zn 0.30472 0.29609 -0.00048 0.0
O1 O 0.33692 0.2803 0.91263 0.0
C2 C 0.10875 0.28993 0.96629 0.0
Zn3 Zn 0.25148 0.2408 0.0021 0.0
C4 C 0.32305 0.24809 0.88768 0.0
O5 O 0.29139 0.22511 0.91581 0.0
C6 C 0.23142 0.28931 0.11373 0.0
O7 O 0.38144 0.22522 0.02958 0.0
O8 O 0.43593 0.27821 0.02237 0.0
N9 N 0.20449 0.18937 0.00275 0.0
C10 C 0.1203 0.17392 0.00616 0.0
C11 C 0.22218 0.13253 0.00171 0.0
N12 N 0.26731 0.16348 -5e-05 0.0
N13 N 0.1298 0.13826 0.0055 0.0
C14 C 0.3526 0.37332 0.97346 0.0
C15 C 0.46273 0.38759 0.03312 0.0
N16 N 0.36358 0.34581 0.00203 0.0
N17 N 0.43186 0.35492 0.03906 0.0
N18 N 0.41431 0.39988 0.99228 0.0
H19 H 0.27193 0.34531 0.90325 0.0
H20 H 0.31173 0.38961 0.89482 0.0
H21 H 0.2181 0.38478 0.94336 0.0
C22 C 0.28513 0.37316 0.9256 0.0
C23 C 0.03017 0.19407 0.01361 0.0
H24 H 0.04034 0.22058 0.0415 0.0
H25 H 0.97611 0.17871 0.03241 0.0
H26 H 0.0057 0.1986 0.97132 0.0
O27 O 0.21285 0.25749 0.08863 0.0
O28 O 0.26997 0.31116 0.08618 0.0
C29 C 0.44871 0.24722 0.03428 0.0
O30 O 0.17364 0.31306 0.97665 0.0
O31 O 0.12263 0.25784 0.97387 0.0
Zn32 Zn 0.7465 0.80462 0.00619 0.0
O33 O 0.88768 0.79688 0.98206 0.0
C34 C 0.70171 0.77955 0.88534 0.0
Zn35 Zn 0.73147 0.74468 0.98717 0.0
C36 C 0.92206 0.76597 0.9638 0.0
O37 O 0.87227 0.73816 0.96364 0.0
C38 C 0.55583 0.78379 0.02909 0.0
O39 O 0.76329 0.74044 0.07254 0.0
O40 O 0.77704 0.79929 0.0911 0.0
N41 N 0.71088 0.68999 0.96552 0.0
C42 C 0.65001 0.66748 0.98434 0.0
C43 C 0.72741 0.63651 0.91646 0.0
N44 N 0.75901 0.67059 0.92345 0.0
N45 N 0.65844 0.63389 0.95389 0.0
C46 C 0.79979 0.88417 -0.0014 0.0
C47 C 0.7755 0.91069 0.08412 0.0
N48 N 0.76758 0.85921 0.0279 0.0
N49 N 0.75246 0.87585 0.08095 0.0
N50 N 0.80491 0.91666 0.03293 0.0
H51 H 0.86134 0.84893 0.92699 0.0
H52 H 0.88406 0.89616 0.92908 0.0
H53 H 0.77058 0.87781 0.9095 0.0
C54 C 0.83139 0.87629 0.93763 0.0
C55 C 0.58623 0.67783 0.03443 0.0
H56 H 0.61498 0.70072 0.06503 0.0
H57 H 0.57489 0.65474 0.05659 0.0
H58 H 0.51792 0.68578 0.01909 0.0
O59 O 0.58964 0.75288 0.01022 0.0
O60 O 0.60653 0.81145 0.03044 0.0
C61 C 0.77745 0.76926 0.10804 0.0
O62 O 0.7134 0.80854 0.92088 0.0
O63 O 0.70289 0.7496 0.90241 0.0
Zn64 Zn 0.23594 0.80142 0.50516 0.0
O65 O 0.26773 0.80473 0.41966 0.0
C66 C 0.06187 0.76125 0.46314 0.0
Zn67 Zn 0.25324 0.74175 0.4873 0.0
C68 C 0.28219 0.77575 0.3846 0.0
O69 O 0.28322 0.74592 0.40214 0.0
C70 C 0.20677 0.7677 0.60809 0.0
O71 O 0.39463 0.75108 0.51102 0.0
O72 O 0.37582 0.80953 0.52867 0.0
N73 N 0.27669 0.6873 0.46784 0.0
C74 C 0.33789 0.66591 0.48874 0.0
C75 C 0.2657 0.63315 0.42046 0.0
N76 N 0.2317 0.66681 0.42555 0.0
N77 N 0.33291 0.63196 0.4594 0.0
C78 C 0.1541 0.87785 0.50488 0.0
C79 C 0.23022 0.90967 0.5724 0.0
N80 N 0.21404 0.85575 0.52513 0.0
N81 N 0.26137 0.87563 0.56697 0.0
N82 N 0.16244 0.91172 0.53416 0.0
H83 H 0.12072 0.84362 0.42482 0.0
H84 H 0.08023 0.88942 0.43153 0.0
H85 H 0.0228 0.85883 0.46993 0.0
C86 C 0.09132 0.86676 0.45463 0.0
C87 C 0.39892 0.67769 0.53963 0.0
H88 H 0.46736 0.68615 0.52503 0.0
H89 H 0.41073 0.65517 0.56294 0.0
H90 H 0.36764 0.70057 0.56907 0.0
O91 O 0.22028 0.73852 0.57324 0.0
O92 O 0.2068 0.79737 0.59016 0.0
C93 C 0.42735 0.7823 0.52873 0.0
O94 O 0.09471 0.79232 0.48193 0.0
O95 O 0.11298 0.73379 0.46273 0.0
Zn96 Zn 0.73658 0.30284 0.50394 0.0
O97 O 0.86165 0.32647 0.4827 0.0
C98 C 0.72823 0.25959 0.38729 0.0
Zn99 Zn 0.79656 0.24797 0.49857 0.0
C100 C 0.92958 0.3049 0.47091 0.0
O101 O 0.92001 0.27239 0.47694 0.0
C102 C 0.6036 0.24528 0.53055 0.0
O103 O 0.82829 0.26112 0.58615 0.0
O104 O 0.76917 0.31519 0.59119 0.0
N105 N 0.86736 0.20048 0.49102 0.0
C106 C 0.85949 0.17152 0.51653 0.0
C107 C 0.97112 0.16127 0.45668 0.0
N108 N 0.93682 0.19401 0.45395 0.0
N109 N 0.92365 0.14649 0.49547 0.0
C110 C 0.67047 0.37911 0.48534 0.0
C111 C 0.55783 0.38835 0.54461 0.0
N112 N 0.66495 0.35028 0.5114 0.0
N113 N 0.59495 0.35618 0.54816 0.0
N114 N 0.60399 0.40341 0.50561 0.0
H115 H 0.75517 0.35559 0.41346 0.0
H116 H 0.80233 0.39524 0.45693 0.0
H117 H 0.70758 0.3993 0.40906 0.0
C118 C 0.73733 0.3824 0.43817 0.0
C119 C 0.79272 0.1687 0.56396 0.0
H120 H 0.77713 0.1956 0.58916 0.0
H121 H 0.82144 0.15127 0.59258 0.0
H122 H 0.7267 0.15668 0.54546 0.0
O123 O 0.67262 0.22429 0.51922 0.0
O124 O 0.61206 0.27802 0.52539 0.0
C125 C 0.80703 0.29156 0.61539 0.0
O126 O 0.70673 0.29002 0.41633 0.0
O127 O 0.76406 0.23557 0.41139 0.0
H128 H 0.72459 0.56737 0.95576 0.0
H129 H 0.47031 0.6288 0.9565 0.0
H130 H 0.37742 0.57385 0.9591 0.0
H131 H 0.64112 0.48509 0.8677 0.0
H132 H 0.70282 0.45629 0.9076 0.0
H133 H 0.7485 0.50011 0.90324 0.0
H134 H 0.75179 0.51654 0.01366 0.0
H135 H 0.70705 0.47269 0.01829 0.0
H136 H 0.64682 0.51231 0.05359 0.0
H137 H 0.31286 0.51166 0.9634 0.0
H138 H 0.28325 0.44908 0.97704 0.0
H139 H 0.58004 0.42906 0.97453 0.0
C140 C 0.64934 0.56906 0.95629 0.0
C141 C 0.60432 0.60222 0.9567 0.0
C142 C 0.50583 0.6037 0.95749 0.0
C143 C 0.45269 0.57258 0.9583 0.0
C144 C 0.49926 0.54022 0.95821 0.0
C145 C 0.59547 0.53835 0.95766 0.0
C146 C 0.62884 0.50079 0.96063 0.0
C147 C 0.68355 0.48463 0.90656 0.0
C148 C 0.68703 0.50058 0.01476 0.0
C149 C 0.53654 0.48184 0.96346 0.0
C150 C 0.46241 0.50482 0.96122 0.0
C151 C 0.37042 0.49337 0.96465 0.0
C152 C 0.35406 0.45775 0.97182 0.0
C153 C 0.42935 0.43423 0.97582 0.0
C154 C 0.52138 0.44647 0.9709 0.0
H155 H 0.27355 0.5647 0.46343 0.0
H156 H 0.52097 0.63019 0.46396 0.0
H157 H 0.61954 0.57749 0.47111 0.0
H158 H 0.35415 0.51305 0.5656 0.0
H159 H 0.3001 0.47187 0.53109 0.0
H160 H 0.25016 0.51445 0.52379 0.0
H161 H 0.25917 0.49641 0.41368 0.0
H162 H 0.30964 0.45381 0.42071 0.0
H163 H 0.36935 0.48291 0.38023 0.0
H164 H 0.69056 0.51759 0.47975 0.0
H165 H 0.72783 0.45595 0.49449 0.0
H166 H 0.43408 0.42976 0.48895 0.0
C167 C 0.34852 0.56772 0.46491 0.0
C168 C 0.39 0.60142 0.46408 0.0
C169 C 0.48816 0.60469 0.466 0.0
C170 C 0.54452 0.57486 0.46944 0.0
C171 C 0.50146 0.54198 0.47076 0.0
C172 C 0.40564 0.53828 0.46883 0.0
C173 C 0.37661 0.50034 0.47304 0.0
C174 C 0.31675 0.49992 0.52657 0.0
C175 C 0.32569 0.48231 0.41867 0.0
C176 C 0.47095 0.48336 0.47807 0.0
C177 C 0.54221 0.50767 0.47602 0.0
C178 C 0.63537 0.49823 0.48086 0.0
C179 C 0.65605 0.46314 0.48867 0.0
C180 C 0.58387 0.43807 0.4917 0.0
C181 C 0.4904 0.44841 0.48617 0.0
H182 H 0.12779 0.08949 0.07492 0.0
H183 H 0.98057 0.12396 0.93589 0.0
H184 H 0.87638 0.07085 0.92839 0.0
H185 H 0.12583 0.99716 0.0216 0.0
H186 H 0.10747 0.98351 0.08953 0.0
H187 H 0.16526 0.02535 0.08634 0.0
H188 H 0.04409 0.05974 0.15634 0.0
H189 H 0.98655 1.01791 0.16039 0.0
H190 H 0.92177 0.05446 0.14014 0.0
H191 H 0.79986 1.0101 0.93037 0.0
H192 H 0.74571 0.95079 0.94889 0.0
H193 H 0.93827 0.95839 0.08995 0.0
C194 C 0.07221 0.0861 0.04378 0.0
C195 C 0.06097 0.11078 0.00638 0.0
C196 C 0.98862 0.10557 0.96555 0.0
C197 C 0.92989 0.0754 0.9608 0.0
C198 C 0.94399 0.05108 -0.00225 0.0
C199 C 0.01233 0.05656 0.03921 0.0
C200 C 0.01423 0.0264 0.0733 0.0
C201 C 0.10881 1.00697 0.0673 0.0
C202 C 0.9902 0.04047 0.13627 0.0
C203 C 0.9377 1.00259 0.04384 0.0
C204 C 0.89828 1.01707 9e-05 0.0
C205 C 0.82945 0.99881 0.965 0.0
C206 C 0.7996 0.96514 0.97543 0.0
C207 C 0.83808 0.95035 0.02072 0.0
C208 C 0.90754 0.96943 0.05536 0.0
H209 H 0.08951 0.11645 0.51046 0.0
H210 H 0.79272 0.09605 0.50421 0.0
H211 H 0.82122 0.03327 0.51627 0.0
H212 H 0.15859 0.03281 0.43065 0.0
H213 H 0.26184 0.02868 0.47188 0.0
H214 H 0.21757 0.07251 0.46673 0.0
H215 H 0.20881 0.08906 0.57698 0.0
H216 H 0.25386 0.04538 0.58255 0.0
H217 H 0.14501 0.06042 0.61638 0.0
H218 H 0.88366 0.97173 0.52284 0.0
H219 H 0.97483 0.91695 0.52876 0.0
H220 H 0.23072 0.97777 0.53109 0.0
C221 C 0.03072 0.09879 0.51252 0.0
C222 C 0.93891 0.11109 0.50764 0.0
C223 C 0.86333 0.08733 0.50964 0.0
C224 C 0.879 0.05161 0.51591 0.0
C225 C 0.97064 0.04023 0.52022 0.0
C226 C 0.0452 0.06323 0.51914 0.0
C227 C 0.13698 0.04424 0.52336 0.0
C228 C 0.19726 0.04458 0.46997 0.0
C229 C 0.18922 0.06076 0.57808 0.0
C230 C 0.10259 1.00677 0.5261 0.0
C231 C 0.00646 1.00496 0.5241 0.0
C232 C 0.95891 0.97286 0.52451 0.0
C233 C 0.01107 0.94186 0.52726 0.0
C234 C 0.10948 0.94324 0.52942 0.0
C235 C 0.15549 0.97617 0.52934 0.0
H236 H 0.63187 0.20729 0.31817 0.0
H237 H 0.80869 0.30003 0.31843 0.0
H238 H 0.79002 0.29401 0.2141 0.0
H239 H 0.68967 0.1579 0.16673 0.0
H240 H 0.56976 0.14462 0.1548 0.0
H241 H 0.61905 0.14897 0.2253 0.0
H242 H 0.48781 0.19361 0.26578 0.0
H243 H 0.43797 0.18879 0.19596 0.0
H244 H 0.46832 0.23283 0.23405 0.0
H245 H 0.72812 0.28668 0.11751 0.0
H246 H 0.61284 0.28417 0.0407 0.0
H247 H 0.47181 0.19655 0.10074 0.0
C248 C 0.66885 0.2254 0.29548 0.0
C249 C 0.72198 0.25388 0.32523 0.0
C250 C 0.7676 0.27805 0.29556 0.0
C251 C 0.75847 0.27448 0.23639 0.0
C252 C 0.70307 0.24672 0.20788 0.0
C253 C 0.65843 0.22267 0.23649 0.0
C254 C 0.58826 0.20013 0.19852 0.0
C255 C 0.61854 0.16056 0.18557 0.0
C256 C 0.48988 0.20413 0.22514 0.0
C257 C 0.5952 0.21717 0.14574 0.0
C258 C 0.66468 0.24292 0.15113 0.0
C259 C 0.67515 0.26599 0.11198 0.0
C260 C 0.60926 0.26441 0.06845 0.0
C261 C 0.53357 0.24019 0.065 0.0
C262 C 0.53017 0.21478 0.10174 0.0
H263 H 0.5106 0.83607 0.11818 0.0
H264 H 0.41212 0.73559 0.0197 0.0
H265 H 0.30541 0.72829 0.09805 0.0
H266 H 0.53702 0.80724 0.23717 0.0
H267 H 0.50084 0.84657 0.28671 0.0
H268 H 0.54483 0.85114 0.21785 0.0
H269 H 0.39387 0.88333 0.19548 0.0
H270 H 0.34993 0.88004 0.26536 0.0
H271 H 0.28244 0.86263 0.20279 0.0
H272 H 0.2482 0.72287 0.19394 0.0
H273 H 0.22738 0.72377 0.29706 0.0
H274 H 0.36 0.82829 0.33444 0.0
C275 C 0.46235 0.8137 0.11163 0.0
C276 C 0.46948 0.78633 0.06306 0.0
C277 C 0.40767 0.75678 0.05674 0.0
C278 C 0.34676 0.75248 0.10103 0.0
C279 C 0.34773 0.77829 0.1508 0.0
C280 C 0.40212 0.80891 0.1558 0.0
C281 C 0.40255 0.82945 0.21658 0.0
C282 C 0.50217 0.83381 0.24094 0.0
C283 C 0.35428 0.86603 0.22026 0.0
C284 C 0.34536 0.80437 0.24567 0.0
C285 C 0.31322 0.77529 0.20687 0.0
C286 C 0.27021 0.74607 0.22446 0.0
C287 C 0.25978 0.74659 0.28306 0.0
C288 C 0.29179 0.77621 0.32328 0.0
C289 C 0.33334 0.80571 0.3043 0.0
H290 H 0.61992 0.83104 0.83454 0.0
H291 H 0.7631 0.72863 0.79829 0.0
H292 H 0.74181 0.72685 0.69514 0.0
H293 H 0.44569 0.8069 0.73896 0.0
H294 H 0.43226 0.85015 0.71809 0.0
H295 H 0.47859 0.84736 0.78701 0.0
H296 H 0.6253 0.88244 0.76407 0.0
H297 H 0.57943 0.88466 0.69434 0.0
H298 H 0.69306 0.86567 0.70115 0.0
H299 H 0.68216 0.7304 0.59931 0.0
H300 H 0.57422 0.73563 0.52078 0.0
H301 H 0.46776 0.83538 0.61762 0.0
C302 C 0.6489 0.80883 0.8046 0.0
C303 C 0.69322 0.78005 0.82397 0.0
C304 C 0.72841 0.75087 0.78403 0.0
C305 C 0.71776 0.74986 0.72538 0.0
C306 C 0.67156 0.77822 0.70737 0.0
C307 C 0.63718 0.8071 0.74582 0.0
C308 C 0.57677 0.83091 0.71626 0.0
C309 C 0.47752 0.83396 0.74155 0.0
C310 C 0.62134 0.86813 0.71913 0.0
C311 C 0.5782 0.80981 0.65587 0.0
C312 C 0.63571 0.78011 0.65126 0.0
C313 C 0.63858 0.75397 0.6019 0.0
C314 C 0.57704 0.7571 0.55749 0.0
C315 C 0.51304 0.78591 0.56317 0.0
C316 C 0.5178 0.81362 0.61144 0.0
H317 H 0.47657 0.2894 0.59122 0.0
H318 H 0.55697 0.17741 0.547 0.0
H319 H 0.46251 0.16366 0.62698 0.0
H320 H 0.51951 0.29682 0.72576 0.0
H321 H 0.42666 0.32686 0.75412 0.0
H322 H 0.46813 0.3265 0.68301 0.0
H323 H 0.30247 0.31297 0.642 0.0
H324 H 0.25907 0.31446 0.7135 0.0
H325 H 0.23789 0.27547 0.65943 0.0
H326 H 0.39418 0.16486 0.72375 0.0
H327 H 0.3544 0.18064 0.8263 0.0
H328 H 0.3308 0.29271 0.81021 0.0
C329 C 0.47017 0.26161 0.59629 0.0
C330 C 0.52395 0.23447 0.56291 0.0
C331 C 0.51589 0.1986 0.57194 0.0
C332 C 0.46226 0.19055 0.61732 0.0
C333 C 0.41693 0.21864 0.65284 0.0
C334 C 0.41909 0.25345 0.64218 0.0
C335 C 0.38098 0.27997 0.69205 0.0
C336 C 0.45315 0.3092 0.71505 0.0
C337 C 0.28965 0.29669 0.67576 0.0
C338 C 0.36356 0.25511 0.73398 0.0
C339 C 0.38147 0.21969 0.7101 0.0
C340 C 0.37786 0.19238 0.74246 0.0
C341 C 0.35595 0.2016 0.80068 0.0
C342 C 0.34046 0.2379 0.82599 0.0
C343 C 0.34275 0.26475 0.7919 0.0
H344 H 0.86394 0.71756 0.15618 0.0
H345 H 0.72013 0.81965 0.19718 0.0
H346 H 0.74657 0.8205 0.29977 0.0
H347 H 0.79744 0.68104 0.28794 0.0
H348 H 0.91166 0.66216 0.29306 0.0
H349 H 0.86411 0.66539 0.22413 0.0
H350 H 0.00927 0.70147 0.20156 0.0
H351 H 0.05733 0.69757 0.26965 0.0
H352 H 0.04246 0.74134 0.25089 0.0
H353 H 0.80819 0.81527 0.39496 0.0
H354 H 0.91558 0.80814 0.47287 0.0
H355 H 0.02248 0.71002 0.37116 0.0
C356 C 0.83598 0.73953 0.18705 0.0
C357 C 0.78954 0.7684 0.16916 0.0
C358 C 0.75608 0.7973 0.21029 0.0
C359 C 0.7698 0.79779 0.26862 0.0
C360 C 0.81754 0.76926 0.2851 0.0
C361 C 0.85083 0.74077 0.24547 0.0
C362 C 0.91252 0.7165 0.27344 0.0
C363 C 0.86878 0.67905 0.2694 0.0
C364 C 0.01117 0.71413 0.24737 0.0
C365 C 0.9122 0.73668 0.33443 0.0
C366 C 0.85481 0.76648 0.34058 0.0
C367 C 0.85183 0.79164 0.39107 0.0
C368 C 0.91296 0.78738 0.43517 0.0
C369 C 0.97674 0.75844 0.42814 0.0
C370 C 0.97248 0.73179 0.37843 0.0
H371 H 0.05525 0.25872 0.41331 0.0
H372 H 0.97644 0.37123 0.44681 0.0
H373 H 0.07358 0.38152 0.36556 0.0
H374 H 0.29414 0.26787 0.34645 0.0
H375 H 0.27262 0.22783 0.2946 0.0
H376 H 0.22537 0.23194 0.36569 0.0
H377 H 0.06075 0.21911 0.32261 0.0
H378 H 0.10614 0.21602 0.25169 0.0
H379 H 0.01455 0.24762 0.27624 0.0
H380 H 0.15061 0.37682 0.27004 0.0
H381 H 0.19947 0.35782 0.16959 0.0
H382 H 0.21164 0.2471 0.1945 0.0
C383 C 0.0621 0.28597 0.4056 0.0
C384 C 0.00881 0.31425 0.43672 0.0
C385 C 0.01753 0.34925 0.42398 0.0
C386 C 0.07252 0.3553 0.3778 0.0
C387 C 0.11797 0.32607 0.34499 0.0
C388 C 0.11398 0.29208 0.35878 0.0
C389 C 0.15263 0.26387 0.31133 0.0
C390 C 0.24149 0.24689 0.33068 0.0
C391 C 0.07912 0.235 0.28919 0.0
C392 C 0.17445 0.28692 0.26741 0.0
C393 C 0.15694 0.32285 0.28815 0.0
C394 C 0.16616 0.34887 0.25378 0.0
C395 C 0.19342 0.33782 0.19677 0.0
C396 C 0.2086 0.30099 0.17449 0.0
C397 C 0.20013 0.27541 0.21053 0.0
H398 H 0.83804 0.24275 0.68438 0.0
H399 H 0.81654 0.35726 0.68544 0.0
H400 H 0.85921 0.36946 0.78754 0.0
H401 H 0.75452 0.24591 0.83616 0.0
H402 H 0.83523 0.21106 0.84601 0.0
H403 H 0.78539 0.21136 0.77665 0.0
H404 H 0.95098 0.21079 0.73255 0.0
H405 H 0.00068 0.20998 0.80129 0.0
H406 H 0.03349 0.24491 0.76255 0.0
H407 H 0.93562 0.36914 0.88113 0.0
H408 H 0.03964 0.35619 0.95731 0.0
H409 H -0.00016 0.24199 0.89824 0.0
C410 C 0.84042 0.27038 0.70645 0.0
C411 C 0.82478 0.29908 0.67719 0.0
C412 C 0.82834 0.33488 0.70728 0.0
C413 C 0.8518 0.34204 0.76531 0.0
C414 C 0.86902 0.31307 0.79273 0.0
C415 C 0.86231 0.27791 0.76438 0.0
C416 C 0.89415 0.25168 0.80133 0.0
C417 C 0.81242 0.22865 0.8159 0.0
C418 C 0.97459 0.228 0.77275 0.0
C419 C 0.92639 0.27764 0.85343 0.0
C420 C 0.90958 0.31294 0.84826 0.0
C421 C 0.94645 0.34166 0.88671 0.0
C422 C 0.00546 0.33408 0.92986 0.0
C423 C 0.02664 0.29811 0.93402 0.0
C424 C 0.98252 0.26973 0.89722 0.0
H425 H 0.12731 0.71604 0.66004 0.0
H426 H 0.26166 0.82031 0.69438 0.0
H427 H 0.23636 0.82339 0.79751 0.0
H428 H 0.94812 0.73919 0.75288 0.0
H429 H 0.93721 0.69637 0.77552 0.0
H430 H 0.98555 0.6986 0.70674 0.0
H431 H 0.13413 0.66601 0.73291 0.0
H432 H 0.08622 0.66426 0.80243 0.0
H433 H 0.19853 0.68454 0.79625 0.0
H434 H 0.17224 0.82087 0.89261 0.0
H435 H 0.06209 0.81546 0.97013 0.0
H436 H 0.96932 0.7126 0.87647 0.0
C437 C 0.15366 0.73894 0.68961 0.0
C438 C 0.19663 0.76784 0.66962 0.0
C439 C 0.22817 0.79793 0.70907 0.0
C440 C 0.21515 0.79972 0.76774 0.0
C441 C 0.1703 0.77122 0.7863 0.0
C442 C 0.13965 0.74141 0.7484 0.0
C443 C 0.08016 0.71736 0.77828 0.0
C444 C 0.98202 0.71265 0.75181 0.0
C445 C 0.12764 0.68088 0.77742 0.0
C446 C 0.07796 0.73928 0.83811 0.0
C447 C 0.1326 0.76975 0.84221 0.0
C448 C 0.13125 0.79666 0.89058 0.0
C449 C 0.06865 0.79334 0.93454 0.0
C450 C 0.0082 0.76341 0.92959 0.0
C451 C 0.01687 0.7352 0.88225 0.0
loop_
_geom_bond_atom_site_label_1
_geom_bond_atom_site_label_2
_geom_bond_distance
_geom_bond_site_symmetry_2
_ccdc_geom_bond_type
Zn0 O1 2.055 1_554 S
Zn0 O8 2.046 . S
Zn0 N16 2.036 . S
Zn0 O28 2.053 . S
Zn0 O30 2.066 1_554 S
O1 Zn0 2.055 1_556 S
O1 C4 1.259 . S
C2 O30 1.256 . S
C2 O31 1.244 . S
Zn3 O5 2.046 . S
Zn3 O7 2.055 1_556 S
Zn3 N9 2.036 . S
Zn3 O27 2.066 1_556 S
Zn3 O31 2.053 . S
C4 O1 1.259 . S
C4 O5 1.254 . S
O5 Zn3 2.046 . S
O5 C4 1.254 . S
C6 O27 1.256 . S
C6 O28 1.244 . S
O7 Zn3 2.055 1_554 S
O7 C29 1.259 . S
O8 Zn0 2.046 . S
O8 C29 1.254 . S
N9 Zn3 2.036 . S
N9 C10 1.298 1_556 S
N9 N12 1.398 . S
C10 N9 1.298 1_554 S
C10 N13 1.367 1_554 S
C10 C23 1.481 . S
C11 N12 1.299 . S
C11 N13 1.379 . S
N12 N9 1.398 . S
N12 C11 1.299 . S
N13 C10 1.367 1_556 S
N13 C11 1.379 . S
C14 N16 1.298 1_556 S
C14 N18 1.367 1_556 S
C14 C22 1.481 . S
C15 N17 1.299 . S
C15 N18 1.379 . S
N16 Zn0 2.036 . S
N16 C14 1.298 1_554 S
N16 N17 1.398 . S
N17 C15 1.299 . S
N17 N16 1.398 . S
N18 C14 1.367 1_554 S
N18 C15 1.379 . S
H19 C22 0.980 . S
H20 C22 0.981 . S
H21 C22 0.981 . S
C22 C14 1.481 . S
C22 H19 0.980 . S
C22 H20 0.981 . S
C22 H21 0.981 . S
C23 C10 1.481 . S
C23 H24 0.980 . S
C23 H25 0.981 . S
C23 H26 0.981 . S
H24 C23 0.980 . S
H25 C23 0.981 . S
H26 C23 0.981 . S
O27 Zn3 2.066 1_554 S
O27 C6 1.256 . S
O28 Zn0 2.053 . S
O28 C6 1.244 . S
C29 O7 1.259 . S
C29 O8 1.254 . S
O30 Zn0 2.066 1_556 S
O30 C2 1.256 . S
O31 C2 1.244 . S
O31 Zn3 2.053 . S
Zn32 O33 2.055 1_554 S
Zn32 O40 2.046 . S
Zn32 N48 2.036 . S
Zn32 O60 2.053 . S
Zn32 O62 2.066 1_554 S
O33 Zn32 2.055 1_556 S
O33 C36 1.259 . S
C34 O62 1.256 . S
C34 O63 1.244 . S
Zn35 O37 2.046 . S
Zn35 O39 2.055 1_556 S
Zn35 N41 2.036 . S
Zn35 O59 2.066 1_556 S
Zn35 O63 2.053 . S
C36 O33 1.259 . S
C36 O37 1.254 . S
O37 Zn35 2.046 . S
O37 C36 1.254 . S
C38 O59 1.256 . S
C38 O60 1.244 . S
O39 Zn35 2.055 1_554 S
O39 C61 1.259 . S
O40 Zn32 2.046 . S
O40 C61 1.254 . S
N41 Zn35 2.036 . S
N41 C42 1.298 1_556 S
N41 N44 1.398 . S
C42 N41 1.298 1_554 S
C42 N45 1.367 1_554 S
C42 C55 1.481 . S
C43 N44 1.299 . S
C43 N45 1.379 . S
N44 N41 1.398 . S
N44 C43 1.299 . S
N45 C42 1.367 1_556 S
N45 C43 1.379 . S
C46 N48 1.298 1_556 S
C46 N50 1.367 1_556 S
C46 C54 1.481 . S
C47 N49 1.299 . S
C47 N50 1.379 . S
N48 Zn32 2.036 . S
N48 C46 1.298 1_554 S
N48 N49 1.398 . S
N49 C47 1.299 . S
N49 N48 1.398 . S
N50 C46 1.367 1_554 S
N50 C47 1.379 . S
H51 C54 0.980 . S
H52 C54 0.981 . S
H53 C54 0.981 . S
C54 C46 1.481 . S
C54 H51 0.980 . S
C54 H52 0.981 . S
C54 H53 0.981 . S
C55 C42 1.481 . S
C55 H56 0.980 . S
C55 H57 0.981 . S
C55 H58 0.981 . S
H56 C55 0.980 . S
H57 C55 0.981 . S
H58 C55 0.981 . S
O59 Zn35 2.066 1_554 S
O59 C38 1.256 . S
O60 Zn32 2.053 . S
O60 C38 1.244 . S
C61 O39 1.259 . S
C61 O40 1.254 . S
O62 Zn32 2.066 1_556 S
O62 C34 1.256 . S
O63 C34 1.244 . S
O63 Zn35 2.053 . S
Zn64 O65 2.055 . S
Zn64 O72 2.046 . S
Zn64 N80 2.036 . S
Zn64 O92 2.053 . S
Zn64 O94 2.066 . S
O65 Zn64 2.055 . S
O65 C68 1.259 . S
C66 O94 1.256 . S
C66 O95 1.244 . S
Zn67 O69 2.046 . S
Zn67 O71 2.055 . S
Zn67 N73 2.036 . S
Zn67 O91 2.066 . S
Zn67 O95 2.053 . S
C68 O65 1.259 . S
C68 O69 1.254 . S
O69 Zn67 2.046 . S
O69 C68 1.254 . S
C70 O91 1.256 . S
C70 O92 1.244 . S
O71 Zn67 2.055 . S
O71 C93 1.259 . S
O72 Zn64 2.046 . S
O72 C93 1.254 . S
N73 Zn67 2.036 . S
N73 C74 1.298 . S
N73 N76 1.398 . S
C74 N73 1.298 . S
C74 N77 1.367 . S
C74 C87 1.481 . S
C75 N76 1.299 . S
C75 N77 1.379 . S
N76 N73 1.398 . S
N76 C75 1.299 . S
N77 C74 1.367 . S
N77 C75 1.379 . S
C78 N80 1.298 . S
C78 N82 1.367 . S
C78 C86 1.481 . S
C79 N81 1.299 . S
C79 N82 1.379 . S
N80 Zn64 2.036 . S
N80 C78 1.298 . S
N80 N81 1.398 . S
N81 C79 1.299 . S
N81 N80 1.398 . S
N82 C78 1.367 . S
N82 C79 1.379 . S
H83 C86 0.980 . S
H84 C86 0.981 . S
H85 C86 0.981 . S
C86 C78 1.481 . S
C86 H83 0.980 . S
C86 H84 0.981 . S
C86 H85 0.981 . S
C87 C74 1.481 . S
C87 H88 0.980 . S
C87 H89 0.981 . S
C87 H90 0.981 . S
H88 C87 0.980 . S
H89 C87 0.981 . S
H90 C87 0.981 . S
O91 Zn67 2.066 . S
O91 C70 1.256 . S
O92 Zn64 2.053 . S
O92 C70 1.244 . S
C93 O71 1.259 . S
C93 O72 1.254 . S
O94 Zn64 2.066 . S
O94 C66 1.256 . S
O95 C66 1.244 . S
O95 Zn67 2.053 . S
Zn96 O97 2.055 . S
Zn96 O104 2.046 . S
Zn96 N112 2.036 . S
Zn96 O124 2.053 . S
Zn96 O126 2.066 . S
O97 Zn96 2.055 . S
O97 C100 1.259 . S
C98 O126 1.256 . S
C98 O127 1.244 . S
Zn99 O101 2.046 . S
Zn99 O103 2.055 . S
Zn99 N105 2.036 . S
Zn99 O123 2.066 . S
Zn99 O127 2.053 . S
C100 O97 1.259 . S
C100 O101 1.254 . S
O101 Zn99 2.046 . S
O101 C100 1.254 . S
C102 O123 1.256 . S
C102 O124 1.244 . S
O103 Zn99 2.055 . S
O103 C125 1.259 . S
O104 Zn96 2.046 . S
O104 C125 1.254 . S
N105 Zn99 2.036 . S
N105 C106 1.298 . S
N105 N108 1.398 . S
C106 N105 1.298 . S
C106 N109 1.367 . S
C106 C119 1.481 . S
C107 N108 1.299 . S
C107 N109 1.379 . S
N108 N105 1.398 . S
N108 C107 1.299 . S
N109 C106 1.367 . S
N109 C107 1.379 . S
C110 N112 1.298 . S
C110 N114 1.367 . S
C110 C118 1.481 . S
C111 N113 1.299 . S
C111 N114 1.379 . S
N112 Zn96 2.036 . S
N112 C110 1.298 . S
N112 N113 1.398 . S
N113 C111 1.299 . S
N113 N112 1.398 . S
N114 C110 1.367 . S
N114 C111 1.379 . S
H115 C118 0.980 . S
H116 C118 0.981 . S
H117 C118 0.981 . S
C118 C110 1.481 . S
C118 H115 0.980 . S
C118 H116 0.981 . S
C118 H117 0.981 . S
C119 C106 1.481 . S
C119 H120 0.980 . S
C119 H121 0.981 . S
C119 H122 0.981 . S
H120 C119 0.980 . S
H121 C119 0.981 . S
H122 C119 0.981 . S
O123 Zn99 2.066 . S
O123 C102 1.256 . S
O124 Zn96 2.053 . S
O124 C102 1.244 . S
C125 O103 1.259 . S
C125 O104 1.254 . S
O126 Zn96 2.066 . S
O126 C98 1.256 . S
O127 C98 1.244 . S
O127 Zn99 2.053 . S
H128 C140 0.930 . S
H129 C142 0.930 . S
H130 C143 0.930 . S
H131 C147 0.959 . S
H132 C147 0.959 . S
H133 C147 0.961 . S
H134 C148 0.960 . S
H135 C148 0.961 . S
H136 C148 0.959 . S
H137 C151 0.929 . S
H138 C152 0.931 . S
H139 C154 0.930 . S
C140 H128 0.930 . S
C140 C141 1.399 1_554 S
C140 C145 1.399 . S
C141 C140 1.399 1_556 S
C141 C142 1.376 . S
C142 H129 0.930 . S
C142 C141 1.376 . S
C142 C143 1.388 . S
C143 H130 0.930 . S
C143 C142 1.388 . S
C143 C144 1.390 . S
C144 C143 1.390 . S
C144 C145 1.394 1_556 S
C144 C150 1.465 . S
C145 C140 1.399 . S
C145 C144 1.394 1_554 S
C145 C146 1.516 . S
C146 C145 1.516 . S
C146 C147 1.502 . S
C146 C148 1.561 . S
C146 C149 1.526 . S
C147 H131 0.959 . S
C147 H132 0.959 . S
C147 H133 0.961 . S
C147 C146 1.502 . S
C148 H134 0.960 . S
C148 H135 0.961 . S
C148 H136 0.959 . S
C148 C146 1.561 . S
C149 C146 1.526 . S
C149 C150 1.396 1_554 S
C149 C154 1.390 . S
C150 C144 1.465 . S
C150 C149 1.396 1_556 S
C150 C151 1.399 . S
C151 H137 0.929 . S
C151 C150 1.399 . S
C151 C152 1.385 . S
C152 H138 0.931 . S
C152 C151 1.385 . S
C152 C153 1.389 . S
C153 C152 1.389 . S
C153 C154 1.387 1_556 S
C154 H139 0.930 . S
C154 C149 1.390 . S
C154 C153 1.387 1_554 S
H155 C167 0.930 . S
H156 C169 0.930 . S
H157 C170 0.930 . S
H158 C174 0.959 . S
H159 C174 0.959 . S
H160 C174 0.961 . S
H161 C175 0.960 . S
H162 C175 0.961 . S
H163 C175 0.959 . S
H164 C178 0.929 . S
H165 C179 0.931 . S
H166 C181 0.930 . S
C167 H155 0.930 . S
C167 C168 1.399 . S
C167 C172 1.399 . S
C168 C167 1.399 . S
C168 C169 1.376 . S
C169 H156 0.930 . S
C169 C168 1.376 . S
C169 C170 1.388 . S
C170 H157 0.930 . S
C170 C169 1.388 . S
C170 C171 1.390 . S
C171 C170 1.390 . S
C171 C172 1.394 . S
C171 C177 1.465 . S
C172 C167 1.399 . S
C172 C171 1.394 . S
C172 C173 1.516 . S
C173 C172 1.516 . S
C173 C174 1.502 . S
C173 C175 1.561 . S
C173 C176 1.526 . S
C174 H158 0.959 . S
C174 H159 0.959 . S
C174 H160 0.961 . S
C174 C173 1.502 . S
C175 H161 0.960 . S
C175 H162 0.961 . S
C175 H163 0.959 . S
C175 C173 1.561 . S
C176 C173 1.526 . S
C176 C177 1.396 . S
C176 C181 1.390 . S
C177 C171 1.465 . S
C177 C176 1.396 . S
C177 C178 1.399 . S
C178 H164 0.929 . S
C178 C177 1.399 . S
C178 C179 1.385 . S
C179 H165 0.931 . S
C179 C178 1.385 . S
C179 C180 1.389 . S
C180 C179 1.389 . S
C180 C181 1.387 . S
C181 H166 0.930 . S
C181 C176 1.390 . S
C181 C180 1.387 . S
H182 C194 0.930 . S
H183 C196 0.930 . S
H184 C197 0.930 . S
H185 C201 0.959 . S
H186 C201 0.959 . S
H187 C201 0.961 . S
H188 C202 0.960 1_455 S
H189 C202 0.961 1_565 S
H190 C202 0.959 . S
H191 C205 0.929 . S
H192 C206 0.931 . S
H193 C208 0.930 . S
C194 H182 0.930 . S
C194 C195 1.399 1_554 S
C194 C199 1.399 . S
C195 C194 1.399 1_556 S
C195 C196 1.376 . S
C196 H183 0.930 . S
C196 C195 1.376 . S
C196 C197 1.388 1_455 S
C197 H184 0.930 . S
C197 C196 1.388 1_655 S
C197 C198 1.390 . S
C198 C197 1.390 . S
C198 C199 1.394 1_656 S
C198 C204 1.465 1_545 S
C199 C194 1.399 . S
C199 C198 1.394 1_454 S
C199 C200 1.516 1_545 S
C200 C199 1.516 1_565 S
C200 C201 1.502 . S
C200 C202 1.561 1_465 S
C200 C203 1.526 1_455 S
C201 H185 0.959 . S
C201 H186 0.959 . S
C201 H187 0.961 . S
C201 C200 1.502 . S
C202 H188 0.960 1_655 S
C202 H189 0.961 1_545 S
C202 H190 0.959 . S
C202 C200 1.561 1_645 S
C203 C200 1.526 1_655 S
C203 C204 1.396 1_554 S
C203 C208 1.390 . S
C204 C198 1.465 1_565 S
C204 C203 1.396 1_556 S
C204 C205 1.399 . S
C205 H191 0.929 . S
C205 C204 1.399 . S
C205 C206 1.385 . S
C206 H192 0.931 . S
C206 C205 1.385 . S
C206 C207 1.389 . S
C207 C206 1.389 . S
C207 C208 1.387 1_556 S
C208 H193 0.930 . S
C208 C203 1.390 . S
C208 C207 1.387 1_554 S
H209 C221 0.930 . S
H210 C223 0.930 . S
H211 C224 0.930 . S
H212 C228 0.959 . S
H213 C228 0.959 1_455 S
H214 C228 0.939 1_545 S
H215 C229 0.960 . S
H216 C229 0.961 . S
H217 C229 0.959 . S
H218 C232 0.929 1_655 S
H219 C233 0.931 . S
H220 C235 0.930 . S
C221 H209 0.930 . S
C221 C222 1.399 . S
C221 C226 1.399 . S
C222 C221 1.399 . S
C222 C223 1.376 . S
C223 H210 0.930 . S
C223 C222 1.376 . S
C223 C224 1.388 . S
C224 H211 0.930 . S
C224 C223 1.388 . S
C224 C225 1.390 . S
C225 C224 1.390 . S
C225 C226 1.394 . S
C225 C231 1.465 1_545 S
C226 C221 1.399 . S
C226 C225 1.394 . S
C226 C227 1.508 1_645 S
C227 C226 1.508 1_465 S
C227 C228 1.506 1_455 S
C227 C229 1.554 1_565 S
C227 C230 1.537 . S
C228 H212 0.959 . S
C228 H213 0.959 1_655 S
C228 H214 0.939 1_565 S
C228 C227 1.506 1_655 S
C229 H215 0.960 . S
C229 H216 0.961 . S
C229 H217 0.959 . S
C229 C227 1.554 1_545 S
C230 C227 1.537 . S
C230 C231 1.396 1_455 S
C230 C235 1.390 . S
C231 C225 1.465 1_565 S
C231 C230 1.396 1_655 S
C231 C232 1.399 1_655 S
C232 H218 0.929 1_455 S
C232 C231 1.399 1_455 S
C232 C233 1.385 . S
C233 H219 0.931 . S
C233 C232 1.385 . S
C233 C234 1.389 . S
C234 C233 1.389 . S
C234 C235 1.387 . S
C235 H220 0.930 . S
C235 C230 1.390 . S
C235 C234 1.387 . S
H236 C248 0.930 . S
H237 C250 0.930 . S
H238 C251 0.930 . S
H239 C255 0.959 . S
H240 C255 0.959 . S
H241 C255 0.961 . S
H242 C256 0.960 . S
H243 C256 0.961 . S
H244 C256 0.959 . S
H245 C259 0.929 . S
H246 C260 0.931 . S
H247 C262 0.930 . S
C248 H236 0.930 . S
C248 C249 1.399 . S
C248 C253 1.399 . S
C249 C248 1.399 . S
C249 C250 1.376 . S
C250 H237 0.930 . S
C250 C249 1.376 . S
C250 C251 1.388 . S
C251 H238 0.930 . S
C251 C250 1.388 . S
C251 C252 1.390 . S
C252 C251 1.390 . S
C252 C253 1.394 . S
C252 C258 1.465 . S
C253 C248 1.399 . S
C253 C252 1.394 . S
C253 C254 1.516 . S
C254 C253 1.516 . S
C254 C255 1.502 . S
C254 C256 1.561 . S
C254 C257 1.526 . S
C255 H239 0.959 . S
C255 H240 0.959 . S
C255 H241 0.961 . S
C255 C254 1.502 . S
C256 H242 0.960 . S
C256 H243 0.961 . S
C256 H244 0.959 . S
C256 C254 1.561 . S
C257 C254 1.526 . S
C257 C258 1.396 . S
C257 C262 1.390 . S
C258 C252 1.465 . S
C258 C257 1.396 . S
C258 C259 1.399 . S
C259 H245 0.929 . S
C259 C258 1.399 . S
C259 C260 1.385 . S
C260 H246 0.931 . S
C260 C259 1.385 . S
C260 C261 1.389 . S
C261 C260 1.389 . S
C261 C262 1.387 . S
C262 H247 0.930 . S
C262 C257 1.390 . S
C262 C261 1.387 . S
H263 C275 0.930 . S
H264 C277 0.930 . S
H265 C278 0.930 . S
H266 C282 0.959 . S
H267 C282 0.959 . S
H268 C282 0.961 . S
H269 C283 0.960 . S
H270 C283 0.961 . S
H271 C283 0.959 . S
H272 C286 0.929 . S
H273 C287 0.931 . S
H274 C289 0.930 . S
C275 H263 0.930 . S
C275 C276 1.399 . S
C275 C280 1.399 . S
C276 C275 1.399 . S
C276 C277 1.376 . S
C277 H264 0.930 . S
C277 C276 1.376 . S
C277 C278 1.388 . S
C278 H265 0.930 . S
C278 C277 1.388 . S
C278 C279 1.390 . S
C279 C278 1.390 . S
C279 C280 1.394 . S
C279 C285 1.465 . S
C280 C275 1.399 . S
C280 C279 1.394 . S
C280 C281 1.516 . S
C281 C280 1.516 . S
C281 C282 1.502 . S
C281 C283 1.561 . S
C281 C284 1.526 . S
C282 H266 0.959 . S
C282 H267 0.959 . S
C282 H268 0.961 . S
C282 C281 1.502 . S
C283 H269 0.960 . S
C283 H270 0.961 . S
C283 H271 0.959 . S
C283 C281 1.561 . S
C284 C281 1.526 . S
C284 C285 1.396 . S
C284 C289 1.390 . S
C285 C279 1.465 . S
C285 C284 1.396 . S
C285 C286 1.399 . S
C286 H272 0.929 . S
C286 C285 1.399 . S
C286 C287 1.385 . S
C287 H273 0.931 . S
C287 C286 1.385 . S
C287 C288 1.389 . S
C288 C287 1.389 . S
C288 C289 1.387 . S
C289 H274 0.930 . S
C289 C284 1.390 . S
C289 C288 1.387 . S
H290 C302 0.930 . S
H291 C304 0.930 . S
H292 C305 0.930 . S
H293 C309 0.959 . S
H294 C309 0.959 . S
H295 C309 0.961 . S
H296 C310 0.960 . S
H297 C310 0.961 . S
H298 C310 0.959 . S
H299 C313 0.929 . S
H300 C314 0.931 . S
H301 C316 0.930 . S
C302 H290 0.930 . S
C302 C303 1.399 . S
C302 C307 1.399 . S
C303 C302 1.399 . S
C303 C304 1.376 . S
C304 H291 0.930 . S
C304 C303 1.376 . S
C304 C305 1.388 . S
C305 H292 0.930 . S
C305 C304 1.388 . S
C305 C306 1.390 . S
C306 C305 1.390 . S
C306 C307 1.394 . S
C306 C312 1.465 . S
C307 C302 1.399 . S
C307 C306 1.394 . S
C307 C308 1.516 . S
C308 C307 1.516 . S
C308 C309 1.502 . S
C308 C310 1.561 . S
C308 C311 1.526 . S
C309 H293 0.959 . S
C309 H294 0.959 . S
C309 H295 0.961 . S
C309 C308 1.502 . S
C310 H296 0.960 . S
C310 H297 0.961 . S
C310 H298 0.959 . S
C310 C308 1.561 . S
C311 C308 1.526 . S
C311 C312 1.396 . S
C311 C316 1.390 . S
C312 C306 1.465 . S
C312 C311 1.396 . S
C312 C313 1.399 . S
C313 H299 0.929 . S
C313 C312 1.399 . S
C313 C314 1.385 . S
C314 H300 0.931 . S
C314 C313 1.385 . S
C314 C315 1.389 . S
C315 C314 1.389 . S
C315 C316 1.387 . S
C316 H301 0.930 . S
C316 C311 1.390 . S
C316 C315 1.387 . S
H317 C329 0.930 . S
H318 C331 0.930 . S
H319 C332 0.930 . S
H320 C336 0.959 . S
H321 C336 0.959 . S
H322 C336 0.961 . S
H323 C337 0.960 . S
H324 C337 0.961 . S
H325 C337 0.959 . S
H326 C340 0.929 . S
H327 C341 0.931 . S
H328 C343 0.930 . S
C329 H317 0.930 . S
C329 C330 1.399 . S
C329 C334 1.399 . S
C330 C329 1.399 . S
C330 C331 1.376 . S
C331 H318 0.930 . S
C331 C330 1.376 . S
C331 C332 1.388 . S
C332 H319 0.930 . S
C332 C331 1.388 . S
C332 C333 1.390 . S
C333 C332 1.390 . S
C333 C334 1.394 . S
C333 C339 1.465 . S
C334 C329 1.399 . S
C334 C333 1.394 . S
C334 C335 1.516 . S
C335 C334 1.516 . S
C335 C336 1.502 . S
C335 C337 1.561 . S
C335 C338 1.526 . S
C336 H320 0.959 . S
C336 H321 0.959 . S
C336 H322 0.961 . S
C336 C335 1.502 . S
C337 H323 0.960 . S
C337 H324 0.961 . S
C337 H325 0.959 . S
C337 C335 1.561 . S
C338 C335 1.526 . S
C338 C339 1.396 . S
C338 C343 1.390 . S
C339 C333 1.465 . S
C339 C338 1.396 . S
C339 C340 1.399 . S
C340 H326 0.929 . S
C340 C339 1.399 . S
C340 C341 1.385 . S
C341 H327 0.931 . S
C341 C340 1.385 . S
C341 C342 1.389 . S
C342 C341 1.389 . S
C342 C343 1.387 . S
C343 H328 0.930 . S
C343 C338 1.390 . S
C343 C342 1.387 . S
H344 C356 0.924 1_455 S
H345 C358 0.930 . S
H346 C359 0.930 . S
H347 C363 0.959 . S
H348 C363 0.959 . S
H349 C363 0.961 . S
H350 C364 0.960 . S
H351 C364 0.961 . S
H352 C364 0.959 . S
H353 C367 0.929 . S
H354 C368 0.931 1_655 S
H355 C370 0.930 . S
C356 H344 0.924 1_655 S
C356 C357 1.407 . S
C356 C361 1.397 1_655 S
C357 C356 1.407 . S
C357 C358 1.376 . S
C358 H345 0.930 . S
C358 C357 1.376 . S
C358 C359 1.388 . S
C359 H346 0.930 . S
C359 C358 1.388 . S
C359 C360 1.390 . S
C360 C359 1.390 . S
C360 C361 1.394 1_655 S
C360 C366 1.465 . S
C361 C356 1.397 1_455 S
C361 C360 1.394 1_455 S
C361 C362 1.516 . S
C362 C361 1.516 . S
C362 C363 1.502 . S
C362 C364 1.561 . S
C362 C365 1.526 . S
C363 H347 0.959 . S
C363 H348 0.959 . S
C363 H349 0.961 . S
C363 C362 1.502 . S
C364 H350 0.960 . S
C364 H351 0.961 . S
C364 H352 0.959 . S
C364 C362 1.561 . S
C365 C362 1.526 . S
C365 C366 1.396 1_455 S
C365 C370 1.390 . S
C366 C360 1.465 . S
C366 C365 1.396 1_655 S
C366 C367 1.399 . S
C367 H353 0.929 . S
C367 C366 1.399 . S
C367 C368 1.385 1_655 S
C368 H354 0.931 1_455 S
C368 C367 1.385 1_455 S
C368 C369 1.389 . S
C369 C368 1.389 . S
C369 C370 1.387 . S
C370 H355 0.930 . S
C370 C365 1.390 . S
C370 C369 1.387 . S
H371 C383 0.935 . S
H372 C385 0.930 . S
H373 C386 0.930 . S
H374 C390 0.959 . S
H375 C390 0.959 . S
H376 C390 0.961 . S
H377 C391 0.960 . S
H378 C391 0.961 . S
H379 C391 0.959 . S
H380 C394 0.929 . S
H381 C395 0.931 1_655 S
H382 C397 0.930 . S
C383 H371 0.935 . S
C383 C384 1.392 1_455 S
C383 C388 1.400 . S
C384 C383 1.392 1_655 S
C384 C385 1.376 . S
C385 H372 0.930 . S
C385 C384 1.376 . S
C385 C386 1.388 . S
C386 H373 0.930 . S
C386 C385 1.388 . S
C386 C387 1.390 . S
C387 C386 1.390 . S
C387 C388 1.394 1_655 S
C387 C393 1.465 . S
C388 C383 1.400 . S
C388 C387 1.394 1_455 S
C388 C389 1.516 . S
C389 C388 1.516 . S
C389 C390 1.502 . S
C389 C391 1.561 . S
C389 C392 1.526 . S
C390 H374 0.959 . S
C390 H375 0.959 . S
C390 H376 0.961 . S
C390 C389 1.502 . S
C391 H377 0.960 . S
C391 H378 0.961 . S
C391 H379 0.959 . S
C391 C389 1.561 . S
C392 C389 1.526 . S
C392 C393 1.396 1_455 S
C392 C397 1.390 . S
C393 C387 1.465 . S
C393 C392 1.396 1_655 S
C393 C394 1.399 . S
C394 H380 0.929 . S
C394 C393 1.399 . S
C394 C395 1.385 1_655 S
C395 H381 0.931 1_455 S
C395 C394 1.385 1_455 S
C395 C396 1.389 . S
C396 C395 1.389 . S
C396 C397 1.387 . S
C397 H382 0.930 . S
C397 C392 1.390 . S
C397 C396 1.387 . S
H398 C410 0.930 . S
H399 C412 0.930 . S
H400 C413 0.930 . S
H401 C417 0.959 . S
H402 C417 0.959 . S
H403 C417 0.961 . S
H404 C418 0.960 . S
H405 C418 0.961 . S
H406 C418 0.959 1_455 S
H407 C421 0.929 . S
H408 C422 0.931 . S
H409 C424 0.930 . S
C410 H398 0.930 . S
C410 C411 1.399 . S
C410 C415 1.399 . S
C411 C410 1.399 . S
C411 C412 1.376 1_655 S
C412 H399 0.930 . S
C412 C411 1.376 1_455 S
C412 C413 1.388 . S
C413 H400 0.930 . S
C413 C412 1.388 . S
C413 C414 1.390 . S
C414 C413 1.390 . S
C414 C415 1.394 1_455 S
C414 C420 1.465 . S
C415 C410 1.399 . S
C415 C414 1.394 1_655 S
C415 C416 1.516 . S
C416 C415 1.516 . S
C416 C417 1.502 . S
C416 C418 1.561 . S
C416 C419 1.526 1_655 S
C417 H401 0.959 . S
C417 H402 0.959 . S
C417 H403 0.961 . S
C417 C416 1.502 . S
C418 H404 0.960 . S
C418 H405 0.961 . S
C418 H406 0.959 1_655 S
C418 C416 1.561 . S
C419 C416 1.526 1_455 S
C419 C420 1.396 . S
C419 C424 1.390 . S
C420 C414 1.465 . S
C420 C419 1.396 . S
C420 C421 1.399 . S
C421 H407 0.929 . S
C421 C420 1.399 . S
C421 C422 1.385 . S
C422 H408 0.931 . S
C422 C421 1.385 . S
C422 C423 1.389 . S
C423 C422 1.389 . S
C423 C424 1.387 . S
C424 H409 0.930 . S
C424 C419 1.390 . S
C424 C423 1.387 . S
H425 C437 0.930 . S
H426 C439 0.930 . S
H427 C440 0.930 . S
H428 C444 0.959 . S
H429 C444 0.959 . S
H430 C444 0.961 . S
H431 C445 0.960 . S
H432 C445 0.961 . S
H433 C445 0.959 . S
H434 C448 0.929 . S
H435 C449 0.931 . S
H436 C451 0.930 . S
C437 H425 0.930 . S
C437 C438 1.399 . S
C437 C442 1.399 . S
C438 C437 1.399 . S
C438 C439 1.376 . S
C439 H426 0.930 . S
C439 C438 1.376 . S
C439 C440 1.388 . S
C440 H427 0.930 . S
C440 C439 1.388 . S
C440 C441 1.390 . S
C441 C440 1.390 . S
C441 C442 1.394 . S
C441 C447 1.465 . S
C442 C437 1.399 . S
C442 C441 1.394 . S
C442 C443 1.516 1_455 S
C443 C442 1.516 1_655 S
C443 C444 1.502 . S
C443 C445 1.561 1_655 S
C443 C446 1.526 . S
C444 H428 0.959 . S
C444 H429 0.959 . S
C444 H430 0.961 . S
C444 C443 1.502 . S
C445 H431 0.960 . S
C445 H432 0.961 . S
C445 H433 0.959 . S
C445 C443 1.561 1_455 S
C446 C443 1.526 . S
C446 C447 1.396 1_655 S
C446 C451 1.390 . S
C447 C441 1.465 . S
C447 C446 1.396 1_455 S
C447 C448 1.399 . S
C448 H434 0.929 . S
C448 C447 1.399 . S
C448 C449 1.385 1_455 S
C449 H435 0.931 . S
C449 C448 1.385 1_655 S
C449 C450 1.389 . S
C450 C449 1.389 . S
C450 C451 1.387 . S
C451 H436 0.930 . S
C451 C446 1.390 . S
C451 C450 1.387 . S
C141 N45 1.561 . S
C153 N18 1.602 1_556 S
C168 N77 1.529 . S
C180 N114 1.627 . S
C195 N13 1.566 . S
C207 N50 1.606 1_556 S
C222 N109 1.591 . S
C234 N82 1.563 . S
C249 C98 0.953 . S
C261 C29 0.984 . S
C276 C38 0.985 . S
C288 C68 0.967 . S
C303 C34 0.981 . S
C315 C93 1.002 . S
C330 C102 1.024 . S
C342 C4 1.017 . S
C357 C61 0.967 . S
C369 C66 0.996 . S
C384 C100 0.968 . S
C396 C6 1.003 . S
C411 C125 1.024 . S
C423 C2 0.991 . S
C438 C70 0.981 . S
C450 C36 1.001 . S
