# Generated by pormake.
# Topology rkf, (6)-cn, num edge types: 1
# Building blocks:
#     Node 0, Type 0, BuildingBlock: GEDQOX_clean_sbu_0, # of connection points: 6
#     Node 1, Type 0, BuildingBlock: GEDQOX_clean_sbu_0, # of connection points: 6
#     Node 2, Type 0, BuildingBlock: GEDQOX_clean_sbu_0, # of connection points: 6
#     Node 3, Type 0, BuildingBlock: GEDQOX_clean_sbu_0, # of connection points: 6
#     Node 4, Type 0, BuildingBlock: GEDQOX_clean_sbu_0, # of connection points: 6
#     Node 5, Type 0, BuildingBlock: GEDQOX_clean_sbu_0, # of connection points: 6
#     Edge 6, Type (0, 0), BuildingBlock: CIFDUS_clean_linker_0, # of connection points: 2
#     Edge 7, Type (0, 0), BuildingBlock: CIFDUS_clean_linker_0, # of connection points: 2
#     Edge 8, Type (0, 0), BuildingBlock: CIFDUS_clean_linker_0, # of connection points: 2
#     Edge 9, Type (0, 0), BuildingBlock: CIFDUS_clean_linker_0, # of connection points: 2
#     Edge 10, Type (0, 0), BuildingBlock: CIFDUS_clean_linker_0, # of connection points: 2
#     Edge 11, Type (0, 0), BuildingBlock: CIFDUS_clean_linker_0, # of connection points: 2
#     Edge 12, Type (0, 0), BuildingBlock: CIFDUS_clean_linker_0, # of connection points: 2
#     Edge 13, Type (0, 0), BuildingBlock: CIFDUS_clean_linker_0, # of connection points: 2
#     Edge 14, Type (0, 0), BuildingBlock: CIFDUS_clean_linker_0, # of connection points: 2
#     Edge 15, Type (0, 0), BuildingBlock: CIFDUS_clean_linker_0, # of connection points: 2
#     Edge 16, Type (0, 0), BuildingBlock: CIFDUS_clean_linker_0, # of connection points: 2
#     Edge 17, Type (0, 0), BuildingBlock: CIFDUS_clean_linker_0, # of connection points: 2
#     Edge 18, Type (0, 0), BuildingBlock: CIFDUS_clean_linker_0, # of connection points: 2
#     Edge 19, Type (0, 0), BuildingBlock: CIFDUS_clean_linker_0, # of connection points: 2
#     Edge 20, Type (0, 0), BuildingBlock: CIFDUS_clean_linker_0, # of connection points: 2
#     Edge 21, Type (0, 0), BuildingBlock: CIFDUS_clean_linker_0, # of connection points: 2
#     Edge 22, Type (0, 0), BuildingBlock: CIFDUS_clean_linker_0, # of connection points: 2
#     Edge 23, Type (0, 0), BuildingBlock: CIFDUS_clean_linker_0, # of connection points: 2
# Relax obj value: 0.884
# Max RMSD: 0.325
# Mean RMSD: 0.289
data_MOF--net-rkf--node1-GEDQOX_clean_sbu_0--edge1-CIFDUS_clean_linker_0
_symmetry_space_group_name_H-M    P1
_symmetry_Int_Tables_number       1
_symmetry_cell_setting            triclinic
loop_
_symmetry_equiv_pos_as_xyz
'x, y, z'
_cell_length_a     20.486952
_cell_length_b     20.666545
_cell_length_c     38.888801
_cell_angle_alpha  91.061431
_cell_angle_beta   90.25959
_cell_angle_gamma 124.86325
loop_
_atom_site_label
_atom_site_type_symbol
_atom_site_fract_x
_atom_site_fract_y
_atom_site_fract_z
_atom_type_partial_charge
Nd0 Nd 0.23812 0.0668 1.17081 0.0
Nd1 Nd 0.38774 0.19077 1.18138 0.0
C2 C 0.11854 0.92425 1.15019 0.0
C3 C 0.12639 0.86103 1.13774 0.0
C4 C 0.17133 0.84199 1.15707 0.0
C5 C 0.20742 0.8095 1.14086 0.0
C6 C 0.19976 0.7963 1.10506 0.0
C7 C 0.1442 0.80324 1.08701 0.0
C8 C 0.10798 0.83554 1.10325 0.0
C9 C 0.25755 0.21149 1.18388 0.0
C10 C 0.30911 0.17299 1.10085 0.0
C11 C 0.52536 0.31637 0.20465 0.0
C12 C 0.57803 0.32642 0.2333 0.0
C13 C 0.58684 0.37291 0.26205 0.0
C14 C 0.61279 0.36334 0.29352 0.0
C15 C 0.63134 0.30778 0.29664 0.0
C16 C 0.63349 0.2699 0.26668 0.0
C17 C 0.60628 0.2785 0.23527 0.0
C18 C 0.39741 0.06532 1.16826 0.0
C19 C 0.25513 0.08926 0.25113 0.0
O20 O 0.13629 0.94513 1.18254 0.0
O21 O 0.14997 0.9853 1.13051 0.0
O22 O 0.20406 0.14575 0.19824 0.0
O23 O 0.29242 0.1965 1.16321 0.0
O24 O 0.25678 0.10153 1.11256 0.0
O25 O 0.36592 0.22405 1.12386 0.0
O26 O 0.45638 0.29971 0.21394 0.0
O27 O 0.51927 0.27345 1.17816 0.0
O28 O 0.43285 0.12874 1.15054 0.0
O29 O 0.34625 0.06406 1.18749 0.0
O30 O 0.33024 0.14468 0.24027 0.0
O31 O 0.20152 0.04831 0.22697 0.0
H32 H 0.18602 0.85993 1.18391 0.0
H33 H 0.24844 0.8033 1.15562 0.0
H34 H 0.13636 0.79367 1.05939 0.0
H35 H 0.07344 0.84928 1.08783 0.0
H36 H 0.5659 0.4106 0.26108 0.0
H37 H 0.60959 0.39301 0.316 0.0
H38 H 0.64914 0.22801 0.2681 0.0
H39 H 0.60121 0.24252 0.21341 0.0
Nd40 Nd 0.26466 0.20046 0.54482 0.0
Nd41 Nd 0.3187 0.34043 0.55538 0.0
C42 C 0.26033 0.07287 0.53157 0.0
C43 C 0.31073 0.06198 0.50852 0.0
C44 C 0.39117 0.09597 0.51708 0.0
C45 C 0.44351 0.10315 0.49208 0.0
C46 C 0.41627 0.07602 0.4582 0.0
C47 C 0.33445 0.03505 0.45059 0.0
C48 C 0.28222 0.02806 0.47554 0.0
C49 C 0.14531 0.22607 0.56196 0.0
C50 C 0.22938 0.25823 0.47712 0.0
C51 C 0.3774 0.49073 0.56958 0.0
C52 C 0.3753 0.55185 0.5879 0.0
C53 C 0.32863 0.53528 0.6169 0.0
C54 C 0.32996 0.59606 0.63405 0.0
C55 C 0.37773 0.67414 0.62231 0.0
C56 C 0.42134 0.68919 0.5922 0.0
C57 C 0.42009 0.62845 0.57517 0.0
C58 C 0.44248 0.3449 0.52502 0.0
C59 C 0.26658 0.20663 0.62441 0.0
O60 O 0.29534 0.11757 0.55904 0.0
O61 O 0.21214 0.08649 0.51655 0.0
O62 O 0.14078 0.18257 0.53621 0.0
O63 O 0.20836 0.25156 0.57758 0.0
O64 O 0.25378 0.21471 0.48648 0.0
O65 O 0.24013 0.31013 0.50165 0.0
O66 O 0.3205 0.44695 0.54734 0.0
O67 O 0.40028 0.45207 0.58584 0.0
O68 O 0.40246 0.36707 0.51022 0.0
O69 O 0.40156 0.30309 0.55017 0.0
O70 O 0.30413 0.28342 0.61457 0.0
O71 O 0.23617 0.15462 0.59922 0.0
H72 H 0.41508 0.12186 0.5424 0.0
H73 H 0.50612 0.13415 0.49872 0.0
H74 H 0.31161 0.01413 0.42463 0.0
H75 H 0.22071 0.00133 0.46818 0.0
H76 H 0.29296 0.47608 0.62671 0.0
H77 H 0.29691 0.58249 0.65758 0.0
H78 H 0.45848 0.74839 0.5825 0.0
H79 H 0.45548 0.64164 0.55236 0.0
Nd80 Nd 0.24889 0.39529 0.83236 0.0
Nd81 Nd 0.08897 0.27386 0.85392 0.0
C82 C 0.37782 0.54172 0.83189 0.0
C83 C 0.39597 0.61924 0.82284 0.0
C84 C 0.35074 0.64599 0.83537 0.0
C85 C 0.35744 0.71082 0.82073 0.0
C86 C 0.40839 0.7489 0.79294 0.0
C87 C 0.46123 0.72824 0.78404 0.0
C88 C 0.45471 0.66392 0.79877 0.0
C89 C 0.22988 0.25868 0.8276 0.0
C90 C 0.12224 0.2661 0.76987 0.0
C91 C 0.93612 0.16861 0.86489 0.0
C92 C 0.87499 0.17414 0.88147 0.0
C93 C 0.83169 0.12361 0.90832 0.0
C94 C 0.78843 0.13962 0.93013 0.0
C95 C 0.78712 0.20637 0.92534 0.0
C96 C 0.82379 0.25197 0.89613 0.0
C97 C 0.86811 0.23656 0.87459 0.0
C98 C 0.12692 0.42671 0.85983 0.0
C99 C 0.22229 0.31714 0.91472 0.0
O100 O 0.33423 0.50947 0.85898 0.0
O101 O 0.35751 0.49092 0.80639 0.0
O102 O 0.28191 0.31579 0.8083 0.0
O103 O 0.20108 0.27914 0.85041 0.0
O104 O 0.18819 0.33952 0.77625 0.0
O105 O 0.07747 0.22668 0.79654 0.0
O106 O 0.99263 0.18037 0.88554 0.0
O107 O 0.96316 0.20372 0.83558 0.0
O108 O 0.09528 0.37543 0.88371 0.0
O109 O 0.14037 0.39781 0.83414 0.0
O110 O 0.14641 0.26676 0.90516 0.0
O111 O 0.27109 0.37245 0.89187 0.0
H112 H 0.30661 0.61399 0.85488 0.0
H113 H 0.31765 0.72644 0.82904 0.0
H114 H 0.50197 0.75556 0.76298 0.0
H115 H 0.49149 0.64542 0.78934 0.0
H116 H 0.83635 0.07525 0.91407 0.0
H117 H 0.76212 0.10337 0.95244 0.0
H118 H 0.82277 0.30278 0.89118 0.0
H119 H 0.90091 0.27651 0.85394 0.0
Nd120 Nd 0.90716 0.12704 0.21144 0.0
Nd121 Nd 0.86503 0.98093 0.2262 0.0
C122 C 0.89629 0.24704 0.20057 0.0
C123 C 0.85524 0.26231 1.17391 0.0
C124 C 0.77187 0.22215 1.17329 0.0
C125 C 0.73277 0.22494 1.14437 0.0
C126 C 0.77621 0.26743 1.11546 0.0
C127 C 0.86001 0.31366 1.11774 0.0
C128 C 0.89894 0.31148 1.1467 0.0
C129 C 0.04467 0.14408 0.21949 0.0
C130 C 0.91458 0.02055 1.14615 0.0
C131 C 0.80807 0.83554 0.24361 0.0
C132 C 0.79144 0.76661 0.26191 0.0
C133 C 0.81496 0.77329 0.2963 0.0
C134 C 0.78402 0.70556 0.31547 0.0
C135 C 0.72726 0.63045 0.30073 0.0
C136 C 0.70788 0.6238 0.26563 0.0
C137 C 0.74053 0.69166 0.24624 0.0
C138 C 0.7385 -0.01179 0.2025 0.0
C139 C 0.9512 0.117 0.29399 0.0
O140 O 0.85119 0.19075 0.22175 0.0
O141 O 0.95582 0.24528 1.19033 0.0
O142 O 0.02708 0.16616 0.19203 0.0
O143 O 0.98417 0.09451 0.23592 0.0
O144 O 0.89737 0.07286 1.15417 0.0
O145 O 0.91772 0.98225 1.17227 0.0
O146 O 0.87067 0.8761 0.22436 0.0
O147 O 0.78159 0.87555 0.25602 0.0
O148 O 0.76319 0.95114 1.18634 0.0
O149 O 0.78653 0.0266 0.2268 0.0
O150 O 0.9212 0.04229 0.28319 0.0
O151 O 0.95074 0.16297 0.27036 0.0
H152 H 0.73636 0.18512 0.19428 0.0
H153 H 0.66837 0.19017 1.1439 0.0
H154 H 0.89608 0.34671 1.09609 0.0
H155 H 0.96323 0.34415 1.14672 0.0
H156 H 0.85243 0.83068 0.30891 0.0
H157 H 0.79846 0.71258 0.34273 0.0
H158 H 0.6634 0.56685 0.25392 0.0
H159 H 0.72127 0.68583 0.21968 0.0
Nd160 Nd 0.88927 0.89235 0.50509 0.0
Nd161 Nd 0.00832 0.91932 0.52238 0.0
C162 C 0.73197 0.8231 0.50412 0.0
C163 C 0.65923 0.75075 0.48954 0.0
C164 C 0.62726 0.67646 0.50376 0.0
C165 C 0.57153 0.60756 0.485 0.0
C166 C 0.54735 0.61234 0.45182 0.0
C167 C 0.56916 0.68639 0.44049 0.0
C168 C 0.62485 0.75499 0.45915 0.0
C169 C 0.96056 0.03842 0.48852 0.0
C170 C 0.01708 0.93399 0.44097 0.0
C171 C 0.12183 0.89987 0.53616 0.0
C172 C 0.11201 0.8277 0.54826 0.0
C173 C 0.15104 0.83111 0.57861 0.0
C174 C 0.12285 0.76259 0.59695 0.0
C175 C 0.05492 0.68972 0.58519 0.0
C176 C 0.02257 0.68518 0.55259 0.0
C177 C 0.05066 0.75365 0.53432 0.0
C178 C 0.87642 0.75902 0.53341 0.0
C179 C 0.97702 -0.00596 0.58402 0.0
O180 O 0.76998 0.81519 0.52876 0.0
O181 O 0.78066 0.87474 0.4821 0.0
O182 O 0.91508 0.98174 0.4668 0.0
O183 O 0.98558 0.01809 0.51395 0.0
O184 O 0.93926 0.88803 0.44847 0.0
O185 O 0.06337 0.96678 0.46826 0.0
O186 O 0.10035 0.93285 0.55809 0.0
O187 O 0.09685 0.89708 0.50481 0.0
O188 O 0.91256 0.81443 0.55688 0.0
O189 O 0.90099 0.79306 0.50528 0.0
O190 O 0.03906 0.00391 0.56917 0.0
O191 O 0.90875 0.94644 0.56553 0.0
H192 H 0.64943 0.67149 0.5281 0.0
H193 H 0.55399 0.55112 0.4947 0.0
H194 H 0.55137 0.69256 0.41517 0.0
H195 H 0.64596 0.81153 0.44825 0.0
H196 H 0.19824 0.88756 0.58985 0.0
H197 H 0.14904 0.76845 0.62207 0.0
H198 H 0.9709 0.62982 0.54267 0.0
H199 H 0.01939 0.74908 0.51087 0.0
Nd200 Nd 0.99009 0.82391 0.87193 0.0
Nd201 Nd 0.14283 0.95722 0.89374 0.0
C202 C 0.88481 0.67955 0.84818 0.0
C203 C 0.89867 0.63661 0.82211 0.0
C204 C 0.97624 0.67224 0.81038 0.0
C205 C 0.99194 0.63836 0.7834 0.0
C206 C 0.92983 0.5686 0.76681 0.0
C207 C 0.85206 0.53098 0.77944 0.0
C208 C 0.83661 0.56475 0.80711 0.0
C209 C 0.97304 0.93882 0.88785 0.0
C210 C 0.10961 0.95673 0.80984 0.0
C211 C 0.29529 0.06625 0.90564 0.0
C212 C 0.35447 0.05224 0.91814 0.0
C213 C 0.38365 0.07435 0.95204 0.0
C214 C 0.40941 0.03393 0.96933 0.0
C215 C 0.40602 0.97051 0.95292 0.0
C216 C 0.39164 0.95943 0.91723 0.0
C217 C 0.36549 -0.00041 0.89997 0.0
C218 C 0.12355 0.81156 0.89637 0.0
C219 C 0.01595 0.90088 0.95465 0.0
O220 O 0.92469 0.69463 0.87715 0.0
O221 O 0.88925 0.74122 0.83674 0.0
O222 O 0.91426 0.86534 0.89069 0.0
O223 O 0.03341 0.94794 0.87327 0.0
O224 O 0.04201 0.88592 0.81655 0.0
O225 O 0.15736 -0.00181 0.8364 0.0
O226 O 0.26559 0.03818 0.87485 0.0
O227 O 0.24033 0.05139 0.92762 0.0
O228 O 0.14462 0.85928 0.92248 0.0
O229 O 0.10661 0.83799 0.87182 0.0
O230 O 0.07975 0.96467 0.94195 0.0
O231 O 0.97933 0.83392 0.93472 0.0
H232 H 0.0243 0.72881 0.82101 0.0
H233 H 0.05205 0.67049 0.77386 0.0
H234 H 0.80293 0.47753 0.76698 0.0
H235 H 0.77617 0.53666 0.8158 0.0
H236 H 0.37719 0.11571 0.96646 0.0
H237 H 0.42112 0.0455 0.99672 0.0
H238 H 0.39098 0.91292 0.90354 0.0
H239 H 0.34552 0.98249 0.87346 0.0
H240 H 0.1144 0.30128 0.21555 0.0
H241 H 0.11091 0.13149 0.27894 0.0
H242 H 0.24649 0.23258 0.29851 0.0
H243 H 0.33004 0.25909 0.24806 0.0
H244 H 0.29262 0.3534 1.15941 0.0
H245 H 0.24504 0.41428 0.19608 0.0
C246 C 0.1446 0.2866 0.23349 0.0
C247 C 0.10976 0.20697 0.24112 0.0
C248 C 0.22711 0.33883 0.23813 0.0
C249 C 0.14132 0.19034 0.26893 0.0
C250 C 0.21842 0.24909 0.28036 0.0
C251 C 0.31196 0.29412 0.23703 0.0
C252 C 0.30042 0.29005 0.20124 0.0
C253 C 0.26433 0.30858 0.25669 0.0
C254 C 0.29303 0.34744 1.18701 0.0
C255 C 0.26452 0.38116 0.2083 0.0
H256 H 0.00988 0.18375 0.46416 0.0
H257 H 0.83907 0.00152 0.53019 0.0
H258 H 0.8706 0.09765 0.57535 0.0
H259 H 0.00974 0.18845 0.59698 0.0
H260 H 0.18293 0.36886 0.53296 0.0
H261 H 0.08701 0.32448 0.48616 0.0
C262 C 0.97561 0.1661 0.48746 0.0
C263 C 0.93177 0.08724 0.49672 0.0
C264 C 0.99548 0.22217 0.51361 0.0
C265 C 0.88002 0.06343 0.52463 0.0
C266 C 0.89747 0.11873 0.55046 0.0
C267 C 0.02518 0.22105 0.57351 0.0
C268 C 0.10473 0.267 0.56365 0.0
C269 C 0.96761 0.19378 0.54721 0.0
C270 C 0.12283 0.32022 0.53734 0.0
C271 C 0.0671 0.29624 0.51077 0.0
H272 H 0.05265 0.07255 0.9282 0.0
H273 H 0.87501 0.96769 0.84929 0.0
H274 H 0.97421 0.05026 0.80574 0.0
H275 H 0.11761 0.12788 0.79027 0.0
H276 H 0.29512 0.20072 0.8685 0.0
H277 H 0.19301 0.13958 0.91274 0.0
C278 C 0.03629 0.07008 0.90145 0.0
C279 C 0.96395 0.00373 0.88923 0.0
C280 C 0.09635 0.10639 0.87707 0.0
C281 C 0.9364 0.01015 0.85727 0.0
C282 C 0.99302 0.05462 0.83226 0.0
C283 C 0.13319 0.12923 0.81709 0.0
C284 C 0.21215 0.18097 0.82833 0.0
C285 C 0.07401 0.09724 0.84171 0.0
C286 C 0.23303 0.16892 0.86077 0.0
C287 C 0.17565 0.13806 0.88628 0.0
H288 H 0.39793 0.31093 1.05642 0.0
H289 H 0.17165 0.08491 1.06286 0.0
H290 H 0.12726 0.10977 1.01022 0.0
H291 H 0.14508 0.19223 0.96106 0.0
H292 H 0.37132 0.41355 0.94892 0.0
H293 H 0.41951 0.39361 1.00317 0.0
C294 C 0.33881 0.26641 1.04646 0.0
C295 C 0.28941 0.19497 1.06547 0.0
C296 C 0.31163 0.28007 1.01423 0.0
C297 C 0.2131 0.14009 1.05042 0.0
C298 C 0.18643 0.15419 1.01969 0.0
C299 C 0.20533 0.23661 0.96982 0.0
C300 C 0.25326 0.30509 0.94947 0.0
C301 C 0.23418 0.2236 1.00116 0.0
C302 C 0.33133 0.36026 0.96284 0.0
C303 C 0.35941 0.34857 0.9944 0.0
H304 H 0.21256 0.33681 0.41805 0.0
H305 H 0.10961 0.1088 0.46148 0.0
H306 H 0.01078 0.04833 0.41432 0.0
H307 H 0.96411 0.0499 0.35563 0.0
H308 H 0.06333 0.27578 0.31036 0.0
H309 H 0.15489 0.34134 0.3597 0.0
C310 C 0.16968 0.2734 0.41728 0.0
C311 C 0.17059 0.22841 0.44507 0.0
C312 C 0.11455 0.23558 0.38769 0.0
C313 C 0.11288 0.14625 0.4416 0.0
C314 C 0.05696 0.11043 0.41385 0.0
C315 C 0.00482 0.11364 0.35633 0.0
C316 C 0.00387 0.15593 0.3278 0.0
C317 C 0.05844 0.15289 0.38585 0.0
C318 C 0.05955 0.23926 0.33093 0.0
C319 C 0.11342 0.27773 0.35966 0.0
H320 H 0.9868 0.11448 0.74439 0.0
H321 H 0.2046 0.32187 0.70882 0.0
H322 H 0.17744 0.26067 0.65152 0.0
H323 H 0.1033 0.13899 0.61247 0.0
H324 H 0.87511 0.94136 0.64179 0.0
H325 H 0.89829 0.00187 0.69993 0.0
C326 C 0.02918 0.14685 0.72431 0.0
C327 C 0.09981 0.22484 0.73282 0.0
C328 C 0.01299 0.11002 0.68994 0.0
C329 C 0.15093 0.26313 0.70488 0.0
C330 C 0.13545 0.22708 0.6715 0.0
C331 C 0.05642 0.11071 0.63048 0.0
C332 C 0.9863 0.03523 0.6204 0.0
C333 C 0.06824 0.14955 0.66372 0.0
C334 C 0.92949 -0.00096 0.64683 0.0
C335 C 0.94319 0.03436 0.68074 0.0
H336 H 0.92129 0.89599 1.11646 0.0
H337 H 0.94714 0.10992 1.08786 0.0
H338 H 0.97756 0.09222 1.02897 0.0
H339 H -0.00103 0.01718 0.98369 0.0
H340 H 0.96798 0.80048 1.01078 0.0
H341 H 0.93625 0.81694 1.0699 0.0
C342 C 0.93314 0.93908 1.09752 0.0
C343 C 0.93121 0.00529 1.10827 0.0
C344 C 0.94967 0.92753 1.06234 0.0
C345 C 0.94716 0.05855 1.08188 0.0
C346 C 0.9649 0.04825 1.04759 0.0
C347 C 0.98544 0.97306 1.00232 0.0
C348 C 0.98741 0.9073 0.99132 0.0
C349 C 0.96662 0.98313 1.03718 0.0
C350 C 0.96749 0.85147 1.01702 0.0
C351 C 0.94968 0.86147 1.05148 0.0
H352 H 0.17715 0.04175 0.41732 0.0
H353 H 0.93975 0.87365 0.37705 0.0
H354 H 0.99082 0.90606 0.31838 0.0
H355 H 0.10099 0.98192 0.27659 0.0
H356 H 0.33922 0.15187 0.31524 0.0
H357 H 0.28999 0.1192 0.37454 0.0
C358 C 0.13585 0.0109 0.39593 0.0
C359 C 0.05263 0.95303 0.40339 0.0
C360 C 0.16616 0.03098 0.36098 0.0
C361 C 0.00288 0.91702 0.37384 0.0
C362 C 0.03249 0.93618 0.33967 0.0
C363 C 0.14333 0.01247 0.2977 0.0
C364 C 0.22581 0.0704 0.28964 0.0
C365 C 0.11385 -0.00691 0.33257 0.0
C366 C 0.27648 0.10756 0.31892 0.0
C367 C 0.24764 0.08845 0.35345 0.0
H368 H 0.24546 0.10322 0.78554 0.0
H369 H 0.02781 0.89317 0.74684 0.0
H370 H 0.05891 0.94766 0.68897 0.0
H371 H 0.14745 0.05544 0.6478 0.0
H372 H 0.3472 0.27818 0.68832 0.0
H373 H 0.32251 0.22036 0.74578 0.0
C374 C 0.20259 0.06963 0.765 0.0
C375 C 0.13191 -0.00729 0.77257 0.0
C376 C 0.21815 0.10469 0.73123 0.0
C377 C 0.08175 0.9514 0.7436 0.0
C378 C 0.09974 0.98332 0.70992 0.0
C379 C 0.1855 0.09297 0.66905 0.0
C380 C 0.25003 0.17345 0.66208 0.0
C381 C 0.16758 0.06015 0.70316 0.0
C382 C 0.29734 0.21751 0.69132 0.0
C383 C 0.28289 0.18366 0.7247 0.0
H384 H 0.48641 0.0318 1.12891 0.0
H385 H 0.42759 0.04249 0.23411 0.0
H386 H 0.52902 0.02362 0.25406 0.0
H387 H 0.63983 0.00932 0.24185 0.0
H388 H 0.68834 0.98394 1.13666 0.0
H389 H 0.58554 0.001 1.11669 0.0
C390 C 0.49393 0.02742 1.15618 0.0
C391 C 0.44739 0.03699 1.17981 0.0
C392 C 0.55171 0.01458 1.16758 0.0
C393 C 0.46031 0.03337 0.21513 0.0
C394 C 0.51934 0.02344 0.22663 0.0
C395 C 0.62776 0.00734 0.21454 0.0
C396 C 0.67291 -0.00402 1.19082 0.0
C397 C 0.56628 0.01492 0.20315 0.0
C398 C 0.65518 -0.00737 1.15556 0.0
C399 C 0.5963 0.00273 1.14409 0.0
H400 H 0.53778 0.45528 0.57589 0.0
H401 H 0.54854 0.37298 0.475 0.0
H402 H 0.68595 0.48877 0.46952 0.0
H403 H 0.79542 0.62645 0.48894 0.0
H404 H 0.78523 0.70632 0.59067 0.0
H405 H 0.65612 0.58225 0.59933 0.0
C406 C 0.57074 0.46156 0.55301 0.0
C407 C 0.53202 0.40385 0.52606 0.0
C408 C 0.64937 0.53087 0.54932 0.0
C409 C 0.57621 0.41494 0.49642 0.0
C410 C 0.65485 0.48226 0.49305 0.0
C411 C 0.76553 0.61644 0.51319 0.0
C412 C 0.80061 0.67764 0.53884 0.0
C413 C 0.6908 0.54295 0.51849 0.0
C414 C 0.76046 0.66175 0.57022 0.0
C415 C 0.68603 0.5902 0.57527 0.0
H416 H 0.11563 0.50172 0.91566 0.0
H417 H 0.14524 0.5197 0.80582 0.0
H418 H 0.14484 0.63817 0.80718 0.0
H419 H 0.13999 0.73981 0.83991 0.0
H420 H 0.11132 0.72179 0.94976 0.0
H421 H 0.11019 0.60254 0.94819 0.0
C422 C 0.12252 0.53181 0.89199 0.0
C423 C 0.13056 0.50139 0.86064 0.0
C424 C 0.12354 0.60095 0.89304 0.0
C425 C 0.13935 0.54153 0.83031 0.0
C426 C 0.13929 0.6096 0.8311 0.0
C427 C 0.13208 0.70906 0.86342 0.0
C428 C 0.12409 0.73926 0.89487 0.0
C429 C 0.13171 0.64017 0.86232 0.0
C430 C 0.11711 0.69996 0.92519 0.0
C431 C 0.11641 0.63158 0.9243 0.0
H432 H 0.55837 0.15462 0.31269 0.0
H433 H 0.694 0.38961 0.35819 0.0
H434 H 0.64865 0.33469 0.41518 0.0
H435 H 0.54891 0.22261 0.44918 0.0
H436 H 0.40912 -0.01116 0.40268 0.0
H437 H 0.47961 0.04076 0.3488 0.0
C438 C 0.58112 0.19403 0.33511 0.0
C439 C 0.62834 0.27631 0.33106 0.0
C440 C 0.55296 0.16218 0.36753 0.0
C441 C 0.65635 0.32612 0.36054 0.0
C442 C 0.63022 0.29473 0.39311 0.0
C443 C 0.53601 0.18248 0.42771 0.0
C444 C 0.47311 0.10215 0.42968 0.0
C445 C 0.57508 0.21313 0.39658 0.0
C446 C 0.45651 0.05108 0.40153 0.0
C447 C 0.49665 0.08077 0.37074 0.0
H448 H 0.26975 0.68353 0.65876 0.0
H449 H 0.52023 0.81354 0.63719 0.0
H450 H 0.55231 0.88699 0.69126 0.0
H451 H 0.51186 0.87189 0.75127 0.0
H452 H 0.26323 0.72018 0.77499 0.0
H453 H 0.22782 0.70488 0.7146 0.0
C454 C 0.33112 0.73013 0.66536 0.0
C455 C 0.39257 0.74005 0.64496 0.0
C456 C 0.34965 0.76826 0.6977 0.0
C457 C 0.47162 0.80303 0.65285 0.0
C458 C 0.49025 0.84484 0.68407 0.0
C459 C 0.44975 0.83798 0.7432 0.0
C460 C 0.39094 0.78996 0.76713 0.0
C461 C 0.43028 0.82167 0.70804 0.0
C462 C 0.31075 0.75323 0.757 0.0
C463 C 0.29011 0.74288 0.7221 0.0
H464 H 0.66502 0.12107 0.97024 0.0
H465 H 0.85539 0.36015 0.94618 0.0
H466 H 0.84894 0.40512 1.00319 0.0
H467 H 0.81741 0.37118 1.06354 0.0
H468 H 0.64514 0.1284 1.08953 0.0
H469 H 0.61513 0.09146 1.02903 0.0
C470 C 0.70418 0.18328 0.97724 0.0
C471 C 0.76264 0.23623 0.95419 0.0
C472 C 0.70446 0.20824 1.01108 0.0
C473 C 0.81014 0.31727 0.96321 0.0
C474 C 0.80735 0.34324 0.99619 0.0
C475 C 0.77215 0.3104 1.05599 0.0
C476 C 0.73655 0.25229 1.08116 0.0
C477 C 0.75916 0.28834 1.02099 0.0
C478 C 0.67494 0.17458 1.07095 0.0
C479 C 0.65821 0.15299 1.03613 0.0
H480 H 0.56882 0.55276 0.30572 0.0
H481 H 0.7703 0.56656 0.34917 0.0
H482 H 0.70403 0.52349 0.40429 0.0
H483 H 0.6217 0.54223 0.44183 0.0
H484 H 0.43177 0.55033 0.40041 0.0
H485 H 0.45852 0.52286 0.34275 0.0
C486 C 0.59606 0.54184 0.32675 0.0
C487 C 0.67531 0.56557 0.32409 0.0
C488 C 0.56042 0.52387 0.35907 0.0
C489 C 0.70996 0.55031 0.3511 0.0
C490 C 0.67237 0.52668 0.38272 0.0
C491 C 0.5819 0.53153 0.4208 0.0
C492 C 0.52676 0.55076 0.42521 0.0
C493 C 0.60194 0.52192 0.38769 0.0
C494 C 0.47611 0.53782 0.39745 0.0
C495 C 0.4923 0.52326 0.36439 0.0
H496 H 0.10838 0.63294 0.63258 0.0
H497 H 0.89524 0.60566 0.59472 0.0
H498 H 0.82688 0.54091 0.64705 0.0
H499 H 0.84105 0.52904 0.70849 0.0
H500 H 0.05546 0.56236 0.74824 0.0
H501 H 0.10843 0.58485 0.69019 0.0
C502 C 0.04616 0.61035 0.63538 0.0
C503 C 0.0079 0.62614 0.61016 0.0
C504 C 0.00767 0.57556 0.66626 0.0
C505 C 0.92664 0.59487 0.6137 0.0
C506 C 0.88747 0.55849 0.64392 0.0
C507 C 0.8978 0.53758 0.70437 0.0
C508 C 0.94548 0.54697 0.73273 0.0
C509 C 0.92926 0.55381 0.67122 0.0
C510 C 0.01859 0.55722 0.72683 0.0
C511 C 0.04928 0.5709 0.69371 0.0
H512 H 0.4781 0.97766 1.01388 0.0
H513 H 0.29756 0.81188 0.94051 0.0
H514 H 0.22383 0.72048 0.98593 0.0
H515 H 0.18642 0.7144 1.0462 0.0
H516 H 0.35945 0.88904 1.11936 0.0
H517 H 0.45939 0.94734 1.0752 0.0
C518 C 0.42429 0.92016 1.00766 0.0
C519 C 0.39117 0.90428 0.97424 0.0
C520 C 0.37863 0.86986 1.03434 0.0
C521 C 0.32373 0.82768 0.96616 0.0
C522 C 0.28031 0.77531 0.99232 0.0
C523 C 0.24698 0.76306 1.05277 0.0
C524 C 0.26398 0.79994 1.08547 0.0
C525 C 0.30309 0.79974 1.02667 0.0
C526 C 0.34359 0.8606 1.09414 0.0
C527 C 0.40095 0.89499 1.06868 0.0
loop_
_geom_bond_atom_site_label_1
_geom_bond_atom_site_label_2
_geom_bond_distance
_geom_bond_site_symmetry_2
_ccdc_geom_bond_type
Nd0 C2 2.836 . S
Nd0 O20 2.500 . S
Nd0 O21 2.492 . S
Nd0 O22 2.487 . S
Nd0 O23 2.682 1_556 S
Nd0 O24 2.410 . S
Nd0 O29 2.412 1_556 S
Nd0 O31 2.424 1_556 S
Nd1 C11 2.836 . S
Nd1 O23 2.414 . S
Nd1 O25 2.424 1_554 S
Nd1 O26 2.500 . S
Nd1 O27 2.492 . S
Nd1 O28 2.487 . S
Nd1 O29 2.686 . S
Nd1 O30 2.410 . S
C2 Nd0 2.836 . S
C2 C3 1.498 . S
C2 O20 1.258 . S
C2 O21 1.239 . S
C3 C2 1.498 . S
C3 C4 1.366 . S
C3 C8 1.407 1_545 S
C4 C3 1.366 . S
C4 C5 1.392 1_545 S
C4 H32 0.930 . S
C5 C4 1.392 1_565 S
C5 C6 1.398 . S
C5 H33 0.929 1_565 S
C6 C5 1.398 . S
C6 C7 1.352 . S
C7 C6 1.352 . S
C7 C8 1.384 . S
C7 H34 0.930 . S
C8 C3 1.407 1_565 S
C8 C7 1.384 . S
C8 H35 0.929 . S
C9 O22 1.241 1_554 S
C9 O23 1.273 . S
C10 O24 1.251 . S
C10 O25 1.268 . S
C11 Nd1 2.836 . S
C11 C12 1.498 . S
C11 O26 1.258 . S
C11 O27 1.239 . S
C12 C11 1.498 . S
C12 C13 1.366 . S
C12 C17 1.407 . S
C13 C12 1.366 . S
C13 C14 1.392 . S
C13 H36 0.930 . S
C14 C13 1.392 . S
C14 C15 1.398 . S
C14 H37 0.929 . S
C15 C14 1.398 . S
C15 C16 1.352 . S
C16 C15 1.352 . S
C16 C17 1.384 . S
C16 H38 0.930 . S
C17 C12 1.407 . S
C17 C16 1.384 . S
C17 H39 0.929 . S
C18 O28 1.241 . S
C18 O29 1.276 . S
C19 O30 1.251 . S
C19 O31 1.268 . S
O20 Nd0 2.500 . S
O20 C2 1.258 . S
O21 Nd0 2.492 . S
O21 C2 1.239 . S
O22 Nd0 2.487 . S
O22 C9 1.241 1_556 S
O23 Nd0 2.682 1_554 S
O23 Nd1 2.414 . S
O23 C9 1.273 . S
O24 Nd0 2.410 . S
O24 C10 1.251 . S
O25 Nd1 2.424 1_556 S
O25 C10 1.268 . S
O26 Nd1 2.500 . S
O26 C11 1.258 . S
O27 Nd1 2.492 . S
O27 C11 1.239 . S
O28 Nd1 2.487 . S
O28 C18 1.241 . S
O29 Nd0 2.412 1_554 S
O29 Nd1 2.686 . S
O29 C18 1.276 . S
O30 Nd1 2.410 . S
O30 C19 1.251 . S
O31 Nd0 2.424 1_554 S
O31 C19 1.268 . S
H32 C4 0.930 . S
H33 C5 0.929 1_545 S
H34 C7 0.930 . S
H35 C8 0.929 . S
H36 C13 0.930 . S
H37 C14 0.929 . S
H38 C16 0.930 . S
H39 C17 0.929 . S
Nd40 C42 2.836 . S
Nd40 O60 2.500 . S
Nd40 O61 2.492 . S
Nd40 O62 2.487 . S
Nd40 O63 2.682 . S
Nd40 O64 2.410 . S
Nd40 O69 2.414 . S
Nd40 O71 2.424 . S
Nd41 C51 2.836 . S
Nd41 O63 2.414 . S
Nd41 O65 2.424 . S
Nd41 O66 2.500 . S
Nd41 O67 2.492 . S
Nd41 O68 2.487 . S
Nd41 O69 2.682 . S
Nd41 O70 2.410 . S
C42 Nd40 2.836 . S
C42 C43 1.498 . S
C42 O60 1.258 . S
C42 O61 1.239 . S
C43 C42 1.498 . S
C43 C44 1.366 . S
C43 C48 1.407 . S
C44 C43 1.366 . S
C44 C45 1.392 . S
C44 H72 0.930 . S
C45 C44 1.392 . S
C45 C46 1.398 . S
C45 H73 0.929 . S
C46 C45 1.398 . S
C46 C47 1.352 . S
C47 C46 1.352 . S
C47 C48 1.384 . S
C47 H74 0.930 . S
C48 C43 1.407 . S
C48 C47 1.384 . S
C48 H75 0.929 . S
C49 O62 1.241 . S
C49 O63 1.273 . S
C50 O64 1.251 . S
C50 O65 1.268 . S
C51 Nd41 2.836 . S
C51 C52 1.498 . S
C51 O66 1.258 . S
C51 O67 1.239 . S
C52 C51 1.498 . S
C52 C53 1.366 . S
C52 C57 1.407 . S
C53 C52 1.366 . S
C53 C54 1.392 . S
C53 H76 0.930 . S
C54 C53 1.392 . S
C54 C55 1.398 . S
C54 H77 0.929 . S
C55 C54 1.398 . S
C55 C56 1.352 . S
C56 C55 1.352 . S
C56 C57 1.384 . S
C56 H78 0.930 . S
C57 C52 1.407 . S
C57 C56 1.384 . S
C57 H79 0.929 . S
C58 O68 1.241 . S
C58 O69 1.273 . S
C59 O70 1.251 . S
C59 O71 1.268 . S
O60 Nd40 2.500 . S
O60 C42 1.258 . S
O61 Nd40 2.492 . S
O61 C42 1.239 . S
O62 Nd40 2.487 . S
O62 C49 1.241 . S
O63 Nd40 2.682 . S
O63 Nd41 2.414 . S
O63 C49 1.273 . S
O64 Nd40 2.410 . S
O64 C50 1.251 . S
O65 Nd41 2.424 . S
O65 C50 1.268 . S
O66 Nd41 2.500 . S
O66 C51 1.258 . S
O67 Nd41 2.492 . S
O67 C51 1.239 . S
O68 Nd41 2.487 . S
O68 C58 1.241 . S
O69 Nd40 2.414 . S
O69 Nd41 2.682 . S
O69 C58 1.273 . S
O70 Nd41 2.410 . S
O70 C59 1.251 . S
O71 Nd40 2.424 . S
O71 C59 1.268 . S
H72 C44 0.930 . S
H73 C45 0.929 . S
H74 C47 0.930 . S
H75 C48 0.929 . S
H76 C53 0.930 . S
H77 C54 0.929 . S
H78 C56 0.930 . S
H79 C57 0.929 . S
Nd80 C82 2.836 . S
Nd80 O100 2.500 . S
Nd80 O101 2.492 . S
Nd80 O102 2.487 . S
Nd80 O103 2.682 . S
Nd80 O104 2.410 . S
Nd80 O109 2.414 . S
Nd80 O111 2.424 . S
Nd81 C91 2.836 . S
Nd81 O103 2.414 . S
Nd81 O105 2.424 . S
Nd81 O106 2.500 . S
Nd81 O107 2.492 . S
Nd81 O108 2.487 . S
Nd81 O109 2.682 . S
Nd81 O110 2.410 . S
C82 Nd80 2.836 . S
C82 C83 1.498 . S
C82 O100 1.258 . S
C82 O101 1.239 . S
C83 C82 1.498 . S
C83 C84 1.366 . S
C83 C88 1.407 . S
C84 C83 1.366 . S
C84 C85 1.392 . S
C84 H112 0.930 . S
C85 C84 1.392 . S
C85 C86 1.398 . S
C85 H113 0.929 . S
C86 C85 1.398 . S
C86 C87 1.352 . S
C87 C86 1.352 . S
C87 C88 1.384 . S
C87 H114 0.930 . S
C88 C83 1.407 . S
C88 C87 1.384 . S
C88 H115 0.929 . S
C89 O102 1.241 . S
C89 O103 1.273 . S
C90 O104 1.251 . S
C90 O105 1.268 . S
C91 Nd81 2.836 . S
C91 C92 1.498 . S
C91 O106 1.258 . S
C91 O107 1.239 . S
C92 C91 1.498 . S
C92 C93 1.366 . S
C92 C97 1.407 . S
C93 C92 1.366 . S
C93 C94 1.392 . S
C93 H116 0.930 . S
C94 C93 1.392 . S
C94 C95 1.398 1_455 S
C94 H117 0.929 . S
C95 C94 1.398 1_655 S
C95 C96 1.352 . S
C96 C95 1.352 . S
C96 C97 1.384 1_655 S
C96 H118 0.930 . S
C97 C92 1.407 . S
C97 C96 1.384 1_455 S
C97 H119 0.938 . S
C98 O108 1.241 . S
C98 O109 1.273 . S
C99 O110 1.251 . S
C99 O111 1.268 . S
O100 Nd80 2.500 . S
O100 C82 1.258 . S
O101 Nd80 2.492 . S
O101 C82 1.239 . S
O102 Nd80 2.487 . S
O102 C89 1.241 . S
O103 Nd80 2.682 . S
O103 Nd81 2.414 . S
O103 C89 1.273 . S
O104 Nd80 2.410 . S
O104 C90 1.251 . S
O105 Nd81 2.424 . S
O105 C90 1.268 . S
O106 Nd81 2.500 . S
O106 C91 1.258 . S
O107 Nd81 2.492 . S
O107 C91 1.239 . S
O108 Nd81 2.487 . S
O108 C98 1.241 . S
O109 Nd80 2.414 . S
O109 Nd81 2.682 . S
O109 C98 1.273 . S
O110 Nd81 2.410 . S
O110 C99 1.251 . S
O111 Nd80 2.424 . S
O111 C99 1.268 . S
H112 C84 0.930 . S
H113 C85 0.929 . S
H114 C87 0.930 . S
H115 C88 0.929 . S
H116 C93 0.930 . S
H117 C94 0.929 . S
H118 C96 0.930 . S
H119 C97 0.938 . S
Nd120 C122 2.836 . S
Nd120 O140 2.500 . S
Nd120 O141 2.492 . S
Nd120 O142 2.487 1_655 S
Nd120 O143 2.682 1_546 S
Nd120 O144 2.410 1_545 S
Nd120 O149 2.413 1_556 S
Nd120 O151 2.424 1_556 S
Nd121 C131 2.836 . S
Nd121 O143 2.414 . S
Nd121 O145 2.424 1_554 S
Nd121 O146 2.500 . S
Nd121 O147 2.492 . S
Nd121 O148 2.487 . S
Nd121 O149 2.683 1_565 S
Nd121 O150 2.410 1_565 S
C122 Nd120 2.836 . S
C122 C123 1.498 . S
C122 O140 1.258 . S
C122 O141 1.239 . S
C123 C122 1.498 . S
C123 C124 1.366 . S
C123 C128 1.407 1_655 S
C124 C123 1.366 . S
C124 C125 1.392 . S
C124 H152 0.930 . S
C125 C124 1.392 . S
C125 C126 1.398 . S
C125 H153 0.929 . S
C126 C125 1.398 . S
C126 C127 1.352 1_655 S
C127 C126 1.352 1_455 S
C127 C128 1.384 . S
C127 H154 0.930 . S
C128 C123 1.407 1_455 S
C128 C127 1.384 . S
C128 H155 0.929 . S
C129 O142 1.241 1_654 S
C129 O143 1.273 1_545 S
C130 O144 1.251 . S
C130 O145 1.268 . S
C131 Nd121 2.836 . S
C131 C132 1.498 . S
C131 O146 1.258 . S
C131 O147 1.239 . S
C132 C131 1.498 . S
C132 C133 1.366 . S
C132 C137 1.407 . S
C133 C132 1.366 . S
C133 C134 1.392 . S
C133 H156 0.930 . S
C134 C133 1.392 . S
C134 C135 1.398 . S
C134 H157 0.929 . S
C135 C134 1.398 . S
C135 C136 1.352 . S
C136 C135 1.352 . S
C136 C137 1.384 . S
C136 H158 0.930 . S
C137 C132 1.407 . S
C137 C136 1.384 . S
C137 H159 0.929 . S
C138 O148 1.241 . S
C138 O149 1.274 1_565 S
C139 O150 1.251 . S
C139 O151 1.268 . S
O140 Nd120 2.500 . S
O140 C122 1.258 . S
O141 Nd120 2.492 . S
O141 C122 1.239 . S
O142 Nd120 2.487 1_455 S
O142 C129 1.241 1_456 S
O143 Nd120 2.682 1_564 S
O143 Nd121 2.414 . S
O143 C129 1.273 1_565 S
O144 Nd120 2.410 1_565 S
O144 C130 1.251 . S
O145 Nd121 2.424 1_556 S
O145 C130 1.268 . S
O146 Nd121 2.500 . S
O146 C131 1.258 . S
O147 Nd121 2.492 . S
O147 C131 1.239 . S
O148 Nd121 2.487 . S
O148 C138 1.241 . S
O149 Nd120 2.413 1_554 S
O149 Nd121 2.683 1_545 S
O149 C138 1.274 1_545 S
O150 Nd121 2.410 1_545 S
O150 C139 1.251 . S
O151 Nd120 2.424 1_554 S
O151 C139 1.268 . S
H152 C124 0.930 . S
H153 C125 0.929 . S
H154 C127 0.930 . S
H155 C128 0.929 . S
H156 C133 0.930 . S
H157 C134 0.929 . S
H158 C136 0.930 . S
H159 C137 0.929 . S
Nd160 C162 2.836 . S
Nd160 O180 2.500 . S
Nd160 O181 2.492 1_565 S
Nd160 O182 2.487 1_665 S
Nd160 O183 2.682 1_655 S
Nd160 O184 2.410 1_655 S
Nd160 O189 2.414 . S
Nd160 O191 2.424 . S
Nd161 C171 2.836 . S
Nd161 O183 2.414 . S
Nd161 O185 2.424 . S
Nd161 O186 2.500 . S
Nd161 O187 2.492 . S
Nd161 O188 2.487 1_455 S
Nd161 O189 2.682 1_455 S
Nd161 O190 2.410 1_455 S
C162 Nd160 2.836 . S
C162 C163 1.498 . S
C162 O180 1.258 . S
C162 O181 1.239 1_565 S
C163 C162 1.498 . S
C163 C164 1.366 . S
C163 C168 1.407 1_565 S
C164 C163 1.366 . S
C164 C165 1.392 . S
C164 H192 0.930 . S
C165 C164 1.392 . S
C165 C166 1.398 . S
C165 H193 0.929 . S
C166 C165 1.398 . S
C166 C167 1.352 1_565 S
C167 C166 1.352 1_545 S
C167 C168 1.384 . S
C167 H194 0.930 . S
C168 C163 1.407 1_545 S
C168 C167 1.384 . S
C168 H195 0.929 . S
C169 O182 1.241 . S
C169 O183 1.273 1_545 S
C170 O184 1.251 . S
C170 O185 1.268 . S
C171 Nd161 2.836 . S
C171 C172 1.498 . S
C171 O186 1.258 . S
C171 O187 1.239 . S
C172 C171 1.498 . S
C172 C173 1.366 . S
C172 C177 1.407 . S
C173 C172 1.366 . S
C173 C174 1.392 . S
C173 H196 0.930 . S
C174 C173 1.392 . S
C174 C175 1.398 . S
C174 H197 0.929 . S
C175 C174 1.398 . S
C175 C176 1.352 . S
C176 C175 1.352 . S
C176 C177 1.384 . S
C176 H198 0.930 . S
C177 C172 1.407 . S
C177 C176 1.384 . S
C177 H199 0.929 . S
C178 O188 1.241 . S
C178 O189 1.273 . S
C179 O190 1.251 . S
C179 O191 1.268 . S
O180 Nd160 2.500 . S
O180 C162 1.258 . S
O181 Nd160 2.492 1_545 S
O181 C162 1.239 1_545 S
O182 Nd160 2.487 1_445 S
O182 C169 1.241 . S
O183 Nd160 2.682 1_455 S
O183 Nd161 2.414 . S
O183 C169 1.273 1_565 S
O184 Nd160 2.410 1_455 S
O184 C170 1.251 . S
O185 Nd161 2.424 . S
O185 C170 1.268 . S
O186 Nd161 2.500 . S
O186 C171 1.258 . S
O187 Nd161 2.492 . S
O187 C171 1.239 . S
O188 Nd161 2.487 1_655 S
O188 C178 1.241 . S
O189 Nd160 2.414 . S
O189 Nd161 2.682 1_655 S
O189 C178 1.273 . S
O190 Nd161 2.410 1_655 S
O190 C179 1.251 . S
O191 Nd160 2.424 . S
O191 C179 1.268 . S
H192 C164 0.930 . S
H193 C165 0.929 . S
H194 C167 0.930 . S
H195 C168 0.929 . S
H196 C173 0.930 . S
H197 C174 0.929 . S
H198 C176 0.930 . S
H199 C177 0.929 . S
Nd200 C202 2.836 . S
Nd200 O220 2.500 . S
Nd200 O221 2.492 . S
Nd200 O222 2.487 . S
Nd200 O223 2.682 1_655 S
Nd200 O224 2.410 1_655 S
Nd200 O229 2.414 . S
Nd200 O231 2.424 . S
Nd201 C211 2.836 . S
Nd201 O223 2.414 . S
Nd201 O225 2.424 . S
Nd201 O226 2.500 . S
Nd201 O227 2.492 . S
Nd201 O228 2.487 . S
Nd201 O229 2.682 1_455 S
Nd201 O230 2.410 1_455 S
C202 Nd200 2.836 . S
C202 C203 1.498 . S
C202 O220 1.258 . S
C202 O221 1.239 . S
C203 C202 1.498 . S
C203 C204 1.366 . S
C203 C208 1.407 . S
C204 C203 1.366 . S
C204 C205 1.392 . S
C204 H232 0.930 . S
C205 C204 1.392 . S
C205 C206 1.398 . S
C205 H233 0.929 . S
C206 C205 1.398 . S
C206 C207 1.352 . S
C207 C206 1.352 . S
C207 C208 1.384 . S
C207 H234 0.930 . S
C208 C203 1.407 . S
C208 C207 1.384 . S
C208 H235 0.929 . S
C209 O222 1.241 . S
C209 O223 1.273 1_655 S
C210 O224 1.251 . S
C210 O225 1.268 . S
C211 Nd201 2.836 . S
C211 C212 1.498 . S
C211 O226 1.258 . S
C211 O227 1.239 . S
C212 C211 1.498 . S
C212 C213 1.366 . S
C212 C217 1.407 . S
C213 C212 1.366 . S
C213 C214 1.392 1_565 S
C213 H236 0.930 1_565 S
C214 C213 1.392 1_545 S
C214 C215 1.398 1_545 S
C214 H237 0.929 . S
C215 C214 1.398 1_565 S
C215 C216 1.352 . S
C216 C215 1.352 . S
C216 C217 1.384 . S
C216 H238 0.930 . S
C217 C212 1.407 . S
C217 C216 1.384 . S
C217 H239 0.929 . S
C218 O228 1.241 . S
C218 O229 1.273 1_455 S
C219 O230 1.251 . S
C219 O231 1.268 . S
O220 Nd200 2.500 . S
O220 C202 1.258 . S
O221 Nd200 2.492 . S
O221 C202 1.239 . S
O222 Nd200 2.487 . S
O222 C209 1.241 . S
O223 Nd200 2.682 1_455 S
O223 Nd201 2.414 . S
O223 C209 1.273 1_455 S
O224 Nd200 2.410 1_455 S
O224 C210 1.251 . S
O225 Nd201 2.424 . S
O225 C210 1.268 . S
O226 Nd201 2.500 . S
O226 C211 1.258 . S
O227 Nd201 2.492 . S
O227 C211 1.239 . S
O228 Nd201 2.487 . S
O228 C218 1.241 . S
O229 Nd200 2.414 . S
O229 Nd201 2.682 1_655 S
O229 C218 1.273 1_655 S
O230 Nd201 2.410 1_655 S
O230 C219 1.251 . S
O231 Nd200 2.424 . S
O231 C219 1.268 . S
H232 C204 0.930 . S
H233 C205 0.929 . S
H234 C207 0.930 . S
H235 C208 0.929 . S
H236 C213 0.930 1_545 S
H237 C214 0.929 . S
H238 C216 0.930 . S
H239 C217 0.929 . S
H240 C246 0.930 1_656 S
H241 C249 0.930 1_655 S
H242 C250 0.931 1_565 S
H243 C251 0.930 . S
H244 C254 0.930 . S
H245 C255 0.930 . S
C246 H240 0.930 1_454 S
C246 C247 1.355 1_445 S
C246 C248 1.415 . S
C247 C246 1.355 1_665 S
C247 C249 1.419 1_655 S
C248 C246 1.415 . S
C248 C253 1.425 . S
C248 C255 1.409 1_554 S
C249 H241 0.930 1_455 S
C249 C247 1.419 1_455 S
C249 C250 1.362 1_565 S
C250 H242 0.931 1_545 S
C250 C249 1.362 1_545 S
C250 C253 1.408 . S
C251 H243 0.930 . S
C251 C252 1.355 . S
C251 C253 1.415 . S
C252 C251 1.355 . S
C252 C254 1.419 1_554 S
C253 C248 1.425 . S
C253 C250 1.408 . S
C253 C251 1.415 . S
C254 H244 0.930 . S
C254 C252 1.419 1_556 S
C254 C255 1.362 . S
C255 H245 0.930 . S
C255 C248 1.409 1_556 S
C255 C254 1.362 . S
H256 C262 0.930 1_565 S
H257 C265 0.930 . S
H258 C266 0.930 . S
H259 C267 0.930 . S
H260 C270 0.930 . S
H261 C271 0.930 1_565 S
C262 H256 0.930 1_545 S
C262 C263 1.355 . S
C262 C264 1.415 . S
C263 C262 1.355 . S
C263 C265 1.419 . S
C264 C262 1.415 . S
C264 C269 1.425 . S
C264 C271 1.409 . S
C265 H257 0.930 . S
C265 C263 1.419 . S
C265 C266 1.362 . S
C266 H258 0.930 . S
C266 C265 1.362 . S
C266 C269 1.409 . S
C267 H259 0.930 . S
C267 C268 1.355 . S
C267 C269 1.415 . S
C268 C267 1.355 . S
C268 C270 1.419 1_455 S
C269 C264 1.425 . S
C269 C266 1.409 . S
C269 C267 1.415 . S
C270 H260 0.930 . S
C270 C268 1.419 1_655 S
C270 C271 1.362 1_655 S
C271 H261 0.930 1_545 S
C271 C264 1.409 . S
C271 C270 1.362 1_455 S
H272 C278 0.930 . S
H273 C281 0.930 . S
H274 C282 0.930 . S
H275 C283 0.930 . S
H276 C286 0.930 . S
H277 C287 0.930 . S
C278 H272 0.930 . S
C278 C279 1.355 1_455 S
C278 C280 1.415 1_565 S
C279 C278 1.355 1_655 S
C279 C281 1.419 1_565 S
C280 C278 1.415 1_545 S
C280 C285 1.425 . S
C280 C287 1.409 . S
C281 H273 0.930 . S
C281 C279 1.419 1_545 S
C281 C282 1.362 1_655 S
C282 H274 0.930 . S
C282 C281 1.362 1_455 S
C282 C285 1.409 . S
C283 H275 0.930 . S
C283 C284 1.355 . S
C283 C285 1.415 . S
C284 C283 1.355 . S
C284 C286 1.419 . S
C285 C280 1.425 . S
C285 C282 1.409 . S
C285 C283 1.415 . S
C286 H276 0.930 . S
C286 C284 1.419 . S
C286 C287 1.362 . S
C287 H277 0.930 . S
C287 C280 1.409 . S
C287 C286 1.362 . S
H288 C294 0.930 . S
H289 C297 0.930 . S
H290 C298 0.930 . S
H291 C299 0.930 . S
H292 C302 0.930 . S
H293 C303 0.930 . S
C294 H288 0.930 . S
C294 C295 1.355 . S
C294 C296 1.415 . S
C295 C294 1.355 . S
C295 C297 1.419 . S
C296 C294 1.415 . S
C296 C301 1.425 . S
C296 C303 1.409 . S
C297 H289 0.930 . S
C297 C295 1.419 . S
C297 C298 1.362 . S
C298 H290 0.930 . S
C298 C297 1.362 . S
C298 C301 1.409 . S
C299 H291 0.930 . S
C299 C300 1.355 . S
C299 C301 1.415 . S
C300 C299 1.355 . S
C300 C302 1.419 . S
C301 C296 1.425 . S
C301 C298 1.409 . S
C301 C299 1.415 . S
C302 H292 0.930 . S
C302 C300 1.419 . S
C302 C303 1.362 . S
C303 H293 0.930 . S
C303 C296 1.409 . S
C303 C302 1.362 . S
H304 C310 0.930 . S
H305 C313 0.931 . S
H306 C314 0.930 . S
H307 C315 0.930 . S
H308 C318 0.930 . S
H309 C319 0.930 . S
C310 H304 0.930 . S
C310 C311 1.355 . S
C310 C312 1.415 . S
C311 C310 1.355 . S
C311 C313 1.419 . S
C312 C310 1.415 . S
C312 C317 1.425 . S
C312 C319 1.409 . S
C313 H305 0.931 . S
C313 C311 1.419 . S
C313 C314 1.362 1_455 S
C314 H306 0.930 . S
C314 C313 1.362 1_655 S
C314 C317 1.409 1_655 S
C315 H307 0.930 . S
C315 C316 1.355 . S
C315 C317 1.415 1_655 S
C316 C315 1.355 . S
C316 C318 1.419 1_655 S
C317 C312 1.425 . S
C317 C314 1.409 1_455 S
C317 C315 1.415 1_455 S
C318 H308 0.930 . S
C318 C316 1.419 1_455 S
C318 C319 1.362 . S
C319 H309 0.930 . S
C319 C312 1.409 . S
C319 C318 1.362 . S
H320 C326 0.930 . S
H321 C329 0.930 . S
H322 C330 0.930 . S
H323 C331 0.930 . S
H324 C334 0.930 . S
H325 C335 0.930 . S
C326 H320 0.930 . S
C326 C327 1.355 . S
C326 C328 1.415 . S
C327 C326 1.355 . S
C327 C329 1.419 . S
C328 C326 1.415 . S
C328 C333 1.425 . S
C328 C335 1.409 1_455 S
C329 H321 0.930 . S
C329 C327 1.419 . S
C329 C330 1.362 . S
C330 H322 0.930 . S
C330 C329 1.362 . S
C330 C333 1.409 . S
C331 H323 0.930 . S
C331 C332 1.355 . S
C331 C333 1.415 . S
C332 C331 1.355 . S
C332 C334 1.419 1_455 S
C333 C328 1.425 . S
C333 C330 1.409 . S
C333 C331 1.415 . S
C334 H324 0.930 . S
C334 C332 1.419 1_655 S
C334 C335 1.362 . S
C335 H325 0.930 . S
C335 C328 1.409 1_655 S
C335 C334 1.362 . S
H336 C342 0.930 . S
H337 C345 0.930 . S
H338 C346 0.930 . S
H339 C347 0.930 . S
H340 C350 0.930 . S
H341 C351 0.930 . S
C342 H336 0.930 . S
C342 C343 1.355 . S
C342 C344 1.415 . S
C343 C342 1.355 . S
C343 C345 1.419 . S
C344 C342 1.415 . S
C344 C349 1.425 . S
C344 C351 1.409 . S
C345 H337 0.930 . S
C345 C343 1.419 . S
C345 C346 1.362 . S
C346 H338 0.930 . S
C346 C345 1.362 . S
C346 C349 1.409 . S
C347 H339 0.930 . S
C347 C348 1.355 . S
C347 C349 1.415 . S
C348 C347 1.355 . S
C348 C350 1.419 . S
C349 C344 1.425 . S
C349 C346 1.409 . S
C349 C347 1.415 . S
C350 H340 0.930 . S
C350 C348 1.419 . S
C350 C351 1.362 . S
C351 H341 0.930 . S
C351 C344 1.409 . S
C351 C350 1.362 . S
H352 C358 0.930 . S
H353 C361 0.930 . S
H354 C362 0.930 . S
H355 C363 0.930 . S
H356 C366 0.930 . S
H357 C367 0.930 . S
C358 H352 0.930 . S
C358 C359 1.355 . S
C358 C360 1.415 . S
C359 C358 1.355 . S
C359 C361 1.419 . S
C360 C358 1.415 . S
C360 C365 1.425 . S
C360 C367 1.409 . S
C361 H353 0.930 . S
C361 C359 1.419 . S
C361 C362 1.362 . S
C362 H354 0.930 . S
C362 C361 1.362 . S
C362 C365 1.409 . S
C363 H355 0.930 . S
C363 C364 1.355 . S
C363 C365 1.415 1_545 S
C364 C363 1.355 . S
C364 C366 1.419 1_545 S
C365 C360 1.425 . S
C365 C362 1.409 . S
C365 C363 1.415 1_565 S
C366 H356 0.930 . S
C366 C364 1.419 1_565 S
C366 C367 1.362 . S
C367 H357 0.930 . S
C367 C360 1.409 . S
C367 C366 1.362 . S
H368 C374 0.930 . S
H369 C377 0.930 . S
H370 C378 0.930 . S
H371 C379 0.930 . S
H372 C382 0.930 . S
H373 C383 0.930 . S
C374 H368 0.930 . S
C374 C375 1.355 . S
C374 C376 1.415 . S
C375 C374 1.355 . S
C375 C377 1.419 1_545 S
C376 C374 1.415 . S
C376 C381 1.425 . S
C376 C383 1.409 . S
C377 H369 0.930 . S
C377 C375 1.419 1_565 S
C377 C378 1.362 1_565 S
C378 H370 0.930 . S
C378 C377 1.362 1_545 S
C378 C381 1.409 . S
C379 H371 0.930 . S
C379 C380 1.355 . S
C379 C381 1.415 . S
C380 C379 1.355 . S
C380 C382 1.419 . S
C381 C376 1.425 . S
C381 C378 1.409 . S
C381 C379 1.415 . S
C382 H372 0.930 . S
C382 C380 1.419 . S
C382 C383 1.362 . S
C383 H373 0.930 . S
C383 C376 1.409 . S
C383 C382 1.362 . S
H384 C390 0.930 . S
H385 C393 0.930 . S
H386 C394 0.930 . S
H387 C395 0.930 . S
H388 C398 0.930 . S
H389 C399 0.930 1_565 S
C390 H384 0.930 . S
C390 C391 1.355 1_556 S
C390 C392 1.415 . S
C391 C390 1.355 1_554 S
C391 C393 1.419 . S
C392 C390 1.415 . S
C392 C397 1.425 1_556 S
C392 C399 1.409 . S
C393 H385 0.930 . S
C393 C391 1.419 . S
C393 C394 1.362 . S
C394 H386 0.930 . S
C394 C393 1.362 . S
C394 C397 1.409 . S
C395 H387 0.930 . S
C395 C396 1.354 1_554 S
C395 C397 1.415 . S
C396 C395 1.354 1_556 S
C396 C398 1.420 1_545 S
C397 C392 1.425 1_554 S
C397 C394 1.409 . S
C397 C395 1.415 . S
C398 H388 0.930 . S
C398 C396 1.420 1_565 S
C398 C399 1.362 1_565 S
C399 H389 0.930 1_545 S
C399 C392 1.409 . S
C399 C398 1.362 1_545 S
H400 C406 0.930 . S
H401 C409 0.930 . S
H402 C410 0.930 . S
H403 C411 0.930 . S
H404 C414 0.930 . S
H405 C415 0.930 . S
C406 H400 0.930 . S
C406 C407 1.355 . S
C406 C408 1.415 . S
C407 C406 1.355 . S
C407 C409 1.419 . S
C408 C406 1.415 . S
C408 C413 1.425 . S
C408 C415 1.409 . S
C409 H401 0.930 . S
C409 C407 1.419 . S
C409 C410 1.362 . S
C410 H402 0.930 . S
C410 C409 1.362 . S
C410 C413 1.409 . S
C411 H403 0.930 . S
C411 C412 1.355 . S
C411 C413 1.415 . S
C412 C411 1.355 . S
C412 C414 1.419 . S
C413 C408 1.425 . S
C413 C410 1.409 . S
C413 C411 1.415 . S
C414 H404 0.930 . S
C414 C412 1.419 . S
C414 C415 1.362 . S
C415 H405 0.930 . S
C415 C408 1.409 . S
C415 C414 1.362 . S
H416 C422 0.930 . S
H417 C425 0.930 . S
H418 C426 0.930 . S
H419 C427 0.930 1_655 S
H420 C430 0.930 . S
H421 C431 0.930 . S
C422 H416 0.930 . S
C422 C423 1.355 . S
C422 C424 1.415 . S
C423 C422 1.355 . S
C423 C425 1.419 . S
C424 C422 1.415 . S
C424 C429 1.425 . S
C424 C431 1.409 . S
C425 H417 0.930 . S
C425 C423 1.419 . S
C425 C426 1.362 . S
C426 H418 0.930 . S
C426 C425 1.362 . S
C426 C429 1.409 . S
C427 H419 0.930 1_455 S
C427 C428 1.355 . S
C427 C429 1.415 . S
C428 C427 1.355 . S
C428 C430 1.419 . S
C429 C424 1.425 . S
C429 C426 1.409 . S
C429 C427 1.415 . S
C430 H420 0.930 . S
C430 C428 1.419 . S
C430 C431 1.362 . S
C431 H421 0.930 . S
C431 C424 1.409 . S
C431 C430 1.362 . S
H432 C438 0.930 . S
H433 C441 0.930 . S
H434 C442 0.930 . S
H435 C443 0.930 . S
H436 C446 0.930 . S
H437 C447 0.930 . S
C438 H432 0.930 . S
C438 C439 1.355 . S
C438 C440 1.415 . S
C439 C438 1.355 . S
C439 C441 1.419 . S
C440 C438 1.415 . S
C440 C445 1.425 . S
C440 C447 1.409 . S
C441 H433 0.930 . S
C441 C439 1.419 . S
C441 C442 1.362 . S
C442 H434 0.930 . S
C442 C441 1.362 . S
C442 C445 1.409 . S
C443 H435 0.930 . S
C443 C444 1.355 . S
C443 C445 1.415 . S
C444 C443 1.355 . S
C444 C446 1.419 . S
C445 C440 1.425 . S
C445 C442 1.409 . S
C445 C443 1.415 . S
C446 H436 0.930 . S
C446 C444 1.419 . S
C446 C447 1.362 . S
C447 H437 0.930 . S
C447 C440 1.409 . S
C447 C446 1.362 . S
H448 C454 0.930 . S
H449 C457 0.930 . S
H450 C458 0.930 . S
H451 C459 0.930 . S
H452 C462 0.930 . S
H453 C463 0.930 . S
C454 H448 0.930 . S
C454 C455 1.355 . S
C454 C456 1.415 . S
C455 C454 1.355 . S
C455 C457 1.419 . S
C456 C454 1.415 . S
C456 C461 1.425 . S
C456 C463 1.409 . S
C457 H449 0.930 . S
C457 C455 1.419 . S
C457 C458 1.362 . S
C458 H450 0.930 . S
C458 C457 1.362 . S
C458 C461 1.409 . S
C459 H451 0.930 . S
C459 C460 1.355 . S
C459 C461 1.415 . S
C460 C459 1.355 . S
C460 C462 1.419 . S
C461 C456 1.425 . S
C461 C458 1.409 . S
C461 C459 1.415 . S
C462 H452 0.930 . S
C462 C460 1.419 . S
C462 C463 1.362 . S
C463 H453 0.930 . S
C463 C456 1.409 . S
C463 C462 1.362 . S
H464 C470 0.930 . S
H465 C473 0.930 . S
H466 C474 0.930 . S
H467 C475 0.930 . S
H468 C478 0.930 . S
H469 C479 0.930 . S
C470 H464 0.930 . S
C470 C471 1.355 . S
C470 C472 1.415 . S
C471 C470 1.355 . S
C471 C473 1.419 1_655 S
C472 C470 1.415 . S
C472 C477 1.425 . S
C472 C479 1.409 . S
C473 H465 0.930 . S
C473 C471 1.419 1_455 S
C473 C474 1.362 . S
C474 H466 0.930 . S
C474 C473 1.362 . S
C474 C477 1.409 1_455 S
C475 H467 0.930 . S
C475 C476 1.355 1_455 S
C475 C477 1.415 1_455 S
C476 C475 1.355 1_655 S
C476 C478 1.419 . S
C477 C472 1.425 . S
C477 C474 1.409 1_655 S
C477 C475 1.415 1_655 S
C478 H468 0.930 . S
C478 C476 1.419 . S
C478 C479 1.362 . S
C479 H469 0.930 . S
C479 C472 1.409 . S
C479 C478 1.362 . S
H480 C486 0.930 . S
H481 C489 0.930 . S
H482 C490 0.930 . S
H483 C491 0.930 . S
H484 C494 0.930 1_545 S
H485 C495 0.930 . S
C486 H480 0.930 . S
C486 C487 1.355 . S
C486 C488 1.415 . S
C487 C486 1.355 . S
C487 C489 1.419 . S
C488 C486 1.415 . S
C488 C493 1.425 . S
C488 C495 1.409 . S
C489 H481 0.930 . S
C489 C487 1.419 . S
C489 C490 1.362 . S
C490 H482 0.930 . S
C490 C489 1.362 . S
C490 C493 1.409 . S
C491 H483 0.930 . S
C491 C492 1.355 . S
C491 C493 1.415 . S
C492 C491 1.355 . S
C492 C494 1.419 . S
C493 C488 1.425 . S
C493 C490 1.409 . S
C493 C491 1.415 . S
C494 H484 0.930 1_565 S
C494 C492 1.419 . S
C494 C495 1.362 . S
C495 H485 0.930 . S
C495 C488 1.409 . S
C495 C494 1.362 . S
H496 C502 0.930 . S
H497 C505 0.930 . S
H498 C506 0.930 . S
H499 C507 0.930 . S
H500 C510 0.930 . S
H501 C511 0.930 . S
C502 H496 0.930 . S
C502 C503 1.355 . S
C502 C504 1.415 1_455 S
C503 C502 1.355 . S
C503 C505 1.419 . S
C504 C502 1.415 1_655 S
C504 C509 1.425 . S
C504 C511 1.409 . S
C505 H497 0.930 . S
C505 C503 1.419 . S
C505 C506 1.362 . S
C506 H498 0.930 . S
C506 C505 1.362 . S
C506 C509 1.409 1_455 S
C507 H499 0.930 . S
C507 C508 1.355 . S
C507 C509 1.415 . S
C508 C507 1.355 . S
C508 C510 1.419 . S
C509 C504 1.425 . S
C509 C506 1.409 1_655 S
C509 C507 1.415 . S
C510 H500 0.930 . S
C510 C508 1.419 . S
C510 C511 1.362 . S
C511 H501 0.930 . S
C511 C504 1.409 . S
C511 C510 1.362 . S
H512 C518 0.930 . S
H513 C521 0.930 . S
H514 C522 0.930 . S
H515 C523 0.930 . S
H516 C526 0.930 . S
H517 C527 0.930 . S
C518 H512 0.930 . S
C518 C519 1.355 . S
C518 C520 1.415 . S
C519 C518 1.355 . S
C519 C521 1.419 1_545 S
C520 C518 1.415 . S
C520 C525 1.425 1_545 S
C520 C527 1.409 . S
C521 H513 0.930 . S
C521 C519 1.419 1_565 S
C521 C522 1.362 . S
C522 H514 0.930 . S
C522 C521 1.362 . S
C522 C525 1.409 . S
C523 H515 0.930 . S
C523 C524 1.355 . S
C523 C525 1.415 . S
C524 C523 1.355 . S
C524 C526 1.419 . S
C525 C520 1.425 1_565 S
C525 C522 1.409 . S
C525 C523 1.415 . S
C526 H516 0.930 . S
C526 C524 1.419 . S
C526 C527 1.362 1_565 S
C527 H517 0.930 . S
C527 C520 1.409 . S
C527 C526 1.362 1_545 S
C247 C129 0.975 1_565 S
C252 C9 0.965 . S
C263 C169 1.326 . S
C268 C49 1.306 . S
C279 C209 0.703 . S
C284 C89 0.720 . S
C295 C10 4.352 . S
C300 C99 4.430 . S
C311 C50 4.443 . S
C316 C139 4.606 . S
C327 C90 4.740 . S
C332 C179 4.886 1_445 S
C343 C130 4.334 . S
C348 C219 4.435 . S
C359 C170 4.450 . S
C364 C19 4.611 . S
C375 C210 4.732 1_545 S
C380 C59 4.881 . S
C391 C18 1.316 . S
C396 C138 1.362 1_546 S
C407 C58 1.868 . S
C412 C178 1.846 . S
C423 C98 1.525 . S
C428 C218 1.504 . S
C439 C15 1.071 . S
C444 C46 0.954 . S
C455 C55 1.140 . S
C460 C86 1.156 . S
C471 C95 1.289 . S
C476 C126 1.493 . S
C487 C135 1.040 . S
C492 C166 0.923 . S
C503 C175 1.142 . S
C508 C206 1.171 . S
C519 C215 1.322 1_545 S
C524 C6 1.532 . S
