# Generated by pormake.
# Topology lcy, (6)-cn, num edge types: 1
# Building blocks:
#     Node 0, Type 0, BuildingBlock: VOLQOD_clean_sbu_1, # of connection points: 6
#     Node 1, Type 0, BuildingBlock: VOLQOD_clean_sbu_1, # of connection points: 6
#     Node 2, Type 0, BuildingBlock: VOLQOD_clean_sbu_1, # of connection points: 6
#     Node 3, Type 0, BuildingBlock: VOLQOD_clean_sbu_1, # of connection points: 6
#     Edge 4, Type (0, 0), BuildingBlock: MIFKUJ_clean_linker_0, # of connection points: 2
#     Edge 5, Type (0, 0), BuildingBlock: MIFKUJ_clean_linker_0, # of connection points: 2
#     Edge 6, Type (0, 0), BuildingBlock: MIFKUJ_clean_linker_0, # of connection points: 2
#     Edge 7, Type (0, 0), BuildingBlock: MIFKUJ_clean_linker_0, # of connection points: 2
#     Edge 8, Type (0, 0), BuildingBlock: MIFKUJ_clean_linker_0, # of connection points: 2
#     Edge 9, Type (0, 0), BuildingBlock: MIFKUJ_clean_linker_0, # of connection points: 2
#     Edge 10, Type (0, 0), BuildingBlock: MIFKUJ_clean_linker_0, # of connection points: 2
#     Edge 11, Type (0, 0), BuildingBlock: MIFKUJ_clean_linker_0, # of connection points: 2
#     Edge 12, Type (0, 0), BuildingBlock: MIFKUJ_clean_linker_0, # of connection points: 2
#     Edge 13, Type (0, 0), BuildingBlock: MIFKUJ_clean_linker_0, # of connection points: 2
#     Edge 14, Type (0, 0), BuildingBlock: MIFKUJ_clean_linker_0, # of connection points: 2
#     Edge 15, Type (0, 0), BuildingBlock: MIFKUJ_clean_linker_0, # of connection points: 2
# Relax obj value: 0.278
# Max RMSD: 0.253
# Mean RMSD: 0.248
data_MOF--net-lcy--node1-VOLQOD_clean_sbu_1--edge1-MIFKUJ_clean_linker_0
_symmetry_space_group_name_H-M    P1
_symmetry_Int_Tables_number       1
_symmetry_cell_setting            triclinic
loop_
_symmetry_equiv_pos_as_xyz
'x, y, z'
_cell_length_a     34.158421
_cell_length_b     33.968335
_cell_length_c     34.242305
_cell_angle_alpha  91.82409
_cell_angle_beta   88.481983
_cell_angle_gamma 92.812362
loop_
_atom_site_label
_atom_site_type_symbol
_atom_site_fract_x
_atom_site_fract_y
_atom_site_fract_z
_atom_type_partial_charge
O0 O 0.41545 0.33268 0.45602 0.0
Zn1 Zn 0.37676 0.3316 0.41266 0.0
O2 O 0.37995 0.3801 0.38429 0.0
Zn3 Zn 0.32948 0.40363 0.38565 0.0
Zn4 Zn 0.4179 0.41613 0.40884 0.0
Zn5 Zn 0.39586 0.36972 0.33039 0.0
O6 O 0.31563 0.42125 0.33215 0.0
O7 O 0.35435 0.38481 0.29415 0.0
O8 O 0.32145 0.31782 0.4305 0.0
O9 O 0.28798 0.3636 0.40292 0.0
O10 O 0.32873 0.44867 0.4253 0.0
O11 O 0.39092 0.45645 0.44252 0.0
O12 O 0.45169 0.44331 0.36829 0.0
O13 O 0.39219 0.28658 0.37739 0.0
O14 O 0.44261 0.40462 0.31548 0.0
O15 O 0.4071 0.31284 0.32007 0.0
C16 C 0.44601 0.35498 0.46167 0.0
C17 C 0.32643 0.40818 0.29844 0.0
C18 C 0.35537 0.46599 0.44584 0.0
C19 C 0.28903 0.33197 0.4218 0.0
C20 C 0.45978 0.43413 0.33274 0.0
C21 C 0.40377 0.28316 0.34191 0.0
O22 O 0.4521 0.38679 0.44327 0.0
O23 O 0.91562 0.05796 0.66922 0.0
Zn24 Zn 0.88347 0.10486 0.65908 0.0
O25 O 0.86318 0.10217 0.60691 0.0
Zn26 Zn 0.86918 0.15341 0.58345 0.0
Zn27 Zn 0.89291 0.06575 0.576 0.0
Zn28 Zn 0.80879 0.0828 0.60903 0.0
O29 O 0.81653 0.17326 0.56984 0.0
O30 O 0.7756 0.12421 0.58885 0.0
O31 O 0.91323 0.15596 0.66993 0.0
O32 O 0.89606 0.19222 0.62074 0.0
O33 O 0.90629 0.15224 0.53668 0.0
O34 O 0.93227 0.09398 0.54147 0.0
O35 O 0.85785 0.03072 0.54372 0.0
O36 O 0.83902 0.10232 0.69758 0.0
O37 O 0.79978 0.03444 0.57402 0.0
O38 O 0.78984 0.0732 0.66453 0.0
C39 C 0.92608 0.0299 0.64631 0.0
C40 C 0.78187 0.15802 0.57426 0.0
C41 C 0.93208 0.12778 0.52646 0.0
C42 C 0.91358 0.18865 0.65273 0.0
C43 C 0.82212 0.01898 0.54802 0.0
C44 C 0.80452 0.08661 0.69638 0.0
O45 O 0.9192 0.02965 0.61003 0.0
O46 O 0.0592 0.66152 0.8264 0.0
Zn47 Zn 0.07528 0.62005 0.86336 0.0
O48 O 0.12889 0.6292 0.88032 0.0
Zn49 Zn 0.15711 0.58087 0.87404 0.0
Zn50 Zn 0.15394 0.66805 0.84734 0.0
Zn51 Zn 0.12939 0.6495 0.93438 0.0
O52 O 0.17815 0.56528 0.92571 0.0
O53 O 0.15511 0.61079 0.96725 0.0
O54 O 0.06651 0.56578 0.83972 0.0
O55 O 0.12137 0.53686 0.85317 0.0
O56 O 0.20016 0.58582 0.83253 0.0
O57 O 0.19106 0.64449 0.80845 0.0
O58 O 0.1834 0.70846 0.87843 0.0
O59 O 0.03869 0.62515 0.90913 0.0
O60 O 0.16275 0.70068 0.93984 0.0
O61 O 0.07378 0.65604 0.95566 0.0
C62 C 0.07866 0.6916 0.81373 0.0
C63 C 0.17396 0.57976 0.96033 0.0
C64 C 0.20823 0.61209 0.8074 0.0
C65 C 0.08711 0.53552 0.83926 0.0
C66 C 0.18325 0.71942 0.9142 0.0
C67 C 0.04107 0.64207 0.94272 0.0
O68 O 0.1149 0.69737 0.82025 0.0
O69 O 0.54076 0.90464 0.16716 0.0
Zn70 Zn 0.58231 0.86616 0.15369 0.0
O71 O 0.60732 0.87478 0.10289 0.0
Zn72 Zn 0.60131 0.82726 0.06923 0.0
Zn73 Zn 0.58292 0.91826 0.08009 0.0
Zn74 Zn 0.66249 0.88905 0.10875 0.0
O75 O 0.65405 0.80797 0.0498 0.0
O76 O 0.69436 0.84664 0.08555 0.0
O77 O 0.56104 0.81064 0.15783 0.0
O78 O 0.57687 0.7828 0.10038 0.0
O79 O 0.56429 0.83603 0.02543 0.0
O80 O 0.54924 0.89832 0.03681 0.0
O81 O 0.62243 0.95699 0.05806 0.0
O82 O 0.62158 0.87465 0.19544 0.0
O83 O 0.67898 0.93751 0.07917 0.0
O84 O 0.67675 0.89515 0.16506 0.0
C85 C 0.5327 0.93648 0.1512 0.0
C86 C 0.68837 0.81763 0.06174 0.0
C87 C 0.54501 0.86588 0.01748 0.0
C88 C 0.56199 0.78055 0.13477 0.0
C89 C 0.65951 0.96109 0.0601 0.0
C90 C 0.65735 0.8868 0.1962 0.0
O91 O 0.54857 0.94627 0.11869 0.0
H92 H 0.20953 0.50898 0.95973 0.0
H93 H 0.23719 0.47723 0.01527 0.0
H94 H 0.20548 0.575 0.09111 0.0
H95 H 0.17804 0.60701 0.03604 0.0
H96 H 0.28018 0.55229 0.10345 0.0
H97 H 0.14991 0.49114 0.09041 0.0
H98 H 0.09679 0.45481 0.05506 0.0
H99 H 0.17026 0.35685 0.03459 0.0
H100 H 0.22403 0.39285 0.0694 0.0
H101 H 0.28439 0.47399 0.29185 0.0
H102 H 0.25998 0.50033 0.23188 0.0
H103 H 0.30287 0.40072 0.16541 0.0
H104 H 0.32779 0.37434 0.22508 0.0
H105 H 0.22649 0.42145 0.14542 0.0
H106 H 0.35498 0.47914 0.16108 0.0
H107 H 0.40857 0.51339 0.1972 0.0
H108 H 0.3413 0.61667 0.21082 0.0
H109 H 0.28669 0.58255 0.17562 0.0
C110 C 0.20853 0.52378 0.9882 0.0
C111 C 0.19138 0.56045 -0.00655 0.0
C112 C 0.22426 0.50555 0.01989 0.0
C113 C 0.2231 0.5237 0.05729 0.0
C114 C 0.20667 0.56055 0.06246 0.0
C115 C 0.19082 0.57869 0.03093 0.0
C116 C 0.23834 0.50416 0.09139 0.0
C117 C 0.2682 0.52387 0.11286 0.0
C118 C 0.22346 0.46656 0.10291 0.0
C119 C 0.19111 0.44486 0.08212 0.0
C120 C 0.15484 0.46198 0.07809 0.0
C121 C 0.1246 0.44143 0.05821 0.0
C122 C 0.13019 0.40359 0.04249 0.0
C123 C 0.166 0.38619 0.04672 0.0
C124 C 0.19635 0.40664 0.06654 0.0
C125 C 0.28822 0.45745 0.26456 0.0
C126 C 0.30817 0.4222 0.26314 0.0
C127 C 0.27444 0.47262 0.23035 0.0
C128 C 0.28001 0.45259 0.19431 0.0
C129 C 0.29842 0.41659 0.19299 0.0
C130 C 0.31271 0.40168 0.22708 0.0
C131 C 0.26771 0.46994 0.15783 0.0
C132 C 0.23856 0.4498 0.13589 0.0
C133 C 0.28345 0.507 0.1457 0.0
C134 C 0.31647 0.52804 0.16621 0.0
C135 C 0.3514 0.50901 0.17213 0.0
C136 C 0.38199 0.52842 0.19242 0.0
C137 C 0.37826 0.56711 0.20656 0.0
C138 C 0.34403 0.58659 0.20009 0.0
C139 C 0.31323 0.56721 0.17996 0.0
H140 H 0.40196 0.58206 0.22236 0.0
H141 H 0.10674 0.38772 0.02711 0.0
H142 H 0.73588 0.89333 0.20965 0.0
H143 H 0.76738 0.90067 0.27292 0.0
H144 H 0.65374 0.89808 0.33131 0.0
H145 H 0.62217 0.88954 0.26846 0.0
H146 H 0.7635 0.95902 0.32299 0.0
H147 H 0.65754 0.86309 0.42181 0.0
H148 H 0.61756 0.80075 0.41687 0.0
H149 H 0.69274 0.75945 0.32343 0.0
H150 H 0.73351 0.82125 0.32816 0.0
H151 H 0.74492 -0.00272 0.53601 0.0
H152 H 0.71904 0.95862 0.48006 0.0
H153 H 0.83675 0.93478 0.44083 0.0
H154 H 0.86294 0.97314 0.49636 0.0
H155 H 0.73029 0.8801 0.43997 0.0
H156 H 0.84232 0.96886 0.34813 0.0
H157 H 0.88423 0.03006 0.35305 0.0
H158 H 0.79902 0.08241 0.43036 0.0
H159 H 0.7564 0.0218 0.42534 0.0
C160 C 0.71766 0.89406 0.23602 0.0
C161 C 0.6766 0.89094 0.23416 0.0
C162 C 0.73567 0.89809 0.27209 0.0
C163 C 0.71291 0.89931 0.3068 0.0
C164 C 0.6719 0.89614 0.30497 0.0
C165 C 0.6539 0.89163 0.26899 0.0
C166 C 0.73176 0.90741 0.34471 0.0
C167 C 0.75685 0.94116 0.34826 0.0
C168 C 0.72252 0.88454 0.3779 0.0
C169 C 0.6984 0.84701 0.37516 0.0
C170 C 0.66567 0.84064 0.40034 0.0
C171 C 0.64284 0.8054 0.39755 0.0
C172 C 0.65254 0.77621 0.36978 0.0
C173 C 0.68517 0.78214 0.34483 0.0
C174 C 0.70812 0.8173 0.34752 0.0
C175 C 0.76524 0.98285 0.51611 0.0
C176 C 0.80596 0.9891 0.51994 0.0
C177 C 0.75039 0.96058 0.48438 0.0
C178 C 0.77613 0.94449 0.45631 0.0
C179 C 0.81657 0.94731 0.46222 0.0
C180 C 0.83142 0.96951 0.49379 0.0
C181 C 0.76153 0.93151 0.41777 0.0
C182 C 0.73723 0.89724 0.41429 0.0
C183 C 0.77165 0.95362 0.38441 0.0
C184 C 0.79647 0.99066 0.38673 0.0
C185 C 0.8325 0.99352 0.36603 0.0
C186 C 0.85637 0.02809 0.36884 0.0
C187 C 0.84437 0.06005 0.39213 0.0
C188 C 0.80836 0.05759 0.41246 0.0
C189 C 0.78435 0.02313 0.40966 0.0
H190 H 0.86293 0.08674 0.39435 0.0
H191 H 0.63481 0.74896 0.36765 0.0
H192 H 0.24457 0.66441 0.75772 0.0
H193 H 0.27902 0.64907 0.69607 0.0
H194 H 0.26442 0.52484 0.7185 0.0
H195 H 0.23112 0.53999 0.78069 0.0
H196 H 0.3321 0.53908 0.68309 0.0
H197 H 0.19857 0.57275 0.66337 0.0
H198 H 0.14228 0.61556 0.66904 0.0
H199 H 0.20748 0.70514 0.6056 0.0
H200 H 0.26437 0.663 0.59998 0.0
H201 H 0.28158 0.48065 0.47348 0.0
H202 H 0.26417 0.51638 0.53378 0.0
H203 H 0.38592 0.55127 0.55026 0.0
H204 H 0.40381 0.51457 0.49043 0.0
H205 H 0.26969 0.5879 0.56581 0.0
H206 H 0.40598 0.54321 0.64624 0.0
H207 H 0.45569 0.4928 0.6411 0.0
H208 H 0.37347 0.41232 0.58355 0.0
H209 H 0.32318 0.46204 0.58885 0.0
C210 C 0.24938 0.63385 0.74985 0.0
C211 C 0.23472 0.60335 0.77381 0.0
C212 C 0.26894 0.62515 0.71456 0.0
C213 C 0.27345 0.58579 0.70228 0.0
C214 C 0.26113 0.55543 0.72734 0.0
C215 C 0.24206 0.56413 0.7629 0.0
C216 C 0.28803 0.57589 0.6622 0.0
C217 C 0.31876 0.55012 0.65746 0.0
C218 C 0.27015 0.58975 0.62872 0.0
C219 C 0.23585 0.61493 0.63165 0.0
C220 C 0.20097 0.60167 0.65083 0.0
C221 C 0.16896 0.6258 0.65402 0.0
C222 C 0.17135 0.6631 0.6378 0.0
C223 C 0.20571 0.67628 0.61822 0.0
C224 C 0.23784 0.65228 0.61501 0.0
C225 C 0.30463 0.49655 0.48945 0.0
C226 C 0.34417 0.49414 0.47754 0.0
C227 C 0.29459 0.51709 0.52392 0.0
C228 C 0.32384 0.53577 0.54693 0.0
C229 C 0.36298 0.53634 0.53333 0.0
C230 C 0.37313 0.51542 0.49908 0.0
C231 C 0.31359 0.55092 0.58675 0.0
C232 C 0.28365 0.57762 0.59144 0.0
C233 C 0.33127 0.53687 0.62025 0.0
C234 C 0.36105 0.50652 0.61751 0.0
C235 C 0.39853 0.51471 0.63261 0.0
C236 C 0.42678 0.48626 0.62966 0.0
C237 C 0.41779 0.44944 0.61187 0.0
C238 C 0.38045 0.4409 0.59719 0.0
C239 C 0.35207 0.4692 0.60014 0.0
H240 H 0.43973 0.4275 0.60955 0.0
H241 H 0.14656 0.68176 0.64035 0.0
H242 H 0.63285 0.02906 0.03263 0.0
H243 H 0.65888 0.06357 0.97524 0.0
H244 H 0.75715 0.9882 0.96899 0.0
H245 H 0.73235 0.95507 0.02728 0.0
H246 H 0.77928 0.05469 0.94044 0.0
H247 H 0.67018 0.96262 0.92246 0.0
H248 H 0.60327 0.93436 0.93489 0.0
H249 H 0.555 0.04098 0.89781 0.0
H250 H 0.6217 0.07012 0.88575 0.0
H251 H 0.75427 0.02584 0.71803 0.0
H252 H 0.72773 0.01413 0.78408 0.0
H253 H 0.77761 0.12725 0.8236 0.0
H254 H 0.80566 0.13809 0.75828 0.0
H255 H 0.68073 0.04476 0.83609 0.0
H256 H 0.81637 0.1204 0.91191 0.0
H257 H 0.88649 0.13545 0.89692 0.0
H258 H 0.88723 0.03894 0.81285 0.0
H259 H 0.81737 0.02287 0.82786 0.0
C260 C 0.66075 0.0209 0.0198 0.0
C261 C 0.68027 0.98899 0.03388 0.0
C262 C 0.67545 0.04044 0.98692 0.0
C263 C 0.70916 0.02747 0.96709 0.0
C264 C 0.73087 -0.00153 0.98362 0.0
C265 C 0.71667 0.97954 0.01701 0.0
C266 C 0.71899 0.04004 0.92689 0.0
C267 C 0.75765 0.05297 0.91773 0.0
C268 C 0.69108 0.03629 0.8969 0.0
C269 C 0.65091 0.01871 0.90364 0.0
C270 C 0.64529 0.98012 0.91718 0.0
C271 C 0.60742 0.96394 0.92416 0.0
C272 C 0.57491 0.9859 0.91725 0.0
C273 C 0.58021 0.02404 0.90323 0.0
C274 C 0.61804 0.04041 0.89633 0.0
C275 C 0.7589 0.0484 0.74074 0.0
C276 C 0.78242 0.08251 0.73348 0.0
C277 C 0.74375 0.04176 0.77838 0.0
C278 C 0.75154 0.06944 0.80891 0.0
C279 C 0.77217 0.10505 0.8007 0.0
C280 C 0.78803 0.11127 0.76343 0.0
C281 C 0.74092 0.05978 0.84977 0.0
C282 C 0.70218 0.04722 0.85896 0.0
C283 C 0.76925 0.06184 0.87936 0.0
C284 C 0.81152 0.07078 0.8707 0.0
C285 C 0.83156 0.1023 0.89037 0.0
C286 C 0.87125 0.11099 0.88187 0.0
C287 C 0.89126 0.08824 0.85387 0.0
C288 C 0.87167 0.05661 0.83445 0.0
C289 C 0.83203 0.0477 0.84294 0.0
H290 H 0.92196 0.09508 0.84727 0.0
H291 H 0.54561 0.97333 0.92268 0.0
H292 H 0.94065 0.19567 0.48537 0.0
H293 H 0.00191 0.22474 0.45818 0.0
H294 H 0.06168 0.12066 0.48586 0.0
H295 H 0.00067 0.09111 0.51273 0.0
H296 H 0.09173 0.19136 0.52163 0.0
H297 H 0.05658 0.14035 0.39489 0.0
H298 H 0.0138 0.1283 0.33848 0.0
H299 H 0.01211 0.25289 0.32147 0.0
H300 H 0.05442 0.26575 0.3782 0.0
H301 H 0.2797 0.2591 0.45347 0.0
H302 H 0.21852 0.2206 0.46476 0.0
H303 H 0.15317 0.3157 0.42316 0.0
H304 H 0.21429 0.35423 0.41104 0.0
H305 H 0.12674 0.2464 0.39218 0.0
H306 H 0.15632 0.29867 0.52011 0.0
H307 H 0.19667 0.31311 0.57796 0.0
H308 H 0.20582 0.18914 0.59445 0.0
H309 H 0.16594 0.17396 0.53634 0.0
C310 C 0.96655 0.17847 0.48467 0.0
C311 C 0.96591 0.14133 0.50177 0.0
C312 C 0.00149 0.1951 0.46903 0.0
C313 C 0.03622 0.17489 0.47037 0.0
C314 C 0.03509 0.13667 0.48472 0.0
C315 C 0.00013 0.11984 0.49997 0.0
C316 C 0.0743 0.19568 0.46198 0.0
C317 C 0.09982 0.20274 0.49312 0.0
C318 C 0.08389 0.21163 0.42517 0.0
C319 C 0.05838 0.20403 0.39107 0.0
C320 C 0.04678 0.16522 0.37938 0.0
C321 C 0.02268 0.15823 0.34728 0.0
C322 C 0.01016 0.18982 0.32646 0.0
C323 C 0.02179 0.22846 0.33766 0.0
C324 C 0.04587 0.23561 0.36976 0.0
C325 C 0.25234 0.27202 0.447 0.0
C326 C 0.2519 0.30981 0.43145 0.0
C327 C 0.21738 0.24995 0.45348 0.0
C328 C 0.18133 0.26541 0.44499 0.0
C329 C 0.18073 0.3032 0.42977 0.0
C330 C 0.21568 0.32525 0.42309 0.0
C331 C 0.14423 0.24205 0.45187 0.0
C332 C 0.11883 0.2347 0.42058 0.0
C333 C 0.13441 0.22617 0.48873 0.0
C334 C 0.15852 0.23519 0.52361 0.0
C335 C 0.16724 0.27449 0.53586 0.0
C336 C 0.18996 0.28281 0.56874 0.0
C337 C 0.2039 0.25206 0.58979 0.0
C338 C 0.19506 0.21293 0.57806 0.0
C339 C 0.17238 0.20445 0.54518 0.0
H340 H 0.22147 0.25856 0.61526 0.0
H341 H 0.99152 0.18434 0.30161 0.0
H342 H 0.01317 0.68542 0.76846 0.0
H343 H 0.98093 0.7401 0.73859 0.0
H344 H 0.06563 0.82318 0.79003 0.0
H345 H 0.0985 0.76933 0.81851 0.0
H346 H 0.97431 0.83694 0.79736 0.0
H347 H 0.08869 0.81053 0.70959 0.0
H348 H 0.12612 0.76495 0.66721 0.0
H349 H 0.02435 0.73873 0.59831 0.0
H350 H 0.98617 0.78369 0.64076 0.0
H351 H 0.96433 0.02336 0.71508 0.0
H352 H 0.98605 0.96273 0.74274 0.0
H353 H 0.9418 0.8956 0.6427 0.0
H354 H 0.92237 0.95597 0.6141 0.0
H355 H 0.00508 0.86765 0.65888 0.0
H356 H 0.89245 0.89977 0.73595 0.0
H357 H 0.84943 0.94034 0.77792 0.0
H358 H 0.93701 0.9501 0.8658 0.0
H359 H 0.98083 0.9101 0.82413 0.0
C360 C 0.02481 0.71538 0.77318 0.0
C361 C 0.05852 0.7232 0.79529 0.0
C362 C 0.0064 0.74641 0.75634 0.0
C363 C 0.02103 0.78539 0.76244 0.0
C364 C 0.05401 0.7932 0.78524 0.0
C365 C 0.07289 0.76238 0.80112 0.0
C366 C 0.00345 0.81849 0.74392 0.0
C367 C 0.98084 0.8439 0.7671 0.0
C368 C 0.01137 0.82654 0.70431 0.0
C369 C 0.0345 0.80002 0.67859 0.0
C370 C 0.07422 0.79473 0.68564 0.0
C371 C 0.09558 0.76909 0.66157 0.0
C372 C 0.07759 0.74887 0.63016 0.0
C373 C 0.03822 0.75435 0.6227 0.0
C374 C 0.01672 0.7799 0.64674 0.0
C375 C 0.9597 -0.00433 0.69891 0.0
C376 C 0.94186 0.9944 0.66242 0.0
C377 C 0.9717 0.96098 0.71487 0.0
C378 C 0.9648 0.9244 0.69518 0.0
C379 C 0.94749 0.92336 0.65847 0.0
C380 C 0.93645 0.95799 0.64212 0.0
C381 C 0.97598 0.88716 0.71238 0.0
C382 C -0.00234 0.86083 0.68899 0.0
C383 C 0.96625 0.87784 0.75164 0.0
C384 C 0.94006 0.90214 0.77675 0.0
C385 C 0.90267 0.91081 0.7641 0.0
C386 C 0.87812 0.93367 0.78786 0.0
C387 C 0.89049 0.94777 0.82449 0.0
C388 C 0.92747 0.93913 0.83741 0.0
C389 C 0.95216 0.91634 0.81375 0.0
H390 H 0.87138 0.96529 0.84292 0.0
H391 H 0.09417 0.72905 0.61154 0.0
H392 H 0.22124 0.73128 0.9832 0.0
H393 H 0.27955 0.77481 -0.00647 0.0
H394 H 0.266 0.82437 0.88046 0.0
H395 H 0.2082 0.7807 0.86982 0.0
H396 H 0.33516 0.79357 0.88508 0.0
H397 H 0.26086 0.88284 0.9623 0.0
H398 H 0.21374 0.90385 0.01368 0.0
H399 H 0.28618 0.86022 0.10166 0.0
H400 H 0.33348 0.83841 0.0508 0.0
H401 H 0.50111 0.9239 0.99074 0.0
H402 H 0.43683 0.91482 0.96152 0.0
H403 H 0.4499 0.78914 0.95375 0.0
H404 H 0.51415 0.79779 0.98313 0.0
H405 H 0.37841 0.8743 0.00061 0.0
H406 H 0.39409 0.74961 0.8811 0.0
H407 H 0.44091 0.73079 0.82855 0.0
H408 H 0.48444 0.85118 0.82173 0.0
H409 H 0.4375 0.87086 0.87382 0.0
C410 C 0.2299 0.75248 0.96125 0.0
C411 C 0.21071 0.75227 0.92552 0.0
C412 C 0.2632 0.77734 0.96712 0.0
C413 C 0.27723 0.80255 0.93754 0.0
C414 C 0.25581 0.80491 0.90345 0.0
C415 C 0.22282 0.77998 0.89748 0.0
C416 C 0.317 0.82158 0.93957 0.0
C417 C 0.34454 0.81166 0.91011 0.0
C418 C 0.32898 0.84568 0.97186 0.0
C419 C 0.30065 0.8588 0.00265 0.0
C420 C 0.26662 0.87746 -0.00742 0.0
C421 C 0.2399 0.88956 0.02163 0.0
C422 C 0.24694 0.88333 0.0609 0.0
C423 C 0.28076 0.86504 0.07122 0.0
C424 C 0.30758 0.85286 0.04229 0.0
C425 C 0.49082 0.89437 0.98186 0.0
C426 C 0.51235 0.86143 0.99004 0.0
C427 C 0.45406 0.88931 0.9652 0.0
C428 C 0.43854 0.85135 0.95594 0.0
C429 C 0.46151 0.81874 0.96056 0.0
C430 C 0.49826 0.82374 0.97738 0.0
C431 C 0.39665 0.84507 0.94683 0.0
C432 C 0.36879 0.85709 0.9751 0.0
C433 C 0.38429 0.82321 0.91327 0.0
C434 C 0.41237 0.81166 0.88158 0.0
C435 C 0.41348 0.77212 0.86825 0.0
C436 C 0.44009 0.76129 0.83856 0.0
C437 C 0.46569 0.78976 0.82187 0.0
C438 C 0.46468 0.82914 0.83477 0.0
C439 C 0.43811 0.84013 0.86442 0.0
H440 H 0.48627 0.78131 0.7989 0.0
H441 H 0.22621 0.89271 0.08335 0.0
H442 H 0.41997 0.26222 0.26569 0.0
H443 H 0.43262 0.19656 0.23877 0.0
H444 H 0.42015 0.14912 0.35406 0.0
H445 H 0.40782 0.21481 0.38144 0.0
H446 H 0.48356 0.12202 0.31394 0.0
H447 H 0.3475 0.13204 0.29158 0.0
H448 H 0.28847 0.16315 0.26979 0.0
H449 H 0.33411 0.16174 0.15173 0.0
H450 H 0.39371 0.13115 0.1729 0.0
H451 H 0.50247 0.9321 0.22602 0.0
H452 H 0.46962 0.98391 0.26361 0.0
H453 H 0.47389 0.05622 0.16213 0.0
H454 H 0.50601 0.00464 0.12426 0.0
H455 H 0.4061 0.06377 0.20393 0.0
H456 H 0.54587 0.06446 0.2287 0.0
H457 H 0.6058 0.03451 0.24996 0.0
H458 H 0.55307 0.01666 0.36365 0.0
H459 H 0.49258 0.046 0.34283 0.0
C460 C 0.41996 0.23788 0.28538 0.0
C461 C 0.41261 0.2437 0.32566 0.0
C462 C 0.42693 0.20035 0.26991 0.0
C463 C 0.42657 0.16796 0.29438 0.0
C464 C 0.42016 0.17374 0.3347 0.0
C465 C 0.41306 0.21128 0.35022 0.0
C466 C 0.43378 0.12828 0.27768 0.0
C467 C 0.46612 0.10881 0.29047 0.0
C468 C 0.41117 0.11137 0.24686 0.0
C469 C 0.37521 0.1295 0.2339 0.0
C470 C 0.34508 0.1386 0.26101 0.0
C471 C 0.31149 0.15611 0.24877 0.0
C472 C 0.30757 0.16447 0.20941 0.0
C473 C 0.33719 0.15525 0.18221 0.0
C474 C 0.37086 0.13777 0.19431 0.0
C475 C 0.49569 0.9587 0.21149 0.0
C476 C 0.5074 0.96453 0.17231 0.0
C477 C 0.47703 0.98828 0.23305 0.0
C478 C 0.47 0.02408 0.21577 0.0
C479 C 0.4792 0.02883 0.17601 0.0
C480 C 0.49776 -0.00064 0.15447 0.0
C481 C 0.45648 0.05814 0.23946 0.0
C482 C 0.42297 0.07656 0.22799 0.0
C483 C 0.47807 0.07415 0.27145 0.0
C484 C 0.51456 0.05692 0.28406 0.0
C485 C 0.54697 0.05387 0.25814 0.0
C486 C 0.58104 0.03705 0.27011 0.0
C487 C 0.58319 0.02355 0.30809 0.0
C488 C 0.55132 0.02702 0.33421 0.0
C489 C 0.51714 0.04374 0.32234 0.0
H490 H 0.60958 0.01051 0.3173 0.0
H491 H 0.28155 0.17804 0.19999 0.0
H492 H 0.78105 0.23488 0.55187 0.0
H493 H 0.72364 0.27164 0.53694 0.0
H494 H 0.64848 0.16823 0.5576 0.0
H495 H 0.70536 0.13127 0.57219 0.0
H496 H 0.62944 0.2046 0.49189 0.0
H497 H 0.65601 0.24087 0.62609 0.0
H498 H 0.6969 0.26652 0.68037 0.0
H499 H 0.71338 0.37792 0.62488 0.0
H500 H 0.67301 0.35272 0.56995 0.0
H501 H 0.44646 0.28582 0.5005 0.0
H502 H 0.50361 0.25598 0.52615 0.0
H503 H 0.57477 0.36097 0.50112 0.0
H504 H 0.51774 0.39138 0.47578 0.0
H505 H 0.59676 0.32558 0.56867 0.0
H506 H 0.57035 0.28964 0.43466 0.0
H507 H 0.52904 0.26454 0.38047 0.0
H508 H 0.51292 0.1526 0.43495 0.0
H509 H 0.55356 0.17729 0.48989 0.0
C510 C 0.75232 0.21992 0.55302 0.0
C511 C 0.74779 0.18019 0.56339 0.0
C512 C 0.71957 0.24101 0.54469 0.0
C513 C 0.68184 0.22271 0.5466 0.0
C514 C 0.67736 0.18289 0.55605 0.0
C515 C 0.70995 0.16186 0.5645 0.0
C516 C 0.64679 0.24486 0.53889 0.0
C517 C 0.62206 0.23078 0.50897 0.0
C518 C 0.63772 0.2795 0.56065 0.0
C519 C 0.66184 0.29477 0.59372 0.0
C520 C 0.66862 0.27073 0.6253 0.0
C521 C 0.69165 0.28521 0.65622 0.0
C522 C 0.70782 0.32379 0.65602 0.0
C523 C 0.70089 0.34802 0.62496 0.0
C524 C 0.67792 0.33366 0.59394 0.0
C525 C 0.47399 0.30302 0.50131 0.0
C526 C 0.4777 0.34069 0.48532 0.0
C527 C 0.50664 0.28585 0.5159 0.0
C528 C 0.54348 0.30597 0.51458 0.0
C529 C 0.54658 0.3449 0.50206 0.0
C530 C 0.51393 0.36216 0.4875 0.0
C531 C 0.57927 0.28497 0.52207 0.0
C532 C 0.60418 0.29935 0.5517 0.0
C533 C 0.58863 0.25062 0.49996 0.0
C534 C 0.56468 0.23546 0.46661 0.0
C535 C 0.55776 0.25976 0.43525 0.0
C536 C 0.53448 0.24561 0.40438 0.0
C537 C 0.51828 0.20703 0.40431 0.0
C538 C 0.52543 0.1825 0.43508 0.0
C539 C 0.54859 0.19656 0.46609 0.0
H540 H 0.50028 0.19611 0.38038 0.0
H541 H 0.72564 0.33495 0.67999 0.0
H542 H 0.12852 0.47389 0.81052 0.0
H543 H 0.10305 0.41445 0.77592 0.0
H544 H 0.98518 0.45332 0.79292 0.0
H545 H 0.01062 0.51355 0.82608 0.0
H546 H 0.05834 0.35501 0.79385 0.0
H547 H 0.92897 0.42552 0.71804 0.0
H548 H 0.9138 0.48957 0.69154 0.0
H549 H 0.0367 0.51888 0.675 0.0
H550 H 0.05259 0.45481 0.70086 0.0
H551 H 0.92437 0.20498 0.73002 0.0
H552 H 0.95759 0.26337 0.75957 0.0
H553 H 0.98508 0.30774 0.64472 0.0
H554 H 0.94973 0.25039 0.61522 0.0
H555 H 0.96417 0.36455 0.68711 0.0
H556 H 0.05563 0.2662 0.70445 0.0
H557 H 0.07907 0.20225 0.72364 0.0
H558 H 0.04738 0.22874 0.84344 0.0
H559 H 0.02327 0.29265 0.82491 0.0
C560 C 0.09716 0.46968 0.80696 0.0
C561 C 0.07155 0.49846 0.82071 0.0
C562 C 0.08265 0.4357 0.78722 0.0
C563 C 0.04229 0.42974 0.78123 0.0
C564 C 0.01655 0.45778 0.79628 0.0
C565 C 0.03108 0.49208 0.81541 0.0
C566 C 0.02703 0.39429 0.75916 0.0
C567 C 0.03785 0.35707 0.77041 0.0
C568 C 0.00129 0.39702 0.72775 0.0
C569 C 0.99194 0.43549 0.71175 0.0
C570 C 0.95274 0.44556 0.7086 0.0
C571 C 0.94402 0.48189 0.69371 0.0
C572 C 0.97427 0.50833 0.68171 0.0
C573 C 0.0133 0.49844 0.68444 0.0
C574 C 0.02218 0.46214 0.69925 0.0
C575 C 0.93764 0.22718 0.71115 0.0
C576 C 0.93461 0.22329 0.6704 0.0
C577 C 0.95685 0.26041 0.72801 0.0
C578 C 0.97454 0.28967 0.70438 0.0
C579 C 0.97167 0.28561 0.66358 0.0
C580 C 0.95155 0.25286 0.64675 0.0
C581 C 0.99483 0.32511 0.72229 0.0
C582 C 0.9849 0.3624 0.71031 0.0
C583 C 0.02271 0.32244 0.75187 0.0
C584 C 0.03738 0.2841 0.76323 0.0
C585 C 0.05344 0.25829 0.73485 0.0
C586 C 0.06688 0.22206 0.74562 0.0
C587 C 0.06464 0.21141 0.78472 0.0
C588 C 0.04907 0.23702 0.81316 0.0
C589 C 0.03556 0.27328 0.80255 0.0
H590 H 0.07504 0.18333 0.79299 0.0
H591 H 0.96745 0.53644 0.67023 0.0
H592 H 0.02776 0.69682 0.00156 0.0
H593 H 0.96385 0.71608 0.02754 0.0
H594 H 0.90687 0.62221 0.959 0.0
H595 H 0.97038 0.60317 0.93258 0.0
H596 H 0.87758 0.6908 0.94474 0.0
H597 H 0.90436 0.62087 0.05874 0.0
H598 H 0.94269 0.60136 0.11435 0.0
H599 H 0.9438 0.71997 0.1617 0.0
H600 H 0.90594 0.74035 0.10608 0.0
H601 H 0.68872 0.74829 0.01776 0.0
H602 H 0.74542 0.70862 0.00158 0.0
H603 H 0.82082 0.79446 0.06223 0.0
H604 H 0.76495 0.83383 0.07866 0.0
H605 H 0.83569 0.72042 0.08184 0.0
H606 H 0.81782 0.79159 0.96378 0.0
H607 H 0.78092 0.81235 0.90764 0.0
H608 H 0.76432 0.69163 0.86797 0.0
H609 H 0.80075 0.67012 0.9242 0.0
C610 C 0.00171 0.67966 -0.00716 0.0
C611 C 0.00406 0.64884 0.96466 0.0
C612 C 0.96518 0.69064 0.00774 0.0
C613 C 0.93059 0.67062 -0.00495 0.0
C614 C 0.93316 0.63819 0.96896 0.0
C615 C 0.96952 0.62737 0.95393 0.0
C616 C 0.8918 0.68623 0.00538 0.0
C617 C 0.86802 0.69644 0.97478 0.0
C618 C 0.87974 0.69432 0.0445 0.0
C619 C 0.90253 0.6822 0.07804 0.0
C620 C 0.91304 0.64288 0.08084 0.0
C621 C 0.93464 0.63165 0.1124 0.0
C622 C 0.94574 0.65942 0.1415 0.0
C623 C 0.9352 0.69849 0.13913 0.0
C624 C 0.91362 0.70988 0.10761 0.0
C625 C 0.71742 0.75877 0.02742 0.0
C626 C 0.72224 0.79422 0.0495 0.0
C627 C 0.74973 0.73607 0.01823 0.0
C628 C 0.78726 0.74863 0.03083 0.0
C629 C 0.79208 0.78407 0.05254 0.0
C630 C 0.76001 0.80666 0.0617 0.0
C631 C 0.82202 0.72551 0.02119 0.0
C632 C 0.84501 0.71401 0.05187 0.0
C633 C 0.8335 0.71632 0.98216 0.0
C634 C 0.81154 0.72922 0.94844 0.0
C635 C 0.80599 0.76945 0.94327 0.0
C636 C 0.78523 0.78136 0.9114 0.0
C637 C 0.77016 0.75332 0.88433 0.0
C638 C 0.77593 0.71331 0.88902 0.0
C639 C 0.79663 0.70125 0.92086 0.0
H640 H 0.75412 0.76259 0.85967 0.0
H641 H 0.96246 0.65067 0.16592 0.0
H642 H 0.55381 0.71002 0.0938 0.0
H643 H 0.54212 0.64447 0.12099 0.0
H644 H 0.53189 0.69727 0.23678 0.0
H645 H 0.54306 0.76262 0.21015 0.0
H646 H 0.58721 0.63776 0.22861 0.0
H647 H 0.45437 0.66274 0.19588 0.0
H648 H 0.39933 0.67594 0.1539 0.0
H649 H 0.4187 0.56957 0.08659 0.0
H650 H 0.47449 0.55616 0.12765 0.0
H651 H 0.49507 0.50416 0.35715 0.0
H652 H 0.52282 0.55587 0.31589 0.0
H653 H 0.50948 0.47858 0.21414 0.0
H654 H 0.48075 0.42672 0.25521 0.0
H655 H 0.474 0.54396 0.20498 0.0
H656 H 0.60119 0.51435 0.24335 0.0
H657 H 0.65344 0.49934 0.28809 0.0
H658 H 0.64344 0.61242 0.34618 0.0
H659 H 0.59071 0.62792 0.30221 0.0
C660 C 0.54846 0.7077 0.12498 0.0
C661 C 0.5496 0.74152 0.14985 0.0
C662 C 0.54183 0.67028 0.14039 0.0
C663 C 0.53653 0.66626 0.18082 0.0
C664 C 0.53622 0.69995 0.20549 0.0
C665 C 0.54239 0.73726 0.19015 0.0
C666 C 0.53324 0.62701 0.19806 0.0
C667 C 0.5624 0.61718 0.22365 0.0
C668 C 0.50162 0.59982 0.19018 0.0
C669 C 0.46922 0.60889 0.16436 0.0
C670 C 0.44749 0.6426 0.17162 0.0
C671 C 0.41601 0.65002 0.14809 0.0
C672 C 0.40569 0.62376 0.11743 0.0
C673 C 0.42687 0.59002 0.1102 0.0
C674 C 0.45847 0.58254 0.13355 0.0
C675 C 0.49898 0.49768 0.32616 0.0
C676 C 0.48509 0.46152 0.30941 0.0
C677 C 0.51513 0.52728 0.30257 0.0
C678 C 0.51823 0.52107 0.2619 0.0
C679 C 0.50724 0.48396 0.24546 0.0
C680 C 0.49089 0.45435 0.26902 0.0
C681 C 0.52734 0.55496 0.23659 0.0
C682 C 0.49933 0.56394 0.20935 0.0
C683 C 0.56 0.58135 0.24295 0.0
C684 C 0.5918 0.57221 0.26952 0.0
C685 C 0.60991 0.53592 0.26583 0.0
C686 C 0.63967 0.52734 0.29104 0.0
C687 C 0.65172 0.55489 0.31999 0.0
C688 C 0.63408 0.59111 0.32374 0.0
C689 C 0.6043 0.59984 0.29863 0.0
H690 H 0.67476 0.54818 0.33947 0.0
H691 H 0.38113 0.62941 0.09942 0.0
loop_
_geom_bond_atom_site_label_1
_geom_bond_atom_site_label_2
_geom_bond_distance
_geom_bond_site_symmetry_2
_ccdc_geom_bond_type
O0 Zn1 1.953 . S
O0 C16 1.225 . S
Zn1 O0 1.953 . S
Zn1 O2 1.949 . S
Zn1 O8 1.919 . S
Zn1 O13 1.924 . S
O2 Zn1 1.949 . S
O2 Zn3 1.923 . S
O2 Zn4 1.950 . S
O2 Zn5 1.945 . S
Zn3 O2 1.923 . S
Zn3 O6 1.933 . S
Zn3 O9 1.941 . S
Zn3 O10 1.965 . S
Zn4 O2 1.950 . S
Zn4 O11 1.938 . S
Zn4 O12 1.906 . S
Zn4 O22 1.953 . S
Zn5 O2 1.945 . S
Zn5 O7 1.932 . S
Zn5 O14 1.977 . S
Zn5 O15 1.910 . S
O6 Zn3 1.933 . S
O6 C17 1.226 . S
O7 Zn5 1.932 . S
O7 C17 1.307 . S
O8 Zn1 1.919 . S
O8 C19 1.253 . S
O9 Zn3 1.941 . S
O9 C19 1.283 . S
O10 Zn3 1.965 . S
O10 C18 1.303 . S
O11 Zn4 1.938 . S
O11 C18 1.247 . S
O12 Zn4 1.906 . S
O12 C20 1.304 . S
O13 Zn1 1.924 . S
O13 C21 1.311 . S
O14 Zn5 1.977 . S
O14 C20 1.272 . S
O15 Zn5 1.910 . S
O15 C21 1.231 . S
C16 O0 1.225 . S
C16 O22 1.298 . S
C17 O6 1.226 . S
C17 O7 1.307 . S
C18 O10 1.303 . S
C18 O11 1.247 . S
C19 O8 1.253 . S
C19 O9 1.283 . S
C20 O12 1.304 . S
C20 O14 1.272 . S
C21 O13 1.311 . S
C21 O15 1.231 . S
O22 Zn4 1.953 . S
O22 C16 1.298 . S
O23 Zn24 1.953 . S
O23 C39 1.225 . S
Zn24 O23 1.953 . S
Zn24 O25 1.949 . S
Zn24 O31 1.919 . S
Zn24 O36 1.924 . S
O25 Zn24 1.949 . S
O25 Zn26 1.923 . S
O25 Zn27 1.950 . S
O25 Zn28 1.945 . S
Zn26 O25 1.923 . S
Zn26 O29 1.933 . S
Zn26 O32 1.941 . S
Zn26 O33 1.965 . S
Zn27 O25 1.950 . S
Zn27 O34 1.938 . S
Zn27 O35 1.906 . S
Zn27 O45 1.953 . S
Zn28 O25 1.945 . S
Zn28 O30 1.932 . S
Zn28 O37 1.977 . S
Zn28 O38 1.910 . S
O29 Zn26 1.933 . S
O29 C40 1.226 . S
O30 Zn28 1.932 . S
O30 C40 1.307 . S
O31 Zn24 1.919 . S
O31 C42 1.253 . S
O32 Zn26 1.941 . S
O32 C42 1.283 . S
O33 Zn26 1.965 . S
O33 C41 1.303 . S
O34 Zn27 1.938 . S
O34 C41 1.247 . S
O35 Zn27 1.906 . S
O35 C43 1.304 . S
O36 Zn24 1.924 . S
O36 C44 1.311 . S
O37 Zn28 1.977 . S
O37 C43 1.272 . S
O38 Zn28 1.910 . S
O38 C44 1.231 . S
C39 O23 1.225 . S
C39 O45 1.298 . S
C40 O29 1.226 . S
C40 O30 1.307 . S
C41 O33 1.303 . S
C41 O34 1.247 . S
C42 O31 1.253 . S
C42 O32 1.283 . S
C43 O35 1.304 . S
C43 O37 1.272 . S
C44 O36 1.311 . S
C44 O38 1.231 . S
O45 Zn27 1.953 . S
O45 C39 1.298 . S
O46 Zn47 1.953 . S
O46 C62 1.225 . S
Zn47 O46 1.953 . S
Zn47 O48 1.949 . S
Zn47 O54 1.919 . S
Zn47 O59 1.924 . S
O48 Zn47 1.949 . S
O48 Zn49 1.923 . S
O48 Zn50 1.950 . S
O48 Zn51 1.945 . S
Zn49 O48 1.923 . S
Zn49 O52 1.933 . S
Zn49 O55 1.941 . S
Zn49 O56 1.965 . S
Zn50 O48 1.950 . S
Zn50 O57 1.938 . S
Zn50 O58 1.906 . S
Zn50 O68 1.953 . S
Zn51 O48 1.945 . S
Zn51 O53 1.932 . S
Zn51 O60 1.977 . S
Zn51 O61 1.910 . S
O52 Zn49 1.933 . S
O52 C63 1.226 . S
O53 Zn51 1.932 . S
O53 C63 1.307 . S
O54 Zn47 1.919 . S
O54 C65 1.253 . S
O55 Zn49 1.941 . S
O55 C65 1.283 . S
O56 Zn49 1.965 . S
O56 C64 1.303 . S
O57 Zn50 1.938 . S
O57 C64 1.247 . S
O58 Zn50 1.906 . S
O58 C66 1.304 . S
O59 Zn47 1.924 . S
O59 C67 1.311 . S
O60 Zn51 1.977 . S
O60 C66 1.272 . S
O61 Zn51 1.910 . S
O61 C67 1.231 . S
C62 O46 1.225 . S
C62 O68 1.298 . S
C63 O52 1.226 . S
C63 O53 1.307 . S
C64 O56 1.303 . S
C64 O57 1.247 . S
C65 O54 1.253 . S
C65 O55 1.283 . S
C66 O58 1.304 . S
C66 O60 1.272 . S
C67 O59 1.311 . S
C67 O61 1.231 . S
O68 Zn50 1.953 . S
O68 C62 1.298 . S
O69 Zn70 1.953 . S
O69 C85 1.225 . S
Zn70 O69 1.953 . S
Zn70 O71 1.949 . S
Zn70 O77 1.919 . S
Zn70 O82 1.924 . S
O71 Zn70 1.949 . S
O71 Zn72 1.923 . S
O71 Zn73 1.950 . S
O71 Zn74 1.945 . S
Zn72 O71 1.923 . S
Zn72 O75 1.933 . S
Zn72 O78 1.941 . S
Zn72 O79 1.965 . S
Zn73 O71 1.950 . S
Zn73 O80 1.938 . S
Zn73 O81 1.906 . S
Zn73 O91 1.953 . S
Zn74 O71 1.945 . S
Zn74 O76 1.932 . S
Zn74 O83 1.977 . S
Zn74 O84 1.910 . S
O75 Zn72 1.933 . S
O75 C86 1.226 . S
O76 Zn74 1.932 . S
O76 C86 1.307 . S
O77 Zn70 1.919 . S
O77 C88 1.253 . S
O78 Zn72 1.941 . S
O78 C88 1.283 . S
O79 Zn72 1.965 . S
O79 C87 1.303 . S
O80 Zn73 1.938 . S
O80 C87 1.247 . S
O81 Zn73 1.906 . S
O81 C89 1.304 . S
O82 Zn70 1.924 . S
O82 C90 1.311 . S
O83 Zn74 1.977 . S
O83 C89 1.272 . S
O84 Zn74 1.910 . S
O84 C90 1.231 . S
C85 O69 1.225 . S
C85 O91 1.298 . S
C86 O75 1.226 . S
C86 O76 1.307 . S
C87 O79 1.303 . S
C87 O80 1.247 . S
C88 O77 1.253 . S
C88 O78 1.283 . S
C89 O81 1.304 . S
C89 O83 1.272 . S
C90 O82 1.311 . S
C90 O84 1.231 . S
O91 Zn73 1.953 . S
O91 C85 1.298 . S
H92 C110 0.951 . S
H93 C112 0.951 . S
H94 C114 0.950 . S
H95 C115 0.950 . S
H96 C117 0.950 . S
H97 C120 0.950 . S
H98 C121 0.950 . S
H99 C123 0.950 . S
H100 C124 0.950 . S
H101 C125 0.951 . S
H102 C127 0.951 . S
H103 C129 0.950 . S
H104 C130 0.950 . S
H105 C132 0.950 . S
H106 C135 0.950 . S
H107 C136 0.950 . S
H108 C138 0.950 . S
H109 C139 0.950 . S
C110 H92 0.951 . S
C110 C111 1.366 . S
C110 C112 1.388 1_556 S
C111 C110 1.366 . S
C111 C115 1.385 1_556 S
C112 H93 0.951 . S
C112 C110 1.388 1_554 S
C112 C113 1.366 . S
C113 C112 1.366 . S
C113 C114 1.414 . S
C113 C116 1.499 . S
C114 H94 0.950 . S
C114 C113 1.414 . S
C114 C115 1.374 . S
C115 H95 0.950 . S
C115 C111 1.385 1_554 S
C115 C114 1.374 . S
C116 C113 1.499 . S
C116 C117 1.373 . S
C116 C118 1.389 . S
C117 H96 0.950 . S
C117 C116 1.373 . S
C117 C133 1.377 . S
C118 C116 1.389 . S
C118 C119 1.524 . S
C118 C132 1.377 . S
C119 C118 1.524 . S
C119 C120 1.397 . S
C119 C124 1.363 . S
C120 H97 0.950 . S
C120 C119 1.397 . S
C120 C121 1.334 . S
C121 H98 0.950 . S
C121 C120 1.334 . S
C121 C122 1.287 . S
C122 C121 1.287 . S
C122 C123 1.524 . S
C122 H141 0.913 . S
C123 H99 0.950 . S
C123 C122 1.524 . S
C123 C124 1.415 . S
C124 H100 0.950 . S
C124 C119 1.363 . S
C124 C123 1.415 . S
C125 H101 0.951 . S
C125 C126 1.366 . S
C125 C127 1.388 . S
C126 C125 1.366 . S
C126 C130 1.385 . S
C127 H102 0.951 . S
C127 C125 1.388 . S
C127 C128 1.366 . S
C128 C127 1.366 . S
C128 C129 1.414 . S
C128 C131 1.499 . S
C129 H103 0.950 . S
C129 C128 1.414 . S
C129 C130 1.374 . S
C130 H104 0.950 . S
C130 C126 1.385 . S
C130 C129 1.374 . S
C131 C128 1.499 . S
C131 C132 1.373 . S
C131 C133 1.389 . S
C132 H105 0.950 . S
C132 C118 1.377 . S
C132 C131 1.373 . S
C133 C117 1.377 . S
C133 C131 1.389 . S
C133 C134 1.524 . S
C134 C133 1.524 . S
C134 C135 1.397 . S
C134 C139 1.363 . S
C135 H106 0.950 . S
C135 C134 1.397 . S
C135 C136 1.334 . S
C136 H107 0.950 . S
C136 C135 1.334 . S
C136 C137 1.287 . S
C137 C136 1.287 . S
C137 C138 1.524 . S
C137 H140 0.999 . S
C138 H108 0.950 . S
C138 C137 1.524 . S
C138 C139 1.415 . S
C139 H109 0.950 . S
C139 C134 1.363 . S
C139 C138 1.415 . S
H140 C137 0.999 . S
H141 C122 0.913 . S
H142 C160 0.951 . S
H143 C162 0.951 . S
H144 C164 0.950 1_545 S
H145 C165 0.950 . S
H146 C167 0.950 . S
H147 C170 0.950 . S
H148 C171 0.950 . S
H149 C173 0.950 . S
H150 C174 0.950 . S
H151 C175 0.951 . S
H152 C177 0.951 . S
H153 C179 0.950 . S
H154 C180 0.950 1_565 S
H155 C182 0.950 . S
H156 C185 0.950 . S
H157 C186 0.950 . S
H158 C188 0.950 . S
H159 C189 0.950 . S
C160 H142 0.951 . S
C160 C161 1.366 . S
C160 C162 1.388 . S
C161 C160 1.366 . S
C161 C165 1.385 . S
C162 H143 0.951 . S
C162 C160 1.388 . S
C162 C163 1.366 . S
C163 C162 1.366 . S
C163 C164 1.414 . S
C163 C166 1.499 . S
C164 H144 0.950 1_565 S
C164 C163 1.414 . S
C164 C165 1.374 . S
C165 H145 0.950 . S
C165 C161 1.385 . S
C165 C164 1.374 . S
C166 C163 1.499 . S
C166 C167 1.373 1_565 S
C166 C168 1.389 . S
C167 H146 0.950 . S
C167 C166 1.373 1_545 S
C167 C183 1.377 . S
C168 C166 1.389 . S
C168 C169 1.524 . S
C168 C182 1.377 . S
C169 C168 1.524 . S
C169 C170 1.397 . S
C169 C174 1.363 . S
C170 H147 0.950 . S
C170 C169 1.397 . S
C170 C171 1.334 . S
C171 H148 0.950 . S
C171 C170 1.334 . S
C171 C172 1.287 . S
C172 C171 1.287 . S
C172 C173 1.524 . S
C172 H191 0.913 . S
C173 H149 0.950 . S
C173 C172 1.524 . S
C173 C174 1.415 . S
C174 H150 0.950 . S
C174 C169 1.363 . S
C174 C173 1.415 . S
C175 H151 0.951 . S
C175 C176 1.366 . S
C175 C177 1.388 . S
C176 C175 1.366 . S
C176 C180 1.385 . S
C177 H152 0.951 . S
C177 C175 1.388 . S
C177 C178 1.366 . S
C178 C177 1.366 . S
C178 C179 1.414 1_545 S
C178 C181 1.499 . S
C179 H153 0.950 . S
C179 C178 1.414 1_565 S
C179 C180 1.374 1_565 S
C180 H154 0.950 1_545 S
C180 C176 1.385 . S
C180 C179 1.374 1_545 S
C181 C178 1.499 . S
C181 C182 1.373 1_545 S
C181 C183 1.389 . S
C182 H155 0.950 . S
C182 C168 1.377 . S
C182 C181 1.373 1_565 S
C183 C167 1.377 . S
C183 C181 1.389 . S
C183 C184 1.524 . S
C184 C183 1.524 . S
C184 C185 1.397 . S
C184 C189 1.363 . S
C185 H156 0.950 . S
C185 C184 1.397 . S
C185 C186 1.334 . S
C186 H157 0.950 . S
C186 C185 1.334 . S
C186 C187 1.287 . S
C187 C186 1.287 . S
C187 C188 1.524 . S
C187 H190 0.999 . S
C188 H158 0.950 . S
C188 C187 1.524 . S
C188 C189 1.415 . S
C189 H159 0.950 . S
C189 C184 1.363 . S
C189 C188 1.415 . S
H190 C187 0.999 . S
H191 C172 0.913 . S
H192 C210 0.951 . S
H193 C212 0.951 . S
H194 C214 0.950 . S
H195 C215 0.950 . S
H196 C217 0.950 . S
H197 C220 0.950 . S
H198 C221 0.950 . S
H199 C223 0.950 . S
H200 C224 0.950 . S
H201 C225 0.951 . S
H202 C227 0.951 . S
H203 C229 0.950 . S
H204 C230 0.950 . S
H205 C232 0.950 . S
H206 C235 0.950 . S
H207 C236 0.950 . S
H208 C238 0.950 . S
H209 C239 0.950 . S
C210 H192 0.951 . S
C210 C211 1.366 . S
C210 C212 1.388 . S
C211 C210 1.366 . S
C211 C215 1.385 . S
C212 H193 0.951 . S
C212 C210 1.388 . S
C212 C213 1.366 . S
C213 C212 1.366 . S
C213 C214 1.414 . S
C213 C216 1.499 . S
C214 H194 0.950 . S
C214 C213 1.414 . S
C214 C215 1.374 . S
C215 H195 0.950 . S
C215 C211 1.385 . S
C215 C214 1.374 . S
C216 C213 1.499 . S
C216 C217 1.373 . S
C216 C218 1.389 . S
C217 H196 0.950 . S
C217 C216 1.373 . S
C217 C233 1.377 . S
C218 C216 1.389 . S
C218 C219 1.524 . S
C218 C232 1.377 . S
C219 C218 1.524 . S
C219 C220 1.397 . S
C219 C224 1.363 . S
C220 H197 0.950 . S
C220 C219 1.397 . S
C220 C221 1.334 . S
C221 H198 0.950 . S
C221 C220 1.334 . S
C221 C222 1.287 . S
C222 C221 1.287 . S
C222 C223 1.524 . S
C222 H241 0.913 . S
C223 H199 0.950 . S
C223 C222 1.524 . S
C223 C224 1.415 . S
C224 H200 0.950 . S
C224 C219 1.363 . S
C224 C223 1.415 . S
C225 H201 0.951 . S
C225 C226 1.366 . S
C225 C227 1.388 . S
C226 C225 1.366 . S
C226 C230 1.385 . S
C227 H202 0.951 . S
C227 C225 1.388 . S
C227 C228 1.366 . S
C228 C227 1.366 . S
C228 C229 1.414 . S
C228 C231 1.499 . S
C229 H203 0.950 . S
C229 C228 1.414 . S
C229 C230 1.374 . S
C230 H204 0.950 . S
C230 C226 1.385 . S
C230 C229 1.374 . S
C231 C228 1.499 . S
C231 C232 1.373 . S
C231 C233 1.389 . S
C232 H205 0.950 . S
C232 C218 1.377 . S
C232 C231 1.373 . S
C233 C217 1.377 . S
C233 C231 1.389 . S
C233 C234 1.524 . S
C234 C233 1.524 . S
C234 C235 1.397 . S
C234 C239 1.363 . S
C235 H206 0.950 . S
C235 C234 1.397 . S
C235 C236 1.334 . S
C236 H207 0.950 . S
C236 C235 1.334 . S
C236 C237 1.287 . S
C237 C236 1.287 . S
C237 C238 1.524 . S
C237 H240 0.999 . S
C238 H208 0.950 . S
C238 C237 1.524 . S
C238 C239 1.415 . S
C239 H209 0.950 . S
C239 C234 1.363 . S
C239 C238 1.415 . S
H240 C237 0.999 . S
H241 C222 0.913 . S
H242 C260 0.951 1_545 S
H243 C262 0.951 . S
H244 C264 0.950 . S
H245 C265 0.950 . S
H246 C267 0.950 . S
H247 C270 0.950 . S
H248 C271 0.950 . S
H249 C273 0.950 . S
H250 C274 0.950 . S
H251 C275 0.951 . S
H252 C277 0.951 1_565 S
H253 C279 0.950 . S
H254 C280 0.950 . S
H255 C282 0.950 . S
H256 C285 0.950 1_545 S
H257 C286 0.950 . S
H258 C288 0.950 . S
H259 C289 0.950 . S
C260 H242 0.951 1_565 S
C260 C261 1.366 . S
C260 C262 1.388 1_564 S
C261 C260 1.366 . S
C261 C265 1.385 1_554 S
C262 H243 0.951 . S
C262 C260 1.388 1_546 S
C262 C263 1.366 1_545 S
C263 C262 1.366 1_565 S
C263 C264 1.414 . S
C263 C266 1.499 . S
C264 H244 0.950 . S
C264 C263 1.414 . S
C264 C265 1.374 . S
C265 H245 0.950 . S
C265 C261 1.385 1_556 S
C265 C264 1.374 . S
C266 C263 1.499 . S
C266 C267 1.373 . S
C266 C268 1.389 1_565 S
C267 H246 0.950 . S
C267 C266 1.373 . S
C267 C283 1.377 . S
C268 C266 1.389 1_545 S
C268 C269 1.524 . S
C268 C282 1.377 . S
C269 C268 1.524 . S
C269 C270 1.397 . S
C269 C274 1.363 . S
C270 H247 0.950 . S
C270 C269 1.397 . S
C270 C271 1.334 . S
C271 H248 0.950 . S
C271 C270 1.334 . S
C271 C272 1.287 . S
C272 C271 1.287 . S
C272 C273 1.524 . S
C272 H291 0.913 . S
C273 H249 0.950 . S
C273 C272 1.524 . S
C273 C274 1.415 . S
C274 H250 0.950 . S
C274 C269 1.363 . S
C274 C273 1.415 . S
C275 H251 0.951 . S
C275 C276 1.366 . S
C275 C277 1.388 . S
C276 C275 1.366 . S
C276 C280 1.385 . S
C277 H252 0.951 1_545 S
C277 C275 1.388 . S
C277 C278 1.366 . S
C278 C277 1.366 . S
C278 C279 1.414 . S
C278 C281 1.499 . S
C279 H253 0.950 . S
C279 C278 1.414 . S
C279 C280 1.374 . S
C280 H254 0.950 . S
C280 C276 1.385 . S
C280 C279 1.374 . S
C281 C278 1.499 . S
C281 C282 1.373 . S
C281 C283 1.389 1_545 S
C282 H255 0.950 . S
C282 C268 1.377 . S
C282 C281 1.373 . S
C283 C267 1.377 . S
C283 C281 1.389 1_565 S
C283 C284 1.524 . S
C284 C283 1.524 . S
C284 C285 1.397 . S
C284 C289 1.363 . S
C285 H256 0.950 1_565 S
C285 C284 1.397 . S
C285 C286 1.334 . S
C286 H257 0.950 . S
C286 C285 1.334 . S
C286 C287 1.287 . S
C287 C286 1.287 . S
C287 C288 1.524 . S
C287 H290 0.999 . S
C288 H258 0.950 . S
C288 C287 1.524 . S
C288 C289 1.415 . S
C289 H259 0.950 . S
C289 C284 1.363 . S
C289 C288 1.415 . S
H290 C287 0.999 . S
H291 C272 0.913 . S
H292 C310 0.951 . S
H293 C312 0.951 . S
H294 C314 0.950 . S
H295 C315 0.950 . S
H296 C317 0.950 . S
H297 C320 0.950 . S
H298 C321 0.950 . S
H299 C323 0.950 . S
H300 C324 0.950 . S
H301 C325 0.951 . S
H302 C327 0.951 . S
H303 C329 0.950 . S
H304 C330 0.950 . S
H305 C332 0.950 . S
H306 C335 0.950 . S
H307 C336 0.950 . S
H308 C338 0.950 . S
H309 C339 0.950 . S
C310 H292 0.951 . S
C310 C311 1.366 . S
C310 C312 1.388 1_655 S
C311 C310 1.366 . S
C311 C315 1.385 1_655 S
C312 H293 0.951 . S
C312 C310 1.388 1_455 S
C312 C313 1.366 . S
C313 C312 1.366 . S
C313 C314 1.414 . S
C313 C316 1.499 . S
C314 H294 0.950 . S
C314 C313 1.414 . S
C314 C315 1.374 . S
C315 H295 0.950 . S
C315 C311 1.385 1_455 S
C315 C314 1.374 . S
C316 C313 1.499 . S
C316 C317 1.373 . S
C316 C318 1.389 . S
C317 H296 0.950 . S
C317 C316 1.373 . S
C317 C333 1.377 . S
C318 C316 1.389 . S
C318 C319 1.524 . S
C318 C332 1.377 . S
C319 C318 1.524 . S
C319 C320 1.397 . S
C319 C324 1.363 . S
C320 H297 0.950 . S
C320 C319 1.397 . S
C320 C321 1.334 . S
C321 H298 0.950 . S
C321 C320 1.334 . S
C321 C322 1.287 . S
C322 C321 1.287 . S
C322 C323 1.524 . S
C322 H341 0.913 . S
C323 H299 0.950 . S
C323 C322 1.524 . S
C323 C324 1.415 . S
C324 H300 0.950 . S
C324 C319 1.363 . S
C324 C323 1.415 . S
C325 H301 0.951 . S
C325 C326 1.366 . S
C325 C327 1.388 . S
C326 C325 1.366 . S
C326 C330 1.385 . S
C327 H302 0.951 . S
C327 C325 1.388 . S
C327 C328 1.366 . S
C328 C327 1.366 . S
C328 C329 1.414 . S
C328 C331 1.499 . S
C329 H303 0.950 . S
C329 C328 1.414 . S
C329 C330 1.374 . S
C330 H304 0.950 . S
C330 C326 1.385 . S
C330 C329 1.374 . S
C331 C328 1.499 . S
C331 C332 1.373 . S
C331 C333 1.389 . S
C332 H305 0.950 . S
C332 C318 1.377 . S
C332 C331 1.373 . S
C333 C317 1.377 . S
C333 C331 1.389 . S
C333 C334 1.524 . S
C334 C333 1.524 . S
C334 C335 1.397 . S
C334 C339 1.363 . S
C335 H306 0.950 . S
C335 C334 1.397 . S
C335 C336 1.334 . S
C336 H307 0.950 . S
C336 C335 1.334 . S
C336 C337 1.287 . S
C337 C336 1.287 . S
C337 C338 1.524 . S
C337 H340 0.999 . S
C338 H308 0.950 . S
C338 C337 1.524 . S
C338 C339 1.415 . S
C339 H309 0.950 . S
C339 C334 1.363 . S
C339 C338 1.415 . S
H340 C337 0.999 . S
H341 C322 0.913 . S
H342 C360 0.951 . S
H343 C362 0.951 . S
H344 C364 0.950 . S
H345 C365 0.950 . S
H346 C367 0.950 . S
H347 C370 0.950 . S
H348 C371 0.950 . S
H349 C373 0.950 . S
H350 C374 0.950 . S
H351 C375 0.951 . S
H352 C377 0.950 1_455 S
H353 C379 0.950 . S
H354 C380 0.950 . S
H355 C382 0.950 . S
H356 C385 0.950 . S
H357 C386 0.950 . S
H358 C388 0.950 . S
H359 C389 0.950 1_455 S
C360 H342 0.951 . S
C360 C361 1.366 . S
C360 C362 1.388 . S
C361 C360 1.366 . S
C361 C365 1.385 . S
C362 H343 0.951 . S
C362 C360 1.388 . S
C362 C363 1.366 . S
C363 C362 1.366 . S
C363 C364 1.414 . S
C363 C366 1.499 . S
C364 H344 0.950 . S
C364 C363 1.414 . S
C364 C365 1.374 . S
C365 H345 0.950 . S
C365 C361 1.385 . S
C365 C364 1.374 . S
C366 C363 1.499 . S
C366 C367 1.373 . S
C366 C368 1.389 . S
C367 H346 0.950 . S
C367 C366 1.373 . S
C367 C383 1.385 . S
C368 C366 1.389 . S
C368 C369 1.524 . S
C368 C382 1.377 . S
C369 C368 1.524 . S
C369 C370 1.397 . S
C369 C374 1.363 . S
C370 H347 0.950 . S
C370 C369 1.397 . S
C370 C371 1.334 . S
C371 H348 0.950 . S
C371 C370 1.334 . S
C371 C372 1.287 . S
C372 C371 1.287 . S
C372 C373 1.524 . S
C372 H391 0.913 . S
C373 H349 0.950 . S
C373 C372 1.524 . S
C373 C374 1.415 . S
C374 H350 0.950 . S
C374 C369 1.363 . S
C374 C373 1.415 . S
C375 H351 0.951 . S
C375 C376 1.366 . S
C375 C377 1.388 1_545 S
C376 C375 1.366 . S
C376 C380 1.385 1_545 S
C377 H352 0.950 1_655 S
C377 C375 1.388 1_565 S
C377 C378 1.366 . S
C378 C377 1.366 . S
C378 C379 1.414 . S
C378 C381 1.499 1_655 S
C379 H353 0.950 . S
C379 C378 1.414 . S
C379 C380 1.374 . S
C380 H354 0.950 . S
C380 C376 1.385 1_565 S
C380 C379 1.374 . S
C381 C378 1.499 1_455 S
C381 C382 1.373 . S
C381 C383 1.390 . S
C382 H355 0.950 . S
C382 C368 1.377 . S
C382 C381 1.373 . S
C383 C367 1.385 . S
C383 C381 1.390 . S
C383 C384 1.515 1_455 S
C384 C383 1.515 1_655 S
C384 C385 1.397 . S
C384 C389 1.363 . S
C385 H356 0.950 . S
C385 C384 1.397 . S
C385 C386 1.334 . S
C386 H357 0.950 . S
C386 C385 1.334 . S
C386 C387 1.287 . S
C387 C386 1.287 . S
C387 C388 1.524 . S
C387 H390 0.999 . S
C388 H358 0.950 . S
C388 C387 1.524 . S
C388 C389 1.415 . S
C389 H359 0.950 1_655 S
C389 C384 1.363 . S
C389 C388 1.415 . S
H390 C387 0.999 . S
H391 C372 0.913 . S
H392 C410 0.951 . S
H393 C412 0.951 1_554 S
H394 C414 0.950 . S
H395 C415 0.950 . S
H396 C417 0.950 . S
H397 C420 0.950 . S
H398 C421 0.950 . S
H399 C423 0.950 . S
H400 C424 0.950 . S
H401 C425 0.951 . S
H402 C427 0.951 1_556 S
H403 C429 0.950 . S
H404 C430 0.950 . S
H405 C432 0.950 . S
H406 C435 0.950 . S
H407 C436 0.950 . S
H408 C438 0.950 . S
H409 C439 0.950 . S
C410 H392 0.951 . S
C410 C411 1.366 . S
C410 C412 1.388 . S
C411 C410 1.366 . S
C411 C415 1.385 . S
C412 H393 0.951 1_556 S
C412 C410 1.388 . S
C412 C413 1.366 . S
C413 C412 1.366 . S
C413 C414 1.414 . S
C413 C416 1.499 . S
C414 H394 0.950 . S
C414 C413 1.414 . S
C414 C415 1.374 . S
C415 H395 0.950 . S
C415 C411 1.385 . S
C415 C414 1.374 . S
C416 C413 1.499 . S
C416 C417 1.373 . S
C416 C418 1.389 1_556 S
C417 H396 0.950 . S
C417 C416 1.373 . S
C417 C433 1.377 . S
C418 C416 1.389 1_554 S
C418 C419 1.524 . S
C418 C432 1.377 . S
C419 C418 1.524 . S
C419 C420 1.397 . S
C419 C424 1.363 . S
C420 H397 0.950 . S
C420 C419 1.397 . S
C420 C421 1.334 . S
C421 H398 0.950 . S
C421 C420 1.334 . S
C421 C422 1.287 . S
C422 C421 1.287 . S
C422 C423 1.524 . S
C422 H441 0.913 . S
C423 H399 0.950 . S
C423 C422 1.524 . S
C423 C424 1.415 . S
C424 H400 0.950 . S
C424 C419 1.363 . S
C424 C423 1.415 . S
C425 H401 0.951 . S
C425 C426 1.366 . S
C425 C427 1.388 . S
C426 C425 1.366 . S
C426 C430 1.385 . S
C427 H402 0.951 1_554 S
C427 C425 1.388 . S
C427 C428 1.366 . S
C428 C427 1.366 . S
C428 C429 1.414 . S
C428 C431 1.499 . S
C429 H403 0.950 . S
C429 C428 1.414 . S
C429 C430 1.374 . S
C430 H404 0.950 . S
C430 C426 1.385 . S
C430 C429 1.374 . S
C431 C428 1.499 . S
C431 C432 1.373 . S
C431 C433 1.389 1_554 S
C432 H405 0.950 . S
C432 C418 1.377 . S
C432 C431 1.373 . S
C433 C417 1.377 . S
C433 C431 1.389 1_556 S
C433 C434 1.524 . S
C434 C433 1.524 . S
C434 C435 1.397 . S
C434 C439 1.363 . S
C435 H406 0.950 . S
C435 C434 1.397 . S
C435 C436 1.334 . S
C436 H407 0.950 . S
C436 C435 1.334 . S
C436 C437 1.287 . S
C437 C436 1.287 . S
C437 C438 1.524 . S
C437 H440 0.999 . S
C438 H408 0.950 . S
C438 C437 1.524 . S
C438 C439 1.415 . S
C439 H409 0.950 . S
C439 C434 1.363 . S
C439 C438 1.415 . S
H440 C437 0.999 . S
H441 C422 0.913 . S
H442 C460 0.951 . S
H443 C462 0.951 . S
H444 C464 0.950 . S
H445 C465 0.950 . S
H446 C467 0.950 . S
H447 C470 0.950 . S
H448 C471 0.950 . S
H449 C473 0.950 . S
H450 C474 0.950 . S
H451 C475 0.951 . S
H452 C477 0.951 . S
H453 C479 0.950 . S
H454 C480 0.950 . S
H455 C482 0.950 . S
H456 C485 0.950 . S
H457 C486 0.950 . S
H458 C488 0.950 . S
H459 C489 0.950 . S
C460 H442 0.951 . S
C460 C461 1.366 . S
C460 C462 1.388 . S
C461 C460 1.366 . S
C461 C465 1.385 . S
C462 H443 0.951 . S
C462 C460 1.388 . S
C462 C463 1.366 . S
C463 C462 1.366 . S
C463 C464 1.414 . S
C463 C466 1.499 . S
C464 H444 0.950 . S
C464 C463 1.414 . S
C464 C465 1.374 . S
C465 H445 0.950 . S
C465 C461 1.385 . S
C465 C464 1.374 . S
C466 C463 1.499 . S
C466 C467 1.373 . S
C466 C468 1.389 . S
C467 H446 0.950 . S
C467 C466 1.373 . S
C467 C483 1.377 . S
C468 C466 1.389 . S
C468 C469 1.524 . S
C468 C482 1.377 . S
C469 C468 1.524 . S
C469 C470 1.397 . S
C469 C474 1.363 . S
C470 H447 0.950 . S
C470 C469 1.397 . S
C470 C471 1.334 . S
C471 H448 0.950 . S
C471 C470 1.334 . S
C471 C472 1.287 . S
C472 C471 1.287 . S
C472 C473 1.524 . S
C472 H491 0.913 . S
C473 H449 0.950 . S
C473 C472 1.524 . S
C473 C474 1.415 . S
C474 H450 0.950 . S
C474 C469 1.363 . S
C474 C473 1.415 . S
C475 H451 0.951 . S
C475 C476 1.366 . S
C475 C477 1.388 1_565 S
C476 C475 1.366 . S
C476 C480 1.385 . S
C477 H452 0.951 . S
C477 C475 1.388 1_545 S
C477 C478 1.366 . S
C478 C477 1.366 . S
C478 C479 1.414 . S
C478 C481 1.499 . S
C479 H453 0.950 . S
C479 C478 1.414 . S
C479 C480 1.374 1_545 S
C480 H454 0.950 . S
C480 C476 1.385 . S
C480 C479 1.374 1_565 S
C481 C478 1.499 . S
C481 C482 1.373 . S
C481 C483 1.389 . S
C482 H455 0.950 . S
C482 C468 1.377 . S
C482 C481 1.373 . S
C483 C467 1.377 . S
C483 C481 1.389 . S
C483 C484 1.524 . S
C484 C483 1.524 . S
C484 C485 1.397 . S
C484 C489 1.363 . S
C485 H456 0.950 . S
C485 C484 1.397 . S
C485 C486 1.334 . S
C486 H457 0.950 . S
C486 C485 1.334 . S
C486 C487 1.287 . S
C487 C486 1.287 . S
C487 C488 1.524 . S
C487 H490 0.999 . S
C488 H458 0.950 . S
C488 C487 1.524 . S
C488 C489 1.415 . S
C489 H459 0.950 . S
C489 C484 1.363 . S
C489 C488 1.415 . S
H490 C487 0.999 . S
H491 C472 0.913 . S
H492 C510 0.951 . S
H493 C512 0.951 . S
H494 C514 0.950 . S
H495 C515 0.950 . S
H496 C517 0.950 . S
H497 C520 0.950 . S
H498 C521 0.950 . S
H499 C523 0.950 . S
H500 C524 0.950 . S
H501 C525 0.951 . S
H502 C527 0.951 . S
H503 C529 0.950 . S
H504 C530 0.950 . S
H505 C532 0.950 . S
H506 C535 0.950 . S
H507 C536 0.950 . S
H508 C538 0.950 . S
H509 C539 0.950 . S
C510 H492 0.951 . S
C510 C511 1.366 . S
C510 C512 1.388 . S
C511 C510 1.366 . S
C511 C515 1.385 . S
C512 H493 0.951 . S
C512 C510 1.388 . S
C512 C513 1.366 . S
C513 C512 1.366 . S
C513 C514 1.414 . S
C513 C516 1.499 . S
C514 H494 0.950 . S
C514 C513 1.414 . S
C514 C515 1.374 . S
C515 H495 0.950 . S
C515 C511 1.385 . S
C515 C514 1.374 . S
C516 C513 1.499 . S
C516 C517 1.373 . S
C516 C518 1.389 . S
C517 H496 0.950 . S
C517 C516 1.373 . S
C517 C533 1.377 . S
C518 C516 1.389 . S
C518 C519 1.524 . S
C518 C532 1.377 . S
C519 C518 1.524 . S
C519 C520 1.397 . S
C519 C524 1.363 . S
C520 H497 0.950 . S
C520 C519 1.397 . S
C520 C521 1.334 . S
C521 H498 0.950 . S
C521 C520 1.334 . S
C521 C522 1.287 . S
C522 C521 1.287 . S
C522 C523 1.524 . S
C522 H541 0.913 . S
C523 H499 0.950 . S
C523 C522 1.524 . S
C523 C524 1.415 . S
C524 H500 0.950 . S
C524 C519 1.363 . S
C524 C523 1.415 . S
C525 H501 0.951 . S
C525 C526 1.366 . S
C525 C527 1.388 . S
C526 C525 1.366 . S
C526 C530 1.385 . S
C527 H502 0.951 . S
C527 C525 1.388 . S
C527 C528 1.366 . S
C528 C527 1.366 . S
C528 C529 1.414 . S
C528 C531 1.499 . S
C529 H503 0.950 . S
C529 C528 1.414 . S
C529 C530 1.374 . S
C530 H504 0.950 . S
C530 C526 1.385 . S
C530 C529 1.374 . S
C531 C528 1.499 . S
C531 C532 1.373 . S
C531 C533 1.389 . S
C532 H505 0.950 . S
C532 C518 1.377 . S
C532 C531 1.373 . S
C533 C517 1.377 . S
C533 C531 1.389 . S
C533 C534 1.524 . S
C534 C533 1.524 . S
C534 C535 1.397 . S
C534 C539 1.363 . S
C535 H506 0.950 . S
C535 C534 1.397 . S
C535 C536 1.334 . S
C536 H507 0.950 . S
C536 C535 1.334 . S
C536 C537 1.287 . S
C537 C536 1.287 . S
C537 C538 1.524 . S
C537 H540 0.999 . S
C538 H508 0.950 . S
C538 C537 1.524 . S
C538 C539 1.415 . S
C539 H509 0.950 . S
C539 C534 1.363 . S
C539 C538 1.415 . S
H540 C537 0.999 . S
H541 C522 0.913 . S
H542 C560 0.951 . S
H543 C562 0.951 . S
H544 C564 0.950 . S
H545 C565 0.950 1_655 S
H546 C567 0.950 . S
H547 C570 0.950 . S
H548 C571 0.950 1_655 S
H549 C573 0.950 . S
H550 C574 0.950 . S
H551 C575 0.951 . S
H552 C577 0.951 . S
H553 C579 0.950 . S
H554 C580 0.950 . S
H555 C582 0.950 . S
H556 C585 0.950 . S
H557 C586 0.950 . S
H558 C588 0.950 . S
H559 C589 0.950 . S
C560 H542 0.951 . S
C560 C561 1.366 . S
C560 C562 1.388 . S
C561 C560 1.366 . S
C561 C565 1.385 . S
C562 H543 0.951 . S
C562 C560 1.388 . S
C562 C563 1.366 . S
C563 C562 1.366 . S
C563 C564 1.414 1_455 S
C563 C566 1.499 1_455 S
C564 H544 0.950 . S
C564 C563 1.414 1_655 S
C564 C565 1.374 1_655 S
C565 H545 0.950 1_455 S
C565 C561 1.385 . S
C565 C564 1.374 1_455 S
C566 C563 1.499 1_655 S
C566 C567 1.373 . S
C566 C568 1.389 . S
C567 H546 0.950 . S
C567 C566 1.373 . S
C567 C583 1.377 . S
C568 C566 1.389 . S
C568 C569 1.524 1_655 S
C568 C582 1.377 . S
C569 C568 1.524 1_455 S
C569 C570 1.397 1_455 S
C569 C574 1.363 . S
C570 H547 0.950 . S
C570 C569 1.397 1_655 S
C570 C571 1.334 1_655 S
C571 H548 0.950 1_455 S
C571 C570 1.334 1_455 S
C571 C572 1.287 . S
C572 C571 1.287 . S
C572 C573 1.524 . S
C572 H591 0.913 . S
C573 H549 0.950 . S
C573 C572 1.524 . S
C573 C574 1.415 . S
C574 H550 0.950 . S
C574 C569 1.363 . S
C574 C573 1.415 . S
C575 H551 0.951 . S
C575 C576 1.366 . S
C575 C577 1.388 . S
C576 C575 1.366 . S
C576 C580 1.385 . S
C577 H552 0.951 . S
C577 C575 1.388 . S
C577 C578 1.366 . S
C578 C577 1.366 . S
C578 C579 1.414 . S
C578 C581 1.499 . S
C579 H553 0.950 . S
C579 C578 1.414 . S
C579 C580 1.374 . S
C580 H554 0.950 . S
C580 C576 1.385 . S
C580 C579 1.374 . S
C581 C578 1.499 . S
C581 C582 1.373 . S
C581 C583 1.389 . S
C582 H555 0.950 . S
C582 C568 1.377 . S
C582 C581 1.373 . S
C583 C567 1.377 . S
C583 C581 1.389 . S
C583 C584 1.524 . S
C584 C583 1.524 . S
C584 C585 1.397 . S
C584 C589 1.363 . S
C585 H556 0.950 . S
C585 C584 1.397 . S
C585 C586 1.334 . S
C586 H557 0.950 . S
C586 C585 1.334 . S
C586 C587 1.287 . S
C587 C586 1.287 . S
C587 C588 1.524 . S
C587 H590 0.999 . S
C588 H558 0.950 . S
C588 C587 1.524 . S
C588 C589 1.415 . S
C589 H559 0.950 . S
C589 C584 1.363 . S
C589 C588 1.415 . S
H590 C587 0.999 . S
H591 C572 0.913 . S
H592 C610 0.951 1_554 S
H593 C612 0.951 . S
H594 C614 0.950 . S
H595 C615 0.950 . S
H596 C617 0.950 . S
H597 C620 0.950 . S
H598 C621 0.950 . S
H599 C623 0.950 . S
H600 C624 0.950 . S
H601 C625 0.951 . S
H602 C627 0.950 1_556 S
H603 C629 0.950 . S
H604 C630 0.950 . S
H605 C632 0.950 . S
H606 C635 0.950 . S
H607 C636 0.950 . S
H608 C638 0.950 . S
H609 C639 0.950 . S
C610 H592 0.951 1_556 S
C610 C611 1.366 . S
C610 C612 1.388 1_456 S
C611 C610 1.366 . S
C611 C615 1.385 1_455 S
C612 H593 0.951 . S
C612 C610 1.388 1_654 S
C612 C613 1.366 1_554 S
C613 C612 1.366 1_556 S
C613 C614 1.414 . S
C613 C616 1.499 . S
C614 H594 0.950 . S
C614 C613 1.414 . S
C614 C615 1.374 . S
C615 H595 0.950 . S
C615 C611 1.385 1_655 S
C615 C614 1.374 . S
C616 C613 1.499 . S
C616 C617 1.373 . S
C616 C618 1.389 1_556 S
C617 H596 0.950 . S
C617 C616 1.373 . S
C617 C633 1.377 . S
C618 C616 1.389 1_554 S
C618 C619 1.524 . S
C618 C632 1.377 . S
C619 C618 1.524 . S
C619 C620 1.397 . S
C619 C624 1.363 . S
C620 H597 0.950 . S
C620 C619 1.397 . S
C620 C621 1.334 . S
C621 H598 0.950 . S
C621 C620 1.334 . S
C621 C622 1.287 . S
C622 C621 1.287 . S
C622 C623 1.524 . S
C622 H641 0.913 . S
C623 H599 0.950 . S
C623 C622 1.524 . S
C623 C624 1.415 . S
C624 H600 0.950 . S
C624 C619 1.363 . S
C624 C623 1.415 . S
C625 H601 0.951 . S
C625 C626 1.366 . S
C625 C627 1.388 . S
C626 C625 1.366 . S
C626 C630 1.385 . S
C627 H602 0.950 1_554 S
C627 C625 1.388 . S
C627 C628 1.366 . S
C628 C627 1.366 . S
C628 C629 1.414 . S
C628 C631 1.499 . S
C629 H603 0.950 . S
C629 C628 1.414 . S
C629 C630 1.374 . S
C630 H604 0.950 . S
C630 C626 1.385 . S
C630 C629 1.374 . S
C631 C628 1.499 . S
C631 C632 1.373 . S
C631 C633 1.389 1_554 S
C632 H605 0.950 . S
C632 C618 1.377 . S
C632 C631 1.373 . S
C633 C617 1.377 . S
C633 C631 1.389 1_556 S
C633 C634 1.524 . S
C634 C633 1.524 . S
C634 C635 1.397 . S
C634 C639 1.363 . S
C635 H606 0.950 . S
C635 C634 1.397 . S
C635 C636 1.334 . S
C636 H607 0.950 . S
C636 C635 1.334 . S
C636 C637 1.287 . S
C637 C636 1.287 . S
C637 C638 1.524 . S
C637 H640 0.999 . S
C638 H608 0.950 . S
C638 C637 1.524 . S
C638 C639 1.415 . S
C639 H609 0.950 . S
C639 C634 1.363 . S
C639 C638 1.415 . S
H640 C637 0.999 . S
H641 C622 0.913 . S
H642 C660 0.951 . S
H643 C662 0.951 . S
H644 C664 0.950 . S
H645 C665 0.950 . S
H646 C667 0.950 . S
H647 C670 0.950 . S
H648 C671 0.950 . S
H649 C673 0.950 . S
H650 C674 0.950 . S
H651 C675 0.951 . S
H652 C677 0.951 . S
H653 C679 0.950 . S
H654 C680 0.950 . S
H655 C682 0.950 . S
H656 C685 0.950 . S
H657 C686 0.950 . S
H658 C688 0.950 . S
H659 C689 0.950 . S
C660 H642 0.951 . S
C660 C661 1.366 . S
C660 C662 1.388 . S
C661 C660 1.366 . S
C661 C665 1.385 . S
C662 H643 0.951 . S
C662 C660 1.388 . S
C662 C663 1.366 . S
C663 C662 1.366 . S
C663 C664 1.414 . S
C663 C666 1.499 . S
C664 H644 0.950 . S
C664 C663 1.414 . S
C664 C665 1.374 . S
C665 H645 0.950 . S
C665 C661 1.385 . S
C665 C664 1.374 . S
C666 C663 1.499 . S
C666 C667 1.373 . S
C666 C668 1.389 . S
C667 H646 0.950 . S
C667 C666 1.373 . S
C667 C683 1.377 . S
C668 C666 1.389 . S
C668 C669 1.524 . S
C668 C682 1.377 . S
C669 C668 1.524 . S
C669 C670 1.397 . S
C669 C674 1.363 . S
C670 H647 0.950 . S
C670 C669 1.397 . S
C670 C671 1.334 . S
C671 H648 0.950 . S
C671 C670 1.334 . S
C671 C672 1.287 . S
C672 C671 1.287 . S
C672 C673 1.524 . S
C672 H691 0.913 . S
C673 H649 0.950 . S
C673 C672 1.524 . S
C673 C674 1.415 . S
C674 H650 0.950 . S
C674 C669 1.363 . S
C674 C673 1.415 . S
C675 H651 0.951 . S
C675 C676 1.366 . S
C675 C677 1.388 . S
C676 C675 1.366 . S
C676 C680 1.385 . S
C677 H652 0.951 . S
C677 C675 1.388 . S
C677 C678 1.366 . S
C678 C677 1.366 . S
C678 C679 1.414 . S
C678 C681 1.499 . S
C679 H653 0.950 . S
C679 C678 1.414 . S
C679 C680 1.374 . S
C680 H654 0.950 . S
C680 C676 1.385 . S
C680 C679 1.374 . S
C681 C678 1.499 . S
C681 C682 1.373 . S
C681 C683 1.389 . S
C682 H655 0.950 . S
C682 C668 1.377 . S
C682 C681 1.373 . S
C683 C667 1.377 . S
C683 C681 1.389 . S
C683 C684 1.524 . S
C684 C683 1.524 . S
C684 C685 1.397 . S
C684 C689 1.363 . S
C685 H656 0.950 . S
C685 C684 1.397 . S
C685 C686 1.334 . S
C686 H657 0.950 . S
C686 C685 1.334 . S
C686 C687 1.287 . S
C687 C686 1.287 . S
C687 C688 1.524 . S
C687 H690 0.999 . S
C688 H658 0.950 . S
C688 C687 1.524 . S
C688 C689 1.415 . S
C689 H659 0.950 . S
C689 C684 1.363 . S
C689 C688 1.415 . S
H690 C687 0.999 . S
H691 C672 0.913 . S
C111 C63 1.506 . S
C126 C17 1.506 . S
C161 C90 1.127 . S
C176 C43 1.151 . S
C211 C64 1.352 . S
C226 C18 1.351 . S
C261 C89 1.147 . S
C276 C44 1.126 . S
C311 C41 1.164 . S
C326 C19 1.135 . S
C361 C62 1.585 . S
C376 C39 1.587 . S
C411 C66 1.148 . S
C426 C87 1.145 . S
C461 C21 1.270 . S
C476 C85 1.273 . S
C511 C40 1.576 . S
C526 C16 1.577 . S
C561 C65 1.145 . S
C576 C42 1.148 . S
C611 C67 1.260 . S
C626 C86 1.263 . S
C661 C88 1.124 . S
C676 C20 1.156 . S
