# Generated by pormake.
# Topology dft, (4)-cn, num edge types: 1
# Building blocks:
#     Node 0, Type 0, BuildingBlock: QUQFOY_clean_sbu_1, # of connection points: 4
#     Node 1, Type 0, BuildingBlock: QUQFOY_clean_sbu_1, # of connection points: 4
#     Node 2, Type 0, BuildingBlock: QUQFOY_clean_sbu_1, # of connection points: 4
#     Node 3, Type 0, BuildingBlock: QUQFOY_clean_sbu_1, # of connection points: 4
#     Node 4, Type 0, BuildingBlock: QUQFOY_clean_sbu_1, # of connection points: 4
#     Node 5, Type 0, BuildingBlock: QUQFOY_clean_sbu_1, # of connection points: 4
#     Node 6, Type 0, BuildingBlock: QUQFOY_clean_sbu_1, # of connection points: 4
#     Node 7, Type 0, BuildingBlock: QUQFOY_clean_sbu_1, # of connection points: 4
#     Edge 8, Type (0, 0), BuildingBlock: MIFKUJ_clean_linker_0, # of connection points: 2
#     Edge 9, Type (0, 0), BuildingBlock: MIFKUJ_clean_linker_0, # of connection points: 2
#     Edge 10, Type (0, 0), BuildingBlock: MIFKUJ_clean_linker_0, # of connection points: 2
#     Edge 11, Type (0, 0), BuildingBlock: MIFKUJ_clean_linker_0, # of connection points: 2
#     Edge 12, Type (0, 0), BuildingBlock: MIFKUJ_clean_linker_0, # of connection points: 2
#     Edge 13, Type (0, 0), BuildingBlock: MIFKUJ_clean_linker_0, # of connection points: 2
#     Edge 14, Type (0, 0), BuildingBlock: MIFKUJ_clean_linker_0, # of connection points: 2
#     Edge 15, Type (0, 0), BuildingBlock: MIFKUJ_clean_linker_0, # of connection points: 2
#     Edge 16, Type (0, 0), BuildingBlock: MIFKUJ_clean_linker_0, # of connection points: 2
#     Edge 17, Type (0, 0), BuildingBlock: MIFKUJ_clean_linker_0, # of connection points: 2
#     Edge 18, Type (0, 0), BuildingBlock: MIFKUJ_clean_linker_0, # of connection points: 2
#     Edge 19, Type (0, 0), BuildingBlock: MIFKUJ_clean_linker_0, # of connection points: 2
#     Edge 20, Type (0, 0), BuildingBlock: MIFKUJ_clean_linker_0, # of connection points: 2
#     Edge 21, Type (0, 0), BuildingBlock: MIFKUJ_clean_linker_0, # of connection points: 2
#     Edge 22, Type (0, 0), BuildingBlock: MIFKUJ_clean_linker_0, # of connection points: 2
#     Edge 23, Type (0, 0), BuildingBlock: MIFKUJ_clean_linker_0, # of connection points: 2
# Relax obj value: 0.205
# Max RMSD: 0.222
# Mean RMSD: 0.222
data_MOF--net-dft--node1-QUQFOY_clean_sbu_1--edge1-MIFKUJ_clean_linker_0
_symmetry_space_group_name_H-M    P1
_symmetry_Int_Tables_number       1
_symmetry_cell_setting            triclinic
loop_
_symmetry_equiv_pos_as_xyz
'x, y, z'
_cell_length_a     47.2619
_cell_length_b     47.249858
_cell_length_c     51.733861
_cell_angle_alpha  89.988544
_cell_angle_beta   90.010063
_cell_angle_gamma 89.975239
loop_
_atom_site_label
_atom_site_type_symbol
_atom_site_fract_x
_atom_site_fract_y
_atom_site_fract_z
_atom_type_partial_charge
O0 O 0.35316 0.06858 0.15057 0.0
Cd1 Cd 0.35134 0.07341 0.19016 0.0
Cd2 Cd 0.30644 0.03514 0.1857 0.0
O3 O 0.31783 0.03823 0.14741 0.0
O4 O 0.38768 0.09152 0.2 0.0
O5 O 0.37588 0.04809 0.21194 0.0
C6 C 0.3942 0.06839 0.21182 0.0
C7 C 0.29124 0.99041 0.19936 0.0
C8 C 0.33721 0.05291 0.13696 0.0
C9 C 0.29429 0.09276 0.20871 0.0
O10 O 0.28508 0.06856 0.20214 0.0
O11 O 0.32024 0.09899 0.20571 0.0
O12 O 0.27637 0.00588 0.18406 0.0
O13 O 0.31534 0.00023 0.20698 0.0
O14 O 0.01783 0.35016 0.64651 0.0
Cd15 Cd 0.016 0.3497 0.68642 0.0
Cd16 Cd 0.05651 0.30685 0.6789 0.0
O17 O 0.05588 0.32355 0.64218 0.0
O18 O 0.9955 0.38526 0.69476 0.0
O19 O 0.03986 0.37742 0.70638 0.0
C20 C 0.01835 0.3943 0.70555 0.0
C21 C 0.10023 0.28929 0.69306 0.0
C22 C 0.03708 0.3395 0.63242 0.0
C23 C 0.99939 0.29165 0.70228 0.0
O24 O 0.0221 0.28348 0.69144 0.0
O25 O 0.99374 0.31783 0.7043 0.0
O26 O 0.08561 0.27671 0.67552 0.0
O27 O 0.09024 0.3125 0.70256 0.0
O28 O 0.72755 0.01711 0.15029 0.0
Cd29 Cd 0.72801 0.01207 0.18975 0.0
Cd30 Cd 0.77192 0.05226 0.18735 0.0
O31 O 0.75682 0.05353 0.14983 0.0
O32 O 0.69054 0.99641 0.19948 0.0
O33 O 0.70528 0.03899 0.21135 0.0
C34 C 0.68558 0.01999 0.21121 0.0
C35 C 0.79097 0.09527 0.20185 0.0
C36 C 0.74003 0.03685 0.13818 0.0
C37 C 0.78427 0.99237 0.20748 0.0
O38 O 0.79317 0.01674 0.20094 0.0
O39 O 0.75825 0.98617 0.20539 0.0
O40 O 0.80377 0.07965 0.1852 0.0
O41 O 0.76687 0.08658 0.21049 0.0
O42 O 0.06754 0.73404 0.65294 0.0
Cd43 Cd 0.07314 0.73312 0.69248 0.0
Cd44 Cd 0.03859 0.78194 0.68936 0.0
O45 O 0.04137 0.77267 0.6506 0.0
O46 O 0.08977 0.69515 0.69876 0.0
O47 O 0.04781 0.70789 0.71367 0.0
C48 C 0.06701 0.68861 0.71109 0.0
C49 C 0.99487 0.79975 0.70315 0.0
C50 C 0.05395 0.75214 0.6397 0.0
C51 C 0.09693 0.78742 0.71344 0.0
O52 O 0.07357 0.7989 0.70727 0.0
O53 O 0.10113 0.76125 0.70925 0.0
O54 O 0.0121 0.81462 0.68951 0.0
O55 O 0.00238 0.7743 0.70911 0.0
O56 O 0.36109 0.02169 0.84801 0.0
Cd57 Cd 0.36042 0.01412 0.80877 0.0
Cd58 Cd 0.31267 0.05033 0.81117 0.0
O59 O 0.32356 0.04948 0.84969 0.0
O60 O 0.39804 0.99745 0.80097 0.0
O61 O 0.384 0.03886 0.78561 0.0
C62 C 0.40351 0.0198 0.78759 0.0
C63 C 0.29314 0.09309 0.79659 0.0
C64 C 0.34385 0.03677 0.86086 0.0
C65 C 0.30512 0.9905 0.79045 0.0
O66 O 0.29458 0.01462 0.79545 0.0
O67 O 0.33123 0.9857 0.79439 0.0
O68 O 0.27954 0.07624 0.81163 0.0
O69 O 0.31839 0.08586 0.78974 0.0
O70 O 0.06616 0.35605 0.34361 0.0
Cd71 Cd 0.07006 0.35633 0.30402 0.0
Cd72 Cd 0.0286 0.3127 0.30769 0.0
O73 O 0.02857 0.3283 0.34502 0.0
O74 O 0.0897 0.39232 0.29558 0.0
O75 O 0.04567 0.38311 0.2836 0.0
C76 C 0.06678 0.40049 0.28431 0.0
C77 C 0.9851 0.29388 0.29413 0.0
C78 C 0.04633 0.34433 0.35623 0.0
C79 C 0.08749 0.29907 0.2862 0.0
O80 O 0.06342 0.29054 0.29394 0.0
O81 O 0.09395 0.3251 0.28735 0.0
O82 O 0.00075 0.28134 0.31092 0.0
O83 O 0.99398 0.31765 0.28489 0.0
O84 O 0.73642 0.07025 0.84809 0.0
Cd85 Cd 0.73874 0.06953 0.80815 0.0
Cd86 Cd 0.78128 0.03146 0.8181 0.0
O87 O 0.76302 0.03247 0.85415 0.0
O88 O 0.70305 0.08724 0.79591 0.0
O89 O 0.71359 0.04216 0.78925 0.0
C90 C 0.69591 0.06287 0.78682 0.0
C91 C 0.79747 0.98748 0.80355 0.0
C92 C 0.74658 0.0514 0.86297 0.0
C93 C 0.79686 0.08726 0.79366 0.0
O94 O 0.80525 0.06569 0.80617 0.0
O95 O 0.77064 0.09156 0.79005 0.0
O96 O 0.81026 0.00123 0.82156 0.0
O97 O 0.77486 0.99854 0.79382 0.0
O98 O 0.0206 0.73549 0.35037 0.0
Cd99 Cd 0.01562 0.73597 0.31074 0.0
Cd100 Cd 0.0515 0.78282 0.31393 0.0
O101 O 0.04849 0.77288 0.35254 0.0
O102 O 0.00115 0.69795 0.30118 0.0
O103 O 0.04333 0.71379 0.28938 0.0
C104 C 0.02488 0.69358 0.28954 0.0
C105 C 0.09544 0.80064 0.30079 0.0
C106 C 0.03511 0.75293 0.36354 0.0
C107 C 0.99326 0.79087 0.29028 0.0
O108 O 0.01713 0.80132 0.29626 0.0
O109 O 0.98806 0.76489 0.29447 0.0
O110 O 0.07823 0.8152 0.3147 0.0
O111 O 0.08787 0.77538 0.29426 0.0
H112 H 0.38502 0.06417 0.10895 0.0
H113 H 0.39092 0.06076 0.06203 0.0
H114 H 0.30311 0.03694 0.05433 0.0
H115 H 0.2976 0.03888 0.10113 0.0
H116 H 0.33163 0.00547 0.02478 0.0
H117 H 0.33051 0.10591 0.03985 0.0
H118 H 0.34601 0.15097 0.05929 0.0
H119 H 0.42904 0.13949 0.02727 0.0
H120 H 0.41411 0.09416 0.00789 0.0
H121 H 0.30294 0.05056 0.89566 0.0
H122 H 0.30717 0.05264 0.94273 0.0
H123 H 0.39555 0.0309 0.93729 0.0
H124 H 0.3914 0.02799 0.89002 0.0
H125 H 0.3724 0.08349 0.97249 0.0
H126 H 0.36904 0.98193 0.95566 0.0
H127 H 0.34876 0.93967 0.93472 0.0
H128 H 0.26809 0.95729 0.96936 0.0
H129 H 0.28782 -6e-05 0.99017 0.0
C130 C 0.36701 0.05826 0.09718 0.0
C131 C 0.34086 0.05178 0.10865 0.0
C132 C 0.37035 0.05644 0.07036 0.0
C133 C 0.34737 0.04893 0.05453 0.0
C134 C 0.32122 0.04265 0.06607 0.0
C135 C 0.31805 0.04384 0.09284 0.0
C136 C 0.35037 0.04712 0.02599 0.0
C137 C 0.34045 0.02267 0.01346 0.0
C138 C 0.36228 0.06928 0.01104 0.0
C139 C 0.37129 0.0965 0.02268 0.0
C140 C 0.35213 0.11289 0.03713 0.0
C141 C 0.3608 0.13849 0.0481 0.0
C142 C 0.38851 0.14804 0.04459 0.0
C143 C 0.4076 0.13204 0.03002 0.0
C144 C 0.39904 0.1064 0.01902 0.0
C145 C 0.32333 0.04634 0.90443 0.0
C146 C 0.34684 0.03903 0.88919 0.0
C147 C 0.32567 0.04753 0.93128 0.0
C148 C 0.35163 0.04191 0.94329 0.0
C149 C 0.37536 0.03531 0.92821 0.0
C150 C 0.37291 0.03354 0.90131 0.0
C151 C 0.3534 0.04216 0.97173 0.0
C152 C 0.36406 0.06627 0.98409 0.0
C153 C 0.34164 0.02002 0.98653 0.0
C154 C 0.32983 0.99426 0.97423 0.0
C155 C 0.34691 0.97695 0.95859 0.0
C156 C 0.33553 0.95289 0.9468 0.0
C157 C 0.30713 0.94584 0.95065 0.0
C158 C 0.29007 0.96279 0.96636 0.0
C159 C 0.30135 0.98689 0.97818 0.0
H160 H 0.29836 0.9272 0.9415 0.0
H161 H 0.39518 0.16787 0.0531 0.0
H162 H 0.08146 0.33382 0.59913 0.0
H163 H 0.08113 0.34033 0.5522 0.0
H164 H 0.99284 0.36307 0.55508 0.0
H165 H 0.99305 0.35715 0.60217 0.0
H166 H 0.00901 0.31811 0.51863 0.0
H167 H 0.03401 0.41326 0.54323 0.0
H168 H 0.06222 0.44917 0.56627 0.0
H169 H 0.13716 0.42127 0.52686 0.0
H170 H 0.10946 0.3849 0.50386 0.0
H171 H 0.99849 0.34568 0.38541 0.0
H172 H 0.99504 0.35055 0.43233 0.0
H173 H 0.08611 0.35563 0.43746 0.0
H174 H 0.08941 0.35271 0.39035 0.0
H175 H 0.06601 0.38903 0.47079 0.0
H176 H 0.04568 0.29225 0.44965 0.0
H177 H 0.02107 0.25304 0.42764 0.0
H178 H 0.9423 0.27914 0.46145 0.0
H179 H 0.9664 0.31873 0.48342 0.0
C180 C 0.06202 0.34043 0.58981 0.0
C181 C 0.03725 0.34492 0.6043 0.0
C182 C 0.06192 0.34424 0.56305 0.0
C183 C 0.03699 0.35224 0.55031 0.0
C184 C 0.01228 0.35696 0.56468 0.0
C185 C 0.01247 0.35364 0.59152 0.0
C186 C 0.0365 0.3542 0.52183 0.0
C187 C 0.02103 0.3339 0.50807 0.0
C188 C 0.05303 0.3742 0.50829 0.0
C189 C 0.06969 0.39619 0.52199 0.0
C190 C 0.05655 0.41462 0.53964 0.0
C191 C 0.07244 0.43509 0.55266 0.0
C192 C 0.10148 0.43746 0.54807 0.0
C193 C 0.11467 0.4194 0.53041 0.0
C194 C 0.09887 0.39887 0.51735 0.0
C195 C 0.01772 0.34806 0.3966 0.0
C196 C 0.04422 0.3486 0.38437 0.0
C197 C 0.01577 0.35066 0.42342 0.0
C198 C 0.04036 0.35269 0.4386 0.0
C199 C 0.06682 0.35401 0.42625 0.0
C200 C 0.06871 0.35226 0.39935 0.0
C201 C 0.03862 0.35271 0.4673 0.0
C202 C 0.05374 0.37332 0.48118 0.0
C203 C 0.02231 0.33249 0.48103 0.0
C204 C 0.00779 0.30862 0.46795 0.0
C205 C 0.02308 0.28973 0.45226 0.0
C206 C 0.00923 0.26742 0.43981 0.0
C207 C 0.98012 0.26365 0.44309 0.0
C208 C 0.96483 0.28212 0.4589 0.0
C209 C 0.97858 0.30448 0.47137 0.0
H210 H 0.96943 0.24638 0.43343 0.0
H211 H 0.11374 0.45333 0.55817 0.0
H212 H 0.74902 0.00707 0.89648 0.0
H213 H 0.74115 0.0079 0.94319 0.0
H214 H 0.7223 0.0971 0.93946 0.0
H215 H 0.72955 0.09636 0.89246 0.0
H216 H 0.76627 0.07859 0.97671 0.0
H217 H 0.67025 0.05934 0.95147 0.0
H218 H 0.6328 0.03371 0.92798 0.0
H219 H 0.65581 0.95665 0.96666 0.0
H220 H 0.6937 0.98174 0.99011 0.0
H221 H 0.74072 0.08586 0.11061 0.0
H222 H 0.73527 0.0915 0.06392 0.0
H223 H 0.72546 0.00105 0.05582 0.0
H224 H 0.72902 0.99565 0.10274 0.0
H225 H 0.69253 0.02436 0.02366 0.0
H226 H 0.79066 0.03868 0.04433 0.0
H227 H 0.83129 0.0605 0.06664 0.0
H228 H 0.80881 0.14168 0.03545 0.0
H229 H 0.76782 0.12038 0.01319 0.0
C230 C 0.74293 0.02682 0.90555 0.0
C231 C 0.73998 0.05168 0.89086 0.0
C232 C 0.73834 0.02721 0.93218 0.0
C233 C 0.73108 0.05253 0.94463 0.0
C234 C 0.7278 0.07736 0.93007 0.0
C235 C 0.73187 0.07687 0.90329 0.0
C236 C 0.72874 0.05317 0.97309 0.0
C237 C 0.74984 0.06725 0.98708 0.0
C238 C 0.70786 0.0375 0.98637 0.0
C239 C 0.68497 0.02239 0.9724 0.0
C240 C 0.66749 0.03688 0.95481 0.0
C241 C 0.64615 0.02246 0.94153 0.0
C242 C 0.64197 0.99355 0.94579 0.0
C243 C 0.65909 0.97903 0.96338 0.0
C244 C 0.68048 0.99336 0.97669 0.0
C245 C 0.7372 0.06724 0.09883 0.0
C246 C 0.73554 0.04029 0.11017 0.0
C247 C 0.73425 0.07044 0.07213 0.0
C248 C 0.7307 0.04664 0.05618 0.0
C249 C 0.72826 0.01977 0.06764 0.0
C250 C 0.73038 0.01666 0.09443 0.0
C251 C 0.73036 0.04954 0.02755 0.0
C252 C 0.70882 0.03604 0.01345 0.0
C253 C 0.75131 0.06518 0.01408 0.0
C254 C 0.77601 0.078 0.02734 0.0
C255 C 0.79428 0.06122 0.04237 0.0
C256 C 0.81739 0.07348 0.05498 0.0
C257 C 0.82258 0.10247 0.05252 0.0
C258 C 0.80473 0.11924 0.03737 0.0
C259 C 0.78157 0.10708 0.02474 0.0
H260 H 0.84047 0.11193 0.06231 0.0
H261 H 0.62543 0.98242 0.93549 0.0
H262 H 0.04762 0.79416 0.39831 0.0
H263 H 0.05166 0.78974 0.44507 0.0
H264 H 0.03164 0.70079 0.43976 0.0
H265 H 0.02621 0.70546 0.39282 0.0
H266 H 0.00624 0.72122 0.4794 0.0
H267 H 0.10108 0.72536 0.45017 0.0
H268 H 0.14236 0.74314 0.426 0.0
H269 H 0.13833 0.82167 0.46757 0.0
H270 H 0.09676 0.80453 0.49175 0.0
H271 H 0.06044 0.70422 0.61065 0.0
H272 H 0.05792 0.70022 0.56337 0.0
H273 H 0.04326 0.79005 0.55755 0.0
H274 H 0.04498 0.79418 0.60468 0.0
H275 H 0.08936 0.76284 0.52403 0.0
H276 H 0.98994 0.75646 0.55002 0.0
H277 H 0.95083 0.73488 0.57465 0.0
H278 H 0.96789 0.65446 0.53928 0.0
H279 H 0.0074 0.67552 0.5147 0.0
C280 C 0.04406 0.77364 0.40709 0.0
C281 C 0.0368 0.7501 0.39191 0.0
C282 C 0.04656 0.77109 0.43383 0.0
C283 C 0.0427 0.74476 0.44592 0.0
C284 C 0.0349 0.72128 0.43086 0.0
C285 C 0.03183 0.72396 0.40407 0.0
C286 C 0.04647 0.74209 0.47432 0.0
C287 C 0.02469 0.72988 0.48905 0.0
C288 C 0.07055 0.7533 0.48707 0.0
C289 C 0.09565 0.76372 0.47265 0.0
C290 C 0.10887 0.7465 0.45404 0.0
C291 C 0.13234 0.75645 0.44035 0.0
C292 C 0.14293 0.78354 0.44521 0.0
C293 C 0.1301 0.8007 0.46382 0.0
C294 C 0.1066 0.79086 0.47755 0.0
C295 C 0.0567 0.7231 0.59926 0.0
C296 C 0.05286 0.74951 0.6113 0.0
C297 C 0.05521 0.72075 0.57235 0.0
C298 C 0.05041 0.74486 0.55716 0.0
C299 C 0.047 0.77126 0.56907 0.0
C300 C 0.04788 0.77354 0.59594 0.0
C301 C 0.04889 0.74275 0.52876 0.0
C302 C 0.07117 0.75394 0.51416 0.0
C303 C 0.02566 0.73003 0.51615 0.0
C304 C 0.00182 0.71747 0.53079 0.0
C305 C 0.98553 0.73412 0.5477 0.0
C306 C 0.96325 0.722 0.5616 0.0
C307 C 0.95694 0.6933 0.5586 0.0
C308 C 0.97284 0.67668 0.54162 0.0
C309 C 0.99516 0.68869 0.52769 0.0
H310 H 0.93968 0.68395 0.56938 0.0
H311 H 0.1611 0.79121 0.43459 0.0
H312 H 0.42142 0.019 0.22381 0.0
H313 H 0.47142 0.01335 0.23476 0.0
H314 H 0.48135 0.10414 0.23624 0.0
H315 H 0.43168 0.10985 0.22441 0.0
H316 H 0.51882 0.08261 0.20626 0.0
H317 H 0.48842 0.06163 0.29187 0.0
H318 H 0.46053 0.03816 0.32595 0.0
H319 H 0.49477 0.95759 0.3037 0.0
H320 H 0.52259 0.98051 0.26923 0.0
H321 H 0.66485 0.07023 0.22966 0.0
H322 H 0.6157 0.08084 0.24111 0.0
H323 H 0.59323 0.99343 0.22871 0.0
H324 H 0.64219 0.98261 0.21744 0.0
H325 H 0.56332 0.0176 0.26967 0.0
H326 H 0.58682 0.03831 0.18025 0.0
H327 H 0.6145 0.06143 0.14579 0.0
H328 H 0.5922 0.1431 0.176 0.0
H329 H 0.5647 0.1204 0.21088 0.0
C330 C 0.43413 0.03774 0.22705 0.0
C331 C 0.42274 0.06485 0.223 0.0
C332 C 0.46271 0.0345 0.23345 0.0
C333 C 0.48022 0.05834 0.23641 0.0
C334 C 0.46834 0.08544 0.23394 0.0
C335 C 0.43993 0.08867 0.2272 0.0
C336 C 0.51139 0.05506 0.23882 0.0
C337 C 0.5285 0.06894 0.22061 0.0
C338 C 0.52413 0.0367 0.25709 0.0
C339 C 0.50745 0.02279 0.27782 0.0
C340 C 0.48985 0.03888 0.2941 0.0
C341 C 0.47408 0.02567 0.31352 0.0
C342 C 0.47584 0.99639 0.31695 0.0
C343 C 0.49342 0.98026 0.30101 0.0
C344 C 0.50923 0.99336 0.28155 0.0
C345 C 0.64957 0.05315 0.22993 0.0
C346 C 0.6573 0.02567 0.22227 0.0
C347 C 0.62151 0.05925 0.23646 0.0
C348 C 0.60079 0.03797 0.23542 0.0
C349 C 0.60889 0.01014 0.22963 0.0
C350 C 0.63687 0.00405 0.22302 0.0
C351 C 0.57033 0.04512 0.23714 0.0
C352 C 0.55346 0.03179 0.25586 0.0
C353 C 0.55767 0.06403 0.21938 0.0
C354 C 0.57401 0.07767 0.19833 0.0
C355 C 0.58801 0.06119 0.17965 0.0
C356 C 0.60363 0.07421 0.16004 0.0
C357 C 0.60518 0.10371 0.15876 0.0
C358 C 0.59103 0.12025 0.17705 0.0
C359 C 0.57542 0.10732 0.19674 0.0
H360 H 0.61729 0.11376 0.14356 0.0
H361 H 0.46361 0.98621 0.332 0.0
H362 H 0.06174 0.41972 0.73219 0.0
H363 H 0.06687 0.47038 0.74169 0.0
H364 H 0.98498 0.48642 0.70803 0.0
H365 H 0.97941 0.43609 0.69889 0.0
H366 H 0.03159 0.51709 0.68587 0.0
H367 H 0.98861 0.49591 0.76767 0.0
H368 H 0.98356 0.4708 0.80918 0.0
H369 H 0.06556 0.5001 0.83283 0.0
H370 H 0.07129 0.52505 0.79126 0.0
H371 H 0.0204 0.66644 0.73551 0.0
H372 H 0.01036 0.61615 0.74315 0.0
H373 H 0.0927 0.59415 0.7135 0.0
H374 H 0.10305 0.64402 0.70605 0.0
H375 H 0.04208 0.56741 0.76958 0.0
H376 H 0.07706 0.54606 0.66566 0.0
H377 H 0.08222 0.57152 0.62427 0.0
H378 H 0.01384 0.62689 0.64506 0.0
H379 H 0.00799 0.60146 0.68636 0.0
C380 C 0.04461 0.43398 0.72729 0.0
C381 C 0.02027 0.42393 0.71461 0.0
C382 C 0.04754 0.46285 0.7328 0.0
C383 C 0.0263 0.48202 0.7255 0.0
C384 C 0.00156 0.47189 0.71382 0.0
C385 C 0.99845 0.4431 0.70863 0.0
C386 C 0.03107 0.51288 0.72734 0.0
C387 C 0.03377 0.52806 0.70419 0.0
C388 C 0.03386 0.52712 0.75125 0.0
C389 C 0.03051 0.5121 0.77622 0.0
C390 C 0.0057 0.49675 0.7816 0.0
C391 C 0.00268 0.48261 0.80517 0.0
C392 C 0.02426 0.48378 0.8236 0.0
C393 C 0.04888 0.49917 0.81852 0.0
C394 C 0.05201 0.51334 0.79496 0.0
C395 C 0.03661 0.65093 0.73121 0.0
C396 C 0.06237 0.65918 0.71986 0.0
C397 C 0.03089 0.62227 0.73571 0.0
C398 C 0.05075 0.60157 0.72871 0.0
C399 C 0.07712 0.60988 0.71897 0.0
C400 C 0.08292 0.63842 0.71465 0.0
C401 C 0.04279 0.57134 0.72812 0.0
C402 C 0.03971 0.55633 0.75135 0.0
C403 C 0.03953 0.55709 0.70428 0.0
C404 C 0.0423 0.57203 0.67918 0.0
C405 C 0.06304 0.56357 0.66132 0.0
C406 C 0.06609 0.57801 0.63789 0.0
C407 C 0.04843 0.60087 0.63207 0.0
C408 C 0.02758 0.60925 0.64962 0.0
C409 C 0.0244 0.59485 0.67306 0.0
H410 H 0.05086 0.61205 0.61395 0.0
H411 H 0.02187 0.47283 0.84185 0.0
H412 H 0.66742 0.01305 0.78008 0.0
H413 H 0.61745 0.00735 0.76904 0.0
H414 H 0.6101 0.09752 0.75739 0.0
H415 H 0.65973 0.10339 0.76929 0.0
H416 H 0.57134 0.08111 0.78865 0.0
H417 H 0.603 0.04811 0.70665 0.0
H418 H 0.63104 0.01959 0.67605 0.0
H419 H 0.59433 0.94344 0.70647 0.0
H420 H 0.56635 0.97147 0.73751 0.0
H421 H 0.42514 0.06771 0.76514 0.0
H422 H 0.47461 0.07653 0.75351 0.0
H423 H 0.49592 0.99071 0.77425 0.0
H424 H 0.44668 0.98164 0.78561 0.0
H425 H 0.5266 0.0091 0.73213 0.0
H426 H 0.50204 0.04203 0.81824 0.0
H427 H 0.47435 0.07014 0.84946 0.0
H428 H 0.49877 0.14669 0.81067 0.0
H429 H 0.52631 0.11896 0.779 0.0
C430 C 0.65529 0.03156 0.77461 0.0
C431 C 0.66738 0.05868 0.77578 0.0
C432 C 0.62673 0.02828 0.76816 0.0
C433 C 0.60995 0.05201 0.76227 0.0
C434 C 0.62254 0.07891 0.76196 0.0
C435 C 0.65093 0.08223 0.76875 0.0
C436 C 0.57876 0.04924 0.75957 0.0
C437 C 0.56162 0.06585 0.77575 0.0
C438 C 0.56595 0.02888 0.74323 0.0
C439 C 0.58271 0.01192 0.72454 0.0
C440 C 0.60105 0.02527 0.70695 0.0
C441 C 0.61692 0.00919 0.6895 0.0
C442 C 0.61451 0.97972 0.68935 0.0
C443 C 0.59618 0.96627 0.70661 0.0
C444 C 0.58028 0.98225 0.72412 0.0
C445 C 0.44025 0.05056 0.76669 0.0
C446 C 0.4321 0.02411 0.77665 0.0
C447 C 0.4685 0.05563 0.76007 0.0
C448 C 0.48898 0.03437 0.76337 0.0
C449 C 0.48048 0.00741 0.77157 0.0
C450 C 0.45232 0.00233 0.77822 0.0
C451 C 0.51957 0.04086 0.76126 0.0
C452 C 0.5365 0.02483 0.74444 0.0
C453 C 0.53232 0.06175 0.77698 0.0
C454 C 0.51592 0.07842 0.79609 0.0
C455 C 0.50132 0.06484 0.81627 0.0
C456 C 0.48569 0.0807 0.83405 0.0
C457 C 0.48473 0.11018 0.832 0.0
C458 C 0.49948 0.12386 0.8122 0.0
C459 C 0.51511 0.10808 0.79433 0.0
H460 H 0.47262 0.12242 0.84579 0.0
H461 H 0.62681 0.96731 0.67582 0.0
H462 H 0.1097 0.43719 0.27392 0.0
H463 H 0.10584 0.48762 0.26425 0.0
H464 H 0.01482 0.48071 0.26367 0.0
H465 H 0.01857 0.42993 0.2726 0.0
H466 H 0.03234 0.51898 0.22837 0.0
H467 H 0.04994 0.49981 0.31847 0.0
H468 H 0.0758 0.4794 0.35545 0.0
H469 H 0.15013 0.52613 0.33411 0.0
H470 H 0.12478 0.54652 0.29676 0.0
H471 H 0.98763 0.65111 0.27927 0.0
H472 H 0.99862 0.60235 0.26743 0.0
H473 H 0.08737 0.6232 0.2636 0.0
H474 H 0.07649 0.67226 0.27541 0.0
H475 H 0.07599 0.579 0.29622 0.0
H476 H 0.05382 0.6042 0.20947 0.0
H477 H 0.02568 0.62504 0.17414 0.0
H478 H 0.95741 0.56797 0.19083 0.0
H479 H 0.98497 0.54704 0.22652 0.0
C480 C 0.08886 0.44629 0.27125 0.0
C481 C 0.06441 0.42972 0.27438 0.0
C482 C 0.08669 0.47512 0.26576 0.0
C483 C 0.06003 0.48805 0.26384 0.0
C484 C 0.03561 0.47119 0.26519 0.0
C485 C 0.03777 0.44219 0.27035 0.0
C486 C 0.05758 0.51935 0.26303 0.0
C487 C 0.04176 0.53214 0.24324 0.0
C488 C 0.07034 0.53656 0.28218 0.0
C489 C 0.08558 0.52441 0.30466 0.0
C490 C 0.07186 0.50556 0.32156 0.0
C491 C 0.08642 0.49402 0.34259 0.0
C492 C 0.11462 0.50139 0.34708 0.0
C493 C 0.1283 0.52039 0.33057 0.0
C494 C 0.11386 0.53195 0.30948 0.0
C495 C 0.00945 0.64548 0.27541 0.0
C496 C 0.03124 0.66545 0.27847 0.0
C497 C 0.01567 0.61763 0.26847 0.0
C498 C 0.0438 0.60918 0.26454 0.0
C499 C 0.06551 0.62936 0.26646 0.0
C500 C 0.05926 0.65736 0.27316 0.0
C501 C 0.05056 0.57871 0.26168 0.0
C502 C 0.06705 0.56599 0.28098 0.0
C503 C 0.0381 0.56166 0.24228 0.0
C504 C 0.02142 0.57417 0.22082 0.0
C505 C 0.03272 0.59624 0.20576 0.0
C506 C 0.01689 0.60804 0.18563 0.0
C507 C 0.98976 0.59787 0.18027 0.0
C508 C 0.97843 0.57584 0.195 0.0
C509 C 0.99416 0.56396 0.21517 0.0
H510 H 0.97754 0.60704 0.16468 0.0
H511 H 0.12585 0.49244 0.36338 0.0
H512 H 0.14253 0.30897 0.2725 0.0
H513 H 0.17812 0.27429 0.25964 0.0
H514 H 0.11617 0.20759 0.26576 0.0
H515 H 0.08051 0.24207 0.27914 0.0
H516 H 0.16412 0.19252 0.28867 0.0
H517 H 0.1386 0.23234 0.2067 0.0
H518 H 0.13027 0.2704 0.17499 0.0
H519 H 0.21724 0.29587 0.18081 0.0
H520 H 0.22601 0.25818 0.21284 0.0
H521 H 0.23865 0.08516 0.22119 0.0
H522 H 0.20476 0.12088 0.23535 0.0
H523 H 0.2702 0.18443 0.23328 0.0
H524 H 0.30437 0.1488 0.2189 0.0
H525 H 0.22163 0.20167 0.20889 0.0
H526 H 0.24694 0.16028 0.29032 0.0
H527 H 0.25468 0.12134 0.32127 0.0
H528 H 0.16713 0.0979 0.31555 0.0
H529 H 0.15895 0.13647 0.28428 0.0
C530 C 0.13637 0.28696 0.27094 0.0
C531 C 0.10864 0.27831 0.27685 0.0
C532 C 0.15676 0.26716 0.2635 0.0
C533 C 0.14976 0.23837 0.26153 0.0
C534 C 0.12204 0.2297 0.26718 0.0
C535 C 0.10166 0.24947 0.27474 0.0
C536 C 0.17153 0.21719 0.2543 0.0
C537 C 0.17643 0.19433 0.27105 0.0
C538 C 0.18809 0.21993 0.23163 0.0
C539 C 0.18288 0.24262 0.21238 0.0
C540 C 0.15589 0.24621 0.20139 0.0
C541 C 0.1511 0.26769 0.18332 0.0
C542 C 0.17319 0.2856 0.17594 0.0
C543 C 0.20014 0.28201 0.18657 0.0
C544 C 0.20504 0.26058 0.20467 0.0
C545 C 0.24595 0.10668 0.2239 0.0
C546 C 0.27425 0.11411 0.21889 0.0
C547 C 0.22654 0.12705 0.23209 0.0
C548 C 0.23502 0.15525 0.23552 0.0
C549 C 0.26327 0.16275 0.23076 0.0
C550 C 0.28277 0.14234 0.22266 0.0
C551 C 0.21408 0.17701 0.24321 0.0
C552 C 0.20936 0.19996 0.22655 0.0
C553 C 0.19757 0.17427 0.26588 0.0
C554 C 0.2024 0.15112 0.28477 0.0
C555 C 0.22939 0.14668 0.2955 0.0
C556 C 0.23384 0.12471 0.31313 0.0
C557 C 0.21143 0.10712 0.32032 0.0
C558 C 0.18448 0.11152 0.30994 0.0
C559 C 0.17992 0.13346 0.29228 0.0
H560 H 0.21492 0.09011 0.33398 0.0
H561 H 0.16944 0.30221 0.16194 0.0
H562 H 0.99355 0.23709 0.68621 0.0
H563 H 0.95862 0.20243 0.70046 0.0
H564 H 0.92534 0.26292 0.75516 0.0
H565 H 0.95929 0.29818 0.73988 0.0
H566 H 0.949 0.17613 0.74147 0.0
H567 H 0.85652 0.25261 0.7667 0.0
H568 H 0.83733 0.29851 0.75217 0.0
H569 H 0.8747 0.28628 0.67735 0.0
H570 H 0.8938 0.24017 0.69132 0.0
H571 H 0.84867 0.09964 0.81368 0.0
H572 H 0.88272 0.13443 0.79786 0.0
H573 H 0.82675 0.15475 0.7345 0.0
H574 H 0.79189 0.12125 0.75131 0.0
H575 H 0.8473 0.20028 0.74996 0.0
H576 H 0.88944 0.11181 0.72833 0.0
H577 H 0.9073 0.0634 0.73561 0.0
H578 H 0.96821 0.09514 0.78994 0.0
H579 H 0.95047 0.14371 0.78323 0.0
C580 C 0.97875 0.24301 0.70125 0.0
C581 C 0.97901 0.27039 0.71182 0.0
C582 C 0.9588 0.22315 0.70944 0.0
C583 C 0.93899 0.2301 0.72865 0.0
C584 C 0.93984 0.25722 0.73981 0.0
C585 C 0.95937 0.27732 0.73119 0.0
C586 C 0.91761 0.20888 0.73701 0.0
C587 C 0.92675 0.18143 0.74326 0.0
C588 C 0.88843 0.21546 0.73881 0.0
C589 C 0.87683 0.24308 0.73017 0.0
C590 C 0.86056 0.25968 0.74712 0.0
C591 C 0.84971 0.28574 0.73899 0.0
C592 C 0.85487 0.29535 0.71388 0.0
C593 C 0.87081 0.27887 0.69682 0.0
C594 C 0.88168 0.25279 0.70485 0.0
C595 C 0.8437 0.11152 0.79634 0.0
C596 C 0.81773 0.1077 0.78363 0.0
C597 C 0.86325 0.1313 0.78721 0.0
C598 C 0.85765 0.14691 0.76464 0.0
C599 C 0.83164 0.14305 0.75195 0.0
C600 C 0.81175 0.12383 0.7615 0.0
C601 C 0.87869 0.16753 0.75449 0.0
C602 C 0.86952 0.19492 0.74805 0.0
C603 C 0.90765 0.16053 0.75139 0.0
C604 C 0.91845 0.13136 0.75544 0.0
C605 C 0.90652 0.10844 0.74196 0.0
C606 C 0.91664 0.08098 0.74597 0.0
C607 C 0.93883 0.07619 0.76327 0.0
C608 C 0.951 0.09887 0.77656 0.0
C609 C 0.94095 0.12638 0.77264 0.0
H610 H 0.94663 0.05492 0.76635 0.0
H611 H 0.84647 0.31553 0.70762 0.0
H612 H 0.9981 0.8468 0.27788 0.0
H613 H 0.96087 0.87892 0.26371 0.0
H614 H 0.90071 0.81032 0.26477 0.0
H615 H 0.93805 0.77773 0.27877 0.0
H616 H 0.89398 0.84451 0.22232 0.0
H617 H 0.90165 0.85613 0.31381 0.0
H618 H 0.92621 0.86411 0.35522 0.0
H619 H 0.95388 0.94571 0.32888 0.0
H620 H 0.92982 0.93804 0.28714 0.0
H621 H 0.77411 0.93645 0.21795 0.0
H622 H 0.8082 0.90063 0.23193 0.0
H623 H 0.87439 0.96343 0.23205 0.0
H624 H 0.84051 0.99943 0.21819 0.0
H625 H 0.87562 0.93014 0.27531 0.0
H626 H 0.86946 0.91739 0.18311 0.0
H627 H 0.84492 0.9092 0.14172 0.0
H628 H 0.81392 0.82949 0.16976 0.0
H629 H 0.83797 0.8374 0.21148 0.0
C630 C 0.97702 0.8384 0.27497 0.0
C631 C 0.97102 0.8097 0.27969 0.0
C632 C 0.95573 0.85686 0.26695 0.0
C633 C 0.92794 0.8471 0.26365 0.0
C634 C 0.92202 0.81828 0.26735 0.0
C635 C 0.94337 0.79972 0.27538 0.0
C636 C 0.90509 0.86729 0.25691 0.0
C637 C 0.88962 0.863 0.23411 0.0
C638 C 0.89975 0.89163 0.27212 0.0
C639 C 0.91413 0.8964 0.29726 0.0
C640 C 0.91315 0.87568 0.31677 0.0
C641 C 0.92696 0.88017 0.34032 0.0
C642 C 0.94165 0.90537 0.34466 0.0
C643 C 0.94251 0.92618 0.32548 0.0
C644 C 0.92877 0.92179 0.30188 0.0
C645 C 0.79589 0.9427 0.22104 0.0
C646 C 0.80459 0.97081 0.21687 0.0
C647 C 0.81536 0.92215 0.22892 0.0
C648 C 0.84385 0.92934 0.23277 0.0
C649 C 0.85249 0.95746 0.22913 0.0
C650 C 0.83309 0.97798 0.22115 0.0
C651 C 0.86478 0.90758 0.24054 0.0
C652 C 0.87985 0.91157 0.2636 0.0
C653 C 0.86967 0.88296 0.2256 0.0
C654 C 0.85524 0.87814 0.20052 0.0
C655 C 0.8572 0.89823 0.18054 0.0
C656 C 0.84343 0.89362 0.157 0.0
C657 C 0.8278 0.86888 0.15314 0.0
C658 C 0.82599 0.84866 0.17279 0.0
C659 C 0.8397 0.8532 0.19638 0.0
H660 H 0.81716 0.86533 0.1349 0.0
H661 H 0.95233 0.9088 0.3629 0.0
H662 H 0.15105 0.77163 0.72645 0.0
H663 H 0.18918 0.80217 0.74234 0.0
H664 H 0.13275 0.87392 0.74031 0.0
H665 H 0.09463 0.84372 0.72493 0.0
H666 H 0.21374 0.84733 0.71946 0.0
H667 H 0.14769 0.91945 0.78769 0.0
H668 H 0.10674 0.9156 0.81701 0.0
H669 H 0.12327 0.82695 0.82728 0.0
H670 H 0.16455 0.83033 0.79832 0.0
H671 H 0.24935 0.99461 0.77743 0.0
H672 H 0.21713 0.95651 0.7657 0.0
H673 H 0.28528 0.89611 0.7718 0.0
H674 H 0.31795 0.93432 0.78329 0.0
H675 H 0.20197 0.91178 0.79437 0.0
H676 H 0.27067 0.8408 0.72944 0.0
H677 H 0.31132 0.84454 0.69969 0.0
H678 H 0.28906 0.93068 0.68271 0.0
H679 H 0.2481 0.92733 0.71209 0.0
C680 C 0.14669 0.79385 0.72967 0.0
C681 C 0.11974 0.8052 0.72447 0.0
C682 C 0.16853 0.81127 0.73865 0.0
C683 C 0.16373 0.84024 0.74276 0.0
C684 C 0.13682 0.85153 0.73773 0.0
C685 C 0.11504 0.8342 0.72881 0.0
C686 C 0.18692 0.85915 0.75136 0.0
C687 C 0.21145 0.86103 0.73615 0.0
C688 C 0.18372 0.8773 0.77291 0.0
C689 C 0.15912 0.87512 0.79066 0.0
C690 C 0.14269 0.89916 0.79631 0.0
C691 C 0.11939 0.89706 0.81284 0.0
C692 C 0.11236 0.87103 0.82395 0.0
C693 C 0.12867 0.84707 0.8186 0.0
C694 C 0.152 0.84907 0.80209 0.0
C695 C 0.25764 0.97329 0.77608 0.0
C696 C 0.28626 0.96753 0.78137 0.0
C697 C 0.23913 0.95151 0.76946 0.0
C698 C 0.24878 0.92349 0.76789 0.0
C699 C 0.27744 0.91764 0.77266 0.0
C700 C 0.29607 0.9395 0.77925 0.0
C701 C 0.22839 0.90052 0.76205 0.0
C702 C 0.20442 0.89783 0.77787 0.0
C703 C 0.23215 0.88165 0.74109 0.0
C704 C 0.25656 0.8839 0.72322 0.0
C705 C 0.27444 0.86051 0.71931 0.0
C706 C 0.29752 0.86257 0.70252 0.0
C707 C 0.30283 0.88787 0.6894 0.0
C708 C 0.285 0.91114 0.69298 0.0
C709 C 0.26188 0.90919 0.70973 0.0
H710 H 0.32072 0.88942 0.67642 0.0
H711 H 0.0943 0.86945 0.83673 0.0
H712 H 0.77583 0.95185 0.76641 0.0
H713 H 0.79808 0.90899 0.74887 0.0
H714 H 0.86879 0.92053 0.80062 0.0
H715 H 0.84648 0.96237 0.81859 0.0
H716 H 0.84387 0.90355 0.72303 0.0
H717 H 0.90108 0.86236 0.81671 0.0
H718 H 0.88992 0.85613 0.86289 0.0
H719 H 0.80114 0.85501 0.84534 0.0
H720 H 0.81173 0.86079 0.79899 0.0
H721 H 0.97792 0.85438 0.69828 0.0
H722 H 0.9343 0.87584 0.71334 0.0
H723 H 0.906 0.79498 0.74225 0.0
H724 H 0.95052 0.7733 0.72776 0.0
H725 H 0.89546 0.83319 0.77645 0.0
H726 H 0.87391 0.82601 0.68839 0.0
H727 H 0.88095 0.82849 0.64123 0.0
H728 H 0.89024 0.91873 0.64586 0.0
H729 H 0.88369 0.91679 0.69309 0.0
C730 C 0.7959 0.9449 0.77429 0.0
C731 C 0.80938 0.96051 0.79389 0.0
C732 C 0.8086 0.92044 0.76425 0.0
C733 C 0.83494 0.9112 0.77368 0.0
C734 C 0.84812 0.92664 0.79348 0.0
C735 C 0.83541 0.95081 0.80361 0.0
C736 C 0.85029 0.88719 0.76146 0.0
C737 C 0.85484 0.88791 0.73466 0.0
C738 C 0.86371 0.86595 0.77642 0.0
C739 C 0.85723 0.8621 0.80432 0.0
C740 C 0.87918 0.86056 0.82264 0.0
C741 C 0.87294 0.85717 0.84888 0.0
C742 C 0.84484 0.85521 0.85705 0.0
C743 C 0.8229 0.85659 0.839 0.0
C744 C 0.82901 0.85996 0.81274 0.0
C745 C 0.9624 0.841 0.70766 0.0
C746 C 0.96768 0.81209 0.71178 0.0
C747 C 0.93726 0.85331 0.71608 0.0
C748 C 0.91648 0.83695 0.72842 0.0
C749 C 0.92161 0.80799 0.73258 0.0
C750 C 0.94703 0.79563 0.72431 0.0
C751 C 0.89051 0.85097 0.73838 0.0
C752 C 0.88392 0.84831 0.76471 0.0
C753 C 0.87451 0.8698 0.72285 0.0
C754 C 0.87835 0.87122 0.69436 0.0
C755 C 0.8776 0.84638 0.67939 0.0
C756 C 0.8815 0.84769 0.65263 0.0
C757 C 0.88605 0.87374 0.64056 0.0
C758 C 0.88668 0.89856 0.65523 0.0
C759 C 0.88282 0.89737 0.682 0.0
H760 H 0.88907 0.87471 0.61984 0.0
H761 H 0.84006 0.85261 0.87737 0.0
H762 H 0.24277 0.96472 0.18395 0.0
H763 H 0.22066 0.92286 0.20212 0.0
H764 H 0.29185 0.91135 0.25333 0.0
H765 H 0.31404 0.9541 0.23545 0.0
H766 H 0.23119 0.86861 0.20681 0.0
H767 H 0.2653 0.88721 0.31127 0.0
H768 H 0.28329 0.92535 0.33947 0.0
H769 H 0.23999 0.98728 0.2933 0.0
H770 H 0.22154 0.94947 0.26505 0.0
H771 H 0.14134 0.77423 0.27849 0.0
H772 H 0.18538 0.79662 0.26368 0.0
H773 H 0.1536 0.87798 0.28823 0.0
H774 H 0.1106 0.8558 0.3038 0.0
H775 H 0.20624 0.87552 0.29969 0.0
H776 H 0.15005 0.85186 0.223 0.0
H777 H 0.12626 0.81868 0.19324 0.0
H778 H 0.20468 0.77462 0.1813 0.0
H779 H 0.22883 0.80742 0.2112 0.0
C780 C 0.25397 0.9532 0.19889 0.0
C781 C 0.27999 0.96298 0.20852 0.0
C782 C 0.24136 0.92906 0.20914 0.0
C783 C 0.25444 0.91405 0.22926 0.0
C784 C 0.28123 0.92279 0.23799 0.0
C785 C 0.29389 0.94717 0.22776 0.0
C786 C 0.2383 0.89124 0.24238 0.0
C787 C 0.22611 0.86979 0.22724 0.0
C788 C 0.23159 0.89273 0.269 0.0
C789 C 0.24244 0.91559 0.28589 0.0
C790 C 0.25965 0.90898 0.30718 0.0
C791 C 0.2699 0.93052 0.32316 0.0
C792 C 0.26289 0.95873 0.31811 0.0
C793 C 0.24551 0.96544 0.29713 0.0
C794 C 0.23517 0.94398 0.28112 0.0
C795 C 0.14395 0.79685 0.28084 0.0
C796 C 0.12247 0.81327 0.29221 0.0
C797 C 0.16908 0.80963 0.27236 0.0
C798 C 0.17279 0.83906 0.27467 0.0
C799 C 0.15146 0.85523 0.28641 0.0
C800 C 0.12672 0.8425 0.29519 0.0
C801 C 0.19787 0.85388 0.26381 0.0
C802 C 0.21201 0.87364 0.27946 0.0
C803 C 0.20562 0.85145 0.23746 0.0
C804 C 0.19112 0.83181 0.21954 0.0
C805 C 0.16214 0.83497 0.21414 0.0
C806 C 0.14861 0.81627 0.19724 0.0
C807 C 0.16393 0.7945 0.18546 0.0
C808 C 0.19283 0.79145 0.19049 0.0
C809 C 0.20644 0.81008 0.2074 0.0
H810 H 0.15342 0.78004 0.17238 0.0
H811 H 0.27086 0.97538 0.3305 0.0
H812 H 0.12242 0.23858 0.67904 0.0
H813 H 0.16338 0.21466 0.69703 0.0
H814 H 0.18018 0.28674 0.74591 0.0
H815 H 0.13819 0.31065 0.72843 0.0
H816 H 0.21741 0.22207 0.69912 0.0
H817 H 0.20788 0.26238 0.80299 0.0
H818 H 0.17258 0.28335 0.83252 0.0
H819 H 0.10584 0.24077 0.79178 0.0
H820 H 0.14078 0.21935 0.76223 0.0
H821 H 0.31709 0.13744 0.76982 0.0
H822 H 0.29301 0.18002 0.75369 0.0
H823 H 0.21423 0.14968 0.78551 0.0
H824 H 0.23811 0.10808 0.80227 0.0
H825 H 0.21713 0.20327 0.79343 0.0
H826 H 0.23419 0.14138 0.71961 0.0
H827 H 0.26427 0.11471 0.68916 0.0
H828 H 0.30749 0.19129 0.66823 0.0
H829 H 0.27782 0.21835 0.69878 0.0
C830 C 0.13488 0.24954 0.69348 0.0
C831 C 0.12684 0.27641 0.70252 0.0
C832 C 0.15849 0.23586 0.70365 0.0
C833 C 0.1748 0.24873 0.72301 0.0
C834 C 0.16769 0.2762 0.73125 0.0
C835 C 0.14374 0.28986 0.72122 0.0
C836 C 0.19771 0.23209 0.73557 0.0
C837 C 0.21761 0.21828 0.71981 0.0
C838 C 0.19805 0.22702 0.76254 0.0
C839 C 0.17688 0.23963 0.78023 0.0
C840 C 0.18567 0.25751 0.80038 0.0
C841 C 0.16573 0.26945 0.81711 0.0
C842 C 0.13697 0.26349 0.81396 0.0
C843 C 0.1281 0.24547 0.79414 0.0
C844 C 0.14795 0.23344 0.77738 0.0
C845 C 0.29468 0.14004 0.77348 0.0
C846 C 0.27949 0.11935 0.78722 0.0
C847 C 0.28094 0.16434 0.76424 0.0
C848 C 0.25172 0.16802 0.76821 0.0
C849 C 0.23679 0.14753 0.78233 0.0
C850 C 0.25049 0.12359 0.7918 0.0
C851 C 0.23587 0.19218 0.75681 0.0
C852 C 0.2175 0.20765 0.77284 0.0
C853 C 0.23626 0.19802 0.72997 0.0
C854 C 0.25409 0.18178 0.71169 0.0
C855 C 0.25026 0.15247 0.70864 0.0
C856 C 0.2672 0.1373 0.69135 0.0
C857 C 0.28785 0.15128 0.67684 0.0
C858 C 0.29154 0.18048 0.67953 0.0
C859 C 0.27468 0.19574 0.69682 0.0
H860 H 0.30094 0.13951 0.66346 0.0
H861 H 0.12158 0.27277 0.82692 0.0
H862 H 0.94477 0.31536 0.26105 0.0
H863 H 0.90145 0.2917 0.24616 0.0
H864 H 0.92269 0.21853 0.2922 0.0
H865 H 0.96504 0.24211 0.30759 0.0
H866 H 0.89445 0.24701 0.21856 0.0
H867 H 0.86817 0.183 0.31289 0.0
H868 H 0.86809 0.19113 0.35995 0.0
H869 H 0.8616 0.28074 0.34749 0.0
H870 H 0.86121 0.27316 0.30036 0.0
H871 H 0.84429 0.11352 0.19187 0.0
H872 H 0.8672 0.15638 0.20698 0.0
H873 H 0.79074 0.18103 0.24665 0.0
H874 H 0.76773 0.13719 0.23212 0.0
H875 H 0.83322 0.19015 0.27663 0.0
H876 H 0.81358 0.217 0.19131 0.0
H877 H 0.80977 0.2128 0.14395 0.0
H878 H 0.90008 0.20546 0.13797 0.0
H879 H 0.90445 0.20919 0.18532 0.0
C880 C 0.93993 0.29437 0.2682 0.0
C881 C 0.9583 0.28065 0.28555 0.0
C882 C 0.9152 0.28087 0.25969 0.0
C883 C 0.90847 0.2535 0.26841 0.0
C884 C 0.92686 0.23993 0.28574 0.0
C885 C 0.9513 0.25341 0.29437 0.0
C886 C 0.8836 0.23784 0.25812 0.0
C887 C 0.88081 0.23487 0.23125 0.0
C888 C 0.86494 0.22284 0.27461 0.0
C889 C 0.86476 0.22749 0.30302 0.0
C890 C 0.8665 0.20443 0.32016 0.0
C891 C 0.8666 0.20895 0.34687 0.0
C892 C 0.86489 0.23643 0.3567 0.0
C893 C 0.863 0.25946 0.33985 0.0
C894 C 0.86288 0.25507 0.31313 0.0
C895 C 0.83217 0.12808 0.20366 0.0
C896 C 0.80413 0.12197 0.21074 0.0
C897 C 0.84527 0.15279 0.21212 0.0
C898 C 0.83054 0.17236 0.22747 0.0
C899 C 0.80247 0.16637 0.23464 0.0
C900 C 0.78936 0.14135 0.22635 0.0
C901 C 0.84548 0.19795 0.23717 0.0
C902 C 0.84634 0.20283 0.26392 0.0
C903 C 0.8617 0.21538 0.22053 0.0
C904 C 0.85932 0.21332 0.19194 0.0
C905 C 0.83263 0.21435 0.17992 0.0
C906 C 0.83037 0.21205 0.15306 0.0
C907 C 0.85466 0.20885 0.13796 0.0
C908 C 0.88128 0.20797 0.14969 0.0
C909 C 0.88366 0.21024 0.17655 0.0
H910 H 0.85286 0.20706 0.11717 0.0
H911 H 0.86499 0.23988 0.37739 0.0
loop_
_geom_bond_atom_site_label_1
_geom_bond_atom_site_label_2
_geom_bond_distance
_geom_bond_site_symmetry_2
_ccdc_geom_bond_type
O0 Cd1 2.223 . S
O0 C8 1.315 . S
Cd1 O0 2.223 . S
Cd1 O4 2.297 . S
Cd1 O5 2.439 . S
Cd1 O11 2.240 . S
Cd2 O3 2.240 . S
Cd2 O10 2.223 . S
Cd2 O12 2.297 1_545 S
Cd2 O13 2.439 1_545 S
O3 Cd2 2.240 . S
O3 C8 1.279 . S
O4 Cd1 2.297 . S
O4 C6 1.247 . S
O5 Cd1 2.439 . S
O5 C6 1.208 . S
C6 O4 1.247 . S
C6 O5 1.208 . S
C7 O12 1.247 . S
C7 O13 1.208 . S
C8 O0 1.315 . S
C8 O3 1.279 . S
C9 O10 1.315 . S
C9 O11 1.279 . S
O10 Cd2 2.223 . S
O10 C9 1.315 . S
O11 Cd1 2.240 . S
O11 C9 1.279 . S
O12 Cd2 2.297 1_565 S
O12 C7 1.247 . S
O13 Cd2 2.439 1_565 S
O13 C7 1.208 . S
O14 Cd15 2.223 . S
O14 C22 1.315 . S
Cd15 O14 2.223 . S
Cd15 O18 2.297 . S
Cd15 O19 2.439 . S
Cd15 O25 2.240 . S
Cd16 O17 2.240 . S
Cd16 O24 2.223 . S
Cd16 O26 2.297 . S
Cd16 O27 2.439 . S
O17 Cd16 2.240 . S
O17 C22 1.279 . S
O18 Cd15 2.297 . S
O18 C20 1.247 . S
O19 Cd15 2.439 . S
O19 C20 1.208 . S
C20 O18 1.247 . S
C20 O19 1.208 . S
C21 O26 1.247 . S
C21 O27 1.208 . S
C22 O14 1.315 . S
C22 O17 1.279 . S
C23 O24 1.315 . S
C23 O25 1.279 . S
O24 Cd16 2.223 . S
O24 C23 1.315 . S
O25 Cd15 2.240 . S
O25 C23 1.279 . S
O26 Cd16 2.297 . S
O26 C21 1.247 . S
O27 Cd16 2.439 . S
O27 C21 1.208 . S
O28 Cd29 2.223 . S
O28 C36 1.315 . S
Cd29 O28 2.223 . S
Cd29 O32 2.297 . S
Cd29 O33 2.439 . S
Cd29 O39 2.240 . S
Cd30 O31 2.240 . S
Cd30 O38 2.223 . S
Cd30 O40 2.297 . S
Cd30 O41 2.439 . S
O31 Cd30 2.240 . S
O31 C36 1.279 . S
O32 Cd29 2.297 . S
O32 C34 1.247 . S
O33 Cd29 2.439 . S
O33 C34 1.208 . S
C34 O32 1.247 . S
C34 O33 1.208 . S
C35 O40 1.247 . S
C35 O41 1.208 . S
C36 O28 1.315 . S
C36 O31 1.279 . S
C37 O38 1.315 . S
C37 O39 1.279 . S
O38 Cd30 2.223 . S
O38 C37 1.315 . S
O39 Cd29 2.240 . S
O39 C37 1.279 . S
O40 Cd30 2.297 . S
O40 C35 1.247 . S
O41 Cd30 2.439 . S
O41 C35 1.208 . S
O42 Cd43 2.223 . S
O42 C50 1.315 . S
Cd43 O42 2.223 . S
Cd43 O46 2.297 . S
Cd43 O47 2.439 . S
Cd43 O53 2.240 . S
Cd44 O45 2.240 . S
Cd44 O52 2.223 . S
Cd44 O54 2.297 1_455 S
Cd44 O55 2.439 1_455 S
O45 Cd44 2.240 . S
O45 C50 1.279 . S
O46 Cd43 2.297 . S
O46 C48 1.247 . S
O47 Cd43 2.439 . S
O47 C48 1.208 . S
C48 O46 1.247 . S
C48 O47 1.208 . S
C49 O54 1.247 . S
C49 O55 1.208 . S
C50 O42 1.315 . S
C50 O45 1.279 . S
C51 O52 1.315 . S
C51 O53 1.279 . S
O52 Cd44 2.223 . S
O52 C51 1.315 . S
O53 Cd43 2.240 . S
O53 C51 1.279 . S
O54 Cd44 2.297 1_655 S
O54 C49 1.247 . S
O55 Cd44 2.439 1_655 S
O55 C49 1.208 . S
O56 Cd57 2.223 . S
O56 C64 1.315 . S
Cd57 O56 2.223 . S
Cd57 O60 2.297 . S
Cd57 O61 2.439 . S
Cd57 O67 2.240 . S
Cd58 O59 2.240 . S
Cd58 O66 2.223 . S
Cd58 O68 2.297 . S
Cd58 O69 2.439 . S
O59 Cd58 2.240 . S
O59 C64 1.279 . S
O60 Cd57 2.297 . S
O60 C62 1.247 . S
O61 Cd57 2.439 . S
O61 C62 1.208 . S
C62 O60 1.247 . S
C62 O61 1.208 . S
C63 O68 1.247 . S
C63 O69 1.208 . S
C64 O56 1.315 . S
C64 O59 1.279 . S
C65 O66 1.315 . S
C65 O67 1.279 . S
O66 Cd58 2.223 . S
O66 C65 1.315 . S
O67 Cd57 2.240 . S
O67 C65 1.279 . S
O68 Cd58 2.297 . S
O68 C63 1.247 . S
O69 Cd58 2.439 . S
O69 C63 1.208 . S
O70 Cd71 2.223 . S
O70 C78 1.315 . S
Cd71 O70 2.223 . S
Cd71 O74 2.297 . S
Cd71 O75 2.439 . S
Cd71 O81 2.240 . S
Cd72 O73 2.240 . S
Cd72 O80 2.223 . S
Cd72 O82 2.297 1_455 S
Cd72 O83 2.439 1_455 S
O73 Cd72 2.240 . S
O73 C78 1.279 . S
O74 Cd71 2.297 . S
O74 C76 1.247 . S
O75 Cd71 2.439 . S
O75 C76 1.208 . S
C76 O74 1.247 . S
C76 O75 1.208 . S
C77 O82 1.247 . S
C77 O83 1.208 . S
C78 O70 1.315 . S
C78 O73 1.279 . S
C79 O80 1.315 . S
C79 O81 1.279 . S
O80 Cd72 2.223 . S
O80 C79 1.315 . S
O81 Cd71 2.240 . S
O81 C79 1.279 . S
O82 Cd72 2.297 1_655 S
O82 C77 1.247 . S
O83 Cd72 2.439 1_655 S
O83 C77 1.208 . S
O84 Cd85 2.223 . S
O84 C92 1.315 . S
Cd85 O84 2.223 . S
Cd85 O88 2.297 . S
Cd85 O89 2.439 . S
Cd85 O95 2.240 . S
Cd86 O87 2.240 . S
Cd86 O94 2.223 . S
Cd86 O96 2.297 1_545 S
Cd86 O97 2.439 1_545 S
O87 Cd86 2.240 . S
O87 C92 1.279 . S
O88 Cd85 2.297 . S
O88 C90 1.247 . S
O89 Cd85 2.439 . S
O89 C90 1.208 . S
C90 O88 1.247 . S
C90 O89 1.208 . S
C91 O96 1.247 . S
C91 O97 1.208 . S
C92 O84 1.315 . S
C92 O87 1.279 . S
C93 O94 1.315 . S
C93 O95 1.279 . S
O94 Cd86 2.223 . S
O94 C93 1.315 . S
O95 Cd85 2.240 . S
O95 C93 1.279 . S
O96 Cd86 2.297 1_565 S
O96 C91 1.247 . S
O97 Cd86 2.439 1_565 S
O97 C91 1.208 . S
O98 Cd99 2.223 . S
O98 C106 1.315 . S
Cd99 O98 2.223 . S
Cd99 O102 2.297 . S
Cd99 O103 2.439 . S
Cd99 O109 2.240 . S
Cd100 O101 2.240 . S
Cd100 O108 2.223 . S
Cd100 O110 2.297 . S
Cd100 O111 2.439 . S
O101 Cd100 2.240 . S
O101 C106 1.279 . S
O102 Cd99 2.297 . S
O102 C104 1.247 . S
O103 Cd99 2.439 . S
O103 C104 1.208 . S
C104 O102 1.247 . S
C104 O103 1.208 . S
C105 O110 1.247 . S
C105 O111 1.208 . S
C106 O98 1.315 . S
C106 O101 1.279 . S
C107 O108 1.315 . S
C107 O109 1.279 . S
O108 Cd100 2.223 . S
O108 C107 1.315 . S
O109 Cd99 2.240 . S
O109 C107 1.279 . S
O110 Cd100 2.297 . S
O110 C105 1.247 . S
O111 Cd100 2.439 . S
O111 C105 1.208 . S
H112 C130 0.951 . S
H113 C132 0.951 . S
H114 C134 0.950 . S
H115 C135 0.950 . S
H116 C137 0.950 . S
H117 C140 0.950 . S
H118 C141 0.950 . S
H119 C143 0.950 . S
H120 C144 0.950 . S
H121 C145 0.951 . S
H122 C147 0.951 . S
H123 C149 0.950 . S
H124 C150 0.950 . S
H125 C152 0.950 . S
H126 C155 0.950 . S
H127 C156 0.950 . S
H128 C158 0.950 . S
H129 C159 0.950 1_545 S
C130 H112 0.951 . S
C130 C131 1.366 . S
C130 C132 1.388 . S
C131 C130 1.366 . S
C131 C135 1.385 . S
C132 H113 0.951 . S
C132 C130 1.388 . S
C132 C133 1.366 . S
C133 C132 1.366 . S
C133 C134 1.414 . S
C133 C136 1.499 . S
C134 H114 0.950 . S
C134 C133 1.414 . S
C134 C135 1.374 . S
C135 H115 0.950 . S
C135 C131 1.385 . S
C135 C134 1.374 . S
C136 C133 1.499 . S
C136 C137 1.373 . S
C136 C138 1.389 . S
C137 H116 0.950 . S
C137 C136 1.373 . S
C137 C153 1.377 1_554 S
C138 C136 1.389 . S
C138 C139 1.524 . S
C138 C152 1.377 1_554 S
C139 C138 1.524 . S
C139 C140 1.397 . S
C139 C144 1.363 . S
C140 H117 0.950 . S
C140 C139 1.397 . S
C140 C141 1.334 . S
C141 H118 0.950 . S
C141 C140 1.334 . S
C141 C142 1.287 . S
C142 C141 1.287 . S
C142 C143 1.524 . S
C142 H161 0.913 . S
C143 H119 0.950 . S
C143 C142 1.524 . S
C143 C144 1.415 . S
C144 H120 0.950 . S
C144 C139 1.363 . S
C144 C143 1.415 . S
C145 H121 0.951 . S
C145 C146 1.366 . S
C145 C147 1.388 . S
C146 C145 1.366 . S
C146 C150 1.385 . S
C147 H122 0.951 . S
C147 C145 1.388 . S
C147 C148 1.366 . S
C148 C147 1.366 . S
C148 C149 1.414 . S
C148 C151 1.499 . S
C149 H123 0.950 . S
C149 C148 1.414 . S
C149 C150 1.374 . S
C150 H124 0.950 . S
C150 C146 1.385 . S
C150 C149 1.374 . S
C151 C148 1.499 . S
C151 C152 1.373 . S
C151 C153 1.389 . S
C152 H125 0.950 . S
C152 C138 1.377 1_556 S
C152 C151 1.373 . S
C153 C137 1.377 1_556 S
C153 C151 1.389 . S
C153 C154 1.524 1_545 S
C154 C153 1.524 1_565 S
C154 C155 1.397 . S
C154 C159 1.363 . S
C155 H126 0.950 . S
C155 C154 1.397 . S
C155 C156 1.334 . S
C156 H127 0.950 . S
C156 C155 1.334 . S
C156 C157 1.287 . S
C157 C156 1.287 . S
C157 C158 1.524 . S
C157 H160 0.999 . S
C158 H128 0.950 . S
C158 C157 1.524 . S
C158 C159 1.415 . S
C159 H129 0.950 1_565 S
C159 C154 1.363 . S
C159 C158 1.415 . S
H160 C157 0.999 . S
H161 C142 0.913 . S
H162 C180 0.951 . S
H163 C182 0.951 . S
H164 C184 0.950 . S
H165 C185 0.950 . S
H166 C187 0.971 . S
H167 C190 0.950 . S
H168 C191 0.950 . S
H169 C193 0.950 . S
H170 C194 0.950 . S
H171 C195 0.951 . S
H172 C197 0.951 . S
H173 C199 0.950 . S
H174 C200 0.950 . S
H175 C202 0.950 . S
H176 C205 0.978 . S
H177 C206 0.950 . S
H178 C208 0.950 . S
H179 C209 0.950 . S
C180 H162 0.951 . S
C180 C181 1.366 . S
C180 C182 1.388 . S
C181 C180 1.366 . S
C181 C185 1.385 . S
C182 H163 0.951 . S
C182 C180 1.388 . S
C182 C183 1.366 . S
C183 C182 1.366 . S
C183 C184 1.414 . S
C183 C186 1.499 . S
C184 H164 0.950 . S
C184 C183 1.414 . S
C184 C185 1.374 . S
C185 H165 0.950 . S
C185 C181 1.385 . S
C185 C184 1.374 . S
C186 C183 1.499 . S
C186 C187 1.373 . S
C186 C188 1.389 . S
C187 H166 0.971 . S
C187 C186 1.373 . S
C187 C203 1.377 . S
C188 C186 1.389 . S
C188 C189 1.524 . S
C188 C202 1.377 . S
C189 C188 1.524 . S
C189 C190 1.397 . S
C189 C194 1.363 . S
C190 H167 0.950 . S
C190 C189 1.397 . S
C190 C191 1.334 . S
C191 H168 0.950 . S
C191 C190 1.334 . S
C191 C192 1.287 . S
C192 C191 1.287 . S
C192 C193 1.524 . S
C192 H211 0.913 . S
C193 H169 0.950 . S
C193 C192 1.524 . S
C193 C194 1.415 . S
C194 H170 0.950 . S
C194 C189 1.363 . S
C194 C193 1.415 . S
C195 H171 0.951 . S
C195 C196 1.366 . S
C195 C197 1.388 . S
C196 C195 1.366 . S
C196 C200 1.385 . S
C197 H172 0.951 . S
C197 C195 1.388 . S
C197 C198 1.366 . S
C198 C197 1.366 . S
C198 C199 1.414 . S
C198 C201 1.499 . S
C199 H173 0.950 . S
C199 C198 1.414 . S
C199 C200 1.374 . S
C200 H174 0.950 . S
C200 C196 1.385 . S
C200 C199 1.374 . S
C201 C198 1.499 . S
C201 C202 1.373 . S
C201 C203 1.389 . S
C202 H175 0.950 . S
C202 C188 1.377 . S
C202 C201 1.373 . S
C203 C187 1.377 . S
C203 C201 1.389 . S
C203 C204 1.524 1_455 S
C204 C203 1.524 1_655 S
C204 C205 1.397 . S
C204 C209 1.363 . S
C205 H176 0.978 . S
C205 C204 1.397 . S
C205 C206 1.334 . S
C206 H177 0.950 . S
C206 C205 1.334 . S
C206 C207 1.287 . S
C207 C206 1.287 . S
C207 C208 1.524 . S
C207 H210 0.999 . S
C208 H178 0.950 . S
C208 C207 1.524 . S
C208 C209 1.415 . S
C209 H179 0.950 . S
C209 C204 1.363 . S
C209 C208 1.415 . S
H210 C207 0.999 . S
H211 C192 0.913 . S
H212 C230 0.951 . S
H213 C232 0.951 . S
H214 C234 0.950 . S
H215 C235 0.950 . S
H216 C237 0.950 . S
H217 C240 0.950 1_545 S
H218 C241 0.950 . S
H219 C243 0.950 . S
H220 C244 0.950 . S
H221 C245 0.951 . S
H222 C247 0.951 . S
H223 C249 0.950 . S
H224 C250 0.950 . S
H225 C252 0.957 . S
H226 C255 0.950 . S
H227 C256 0.950 . S
H228 C258 0.950 . S
H229 C259 0.950 . S
C230 H212 0.951 . S
C230 C231 1.366 . S
C230 C232 1.388 . S
C231 C230 1.366 . S
C231 C235 1.385 . S
C232 H213 0.951 . S
C232 C230 1.388 . S
C232 C233 1.366 . S
C233 C232 1.366 . S
C233 C234 1.414 . S
C233 C236 1.499 . S
C234 H214 0.950 . S
C234 C233 1.414 . S
C234 C235 1.374 . S
C235 H215 0.950 . S
C235 C231 1.385 . S
C235 C234 1.374 . S
C236 C233 1.499 . S
C236 C237 1.373 . S
C236 C238 1.389 . S
C237 H216 0.950 . S
C237 C236 1.373 . S
C237 C253 1.377 1_556 S
C238 C236 1.389 . S
C238 C239 1.524 1_545 S
C238 C252 1.377 1_556 S
C239 C238 1.524 1_565 S
C239 C240 1.397 . S
C239 C244 1.363 . S
C240 H217 0.950 1_565 S
C240 C239 1.397 . S
C240 C241 1.334 . S
C241 H218 0.950 . S
C241 C240 1.334 . S
C241 C242 1.287 . S
C242 C241 1.287 . S
C242 C243 1.524 . S
C242 H261 0.913 . S
C243 H219 0.950 . S
C243 C242 1.524 . S
C243 C244 1.415 . S
C244 H220 0.950 . S
C244 C239 1.363 . S
C244 C243 1.415 . S
C245 H221 0.951 . S
C245 C246 1.366 . S
C245 C247 1.388 . S
C246 C245 1.366 . S
C246 C250 1.385 . S
C247 H222 0.951 . S
C247 C245 1.388 . S
C247 C248 1.366 . S
C248 C247 1.366 . S
C248 C249 1.414 . S
C248 C251 1.499 . S
C249 H223 0.950 . S
C249 C248 1.414 . S
C249 C250 1.374 . S
C250 H224 0.950 . S
C250 C246 1.385 . S
C250 C249 1.374 . S
C251 C248 1.499 . S
C251 C252 1.373 . S
C251 C253 1.389 . S
C252 H225 0.957 . S
C252 C238 1.377 1_554 S
C252 C251 1.373 . S
C253 C237 1.377 1_554 S
C253 C251 1.389 . S
C253 C254 1.524 . S
C254 C253 1.524 . S
C254 C255 1.397 . S
C254 C259 1.363 . S
C255 H226 0.950 . S
C255 C254 1.397 . S
C255 C256 1.334 . S
C256 H227 0.950 . S
C256 C255 1.334 . S
C256 C257 1.287 . S
C257 C256 1.287 . S
C257 C258 1.524 . S
C257 H260 0.999 . S
C258 H228 0.950 . S
C258 C257 1.524 . S
C258 C259 1.415 . S
C259 H229 0.950 . S
C259 C254 1.363 . S
C259 C258 1.415 . S
H260 C257 0.999 . S
H261 C242 0.913 . S
H262 C280 0.951 . S
H263 C282 0.951 . S
H264 C284 0.950 . S
H265 C285 0.950 . S
H266 C287 0.950 . S
H267 C290 0.950 . S
H268 C291 0.950 . S
H269 C293 0.950 . S
H270 C294 0.950 . S
H271 C295 0.951 . S
H272 C297 0.951 . S
H273 C299 0.950 . S
H274 C300 0.950 . S
H275 C302 0.950 . S
H276 C305 0.950 . S
H277 C306 0.950 . S
H278 C308 0.950 . S
H279 C309 0.950 1_455 S
C280 H262 0.951 . S
C280 C281 1.366 . S
C280 C282 1.388 . S
C281 C280 1.366 . S
C281 C285 1.385 . S
C282 H263 0.951 . S
C282 C280 1.388 . S
C282 C283 1.366 . S
C283 C282 1.366 . S
C283 C284 1.414 . S
C283 C286 1.499 . S
C284 H264 0.950 . S
C284 C283 1.414 . S
C284 C285 1.374 . S
C285 H265 0.950 . S
C285 C281 1.385 . S
C285 C284 1.374 . S
C286 C283 1.499 . S
C286 C287 1.373 . S
C286 C288 1.389 . S
C287 H266 0.950 . S
C287 C286 1.373 . S
C287 C303 1.377 . S
C288 C286 1.389 . S
C288 C289 1.524 . S
C288 C302 1.377 . S
C289 C288 1.524 . S
C289 C290 1.397 . S
C289 C294 1.363 . S
C290 H267 0.950 . S
C290 C289 1.397 . S
C290 C291 1.334 . S
C291 H268 0.950 . S
C291 C290 1.334 . S
C291 C292 1.287 . S
C292 C291 1.287 . S
C292 C293 1.524 . S
C292 H311 0.913 . S
C293 H269 0.950 . S
C293 C292 1.524 . S
C293 C294 1.415 . S
C294 H270 0.950 . S
C294 C289 1.363 . S
C294 C293 1.415 . S
C295 H271 0.951 . S
C295 C296 1.366 . S
C295 C297 1.388 . S
C296 C295 1.366 . S
C296 C300 1.385 . S
C297 H272 0.951 . S
C297 C295 1.388 . S
C297 C298 1.366 . S
C298 C297 1.366 . S
C298 C299 1.414 . S
C298 C301 1.499 . S
C299 H273 0.950 . S
C299 C298 1.414 . S
C299 C300 1.374 . S
C300 H274 0.950 . S
C300 C296 1.385 . S
C300 C299 1.374 . S
C301 C298 1.499 . S
C301 C302 1.373 . S
C301 C303 1.389 . S
C302 H275 0.950 . S
C302 C288 1.377 . S
C302 C301 1.373 . S
C303 C287 1.377 . S
C303 C301 1.389 . S
C303 C304 1.525 1_455 S
C304 C303 1.525 1_655 S
C304 C305 1.396 . S
C304 C309 1.362 . S
C305 H276 0.950 . S
C305 C304 1.396 . S
C305 C306 1.334 . S
C306 H277 0.950 . S
C306 C305 1.334 . S
C306 C307 1.287 . S
C307 C306 1.287 . S
C307 C308 1.524 . S
C307 H310 0.999 . S
C308 H278 0.950 . S
C308 C307 1.524 . S
C308 C309 1.415 . S
C309 H279 0.950 1_655 S
C309 C304 1.362 . S
C309 C308 1.415 . S
H310 C307 0.999 . S
H311 C292 0.913 . S
H312 C330 0.951 1_565 S
H313 C332 0.951 1_565 S
H314 C334 0.950 . S
H315 C335 0.950 . S
H316 C337 0.950 . S
H317 C340 0.950 . S
H318 C341 0.950 . S
H319 C343 0.950 . S
H320 C344 0.950 . S
H321 C345 0.951 . S
H322 C347 0.951 . S
H323 C349 0.950 . S
H324 C350 0.950 . S
H325 C352 0.950 . S
H326 C355 0.950 . S
H327 C356 0.950 . S
H328 C358 0.950 . S
H329 C359 0.950 . S
C330 H312 0.951 1_545 S
C330 C331 1.366 . S
C330 C332 1.388 . S
C331 C330 1.366 . S
C331 C335 1.385 . S
C332 H313 0.951 1_545 S
C332 C330 1.388 . S
C332 C333 1.366 . S
C333 C332 1.366 . S
C333 C334 1.414 . S
C333 C336 1.499 . S
C334 H314 0.950 . S
C334 C333 1.414 . S
C334 C335 1.374 . S
C335 H315 0.950 . S
C335 C331 1.385 . S
C335 C334 1.374 . S
C336 C333 1.499 . S
C336 C337 1.373 . S
C336 C338 1.389 . S
C337 H316 0.950 . S
C337 C336 1.373 . S
C337 C353 1.377 . S
C338 C336 1.389 . S
C338 C339 1.524 . S
C338 C352 1.377 . S
C339 C338 1.524 . S
C339 C340 1.397 . S
C339 C344 1.363 1_545 S
C340 H317 0.950 . S
C340 C339 1.397 . S
C340 C341 1.334 . S
C341 H318 0.950 . S
C341 C340 1.334 . S
C341 C342 1.287 1_545 S
C342 C341 1.287 1_565 S
C342 C343 1.524 . S
C342 H361 0.913 . S
C343 H319 0.950 . S
C343 C342 1.524 . S
C343 C344 1.415 . S
C344 H320 0.950 . S
C344 C339 1.363 1_565 S
C344 C343 1.415 . S
C345 H321 0.951 . S
C345 C346 1.366 . S
C345 C347 1.388 . S
C346 C345 1.366 . S
C346 C350 1.385 . S
C347 H322 0.951 . S
C347 C345 1.388 . S
C347 C348 1.366 . S
C348 C347 1.366 . S
C348 C349 1.414 . S
C348 C351 1.499 . S
C349 H323 0.950 . S
C349 C348 1.414 . S
C349 C350 1.374 . S
C350 H324 0.950 . S
C350 C346 1.385 . S
C350 C349 1.374 . S
C351 C348 1.499 . S
C351 C352 1.373 . S
C351 C353 1.389 . S
C352 H325 0.950 . S
C352 C338 1.377 . S
C352 C351 1.373 . S
C353 C337 1.377 . S
C353 C351 1.389 . S
C353 C354 1.524 . S
C354 C353 1.524 . S
C354 C355 1.397 . S
C354 C359 1.363 . S
C355 H326 0.950 . S
C355 C354 1.397 . S
C355 C356 1.334 . S
C356 H327 0.950 . S
C356 C355 1.334 . S
C356 C357 1.287 . S
C357 C356 1.287 . S
C357 C358 1.524 . S
C357 H360 0.999 . S
C358 H328 0.950 . S
C358 C357 1.524 . S
C358 C359 1.415 . S
C359 H329 0.950 . S
C359 C354 1.363 . S
C359 C358 1.415 . S
H360 C357 0.999 . S
H361 C342 0.913 . S
H362 C380 0.951 . S
H363 C382 0.951 . S
H364 C384 0.950 . S
H365 C385 0.950 . S
H366 C387 0.950 . S
H367 C390 0.950 . S
H368 C391 0.950 . S
H369 C393 0.950 . S
H370 C394 0.950 . S
H371 C395 0.951 . S
H372 C397 0.951 . S
H373 C399 0.950 . S
H374 C400 0.950 . S
H375 C402 0.950 . S
H376 C405 0.950 . S
H377 C406 0.950 . S
H378 C408 0.950 . S
H379 C409 0.950 . S
C380 H362 0.951 . S
C380 C381 1.366 . S
C380 C382 1.388 . S
C381 C380 1.366 . S
C381 C385 1.385 . S
C382 H363 0.951 . S
C382 C380 1.388 . S
C382 C383 1.366 . S
C383 C382 1.366 . S
C383 C384 1.414 . S
C383 C386 1.499 . S
C384 H364 0.950 . S
C384 C383 1.414 . S
C384 C385 1.374 . S
C385 H365 0.950 . S
C385 C381 1.385 . S
C385 C384 1.374 . S
C386 C383 1.499 . S
C386 C387 1.373 . S
C386 C388 1.389 . S
C387 H366 0.950 . S
C387 C386 1.373 . S
C387 C403 1.377 . S
C388 C386 1.389 . S
C388 C389 1.524 . S
C388 C402 1.377 . S
C389 C388 1.524 . S
C389 C390 1.397 1_455 S
C389 C394 1.363 . S
C390 H367 0.950 . S
C390 C389 1.397 1_655 S
C390 C391 1.334 . S
C391 H368 0.950 . S
C391 C390 1.334 . S
C391 C392 1.287 . S
C392 C391 1.287 . S
C392 C393 1.524 . S
C392 H411 0.913 . S
C393 H369 0.950 . S
C393 C392 1.524 . S
C393 C394 1.415 1_655 S
C394 H370 0.950 . S
C394 C389 1.363 . S
C394 C393 1.415 1_455 S
C395 H371 0.951 . S
C395 C396 1.366 . S
C395 C397 1.388 . S
C396 C395 1.366 . S
C396 C400 1.385 . S
C397 H372 0.951 . S
C397 C395 1.388 . S
C397 C398 1.366 . S
C398 C397 1.366 . S
C398 C399 1.414 . S
C398 C401 1.499 . S
C399 H373 0.950 . S
C399 C398 1.414 . S
C399 C400 1.374 . S
C400 H374 0.950 . S
C400 C396 1.385 . S
C400 C399 1.374 . S
C401 C398 1.499 . S
C401 C402 1.373 . S
C401 C403 1.389 . S
C402 H375 0.950 . S
C402 C388 1.377 . S
C402 C401 1.373 . S
C403 C387 1.377 . S
C403 C401 1.389 . S
C403 C404 1.524 . S
C404 C403 1.524 . S
C404 C405 1.397 . S
C404 C409 1.363 . S
C405 H376 0.950 . S
C405 C404 1.397 . S
C405 C406 1.334 . S
C406 H377 0.950 . S
C406 C405 1.334 . S
C406 C407 1.287 . S
C407 C406 1.287 . S
C407 C408 1.524 . S
C407 H410 0.999 . S
C408 H378 0.950 . S
C408 C407 1.524 . S
C408 C409 1.415 . S
C409 H379 0.950 . S
C409 C404 1.363 . S
C409 C408 1.415 . S
H410 C407 0.999 . S
H411 C392 0.913 . S
H412 C430 0.951 1_565 S
H413 C432 0.951 . S
H414 C434 0.950 . S
H415 C435 0.950 . S
H416 C437 0.950 . S
H417 C440 0.950 . S
H418 C441 0.950 . S
H419 C443 0.950 . S
H420 C444 0.950 . S
H421 C445 0.951 . S
H422 C447 0.951 . S
H423 C449 0.950 . S
H424 C450 0.950 . S
H425 C452 0.950 . S
H426 C455 0.950 . S
H427 C456 0.950 . S
H428 C458 0.950 . S
H429 C459 0.950 . S
C430 H412 0.951 1_545 S
C430 C431 1.366 . S
C430 C432 1.388 . S
C431 C430 1.366 . S
C431 C435 1.385 . S
C432 H413 0.951 . S
C432 C430 1.388 . S
C432 C433 1.366 . S
C433 C432 1.366 . S
C433 C434 1.414 . S
C433 C436 1.499 . S
C434 H414 0.950 . S
C434 C433 1.414 . S
C434 C435 1.374 . S
C435 H415 0.950 . S
C435 C431 1.385 . S
C435 C434 1.374 . S
C436 C433 1.499 . S
C436 C437 1.373 . S
C436 C438 1.389 . S
C437 H416 0.950 . S
C437 C436 1.373 . S
C437 C453 1.377 . S
C438 C436 1.389 . S
C438 C439 1.524 1_545 S
C438 C452 1.377 . S
C439 C438 1.524 1_565 S
C439 C440 1.397 . S
C439 C444 1.363 . S
C440 H417 0.950 . S
C440 C439 1.397 . S
C440 C441 1.334 . S
C441 H418 0.950 . S
C441 C440 1.334 . S
C441 C442 1.287 . S
C442 C441 1.287 . S
C442 C443 1.524 . S
C442 H461 0.913 . S
C443 H419 0.950 . S
C443 C442 1.524 . S
C443 C444 1.415 . S
C444 H420 0.950 . S
C444 C439 1.363 . S
C444 C443 1.415 . S
C445 H421 0.951 . S
C445 C446 1.366 . S
C445 C447 1.388 . S
C446 C445 1.366 . S
C446 C450 1.385 . S
C447 H422 0.951 . S
C447 C445 1.388 . S
C447 C448 1.366 . S
C448 C447 1.366 . S
C448 C449 1.414 . S
C448 C451 1.499 . S
C449 H423 0.950 . S
C449 C448 1.414 . S
C449 C450 1.374 . S
C450 H424 0.950 . S
C450 C446 1.385 . S
C450 C449 1.374 . S
C451 C448 1.499 . S
C451 C452 1.373 . S
C451 C453 1.389 . S
C452 H425 0.950 . S
C452 C438 1.377 . S
C452 C451 1.373 . S
C453 C437 1.377 . S
C453 C451 1.389 . S
C453 C454 1.524 . S
C454 C453 1.524 . S
C454 C455 1.397 . S
C454 C459 1.363 . S
C455 H426 0.950 . S
C455 C454 1.397 . S
C455 C456 1.334 . S
C456 H427 0.950 . S
C456 C455 1.334 . S
C456 C457 1.287 . S
C457 C456 1.287 . S
C457 C458 1.524 . S
C457 H460 0.999 . S
C458 H428 0.950 . S
C458 C457 1.524 . S
C458 C459 1.415 . S
C459 H429 0.950 . S
C459 C454 1.363 . S
C459 C458 1.415 . S
H460 C457 0.999 . S
H461 C442 0.913 . S
H462 C480 0.951 . S
H463 C482 0.951 . S
H464 C484 0.948 1_655 S
H465 C485 0.950 1_655 S
H466 C487 0.950 . S
H467 C490 0.961 . S
H468 C491 0.950 1_655 S
H469 C493 0.950 . S
H470 C494 0.950 . S
H471 C495 0.951 . S
H472 C497 0.951 . S
H473 C499 0.950 . S
H474 C500 0.950 . S
H475 C502 0.950 . S
H476 C505 0.950 . S
H477 C506 0.950 . S
H478 C508 0.950 . S
H479 C509 0.950 . S
C480 H462 0.951 . S
C480 C481 1.366 . S
C480 C482 1.388 . S
C481 C480 1.366 . S
C481 C485 1.385 . S
C482 H463 0.951 . S
C482 C480 1.388 . S
C482 C483 1.366 . S
C483 C482 1.366 . S
C483 C484 1.414 . S
C483 C486 1.499 . S
C484 H464 0.948 1_455 S
C484 C483 1.414 . S
C484 C485 1.374 . S
C485 H465 0.950 1_455 S
C485 C481 1.385 . S
C485 C484 1.374 . S
C486 C483 1.499 . S
C486 C487 1.373 . S
C486 C488 1.389 . S
C487 H466 0.950 . S
C487 C486 1.373 . S
C487 C503 1.377 . S
C488 C486 1.389 . S
C488 C489 1.524 . S
C488 C502 1.377 . S
C489 C488 1.524 . S
C489 C490 1.397 . S
C489 C494 1.363 . S
C490 H467 0.961 . S
C490 C489 1.397 . S
C490 C491 1.334 . S
C491 H468 0.950 1_455 S
C491 C490 1.334 . S
C491 C492 1.287 . S
C492 C491 1.287 . S
C492 C493 1.524 . S
C492 H511 0.913 . S
C493 H469 0.950 . S
C493 C492 1.524 . S
C493 C494 1.415 . S
C494 H470 0.950 . S
C494 C489 1.363 . S
C494 C493 1.415 . S
C495 H471 0.951 . S
C495 C496 1.366 . S
C495 C497 1.388 . S
C496 C495 1.366 . S
C496 C500 1.385 . S
C497 H472 0.951 . S
C497 C495 1.388 . S
C497 C498 1.366 . S
C498 C497 1.366 . S
C498 C499 1.414 . S
C498 C501 1.499 . S
C499 H473 0.950 . S
C499 C498 1.414 . S
C499 C500 1.374 . S
C500 H474 0.950 . S
C500 C496 1.385 . S
C500 C499 1.374 . S
C501 C498 1.499 . S
C501 C502 1.373 . S
C501 C503 1.389 . S
C502 H475 0.950 . S
C502 C488 1.377 . S
C502 C501 1.373 . S
C503 C487 1.377 . S
C503 C501 1.389 . S
C503 C504 1.524 . S
C504 C503 1.524 . S
C504 C505 1.397 . S
C504 C509 1.363 . S
C505 H476 0.950 . S
C505 C504 1.397 . S
C505 C506 1.334 . S
C506 H477 0.950 . S
C506 C505 1.334 . S
C506 C507 1.287 . S
C507 C506 1.287 . S
C507 C508 1.524 . S
C507 H510 0.999 . S
C508 H478 0.950 . S
C508 C507 1.524 . S
C508 C509 1.415 . S
C509 H479 0.950 . S
C509 C504 1.363 . S
C509 C508 1.415 . S
H510 C507 0.999 . S
H511 C492 0.913 . S
H512 C530 0.951 . S
H513 C532 0.951 . S
H514 C534 0.950 . S
H515 C535 0.950 . S
H516 C537 0.950 . S
H517 C540 0.950 . S
H518 C541 0.950 . S
H519 C543 0.950 . S
H520 C544 0.950 . S
H521 C545 0.951 . S
H522 C547 0.951 . S
H523 C549 0.950 . S
H524 C550 0.950 . S
H525 C552 0.950 . S
H526 C555 0.950 . S
H527 C556 0.950 . S
H528 C558 0.950 . S
H529 C559 0.950 . S
C530 H512 0.951 . S
C530 C531 1.366 . S
C530 C532 1.388 . S
C531 C530 1.366 . S
C531 C535 1.385 . S
C532 H513 0.951 . S
C532 C530 1.388 . S
C532 C533 1.366 . S
C533 C532 1.366 . S
C533 C534 1.414 . S
C533 C536 1.499 . S
C534 H514 0.950 . S
C534 C533 1.414 . S
C534 C535 1.374 . S
C535 H515 0.950 . S
C535 C531 1.385 . S
C535 C534 1.374 . S
C536 C533 1.499 . S
C536 C537 1.373 . S
C536 C538 1.389 . S
C537 H516 0.950 . S
C537 C536 1.373 . S
C537 C553 1.377 . S
C538 C536 1.389 . S
C538 C539 1.524 . S
C538 C552 1.377 . S
C539 C538 1.524 . S
C539 C540 1.397 . S
C539 C544 1.363 . S
C540 H517 0.950 . S
C540 C539 1.397 . S
C540 C541 1.334 . S
C541 H518 0.950 . S
C541 C540 1.334 . S
C541 C542 1.287 . S
C542 C541 1.287 . S
C542 C543 1.524 . S
C542 H561 0.913 . S
C543 H519 0.950 . S
C543 C542 1.524 . S
C543 C544 1.415 . S
C544 H520 0.950 . S
C544 C539 1.363 . S
C544 C543 1.415 . S
C545 H521 0.951 . S
C545 C546 1.366 . S
C545 C547 1.388 . S
C546 C545 1.366 . S
C546 C550 1.385 . S
C547 H522 0.951 . S
C547 C545 1.388 . S
C547 C548 1.366 . S
C548 C547 1.366 . S
C548 C549 1.414 . S
C548 C551 1.499 . S
C549 H523 0.950 . S
C549 C548 1.414 . S
C549 C550 1.374 . S
C550 H524 0.950 . S
C550 C546 1.385 . S
C550 C549 1.374 . S
C551 C548 1.499 . S
C551 C552 1.373 . S
C551 C553 1.389 . S
C552 H525 0.950 . S
C552 C538 1.377 . S
C552 C551 1.373 . S
C553 C537 1.377 . S
C553 C551 1.389 . S
C553 C554 1.524 . S
C554 C553 1.524 . S
C554 C555 1.397 . S
C554 C559 1.363 . S
C555 H526 0.950 . S
C555 C554 1.397 . S
C555 C556 1.334 . S
C556 H527 0.950 . S
C556 C555 1.334 . S
C556 C557 1.287 . S
C557 C556 1.287 . S
C557 C558 1.524 . S
C557 H560 0.999 . S
C558 H528 0.950 . S
C558 C557 1.524 . S
C558 C559 1.415 . S
C559 H529 0.950 . S
C559 C554 1.363 . S
C559 C558 1.415 . S
H560 C557 0.999 . S
H561 C542 0.913 . S
H562 C580 0.951 . S
H563 C582 0.951 . S
H564 C584 0.950 . S
H565 C585 0.950 . S
H566 C587 0.950 . S
H567 C590 0.950 . S
H568 C591 0.950 . S
H569 C593 0.950 . S
H570 C594 0.950 . S
H571 C595 0.951 . S
H572 C597 0.951 . S
H573 C599 0.950 . S
H574 C600 0.950 . S
H575 C602 0.950 . S
H576 C605 0.950 . S
H577 C606 0.950 . S
H578 C608 0.950 . S
H579 C609 0.950 . S
C580 H562 0.951 . S
C580 C581 1.366 . S
C580 C582 1.388 . S
C581 C580 1.366 . S
C581 C585 1.385 . S
C582 H563 0.951 . S
C582 C580 1.388 . S
C582 C583 1.366 . S
C583 C582 1.366 . S
C583 C584 1.414 . S
C583 C586 1.499 . S
C584 H564 0.950 . S
C584 C583 1.414 . S
C584 C585 1.374 . S
C585 H565 0.950 . S
C585 C581 1.385 . S
C585 C584 1.374 . S
C586 C583 1.499 . S
C586 C587 1.373 . S
C586 C588 1.389 . S
C587 H566 0.950 . S
C587 C586 1.373 . S
C587 C603 1.377 . S
C588 C586 1.389 . S
C588 C589 1.524 . S
C588 C602 1.377 . S
C589 C588 1.524 . S
C589 C590 1.397 . S
C589 C594 1.363 . S
C590 H567 0.950 . S
C590 C589 1.397 . S
C590 C591 1.334 . S
C591 H568 0.950 . S
C591 C590 1.334 . S
C591 C592 1.287 . S
C592 C591 1.287 . S
C592 C593 1.524 . S
C592 H611 0.913 . S
C593 H569 0.950 . S
C593 C592 1.524 . S
C593 C594 1.415 . S
C594 H570 0.950 . S
C594 C589 1.363 . S
C594 C593 1.415 . S
C595 H571 0.951 . S
C595 C596 1.366 . S
C595 C597 1.388 . S
C596 C595 1.366 . S
C596 C600 1.385 . S
C597 H572 0.951 . S
C597 C595 1.388 . S
C597 C598 1.366 . S
C598 C597 1.366 . S
C598 C599 1.414 . S
C598 C601 1.499 . S
C599 H573 0.950 . S
C599 C598 1.414 . S
C599 C600 1.374 . S
C600 H574 0.950 . S
C600 C596 1.385 . S
C600 C599 1.374 . S
C601 C598 1.499 . S
C601 C602 1.373 . S
C601 C603 1.389 . S
C602 H575 0.950 . S
C602 C588 1.377 . S
C602 C601 1.373 . S
C603 C587 1.377 . S
C603 C601 1.389 . S
C603 C604 1.524 . S
C604 C603 1.524 . S
C604 C605 1.397 . S
C604 C609 1.363 . S
C605 H576 0.950 . S
C605 C604 1.397 . S
C605 C606 1.334 . S
C606 H577 0.950 . S
C606 C605 1.334 . S
C606 C607 1.287 . S
C607 C606 1.287 . S
C607 C608 1.524 . S
C607 H610 0.999 . S
C608 H578 0.950 . S
C608 C607 1.524 . S
C608 C609 1.415 . S
C609 H579 0.950 . S
C609 C604 1.363 . S
C609 C608 1.415 . S
H610 C607 0.999 . S
H611 C592 0.913 . S
H612 C630 0.951 . S
H613 C632 0.951 . S
H614 C634 0.950 . S
H615 C635 0.950 . S
H616 C637 0.950 . S
H617 C640 0.950 . S
H618 C641 0.950 . S
H619 C643 0.950 . S
H620 C644 0.950 . S
H621 C645 0.951 . S
H622 C647 0.951 . S
H623 C649 0.950 . S
H624 C650 0.950 1_545 S
H625 C652 0.950 . S
H626 C655 0.950 . S
H627 C656 0.950 . S
H628 C658 0.950 . S
H629 C659 0.950 . S
C630 H612 0.951 . S
C630 C631 1.366 . S
C630 C632 1.388 . S
C631 C630 1.366 . S
C631 C635 1.385 . S
C632 H613 0.951 . S
C632 C630 1.388 . S
C632 C633 1.366 . S
C633 C632 1.366 . S
C633 C634 1.414 . S
C633 C636 1.499 . S
C634 H614 0.950 . S
C634 C633 1.414 . S
C634 C635 1.374 . S
C635 H615 0.950 . S
C635 C631 1.385 . S
C635 C634 1.374 . S
C636 C633 1.499 . S
C636 C637 1.373 . S
C636 C638 1.389 . S
C637 H616 0.950 . S
C637 C636 1.373 . S
C637 C653 1.377 . S
C638 C636 1.389 . S
C638 C639 1.524 . S
C638 C652 1.377 . S
C639 C638 1.524 . S
C639 C640 1.397 . S
C639 C644 1.363 . S
C640 H617 0.950 . S
C640 C639 1.397 . S
C640 C641 1.334 . S
C641 H618 0.950 . S
C641 C640 1.334 . S
C641 C642 1.287 . S
C642 C641 1.287 . S
C642 C643 1.524 . S
C642 H661 0.913 . S
C643 H619 0.950 . S
C643 C642 1.524 . S
C643 C644 1.415 . S
C644 H620 0.950 . S
C644 C639 1.363 . S
C644 C643 1.415 . S
C645 H621 0.951 . S
C645 C646 1.366 . S
C645 C647 1.388 . S
C646 C645 1.366 . S
C646 C650 1.385 . S
C647 H622 0.951 . S
C647 C645 1.388 . S
C647 C648 1.366 . S
C648 C647 1.366 . S
C648 C649 1.414 . S
C648 C651 1.499 . S
C649 H623 0.950 . S
C649 C648 1.414 . S
C649 C650 1.374 . S
C650 H624 0.950 1_565 S
C650 C646 1.385 . S
C650 C649 1.374 . S
C651 C648 1.499 . S
C651 C652 1.373 . S
C651 C653 1.389 . S
C652 H625 0.950 . S
C652 C638 1.377 . S
C652 C651 1.373 . S
C653 C637 1.377 . S
C653 C651 1.389 . S
C653 C654 1.524 . S
C654 C653 1.524 . S
C654 C655 1.397 . S
C654 C659 1.363 . S
C655 H626 0.950 . S
C655 C654 1.397 . S
C655 C656 1.334 . S
C656 H627 0.950 . S
C656 C655 1.334 . S
C656 C657 1.287 . S
C657 C656 1.287 . S
C657 C658 1.524 . S
C657 H660 0.999 . S
C658 H628 0.950 . S
C658 C657 1.524 . S
C658 C659 1.415 . S
C659 H629 0.950 . S
C659 C654 1.363 . S
C659 C658 1.415 . S
H660 C657 0.999 . S
H661 C642 0.913 . S
H662 C680 0.951 . S
H663 C682 0.951 . S
H664 C684 0.950 . S
H665 C685 0.950 . S
H666 C687 0.950 . S
H667 C690 0.950 . S
H668 C691 0.950 . S
H669 C693 0.950 . S
H670 C694 0.950 . S
H671 C695 0.951 . S
H672 C697 0.951 . S
H673 C699 0.950 . S
H674 C700 0.950 . S
H675 C702 0.950 . S
H676 C705 0.950 . S
H677 C706 0.950 . S
H678 C708 0.950 . S
H679 C709 0.950 . S
C680 H662 0.951 . S
C680 C681 1.366 . S
C680 C682 1.388 . S
C681 C680 1.366 . S
C681 C685 1.385 . S
C682 H663 0.951 . S
C682 C680 1.388 . S
C682 C683 1.366 . S
C683 C682 1.366 . S
C683 C684 1.414 . S
C683 C686 1.499 . S
C684 H664 0.950 . S
C684 C683 1.414 . S
C684 C685 1.374 . S
C685 H665 0.950 . S
C685 C681 1.385 . S
C685 C684 1.374 . S
C686 C683 1.499 . S
C686 C687 1.373 . S
C686 C688 1.389 . S
C687 H666 0.950 . S
C687 C686 1.373 . S
C687 C703 1.377 . S
C688 C686 1.389 . S
C688 C689 1.524 . S
C688 C702 1.377 . S
C689 C688 1.524 . S
C689 C690 1.397 . S
C689 C694 1.363 . S
C690 H667 0.950 . S
C690 C689 1.397 . S
C690 C691 1.334 . S
C691 H668 0.950 . S
C691 C690 1.334 . S
C691 C692 1.287 . S
C692 C691 1.287 . S
C692 C693 1.524 . S
C692 H711 0.913 . S
C693 H669 0.950 . S
C693 C692 1.524 . S
C693 C694 1.415 . S
C694 H670 0.950 . S
C694 C689 1.363 . S
C694 C693 1.415 . S
C695 H671 0.951 . S
C695 C696 1.366 . S
C695 C697 1.388 . S
C696 C695 1.366 . S
C696 C700 1.385 . S
C697 H672 0.951 . S
C697 C695 1.388 . S
C697 C698 1.366 . S
C698 C697 1.366 . S
C698 C699 1.414 . S
C698 C701 1.499 . S
C699 H673 0.950 . S
C699 C698 1.414 . S
C699 C700 1.374 . S
C700 H674 0.950 . S
C700 C696 1.385 . S
C700 C699 1.374 . S
C701 C698 1.499 . S
C701 C702 1.373 . S
C701 C703 1.389 . S
C702 H675 0.950 . S
C702 C688 1.377 . S
C702 C701 1.373 . S
C703 C687 1.377 . S
C703 C701 1.389 . S
C703 C704 1.524 . S
C704 C703 1.524 . S
C704 C705 1.397 . S
C704 C709 1.363 . S
C705 H676 0.950 . S
C705 C704 1.397 . S
C705 C706 1.334 . S
C706 H677 0.950 . S
C706 C705 1.334 . S
C706 C707 1.287 . S
C707 C706 1.287 . S
C707 C708 1.524 . S
C707 H710 0.999 . S
C708 H678 0.950 . S
C708 C707 1.524 . S
C708 C709 1.415 . S
C709 H679 0.950 . S
C709 C704 1.363 . S
C709 C708 1.415 . S
H710 C707 0.999 . S
H711 C692 0.913 . S
H712 C730 0.951 . S
H713 C732 0.951 . S
H714 C734 0.950 . S
H715 C735 0.951 . S
H716 C737 0.950 . S
H717 C740 0.950 . S
H718 C741 0.950 . S
H719 C743 0.950 . S
H720 C744 0.950 . S
H721 C745 0.951 . S
H722 C747 0.951 . S
H723 C749 0.950 . S
H724 C750 0.950 . S
H725 C752 0.950 . S
H726 C755 0.950 . S
H727 C756 0.950 . S
H728 C758 0.950 . S
H729 C759 0.950 . S
C730 H712 0.951 . S
C730 C731 1.366 . S
C730 C732 1.388 . S
C731 C730 1.366 . S
C731 C735 1.385 . S
C732 H713 0.951 . S
C732 C730 1.388 . S
C732 C733 1.366 . S
C733 C732 1.366 . S
C733 C734 1.414 . S
C733 C736 1.499 . S
C734 H714 0.950 . S
C734 C733 1.414 . S
C734 C735 1.374 . S
C735 H715 0.951 . S
C735 C731 1.385 . S
C735 C734 1.374 . S
C736 C733 1.499 . S
C736 C737 1.373 . S
C736 C738 1.389 . S
C737 H716 0.950 . S
C737 C736 1.373 . S
C737 C753 1.377 . S
C738 C736 1.389 . S
C738 C739 1.524 . S
C738 C752 1.377 . S
C739 C738 1.524 . S
C739 C740 1.397 . S
C739 C744 1.363 . S
C740 H717 0.950 . S
C740 C739 1.397 . S
C740 C741 1.334 . S
C741 H718 0.950 . S
C741 C740 1.334 . S
C741 C742 1.287 . S
C742 C741 1.287 . S
C742 C743 1.524 . S
C742 H761 0.913 . S
C743 H719 0.950 . S
C743 C742 1.524 . S
C743 C744 1.415 . S
C744 H720 0.950 . S
C744 C739 1.363 . S
C744 C743 1.415 . S
C745 H721 0.951 . S
C745 C746 1.366 . S
C745 C747 1.388 . S
C746 C745 1.366 . S
C746 C750 1.385 . S
C747 H722 0.951 . S
C747 C745 1.388 . S
C747 C748 1.366 . S
C748 C747 1.366 . S
C748 C749 1.414 . S
C748 C751 1.499 . S
C749 H723 0.950 . S
C749 C748 1.414 . S
C749 C750 1.374 . S
C750 H724 0.950 . S
C750 C746 1.385 . S
C750 C749 1.374 . S
C751 C748 1.499 . S
C751 C752 1.373 . S
C751 C753 1.389 . S
C752 H725 0.950 . S
C752 C738 1.377 . S
C752 C751 1.373 . S
C753 C737 1.377 . S
C753 C751 1.389 . S
C753 C754 1.524 . S
C754 C753 1.524 . S
C754 C755 1.397 . S
C754 C759 1.363 . S
C755 H726 0.950 . S
C755 C754 1.397 . S
C755 C756 1.334 . S
C756 H727 0.950 . S
C756 C755 1.334 . S
C756 C757 1.287 . S
C757 C756 1.287 . S
C757 C758 1.524 . S
C757 H760 0.999 . S
C758 H728 0.950 . S
C758 C757 1.524 . S
C758 C759 1.415 . S
C759 H729 0.950 . S
C759 C754 1.363 . S
C759 C758 1.415 . S
H760 C757 0.999 . S
H761 C742 0.913 . S
H762 C780 0.951 . S
H763 C782 0.951 . S
H764 C784 0.950 . S
H765 C785 0.950 . S
H766 C787 0.950 . S
H767 C790 0.950 . S
H768 C791 0.950 . S
H769 C793 0.950 . S
H770 C794 0.950 . S
H771 C795 0.951 . S
H772 C797 0.951 . S
H773 C799 0.950 . S
H774 C800 0.950 . S
H775 C802 0.950 . S
H776 C805 0.950 . S
H777 C806 0.950 . S
H778 C808 0.950 . S
H779 C809 0.950 . S
C780 H762 0.951 . S
C780 C781 1.366 . S
C780 C782 1.388 . S
C781 C780 1.366 . S
C781 C785 1.385 . S
C782 H763 0.951 . S
C782 C780 1.388 . S
C782 C783 1.366 . S
C783 C782 1.366 . S
C783 C784 1.414 . S
C783 C786 1.499 . S
C784 H764 0.950 . S
C784 C783 1.414 . S
C784 C785 1.374 . S
C785 H765 0.950 . S
C785 C781 1.385 . S
C785 C784 1.374 . S
C786 C783 1.499 . S
C786 C787 1.373 . S
C786 C788 1.389 . S
C787 H766 0.950 . S
C787 C786 1.373 . S
C787 C803 1.377 . S
C788 C786 1.389 . S
C788 C789 1.524 . S
C788 C802 1.377 . S
C789 C788 1.524 . S
C789 C790 1.397 . S
C789 C794 1.363 . S
C790 H767 0.950 . S
C790 C789 1.397 . S
C790 C791 1.334 . S
C791 H768 0.950 . S
C791 C790 1.334 . S
C791 C792 1.287 . S
C792 C791 1.287 . S
C792 C793 1.524 . S
C792 H811 0.913 1_565 S
C793 H769 0.950 . S
C793 C792 1.524 . S
C793 C794 1.415 . S
C794 H770 0.950 . S
C794 C789 1.363 . S
C794 C793 1.415 . S
C795 H771 0.951 . S
C795 C796 1.366 . S
C795 C797 1.388 . S
C796 C795 1.366 . S
C796 C800 1.385 . S
C797 H772 0.951 . S
C797 C795 1.388 . S
C797 C798 1.366 . S
C798 C797 1.366 . S
C798 C799 1.414 . S
C798 C801 1.499 . S
C799 H773 0.950 . S
C799 C798 1.414 . S
C799 C800 1.374 . S
C800 H774 0.950 . S
C800 C796 1.385 . S
C800 C799 1.374 . S
C801 C798 1.499 . S
C801 C802 1.373 . S
C801 C803 1.389 . S
C802 H775 0.950 . S
C802 C788 1.377 . S
C802 C801 1.373 . S
C803 C787 1.377 . S
C803 C801 1.389 . S
C803 C804 1.524 . S
C804 C803 1.524 . S
C804 C805 1.397 . S
C804 C809 1.363 . S
C805 H776 0.950 . S
C805 C804 1.397 . S
C805 C806 1.334 . S
C806 H777 0.950 . S
C806 C805 1.334 . S
C806 C807 1.287 . S
C807 C806 1.287 . S
C807 C808 1.524 . S
C807 H810 0.999 . S
C808 H778 0.950 . S
C808 C807 1.524 . S
C808 C809 1.415 . S
C809 H779 0.950 . S
C809 C804 1.363 . S
C809 C808 1.415 . S
H810 C807 0.999 . S
H811 C792 0.913 1_545 S
H812 C830 0.951 . S
H813 C832 0.951 . S
H814 C834 0.950 . S
H815 C835 0.950 . S
H816 C837 0.950 . S
H817 C840 0.950 . S
H818 C841 0.950 . S
H819 C843 0.950 . S
H820 C844 0.950 . S
H821 C845 0.951 . S
H822 C847 0.951 . S
H823 C849 0.950 . S
H824 C850 0.950 . S
H825 C852 0.950 . S
H826 C855 0.950 . S
H827 C856 0.950 . S
H828 C858 0.950 . S
H829 C859 0.950 . S
C830 H812 0.951 . S
C830 C831 1.366 . S
C830 C832 1.388 . S
C831 C830 1.366 . S
C831 C835 1.385 . S
C832 H813 0.951 . S
C832 C830 1.388 . S
C832 C833 1.366 . S
C833 C832 1.366 . S
C833 C834 1.414 . S
C833 C836 1.499 . S
C834 H814 0.950 . S
C834 C833 1.414 . S
C834 C835 1.374 . S
C835 H815 0.950 . S
C835 C831 1.385 . S
C835 C834 1.374 . S
C836 C833 1.499 . S
C836 C837 1.373 . S
C836 C838 1.389 . S
C837 H816 0.950 . S
C837 C836 1.373 . S
C837 C853 1.377 . S
C838 C836 1.389 . S
C838 C839 1.524 . S
C838 C852 1.377 . S
C839 C838 1.524 . S
C839 C840 1.397 . S
C839 C844 1.363 . S
C840 H817 0.950 . S
C840 C839 1.397 . S
C840 C841 1.334 . S
C841 H818 0.950 . S
C841 C840 1.334 . S
C841 C842 1.287 . S
C842 C841 1.287 . S
C842 C843 1.524 . S
C842 H861 0.913 . S
C843 H819 0.950 . S
C843 C842 1.524 . S
C843 C844 1.415 . S
C844 H820 0.950 . S
C844 C839 1.363 . S
C844 C843 1.415 . S
C845 H821 0.951 . S
C845 C846 1.366 . S
C845 C847 1.388 . S
C846 C845 1.366 . S
C846 C850 1.385 . S
C847 H822 0.951 . S
C847 C845 1.388 . S
C847 C848 1.366 . S
C848 C847 1.366 . S
C848 C849 1.414 . S
C848 C851 1.499 . S
C849 H823 0.950 . S
C849 C848 1.414 . S
C849 C850 1.374 . S
C850 H824 0.950 . S
C850 C846 1.385 . S
C850 C849 1.374 . S
C851 C848 1.499 . S
C851 C852 1.373 . S
C851 C853 1.389 . S
C852 H825 0.950 . S
C852 C838 1.377 . S
C852 C851 1.373 . S
C853 C837 1.377 . S
C853 C851 1.389 . S
C853 C854 1.524 . S
C854 C853 1.524 . S
C854 C855 1.397 . S
C854 C859 1.363 . S
C855 H826 0.950 . S
C855 C854 1.397 . S
C855 C856 1.334 . S
C856 H827 0.950 . S
C856 C855 1.334 . S
C856 C857 1.287 . S
C857 C856 1.287 . S
C857 C858 1.524 . S
C857 H860 0.999 . S
C858 H828 0.950 . S
C858 C857 1.524 . S
C858 C859 1.415 . S
C859 H829 0.950 . S
C859 C854 1.363 . S
C859 C858 1.415 . S
H860 C857 0.999 . S
H861 C842 0.913 . S
H862 C880 0.951 . S
H863 C882 0.951 . S
H864 C884 0.950 . S
H865 C885 0.958 . S
H866 C887 0.950 . S
H867 C890 0.950 . S
H868 C891 0.950 . S
H869 C893 0.950 . S
H870 C894 0.950 . S
H871 C895 0.951 . S
H872 C897 0.951 . S
H873 C899 0.950 . S
H874 C900 0.950 . S
H875 C902 0.950 . S
H876 C905 0.950 . S
H877 C906 0.950 . S
H878 C908 0.950 . S
H879 C909 0.950 . S
C880 H862 0.951 . S
C880 C881 1.366 . S
C880 C882 1.388 . S
C881 C880 1.366 . S
C881 C885 1.385 . S
C882 H863 0.951 . S
C882 C880 1.388 . S
C882 C883 1.366 . S
C883 C882 1.366 . S
C883 C884 1.414 . S
C883 C886 1.499 . S
C884 H864 0.950 . S
C884 C883 1.414 . S
C884 C885 1.374 . S
C885 H865 0.958 . S
C885 C881 1.385 . S
C885 C884 1.374 . S
C886 C883 1.499 . S
C886 C887 1.373 . S
C886 C888 1.389 . S
C887 H866 0.950 . S
C887 C886 1.373 . S
C887 C903 1.377 . S
C888 C886 1.389 . S
C888 C889 1.524 . S
C888 C902 1.377 . S
C889 C888 1.524 . S
C889 C890 1.397 . S
C889 C894 1.363 . S
C890 H867 0.950 . S
C890 C889 1.397 . S
C890 C891 1.334 . S
C891 H868 0.950 . S
C891 C890 1.334 . S
C891 C892 1.287 . S
C892 C891 1.287 . S
C892 C893 1.524 . S
C892 H911 0.913 . S
C893 H869 0.950 . S
C893 C892 1.524 . S
C893 C894 1.415 . S
C894 H870 0.950 . S
C894 C889 1.363 . S
C894 C893 1.415 . S
C895 H871 0.951 . S
C895 C896 1.366 . S
C895 C897 1.388 . S
C896 C895 1.366 . S
C896 C900 1.385 . S
C897 H872 0.951 . S
C897 C895 1.388 . S
C897 C898 1.366 . S
C898 C897 1.366 . S
C898 C899 1.414 . S
C898 C901 1.499 . S
C899 H873 0.950 . S
C899 C898 1.414 . S
C899 C900 1.374 . S
C900 H874 0.950 . S
C900 C896 1.385 . S
C900 C899 1.374 . S
C901 C898 1.499 . S
C901 C902 1.373 . S
C901 C903 1.389 . S
C902 H875 0.950 . S
C902 C888 1.377 . S
C902 C901 1.373 . S
C903 C887 1.377 . S
C903 C901 1.389 . S
C903 C904 1.524 . S
C904 C903 1.524 . S
C904 C905 1.397 . S
C904 C909 1.363 . S
C905 H876 0.950 . S
C905 C904 1.397 . S
C905 C906 1.334 . S
C906 H877 0.950 . S
C906 C905 1.334 . S
C906 C907 1.287 . S
C907 C906 1.287 . S
C907 C908 1.524 . S
C907 H910 0.999 . S
C908 H878 0.950 . S
C908 C907 1.524 . S
C908 C909 1.415 . S
C909 H879 0.950 . S
C909 C904 1.363 . S
C909 C908 1.415 . S
H910 C907 0.999 . S
H911 C892 0.913 . S
C131 C8 1.689 . S
C146 C64 1.689 . S
C181 C22 1.689 . S
C196 C78 1.689 . S
C231 C92 1.689 . S
C246 C36 1.689 . S
C281 C106 1.689 . S
C296 C50 1.689 . S
C331 C6 1.239 . S
C346 C34 1.239 . S
C381 C20 1.240 . S
C396 C48 1.240 . S
C431 C90 1.238 . S
C446 C62 1.238 . S
C481 C76 1.239 . S
C496 C104 1.239 . S
C531 C79 2.168 . S
C546 C9 2.168 . S
C581 C23 2.168 1_655 S
C596 C93 2.168 . S
C631 C107 2.168 1_655 S
C646 C37 2.168 1_565 S
C681 C51 2.168 . S
C696 C65 2.168 1_565 S
C731 C91 0.733 . S
C746 C49 0.734 . S
C781 C7 0.732 . S
C796 C105 0.731 . S
C831 C21 0.731 . S
C846 C63 0.730 . S
C881 C77 0.734 . S
C896 C35 0.734 . S
