# Generated by pormake.
# Topology zfc, (5)-cn, num edge types: 1
# Building blocks:
#     Node 0, Type 0, BuildingBlock: XOMCOT_clean_sbu_0, # of connection points: 5
#     Node 1, Type 0, BuildingBlock: XOMCOT_clean_sbu_0, # of connection points: 5
#     Node 2, Type 0, BuildingBlock: XOMCOT_clean_sbu_0, # of connection points: 5
#     Node 3, Type 0, BuildingBlock: XOMCOT_clean_sbu_0, # of connection points: 5
#     Node 4, Type 0, BuildingBlock: XOMCOT_clean_sbu_0, # of connection points: 5
#     Node 5, Type 0, BuildingBlock: XOMCOT_clean_sbu_0, # of connection points: 5
#     Node 6, Type 0, BuildingBlock: XOMCOT_clean_sbu_0, # of connection points: 5
#     Node 7, Type 0, BuildingBlock: XOMCOT_clean_sbu_0, # of connection points: 5
#     Node 8, Type 0, BuildingBlock: XOMCOT_clean_sbu_0, # of connection points: 5
#     Node 9, Type 0, BuildingBlock: XOMCOT_clean_sbu_0, # of connection points: 5
#     Node 10, Type 0, BuildingBlock: XOMCOT_clean_sbu_0, # of connection points: 5
#     Node 11, Type 0, BuildingBlock: XOMCOT_clean_sbu_0, # of connection points: 5
#     Node 12, Type 0, BuildingBlock: XOMCOT_clean_sbu_0, # of connection points: 5
#     Node 13, Type 0, BuildingBlock: XOMCOT_clean_sbu_0, # of connection points: 5
#     Node 14, Type 0, BuildingBlock: XOMCOT_clean_sbu_0, # of connection points: 5
#     Node 15, Type 0, BuildingBlock: XOMCOT_clean_sbu_0, # of connection points: 5
#     Edge 16, Type (0, 0), BuildingBlock: CIFDUS_clean_linker_0, # of connection points: 2
#     Edge 17, Type (0, 0), BuildingBlock: CIFDUS_clean_linker_0, # of connection points: 2
#     Edge 18, Type (0, 0), BuildingBlock: CIFDUS_clean_linker_0, # of connection points: 2
#     Edge 19, Type (0, 0), BuildingBlock: CIFDUS_clean_linker_0, # of connection points: 2
#     Edge 20, Type (0, 0), BuildingBlock: CIFDUS_clean_linker_0, # of connection points: 2
#     Edge 21, Type (0, 0), BuildingBlock: CIFDUS_clean_linker_0, # of connection points: 2
#     Edge 22, Type (0, 0), BuildingBlock: CIFDUS_clean_linker_0, # of connection points: 2
#     Edge 23, Type (0, 0), BuildingBlock: CIFDUS_clean_linker_0, # of connection points: 2
#     Edge 24, Type (0, 0), BuildingBlock: CIFDUS_clean_linker_0, # of connection points: 2
#     Edge 25, Type (0, 0), BuildingBlock: CIFDUS_clean_linker_0, # of connection points: 2
#     Edge 26, Type (0, 0), BuildingBlock: CIFDUS_clean_linker_0, # of connection points: 2
#     Edge 27, Type (0, 0), BuildingBlock: CIFDUS_clean_linker_0, # of connection points: 2
#     Edge 28, Type (0, 0), BuildingBlock: CIFDUS_clean_linker_0, # of connection points: 2
#     Edge 29, Type (0, 0), BuildingBlock: CIFDUS_clean_linker_0, # of connection points: 2
#     Edge 30, Type (0, 0), BuildingBlock: CIFDUS_clean_linker_0, # of connection points: 2
#     Edge 31, Type (0, 0), BuildingBlock: CIFDUS_clean_linker_0, # of connection points: 2
#     Edge 32, Type (0, 0), BuildingBlock: CIFDUS_clean_linker_0, # of connection points: 2
#     Edge 33, Type (0, 0), BuildingBlock: CIFDUS_clean_linker_0, # of connection points: 2
#     Edge 34, Type (0, 0), BuildingBlock: CIFDUS_clean_linker_0, # of connection points: 2
#     Edge 35, Type (0, 0), BuildingBlock: CIFDUS_clean_linker_0, # of connection points: 2
#     Edge 36, Type (0, 0), BuildingBlock: CIFDUS_clean_linker_0, # of connection points: 2
#     Edge 37, Type (0, 0), BuildingBlock: CIFDUS_clean_linker_0, # of connection points: 2
#     Edge 38, Type (0, 0), BuildingBlock: CIFDUS_clean_linker_0, # of connection points: 2
#     Edge 39, Type (0, 0), BuildingBlock: CIFDUS_clean_linker_0, # of connection points: 2
#     Edge 40, Type (0, 0), BuildingBlock: CIFDUS_clean_linker_0, # of connection points: 2
#     Edge 41, Type (0, 0), BuildingBlock: CIFDUS_clean_linker_0, # of connection points: 2
#     Edge 42, Type (0, 0), BuildingBlock: CIFDUS_clean_linker_0, # of connection points: 2
#     Edge 43, Type (0, 0), BuildingBlock: CIFDUS_clean_linker_0, # of connection points: 2
#     Edge 44, Type (0, 0), BuildingBlock: CIFDUS_clean_linker_0, # of connection points: 2
#     Edge 45, Type (0, 0), BuildingBlock: CIFDUS_clean_linker_0, # of connection points: 2
#     Edge 46, Type (0, 0), BuildingBlock: CIFDUS_clean_linker_0, # of connection points: 2
#     Edge 47, Type (0, 0), BuildingBlock: CIFDUS_clean_linker_0, # of connection points: 2
#     Edge 48, Type (0, 0), BuildingBlock: CIFDUS_clean_linker_0, # of connection points: 2
#     Edge 49, Type (0, 0), BuildingBlock: CIFDUS_clean_linker_0, # of connection points: 2
#     Edge 50, Type (0, 0), BuildingBlock: CIFDUS_clean_linker_0, # of connection points: 2
#     Edge 51, Type (0, 0), BuildingBlock: CIFDUS_clean_linker_0, # of connection points: 2
#     Edge 52, Type (0, 0), BuildingBlock: CIFDUS_clean_linker_0, # of connection points: 2
#     Edge 53, Type (0, 0), BuildingBlock: CIFDUS_clean_linker_0, # of connection points: 2
#     Edge 54, Type (0, 0), BuildingBlock: CIFDUS_clean_linker_0, # of connection points: 2
#     Edge 55, Type (0, 0), BuildingBlock: CIFDUS_clean_linker_0, # of connection points: 2
# Relax obj value: 0.131
# Max RMSD: 0.149
# Mean RMSD: 0.149
data_MOF--net-zfc--node1-XOMCOT_clean_sbu_0--edge1-CIFDUS_clean_linker_0
_symmetry_space_group_name_H-M    P1
_symmetry_Int_Tables_number       1
_symmetry_cell_setting            triclinic
loop_
_symmetry_equiv_pos_as_xyz
'x, y, z'
_cell_length_a     66.36258
_cell_length_b     66.336447
_cell_length_c     15.729292
_cell_angle_alpha  89.974493
_cell_angle_beta   90.108177
_cell_angle_gamma 90.074927
loop_
_atom_site_label
_atom_site_type_symbol
_atom_site_fract_x
_atom_site_fract_y
_atom_site_fract_z
_atom_type_partial_charge
Co0 Co 0.26874 0.08928 0.12141 0.0
C1 C 0.27128 0.09171 0.93122 0.0
C2 C 0.29907 0.10007 0.99191 0.0
C3 C 0.30147 0.10157 0.90507 0.0
N4 N 0.28012 0.09405 1.00864 0.0
N5 N 0.28404 0.0963 0.86652 0.0
H6 H 0.2558 0.08697 0.92255 0.0
H7 H 0.31048 0.10305 0.03947 0.0
C8 C 0.28334 0.12316 0.22745 0.0
O9 O 0.26441 0.12536 0.25007 0.0
N10 N 0.25762 0.08372 0.23584 0.0
C11 C 0.23954 0.07544 0.25417 0.0
C12 C 0.23785 0.07285 0.34066 0.0
C13 C 0.26705 0.08492 0.31289 0.0
N14 N 0.25508 0.07893 0.37821 0.0
C15 C 0.22896 0.10531 0.09301 0.0
C16 C 0.24103 0.14417 0.05512 0.0
C17 C 0.22042 0.13965 0.05656 0.0
C18 C 0.21445 0.11984 0.07399 0.0
C19 C 0.25504 0.12909 0.07339 0.0
N20 N 0.24891 0.11022 0.09741 0.0
H21 H 0.22408 0.09 0.1013 0.0
H22 H 0.27088 0.13262 0.06821 0.0
H23 H 0.22846 0.07058 0.20843 0.0
H24 H 0.28254 0.0896 0.32115 0.0
O25 O 0.25406 0.06669 0.07681 0.0
O26 O 0.28488 0.06507 0.13165 0.0
O27 O 0.28815 0.10953 0.17353 0.0
C28 C 0.26961 0.0558 0.0969 0.0
H29 H 0.31521 0.10586 0.87273 0.0
H30 H 0.22482 0.06681 0.37321 0.0
H31 H 0.24628 0.15912 0.03846 0.0
H32 H 0.19868 0.11558 0.0732 0.0
Co33 Co 0.91269 0.27169 0.10221 0.0
C34 C 0.91174 0.27481 0.91141 0.0
C35 C 0.90691 0.30316 0.9737 0.0
C36 C 0.90697 0.30632 0.88741 0.0
N37 N 0.90973 0.28343 0.98919 0.0
N38 N 0.91018 0.28857 0.84754 0.0
H39 H 0.91491 0.25897 0.90217 0.0
H40 H 0.90545 0.31466 0.02193 0.0
C41 C 0.87812 0.29111 0.19455 0.0
O42 O 0.87288 0.2735 0.22587 0.0
N43 N 0.91651 0.26035 0.2173 0.0
C44 C 0.92554 0.24264 0.2361 0.0
C45 C 0.92616 0.24005 0.3227 0.0
C46 C 0.91313 0.26888 0.29473 0.0
N47 N 0.91823 0.25647 0.3599 0.0
C48 C 0.89269 0.23315 0.0877 0.0
C49 C 0.85629 0.24797 0.02999 0.0
C50 C 0.85789 0.22725 0.04733 0.0
C51 C 0.8766 0.21992 0.07537 0.0
C52 C 0.87269 0.26073 0.04509 0.0
N53 N 0.89035 0.25342 0.07765 0.0
H54 H 0.90705 0.22692 0.10456 0.0
H55 H 0.87111 0.27661 0.03121 0.0
H56 H 0.93211 0.23241 0.1906 0.0
H57 H 0.90728 0.28391 0.30391 0.0
O58 O 0.93468 0.2555 0.06092 0.0
O59 O 0.93765 0.28629 0.11526 0.0
O60 O 0.89366 0.29282 0.14725 0.0
C61 C 0.94626 0.27062 0.08123 0.0
H62 H 0.90491 0.32077 0.85683 0.0
H63 H 0.93256 0.22727 0.35591 0.0
H64 H 0.84253 0.25436 1.00468 0.0
H65 H 0.8789 0.2041 0.08902 0.0
Co66 Co 0.71326 0.90506 0.05464 0.0
C67 C 0.71329 0.90032 0.86705 0.0
C68 C 0.68338 0.90086 0.91768 0.0
C69 C 0.68211 0.89969 0.83033 0.0
N70 N 0.70298 0.90085 0.9407 0.0
N71 N 0.701 0.89928 0.79899 0.0
H72 H 0.72934 0.90198 0.86183 0.0
H73 H 0.67088 0.90204 0.96143 0.0
C74 C 0.68698 0.86819 0.06992 0.0
O75 O 0.69308 0.86213 0.99477 0.0
N76 N 0.72293 0.90964 0.16788 0.0
C77 C 0.7421 0.91221 0.19392 0.0
C78 C 0.74218 0.91357 0.28137 0.0
C79 C 0.71162 0.90978 0.23862 0.0
N80 N 0.72299 0.91204 0.30895 0.0
C81 C 0.75054 0.88942 0.98926 0.0
C82 C 0.74914 0.85235 0.06872 0.0
C83 C 0.76447 0.85611 1.00959 0.0
C84 C 0.76537 0.87516 0.97153 0.0
C85 C 0.73445 0.86704 0.08384 0.0
N86 N 0.73441 0.88479 0.03943 0.0
H87 H 0.75209 0.90426 0.96204 0.0
H88 H 0.72336 0.86408 0.13223 0.0
H89 H 0.75509 0.91263 0.15252 0.0
H90 H 0.69546 0.90755 0.23874 0.0
O91 O 0.72764 0.92869 0.01587 0.0
O92 O 0.69626 0.92869 0.06344 0.0
O93 O 0.69368 0.88459 0.10184 0.0
C94 C 0.71138 0.93884 0.03278 0.0
H95 H 0.66841 0.89943 0.79296 0.0
H96 H 0.75532 0.91541 0.32155 0.0
H97 H 0.74834 0.8381 0.1022 0.0
H98 H 0.77758 0.87911 0.92902 0.0
Co99 Co 0.09085 0.72527 0.07043 0.0
C100 C 0.09461 0.72681 0.88535 0.0
C101 C 0.10087 0.69712 0.93294 0.0
C102 C 0.10167 0.69664 0.84542 0.0
N103 N 0.09645 0.71604 0.95734 0.0
N104 N 0.09768 0.71533 0.81584 0.0
H105 H 0.09022 0.74251 0.88401 0.0
H106 H 0.10278 0.68446 0.97553 0.0
C107 C 0.12458 0.70787 0.17544 0.0
O108 O 0.1257 0.72481 0.21846 0.0
N109 N 0.08462 0.73426 0.18482 0.0
C110 C 0.07875 0.75273 0.21081 0.0
C111 C 0.07601 0.75239 0.29732 0.0
C112 C 0.08412 0.7227 0.25544 0.0
N113 N 0.07964 0.73356 0.32537 0.0
C114 C 0.10473 0.7661 0.04731 0.0
C115 C 0.14531 0.75733 0.03832 0.0
C116 C 0.13937 0.77762 0.0399 0.0
C117 C 0.11866 0.78184 0.04128 0.0
C118 C 0.13081 0.74209 0.0431 0.0
N119 N 0.11091 0.74657 0.0549 0.0
H120 H 0.08891 0.7697 0.04475 0.0
H121 H 0.13577 0.72668 0.03714 0.0
H122 H 0.07619 0.76562 0.17073 0.0
H123 H 0.08782 0.70683 0.25612 0.0
O124 O 0.06721 0.7392 0.02917 0.0
O125 O 0.06768 0.70756 0.07446 0.0
O126 O 0.1118 0.70577 0.11512 0.0
C127 C 0.0574 0.72255 0.04334 0.0
H128 H 0.10469 0.68351 0.80668 0.0
H129 H 0.07171 0.76507 0.33658 0.0
H130 H 0.16103 0.75311 0.03478 0.0
H131 H 0.11317 0.79718 0.03704 0.0
Co132 Co 0.28112 0.90591 0.96303 0.0
C133 C 0.28434 0.90459 0.15345 0.0
C134 C 0.31108 0.89378 0.09206 0.0
C135 C 0.31409 0.89344 0.17867 0.0
N136 N 0.29242 0.9007 0.07583 0.0
N137 N 0.29737 0.90037 0.21795 0.0
H138 H 0.26948 0.91093 0.16221 0.0
H139 H 0.32198 0.88959 0.04429 0.0
C140 C 0.2954 0.87117 0.85987 0.0
O141 O 0.27653 0.86864 0.83648 0.0
N142 N 0.27014 0.91195 0.84853 0.0
C143 C 0.2529 0.92195 0.83112 0.0
C144 C 0.25045 0.92353 0.74451 0.0
C145 C 0.27856 0.90894 0.77046 0.0
N146 N 0.26645 0.91511 0.70577 0.0
C147 C 0.24071 0.89 0.98014 0.0
C148 C 0.25218 0.85104 0.01911 0.0
C149 C 0.23173 0.85514 1.00523 0.0
C150 C 0.22598 0.87508 0.98867 0.0
C151 C 0.26636 0.86649 1.01095 0.0
N152 N 0.2607 0.88534 0.98509 0.0
H153 H 0.23594 0.90527 0.96991 0.0
H154 H 0.28206 0.86306 0.02216 0.0
H155 H 0.24294 0.92849 0.87763 0.0
H156 H 0.29326 0.9024 0.76059 0.0
O157 O 0.26725 0.92894 1.0083 0.0
O158 O 0.29809 0.9295 0.95368 0.0
O159 O 0.30005 0.88535 0.91148 0.0
C160 C 0.28331 0.93926 0.98924 0.0
H161 H 0.32773 0.88846 0.20992 0.0
H162 H 0.23795 0.9308 0.71265 0.0
H163 H 0.25718 0.83599 0.03545 0.0
H164 H 0.21027 0.87904 0.98015 0.0
Co165 Co 0.09675 0.28383 0.96035 0.0
C166 C 0.09993 0.28315 0.14542 0.0
C167 C 0.10411 0.31316 0.09721 0.0
C168 C 0.10486 0.3138 0.18483 0.0
N169 N 0.10105 0.29393 0.07322 0.0
N170 N 0.10224 0.29489 0.21469 0.0
H171 H 0.09679 0.26715 0.14704 0.0
H172 H 0.1053 0.32583 0.05422 0.0
C173 C 0.13048 0.30087 0.8575 0.0
O174 O 0.13196 0.28332 0.81935 0.0
N175 N 0.09176 0.27398 0.84602 0.0
C176 C 0.0877 0.25506 0.81938 0.0
C177 C 0.08517 0.25525 0.73264 0.0
C178 C 0.0905 0.28551 0.77551 0.0
N179 N 0.08715 0.27439 0.70513 0.0
C180 C 0.11184 0.24384 0.99218 0.0
C181 C 0.1516 0.25473 0.01695 0.0
C182 C 0.14643 0.23425 0.02001 0.0
C183 C 0.12613 0.22894 1.00927 0.0
C184 C 0.13678 0.26911 1.00035 0.0
N185 N 0.1174 0.26352 0.98227 0.0
H186 H 0.0962 0.23952 0.98965 0.0
H187 H 0.14099 0.28479 1.00398 0.0
H188 H 0.08627 0.24191 0.85889 0.0
H189 H 0.09288 0.30165 0.77538 0.0
O190 O 0.07344 0.26919 0.99949 0.0
O191 O 0.07298 0.30055 0.95057 0.0
O192 O 0.11742 0.30366 0.91604 0.0
C193 C 0.06309 0.28528 0.98179 0.0
H194 H 0.10706 0.32712 0.22342 0.0
H195 H 0.08211 0.24229 0.69291 0.0
H196 H 0.16696 0.25969 0.02717 0.0
H197 H 0.1212 0.21345 0.01601 0.0
Co198 Co 0.7244 0.09116 0.94653 0.0
C199 C 0.72136 0.09119 0.13991 0.0
C200 C 0.69291 0.09004 0.07554 0.0
C201 C 0.68946 0.0892 0.16153 0.0
N202 N 0.71287 0.0916 0.0612 0.0
N203 N 0.70733 0.08986 0.20247 0.0
H204 H 0.73732 0.09107 0.15199 0.0
H205 H 0.68154 0.08937 0.02623 0.0
C206 C 0.69865 0.12757 0.95134 0.0
O207 O 0.70699 0.13103 0.02579 0.0
N208 N 0.7354 0.09009 0.83219 0.0
C209 C 0.75502 0.08736 0.81377 0.0
C210 C 0.7575 0.08833 0.72713 0.0
C211 C 0.7261 0.09246 0.75605 0.0
N212 N 0.73938 0.09156 0.6906 0.0
C213 C 0.76005 0.10737 0.02548 0.0
C214 C 0.76033 0.1435 0.93784 0.0
C215 C 0.77618 0.1392 0.99358 0.0
C216 C 0.77602 0.12083 0.03738 0.0
C217 C 0.74489 0.12945 0.92648 0.0
N218 N 0.74432 0.11197 0.97281 0.0
H219 H 0.76095 0.09277 0.05533 0.0
H220 H 0.73394 0.13232 0.87719 0.0
H221 H 0.76678 0.08503 0.8604 0.0
H222 H 0.71011 0.09521 0.7488 0.0
O223 O 0.74006 0.06777 0.97645 0.0
O224 O 0.70897 0.06678 0.92476 0.0
O225 O 0.70389 0.112 0.90861 0.0
C226 C 0.72465 0.05702 0.95303 0.0
H227 H 0.67482 0.08818 0.19135 0.0
H228 H 0.77161 0.08664 0.69345 0.0
H229 H 0.7604 0.15717 0.90009 0.0
H230 H 0.78835 0.11672 0.07912 0.0
Co231 Co 0.90652 0.72942 0.91372 0.0
C232 C 0.90402 0.72593 0.10632 0.0
C233 C 0.90497 0.69734 0.04349 0.0
C234 C 0.90454 0.6941 0.13004 0.0
N235 N 0.90407 0.71731 0.02769 0.0
N236 N 0.90395 0.71208 0.16994 0.0
H237 H 0.90451 0.7419 0.11794 0.0
H238 H 0.90626 0.68583 0.99514 0.0
C239 C 0.87297 0.69913 0.88916 0.0
O240 O 0.86567 0.70344 0.96456 0.0
N241 N 0.9094 0.74109 0.80052 0.0
C242 C 0.91099 0.76088 0.78309 0.0
C243 C 0.91217 0.76339 0.69631 0.0
C244 C 0.90965 0.73178 0.7236 0.0
N245 N 0.91136 0.74512 0.65832 0.0
C246 C 0.88605 0.76258 0.99208 0.0
C247 C 0.85033 0.75946 0.9027 0.0
C248 C 0.85191 0.77385 0.96764 0.0
C249 C 0.8702 0.77556 1.01138 0.0
C250 C 0.86655 0.74654 0.88625 0.0
N251 N 0.88375 0.74742 0.93421 0.0
H252 H 0.90034 0.76506 0.02283 0.0
H253 H 0.86529 0.73615 0.83379 0.0
H254 H 0.91104 0.77272 0.83032 0.0
H255 H 0.90878 0.7156 0.7157 0.0
O256 O 0.92804 0.74641 0.9551 0.0
O257 O 0.93213 0.71583 0.90099 0.0
O258 O 0.88878 0.70798 0.86185 0.0
C259 C 0.94019 0.73184 0.93486 0.0
H260 H 0.90529 0.67957 0.16119 0.0
H261 H 0.91315 0.77773 0.66379 0.0
H262 H 0.83667 0.7581 0.86533 0.0
H263 H 0.87243 0.78717 0.05893 0.0
Co264 Co 0.772 0.58834 0.61402 0.0
C265 C 0.77242 0.59337 0.42647 0.0
C266 C 0.80218 0.59051 0.47753 0.0
C267 C 0.80351 0.59138 0.3901 0.0
N268 N 0.78266 0.59219 0.5004 0.0
N269 N 0.78472 0.59326 0.35845 0.0
H270 H 0.7563 0.59284 0.42099 0.0
H271 H 0.81454 0.58822 0.52137 0.0
C272 C 0.80239 0.62177 0.63678 0.0
O273 O 0.79721 0.62929 0.56262 0.0
N274 N 0.76189 0.58404 0.72687 0.0
C275 C 0.74255 0.58373 0.75255 0.0
C276 C 0.74228 0.58219 0.83996 0.0
C277 C 0.77308 0.58238 0.7979 0.0
N278 N 0.7615 0.58138 0.86806 0.0
C279 C 0.73738 0.60925 0.55008 0.0
C280 C 0.74274 0.64483 0.638 0.0
C281 C 0.7271 0.64359 0.57803 0.0
C282 C 0.72437 0.6253 0.53493 0.0
C283 C 0.75563 0.62837 0.65028 0.0
N284 N 0.75371 0.6113 0.60216 0.0
H285 H 0.73408 0.59507 0.51983 0.0
H286 H 0.76679 0.62935 0.7 0.0
H287 H 0.72963 0.58509 0.71097 0.0
H288 H 0.78938 0.58275 0.79845 0.0
O289 O 0.75447 0.56733 0.57203 0.0
O290 O 0.78565 0.5625 0.61827 0.0
O291 O 0.79403 0.60569 0.66437 0.0
C292 C 0.76918 0.55489 0.58637 0.0
H293 H 0.81717 0.59034 0.35287 0.0
H294 H 0.72899 0.58196 0.87977 0.0
H295 H 0.7448 0.65823 0.67635 0.0
H296 H 0.71234 0.62328 0.48914 0.0
Co297 Co 0.40601 0.78225 0.55343 0.0
C298 C 0.4036 0.78078 0.3657 0.0
C299 C 0.3934 0.8091 0.41385 0.0
C300 C 0.39311 0.80995 0.32644 0.0
N301 N 0.39921 0.79048 0.43857 0.0
N302 N 0.39945 0.79203 0.29668 0.0
H303 H 0.41143 0.76658 0.36237 0.0
H304 H 0.39034 0.82155 0.45623 0.0
C305 C 0.36644 0.80209 0.57323 0.0
O306 O 0.36066 0.79096 0.50847 0.0
N307 N 0.41361 0.77471 0.6667 0.0
C308 C 0.42096 0.75674 0.69161 0.0
C309 C 0.42348 0.75714 0.77835 0.0
C310 C 0.41199 0.78589 0.73754 0.0
N311 N 0.41777 0.77545 0.80688 0.0
C312 C 0.38672 0.74548 0.49163 0.0
C313 C 0.35876 0.74318 0.6211 0.0
C314 C 0.35715 0.72959 0.55314 0.0
C315 C 0.37178 0.7306 0.48881 0.0
C316 C 0.37361 0.75806 0.62022 0.0
N317 N 0.38666 0.75991 0.55341 0.0
H318 H 0.39835 0.74511 0.44455 0.0
H319 H 0.37433 0.76842 0.67312 0.0
H320 H 0.42378 0.74412 0.64983 0.0
H321 H 0.40592 0.80102 0.73874 0.0
O322 O 0.42947 0.76841 0.51138 0.0
O323 O 0.42861 0.80065 0.54909 0.0
O324 O 0.38464 0.80101 0.60003 0.0
C325 C 0.439 0.78544 0.52059 0.0
H326 H 0.389 0.82285 0.28803 0.0
H327 H 0.42881 0.74482 0.81749 0.0
H328 H 0.34861 0.74247 0.67481 0.0
H329 H 0.37165 0.72023 0.43574 0.0
Co330 Co 0.23198 0.40936 0.57944 0.0
C331 C 0.22896 0.40827 0.38866 0.0
C332 C 0.20155 0.39926 0.45016 0.0
C333 C 0.19848 0.39907 0.36377 0.0
N334 N 0.22066 0.40492 0.46627 0.0
N335 N 0.21561 0.4049 0.32445 0.0
H336 H 0.2442 0.41367 0.37972 0.0
H337 H 0.19034 0.39588 0.49785 0.0
C338 C 0.21425 0.37491 0.67723 0.0
O339 O 0.23214 0.37096 0.70894 0.0
N340 N 0.24289 0.41469 0.6945 0.0
C341 C 0.26012 0.42475 0.71245 0.0
C342 C 0.26263 0.42601 0.79897 0.0
C343 C 0.2345 0.41138 0.77231 0.0
N344 N 0.24664 0.41742 0.83705 0.0
C345 C 0.27126 0.39084 0.57136 0.0
C346 C 0.25809 0.35329 0.51907 0.0
C347 C 0.27846 0.35603 0.5391 0.0
C348 C 0.2851 0.37515 0.56384 0.0
C349 C 0.24465 0.36934 0.52929 0.0
N350 N 0.25114 0.38758 0.55955 0.0
H351 H 0.27688 0.40561 0.58578 0.0
H352 H 0.22892 0.36695 0.51456 0.0
H353 H 0.2701 0.43147 0.66629 0.0
H354 H 0.21979 0.40482 0.78209 0.0
O355 O 0.24757 0.43146 0.53543 0.0
O356 O 0.21658 0.43402 0.58753 0.0
O357 O 0.21155 0.38983 0.62714 0.0
C358 C 0.2322 0.44281 0.55362 0.0
H359 H 0.18451 0.39499 0.33267 0.0
H360 H 0.27512 0.4332 0.83138 0.0
H361 H 0.25253 0.33877 0.49785 0.0
H362 H 0.30091 0.37798 0.57641 0.0
Co363 Co 0.59189 0.21744 0.58896 0.0
C364 C 0.59622 0.21888 0.40408 0.0
C365 C 0.60295 0.18934 0.45208 0.0
C366 C 0.6038 0.18883 0.36444 0.0
N367 N 0.5982 0.20819 0.47632 0.0
N368 N 0.59952 0.20744 0.33459 0.0
H369 H 0.59148 0.23448 0.4025 0.0
H370 H 0.60499 0.17672 0.49482 0.0
C371 C 0.62554 0.20239 0.69841 0.0
O372 O 0.62624 0.22042 0.73294 0.0
N373 N 0.58495 0.22647 0.70287 0.0
C374 C 0.57935 0.24498 0.72922 0.0
C375 C 0.57683 0.24464 0.81597 0.0
C376 C 0.58459 0.21491 0.77361 0.0
N377 N 0.5804 0.22577 0.84392 0.0
C378 C 0.60393 0.25861 0.56138 0.0
C379 C 0.64488 0.25185 0.55264 0.0
C380 C 0.63789 0.27182 0.54799 0.0
C381 C 0.61697 0.27491 0.54983 0.0
C382 C 0.63121 0.23595 0.56179 0.0
N383 N 0.61111 0.23953 0.57292 0.0
H384 H 0.58795 0.26141 0.55896 0.0
H385 H 0.63694 0.22076 0.55946 0.0
H386 H 0.57708 0.25798 0.68944 0.0
H387 H 0.58836 0.19905 0.77411 0.0
O388 O 0.56802 0.23042 0.54534 0.0
O389 O 0.56925 0.19896 0.59234 0.0
O390 O 0.6132 0.19878 0.63763 0.0
C391 C 0.55865 0.21354 0.55951 0.0
H392 H 0.60701 0.17573 0.32581 0.0
H393 H 0.57285 0.25738 0.85548 0.0
H394 H 0.66078 0.24835 0.5497 0.0
H395 H 0.61057 0.28976 0.54088 0.0
Co396 Co 0.77378 0.40557 0.42512 0.0
C397 C 0.77569 0.41118 0.61102 0.0
C398 C 0.79389 0.38607 0.57369 0.0
C399 C 0.79485 0.388 0.66098 0.0
N400 N 0.78178 0.40064 0.54235 0.0
N401 N 0.78327 0.40375 0.68396 0.0
H402 H 0.76556 0.42389 0.60844 0.0
H403 H 0.80125 0.37454 0.53677 0.0
C404 C 0.79922 0.37639 0.31722 0.0
O405 O 0.79011 0.38131 0.24634 0.0
N406 N 0.76543 0.41153 0.30992 0.0
C407 C 0.74655 0.41053 0.27866 0.0
C408 C 0.74704 0.41549 0.19393 0.0
C409 C 0.77679 0.41878 0.24581 0.0
N410 N 0.76617 0.42025 0.17269 0.0
C411 C 0.73988 0.3855 0.50346 0.0
C412 C 0.73722 0.35445 0.38697 0.0
C413 C 0.72474 0.3538 0.45878 0.0
C414 C 0.726 0.36986 0.51693 0.0
C415 C 0.75114 0.36999 0.37727 0.0
N416 N 0.75274 0.38509 0.43581 0.0
H417 H 0.74049 0.39777 0.54836 0.0
H418 H 0.76024 0.36999 0.32111 0.0
H419 H 0.7334 0.40584 0.31407 0.0
H420 H 0.79285 0.42131 0.25122 0.0
O421 O 0.75904 0.42941 0.45897 0.0
O422 O 0.79136 0.42874 0.42324 0.0
O423 O 0.79403 0.3841 0.3886 0.0
C424 C 0.77594 0.43919 0.44887 0.0
H425 H 0.80283 0.37813 0.70425 0.0
H426 H 0.73448 0.4142 0.15025 0.0
H427 H 0.73627 0.34308 0.33781 0.0
H428 H 0.71671 0.37024 0.57336 0.0
Co429 Co 0.59095 0.77412 0.42232 0.0
C430 C 0.59573 0.77472 0.61002 0.0
C431 C 0.59153 0.80431 0.55868 0.0
C432 C 0.59276 0.8058 0.64594 0.0
N433 N 0.59371 0.78481 0.53621 0.0
N434 N 0.59548 0.78713 0.67774 0.0
H435 H 0.59629 0.7586 0.61562 0.0
H436 H 0.58896 0.81656 0.51457 0.0
C437 C 0.62609 0.80293 0.41081 0.0
O438 O 0.63185 0.79796 0.48797 0.0
N439 N 0.58783 0.76404 0.30892 0.0
C440 C 0.58689 0.74474 0.2827 0.0
C441 C 0.58572 0.74463 0.19519 0.0
C442 C 0.58692 0.77537 0.23823 0.0
N443 N 0.58572 0.76392 0.16782 0.0
C444 C 0.60676 0.73725 0.48829 0.0
C445 C 0.64467 0.73934 0.41713 0.0
C446 C 0.63974 0.72272 0.46824 0.0
C447 C 0.62045 0.72184 0.50363 0.0
C448 C 0.6304 0.75459 0.40344 0.0
N449 N 0.61195 0.75391 0.44216 0.0
H450 H 0.59182 0.73559 0.514 0.0
H451 H 0.63411 0.7664 0.35917 0.0
H452 H 0.58729 0.73171 0.32399 0.0
H453 H 0.58771 0.79167 0.23828 0.0
O454 O 0.56795 0.75853 0.45765 0.0
O455 O 0.5664 0.7898 0.40888 0.0
O456 O 0.61067 0.79463 0.37701 0.0
C457 C 0.55697 0.77401 0.43789 0.0
H458 H 0.59158 0.8195 0.68294 0.0
H459 H 0.58496 0.73143 0.15485 0.0
H460 H 0.65916 0.74023 0.38578 0.0
H461 H 0.61584 0.70926 0.54303 0.0
Co462 Co 0.22295 0.59401 0.43965 0.0
C463 C 0.22418 0.59731 0.62483 0.0
C464 C 0.19441 0.603 0.57686 0.0
C465 C 0.19386 0.60373 0.66441 0.0
N466 N 0.21343 0.59899 0.55272 0.0
N467 N 0.21261 0.60014 0.69415 0.0
H468 H 0.23998 0.5933 0.62642 0.0
H469 H 0.18177 0.60477 0.53402 0.0
C470 C 0.20573 0.62801 0.33547 0.0
O471 O 0.22252 0.62898 0.29153 0.0
N472 N 0.23228 0.58843 0.32538 0.0
C473 C 0.25106 0.58379 0.29927 0.0
C474 C 0.25083 0.58107 0.21272 0.0
C475 C 0.22074 0.58738 0.25482 0.0
N476 N 0.2318 0.58358 0.18477 0.0
C477 C 0.26363 0.60656 0.47292 0.0
C478 C 0.25654 0.6475 0.47888 0.0
C479 C 0.27649 0.64062 0.4857 0.0
C480 C 0.27975 0.61974 0.48541 0.0
C481 C 0.24079 0.6337 0.46846 0.0
N482 N 0.24456 0.61357 0.45909 0.0
H483 H 0.2666 0.5906 0.4753 0.0
H484 H 0.2256 0.6394 0.46914 0.0
H485 H 0.26414 0.58219 0.33921 0.0
H486 H 0.2047 0.5903 0.25435 0.0
O487 O 0.23648 0.57005 0.4787 0.0
O488 O 0.205 0.57096 0.43166 0.0
O489 O 0.20378 0.61539 0.39637 0.0
C490 C 0.2199 0.5604 0.46202 0.0
H491 H 0.18068 0.60652 0.70306 0.0
H492 H 0.26374 0.57761 0.17337 0.0
H493 H 0.25298 0.6634 0.48081 0.0
H494 H 0.29462 0.61349 0.4956 0.0
Co495 Co 0.40859 0.21862 0.41408 0.0
C496 C 0.40545 0.21607 0.60692 0.0
C497 C 0.40723 0.18733 0.54537 0.0
C498 C 0.40639 0.18422 0.63172 0.0
N499 N 0.40609 0.20726 0.5289 0.0
N500 N 0.40528 0.20227 0.67064 0.0
H501 H 0.40544 0.23208 0.61795 0.0
H502 H 0.40885 0.17576 0.49745 0.0
C503 C 0.37364 0.19098 0.40409 0.0
O504 O 0.36795 0.19921 0.47617 0.0
N505 N 0.41174 0.2296 0.30016 0.0
C506 C 0.41464 0.24926 0.28299 0.0
C507 C 0.41601 0.25177 0.19653 0.0
C508 C 0.41137 0.22032 0.22333 0.0
N509 N 0.41404 0.23362 0.15847 0.0
C510 C 0.38842 0.25318 0.48489 0.0
C511 C 0.35457 0.25107 0.38277 0.0
C512 C 0.35615 0.26698 0.44111 0.0
C513 C 0.37354 0.26798 0.492 0.0
C514 C 0.36998 0.23687 0.37655 0.0
N515 N 0.38621 0.23734 0.4303 0.0
H516 H 0.4022 0.25512 0.52027 0.0
H517 H 0.36904 0.22586 0.32626 0.0
H518 H 0.4155 0.26105 0.33032 0.0
H519 H 0.40939 0.20424 0.21521 0.0
O520 O 0.43027 0.23559 0.45306 0.0
O521 O 0.43404 0.20451 0.40358 0.0
O522 O 0.3899 0.19696 0.36838 0.0
C523 C 0.44225 0.22072 0.43516 0.0
H524 H 0.40717 0.16978 0.6636 0.0
H525 H 0.41795 0.26604 0.16424 0.0
H526 H 0.34167 0.24964 0.341 0.0
H527 H 0.37609 0.2805 0.53483 0.0
H528 H 0.25922 0.07107 0.77891 0.0
H529 H 0.30084 0.1204 0.74695 0.0
H530 H 0.2963 0.11901 0.59298 0.0
H531 H 0.28026 0.10394 0.46563 0.0
H532 H 0.23904 0.05422 0.49793 0.0
H533 H 0.2436 0.05567 0.65151 0.0
C534 C 0.26716 0.08161 0.73835 0.0
C535 C 0.2804 0.0958 0.77527 0.0
C536 C 0.2646 0.08064 0.64898 0.0
C537 C 0.29074 0.10916 0.72091 0.0
C538 C 0.28811 0.10842 0.63246 0.0
C539 C 0.27245 0.09328 0.50609 0.0
C540 C 0.2592 0.07907 0.4692 0.0
C541 C 0.27515 0.09416 0.59545 0.0
C542 C 0.24909 0.06554 0.52365 0.0
C543 C 0.25173 0.06631 0.61202 0.0
H544 H 0.90646 0.2536 0.75771 0.0
H545 H 0.91916 0.3171 0.72881 0.0
H546 H 0.92165 0.31305 0.57605 0.0
H547 H 0.92083 0.2915 0.44819 0.0
H548 H 0.90964 0.22787 0.47658 0.0
H549 H 0.90623 0.23194 0.63014 0.0
C550 C 0.90991 0.26655 0.71835 0.0
C551 C 0.91232 0.28568 0.75624 0.0
C552 C 0.91167 0.26412 0.62932 0.0
C553 C 0.91671 0.30222 0.70281 0.0
C554 C 0.9183 0.29993 0.61468 0.0
C555 C 0.9175 0.27858 0.48796 0.0
C556 C 0.91557 0.2594 0.45053 0.0
C557 C 0.91577 0.28098 0.57695 0.0
C558 C 0.91146 0.24277 0.50352 0.0
C559 C 0.90944 0.24509 0.59156 0.0
H560 H 0.74264 0.8963 0.44234 0.0
H561 H 0.6875 0.92584 0.3689 0.0
H562 H 0.67521 0.92383 0.51518 0.0
H563 H 0.68061 0.91428 0.66461 0.0
H564 H 0.73558 0.884 0.73627 0.0
H565 H 0.7476 0.88586 0.59024 0.0
C566 C 0.72805 0.90248 0.45868 0.0
C567 C 0.71605 0.91133 0.39535 0.0
C568 C 0.72106 0.90112 0.54249 0.0
C569 C 0.69695 0.91888 0.41675 0.0
C570 C 0.68995 0.91776 0.50028 0.0
C571 C 0.69508 0.90787 0.64803 0.0
C572 C 0.70724 0.8992 0.71143 0.0
C573 C 0.70189 0.90891 0.5637 0.0
C574 C 0.72608 0.89111 0.689 0.0
C575 C 0.73294 0.89209 0.60544 0.0
H576 H 0.09068 0.75629 0.4586 0.0
H577 H 0.07272 0.69611 0.38758 0.0
H578 H 0.07723 0.68483 0.53454 0.0
H579 H 0.08611 0.6923 0.68316 0.0
H580 H 0.10443 0.75253 0.75236 0.0
H581 H 0.09961 0.76371 0.60602 0.0
C582 C 0.08743 0.74078 0.47544 0.0
C583 C 0.08122 0.72709 0.41244 0.0
C584 C 0.09016 0.73444 0.55958 0.0
C585 C 0.0776 0.70691 0.43492 0.0
C586 C 0.08014 0.70048 0.51887 0.0
C587 C 0.08927 0.7078 0.66602 0.0
C588 C 0.09559 0.72157 0.72866 0.0
C589 C 0.08651 0.71411 0.58164 0.0
C590 C 0.09931 0.7417 0.70562 0.0
C591 C 0.09663 0.74809 0.62192 0.0
H592 H 0.26223 0.90402 0.30666 0.0
H593 H 0.32687 0.90378 0.33791 0.0
H594 H 0.32313 0.90767 0.4905 0.0
H595 H 0.30163 0.91152 0.61754 0.0
H596 H 0.23705 0.9124 0.58628 0.0
H597 H 0.24075 0.9083 0.43335 0.0
C598 C 0.27553 0.90496 0.34645 0.0
C599 C 0.29481 0.90334 0.3092 0.0
C600 C 0.27334 0.90746 0.43542 0.0
C601 C 0.31178 0.90451 0.36335 0.0
C602 C 0.30968 0.9069 0.4514 0.0
C603 C 0.28835 0.91073 0.57749 0.0
C604 C 0.26908 0.91248 0.61452 0.0
C605 C 0.29055 0.90834 0.48848 0.0
C606 C 0.25212 0.91152 0.56046 0.0
C607 C 0.2542 0.90903 0.47245 0.0
H608 H 0.10002 0.25303 0.57107 0.0
H609 H 0.0769 0.31118 0.64427 0.0
H610 H 0.08009 0.32308 0.49764 0.0
H611 H 0.08921 0.31669 0.34835 0.0
H612 H 0.11259 0.25845 0.27711 0.0
H613 H 0.10924 0.2467 0.42328 0.0
C614 C 0.09539 0.2682 0.55479 0.0
C615 C 0.08809 0.28115 0.61831 0.0
C616 C 0.09734 0.27491 0.47079 0.0
C617 C 0.08264 0.30096 0.59653 0.0
C618 C 0.08443 0.30775 0.51275 0.0
C619 C 0.09377 0.30152 0.36508 0.0
C620 C 0.10107 0.28844 0.30188 0.0
C621 C 0.09183 0.29486 0.4494 0.0
C622 C 0.10666 0.26871 0.3243 0.0
C623 C 0.10483 0.26201 0.40791 0.0
H624 H 0.7066 0.07923 0.60176 0.0
H625 H 0.76407 0.10886 0.57544 0.0
H626 H 0.75946 0.11083 0.42167 0.0
H627 H 0.73927 0.10381 0.29338 0.0
H628 H 0.68219 0.0732 0.31935 0.0
H629 H 0.68639 0.07215 0.47296 0.0
C630 C 0.71798 0.0863 0.56234 0.0
C631 C 0.73568 0.09381 0.60033 0.0
C632 C 0.71534 0.08718 0.47326 0.0
C633 C 0.75041 0.10273 0.548 0.0
C634 C 0.74777 0.1039 0.45987 0.0
C635 C 0.72782 0.09676 0.3324 0.0
C636 C 0.71038 0.08873 0.29382 0.0
C637 C 0.73038 0.09601 0.42151 0.0
C638 C 0.69564 0.07985 0.34641 0.0
C639 C 0.69805 0.07913 0.43477 0.0
H640 H 0.89633 0.71277 0.57126 0.0
H641 H 0.9283 0.76889 0.5374 0.0
H642 H 0.92827 0.76405 0.38418 0.0
H643 H 0.9193 0.74397 0.25759 0.0
H644 H 0.88797 0.68755 0.29025 0.0
H645 H 0.88788 0.69231 0.44421 0.0
C646 C 0.90346 0.72386 0.53059 0.0
C647 C 0.91212 0.74131 0.56711 0.0
C648 C 0.90353 0.72095 0.44127 0.0
C649 C 0.92113 0.7555 0.5122 0.0
C650 C 0.92124 0.75271 0.42395 0.0
C651 C 0.91231 0.73278 0.29819 0.0
C652 C 0.90367 0.71539 0.26144 0.0
C653 C 0.91239 0.73556 0.38745 0.0
C654 C 0.89496 0.70097 0.31607 0.0
C655 C 0.89482 0.70372 0.40453 0.0
H656 H 0.80355 0.57595 0.22505 0.0
H657 H 0.75161 0.61132 0.29442 0.0
H658 H 0.73942 0.61017 0.14831 0.0
H659 H 0.74339 0.59908 1.00091 0.0
H660 H 0.79547 0.56428 0.92958 0.0
H661 H 0.80791 0.56545 0.07602 0.0
C662 C 0.78971 0.5836 0.20794 0.0
C663 C 0.77844 0.59356 0.27076 0.0
C664 C 0.78278 0.58293 0.12351 0.0
C665 C 0.7604 0.60324 0.24763 0.0
C666 C 0.75344 0.60266 0.16401 0.0
C667 C 0.75733 0.59155 0.01768 0.0
C668 C 0.76842 0.5815 0.95478 0.0
C669 C 0.76441 0.59241 0.10162 0.0
C670 C 0.78672 0.5722 0.97695 0.0
C671 C 0.79381 0.57283 0.06062 0.0
H672 H 0.40855 0.81611 0.16405 0.0
H673 H 0.3966 0.75436 0.23427 0.0
H674 H 0.40214 0.74361 0.08814 0.0
H675 H 0.40964 0.75179 0.94047 0.0
H676 H 0.4212 0.8134 0.86796 0.0
H677 H 0.41622 0.8243 0.01498 0.0
C678 C 0.407 0.80035 0.14709 0.0
C679 C 0.40227 0.78604 0.20983 0.0
C680 C 0.4101 0.79428 0.06279 0.0
C681 C 0.40054 0.76561 0.18727 0.0
C682 C 0.4036 0.75946 0.10373 0.0
C683 C 0.41138 0.76755 0.95705 0.0
C684 C 0.41587 0.78175 0.89377 0.0
C685 C 0.40842 0.77365 0.04113 0.0
C686 C 0.41761 0.80222 0.91572 0.0
C687 C 0.41481 0.80843 0.99965 0.0
H688 H 0.25075 0.40577 0.23512 0.0
H689 H 0.18625 0.41067 0.20577 0.0
H690 H 0.19 0.41409 0.05305 0.0
H691 H 0.21152 0.41615 0.92547 0.0
H692 H 0.276 0.41232 0.95461 0.0
H693 H 0.2723 0.40838 0.10789 0.0
C694 C 0.23751 0.40774 0.19566 0.0
C695 C 0.21823 0.40768 0.23332 0.0
C696 C 0.23973 0.41 0.10672 0.0
C697 C 0.2013 0.41016 0.17982 0.0
C698 C 0.20341 0.41228 0.09177 0.0
C699 C 0.22474 0.41434 0.96527 0.0
C700 C 0.24401 0.41468 0.92794 0.0
C701 C 0.22253 0.41217 0.05422 0.0
C702 C 0.26097 0.41247 0.9812 0.0
C703 C 0.25888 0.4101 0.06919 0.0
H704 H 0.58823 0.18428 0.20149 0.0
H705 H 0.60574 0.24473 0.271 0.0
H706 H 0.6006 0.25593 0.12487 0.0
H707 H 0.5915 0.24854 0.97749 0.0
H708 H 0.57417 0.18818 0.90625 0.0
H709 H 0.57919 0.17684 0.05279 0.0
C710 C 0.59114 0.19984 0.18446 0.0
C711 C 0.59732 0.21366 0.24726 0.0
C712 C 0.58816 0.20619 0.10012 0.0
C713 C 0.60073 0.23385 0.22425 0.0
C714 C 0.59786 0.24025 0.14061 0.0
C715 C 0.5885 0.23297 0.99412 0.0
C716 C 0.58231 0.21927 0.93102 0.0
C717 C 0.59149 0.22658 0.07819 0.0
C718 C 0.57902 0.19902 0.95349 0.0
C719 C 0.58186 0.19254 0.03728 0.0
H720 H 0.74638 0.43114 0.03067 0.0
H721 H 0.80393 0.40978 0.12149 0.0
H722 H 0.81487 0.40395 0.97613 0.0
H723 H 0.80678 0.40143 0.82351 0.0
H724 H 0.74834 0.42079 0.73498 0.0
H725 H 0.73907 0.43063 0.87851 0.0
C726 C 0.76136 0.42533 0.01872 0.0
C727 C 0.77409 0.42065 0.08737 0.0
C728 C 0.76735 0.42135 0.93504 0.0
C729 C 0.79371 0.41362 0.07041 0.0
C730 C 0.79995 0.41003 0.98703 0.0
C731 C 0.79204 0.4078 0.83584 0.0
C732 C 0.7783 0.4103 0.76859 0.0
C733 C 0.78665 0.41322 0.91905 0.0
C734 C 0.75934 0.4189 0.7852 0.0
C735 C 0.75395 0.42445 0.86747 0.0
H736 H 0.6035 0.74615 0.03485 0.0
H737 H 0.5683 0.79781 0.10801 0.0
H738 H 0.56887 0.81029 0.96163 0.0
H739 H 0.57868 0.80588 0.81215 0.0
H740 H 0.61475 0.75454 0.74082 0.0
H741 H 0.6144 0.74244 0.88699 0.0
C742 C 0.59581 0.76003 0.01837 0.0
C743 C 0.58574 0.77098 0.08156 0.0
C744 C 0.59636 0.76714 0.93456 0.0
C745 C 0.5762 0.78919 0.06016 0.0
C746 C 0.5765 0.79629 0.97661 0.0
C747 C 0.58668 0.79221 0.82882 0.0
C748 C 0.59652 0.78103 0.76544 0.0
C749 C 0.58652 0.78536 0.91324 0.0
C750 C 0.6067 0.76322 0.78804 0.0
C751 C 0.60659 0.75632 0.87169 0.0
H752 H 0.25392 0.59553 0.05128 0.0
H753 H 0.19466 0.57493 0.12279 0.0
H754 H 0.18313 0.57877 0.97583 0.0
H755 H 0.19012 0.58781 0.82693 0.0
H756 H 0.24949 0.60856 0.75733 0.0
H757 H 0.26089 0.60449 0.90379 0.0
C758 C 0.23857 0.59156 0.0346 0.0
C759 C 0.22521 0.58481 0.09774 0.0
C760 C 0.23208 0.59386 0.95044 0.0
C761 C 0.20521 0.58025 0.07537 0.0
C762 C 0.19863 0.58241 0.99141 0.0
C763 C 0.20548 0.59164 0.84407 0.0
C764 C 0.21895 0.59844 0.78133 0.0
C765 C 0.21193 0.58929 0.9285 0.0
C766 C 0.2389 0.60305 0.80423 0.0
C767 C 0.24541 0.60081 0.88797 0.0
H768 H 0.39673 0.20276 0.07037 0.0
H769 H 0.43312 0.25622 0.03959 0.0
H770 H 0.4328 0.25187 0.88619 0.0
H771 H 0.42235 0.23292 0.75874 0.0
H772 H 0.38702 0.17886 0.78826 0.0
H773 H 0.3869 0.1833 0.94255 0.0
C774 C 0.40474 0.21335 0.03026 0.0
C775 C 0.41471 0.22995 0.06746 0.0
C776 C 0.40467 0.21069 0.94101 0.0
C777 C 0.42492 0.24354 0.01357 0.0
C778 C 0.42485 0.24102 0.92532 0.0
C779 C 0.41448 0.22224 0.79892 0.0
C780 C 0.40468 0.2056 0.76165 0.0
C781 C 0.41467 0.22475 0.88808 0.0
C782 C 0.39482 0.19171 0.8151 0.0
C783 C 0.39471 0.19426 0.90352 0.0
H784 H 0.32175 0.13188 0.17415 0.0
H785 H 0.27974 0.14178 0.3793 0.0
H786 H 0.3043 0.16264 0.45287 0.0
H787 H 0.33698 0.17893 0.45802 0.0
H788 H 0.37929 0.17084 0.25288 0.0
H789 H 0.3554 0.14838 0.18056 0.0
C790 C 0.31807 0.13858 0.23506 0.0
C791 C 0.29889 0.1354 0.27081 0.0
C792 C 0.33227 0.1509 0.27703 0.0
C793 C 0.29428 0.14419 0.34972 0.0
C794 C 0.30834 0.15608 0.39216 0.0
C795 C 0.34112 0.17222 0.39766 0.0
C796 C 0.35992 0.17658 0.36103 0.0
C797 C 0.32727 0.15968 0.35613 0.0
C798 C 0.36491 0.16773 0.28261 0.0
C799 C 0.35124 0.15491 0.24115 0.0
H800 H 0.82526 0.36973 0.19003 0.0
H801 H 0.80724 0.34707 0.43526 0.0
H802 H 0.83042 0.31856 0.41991 0.0
H803 H 0.85458 0.29916 0.33222 0.0
H804 H 0.87303 0.32301 0.08924 0.0
H805 H 0.85092 0.35194 0.10802 0.0
C806 C 0.82654 0.35861 0.24039 0.0
C807 C 0.8146 0.36041 0.31353 0.0
C808 C 0.83988 0.34242 0.23116 0.0
C809 C 0.81648 0.34608 0.37878 0.0
C810 C 0.82959 0.3297 0.36965 0.0
C811 C 0.85376 0.31076 0.28371 0.0
C812 C 0.86535 0.30894 0.20933 0.0
C813 C 0.84116 0.32756 0.29547 0.0
C814 C 0.86437 0.32415 0.14728 0.0
C815 C 0.85167 0.34066 0.15779 0.0
H816 H 0.62763 0.80548 0.23873 0.0
H817 H 0.65249 0.83158 0.4673 0.0
H818 H 0.67294 0.85467 0.38186 0.0
H819 H 0.68404 0.86709 0.24214 0.0
H820 H 0.66069 0.83951 0.01388 0.0
H821 H 0.63929 0.81733 0.09934 0.0
C822 C 0.63745 0.81629 0.26991 0.0
C823 C 0.63846 0.81691 0.35929 0.0
C824 C 0.64943 0.82921 0.22042 0.0
C825 C 0.65148 0.83079 0.39864 0.0
C826 C 0.66314 0.84401 0.34983 0.0
C827 C 0.67417 0.85631 0.2111 0.0
C828 C 0.67383 0.85502 0.12175 0.0
C829 C 0.66226 0.84332 0.26068 0.0
C830 C 0.66122 0.84077 0.08251 0.0
C831 C 0.64898 0.82811 0.13133 0.0
H832 H 0.19185 0.6408 0.18299 0.0
H833 H 0.1837 0.64818 0.45293 0.0
H834 H 0.15804 0.67401 0.42756 0.0
H835 H 0.13833 0.69495 0.32798 0.0
H836 H 0.14398 0.68504 0.05831 0.0
H837 H 0.17012 0.6597 0.08364 0.0
C838 C 0.18439 0.6481 0.23599 0.0
C839 C 0.18969 0.64286 0.31955 0.0
C840 C 0.16923 0.66243 0.22085 0.0
C841 C 0.17978 0.65206 0.38805 0.0
C842 C 0.16518 0.66683 0.37358 0.0
C843 C 0.1453 0.68717 0.27503 0.0
C844 C 0.13947 0.69188 0.19153 0.0
C845 C 0.15985 0.67221 0.29024 0.0
C846 C 0.14828 0.68156 0.12316 0.0
C847 C 0.16325 0.66715 0.13759 0.0
H848 H 0.37159 0.82528 0.71586 0.0
H849 H 0.32718 0.8071 0.52967 0.0
H850 H 0.30151 0.82642 0.60314 0.0
H851 H 0.29139 0.84816 0.71959 0.0
H852 H 0.33517 0.86744 0.90579 0.0
H853 H 0.36133 0.84794 0.83306 0.0
C854 C 0.35632 0.82564 0.69124 0.0
C855 C 0.35136 0.81471 0.61732 0.0
C856 C 0.34147 0.83686 0.73394 0.0
C857 C 0.33148 0.81531 0.58637 0.0
C858 C 0.31672 0.82635 0.62841 0.0
C859 C 0.30661 0.84804 0.74481 0.0
C860 C 0.31129 0.85911 0.81832 0.0
C861 C 0.32152 0.83707 0.70232 0.0
C862 C 0.33118 0.85899 0.8493 0.0
C863 C 0.34613 0.84787 0.80771 0.0
H864 H 0.14333 0.31218 0.70223 0.0
H865 H 0.15066 0.32472 0.96928 0.0
H866 H 0.1777 0.34877 0.93741 0.0
H867 H 0.20021 0.36516 0.83296 0.0
H868 H 0.19042 0.35519 0.56545 0.0
H869 H 0.16333 0.33119 0.59741 0.0
C870 C 0.15081 0.32033 0.75314 0.0
C871 C 0.14528 0.31668 0.83781 0.0
C872 C 0.1659 0.33446 0.73411 0.0
C873 C 0.15474 0.32742 0.90358 0.0
C874 C 0.17023 0.34105 0.88541 0.0
C875 C 0.19202 0.35774 0.78205 0.0
C876 C 0.19727 0.36158 0.69723 0.0
C877 C 0.17609 0.34452 0.80095 0.0
C878 C 0.1865 0.35228 0.6312 0.0
C879 C 0.17111 0.33859 0.64945 0.0
H880 H 0.6787 0.12667 0.79822 0.0
H881 H 0.68754 0.16309 0.02298 0.0
H882 H 0.66608 0.18922 0.96401 0.0
H883 H 0.6451 0.20215 0.84914 0.0
H884 H 0.63501 0.1661 0.62485 0.0
H885 H 0.65661 0.1395 0.68311 0.0
C886 C 0.67586 0.1403 0.83433 0.0
C887 C 0.68482 0.14286 0.91491 0.0
C888 C 0.66333 0.15541 0.80008 0.0
C889 C 0.68092 0.16062 0.96084 0.0
C890 C 0.66864 0.17566 0.92715 0.0
C891 C 0.64768 0.18852 0.81263 0.0
C892 C 0.6386 0.18619 0.73248 0.0
C893 C 0.65987 0.17328 0.8468 0.0
C894 C 0.64187 0.16829 0.68672 0.0
C895 C 0.65422 0.15308 0.72 0.0
H896 H 0.82938 0.65106 0.59476 0.0
H897 H 0.80454 0.61918 0.8097 0.0
H898 H 0.82405 0.64023 0.90681 0.0
H899 H 0.84746 0.66853 0.93139 0.0
H900 H 0.87345 0.69933 0.71618 0.0
H901 H 0.85431 0.67795 0.61901 0.0
C902 C 0.82833 0.64866 0.66283 0.0
C903 C 0.81548 0.6336 0.69473 0.0
C904 C 0.83977 0.66071 0.71853 0.0
C905 C 0.81441 0.63058 0.78319 0.0
C906 C 0.82549 0.64269 0.83896 0.0
C907 C 0.84893 0.67051 0.86323 0.0
C908 C 0.86179 0.68554 0.83118 0.0
C909 C 0.83808 0.65793 0.80745 0.0
C910 C 0.86373 0.6878 0.74262 0.0
C911 C 0.85273 0.67562 0.68689 0.0
H912 H 0.30166 0.03098 0.06845 0.0
H913 H 0.23685 0.03173 0.08976 0.0
H914 H 0.23547 0.99571 0.05977 0.0
H915 H 0.25243 0.96416 0.02531 0.0
H916 H 0.31699 0.96309 0.99528 0.0
H917 H 0.31876 0.99905 0.03022 0.0
C918 C 0.2873 0.02316 0.06702 0.0
C919 C 0.2694 0.0339 0.08155 0.0
C920 C 0.28656 0.00246 0.04763 0.0
C921 C 0.25083 0.02374 0.07846 0.0
C922 C 0.25001 0.00316 0.06138 0.0
C923 C 0.2669 0.97178 0.02656 0.0
C924 C 0.28455 0.96101 1.00811 0.0
C925 C 0.26774 0.9924 0.04542 0.0
C926 C 0.30318 0.97111 1.00908 0.0
C927 C 0.3042 0.99164 0.0293 0.0
H928 H 0.03793 0.25376 1.00665 0.0
H929 H 0.03928 0.31869 0.99348 0.0
H930 H 0.00324 0.31996 0.02617 0.0
H931 H 0.97138 0.30249 0.05923 0.0
H932 H 0.96989 0.23749 0.06412 0.0
H933 H 0.006 0.23633 0.03429 0.0
C934 C 0.03033 0.26819 1.01095 0.0
C935 C 0.04122 0.28611 0.99814 0.0
C936 C 0.00962 0.26877 0.02856 0.0
C937 C 0.03117 0.30469 1.00294 0.0
C938 C 0.0106 0.30542 0.0219 0.0
C939 C 0.97903 0.2881 0.05419 0.0
C940 C 0.96809 0.2701 0.06448 0.0
C941 C -0.00031 0.28755 0.03513 0.0
C942 C 0.97804 0.25154 0.05645 0.0
C943 C 0.99866 0.25086 0.03944 0.0
H944 H 0.74233 0.96438 1.00054 0.0
H945 H 0.67774 0.96259 0.02975 0.0
H946 H 0.67588 0.99888 1.00252 0.0
H947 H 0.69282 0.0314 0.97302 0.0
H948 H 0.75761 0.03303 0.95246 0.0
H949 H 0.75917 0.99659 0.97295 0.0
C950 C 0.72783 0.97192 1.00073 0.0
C951 C 0.7102 0.96081 0.01701 0.0
C952 C 0.72691 0.99279 0.9863 0.0
C953 C 0.69155 0.97082 0.01767 0.0
C954 C 0.69047 0.99157 1.00188 0.0
C955 C 0.70723 0.02369 0.97226 0.0
C956 C 0.72507 0.03483 0.9608 0.0
C957 C 0.70807 0.00273 0.9863 0.0
C958 C 0.74367 0.02476 0.96125 0.0
C959 C 0.74459 0.00393 0.97301 0.0
H960 H 0.96682 0.70112 0.9561 0.0
H961 H 0.96237 0.76598 0.95362 0.0
H962 H 0.99831 0.76884 0.98551 0.0
H963 H 0.03093 0.75294 0.01563 0.0
H964 H 0.03518 0.68812 0.02673 0.0
H965 H -0.00058 0.68517 0.99042 0.0
C966 C 0.97379 0.71586 0.96203 0.0
C967 C 0.96204 0.73332 0.95194 0.0
C968 C 0.99439 0.71738 0.98239 0.0
C969 C 0.97113 0.75232 0.96109 0.0
C970 C 0.99167 0.75397 0.97932 0.0
C971 C 0.02403 0.73817 1.01 0.0
C972 C 0.03568 0.72077 0.02352 0.0
C973 C 0.00343 0.73661 0.99041 0.0
C974 C 0.0265 0.70174 0.01684 0.0
C975 C 0.00608 0.70005 0.99584 0.0
H976 H 0.746 0.46565 0.48678 0.0
H977 H 0.81058 0.46105 0.46281 0.0
H978 H 0.81434 0.49614 0.50694 0.0
H979 H 0.79927 0.52829 0.55263 0.0
H980 H 0.73462 0.53332 0.56957 0.0
H981 H 0.7309 0.49798 0.52862 0.0
C982 C 0.76088 0.47236 0.49098 0.0
C983 C 0.77796 0.46075 0.47155 0.0
C984 C 0.76293 0.49262 0.51568 0.0
C985 C 0.79716 0.46967 0.47705 0.0
C986 C 0.79934 0.48973 0.50262 0.0
C987 C 0.7844 0.52157 0.5479 0.0
C988 C 0.76726 0.53331 0.56464 0.0
C989 C 0.78234 0.50134 0.52237 0.0
C990 C 0.74805 0.52455 0.55701 0.0
C991 C 0.7459 0.50435 0.53354 0.0
H992 H 0.46505 0.75489 0.49344 0.0
H993 H 0.46172 0.81975 0.50595 0.0
H994 H 0.49792 0.82216 0.47719 0.0
H995 H 0.53079 0.80558 0.45194 0.0
H996 H 0.5337 0.7406 0.44741 0.0
H997 H 0.49742 0.7385 0.46916 0.0
C998 C 0.47221 0.76957 0.48943 0.0
C999 C 0.46074 0.78711 0.50156 0.0
C1000 C 0.49298 0.77081 0.47437 0.0
C1001 C 0.47026 0.80601 0.49694 0.0
C1002 C 0.49094 0.8074 0.48044 0.0
C1003 C 0.52341 0.791 0.45517 0.0
C1004 C 0.53488 0.77328 0.448 0.0
C1005 C 0.5025 0.78987 0.46947 0.0
C1006 C 0.5252 0.75447 0.45314 0.0
C1007 C 0.50445 0.75323 0.46549 0.0
H1008 H 0.20052 0.46856 0.53371 0.0
H1009 H 0.2655 0.46602 0.5363 0.0
H1010 H 0.26731 0.50215 0.5088 0.0
H1011 H 0.25063 0.5344 0.48408 0.0
H1012 H 0.18576 0.53732 0.47369 0.0
H1013 H 0.18366 0.5011 0.50367 0.0
C1014 C 0.21504 0.47599 0.5285 0.0
C1015 C 0.23285 0.4647 0.53737 0.0
C1016 C 0.21599 0.49677 0.511 0.0
C1017 C 0.25158 0.47439 0.52948 0.0
C1018 C 0.25264 0.49505 0.51388 0.0
C1019 C 0.23601 0.52712 0.48846 0.0
C1020 C 0.21837 0.53849 0.47723 0.0
C1021 C 0.23497 0.50637 0.50449 0.0
C1022 C 0.19955 0.52884 0.48203 0.0
C1023 C 0.19836 0.50816 0.49939 0.0
H1024 H 0.53229 0.24309 0.51964 0.0
H1025 H 0.53672 0.17861 0.54975 0.0
H1026 H 0.50123 0.17491 0.50933 0.0
H1027 H 0.46874 0.19022 0.46661 0.0
H1028 H 0.46445 0.2549 0.44452 0.0
H1029 H 0.5001 0.2583 0.47988 0.0
C1030 C 0.52551 0.22821 0.51731 0.0
C1031 C 0.53711 0.21115 0.53748 0.0
C1032 C 0.50513 0.22624 0.49506 0.0
C1033 C 0.52807 0.19199 0.53477 0.0
C1034 C 0.50781 0.18987 0.51139 0.0
C1035 C 0.47571 0.20501 0.46888 0.0
C1036 C 0.46406 0.22228 0.45252 0.0
C1037 C 0.49618 0.2069 0.49135 0.0
C1038 C 0.47313 0.24139 0.45693 0.0
C1039 C 0.49351 0.24335 0.47719 0.0
H1040 H 0.21857 0.17709 0.12473 0.0
H1041 H 0.18814 0.1374 0.9493 0.0
H1042 H 0.16262 0.1632 0.92231 0.0
H1043 H 0.14913 0.19704 0.94814 0.0
H1044 H 0.17877 0.2362 0.12858 0.0
H1045 H 0.20464 0.21076 0.15274 0.0
C1046 C 0.20642 0.17419 0.08013 0.0
C1047 C 0.20522 0.15544 0.03893 0.0
C1048 C 0.19172 0.189 0.06562 0.0
C1049 C 0.18927 0.1517 0.98221 0.0
C1050 C 0.17473 0.16645 0.96659 0.0
C1051 C 0.1611 0.19995 0.9935 0.0
C1052 C 0.16199 0.21858 0.03612 0.0
C1053 C 0.17577 0.18512 1.0082 0.0
C1054 C 0.17785 0.22217 0.09367 0.0
C1055 C 0.19261 0.20756 0.10803 0.0
H1056 H 0.85795 0.18745 0.99981 0.0
H1057 H 0.81776 0.23569 0.0723 0.0
H1058 H 0.78905 0.21304 0.05862 0.0
H1059 H 0.77526 0.17914 0.0305 0.0
H1060 H 0.8158 0.13041 0.97179 0.0
H1061 H 0.84453 0.1535 0.97874 0.0
C1062 C 0.84302 0.19306 0.01417 0.0
C1063 C 0.84024 0.21342 0.03705 0.0
C1064 C 0.82658 0.17976 1.00951 0.0
C1065 C 0.82052 0.22029 0.05285 0.0
C1066 C 0.80402 0.20727 0.04598 0.0
C1067 C 0.79042 0.17365 0.01936 0.0
C1068 C 0.7935 0.15317 1.00084 0.0
C1069 C 0.80688 0.18695 0.02484 0.0
C1070 C 0.81316 0.14611 0.98696 0.0
C1071 C 0.82954 0.15932 0.99049 0.0
H1072 H 0.8287 0.79566 0.85835 0.0
H1073 H 0.83728 0.7828 0.12468 0.0
H1074 H 0.81052 0.80652 0.16146 0.0
H1075 H 0.78543 0.83185 0.11816 0.0
H1076 H 0.77757 0.84543 0.85202 0.0
H1077 H 0.80322 0.82057 0.8149 0.0
C1078 C 0.82453 0.7979 0.9243 0.0
C1079 C 0.83492 0.7875 0.98868 0.0
C1080 C 0.80933 0.8118 0.94505 0.0
C1081 C 0.82957 0.79076 0.07403 0.0
C1082 C 0.81426 0.80428 0.09509 0.0
C1083 C 0.78921 0.8292 0.05205 0.0
C1084 C 0.77964 0.84048 0.98798 0.0
C1085 C 0.80414 0.81503 0.0312 0.0
C1086 C 0.78488 0.83708 0.90258 0.0
C1087 C 0.79948 0.82282 0.88127 0.0
H1088 H 0.17594 0.77883 0.95917 0.0
H1089 H 0.13721 0.81395 0.12236 0.0
H1090 H 0.16202 0.84104 0.12481 0.0
H1091 H 0.19508 0.85463 0.08311 0.0
H1092 H 0.23447 0.81872 0.92672 0.0
H1093 H 0.20931 0.79182 0.9217 0.0
C1094 C 0.17295 0.79225 0.99633 0.0
C1095 C 0.15457 0.79423 0.04021 0.0
C1096 C 0.18753 0.80761 0.99943 0.0
C1097 C 0.15098 0.81205 0.08643 0.0
C1098 C 0.16526 0.82752 0.08864 0.0
C1099 C 0.1981 0.84092 0.04782 0.0
C1100 C 0.2166 0.83865 1.00545 0.0
C1101 C 0.18361 0.82546 0.04552 0.0
C1102 C 0.22043 0.82072 0.9607 0.0
C1103 C 0.206 0.8054 0.95734 0.0
H1104 H 0.68009 0.72497 0.50352 0.0
H1105 H 0.63155 0.6825 0.46555 0.0
H1106 H 0.65394 0.65468 0.50045 0.0
H1107 H 0.68681 0.64237 0.5447 0.0
H1108 H 0.7364 0.684 0.57399 0.0
H1109 H 0.71396 0.71219 0.54162 0.0
C1110 C 0.67451 0.70961 0.50191 0.0
C1111 C 0.6541 0.70588 0.4829 0.0
C1112 C 0.68756 0.69354 0.52159 0.0
C1113 C 0.64707 0.68587 0.48162 0.0
C1114 C 0.65988 0.66991 0.5013 0.0
C1115 C 0.6929 0.65754 0.54274 0.0
C1116 C 0.71337 0.66094 0.56135 0.0
C1117 C 0.68008 0.67358 0.52196 0.0
C1118 C 0.72068 0.68087 0.56097 0.0
C1119 C 0.70789 0.69701 0.54164 0.0
H1120 H 0.35732 0.69133 0.48634 0.0
H1121 H 0.31843 0.7344 0.61065 0.0
H1122 H 0.29075 0.71042 0.60568 0.0
H1123 H 0.27728 0.67752 0.56455 0.0
H1124 H 0.31489 0.63622 0.42373 0.0
H1125 H 0.34322 0.65929 0.43693 0.0
C1126 C 0.34276 0.6957 0.51132 0.0
C1127 C 0.34023 0.71474 0.54945 0.0
C1128 C 0.32657 0.68209 0.5056 0.0
C1129 C 0.32118 0.71974 0.58281 0.0
C1130 C 0.30518 0.70609 0.57925 0.0
C1131 C 0.29153 0.67359 0.53539 0.0
C1132 C 0.29377 0.65496 0.49359 0.0
C1133 C 0.30767 0.68725 0.54049 0.0
C1134 C 0.31265 0.65017 0.4581 0.0
C1135 C 0.3289 0.66347 0.46483 0.0
H1136 H 0.34364 0.28783 0.58135 0.0
H1137 H 0.33294 0.28235 0.31122 0.0
H1138 H 0.30704 0.30818 0.31908 0.0
H1139 H 0.28807 0.33341 0.40154 0.0
H1140 H 0.30112 0.34116 0.6679 0.0
H1141 H 0.32571 0.3137 0.66234 0.0
C1142 C 0.33587 0.2924 0.52381 0.0
C1143 C 0.34029 0.28289 0.446 0.0
C1144 C 0.32141 0.3078 0.52802 0.0
C1145 C 0.32967 0.28892 0.37261 0.0
C1146 C 0.31492 0.30389 0.37673 0.0
C1147 C 0.29626 0.32893 0.45821 0.0
C1148 C 0.29284 0.33909 0.53506 0.0
C1149 C 0.31072 0.3135 0.45397 0.0
C1150 C 0.30363 0.33346 0.60812 0.0
C1151 C 0.31764 0.3178 0.60492 0.0
H1152 H 0.6874 0.35361 0.53477 0.0
H1153 H 0.73067 0.31427 0.41424 0.0
H1154 H 0.70747 0.28614 0.42701 0.0
H1155 H 0.67484 0.27265 0.46957 0.0
H1156 H 0.6333 0.31059 0.60756 0.0
H1157 H 0.65591 0.33918 0.58998 0.0
C1158 C 0.69198 0.33886 0.51241 0.0
C1159 C 0.71076 0.33638 0.47201 0.0
C1160 C 0.67878 0.3224 0.5224 0.0
C1161 C 0.71613 0.31701 0.44303 0.0
C1162 C 0.70292 0.30076 0.45103 0.0
C1163 C 0.67076 0.28698 0.49758 0.0
C1164 C 0.65213 0.28923 0.53931 0.0
C1165 C 0.68417 0.30329 0.49016 0.0
C1166 C 0.64721 0.30829 0.57307 0.0
C1167 C 0.66026 0.32471 0.56388 0.0
loop_
_geom_bond_atom_site_label_1
_geom_bond_atom_site_label_2
_geom_bond_distance
_geom_bond_site_symmetry_2
_ccdc_geom_bond_type
Co0 N4 2.148 1_554 S
Co0 N10 2.128 . S
Co0 N20 2.194 . S
Co0 O25 2.351 . S
Co0 O26 2.155 . S
Co0 O27 2.096 . S
C1 N4 1.301 . S
C1 N5 1.328 . S
C1 H6 0.930 . S
C2 C3 1.333 . S
C2 N4 1.317 . S
C2 H7 0.930 . S
C3 C2 1.333 . S
C3 N5 1.350 . S
C3 H29 0.931 . S
N4 Co0 2.148 1_556 S
N4 C1 1.301 . S
N4 C2 1.317 . S
N5 C1 1.328 . S
N5 C3 1.350 . S
H6 C1 0.930 . S
H7 C2 0.930 . S
C8 O9 1.224 . S
C8 O27 1.247 . S
O9 C8 1.224 . S
N10 Co0 2.128 . S
N10 C11 1.355 . S
N10 C13 1.311 . S
C11 N10 1.355 . S
C11 C12 1.363 . S
C11 H23 0.929 . S
C12 C11 1.363 . S
C12 N14 1.375 . S
C12 H30 0.931 . S
C13 N10 1.311 . S
C13 N14 1.347 . S
C13 H24 0.929 . S
N14 C12 1.375 . S
N14 C13 1.347 . S
C15 C18 1.365 . S
C15 N20 1.328 . S
C15 H21 0.929 . S
C16 C17 1.362 . S
C16 C19 1.378 . S
C16 H31 0.929 . S
C17 C16 1.362 . S
C17 C18 1.366 . S
C18 C15 1.365 . S
C18 C17 1.366 . S
C18 H32 0.930 . S
C19 C16 1.378 . S
C19 N20 1.315 . S
C19 H22 0.930 . S
N20 Co0 2.194 . S
N20 C15 1.328 . S
N20 C19 1.315 . S
H21 C15 0.929 . S
H22 C19 0.930 . S
H23 C11 0.929 . S
H24 C13 0.929 . S
O25 Co0 2.351 . S
O25 C28 1.244 . S
O26 Co0 2.155 . S
O26 C28 1.240 . S
O27 Co0 2.096 . S
O27 C8 1.247 . S
C28 O25 1.244 . S
C28 O26 1.240 . S
H29 C3 0.931 . S
H30 C12 0.931 . S
H31 C16 0.929 . S
H32 C18 0.930 . S
Co33 N37 2.148 1_554 S
Co33 N43 2.128 . S
Co33 N53 2.194 . S
Co33 O58 2.351 . S
Co33 O59 2.155 . S
Co33 O60 2.096 . S
C34 N37 1.301 . S
C34 N38 1.328 . S
C34 H39 0.930 . S
C35 C36 1.333 . S
C35 N37 1.317 . S
C35 H40 0.930 . S
C36 C35 1.333 . S
C36 N38 1.350 . S
C36 H62 0.931 . S
N37 Co33 2.148 1_556 S
N37 C34 1.301 . S
N37 C35 1.317 . S
N38 C34 1.328 . S
N38 C36 1.350 . S
H39 C34 0.930 . S
H40 C35 0.930 . S
C41 O42 1.224 . S
C41 O60 1.247 . S
O42 C41 1.224 . S
N43 Co33 2.128 . S
N43 C44 1.355 . S
N43 C46 1.311 . S
C44 N43 1.355 . S
C44 C45 1.363 . S
C44 H56 0.929 . S
C45 C44 1.363 . S
C45 N47 1.375 . S
C45 H63 0.931 . S
C46 N43 1.311 . S
C46 N47 1.347 . S
C46 H57 0.929 . S
N47 C45 1.375 . S
N47 C46 1.347 . S
C48 C51 1.365 . S
C48 N53 1.328 . S
C48 H54 0.929 . S
C49 C50 1.362 . S
C49 C52 1.378 . S
C49 H64 0.929 . S
C50 C49 1.362 . S
C50 C51 1.366 . S
C51 C48 1.365 . S
C51 C50 1.366 . S
C51 H65 0.930 . S
C52 C49 1.378 . S
C52 N53 1.315 . S
C52 H55 0.930 . S
N53 Co33 2.194 . S
N53 C48 1.328 . S
N53 C52 1.315 . S
H54 C48 0.929 . S
H55 C52 0.930 . S
H56 C44 0.929 . S
H57 C46 0.929 . S
O58 Co33 2.351 . S
O58 C61 1.244 . S
O59 Co33 2.155 . S
O59 C61 1.240 . S
O60 Co33 2.096 . S
O60 C41 1.247 . S
C61 O58 1.244 . S
C61 O59 1.240 . S
H62 C36 0.931 . S
H63 C45 0.931 . S
H64 C49 0.929 . S
H65 C51 0.930 . S
Co66 N70 2.148 1_554 S
Co66 N76 2.128 . S
Co66 N86 2.194 . S
Co66 O91 2.351 . S
Co66 O92 2.155 . S
Co66 O93 2.096 . S
C67 N70 1.301 . S
C67 N71 1.328 . S
C67 H72 0.930 . S
C68 C69 1.333 . S
C68 N70 1.317 . S
C68 H73 0.930 . S
C69 C68 1.333 . S
C69 N71 1.350 . S
C69 H95 0.931 . S
N70 Co66 2.148 1_556 S
N70 C67 1.301 . S
N70 C68 1.317 . S
N71 C67 1.328 . S
N71 C69 1.350 . S
H72 C67 0.930 . S
H73 C68 0.930 . S
C74 O75 1.224 . S
C74 O93 1.247 . S
O75 C74 1.224 . S
N76 Co66 2.128 . S
N76 C77 1.355 . S
N76 C79 1.311 . S
C77 N76 1.355 . S
C77 C78 1.363 . S
C77 H89 0.929 . S
C78 C77 1.363 . S
C78 N80 1.375 . S
C78 H96 0.931 . S
C79 N76 1.311 . S
C79 N80 1.347 . S
C79 H90 0.929 . S
N80 C78 1.375 . S
N80 C79 1.347 . S
C81 C84 1.365 . S
C81 N86 1.328 . S
C81 H87 0.929 . S
C82 C83 1.362 . S
C82 C85 1.378 . S
C82 H97 0.929 . S
C83 C82 1.362 . S
C83 C84 1.366 . S
C84 C81 1.365 . S
C84 C83 1.366 . S
C84 H98 0.930 . S
C85 C82 1.378 . S
C85 N86 1.315 . S
C85 H88 0.930 . S
N86 Co66 2.194 . S
N86 C81 1.328 . S
N86 C85 1.315 . S
H87 C81 0.929 . S
H88 C85 0.930 . S
H89 C77 0.929 . S
H90 C79 0.929 . S
O91 Co66 2.351 . S
O91 C94 1.244 . S
O92 Co66 2.155 . S
O92 C94 1.240 . S
O93 Co66 2.096 . S
O93 C74 1.247 . S
C94 O91 1.244 . S
C94 O92 1.240 . S
H95 C69 0.931 . S
H96 C78 0.931 . S
H97 C82 0.929 . S
H98 C84 0.930 . S
Co99 N103 2.148 1_554 S
Co99 N109 2.128 . S
Co99 N119 2.194 . S
Co99 O124 2.351 . S
Co99 O125 2.155 . S
Co99 O126 2.096 . S
C100 N103 1.301 . S
C100 N104 1.328 . S
C100 H105 0.930 . S
C101 C102 1.333 . S
C101 N103 1.317 . S
C101 H106 0.930 . S
C102 C101 1.333 . S
C102 N104 1.350 . S
C102 H128 0.931 . S
N103 Co99 2.148 1_556 S
N103 C100 1.301 . S
N103 C101 1.317 . S
N104 C100 1.328 . S
N104 C102 1.350 . S
H105 C100 0.930 . S
H106 C101 0.930 . S
C107 O108 1.224 . S
C107 O126 1.247 . S
O108 C107 1.224 . S
N109 Co99 2.128 . S
N109 C110 1.355 . S
N109 C112 1.311 . S
C110 N109 1.355 . S
C110 C111 1.363 . S
C110 H122 0.929 . S
C111 C110 1.363 . S
C111 N113 1.375 . S
C111 H129 0.931 . S
C112 N109 1.311 . S
C112 N113 1.347 . S
C112 H123 0.929 . S
N113 C111 1.375 . S
N113 C112 1.347 . S
C114 C117 1.365 . S
C114 N119 1.328 . S
C114 H120 0.929 . S
C115 C116 1.362 . S
C115 C118 1.378 . S
C115 H130 0.929 . S
C116 C115 1.362 . S
C116 C117 1.366 . S
C117 C114 1.365 . S
C117 C116 1.366 . S
C117 H131 0.930 . S
C118 C115 1.378 . S
C118 N119 1.315 . S
C118 H121 0.930 . S
N119 Co99 2.194 . S
N119 C114 1.328 . S
N119 C118 1.315 . S
H120 C114 0.929 . S
H121 C118 0.930 . S
H122 C110 0.929 . S
H123 C112 0.929 . S
O124 Co99 2.351 . S
O124 C127 1.244 . S
O125 Co99 2.155 . S
O125 C127 1.240 . S
O126 Co99 2.096 . S
O126 C107 1.247 . S
C127 O124 1.244 . S
C127 O125 1.240 . S
H128 C102 0.931 . S
H129 C111 0.931 . S
H130 C115 0.929 . S
H131 C117 0.930 . S
Co132 N136 2.148 1_556 S
Co132 N142 2.128 . S
Co132 N152 2.194 . S
Co132 O157 2.351 . S
Co132 O158 2.155 . S
Co132 O159 2.096 . S
C133 N136 1.301 . S
C133 N137 1.328 . S
C133 H138 0.930 . S
C134 C135 1.333 . S
C134 N136 1.317 . S
C134 H139 0.930 . S
C135 C134 1.333 . S
C135 N137 1.350 . S
C135 H161 0.931 . S
N136 Co132 2.148 1_554 S
N136 C133 1.301 . S
N136 C134 1.317 . S
N137 C133 1.328 . S
N137 C135 1.350 . S
H138 C133 0.930 . S
H139 C134 0.930 . S
C140 O141 1.224 . S
C140 O159 1.247 . S
O141 C140 1.224 . S
N142 Co132 2.128 . S
N142 C143 1.355 . S
N142 C145 1.311 . S
C143 N142 1.355 . S
C143 C144 1.363 . S
C143 H155 0.929 . S
C144 C143 1.363 . S
C144 N146 1.375 . S
C144 H162 0.931 . S
C145 N142 1.311 . S
C145 N146 1.347 . S
C145 H156 0.929 . S
N146 C144 1.375 . S
N146 C145 1.347 . S
C147 C150 1.365 . S
C147 N152 1.328 . S
C147 H153 0.929 . S
C148 C149 1.362 . S
C148 C151 1.378 . S
C148 H163 0.929 . S
C149 C148 1.362 . S
C149 C150 1.366 . S
C150 C147 1.365 . S
C150 C149 1.366 . S
C150 H164 0.930 . S
C151 C148 1.378 . S
C151 N152 1.315 . S
C151 H154 0.930 . S
N152 Co132 2.194 . S
N152 C147 1.328 . S
N152 C151 1.315 . S
H153 C147 0.929 . S
H154 C151 0.930 . S
H155 C143 0.929 . S
H156 C145 0.929 . S
O157 Co132 2.351 . S
O157 C160 1.244 . S
O158 Co132 2.155 . S
O158 C160 1.240 . S
O159 Co132 2.096 . S
O159 C140 1.247 . S
C160 O157 1.244 . S
C160 O158 1.240 . S
H161 C135 0.931 . S
H162 C144 0.931 . S
H163 C148 0.929 . S
H164 C150 0.930 . S
Co165 N169 2.148 1_556 S
Co165 N175 2.128 . S
Co165 N185 2.194 . S
Co165 O190 2.351 . S
Co165 O191 2.155 . S
Co165 O192 2.096 . S
C166 N169 1.301 . S
C166 N170 1.328 . S
C166 H171 0.930 . S
C167 C168 1.333 . S
C167 N169 1.317 . S
C167 H172 0.930 . S
C168 C167 1.333 . S
C168 N170 1.350 . S
C168 H194 0.931 . S
N169 Co165 2.148 1_554 S
N169 C166 1.301 . S
N169 C167 1.317 . S
N170 C166 1.328 . S
N170 C168 1.350 . S
H171 C166 0.930 . S
H172 C167 0.930 . S
C173 O174 1.224 . S
C173 O192 1.247 . S
O174 C173 1.224 . S
N175 Co165 2.128 . S
N175 C176 1.355 . S
N175 C178 1.311 . S
C176 N175 1.355 . S
C176 C177 1.363 . S
C176 H188 0.929 . S
C177 C176 1.363 . S
C177 N179 1.375 . S
C177 H195 0.931 . S
C178 N175 1.311 . S
C178 N179 1.347 . S
C178 H189 0.929 . S
N179 C177 1.375 . S
N179 C178 1.347 . S
C180 C183 1.365 . S
C180 N185 1.328 . S
C180 H186 0.929 . S
C181 C182 1.362 . S
C181 C184 1.378 . S
C181 H196 0.929 . S
C182 C181 1.362 . S
C182 C183 1.366 . S
C183 C180 1.365 . S
C183 C182 1.366 . S
C183 H197 0.930 . S
C184 C181 1.378 . S
C184 N185 1.315 . S
C184 H187 0.930 . S
N185 Co165 2.194 . S
N185 C180 1.328 . S
N185 C184 1.315 . S
H186 C180 0.929 . S
H187 C184 0.930 . S
H188 C176 0.929 . S
H189 C178 0.929 . S
O190 Co165 2.351 . S
O190 C193 1.244 . S
O191 Co165 2.155 . S
O191 C193 1.240 . S
O192 Co165 2.096 . S
O192 C173 1.247 . S
C193 O190 1.244 . S
C193 O191 1.240 . S
H194 C168 0.931 . S
H195 C177 0.931 . S
H196 C181 0.929 . S
H197 C183 0.930 . S
Co198 N202 2.148 1_556 S
Co198 N208 2.128 . S
Co198 N218 2.194 . S
Co198 O223 2.351 . S
Co198 O224 2.155 . S
Co198 O225 2.096 . S
C199 N202 1.301 . S
C199 N203 1.328 . S
C199 H204 0.930 . S
C200 C201 1.333 . S
C200 N202 1.317 . S
C200 H205 0.930 . S
C201 C200 1.333 . S
C201 N203 1.350 . S
C201 H227 0.931 . S
N202 Co198 2.148 1_554 S
N202 C199 1.301 . S
N202 C200 1.317 . S
N203 C199 1.328 . S
N203 C201 1.350 . S
H204 C199 0.930 . S
H205 C200 0.930 . S
C206 O207 1.224 . S
C206 O225 1.247 . S
O207 C206 1.224 . S
N208 Co198 2.128 . S
N208 C209 1.355 . S
N208 C211 1.311 . S
C209 N208 1.355 . S
C209 C210 1.363 . S
C209 H221 0.929 . S
C210 C209 1.363 . S
C210 N212 1.375 . S
C210 H228 0.931 . S
C211 N208 1.311 . S
C211 N212 1.347 . S
C211 H222 0.929 . S
N212 C210 1.375 . S
N212 C211 1.347 . S
C213 C216 1.365 . S
C213 N218 1.328 . S
C213 H219 0.929 . S
C214 C215 1.362 . S
C214 C217 1.378 . S
C214 H229 0.929 . S
C215 C214 1.362 . S
C215 C216 1.366 . S
C216 C213 1.365 . S
C216 C215 1.366 . S
C216 H230 0.930 . S
C217 C214 1.378 . S
C217 N218 1.315 . S
C217 H220 0.930 . S
N218 Co198 2.194 . S
N218 C213 1.328 . S
N218 C217 1.315 . S
H219 C213 0.929 . S
H220 C217 0.930 . S
H221 C209 0.929 . S
H222 C211 0.929 . S
O223 Co198 2.351 . S
O223 C226 1.244 . S
O224 Co198 2.155 . S
O224 C226 1.240 . S
O225 Co198 2.096 . S
O225 C206 1.247 . S
C226 O223 1.244 . S
C226 O224 1.240 . S
H227 C201 0.931 . S
H228 C210 0.931 . S
H229 C214 0.929 . S
H230 C216 0.930 . S
Co231 N235 2.148 1_556 S
Co231 N241 2.128 . S
Co231 N251 2.194 . S
Co231 O256 2.351 . S
Co231 O257 2.155 . S
Co231 O258 2.096 . S
C232 N235 1.301 . S
C232 N236 1.328 . S
C232 H237 0.930 . S
C233 C234 1.333 . S
C233 N235 1.317 . S
C233 H238 0.930 . S
C234 C233 1.333 . S
C234 N236 1.350 . S
C234 H260 0.931 . S
N235 Co231 2.148 1_554 S
N235 C232 1.301 . S
N235 C233 1.317 . S
N236 C232 1.328 . S
N236 C234 1.350 . S
H237 C232 0.930 . S
H238 C233 0.930 . S
C239 O240 1.224 . S
C239 O258 1.247 . S
O240 C239 1.224 . S
N241 Co231 2.128 . S
N241 C242 1.355 . S
N241 C244 1.311 . S
C242 N241 1.355 . S
C242 C243 1.363 . S
C242 H254 0.929 . S
C243 C242 1.363 . S
C243 N245 1.375 . S
C243 H261 0.931 . S
C244 N241 1.311 . S
C244 N245 1.347 . S
C244 H255 0.929 . S
N245 C243 1.375 . S
N245 C244 1.347 . S
C246 C249 1.365 . S
C246 N251 1.328 . S
C246 H252 0.929 . S
C247 C248 1.362 . S
C247 C250 1.378 . S
C247 H262 0.929 . S
C248 C247 1.362 . S
C248 C249 1.366 . S
C249 C246 1.365 . S
C249 C248 1.366 . S
C249 H263 0.930 . S
C250 C247 1.378 . S
C250 N251 1.315 . S
C250 H253 0.930 . S
N251 Co231 2.194 . S
N251 C246 1.328 . S
N251 C250 1.315 . S
H252 C246 0.929 . S
H253 C250 0.930 . S
H254 C242 0.929 . S
H255 C244 0.929 . S
O256 Co231 2.351 . S
O256 C259 1.244 . S
O257 Co231 2.155 . S
O257 C259 1.240 . S
O258 Co231 2.096 . S
O258 C239 1.247 . S
C259 O256 1.244 . S
C259 O257 1.240 . S
H260 C234 0.931 . S
H261 C243 0.931 . S
H262 C247 0.929 . S
H263 C249 0.930 . S
Co264 N268 2.148 . S
Co264 N274 2.128 . S
Co264 N284 2.194 . S
Co264 O289 2.351 . S
Co264 O290 2.155 . S
Co264 O291 2.096 . S
C265 N268 1.301 . S
C265 N269 1.328 . S
C265 H270 0.930 . S
C266 C267 1.333 . S
C266 N268 1.317 . S
C266 H271 0.930 . S
C267 C266 1.333 . S
C267 N269 1.350 . S
C267 H293 0.931 . S
N268 Co264 2.148 . S
N268 C265 1.301 . S
N268 C266 1.317 . S
N269 C265 1.328 . S
N269 C267 1.350 . S
H270 C265 0.930 . S
H271 C266 0.930 . S
C272 O273 1.224 . S
C272 O291 1.247 . S
O273 C272 1.224 . S
N274 Co264 2.128 . S
N274 C275 1.355 . S
N274 C277 1.311 . S
C275 N274 1.355 . S
C275 C276 1.363 . S
C275 H287 0.929 . S
C276 C275 1.363 . S
C276 N278 1.375 . S
C276 H294 0.931 . S
C277 N274 1.311 . S
C277 N278 1.347 . S
C277 H288 0.929 . S
N278 C276 1.375 . S
N278 C277 1.347 . S
C279 C282 1.365 . S
C279 N284 1.328 . S
C279 H285 0.929 . S
C280 C281 1.362 . S
C280 C283 1.378 . S
C280 H295 0.929 . S
C281 C280 1.362 . S
C281 C282 1.366 . S
C282 C279 1.365 . S
C282 C281 1.366 . S
C282 H296 0.930 . S
C283 C280 1.378 . S
C283 N284 1.315 . S
C283 H286 0.930 . S
N284 Co264 2.194 . S
N284 C279 1.328 . S
N284 C283 1.315 . S
H285 C279 0.929 . S
H286 C283 0.930 . S
H287 C275 0.929 . S
H288 C277 0.929 . S
O289 Co264 2.351 . S
O289 C292 1.244 . S
O290 Co264 2.155 . S
O290 C292 1.240 . S
O291 Co264 2.096 . S
O291 C272 1.247 . S
C292 O289 1.244 . S
C292 O290 1.240 . S
H293 C267 0.931 . S
H294 C276 0.931 . S
H295 C280 0.929 . S
H296 C282 0.930 . S
Co297 N301 2.148 . S
Co297 N307 2.128 . S
Co297 N317 2.194 . S
Co297 O322 2.351 . S
Co297 O323 2.155 . S
Co297 O324 2.096 . S
C298 N301 1.301 . S
C298 N302 1.328 . S
C298 H303 0.930 . S
C299 C300 1.333 . S
C299 N301 1.317 . S
C299 H304 0.930 . S
C300 C299 1.333 . S
C300 N302 1.350 . S
C300 H326 0.931 . S
N301 Co297 2.148 . S
N301 C298 1.301 . S
N301 C299 1.317 . S
N302 C298 1.328 . S
N302 C300 1.350 . S
H303 C298 0.930 . S
H304 C299 0.930 . S
C305 O306 1.224 . S
C305 O324 1.247 . S
O306 C305 1.224 . S
N307 Co297 2.128 . S
N307 C308 1.355 . S
N307 C310 1.311 . S
C308 N307 1.355 . S
C308 C309 1.363 . S
C308 H320 0.929 . S
C309 C308 1.363 . S
C309 N311 1.375 . S
C309 H327 0.931 . S
C310 N307 1.311 . S
C310 N311 1.347 . S
C310 H321 0.929 . S
N311 C309 1.375 . S
N311 C310 1.347 . S
C312 C315 1.365 . S
C312 N317 1.328 . S
C312 H318 0.929 . S
C313 C314 1.362 . S
C313 C316 1.378 . S
C313 H328 0.929 . S
C314 C313 1.362 . S
C314 C315 1.366 . S
C315 C312 1.365 . S
C315 C314 1.366 . S
C315 H329 0.930 . S
C316 C313 1.378 . S
C316 N317 1.315 . S
C316 H319 0.930 . S
N317 Co297 2.194 . S
N317 C312 1.328 . S
N317 C316 1.315 . S
H318 C312 0.929 . S
H319 C316 0.930 . S
H320 C308 0.929 . S
H321 C310 0.929 . S
O322 Co297 2.351 . S
O322 C325 1.244 . S
O323 Co297 2.155 . S
O323 C325 1.240 . S
O324 Co297 2.096 . S
O324 C305 1.247 . S
C325 O322 1.244 . S
C325 O323 1.240 . S
H326 C300 0.931 . S
H327 C309 0.931 . S
H328 C313 0.929 . S
H329 C315 0.930 . S
Co330 N334 2.148 . S
Co330 N340 2.128 . S
Co330 N350 2.194 . S
Co330 O355 2.351 . S
Co330 O356 2.155 . S
Co330 O357 2.096 . S
C331 N334 1.301 . S
C331 N335 1.328 . S
C331 H336 0.930 . S
C332 C333 1.333 . S
C332 N334 1.317 . S
C332 H337 0.930 . S
C333 C332 1.333 . S
C333 N335 1.350 . S
C333 H359 0.931 . S
N334 Co330 2.148 . S
N334 C331 1.301 . S
N334 C332 1.317 . S
N335 C331 1.328 . S
N335 C333 1.350 . S
H336 C331 0.930 . S
H337 C332 0.930 . S
C338 O339 1.224 . S
C338 O357 1.247 . S
O339 C338 1.224 . S
N340 Co330 2.128 . S
N340 C341 1.355 . S
N340 C343 1.311 . S
C341 N340 1.355 . S
C341 C342 1.363 . S
C341 H353 0.929 . S
C342 C341 1.363 . S
C342 N344 1.375 . S
C342 H360 0.931 . S
C343 N340 1.311 . S
C343 N344 1.347 . S
C343 H354 0.929 . S
N344 C342 1.375 . S
N344 C343 1.347 . S
C345 C348 1.365 . S
C345 N350 1.328 . S
C345 H351 0.929 . S
C346 C347 1.362 . S
C346 C349 1.378 . S
C346 H361 0.929 . S
C347 C346 1.362 . S
C347 C348 1.366 . S
C348 C345 1.365 . S
C348 C347 1.366 . S
C348 H362 0.930 . S
C349 C346 1.378 . S
C349 N350 1.315 . S
C349 H352 0.930 . S
N350 Co330 2.194 . S
N350 C345 1.328 . S
N350 C349 1.315 . S
H351 C345 0.929 . S
H352 C349 0.930 . S
H353 C341 0.929 . S
H354 C343 0.929 . S
O355 Co330 2.351 . S
O355 C358 1.244 . S
O356 Co330 2.155 . S
O356 C358 1.240 . S
O357 Co330 2.096 . S
O357 C338 1.247 . S
C358 O355 1.244 . S
C358 O356 1.240 . S
H359 C333 0.931 . S
H360 C342 0.931 . S
H361 C346 0.929 . S
H362 C348 0.930 . S
Co363 N367 2.148 . S
Co363 N373 2.128 . S
Co363 N383 2.194 . S
Co363 O388 2.351 . S
Co363 O389 2.155 . S
Co363 O390 2.096 . S
C364 N367 1.301 . S
C364 N368 1.328 . S
C364 H369 0.930 . S
C365 C366 1.333 . S
C365 N367 1.317 . S
C365 H370 0.930 . S
C366 C365 1.333 . S
C366 N368 1.350 . S
C366 H392 0.931 . S
N367 Co363 2.148 . S
N367 C364 1.301 . S
N367 C365 1.317 . S
N368 C364 1.328 . S
N368 C366 1.350 . S
H369 C364 0.930 . S
H370 C365 0.930 . S
C371 O372 1.224 . S
C371 O390 1.247 . S
O372 C371 1.224 . S
N373 Co363 2.128 . S
N373 C374 1.355 . S
N373 C376 1.311 . S
C374 N373 1.355 . S
C374 C375 1.363 . S
C374 H386 0.929 . S
C375 C374 1.363 . S
C375 N377 1.375 . S
C375 H393 0.931 . S
C376 N373 1.311 . S
C376 N377 1.347 . S
C376 H387 0.929 . S
N377 C375 1.375 . S
N377 C376 1.347 . S
C378 C381 1.365 . S
C378 N383 1.328 . S
C378 H384 0.929 . S
C379 C380 1.362 . S
C379 C382 1.378 . S
C379 H394 0.929 . S
C380 C379 1.362 . S
C380 C381 1.366 . S
C381 C378 1.365 . S
C381 C380 1.366 . S
C381 H395 0.930 . S
C382 C379 1.378 . S
C382 N383 1.315 . S
C382 H385 0.930 . S
N383 Co363 2.194 . S
N383 C378 1.328 . S
N383 C382 1.315 . S
H384 C378 0.929 . S
H385 C382 0.930 . S
H386 C374 0.929 . S
H387 C376 0.929 . S
O388 Co363 2.351 . S
O388 C391 1.244 . S
O389 Co363 2.155 . S
O389 C391 1.240 . S
O390 Co363 2.096 . S
O390 C371 1.247 . S
C391 O388 1.244 . S
C391 O389 1.240 . S
H392 C366 0.931 . S
H393 C375 0.931 . S
H394 C379 0.929 . S
H395 C381 0.930 . S
Co396 N400 2.148 . S
Co396 N406 2.128 . S
Co396 N416 2.194 . S
Co396 O421 2.351 . S
Co396 O422 2.155 . S
Co396 O423 2.096 . S
C397 N400 1.301 . S
C397 N401 1.328 . S
C397 H402 0.930 . S
C398 C399 1.333 . S
C398 N400 1.317 . S
C398 H403 0.930 . S
C399 C398 1.333 . S
C399 N401 1.350 . S
C399 H425 0.931 . S
N400 Co396 2.148 . S
N400 C397 1.301 . S
N400 C398 1.317 . S
N401 C397 1.328 . S
N401 C399 1.350 . S
H402 C397 0.930 . S
H403 C398 0.930 . S
C404 O405 1.224 . S
C404 O423 1.247 . S
O405 C404 1.224 . S
N406 Co396 2.128 . S
N406 C407 1.355 . S
N406 C409 1.311 . S
C407 N406 1.355 . S
C407 C408 1.363 . S
C407 H419 0.929 . S
C408 C407 1.363 . S
C408 N410 1.375 . S
C408 H426 0.931 . S
C409 N406 1.311 . S
C409 N410 1.347 . S
C409 H420 0.929 . S
N410 C408 1.375 . S
N410 C409 1.347 . S
C411 C414 1.365 . S
C411 N416 1.328 . S
C411 H417 0.929 . S
C412 C413 1.362 . S
C412 C415 1.378 . S
C412 H427 0.929 . S
C413 C412 1.362 . S
C413 C414 1.366 . S
C414 C411 1.365 . S
C414 C413 1.366 . S
C414 H428 0.930 . S
C415 C412 1.378 . S
C415 N416 1.315 . S
C415 H418 0.930 . S
N416 Co396 2.194 . S
N416 C411 1.328 . S
N416 C415 1.315 . S
H417 C411 0.929 . S
H418 C415 0.930 . S
H419 C407 0.929 . S
H420 C409 0.929 . S
O421 Co396 2.351 . S
O421 C424 1.244 . S
O422 Co396 2.155 . S
O422 C424 1.240 . S
O423 Co396 2.096 . S
O423 C404 1.247 . S
C424 O421 1.244 . S
C424 O422 1.240 . S
H425 C399 0.931 . S
H426 C408 0.931 . S
H427 C412 0.929 . S
H428 C414 0.930 . S
Co429 N433 2.148 . S
Co429 N439 2.128 . S
Co429 N449 2.194 . S
Co429 O454 2.351 . S
Co429 O455 2.155 . S
Co429 O456 2.096 . S
C430 N433 1.301 . S
C430 N434 1.328 . S
C430 H435 0.930 . S
C431 C432 1.333 . S
C431 N433 1.317 . S
C431 H436 0.930 . S
C432 C431 1.333 . S
C432 N434 1.350 . S
C432 H458 0.931 . S
N433 Co429 2.148 . S
N433 C430 1.301 . S
N433 C431 1.317 . S
N434 C430 1.328 . S
N434 C432 1.350 . S
H435 C430 0.930 . S
H436 C431 0.930 . S
C437 O438 1.224 . S
C437 O456 1.247 . S
O438 C437 1.224 . S
N439 Co429 2.128 . S
N439 C440 1.355 . S
N439 C442 1.311 . S
C440 N439 1.355 . S
C440 C441 1.363 . S
C440 H452 0.929 . S
C441 C440 1.363 . S
C441 N443 1.375 . S
C441 H459 0.931 . S
C442 N439 1.311 . S
C442 N443 1.347 . S
C442 H453 0.929 . S
N443 C441 1.375 . S
N443 C442 1.347 . S
C444 C447 1.365 . S
C444 N449 1.328 . S
C444 H450 0.929 . S
C445 C446 1.362 . S
C445 C448 1.378 . S
C445 H460 0.929 . S
C446 C445 1.362 . S
C446 C447 1.366 . S
C447 C444 1.365 . S
C447 C446 1.366 . S
C447 H461 0.930 . S
C448 C445 1.378 . S
C448 N449 1.315 . S
C448 H451 0.930 . S
N449 Co429 2.194 . S
N449 C444 1.328 . S
N449 C448 1.315 . S
H450 C444 0.929 . S
H451 C448 0.930 . S
H452 C440 0.929 . S
H453 C442 0.929 . S
O454 Co429 2.351 . S
O454 C457 1.244 . S
O455 Co429 2.155 . S
O455 C457 1.240 . S
O456 Co429 2.096 . S
O456 C437 1.247 . S
C457 O454 1.244 . S
C457 O455 1.240 . S
H458 C432 0.931 . S
H459 C441 0.931 . S
H460 C445 0.929 . S
H461 C447 0.930 . S
Co462 N466 2.148 . S
Co462 N472 2.128 . S
Co462 N482 2.194 . S
Co462 O487 2.351 . S
Co462 O488 2.155 . S
Co462 O489 2.096 . S
C463 N466 1.301 . S
C463 N467 1.328 . S
C463 H468 0.930 . S
C464 C465 1.333 . S
C464 N466 1.317 . S
C464 H469 0.930 . S
C465 C464 1.333 . S
C465 N467 1.350 . S
C465 H491 0.931 . S
N466 Co462 2.148 . S
N466 C463 1.301 . S
N466 C464 1.317 . S
N467 C463 1.328 . S
N467 C465 1.350 . S
H468 C463 0.930 . S
H469 C464 0.930 . S
C470 O471 1.224 . S
C470 O489 1.247 . S
O471 C470 1.224 . S
N472 Co462 2.128 . S
N472 C473 1.355 . S
N472 C475 1.311 . S
C473 N472 1.355 . S
C473 C474 1.363 . S
C473 H485 0.929 . S
C474 C473 1.363 . S
C474 N476 1.375 . S
C474 H492 0.931 . S
C475 N472 1.311 . S
C475 N476 1.347 . S
C475 H486 0.929 . S
N476 C474 1.375 . S
N476 C475 1.347 . S
C477 C480 1.365 . S
C477 N482 1.328 . S
C477 H483 0.929 . S
C478 C479 1.362 . S
C478 C481 1.378 . S
C478 H493 0.929 . S
C479 C478 1.362 . S
C479 C480 1.366 . S
C480 C477 1.365 . S
C480 C479 1.366 . S
C480 H494 0.930 . S
C481 C478 1.378 . S
C481 N482 1.315 . S
C481 H484 0.930 . S
N482 Co462 2.194 . S
N482 C477 1.328 . S
N482 C481 1.315 . S
H483 C477 0.929 . S
H484 C481 0.930 . S
H485 C473 0.929 . S
H486 C475 0.929 . S
O487 Co462 2.351 . S
O487 C490 1.244 . S
O488 Co462 2.155 . S
O488 C490 1.240 . S
O489 Co462 2.096 . S
O489 C470 1.247 . S
C490 O487 1.244 . S
C490 O488 1.240 . S
H491 C465 0.931 . S
H492 C474 0.931 . S
H493 C478 0.929 . S
H494 C480 0.930 . S
Co495 N499 2.148 . S
Co495 N505 2.128 . S
Co495 N515 2.194 . S
Co495 O520 2.351 . S
Co495 O521 2.155 . S
Co495 O522 2.096 . S
C496 N499 1.301 . S
C496 N500 1.328 . S
C496 H501 0.930 . S
C497 C498 1.333 . S
C497 N499 1.317 . S
C497 H502 0.930 . S
C498 C497 1.333 . S
C498 N500 1.350 . S
C498 H524 0.931 . S
N499 Co495 2.148 . S
N499 C496 1.301 . S
N499 C497 1.317 . S
N500 C496 1.328 . S
N500 C498 1.350 . S
H501 C496 0.930 . S
H502 C497 0.930 . S
C503 O504 1.224 . S
C503 O522 1.247 . S
O504 C503 1.224 . S
N505 Co495 2.128 . S
N505 C506 1.355 . S
N505 C508 1.311 . S
C506 N505 1.355 . S
C506 C507 1.363 . S
C506 H518 0.929 . S
C507 C506 1.363 . S
C507 N509 1.375 . S
C507 H525 0.931 . S
C508 N505 1.311 . S
C508 N509 1.347 . S
C508 H519 0.929 . S
N509 C507 1.375 . S
N509 C508 1.347 . S
C510 C513 1.365 . S
C510 N515 1.328 . S
C510 H516 0.929 . S
C511 C512 1.362 . S
C511 C514 1.378 . S
C511 H526 0.929 . S
C512 C511 1.362 . S
C512 C513 1.366 . S
C513 C510 1.365 . S
C513 C512 1.366 . S
C513 H527 0.930 . S
C514 C511 1.378 . S
C514 N515 1.315 . S
C514 H517 0.930 . S
N515 Co495 2.194 . S
N515 C510 1.328 . S
N515 C514 1.315 . S
H516 C510 0.929 . S
H517 C514 0.930 . S
H518 C506 0.929 . S
H519 C508 0.929 . S
O520 Co495 2.351 . S
O520 C523 1.244 . S
O521 Co495 2.155 . S
O521 C523 1.240 . S
O522 Co495 2.096 . S
O522 C503 1.247 . S
C523 O520 1.244 . S
C523 O521 1.240 . S
H524 C498 0.931 . S
H525 C507 0.931 . S
H526 C511 0.929 . S
H527 C513 0.930 . S
H528 C534 0.930 . S
H529 C537 0.930 . S
H530 C538 0.930 . S
H531 C539 0.930 . S
H532 C542 0.930 . S
H533 C543 0.930 . S
C534 H528 0.930 . S
C534 C535 1.355 . S
C534 C536 1.415 . S
C535 C534 1.355 . S
C535 C537 1.419 . S
C536 C534 1.415 . S
C536 C541 1.425 . S
C536 C543 1.409 . S
C537 H529 0.930 . S
C537 C535 1.419 . S
C537 C538 1.362 . S
C538 H530 0.930 . S
C538 C537 1.362 . S
C538 C541 1.409 . S
C539 H531 0.930 . S
C539 C540 1.355 . S
C539 C541 1.415 . S
C540 C539 1.355 . S
C540 C542 1.419 . S
C541 C536 1.425 . S
C541 C538 1.409 . S
C541 C539 1.415 . S
C542 H532 0.930 . S
C542 C540 1.419 . S
C542 C543 1.362 . S
C543 H533 0.930 . S
C543 C536 1.409 . S
C543 C542 1.362 . S
H544 C550 0.930 . S
H545 C553 0.930 . S
H546 C554 0.930 . S
H547 C555 0.930 . S
H548 C558 0.930 . S
H549 C559 0.930 . S
C550 H544 0.930 . S
C550 C551 1.355 . S
C550 C552 1.415 . S
C551 C550 1.355 . S
C551 C553 1.419 . S
C552 C550 1.415 . S
C552 C557 1.425 . S
C552 C559 1.409 . S
C553 H545 0.930 . S
C553 C551 1.419 . S
C553 C554 1.362 . S
C554 H546 0.930 . S
C554 C553 1.362 . S
C554 C557 1.409 . S
C555 H547 0.930 . S
C555 C556 1.355 . S
C555 C557 1.415 . S
C556 C555 1.355 . S
C556 C558 1.419 . S
C557 C552 1.425 . S
C557 C554 1.409 . S
C557 C555 1.415 . S
C558 H548 0.930 . S
C558 C556 1.419 . S
C558 C559 1.362 . S
C559 H549 0.930 . S
C559 C552 1.409 . S
C559 C558 1.362 . S
H560 C566 0.930 . S
H561 C569 0.930 . S
H562 C570 0.930 . S
H563 C571 0.930 . S
H564 C574 0.930 . S
H565 C575 0.930 . S
C566 H560 0.930 . S
C566 C567 1.355 . S
C566 C568 1.415 . S
C567 C566 1.355 . S
C567 C569 1.419 . S
C568 C566 1.415 . S
C568 C573 1.425 . S
C568 C575 1.409 . S
C569 H561 0.930 . S
C569 C567 1.419 . S
C569 C570 1.362 . S
C570 H562 0.930 . S
C570 C569 1.362 . S
C570 C573 1.409 . S
C571 H563 0.930 . S
C571 C572 1.355 . S
C571 C573 1.415 . S
C572 C571 1.355 . S
C572 C574 1.419 . S
C573 C568 1.425 . S
C573 C570 1.409 . S
C573 C571 1.415 . S
C574 H564 0.930 . S
C574 C572 1.419 . S
C574 C575 1.362 . S
C575 H565 0.930 . S
C575 C568 1.409 . S
C575 C574 1.362 . S
H576 C582 0.930 . S
H577 C585 0.930 . S
H578 C586 0.930 . S
H579 C587 0.930 . S
H580 C590 0.930 . S
H581 C591 0.930 . S
C582 H576 0.930 . S
C582 C583 1.355 . S
C582 C584 1.415 . S
C583 C582 1.355 . S
C583 C585 1.419 . S
C584 C582 1.415 . S
C584 C589 1.425 . S
C584 C591 1.409 . S
C585 H577 0.930 . S
C585 C583 1.419 . S
C585 C586 1.362 . S
C586 H578 0.930 . S
C586 C585 1.362 . S
C586 C589 1.409 . S
C587 H579 0.930 . S
C587 C588 1.355 . S
C587 C589 1.415 . S
C588 C587 1.355 . S
C588 C590 1.419 . S
C589 C584 1.425 . S
C589 C586 1.409 . S
C589 C587 1.415 . S
C590 H580 0.930 . S
C590 C588 1.419 . S
C590 C591 1.362 . S
C591 H581 0.930 . S
C591 C584 1.409 . S
C591 C590 1.362 . S
H592 C598 0.930 . S
H593 C601 0.930 . S
H594 C602 0.930 . S
H595 C603 0.930 . S
H596 C606 0.930 . S
H597 C607 0.930 . S
C598 H592 0.930 . S
C598 C599 1.355 . S
C598 C600 1.415 . S
C599 C598 1.355 . S
C599 C601 1.419 . S
C600 C598 1.415 . S
C600 C605 1.425 . S
C600 C607 1.409 . S
C601 H593 0.930 . S
C601 C599 1.419 . S
C601 C602 1.362 . S
C602 H594 0.930 . S
C602 C601 1.362 . S
C602 C605 1.409 . S
C603 H595 0.930 . S
C603 C604 1.355 . S
C603 C605 1.415 . S
C604 C603 1.355 . S
C604 C606 1.419 . S
C605 C600 1.425 . S
C605 C602 1.409 . S
C605 C603 1.415 . S
C606 H596 0.930 . S
C606 C604 1.419 . S
C606 C607 1.362 . S
C607 H597 0.930 . S
C607 C600 1.409 . S
C607 C606 1.362 . S
H608 C614 0.930 . S
H609 C617 0.930 . S
H610 C618 0.930 . S
H611 C619 0.930 . S
H612 C622 0.930 . S
H613 C623 0.930 . S
C614 H608 0.930 . S
C614 C615 1.355 . S
C614 C616 1.415 . S
C615 C614 1.355 . S
C615 C617 1.419 . S
C616 C614 1.415 . S
C616 C621 1.425 . S
C616 C623 1.409 . S
C617 H609 0.930 . S
C617 C615 1.419 . S
C617 C618 1.362 . S
C618 H610 0.930 . S
C618 C617 1.362 . S
C618 C621 1.409 . S
C619 H611 0.930 . S
C619 C620 1.355 . S
C619 C621 1.415 . S
C620 C619 1.355 . S
C620 C622 1.419 . S
C621 C616 1.425 . S
C621 C618 1.409 . S
C621 C619 1.415 . S
C622 H612 0.930 . S
C622 C620 1.419 . S
C622 C623 1.362 . S
C623 H613 0.930 . S
C623 C616 1.409 . S
C623 C622 1.362 . S
H624 C630 0.930 . S
H625 C633 0.930 . S
H626 C634 0.930 . S
H627 C635 0.930 . S
H628 C638 0.930 . S
H629 C639 0.930 . S
C630 H624 0.930 . S
C630 C631 1.355 . S
C630 C632 1.415 . S
C631 C630 1.355 . S
C631 C633 1.419 . S
C632 C630 1.415 . S
C632 C637 1.425 . S
C632 C639 1.409 . S
C633 H625 0.930 . S
C633 C631 1.419 . S
C633 C634 1.362 . S
C634 H626 0.930 . S
C634 C633 1.362 . S
C634 C637 1.409 . S
C635 H627 0.930 . S
C635 C636 1.355 . S
C635 C637 1.415 . S
C636 C635 1.355 . S
C636 C638 1.419 . S
C637 C632 1.425 . S
C637 C634 1.409 . S
C637 C635 1.415 . S
C638 H628 0.930 . S
C638 C636 1.419 . S
C638 C639 1.362 . S
C639 H629 0.930 . S
C639 C632 1.409 . S
C639 C638 1.362 . S
H640 C646 0.930 . S
H641 C649 0.930 . S
H642 C650 0.930 . S
H643 C651 0.930 . S
H644 C654 0.930 . S
H645 C655 0.930 . S
C646 H640 0.930 . S
C646 C647 1.355 . S
C646 C648 1.415 . S
C647 C646 1.355 . S
C647 C649 1.419 . S
C648 C646 1.415 . S
C648 C653 1.425 . S
C648 C655 1.409 . S
C649 H641 0.930 . S
C649 C647 1.419 . S
C649 C650 1.362 . S
C650 H642 0.930 . S
C650 C649 1.362 . S
C650 C653 1.409 . S
C651 H643 0.930 . S
C651 C652 1.355 . S
C651 C653 1.415 . S
C652 C651 1.355 . S
C652 C654 1.419 . S
C653 C648 1.425 . S
C653 C650 1.409 . S
C653 C651 1.415 . S
C654 H644 0.930 . S
C654 C652 1.419 . S
C654 C655 1.362 . S
C655 H645 0.930 . S
C655 C648 1.409 . S
C655 C654 1.362 . S
H656 C662 0.930 . S
H657 C665 0.930 . S
H658 C666 0.930 . S
H659 C667 0.930 . S
H660 C670 0.930 . S
H661 C671 0.930 . S
C662 H656 0.930 . S
C662 C663 1.355 . S
C662 C664 1.415 . S
C663 C662 1.355 . S
C663 C665 1.419 . S
C664 C662 1.415 . S
C664 C669 1.425 . S
C664 C671 1.409 . S
C665 H657 0.930 . S
C665 C663 1.419 . S
C665 C666 1.362 . S
C666 H658 0.930 . S
C666 C665 1.362 . S
C666 C669 1.409 . S
C667 H659 0.930 . S
C667 C668 1.355 . S
C667 C669 1.415 1_556 S
C668 C667 1.355 . S
C668 C670 1.419 . S
C669 C664 1.425 . S
C669 C666 1.409 . S
C669 C667 1.415 1_554 S
C670 H660 0.930 . S
C670 C668 1.419 . S
C670 C671 1.362 1_556 S
C671 H661 0.930 . S
C671 C664 1.409 . S
C671 C670 1.362 1_554 S
H672 C678 0.930 . S
H673 C681 0.930 . S
H674 C682 0.930 . S
H675 C683 0.930 . S
H676 C686 0.930 . S
H677 C687 0.930 . S
C678 H672 0.930 . S
C678 C679 1.355 . S
C678 C680 1.415 . S
C679 C678 1.355 . S
C679 C681 1.419 . S
C680 C678 1.415 . S
C680 C685 1.425 . S
C680 C687 1.409 . S
C681 H673 0.930 . S
C681 C679 1.419 . S
C681 C682 1.362 . S
C682 H674 0.930 . S
C682 C681 1.362 . S
C682 C685 1.409 . S
C683 H675 0.930 . S
C683 C684 1.355 . S
C683 C685 1.415 1_556 S
C684 C683 1.355 . S
C684 C686 1.419 . S
C685 C680 1.425 . S
C685 C682 1.409 . S
C685 C683 1.415 1_554 S
C686 H676 0.930 . S
C686 C684 1.419 . S
C686 C687 1.362 1_556 S
C687 H677 0.930 . S
C687 C680 1.409 . S
C687 C686 1.362 1_554 S
H688 C694 0.930 . S
H689 C697 0.930 . S
H690 C698 0.930 . S
H691 C699 0.930 . S
H692 C702 0.930 . S
H693 C703 0.930 . S
C694 H688 0.930 . S
C694 C695 1.355 . S
C694 C696 1.415 . S
C695 C694 1.355 . S
C695 C697 1.419 . S
C696 C694 1.415 . S
C696 C701 1.425 . S
C696 C703 1.409 . S
C697 H689 0.930 . S
C697 C695 1.419 . S
C697 C698 1.362 . S
C698 H690 0.930 . S
C698 C697 1.362 . S
C698 C701 1.409 . S
C699 H691 0.930 . S
C699 C700 1.355 . S
C699 C701 1.415 1_556 S
C700 C699 1.355 . S
C700 C702 1.419 . S
C701 C696 1.425 . S
C701 C698 1.409 . S
C701 C699 1.415 1_554 S
C702 H692 0.930 . S
C702 C700 1.419 . S
C702 C703 1.362 1_556 S
C703 H693 0.930 . S
C703 C696 1.409 . S
C703 C702 1.362 1_554 S
H704 C710 0.930 . S
H705 C713 0.930 . S
H706 C714 0.930 . S
H707 C715 0.930 . S
H708 C718 0.930 . S
H709 C719 0.930 . S
C710 H704 0.930 . S
C710 C711 1.355 . S
C710 C712 1.415 . S
C711 C710 1.355 . S
C711 C713 1.419 . S
C712 C710 1.415 . S
C712 C717 1.425 . S
C712 C719 1.409 . S
C713 H705 0.930 . S
C713 C711 1.419 . S
C713 C714 1.362 . S
C714 H706 0.930 . S
C714 C713 1.362 . S
C714 C717 1.409 . S
C715 H707 0.930 . S
C715 C716 1.355 . S
C715 C717 1.415 1_556 S
C716 C715 1.355 . S
C716 C718 1.419 . S
C717 C712 1.425 . S
C717 C714 1.409 . S
C717 C715 1.415 1_554 S
C718 H708 0.930 . S
C718 C716 1.419 . S
C718 C719 1.362 1_556 S
C719 H709 0.930 . S
C719 C712 1.409 . S
C719 C718 1.362 1_554 S
H720 C726 0.930 . S
H721 C729 0.930 . S
H722 C730 0.930 . S
H723 C731 0.930 . S
H724 C734 0.930 . S
H725 C735 0.930 . S
C726 H720 0.930 . S
C726 C727 1.355 . S
C726 C728 1.415 1_554 S
C727 C726 1.355 . S
C727 C729 1.419 . S
C728 C726 1.415 1_556 S
C728 C733 1.425 . S
C728 C735 1.409 . S
C729 H721 0.930 . S
C729 C727 1.419 . S
C729 C730 1.362 1_554 S
C730 H722 0.930 . S
C730 C729 1.362 1_556 S
C730 C733 1.409 . S
C731 H723 0.930 . S
C731 C732 1.355 . S
C731 C733 1.415 . S
C732 C731 1.355 . S
C732 C734 1.419 . S
C733 C728 1.425 . S
C733 C730 1.409 . S
C733 C731 1.415 . S
C734 H724 0.930 . S
C734 C732 1.419 . S
C734 C735 1.362 . S
C735 H725 0.930 . S
C735 C728 1.409 . S
C735 C734 1.362 . S
H736 C742 0.930 . S
H737 C745 0.930 . S
H738 C746 0.930 . S
H739 C747 0.930 . S
H740 C750 0.930 . S
H741 C751 0.930 . S
C742 H736 0.930 . S
C742 C743 1.355 . S
C742 C744 1.415 1_554 S
C743 C742 1.355 . S
C743 C745 1.419 . S
C744 C742 1.415 1_556 S
C744 C749 1.425 . S
C744 C751 1.409 . S
C745 H737 0.930 . S
C745 C743 1.419 . S
C745 C746 1.362 1_554 S
C746 H738 0.930 . S
C746 C745 1.362 1_556 S
C746 C749 1.409 . S
C747 H739 0.930 . S
C747 C748 1.355 . S
C747 C749 1.415 . S
C748 C747 1.355 . S
C748 C750 1.419 . S
C749 C744 1.425 . S
C749 C746 1.409 . S
C749 C747 1.415 . S
C750 H740 0.930 . S
C750 C748 1.419 . S
C750 C751 1.362 . S
C751 H741 0.930 . S
C751 C744 1.409 . S
C751 C750 1.362 . S
H752 C758 0.930 . S
H753 C761 0.930 . S
H754 C762 0.930 . S
H755 C763 0.930 . S
H756 C766 0.930 . S
H757 C767 0.930 . S
C758 H752 0.930 . S
C758 C759 1.355 . S
C758 C760 1.415 1_554 S
C759 C758 1.355 . S
C759 C761 1.419 . S
C760 C758 1.415 1_556 S
C760 C765 1.425 . S
C760 C767 1.409 . S
C761 H753 0.930 . S
C761 C759 1.419 . S
C761 C762 1.362 1_554 S
C762 H754 0.930 . S
C762 C761 1.362 1_556 S
C762 C765 1.409 . S
C763 H755 0.930 . S
C763 C764 1.355 . S
C763 C765 1.415 . S
C764 C763 1.355 . S
C764 C766 1.419 . S
C765 C760 1.425 . S
C765 C762 1.409 . S
C765 C763 1.415 . S
C766 H756 0.930 . S
C766 C764 1.419 . S
C766 C767 1.362 . S
C767 H757 0.930 . S
C767 C760 1.409 . S
C767 C766 1.362 . S
H768 C774 0.930 . S
H769 C777 0.930 . S
H770 C778 0.930 . S
H771 C779 0.930 . S
H772 C782 0.930 . S
H773 C783 0.930 . S
C774 H768 0.930 . S
C774 C775 1.355 . S
C774 C776 1.415 1_554 S
C775 C774 1.355 . S
C775 C777 1.419 . S
C776 C774 1.415 1_556 S
C776 C781 1.425 . S
C776 C783 1.409 . S
C777 H769 0.930 . S
C777 C775 1.419 . S
C777 C778 1.362 1_554 S
C778 H770 0.930 . S
C778 C777 1.362 1_556 S
C778 C781 1.409 . S
C779 H771 0.930 . S
C779 C780 1.355 . S
C779 C781 1.415 . S
C780 C779 1.355 . S
C780 C782 1.419 . S
C781 C776 1.425 . S
C781 C778 1.409 . S
C781 C779 1.415 . S
C782 H772 0.930 . S
C782 C780 1.419 . S
C782 C783 1.362 . S
C783 H773 0.930 . S
C783 C776 1.409 . S
C783 C782 1.362 . S
H784 C790 0.930 . S
H785 C793 0.930 . S
H786 C794 0.930 . S
H787 C795 0.930 . S
H788 C798 0.930 . S
H789 C799 0.930 . S
C790 H784 0.930 . S
C790 C791 1.355 . S
C790 C792 1.415 . S
C791 C790 1.355 . S
C791 C793 1.419 . S
C792 C790 1.415 . S
C792 C797 1.425 . S
C792 C799 1.409 . S
C793 H785 0.930 . S
C793 C791 1.419 . S
C793 C794 1.362 . S
C794 H786 0.930 . S
C794 C793 1.362 . S
C794 C797 1.409 . S
C795 H787 0.930 . S
C795 C796 1.355 . S
C795 C797 1.415 . S
C796 C795 1.355 . S
C796 C798 1.419 . S
C797 C792 1.425 . S
C797 C794 1.409 . S
C797 C795 1.415 . S
C798 H788 0.930 . S
C798 C796 1.419 . S
C798 C799 1.362 . S
C799 H789 0.930 . S
C799 C792 1.409 . S
C799 C798 1.362 . S
H800 C806 0.930 . S
H801 C809 0.930 . S
H802 C810 0.930 . S
H803 C811 0.930 . S
H804 C814 0.930 . S
H805 C815 0.930 . S
C806 H800 0.930 . S
C806 C807 1.355 . S
C806 C808 1.415 . S
C807 C806 1.355 . S
C807 C809 1.419 . S
C808 C806 1.415 . S
C808 C813 1.425 . S
C808 C815 1.409 . S
C809 H801 0.930 . S
C809 C807 1.419 . S
C809 C810 1.362 . S
C810 H802 0.930 . S
C810 C809 1.362 . S
C810 C813 1.409 . S
C811 H803 0.930 . S
C811 C812 1.355 . S
C811 C813 1.415 . S
C812 C811 1.355 . S
C812 C814 1.419 . S
C813 C808 1.425 . S
C813 C810 1.409 . S
C813 C811 1.415 . S
C814 H804 0.930 . S
C814 C812 1.419 . S
C814 C815 1.362 . S
C815 H805 0.930 . S
C815 C808 1.409 . S
C815 C814 1.362 . S
H816 C822 0.930 . S
H817 C825 0.930 . S
H818 C826 0.930 . S
H819 C827 0.930 . S
H820 C830 0.930 . S
H821 C831 0.930 . S
C822 H816 0.930 . S
C822 C823 1.355 . S
C822 C824 1.415 . S
C823 C822 1.355 . S
C823 C825 1.419 . S
C824 C822 1.415 . S
C824 C829 1.425 . S
C824 C831 1.409 . S
C825 H817 0.930 . S
C825 C823 1.419 . S
C825 C826 1.362 . S
C826 H818 0.930 . S
C826 C825 1.362 . S
C826 C829 1.409 . S
C827 H819 0.930 . S
C827 C828 1.355 . S
C827 C829 1.415 . S
C828 C827 1.355 . S
C828 C830 1.419 . S
C829 C824 1.425 . S
C829 C826 1.409 . S
C829 C827 1.415 . S
C830 H820 0.930 . S
C830 C828 1.419 . S
C830 C831 1.362 . S
C831 H821 0.930 . S
C831 C824 1.409 . S
C831 C830 1.362 . S
H832 C838 0.930 . S
H833 C841 0.930 . S
H834 C842 0.930 . S
H835 C843 0.930 . S
H836 C846 0.930 . S
H837 C847 0.930 . S
C838 H832 0.930 . S
C838 C839 1.355 . S
C838 C840 1.415 . S
C839 C838 1.355 . S
C839 C841 1.419 . S
C840 C838 1.415 . S
C840 C845 1.425 . S
C840 C847 1.409 . S
C841 H833 0.930 . S
C841 C839 1.419 . S
C841 C842 1.362 . S
C842 H834 0.930 . S
C842 C841 1.362 . S
C842 C845 1.409 . S
C843 H835 0.930 . S
C843 C844 1.355 . S
C843 C845 1.415 . S
C844 C843 1.355 . S
C844 C846 1.419 . S
C845 C840 1.425 . S
C845 C842 1.409 . S
C845 C843 1.415 . S
C846 H836 0.930 . S
C846 C844 1.419 . S
C846 C847 1.362 . S
C847 H837 0.930 . S
C847 C840 1.409 . S
C847 C846 1.362 . S
H848 C854 0.930 . S
H849 C857 0.930 . S
H850 C858 0.930 . S
H851 C859 0.930 . S
H852 C862 0.930 . S
H853 C863 0.930 . S
C854 H848 0.930 . S
C854 C855 1.355 . S
C854 C856 1.415 . S
C855 C854 1.355 . S
C855 C857 1.419 . S
C856 C854 1.415 . S
C856 C861 1.425 . S
C856 C863 1.409 . S
C857 H849 0.930 . S
C857 C855 1.419 . S
C857 C858 1.362 . S
C858 H850 0.930 . S
C858 C857 1.362 . S
C858 C861 1.409 . S
C859 H851 0.930 . S
C859 C860 1.355 . S
C859 C861 1.415 . S
C860 C859 1.355 . S
C860 C862 1.419 . S
C861 C856 1.425 . S
C861 C858 1.409 . S
C861 C859 1.415 . S
C862 H852 0.930 . S
C862 C860 1.419 . S
C862 C863 1.362 . S
C863 H853 0.930 . S
C863 C856 1.409 . S
C863 C862 1.362 . S
H864 C870 0.930 . S
H865 C873 0.930 . S
H866 C874 0.930 . S
H867 C875 0.930 . S
H868 C878 0.930 . S
H869 C879 0.930 . S
C870 H864 0.930 . S
C870 C871 1.355 . S
C870 C872 1.415 . S
C871 C870 1.355 . S
C871 C873 1.419 . S
C872 C870 1.415 . S
C872 C877 1.425 . S
C872 C879 1.409 . S
C873 H865 0.930 . S
C873 C871 1.419 . S
C873 C874 1.362 . S
C874 H866 0.930 . S
C874 C873 1.362 . S
C874 C877 1.409 . S
C875 H867 0.930 . S
C875 C876 1.355 . S
C875 C877 1.415 . S
C876 C875 1.355 . S
C876 C878 1.419 . S
C877 C872 1.425 . S
C877 C874 1.409 . S
C877 C875 1.415 . S
C878 H868 0.930 . S
C878 C876 1.419 . S
C878 C879 1.362 . S
C879 H869 0.930 . S
C879 C872 1.409 . S
C879 C878 1.362 . S
H880 C886 0.930 . S
H881 C889 0.930 . S
H882 C890 0.930 . S
H883 C891 0.930 . S
H884 C894 0.930 . S
H885 C895 0.930 . S
C886 H880 0.930 . S
C886 C887 1.355 . S
C886 C888 1.415 . S
C887 C886 1.355 . S
C887 C889 1.419 . S
C888 C886 1.415 . S
C888 C893 1.425 . S
C888 C895 1.409 . S
C889 H881 0.930 . S
C889 C887 1.419 . S
C889 C890 1.362 . S
C890 H882 0.930 . S
C890 C889 1.362 . S
C890 C893 1.409 . S
C891 H883 0.930 . S
C891 C892 1.355 . S
C891 C893 1.415 . S
C892 C891 1.355 . S
C892 C894 1.419 . S
C893 C888 1.425 . S
C893 C890 1.409 . S
C893 C891 1.415 . S
C894 H884 0.930 . S
C894 C892 1.419 . S
C894 C895 1.362 . S
C895 H885 0.930 . S
C895 C888 1.409 . S
C895 C894 1.362 . S
H896 C902 0.930 . S
H897 C905 0.930 . S
H898 C906 0.930 . S
H899 C907 0.930 . S
H900 C910 0.930 . S
H901 C911 0.930 . S
C902 H896 0.930 . S
C902 C903 1.355 . S
C902 C904 1.415 . S
C903 C902 1.355 . S
C903 C905 1.419 . S
C904 C902 1.415 . S
C904 C909 1.425 . S
C904 C911 1.409 . S
C905 H897 0.930 . S
C905 C903 1.419 . S
C905 C906 1.362 . S
C906 H898 0.930 . S
C906 C905 1.362 . S
C906 C909 1.409 . S
C907 H899 0.930 . S
C907 C908 1.355 . S
C907 C909 1.415 . S
C908 C907 1.355 . S
C908 C910 1.419 . S
C909 C904 1.425 . S
C909 C906 1.409 . S
C909 C907 1.415 . S
C910 H900 0.930 . S
C910 C908 1.419 . S
C910 C911 1.362 . S
C911 H901 0.930 . S
C911 C904 1.409 . S
C911 C910 1.362 . S
H912 C918 0.930 . S
H913 C921 0.930 . S
H914 C922 0.930 . S
H915 C923 0.930 . S
H916 C926 0.930 . S
H917 C927 0.930 . S
C918 H912 0.930 . S
C918 C919 1.355 . S
C918 C920 1.415 . S
C919 C918 1.355 . S
C919 C921 1.419 1_554 S
C920 C918 1.415 . S
C920 C925 1.425 1_544 S
C920 C927 1.409 1_545 S
C921 H913 0.930 . S
C921 C919 1.419 1_556 S
C921 C922 1.362 . S
C922 H914 0.930 . S
C922 C921 1.362 . S
C922 C925 1.409 1_545 S
C923 H915 0.930 . S
C923 C924 1.355 . S
C923 C925 1.415 . S
C924 C923 1.355 . S
C924 C926 1.419 1_556 S
C925 C920 1.425 1_566 S
C925 C922 1.409 1_565 S
C925 C923 1.415 . S
C926 H916 0.930 . S
C926 C924 1.419 1_554 S
C926 C927 1.362 . S
C927 H917 0.930 . S
C927 C920 1.409 1_565 S
C927 C926 1.362 . S
H928 C934 0.930 . S
H929 C937 0.930 . S
H930 C938 0.930 . S
H931 C939 0.930 . S
H932 C942 0.930 . S
H933 C943 0.930 . S
C934 H928 0.930 . S
C934 C935 1.355 . S
C934 C936 1.459 . S
C935 C934 1.355 . S
C935 C937 1.419 1_556 S
C936 C934 1.459 . S
C936 C941 1.421 1_456 S
C936 C943 1.368 1_455 S
C937 H929 0.930 . S
C937 C935 1.419 1_554 S
C937 C938 1.362 . S
C938 H930 0.930 . S
C938 C937 1.362 . S
C938 C941 1.368 1_455 S
C939 H931 0.930 . S
C939 C940 1.355 . S
C939 C941 1.459 . S
C940 C939 1.355 . S
C940 C942 1.419 1_554 S
C941 C936 1.421 1_654 S
C941 C938 1.368 1_655 S
C941 C939 1.459 . S
C942 H932 0.930 . S
C942 C940 1.419 1_556 S
C942 C943 1.362 . S
C943 H933 0.930 . S
C943 C936 1.368 1_655 S
C943 C942 1.362 . S
H944 C950 0.930 . S
H945 C953 0.930 . S
H946 C954 0.930 . S
H947 C955 0.930 . S
H948 C958 0.930 . S
H949 C959 0.930 . S
C950 H944 0.930 . S
C950 C951 1.355 . S
C950 C952 1.415 . S
C951 C950 1.355 . S
C951 C953 1.419 1_554 S
C952 C950 1.415 . S
C952 C957 1.425 1_564 S
C952 C959 1.409 1_565 S
C953 H945 0.930 . S
C953 C951 1.419 1_556 S
C953 C954 1.362 . S
C954 H946 0.930 . S
C954 C953 1.362 . S
C954 C957 1.409 1_565 S
C955 H947 0.930 . S
C955 C956 1.355 . S
C955 C957 1.415 . S
C956 C955 1.355 . S
C956 C958 1.419 1_556 S
C957 C952 1.425 1_546 S
C957 C954 1.409 1_545 S
C957 C955 1.415 . S
C958 H948 0.930 . S
C958 C956 1.419 1_554 S
C958 C959 1.362 . S
C959 H949 0.930 . S
C959 C952 1.409 1_545 S
C959 C958 1.362 . S
H960 C966 0.930 . S
H961 C969 0.930 . S
H962 C970 0.930 . S
H963 C971 0.930 . S
H964 C974 0.930 . S
H965 C975 0.930 . S
C966 H960 0.930 . S
C966 C967 1.355 . S
C966 C968 1.415 . S
C967 C966 1.355 . S
C967 C969 1.419 1_556 S
C968 C966 1.415 . S
C968 C973 1.425 1_656 S
C968 C975 1.409 1_655 S
C969 H961 0.930 . S
C969 C967 1.419 1_554 S
C969 C970 1.362 . S
C970 H962 0.930 . S
C970 C969 1.362 . S
C970 C973 1.409 1_655 S
C971 H963 0.930 . S
C971 C972 1.355 . S
C971 C973 1.415 . S
C972 C971 1.355 . S
C972 C974 1.419 1_554 S
C973 C968 1.425 1_454 S
C973 C970 1.409 1_455 S
C973 C971 1.415 . S
C974 H964 0.930 . S
C974 C972 1.419 1_556 S
C974 C975 1.362 . S
C975 H965 0.930 . S
C975 C968 1.409 1_455 S
C975 C974 1.362 . S
H976 C982 0.930 . S
H977 C985 0.930 . S
H978 C986 0.930 . S
H979 C987 0.930 . S
H980 C990 0.930 . S
H981 C991 0.930 . S
C982 H976 0.930 . S
C982 C983 1.355 . S
C982 C984 1.415 . S
C983 C982 1.355 . S
C983 C985 1.419 . S
C984 C982 1.415 . S
C984 C989 1.425 . S
C984 C991 1.409 . S
C985 H977 0.930 . S
C985 C983 1.419 . S
C985 C986 1.362 . S
C986 H978 0.930 . S
C986 C985 1.362 . S
C986 C989 1.409 . S
C987 H979 0.930 . S
C987 C988 1.355 . S
C987 C989 1.415 . S
C988 C987 1.355 . S
C988 C990 1.419 . S
C989 C984 1.425 . S
C989 C986 1.409 . S
C989 C987 1.415 . S
C990 H980 0.930 . S
C990 C988 1.419 . S
C990 C991 1.362 . S
C991 H981 0.930 . S
C991 C984 1.409 . S
C991 C990 1.362 . S
H992 C998 0.930 . S
H993 C1001 0.930 . S
H994 C1002 0.930 . S
H995 C1003 0.930 . S
H996 C1006 0.930 . S
H997 C1007 0.930 . S
C998 H992 0.930 . S
C998 C999 1.355 . S
C998 C1000 1.415 . S
C999 C998 1.355 . S
C999 C1001 1.419 . S
C1000 C998 1.415 . S
C1000 C1005 1.425 . S
C1000 C1007 1.409 . S
C1001 H993 0.930 . S
C1001 C999 1.419 . S
C1001 C1002 1.362 . S
C1002 H994 0.930 . S
C1002 C1001 1.362 . S
C1002 C1005 1.409 . S
C1003 H995 0.930 . S
C1003 C1004 1.355 . S
C1003 C1005 1.415 . S
C1004 C1003 1.355 . S
C1004 C1006 1.419 . S
C1005 C1000 1.425 . S
C1005 C1002 1.409 . S
C1005 C1003 1.415 . S
C1006 H996 0.930 . S
C1006 C1004 1.419 . S
C1006 C1007 1.362 . S
C1007 H997 0.930 . S
C1007 C1000 1.409 . S
C1007 C1006 1.362 . S
H1008 C1014 0.930 . S
H1009 C1017 0.930 . S
H1010 C1018 0.930 . S
H1011 C1019 0.930 . S
H1012 C1022 0.930 . S
H1013 C1023 0.930 . S
C1014 H1008 0.930 . S
C1014 C1015 1.355 . S
C1014 C1016 1.415 . S
C1015 C1014 1.355 . S
C1015 C1017 1.419 . S
C1016 C1014 1.415 . S
C1016 C1021 1.425 . S
C1016 C1023 1.409 . S
C1017 H1009 0.930 . S
C1017 C1015 1.419 . S
C1017 C1018 1.362 . S
C1018 H1010 0.930 . S
C1018 C1017 1.362 . S
C1018 C1021 1.409 . S
C1019 H1011 0.930 . S
C1019 C1020 1.355 . S
C1019 C1021 1.415 . S
C1020 C1019 1.355 . S
C1020 C1022 1.419 . S
C1021 C1016 1.425 . S
C1021 C1018 1.409 . S
C1021 C1019 1.415 . S
C1022 H1012 0.930 . S
C1022 C1020 1.419 . S
C1022 C1023 1.362 . S
C1023 H1013 0.930 . S
C1023 C1016 1.409 . S
C1023 C1022 1.362 . S
H1024 C1030 0.930 . S
H1025 C1033 0.930 . S
H1026 C1034 0.930 . S
H1027 C1035 0.930 . S
H1028 C1038 0.930 . S
H1029 C1039 0.930 . S
C1030 H1024 0.930 . S
C1030 C1031 1.355 . S
C1030 C1032 1.415 . S
C1031 C1030 1.355 . S
C1031 C1033 1.419 . S
C1032 C1030 1.415 . S
C1032 C1037 1.425 . S
C1032 C1039 1.409 . S
C1033 H1025 0.930 . S
C1033 C1031 1.419 . S
C1033 C1034 1.362 . S
C1034 H1026 0.930 . S
C1034 C1033 1.362 . S
C1034 C1037 1.409 . S
C1035 H1027 0.930 . S
C1035 C1036 1.355 . S
C1035 C1037 1.415 . S
C1036 C1035 1.355 . S
C1036 C1038 1.419 . S
C1037 C1032 1.425 . S
C1037 C1034 1.409 . S
C1037 C1035 1.415 . S
C1038 H1028 0.930 . S
C1038 C1036 1.419 . S
C1038 C1039 1.362 . S
C1039 H1029 0.930 . S
C1039 C1032 1.409 . S
C1039 C1038 1.362 . S
H1040 C1046 0.930 . S
H1041 C1049 0.930 . S
H1042 C1050 0.930 . S
H1043 C1051 0.930 . S
H1044 C1054 0.930 . S
H1045 C1055 0.930 . S
C1046 H1040 0.930 . S
C1046 C1047 1.355 . S
C1046 C1048 1.415 . S
C1047 C1046 1.355 . S
C1047 C1049 1.419 1_554 S
C1048 C1046 1.415 . S
C1048 C1053 1.425 1_554 S
C1048 C1055 1.409 . S
C1049 H1041 0.930 . S
C1049 C1047 1.419 1_556 S
C1049 C1050 1.362 . S
C1050 H1042 0.930 . S
C1050 C1049 1.362 . S
C1050 C1053 1.409 . S
C1051 H1043 0.930 . S
C1051 C1052 1.355 . S
C1051 C1053 1.415 . S
C1052 C1051 1.355 . S
C1052 C1054 1.419 1_556 S
C1053 C1048 1.425 1_556 S
C1053 C1050 1.409 . S
C1053 C1051 1.415 . S
C1054 H1044 0.930 . S
C1054 C1052 1.419 1_554 S
C1054 C1055 1.362 . S
C1055 H1045 0.930 . S
C1055 C1048 1.409 . S
C1055 C1054 1.362 . S
H1056 C1062 0.930 1_556 S
H1057 C1065 0.930 . S
H1058 C1066 0.930 . S
H1059 C1067 0.930 1_554 S
H1060 C1070 0.930 . S
H1061 C1071 0.930 . S
C1062 H1056 0.930 1_554 S
C1062 C1063 1.355 . S
C1062 C1064 1.415 1_554 S
C1063 C1062 1.355 . S
C1063 C1065 1.419 . S
C1064 C1062 1.415 1_556 S
C1064 C1069 1.425 1_556 S
C1064 C1071 1.409 . S
C1065 H1057 0.930 . S
C1065 C1063 1.419 . S
C1065 C1066 1.362 . S
C1066 H1058 0.930 . S
C1066 C1065 1.362 . S
C1066 C1069 1.409 . S
C1067 H1059 0.930 1_556 S
C1067 C1068 1.355 . S
C1067 C1069 1.415 1_556 S
C1068 C1067 1.355 . S
C1068 C1070 1.419 . S
C1069 C1064 1.425 1_554 S
C1069 C1066 1.409 . S
C1069 C1067 1.415 1_554 S
C1070 H1060 0.930 . S
C1070 C1068 1.419 . S
C1070 C1071 1.362 . S
C1071 H1061 0.930 . S
C1071 C1064 1.409 . S
C1071 C1070 1.362 . S
H1072 C1078 0.930 . S
H1073 C1081 0.930 . S
H1074 C1082 0.930 . S
H1075 C1083 0.930 . S
H1076 C1086 0.930 . S
H1077 C1087 0.930 . S
C1078 H1072 0.930 . S
C1078 C1079 1.355 . S
C1078 C1080 1.415 . S
C1079 C1078 1.355 . S
C1079 C1081 1.419 1_556 S
C1080 C1078 1.415 . S
C1080 C1085 1.425 1_556 S
C1080 C1087 1.409 . S
C1081 H1073 0.930 . S
C1081 C1079 1.419 1_554 S
C1081 C1082 1.362 . S
C1082 H1074 0.930 . S
C1082 C1081 1.362 . S
C1082 C1085 1.409 . S
C1083 H1075 0.930 . S
C1083 C1084 1.355 . S
C1083 C1085 1.415 . S
C1084 C1083 1.355 . S
C1084 C1086 1.419 1_554 S
C1085 C1080 1.425 1_554 S
C1085 C1082 1.409 . S
C1085 C1083 1.415 . S
C1086 H1076 0.930 . S
C1086 C1084 1.419 1_556 S
C1086 C1087 1.362 . S
C1087 H1077 0.930 . S
C1087 C1080 1.409 . S
C1087 C1086 1.362 . S
H1088 C1094 0.930 . S
H1089 C1097 0.930 . S
H1090 C1098 0.930 . S
H1091 C1099 0.930 . S
H1092 C1102 0.930 . S
H1093 C1103 0.930 . S
C1094 H1088 0.930 . S
C1094 C1095 1.355 1_556 S
C1094 C1096 1.415 . S
C1095 C1094 1.355 1_554 S
C1095 C1097 1.419 . S
C1096 C1094 1.415 . S
C1096 C1101 1.425 1_556 S
C1096 C1103 1.409 . S
C1097 H1089 0.930 . S
C1097 C1095 1.419 . S
C1097 C1098 1.362 . S
C1098 H1090 0.930 . S
C1098 C1097 1.362 . S
C1098 C1101 1.409 . S
C1099 H1091 0.930 . S
C1099 C1100 1.355 1_554 S
C1099 C1101 1.415 . S
C1100 C1099 1.355 1_556 S
C1100 C1102 1.419 . S
C1101 C1096 1.425 1_554 S
C1101 C1098 1.409 . S
C1101 C1099 1.415 . S
C1102 H1092 0.930 . S
C1102 C1100 1.419 . S
C1102 C1103 1.362 . S
C1103 H1093 0.930 . S
C1103 C1096 1.409 . S
C1103 C1102 1.362 . S
H1104 C1110 0.930 . S
H1105 C1113 0.930 . S
H1106 C1114 0.930 . S
H1107 C1115 0.930 . S
H1108 C1118 0.930 . S
H1109 C1119 0.930 . S
C1110 H1104 0.930 . S
C1110 C1111 1.355 . S
C1110 C1112 1.415 . S
C1111 C1110 1.355 . S
C1111 C1113 1.419 . S
C1112 C1110 1.415 . S
C1112 C1117 1.425 . S
C1112 C1119 1.409 . S
C1113 H1105 0.930 . S
C1113 C1111 1.419 . S
C1113 C1114 1.362 . S
C1114 H1106 0.930 . S
C1114 C1113 1.362 . S
C1114 C1117 1.409 . S
C1115 H1107 0.930 . S
C1115 C1116 1.355 . S
C1115 C1117 1.415 . S
C1116 C1115 1.355 . S
C1116 C1118 1.419 . S
C1117 C1112 1.425 . S
C1117 C1114 1.409 . S
C1117 C1115 1.415 . S
C1118 H1108 0.930 . S
C1118 C1116 1.419 . S
C1118 C1119 1.362 . S
C1119 H1109 0.930 . S
C1119 C1112 1.409 . S
C1119 C1118 1.362 . S
H1120 C1126 0.930 . S
H1121 C1129 0.930 . S
H1122 C1130 0.930 . S
H1123 C1131 0.930 . S
H1124 C1134 0.930 . S
H1125 C1135 0.930 . S
C1126 H1120 0.930 . S
C1126 C1127 1.355 . S
C1126 C1128 1.415 . S
C1127 C1126 1.355 . S
C1127 C1129 1.419 . S
C1128 C1126 1.415 . S
C1128 C1133 1.425 . S
C1128 C1135 1.409 . S
C1129 H1121 0.930 . S
C1129 C1127 1.419 . S
C1129 C1130 1.362 . S
C1130 H1122 0.930 . S
C1130 C1129 1.362 . S
C1130 C1133 1.409 . S
C1131 H1123 0.930 . S
C1131 C1132 1.355 . S
C1131 C1133 1.415 . S
C1132 C1131 1.355 . S
C1132 C1134 1.419 . S
C1133 C1128 1.425 . S
C1133 C1130 1.409 . S
C1133 C1131 1.415 . S
C1134 H1124 0.930 . S
C1134 C1132 1.419 . S
C1134 C1135 1.362 . S
C1135 H1125 0.930 . S
C1135 C1128 1.409 . S
C1135 C1134 1.362 . S
H1136 C1142 0.930 . S
H1137 C1145 0.930 . S
H1138 C1146 0.930 . S
H1139 C1147 0.930 . S
H1140 C1150 0.930 . S
H1141 C1151 0.930 . S
C1142 H1136 0.930 . S
C1142 C1143 1.355 . S
C1142 C1144 1.415 . S
C1143 C1142 1.355 . S
C1143 C1145 1.419 . S
C1144 C1142 1.415 . S
C1144 C1149 1.425 . S
C1144 C1151 1.409 . S
C1145 H1137 0.930 . S
C1145 C1143 1.419 . S
C1145 C1146 1.362 . S
C1146 H1138 0.930 . S
C1146 C1145 1.362 . S
C1146 C1149 1.409 . S
C1147 H1139 0.930 . S
C1147 C1148 1.355 . S
C1147 C1149 1.415 . S
C1148 C1147 1.355 . S
C1148 C1150 1.419 . S
C1149 C1144 1.425 . S
C1149 C1146 1.409 . S
C1149 C1147 1.415 . S
C1150 H1140 0.930 . S
C1150 C1148 1.419 . S
C1150 C1151 1.362 . S
C1151 H1141 0.930 . S
C1151 C1144 1.409 . S
C1151 C1150 1.362 . S
H1152 C1158 0.930 . S
H1153 C1161 0.930 . S
H1154 C1162 0.930 . S
H1155 C1163 0.930 . S
H1156 C1166 0.930 . S
H1157 C1167 0.930 . S
C1158 H1152 0.930 . S
C1158 C1159 1.355 . S
C1158 C1160 1.415 . S
C1159 C1158 1.355 . S
C1159 C1161 1.419 . S
C1160 C1158 1.415 . S
C1160 C1165 1.425 . S
C1160 C1167 1.409 . S
C1161 H1153 0.930 . S
C1161 C1159 1.419 . S
C1161 C1162 1.362 . S
C1162 H1154 0.930 . S
C1162 C1161 1.362 . S
C1162 C1165 1.409 . S
C1163 H1155 0.930 . S
C1163 C1164 1.355 . S
C1163 C1165 1.415 . S
C1164 C1163 1.355 . S
C1164 C1166 1.419 . S
C1165 C1160 1.425 . S
C1165 C1162 1.409 . S
C1165 C1163 1.415 . S
C1166 H1156 0.930 . S
C1166 C1164 1.419 . S
C1166 C1167 1.362 . S
C1167 H1157 0.930 . S
C1167 C1160 1.409 . S
C1167 C1166 1.362 . S
C535 N5 1.382 . S
C540 N14 1.378 . S
C551 N38 1.399 . S
C556 N47 1.396 . S
C567 N80 1.386 . S
C572 N71 1.383 . S
C583 N113 1.402 . S
C588 N104 1.399 . S
C599 N137 1.397 . S
C604 N146 1.394 . S
C615 N179 1.391 . S
C620 N170 1.387 . S
C631 N212 1.374 . S
C636 N203 1.377 . S
C647 N245 1.373 . S
C652 N236 1.375 . S
C663 N269 1.375 . S
C668 N278 1.376 . S
C679 N302 1.380 . S
C684 N311 1.383 . S
C695 N335 1.386 . S
C700 N344 1.381 . S
C711 N368 1.382 . S
C716 N377 1.386 . S
C727 N410 1.376 . S
C732 N401 1.374 . S
C743 N443 1.385 . S
C748 N434 1.381 . S
C759 N476 1.400 . S
C764 N467 1.397 . S
C775 N509 1.373 . S
C780 N500 1.374 . S
C791 C8 1.362 . S
C796 C503 1.408 . S
C807 C404 1.388 . S
C812 C41 1.409 . S
C823 C437 1.360 . S
C828 C74 1.404 . S
C839 C470 1.391 . S
C844 C107 1.408 . S
C855 C305 1.401 . S
C860 C140 1.400 . S
C871 C173 1.387 . S
C876 C338 1.410 . S
C887 C206 1.410 . S
C892 C371 1.387 . S
C903 C272 1.367 . S
C908 C239 1.376 . S
C919 C28 1.128 . S
C924 C160 1.126 . S
C935 C193 1.126 . S
C940 C61 1.128 . S
C951 C94 1.124 . S
C956 C226 1.131 . S
C967 C259 1.129 . S
C972 C127 1.125 . S
C983 C424 1.125 . S
C988 C292 1.134 . S
C999 C325 1.125 . S
C1004 C457 1.130 . S
C1015 C358 1.133 . S
C1020 C490 1.128 . S
C1031 C391 1.132 . S
C1036 C523 1.130 . S
C1047 C17 1.542 . S
C1052 C182 1.515 . S
C1063 C50 1.519 . S
C1068 C215 1.547 . S
C1079 C248 1.520 . S
C1084 C83 1.516 . S
C1095 C116 1.549 . S
C1100 C149 1.549 . S
C1111 C446 1.550 . S
C1116 C281 1.523 . S
C1127 C314 1.518 . S
C1132 C479 1.546 . S
C1143 C512 1.527 . S
C1148 C347 1.552 . S
C1159 C413 1.516 . S
C1164 C380 1.544 . S
