# Generated by pormake.
# Topology une, (4)-cn, num edge types: 1
# Building blocks:
#     Node 0, Type 0, BuildingBlock: AZAVOO_clean_sbu_0, # of connection points: 4
#     Node 1, Type 0, BuildingBlock: AZAVOO_clean_sbu_0, # of connection points: 4
#     Node 2, Type 0, BuildingBlock: AZAVOO_clean_sbu_0, # of connection points: 4
#     Node 3, Type 0, BuildingBlock: AZAVOO_clean_sbu_0, # of connection points: 4
#     Node 4, Type 0, BuildingBlock: AZAVOO_clean_sbu_0, # of connection points: 4
#     Node 5, Type 0, BuildingBlock: AZAVOO_clean_sbu_0, # of connection points: 4
#     Node 6, Type 0, BuildingBlock: AZAVOO_clean_sbu_0, # of connection points: 4
#     Node 7, Type 0, BuildingBlock: AZAVOO_clean_sbu_0, # of connection points: 4
#     Node 8, Type 0, BuildingBlock: AZAVOO_clean_sbu_0, # of connection points: 4
#     Node 9, Type 0, BuildingBlock: AZAVOO_clean_sbu_0, # of connection points: 4
#     Node 10, Type 0, BuildingBlock: AZAVOO_clean_sbu_0, # of connection points: 4
#     Node 11, Type 0, BuildingBlock: AZAVOO_clean_sbu_0, # of connection points: 4
#     Node 12, Type 0, BuildingBlock: AZAVOO_clean_sbu_0, # of connection points: 4
#     Node 13, Type 0, BuildingBlock: AZAVOO_clean_sbu_0, # of connection points: 4
#     Node 14, Type 0, BuildingBlock: AZAVOO_clean_sbu_0, # of connection points: 4
#     Node 15, Type 0, BuildingBlock: AZAVOO_clean_sbu_0, # of connection points: 4
#     Node 16, Type 0, BuildingBlock: AZAVOO_clean_sbu_0, # of connection points: 4
#     Node 17, Type 0, BuildingBlock: AZAVOO_clean_sbu_0, # of connection points: 4
#     Edge 18, Type (0, 0), BuildingBlock: KIFKEQ_clean_linker_1, # of connection points: 2
#     Edge 19, Type (0, 0), BuildingBlock: KIFKEQ_clean_linker_1, # of connection points: 2
#     Edge 20, Type (0, 0), BuildingBlock: KIFKEQ_clean_linker_1, # of connection points: 2
#     Edge 21, Type (0, 0), BuildingBlock: KIFKEQ_clean_linker_1, # of connection points: 2
#     Edge 22, Type (0, 0), BuildingBlock: KIFKEQ_clean_linker_1, # of connection points: 2
#     Edge 23, Type (0, 0), BuildingBlock: KIFKEQ_clean_linker_1, # of connection points: 2
#     Edge 24, Type (0, 0), BuildingBlock: KIFKEQ_clean_linker_1, # of connection points: 2
#     Edge 25, Type (0, 0), BuildingBlock: KIFKEQ_clean_linker_1, # of connection points: 2
#     Edge 26, Type (0, 0), BuildingBlock: KIFKEQ_clean_linker_1, # of connection points: 2
#     Edge 27, Type (0, 0), BuildingBlock: KIFKEQ_clean_linker_1, # of connection points: 2
#     Edge 28, Type (0, 0), BuildingBlock: KIFKEQ_clean_linker_1, # of connection points: 2
#     Edge 29, Type (0, 0), BuildingBlock: KIFKEQ_clean_linker_1, # of connection points: 2
#     Edge 30, Type (0, 0), BuildingBlock: KIFKEQ_clean_linker_1, # of connection points: 2
#     Edge 31, Type (0, 0), BuildingBlock: KIFKEQ_clean_linker_1, # of connection points: 2
#     Edge 32, Type (0, 0), BuildingBlock: KIFKEQ_clean_linker_1, # of connection points: 2
#     Edge 33, Type (0, 0), BuildingBlock: KIFKEQ_clean_linker_1, # of connection points: 2
#     Edge 34, Type (0, 0), BuildingBlock: KIFKEQ_clean_linker_1, # of connection points: 2
#     Edge 35, Type (0, 0), BuildingBlock: KIFKEQ_clean_linker_1, # of connection points: 2
#     Edge 36, Type (0, 0), BuildingBlock: KIFKEQ_clean_linker_1, # of connection points: 2
#     Edge 37, Type (0, 0), BuildingBlock: KIFKEQ_clean_linker_1, # of connection points: 2
#     Edge 38, Type (0, 0), BuildingBlock: KIFKEQ_clean_linker_1, # of connection points: 2
#     Edge 39, Type (0, 0), BuildingBlock: KIFKEQ_clean_linker_1, # of connection points: 2
#     Edge 40, Type (0, 0), BuildingBlock: KIFKEQ_clean_linker_1, # of connection points: 2
#     Edge 41, Type (0, 0), BuildingBlock: KIFKEQ_clean_linker_1, # of connection points: 2
#     Edge 42, Type (0, 0), BuildingBlock: KIFKEQ_clean_linker_1, # of connection points: 2
#     Edge 43, Type (0, 0), BuildingBlock: KIFKEQ_clean_linker_1, # of connection points: 2
#     Edge 44, Type (0, 0), BuildingBlock: KIFKEQ_clean_linker_1, # of connection points: 2
#     Edge 45, Type (0, 0), BuildingBlock: KIFKEQ_clean_linker_1, # of connection points: 2
#     Edge 46, Type (0, 0), BuildingBlock: KIFKEQ_clean_linker_1, # of connection points: 2
#     Edge 47, Type (0, 0), BuildingBlock: KIFKEQ_clean_linker_1, # of connection points: 2
#     Edge 48, Type (0, 0), BuildingBlock: KIFKEQ_clean_linker_1, # of connection points: 2
#     Edge 49, Type (0, 0), BuildingBlock: KIFKEQ_clean_linker_1, # of connection points: 2
#     Edge 50, Type (0, 0), BuildingBlock: KIFKEQ_clean_linker_1, # of connection points: 2
#     Edge 51, Type (0, 0), BuildingBlock: KIFKEQ_clean_linker_1, # of connection points: 2
#     Edge 52, Type (0, 0), BuildingBlock: KIFKEQ_clean_linker_1, # of connection points: 2
#     Edge 53, Type (0, 0), BuildingBlock: KIFKEQ_clean_linker_1, # of connection points: 2
# Relax obj value: 0.233
# Max RMSD: 0.200
# Mean RMSD: 0.182
data_MOF--net-une--node1-AZAVOO_clean_sbu_0--edge1-KIFKEQ_clean_linker_1
_symmetry_space_group_name_H-M    P1
_symmetry_Int_Tables_number       1
_symmetry_cell_setting            triclinic
loop_
_symmetry_equiv_pos_as_xyz
'x, y, z'
_cell_length_a     37.232419
_cell_length_b     38.363956
_cell_length_c     56.329968
_cell_angle_alpha  90.504678
_cell_angle_beta   88.624582
_cell_angle_gamma 120.65972
loop_
_atom_site_label
_atom_site_type_symbol
_atom_site_fract_x
_atom_site_fract_y
_atom_site_fract_z
_atom_type_partial_charge
Mg0 Mg 0.32803 0.99585 0.0917 0.0
O1 O 0.29916 0.00985 0.06053 0.0
O2 O 0.27163 0.959 0.0345 0.0
Mg3 Mg 0.28783 0.91293 0.04814 0.0
C4 C 0.27923 0.99373 0.04158 0.0
C5 C 0.33579 0.06063 0.12537 0.0
O6 O 0.3129 0.02582 0.1364 0.0
O7 O 0.38645 0.01184 0.06828 0.0
O8 O 0.35701 0.96019 0.04266 0.0
O9 O 0.26413 0.96259 0.10827 0.0
O10 O 0.28996 0.93385 0.08484 0.0
C11 C 0.38856 0.99283 0.04995 0.0
C12 C 0.25836 0.93153 0.09612 0.0
O13 O 0.3523 0.06078 0.10529 0.0
Mg14 Mg 0.98955 0.36854 0.05307 0.0
O15 O 0.95993 0.31871 0.0251 0.0
O16 O 0.00582 0.33077 0.99527 0.0
Mg17 Mg 0.06145 0.39386 1.00125 0.0
C18 C 0.97037 0.30877 1.00556 0.0
C19 C 0.93411 0.32728 0.09587 0.0
O20 O 0.97294 0.34274 0.10242 0.0
O21 O 0.97303 0.4084 0.03006 0.0
O22 O 0.0174 0.41869 0.99972 0.0
O23 O 0.02183 0.33745 0.06731 0.0
O24 O 0.04954 0.38441 0.03949 0.0
C25 C 0.98866 0.4231 0.00947 0.0
C26 C 0.05125 0.35716 0.05172 0.0
O27 O 0.92767 0.336 0.0752 0.0
Mg28 Mg 0.66927 0.64797 0.09295 0.0
O29 O 0.71396 0.67183 0.06045 0.0
O30 O 0.69477 0.70607 0.03707 0.0
Mg31 Mg 0.63498 0.70018 0.05292 0.0
C32 C 0.71918 0.693 0.04188 0.0
C33 C 0.70995 0.62544 0.12889 0.0
O34 O 0.69206 0.64377 0.13918 0.0
O35 O 0.62057 0.59549 0.06962 0.0
O36 O 0.6034 0.63208 0.04681 0.0
O37 O 0.7081 0.70863 0.1099 0.0
O38 O 0.65332 0.69231 0.08804 0.0
C39 C 0.59966 0.59829 0.05268 0.0
C40 C 0.68501 0.7195 0.0993 0.0
O41 O 0.70274 0.61604 0.10704 0.0
Mg42 Mg 0.67721 0.94068 0.96521 0.0
O43 O 0.73326 0.00493 0.96341 0.0
O44 O 0.7913 0.00137 0.95989 0.0
Mg45 Mg 0.77264 0.93486 0.96047 0.0
C46 C 0.77285 0.02167 0.96132 0.0
C47 C 0.60531 0.94864 0.97941 0.0
O48 O 0.6035 0.9181 0.99089 0.0
O49 O 0.68278 0.93109 0.92503 0.0
O50 O 0.7398 0.92554 0.92524 0.0
O51 O 0.68345 0.94142 1.00435 0.0
O52 O 0.71421 0.91949 0.97952 0.0
C53 C 0.70991 0.92508 0.9143 0.0
C54 C 0.70788 0.92706 1.00104 0.0
O55 O 0.63264 0.96531 0.96278 0.0
Mg56 Mg 0.05084 0.74691 0.93148 0.0
O57 O 0.99073 0.74754 0.94037 0.0
O58 O 0.00841 0.81122 0.94891 0.0
Mg59 Mg 0.07908 0.85148 0.94496 0.0
C60 C 0.981 0.77376 0.94676 0.0
C61 C 0.03275 0.66226 0.92231 0.0
O62 O 0.0737 0.68443 0.92265 0.0
O63 O 0.05797 0.77506 0.89419 0.0
O64 O 0.07791 0.83853 0.90505 0.0
O65 O 0.0563 0.73815 0.96962 0.0
O66 O 0.08475 0.79844 0.95263 0.0
C67 C 0.07031 0.81205 0.889 0.0
C68 C 0.07627 0.7771 0.97173 0.0
O69 O 0.01207 0.68024 0.92126 0.0
Mg70 Mg 0.30471 0.28393 0.93663 0.0
O71 O 0.25582 0.27784 0.96412 0.0
O72 O 0.26561 0.25842 0.99938 0.0
Mg73 Mg 0.3241 0.25338 0.99472 0.0
C74 C 0.24546 0.2687 0.98592 0.0
C75 C 0.26546 0.28903 0.89056 0.0
O76 O 0.2769 0.2624 0.88596 0.0
O77 O 0.35225 0.34593 0.95385 0.0
O78 O 0.36008 0.32108 0.988 0.0
O79 O 0.26809 0.21616 0.92972 0.0
O80 O 0.31707 0.24605 0.9563 0.0
C81 C 0.36859 0.35084 0.97437 0.0
C82 C 0.28961 0.21327 0.94646 0.0
O83 O 0.27596 0.30795 0.91025 0.0
Mg84 Mg 0.99467 0.32352 0.42867 0.0
O85 O 0.96219 0.33493 0.39813 0.0
O86 O 0.93041 0.27988 0.37521 0.0
Mg87 Mg 0.94703 0.23462 0.38958 0.0
C88 C 0.93934 0.31579 0.38054 0.0
C89 C 0.01291 0.38828 0.46309 0.0
O90 O 0.9973 0.35356 0.47441 0.0
O91 O 0.04952 0.33586 0.40288 0.0
O92 O 0.01568 0.27983 0.38102 0.0
O93 O 0.93333 0.29495 0.44804 0.0
O94 O 0.95353 0.261 0.42496 0.0
C95 C 0.04872 0.31326 0.38574 0.0
C96 C 0.92398 0.26226 0.43654 0.0
O97 O 0.022 0.3893 0.44107 0.0
Mg98 Mg 0.65045 0.68957 0.38675 0.0
O99 O 0.62147 0.64312 0.35693 0.0
O100 O 0.66846 0.6559 0.32772 0.0
Mg101 Mg 0.72507 0.71723 0.3362 0.0
C102 C 0.63225 0.63416 0.33721 0.0
C103 C 0.56942 0.61995 0.40969 0.0
O104 O 0.58635 0.60122 0.3988 0.0
O105 O 0.63893 0.73391 0.36507 0.0
O106 O 0.6845 0.74631 0.33502 0.0
O107 O 0.67932 0.65528 0.40077 0.0
O108 O 0.71028 0.70431 0.37419 0.0
C109 C 0.65621 0.751 0.34519 0.0
C110 C 0.71008 0.67561 0.38596 0.0
O111 O 0.58696 0.65833 0.40731 0.0
Mg112 Mg 0.32464 0.96152 0.41581 0.0
O113 O 0.36983 0.98461 0.38352 0.0
O114 O 0.34625 0.01053 0.35684 0.0
Mg115 Mg 0.28325 -0.00025 0.37061 0.0
C116 C 0.37346 0.00216 0.36368 0.0
C117 C 0.37181 0.95133 0.45424 0.0
O118 O 0.35198 0.96878 0.46316 0.0
O119 O 0.28022 0.90345 0.39469 0.0
O120 O 0.25854 0.93185 0.36834 0.0
O121 O 0.35699 0.02482 0.42994 0.0
O122 O 0.30208 -0.00033 0.40701 0.0
C123 C 0.25848 0.901 0.37671 0.0
C124 C 0.33135 0.03034 0.41778 0.0
O125 O 0.36399 0.93813 0.43302 0.0
Mg126 Mg 0.32817 0.27405 0.28886 0.0
O127 O 0.38865 0.33521 0.29129 0.0
O128 O 0.44336 0.32613 0.2889 0.0
Mg129 Mg 0.41785 0.25818 0.28651 0.0
C130 C 0.42788 0.349 0.29078 0.0
C131 C 0.29629 0.33002 0.30354 0.0
O132 O 0.32716 0.33877 0.31779 0.0
O133 O 0.33921 0.27021 0.24851 0.0
O134 O 0.39161 0.25764 0.25025 0.0
O135 O 0.32598 0.26543 0.32801 0.0
O136 O 0.35812 0.24531 0.30296 0.0
C137 C 0.36554 0.26237 0.23842 0.0
C138 C 0.34837 0.24884 0.32456 0.0
O139 O 0.28999 0.3058 0.28635 0.0
Mg140 Mg 0.72837 0.08884 0.26973 0.0
O141 O 0.66309 0.08067 0.27441 0.0
O142 O 0.67179 0.14187 0.28154 0.0
Mg143 Mg 0.74133 0.18898 0.28042 0.0
C144 C 0.64831 0.10363 0.27911 0.0
C145 C 0.72222 0.01076 0.27164 0.0
O146 O 0.75855 0.03939 0.27933 0.0
O147 O 0.73741 0.11502 0.23171 0.0
O148 O 0.7474 0.17614 0.24102 0.0
O149 O 0.72905 0.08201 0.30852 0.0
O150 O 0.754 0.14139 0.29095 0.0
C151 C 0.74554 0.15054 0.22569 0.0
C152 C 0.74499 0.12065 0.31034 0.0
O153 O 0.70004 0.02158 0.26053 0.0
Mg154 Mg 0.95231 0.58384 0.27123 0.0
O155 O 0.90921 0.58745 0.2993 0.0
O156 O 0.91679 0.56598 0.33448 0.0
Mg157 Mg 0.96552 0.54672 0.32863 0.0
C158 C 0.89991 0.58038 0.32135 0.0
C159 C 0.92517 0.60407 0.22441 0.0
O160 O 0.93537 0.57745 0.21734 0.0
O161 O 0.00826 0.64109 0.28783 0.0
O162 O 0.01483 0.6126 0.32079 0.0
O163 O 0.90418 0.51864 0.26384 0.0
O164 O 0.95325 0.53871 0.29064 0.0
C165 C 0.02737 0.64301 0.30693 0.0
C166 C 0.92086 0.50983 0.28087 0.0
O167 O 0.93285 0.6171 0.24565 0.0
Mg168 Mg 0.6561 0.66328 0.75781 0.0
O169 O 0.63573 0.6854 0.72605 0.0
O170 O 0.60351 0.63589 0.69951 0.0
Mg171 Mg 0.60894 0.58297 0.71301 0.0
C172 C 0.6162 0.6719 0.70667 0.0
C173 C 0.67453 0.72491 0.79481 0.0
O174 O 0.65223 0.68879 0.80451 0.0
O175 O 0.71346 0.6721 0.73582 0.0
O176 O 0.6801 0.62276 0.70919 0.0
O177 O 0.59177 0.63837 0.77281 0.0
O178 O 0.61108 0.60365 0.74967 0.0
C179 C 0.71362 0.65232 0.71739 0.0
C180 C 0.58165 0.6065 0.76024 0.0
O181 O 0.68775 0.72731 0.77349 0.0
Mg182 Mg 0.32033 0.02877 0.71692 0.0
O183 O 0.28649 0.97928 0.68937 0.0
O184 O 0.32541 0.99308 0.65615 0.0
Mg185 Mg 0.38362 0.05492 0.6613 0.0
C186 C 0.29237 0.97017 0.66837 0.0
C187 C 0.26458 0.97953 0.75917 0.0
O188 O 0.3019 0.986 0.76372 0.0
O189 O 0.30216 0.07026 0.69708 0.0
O190 O 0.34223 0.08282 0.66428 0.0
O191 O 0.35513 -0.00198 0.72767 0.0
O192 O 0.37812 0.04503 0.69991 0.0
C193 C 0.31542 0.08694 0.6766 0.0
C194 C 0.38249 0.01849 0.71122 0.0
O195 O 0.26038 -0.00352 0.74092 0.0
Mg196 Mg -0.0002 0.31578 0.76229 0.0
O197 O 0.04186 0.33996 0.72883 0.0
O198 O 0.0251 0.37936 0.70841 0.0
Mg199 Mg 0.96671 0.37374 0.72643 0.0
C200 C 0.04752 0.36339 0.71137 0.0
C201 C 0.03435 0.28213 0.79604 0.0
O202 O 0.01178 0.29378 0.80824 0.0
O203 O 0.94912 0.26604 0.73843 0.0
O204 O 0.933 0.30605 0.71826 0.0
O205 O 0.04143 0.37476 0.78031 0.0
O206 O 0.98586 0.3619 0.76018 0.0
C207 C 0.92807 0.27121 0.72253 0.0
C208 C 0.01881 0.38758 0.77114 0.0
O209 O 0.03259 0.28175 0.77346 0.0
Mg210 Mg 0.00499 0.59885 0.63366 0.0
O211 O 0.06066 0.66344 0.63043 0.0
O212 O 0.11872 0.65994 0.62794 0.0
Mg213 Mg 0.10077 0.5937 0.62871 0.0
C214 C 0.10032 0.68034 0.62861 0.0
C215 C 0.93209 0.60484 0.64812 0.0
O216 O 0.93153 0.5749 0.65961 0.0
O217 O 0.00946 0.58799 0.59356 0.0
O218 O 0.06733 0.58386 0.59357 0.0
O219 O 0.01278 0.60137 0.6728 0.0
O220 O 0.0429 0.57873 0.64803 0.0
C221 C 0.03696 0.58265 0.58274 0.0
C222 C 0.03735 0.58718 0.66948 0.0
O223 O 0.95917 0.62207 0.63142 0.0
Mg224 Mg 0.37762 0.42156 0.59897 0.0
O225 O 0.31239 0.4131 0.60434 0.0
O226 O 0.3202 0.47467 0.60821 0.0
Mg227 Mg 0.38954 0.5222 0.60507 0.0
C228 C 0.29731 0.43613 0.60784 0.0
C229 C 0.37188 0.34376 0.60428 0.0
O230 O 0.40806 0.37317 0.61164 0.0
O231 O 0.38425 0.44286 0.55994 0.0
O232 O 0.39411 0.50474 0.5665 0.0
O233 O 0.3805 0.41961 0.63786 0.0
O234 O 0.40368 0.47662 0.6178 0.0
C235 C 0.3919 0.47748 0.55238 0.0
C236 C 0.39572 0.45827 0.63801 0.0
O237 O 0.34944 0.35344 0.59248 0.0
Mg238 Mg 0.64857 0.96277 0.59516 0.0
O239 O 0.60219 0.9581 0.62366 0.0
O240 O 0.61717 0.94411 0.65911 0.0
Mg241 Mg 0.6749 0.93769 0.65283 0.0
C242 C 0.59465 0.95175 0.64587 0.0
C243 C 0.60945 0.97011 0.54888 0.0
O244 O 0.62567 0.94826 0.54176 0.0
O245 O 0.69742 0.02603 0.61032 0.0
O246 O 0.71304 0.00447 0.64336 0.0
O247 O 0.61164 0.89463 0.59001 0.0
O248 O 0.66327 0.92669 0.61486 0.0
C249 C 0.71894 0.03263 0.62909 0.0
C250 C 0.63482 0.89314 0.60624 0.0
O251 O 0.61686 0.98475 0.56978 0.0
H252 H 0.46613 0.02605 0.0692 0.0
H253 H 0.40147 0.98623 1.00298 0.0
H254 H 0.52695 0.02721 0.05064 0.0
H255 H 0.46191 0.98739 0.98451 0.0
H256 H 0.5838 -0.00139 0.95639 0.0
H257 H 0.53927 0.02406 0.97231 0.0
H258 H 0.52677 0.96361 0.03892 0.0
H259 H 0.57006 0.93813 0.0232 0.0
C260 C 0.46551 0.0191 0.05048 0.0
C261 C 0.42893 0.0055 0.03762 0.0
C262 C 0.50016 0.01946 0.03989 0.0
C263 C 0.4989 0.00675 0.01621 0.0
C264 C 0.46394 -0.00257 1.00272 0.0
C265 C 0.42923 -0.00343 0.01336 0.0
C266 C 0.57166 0.9911 0.97445 0.0
C267 C 0.57994 0.9659 0.9884 0.0
C268 C 0.54637 0.00573 0.98358 0.0
C269 C 0.52992 -0.00379 0.00698 0.0
C270 C 0.53953 0.97217 0.02102 0.0
C271 C 0.56392 0.95704 0.01183 0.0
H272 H 0.97186 0.48116 0.02624 0.0
H273 H 0.97877 0.4222 0.96216 0.0
H274 H 0.9713 0.53399 1.00215 0.0
H275 H 0.97779 0.47425 0.93828 0.0
H276 H 0.0602 0.60981 0.91441 0.0
H277 H 0.03667 0.54552 0.93448 0.0
H278 H 0.93764 0.55466 0.96986 0.0
H279 H 0.96108 0.61923 0.94938 0.0
C280 C 0.97158 0.47863 0.00707 0.0
C281 C 0.97587 0.4479 0.99607 0.0
C282 C 0.97138 0.50888 0.99325 0.0
C283 C 0.97535 0.50868 0.9683 0.0
C284 C 0.97553 0.47571 0.95743 0.0
C285 C 0.97588 0.44579 0.97114 0.0
C286 C 0.03264 0.59753 0.9259 0.0
C287 C 0.01238 0.61944 0.93017 0.0
C288 C 0.0191 0.56066 0.93744 0.0
C289 C 0.98531 0.54501 0.95385 0.0
C290 C 0.96384 0.56603 0.9574 0.0
C291 C 0.97698 0.60273 0.94546 0.0
H292 H 0.3769 0.37513 0.01992 0.0
H293 H 0.43096 0.41693 0.94986 0.0
H294 H 0.43503 0.43457 0.03742 0.0
H295 H 0.49008 0.47709 0.96757 0.0
H296 H 0.56521 0.59703 0.01035 0.0
H297 H 0.50955 0.53937 0.99004 0.0
H298 H 0.50904 0.45932 0.04364 0.0
H299 H 0.56466 0.51751 0.06442 0.0
C300 C 0.4011 0.39743 0.0082 0.0
C301 C 0.39947 0.3913 0.9835 0.0
C302 C 0.43472 0.43126 0.0183 0.0
C303 C 0.46779 0.46004 1.00399 0.0
C304 C 0.46514 0.45529 0.9791 0.0
C305 C 0.43118 0.42112 0.96891 0.0
C306 C 0.5535 0.56714 0.01784 0.0
C307 C 0.56911 0.562 0.03928 0.0
C308 C 0.52171 0.53401 0.006 0.0
C309 C 0.50447 0.4948 0.01531 0.0
C310 C 0.52118 0.48933 0.03623 0.0
C311 C 0.55327 0.52258 0.04806 0.0
H312 H 0.12745 0.38208 0.38756 0.0
H313 H 0.05594 0.26935 0.34978 0.0
H314 H 0.1895 0.3966 0.36369 0.0
H315 H 0.11717 0.2828 0.32703 0.0
H316 H 0.22467 0.31354 0.28078 0.0
H317 H 0.16684 0.31935 0.29743 0.0
H318 H 0.2376 0.37411 0.36061 0.0
H319 H 0.29579 0.37039 0.34347 0.0
C320 C 0.12486 0.36051 0.37419 0.0
C321 C 0.08665 0.32441 0.37083 0.0
C322 C 0.16045 0.36873 0.36052 0.0
C323 C 0.15859 0.34093 0.34329 0.0
C324 C 0.12 0.3055 0.33963 0.0
C325 C 0.08469 0.2975 0.35304 0.0
C326 C 0.22821 0.32776 0.29795 0.0
C327 C 0.26456 0.34071 0.31095 0.0
C328 C 0.1949 0.33079 0.30765 0.0
C329 C 0.19691 0.3462 0.33073 0.0
C330 C 0.23465 0.36215 0.34283 0.0
C331 C 0.26809 0.35968 0.33299 0.0
H332 H 0.64408 0.80799 0.36741 0.0
H333 H 0.65171 0.76284 0.29818 0.0
H334 H 0.6511 0.8688 0.34881 0.0
H335 H 0.65796 0.82312 0.27963 0.0
H336 H 0.65369 0.93914 0.25651 0.0
H337 H 0.62493 0.87125 0.27439 0.0
H338 H 0.72134 0.9215 0.32662 0.0
H339 H 0.75046 0.98797 0.30877 0.0
C340 C 0.64546 0.81025 0.34821 0.0
C341 C 0.64764 0.78088 0.33425 0.0
C342 C 0.64975 0.84512 0.33757 0.0
C343 C 0.65543 0.85076 0.31279 0.0
C344 C 0.65342 0.8195 0.29872 0.0
C345 C 0.64995 0.78507 0.30936 0.0
C346 C 0.66873 0.93547 0.27173 0.0
C347 C 0.7046 0.96895 0.28102 0.0
C348 C 0.65217 0.89679 0.28201 0.0
C349 C 0.67051 0.89135 0.30215 0.0
C350 C 0.70605 0.92489 0.31142 0.0
C351 C 0.72304 0.96297 0.30091 0.0
H352 H 0.051 0.72193 0.29601 0.0
H353 H 0.08947 0.64991 0.33438 0.0
H354 H 0.10985 0.78355 0.31216 0.0
H355 H 0.14865 0.71091 0.34975 0.0
H356 H 0.21782 0.82452 0.39638 0.0
H357 H 0.16389 0.76223 0.37796 0.0
H358 H 0.18328 0.82696 0.31201 0.0
H359 H 0.23575 0.88901 0.33065 0.0
C360 C 0.07241 0.71931 0.30752 0.0
C361 C 0.0653 0.68106 0.31407 0.0
C362 C 0.10625 0.75458 0.31678 0.0
C363 C 0.13395 0.75231 0.33254 0.0
C364 C 0.12756 0.71398 0.33822 0.0
C365 C 0.09367 0.67892 0.32922 0.0
C366 C 0.21094 0.82516 0.37787 0.0
C367 C 0.2308 0.86169 0.36506 0.0
C368 C 0.18001 0.78949 0.36724 0.0
C369 C 0.1687 0.78955 0.34348 0.0
C370 C 0.19021 0.82583 0.33045 0.0
C371 C 0.22064 0.86139 0.34112 0.0
H372 H 0.90973 0.65446 0.62542 0.0
H373 H 0.89449 0.59141 0.69146 0.0
H374 H 0.86368 0.67813 0.64132 0.0
H375 H 0.84965 0.61517 0.70715 0.0
H376 H 0.79 0.68035 0.73748 0.0
H377 H 0.84976 0.67871 0.71951 0.0
H378 H 0.78588 0.64081 0.65294 0.0
H379 H 0.72645 0.64235 0.67081 0.0
C380 C 0.89688 0.64593 0.6433 0.0
C381 C 0.90535 0.62066 0.65705 0.0
C382 C 0.87068 0.65953 0.65241 0.0
C383 C 0.85343 0.64886 0.6756 0.0
C384 C 0.86299 0.62456 0.68942 0.0
C385 C 0.88832 0.61047 0.68024 0.0
C386 C 0.78932 0.67289 0.71884 0.0
C387 C 0.75336 0.66092 0.70565 0.0
C388 C 0.82337 0.67171 0.70858 0.0
C389 C 0.82225 0.65915 0.68488 0.0
C390 C 0.7878 0.65076 0.67117 0.0
C391 C 0.75364 0.65138 0.68149 0.0
H392 H 0.30182 0.27158 0.59132 0.0
H393 H 0.40376 0.32243 0.6403 0.0
H394 H 0.27464 0.20454 0.60992 0.0
H395 H 0.37641 0.25674 0.65882 0.0
H396 H 0.30772 0.1449 0.70094 0.0
H397 H 0.31197 0.20517 0.68336 0.0
H398 H 0.30429 0.15566 0.61332 0.0
H399 H 0.30047 0.09584 0.63084 0.0
C400 C 0.31834 0.26854 0.60597 0.0
C401 C 0.35516 0.30236 0.61413 0.0
C402 C 0.30268 0.23032 0.61669 0.0
C403 C 0.32299 0.22561 0.63612 0.0
C404 C 0.35951 0.25951 0.64426 0.0
C405 C 0.3755 0.29717 0.63334 0.0
C406 C 0.30518 0.14618 0.68189 0.0
C407 C 0.30407 0.11589 0.66725 0.0
C408 C 0.30798 0.18079 0.67179 0.0
C409 C 0.30905 0.18532 0.64693 0.0
C410 C 0.30343 0.15302 0.63248 0.0
C411 C 0.30131 0.1188 0.64254 0.0
H412 H 0.7992 0.05529 0.63511 0.0
H413 H 0.7138 0.09978 0.63952 0.0
H414 H 0.85098 0.11429 0.65674 0.0
H415 H 0.76526 0.15878 0.66181 0.0
H416 H 0.87999 0.27399 0.68766 0.0
H417 H 0.83241 0.22014 0.66185 0.0
H418 H 0.85837 0.13639 0.69748 0.0
H419 H 0.90732 0.19099 0.7232 0.0
C420 C 0.7921 0.0785 0.64015 0.0
C421 C 0.75287 0.07344 0.63537 0.0
C422 C 0.82143 0.11189 0.65293 0.0
C423 C 0.81204 0.14088 0.66151 0.0
C424 C 0.77364 0.13711 0.65541 0.0
C425 C 0.74426 0.1036 0.64244 0.0
C426 C 0.87572 0.24414 0.69014 0.0
C427 C 0.89775 0.23697 0.70762 0.0
C428 C 0.8481 0.21313 0.6753 0.0
C429 C 0.84154 0.17391 0.67745 0.0
C430 C 0.86321 0.16647 0.69505 0.0
C431 C 0.89104 0.19766 0.70996 0.0
H432 H 0.39123 0.14094 0.11395 0.0
H433 H 0.28648 0.06386 0.16031 0.0
H434 H 0.39694 0.20089 0.13378 0.0
H435 H 0.29213 0.12273 0.17983 0.0
H436 H 0.29498 0.22495 0.21189 0.0
H437 H 0.28594 0.18294 0.1771 0.0
H438 H 0.41873 0.22898 0.17397 0.0
H439 H 0.42773 0.27136 0.20824 0.0
C440 C 0.36923 0.1368 0.12814 0.0
C441 C 0.33886 0.09765 0.13581 0.0
C442 C 0.3724 0.17105 0.13944 0.0
C443 C 0.34477 0.16667 0.15829 0.0
C444 C 0.31342 0.12745 0.16511 0.0
C445 C 0.31062 0.09352 0.15411 0.0
C446 C 0.32243 0.22759 0.20305 0.0
C447 C 0.36192 0.25073 0.21309 0.0
C448 C 0.31724 0.20317 0.18327 0.0
C449 C 0.35148 0.20165 0.17323 0.0
C450 C 0.39166 0.22915 0.18128 0.0
C451 C 0.3968 0.25343 0.20102 0.0
H452 H 0.84924 0.29953 0.09547 0.0
H453 H 0.94182 0.2848 0.13148 0.0
H454 H 0.7948 0.24921 0.12257 0.0
H455 H 0.88813 0.23487 0.15784 0.0
H456 H 0.78444 0.12662 0.19301 0.0
H457 H 0.82412 0.16438 0.15757 0.0
H458 H 0.77995 0.24797 0.16773 0.0
H459 H 0.74049 0.21047 0.20311 0.0
C460 C 0.85792 0.28545 0.10898 0.0
C461 C 0.89994 0.29653 0.11144 0.0
C462 C 0.82682 0.25664 0.12444 0.0
C463 C 0.8371 0.2377 0.14218 0.0
C464 C 0.87896 0.24826 0.14415 0.0
C465 C 0.90989 0.27738 0.12915 0.0
C466 C 0.78202 0.15219 0.18723 0.0
C467 C 0.75964 0.16575 0.20104 0.0
C468 C 0.80504 0.17404 0.16703 0.0
C469 C 0.80564 0.20953 0.16005 0.0
C470 C 0.7801 0.22079 0.17258 0.0
C471 C 0.75758 0.19931 0.19292 0.0
H472 H 0.87168 0.62936 0.23881 0.0
H473 H 0.91572 0.59523 0.17632 0.0
H474 H 0.81987 0.63307 0.21545 0.0
H475 H 0.86541 0.60131 0.15238 0.0
H476 H 0.74157 0.57493 0.12036 0.0
H477 H 0.79505 0.57128 0.14292 0.0
H478 H 0.80737 0.6686 0.18792 0.0
H479 H 0.7528 0.67018 0.16657 0.0
C480 C 0.87104 0.62373 0.2199 0.0
C481 C 0.89799 0.6122 0.20943 0.0
C482 C 0.84124 0.62592 0.20637 0.0
C483 C 0.8381 0.61753 0.18182 0.0
C484 C 0.86608 0.60721 0.17124 0.0
C485 C 0.89538 0.60423 0.18492 0.0
C486 C 0.75563 0.5952 0.13521 0.0
C487 C 0.74244 0.62234 0.14188 0.0
C488 C 0.7866 0.59346 0.14807 0.0
C489 C 0.80564 0.61944 0.16755 0.0
C490 C 0.79288 0.64718 0.17363 0.0
C491 C 0.76153 0.64826 0.1612 0.0
H492 H 0.63643 0.88124 0.89083 0.0
H493 H 0.76982 0.93426 0.88216 0.0
H494 H 0.62596 0.83853 0.85616 0.0
H495 H 0.75939 0.89139 0.84784 0.0
H496 H 0.72618 0.80632 0.78436 0.0
H497 H 0.73249 0.86403 0.80726 0.0
H498 H 0.63836 0.78085 0.85717 0.0
H499 H 0.63225 0.7241 0.83477 0.0
C500 C 0.66353 0.88499 0.88098 0.0
C501 C 0.70388 0.9105 0.88948 0.0
C502 C 0.65756 0.86026 0.86126 0.0
C503 C 0.69184 0.86089 0.84964 0.0
C504 C 0.73234 0.89005 0.85639 0.0
C505 C 0.73828 0.91453 0.87616 0.0
C506 C 0.70679 0.80056 0.80017 0.0
C507 C 0.67911 0.76063 0.80788 0.0
C508 C 0.71026 0.83351 0.8132 0.0
C509 C 0.6855 0.827 0.83386 0.0
C510 C 0.65722 0.78703 0.84109 0.0
C511 C 0.65421 0.75439 0.82838 0.0
H512 H 0.07596 0.87951 0.86946 0.0
H513 H 0.09595 0.78047 0.85298 0.0
H514 H 0.11586 0.9154 0.83391 0.0
H515 H 0.13573 0.81638 0.81717 0.0
H516 H 0.26268 0.92455 0.78981 0.0
H517 H 0.20622 0.8779 0.81602 0.0
H518 H 0.12754 0.92065 0.78958 0.0
H519 H 0.18484 0.96795 0.76283 0.0
C520 C 0.08775 0.86479 0.85783 0.0
C521 C 0.08323 0.82732 0.86426 0.0
C522 C 0.11054 0.88537 0.83736 0.0
C523 C 0.12966 0.86914 0.82291 0.0
C524 C 0.12192 0.83 0.82816 0.0
C525 C 0.09876 0.8092 0.84857 0.0
C526 C 0.23335 0.92404 0.78937 0.0
C527 C 0.2285 0.95039 0.77433 0.0
C528 C 0.20068 0.89678 0.80426 0.0
C529 C 0.16215 0.89518 0.8048 0.0
C530 C 0.15687 0.92112 0.78955 0.0
C531 C 0.18963 0.9482 0.77426 0.0
H532 H 0.22418 0.33077 0.89775 0.0
H533 H 0.23813 0.25241 0.84761 0.0
H534 H 0.16892 0.32791 0.87381 0.0
H535 H 0.18241 0.24884 0.82402 0.0
H536 H 0.10284 0.28139 0.77693 0.0
H537 H 0.16119 0.28559 0.79855 0.0
H538 H 0.09742 0.27829 0.86505 0.0
H539 H 0.03983 0.27476 0.84358 0.0
C540 C 0.2158 0.31328 0.88152 0.0
C541 C 0.23555 0.29171 0.87471 0.0
C542 C 0.18377 0.31126 0.86789 0.0
C543 C 0.1707 0.28764 0.8471 0.0
C544 C 0.19168 0.26745 0.83981 0.0
C545 C 0.22362 0.26943 0.85344 0.0
C546 C 0.10103 0.28001 0.79615 0.0
C547 C 0.06668 0.27788 0.80849 0.0
C548 C 0.13456 0.28257 0.80857 0.0
C549 C 0.13444 0.28305 0.83361 0.0
C550 C 0.0992 0.27914 0.84582 0.0
C551 C 0.06587 0.27663 0.83346 0.0
H552 H 0.96867 0.38501 0.50254 0.0
H553 H 0.05906 0.46988 0.45168 0.0
H554 H 0.97098 0.44028 0.5248 0.0
H555 H 0.0617 0.52619 0.4745 0.0
H556 H 0.09757 0.59477 0.55033 0.0
H557 H 0.08872 0.55347 0.51544 0.0
H558 H 0.95483 0.49583 0.52409 0.0
H559 H 0.96373 0.53708 0.55929 0.0
C560 C 0.98899 0.4156 0.49601 0.0
C561 C 0.01417 0.42309 0.4755 0.0
C562 C 0.98979 0.44734 0.50863 0.0
C563 C 0.01618 0.48765 0.50132 0.0
C564 C 0.0409 0.49536 0.48049 0.0
C565 C 0.03952 0.46325 0.46751 0.0
C566 C 0.06622 0.57432 0.54428 0.0
C567 C 0.03131 0.56855 0.55782 0.0
C568 C 0.06118 0.55078 0.52419 0.0
C569 C 0.0211 0.52078 0.51733 0.0
C570 C 0.98614 0.51832 0.52923 0.0
C571 C 0.9912 0.54216 0.54927 0.0
H572 H 0.54129 0.64922 0.44579 0.0
H573 H 0.5182 0.53798 0.41264 0.0
H574 H 0.49092 0.61029 0.47738 0.0
H575 H 0.46683 0.49894 0.4437 0.0
H576 H 0.42941 0.44993 0.52111 0.0
H577 H 0.46614 0.48238 0.48406 0.0
H578 H 0.42107 0.56608 0.48984 0.0
H579 H 0.38571 0.53448 0.52724 0.0
C580 C 0.52471 0.61644 0.44493 0.0
C581 C 0.53408 0.5968 0.42678 0.0
C582 C 0.49562 0.59396 0.46304 0.0
C583 C 0.47483 0.55123 0.46333 0.0
C584 C 0.48274 0.53169 0.44444 0.0
C585 C 0.51205 0.55415 0.42649 0.0
C586 C 0.42642 0.47452 0.51412 0.0
C587 C 0.4049 0.48978 0.52724 0.0
C588 C 0.44759 0.49331 0.49283 0.0
C589 C 0.44736 0.52753 0.48403 0.0
C590 C 0.42305 0.54063 0.49631 0.0
C591 C 0.40232 0.52217 0.51766 0.0
H592 H 0.59791 0.95734 0.50112 0.0
H593 H 0.54757 0.98402 0.56385 0.0
H594 H 0.5414 0.95302 0.47784 0.0
H595 H 0.48985 0.97741 0.54113 0.0
H596 H 0.41044 -0.00083 0.49196 0.0
H597 H 0.4692 0.00637 0.51339 0.0
H598 H 0.47047 0.91392 0.46948 0.0
H599 H 0.41251 0.9086 0.44687 0.0
C600 C 0.57478 0.9624 0.50992 0.0
C601 C 0.57748 0.97141 0.53429 0.0
C602 C 0.54198 0.9594 0.49662 0.0
C603 C 0.51055 0.96463 0.50745 0.0
C604 C 0.51366 0.97399 0.53187 0.0
C605 C 0.54686 0.97774 0.54502 0.0
C606 C 0.42301 0.98013 0.48687 0.0
C607 C 0.40646 0.95304 0.46775 0.0
C608 C 0.45681 0.98412 0.49935 0.0
C609 C 0.47479 0.96053 0.4935 0.0
C610 C 0.45804 0.93312 0.47439 0.0
C611 C 0.4245 0.92969 0.46153 0.0
H612 H 0.23186 0.85343 0.08517 0.0
H613 H 0.1916 0.9408 0.08955 0.0
H614 H 0.17294 0.81045 0.0602 0.0
H615 H 0.1327 0.89791 0.06425 0.0
H616 H 0.11657 0.85782 0.98244 0.0
H617 H 0.1459 0.88899 0.02031 0.0
H618 H 0.09486 0.77063 0.05224 0.0
H619 H 0.06498 0.73917 0.01431 0.0
C620 C 0.20927 0.86249 0.08164 0.0
C621 C 0.21632 0.90042 0.08901 0.0
C622 C 0.17551 0.8379 0.06738 0.0
C623 C 0.14871 0.85124 0.06005 0.0
C624 C 0.15317 0.88717 0.06957 0.0
C625 C 0.18664 0.9115 0.08418 0.0
C626 C 0.11058 0.83838 0.99762 0.0
C627 C 0.0889 0.79606 0.99529 0.0
C628 C 0.12708 0.85625 0.01941 0.0
C629 C 0.12253 0.83214 0.03918 0.0
C630 C 0.09876 0.78982 0.03723 0.0
C631 C 0.08187 0.77192 0.01549 0.0
H632 H 0.04951 0.28782 0.06523 0.0
H633 H 0.12077 0.3967 0.02317 0.0
H634 H 0.09427 0.26263 0.05011 0.0
H635 H 0.16488 0.37135 0.00796 0.0
H636 H 0.19879 0.29396 0.96311 0.0
H637 H 0.15186 0.31394 0.98078 0.0
H638 H 0.16988 0.2787 0.05001 0.0
H639 H 0.21715 0.25844 0.03236 0.0
C640 C 0.07494 0.30655 0.05297 0.0
C641 C 0.08114 0.34395 0.04505 0.0
C642 C 0.10049 0.29209 0.04432 0.0
C643 C 0.1325 0.31469 0.02752 0.0
C644 C 0.13976 0.35282 0.02045 0.0
C645 C 0.11451 0.36736 0.02919 0.0
C646 C 0.1925 0.28993 0.98207 0.0
C647 C 0.21218 0.27495 0.99633 0.0
C648 C 0.16579 0.30169 0.9922 0.0
C649 C 0.15784 0.29856 0.01681 0.0
C650 C 0.17556 0.28151 0.03098 0.0
C651 C 0.20262 0.26993 0.02085 0.0
H652 H 0.76476 0.78167 0.09179 0.0
H653 H 0.6366 0.75281 0.09648 0.0
H654 H 0.78507 0.84751 0.07402 0.0
H655 H 0.65673 0.8184 0.07929 0.0
H656 H 0.69346 0.93348 0.04811 0.0
H657 H 0.70024 0.89541 0.08037 0.0
H658 H 0.76247 0.85384 0.03229 0.0
H659 H 0.75571 0.8917 1.00003 0.0
C660 C 0.74134 0.7902 0.08998 0.0
C661 C 0.69912 0.76237 0.0953 0.0
C662 C 0.75291 0.82769 0.07976 0.0
C663 C 0.72248 0.83796 0.07524 0.0
C664 C 0.68098 0.81157 0.08282 0.0
C665 C 0.66934 0.77392 0.09253 0.0
C666 C 0.70988 0.91735 0.04459 0.0
C667 C 0.72306 0.91465 0.0214 0.0
C668 C 0.7138 0.89566 0.06309 0.0
C669 C 0.73125 0.87124 0.05871 0.0
C670 C 0.74903 0.87257 0.0362 0.0
C671 C 0.74487 0.89405 0.01765 0.0
H672 H 0.84639 0.07169 0.93804 0.0
H673 H 0.75735 0.07098 0.98878 0.0
H674 H 0.89245 0.14415 0.94422 0.0
H675 H 0.80434 0.14228 0.9966 0.0
H676 H 0.88656 0.27527 1.00211 0.0
H677 H 0.83687 0.20889 0.98634 0.0
H678 H 0.93837 0.18691 0.97152 0.0
H679 H 0.98783 0.25458 0.98541 0.0
C680 C 0.83676 0.08723 0.95049 0.0
C681 C 0.79853 0.06598 0.96298 0.0
C682 C 0.86327 0.12866 0.95427 0.0
C683 C 0.85267 0.14934 0.97122 0.0
C684 C 0.81356 0.12797 0.98309 0.0
C685 C 0.78657 0.08689 0.97876 0.0
C686 C 0.898 0.25622 0.99513 0.0
C687 C 0.94076 0.26967 0.99498 0.0
C688 C 0.86959 0.21803 0.98626 0.0
C689 C 0.88326 0.19195 0.97783 0.0
C690 C 0.92643 0.20611 0.97734 0.0
C691 C 0.9549 0.2448 0.98551 0.0
H692 H 0.77377 0.66518 0.04332 0.0
H693 H 0.74476 0.74258 1.00279 0.0
H694 H 0.83295 0.68241 0.0166 0.0
H695 H 0.80373 0.75933 0.97593 0.0
H696 H 0.91744 0.69574 0.95471 0.0
H697 H 0.85074 0.67399 0.97509 0.0
H698 H 0.88037 0.79836 0.97888 0.0
H699 H 0.94672 0.82017 0.9583 0.0
C700 C 0.77981 0.68567 0.02865 0.0
C701 C 0.75458 0.70264 0.02531 0.0
C702 C 0.81352 0.69524 0.0132 0.0
C703 C 0.8229 0.72212 0.99411 0.0
C704 C 0.79743 0.73873 0.99058 0.0
C705 C 0.76358 0.72902 0.00596 0.0
C706 C 0.90939 0.71839 0.95942 0.0
C707 C 0.93767 0.75978 0.95507 0.0
C708 C 0.87132 0.70592 0.97129 0.0
C709 C 0.86059 0.73451 0.97887 0.0
C710 C 0.88766 0.77557 0.97319 0.0
C711 C 0.9258 0.78808 0.96146 0.0
H712 H 0.21763 0.13772 0.94488 0.0
H713 H 0.34422 0.20127 0.96992 0.0
H714 H 0.20447 0.07662 0.96684 0.0
H715 H 0.33097 0.14139 0.99156 0.0
H716 H 0.27622 0.06061 0.05463 0.0
H717 H 0.26973 0.1074 0.02872 0.0
H718 H 0.24877 0.02859 0.96904 0.0
H719 H 0.25512 0.98104 0.99501 0.0
C720 C 0.24267 0.1384 0.95467 0.0
C721 C 0.28169 0.17433 0.95609 0.0
C722 C 0.23513 0.10367 0.96719 0.0
C723 C 0.2666 0.10494 0.9811 0.0
C724 C 0.3061 0.14006 0.98123 0.0
C725 C 0.31358 0.17429 0.96885 0.0
C726 C 0.26936 0.05266 0.03611 0.0
C727 C 0.2672 0.0176 0.02676 0.0
C728 C 0.26534 0.07932 0.02136 0.0
C729 C 0.25903 0.07149 0.99699 0.0
C730 C 0.25334 0.03494 0.98786 0.0
C731 C 0.25727 0.008 1.0027 0.0
H732 H 0.86435 0.28136 0.42871 0.0
H733 H 0.88801 0.18231 0.42656 0.0
H734 H 0.80533 0.24405 0.40252 0.0
H735 H 0.82883 0.1448 0.40075 0.0
H736 H 0.72404 0.08295 0.35338 0.0
H737 H 0.75238 0.11333 0.39167 0.0
H738 H 0.81641 0.23195 0.35899 0.0
H739 H 0.788 0.20166 0.32064 0.0
C740 C 0.85555 0.25073 0.42368 0.0
C741 C 0.88078 0.23466 0.42943 0.0
C742 C 0.82206 0.22961 0.40851 0.0
C743 C 0.81293 0.19186 0.39938 0.0
C744 C 0.83499 0.17377 0.40761 0.0
C745 C 0.86886 0.19516 0.42241 0.0
C746 C 0.74332 0.11563 0.35445 0.0
C747 C 0.75456 0.13992 0.33393 0.0
C748 C 0.75938 0.13294 0.3764 0.0
C749 C 0.7868 0.17485 0.37824 0.0
C750 C 0.79497 0.19954 0.35814 0.0
C751 C 0.77897 0.18218 0.33612 0.0
H752 H 0.87053 0.57013 0.3676 0.0
H753 H 0.86239 0.61621 0.29937 0.0
H754 H 0.82561 0.59322 0.38532 0.0
H755 H 0.81768 0.6388 0.31703 0.0
H756 H 0.78239 0.71695 0.35994 0.0
H757 H 0.82776 0.69251 0.34562 0.0
H758 H 0.75177 0.58007 0.38374 0.0
H759 H 0.70598 0.60456 0.39811 0.0
C760 C 0.85901 0.58488 0.35635 0.0
C761 C 0.87036 0.59153 0.33208 0.0
C762 C 0.83321 0.59799 0.36651 0.0
C763 C 0.8186 0.61827 0.35262 0.0
C764 C 0.82913 0.62397 0.32829 0.0
C765 C 0.85458 0.61073 0.31814 0.0
C766 C 0.7753 0.68703 0.36531 0.0
C767 C 0.74018 0.66242 0.37981 0.0
C768 C 0.80129 0.67301 0.35708 0.0
C769 C 0.79291 0.63412 0.36325 0.0
C770 C 0.75899 0.6102 0.37872 0.0
C771 C 0.73279 0.62422 0.38691 0.0
H772 H 0.40004 0.21761 0.3238 0.0
H773 H 0.31809 0.23766 0.37012 0.0
H774 H 0.40309 0.17381 0.35367 0.0
H775 H 0.32079 0.19321 0.39988 0.0
H776 H 0.40682 0.1005 0.41425 0.0
H777 H 0.42013 0.1649 0.39739 0.0
H778 H 0.2873 0.11582 0.39232 0.0
H779 H 0.27413 0.05157 0.40858 0.0
C780 C 0.38369 0.21368 0.34059 0.0
C781 C 0.35829 0.23057 0.34443 0.0
C782 C 0.38567 0.18877 0.35778 0.0
C783 C 0.36188 0.17996 0.37894 0.0
C784 C 0.33925 0.19948 0.38362 0.0
C785 C 0.33775 0.22488 0.36657 0.0
C786 C 0.38057 0.10402 0.41015 0.0
C787 C 0.33947 0.07121 0.41252 0.0
C788 C 0.38818 0.14071 0.40048 0.0
C789 C 0.35474 0.14522 0.39364 0.0
C790 C 0.31362 0.11331 0.39774 0.0
C791 C 0.30608 0.07649 0.40688 0.0
H792 H 0.64884 0.57955 0.31677 0.0
H793 H 0.54885 0.60237 0.33286 0.0
H794 H 0.59863 0.51194 0.30311 0.0
H795 H 0.49848 0.53613 0.31727 0.0
H796 H 0.41567 0.39923 0.31943 0.0
H797 H 0.46483 0.4698 0.32792 0.0
H798 H 0.55231 0.46867 0.27623 0.0
H799 H 0.50394 0.39682 0.26941 0.0
C800 C 0.61606 0.57033 0.31669 0.0
C801 C 0.60248 0.59578 0.32595 0.0
C802 C 0.58715 0.53162 0.3087 0.0
C803 C 0.5441 0.51802 0.30918 0.0
C804 C 0.53105 0.54478 0.31726 0.0
C805 C 0.55988 0.58295 0.32596 0.0
C806 C 0.44535 0.41429 0.3098 0.0
C807 C 0.45626 0.39273 0.29391 0.0
C808 C 0.47356 0.45498 0.31448 0.0
C809 C 0.51293 0.47541 0.30282 0.0
C810 C 0.5229 0.45396 0.28607 0.0
C811 C 0.4951 0.41286 0.28196 0.0
H812 H 0.60368 0.14186 0.28491 0.0
H813 H 0.59126 0.0236 0.2879 0.0
H814 H 0.53401 0.11389 0.30249 0.0
H815 H 0.52121 0.99559 0.3053 0.0
H816 H 0.43467 0.98372 0.36977 0.0
H817 H 0.49702 0.00467 0.34509 0.0
H818 H 0.45852 0.06664 0.29755 0.0
H819 H 0.39626 0.04612 0.32233 0.0
C820 C 0.58577 0.10971 0.28884 0.0
C821 C 0.60329 0.08509 0.28523 0.0
C822 C 0.54572 0.09365 0.29884 0.0
C823 C 0.52235 0.05265 0.30555 0.0
C824 C 0.5388 0.02746 0.30064 0.0
C825 C 0.57879 0.04347 0.29048 0.0
C826 C 0.43931 0.00163 0.354 0.0
C827 C 0.41054 0.01346 0.34815 0.0
C828 C 0.47488 0.01331 0.33973 0.0
C829 C 0.48262 0.03723 0.31935 0.0
C830 C 0.45353 0.04845 0.31324 0.0
C831 C 0.41782 0.0366 0.32744 0.0
H832 H 0.87384 0.48271 0.32098 0.0
H833 H 0.92916 0.44782 0.26454 0.0
H834 H 0.86444 0.42592 0.34515 0.0
H835 H 0.92066 0.39137 0.28872 0.0
H836 H 0.94301 0.3875 0.38937 0.0
H837 H 0.92275 0.42446 0.36354 0.0
H838 H 0.87843 0.32767 0.31221 0.0
H839 H 0.89909 0.29039 0.33813 0.0
C840 C 0.88228 0.46172 0.31343 0.0
C841 C 0.90192 0.46913 0.291 0.0
C842 C 0.87733 0.42953 0.32729 0.0
C843 C 0.89255 0.40469 0.319 0.0
C844 C 0.90839 0.40981 0.29555 0.0
C845 C 0.91319 0.442 0.28166 0.0
C846 C 0.92856 0.37377 0.37271 0.0
C847 C 0.92332 0.33628 0.36567 0.0
C848 C 0.91644 0.39478 0.358 0.0
C849 C 0.89886 0.37891 0.33584 0.0
C850 C 0.89206 0.34068 0.32914 0.0
C851 C 0.90394 0.31942 0.34399 0.0
H852 H 0.44029 0.54025 0.64498 0.0
H853 H 0.37409 0.42574 0.68239 0.0
H854 H 0.47095 0.57445 0.68217 0.0
H855 H 0.40466 0.46001 0.71948 0.0
H856 H 0.54302 0.52654 0.75051 0.0
H857 H 0.48201 0.48917 0.72597 0.0
H858 H 0.46439 0.5921 0.72563 0.0
H859 H 0.52534 0.62932 0.7507 0.0
C860 C 0.43119 0.52262 0.66124 0.0
C861 C 0.40576 0.48027 0.66071 0.0
C862 C 0.44848 0.54222 0.68257 0.0
C863 C 0.44051 0.51968 0.7036 0.0
C864 C 0.41158 0.47794 0.70345 0.0
C865 C 0.39429 0.45839 0.68218 0.0
C866 C 0.52495 0.54042 0.74607 0.0
C867 C 0.53871 0.58062 0.75235 0.0
C868 C 0.48998 0.51908 0.73208 0.0
C869 C 0.46872 0.53795 0.72379 0.0
C870 C 0.48034 0.57699 0.7318 0.0
C871 C 0.51495 0.5981 0.74625 0.0
H872 H 0.57053 0.94634 0.69298 0.0
H873 H 0.54167 0.96863 0.62281 0.0
H874 H 0.51902 0.96154 0.7102 0.0
H875 H 0.49062 0.98351 0.63999 0.0
H876 H 0.44694 0.05934 0.6794 0.0
H877 H 0.49655 0.0404 0.66464 0.0
H878 H 0.44112 0.93644 0.71143 0.0
H879 H 0.39092 0.95525 0.72619 0.0
C880 C 0.55298 0.954 0.68122 0.0
C881 C 0.56061 0.95661 0.65652 0.0
C882 C 0.52346 0.96263 0.69109 0.0
C883 C 0.50129 0.97429 0.67645 0.0
C884 C 0.50785 0.97541 0.65176 0.0
C885 C 0.53701 0.96662 0.64192 0.0
C886 C 0.44507 0.03232 0.68648 0.0
C887 C 0.41447 0.00841 0.70366 0.0
C888 C 0.47353 0.02147 0.67802 0.0
C889 C 0.47233 0.98662 0.68665 0.0
C890 C 0.44278 0.96347 0.70448 0.0
C891 C 0.41402 0.97421 0.71287 0.0
H892 H 0.97424 0.42513 0.77222 0.0
H893 H 0.09877 0.44645 0.76032 0.0
H894 H 0.9946 0.4897 0.75365 0.0
H895 H 0.11941 0.51143 0.74133 0.0
H896 H 0.08346 0.55007 0.66848 0.0
H897 H 0.09305 0.51548 0.70147 0.0
H898 H 0.03829 0.56466 0.74968 0.0
H899 H 0.02831 0.59914 0.71656 0.0
C900 C 0.00651 0.44459 0.76652 0.0
C901 C 0.03489 0.43095 0.76754 0.0
C902 C 0.01831 0.4817 0.75595 0.0
C903 C 0.05855 0.50548 0.74581 0.0
C904 C 0.08817 0.4936 0.74893 0.0
C905 C 0.07646 0.45662 0.75992 0.0
C906 C 0.07481 0.55472 0.68621 0.0
C907 C 0.0541 0.5764 0.68983 0.0
C908 C 0.08063 0.53512 0.7052 0.0
C909 C 0.06576 0.53685 0.72811 0.0
C910 C 0.04952 0.56241 0.73214 0.0
C911 C 0.04376 0.58207 0.71315 0.0
H912 H 0.21623 0.91552 0.68781 0.0
H913 H 0.29683 0.93551 0.62652 0.0
H914 H 0.16747 0.84774 0.67374 0.0
H915 H 0.24748 0.86765 0.61231 0.0
H916 H 0.18469 0.7272 0.62137 0.0
H917 H 0.22827 0.79984 0.62713 0.0
H918 H 0.11834 0.80777 0.64218 0.0
H919 H 0.07446 0.73474 0.63676 0.0
C920 C 0.2233 0.90572 0.67116 0.0
C921 C 0.26071 0.93079 0.65845 0.0
C922 C 0.19512 0.86695 0.663 0.0
C923 C 0.20377 0.85238 0.64197 0.0
C924 C 0.24027 0.87801 0.62871 0.0
C925 C 0.26844 0.91689 0.63683 0.0
C926 C 0.16967 0.74441 0.62561 0.0
C927 C 0.12611 0.72505 0.62894 0.0
C928 C 0.19468 0.78615 0.62871 0.0
C929 C 0.1767 0.8094 0.63525 0.0
C930 C 0.13303 0.79044 0.63742 0.0
C931 C 0.10794 0.74866 0.63422 0.0
H932 H 0.10049 0.43449 0.68883 0.0
H933 H 0.0674 0.30939 0.69335 0.0
H934 H 0.15612 0.44781 0.66025 0.0
H935 H 0.1205 0.32134 0.66327 0.0
H936 H 0.25339 0.36842 0.63477 0.0
H937 H 0.19007 0.34861 0.65768 0.0
H938 H 0.17822 0.4425 0.62306 0.0
H939 H 0.24392 0.46425 0.60157 0.0
C940 C 0.10483 0.40971 0.68333 0.0
C941 C 0.08021 0.37111 0.69345 0.0
C942 C 0.13641 0.41711 0.66668 0.0
C943 C 0.14324 0.3857 0.65922 0.0
C944 C 0.11726 0.34666 0.66888 0.0
C945 C 0.0866 0.33965 0.68607 0.0
C946 C 0.23669 0.38418 0.63164 0.0
C947 C 0.25367 0.41801 0.61649 0.0
C948 C 0.20009 0.37278 0.64482 0.0
C949 C 0.17891 0.39429 0.64271 0.0
C950 C 0.19421 0.42601 0.62591 0.0
C951 C 0.23154 0.43815 0.61325 0.0
H952 H 0.58174 0.65755 0.66239 0.0
H953 H 0.63658 0.74935 0.71676 0.0
H954 H 0.58057 0.70719 0.63578 0.0
H955 H 0.63511 0.79818 0.69028 0.0
H956 H 0.69194 0.88256 0.62788 0.0
H957 H 0.68064 0.82503 0.65131 0.0
H958 H 0.55076 0.75963 0.63245 0.0
H959 H 0.56211 0.81827 0.60861 0.0
C960 C 0.59294 0.68801 0.6688 0.0
C961 C 0.6101 0.69973 0.69154 0.0
C962 C 0.59199 0.71622 0.65361 0.0
C963 C 0.60829 0.75645 0.66094 0.0
C964 C 0.62291 0.76739 0.68413 0.0
C965 C 0.62379 0.73939 0.69927 0.0
C966 C 0.66096 0.85586 0.62849 0.0
C967 C 0.6277 0.85509 0.6168 0.0
C968 C 0.65453 0.823 0.64195 0.0
C969 C 0.61468 0.78845 0.64408 0.0
C970 C 0.58172 0.78623 0.63114 0.0
C971 C 0.58821 0.81955 0.61752 0.0
loop_
_geom_bond_atom_site_label_1
_geom_bond_atom_site_label_2
_geom_bond_distance
_geom_bond_site_symmetry_2
_ccdc_geom_bond_type
Mg0 O1 2.028 . S
Mg0 O7 1.986 . S
Mg0 O9 2.114 1_545 S
Mg0 O10 2.251 1_545 S
Mg0 O13 2.010 . S
O1 Mg0 2.028 . S
O1 C4 1.250 . S
O2 Mg3 2.028 . S
O2 C4 1.248 . S
Mg3 O2 2.028 . S
Mg3 O8 2.032 . S
Mg3 O10 2.079 1_545 S
C4 O1 1.250 . S
C4 O2 1.248 . S
C5 O6 1.264 . S
C5 O13 1.249 . S
O6 C5 1.264 . S
O7 Mg0 1.986 . S
O7 C11 1.246 . S
O8 Mg3 2.032 . S
O8 C11 1.259 . S
O9 Mg0 2.114 1_565 S
O9 C12 1.252 . S
O10 Mg0 2.251 1_565 S
O10 Mg3 2.079 1_565 S
O10 C12 1.273 . S
C11 O7 1.246 . S
C11 O8 1.259 . S
C12 O9 1.252 . S
C12 O10 1.273 . S
O13 Mg0 2.010 . S
O13 C5 1.249 . S
Mg14 O15 2.028 . S
Mg14 O21 1.986 . S
Mg14 O23 2.114 1_655 S
Mg14 O24 2.251 1_655 S
Mg14 O27 2.010 . S
O15 Mg14 2.028 . S
O15 C18 1.250 . S
O16 Mg17 2.028 1_554 S
O16 C18 1.248 . S
Mg17 O16 2.028 1_556 S
Mg17 O22 2.032 1_556 S
Mg17 O24 2.079 1_656 S
C18 O15 1.250 . S
C18 O16 1.248 . S
C19 O20 1.264 . S
C19 O27 1.249 . S
O20 C19 1.264 . S
O21 Mg14 1.986 . S
O21 C25 1.246 . S
O22 Mg17 2.032 1_554 S
O22 C25 1.259 . S
O23 Mg14 2.114 1_455 S
O23 C26 1.252 . S
O24 Mg14 2.251 1_455 S
O24 Mg17 2.079 1_454 S
O24 C26 1.273 . S
C25 O21 1.246 . S
C25 O22 1.259 . S
C26 O23 1.252 . S
C26 O24 1.273 . S
O27 Mg14 2.010 . S
O27 C19 1.249 . S
Mg28 O29 2.028 . S
Mg28 O35 1.986 . S
Mg28 O37 2.114 . S
Mg28 O38 2.251 . S
Mg28 O41 2.010 . S
O29 Mg28 2.028 . S
O29 C32 1.250 . S
O30 Mg31 2.028 . S
O30 C32 1.248 . S
Mg31 O30 2.028 . S
Mg31 O36 2.032 . S
Mg31 O38 2.079 . S
C32 O29 1.250 . S
C32 O30 1.248 . S
C33 O34 1.264 . S
C33 O41 1.249 . S
O34 C33 1.264 . S
O35 Mg28 1.986 . S
O35 C39 1.246 . S
O36 Mg31 2.032 . S
O36 C39 1.259 . S
O37 Mg28 2.114 . S
O37 C40 1.252 . S
O38 Mg28 2.251 . S
O38 Mg31 2.079 . S
O38 C40 1.273 . S
C39 O35 1.246 . S
C39 O36 1.259 . S
C40 O37 1.252 . S
C40 O38 1.273 . S
O41 Mg28 2.010 . S
O41 C33 1.249 . S
Mg42 O43 2.028 1_565 S
Mg42 O49 1.986 . S
Mg42 O51 2.114 . S
Mg42 O52 2.251 . S
Mg42 O55 2.010 . S
O43 Mg42 2.028 1_545 S
O43 C46 1.250 . S
O44 Mg45 2.028 1_545 S
O44 C46 1.248 . S
Mg45 O44 2.028 1_565 S
Mg45 O50 2.032 . S
Mg45 O52 2.079 . S
C46 O43 1.250 . S
C46 O44 1.248 . S
C47 O48 1.264 . S
C47 O55 1.249 . S
O48 C47 1.264 . S
O49 Mg42 1.986 . S
O49 C53 1.246 . S
O50 Mg45 2.032 . S
O50 C53 1.259 . S
O51 Mg42 2.114 . S
O51 C54 1.252 . S
O52 Mg42 2.251 . S
O52 Mg45 2.079 . S
O52 C54 1.273 . S
C53 O49 1.246 . S
C53 O50 1.259 . S
C54 O51 1.252 . S
C54 O52 1.273 . S
O55 Mg42 2.010 . S
O55 C47 1.249 . S
Mg56 O57 2.028 1_455 S
Mg56 O63 1.986 . S
Mg56 O65 2.114 . S
Mg56 O66 2.251 . S
Mg56 O69 2.010 . S
O57 Mg56 2.028 1_655 S
O57 C60 1.250 . S
O58 Mg59 2.028 1_655 S
O58 C60 1.248 . S
Mg59 O58 2.028 1_455 S
Mg59 O64 2.032 . S
Mg59 O66 2.079 . S
C60 O57 1.250 . S
C60 O58 1.248 . S
C61 O62 1.264 . S
C61 O69 1.249 . S
O62 C61 1.264 . S
O63 Mg56 1.986 . S
O63 C67 1.246 . S
O64 Mg59 2.032 . S
O64 C67 1.259 . S
O65 Mg56 2.114 . S
O65 C68 1.252 . S
O66 Mg56 2.251 . S
O66 Mg59 2.079 . S
O66 C68 1.273 . S
C67 O63 1.246 . S
C67 O64 1.259 . S
C68 O65 1.252 . S
C68 O66 1.273 . S
O69 Mg56 2.010 . S
O69 C61 1.249 . S
Mg70 O71 2.028 . S
Mg70 O77 1.986 . S
Mg70 O79 2.114 . S
Mg70 O80 2.251 . S
Mg70 O83 2.010 . S
O71 Mg70 2.028 . S
O71 C74 1.250 . S
O72 Mg73 2.028 . S
O72 C74 1.248 . S
Mg73 O72 2.028 . S
Mg73 O78 2.032 . S
Mg73 O80 2.079 . S
C74 O71 1.250 . S
C74 O72 1.248 . S
C75 O76 1.264 . S
C75 O83 1.249 . S
O76 C75 1.264 . S
O77 Mg70 1.986 . S
O77 C81 1.246 . S
O78 Mg73 2.032 . S
O78 C81 1.259 . S
O79 Mg70 2.114 . S
O79 C82 1.252 . S
O80 Mg70 2.251 . S
O80 Mg73 2.079 . S
O80 C82 1.273 . S
C81 O77 1.246 . S
C81 O78 1.259 . S
C82 O79 1.252 . S
C82 O80 1.273 . S
O83 Mg70 2.010 . S
O83 C75 1.249 . S
Mg84 O85 2.028 . S
Mg84 O91 1.986 1_655 S
Mg84 O93 2.114 . S
Mg84 O94 2.251 . S
Mg84 O97 2.010 1_655 S
O85 Mg84 2.028 . S
O85 C88 1.250 . S
O86 Mg87 2.027 . S
O86 C88 1.248 . S
Mg87 O86 2.027 . S
Mg87 O92 2.034 1_655 S
Mg87 O94 2.078 . S
C88 O85 1.250 . S
C88 O86 1.248 . S
C89 O90 1.264 . S
C89 O97 1.249 1_655 S
O90 C89 1.264 . S
O91 Mg84 1.986 1_455 S
O91 C95 1.246 . S
O92 Mg87 2.034 1_455 S
O92 C95 1.259 . S
O93 Mg84 2.114 . S
O93 C96 1.252 . S
O94 Mg84 2.251 . S
O94 Mg87 2.078 . S
O94 C96 1.273 . S
C95 O91 1.246 . S
C95 O92 1.259 . S
C96 O93 1.252 . S
C96 O94 1.273 . S
O97 Mg84 2.010 1_455 S
O97 C89 1.249 1_455 S
Mg98 O99 2.028 . S
Mg98 O105 1.986 . S
Mg98 O107 2.114 . S
Mg98 O108 2.251 . S
Mg98 O111 2.010 . S
O99 Mg98 2.028 . S
O99 C102 1.250 . S
O100 Mg101 2.028 . S
O100 C102 1.248 . S
Mg101 O100 2.028 . S
Mg101 O106 2.032 . S
Mg101 O108 2.079 . S
C102 O99 1.250 . S
C102 O100 1.248 . S
C103 O104 1.264 . S
C103 O111 1.249 . S
O104 C103 1.264 . S
O105 Mg98 1.986 . S
O105 C109 1.246 . S
O106 Mg101 2.032 . S
O106 C109 1.259 . S
O107 Mg98 2.114 . S
O107 C110 1.252 . S
O108 Mg98 2.251 . S
O108 Mg101 2.079 . S
O108 C110 1.273 . S
C109 O105 1.246 . S
C109 O106 1.259 . S
C110 O107 1.252 . S
C110 O108 1.273 . S
O111 Mg98 2.010 . S
O111 C103 1.249 . S
Mg112 O113 2.028 . S
Mg112 O119 1.986 1_545 S
Mg112 O121 2.114 . S
Mg112 O122 2.251 . S
Mg112 O125 2.010 1_545 S
O113 Mg112 2.028 . S
O113 C116 1.250 . S
O114 Mg115 2.028 . S
O114 C116 1.248 . S
Mg115 O114 2.028 . S
Mg115 O120 2.032 1_545 S
Mg115 O122 2.079 . S
C116 O113 1.250 . S
C116 O114 1.248 . S
C117 O118 1.264 1_565 S
C117 O125 1.249 . S
O118 C117 1.264 1_545 S
O119 Mg112 1.986 1_565 S
O119 C123 1.246 . S
O120 Mg115 2.032 1_565 S
O120 C123 1.259 . S
O121 Mg112 2.114 . S
O121 C124 1.252 . S
O122 Mg112 2.251 . S
O122 Mg115 2.079 . S
O122 C124 1.273 . S
C123 O119 1.246 . S
C123 O120 1.259 . S
C124 O121 1.252 . S
C124 O122 1.273 . S
O125 Mg112 2.010 1_565 S
O125 C117 1.249 . S
Mg126 O127 2.028 . S
Mg126 O133 1.986 . S
Mg126 O135 2.114 . S
Mg126 O136 2.251 . S
Mg126 O139 2.010 . S
O127 Mg126 2.028 . S
O127 C130 1.250 . S
O128 Mg129 2.028 . S
O128 C130 1.248 . S
Mg129 O128 2.028 . S
Mg129 O134 2.032 . S
Mg129 O136 2.079 . S
C130 O127 1.250 . S
C130 O128 1.248 . S
C131 O132 1.264 . S
C131 O139 1.249 . S
O132 C131 1.264 . S
O133 Mg126 1.986 . S
O133 C137 1.246 . S
O134 Mg129 2.032 . S
O134 C137 1.259 . S
O135 Mg126 2.114 . S
O135 C138 1.252 . S
O136 Mg126 2.251 . S
O136 Mg129 2.079 . S
O136 C138 1.273 . S
C137 O133 1.246 . S
C137 O134 1.259 . S
C138 O135 1.252 . S
C138 O136 1.273 . S
O139 Mg126 2.010 . S
O139 C131 1.249 . S
Mg140 O141 2.028 . S
Mg140 O147 1.986 . S
Mg140 O149 2.114 . S
Mg140 O150 2.251 . S
Mg140 O153 2.010 1_545 S
O141 Mg140 2.028 . S
O141 C144 1.250 . S
O142 Mg143 2.028 . S
O142 C144 1.248 . S
Mg143 O142 2.028 . S
Mg143 O148 2.032 . S
Mg143 O150 2.079 . S
C144 O141 1.250 . S
C144 O142 1.248 . S
C145 O146 1.264 . S
C145 O153 1.249 . S
O146 C145 1.264 . S
O147 Mg140 1.986 . S
O147 C151 1.246 . S
O148 Mg143 2.032 . S
O148 C151 1.259 . S
O149 Mg140 2.114 . S
O149 C152 1.252 . S
O150 Mg140 2.251 . S
O150 Mg143 2.079 . S
O150 C152 1.273 . S
C151 O147 1.246 . S
C151 O148 1.259 . S
C152 O149 1.252 . S
C152 O150 1.273 . S
O153 Mg140 2.010 1_565 S
O153 C145 1.249 . S
Mg154 O155 2.028 . S
Mg154 O161 1.986 1_655 S
Mg154 O163 2.114 . S
Mg154 O164 2.251 . S
Mg154 O167 2.010 . S
O155 Mg154 2.028 . S
O155 C158 1.250 . S
O156 Mg157 2.028 . S
O156 C158 1.248 . S
Mg157 O156 2.028 . S
Mg157 O162 2.032 1_655 S
Mg157 O164 2.079 . S
C158 O155 1.250 . S
C158 O156 1.248 . S
C159 O160 1.264 . S
C159 O167 1.249 . S
O160 C159 1.264 . S
O161 Mg154 1.986 1_455 S
O161 C165 1.246 . S
O162 Mg157 2.032 1_455 S
O162 C165 1.259 . S
O163 Mg154 2.114 . S
O163 C166 1.252 . S
O164 Mg154 2.251 . S
O164 Mg157 2.079 . S
O164 C166 1.273 . S
C165 O161 1.246 . S
C165 O162 1.259 . S
C166 O163 1.252 . S
C166 O164 1.273 . S
O167 Mg154 2.010 . S
O167 C159 1.249 . S
Mg168 O169 2.028 . S
Mg168 O175 1.986 . S
Mg168 O177 2.114 . S
Mg168 O178 2.251 . S
Mg168 O181 2.010 . S
O169 Mg168 2.028 . S
O169 C172 1.250 . S
O170 Mg171 2.028 . S
O170 C172 1.248 . S
Mg171 O170 2.028 . S
Mg171 O176 2.032 . S
Mg171 O178 2.079 . S
C172 O169 1.250 . S
C172 O170 1.248 . S
C173 O174 1.264 . S
C173 O181 1.249 . S
O174 C173 1.264 . S
O175 Mg168 1.986 . S
O175 C179 1.246 . S
O176 Mg171 2.032 . S
O176 C179 1.259 . S
O177 Mg168 2.114 . S
O177 C180 1.252 . S
O178 Mg168 2.251 . S
O178 Mg171 2.079 . S
O178 C180 1.273 . S
C179 O175 1.246 . S
C179 O176 1.259 . S
C180 O177 1.252 . S
C180 O178 1.273 . S
O181 Mg168 2.010 . S
O181 C173 1.249 . S
Mg182 O183 2.028 . S
Mg182 O189 1.986 1_565 S
Mg182 O191 2.114 . S
Mg182 O192 2.251 . S
Mg182 O195 2.010 . S
O183 Mg182 2.028 . S
O183 C186 1.250 . S
O184 Mg185 2.028 . S
O184 C186 1.248 . S
Mg185 O184 2.028 . S
Mg185 O190 2.032 1_565 S
Mg185 O192 2.079 . S
C186 O183 1.250 . S
C186 O184 1.248 . S
C187 O188 1.264 . S
C187 O195 1.249 . S
O188 C187 1.264 . S
O189 Mg182 1.986 1_545 S
O189 C193 1.246 . S
O190 Mg185 2.032 1_545 S
O190 C193 1.259 . S
O191 Mg182 2.114 . S
O191 C194 1.252 . S
O192 Mg182 2.251 . S
O192 Mg185 2.079 . S
O192 C194 1.273 . S
C193 O189 1.246 . S
C193 O190 1.259 . S
C194 O191 1.252 . S
C194 O192 1.273 . S
O195 Mg182 2.010 . S
O195 C187 1.249 . S
Mg196 O197 2.028 . S
Mg196 O203 1.986 1_455 S
Mg196 O205 2.114 . S
Mg196 O206 2.251 . S
Mg196 O209 2.010 . S
O197 Mg196 2.028 . S
O197 C200 1.250 . S
O198 Mg199 2.028 . S
O198 C200 1.248 . S
Mg199 O198 2.028 . S
Mg199 O204 2.032 1_455 S
Mg199 O206 2.079 . S
C200 O197 1.250 . S
C200 O198 1.248 . S
C201 O202 1.264 . S
C201 O209 1.249 . S
O202 C201 1.264 . S
O203 Mg196 1.986 1_655 S
O203 C207 1.246 . S
O204 Mg199 2.032 1_655 S
O204 C207 1.259 . S
O205 Mg196 2.114 . S
O205 C208 1.252 . S
O206 Mg196 2.251 . S
O206 Mg199 2.079 . S
O206 C208 1.273 . S
C207 O203 1.246 . S
C207 O204 1.259 . S
C208 O205 1.252 . S
C208 O206 1.273 . S
O209 Mg196 2.010 . S
O209 C201 1.249 . S
Mg210 O211 2.028 1_655 S
Mg210 O217 1.986 . S
Mg210 O219 2.114 . S
Mg210 O220 2.251 1_655 S
Mg210 O223 2.010 . S
O211 Mg210 2.028 1_455 S
O211 C214 1.250 . S
O212 Mg213 2.028 . S
O212 C214 1.248 . S
Mg213 O212 2.028 . S
Mg213 O218 2.032 . S
Mg213 O220 2.079 . S
C214 O211 1.250 . S
C214 O212 1.248 . S
C215 O216 1.264 . S
C215 O223 1.249 . S
O216 C215 1.264 . S
O217 Mg210 1.986 . S
O217 C221 1.246 1_655 S
O218 Mg213 2.032 . S
O218 C221 1.259 . S
O219 Mg210 2.114 . S
O219 C222 1.252 1_655 S
O220 Mg210 2.251 1_455 S
O220 Mg213 2.079 . S
O220 C222 1.273 . S
C221 O217 1.246 1_455 S
C221 O218 1.259 . S
C222 O219 1.252 1_455 S
C222 O220 1.273 . S
O223 Mg210 2.010 . S
O223 C215 1.249 . S
Mg224 O225 2.028 . S
Mg224 O231 1.986 . S
Mg224 O233 2.114 . S
Mg224 O234 2.251 . S
Mg224 O237 2.010 . S
O225 Mg224 2.028 . S
O225 C228 1.250 . S
O226 Mg227 2.028 . S
O226 C228 1.248 . S
Mg227 O226 2.028 . S
Mg227 O232 2.032 . S
Mg227 O234 2.079 . S
C228 O225 1.250 . S
C228 O226 1.248 . S
C229 O230 1.264 . S
C229 O237 1.249 . S
O230 C229 1.264 . S
O231 Mg224 1.986 . S
O231 C235 1.246 . S
O232 Mg227 2.032 . S
O232 C235 1.259 . S
O233 Mg224 2.114 . S
O233 C236 1.252 . S
O234 Mg224 2.251 . S
O234 Mg227 2.079 . S
O234 C236 1.273 . S
C235 O231 1.246 . S
C235 O232 1.259 . S
C236 O233 1.252 . S
C236 O234 1.273 . S
O237 Mg224 2.010 . S
O237 C229 1.249 . S
Mg238 O239 2.028 . S
Mg238 O245 1.986 1_565 S
Mg238 O247 2.114 . S
Mg238 O248 2.251 . S
Mg238 O251 2.010 1_565 S
O239 Mg238 2.028 . S
O239 C242 1.250 . S
O240 Mg241 2.022 . S
O240 C242 1.248 . S
Mg241 O240 2.022 . S
Mg241 O246 2.022 1_565 S
Mg241 O248 2.088 . S
C242 O239 1.250 . S
C242 O240 1.248 . S
C243 O244 1.265 . S
C243 O251 1.250 1_565 S
O244 C243 1.265 . S
O245 Mg238 1.986 1_545 S
O245 C249 1.246 . S
O246 Mg241 2.022 1_545 S
O246 C249 1.259 . S
O247 Mg238 2.114 . S
O247 C250 1.252 . S
O248 Mg238 2.251 . S
O248 Mg241 2.088 . S
O248 C250 1.273 . S
C249 O245 1.246 . S
C249 O246 1.259 . S
C250 O247 1.252 . S
C250 O248 1.273 . S
O251 Mg238 2.010 1_545 S
O251 C243 1.250 1_545 S
H252 C260 0.950 . S
H253 C265 0.950 1_556 S
H254 C262 0.950 . S
H255 C264 0.950 . S
H256 C266 0.950 . S
H257 C268 0.950 . S
H258 C270 0.950 . S
H259 C271 0.950 1_554 S
C260 H252 0.950 . S
C260 C261 1.386 . S
C260 C262 1.391 . S
C261 C260 1.386 . S
C261 C265 1.393 . S
C262 H254 0.950 . S
C262 C260 1.391 . S
C262 C263 1.400 . S
C263 C262 1.400 . S
C263 C264 1.398 1_554 S
C263 C269 1.491 1_554 S
C264 H255 0.950 . S
C264 C263 1.398 1_556 S
C264 C265 1.391 1_556 S
C265 H253 0.950 1_554 S
C265 C261 1.393 . S
C265 C264 1.391 1_554 S
C266 H256 0.950 . S
C266 C267 1.386 1_545 S
C266 C268 1.391 . S
C267 C266 1.386 1_565 S
C267 C271 1.393 . S
C268 H257 0.950 . S
C268 C266 1.391 . S
C268 C269 1.400 . S
C269 C263 1.491 1_556 S
C269 C268 1.400 . S
C269 C270 1.398 1_556 S
C270 H258 0.950 . S
C270 C269 1.398 1_554 S
C270 C271 1.391 1_544 S
C271 H259 0.950 1_556 S
C271 C267 1.393 . S
C271 C270 1.391 1_566 S
H272 C280 0.976 . S
H273 C285 0.950 . S
H274 C282 0.950 . S
H275 C284 0.975 . S
H276 C286 0.950 . S
H277 C288 0.950 . S
H278 C290 0.950 1_554 S
H279 C291 0.950 . S
C280 H272 0.976 . S
C280 C281 1.371 1_455 S
C280 C282 1.381 . S
C281 C280 1.371 1_655 S
C281 C285 1.393 . S
C282 H274 0.950 . S
C282 C280 1.381 . S
C282 C283 1.400 1_455 S
C283 C282 1.400 1_655 S
C283 C284 1.391 1_554 S
C283 C289 1.491 1_554 S
C284 H275 0.975 . S
C284 C283 1.391 1_556 S
C284 C285 1.374 1_556 S
C285 H273 0.950 . S
C285 C281 1.393 . S
C285 C284 1.374 1_554 S
C286 H276 0.950 . S
C286 C287 1.386 1_655 S
C286 C288 1.391 . S
C287 C286 1.386 1_455 S
C287 C291 1.393 . S
C288 H277 0.950 . S
C288 C286 1.391 . S
C288 C289 1.400 . S
C289 C283 1.491 1_556 S
C289 C288 1.400 . S
C289 C290 1.398 1_655 S
C290 H278 0.950 1_556 S
C290 C289 1.398 1_455 S
C290 C291 1.391 . S
C291 H279 0.950 . S
C291 C287 1.393 . S
C291 C290 1.391 . S
H292 C300 0.950 . S
H293 C305 0.950 . S
H294 C302 0.950 . S
H295 C304 0.950 . S
H296 C306 0.950 1_556 S
H297 C308 0.950 . S
H298 C310 0.950 . S
H299 C311 0.950 . S
C300 H292 0.950 . S
C300 C301 1.386 . S
C300 C302 1.391 1_556 S
C301 C300 1.386 . S
C301 C305 1.393 . S
C302 H294 0.950 . S
C302 C300 1.391 1_554 S
C302 C303 1.400 1_554 S
C303 C302 1.400 1_556 S
C303 C304 1.398 . S
C303 C309 1.491 1_556 S
C304 H295 0.950 . S
C304 C303 1.398 . S
C304 C305 1.391 . S
C305 H293 0.950 . S
C305 C301 1.393 . S
C305 C304 1.391 . S
C306 H296 0.950 1_554 S
C306 C307 1.386 . S
C306 C308 1.391 1_554 S
C307 C306 1.386 . S
C307 C311 1.393 . S
C308 H297 0.950 . S
C308 C306 1.391 1_556 S
C308 C309 1.400 1_556 S
C309 C303 1.491 1_554 S
C309 C308 1.400 1_554 S
C309 C310 1.398 . S
C310 H298 0.950 . S
C310 C309 1.398 . S
C310 C311 1.391 . S
C311 H299 0.950 . S
C311 C307 1.393 . S
C311 C310 1.391 . S
H312 C320 0.950 . S
H313 C325 0.950 . S
H314 C322 0.950 . S
H315 C324 0.950 . S
H316 C326 0.950 . S
H317 C328 0.950 . S
H318 C330 0.950 . S
H319 C331 0.950 . S
C320 H312 0.950 . S
C320 C321 1.386 . S
C320 C322 1.391 . S
C321 C320 1.386 . S
C321 C325 1.393 . S
C322 H314 0.950 . S
C322 C320 1.391 . S
C322 C323 1.400 . S
C323 C322 1.400 . S
C323 C324 1.398 . S
C323 C329 1.491 . S
C324 H315 0.950 . S
C324 C323 1.398 . S
C324 C325 1.391 . S
C325 H313 0.950 . S
C325 C321 1.393 . S
C325 C324 1.391 . S
C326 H316 0.950 . S
C326 C327 1.386 . S
C326 C328 1.391 . S
C327 C326 1.386 . S
C327 C331 1.393 . S
C328 H317 0.950 . S
C328 C326 1.391 . S
C328 C329 1.400 . S
C329 C323 1.491 . S
C329 C328 1.400 . S
C329 C330 1.398 . S
C330 H318 0.950 . S
C330 C329 1.398 . S
C330 C331 1.391 . S
C331 H319 0.950 . S
C331 C327 1.393 . S
C331 C330 1.391 . S
H332 C340 0.950 . S
H333 C345 0.950 . S
H334 C342 0.950 . S
H335 C344 0.950 . S
H336 C346 0.950 . S
H337 C348 0.950 . S
H338 C350 0.950 . S
H339 C351 0.950 . S
C340 H332 0.950 . S
C340 C341 1.386 . S
C340 C342 1.391 . S
C341 C340 1.386 . S
C341 C345 1.393 . S
C342 H334 0.950 . S
C342 C340 1.391 . S
C342 C343 1.400 . S
C343 C342 1.400 . S
C343 C344 1.398 . S
C343 C349 1.491 . S
C344 H335 0.950 . S
C344 C343 1.398 . S
C344 C345 1.391 . S
C345 H333 0.950 . S
C345 C341 1.393 . S
C345 C344 1.391 . S
C346 H336 0.950 . S
C346 C347 1.386 . S
C346 C348 1.391 . S
C347 C346 1.386 . S
C347 C351 1.393 . S
C348 H337 0.950 . S
C348 C346 1.391 . S
C348 C349 1.400 . S
C349 C343 1.491 . S
C349 C348 1.400 . S
C349 C350 1.398 . S
C350 H338 0.950 . S
C350 C349 1.398 . S
C350 C351 1.391 . S
C351 H339 0.950 . S
C351 C347 1.393 . S
C351 C350 1.391 . S
H352 C360 0.950 . S
H353 C365 0.950 . S
H354 C362 0.950 . S
H355 C364 0.950 . S
H356 C366 0.950 . S
H357 C368 0.950 . S
H358 C370 0.950 . S
H359 C371 0.950 . S
C360 H352 0.950 . S
C360 C361 1.386 . S
C360 C362 1.391 . S
C361 C360 1.386 . S
C361 C365 1.393 . S
C362 H354 0.950 . S
C362 C360 1.391 . S
C362 C363 1.400 . S
C363 C362 1.400 . S
C363 C364 1.398 . S
C363 C369 1.491 . S
C364 H355 0.950 . S
C364 C363 1.398 . S
C364 C365 1.391 . S
C365 H353 0.950 . S
C365 C361 1.393 . S
C365 C364 1.391 . S
C366 H356 0.950 . S
C366 C367 1.386 . S
C366 C368 1.391 . S
C367 C366 1.386 . S
C367 C371 1.393 . S
C368 H357 0.950 . S
C368 C366 1.391 . S
C368 C369 1.400 . S
C369 C363 1.491 . S
C369 C368 1.400 . S
C369 C370 1.398 . S
C370 H358 0.950 . S
C370 C369 1.398 . S
C370 C371 1.391 . S
C371 H359 0.950 . S
C371 C367 1.393 . S
C371 C370 1.391 . S
H372 C380 0.950 . S
H373 C385 0.950 . S
H374 C382 0.950 . S
H375 C384 0.950 . S
H376 C386 0.950 . S
H377 C388 0.950 . S
H378 C390 0.950 . S
H379 C391 0.950 . S
C380 H372 0.950 . S
C380 C381 1.386 . S
C380 C382 1.391 . S
C381 C380 1.386 . S
C381 C385 1.393 . S
C382 H374 0.950 . S
C382 C380 1.391 . S
C382 C383 1.400 . S
C383 C382 1.400 . S
C383 C384 1.398 . S
C383 C389 1.491 . S
C384 H375 0.950 . S
C384 C383 1.398 . S
C384 C385 1.391 . S
C385 H373 0.950 . S
C385 C381 1.393 . S
C385 C384 1.391 . S
C386 H376 0.950 . S
C386 C387 1.386 . S
C386 C388 1.391 . S
C387 C386 1.386 . S
C387 C391 1.393 . S
C388 H377 0.950 . S
C388 C386 1.391 . S
C388 C389 1.400 . S
C389 C383 1.491 . S
C389 C388 1.400 . S
C389 C390 1.398 . S
C390 H378 0.950 . S
C390 C389 1.398 . S
C390 C391 1.391 . S
C391 H379 0.950 . S
C391 C387 1.393 . S
C391 C390 1.391 . S
H392 C400 0.950 . S
H393 C405 0.950 . S
H394 C402 0.950 . S
H395 C404 0.950 . S
H396 C406 0.950 . S
H397 C408 0.950 . S
H398 C410 0.950 . S
H399 C411 0.950 . S
C400 H392 0.950 . S
C400 C401 1.386 . S
C400 C402 1.391 . S
C401 C400 1.386 . S
C401 C405 1.393 . S
C402 H394 0.950 . S
C402 C400 1.391 . S
C402 C403 1.400 . S
C403 C402 1.400 . S
C403 C404 1.398 . S
C403 C409 1.491 . S
C404 H395 0.950 . S
C404 C403 1.398 . S
C404 C405 1.391 . S
C405 H393 0.950 . S
C405 C401 1.393 . S
C405 C404 1.391 . S
C406 H396 0.950 . S
C406 C407 1.386 . S
C406 C408 1.391 . S
C407 C406 1.386 . S
C407 C411 1.393 . S
C408 H397 0.950 . S
C408 C406 1.391 . S
C408 C409 1.400 . S
C409 C403 1.491 . S
C409 C408 1.400 . S
C409 C410 1.398 . S
C410 H398 0.950 . S
C410 C409 1.398 . S
C410 C411 1.391 . S
C411 H399 0.950 . S
C411 C407 1.393 . S
C411 C410 1.391 . S
H412 C420 0.950 . S
H413 C425 0.950 . S
H414 C422 0.950 . S
H415 C424 0.950 . S
H416 C426 0.950 . S
H417 C428 0.950 . S
H418 C430 0.950 . S
H419 C431 0.950 . S
C420 H412 0.950 . S
C420 C421 1.386 . S
C420 C422 1.391 . S
C421 C420 1.386 . S
C421 C425 1.393 . S
C422 H414 0.950 . S
C422 C420 1.391 . S
C422 C423 1.400 . S
C423 C422 1.400 . S
C423 C424 1.398 . S
C423 C429 1.491 . S
C424 H415 0.950 . S
C424 C423 1.398 . S
C424 C425 1.391 . S
C425 H413 0.950 . S
C425 C421 1.393 . S
C425 C424 1.391 . S
C426 H416 0.950 . S
C426 C427 1.386 . S
C426 C428 1.391 . S
C427 C426 1.386 . S
C427 C431 1.393 . S
C428 H417 0.950 . S
C428 C426 1.391 . S
C428 C429 1.400 . S
C429 C423 1.491 . S
C429 C428 1.400 . S
C429 C430 1.398 . S
C430 H418 0.950 . S
C430 C429 1.398 . S
C430 C431 1.391 . S
C431 H419 0.950 . S
C431 C427 1.393 . S
C431 C430 1.391 . S
H432 C440 0.950 . S
H433 C445 0.950 . S
H434 C442 0.950 . S
H435 C444 0.950 . S
H436 C446 0.950 . S
H437 C448 0.950 . S
H438 C450 0.950 . S
H439 C451 0.950 . S
C440 H432 0.950 . S
C440 C441 1.386 . S
C440 C442 1.391 . S
C441 C440 1.386 . S
C441 C445 1.393 . S
C442 H434 0.950 . S
C442 C440 1.391 . S
C442 C443 1.400 . S
C443 C442 1.400 . S
C443 C444 1.398 . S
C443 C449 1.491 . S
C444 H435 0.950 . S
C444 C443 1.398 . S
C444 C445 1.391 . S
C445 H433 0.950 . S
C445 C441 1.393 . S
C445 C444 1.391 . S
C446 H436 0.950 . S
C446 C447 1.386 . S
C446 C448 1.391 . S
C447 C446 1.386 . S
C447 C451 1.393 . S
C448 H437 0.950 . S
C448 C446 1.391 . S
C448 C449 1.400 . S
C449 C443 1.491 . S
C449 C448 1.400 . S
C449 C450 1.398 . S
C450 H438 0.950 . S
C450 C449 1.398 . S
C450 C451 1.391 . S
C451 H439 0.950 . S
C451 C447 1.393 . S
C451 C450 1.391 . S
H452 C460 0.950 . S
H453 C465 0.950 . S
H454 C462 0.950 . S
H455 C464 0.950 . S
H456 C466 0.950 . S
H457 C468 0.950 . S
H458 C470 0.950 . S
H459 C471 0.950 . S
C460 H452 0.950 . S
C460 C461 1.386 . S
C460 C462 1.391 . S
C461 C460 1.386 . S
C461 C465 1.393 . S
C462 H454 0.950 . S
C462 C460 1.391 . S
C462 C463 1.400 . S
C463 C462 1.400 . S
C463 C464 1.398 . S
C463 C469 1.491 . S
C464 H455 0.950 . S
C464 C463 1.398 . S
C464 C465 1.391 . S
C465 H453 0.950 . S
C465 C461 1.393 . S
C465 C464 1.391 . S
C466 H456 0.950 . S
C466 C467 1.386 . S
C466 C468 1.391 . S
C467 C466 1.386 . S
C467 C471 1.393 . S
C468 H457 0.950 . S
C468 C466 1.391 . S
C468 C469 1.400 . S
C469 C463 1.491 . S
C469 C468 1.400 . S
C469 C470 1.398 . S
C470 H458 0.950 . S
C470 C469 1.398 . S
C470 C471 1.391 . S
C471 H459 0.950 . S
C471 C467 1.393 . S
C471 C470 1.391 . S
H472 C480 0.950 . S
H473 C485 0.950 . S
H474 C482 0.950 . S
H475 C484 0.950 . S
H476 C486 0.950 . S
H477 C488 0.950 . S
H478 C490 0.950 . S
H479 C491 0.950 . S
C480 H472 0.950 . S
C480 C481 1.386 . S
C480 C482 1.391 . S
C481 C480 1.386 . S
C481 C485 1.393 . S
C482 H474 0.950 . S
C482 C480 1.391 . S
C482 C483 1.400 . S
C483 C482 1.400 . S
C483 C484 1.398 . S
C483 C489 1.491 . S
C484 H475 0.950 . S
C484 C483 1.398 . S
C484 C485 1.391 . S
C485 H473 0.950 . S
C485 C481 1.393 . S
C485 C484 1.391 . S
C486 H476 0.950 . S
C486 C487 1.386 . S
C486 C488 1.391 . S
C487 C486 1.386 . S
C487 C491 1.393 . S
C488 H477 0.950 . S
C488 C486 1.391 . S
C488 C489 1.400 . S
C489 C483 1.491 . S
C489 C488 1.400 . S
C489 C490 1.398 . S
C490 H478 0.950 . S
C490 C489 1.398 . S
C490 C491 1.391 . S
C491 H479 0.950 . S
C491 C487 1.393 . S
C491 C490 1.391 . S
H492 C500 0.950 . S
H493 C505 0.950 . S
H494 C502 0.950 . S
H495 C504 0.950 . S
H496 C506 0.950 . S
H497 C508 0.950 . S
H498 C510 0.950 . S
H499 C511 0.950 . S
C500 H492 0.950 . S
C500 C501 1.386 . S
C500 C502 1.391 . S
C501 C500 1.386 . S
C501 C505 1.393 . S
C502 H494 0.950 . S
C502 C500 1.391 . S
C502 C503 1.400 . S
C503 C502 1.400 . S
C503 C504 1.398 . S
C503 C509 1.491 . S
C504 H495 0.950 . S
C504 C503 1.398 . S
C504 C505 1.391 . S
C505 H493 0.950 . S
C505 C501 1.393 . S
C505 C504 1.391 . S
C506 H496 0.950 . S
C506 C507 1.386 . S
C506 C508 1.391 . S
C507 C506 1.386 . S
C507 C511 1.393 . S
C508 H497 0.950 . S
C508 C506 1.391 . S
C508 C509 1.400 . S
C509 C503 1.491 . S
C509 C508 1.400 . S
C509 C510 1.398 . S
C510 H498 0.950 . S
C510 C509 1.398 . S
C510 C511 1.391 . S
C511 H499 0.950 . S
C511 C507 1.393 . S
C511 C510 1.391 . S
H512 C520 0.950 . S
H513 C525 0.950 . S
H514 C522 0.950 . S
H515 C524 0.950 . S
H516 C526 0.950 . S
H517 C528 0.950 . S
H518 C530 0.950 . S
H519 C531 0.950 . S
C520 H512 0.950 . S
C520 C521 1.386 . S
C520 C522 1.391 . S
C521 C520 1.386 . S
C521 C525 1.393 . S
C522 H514 0.950 . S
C522 C520 1.391 . S
C522 C523 1.400 . S
C523 C522 1.400 . S
C523 C524 1.398 . S
C523 C529 1.491 . S
C524 H515 0.950 . S
C524 C523 1.398 . S
C524 C525 1.391 . S
C525 H513 0.950 . S
C525 C521 1.393 . S
C525 C524 1.391 . S
C526 H516 0.950 . S
C526 C527 1.386 . S
C526 C528 1.391 . S
C527 C526 1.386 . S
C527 C531 1.393 . S
C528 H517 0.950 . S
C528 C526 1.391 . S
C528 C529 1.400 . S
C529 C523 1.491 . S
C529 C528 1.400 . S
C529 C530 1.398 . S
C530 H518 0.950 . S
C530 C529 1.398 . S
C530 C531 1.391 . S
C531 H519 0.950 . S
C531 C527 1.393 . S
C531 C530 1.391 . S
H532 C540 0.950 . S
H533 C545 0.950 . S
H534 C542 0.950 . S
H535 C544 0.950 . S
H536 C546 0.950 . S
H537 C548 0.950 . S
H538 C550 0.950 . S
H539 C551 0.950 . S
C540 H532 0.950 . S
C540 C541 1.386 . S
C540 C542 1.391 . S
C541 C540 1.386 . S
C541 C545 1.393 . S
C542 H534 0.950 . S
C542 C540 1.391 . S
C542 C543 1.400 . S
C543 C542 1.400 . S
C543 C544 1.398 . S
C543 C549 1.491 . S
C544 H535 0.950 . S
C544 C543 1.398 . S
C544 C545 1.391 . S
C545 H533 0.950 . S
C545 C541 1.393 . S
C545 C544 1.391 . S
C546 H536 0.950 . S
C546 C547 1.386 . S
C546 C548 1.391 . S
C547 C546 1.386 . S
C547 C551 1.393 . S
C548 H537 0.950 . S
C548 C546 1.391 . S
C548 C549 1.400 . S
C549 C543 1.491 . S
C549 C548 1.400 . S
C549 C550 1.398 . S
C550 H538 0.950 . S
C550 C549 1.398 . S
C550 C551 1.391 . S
C551 H539 0.950 . S
C551 C547 1.393 . S
C551 C550 1.391 . S
H552 C560 0.950 . S
H553 C565 0.950 . S
H554 C562 0.950 . S
H555 C564 0.950 . S
H556 C566 0.950 . S
H557 C568 0.950 . S
H558 C570 0.950 . S
H559 C571 0.950 . S
C560 H552 0.950 . S
C560 C561 1.386 1_655 S
C560 C562 1.391 . S
C561 C560 1.386 1_455 S
C561 C565 1.393 . S
C562 H554 0.950 . S
C562 C560 1.391 . S
C562 C563 1.400 1_655 S
C563 C562 1.400 1_455 S
C563 C564 1.398 . S
C563 C569 1.491 . S
C564 H555 0.950 . S
C564 C563 1.398 . S
C564 C565 1.391 . S
C565 H553 0.950 . S
C565 C561 1.393 . S
C565 C564 1.391 . S
C566 H556 0.950 . S
C566 C567 1.386 . S
C566 C568 1.391 . S
C567 C566 1.386 . S
C567 C571 1.393 1_455 S
C568 H557 0.950 . S
C568 C566 1.391 . S
C568 C569 1.400 . S
C569 C563 1.491 . S
C569 C568 1.400 . S
C569 C570 1.398 1_455 S
C570 H558 0.950 . S
C570 C569 1.398 1_655 S
C570 C571 1.391 . S
C571 H559 0.950 . S
C571 C567 1.393 1_655 S
C571 C570 1.391 . S
H572 C580 0.950 . S
H573 C585 0.950 . S
H574 C582 0.950 . S
H575 C584 0.950 . S
H576 C586 0.950 . S
H577 C588 0.950 . S
H578 C590 0.950 . S
H579 C591 0.950 . S
C580 H572 0.950 . S
C580 C581 1.386 . S
C580 C582 1.391 . S
C581 C580 1.386 . S
C581 C585 1.393 . S
C582 H574 0.950 . S
C582 C580 1.391 . S
C582 C583 1.400 . S
C583 C582 1.400 . S
C583 C584 1.398 . S
C583 C589 1.491 . S
C584 H575 0.950 . S
C584 C583 1.398 . S
C584 C585 1.391 . S
C585 H573 0.950 . S
C585 C581 1.393 . S
C585 C584 1.391 . S
C586 H576 0.950 . S
C586 C587 1.386 . S
C586 C588 1.391 . S
C587 C586 1.386 . S
C587 C591 1.393 . S
C588 H577 0.950 . S
C588 C586 1.391 . S
C588 C589 1.400 . S
C589 C583 1.491 . S
C589 C588 1.400 . S
C589 C590 1.398 . S
C590 H578 0.950 . S
C590 C589 1.398 . S
C590 C591 1.391 . S
C591 H579 0.950 . S
C591 C587 1.393 . S
C591 C590 1.391 . S
H592 C600 0.950 . S
H593 C605 0.950 . S
H594 C602 0.950 . S
H595 C604 0.950 . S
H596 C606 0.950 . S
H597 C608 0.950 . S
H598 C610 0.950 . S
H599 C611 0.950 . S
C600 H592 0.950 . S
C600 C601 1.403 . S
C600 C602 1.391 . S
C601 C600 1.403 . S
C601 C605 1.364 1_565 S
C602 H594 0.950 . S
C602 C600 1.391 . S
C602 C603 1.429 . S
C603 C602 1.429 . S
C603 C604 1.382 1_565 S
C603 C609 1.483 . S
C604 H595 0.950 . S
C604 C603 1.382 1_545 S
C604 C605 1.391 . S
C605 H593 0.950 . S
C605 C601 1.364 1_545 S
C605 C604 1.391 . S
C606 H596 0.950 . S
C606 C607 1.379 1_545 S
C606 C608 1.391 . S
C607 C606 1.379 1_565 S
C607 C611 1.404 . S
C608 H597 0.950 . S
C608 C606 1.391 . S
C608 C609 1.389 1_545 S
C609 C603 1.483 . S
C609 C608 1.389 1_565 S
C609 C610 1.405 . S
C610 H598 0.950 . S
C610 C609 1.405 . S
C610 C611 1.391 . S
C611 H599 0.950 . S
C611 C607 1.404 . S
C611 C610 1.391 . S
H612 C620 0.950 . S
H613 C625 0.950 . S
H614 C622 0.950 . S
H615 C624 0.950 1_556 S
H616 C626 0.950 . S
H617 C628 0.950 . S
H618 C630 0.950 . S
H619 C631 0.950 . S
C620 H612 0.950 . S
C620 C621 1.386 . S
C620 C622 1.391 . S
C621 C620 1.386 . S
C621 C625 1.393 . S
C622 H614 0.950 . S
C622 C620 1.391 . S
C622 C623 1.400 . S
C623 C622 1.400 . S
C623 C624 1.398 . S
C623 C629 1.491 . S
C624 H615 0.950 1_554 S
C624 C623 1.398 . S
C624 C625 1.391 . S
C625 H613 0.950 . S
C625 C621 1.393 . S
C625 C624 1.391 . S
C626 H616 0.950 . S
C626 C627 1.386 . S
C626 C628 1.391 . S
C627 C626 1.386 . S
C627 C631 1.393 1_556 S
C628 H617 0.950 . S
C628 C626 1.391 . S
C628 C629 1.400 1_556 S
C629 C623 1.491 . S
C629 C628 1.400 1_554 S
C629 C630 1.398 . S
C630 H618 0.950 . S
C630 C629 1.398 . S
C630 C631 1.391 . S
C631 H619 0.950 . S
C631 C627 1.393 1_554 S
C631 C630 1.391 . S
H632 C640 0.950 . S
H633 C645 0.950 . S
H634 C642 0.950 . S
H635 C644 0.950 . S
H636 C646 0.950 . S
H637 C648 0.950 . S
H638 C650 0.950 . S
H639 C651 0.950 . S
C640 H632 0.950 . S
C640 C641 1.386 . S
C640 C642 1.391 . S
C641 C640 1.386 . S
C641 C645 1.393 . S
C642 H634 0.950 . S
C642 C640 1.391 . S
C642 C643 1.400 . S
C643 C642 1.400 . S
C643 C644 1.398 . S
C643 C649 1.491 1_554 S
C644 H635 0.950 . S
C644 C643 1.398 . S
C644 C645 1.391 . S
C645 H633 0.950 . S
C645 C641 1.393 . S
C645 C644 1.391 . S
C646 H636 0.950 . S
C646 C647 1.386 . S
C646 C648 1.391 . S
C647 C646 1.386 . S
C647 C651 1.393 . S
C648 H637 0.950 . S
C648 C646 1.391 . S
C648 C649 1.400 . S
C649 C643 1.491 1_556 S
C649 C648 1.400 . S
C649 C650 1.398 . S
C650 H638 0.950 . S
C650 C649 1.398 . S
C650 C651 1.391 . S
C651 H639 0.950 . S
C651 C647 1.393 . S
C651 C650 1.391 . S
H652 C660 0.950 . S
H653 C665 0.950 . S
H654 C662 0.950 . S
H655 C664 0.950 . S
H656 C666 0.943 1_554 S
H657 C668 0.950 . S
H658 C670 0.950 . S
H659 C671 0.950 . S
C660 H652 0.950 . S
C660 C661 1.386 . S
C660 C662 1.391 . S
C661 C660 1.386 . S
C661 C665 1.393 . S
C662 H654 0.950 . S
C662 C660 1.391 . S
C662 C663 1.400 . S
C663 C662 1.400 . S
C663 C664 1.398 . S
C663 C669 1.491 . S
C664 H655 0.950 . S
C664 C663 1.398 . S
C664 C665 1.391 . S
C665 H653 0.950 . S
C665 C661 1.393 . S
C665 C664 1.391 . S
C666 H656 0.943 1_556 S
C666 C667 1.410 . S
C666 C668 1.374 1_556 S
C667 C666 1.410 . S
C667 C671 1.393 . S
C668 H657 0.950 . S
C668 C666 1.374 1_554 S
C668 C669 1.400 . S
C669 C663 1.491 . S
C669 C668 1.400 . S
C669 C670 1.398 1_554 S
C670 H658 0.950 . S
C670 C669 1.398 1_556 S
C670 C671 1.391 . S
C671 H659 0.950 . S
C671 C667 1.393 . S
C671 C670 1.391 . S
H672 C680 0.950 . S
H673 C685 0.950 . S
H674 C682 0.950 . S
H675 C684 0.950 1_554 S
H676 C686 0.950 . S
H677 C688 0.950 . S
H678 C690 0.950 . S
H679 C691 0.942 1_556 S
C680 H672 0.950 . S
C680 C681 1.386 . S
C680 C682 1.391 . S
C681 C680 1.386 . S
C681 C685 1.393 . S
C682 H674 0.950 . S
C682 C680 1.391 . S
C682 C683 1.400 . S
C683 C682 1.400 . S
C683 C684 1.398 . S
C683 C689 1.491 . S
C684 H675 0.950 1_556 S
C684 C683 1.398 . S
C684 C685 1.391 . S
C685 H673 0.950 . S
C685 C681 1.393 . S
C685 C684 1.391 . S
C686 H676 0.950 . S
C686 C687 1.386 . S
C686 C688 1.391 . S
C687 C686 1.386 . S
C687 C691 1.411 . S
C688 H677 0.950 . S
C688 C686 1.391 . S
C688 C689 1.400 1_554 S
C689 C683 1.491 . S
C689 C688 1.400 1_556 S
C689 C690 1.398 . S
C690 H678 0.950 . S
C690 C689 1.398 . S
C690 C691 1.380 1_556 S
C691 H679 0.942 1_554 S
C691 C687 1.411 . S
C691 C690 1.380 1_554 S
H692 C700 0.950 . S
H693 C705 0.950 1_556 S
H694 C702 0.950 . S
H695 C704 0.950 . S
H696 C706 0.950 . S
H697 C708 0.950 . S
H698 C710 0.950 1_554 S
H699 C711 0.950 . S
C700 H692 0.950 . S
C700 C701 1.386 . S
C700 C702 1.391 . S
C701 C700 1.386 . S
C701 C705 1.393 . S
C702 H694 0.950 . S
C702 C700 1.391 . S
C702 C703 1.358 1_554 S
C703 C702 1.358 1_556 S
C703 C704 1.417 . S
C703 C709 1.515 . S
C704 H695 0.950 . S
C704 C703 1.417 . S
C704 C705 1.391 1_556 S
C705 H693 0.950 1_554 S
C705 C701 1.393 . S
C705 C704 1.391 1_554 S
C706 H696 0.950 . S
C706 C707 1.386 . S
C706 C708 1.391 . S
C707 C706 1.386 . S
C707 C711 1.393 . S
C708 H697 0.950 . S
C708 C706 1.391 . S
C708 C709 1.400 . S
C709 C703 1.515 . S
C709 C708 1.400 . S
C709 C710 1.398 . S
C710 H698 0.950 1_556 S
C710 C709 1.398 . S
C710 C711 1.391 . S
C711 H699 0.950 . S
C711 C707 1.393 . S
C711 C710 1.391 . S
H712 C720 0.950 . S
H713 C725 0.950 . S
H714 C722 0.950 1_554 S
H715 C724 0.950 . S
H716 C726 0.951 . S
H717 C728 0.950 . S
H718 C730 0.950 . S
H719 C731 0.950 . S
C720 H712 0.950 . S
C720 C721 1.386 . S
C720 C722 1.391 . S
C721 C720 1.386 . S
C721 C725 1.393 . S
C722 H714 0.950 1_556 S
C722 C720 1.391 . S
C722 C723 1.400 . S
C723 C722 1.400 . S
C723 C724 1.398 . S
C723 C729 1.521 . S
C724 H715 0.950 . S
C724 C723 1.398 . S
C724 C725 1.391 . S
C725 H713 0.950 . S
C725 C721 1.393 . S
C725 C724 1.391 . S
C726 H716 0.951 . S
C726 C727 1.386 . S
C726 C728 1.391 1_554 S
C727 C726 1.386 . S
C727 C731 1.393 . S
C728 H717 0.950 . S
C728 C726 1.391 1_556 S
C728 C729 1.415 . S
C729 C723 1.521 . S
C729 C728 1.415 . S
C729 C730 1.353 1_556 S
C730 H718 0.950 . S
C730 C729 1.353 1_554 S
C730 C731 1.391 . S
C731 H719 0.950 . S
C731 C727 1.393 . S
C731 C730 1.391 . S
H732 C740 0.950 . S
H733 C745 0.950 . S
H734 C742 0.950 . S
H735 C744 0.950 . S
H736 C746 0.950 . S
H737 C748 0.950 . S
H738 C750 0.950 . S
H739 C751 0.950 . S
C740 H732 0.950 . S
C740 C741 1.386 . S
C740 C742 1.391 . S
C741 C740 1.386 . S
C741 C745 1.393 . S
C742 H734 0.950 . S
C742 C740 1.391 . S
C742 C743 1.400 . S
C743 C742 1.400 . S
C743 C744 1.398 . S
C743 C749 1.491 . S
C744 H735 0.950 . S
C744 C743 1.398 . S
C744 C745 1.391 . S
C745 H733 0.950 . S
C745 C741 1.393 . S
C745 C744 1.391 . S
C746 H736 0.950 . S
C746 C747 1.386 . S
C746 C748 1.391 . S
C747 C746 1.386 . S
C747 C751 1.393 . S
C748 H737 0.950 . S
C748 C746 1.391 . S
C748 C749 1.400 . S
C749 C743 1.491 . S
C749 C748 1.400 . S
C749 C750 1.398 . S
C750 H738 0.950 . S
C750 C749 1.398 . S
C750 C751 1.391 . S
C751 H739 0.950 . S
C751 C747 1.393 . S
C751 C750 1.391 . S
H752 C760 0.950 . S
H753 C765 0.950 . S
H754 C762 0.950 . S
H755 C764 0.950 . S
H756 C766 0.950 . S
H757 C768 0.950 . S
H758 C770 0.950 . S
H759 C771 0.950 . S
C760 H752 0.950 . S
C760 C761 1.386 . S
C760 C762 1.391 . S
C761 C760 1.386 . S
C761 C765 1.393 . S
C762 H754 0.950 . S
C762 C760 1.391 . S
C762 C763 1.400 . S
C763 C762 1.400 . S
C763 C764 1.398 . S
C763 C769 1.491 . S
C764 H755 0.950 . S
C764 C763 1.398 . S
C764 C765 1.391 . S
C765 H753 0.950 . S
C765 C761 1.393 . S
C765 C764 1.391 . S
C766 H756 0.950 . S
C766 C767 1.386 . S
C766 C768 1.391 . S
C767 C766 1.386 . S
C767 C771 1.393 . S
C768 H757 0.950 . S
C768 C766 1.391 . S
C768 C769 1.400 . S
C769 C763 1.491 . S
C769 C768 1.400 . S
C769 C770 1.398 . S
C770 H758 0.950 . S
C770 C769 1.398 . S
C770 C771 1.391 . S
C771 H759 0.950 . S
C771 C767 1.393 . S
C771 C770 1.391 . S
H772 C780 0.950 . S
H773 C785 0.950 . S
H774 C782 0.950 . S
H775 C784 0.950 . S
H776 C786 0.950 . S
H777 C788 0.950 . S
H778 C790 0.950 . S
H779 C791 0.950 . S
C780 H772 0.950 . S
C780 C781 1.386 . S
C780 C782 1.391 . S
C781 C780 1.386 . S
C781 C785 1.393 . S
C782 H774 0.950 . S
C782 C780 1.391 . S
C782 C783 1.400 . S
C783 C782 1.400 . S
C783 C784 1.398 . S
C783 C789 1.491 . S
C784 H775 0.950 . S
C784 C783 1.398 . S
C784 C785 1.391 . S
C785 H773 0.950 . S
C785 C781 1.393 . S
C785 C784 1.391 . S
C786 H776 0.950 . S
C786 C787 1.386 . S
C786 C788 1.391 . S
C787 C786 1.386 . S
C787 C791 1.393 . S
C788 H777 0.950 . S
C788 C786 1.391 . S
C788 C789 1.400 . S
C789 C783 1.491 . S
C789 C788 1.400 . S
C789 C790 1.398 . S
C790 H778 0.950 . S
C790 C789 1.398 . S
C790 C791 1.391 . S
C791 H779 0.950 . S
C791 C787 1.393 . S
C791 C790 1.391 . S
H792 C800 0.950 . S
H793 C805 0.950 . S
H794 C802 0.950 . S
H795 C804 0.950 . S
H796 C806 0.950 . S
H797 C808 0.950 . S
H798 C810 0.950 . S
H799 C811 0.950 . S
C800 H792 0.950 . S
C800 C801 1.386 . S
C800 C802 1.391 . S
C801 C800 1.386 . S
C801 C805 1.393 . S
C802 H794 0.950 . S
C802 C800 1.391 . S
C802 C803 1.400 . S
C803 C802 1.400 . S
C803 C804 1.398 . S
C803 C809 1.491 . S
C804 H795 0.950 . S
C804 C803 1.398 . S
C804 C805 1.391 . S
C805 H793 0.950 . S
C805 C801 1.393 . S
C805 C804 1.391 . S
C806 H796 0.950 . S
C806 C807 1.386 . S
C806 C808 1.391 . S
C807 C806 1.386 . S
C807 C811 1.393 . S
C808 H797 0.950 . S
C808 C806 1.391 . S
C808 C809 1.400 . S
C809 C803 1.491 . S
C809 C808 1.400 . S
C809 C810 1.398 . S
C810 H798 0.950 . S
C810 C809 1.398 . S
C810 C811 1.391 . S
C811 H799 0.950 . S
C811 C807 1.393 . S
C811 C810 1.391 . S
H812 C820 0.950 1_565 S
H813 C825 0.950 . S
H814 C822 0.950 1_565 S
H815 C824 0.950 . S
H816 C826 0.950 . S
H817 C828 0.950 . S
H818 C830 0.950 . S
H819 C831 0.950 . S
C820 H812 0.950 1_545 S
C820 C821 1.386 . S
C820 C822 1.391 . S
C821 C820 1.386 . S
C821 C825 1.393 . S
C822 H814 0.950 1_545 S
C822 C820 1.391 . S
C822 C823 1.400 . S
C823 C822 1.400 . S
C823 C824 1.398 . S
C823 C829 1.491 . S
C824 H815 0.950 . S
C824 C823 1.398 . S
C824 C825 1.391 . S
C825 H813 0.950 . S
C825 C821 1.393 . S
C825 C824 1.391 . S
C826 H816 0.950 . S
C826 C827 1.386 . S
C826 C828 1.391 . S
C827 C826 1.386 . S
C827 C831 1.393 1_545 S
C828 H817 0.950 . S
C828 C826 1.391 . S
C828 C829 1.400 . S
C829 C823 1.491 . S
C829 C828 1.400 . S
C829 C830 1.398 1_545 S
C830 H818 0.950 . S
C830 C829 1.398 1_565 S
C830 C831 1.391 . S
C831 H819 0.950 . S
C831 C827 1.393 1_565 S
C831 C830 1.391 . S
H832 C840 0.950 . S
H833 C845 0.950 . S
H834 C842 0.950 . S
H835 C844 0.950 . S
H836 C846 0.950 . S
H837 C848 0.950 . S
H838 C850 0.950 . S
H839 C851 0.950 . S
C840 H832 0.950 . S
C840 C841 1.386 . S
C840 C842 1.391 . S
C841 C840 1.386 . S
C841 C845 1.393 1_655 S
C842 H834 0.950 . S
C842 C840 1.391 . S
C842 C843 1.400 . S
C843 C842 1.400 . S
C843 C844 1.398 1_655 S
C843 C849 1.491 . S
C844 H835 0.950 . S
C844 C843 1.398 1_455 S
C844 C845 1.391 . S
C845 H833 0.950 . S
C845 C841 1.393 1_455 S
C845 C844 1.391 . S
C846 H836 0.950 . S
C846 C847 1.386 1_455 S
C846 C848 1.391 . S
C847 C846 1.386 1_655 S
C847 C851 1.393 . S
C848 H837 0.950 . S
C848 C846 1.391 . S
C848 C849 1.400 1_455 S
C849 C843 1.491 . S
C849 C848 1.400 1_655 S
C849 C850 1.398 . S
C850 H838 0.950 . S
C850 C849 1.398 . S
C850 C851 1.391 . S
C851 H839 0.950 . S
C851 C847 1.393 . S
C851 C850 1.391 . S
H852 C860 0.950 . S
H853 C865 0.950 . S
H854 C862 0.950 . S
H855 C864 0.950 . S
H856 C866 0.950 . S
H857 C868 0.950 . S
H858 C870 0.950 . S
H859 C871 0.950 . S
C860 H852 0.950 . S
C860 C861 1.386 . S
C860 C862 1.391 . S
C861 C860 1.386 . S
C861 C865 1.393 . S
C862 H854 0.950 . S
C862 C860 1.391 . S
C862 C863 1.400 . S
C863 C862 1.400 . S
C863 C864 1.398 . S
C863 C869 1.491 . S
C864 H855 0.950 . S
C864 C863 1.398 . S
C864 C865 1.391 . S
C865 H853 0.950 . S
C865 C861 1.393 . S
C865 C864 1.391 . S
C866 H856 0.950 . S
C866 C867 1.386 . S
C866 C868 1.391 . S
C867 C866 1.386 . S
C867 C871 1.393 . S
C868 H857 0.950 . S
C868 C866 1.391 . S
C868 C869 1.400 . S
C869 C863 1.491 . S
C869 C868 1.400 . S
C869 C870 1.398 . S
C870 H858 0.950 . S
C870 C869 1.398 . S
C870 C871 1.391 . S
C871 H859 0.950 . S
C871 C867 1.393 . S
C871 C870 1.391 . S
H872 C880 0.950 . S
H873 C885 0.950 . S
H874 C882 0.950 1_545 S
H875 C884 0.950 . S
H876 C886 0.950 . S
H877 C888 0.950 . S
H878 C890 0.950 . S
H879 C891 0.950 . S
C880 H872 0.950 . S
C880 C881 1.386 1_545 S
C880 C882 1.391 1_545 S
C881 C880 1.386 1_565 S
C881 C885 1.393 . S
C882 H874 0.950 1_565 S
C882 C880 1.391 1_565 S
C882 C883 1.400 . S
C883 C882 1.400 . S
C883 C884 1.398 . S
C883 C889 1.491 . S
C884 H875 0.950 . S
C884 C883 1.398 . S
C884 C885 1.391 . S
C885 H873 0.950 . S
C885 C881 1.393 . S
C885 C884 1.391 . S
C886 H876 0.950 . S
C886 C887 1.386 . S
C886 C888 1.391 . S
C887 C886 1.386 . S
C887 C891 1.393 . S
C888 H877 0.950 . S
C888 C886 1.391 . S
C888 C889 1.400 . S
C889 C883 1.491 . S
C889 C888 1.400 . S
C889 C890 1.398 . S
C890 H878 0.950 . S
C890 C889 1.398 . S
C890 C891 1.391 . S
C891 H879 0.950 . S
C891 C887 1.393 . S
C891 C890 1.391 . S
H892 C900 0.950 . S
H893 C905 0.950 . S
H894 C902 0.950 . S
H895 C904 0.950 . S
H896 C906 0.950 1_655 S
H897 C908 0.950 . S
H898 C910 0.950 . S
H899 C911 0.950 . S
C900 H892 0.950 . S
C900 C901 1.386 . S
C900 C902 1.391 . S
C901 C900 1.386 . S
C901 C905 1.393 . S
C902 H894 0.950 . S
C902 C900 1.391 . S
C902 C903 1.400 . S
C903 C902 1.400 . S
C903 C904 1.398 . S
C903 C909 1.491 . S
C904 H895 0.950 . S
C904 C903 1.398 . S
C904 C905 1.391 . S
C905 H893 0.950 . S
C905 C901 1.393 . S
C905 C904 1.391 . S
C906 H896 0.950 1_455 S
C906 C907 1.386 . S
C906 C908 1.391 . S
C907 C906 1.386 . S
C907 C911 1.393 . S
C908 H897 0.950 . S
C908 C906 1.391 . S
C908 C909 1.400 . S
C909 C903 1.491 . S
C909 C908 1.400 . S
C909 C910 1.398 . S
C910 H898 0.950 . S
C910 C909 1.398 . S
C910 C911 1.391 . S
C911 H899 0.950 . S
C911 C907 1.393 . S
C911 C910 1.391 . S
H912 C920 0.950 . S
H913 C925 0.950 . S
H914 C922 0.950 . S
H915 C924 0.950 . S
H916 C926 0.950 . S
H917 C928 0.950 . S
H918 C930 0.950 . S
H919 C931 0.950 . S
C920 H912 0.950 . S
C920 C921 1.386 . S
C920 C922 1.391 . S
C921 C920 1.386 . S
C921 C925 1.393 . S
C922 H914 0.950 . S
C922 C920 1.391 . S
C922 C923 1.400 . S
C923 C922 1.400 . S
C923 C924 1.398 . S
C923 C929 1.491 . S
C924 H915 0.950 . S
C924 C923 1.398 . S
C924 C925 1.391 . S
C925 H913 0.950 . S
C925 C921 1.393 . S
C925 C924 1.391 . S
C926 H916 0.950 . S
C926 C927 1.386 . S
C926 C928 1.391 . S
C927 C926 1.386 . S
C927 C931 1.393 . S
C928 H917 0.950 . S
C928 C926 1.391 . S
C928 C929 1.400 . S
C929 C923 1.491 . S
C929 C928 1.400 . S
C929 C930 1.398 . S
C930 H918 0.950 . S
C930 C929 1.398 . S
C930 C931 1.391 . S
C931 H919 0.950 . S
C931 C927 1.393 . S
C931 C930 1.391 . S
H932 C940 0.950 . S
H933 C945 0.950 . S
H934 C942 0.950 . S
H935 C944 0.950 . S
H936 C946 0.950 . S
H937 C948 0.950 . S
H938 C950 0.950 . S
H939 C951 0.950 . S
C940 H932 0.950 . S
C940 C941 1.386 . S
C940 C942 1.391 . S
C941 C940 1.386 . S
C941 C945 1.393 . S
C942 H934 0.950 . S
C942 C940 1.391 . S
C942 C943 1.400 . S
C943 C942 1.400 . S
C943 C944 1.398 . S
C943 C949 1.491 . S
C944 H935 0.950 . S
C944 C943 1.398 . S
C944 C945 1.391 . S
C945 H933 0.950 . S
C945 C941 1.393 . S
C945 C944 1.391 . S
C946 H936 0.950 . S
C946 C947 1.386 . S
C946 C948 1.391 . S
C947 C946 1.386 . S
C947 C951 1.393 . S
C948 H937 0.950 . S
C948 C946 1.391 . S
C948 C949 1.400 . S
C949 C943 1.491 . S
C949 C948 1.400 . S
C949 C950 1.398 . S
C950 H938 0.950 . S
C950 C949 1.398 . S
C950 C951 1.391 . S
C951 H939 0.950 . S
C951 C947 1.393 . S
C951 C950 1.391 . S
H952 C960 0.950 . S
H953 C965 0.950 . S
H954 C962 0.950 . S
H955 C964 0.950 . S
H956 C966 0.950 . S
H957 C968 0.950 . S
H958 C970 0.950 . S
H959 C971 0.950 . S
C960 H952 0.950 . S
C960 C961 1.386 . S
C960 C962 1.391 . S
C961 C960 1.386 . S
C961 C965 1.393 . S
C962 H954 0.950 . S
C962 C960 1.391 . S
C962 C963 1.400 . S
C963 C962 1.400 . S
C963 C964 1.398 . S
C963 C969 1.491 . S
C964 H955 0.950 . S
C964 C963 1.398 . S
C964 C965 1.391 . S
C965 H953 0.950 . S
C965 C961 1.393 . S
C965 C964 1.391 . S
C966 H956 0.950 . S
C966 C967 1.386 . S
C966 C968 1.391 . S
C967 C966 1.386 . S
C967 C971 1.393 . S
C968 H957 0.950 . S
C968 C966 1.391 . S
C968 C969 1.400 . S
C969 C963 1.491 . S
C969 C968 1.400 . S
C969 C970 1.398 . S
C970 H958 0.950 . S
C970 C969 1.398 . S
C970 C971 1.391 . S
C971 H959 0.950 . S
C971 C967 1.393 . S
C971 C970 1.391 . S
C261 C11 1.516 . S
C267 C47 1.424 . S
C281 C25 1.656 . S
C287 C61 1.532 . S
C301 C81 1.576 . S
C307 C39 1.577 . S
C321 C95 1.462 . S
C327 C131 1.384 . S
C341 C109 1.635 . S
C347 C145 1.517 . S
C361 C165 1.526 . S
C367 C123 1.526 . S
C381 C215 1.384 . S
C387 C179 1.493 . S
C401 C229 1.491 . S
C407 C193 1.656 . S
C421 C249 1.527 . S
C427 C207 1.526 . S
C441 C5 1.666 . S
C447 C137 1.620 . S
C461 C19 1.756 . S
C467 C151 1.679 . S
C481 C159 1.744 . S
C487 C33 1.740 . S
C501 C53 1.628 . S
C507 C173 1.676 . S
C521 C67 1.684 . S
C527 C187 1.761 . S
C541 C75 1.752 . S
C547 C201 1.747 . S
C561 C89 1.688 1_455 S
C567 C221 1.645 . S
C581 C103 1.799 . S
C587 C235 1.719 . S
C601 C243 1.692 . S
C607 C117 1.666 . S
C621 C12 0.646 . S
C627 C68 0.630 . S
C641 C26 0.661 . S
C647 C74 0.658 . S
C661 C40 0.624 . S
C667 C54 0.636 . S
C681 C46 0.555 . S
C687 C18 0.528 . S
C701 C32 0.551 . S
C707 C60 0.538 . S
C721 C82 0.578 . S
C727 C4 0.594 . S
C741 C96 0.702 . S
C747 C152 0.718 . S
C761 C158 0.691 . S
C767 C110 0.690 . S
C781 C138 0.691 . S
C787 C124 0.701 . S
C801 C102 0.548 . S
C807 C130 0.554 . S
C821 C144 0.602 . S
C827 C116 0.567 . S
C841 C166 0.563 . S
C847 C88 0.584 . S
C861 C236 0.627 . S
C867 C180 0.617 . S
C881 C242 0.723 . S
C887 C194 0.715 . S
C901 C208 0.605 . S
C907 C222 0.601 . S
C921 C186 0.625 . S
C927 C214 0.597 . S
C941 C200 0.600 . S
C947 C228 0.621 . S
C961 C172 0.592 . S
C967 C250 0.589 . S
