# Generated by pormake.
# Topology uof, (4)-cn, num edge types: 1
# Building blocks:
#     Node 0, Type 0, BuildingBlock: ICAMEG_clean_sbu_1, # of connection points: 4
#     Node 1, Type 0, BuildingBlock: ICAMEG_clean_sbu_1, # of connection points: 4
#     Node 2, Type 0, BuildingBlock: ICAMEG_clean_sbu_1, # of connection points: 4
#     Node 3, Type 0, BuildingBlock: ICAMEG_clean_sbu_1, # of connection points: 4
#     Node 4, Type 0, BuildingBlock: ICAMEG_clean_sbu_1, # of connection points: 4
#     Node 5, Type 0, BuildingBlock: ICAMEG_clean_sbu_1, # of connection points: 4
#     Node 6, Type 0, BuildingBlock: ICAMEG_clean_sbu_1, # of connection points: 4
#     Node 7, Type 0, BuildingBlock: ICAMEG_clean_sbu_1, # of connection points: 4
#     Node 8, Type 0, BuildingBlock: ICAMEG_clean_sbu_1, # of connection points: 4
#     Node 9, Type 0, BuildingBlock: ICAMEG_clean_sbu_1, # of connection points: 4
#     Node 10, Type 0, BuildingBlock: ICAMEG_clean_sbu_1, # of connection points: 4
#     Node 11, Type 0, BuildingBlock: ICAMEG_clean_sbu_1, # of connection points: 4
#     Edge 12, Type (0, 0), BuildingBlock: MIFKUJ_clean_linker_0, # of connection points: 2
#     Edge 13, Type (0, 0), BuildingBlock: MIFKUJ_clean_linker_0, # of connection points: 2
#     Edge 14, Type (0, 0), BuildingBlock: MIFKUJ_clean_linker_0, # of connection points: 2
#     Edge 15, Type (0, 0), BuildingBlock: MIFKUJ_clean_linker_0, # of connection points: 2
#     Edge 16, Type (0, 0), BuildingBlock: MIFKUJ_clean_linker_0, # of connection points: 2
#     Edge 17, Type (0, 0), BuildingBlock: MIFKUJ_clean_linker_0, # of connection points: 2
#     Edge 18, Type (0, 0), BuildingBlock: MIFKUJ_clean_linker_0, # of connection points: 2
#     Edge 19, Type (0, 0), BuildingBlock: MIFKUJ_clean_linker_0, # of connection points: 2
#     Edge 20, Type (0, 0), BuildingBlock: MIFKUJ_clean_linker_0, # of connection points: 2
#     Edge 21, Type (0, 0), BuildingBlock: MIFKUJ_clean_linker_0, # of connection points: 2
#     Edge 22, Type (0, 0), BuildingBlock: MIFKUJ_clean_linker_0, # of connection points: 2
#     Edge 23, Type (0, 0), BuildingBlock: MIFKUJ_clean_linker_0, # of connection points: 2
#     Edge 24, Type (0, 0), BuildingBlock: MIFKUJ_clean_linker_0, # of connection points: 2
#     Edge 25, Type (0, 0), BuildingBlock: MIFKUJ_clean_linker_0, # of connection points: 2
#     Edge 26, Type (0, 0), BuildingBlock: MIFKUJ_clean_linker_0, # of connection points: 2
#     Edge 27, Type (0, 0), BuildingBlock: MIFKUJ_clean_linker_0, # of connection points: 2
#     Edge 28, Type (0, 0), BuildingBlock: MIFKUJ_clean_linker_0, # of connection points: 2
#     Edge 29, Type (0, 0), BuildingBlock: MIFKUJ_clean_linker_0, # of connection points: 2
#     Edge 30, Type (0, 0), BuildingBlock: MIFKUJ_clean_linker_0, # of connection points: 2
#     Edge 31, Type (0, 0), BuildingBlock: MIFKUJ_clean_linker_0, # of connection points: 2
#     Edge 32, Type (0, 0), BuildingBlock: MIFKUJ_clean_linker_0, # of connection points: 2
#     Edge 33, Type (0, 0), BuildingBlock: MIFKUJ_clean_linker_0, # of connection points: 2
#     Edge 34, Type (0, 0), BuildingBlock: MIFKUJ_clean_linker_0, # of connection points: 2
#     Edge 35, Type (0, 0), BuildingBlock: MIFKUJ_clean_linker_0, # of connection points: 2
# Relax obj value: 0.220
# Max RMSD: 0.166
# Mean RMSD: 0.166
data_MOF--net-uof--node1-ICAMEG_clean_sbu_1--edge1-MIFKUJ_clean_linker_0
_symmetry_space_group_name_H-M    P1
_symmetry_Int_Tables_number       1
_symmetry_cell_setting            triclinic
loop_
_symmetry_equiv_pos_as_xyz
'x, y, z'
_cell_length_a     42.459729
_cell_length_b     42.430166
_cell_length_c     92.609415
_cell_angle_alpha  90.002574
_cell_angle_beta   90.038256
_cell_angle_gamma 119.94454
loop_
_atom_site_label
_atom_site_type_symbol
_atom_site_fract_x
_atom_site_fract_y
_atom_site_fract_z
_atom_type_partial_charge
Co0 Co 0.24489 0.32865 0.21606 0.0
Co1 Co 0.21168 0.24064 0.22597 0.0
O2 O 0.24153 0.29272 0.23012 0.0
C3 C 0.32208 0.35538 0.22345 0.0
O4 O 0.31539 0.32203 0.22126 0.0
C5 C 0.19914 0.24815 0.25734 0.0
O6 O 0.19467 0.27597 0.25445 0.0
O7 O 0.16804 0.24634 0.22384 0.0
O8 O 0.19313 0.29539 0.20948 0.0
H9 H 0.11658 0.13149 0.19901 0.0
H10 H 0.26464 0.35139 0.24648 0.0
O11 O 0.29655 0.36277 0.22216 0.0
H12 H 0.16462 0.37493 0.23538 0.0
H13 H 0.28311 0.45503 0.1985 0.0
H14 H 0.22256 0.32505 0.1855 0.0
H15 H 0.18746 0.34965 0.21682 0.0
H16 H 0.27709 0.40925 0.21638 0.0
O17 O 0.20321 0.2304 0.24716 0.0
H18 H 0.15588 0.19689 0.20387 0.0
H19 H 0.20248 0.17308 0.2399 0.0
H20 H 0.22766 0.36985 0.16733 0.0
H21 H 0.2429 0.37704 0.26533 0.0
H22 H 0.25813 0.43539 0.17379 0.0
H23 H 0.19247 0.3889 0.25982 0.0
O24 O 0.26274 0.30715 0.20133 0.0
H25 H 0.32773 0.26144 0.24913 0.0
H26 H 0.24353 0.20463 0.20823 0.0
H27 H 0.29889 0.19977 0.20975 0.0
H28 H 0.34139 0.22817 0.23035 0.0
H29 H 0.27246 0.26634 0.24702 0.0
H30 H 0.16368 0.10737 0.23538 0.0
H31 H 0.1204 0.08619 0.21478 0.0
O32 O 0.22041 0.24892 0.20474 0.0
C33 C 0.16537 0.26638 0.21415 0.0
C34 C 0.1354 0.14039 0.20799 0.0
C35 C 0.16177 0.12686 0.22842 0.0
N36 N 0.18147 0.18891 0.22219 0.0
C37 C 0.15773 0.17744 0.21082 0.0
C38 C 0.18359 0.16412 0.23096 0.0
C39 C 0.13751 0.11499 0.21686 0.0
C40 C 0.2429 0.35678 0.24398 0.0
N41 N 0.22743 0.34917 0.23057 0.0
C42 C 0.23061 0.37117 0.25471 0.0
C43 C 0.20227 0.37776 0.25162 0.0
C44 C 0.18661 0.36989 0.23791 0.0
C45 C 0.19958 0.35548 0.22746 0.0
C46 C 0.26968 0.42655 0.19557 0.0
C47 C 0.23559 0.35348 0.18843 0.0
C48 C 0.26623 0.40051 0.20564 0.0
N49 N 0.24912 0.36447 0.20203 0.0
C50 C 0.23851 0.37874 0.17808 0.0
C51 C 0.25565 0.41551 0.18171 0.0
C52 C 0.24601 0.27399 0.19739 0.0
C53 C 0.30937 0.24885 0.24012 0.0
C54 C 0.26196 0.21726 0.21719 0.0
C55 C 0.29323 0.2143 0.21801 0.0
C56 C 0.31704 0.23023 0.22957 0.0
N57 N 0.25465 0.23569 0.22755 0.0
C58 C 0.2779 0.25136 0.23891 0.0
Co59 Co 0.91283 0.23396 0.55478 0.0
Co60 Co 0.97749 0.2149 0.56833 0.0
O61 O 0.94464 0.23461 0.57039 0.0
C62 C 0.95561 0.31174 0.56229 0.0
O63 O 0.98391 0.30707 0.56174 0.0
C64 C 0.9451 0.19167 0.59825 0.0
O65 O 0.91547 0.19197 0.59448 0.0
O66 O 0.9364 0.16706 0.56133 0.0
O67 O 0.90246 0.18432 0.54848 0.0
H68 H 0.03004 0.1481 0.54217 0.0
H69 H 0.90067 0.25292 0.58426 0.0
O70 O 0.92382 0.28454 0.56031 0.0
H71 H 0.78733 0.14101 0.57133 0.0
H72 H 0.81662 0.25657 0.53363 0.0
H73 H 0.8999 0.20955 0.5242 0.0
H74 H 0.83856 0.16883 0.55419 0.0
H75 H 0.85774 0.25773 0.55273 0.0
O76 O 0.96935 0.19744 0.58889 0.0
H77 H 0.98942 0.17368 0.5455 0.0
H78 H 0.0357 0.21464 0.58661 0.0
H79 H 0.85884 0.20724 0.50488 0.0
H80 H 0.84992 0.22631 0.60166 0.0
H81 H 0.81681 0.23092 0.50954 0.0
H82 H 0.7928 0.16986 0.59524 0.0
O83 O 0.95359 0.25566 0.54075 0.0
H84 H 0.03633 0.32492 0.60059 0.0
H85 H 0.05364 0.26417 0.55846 0.0
H86 H 0.10376 0.32377 0.56631 0.0
H87 H 0.09531 0.35452 0.58756 0.0
H88 H 0.98679 0.26567 0.59223 0.0
H89 H 0.07639 0.1892 0.58391 0.0
H90 H 0.07384 0.1558 0.56151 0.0
O91 O 0.98876 0.23297 0.54808 0.0
C92 C 0.91167 0.16089 0.55201 0.0
C93 C 0.03135 0.16256 0.55198 0.0
C94 C 0.05732 0.18555 0.57542 0.0
N95 N 0.01002 0.19538 0.56623 0.0
C96 C 0.00847 0.17706 0.55389 0.0
C97 C 0.03401 0.19967 0.57694 0.0
C98 C 0.05592 0.16686 0.56284 0.0
C99 C 0.87576 0.22857 0.58135 0.0
N100 N 0.87255 0.21247 0.56824 0.0
C101 C 0.84718 0.21353 0.59126 0.0
C102 C 0.81516 0.18182 0.58766 0.0
C103 C 0.8121 0.16558 0.57426 0.0
C104 C 0.84126 0.18137 0.56462 0.0
C105 C 0.83476 0.24611 0.53148 0.0
C106 C 0.88153 0.21963 0.52635 0.0
C107 C 0.85818 0.2468 0.54223 0.0
N108 N 0.88098 0.23341 0.53962 0.0
C109 C 0.85843 0.2184 0.51534 0.0
C110 C 0.83487 0.23171 0.51796 0.0
C111 C 0.98024 0.25026 0.53913 0.0
C112 C 0.04039 0.31177 0.59134 0.0
C113 C 0.04965 0.27747 0.56765 0.0
C114 C 0.07819 0.31116 0.57209 0.0
C115 C 0.07344 0.32838 0.58401 0.0
N116 N 0.01728 0.26133 0.57488 0.0
C117 C 0.01246 0.27807 0.58659 0.0
Co118 Co 0.68797 0.92831 0.88144 0.0
Co119 Co 0.75416 0.94607 0.90621 0.0
O120 O 0.704 0.93277 0.90149 0.0
C121 C 0.66052 0.97671 0.89243 0.0
O122 O 0.6941 1.00133 0.89561 0.0
C123 C 0.71082 0.90851 0.93278 0.0
O124 O 0.67988 0.90176 0.92695 0.0
O125 O 0.74767 0.90242 0.89521 0.0
O126 O 0.72126 0.90955 0.87542 0.0
H127 H 0.87795 0.96414 0.89485 0.0
H128 H 0.6325 0.89344 0.90438 0.0
O129 O 0.65366 0.94628 0.88701 0.0
H130 H 0.61429 0.79365 0.87187 0.0
H131 H 0.59577 0.89812 0.8419 0.0
H132 H 0.7255 0.94696 0.85314 0.0
H133 H 0.66195 0.85679 0.8668 0.0
H134 H 0.6162 0.90236 0.86712 0.0
O135 O 0.73865 0.91774 0.92488 0.0
H136 H 0.81553 0.95017 0.88928 0.0
H137 H 0.79908 0.96734 0.93318 0.0
H138 H 0.70623 0.94291 0.82775 0.0
H139 H 0.58431 0.83071 0.9098 0.0
H140 H 0.64092 0.91834 0.822 0.0
H141 H 0.575 0.78029 0.89348 0.0
O142 O 0.72747 0.97905 0.87757 0.0
H143 H 0.71222 0.022 0.93344 0.0
H144 H 0.81566 0.02237 0.9094 0.0
H145 H 0.82251 0.07952 0.9186 0.0
H146 H 0.77053 0.07983 0.93073 0.0
H147 H 0.70572 0.96606 0.92333 0.0
H148 H 0.86117 0.98111 0.93922 0.0
H149 H 0.90118 0.97972 0.91996 0.0
O150 O 0.77293 0.97585 0.8883 0.0
C151 C 0.73928 0.89676 0.88178 0.0
C152 C 0.86079 0.96485 0.90332 0.0
C153 C 0.85136 0.97429 0.92823 0.0
N154 N 0.80357 0.95795 0.91087 0.0
C155 C 0.8254 0.95702 0.90023 0.0
C156 C 0.8161 0.96622 0.92476 0.0
C157 C 0.87379 0.97356 0.91742 0.0
C158 C 0.62852 0.87165 0.89721 0.0
N159 N 0.64999 0.87877 0.8853 0.0
C160 C 0.60123 0.83618 0.90034 0.0
C161 C 0.59604 0.80791 0.89118 0.0
C162 C 0.61809 0.81538 0.87906 0.0
C163 C 0.64512 0.85117 0.87628 0.0
C164 C 0.62428 0.90879 0.84426 0.0
C165 C 0.69701 0.936 0.85071 0.0
C166 C 0.63602 0.91131 0.85853 0.0
N167 N 0.67197 0.92456 0.86158 0.0
C168 C 0.68627 0.93388 0.83632 0.0
C169 C 0.64963 0.92013 0.8331 0.0
C170 C 0.7612 0.9919 0.88014 0.0
C171 C 0.7352 0.0222 0.9283 0.0
C172 C 0.79289 0.02174 0.91476 0.0
C173 C 0.79696 0.05446 0.91993 0.0
C174 C 0.76783 0.05463 0.92672 0.0
N175 N 0.76061 0.98982 0.91611 0.0
C176 C 0.73195 0.9901 0.92275 0.0
Co177 Co 0.7685 0.67691 0.2211 0.0
Co178 Co 0.80991 0.75696 0.23973 0.0
O179 O 0.77736 0.70405 0.23918 0.0
C180 C 0.69269 0.64861 0.23132 0.0
O181 O 0.70017 0.68249 0.23255 0.0
C182 C 0.81594 0.72845 0.26898 0.0
O183 O 0.79985 0.69494 0.26413 0.0
O184 O 0.85041 0.75091 0.23175 0.0
O185 O 0.8193 0.71145 0.21404 0.0
H186 H 0.90279 0.87737 0.21894 0.0
H187 H 0.7513 0.63501 0.24837 0.0
O188 O 0.7174 0.64166 0.22744 0.0
H189 H 0.84457 0.61648 0.22447 0.0
H190 H 0.71818 0.56351 0.19072 0.0
H191 H 0.78433 0.69761 0.19025 0.0
H192 H 0.82227 0.6541 0.21301 0.0
H193 H 0.73101 0.5981 0.21346 0.0
O194 O 0.82486 0.7549 0.26029 0.0
H195 H 0.86154 0.81109 0.2188 0.0
H196 H 0.82883 0.81535 0.26178 0.0
H197 H 0.77239 0.66412 0.16728 0.0
H198 H 0.77252 0.5968 0.26015 0.0
H199 H 0.73908 0.59656 0.16742 0.0
H200 H 0.81958 0.58744 0.2482 0.0
O201 O 0.75121 0.70787 0.212 0.0
H202 H 0.70047 0.72542 0.27074 0.0
H203 H 0.78191 0.80717 0.23293 0.0
H204 H 0.73221 0.81563 0.24198 0.0
H205 H 0.69084 0.77449 0.26098 0.0
H206 H 0.75068 0.71808 0.2615 0.0
H207 H 0.87061 0.88157 0.26249 0.0
H208 H 0.90786 0.9131 0.24093 0.0
O209 O 0.79555 0.76207 0.21965 0.0
C210 C 0.84914 0.7362 0.21954 0.0
C211 C 0.8869 0.86394 0.22843 0.0
C212 C 0.86879 0.8663 0.25286 0.0
N213 N 0.84269 0.80924 0.24025 0.0
C214 C 0.86331 0.82638 0.2284 0.0
C215 C 0.84533 0.82872 0.25242 0.0
C216 C 0.88966 0.88397 0.24076 0.0
C217 C 0.77167 0.63093 0.24308 0.0
N218 N 0.78567 0.64694 0.23007 0.0
C219 C 0.78364 0.60933 0.24981 0.0
C220 C 0.81007 0.60412 0.24311 0.0
C221 C 0.82414 0.62045 0.22981 0.0
C222 C 0.81154 0.64189 0.22341 0.0
C223 C 0.73284 0.59294 0.19052 0.0
C224 C 0.77013 0.66823 0.19042 0.0
C225 C 0.74016 0.61268 0.20336 0.0
N226 N 0.75884 0.64986 0.20319 0.0
C227 C 0.76331 0.64941 0.17737 0.0
C228 C 0.74458 0.6115 0.17745 0.0
C229 C 0.76849 0.74245 0.2115 0.0
C230 C 0.71844 0.7437 0.26253 0.0
C231 C 0.76437 0.78934 0.24131 0.0
C232 C 0.73607 0.79415 0.24633 0.0
C233 C 0.71297 0.77115 0.25702 0.0
N234 N 0.77009 0.76282 0.24697 0.0
C235 C 0.74723 0.73987 0.25733 0.0
Co236 Co 0.08444 0.7586 0.54882 0.0
Co237 Co 0.04963 0.80537 0.5659 0.0
O238 O 0.06517 0.76886 0.56625 0.0
C239 C 0.03105 0.68297 0.55825 0.0
O240 O 0.00573 0.69213 0.55835 0.0
C241 C 0.077 0.80562 0.59609 0.0
O242 O 0.0947 0.78954 0.59157 0.0
O243 O 0.09948 0.84316 0.55964 0.0
O244 O 0.10604 0.81064 0.54204 0.0
H245 H 0.04205 0.91057 0.54473 0.0
H246 H 0.10214 0.73728 0.57682 0.0
O247 O 0.06373 0.7065 0.55506 0.0
H248 H 0.22036 0.82422 0.55527 0.0
H249 H 0.14238 0.69985 0.52033 0.0
H250 H 0.08633 0.77729 0.51786 0.0
H251 H 0.16323 0.80732 0.5424 0.0
H252 H 0.12043 0.71514 0.54242 0.0
O253 O 0.06206 0.81677 0.58704 0.0
H254 H 0.05829 0.86238 0.545 0.0
H255 H 0.00924 0.82721 0.58624 0.0
H256 H 0.10839 0.76313 0.49552 0.0
H257 H 0.15865 0.75307 0.58999 0.0
H258 H 0.1366 0.72409 0.49667 0.0
H259 H 0.21831 0.79695 0.57923 0.0
O260 O 0.03836 0.74576 0.53862 0.0
H261 H 0.95711 0.69623 0.59381 0.0
H262 H 0.97525 0.78484 0.55571 0.0
H263 H 0.91314 0.73693 0.56188 0.0
H264 H 0.9037 0.69228 0.58112 0.0
H265 H 0.0187 0.7441 0.58714 0.0
H266 H 0.99274 0.87525 0.58644 0.0
H267 H 0.00946 0.91757 0.56564 0.0
O268 O 0.03504 0.79484 0.54513 0.0
C269 C 0.1135 0.8412 0.54767 0.0
C270 C 0.03486 0.89246 0.55391 0.0
C271 C 0.00722 0.87266 0.57732 0.0
N272 N 0.03502 0.8421 0.56567 0.0
C273 C 0.04392 0.86503 0.55411 0.0
C274 C 0.01675 0.84557 0.57716 0.0
C275 C 0.01658 0.89638 0.56564 0.0
C276 C 0.128 0.75626 0.57204 0.0
N277 N 0.12934 0.77151 0.55891 0.0
C278 C 0.15991 0.76516 0.57956 0.0
C279 C 0.19336 0.78981 0.57352 0.0
C280 C 0.19453 0.80516 0.56009 0.0
C281 C 0.16206 0.79563 0.55289 0.0
C282 C 0.13027 0.71702 0.51969 0.0
C283 C 0.09893 0.76062 0.51846 0.0
C284 C 0.11774 0.72572 0.53217 0.0
N285 N 0.1025 0.74746 0.53145 0.0
C286 C 0.11123 0.75256 0.50577 0.0
C287 C 0.12702 0.73062 0.50642 0.0
C288 C 0.02536 0.7669 0.53724 0.0
C289 C 0.96084 0.71575 0.58551 0.0
C290 C 0.97145 0.76568 0.56415 0.0
C291 C 0.93616 0.73854 0.56758 0.0
C292 C 0.93089 0.7135 0.57837 0.0
N293 N 1.00074 0.76801 0.57131 0.0
C294 C 0.99574 0.74323 0.58177 0.0
Co295 Co 0.32814 0.09176 0.88596 0.0
Co296 Co 0.24995 0.04424 0.90645 0.0
O297 O 0.30307 0.07233 0.90442 0.0
C298 C 0.36181 0.04851 0.89559 0.0
O299 O 0.32863 0.02123 0.89738 0.0
C300 C 0.27739 0.08751 0.93414 0.0
O301 O 0.31093 0.10512 0.92937 0.0
O302 O 0.24474 0.08286 0.89588 0.0
O303 O 0.2901 0.10387 0.87966 0.0
H304 H 0.12188 0.98958 0.88806 0.0
H305 H 0.37189 0.11888 0.91276 0.0
O306 O 0.36675 0.07946 0.8916 0.0
H307 H 0.37829 0.22687 0.88987 0.0
H308 H 0.43846 0.16181 0.85456 0.0
H309 H 0.3048 0.087 0.85544 0.0
H310 H 0.34373 0.16654 0.87842 0.0
H311 H 0.40595 0.13751 0.87755 0.0
O312 O 0.25135 0.06748 0.92564 0.0
H313 H 0.18883 0.02328 0.88616 0.0
H314 H 0.19801 0.00679 0.93085 0.0
H315 H 0.33616 0.11095 0.83223 0.0
H316 H 0.40719 0.17881 0.92449 0.0
H317 H 0.4035 0.14867 0.83169 0.0
H318 H 0.41044 0.23332 0.91306 0.0
O319 O 0.29986 0.04351 0.87651 0.0
H320 H 0.30833 0.99448 0.94018 0.0
H321 H 0.2086 0.96325 0.9057 0.0
H322 H 0.21424 0.91429 0.91741 0.0
H323 H 0.26425 0.92969 0.9349 0.0
H324 H 0.30241 0.04245 0.92797 0.0
H325 H 0.13132 0.97372 0.93327 0.0
H326 H 0.09278 0.96461 0.91175 0.0
O327 O 0.24592 0.0185 0.88793 0.0
C328 C 0.26041 0.10076 0.88442 0.0
C329 C 0.13842 0.99324 0.89749 0.0
C330 C 0.14371 0.98436 0.92288 0.0
N331 N 0.19734 0.01687 0.90833 0.0
C332 C 0.1763 0.01217 0.89647 0.0
C333 C 0.18149 0.00335 0.92145 0.0
C334 C 0.12209 0.97927 0.9108 0.0
C335 C 0.37337 0.14251 0.90768 0.0
N336 N 0.35566 0.13918 0.89496 0.0
C337 C 0.3933 0.17636 0.91439 0.0
C338 C 0.39508 0.20692 0.90798 0.0
C339 C 0.37701 0.20332 0.89498 0.0
C340 C 0.35731 0.16903 0.88859 0.0
C341 C 0.40911 0.14546 0.85466 0.0
C342 C 0.33407 0.10353 0.8553 0.0
C343 C 0.39055 0.13157 0.86764 0.0
N344 N 0.35347 0.11106 0.86785 0.0
C345 C 0.3517 0.11695 0.84212 0.0
C346 C 0.38948 0.13809 0.84183 0.0
C347 C 0.26689 0.01859 0.87806 0.0
C348 C 0.28618 0.98739 0.9327 0.0
C349 C 0.23044 0.97036 0.9133 0.0
C350 C 0.23351 0.94241 0.91989 0.0
C351 C 0.26155 0.95106 0.92969 0.0
N352 N 0.25447 0.00605 0.91638 0.0
C353 C 0.28236 0.01461 0.92584 0.0
Co354 Co 0.67212 0.76067 0.45935 0.0
Co355 Co 0.76332 0.79837 0.44262 0.0
O356 O 0.70748 0.76464 0.44332 0.0
C357 C 0.63614 0.68416 0.44813 0.0
O358 O 0.66846 0.68747 0.4472 0.0
C359 C 0.72663 0.78539 0.41253 0.0
O360 O 0.69456 0.76019 0.41698 0.0
O361 O 0.75364 0.8375 0.44983 0.0
O362 O 0.71109 0.8097 0.46718 0.0
H363 H 0.88265 0.90808 0.45489 0.0
H364 H 0.6381 0.74585 0.43022 0.0
O365 O 0.63286 0.71122 0.45217 0.0
H366 H 0.64186 0.85803 0.44677 0.0
H367 H 0.55138 0.73162 0.48053 0.0
H368 H 0.68108 0.77698 0.49063 0.0
H369 H 0.66415 0.82639 0.46242 0.0
H370 H 0.59303 0.7364 0.46101 0.0
O371 O 0.75221 0.80404 0.42155 0.0
H372 H 0.81953 0.85949 0.45922 0.0
H373 H 0.81454 0.81687 0.41724 0.0
H374 H 0.64048 0.77305 0.51047 0.0
H375 H 0.61542 0.77652 0.41423 0.0
H376 H 0.5751 0.75018 0.50546 0.0
H377 H 0.61734 0.83317 0.42245 0.0
O378 O 0.69094 0.73575 0.47207 0.0
H379 H 0.7348 0.68075 0.41773 0.0
H380 H 0.82599 0.78544 0.44571 0.0
H381 H 0.84142 0.74083 0.43618 0.0
H382 H 0.7958 0.68813 0.42191 0.0
H383 H 0.72077 0.72616 0.42709 0.0
H384 H 0.87726 0.86534 0.41237 0.0
H385 H 0.9119 0.9113 0.43129 0.0
O386 O 0.71941 0.75936 0.45233 0.0
C387 C 0.73909 0.83782 0.46195 0.0
C388 C 0.86784 0.88826 0.44655 0.0
C389 C 0.86477 0.86434 0.42267 0.0
N390 N 0.81317 0.83552 0.43849 0.0
C391 C 0.83211 0.86064 0.44895 0.0
C392 C 0.82906 0.83713 0.42545 0.0
C393 C 0.88421 0.89007 0.4333 0.0
C394 C 0.63958 0.77073 0.4338 0.0
N395 N 0.65375 0.78497 0.44703 0.0
C396 C 0.62644 0.78787 0.42473 0.0
C397 C 0.62749 0.81963 0.42936 0.0
C398 C 0.64131 0.83363 0.44298 0.0
C399 C 0.65424 0.81575 0.45175 0.0
C400 C 0.57982 0.74172 0.48284 0.0
C401 C 0.65273 0.76731 0.48837 0.0
C402 C 0.60353 0.74443 0.47184 0.0
N403 N 0.63951 0.75728 0.47467 0.0
C404 C 0.62984 0.76501 0.49964 0.0
C405 C 0.59316 0.75214 0.49683 0.0
C406 C 0.71922 0.7447 0.465 0.0
C407 C 0.75517 0.70396 0.4237 0.0
C408 C 0.80597 0.76292 0.43939 0.0
C409 C 0.81484 0.7375 0.43413 0.0
C410 C 0.7893 0.70799 0.42613 0.0
N411 N 0.77308 0.75999 0.43632 0.0
C412 C 0.74747 0.73022 0.42894 0.0
Co413 Co 0.92409 0.68513 0.78591 0.0
Co414 Co 0.95049 0.75762 0.76296 0.0
O415 O 0.93395 0.70607 0.76647 0.0
C416 C 0.9736 0.65905 0.77528 0.0
O417 O 0.99847 0.69303 0.77286 0.0
C418 C 0.90976 0.7181 0.73607 0.0
O419 O 0.89933 0.68611 0.74181 0.0
O420 O 0.90741 0.75298 0.7738 0.0
O421 O 0.90545 0.71806 0.79236 0.0
H422 H 0.97732 0.88252 0.7779 0.0
H423 H 0.89425 0.6346 0.76104 0.0
O424 O 0.9424 0.65141 0.78004 0.0
H425 H 0.78761 0.61354 0.78969 0.0
H426 H 0.88275 0.58285 0.82178 0.0
H427 H 0.93571 0.71523 0.81561 0.0
H428 H 0.84952 0.65849 0.79762 0.0
H429 H 0.89331 0.60979 0.79744 0.0
O430 O 0.92341 0.74647 0.744 0.0
H431 H 0.95872 0.81804 0.78164 0.0
H432 H 0.97525 0.8068 0.73712 0.0
H433 H 0.92514 0.68937 0.84016 0.0
H434 H 0.83282 0.58909 0.75279 0.0
H435 H 0.89853 0.62273 0.84336 0.0
H436 H 0.77896 0.57839 0.76714 0.0
O437 O 0.97367 0.72218 0.79231 0.0
H438 H 0.01905 0.71528 0.73116 0.0
H439 H 0.02878 0.81533 0.76128 0.0
H440 H 0.0832 0.82196 0.74923 0.0
H441 H 0.07862 0.77188 0.73386 0.0
H442 H 0.96568 0.70932 0.74367 0.0
H443 H 0.99349 0.871 0.73289 0.0
H444 H 0.99484 0.90942 0.75338 0.0
O445 O 0.97957 0.77177 0.78116 0.0
C446 C 0.89738 0.7405 0.7866 0.0
C447 C 0.97691 0.86608 0.76889 0.0
C448 C 0.98589 0.85959 0.74362 0.0
N449 N 0.96595 0.80859 0.75964 0.0
C450 C 0.96649 0.82954 0.77095 0.0
C451 C 0.97529 0.82315 0.74608 0.0
C452 C 0.98669 0.88114 0.75513 0.0
C453 C 0.87095 0.63001 0.76736 0.0
N454 N 0.87547 0.6493 0.77975 0.0
C455 C 0.83623 0.60425 0.76263 0.0
C456 C 0.80602 0.59828 0.77068 0.0
C457 C 0.81086 0.61801 0.78332 0.0
C458 C 0.84598 0.64357 0.78772 0.0
C459 C 0.89424 0.61192 0.82053 0.0
C460 C 0.92381 0.68617 0.81691 0.0
C461 C 0.90035 0.62734 0.80677 0.0
N462 N 0.91482 0.66403 0.8051 0.0
C463 C 0.91801 0.6717 0.83084 0.0
C464 C 0.90311 0.6343 0.83263 0.0
C465 C 0.98991 0.75648 0.79038 0.0
C466 C 0.02133 0.73754 0.73765 0.0
C467 C 0.02624 0.79333 0.75465 0.0
C468 C 0.05732 0.79729 0.74782 0.0
C469 C 0.05475 0.76922 0.73921 0.0
N470 N 0.99322 0.76248 0.75287 0.0
C471 C 0.99085 0.73454 0.74467 0.0
Co472 Co 0.24611 0.92351 0.12486 0.0
Co473 Co 0.20275 0.95969 0.1063 0.0
O474 O 0.23701 0.94127 0.10674 0.0
C475 C 0.32233 0.9722 0.11494 0.0
O476 O 0.31499 0.99875 0.11397 0.0
C477 C 0.20343 0.93213 0.07616 0.0
O478 O 0.22232 0.91717 0.08057 0.0
O479 O 0.16319 0.91125 0.11319 0.0
O480 O 0.19453 0.90532 0.13147 0.0
H481 H 0.1026 0.97736 0.1264 0.0
H482 H 0.26424 0.89983 0.09757 0.0
O483 O 0.29762 0.94049 0.11873 0.0
H484 H 0.17425 0.78676 0.12169 0.0
H485 H 0.29871 0.86384 0.15602 0.0
H486 H 0.22803 0.92728 0.15546 0.0
H487 H 0.19472 0.84636 0.13313 0.0
H488 H 0.28584 0.88467 0.13305 0.0
O489 O 0.19074 0.94548 0.08528 0.0
H490 H 0.14706 0.95618 0.1267 0.0
H491 H 0.18383 1.00036 0.08485 0.0
H492 H 0.23997 0.90662 0.17866 0.0
H493 H 0.24477 0.84076 0.08578 0.0
H494 H 0.27555 0.87463 0.17903 0.0
H495 H 0.19938 0.78368 0.09785 0.0
O496 O 0.26203 0.97195 0.13371 0.0
H497 H 0.31795 0.04577 0.07987 0.0
H498 H 0.22539 0.03612 0.11443 0.0
H499 H 0.27681 0.09641 0.10844 0.0
H500 H 0.32366 0.10163 0.09104 0.0
H501 H 0.26632 0.98616 0.08616 0.0
H502 H 0.1395 0.02169 0.08407 0.0
H503 H 0.09859 0.01039 0.10498 0.0
O504 O 0.21379 0.97598 0.12689 0.0
C505 C 0.16438 0.89785 0.12545 0.0
C506 C 0.12029 0.98247 0.11723 0.0
C507 C 0.14095 0.00729 0.09346 0.0
N508 N 0.16808 0.97694 0.10581 0.0
C509 C 0.14557 0.97055 0.11733 0.0
C510 C 0.16588 0.99494 0.09394 0.0
C511 C 0.11803 1.00097 0.1052 0.0
C512 C 0.24455 0.8751 0.1029 0.0
N513 N 0.23053 0.87657 0.11598 0.0
C514 C 0.2336 0.84174 0.09617 0.0
C515 C 0.20812 0.80973 0.10294 0.0
C516 C 0.19398 0.81144 0.1163 0.0
C517 C 0.20556 0.84529 0.1227 0.0
C518 C 0.2831 0.87767 0.156 0.0
C519 C 0.24334 0.91319 0.15553 0.0
C520 C 0.2758 0.88959 0.14303 0.0
N521 N 0.25592 0.90689 0.14292 0.0
C522 C 0.25011 0.90164 0.1687 0.0
C523 C 0.2701 0.88373 0.1689 0.0
C524 C 0.24288 0.98734 0.1342 0.0
C525 C 0.29746 0.04394 0.08731 0.0
C526 C 0.24523 0.03803 0.10665 0.0
C527 C 0.27444 0.07234 0.10336 0.0
C528 C 0.30073 0.07524 0.09362 0.0
N529 N 0.24201 0.00734 0.10038 0.0
C530 C 0.26779 0.0101 0.09082 0.0
Co531 Co 0.31485 0.23925 0.45438 0.0
Co532 Co 0.24366 0.19045 0.43174 0.0
O533 O 0.29435 0.22861 0.43488 0.0
C534 C 0.33751 0.31549 0.4452 0.0
O535 O 0.30317 0.30563 0.44328 0.0
C536 C 0.28247 0.19669 0.40336 0.0
O537 O 0.31495 0.21775 0.40877 0.0
O538 O 0.25479 0.15387 0.44051 0.0
O539 O 0.28451 0.18652 0.46005 0.0
H540 H 0.12567 0.08127 0.44665 0.0
H541 H 0.36525 0.26367 0.42947 0.0
O542 O 0.34639 0.29218 0.44918 0.0
H543 H 0.39427 0.18242 0.45738 0.0
H544 H 0.41489 0.30077 0.49115 0.0
H545 H 0.28389 0.21677 0.48373 0.0
H546 H 0.34633 0.19486 0.46562 0.0
H547 H 0.38914 0.28615 0.46657 0.0
O548 O 0.25471 0.18091 0.41157 0.0
H549 H 0.18846 0.13113 0.45009 0.0
H550 H 0.1912 0.16564 0.40682 0.0
H551 H 0.30855 0.23039 0.5085 0.0
H552 H 0.41364 0.25221 0.42089 0.0
H553 H 0.37451 0.27267 0.51233 0.0
H554 H 0.42837 0.21127 0.43488 0.0
O555 O 0.27531 0.24845 0.46082 0.0
H556 H 0.27337 0.30609 0.40533 0.0
H557 H 0.17999 0.20275 0.43311 0.0
H558 H 0.16751 0.25023 0.42465 0.0
H559 H 0.2143 0.30243 0.41057 0.0
H560 H 0.28496 0.25832 0.41409 0.0
H561 H 0.12875 0.11575 0.40288 0.0
H562 H 0.09535 0.07316 0.42293 0.0
O563 O 0.22908 0.19869 0.45119 0.0
C564 C 0.26613 0.15602 0.45352 0.0
C565 C 0.13993 0.09964 0.43785 0.0
C566 C 0.14166 0.11895 0.41328 0.0
N567 N 0.19373 0.15161 0.42869 0.0
C568 C 0.17553 0.12808 0.43973 0.0
C569 C 0.17722 0.14712 0.41556 0.0
C570 C 0.12293 0.0951 0.42453 0.0
C571 C 0.3716 0.24592 0.43563 0.0
N572 N 0.35297 0.22994 0.44801 0.0
C573 C 0.39898 0.23949 0.43072 0.0
C574 C 0.40722 0.2165 0.43856 0.0
C575 C 0.38807 0.20027 0.45118 0.0
C576 C 0.36086 0.20732 0.45576 0.0
C577 C 0.38612 0.28225 0.48963 0.0
C578 C 0.31265 0.23503 0.48531 0.0
C579 C 0.37136 0.27393 0.47573 0.0
N580 N 0.33508 0.25039 0.47372 0.0
C581 C 0.32644 0.24272 0.49936 0.0
C582 C 0.36345 0.26647 0.5015 0.0
C583 C 0.24137 0.22643 0.45936 0.0
C584 C 0.25264 0.28336 0.41137 0.0
C585 C 0.20056 0.2251 0.42698 0.0
C586 C 0.19328 0.25204 0.4222 0.0
C587 C 0.21953 0.28132 0.41432 0.0
N588 N 0.23299 0.22696 0.42397 0.0
C589 C 0.25899 0.25596 0.41637 0.0
Co590 Co 0.09156 0.32923 0.78966 0.0
Co591 Co 0.02954 0.24408 0.77674 0.0
O592 O 0.06088 0.29665 0.77414 0.0
C593 C 0.04829 0.36269 0.78055 0.0
O594 O 0.02014 0.32972 0.78145 0.0
C595 C 0.06232 0.25258 0.74694 0.0
O596 O 0.09275 0.28167 0.7507 0.0
O597 O 0.07187 0.23995 0.78404 0.0
O598 O 0.10263 0.29109 0.79717 0.0
H599 H 0.98236 0.12755 0.80444 0.0
H600 H 0.10513 0.35762 0.75972 0.0
O601 O 0.08014 0.36776 0.78292 0.0
H602 H 0.21881 0.36288 0.77519 0.0
H603 H 0.18436 0.45051 0.81009 0.0
H604 H 0.10175 0.32085 0.82085 0.0
H605 H 0.16641 0.34008 0.79172 0.0
H606 H 0.14593 0.40835 0.79095 0.0
O607 O 0.03811 0.23433 0.75634 0.0
H608 H 0.01984 0.19373 0.80035 0.0
H609 H 0.97399 0.18235 0.75868 0.0
H610 H 0.13989 0.36193 0.84029 0.0
H611 H 0.15705 0.38114 0.74291 0.0
H612 H 0.18159 0.42731 0.83496 0.0
H613 H 0.21436 0.38374 0.75061 0.0
O614 O 0.04973 0.31065 0.8031 0.0
H615 H 0.96709 0.28972 0.74363 0.0
H616 H 0.95228 0.21311 0.78597 0.0
H617 H 0.90022 0.21859 0.77743 0.0
H618 H 0.90742 0.25708 0.75608 0.0
H619 H 0.01848 0.28378 0.75262 0.0
H620 H 0.93629 0.1161 0.76215 0.0
H621 H 0.94019 0.08827 0.7852 0.0
O622 O 0.01746 0.25164 0.79684 0.0
C623 C 0.09515 0.25882 0.79377 0.0
C624 C 0.98031 0.13934 0.79436 0.0
C625 C 0.95453 0.13292 0.77062 0.0
N626 N 0.99899 0.19191 0.77938 0.0
C627 C 1.00138 0.17675 0.79203 0.0
C628 C 0.97608 0.17047 0.76869 0.0
C629 C 0.95671 0.11732 0.78356 0.0
C630 C 0.1301 0.35901 0.76318 0.0
N631 N 0.13277 0.34753 0.77667 0.0
C632 C 0.15935 0.3722 0.7536 0.0
C633 C 0.19147 0.37359 0.75792 0.0
C634 C 0.19398 0.36184 0.77171 0.0
C635 C 0.16416 0.34879 0.78099 0.0
C636 C 0.1664 0.42206 0.81254 0.0
C637 C 0.12005 0.34916 0.81842 0.0
C638 C 0.14455 0.39807 0.80175 0.0
N639 N 0.12195 0.36207 0.80475 0.0
C640 C 0.14148 0.37234 0.82948 0.0
C641 C 0.16483 0.40902 0.82649 0.0
C642 C 0.02403 0.27831 0.80509 0.0
C643 C 0.96358 0.27283 0.75293 0.0
C644 C 0.95569 0.23004 0.77672 0.0
C645 C 0.92607 0.23296 0.7719 0.0
C646 C 0.93013 0.25454 0.75993 0.0
N647 N 0.98845 0.24809 0.76982 0.0
C648 C 0.99259 0.26926 0.75806 0.0
Co649 Co 0.7667 0.08286 0.12287 0.0
Co650 Co 0.80219 0.03909 0.10409 0.0
O651 O 0.77241 0.0626 0.10473 0.0
C652 C 0.68994 0.0385 0.11334 0.0
O653 O 0.69594 0.01113 0.11203 0.0
C654 C 0.8058 0.06907 0.07398 0.0
O655 O 0.79137 0.08849 0.07835 0.0
O656 O 0.84536 0.08554 0.11068 0.0
O657 O 0.81771 0.09674 0.12901 0.0
H658 H 0.89648 0.01102 0.12306 0.0
H659 H 0.74989 0.10791 0.09562 0.0
O660 O 0.71569 0.06963 0.11723 0.0
H661 H 0.8483 0.21842 0.11839 0.0
H662 H 0.72559 0.15285 0.15401 0.0
H663 H 0.78637 0.07965 0.15334 0.0
H664 H 0.82383 0.15874 0.13027 0.0
H665 H 0.73317 0.12755 0.13114 0.0
O666 O 0.81452 0.05224 0.08311 0.0
H667 H 0.85623 0.03725 0.12397 0.0
H668 H 0.81242 0.99181 0.08291 0.0
H669 H 0.7799 0.10491 0.17641 0.0
H670 H 0.77334 0.16713 0.0834 0.0
H671 H 0.7493 0.1418 0.17684 0.0
H672 H 0.82295 0.22291 0.09479 0.0
O673 O 0.74742 0.03444 0.13227 0.0
H674 H 0.68479 0.96379 0.07722 0.0
H675 H 0.76955 0.96119 0.11295 0.0
H676 H 0.71265 0.90462 0.10717 0.0
H677 H 0.6702 0.90556 0.08906 0.0
H678 H 0.74103 0.01959 0.08348 0.0
H679 H 0.85279 0.96573 0.08143 0.0
H680 H 0.89534 0.97542 0.10158 0.0
O681 O 0.79094 0.02349 0.12468 0.0
C682 C 0.84635 0.10041 0.12283 0.0
C683 C 0.87827 0.00685 0.11416 0.0
C684 C 0.8538 0.98151 0.09079 0.0
N685 N 0.83223 0.01646 0.10343 0.0
C686 C 0.8553 0.02156 0.11463 0.0
C687 C 0.83109 0.99646 0.09166 0.0
C688 C 0.87766 0.98694 0.1021 0.0
C689 C 0.77139 0.1321 0.10065 0.0
N690 N 0.78552 0.12985 0.11361 0.0
C691 C 0.7846 0.16553 0.09368 0.0
C692 C 0.81246 0.19681 0.10007 0.0
C693 C 0.82672 0.19431 0.1133 0.0
C694 C 0.81285 0.1604 0.11995 0.0
C695 C 0.73903 0.13687 0.15396 0.0
C696 C 0.77325 0.09587 0.15343 0.0
C697 C 0.7433 0.12238 0.14105 0.0
N698 N 0.76048 0.1024 0.1409 0.0
C699 C 0.76955 0.11 0.16653 0.0
C700 C 0.75235 0.13067 0.16676 0.0
C701 C 0.76397 0.01643 0.13273 0.0
C702 C 0.7035 0.96283 0.08491 0.0
C703 C 0.75134 0.96185 0.10494 0.0
C704 C 0.7192 0.9297 0.10173 0.0
C705 C 0.69524 0.93024 0.09161 0.0
N706 N 0.75936 0.9938 0.0983 0.0
C707 C 0.73579 0.99444 0.08839 0.0
H708 H 0.85235 0.09264 0.15147 0.0
H709 H 0.90657 0.12051 0.1665 0.0
H710 H 0.97194 0.17526 0.12917 0.0
H711 H 0.91723 0.14524 0.11382 0.0
H712 H 0.00972 0.15756 0.14567 0.0
H713 H 0.94384 0.21871 0.1551 0.0
H714 H 0.8899 0.2239 0.1608 0.0
H715 H 0.88082 0.17391 0.20206 0.0
H716 H 0.93438 0.16785 0.19651 0.0
H717 H 0.15392 0.29258 0.18886 0.0
H718 H 0.10015 0.26478 0.17348 0.0
H719 H 0.04361 0.18052 0.20508 0.0
H720 H 0.09797 0.20761 0.22052 0.0
H721 H 1.00336 0.21613 0.19114 0.0
H722 H 0.07365 0.15748 0.18012 0.0
H723 H 0.13065 0.15899 0.17352 0.0
H724 H 0.13501 0.21321 0.13383 0.0
H725 H 0.07846 0.21286 0.14033 0.0
C726 C 0.87824 0.11069 0.14643 0.0
C727 C 0.88039 0.11734 0.13149 0.0
C728 C 0.90936 0.12678 0.15507 0.0
C729 C 0.9435 0.15115 0.14916 0.0
C730 C 0.94598 0.15692 0.1341 0.0
C731 C 0.91473 0.1399 0.12532 0.0
C732 C 0.97602 0.17076 0.15884 0.0
C733 C 0.00833 0.17071 0.1555 0.0
C734 C 0.97464 0.18809 0.17178 0.0
C735 C 0.94298 0.19257 0.17534 0.0
C736 C 0.93026 0.20869 0.16537 0.0
C737 C 0.89974 0.21176 0.16857 0.0
C738 C 0.88189 0.19916 0.18177 0.0
C739 C 0.89465 0.18362 0.19183 0.0
C740 C 0.92512 0.18039 0.18867 0.0
C741 C 0.13003 0.26839 0.19272 0.0
C742 C 0.13053 0.25236 0.206 0.0
C743 C 0.09927 0.25247 0.18383 0.0
C744 C 0.06798 0.22043 0.18806 0.0
C745 C 0.06754 0.20524 0.2016 0.0
C746 C 0.09863 0.22082 0.21043 0.0
C747 C 0.03639 0.2022 0.17804 0.0
C748 C 0.00447 0.20282 0.18131 0.0
C749 C 0.03852 0.18627 0.1649 0.0
C750 C 0.07195 0.18549 0.16079 0.0
C751 C 0.08689 0.17002 0.17004 0.0
C752 C 0.11912 0.17064 0.16631 0.0
C753 C 0.13647 0.18627 0.15329 0.0
C754 C 0.12155 0.20117 0.14393 0.0
C755 C 0.08941 0.20077 0.14763 0.0
H756 H 0.16144 0.18676 0.15044 0.0
H757 H 0.85821 0.20149 0.18421 0.0
H758 H 0.90788 0.15602 0.52295 0.0
H759 H 0.88095 0.10178 0.50785 0.0
H760 H 0.85233 0.03441 0.54593 0.0
H761 H 0.8814 0.08947 0.56113 0.0
H762 H 0.87004 0.00345 0.52617 0.0
H763 H 0.78925 0.05144 0.52563 0.0
H764 H 0.77322 0.09954 0.52283 0.0
H765 H 0.80635 0.11321 0.4784 0.0
H766 H 0.82314 0.06557 0.481 0.0
H767 H 0.72989 0.84491 0.49081 0.0
H768 H 0.76042 0.89946 0.50581 0.0
H769 H 0.81755 0.96291 0.46851 0.0
H770 H 0.78764 0.90806 0.45337 0.0
H771 H 0.78436 0.99469 0.48779 0.0
H772 H 0.86325 0.94356 0.48908 0.0
H773 H 0.87629 0.8936 0.49264 0.0
H774 H 0.84197 0.8832 0.53683 0.0
H775 H 0.82798 0.93263 0.53346 0.0
C776 C 0.89568 0.12963 0.52813 0.0
C777 C 0.89599 0.12699 0.54325 0.0
C778 C 0.88012 0.09848 0.51946 0.0
C779 C 0.86326 0.06355 0.52565 0.0
C780 C 0.86472 0.06085 0.5408 0.0
C781 C 0.88121 0.0923 0.54952 0.0
C782 C 0.84375 0.03026 0.51626 0.0
C783 C 0.85096 1.00148 0.51794 0.0
C784 C 0.819 0.02737 0.50528 0.0
C785 C 0.8077 0.0551 0.50354 0.0
C786 C 0.7932 0.06476 0.51527 0.0
C787 C 0.78402 0.09197 0.51373 0.0
C788 C 0.78885 0.10948 0.50046 0.0
C789 C 0.80267 0.09965 0.48868 0.0
C790 C 0.81198 0.07251 0.49018 0.0
C791 C 0.74871 0.87043 0.4857 0.0
C792 C 0.75612 0.8719 0.4708 0.0
C793 C 0.76629 0.90166 0.49435 0.0
C794 C 0.79141 0.93535 0.48833 0.0
C795 C 0.79826 0.93724 0.47341 0.0
C796 C 0.78114 0.90581 0.46476 0.0
C797 C 0.81085 0.9683 0.49772 0.0
C798 C 0.80348 0.99686 0.49605 0.0
C799 C 0.83493 0.97068 0.50883 0.0
C800 C 0.84418 0.94156 0.51097 0.0
C801 C 0.85819 0.93044 0.49953 0.0
C802 C 0.86579 0.90223 0.50151 0.0
C803 C 0.85984 0.88516 0.51494 0.0
C804 C 0.84649 0.89641 0.52643 0.0
C805 C 0.83873 0.92453 0.52449 0.0
H806 H 0.86556 0.86322 0.51644 0.0
H807 H 0.78184 0.13063 0.4993 0.0
H808 H 0.7697 0.85487 0.88999 0.0
H809 H 0.79424 0.82583 0.8742 0.0
H810 H 0.76817 0.86926 0.83684 0.0
H811 H 0.74209 0.89627 0.85235 0.0
H812 H 0.75385 0.80681 0.82999 0.0
H813 H 0.859 0.90548 0.85218 0.0
H814 H 0.89767 0.94227 0.87242 0.0
H815 H 0.90396 0.8503 0.88808 0.0
H816 H 0.86506 0.81287 0.86797 0.0
H817 H 0.87439 0.78939 0.77968 0.0
H818 H 0.84621 0.81424 0.79583 0.0
H819 H 0.84952 0.74891 0.83078 0.0
H820 H 0.87692 0.72368 0.81486 0.0
H821 H 0.87553 0.82125 0.83888 0.0
H822 H 0.77098 0.72447 0.81466 0.0
H823 H 0.73454 0.69163 0.79333 0.0
H824 H 0.73068 0.78664 0.78009 0.0
H825 H 0.76756 0.82022 0.80125 0.0
C826 C 0.76901 0.85798 0.87841 0.0
C827 C 0.75376 0.87796 0.87253 0.0
C828 C 0.78337 0.8416 0.86934 0.0
C829 C 0.78378 0.84566 0.8542 0.0
C830 C 0.76826 0.86537 0.8484 0.0
C831 C 0.75333 0.88102 0.85738 0.0
C832 C 0.80023 0.82971 0.84427 0.0
C833 C 0.78069 0.8105 0.83192 0.0
C834 C 0.83511 0.8338 0.84667 0.0
C835 C 0.85882 0.85629 0.85867 0.0
C836 C 0.86847 0.89306 0.85999 0.0
C837 C 0.89044 0.91402 0.87143 0.0
C838 C 0.90313 0.89859 0.88157 0.0
C839 C 0.89404 0.8622 0.88023 0.0
C840 C 0.87209 0.84111 0.86881 0.0
C841 C 0.86878 0.78 0.79076 0.0
C842 C 0.87797 0.75434 0.79586 0.0
C843 C 0.85271 0.79432 0.80001 0.0
C844 C 0.84574 0.78352 0.81458 0.0
C845 C 0.85474 0.75786 0.81964 0.0
C846 C 0.87033 0.7433 0.81042 0.0
C847 C 0.82925 0.79887 0.82466 0.0
C848 C 0.84875 0.81779 0.83702 0.0
C849 C 0.79471 0.79522 0.82211 0.0
C850 C 0.77232 0.77495 0.80946 0.0
C851 C 0.7626 0.73845 0.80714 0.0
C852 C 0.74182 0.71968 0.79509 0.0
C853 C 0.73038 0.73706 0.78534 0.0
C854 C 0.7396 0.77322 0.78764 0.0
C855 C 0.76041 0.79212 0.79967 0.0
H856 H 0.7143 0.7225 0.77602 0.0
H857 H 0.92007 0.91485 0.89043 0.0
H858 H 0.92149 0.77157 0.22769 0.0
H859 H 0.97489 0.79682 0.21184 0.0
H860 H 0.90454 0.76302 0.17451 0.0
H861 H 0.85174 0.73591 0.1902 0.0
H862 H 0.95396 0.75169 0.16805 0.0
H863 H 0.95865 0.85858 0.18811 0.0
H864 H 0.96073 0.90029 0.20713 0.0
H865 H 0.058 0.90758 0.22441 0.0
H866 H 0.05672 0.86619 0.20538 0.0
H867 H 0.09299 0.87534 0.11793 0.0
H868 H 0.03912 0.84606 0.13362 0.0
H869 H 0.10566 0.84607 0.16876 0.0
H870 H 0.15899 0.87419 0.15328 0.0
H871 H 0.05934 0.87504 0.17599 0.0
H872 H 0.05388 0.76969 0.15327 0.0
H873 H 0.05124 0.73237 0.13239 0.0
H874 H 0.95187 0.72613 0.11834 0.0
H875 H 0.95422 0.76388 0.13903 0.0
C876 C 0.91754 0.76937 0.2161 0.0
C877 C 0.88225 0.75141 0.21027 0.0
C878 C 0.94814 0.78419 0.20699 0.0
C879 C 0.94418 0.7826 0.19182 0.0
C880 C 0.90881 0.76464 0.18608 0.0
C881 C 0.87841 0.74906 0.19514 0.0
C882 C 0.97642 0.79909 0.18182 0.0
C883 C 0.97663 0.77891 0.16976 0.0
C884 C 0.00668 0.83446 0.18392 0.0
C885 C 0.00735 0.859 0.19544 0.0
C886 C 0.98033 0.8689 0.19603 0.0
C887 C 0.98139 0.8925 0.2068 0.0
C888 C 0.00927 0.90631 0.21705 0.0
C889 C 0.03634 0.89677 0.21649 0.0
C890 C 0.03556 0.87336 0.20569 0.0
C891 C 0.09608 0.86867 0.12893 0.0
C892 C 0.13056 0.87724 0.13425 0.0
C893 C 0.06526 0.85202 0.13791 0.0
C894 C 0.06836 0.84401 0.15241 0.0
C895 C 0.10257 0.85214 0.15766 0.0
C896 C 0.13312 0.86816 0.14869 0.0
C897 C 0.03634 0.82775 0.16232 0.0
C898 C 0.03638 0.84793 0.17434 0.0
C899 C 0.00597 0.79281 0.15999 0.0
C900 C 0.00444 0.76993 0.14761 0.0
C901 C 0.03164 0.76063 0.14565 0.0
C902 C 0.03016 0.73934 0.13387 0.0
C903 C 1.00146 0.72697 0.12402 0.0
C904 C 0.97412 0.73578 0.12596 0.0
C905 C 0.9755 0.75709 0.13772 0.0
H906 H 1.00036 0.71049 0.1149 0.0
H907 H 0.00998 0.92453 0.22539 0.0
H908 H 0.22376 0.0837 0.44538 0.0
H909 H 0.20064 0.02986 0.46094 0.0
H910 H 0.25607 0.09869 0.49744 0.0
H911 H 0.28057 0.15178 0.48198 0.0
H912 H 0.26158 0.0434 0.50054 0.0
H913 H 0.15978 0.05878 0.49016 0.0
H914 H 0.11538 0.06528 0.47514 0.0
H915 H 0.07974 0.96025 0.45635 0.0
H916 H 0.12423 0.95328 0.47117 0.0
H917 H 0.14209 0.91355 0.55533 0.0
H918 H 0.17077 0.96692 0.5393 0.0
H919 H 0.15763 0.89731 0.50323 0.0
H920 H 0.1304 0.84444 0.51903 0.0
H921 H 0.13019 0.95173 0.5002 0.0
H922 H 0.23482 0.93928 0.51268 0.0
H923 H 0.2768 0.93516 0.52997 0.0
H924 H 0.30413 0.03949 0.54749 0.0
H925 H 0.26182 0.04393 0.53043 0.0
C926 C 0.23142 0.08729 0.45668 0.0
C927 C 0.25402 0.12234 0.46234 0.0
C928 C 0.21782 0.05644 0.46564 0.0
C929 C 0.22586 0.05994 0.48055 0.0
C930 C 0.24924 0.09485 0.48606 0.0
C931 C 0.26322 0.12545 0.47712 0.0
C932 C 0.20985 0.02774 0.49055 0.0
C933 C 0.23274 0.0237 0.50049 0.0
C934 C 0.17221 1.00153 0.49065 0.0
C935 C 0.1456 0.00569 0.48166 0.0
C936 C 0.14266 0.03719 0.48275 0.0
C937 C 0.11743 0.04092 0.4743 0.0
C938 C 0.09481 0.01322 0.46478 0.0
C939 C 0.09732 0.9817 0.46372 0.0
C940 C 0.12251 0.97782 0.47215 0.0
C941 C 0.14581 0.90967 0.54404 0.0
C942 C 0.13399 0.87451 0.53857 0.0
C943 C 0.16206 0.94018 0.53487 0.0
C944 C 0.16615 0.93605 0.52004 0.0
C945 C 0.15464 0.90115 0.5146 0.0
C946 C 0.13921 0.87089 0.52375 0.0
C947 C 0.18194 0.96783 0.51003 0.0
C948 C 0.15898 0.97164 0.50015 0.0
C949 C 0.21927 0.9943 0.51022 0.0
C950 C 0.24484 0.99173 0.5204 0.0
C951 C 0.24949 0.96116 0.52032 0.0
C952 C 0.27341 0.95881 0.53005 0.0
C953 C 0.29304 0.987 0.53985 0.0
C954 C 0.28886 0.01764 0.53991 0.0
C955 C 0.26493 0.0201 0.5302 0.0
H956 H 0.31156 0.98513 0.54738 0.0
H957 H 0.0753 0.01617 0.45823 0.0
H958 H 0.27811 0.12832 0.85702 0.0
H959 H 0.24825 0.15203 0.84177 0.0
H960 H 0.17255 0.13511 0.87599 0.0
H961 H 0.20144 0.10926 0.89121 0.0
H962 H 0.13689 0.11864 0.85212 0.0
H963 H 0.24795 0.22252 0.86649 0.0
H964 H 0.31411 0.25989 0.8703 0.0
H965 H 0.33204 0.26 0.82467 0.0
H966 H 0.26599 0.22217 0.82061 0.0
H967 H 0.11569 0.27144 0.82209 0.0
H968 H 0.14065 0.24169 0.83711 0.0
H969 H 0.13884 0.17792 0.80061 0.0
H970 H 0.11204 0.20642 0.7856 0.0
H971 H 0.21135 0.23464 0.82587 0.0
H972 H 0.09344 0.12538 0.81338 0.0
H973 H 0.02658 0.093 0.81213 0.0
H974 H 0.02108 0.10728 0.85777 0.0
H975 H 0.08805 0.14143 0.85914 0.0
C976 C 0.25522 0.12967 0.86144 0.0
C977 C 0.24264 0.11712 0.87553 0.0
C978 C 0.23815 0.14354 0.85264 0.0
C979 C 0.20847 0.1464 0.85772 0.0
C980 C 0.19548 0.13353 0.87174 0.0
C981 C 0.21223 0.11895 0.88051 0.0
C982 C 0.1913 0.16275 0.84835 0.0
C983 C 0.15332 0.14409 0.84646 0.0
C984 C 0.21231 0.19614 0.84088 0.0
C985 C 0.25203 0.21924 0.84326 0.0
C986 C 0.26602 0.23033 0.85728 0.0
C987 C 0.30349 0.25161 0.85948 0.0
C988 C 0.32727 0.26224 0.84774 0.0
C989 C 0.31359 0.25171 0.83376 0.0
C990 C 0.27613 0.23038 0.8315 0.0
C991 C 0.12056 0.25109 0.8172 0.0
C992 C 0.11198 0.24152 0.80256 0.0
C993 C 0.13461 0.23388 0.82587 0.0
C994 C 0.14089 0.20692 0.82013 0.0
C995 C 0.13328 0.19789 0.80542 0.0
C996 C 0.11825 0.21443 0.79681 0.0
C997 C 0.15735 0.18998 0.82938 0.0
C998 C 0.19515 0.20893 0.83141 0.0
C999 C 0.13611 0.1573 0.83717 0.0
C1000 C 0.09585 0.13698 0.83627 0.0
C1001 C 0.07807 0.12258 0.82307 0.0
C1002 C 0.0401 0.1037 0.82235 0.0
C1003 C 0.01958 0.09829 0.83484 0.0
C1004 C 0.037 0.11157 0.84809 0.0
C1005 C 0.07497 0.1309 0.84882 0.0
H1006 H 0.9902 0.08367 0.83427 0.0
H1007 H 0.35628 0.2787 0.84947 0.0
H1008 H 0.63055 0.65276 0.23386 0.0
H1009 H 0.56784 0.60253 0.2344 0.0
H1010 H 0.6061 0.52554 0.23336 0.0
H1011 H 0.66883 0.57565 0.23237 0.0
H1012 H 0.55374 0.50587 0.21481 0.0
H1013 H 0.56855 0.54223 0.26452 0.0
H1014 H 0.58402 0.58513 0.28482 0.0
H1015 H 0.50151 0.60915 0.27129 0.0
H1016 H 0.48587 0.56674 0.2508 0.0
H1017 H 0.38277 0.34938 0.22762 0.0
H1018 H 0.44538 0.39846 0.23102 0.0
H1019 H 0.40968 0.47738 0.22931 0.0
H1020 H 0.34688 0.42841 0.22614 0.0
H1021 H 0.46067 0.49518 0.2499 0.0
H1022 H 0.44758 0.46046 0.19981 0.0
H1023 H 0.43204 0.41751 0.17953 0.0
H1024 H 0.51178 0.39045 0.19396 0.0
H1025 H 0.52744 0.4329 0.21446 0.0
C1026 C 0.62567 0.62515 0.23392 0.0
C1027 C 0.65478 0.61828 0.23307 0.0
C1028 C 0.58971 0.59638 0.23428 0.0
C1029 C 0.58206 0.56008 0.23406 0.0
C1030 C 0.61118 0.55323 0.23352 0.0
C1031 C 0.6471 0.58196 0.23301 0.0
C1032 C 0.54379 0.52929 0.2337 0.0
C1033 C 0.53361 0.50327 0.22266 0.0
C1034 C 0.51709 0.52621 0.24368 0.0
C1035 C 0.52626 0.55153 0.25605 0.0
C1036 C 0.55387 0.55684 0.26582 0.0
C1037 C 0.56264 0.58105 0.27737 0.0
C1038 C 0.54381 0.59992 0.27932 0.0
C1039 C 0.5161 0.59454 0.26976 0.0
C1040 C 0.50724 0.57039 0.25818 0.0
C1041 C 0.38815 0.37714 0.22805 0.0
C1042 C 0.35977 0.38492 0.22648 0.0
C1043 C 0.42403 0.40522 0.22995 0.0
C1044 C 0.4324 0.44172 0.23019 0.0
C1045 C 0.40396 0.44948 0.22912 0.0
C1046 C 0.36804 0.42141 0.22727 0.0
C1047 C 0.47084 0.47184 0.23107 0.0
C1048 C 0.48097 0.49775 0.24215 0.0
C1049 C 0.49757 0.47485 0.22114 0.0
C1050 C 0.48843 0.44959 0.20875 0.0
C1051 C 0.46163 0.44517 0.19872 0.0
C1052 C 0.45282 0.42094 0.18718 0.0
C1053 C 0.47084 0.40119 0.18548 0.0
C1054 C 0.4978 0.40573 0.1953 0.0
C1055 C 0.50667 0.42989 0.20687 0.0
H1056 H 0.46398 0.38244 0.17654 0.0
H1057 H 0.55066 0.61865 0.28827 0.0
H1058 H 0.07749 0.65658 0.56214 0.0
H1059 H 0.06235 0.59327 0.56443 0.0
H1060 H 0.94818 0.55875 0.56203 0.0
H1061 H 0.96314 0.62236 0.56011 0.0
H1062 H 0.95916 0.51822 0.58128 0.0
H1063 H 0.99514 0.55494 0.53235 0.0
H1064 H 0.03543 0.59469 0.51307 0.0
H1065 H 0.12 0.57449 0.52732 0.0
H1066 H 0.0804 0.53506 0.54683 0.0
H1067 H 0.90432 0.33335 0.56203 0.0
H1068 H 0.91496 0.39569 0.56278 0.0
H1069 H 0.03022 0.43697 0.56679 0.0
H1070 H 0.01992 0.37504 0.56598 0.0
H1071 H 0.01616 0.47322 0.54631 0.0
H1072 H 0.9797 0.43673 0.59547 0.0
H1073 H 0.93917 0.39749 0.61479 0.0
H1074 H 0.85449 0.41666 0.59975 0.0
H1075 H 0.89438 0.45562 0.5802 0.0
C1076 C 0.04911 0.6356 0.5622 0.0
C1077 C 0.02154 0.64461 0.56079 0.0
C1078 C 0.04048 0.59931 0.56346 0.0
C1079 C 0.00411 0.57104 0.56309 0.0
C1080 C 0.97645 0.58 0.56226 0.0
C1081 C 0.98506 0.61642 0.56114 0.0
C1082 C 0.9952 0.53225 0.56306 0.0
C1083 C 0.97123 0.50827 0.57351 0.0
C1084 C 0.01127 0.5192 0.55305 0.0
C1085 C 0.0349 0.54229 0.54113 0.0
C1086 C 0.0224 0.55913 0.53142 0.0
C1087 C 0.04511 0.5816 0.52045 0.0
C1088 C 0.08028 0.58719 0.51899 0.0
C1089 C 0.09276 0.57018 0.52847 0.0
C1090 C 0.07019 0.54774 0.53948 0.0
C1091 C 0.9319 0.35568 0.56322 0.0
C1092 C 0.96125 0.3491 0.56392 0.0
C1093 C 0.93795 0.39134 0.56368 0.0
C1094 C 0.97343 0.42113 0.56488 0.0
C1095 C 1.00263 0.41452 0.56581 0.0
C1096 C 0.99664 0.37898 0.56539 0.0
C1097 C 0.98048 0.45928 0.56465 0.0
C1098 C 0.00402 0.48314 0.55408 0.0
C1099 C 0.96386 0.47207 0.5745 0.0
C1100 C 0.9399 0.44878 0.58628 0.0
C1101 C 0.95233 0.43233 0.5962 0.0
C1102 C 0.9295 0.41019 0.60721 0.0
C1103 C 0.89424 0.4045 0.60847 0.0
C1104 C 0.88179 0.42104 0.59875 0.0
C1105 C 0.90451 0.44318 0.58771 0.0
H1106 H 0.8766 0.38735 0.617 0.0
H1107 H 0.09785 0.60465 0.51051 0.0
H1108 H 0.36068 0.98364 0.89747 0.0
H1109 H 0.41221 0.97332 0.89828 0.0
H1110 H 0.48608 0.08922 0.89822 0.0
H1111 H 0.43442 0.09967 0.89676 0.0
H1112 H 0.51156 0.06028 0.88107 0.0
H1113 H 0.46755 0.03257 0.9294 0.0
H1114 H 0.42225 0.00315 0.94876 0.0
H1115 H 0.40141 0.89819 0.93445 0.0
H1116 H 0.44622 0.92695 0.91487 0.0
H1117 H 0.66564 0.04219 0.89903 0.0
H1118 H 0.61614 0.05581 0.9011 0.0
H1119 H 0.53793 0.94338 0.8926 0.0
H1120 H 0.5872 0.92952 0.89043 0.0
H1121 H 0.51702 0.97308 0.91524 0.0
H1122 H 0.56083 0.00336 0.86616 0.0
H1123 H 0.60827 0.03474 0.8477 0.0
H1124 H 0.6321 0.13823 0.86502 0.0
H1125 H 0.58509 0.10742 0.88372 0.0
C1126 C 0.38787 0.007 0.89775 0.0
C1127 C 0.39333 0.04252 0.89711 0.0
C1128 C 0.41745 1.00105 0.89829 0.0
C1129 C 0.45331 0.03044 0.89857 0.0
C1130 C 0.45881 0.06599 0.89804 0.0
C1131 C 0.42919 0.07197 0.89727 0.0
C1132 C 0.48494 0.02401 0.89894 0.0
C1133 C 0.51293 0.04168 0.88873 0.0
C1134 C 0.48685 0.99932 0.90876 0.0
C1135 C 0.46004 0.98192 0.92059 0.0
C1136 C 0.45314 0.0032 0.93032 0.0
C1137 C 0.42757 0.98664 0.94135 0.0
C1138 C 0.40891 0.94882 0.94282 0.0
C1139 C 0.41586 0.92748 0.93329 0.0
C1140 C 0.44137 0.9439 0.92223 0.0
C1141 C 0.63791 0.02028 0.89768 0.0
C1142 C 0.63047 0.98477 0.89449 0.0
C1143 C 0.60962 0.02815 0.89883 0.0
C1144 C 0.57328 1.00068 0.89689 0.0
C1145 C 0.56572 0.96503 0.89412 0.0
C1146 C 0.59398 0.95719 0.89284 0.0
C1147 C 0.54319 0.00919 0.89736 0.0
C1148 C 0.51558 0.99187 0.90768 0.0
C1149 C 0.54187 0.03455 0.8878 0.0
C1150 C 0.5697 0.05309 0.87642 0.0
C1151 C 0.57635 0.0328 0.86609 0.0
C1152 C 0.60313 0.05048 0.85557 0.0
C1153 C 0.62326 0.08845 0.85521 0.0
C1154 C 0.61653 0.10882 0.86532 0.0
C1155 C 0.58979 0.09127 0.87588 0.0
H1156 H 0.64402 0.1021 0.84707 0.0
H1157 H 0.38911 0.93606 0.95136 0.0
H1158 H 0.56429 0.66645 0.44701 0.0
H1159 H 0.51083 0.60574 0.44436 0.0
H1160 H 0.58061 0.55907 0.4417 0.0
H1161 H 0.63384 0.61942 0.4438 0.0
H1162 H 0.52868 0.52601 0.42342 0.0
H1163 H 0.53351 0.55853 0.47356 0.0
H1164 H 0.53529 0.59686 0.49392 0.0
H1165 H 0.43247 0.5839 0.48079 0.0
H1166 H 0.43032 0.54587 0.46022 0.0
H1167 H 0.41124 0.34386 0.44537 0.0
H1168 H 0.45861 0.40771 0.44389 0.0
H1169 H 0.37684 0.43918 0.44012 0.0
H1170 H 0.32905 0.37514 0.44159 0.0
H1171 H 0.43055 0.48119 0.46008 0.0
H1172 H 0.42452 0.44268 0.41099 0.0
H1173 H 0.42394 0.4029 0.39146 0.0
H1174 H 0.53082 0.42558 0.40369 0.0
H1175 H 0.53184 0.46511 0.42344 0.0
C1176 C 0.56822 0.64326 0.44574 0.0
C1177 C 0.60343 0.64789 0.44568 0.0
C1178 C 0.53759 0.60848 0.44432 0.0
C1179 C 0.54148 0.57752 0.44307 0.0
C1180 C 0.57668 0.58233 0.44264 0.0
C1181 C 0.60722 0.61701 0.44389 0.0
C1182 C 0.50923 0.53998 0.4425 0.0
C1183 C 0.50742 0.51622 0.43153 0.0
C1184 C 0.48086 0.52712 0.45285 0.0
C1185 C 0.48196 0.54972 0.46526 0.0
C1186 C 0.5114 0.56407 0.47496 0.0
C1187 C 0.51246 0.58571 0.48654 0.0
C1188 C 0.48407 0.59291 0.48862 0.0
C1189 C 0.45448 0.57837 0.47915 0.0
C1190 C 0.45332 0.55675 0.46753 0.0
C1191 C 0.40322 0.36427 0.44414 0.0
C1192 C 0.36625 0.35426 0.44357 0.0
C1193 C 0.43041 0.40083 0.44325 0.0
C1194 C 0.42135 0.42831 0.44179 0.0
C1195 C 0.3845 0.41847 0.44122 0.0
C1196 C 0.35721 0.38181 0.44199 0.0
C1197 C 0.45049 0.46725 0.44117 0.0
C1198 C 0.45167 0.49119 0.45191 0.0
C1199 C 0.47853 0.48016 0.43072 0.0
C1200 C 0.47813 0.45665 0.41877 0.0
C1201 C 0.4478 0.43899 0.40959 0.0
C1202 C 0.44741 0.41651 0.39847 0.0
C1203 C 0.47729 0.41166 0.39636 0.0
C1204 C 0.50768 0.42935 0.40534 0.0
C1205 C 0.5082 0.45183 0.41649 0.0
H1206 H 0.47693 0.39424 0.38774 0.0
H1207 H 0.48494 0.60969 0.49759 0.0
H1208 H 0.92642 0.58572 0.77498 0.0
H1209 H 0.94098 0.53689 0.77425 0.0
H1210 H 0.05522 0.61613 0.77168 0.0
H1211 H 0.04072 0.66524 0.77193 0.0
H1212 H 0.04107 0.5601 0.755 0.0
H1213 H 0.01395 0.57367 0.80394 0.0
H1214 H 0.97737 0.57837 0.8236 0.0
H1215 H 0.89063 0.47046 0.81427 0.0
H1216 H 0.92646 0.46533 0.79438 0.0
H1217 H 0.09947 0.43539 0.77857 0.0
H1218 H 0.08864 0.4868 0.77626 0.0
H1219 H 0.97309 0.4124 0.77489 0.0
H1220 H 0.98357 0.36106 0.77717 0.0
H1221 H 0.99054 0.46762 0.79395 0.0
H1222 H 0.0189 0.4553 0.74464 0.0
H1223 H 0.05648 0.45185 0.72509 0.0
H1224 H 0.14313 0.55871 0.73591 0.0
H1225 H 0.10623 0.56259 0.75566 0.0
C1226 C 0.95466 0.59282 0.77414 0.0
C1227 C 0.98243 0.62946 0.77364 0.0
C1228 C 0.96298 0.56481 0.77379 0.0
C1229 C 0.9993 0.57272 0.77325 0.0
C1230 C 0.02701 0.60925 0.77218 0.0
C1231 C 0.01867 0.63734 0.77235 0.0
C1232 C 0.00826 0.54292 0.77426 0.0
C1233 C 0.03042 0.54019 0.76364 0.0
C1234 C 0.99411 0.51657 0.78543 0.0
C1235 C 0.97278 0.51924 0.79759 0.0
C1236 C 0.987 0.55101 0.80603 0.0
C1237 C 0.9664 0.55375 0.81722 0.0
C1238 C 0.93166 0.52477 0.82016 0.0
C1239 C 0.91752 0.49291 0.81196 0.0
C1240 C 0.93798 0.49006 0.80074 0.0
C1241 C 0.07177 0.42995 0.77763 0.0
C1242 C 0.04241 0.39402 0.77807 0.0
C1243 C 0.06562 0.45939 0.7763 0.0
C1244 C 0.03002 0.45351 0.77537 0.0
C1245 C 1.00077 0.41767 0.77562 0.0
C1246 C 0.00687 0.38829 0.77688 0.0
C1247 C 0.02295 0.48456 0.77461 0.0
C1248 C 1.00124 0.48758 0.78533 0.0
C1249 C 0.0378 0.51131 0.76363 0.0
C1250 C 0.05995 0.50907 0.75173 0.0
C1251 C 0.04608 0.47794 0.74293 0.0
C1252 C 0.06724 0.47593 0.7318 0.0
C1253 C 0.10221 0.505 0.72929 0.0
C1254 C 0.11606 0.53619 0.73788 0.0
C1255 C 0.09503 0.53832 0.74904 0.0
H1256 H 0.11854 0.5034 0.72066 0.0
H1257 H 0.91573 0.52697 0.82881 0.0
H1258 H 0.38465 0.03811 0.11166 0.0
H1259 H 0.44702 0.0498 0.10977 0.0
H1260 H 0.40769 0.93439 0.11097 0.0
H1261 H 0.34543 0.92257 0.11327 0.0
H1262 H 0.46263 0.967 0.12833 0.0
H1263 H 0.44093 0.98696 0.07934 0.0
H1264 H 0.42299 0.01387 0.05964 0.0
H1265 H 0.50855 0.12045 0.07145 0.0
H1266 H 0.5267 0.09422 0.09136 0.0
H1267 H 0.62713 0.97411 0.10856 0.0
H1268 H 0.56517 0.96376 0.10715 0.0
H1269 H 0.6059 0.07873 0.11226 0.0
H1270 H 0.66808 0.0894 0.11371 0.0
H1271 H 0.55094 0.04685 0.09133 0.0
H1272 H 0.57142 0.02559 0.14059 0.0
H1273 H 0.58917 0.99762 0.15995 0.0
H1274 H 0.50492 0.89155 0.14687 0.0
H1275 H 0.48701 0.91887 0.12729 0.0
C1276 C 0.38923 0.01519 0.11138 0.0
C1277 C 0.35998 0.9794 0.11263 0.0
C1278 C 0.42497 0.02191 0.11024 0.0
C1279 C 0.43222 0.99298 0.11009 0.0
C1280 C 0.40294 0.95721 0.11109 0.0
C1281 C 0.36727 0.95049 0.11236 0.0
C1282 C 0.4703 0.99991 0.10949 0.0
C1283 C 0.48168 0.98401 0.12008 0.0
C1284 C 0.49565 0.0228 0.09895 0.0
C1285 C 0.48495 0.03865 0.08693 0.0
C1286 C 0.45576 0.01616 0.07781 0.0
C1287 C 0.44557 0.03129 0.06659 0.0
C1288 C 0.46455 0.06886 0.06432 0.0
C1289 C 0.49384 0.09136 0.07323 0.0
C1290 C 0.50411 0.07638 0.08448 0.0
C1291 C 0.62303 0.99729 0.10928 0.0
C1292 C 0.65263 0.03258 0.11136 0.0
C1293 C 0.58753 0.99129 0.1085 0.0
C1294 C 0.58084 0.02042 0.10975 0.0
C1295 C 0.6104 0.05584 0.11129 0.0
C1296 C 0.64594 0.06186 0.11217 0.0
C1297 C 0.54291 0.0137 0.11007 0.0
C1298 C 0.53169 0.02973 0.0995 0.0
C1299 C 0.51758 0.99072 0.12055 0.0
C1300 C 0.52812 0.97425 0.13239 0.0
C1301 C 0.55687 0.99628 0.14177 0.0
C1302 C 0.56693 0.98055 0.15279 0.0
C1303 C 0.54825 0.94283 0.15461 0.0
C1304 C 0.5194 0.92076 0.14544 0.0
C1305 C 0.50927 0.93636 0.13438 0.0
H1306 H 0.55608 0.9307 0.16316 0.0
H1307 H 0.45662 0.08052 0.05563 0.0
H1308 H 0.31282 0.04143 0.13944 0.0
H1309 H 0.33139 0.10402 0.14694 0.0
H1310 H 0.21898 0.07245 0.15382 0.0
H1311 H 0.20044 0.01047 0.14654 0.0
H1312 H 0.25811 0.13158 0.13378 0.0
H1313 H 0.26919 0.08822 0.18168 0.0
H1314 H 0.29636 0.06421 0.19891 0.0
H1315 H 0.40221 0.15569 0.19062 0.0
H1316 H 0.37565 0.17999 0.17319 0.0
H1317 H 0.20282 0.222 0.17854 0.0
H1318 H 0.22082 0.18751 0.16319 0.0
H1319 H 0.33378 0.26299 0.17247 0.0
H1320 H 0.3154 0.2973 0.18839 0.0
H1321 H 0.31795 0.19665 0.17898 0.0
H1322 H 0.3006 0.24811 0.13654 0.0
H1323 H 0.27045 0.27174 0.12069 0.0
H1324 H 0.17537 0.16575 0.11876 0.0
H1325 H 0.2047 0.14151 0.13472 0.0
C1326 C 0.2923 0.04767 0.14307 0.0
C1327 C 0.25521 0.02125 0.14238 0.0
C1328 C 0.30289 0.08341 0.14718 0.0
C1329 C 0.27643 0.09279 0.15064 0.0
C1330 C 0.23971 0.06576 0.15097 0.0
C1331 C 0.2292 0.03032 0.14693 0.0
C1332 C 0.28579 0.13084 0.15315 0.0
C1333 C 0.27151 0.14617 0.14358 0.0
C1334 C 0.30469 0.15033 0.16558 0.0
C1335 C 0.32055 0.13559 0.17598 0.0
C1336 C 0.29831 0.10299 0.18341 0.0
C1337 C 0.31358 0.08939 0.19324 0.0
C1338 C 0.35101 0.10833 0.19581 0.0
C1339 C 0.37324 0.14098 0.18858 0.0
C1340 C 0.35809 0.15468 0.17873 0.0
C1341 C 0.23156 0.23214 0.17683 0.0
C1342 C 0.25776 0.26219 0.18461 0.0
C1343 C 0.24193 0.21249 0.16797 0.0
C1344 C 0.27876 0.22277 0.16654 0.0
C1345 C 0.30525 0.25472 0.17334 0.0
C1346 C 0.29479 0.27451 0.18229 0.0
C1347 C 0.28811 0.19653 0.16006 0.0
C1348 C 0.30602 0.18327 0.16882 0.0
C1349 C 0.27244 0.17886 0.14685 0.0
C1350 C 0.255 0.19296 0.13681 0.0
C1351 C 0.27326 0.22982 0.13274 0.0
C1352 C 0.25629 0.24333 0.12374 0.0
C1353 C 0.22104 0.22025 0.11871 0.0
C1354 C 0.20274 0.18356 0.12262 0.0
C1355 C 0.21959 0.16989 0.1316 0.0
H1356 H 0.2079 0.2308 0.11179 0.0
H1357 H 0.36278 0.09777 0.20343 0.0
H1358 H 0.96045 0.23108 0.51111 0.0
H1359 H 1.00252 0.23789 0.49159 0.0
H1360 H 0.0934 0.30456 0.51947 0.0
H1361 H 0.05156 0.29955 0.53846 0.0
H1362 H 0.11262 0.32162 0.4918 0.0
H1363 H 0.04023 0.20111 0.51952 0.0
H1364 H 0.98206 0.14409 0.52402 0.0
H1365 H 0.96537 0.12511 0.47852 0.0
H1366 H 0.02315 0.18151 0.47367 0.0
H1367 H 0.25246 0.28033 0.47895 0.0
H1368 H 0.20587 0.2917 0.48927 0.0
H1369 H 0.12333 0.20072 0.46505 0.0
H1370 H 0.16802 0.18608 0.45686 0.0
H1371 H 0.09482 0.19751 0.48673 0.0
H1372 H 0.1625 0.29944 0.45648 0.0
H1373 H 0.21662 0.35299 0.44655 0.0
H1374 H 0.23574 0.40737 0.48743 0.0
H1375 H 0.18203 0.35389 0.49768 0.0
C1376 C 0.98939 0.24865 0.51272 0.0
C1377 C 1.00309 0.26416 0.52628 0.0
C1378 C 0.0134 0.25222 0.50166 0.0
C1379 C 0.05107 0.27054 0.5043 0.0
C1380 C 0.06448 0.28986 0.51724 0.0
C1381 C 0.0406 0.28672 0.52815 0.0
C1382 C 0.07619 0.26442 0.49522 0.0
C1383 C 0.10878 0.29452 0.49049 0.0
C1384 C 0.07063 0.22901 0.49305 0.0
C1385 C 0.03576 0.19559 0.49624 0.0
C1386 C 0.02404 0.18481 0.5105 0.0
C1387 C 0.99122 0.1527 0.51311 0.0
C1388 C 0.97012 0.13125 0.50161 0.0
C1389 C 0.9817 0.14178 0.48743 0.0
C1390 C 0.01445 0.17373 0.48473 0.0
C1391 C 0.22423 0.26249 0.47609 0.0
C1392 C 0.21422 0.23285 0.46677 0.0
C1393 C 0.19763 0.26938 0.48176 0.0
C1394 C 0.1609 0.2478 0.47763 0.0
C1395 C 0.15119 0.21798 0.46851 0.0
C1396 C 0.17719 0.20995 0.46358 0.0
C1397 C 0.13196 0.25478 0.48312 0.0
C1398 C 0.0988 0.22477 0.48745 0.0
C1399 C 0.13628 0.29009 0.48402 0.0
C1400 C 0.16839 0.32252 0.47788 0.0
C1401 C 0.17835 0.32274 0.46338 0.0
C1402 C 0.20895 0.35309 0.45769 0.0
C1403 C 0.22964 0.38354 0.46637 0.0
C1404 C 0.2197 0.38374 0.48073 0.0
C1405 C 0.18916 0.35343 0.48649 0.0
H1406 H 0.25334 0.407 0.46195 0.0
H1407 H 0.9449 0.10635 0.50368 0.0
H1408 H 0.0409 0.28503 0.8338 0.0
H1409 H 0.99719 0.25276 0.85325 0.0
H1410 H 0.90885 0.21912 0.8229 0.0
H1411 H 0.95214 0.25363 0.80399 0.0
H1412 H 0.88519 0.21845 0.84982 0.0
H1413 H 0.96459 0.17072 0.8265 0.0
H1414 H 0.02729 0.18149 0.82353 0.0
H1415 H 0.04468 0.19625 0.86918 0.0
H1416 H 0.98218 0.1849 0.87253 0.0
H1417 H 0.75201 0.03417 0.85974 0.0
H1418 H 0.79839 0.09403 0.85095 0.0
H1419 H 0.87726 0.09061 0.87949 0.0
H1420 H 0.83343 0.02952 0.88625 0.0
H1421 H 0.91071 0.11816 0.85882 0.0
H1422 H 0.83082 0.14553 0.88462 0.0
H1423 H 0.77245 0.14037 0.8917 0.0
H1424 H 0.76001 0.1727 0.84911 0.0
H1425 H 0.81807 0.17756 0.8417 0.0
C1426 C 0.01207 0.27218 0.83154 0.0
C1427 C 0.99959 0.27037 0.81738 0.0
C1428 C 0.98713 0.25352 0.84258 0.0
C1429 C 0.94988 0.23212 0.83934 0.0
C1430 C 0.93746 0.23481 0.82562 0.0
C1431 C 0.96221 0.25399 0.81474 0.0
C1432 C 0.92497 0.20122 0.84861 0.0
C1433 C 0.89067 0.19653 0.85203 0.0
C1434 C 0.93254 0.17312 0.85187 0.0
C1435 C 0.96897 0.17729 0.84975 0.0
C1436 C 0.98176 0.17604 0.83589 0.0
C1437 C 0.01723 0.18245 0.83413 0.0
C1438 C 0.04001 0.19025 0.84608 0.0
C1439 C 0.02712 0.1906 0.85991 0.0
C1440 C 0.99166 0.18396 0.86177 0.0
C1441 C 0.77941 0.04616 0.86395 0.0
C1442 C 0.78861 0.02734 0.87403 0.0
C1443 C 0.80583 0.08072 0.85914 0.0
C1444 C 0.84134 0.09775 0.86488 0.0
C1445 C 0.85029 0.07858 0.87484 0.0
C1446 C 0.82471 0.04355 0.87896 0.0
C1447 C 0.87 0.13458 0.8601 0.0
C1448 C 0.90494 0.14011 0.85726 0.0
C1449 C 0.86338 0.16394 0.85813 0.0
C1450 C 0.82872 0.16168 0.86258 0.0
C1451 C 0.81557 0.1514 0.87674 0.0
C1452 C 0.78253 0.14852 0.88081 0.0
C1453 C 0.76251 0.15614 0.87085 0.0
C1454 C 0.77555 0.16679 0.85681 0.0
C1455 C 0.80856 0.16966 0.85268 0.0
H1456 H 0.7369 0.15384 0.87401 0.0
H1457 H 0.06754 0.19566 0.84464 0.0
H1458 H 0.80673 1.00201 0.14957 0.0
H1459 H 0.79093 0.9435 0.16028 0.0
H1460 H 0.67915 0.90047 0.1474 0.0
H1461 H 0.695 0.95987 0.13677 0.0
H1462 H 0.68678 0.87509 0.17469 0.0
H1463 H 0.72534 0.87138 0.12654 0.0
H1464 H 0.76218 0.89068 0.10421 0.0
H1465 H 0.85714 0.9126 0.12843 0.0
H1466 H 0.82087 0.8929 0.15083 0.0
H1467 H 0.70234 0.71736 0.1981 0.0
H1468 H 0.68453 0.75225 0.1821 0.0
H1469 H 0.7926 0.84497 0.18564 0.0
H1470 H 0.81041 0.81087 0.20137 0.0
H1471 H 0.76589 0.8279 0.15722 0.0
H1472 H 0.72434 0.83898 0.20628 0.0
H1473 H 0.68403 0.81255 0.2274 0.0
H1474 H 0.59036 0.77149 0.19989 0.0
H1475 H 0.63006 0.79762 0.1786 0.0
C1476 C 0.77857 0.98041 0.14943 0.0
C1477 C 0.75199 0.9853 0.14247 0.0
C1478 C 0.76965 0.9469 0.15535 0.0
C1479 C 0.73411 0.91743 0.15422 0.0
C1480 C 0.7068 0.92286 0.14823 0.0
C1481 C 0.71574 0.95678 0.14235 0.0
C1482 C 0.72683 0.88114 0.15897 0.0
C1483 C 0.70331 0.86412 0.17064 0.0
C1484 C 0.74789 0.86644 0.15353 0.0
C1485 C 0.7704 0.88077 0.14033 0.0
C1486 C 0.75416 0.88073 0.1271 0.0
C1487 C 0.77486 0.89152 0.11444 0.0
C1488 C 0.81187 0.9028 0.11492 0.0
C1489 C 0.82842 0.90371 0.12808 0.0
C1490 C 0.80778 0.89256 0.14073 0.0
C1491 C 0.72229 0.74506 0.19528 0.0
C1492 C 0.75775 0.76142 0.20097 0.0
C1493 C 0.71203 0.76493 0.18626 0.0
C1494 C 0.73728 0.80113 0.18277 0.0
C1495 C 0.77276 0.81702 0.1882 0.0
C1496 C 0.78287 0.79749 0.19723 0.0
C1497 C 0.72791 0.82358 0.17353 0.0
C1498 C 0.74829 0.83797 0.16093 0.0
C1499 C 0.70367 0.83538 0.17804 0.0
C1500 C 0.68011 0.81983 0.19086 0.0
C1501 C 0.69515 0.82407 0.20473 0.0
C1502 C 0.67245 0.80921 0.21673 0.0
C1503 C 0.63472 0.79018 0.21498 0.0
C1504 C 0.61959 0.78614 0.20123 0.0
C1505 C 0.64216 0.80101 0.18921 0.0
H1506 H 0.61722 0.77869 0.22428 0.0
H1507 H 0.82762 0.91048 0.10508 0.0
H1508 H 0.78882 0.79949 0.4663 0.0
H1509 H 0.84084 0.79811 0.47712 0.0
H1510 H 0.76972 0.68688 0.49028 0.0
H1511 H 0.71836 0.68823 0.4788 0.0
H1512 H 0.8515 0.7893 0.5042 0.0
H1513 H 0.80813 0.64349 0.49475 0.0
H1514 H 0.77727 0.59356 0.47709 0.0
H1515 H 0.82035 0.67034 0.44228 0.0
H1516 H 0.8505 0.72085 0.45982 0.0
H1517 H 0.96379 0.70236 0.53252 0.0
H1518 H 0.9096 0.694 0.51963 0.0
H1519 H 0.96891 0.80584 0.50547 0.0
H1520 H 0.02223 0.81454 0.51887 0.0
H1521 H 0.88914 0.69822 0.49365 0.0
H1522 H 0.91693 0.84492 0.50631 0.0
H1523 H 0.94413 0.89156 0.52536 0.0
H1524 H 0.93043 0.80992 0.55609 0.0
H1525 H 0.90263 0.76262 0.53728 0.0
C1526 C 0.78484 0.7747 0.47117 0.0
C1527 C 0.75033 0.7438 0.47137 0.0
C1528 C 0.81428 0.77385 0.47746 0.0
C1529 C 0.8094 0.74205 0.48421 0.0
C1530 C 0.77448 0.71129 0.4847 0.0
C1531 C 0.74514 0.71219 0.47831 0.0
C1532 C 0.84044 0.74221 0.49161 0.0
C1533 C 0.86012 0.76975 0.50172 0.0
C1534 C 0.85043 0.71552 0.48902 0.0
C1535 C 0.83103 0.68579 0.47851 0.0
C1536 C 0.81062 0.64967 0.48331 0.0
C1537 C 0.79316 0.62135 0.47335 0.0
C1538 C 0.79648 0.62887 0.45856 0.0
C1539 C 0.8172 0.66472 0.45373 0.0
C1540 C 0.83425 0.69319 0.46366 0.0
C1541 C 0.96536 0.72472 0.52629 0.0
C1542 C 0.99688 0.75902 0.5266 0.0
C1543 C 0.93442 0.72007 0.51904 0.0
C1544 C 0.93493 0.74962 0.51195 0.0
C1545 C 0.96755 0.78299 0.51125 0.0
C1546 C 0.9981 0.78783 0.51872 0.0
C1547 C 0.90119 0.74628 0.50581 0.0
C1548 C 0.88072 0.71793 0.4961 0.0
C1549 C 0.89001 0.77187 0.50903 0.0
C1550 C 0.90793 0.80025 0.52033 0.0
C1551 C 0.91977 0.83689 0.51713 0.0
C1552 C 0.93527 0.86344 0.52788 0.0
C1553 C 0.93901 0.85367 0.54191 0.0
C1554 C 0.92758 0.8174 0.5452 0.0
C1555 C 0.91199 0.79071 0.53448 0.0
H1556 H 0.95051 0.8742 0.55025 0.0
H1557 H 0.78324 0.60691 0.45085 0.0
H1558 H 0.27207 0.02198 0.84869 0.0
H1559 H 0.23355 0.97304 0.83186 0.0
H1560 H 0.18755 0.89839 0.86756 0.0
H1561 H 0.22596 0.94695 0.88428 0.0
H1562 H 0.1936 0.86559 0.841 0.0
H1563 H 0.14798 0.94405 0.85968 0.0
H1564 H 0.15401 0.00436 0.86365 0.0
H1565 H 0.16606 0.02514 0.81808 0.0
H1566 H 0.16026 0.96502 0.81381 0.0
H1567 H 0.01457 0.74047 0.81532 0.0
H1568 H 0.0684 0.78203 0.82943 0.0
H1569 H 0.0939 0.86699 0.79817 0.0
H1570 H 0.03915 0.82733 0.78505 0.0
H1571 H 0.10173 0.8947 0.82209 0.0
H1572 H 0.14159 0.81598 0.80204 0.0
H1573 H 0.13818 0.75733 0.79688 0.0
H1574 H 0.14128 0.73859 0.84229 0.0
H1575 H 0.14422 0.79693 0.84773 0.0
C1576 C 0.2546 0.99485 0.85285 0.0
C1577 C 0.2511 0.98828 0.86776 0.0
C1578 C 0.2327 0.96698 0.84326 0.0
C1579 C 0.20745 0.93237 0.84855 0.0
C1580 C 0.2068 0.92495 0.8633 0.0
C1581 C 0.22836 0.95281 0.87286 0.0
C1582 C 0.17745 0.90612 0.83935 0.0
C1583 C 0.17343 0.87174 0.83679 0.0
C1584 C 0.15148 0.91452 0.83386 0.0
C1585 C 0.15403 0.95023 0.83644 0.0
C1586 C 0.15207 0.96155 0.85051 0.0
C1587 C 0.15546 0.99568 0.85283 0.0
C1588 C 0.16063 0.01864 0.84116 0.0
C1589 C 0.16214 0.00738 0.82712 0.0
C1590 C 0.15874 0.97327 0.82474 0.0
C1591 C 0.03176 0.76803 0.8115 0.0
C1592 C 0.0227 0.78039 0.79894 0.0
C1593 C 0.06272 0.79167 0.81949 0.0
C1594 C 0.08566 0.82759 0.81475 0.0
C1595 C 0.07676 0.83952 0.8021 0.0
C1596 C 0.04543 0.8165 0.79447 0.0
C1597 C 0.11787 0.85384 0.82322 0.0
C1598 C 0.12205 0.88832 0.82593 0.0
C1599 C 0.14425 0.84561 0.82854 0.0
C1600 C 0.14279 0.81067 0.8253 0.0
C1601 C 0.14132 0.79925 0.81093 0.0
C1602 C 0.13949 0.76607 0.80795 0.0
C1603 C 0.13942 0.74421 0.81925 0.0
C1604 C 0.14129 0.75553 0.83355 0.0
C1605 C 0.14307 0.78866 0.83659 0.0
H1606 H 0.13799 0.71852 0.81692 0.0
H1607 H 0.16335 0.04509 0.84299 0.0
H1608 H 0.23315 0.2129 0.3927 0.0
H1609 H 0.22096 0.22069 0.36792 0.0
H1610 H 0.30245 0.19512 0.3537 0.0
H1611 H 0.31693 0.19013 0.37914 0.0
H1612 H 0.30526 0.24458 0.337 0.0
H1613 H 0.20576 0.13186 0.35213 0.0
H1614 H 0.15647 0.08976 0.36828 0.0
H1615 H 0.1022 0.1514 0.36271 0.0
H1616 H 0.15144 0.19423 0.3467 0.0
H1617 H 0.22758 0.20612 0.266 0.0
H1618 H 0.24189 0.19606 0.29046 0.0
H1619 H 0.19834 0.26095 0.30747 0.0
H1620 H 0.18454 0.27207 0.28281 0.0
H1621 H 0.17617 0.18728 0.32168 0.0
H1622 H 0.28114 0.30132 0.3067 0.0
H1623 H 0.33013 0.33884 0.28956 0.0
H1624 H 0.37288 0.26641 0.2935 0.0
H1625 H 0.32375 0.22812 0.3105 0.0
C1626 C 0.24849 0.20871 0.38439 0.0
C1627 C 0.27552 0.20013 0.38792 0.0
C1628 C 0.24127 0.21297 0.3701 0.0
C1629 C 0.25965 0.2071 0.35877 0.0
C1630 C 0.28743 0.19931 0.36221 0.0
C1631 C 0.29561 0.19627 0.37671 0.0
C1632 C 0.24959 0.20957 0.3435 0.0
C1633 C 0.27704 0.2315 0.33365 0.0
C1634 C 0.2127 0.19271 0.33896 0.0
C1635 C 0.18244 0.16639 0.34826 0.0
C1636 C 0.18337 0.13651 0.35438 0.0
C1637 C 0.15545 0.11253 0.36352 0.0
C1638 C 0.12626 0.11794 0.36654 0.0
C1639 C 0.12484 0.14725 0.36036 0.0
C1640 C 0.15272 0.17136 0.35123 0.0
C1641 C 0.22066 0.21809 0.2749 0.0
C1642 C 0.2048 0.23993 0.27241 0.0
C1643 C 0.22903 0.21236 0.28889 0.0
C1644 C 0.22132 0.22786 0.30074 0.0
C1645 C 0.20449 0.24876 0.29842 0.0
C1646 C 0.19665 0.2551 0.28434 0.0
C1647 C 0.23172 0.22277 0.3155 0.0
C1648 C 0.20431 0.20015 0.32515 0.0
C1649 C 0.26855 0.23817 0.3197 0.0
C1650 C 0.29858 0.26167 0.30976 0.0
C1651 C 0.30083 0.29325 0.30383 0.0
C1652 C 0.32865 0.31468 0.29415 0.0
C1653 C 0.35454 0.30496 0.29041 0.0
C1654 C 0.35277 0.27388 0.29639 0.0
C1655 C 0.32497 0.25233 0.30606 0.0
H1656 H 0.37603 0.32156 0.2829 0.0
H1657 H 0.10471 0.09939 0.37364 0.0
H1658 H 0.90389 0.18468 0.62237 0.0
H1659 H 0.9233 0.19187 0.64768 0.0
H1660 H 0.02764 0.20782 0.63435 0.0
H1661 H 0.00786 0.19868 0.6094 0.0
H1662 H 0.01203 0.17257 0.65748 0.0
H1663 H 0.01099 0.28021 0.6433 0.0
H1664 H 0.98517 0.31656 0.63357 0.0
H1665 H 0.90602 0.27847 0.66761 0.0
H1666 H 0.93104 0.24143 0.67743 0.0
H1667 H 0.10693 0.27184 0.72296 0.0
H1668 H 0.08779 0.25937 0.69745 0.0
H1669 H 0.97552 0.20378 0.71066 0.0
H1670 H 0.99403 0.21508 0.73584 0.0
H1671 H 0.99739 0.26078 0.6878 0.0
H1672 H 1.0028 0.15248 0.70122 0.0
H1673 H 0.03425 0.12093 0.7104 0.0
H1674 H 0.11372 0.16854 0.67666 0.0
H1675 H 0.08299 0.20081 0.6674 0.0
C1676 C 0.93073 0.1891 0.62487 0.0
C1677 C 0.95435 0.19142 0.61376 0.0
C1678 C 0.942 0.19362 0.63935 0.0
C1679 C 0.97739 0.20135 0.643 0.0
C1680 C 1.0003 0.20208 0.63194 0.0
C1681 C 0.98889 0.19697 0.61756 0.0
C1682 C 0.99123 0.20973 0.65817 0.0
C1683 C 0.0091 0.1922 0.66399 0.0
C1684 C 0.98766 0.23537 0.66682 0.0
C1685 C 0.97265 0.25775 0.66101 0.0
C1686 C 0.98792 0.27939 0.64865 0.0
C1687 C 0.97345 0.30014 0.64313 0.0
C1688 C 0.94391 0.29975 0.64995 0.0
C1689 C 0.92885 0.27869 0.66233 0.0
C1690 C 0.94318 0.25782 0.66788 0.0
C1691 C 0.07822 0.25666 0.72039 0.0
C1692 C 0.05211 0.24412 0.73148 0.0
C1693 C 0.06733 0.24963 0.70585 0.0
C1694 C 0.0302 0.23069 0.7022 0.0
C1695 C 0.00425 0.21843 0.71323 0.0
C1696 C 0.01502 0.2247 0.72767 0.0
C1697 C 0.01786 0.22356 0.68693 0.0
C1698 C 1.00031 0.24132 0.68116 0.0
C1699 C 0.02255 0.19891 0.67821 0.0
C1700 C 0.04086 0.17938 0.68373 0.0
C1701 C 0.02718 0.1565 0.69585 0.0
C1702 C 0.04483 0.13842 0.70104 0.0
C1703 C 0.07603 0.14282 0.69414 0.0
C1704 C 0.08958 0.16521 0.68201 0.0
C1705 C 0.07206 0.18338 0.67678 0.0
H1706 H 0.08965 0.12879 0.69818 0.0
H1707 H 0.93274 0.31584 0.64565 0.0
H1708 H 0.77067 0.0822 0.05183 0.0
H1709 H 0.75656 0.05407 0.02784 0.0
H1710 H 0.81899 1.00182 0.03733 0.0
H1711 H 0.83366 0.03009 0.06116 0.0
H1712 H 0.79956 0.05513 0.00463 0.0
H1713 H 0.77728 0.91972 0.02506 0.0
H1714 H 0.75772 0.88178 0.04707 0.0
H1715 H 0.68751 0.9238 0.05812 0.0
H1716 H 0.70758 0.96285 0.03647 0.0
H1717 H 0.75976 0.90377 0.95057 0.0
H1718 H 0.77913 0.9308 0.9747 0.0
H1719 H 0.69966 0.96565 0.97352 0.0
H1720 H 0.67914 0.93745 0.94974 0.0
H1721 H 0.73067 0.92029 1.00198 0.0
H1722 H 0.76525 0.06514 0.98282 0.0
H1723 H 0.79423 0.10773 0.96256 0.0
H1724 H 0.84511 0.04725 0.94871 0.0
H1725 H 0.81727 0.00492 0.96907 0.0
C1726 C 0.78205 0.06534 0.04872 0.0
C1727 C 0.80299 0.05815 0.05855 0.0
C1728 C 0.77375 0.04908 0.03502 0.0
C1729 C 0.78598 0.02513 0.03092 0.0
C1730 C 0.80854 0.01952 0.04038 0.0
C1731 C 0.81704 0.03591 0.054 0.0
C1732 C 0.77468 0.00549 0.01687 0.0
C1733 C 0.78401 0.02568 0.00404 0.0
C1734 C 0.75568 0.96703 0.01608 0.0
C1735 C 0.74405 0.94424 0.02923 0.0
C1736 C 0.75782 0.92096 0.03226 0.0
C1737 C 0.74684 0.89947 0.04472 0.0
C1738 C 0.72169 0.9007 0.05409 0.0
C1739 C 0.70749 0.92341 0.05102 0.0
C1740 C 0.71879 0.94535 0.0387 0.0
C1741 C 0.74571 0.91624 0.95566 0.0
C1742 C 0.71761 0.91804 0.94832 0.0
C1743 C 0.75698 0.93189 0.96938 0.0
C1744 C 0.74115 0.95063 0.97578 0.0
C1745 C 0.71236 0.9515 0.96871 0.0
C1746 C 0.70039 0.93498 0.95519 0.0
C1747 C 0.75499 0.97002 0.98972 0.0
C1748 C 0.74611 0.94976 1.00253 0.0
C1749 C 0.7749 0.00847 0.99047 0.0
C1750 C 0.78868 0.03151 0.97738 0.0
C1751 C 0.78239 0.06076 0.97539 0.0
C1752 C 0.79887 0.08504 0.96396 0.0
C1753 C 0.82181 0.08042 0.95447 0.0
C1754 C 0.82752 0.05092 0.95614 0.0
C1755 C 0.81122 0.02665 0.96758 0.0
H1756 H 0.83505 0.09964 0.94579 0.0
H1757 H 0.71305 0.88392 0.06369 0.0
H1758 H 0.8543 0.79288 0.28363 0.0
H1759 H 0.84306 0.80639 0.30821 0.0
H1760 H 0.76141 0.69391 0.31405 0.0
H1761 H 0.77282 0.68002 0.28963 0.0
H1762 H 0.73797 0.74625 0.31957 0.0
H1763 H 0.83565 0.72342 0.33197 0.0
H1764 H 0.89787 0.73334 0.33003 0.0
H1765 H 0.94168 0.84538 0.34191 0.0
H1766 H 0.87969 0.83625 0.34372 0.0
H1767 H 0.68875 0.73311 0.39241 0.0
H1768 H 0.70763 0.72819 0.3682 0.0
H1769 H 0.80422 0.83326 0.37284 0.0
H1770 H 0.78605 0.83762 0.39758 0.0
H1771 H 0.82299 0.79072 0.36114 0.0
H1772 H 0.72916 0.8164 0.34987 0.0
H1773 H 0.66865 0.81103 0.35093 0.0
H1774 H 0.61952 0.70102 0.33558 0.0
H1775 H 0.67968 0.70553 0.33462 0.0
C1776 C 0.83456 0.77083 0.29027 0.0
C1777 C 0.81452 0.73533 0.28464 0.0
C1778 C 0.82812 0.77864 0.30431 0.0
C1779 C 0.80125 0.75119 0.31293 0.0
C1780 C 0.78222 0.7155 0.30756 0.0
C1781 C 0.78903 0.70756 0.29363 0.0
C1782 C 0.7912 0.76 0.32715 0.0
C1783 C 0.75636 0.75556 0.32873 0.0
C1784 C 0.81581 0.7738 0.33887 0.0
C1785 C 0.85304 0.77924 0.33783 0.0
C1786 C 0.85855 0.75026 0.33404 0.0
C1787 C 0.89378 0.75572 0.33299 0.0
C1788 C 0.92371 0.78999 0.3358 0.0
C1789 C 0.91847 0.81886 0.33971 0.0
C1790 C 0.8833 0.81355 0.34076 0.0
C1791 C 0.7137 0.75563 0.38825 0.0
C1792 C 0.73577 0.7859 0.39699 0.0
C1793 C 0.72448 0.75278 0.37429 0.0
C1794 C 0.75717 0.78057 0.36846 0.0
C1795 C 0.77887 0.81138 0.37702 0.0
C1796 C 0.76835 0.81397 0.39115 0.0
C1797 C 0.76922 0.77627 0.35376 0.0
C1798 C 0.80451 0.78167 0.35201 0.0
C1799 C 0.74525 0.76409 0.34175 0.0
C1800 C 0.70895 0.76123 0.34228 0.0
C1801 C 0.70543 0.79097 0.34681 0.0
C1802 C 0.67119 0.78809 0.34738 0.0
C1803 C 0.64025 0.75568 0.34335 0.0
C1804 C 0.6435 0.7261 0.33871 0.0
C1805 C 0.67768 0.72882 0.33813 0.0
H1806 H 0.61377 0.75351 0.3438 0.0
H1807 H 0.95096 0.79417 0.33499 0.0
H1808 H 0.04994 0.84349 0.61043 0.0
H1809 H 0.02085 0.82975 0.63423 0.0
H1810 H 0.04641 0.74417 0.63993 0.0
H1811 H 0.07606 0.75807 0.61629 0.0
H1812 H 0.9711 0.72269 0.64424 0.0
H1813 H 0.09047 0.81575 0.65945 0.0
H1814 H 0.14497 0.87676 0.6589 0.0
H1815 H 0.07968 0.92506 0.669 0.0
H1816 H 0.02467 0.86433 0.66941 0.0
H1817 H 0.92059 0.67449 0.71743 0.0
H1818 H 0.94733 0.69035 0.6934 0.0
H1819 H 0.94456 0.79059 0.69502 0.0
H1820 H 0.91908 0.7754 0.71939 0.0
H1821 H 0.00735 0.80577 0.68636 0.0
H1822 H 0.88848 0.71587 0.67161 0.0
H1823 H 0.83198 0.6564 0.67138 0.0
H1824 H 0.89225 0.60395 0.65932 0.0
H1825 H 0.94921 0.66307 0.65966 0.0
C1826 C 0.0501 0.82228 0.61689 0.0
C1827 C 0.0655 0.802 0.61145 0.0
C1828 C 0.03335 0.81439 0.63047 0.0
C1829 C 0.03128 0.78579 0.63883 0.0
C1830 C 0.04762 0.76628 0.63365 0.0
C1831 C 0.06488 0.77453 0.62017 0.0
C1832 C 0.01052 0.77506 0.65262 0.0
C1833 C 0.97921 0.74062 0.65354 0.0
C1834 C 0.02035 0.799 0.66453 0.0
C1835 C 0.0534 0.83552 0.6643 0.0
C1836 C 0.08767 0.8394 0.66141 0.0
C1837 C 0.11867 0.87393 0.66116 0.0
C1838 C 0.11578 0.90478 0.66387 0.0
C1839 C 0.08187 0.90115 0.66688 0.0
C1840 C 0.05078 0.86668 0.66714 0.0
C1841 C 0.92463 0.69942 0.71252 0.0
C1842 C 0.91748 0.72359 0.72034 0.0
C1843 C 0.94007 0.70855 0.69872 0.0
C1844 C 0.94792 0.74167 0.69223 0.0
C1845 C 0.93902 0.76497 0.69974 0.0
C1846 C 0.92411 0.75611 0.71365 0.0
C1847 C 0.96768 0.75308 0.67812 0.0
C1848 C 0.9989 0.78772 0.6771 0.0
C1849 C 0.95737 0.72952 0.66601 0.0
C1850 C 0.92317 0.69389 0.66579 0.0
C1851 C 0.88973 0.69163 0.66902 0.0
C1852 C 0.85761 0.65798 0.66885 0.0
C1853 C 0.85854 0.62641 0.66537 0.0
C1854 C 0.89158 0.62843 0.66203 0.0
C1855 C 0.92379 0.66201 0.66219 0.0
H1856 H 0.83364 0.60039 0.66525 0.0
H1857 H 0.13981 0.93149 0.66367 0.0
H1858 H 0.25357 0.93954 0.05597 0.0
H1859 H 0.26346 0.96785 0.03213 0.0
H1860 H 0.16834 0.97832 0.03762 0.0
H1861 H 0.15875 0.95091 0.06173 0.0
H1862 H 0.18137 0.95082 0.00805 0.0
H1863 H 0.2339 0.04902 0.04311 0.0
H1864 H 0.27277 0.08322 0.06372 0.0
H1865 H 0.36639 0.09349 0.04167 0.0
H1866 H 0.32795 0.05905 0.02096 0.0
H1867 H 0.21368 0.06614 0.94856 0.0
H1868 H 0.19873 0.04224 0.97316 0.0
H1869 H 0.30933 0.06648 0.97944 0.0
H1870 H 0.32473 0.09189 0.95512 0.0
H1871 H 0.28601 0.07627 0.0036 0.0
H1872 H 0.23731 0.97988 0.96879 0.0
H1873 H 0.20121 0.94605 0.94756 0.0
H1874 H 0.10371 0.92922 0.96834 0.0
H1875 H 0.13926 0.9635 0.98964 0.0
C1876 C 0.23423 0.94708 0.05201 0.0
C1877 C 0.20524 0.94277 0.06076 0.0
C1878 C 0.24011 0.96351 0.03841 0.0
C1879 C 0.21676 0.97535 0.03315 0.0
C1880 C 0.18667 0.96936 0.04149 0.0
C1881 C 0.18119 0.95361 0.05524 0.0
C1882 C 0.22503 0.99568 0.01931 0.0
C1883 C 0.20388 0.97844 0.00708 0.0
C1884 C 0.25504 0.0313 0.01798 0.0
C1885 C 0.278 0.05116 0.03056 0.0
C1886 C 0.26269 0.0582 0.04273 0.0
C1887 C 0.28468 0.07777 0.0544 0.0
C1888 C 0.32204 0.09054 0.05399 0.0
C1889 C 0.33746 0.08363 0.04195 0.0
C1890 C 0.3156 0.06413 0.03024 0.0
C1891 C 0.23504 0.06728 0.95534 0.0
C1892 C 0.27039 0.0809 0.94986 0.0
C1893 C 0.22636 0.05318 0.96936 0.0
C1894 C 0.25258 0.05142 0.97808 0.0
C1895 C 0.28847 0.06722 0.97295 0.0
C1896 C 0.29733 0.08197 0.95903 0.0
C1897 C 0.24237 0.03154 0.99216 0.0
C1898 C 0.26329 0.04874 0.00448 0.0
C1899 C 0.2125 0.99559 0.99349 0.0
C1900 C 0.19099 0.97453 0.98077 0.0
C1901 C 0.20819 0.96914 0.96881 0.0
C1902 C 0.18784 0.94988 0.95676 0.0
C1903 C 0.15023 0.93551 0.95659 0.0
C1904 C 0.13286 0.94037 0.96848 0.0
C1905 C 0.15308 0.9597 0.98056 0.0
H1906 H 0.13454 0.92057 0.94725 0.0
H1907 H 0.33906 0.10583 0.06301 0.0
loop_
_geom_bond_atom_site_label_1
_geom_bond_atom_site_label_2
_geom_bond_distance
_geom_bond_site_symmetry_2
_ccdc_geom_bond_type
Co0 O2 2.143 . S
Co0 O8 2.074 . S
Co0 O11 2.093 . S
Co0 O24 2.097 . S
Co0 N41 2.151 . S
Co0 N49 2.214 . S
Co1 O2 2.160 . S
Co1 O7 2.058 . S
Co1 O17 2.057 . S
Co1 O32 2.037 . S
Co1 N36 2.145 . S
Co1 N57 2.257 . S
O2 Co0 2.143 . S
O2 Co1 2.160 . S
C3 O4 1.278 . S
C3 O11 1.224 . S
O4 C3 1.278 . S
C5 O6 1.245 . S
C5 O17 1.232 . S
O6 C5 1.245 . S
O7 Co1 2.058 . S
O7 C33 1.269 . S
O8 Co0 2.074 . S
O8 C33 1.257 . S
H9 C34 0.930 . S
H10 C40 0.930 . S
O11 Co0 2.093 . S
O11 C3 1.224 . S
H12 C44 0.929 . S
H13 C46 0.930 . S
H14 C47 0.930 . S
H15 C45 0.929 . S
H16 C48 0.928 . S
O17 Co1 2.057 . S
O17 C5 1.232 . S
H18 C37 0.929 . S
H19 C38 0.929 . S
H20 C50 0.931 . S
H21 C42 0.929 . S
H22 C51 0.930 . S
H23 C43 0.931 . S
O24 Co0 2.097 . S
O24 C52 1.214 . S
H25 C53 0.929 . S
H26 C54 0.929 . S
H27 C55 0.930 . S
H28 C56 0.929 . S
H29 C58 0.930 . S
H30 C35 0.930 . S
H31 C39 0.930 . S
O32 Co1 2.037 . S
O32 C52 1.234 . S
C33 O7 1.269 . S
C33 O8 1.257 . S
C34 H9 0.930 . S
C34 C37 1.388 . S
C34 C39 1.418 . S
C35 H30 0.930 . S
C35 C38 1.404 . S
C35 C39 1.353 . S
N36 Co1 2.145 . S
N36 C37 1.397 . S
N36 C38 1.334 . S
C37 H18 0.929 . S
C37 C34 1.388 . S
C37 N36 1.397 . S
C38 H19 0.929 . S
C38 C35 1.404 . S
C38 N36 1.334 . S
C39 H31 0.930 . S
C39 C34 1.418 . S
C39 C35 1.353 . S
C40 H10 0.930 . S
C40 N41 1.330 . S
C40 C42 1.446 . S
N41 Co0 2.151 . S
N41 C40 1.330 . S
N41 C45 1.418 . S
C42 H21 0.929 . S
C42 C40 1.446 . S
C42 C43 1.332 . S
C43 H23 0.931 . S
C43 C42 1.332 . S
C43 C44 1.267 . S
C44 H12 0.929 . S
C44 C43 1.267 . S
C44 C45 1.251 . S
C45 H15 0.929 . S
C45 N41 1.418 . S
C45 C44 1.251 . S
C46 H13 0.930 . S
C46 C48 1.406 . S
C46 C51 1.261 . S
C47 H14 0.930 . S
C47 N49 1.325 . S
C47 C50 1.357 . S
C48 H16 0.928 . S
C48 C46 1.406 . S
C48 N49 1.261 . S
N49 Co0 2.214 . S
N49 C47 1.325 . S
N49 C48 1.261 . S
C50 H20 0.931 . S
C50 C47 1.357 . S
C50 C51 1.312 . S
C51 H22 0.930 . S
C51 C46 1.261 . S
C51 C50 1.312 . S
C52 O24 1.214 . S
C52 O32 1.234 . S
C53 H25 0.929 . S
C53 C56 1.391 . S
C53 C58 1.391 . S
C54 H26 0.929 . S
C54 C55 1.390 . S
C54 N57 1.391 . S
C55 H27 0.930 . S
C55 C54 1.390 . S
C55 C56 1.392 . S
C56 H28 0.929 . S
C56 C53 1.391 . S
C56 C55 1.392 . S
N57 Co1 2.257 . S
N57 C54 1.391 . S
N57 C58 1.388 . S
C58 H29 0.930 . S
C58 C53 1.391 . S
C58 N57 1.388 . S
Co59 O61 2.143 . S
Co59 O67 2.074 . S
Co59 O70 2.093 . S
Co59 O83 2.072 1_655 S
Co59 N100 2.151 . S
Co59 N108 2.214 . S
Co60 O61 2.160 . S
Co60 O66 2.058 . S
Co60 O76 2.057 . S
Co60 O91 2.037 1_655 S
Co60 N95 2.145 1_655 S
Co60 N116 2.257 1_655 S
O61 Co59 2.143 . S
O61 Co60 2.160 . S
C62 O63 1.278 . S
C62 O70 1.224 . S
O63 C62 1.278 . S
C64 O65 1.245 . S
C64 O76 1.232 . S
O65 C64 1.245 . S
O66 Co60 2.058 . S
O66 C92 1.269 . S
O67 Co59 2.074 . S
O67 C92 1.257 . S
H68 C93 0.930 . S
H69 C99 0.930 . S
O70 Co59 2.093 . S
O70 C62 1.224 . S
H71 C103 0.929 . S
H72 C105 0.930 . S
H73 C106 0.930 . S
H74 C104 0.929 . S
H75 C107 0.928 . S
O76 Co60 2.057 . S
O76 C64 1.232 . S
H77 C96 0.929 . S
H78 C97 0.929 . S
H79 C109 0.931 . S
H80 C101 0.929 . S
H81 C110 0.930 . S
H82 C102 0.931 . S
O83 Co59 2.072 1_455 S
O83 C111 1.237 . S
H84 C112 0.929 . S
H85 C113 0.929 . S
H86 C114 0.930 . S
H87 C115 0.929 . S
H88 C117 0.930 . S
H89 C94 0.930 . S
H90 C98 0.930 . S
O91 Co60 2.037 1_455 S
O91 C111 1.234 . S
C92 O66 1.269 . S
C92 O67 1.257 . S
C93 H68 0.930 . S
C93 C96 1.388 . S
C93 C98 1.418 . S
C94 H89 0.930 . S
C94 C97 1.404 . S
C94 C98 1.353 . S
N95 Co60 2.145 1_455 S
N95 C96 1.397 . S
N95 C97 1.334 . S
C96 H77 0.929 . S
C96 C93 1.388 . S
C96 N95 1.397 . S
C97 H78 0.929 . S
C97 C94 1.404 . S
C97 N95 1.334 . S
C98 H90 0.930 . S
C98 C93 1.418 . S
C98 C94 1.353 . S
C99 H69 0.930 . S
C99 N100 1.330 . S
C99 C101 1.446 . S
N100 Co59 2.151 . S
N100 C99 1.330 . S
N100 C104 1.418 . S
C101 H80 0.929 . S
C101 C99 1.446 . S
C101 C102 1.332 . S
C102 H82 0.931 . S
C102 C101 1.332 . S
C102 C103 1.267 . S
C103 H71 0.929 . S
C103 C102 1.267 . S
C103 C104 1.251 . S
C104 H74 0.929 . S
C104 N100 1.418 . S
C104 C103 1.251 . S
C105 H72 0.930 . S
C105 C107 1.406 . S
C105 C110 1.261 . S
C106 H73 0.930 . S
C106 N108 1.325 . S
C106 C109 1.357 . S
C107 H75 0.928 . S
C107 C105 1.406 . S
C107 N108 1.261 . S
N108 Co59 2.214 . S
N108 C106 1.325 . S
N108 C107 1.261 . S
C109 H79 0.931 . S
C109 C106 1.357 . S
C109 C110 1.312 . S
C110 H81 0.930 . S
C110 C105 1.261 . S
C110 C109 1.312 . S
C111 O83 1.237 . S
C111 O91 1.234 . S
C112 H84 0.929 . S
C112 C115 1.391 . S
C112 C117 1.391 . S
C113 H85 0.929 . S
C113 C114 1.390 . S
C113 N116 1.391 . S
C114 H86 0.930 . S
C114 C113 1.390 . S
C114 C115 1.392 . S
C115 H87 0.929 . S
C115 C112 1.391 . S
C115 C114 1.392 . S
N116 Co60 2.257 1_455 S
N116 C113 1.391 . S
N116 C117 1.388 . S
C117 H88 0.930 . S
C117 C112 1.391 . S
C117 N116 1.388 . S
Co118 O120 2.143 . S
Co118 O126 2.074 . S
Co118 O129 2.093 . S
Co118 O142 2.082 1_565 S
Co118 N159 2.151 . S
Co118 N167 2.214 . S
Co119 O120 2.160 . S
Co119 O125 2.058 . S
Co119 O135 2.057 . S
Co119 O150 2.037 1_565 S
Co119 N154 2.145 1_565 S
Co119 N175 2.257 1_565 S
O120 Co118 2.143 . S
O120 Co119 2.160 . S
C121 O122 1.278 . S
C121 O129 1.224 . S
O122 C121 1.278 . S
C123 O124 1.245 . S
C123 O135 1.232 . S
O124 C123 1.245 . S
O125 Co119 2.058 . S
O125 C151 1.269 . S
O126 Co118 2.074 . S
O126 C151 1.257 . S
H127 C152 0.930 . S
H128 C158 0.930 . S
O129 Co118 2.093 . S
O129 C121 1.224 . S
H130 C162 0.929 . S
H131 C164 0.930 . S
H132 C165 0.930 . S
H133 C163 0.929 . S
H134 C166 0.928 . S
O135 Co119 2.057 . S
O135 C123 1.232 . S
H136 C155 0.929 . S
H137 C156 0.929 . S
H138 C168 0.931 . S
H139 C160 0.929 . S
H140 C169 0.930 . S
H141 C161 0.931 . S
O142 Co118 2.082 1_545 S
O142 C170 1.215 . S
H143 C171 0.929 . S
H144 C172 0.929 . S
H145 C173 0.930 . S
H146 C174 0.929 . S
H147 C176 0.930 . S
H148 C153 0.930 . S
H149 C157 0.930 . S
O150 Co119 2.037 1_545 S
O150 C170 1.234 . S
C151 O125 1.269 . S
C151 O126 1.257 . S
C152 H127 0.930 . S
C152 C155 1.388 . S
C152 C157 1.418 . S
C153 H148 0.930 . S
C153 C156 1.404 . S
C153 C157 1.353 . S
N154 Co119 2.145 1_545 S
N154 C155 1.397 . S
N154 C156 1.334 . S
C155 H136 0.929 . S
C155 C152 1.388 . S
C155 N154 1.397 . S
C156 H137 0.929 . S
C156 C153 1.404 . S
C156 N154 1.334 . S
C157 H149 0.930 . S
C157 C152 1.418 . S
C157 C153 1.353 . S
C158 H128 0.930 . S
C158 N159 1.330 . S
C158 C160 1.446 . S
N159 Co118 2.151 . S
N159 C158 1.330 . S
N159 C163 1.418 . S
C160 H139 0.929 . S
C160 C158 1.446 . S
C160 C161 1.332 . S
C161 H141 0.931 . S
C161 C160 1.332 . S
C161 C162 1.267 . S
C162 H130 0.929 . S
C162 C161 1.267 . S
C162 C163 1.251 . S
C163 H133 0.929 . S
C163 N159 1.418 . S
C163 C162 1.251 . S
C164 H131 0.930 . S
C164 C166 1.406 . S
C164 C169 1.261 . S
C165 H132 0.930 . S
C165 N167 1.325 . S
C165 C168 1.357 . S
C166 H134 0.928 . S
C166 C164 1.406 . S
C166 N167 1.261 . S
N167 Co118 2.214 . S
N167 C165 1.325 . S
N167 C166 1.261 . S
C168 H138 0.931 . S
C168 C165 1.357 . S
C168 C169 1.312 . S
C169 H140 0.930 . S
C169 C164 1.261 . S
C169 C168 1.312 . S
C170 O142 1.215 . S
C170 O150 1.234 . S
C171 H143 0.929 . S
C171 C174 1.391 . S
C171 C176 1.391 . S
C172 H144 0.929 . S
C172 C173 1.390 . S
C172 N175 1.391 . S
C173 H145 0.930 . S
C173 C172 1.390 . S
C173 C174 1.392 . S
C174 H146 0.929 . S
C174 C171 1.391 . S
C174 C173 1.392 . S
N175 Co119 2.257 1_545 S
N175 C172 1.391 . S
N175 C176 1.388 . S
C176 H147 0.930 . S
C176 C171 1.391 . S
C176 N175 1.388 . S
Co177 O179 2.143 . S
Co177 O185 2.074 . S
Co177 O188 2.093 . S
Co177 O201 2.097 . S
Co177 N218 2.151 . S
Co177 N226 2.214 . S
Co178 O179 2.160 . S
Co178 O184 2.058 . S
Co178 O194 2.057 . S
Co178 O209 2.037 . S
Co178 N213 2.145 . S
Co178 N234 2.257 . S
O179 Co177 2.143 . S
O179 Co178 2.160 . S
C180 O181 1.278 . S
C180 O188 1.224 . S
O181 C180 1.278 . S
C182 O183 1.245 . S
C182 O194 1.232 . S
O183 C182 1.245 . S
O184 Co178 2.058 . S
O184 C210 1.269 . S
O185 Co177 2.074 . S
O185 C210 1.257 . S
H186 C211 0.930 . S
H187 C217 0.930 . S
O188 Co177 2.093 . S
O188 C180 1.224 . S
H189 C221 0.929 . S
H190 C223 0.930 . S
H191 C224 0.930 . S
H192 C222 0.929 . S
H193 C225 0.928 . S
O194 Co178 2.057 . S
O194 C182 1.232 . S
H195 C214 0.929 . S
H196 C215 0.929 . S
H197 C227 0.931 . S
H198 C219 0.929 . S
H199 C228 0.930 . S
H200 C220 0.931 . S
O201 Co177 2.097 . S
O201 C229 1.214 . S
H202 C230 0.929 . S
H203 C231 0.929 . S
H204 C232 0.930 . S
H205 C233 0.929 . S
H206 C235 0.930 . S
H207 C212 0.930 . S
H208 C216 0.930 . S
O209 Co178 2.037 . S
O209 C229 1.234 . S
C210 O184 1.269 . S
C210 O185 1.257 . S
C211 H186 0.930 . S
C211 C214 1.388 . S
C211 C216 1.418 . S
C212 H207 0.930 . S
C212 C215 1.404 . S
C212 C216 1.353 . S
N213 Co178 2.145 . S
N213 C214 1.397 . S
N213 C215 1.334 . S
C214 H195 0.929 . S
C214 C211 1.388 . S
C214 N213 1.397 . S
C215 H196 0.929 . S
C215 C212 1.404 . S
C215 N213 1.334 . S
C216 H208 0.930 . S
C216 C211 1.418 . S
C216 C212 1.353 . S
C217 H187 0.930 . S
C217 N218 1.330 . S
C217 C219 1.446 . S
N218 Co177 2.151 . S
N218 C217 1.330 . S
N218 C222 1.418 . S
C219 H198 0.929 . S
C219 C217 1.446 . S
C219 C220 1.332 . S
C220 H200 0.931 . S
C220 C219 1.332 . S
C220 C221 1.267 . S
C221 H189 0.929 . S
C221 C220 1.267 . S
C221 C222 1.251 . S
C222 H192 0.929 . S
C222 N218 1.418 . S
C222 C221 1.251 . S
C223 H190 0.930 . S
C223 C225 1.406 . S
C223 C228 1.261 . S
C224 H191 0.930 . S
C224 N226 1.325 . S
C224 C227 1.357 . S
C225 H193 0.928 . S
C225 C223 1.406 . S
C225 N226 1.261 . S
N226 Co177 2.214 . S
N226 C224 1.325 . S
N226 C225 1.261 . S
C227 H197 0.931 . S
C227 C224 1.357 . S
C227 C228 1.312 . S
C228 H199 0.930 . S
C228 C223 1.261 . S
C228 C227 1.312 . S
C229 O201 1.214 . S
C229 O209 1.234 . S
C230 H202 0.929 . S
C230 C233 1.391 . S
C230 C235 1.391 . S
C231 H203 0.929 . S
C231 C232 1.390 . S
C231 N234 1.391 . S
C232 H204 0.930 . S
C232 C231 1.390 . S
C232 C233 1.392 . S
C233 H205 0.929 . S
C233 C230 1.391 . S
C233 C232 1.392 . S
N234 Co178 2.257 . S
N234 C231 1.391 . S
N234 C235 1.388 . S
C235 H206 0.930 . S
C235 C230 1.391 . S
C235 N234 1.388 . S
Co236 O238 2.143 . S
Co236 O244 2.074 . S
Co236 O247 2.093 . S
Co236 O260 2.077 1_455 S
Co236 N277 2.151 . S
Co236 N285 2.214 . S
Co237 O238 2.160 . S
Co237 O243 2.058 . S
Co237 O253 2.057 . S
Co237 O268 2.037 1_455 S
Co237 N272 2.145 1_455 S
Co237 N293 2.257 1_455 S
O238 Co236 2.143 . S
O238 Co237 2.160 . S
C239 O240 1.278 . S
C239 O247 1.224 . S
O240 C239 1.278 . S
C241 O242 1.245 . S
C241 O253 1.232 . S
O242 C241 1.245 . S
O243 Co237 2.058 . S
O243 C269 1.269 . S
O244 Co236 2.074 . S
O244 C269 1.257 . S
H245 C270 0.930 . S
H246 C276 0.930 . S
O247 Co236 2.093 . S
O247 C239 1.224 . S
H248 C280 0.929 . S
H249 C282 0.930 . S
H250 C283 0.930 . S
H251 C281 0.929 . S
H252 C284 0.928 . S
O253 Co237 2.057 . S
O253 C241 1.232 . S
H254 C273 0.929 . S
H255 C274 0.929 . S
H256 C286 0.931 . S
H257 C278 0.929 . S
H258 C287 0.930 . S
H259 C279 0.931 . S
O260 Co236 2.077 1_655 S
O260 C288 1.233 . S
H261 C289 0.929 . S
H262 C290 0.929 . S
H263 C291 0.930 . S
H264 C292 0.929 . S
H265 C294 0.930 . S
H266 C271 0.930 . S
H267 C275 0.930 . S
O268 Co237 2.037 1_655 S
O268 C288 1.234 . S
C269 O243 1.269 . S
C269 O244 1.257 . S
C270 H245 0.930 . S
C270 C273 1.388 . S
C270 C275 1.418 . S
C271 H266 0.930 . S
C271 C274 1.404 . S
C271 C275 1.353 . S
N272 Co237 2.145 1_655 S
N272 C273 1.397 . S
N272 C274 1.334 . S
C273 H254 0.929 . S
C273 C270 1.388 . S
C273 N272 1.397 . S
C274 H255 0.929 . S
C274 C271 1.404 . S
C274 N272 1.334 . S
C275 H267 0.930 . S
C275 C270 1.418 . S
C275 C271 1.353 . S
C276 H246 0.930 . S
C276 N277 1.330 . S
C276 C278 1.446 . S
N277 Co236 2.151 . S
N277 C276 1.330 . S
N277 C281 1.418 . S
C278 H257 0.929 . S
C278 C276 1.446 . S
C278 C279 1.332 . S
C279 H259 0.931 . S
C279 C278 1.332 . S
C279 C280 1.267 . S
C280 H248 0.929 . S
C280 C279 1.267 . S
C280 C281 1.251 . S
C281 H251 0.929 . S
C281 N277 1.418 . S
C281 C280 1.251 . S
C282 H249 0.930 . S
C282 C284 1.406 . S
C282 C287 1.261 . S
C283 H250 0.930 . S
C283 N285 1.325 . S
C283 C286 1.357 . S
C284 H252 0.928 . S
C284 C282 1.406 . S
C284 N285 1.261 . S
N285 Co236 2.214 . S
N285 C283 1.325 . S
N285 C284 1.261 . S
C286 H256 0.931 . S
C286 C283 1.357 . S
C286 C287 1.312 . S
C287 H258 0.930 . S
C287 C282 1.261 . S
C287 C286 1.312 . S
C288 O260 1.233 . S
C288 O268 1.234 . S
C289 H261 0.929 . S
C289 C292 1.391 . S
C289 C294 1.391 . S
C290 H262 0.929 . S
C290 C291 1.390 . S
C290 N293 1.391 . S
C291 H263 0.930 . S
C291 C290 1.390 . S
C291 C292 1.392 . S
C292 H264 0.929 . S
C292 C289 1.391 . S
C292 C291 1.392 . S
N293 Co237 2.257 1_655 S
N293 C290 1.391 . S
N293 C294 1.388 . S
C294 H265 0.930 . S
C294 C289 1.391 . S
C294 N293 1.388 . S
Co295 O297 2.143 . S
Co295 O303 2.074 . S
Co295 O306 2.093 . S
Co295 O319 2.081 1_545 S
Co295 N336 2.151 . S
Co295 N344 2.214 . S
Co296 O297 2.160 . S
Co296 O302 2.058 . S
Co296 O312 2.057 . S
Co296 O327 2.037 1_545 S
Co296 N331 2.145 1_545 S
Co296 N352 2.257 1_545 S
O297 Co295 2.143 . S
O297 Co296 2.160 . S
C298 O299 1.278 . S
C298 O306 1.224 . S
O299 C298 1.278 . S
C300 O301 1.245 . S
C300 O312 1.232 . S
O301 C300 1.245 . S
O302 Co296 2.058 . S
O302 C328 1.269 . S
O303 Co295 2.074 . S
O303 C328 1.257 . S
H304 C329 0.930 . S
H305 C335 0.930 . S
O306 Co295 2.093 . S
O306 C298 1.224 . S
H307 C339 0.929 . S
H308 C341 0.930 . S
H309 C342 0.930 . S
H310 C340 0.929 . S
H311 C343 0.928 . S
O312 Co296 2.057 . S
O312 C300 1.232 . S
H313 C332 0.929 . S
H314 C333 0.929 . S
H315 C345 0.931 . S
H316 C337 0.929 . S
H317 C346 0.930 . S
H318 C338 0.931 . S
O319 Co295 2.081 1_565 S
O319 C347 1.215 . S
H320 C348 0.929 . S
H321 C349 0.929 . S
H322 C350 0.930 . S
H323 C351 0.929 . S
H324 C353 0.930 . S
H325 C330 0.930 . S
H326 C334 0.930 . S
O327 Co296 2.037 1_565 S
O327 C347 1.234 . S
C328 O302 1.269 . S
C328 O303 1.257 . S
C329 H304 0.930 . S
C329 C332 1.388 . S
C329 C334 1.418 . S
C330 H325 0.930 . S
C330 C333 1.404 . S
C330 C334 1.353 . S
N331 Co296 2.145 1_565 S
N331 C332 1.397 . S
N331 C333 1.334 . S
C332 H313 0.929 . S
C332 C329 1.388 . S
C332 N331 1.397 . S
C333 H314 0.929 . S
C333 C330 1.404 . S
C333 N331 1.334 . S
C334 H326 0.930 . S
C334 C329 1.418 . S
C334 C330 1.353 . S
C335 H305 0.930 . S
C335 N336 1.330 . S
C335 C337 1.446 . S
N336 Co295 2.151 . S
N336 C335 1.330 . S
N336 C340 1.418 . S
C337 H316 0.929 . S
C337 C335 1.446 . S
C337 C338 1.332 . S
C338 H318 0.931 . S
C338 C337 1.332 . S
C338 C339 1.267 . S
C339 H307 0.929 . S
C339 C338 1.267 . S
C339 C340 1.251 . S
C340 H310 0.929 . S
C340 N336 1.418 . S
C340 C339 1.251 . S
C341 H308 0.930 . S
C341 C343 1.406 . S
C341 C346 1.261 . S
C342 H309 0.930 . S
C342 N344 1.325 . S
C342 C345 1.357 . S
C343 H311 0.928 . S
C343 C341 1.406 . S
C343 N344 1.261 . S
N344 Co295 2.214 . S
N344 C342 1.325 . S
N344 C343 1.261 . S
C345 H315 0.931 . S
C345 C342 1.357 . S
C345 C346 1.312 . S
C346 H317 0.930 . S
C346 C341 1.261 . S
C346 C345 1.312 . S
C347 O319 1.215 . S
C347 O327 1.234 . S
C348 H320 0.929 . S
C348 C351 1.391 . S
C348 C353 1.391 . S
C349 H321 0.929 . S
C349 C350 1.390 . S
C349 N352 1.391 . S
C350 H322 0.930 . S
C350 C349 1.390 . S
C350 C351 1.392 . S
C351 H323 0.929 . S
C351 C348 1.391 . S
C351 C350 1.392 . S
N352 Co296 2.257 1_565 S
N352 C349 1.391 . S
N352 C353 1.388 . S
C353 H324 0.930 . S
C353 C348 1.391 . S
C353 N352 1.388 . S
Co354 O356 2.143 . S
Co354 O362 2.074 . S
Co354 O365 2.093 . S
Co354 O378 2.097 . S
Co354 N395 2.151 . S
Co354 N403 2.214 . S
Co355 O356 2.160 . S
Co355 O361 2.058 . S
Co355 O371 2.057 . S
Co355 O386 2.037 . S
Co355 N390 2.145 . S
Co355 N411 2.257 . S
O356 Co354 2.143 . S
O356 Co355 2.160 . S
C357 O358 1.278 . S
C357 O365 1.224 . S
O358 C357 1.278 . S
C359 O360 1.245 . S
C359 O371 1.232 . S
O360 C359 1.245 . S
O361 Co355 2.058 . S
O361 C387 1.269 . S
O362 Co354 2.074 . S
O362 C387 1.257 . S
H363 C388 0.930 . S
H364 C394 0.930 . S
O365 Co354 2.093 . S
O365 C357 1.224 . S
H366 C398 0.929 . S
H367 C400 0.930 . S
H368 C401 0.930 . S
H369 C399 0.929 . S
H370 C402 0.928 . S
O371 Co355 2.057 . S
O371 C359 1.232 . S
H372 C391 0.929 . S
H373 C392 0.929 . S
H374 C404 0.931 . S
H375 C396 0.929 . S
H376 C405 0.930 . S
H377 C397 0.931 . S
O378 Co354 2.097 . S
O378 C406 1.214 . S
H379 C407 0.929 . S
H380 C408 0.929 . S
H381 C409 0.930 . S
H382 C410 0.929 . S
H383 C412 0.930 . S
H384 C389 0.930 . S
H385 C393 0.930 . S
O386 Co355 2.037 . S
O386 C406 1.234 . S
C387 O361 1.269 . S
C387 O362 1.257 . S
C388 H363 0.930 . S
C388 C391 1.388 . S
C388 C393 1.418 . S
C389 H384 0.930 . S
C389 C392 1.404 . S
C389 C393 1.353 . S
N390 Co355 2.145 . S
N390 C391 1.397 . S
N390 C392 1.334 . S
C391 H372 0.929 . S
C391 C388 1.388 . S
C391 N390 1.397 . S
C392 H373 0.929 . S
C392 C389 1.404 . S
C392 N390 1.334 . S
C393 H385 0.930 . S
C393 C388 1.418 . S
C393 C389 1.353 . S
C394 H364 0.930 . S
C394 N395 1.330 . S
C394 C396 1.446 . S
N395 Co354 2.151 . S
N395 C394 1.330 . S
N395 C399 1.418 . S
C396 H375 0.929 . S
C396 C394 1.446 . S
C396 C397 1.332 . S
C397 H377 0.931 . S
C397 C396 1.332 . S
C397 C398 1.267 . S
C398 H366 0.929 . S
C398 C397 1.267 . S
C398 C399 1.251 . S
C399 H369 0.929 . S
C399 N395 1.418 . S
C399 C398 1.251 . S
C400 H367 0.930 . S
C400 C402 1.406 . S
C400 C405 1.261 . S
C401 H368 0.930 . S
C401 N403 1.325 . S
C401 C404 1.357 . S
C402 H370 0.928 . S
C402 C400 1.406 . S
C402 N403 1.261 . S
N403 Co354 2.214 . S
N403 C401 1.325 . S
N403 C402 1.261 . S
C404 H374 0.931 . S
C404 C401 1.357 . S
C404 C405 1.312 . S
C405 H376 0.930 . S
C405 C400 1.261 . S
C405 C404 1.312 . S
C406 O378 1.214 . S
C406 O386 1.234 . S
C407 H379 0.929 . S
C407 C410 1.391 . S
C407 C412 1.391 . S
C408 H380 0.929 . S
C408 C409 1.390 . S
C408 N411 1.391 . S
C409 H381 0.930 . S
C409 C408 1.390 . S
C409 C410 1.392 . S
C410 H382 0.929 . S
C410 C407 1.391 . S
C410 C409 1.392 . S
N411 Co355 2.257 . S
N411 C408 1.391 . S
N411 C412 1.388 . S
C412 H383 0.930 . S
C412 C407 1.391 . S
C412 N411 1.388 . S
Co413 O415 2.143 . S
Co413 O421 2.074 . S
Co413 O424 2.093 . S
Co413 O437 2.081 1_655 S
Co413 N454 2.151 . S
Co413 N462 2.214 . S
Co414 O415 2.160 . S
Co414 O420 2.058 . S
Co414 O430 2.057 . S
Co414 O445 2.037 1_655 S
Co414 N449 2.145 1_655 S
Co414 N470 2.257 1_655 S
O415 Co413 2.143 . S
O415 Co414 2.160 . S
C416 O417 1.278 . S
C416 O424 1.224 . S
O417 C416 1.278 . S
C418 O419 1.245 . S
C418 O430 1.232 . S
O419 C418 1.245 . S
O420 Co414 2.058 . S
O420 C446 1.269 . S
O421 Co413 2.074 . S
O421 C446 1.257 . S
H422 C447 0.930 . S
H423 C453 0.930 . S
O424 Co413 2.093 . S
O424 C416 1.224 . S
H425 C457 0.929 . S
H426 C459 0.930 . S
H427 C460 0.930 . S
H428 C458 0.929 . S
H429 C461 0.928 . S
O430 Co414 2.057 . S
O430 C418 1.232 . S
H431 C450 0.929 . S
H432 C451 0.929 . S
H433 C463 0.931 . S
H434 C455 0.929 . S
H435 C464 0.930 . S
H436 C456 0.931 . S
O437 Co413 2.081 1_455 S
O437 C465 1.215 . S
H438 C466 0.929 . S
H439 C467 0.929 . S
H440 C468 0.930 . S
H441 C469 0.929 . S
H442 C471 0.930 . S
H443 C448 0.930 . S
H444 C452 0.930 . S
O445 Co414 2.037 1_455 S
O445 C465 1.234 . S
C446 O420 1.269 . S
C446 O421 1.257 . S
C447 H422 0.930 . S
C447 C450 1.388 . S
C447 C452 1.418 . S
C448 H443 0.930 . S
C448 C451 1.404 . S
C448 C452 1.353 . S
N449 Co414 2.145 1_455 S
N449 C450 1.397 . S
N449 C451 1.334 . S
C450 H431 0.929 . S
C450 C447 1.388 . S
C450 N449 1.397 . S
C451 H432 0.929 . S
C451 C448 1.404 . S
C451 N449 1.334 . S
C452 H444 0.930 . S
C452 C447 1.418 . S
C452 C448 1.353 . S
C453 H423 0.930 . S
C453 N454 1.330 . S
C453 C455 1.446 . S
N454 Co413 2.151 . S
N454 C453 1.330 . S
N454 C458 1.418 . S
C455 H434 0.929 . S
C455 C453 1.446 . S
C455 C456 1.332 . S
C456 H436 0.931 . S
C456 C455 1.332 . S
C456 C457 1.267 . S
C457 H425 0.929 . S
C457 C456 1.267 . S
C457 C458 1.251 . S
C458 H428 0.929 . S
C458 N454 1.418 . S
C458 C457 1.251 . S
C459 H426 0.930 . S
C459 C461 1.406 . S
C459 C464 1.261 . S
C460 H427 0.930 . S
C460 N462 1.325 . S
C460 C463 1.357 . S
C461 H429 0.928 . S
C461 C459 1.406 . S
C461 N462 1.261 . S
N462 Co413 2.214 . S
N462 C460 1.325 . S
N462 C461 1.261 . S
C463 H433 0.931 . S
C463 C460 1.357 . S
C463 C464 1.312 . S
C464 H435 0.930 . S
C464 C459 1.261 . S
C464 C463 1.312 . S
C465 O437 1.215 . S
C465 O445 1.234 . S
C466 H438 0.929 . S
C466 C469 1.391 . S
C466 C471 1.391 . S
C467 H439 0.929 . S
C467 C468 1.390 . S
C467 N470 1.391 . S
C468 H440 0.930 . S
C468 C467 1.390 . S
C468 C469 1.392 . S
C469 H441 0.929 . S
C469 C466 1.391 . S
C469 C468 1.392 . S
N470 Co414 2.257 1_455 S
N470 C467 1.391 . S
N470 C471 1.388 . S
C471 H442 0.930 . S
C471 C466 1.391 . S
C471 N470 1.388 . S
Co472 O474 2.143 . S
Co472 O480 2.074 . S
Co472 O483 2.093 . S
Co472 O496 2.077 1_565 S
Co472 N513 2.151 . S
Co472 N521 2.214 . S
Co473 O474 2.160 . S
Co473 O479 2.058 . S
Co473 O489 2.057 . S
Co473 O504 2.037 1_565 S
Co473 N508 2.145 1_565 S
Co473 N529 2.257 1_565 S
O474 Co472 2.143 . S
O474 Co473 2.160 . S
C475 O476 1.278 . S
C475 O483 1.224 . S
O476 C475 1.278 . S
C477 O478 1.245 . S
C477 O489 1.232 . S
O478 C477 1.245 . S
O479 Co473 2.058 . S
O479 C505 1.269 . S
O480 Co472 2.074 . S
O480 C505 1.257 . S
H481 C506 0.930 . S
H482 C512 0.930 . S
O483 Co472 2.093 . S
O483 C475 1.224 . S
H484 C516 0.929 . S
H485 C518 0.930 . S
H486 C519 0.930 . S
H487 C517 0.929 . S
H488 C520 0.928 . S
O489 Co473 2.057 . S
O489 C477 1.232 . S
H490 C509 0.929 . S
H491 C510 0.929 . S
H492 C522 0.931 . S
H493 C514 0.929 . S
H494 C523 0.930 . S
H495 C515 0.931 . S
O496 Co472 2.077 1_545 S
O496 C524 1.233 . S
H497 C525 0.929 . S
H498 C526 0.929 . S
H499 C527 0.930 . S
H500 C528 0.929 . S
H501 C530 0.930 . S
H502 C507 0.930 . S
H503 C511 0.930 . S
O504 Co473 2.037 1_545 S
O504 C524 1.234 . S
C505 O479 1.269 . S
C505 O480 1.257 . S
C506 H481 0.930 . S
C506 C509 1.388 . S
C506 C511 1.418 . S
C507 H502 0.930 . S
C507 C510 1.404 . S
C507 C511 1.353 . S
N508 Co473 2.145 1_545 S
N508 C509 1.397 . S
N508 C510 1.334 . S
C509 H490 0.929 . S
C509 C506 1.388 . S
C509 N508 1.397 . S
C510 H491 0.929 . S
C510 C507 1.404 . S
C510 N508 1.334 . S
C511 H503 0.930 . S
C511 C506 1.418 . S
C511 C507 1.353 . S
C512 H482 0.930 . S
C512 N513 1.330 . S
C512 C514 1.446 . S
N513 Co472 2.151 . S
N513 C512 1.330 . S
N513 C517 1.418 . S
C514 H493 0.929 . S
C514 C512 1.446 . S
C514 C515 1.332 . S
C515 H495 0.931 . S
C515 C514 1.332 . S
C515 C516 1.267 . S
C516 H484 0.929 . S
C516 C515 1.267 . S
C516 C517 1.251 . S
C517 H487 0.929 . S
C517 N513 1.418 . S
C517 C516 1.251 . S
C518 H485 0.930 . S
C518 C520 1.406 . S
C518 C523 1.261 . S
C519 H486 0.930 . S
C519 N521 1.325 . S
C519 C522 1.357 . S
C520 H488 0.928 . S
C520 C518 1.406 . S
C520 N521 1.261 . S
N521 Co472 2.214 . S
N521 C519 1.325 . S
N521 C520 1.261 . S
C522 H492 0.931 . S
C522 C519 1.357 . S
C522 C523 1.312 . S
C523 H494 0.930 . S
C523 C518 1.261 . S
C523 C522 1.312 . S
C524 O496 1.233 . S
C524 O504 1.234 . S
C525 H497 0.929 . S
C525 C528 1.391 . S
C525 C530 1.391 . S
C526 H498 0.929 . S
C526 C527 1.390 . S
C526 N529 1.391 . S
C527 H499 0.930 . S
C527 C526 1.390 . S
C527 C528 1.392 . S
C528 H500 0.929 . S
C528 C525 1.391 . S
C528 C527 1.392 . S
N529 Co473 2.257 1_545 S
N529 C526 1.391 . S
N529 C530 1.388 . S
C530 H501 0.930 . S
C530 C525 1.391 . S
C530 N529 1.388 . S
Co531 O533 2.143 . S
Co531 O539 2.074 . S
Co531 O542 2.093 . S
Co531 O555 2.097 . S
Co531 N572 2.151 . S
Co531 N580 2.214 . S
Co532 O533 2.160 . S
Co532 O538 2.058 . S
Co532 O548 2.057 . S
Co532 O563 2.037 . S
Co532 N567 2.145 . S
Co532 N588 2.257 . S
O533 Co531 2.143 . S
O533 Co532 2.160 . S
C534 O535 1.278 . S
C534 O542 1.224 . S
O535 C534 1.278 . S
C536 O537 1.245 . S
C536 O548 1.232 . S
O537 C536 1.245 . S
O538 Co532 2.058 . S
O538 C564 1.269 . S
O539 Co531 2.074 . S
O539 C564 1.257 . S
H540 C565 0.930 . S
H541 C571 0.930 . S
O542 Co531 2.093 . S
O542 C534 1.224 . S
H543 C575 0.929 . S
H544 C577 0.930 . S
H545 C578 0.930 . S
H546 C576 0.929 . S
H547 C579 0.928 . S
O548 Co532 2.057 . S
O548 C536 1.232 . S
H549 C568 0.929 . S
H550 C569 0.929 . S
H551 C581 0.931 . S
H552 C573 0.929 . S
H553 C582 0.930 . S
H554 C574 0.931 . S
O555 Co531 2.097 . S
O555 C583 1.214 . S
H556 C584 0.929 . S
H557 C585 0.929 . S
H558 C586 0.930 . S
H559 C587 0.929 . S
H560 C589 0.930 . S
H561 C566 0.930 . S
H562 C570 0.930 . S
O563 Co532 2.037 . S
O563 C583 1.234 . S
C564 O538 1.269 . S
C564 O539 1.257 . S
C565 H540 0.930 . S
C565 C568 1.388 . S
C565 C570 1.418 . S
C566 H561 0.930 . S
C566 C569 1.404 . S
C566 C570 1.353 . S
N567 Co532 2.145 . S
N567 C568 1.397 . S
N567 C569 1.334 . S
C568 H549 0.929 . S
C568 C565 1.388 . S
C568 N567 1.397 . S
C569 H550 0.929 . S
C569 C566 1.404 . S
C569 N567 1.334 . S
C570 H562 0.930 . S
C570 C565 1.418 . S
C570 C566 1.353 . S
C571 H541 0.930 . S
C571 N572 1.330 . S
C571 C573 1.446 . S
N572 Co531 2.151 . S
N572 C571 1.330 . S
N572 C576 1.418 . S
C573 H552 0.929 . S
C573 C571 1.446 . S
C573 C574 1.332 . S
C574 H554 0.931 . S
C574 C573 1.332 . S
C574 C575 1.267 . S
C575 H543 0.929 . S
C575 C574 1.267 . S
C575 C576 1.251 . S
C576 H546 0.929 . S
C576 N572 1.418 . S
C576 C575 1.251 . S
C577 H544 0.930 . S
C577 C579 1.406 . S
C577 C582 1.261 . S
C578 H545 0.930 . S
C578 N580 1.325 . S
C578 C581 1.357 . S
C579 H547 0.928 . S
C579 C577 1.406 . S
C579 N580 1.261 . S
N580 Co531 2.214 . S
N580 C578 1.325 . S
N580 C579 1.261 . S
C581 H551 0.931 . S
C581 C578 1.357 . S
C581 C582 1.312 . S
C582 H553 0.930 . S
C582 C577 1.261 . S
C582 C581 1.312 . S
C583 O555 1.214 . S
C583 O563 1.234 . S
C584 H556 0.929 . S
C584 C587 1.391 . S
C584 C589 1.391 . S
C585 H557 0.929 . S
C585 C586 1.390 . S
C585 N588 1.391 . S
C586 H558 0.930 . S
C586 C585 1.390 . S
C586 C587 1.392 . S
C587 H559 0.929 . S
C587 C584 1.391 . S
C587 C586 1.392 . S
N588 Co532 2.257 . S
N588 C585 1.391 . S
N588 C589 1.388 . S
C589 H560 0.930 . S
C589 C584 1.391 . S
C589 N588 1.388 . S
Co590 O592 2.143 . S
Co590 O598 2.074 . S
Co590 O601 2.093 . S
Co590 O614 2.082 1_455 S
Co590 N631 2.151 . S
Co590 N639 2.214 . S
Co591 O592 2.160 . S
Co591 O597 2.058 . S
Co591 O607 2.057 . S
Co591 O622 2.037 1_455 S
Co591 N626 2.145 1_455 S
Co591 N647 2.257 1_455 S
O592 Co590 2.143 . S
O592 Co591 2.160 . S
C593 O594 1.278 . S
C593 O601 1.224 . S
O594 C593 1.278 . S
C595 O596 1.245 . S
C595 O607 1.232 . S
O596 C595 1.245 . S
O597 Co591 2.058 . S
O597 C623 1.269 . S
O598 Co590 2.074 . S
O598 C623 1.257 . S
H599 C624 0.930 . S
H600 C630 0.930 . S
O601 Co590 2.093 . S
O601 C593 1.224 . S
H602 C634 0.929 . S
H603 C636 0.930 . S
H604 C637 0.930 . S
H605 C635 0.929 . S
H606 C638 0.928 . S
O607 Co591 2.057 . S
O607 C595 1.232 . S
H608 C627 0.929 . S
H609 C628 0.929 . S
H610 C640 0.931 . S
H611 C632 0.929 . S
H612 C641 0.930 . S
H613 C633 0.931 . S
O614 Co590 2.082 1_655 S
O614 C642 1.215 . S
H615 C643 0.929 . S
H616 C644 0.929 . S
H617 C645 0.930 . S
H618 C646 0.929 . S
H619 C648 0.930 . S
H620 C625 0.930 . S
H621 C629 0.930 . S
O622 Co591 2.037 1_655 S
O622 C642 1.234 . S
C623 O597 1.269 . S
C623 O598 1.257 . S
C624 H599 0.930 . S
C624 C627 1.388 . S
C624 C629 1.418 . S
C625 H620 0.930 . S
C625 C628 1.404 . S
C625 C629 1.353 . S
N626 Co591 2.145 1_655 S
N626 C627 1.397 . S
N626 C628 1.334 . S
C627 H608 0.929 . S
C627 C624 1.388 . S
C627 N626 1.397 . S
C628 H609 0.929 . S
C628 C625 1.404 . S
C628 N626 1.334 . S
C629 H621 0.930 . S
C629 C624 1.418 . S
C629 C625 1.353 . S
C630 H600 0.930 . S
C630 N631 1.330 . S
C630 C632 1.446 . S
N631 Co590 2.151 . S
N631 C630 1.330 . S
N631 C635 1.418 . S
C632 H611 0.929 . S
C632 C630 1.446 . S
C632 C633 1.332 . S
C633 H613 0.931 . S
C633 C632 1.332 . S
C633 C634 1.267 . S
C634 H602 0.929 . S
C634 C633 1.267 . S
C634 C635 1.251 . S
C635 H605 0.929 . S
C635 N631 1.418 . S
C635 C634 1.251 . S
C636 H603 0.930 . S
C636 C638 1.406 . S
C636 C641 1.261 . S
C637 H604 0.930 . S
C637 N639 1.325 . S
C637 C640 1.357 . S
C638 H606 0.928 . S
C638 C636 1.406 . S
C638 N639 1.261 . S
N639 Co590 2.214 . S
N639 C637 1.325 . S
N639 C638 1.261 . S
C640 H610 0.931 . S
C640 C637 1.357 . S
C640 C641 1.312 . S
C641 H612 0.930 . S
C641 C636 1.261 . S
C641 C640 1.312 . S
C642 O614 1.215 . S
C642 O622 1.234 . S
C643 H615 0.929 . S
C643 C646 1.391 . S
C643 C648 1.391 . S
C644 H616 0.929 . S
C644 C645 1.390 . S
C644 N647 1.391 . S
C645 H617 0.930 . S
C645 C644 1.390 . S
C645 C646 1.392 . S
C646 H618 0.929 . S
C646 C643 1.391 . S
C646 C645 1.392 . S
N647 Co591 2.257 1_655 S
N647 C644 1.391 . S
N647 C648 1.388 . S
C648 H619 0.930 . S
C648 C643 1.391 . S
C648 N647 1.388 . S
Co649 O651 2.143 . S
Co649 O657 2.074 . S
Co649 O660 2.093 . S
Co649 O673 2.072 1_545 S
Co649 N690 2.151 . S
Co649 N698 2.214 . S
Co650 O651 2.160 . S
Co650 O656 2.058 . S
Co650 O666 2.057 . S
Co650 O681 2.037 1_545 S
Co650 N685 2.145 1_545 S
Co650 N706 2.257 1_545 S
O651 Co649 2.143 . S
O651 Co650 2.160 . S
C652 O653 1.278 . S
C652 O660 1.224 . S
O653 C652 1.278 . S
C654 O655 1.245 . S
C654 O666 1.232 . S
O655 C654 1.245 . S
O656 Co650 2.058 . S
O656 C682 1.269 . S
O657 Co649 2.074 . S
O657 C682 1.257 . S
H658 C683 0.930 . S
H659 C689 0.930 . S
O660 Co649 2.093 . S
O660 C652 1.224 . S
H661 C693 0.929 . S
H662 C695 0.930 . S
H663 C696 0.930 . S
H664 C694 0.929 . S
H665 C697 0.928 . S
O666 Co650 2.057 . S
O666 C654 1.232 . S
H667 C686 0.929 . S
H668 C687 0.929 . S
H669 C699 0.931 . S
H670 C691 0.929 . S
H671 C700 0.930 . S
H672 C692 0.931 . S
O673 Co649 2.072 1_565 S
O673 C701 1.237 . S
H674 C702 0.929 . S
H675 C703 0.929 . S
H676 C704 0.930 . S
H677 C705 0.929 . S
H678 C707 0.930 . S
H679 C684 0.930 . S
H680 C688 0.930 . S
O681 Co650 2.037 1_565 S
O681 C701 1.234 . S
C682 O656 1.269 . S
C682 O657 1.257 . S
C683 H658 0.930 . S
C683 C686 1.388 . S
C683 C688 1.418 . S
C684 H679 0.930 . S
C684 C687 1.404 . S
C684 C688 1.353 . S
N685 Co650 2.145 1_565 S
N685 C686 1.397 . S
N685 C687 1.334 . S
C686 H667 0.929 . S
C686 C683 1.388 . S
C686 N685 1.397 . S
C687 H668 0.929 . S
C687 C684 1.404 . S
C687 N685 1.334 . S
C688 H680 0.930 . S
C688 C683 1.418 . S
C688 C684 1.353 . S
C689 H659 0.930 . S
C689 N690 1.330 . S
C689 C691 1.446 . S
N690 Co649 2.151 . S
N690 C689 1.330 . S
N690 C694 1.418 . S
C691 H670 0.929 . S
C691 C689 1.446 . S
C691 C692 1.332 . S
C692 H672 0.931 . S
C692 C691 1.332 . S
C692 C693 1.267 . S
C693 H661 0.929 . S
C693 C692 1.267 . S
C693 C694 1.251 . S
C694 H664 0.929 . S
C694 N690 1.418 . S
C694 C693 1.251 . S
C695 H662 0.930 . S
C695 C697 1.406 . S
C695 C700 1.261 . S
C696 H663 0.930 . S
C696 N698 1.325 . S
C696 C699 1.357 . S
C697 H665 0.928 . S
C697 C695 1.406 . S
C697 N698 1.261 . S
N698 Co649 2.214 . S
N698 C696 1.325 . S
N698 C697 1.261 . S
C699 H669 0.931 . S
C699 C696 1.357 . S
C699 C700 1.312 . S
C700 H671 0.930 . S
C700 C695 1.261 . S
C700 C699 1.312 . S
C701 O673 1.237 . S
C701 O681 1.234 . S
C702 H674 0.929 . S
C702 C705 1.391 . S
C702 C707 1.391 . S
C703 H675 0.929 . S
C703 C704 1.390 . S
C703 N706 1.391 . S
C704 H676 0.930 . S
C704 C703 1.390 . S
C704 C705 1.392 . S
C705 H677 0.929 . S
C705 C702 1.391 . S
C705 C704 1.392 . S
N706 Co650 2.257 1_565 S
N706 C703 1.391 . S
N706 C707 1.388 . S
C707 H678 0.930 . S
C707 C702 1.391 . S
C707 N706 1.388 . S
H708 C726 0.951 . S
H709 C728 0.951 . S
H710 C730 0.950 . S
H711 C731 0.950 . S
H712 C733 0.950 . S
H713 C736 0.950 . S
H714 C737 0.950 . S
H715 C739 0.950 . S
H716 C740 0.950 . S
H717 C741 0.951 . S
H718 C743 0.951 . S
H719 C745 0.950 . S
H720 C746 0.950 . S
H721 C748 0.950 . S
H722 C751 0.950 . S
H723 C752 0.950 . S
H724 C754 0.950 . S
H725 C755 0.950 . S
C726 H708 0.951 . S
C726 C727 1.366 . S
C726 C728 1.388 . S
C727 C726 1.366 . S
C727 C731 1.385 . S
C728 H709 0.951 . S
C728 C726 1.388 . S
C728 C729 1.366 . S
C729 C728 1.366 . S
C729 C730 1.414 . S
C729 C732 1.499 . S
C730 H710 0.950 . S
C730 C729 1.414 . S
C730 C731 1.374 . S
C731 H711 0.950 . S
C731 C727 1.385 . S
C731 C730 1.374 . S
C732 C729 1.499 . S
C732 C733 1.373 . S
C732 C734 1.389 . S
C733 H712 0.950 . S
C733 C732 1.373 . S
C733 C749 1.377 1_655 S
C734 C732 1.389 . S
C734 C735 1.524 . S
C734 C748 1.377 1_655 S
C735 C734 1.524 . S
C735 C736 1.397 . S
C735 C740 1.363 . S
C736 H713 0.950 . S
C736 C735 1.397 . S
C736 C737 1.334 . S
C737 H714 0.950 . S
C737 C736 1.334 . S
C737 C738 1.287 . S
C738 C737 1.287 . S
C738 C739 1.524 . S
C738 H757 0.913 . S
C739 H715 0.950 . S
C739 C738 1.524 . S
C739 C740 1.415 . S
C740 H716 0.950 . S
C740 C735 1.363 . S
C740 C739 1.415 . S
C741 H717 0.951 . S
C741 C742 1.366 . S
C741 C743 1.388 . S
C742 C741 1.366 . S
C742 C746 1.385 . S
C743 H718 0.951 . S
C743 C741 1.388 . S
C743 C744 1.366 . S
C744 C743 1.366 . S
C744 C745 1.414 . S
C744 C747 1.499 . S
C745 H719 0.950 . S
C745 C744 1.414 . S
C745 C746 1.374 . S
C746 H720 0.950 . S
C746 C742 1.385 . S
C746 C745 1.374 . S
C747 C744 1.499 . S
C747 C748 1.373 . S
C747 C749 1.389 . S
C748 H721 0.950 . S
C748 C734 1.377 1_455 S
C748 C747 1.373 . S
C749 C733 1.377 1_455 S
C749 C747 1.389 . S
C749 C750 1.524 . S
C750 C749 1.524 . S
C750 C751 1.397 . S
C750 C755 1.363 . S
C751 H722 0.950 . S
C751 C750 1.397 . S
C751 C752 1.334 . S
C752 H723 0.950 . S
C752 C751 1.334 . S
C752 C753 1.287 . S
C753 C752 1.287 . S
C753 C754 1.524 . S
C753 H756 0.999 . S
C754 H724 0.950 . S
C754 C753 1.524 . S
C754 C755 1.415 . S
C755 H725 0.950 . S
C755 C750 1.363 . S
C755 C754 1.415 . S
H756 C753 0.999 . S
H757 C738 0.913 . S
H758 C776 0.951 . S
H759 C778 0.951 . S
H760 C780 0.950 . S
H761 C781 0.950 . S
H762 C783 0.950 . S
H763 C786 0.950 . S
H764 C787 0.950 . S
H765 C789 0.950 . S
H766 C790 0.950 . S
H767 C791 0.951 . S
H768 C793 0.951 . S
H769 C795 0.950 . S
H770 C796 0.950 . S
H771 C798 0.950 . S
H772 C801 0.950 . S
H773 C802 0.950 . S
H774 C804 0.950 . S
H775 C805 0.950 . S
C776 H758 0.951 . S
C776 C777 1.366 . S
C776 C778 1.388 . S
C777 C776 1.366 . S
C777 C781 1.385 . S
C778 H759 0.951 . S
C778 C776 1.388 . S
C778 C779 1.366 . S
C779 C778 1.366 . S
C779 C780 1.414 . S
C779 C782 1.499 . S
C780 H760 0.950 . S
C780 C779 1.414 . S
C780 C781 1.374 . S
C781 H761 0.950 . S
C781 C777 1.385 . S
C781 C780 1.374 . S
C782 C779 1.499 . S
C782 C783 1.373 . S
C782 C784 1.389 . S
C783 H762 0.950 . S
C783 C782 1.373 . S
C783 C799 1.377 1_545 S
C784 C782 1.389 . S
C784 C785 1.524 . S
C784 C798 1.377 1_545 S
C785 C784 1.524 . S
C785 C786 1.397 . S
C785 C790 1.363 . S
C786 H763 0.950 . S
C786 C785 1.397 . S
C786 C787 1.334 . S
C787 H764 0.950 . S
C787 C786 1.334 . S
C787 C788 1.287 . S
C788 C787 1.287 . S
C788 C789 1.524 . S
C788 H807 0.913 . S
C789 H765 0.950 . S
C789 C788 1.524 . S
C789 C790 1.415 . S
C790 H766 0.950 . S
C790 C785 1.363 . S
C790 C789 1.415 . S
C791 H767 0.951 . S
C791 C792 1.366 . S
C791 C793 1.388 . S
C792 C791 1.366 . S
C792 C796 1.385 . S
C793 H768 0.951 . S
C793 C791 1.388 . S
C793 C794 1.366 . S
C794 C793 1.366 . S
C794 C795 1.414 . S
C794 C797 1.499 . S
C795 H769 0.950 . S
C795 C794 1.414 . S
C795 C796 1.374 . S
C796 H770 0.950 . S
C796 C792 1.385 . S
C796 C795 1.374 . S
C797 C794 1.499 . S
C797 C798 1.373 . S
C797 C799 1.389 . S
C798 H771 0.950 . S
C798 C784 1.377 1_565 S
C798 C797 1.373 . S
C799 C783 1.377 1_565 S
C799 C797 1.389 . S
C799 C800 1.524 . S
C800 C799 1.524 . S
C800 C801 1.397 . S
C800 C805 1.363 . S
C801 H772 0.950 . S
C801 C800 1.397 . S
C801 C802 1.334 . S
C802 H773 0.950 . S
C802 C801 1.334 . S
C802 C803 1.287 . S
C803 C802 1.287 . S
C803 C804 1.524 . S
C803 H806 0.999 . S
C804 H774 0.950 . S
C804 C803 1.524 . S
C804 C805 1.415 . S
C805 H775 0.950 . S
C805 C800 1.363 . S
C805 C804 1.415 . S
H806 C803 0.999 . S
H807 C788 0.913 . S
H808 C826 0.951 . S
H809 C828 0.951 . S
H810 C830 0.950 . S
H811 C831 0.950 . S
H812 C833 0.950 . S
H813 C836 0.950 . S
H814 C837 0.950 . S
H815 C839 0.950 . S
H816 C840 0.950 . S
H817 C841 0.951 . S
H818 C843 0.951 . S
H819 C845 0.950 . S
H820 C846 0.950 . S
H821 C848 0.950 . S
H822 C851 0.950 . S
H823 C852 0.950 . S
H824 C854 0.950 . S
H825 C855 0.950 . S
C826 H808 0.951 . S
C826 C827 1.366 . S
C826 C828 1.388 . S
C827 C826 1.366 . S
C827 C831 1.385 . S
C828 H809 0.951 . S
C828 C826 1.388 . S
C828 C829 1.366 . S
C829 C828 1.366 . S
C829 C830 1.414 . S
C829 C832 1.499 . S
C830 H810 0.950 . S
C830 C829 1.414 . S
C830 C831 1.374 . S
C831 H811 0.950 . S
C831 C827 1.385 . S
C831 C830 1.374 . S
C832 C829 1.499 . S
C832 C833 1.373 . S
C832 C834 1.389 . S
C833 H812 0.950 . S
C833 C832 1.373 . S
C833 C849 1.377 . S
C834 C832 1.389 . S
C834 C835 1.524 . S
C834 C848 1.377 . S
C835 C834 1.524 . S
C835 C836 1.397 . S
C835 C840 1.363 . S
C836 H813 0.950 . S
C836 C835 1.397 . S
C836 C837 1.334 . S
C837 H814 0.950 . S
C837 C836 1.334 . S
C837 C838 1.287 . S
C838 C837 1.287 . S
C838 C839 1.524 . S
C838 H857 0.913 . S
C839 H815 0.950 . S
C839 C838 1.524 . S
C839 C840 1.415 . S
C840 H816 0.950 . S
C840 C835 1.363 . S
C840 C839 1.415 . S
C841 H817 0.951 . S
C841 C842 1.366 . S
C841 C843 1.388 . S
C842 C841 1.366 . S
C842 C846 1.385 . S
C843 H818 0.951 . S
C843 C841 1.388 . S
C843 C844 1.366 . S
C844 C843 1.366 . S
C844 C845 1.414 . S
C844 C847 1.499 . S
C845 H819 0.950 . S
C845 C844 1.414 . S
C845 C846 1.374 . S
C846 H820 0.950 . S
C846 C842 1.385 . S
C846 C845 1.374 . S
C847 C844 1.499 . S
C847 C848 1.373 . S
C847 C849 1.389 . S
C848 H821 0.950 . S
C848 C834 1.377 . S
C848 C847 1.373 . S
C849 C833 1.377 . S
C849 C847 1.389 . S
C849 C850 1.524 . S
C850 C849 1.524 . S
C850 C851 1.397 . S
C850 C855 1.363 . S
C851 H822 0.950 . S
C851 C850 1.397 . S
C851 C852 1.334 . S
C852 H823 0.950 . S
C852 C851 1.334 . S
C852 C853 1.287 . S
C853 C852 1.287 . S
C853 C854 1.524 . S
C853 H856 0.999 . S
C854 H824 0.950 . S
C854 C853 1.524 . S
C854 C855 1.415 . S
C855 H825 0.950 . S
C855 C850 1.363 . S
C855 C854 1.415 . S
H856 C853 0.999 . S
H857 C838 0.913 . S
H858 C876 0.951 . S
H859 C878 0.951 . S
H860 C880 0.950 . S
H861 C881 0.950 . S
H862 C883 0.950 . S
H863 C886 0.950 . S
H864 C887 0.950 . S
H865 C889 0.950 . S
H866 C890 0.950 . S
H867 C891 0.951 . S
H868 C893 0.951 . S
H869 C895 0.950 . S
H870 C896 0.950 . S
H871 C898 0.950 . S
H872 C901 0.950 . S
H873 C902 0.950 . S
H874 C904 0.950 . S
H875 C905 0.950 . S
C876 H858 0.951 . S
C876 C877 1.366 . S
C876 C878 1.388 . S
C877 C876 1.366 . S
C877 C881 1.385 . S
C878 H859 0.951 . S
C878 C876 1.388 . S
C878 C879 1.366 . S
C879 C878 1.366 . S
C879 C880 1.414 . S
C879 C882 1.499 . S
C880 H860 0.950 . S
C880 C879 1.414 . S
C880 C881 1.374 . S
C881 H861 0.950 . S
C881 C877 1.385 . S
C881 C880 1.374 . S
C882 C879 1.499 . S
C882 C883 1.373 . S
C882 C884 1.389 1_655 S
C883 H862 0.950 . S
C883 C882 1.373 . S
C883 C899 1.377 . S
C884 C882 1.389 1_455 S
C884 C885 1.524 . S
C884 C898 1.377 . S
C885 C884 1.524 . S
C885 C886 1.397 1_455 S
C885 C890 1.363 . S
C886 H863 0.950 . S
C886 C885 1.397 1_655 S
C886 C887 1.334 . S
C887 H864 0.950 . S
C887 C886 1.334 . S
C887 C888 1.287 1_655 S
C888 C887 1.287 1_455 S
C888 C889 1.524 . S
C888 H907 0.913 . S
C889 H865 0.950 . S
C889 C888 1.524 . S
C889 C890 1.415 . S
C890 H866 0.950 . S
C890 C885 1.363 . S
C890 C889 1.415 . S
C891 H867 0.951 . S
C891 C892 1.366 . S
C891 C893 1.388 . S
C892 C891 1.366 . S
C892 C896 1.385 . S
C893 H868 0.951 . S
C893 C891 1.388 . S
C893 C894 1.366 . S
C894 C893 1.366 . S
C894 C895 1.414 . S
C894 C897 1.499 . S
C895 H869 0.950 . S
C895 C894 1.414 . S
C895 C896 1.374 . S
C896 H870 0.950 . S
C896 C892 1.385 . S
C896 C895 1.374 . S
C897 C894 1.499 . S
C897 C898 1.373 . S
C897 C899 1.389 1_455 S
C898 H871 0.950 . S
C898 C884 1.377 . S
C898 C897 1.373 . S
C899 C883 1.377 . S
C899 C897 1.389 1_655 S
C899 C900 1.524 . S
C900 C899 1.524 . S
C900 C901 1.397 1_655 S
C900 C905 1.363 . S
C901 H872 0.950 . S
C901 C900 1.397 1_455 S
C901 C902 1.334 . S
C902 H873 0.950 . S
C902 C901 1.334 . S
C902 C903 1.287 1_455 S
C903 C902 1.287 1_655 S
C903 C904 1.524 . S
C903 H906 0.999 . S
C904 H874 0.950 . S
C904 C903 1.524 . S
C904 C905 1.415 . S
C905 H875 0.950 . S
C905 C900 1.363 . S
C905 C904 1.415 . S
H906 C903 0.999 . S
H907 C888 0.913 . S
H908 C926 0.951 . S
H909 C928 0.951 . S
H910 C930 0.950 . S
H911 C931 0.950 . S
H912 C933 0.950 . S
H913 C936 0.950 . S
H914 C937 0.950 . S
H915 C939 0.950 . S
H916 C940 0.950 . S
H917 C941 0.951 . S
H918 C943 0.951 . S
H919 C945 0.950 . S
H920 C946 0.950 . S
H921 C948 0.950 . S
H922 C951 0.950 . S
H923 C952 0.950 . S
H924 C954 0.950 . S
H925 C955 0.950 . S
C926 H908 0.951 . S
C926 C927 1.366 . S
C926 C928 1.388 . S
C927 C926 1.366 . S
C927 C931 1.385 . S
C928 H909 0.951 . S
C928 C926 1.388 . S
C928 C929 1.366 . S
C929 C928 1.366 . S
C929 C930 1.414 . S
C929 C932 1.499 . S
C930 H910 0.950 . S
C930 C929 1.414 . S
C930 C931 1.374 . S
C931 H911 0.950 . S
C931 C927 1.385 . S
C931 C930 1.374 . S
C932 C929 1.499 . S
C932 C933 1.373 . S
C932 C934 1.389 . S
C933 H912 0.950 . S
C933 C932 1.373 . S
C933 C949 1.377 1_545 S
C934 C932 1.389 . S
C934 C935 1.524 . S
C934 C948 1.377 1_545 S
C935 C934 1.524 . S
C935 C936 1.397 . S
C935 C940 1.363 1_545 S
C936 H913 0.950 . S
C936 C935 1.397 . S
C936 C937 1.334 . S
C937 H914 0.950 . S
C937 C936 1.334 . S
C937 C938 1.287 . S
C938 C937 1.287 . S
C938 C939 1.524 1_545 S
C938 H957 0.913 . S
C939 H915 0.950 . S
C939 C938 1.524 1_565 S
C939 C940 1.415 . S
C940 H916 0.950 . S
C940 C935 1.363 1_565 S
C940 C939 1.415 . S
C941 H917 0.951 . S
C941 C942 1.366 . S
C941 C943 1.388 . S
C942 C941 1.366 . S
C942 C946 1.385 . S
C943 H918 0.951 . S
C943 C941 1.388 . S
C943 C944 1.366 . S
C944 C943 1.366 . S
C944 C945 1.414 . S
C944 C947 1.499 . S
C945 H919 0.950 . S
C945 C944 1.414 . S
C945 C946 1.374 . S
C946 H920 0.950 . S
C946 C942 1.385 . S
C946 C945 1.374 . S
C947 C944 1.499 . S
C947 C948 1.373 . S
C947 C949 1.389 . S
C948 H921 0.950 . S
C948 C934 1.377 1_565 S
C948 C947 1.373 . S
C949 C933 1.377 1_565 S
C949 C947 1.389 . S
C949 C950 1.524 . S
C950 C949 1.524 . S
C950 C951 1.397 . S
C950 C955 1.363 1_565 S
C951 H922 0.950 . S
C951 C950 1.397 . S
C951 C952 1.334 . S
C952 H923 0.950 . S
C952 C951 1.334 . S
C952 C953 1.287 . S
C953 C952 1.287 . S
C953 C954 1.524 1_565 S
C953 H956 0.999 . S
C954 H924 0.950 . S
C954 C953 1.524 1_545 S
C954 C955 1.415 . S
C955 H925 0.950 . S
C955 C950 1.363 1_545 S
C955 C954 1.415 . S
H956 C953 0.999 . S
H957 C938 0.913 . S
H958 C976 0.951 . S
H959 C978 0.951 . S
H960 C980 0.950 . S
H961 C981 0.950 . S
H962 C983 0.950 . S
H963 C986 0.950 . S
H964 C987 0.950 . S
H965 C989 0.950 . S
H966 C990 0.950 . S
H967 C991 0.951 . S
H968 C993 0.951 . S
H969 C995 0.950 . S
H970 C996 0.950 . S
H971 C998 0.950 . S
H972 C1001 0.950 . S
H973 C1002 0.950 . S
H974 C1004 0.950 . S
H975 C1005 0.950 . S
C976 H958 0.951 . S
C976 C977 1.366 . S
C976 C978 1.388 . S
C977 C976 1.366 . S
C977 C981 1.385 . S
C978 H959 0.951 . S
C978 C976 1.388 . S
C978 C979 1.366 . S
C979 C978 1.366 . S
C979 C980 1.414 . S
C979 C982 1.499 . S
C980 H960 0.950 . S
C980 C979 1.414 . S
C980 C981 1.374 . S
C981 H961 0.950 . S
C981 C977 1.385 . S
C981 C980 1.374 . S
C982 C979 1.499 . S
C982 C983 1.373 . S
C982 C984 1.389 . S
C983 H962 0.950 . S
C983 C982 1.373 . S
C983 C999 1.377 . S
C984 C982 1.389 . S
C984 C985 1.524 . S
C984 C998 1.377 . S
C985 C984 1.524 . S
C985 C986 1.397 . S
C985 C990 1.363 . S
C986 H963 0.950 . S
C986 C985 1.397 . S
C986 C987 1.334 . S
C987 H964 0.950 . S
C987 C986 1.334 . S
C987 C988 1.287 . S
C988 C987 1.287 . S
C988 C989 1.524 . S
C988 H1007 0.913 . S
C989 H965 0.950 . S
C989 C988 1.524 . S
C989 C990 1.415 . S
C990 H966 0.950 . S
C990 C985 1.363 . S
C990 C989 1.415 . S
C991 H967 0.951 . S
C991 C992 1.366 . S
C991 C993 1.388 . S
C992 C991 1.366 . S
C992 C996 1.385 . S
C993 H968 0.951 . S
C993 C991 1.388 . S
C993 C994 1.366 . S
C994 C993 1.366 . S
C994 C995 1.414 . S
C994 C997 1.499 . S
C995 H969 0.950 . S
C995 C994 1.414 . S
C995 C996 1.374 . S
C996 H970 0.950 . S
C996 C992 1.385 . S
C996 C995 1.374 . S
C997 C994 1.499 . S
C997 C998 1.373 . S
C997 C999 1.389 . S
C998 H971 0.950 . S
C998 C984 1.377 . S
C998 C997 1.373 . S
C999 C983 1.377 . S
C999 C997 1.389 . S
C999 C1000 1.524 . S
C1000 C999 1.524 . S
C1000 C1001 1.397 . S
C1000 C1005 1.363 . S
C1001 H972 0.950 . S
C1001 C1000 1.397 . S
C1001 C1002 1.334 . S
C1002 H973 0.950 . S
C1002 C1001 1.334 . S
C1002 C1003 1.287 . S
C1003 C1002 1.287 . S
C1003 C1004 1.524 . S
C1003 H1006 0.999 1_455 S
C1004 H974 0.950 . S
C1004 C1003 1.524 . S
C1004 C1005 1.415 . S
C1005 H975 0.950 . S
C1005 C1000 1.363 . S
C1005 C1004 1.415 . S
H1006 C1003 0.999 1_655 S
H1007 C988 0.913 . S
H1008 C1026 0.951 . S
H1009 C1028 0.951 . S
H1010 C1030 0.950 . S
H1011 C1031 0.950 . S
H1012 C1033 0.950 . S
H1013 C1036 0.950 . S
H1014 C1037 0.950 . S
H1015 C1039 0.950 . S
H1016 C1040 0.950 . S
H1017 C1041 0.951 . S
H1018 C1043 0.951 . S
H1019 C1045 0.950 . S
H1020 C1046 0.950 . S
H1021 C1048 0.950 . S
H1022 C1051 0.950 . S
H1023 C1052 0.950 . S
H1024 C1054 0.950 . S
H1025 C1055 0.950 . S
C1026 H1008 0.951 . S
C1026 C1027 1.366 . S
C1026 C1028 1.388 . S
C1027 C1026 1.366 . S
C1027 C1031 1.385 . S
C1028 H1009 0.951 . S
C1028 C1026 1.388 . S
C1028 C1029 1.366 . S
C1029 C1028 1.366 . S
C1029 C1030 1.414 . S
C1029 C1032 1.499 . S
C1030 H1010 0.950 . S
C1030 C1029 1.414 . S
C1030 C1031 1.374 . S
C1031 H1011 0.950 . S
C1031 C1027 1.385 . S
C1031 C1030 1.374 . S
C1032 C1029 1.499 . S
C1032 C1033 1.373 . S
C1032 C1034 1.389 . S
C1033 H1012 0.950 . S
C1033 C1032 1.373 . S
C1033 C1049 1.377 . S
C1034 C1032 1.389 . S
C1034 C1035 1.524 . S
C1034 C1048 1.377 . S
C1035 C1034 1.524 . S
C1035 C1036 1.397 . S
C1035 C1040 1.363 . S
C1036 H1013 0.950 . S
C1036 C1035 1.397 . S
C1036 C1037 1.334 . S
C1037 H1014 0.950 . S
C1037 C1036 1.334 . S
C1037 C1038 1.287 . S
C1038 C1037 1.287 . S
C1038 C1039 1.524 . S
C1038 H1057 0.913 . S
C1039 H1015 0.950 . S
C1039 C1038 1.524 . S
C1039 C1040 1.415 . S
C1040 H1016 0.950 . S
C1040 C1035 1.363 . S
C1040 C1039 1.415 . S
C1041 H1017 0.951 . S
C1041 C1042 1.366 . S
C1041 C1043 1.388 . S
C1042 C1041 1.366 . S
C1042 C1046 1.385 . S
C1043 H1018 0.951 . S
C1043 C1041 1.388 . S
C1043 C1044 1.366 . S
C1044 C1043 1.366 . S
C1044 C1045 1.414 . S
C1044 C1047 1.499 . S
C1045 H1019 0.950 . S
C1045 C1044 1.414 . S
C1045 C1046 1.374 . S
C1046 H1020 0.950 . S
C1046 C1042 1.385 . S
C1046 C1045 1.374 . S
C1047 C1044 1.499 . S
C1047 C1048 1.373 . S
C1047 C1049 1.389 . S
C1048 H1021 0.950 . S
C1048 C1034 1.377 . S
C1048 C1047 1.373 . S
C1049 C1033 1.377 . S
C1049 C1047 1.389 . S
C1049 C1050 1.524 . S
C1050 C1049 1.524 . S
C1050 C1051 1.397 . S
C1050 C1055 1.363 . S
C1051 H1022 0.950 . S
C1051 C1050 1.397 . S
C1051 C1052 1.334 . S
C1052 H1023 0.950 . S
C1052 C1051 1.334 . S
C1052 C1053 1.287 . S
C1053 C1052 1.287 . S
C1053 C1054 1.524 . S
C1053 H1056 0.999 . S
C1054 H1024 0.950 . S
C1054 C1053 1.524 . S
C1054 C1055 1.415 . S
C1055 H1025 0.950 . S
C1055 C1050 1.363 . S
C1055 C1054 1.415 . S
H1056 C1053 0.999 . S
H1057 C1038 0.913 . S
H1058 C1076 0.951 . S
H1059 C1078 0.951 . S
H1060 C1080 0.950 . S
H1061 C1081 0.950 . S
H1062 C1083 0.950 . S
H1063 C1086 0.950 . S
H1064 C1087 0.950 . S
H1065 C1089 0.950 . S
H1066 C1090 0.950 . S
H1067 C1091 0.951 . S
H1068 C1093 0.951 . S
H1069 C1095 0.950 . S
H1070 C1096 0.950 . S
H1071 C1098 0.950 . S
H1072 C1101 0.950 . S
H1073 C1102 0.950 . S
H1074 C1104 0.950 . S
H1075 C1105 0.950 . S
C1076 H1058 0.951 . S
C1076 C1077 1.366 . S
C1076 C1078 1.388 . S
C1077 C1076 1.366 . S
C1077 C1081 1.385 1_455 S
C1078 H1059 0.951 . S
C1078 C1076 1.388 . S
C1078 C1079 1.366 . S
C1079 C1078 1.366 . S
C1079 C1080 1.414 1_455 S
C1079 C1082 1.499 . S
C1080 H1060 0.950 . S
C1080 C1079 1.414 1_655 S
C1080 C1081 1.374 . S
C1081 H1061 0.950 . S
C1081 C1077 1.385 1_655 S
C1081 C1080 1.374 . S
C1082 C1079 1.499 . S
C1082 C1083 1.373 1_455 S
C1082 C1084 1.389 . S
C1083 H1062 0.950 . S
C1083 C1082 1.373 1_655 S
C1083 C1099 1.377 . S
C1084 C1082 1.389 . S
C1084 C1085 1.524 . S
C1084 C1098 1.377 . S
C1085 C1084 1.524 . S
C1085 C1086 1.397 . S
C1085 C1090 1.363 . S
C1086 H1063 0.950 . S
C1086 C1085 1.397 . S
C1086 C1087 1.334 . S
C1087 H1064 0.950 . S
C1087 C1086 1.334 . S
C1087 C1088 1.287 . S
C1088 C1087 1.287 . S
C1088 C1089 1.524 . S
C1088 H1107 0.913 . S
C1089 H1065 0.950 . S
C1089 C1088 1.524 . S
C1089 C1090 1.415 . S
C1090 H1066 0.950 . S
C1090 C1085 1.363 . S
C1090 C1089 1.415 . S
C1091 H1067 0.951 . S
C1091 C1092 1.366 . S
C1091 C1093 1.388 . S
C1092 C1091 1.366 . S
C1092 C1096 1.385 1_655 S
C1093 H1068 0.951 . S
C1093 C1091 1.388 . S
C1093 C1094 1.366 . S
C1094 C1093 1.366 . S
C1094 C1095 1.414 1_655 S
C1094 C1097 1.499 . S
C1095 H1069 0.950 . S
C1095 C1094 1.414 1_455 S
C1095 C1096 1.374 . S
C1096 H1070 0.950 . S
C1096 C1092 1.385 1_455 S
C1096 C1095 1.374 . S
C1097 C1094 1.499 . S
C1097 C1098 1.373 1_655 S
C1097 C1099 1.389 . S
C1098 H1071 0.950 . S
C1098 C1084 1.377 . S
C1098 C1097 1.373 1_455 S
C1099 C1083 1.377 . S
C1099 C1097 1.389 . S
C1099 C1100 1.524 . S
C1100 C1099 1.524 . S
C1100 C1101 1.397 . S
C1100 C1105 1.363 . S
C1101 H1072 0.950 . S
C1101 C1100 1.397 . S
C1101 C1102 1.334 . S
C1102 H1073 0.950 . S
C1102 C1101 1.334 . S
C1102 C1103 1.287 . S
C1103 C1102 1.287 . S
C1103 C1104 1.524 . S
C1103 H1106 0.999 . S
C1104 H1074 0.950 . S
C1104 C1103 1.524 . S
C1104 C1105 1.415 . S
C1105 H1075 0.950 . S
C1105 C1100 1.363 . S
C1105 C1104 1.415 . S
H1106 C1103 0.999 . S
H1107 C1088 0.913 . S
H1108 C1126 0.951 . S
H1109 C1128 0.951 . S
H1110 C1130 0.950 . S
H1111 C1131 0.950 . S
H1112 C1133 0.950 . S
H1113 C1136 0.950 . S
H1114 C1137 0.950 . S
H1115 C1139 0.950 . S
H1116 C1140 0.950 . S
H1117 C1141 0.951 . S
H1118 C1143 0.951 . S
H1119 C1145 0.950 . S
H1120 C1146 0.950 . S
H1121 C1148 0.950 . S
H1122 C1151 0.950 . S
H1123 C1152 0.950 . S
H1124 C1154 0.950 . S
H1125 C1155 0.950 . S
C1126 H1108 0.951 . S
C1126 C1127 1.366 1_565 S
C1126 C1128 1.388 . S
C1127 C1126 1.366 1_545 S
C1127 C1131 1.385 . S
C1128 H1109 0.951 . S
C1128 C1126 1.388 . S
C1128 C1129 1.366 1_565 S
C1129 C1128 1.366 1_545 S
C1129 C1130 1.414 . S
C1129 C1132 1.499 . S
C1130 H1110 0.950 . S
C1130 C1129 1.414 . S
C1130 C1131 1.374 . S
C1131 H1111 0.950 . S
C1131 C1127 1.385 . S
C1131 C1130 1.374 . S
C1132 C1129 1.499 . S
C1132 C1133 1.373 . S
C1132 C1134 1.389 1_545 S
C1133 H1112 0.950 . S
C1133 C1132 1.373 . S
C1133 C1149 1.377 . S
C1134 C1132 1.389 1_565 S
C1134 C1135 1.524 . S
C1134 C1148 1.377 . S
C1135 C1134 1.524 . S
C1135 C1136 1.397 . S
C1135 C1140 1.363 . S
C1136 H1113 0.950 . S
C1136 C1135 1.397 . S
C1136 C1137 1.334 . S
C1137 H1114 0.950 . S
C1137 C1136 1.334 . S
C1137 C1138 1.287 . S
C1138 C1137 1.287 . S
C1138 C1139 1.524 . S
C1138 H1157 0.913 . S
C1139 H1115 0.950 . S
C1139 C1138 1.524 . S
C1139 C1140 1.415 . S
C1140 H1116 0.950 . S
C1140 C1135 1.363 . S
C1140 C1139 1.415 . S
C1141 H1117 0.951 . S
C1141 C1142 1.366 1_545 S
C1141 C1143 1.388 . S
C1142 C1141 1.366 1_565 S
C1142 C1146 1.385 . S
C1143 H1118 0.951 . S
C1143 C1141 1.388 . S
C1143 C1144 1.366 1_545 S
C1144 C1143 1.366 1_565 S
C1144 C1145 1.414 . S
C1144 C1147 1.499 . S
C1145 H1119 0.950 . S
C1145 C1144 1.414 . S
C1145 C1146 1.374 . S
C1146 H1120 0.950 . S
C1146 C1142 1.385 . S
C1146 C1145 1.374 . S
C1147 C1144 1.499 . S
C1147 C1148 1.373 . S
C1147 C1149 1.389 1_565 S
C1148 H1121 0.950 . S
C1148 C1134 1.377 . S
C1148 C1147 1.373 . S
C1149 C1133 1.377 . S
C1149 C1147 1.389 1_545 S
C1149 C1150 1.524 . S
C1150 C1149 1.524 . S
C1150 C1151 1.397 . S
C1150 C1155 1.363 . S
C1151 H1122 0.950 . S
C1151 C1150 1.397 . S
C1151 C1152 1.334 . S
C1152 H1123 0.950 . S
C1152 C1151 1.334 . S
C1152 C1153 1.287 . S
C1153 C1152 1.287 . S
C1153 C1154 1.524 . S
C1153 H1156 0.999 . S
C1154 H1124 0.950 . S
C1154 C1153 1.524 . S
C1154 C1155 1.415 . S
C1155 H1125 0.950 . S
C1155 C1150 1.363 . S
C1155 C1154 1.415 . S
H1156 C1153 0.999 . S
H1157 C1138 0.913 . S
H1158 C1176 0.951 . S
H1159 C1178 0.951 . S
H1160 C1180 0.950 . S
H1161 C1181 0.950 . S
H1162 C1183 0.950 . S
H1163 C1186 0.950 . S
H1164 C1187 0.950 . S
H1165 C1189 0.950 . S
H1166 C1190 0.950 . S
H1167 C1191 0.951 . S
H1168 C1193 0.951 . S
H1169 C1195 0.950 . S
H1170 C1196 0.950 . S
H1171 C1198 0.950 . S
H1172 C1201 0.950 . S
H1173 C1202 0.950 . S
H1174 C1204 0.950 . S
H1175 C1205 0.950 . S
C1176 H1158 0.951 . S
C1176 C1177 1.366 . S
C1176 C1178 1.388 . S
C1177 C1176 1.366 . S
C1177 C1181 1.385 . S
C1178 H1159 0.951 . S
C1178 C1176 1.388 . S
C1178 C1179 1.366 . S
C1179 C1178 1.366 . S
C1179 C1180 1.414 . S
C1179 C1182 1.499 . S
C1180 H1160 0.950 . S
C1180 C1179 1.414 . S
C1180 C1181 1.374 . S
C1181 H1161 0.950 . S
C1181 C1177 1.385 . S
C1181 C1180 1.374 . S
C1182 C1179 1.499 . S
C1182 C1183 1.373 . S
C1182 C1184 1.389 . S
C1183 H1162 0.950 . S
C1183 C1182 1.373 . S
C1183 C1199 1.377 . S
C1184 C1182 1.389 . S
C1184 C1185 1.524 . S
C1184 C1198 1.377 . S
C1185 C1184 1.524 . S
C1185 C1186 1.397 . S
C1185 C1190 1.363 . S
C1186 H1163 0.950 . S
C1186 C1185 1.397 . S
C1186 C1187 1.334 . S
C1187 H1164 0.950 . S
C1187 C1186 1.334 . S
C1187 C1188 1.287 . S
C1188 C1187 1.287 . S
C1188 C1189 1.524 . S
C1188 H1207 0.913 . S
C1189 H1165 0.950 . S
C1189 C1188 1.524 . S
C1189 C1190 1.415 . S
C1190 H1166 0.950 . S
C1190 C1185 1.363 . S
C1190 C1189 1.415 . S
C1191 H1167 0.951 . S
C1191 C1192 1.366 . S
C1191 C1193 1.388 . S
C1192 C1191 1.366 . S
C1192 C1196 1.385 . S
C1193 H1168 0.951 . S
C1193 C1191 1.388 . S
C1193 C1194 1.366 . S
C1194 C1193 1.366 . S
C1194 C1195 1.414 . S
C1194 C1197 1.499 . S
C1195 H1169 0.950 . S
C1195 C1194 1.414 . S
C1195 C1196 1.374 . S
C1196 H1170 0.950 . S
C1196 C1192 1.385 . S
C1196 C1195 1.374 . S
C1197 C1194 1.499 . S
C1197 C1198 1.373 . S
C1197 C1199 1.389 . S
C1198 H1171 0.950 . S
C1198 C1184 1.377 . S
C1198 C1197 1.373 . S
C1199 C1183 1.377 . S
C1199 C1197 1.389 . S
C1199 C1200 1.524 . S
C1200 C1199 1.524 . S
C1200 C1201 1.397 . S
C1200 C1205 1.363 . S
C1201 H1172 0.950 . S
C1201 C1200 1.397 . S
C1201 C1202 1.334 . S
C1202 H1173 0.950 . S
C1202 C1201 1.334 . S
C1202 C1203 1.287 . S
C1203 C1202 1.287 . S
C1203 C1204 1.524 . S
C1203 H1206 0.999 . S
C1204 H1174 0.950 . S
C1204 C1203 1.524 . S
C1204 C1205 1.415 . S
C1205 H1175 0.950 . S
C1205 C1200 1.363 . S
C1205 C1204 1.415 . S
H1206 C1203 0.999 . S
H1207 C1188 0.913 . S
H1208 C1226 0.951 . S
H1209 C1228 0.951 . S
H1210 C1230 0.950 . S
H1211 C1231 0.950 . S
H1212 C1233 0.950 . S
H1213 C1236 0.951 . S
H1214 C1237 0.950 . S
H1215 C1239 0.950 . S
H1216 C1240 0.950 . S
H1217 C1241 0.951 . S
H1218 C1243 0.951 . S
H1219 C1245 0.950 . S
H1220 C1246 0.950 . S
H1221 C1248 0.950 . S
H1222 C1251 0.952 . S
H1223 C1252 0.950 . S
H1224 C1254 0.950 . S
H1225 C1255 0.950 . S
C1226 H1208 0.951 . S
C1226 C1227 1.366 . S
C1226 C1228 1.388 . S
C1227 C1226 1.366 . S
C1227 C1231 1.385 1_655 S
C1228 H1209 0.951 . S
C1228 C1226 1.388 . S
C1228 C1229 1.366 . S
C1229 C1228 1.366 . S
C1229 C1230 1.414 1_655 S
C1229 C1232 1.499 . S
C1230 H1210 0.950 . S
C1230 C1229 1.414 1_455 S
C1230 C1231 1.374 . S
C1231 H1211 0.950 . S
C1231 C1227 1.385 1_455 S
C1231 C1230 1.374 . S
C1232 C1229 1.499 . S
C1232 C1233 1.373 1_655 S
C1232 C1234 1.389 . S
C1233 H1212 0.950 . S
C1233 C1232 1.373 1_455 S
C1233 C1249 1.377 . S
C1234 C1232 1.389 . S
C1234 C1235 1.524 . S
C1234 C1248 1.377 . S
C1235 C1234 1.524 . S
C1235 C1236 1.397 . S
C1235 C1240 1.363 . S
C1236 H1213 0.951 . S
C1236 C1235 1.397 . S
C1236 C1237 1.334 . S
C1237 H1214 0.950 . S
C1237 C1236 1.334 . S
C1237 C1238 1.287 . S
C1238 C1237 1.287 . S
C1238 C1239 1.524 . S
C1238 H1257 0.913 . S
C1239 H1215 0.950 . S
C1239 C1238 1.524 . S
C1239 C1240 1.415 . S
C1240 H1216 0.950 . S
C1240 C1235 1.363 . S
C1240 C1239 1.415 . S
C1241 H1217 0.951 . S
C1241 C1242 1.366 . S
C1241 C1243 1.388 . S
C1242 C1241 1.366 . S
C1242 C1246 1.385 1_455 S
C1243 H1218 0.951 . S
C1243 C1241 1.388 . S
C1243 C1244 1.366 . S
C1244 C1243 1.366 . S
C1244 C1245 1.414 1_455 S
C1244 C1247 1.499 . S
C1245 H1219 0.950 . S
C1245 C1244 1.414 1_655 S
C1245 C1246 1.374 . S
C1246 H1220 0.950 . S
C1246 C1242 1.385 1_655 S
C1246 C1245 1.374 . S
C1247 C1244 1.499 . S
C1247 C1248 1.373 1_455 S
C1247 C1249 1.389 . S
C1248 H1221 0.950 . S
C1248 C1234 1.377 . S
C1248 C1247 1.373 1_655 S
C1249 C1233 1.377 . S
C1249 C1247 1.389 . S
C1249 C1250 1.524 . S
C1250 C1249 1.524 . S
C1250 C1251 1.397 . S
C1250 C1255 1.363 . S
C1251 H1222 0.952 . S
C1251 C1250 1.397 . S
C1251 C1252 1.334 . S
C1252 H1223 0.950 . S
C1252 C1251 1.334 . S
C1252 C1253 1.287 . S
C1253 C1252 1.287 . S
C1253 C1254 1.524 . S
C1253 H1256 0.999 . S
C1254 H1224 0.950 . S
C1254 C1253 1.524 . S
C1254 C1255 1.415 . S
C1255 H1225 0.950 . S
C1255 C1250 1.363 . S
C1255 C1254 1.415 . S
H1256 C1253 0.999 . S
H1257 C1238 0.913 . S
H1258 C1276 0.951 . S
H1259 C1278 0.951 . S
H1260 C1280 0.950 . S
H1261 C1281 0.950 . S
H1262 C1283 0.950 . S
H1263 C1286 0.950 . S
H1264 C1287 0.950 . S
H1265 C1289 0.950 . S
H1266 C1290 0.950 . S
H1267 C1291 0.951 . S
H1268 C1293 0.951 . S
H1269 C1295 0.950 . S
H1270 C1296 0.950 . S
H1271 C1298 0.950 . S
H1272 C1301 0.950 . S
H1273 C1302 0.950 . S
H1274 C1304 0.950 . S
H1275 C1305 0.950 . S
C1276 H1258 0.951 . S
C1276 C1277 1.366 1_545 S
C1276 C1278 1.388 . S
C1277 C1276 1.366 1_565 S
C1277 C1281 1.385 . S
C1278 H1259 0.951 . S
C1278 C1276 1.388 . S
C1278 C1279 1.366 1_545 S
C1279 C1278 1.366 1_565 S
C1279 C1280 1.414 . S
C1279 C1282 1.499 . S
C1280 H1260 0.950 . S
C1280 C1279 1.414 . S
C1280 C1281 1.374 . S
C1281 H1261 0.950 . S
C1281 C1277 1.385 . S
C1281 C1280 1.374 . S
C1282 C1279 1.499 . S
C1282 C1283 1.373 . S
C1282 C1284 1.389 1_565 S
C1283 H1262 0.950 . S
C1283 C1282 1.373 . S
C1283 C1299 1.377 . S
C1284 C1282 1.389 1_545 S
C1284 C1285 1.524 . S
C1284 C1298 1.377 . S
C1285 C1284 1.524 . S
C1285 C1286 1.397 1_545 S
C1285 C1290 1.363 . S
C1286 H1263 0.950 . S
C1286 C1285 1.397 1_565 S
C1286 C1287 1.334 . S
C1287 H1264 0.950 . S
C1287 C1286 1.334 . S
C1287 C1288 1.287 1_565 S
C1288 C1287 1.287 1_545 S
C1288 C1289 1.524 . S
C1288 H1307 0.913 . S
C1289 H1265 0.950 . S
C1289 C1288 1.524 . S
C1289 C1290 1.415 . S
C1290 H1266 0.950 . S
C1290 C1285 1.363 . S
C1290 C1289 1.415 . S
C1291 H1267 0.951 . S
C1291 C1292 1.366 1_565 S
C1291 C1293 1.388 . S
C1292 C1291 1.366 1_545 S
C1292 C1296 1.385 . S
C1293 H1268 0.951 . S
C1293 C1291 1.388 . S
C1293 C1294 1.366 1_565 S
C1294 C1293 1.366 1_545 S
C1294 C1295 1.414 . S
C1294 C1297 1.499 . S
C1295 H1269 0.950 . S
C1295 C1294 1.414 . S
C1295 C1296 1.374 . S
C1296 H1270 0.950 . S
C1296 C1292 1.385 . S
C1296 C1295 1.374 . S
C1297 C1294 1.499 . S
C1297 C1298 1.373 . S
C1297 C1299 1.389 1_545 S
C1298 H1271 0.950 . S
C1298 C1284 1.377 . S
C1298 C1297 1.373 . S
C1299 C1283 1.377 . S
C1299 C1297 1.389 1_565 S
C1299 C1300 1.524 . S
C1300 C1299 1.524 . S
C1300 C1301 1.397 1_565 S
C1300 C1305 1.363 . S
C1301 H1272 0.950 . S
C1301 C1300 1.397 1_545 S
C1301 C1302 1.334 . S
C1302 H1273 0.950 . S
C1302 C1301 1.334 . S
C1302 C1303 1.287 1_545 S
C1303 C1302 1.287 1_565 S
C1303 C1304 1.524 . S
C1303 H1306 0.999 . S
C1304 H1274 0.950 . S
C1304 C1303 1.524 . S
C1304 C1305 1.415 . S
C1305 H1275 0.950 . S
C1305 C1300 1.363 . S
C1305 C1304 1.415 . S
H1306 C1303 0.999 . S
H1307 C1288 0.913 . S
H1308 C1326 0.951 . S
H1309 C1328 0.951 . S
H1310 C1330 0.950 . S
H1311 C1331 0.950 1_565 S
H1312 C1333 0.950 . S
H1313 C1336 0.950 . S
H1314 C1337 0.950 . S
H1315 C1339 0.950 . S
H1316 C1340 0.950 . S
H1317 C1341 0.951 . S
H1318 C1343 0.951 . S
H1319 C1345 0.950 . S
H1320 C1346 0.950 . S
H1321 C1348 0.950 . S
H1322 C1351 0.950 . S
H1323 C1352 0.950 . S
H1324 C1354 0.950 . S
H1325 C1355 0.950 . S
C1326 H1308 0.951 . S
C1326 C1327 1.366 . S
C1326 C1328 1.388 . S
C1327 C1326 1.366 . S
C1327 C1331 1.385 . S
C1328 H1309 0.951 . S
C1328 C1326 1.388 . S
C1328 C1329 1.366 . S
C1329 C1328 1.366 . S
C1329 C1330 1.414 . S
C1329 C1332 1.499 . S
C1330 H1310 0.950 . S
C1330 C1329 1.414 . S
C1330 C1331 1.374 . S
C1331 H1311 0.950 1_545 S
C1331 C1327 1.385 . S
C1331 C1330 1.374 . S
C1332 C1329 1.499 . S
C1332 C1333 1.373 . S
C1332 C1334 1.389 . S
C1333 H1312 0.950 . S
C1333 C1332 1.373 . S
C1333 C1349 1.377 . S
C1334 C1332 1.389 . S
C1334 C1335 1.524 . S
C1334 C1348 1.377 . S
C1335 C1334 1.524 . S
C1335 C1336 1.397 . S
C1335 C1340 1.363 . S
C1336 H1313 0.950 . S
C1336 C1335 1.397 . S
C1336 C1337 1.334 . S
C1337 H1314 0.950 . S
C1337 C1336 1.334 . S
C1337 C1338 1.287 . S
C1338 C1337 1.287 . S
C1338 C1339 1.524 . S
C1338 H1357 0.913 . S
C1339 H1315 0.950 . S
C1339 C1338 1.524 . S
C1339 C1340 1.415 . S
C1340 H1316 0.950 . S
C1340 C1335 1.363 . S
C1340 C1339 1.415 . S
C1341 H1317 0.951 . S
C1341 C1342 1.366 . S
C1341 C1343 1.388 . S
C1342 C1341 1.366 . S
C1342 C1346 1.385 . S
C1343 H1318 0.951 . S
C1343 C1341 1.388 . S
C1343 C1344 1.366 . S
C1344 C1343 1.366 . S
C1344 C1345 1.414 . S
C1344 C1347 1.499 . S
C1345 H1319 0.950 . S
C1345 C1344 1.414 . S
C1345 C1346 1.374 . S
C1346 H1320 0.950 . S
C1346 C1342 1.385 . S
C1346 C1345 1.374 . S
C1347 C1344 1.499 . S
C1347 C1348 1.373 . S
C1347 C1349 1.389 . S
C1348 H1321 0.950 . S
C1348 C1334 1.377 . S
C1348 C1347 1.373 . S
C1349 C1333 1.377 . S
C1349 C1347 1.389 . S
C1349 C1350 1.524 . S
C1350 C1349 1.524 . S
C1350 C1351 1.397 . S
C1350 C1355 1.363 . S
C1351 H1322 0.950 . S
C1351 C1350 1.397 . S
C1351 C1352 1.334 . S
C1352 H1323 0.950 . S
C1352 C1351 1.334 . S
C1352 C1353 1.287 . S
C1353 C1352 1.287 . S
C1353 C1354 1.524 . S
C1353 H1356 0.999 . S
C1354 H1324 0.950 . S
C1354 C1353 1.524 . S
C1354 C1355 1.415 . S
C1355 H1325 0.950 . S
C1355 C1350 1.363 . S
C1355 C1354 1.415 . S
H1356 C1353 0.999 . S
H1357 C1338 0.913 . S
H1358 C1376 0.951 1_655 S
H1359 C1378 0.951 . S
H1360 C1380 0.950 . S
H1361 C1381 0.950 . S
H1362 C1383 0.950 . S
H1363 C1386 0.950 . S
H1364 C1387 0.950 . S
H1365 C1389 0.950 1_655 S
H1366 C1390 0.950 . S
H1367 C1391 0.951 . S
H1368 C1393 0.951 . S
H1369 C1395 0.950 . S
H1370 C1396 0.950 . S
H1371 C1398 0.950 . S
H1372 C1401 0.950 . S
H1373 C1402 0.950 . S
H1374 C1404 0.950 . S
H1375 C1405 0.950 . S
C1376 H1358 0.951 1_455 S
C1376 C1377 1.366 . S
C1376 C1378 1.388 . S
C1377 C1376 1.366 . S
C1377 C1381 1.385 . S
C1378 H1359 0.951 . S
C1378 C1376 1.388 . S
C1378 C1379 1.366 . S
C1379 C1378 1.366 . S
C1379 C1380 1.414 . S
C1379 C1382 1.499 . S
C1380 H1360 0.950 . S
C1380 C1379 1.414 . S
C1380 C1381 1.374 . S
C1381 H1361 0.950 . S
C1381 C1377 1.385 . S
C1381 C1380 1.374 . S
C1382 C1379 1.499 . S
C1382 C1383 1.373 . S
C1382 C1384 1.389 . S
C1383 H1362 0.950 . S
C1383 C1382 1.373 . S
C1383 C1399 1.377 . S
C1384 C1382 1.389 . S
C1384 C1385 1.524 . S
C1384 C1398 1.377 . S
C1385 C1384 1.524 . S
C1385 C1386 1.397 . S
C1385 C1390 1.363 . S
C1386 H1363 0.950 . S
C1386 C1385 1.397 . S
C1386 C1387 1.334 . S
C1387 H1364 0.950 . S
C1387 C1386 1.334 . S
C1387 C1388 1.287 1_455 S
C1388 C1387 1.287 1_655 S
C1388 C1389 1.524 1_655 S
C1388 H1407 0.913 . S
C1389 H1365 0.950 1_455 S
C1389 C1388 1.524 1_455 S
C1389 C1390 1.415 . S
C1390 H1366 0.950 . S
C1390 C1385 1.363 . S
C1390 C1389 1.415 . S
C1391 H1367 0.951 . S
C1391 C1392 1.366 . S
C1391 C1393 1.388 . S
C1392 C1391 1.366 . S
C1392 C1396 1.385 . S
C1393 H1368 0.951 . S
C1393 C1391 1.388 . S
C1393 C1394 1.366 . S
C1394 C1393 1.366 . S
C1394 C1395 1.414 . S
C1394 C1397 1.499 . S
C1395 H1369 0.950 . S
C1395 C1394 1.414 . S
C1395 C1396 1.374 . S
C1396 H1370 0.950 . S
C1396 C1392 1.385 . S
C1396 C1395 1.374 . S
C1397 C1394 1.499 . S
C1397 C1398 1.373 . S
C1397 C1399 1.389 . S
C1398 H1371 0.950 . S
C1398 C1384 1.377 . S
C1398 C1397 1.373 . S
C1399 C1383 1.377 . S
C1399 C1397 1.389 . S
C1399 C1400 1.524 . S
C1400 C1399 1.524 . S
C1400 C1401 1.397 . S
C1400 C1405 1.363 . S
C1401 H1372 0.950 . S
C1401 C1400 1.397 . S
C1401 C1402 1.334 . S
C1402 H1373 0.950 . S
C1402 C1401 1.334 . S
C1402 C1403 1.287 . S
C1403 C1402 1.287 . S
C1403 C1404 1.524 . S
C1403 H1406 0.999 . S
C1404 H1374 0.950 . S
C1404 C1403 1.524 . S
C1404 C1405 1.415 . S
C1405 H1375 0.950 . S
C1405 C1400 1.363 . S
C1405 C1404 1.415 . S
H1406 C1403 0.999 . S
H1407 C1388 0.913 . S
H1408 C1426 0.951 1_455 S
H1409 C1428 0.951 . S
H1410 C1430 0.950 . S
H1411 C1431 0.950 . S
H1412 C1433 0.950 . S
H1413 C1436 0.950 . S
H1414 C1437 0.950 . S
H1415 C1439 0.950 . S
H1416 C1440 0.950 . S
H1417 C1441 0.951 . S
H1418 C1443 0.951 . S
H1419 C1445 0.950 . S
H1420 C1446 0.950 . S
H1421 C1448 0.950 . S
H1422 C1451 0.950 . S
H1423 C1452 0.950 . S
H1424 C1454 0.950 . S
H1425 C1455 0.950 . S
C1426 H1408 0.951 1_655 S
C1426 C1427 1.366 . S
C1426 C1428 1.388 . S
C1427 C1426 1.366 . S
C1427 C1431 1.385 . S
C1428 H1409 0.951 . S
C1428 C1426 1.388 . S
C1428 C1429 1.366 . S
C1429 C1428 1.366 . S
C1429 C1430 1.414 . S
C1429 C1432 1.499 . S
C1430 H1410 0.950 . S
C1430 C1429 1.414 . S
C1430 C1431 1.374 . S
C1431 H1411 0.950 . S
C1431 C1427 1.385 . S
C1431 C1430 1.374 . S
C1432 C1429 1.499 . S
C1432 C1433 1.373 . S
C1432 C1434 1.389 . S
C1433 H1412 0.950 . S
C1433 C1432 1.373 . S
C1433 C1449 1.377 . S
C1434 C1432 1.389 . S
C1434 C1435 1.524 . S
C1434 C1448 1.377 . S
C1435 C1434 1.524 . S
C1435 C1436 1.397 . S
C1435 C1440 1.363 . S
C1436 H1413 0.950 . S
C1436 C1435 1.397 . S
C1436 C1437 1.334 . S
C1437 H1414 0.950 . S
C1437 C1436 1.334 . S
C1437 C1438 1.287 . S
C1438 C1437 1.287 . S
C1438 C1439 1.524 . S
C1438 H1457 0.913 . S
C1439 H1415 0.950 . S
C1439 C1438 1.524 . S
C1439 C1440 1.415 . S
C1440 H1416 0.950 . S
C1440 C1435 1.363 . S
C1440 C1439 1.415 . S
C1441 H1417 0.951 . S
C1441 C1442 1.366 . S
C1441 C1443 1.388 . S
C1442 C1441 1.366 . S
C1442 C1446 1.385 . S
C1443 H1418 0.951 . S
C1443 C1441 1.388 . S
C1443 C1444 1.366 . S
C1444 C1443 1.366 . S
C1444 C1445 1.414 . S
C1444 C1447 1.499 . S
C1445 H1419 0.950 . S
C1445 C1444 1.414 . S
C1445 C1446 1.374 . S
C1446 H1420 0.950 . S
C1446 C1442 1.385 . S
C1446 C1445 1.374 . S
C1447 C1444 1.499 . S
C1447 C1448 1.373 . S
C1447 C1449 1.389 . S
C1448 H1421 0.950 . S
C1448 C1434 1.377 . S
C1448 C1447 1.373 . S
C1449 C1433 1.377 . S
C1449 C1447 1.389 . S
C1449 C1450 1.524 . S
C1450 C1449 1.524 . S
C1450 C1451 1.397 . S
C1450 C1455 1.363 . S
C1451 H1422 0.950 . S
C1451 C1450 1.397 . S
C1451 C1452 1.334 . S
C1452 H1423 0.950 . S
C1452 C1451 1.334 . S
C1452 C1453 1.287 . S
C1453 C1452 1.287 . S
C1453 C1454 1.524 . S
C1453 H1456 0.999 . S
C1454 H1424 0.950 . S
C1454 C1453 1.524 . S
C1454 C1455 1.415 . S
C1455 H1425 0.950 . S
C1455 C1450 1.363 . S
C1455 C1454 1.415 . S
H1456 C1453 0.999 . S
H1457 C1438 0.913 . S
H1458 C1476 0.951 1_545 S
H1459 C1478 0.951 . S
H1460 C1480 0.950 . S
H1461 C1481 0.950 . S
H1462 C1483 0.950 . S
H1463 C1486 0.950 . S
H1464 C1487 0.950 . S
H1465 C1489 0.950 . S
H1466 C1490 0.950 . S
H1467 C1491 0.951 . S
H1468 C1493 0.951 . S
H1469 C1495 0.950 . S
H1470 C1496 0.950 . S
H1471 C1498 0.950 . S
H1472 C1501 0.950 . S
H1473 C1502 0.950 . S
H1474 C1504 0.950 . S
H1475 C1505 0.950 . S
C1476 H1458 0.951 1_565 S
C1476 C1477 1.366 . S
C1476 C1478 1.388 . S
C1477 C1476 1.366 . S
C1477 C1481 1.385 . S
C1478 H1459 0.951 . S
C1478 C1476 1.388 . S
C1478 C1479 1.366 . S
C1479 C1478 1.366 . S
C1479 C1480 1.414 . S
C1479 C1482 1.499 . S
C1480 H1460 0.950 . S
C1480 C1479 1.414 . S
C1480 C1481 1.374 . S
C1481 H1461 0.950 . S
C1481 C1477 1.385 . S
C1481 C1480 1.374 . S
C1482 C1479 1.499 . S
C1482 C1483 1.373 . S
C1482 C1484 1.389 . S
C1483 H1462 0.950 . S
C1483 C1482 1.373 . S
C1483 C1499 1.377 . S
C1484 C1482 1.389 . S
C1484 C1485 1.524 . S
C1484 C1498 1.377 . S
C1485 C1484 1.524 . S
C1485 C1486 1.397 . S
C1485 C1490 1.363 . S
C1486 H1463 0.950 . S
C1486 C1485 1.397 . S
C1486 C1487 1.334 . S
C1487 H1464 0.950 . S
C1487 C1486 1.334 . S
C1487 C1488 1.287 . S
C1488 C1487 1.287 . S
C1488 C1489 1.524 . S
C1488 H1507 0.913 . S
C1489 H1465 0.950 . S
C1489 C1488 1.524 . S
C1489 C1490 1.415 . S
C1490 H1466 0.950 . S
C1490 C1485 1.363 . S
C1490 C1489 1.415 . S
C1491 H1467 0.951 . S
C1491 C1492 1.366 . S
C1491 C1493 1.388 . S
C1492 C1491 1.366 . S
C1492 C1496 1.385 . S
C1493 H1468 0.951 . S
C1493 C1491 1.388 . S
C1493 C1494 1.366 . S
C1494 C1493 1.366 . S
C1494 C1495 1.414 . S
C1494 C1497 1.499 . S
C1495 H1469 0.950 . S
C1495 C1494 1.414 . S
C1495 C1496 1.374 . S
C1496 H1470 0.950 . S
C1496 C1492 1.385 . S
C1496 C1495 1.374 . S
C1497 C1494 1.499 . S
C1497 C1498 1.373 . S
C1497 C1499 1.389 . S
C1498 H1471 0.950 . S
C1498 C1484 1.377 . S
C1498 C1497 1.373 . S
C1499 C1483 1.377 . S
C1499 C1497 1.389 . S
C1499 C1500 1.524 . S
C1500 C1499 1.524 . S
C1500 C1501 1.397 . S
C1500 C1505 1.363 . S
C1501 H1472 0.950 . S
C1501 C1500 1.397 . S
C1501 C1502 1.334 . S
C1502 H1473 0.950 . S
C1502 C1501 1.334 . S
C1502 C1503 1.287 . S
C1503 C1502 1.287 . S
C1503 C1504 1.524 . S
C1503 H1506 0.999 . S
C1504 H1474 0.950 . S
C1504 C1503 1.524 . S
C1504 C1505 1.415 . S
C1505 H1475 0.950 . S
C1505 C1500 1.363 . S
C1505 C1504 1.415 . S
H1506 C1503 0.999 . S
H1507 C1488 0.913 . S
H1508 C1526 0.951 . S
H1509 C1528 0.951 . S
H1510 C1530 0.950 . S
H1511 C1531 0.950 . S
H1512 C1533 0.950 . S
H1513 C1536 0.950 . S
H1514 C1537 0.950 . S
H1515 C1539 0.950 . S
H1516 C1540 0.950 . S
H1517 C1541 0.951 . S
H1518 C1543 0.951 . S
H1519 C1545 0.950 . S
H1520 C1546 0.950 1_455 S
H1521 C1548 0.950 . S
H1522 C1551 0.950 . S
H1523 C1552 0.950 . S
H1524 C1554 0.950 . S
H1525 C1555 0.950 . S
C1526 H1508 0.951 . S
C1526 C1527 1.366 . S
C1526 C1528 1.388 . S
C1527 C1526 1.366 . S
C1527 C1531 1.385 . S
C1528 H1509 0.951 . S
C1528 C1526 1.388 . S
C1528 C1529 1.366 . S
C1529 C1528 1.366 . S
C1529 C1530 1.414 . S
C1529 C1532 1.499 . S
C1530 H1510 0.950 . S
C1530 C1529 1.414 . S
C1530 C1531 1.374 . S
C1531 H1511 0.950 . S
C1531 C1527 1.385 . S
C1531 C1530 1.374 . S
C1532 C1529 1.499 . S
C1532 C1533 1.373 . S
C1532 C1534 1.389 . S
C1533 H1512 0.950 . S
C1533 C1532 1.373 . S
C1533 C1549 1.377 . S
C1534 C1532 1.389 . S
C1534 C1535 1.524 . S
C1534 C1548 1.377 . S
C1535 C1534 1.524 . S
C1535 C1536 1.397 . S
C1535 C1540 1.363 . S
C1536 H1513 0.950 . S
C1536 C1535 1.397 . S
C1536 C1537 1.334 . S
C1537 H1514 0.950 . S
C1537 C1536 1.334 . S
C1537 C1538 1.287 . S
C1538 C1537 1.287 . S
C1538 C1539 1.524 . S
C1538 H1557 0.913 . S
C1539 H1515 0.950 . S
C1539 C1538 1.524 . S
C1539 C1540 1.415 . S
C1540 H1516 0.950 . S
C1540 C1535 1.363 . S
C1540 C1539 1.415 . S
C1541 H1517 0.951 . S
C1541 C1542 1.366 . S
C1541 C1543 1.388 . S
C1542 C1541 1.366 . S
C1542 C1546 1.385 . S
C1543 H1518 0.951 . S
C1543 C1541 1.388 . S
C1543 C1544 1.366 . S
C1544 C1543 1.366 . S
C1544 C1545 1.414 . S
C1544 C1547 1.499 . S
C1545 H1519 0.950 . S
C1545 C1544 1.414 . S
C1545 C1546 1.374 . S
C1546 H1520 0.950 1_655 S
C1546 C1542 1.385 . S
C1546 C1545 1.374 . S
C1547 C1544 1.499 . S
C1547 C1548 1.373 . S
C1547 C1549 1.389 . S
C1548 H1521 0.950 . S
C1548 C1534 1.377 . S
C1548 C1547 1.373 . S
C1549 C1533 1.377 . S
C1549 C1547 1.389 . S
C1549 C1550 1.524 . S
C1550 C1549 1.524 . S
C1550 C1551 1.397 . S
C1550 C1555 1.363 . S
C1551 H1522 0.950 . S
C1551 C1550 1.397 . S
C1551 C1552 1.334 . S
C1552 H1523 0.950 . S
C1552 C1551 1.334 . S
C1552 C1553 1.287 . S
C1553 C1552 1.287 . S
C1553 C1554 1.524 . S
C1553 H1556 0.999 . S
C1554 H1524 0.950 . S
C1554 C1553 1.524 . S
C1554 C1555 1.415 . S
C1555 H1525 0.950 . S
C1555 C1550 1.363 . S
C1555 C1554 1.415 . S
H1556 C1553 0.999 . S
H1557 C1538 0.913 . S
H1558 C1576 0.951 1_545 S
H1559 C1578 0.951 . S
H1560 C1580 0.950 . S
H1561 C1581 0.950 . S
H1562 C1583 0.950 . S
H1563 C1586 0.950 . S
H1564 C1587 0.946 1_545 S
H1565 C1589 0.950 1_545 S
H1566 C1590 0.950 . S
H1567 C1591 0.951 1_655 S
H1568 C1593 0.951 . S
H1569 C1595 0.950 . S
H1570 C1596 0.950 . S
H1571 C1598 0.950 . S
H1572 C1601 0.950 . S
H1573 C1602 0.950 . S
H1574 C1604 0.950 . S
H1575 C1605 0.950 . S
C1576 H1558 0.951 1_565 S
C1576 C1577 1.366 . S
C1576 C1578 1.388 . S
C1577 C1576 1.366 . S
C1577 C1581 1.385 . S
C1578 H1559 0.951 . S
C1578 C1576 1.388 . S
C1578 C1579 1.366 . S
C1579 C1578 1.366 . S
C1579 C1580 1.414 . S
C1579 C1582 1.499 . S
C1580 H1560 0.950 . S
C1580 C1579 1.414 . S
C1580 C1581 1.374 . S
C1581 H1561 0.950 . S
C1581 C1577 1.385 . S
C1581 C1580 1.374 . S
C1582 C1579 1.499 . S
C1582 C1583 1.373 . S
C1582 C1584 1.389 . S
C1583 H1562 0.950 . S
C1583 C1582 1.373 . S
C1583 C1599 1.377 . S
C1584 C1582 1.389 . S
C1584 C1585 1.524 . S
C1584 C1598 1.377 . S
C1585 C1584 1.524 . S
C1585 C1586 1.397 . S
C1585 C1590 1.363 . S
C1586 H1563 0.950 . S
C1586 C1585 1.397 . S
C1586 C1587 1.341 . S
C1587 H1564 0.946 1_565 S
C1587 C1586 1.341 . S
C1587 C1588 1.285 1_565 S
C1588 C1587 1.285 1_545 S
C1588 C1589 1.524 1_545 S
C1588 H1607 0.913 . S
C1589 H1565 0.950 1_565 S
C1589 C1588 1.524 1_565 S
C1589 C1590 1.415 . S
C1590 H1566 0.950 . S
C1590 C1585 1.363 . S
C1590 C1589 1.415 . S
C1591 H1567 0.951 1_455 S
C1591 C1592 1.366 . S
C1591 C1593 1.388 . S
C1592 C1591 1.366 . S
C1592 C1596 1.385 . S
C1593 H1568 0.951 . S
C1593 C1591 1.388 . S
C1593 C1594 1.366 . S
C1594 C1593 1.366 . S
C1594 C1595 1.414 . S
C1594 C1597 1.499 . S
C1595 H1569 0.950 . S
C1595 C1594 1.414 . S
C1595 C1596 1.374 . S
C1596 H1570 0.950 . S
C1596 C1592 1.385 . S
C1596 C1595 1.374 . S
C1597 C1594 1.499 . S
C1597 C1598 1.373 . S
C1597 C1599 1.389 . S
C1598 H1571 0.950 . S
C1598 C1584 1.377 . S
C1598 C1597 1.373 . S
C1599 C1583 1.377 . S
C1599 C1597 1.389 . S
C1599 C1600 1.524 . S
C1600 C1599 1.524 . S
C1600 C1601 1.397 . S
C1600 C1605 1.363 . S
C1601 H1572 0.950 . S
C1601 C1600 1.397 . S
C1601 C1602 1.334 . S
C1602 H1573 0.950 . S
C1602 C1601 1.334 . S
C1602 C1603 1.287 . S
C1603 C1602 1.287 . S
C1603 C1604 1.524 . S
C1603 H1606 0.999 . S
C1604 H1574 0.950 . S
C1604 C1603 1.524 . S
C1604 C1605 1.415 . S
C1605 H1575 0.950 . S
C1605 C1600 1.363 . S
C1605 C1604 1.415 . S
H1606 C1603 0.999 . S
H1607 C1588 0.913 . S
H1608 C1626 0.951 . S
H1609 C1628 0.951 . S
H1610 C1630 0.950 . S
H1611 C1631 0.950 . S
H1612 C1633 0.950 . S
H1613 C1636 0.950 . S
H1614 C1637 0.950 . S
H1615 C1639 0.950 . S
H1616 C1640 0.950 . S
H1617 C1641 0.951 . S
H1618 C1643 0.951 . S
H1619 C1645 0.950 . S
H1620 C1646 0.950 . S
H1621 C1648 0.950 . S
H1622 C1651 0.950 . S
H1623 C1652 0.950 . S
H1624 C1654 0.950 . S
H1625 C1655 0.950 . S
C1626 H1608 0.951 . S
C1626 C1627 1.366 . S
C1626 C1628 1.388 . S
C1627 C1626 1.366 . S
C1627 C1631 1.385 . S
C1628 H1609 0.951 . S
C1628 C1626 1.388 . S
C1628 C1629 1.366 . S
C1629 C1628 1.366 . S
C1629 C1630 1.414 . S
C1629 C1632 1.499 . S
C1630 H1610 0.950 . S
C1630 C1629 1.414 . S
C1630 C1631 1.374 . S
C1631 H1611 0.950 . S
C1631 C1627 1.385 . S
C1631 C1630 1.374 . S
C1632 C1629 1.499 . S
C1632 C1633 1.373 . S
C1632 C1634 1.389 . S
C1633 H1612 0.950 . S
C1633 C1632 1.373 . S
C1633 C1649 1.377 . S
C1634 C1632 1.389 . S
C1634 C1635 1.524 . S
C1634 C1648 1.377 . S
C1635 C1634 1.524 . S
C1635 C1636 1.397 . S
C1635 C1640 1.363 . S
C1636 H1613 0.950 . S
C1636 C1635 1.397 . S
C1636 C1637 1.334 . S
C1637 H1614 0.950 . S
C1637 C1636 1.334 . S
C1637 C1638 1.287 . S
C1638 C1637 1.287 . S
C1638 C1639 1.524 . S
C1638 H1657 0.913 . S
C1639 H1615 0.950 . S
C1639 C1638 1.524 . S
C1639 C1640 1.415 . S
C1640 H1616 0.950 . S
C1640 C1635 1.363 . S
C1640 C1639 1.415 . S
C1641 H1617 0.951 . S
C1641 C1642 1.366 . S
C1641 C1643 1.388 . S
C1642 C1641 1.366 . S
C1642 C1646 1.385 . S
C1643 H1618 0.951 . S
C1643 C1641 1.388 . S
C1643 C1644 1.366 . S
C1644 C1643 1.366 . S
C1644 C1645 1.414 . S
C1644 C1647 1.499 . S
C1645 H1619 0.950 . S
C1645 C1644 1.414 . S
C1645 C1646 1.374 . S
C1646 H1620 0.950 . S
C1646 C1642 1.385 . S
C1646 C1645 1.374 . S
C1647 C1644 1.499 . S
C1647 C1648 1.373 . S
C1647 C1649 1.389 . S
C1648 H1621 0.950 . S
C1648 C1634 1.377 . S
C1648 C1647 1.373 . S
C1649 C1633 1.377 . S
C1649 C1647 1.389 . S
C1649 C1650 1.524 . S
C1650 C1649 1.524 . S
C1650 C1651 1.397 . S
C1650 C1655 1.363 . S
C1651 H1622 0.950 . S
C1651 C1650 1.397 . S
C1651 C1652 1.334 . S
C1652 H1623 0.950 . S
C1652 C1651 1.334 . S
C1652 C1653 1.287 . S
C1653 C1652 1.287 . S
C1653 C1654 1.524 . S
C1653 H1656 0.999 . S
C1654 H1624 0.950 . S
C1654 C1653 1.524 . S
C1654 C1655 1.415 . S
C1655 H1625 0.950 . S
C1655 C1650 1.363 . S
C1655 C1654 1.415 . S
H1656 C1653 0.999 . S
H1657 C1638 0.913 . S
H1658 C1676 0.951 . S
H1659 C1678 0.951 . S
H1660 C1680 0.950 . S
H1661 C1681 0.950 1_455 S
H1662 C1683 0.950 . S
H1663 C1686 0.950 1_455 S
H1664 C1687 0.950 . S
H1665 C1689 0.950 . S
H1666 C1690 0.950 . S
H1667 C1691 0.951 . S
H1668 C1693 0.951 . S
H1669 C1695 0.950 . S
H1670 C1696 0.950 1_655 S
H1671 C1698 0.950 . S
H1672 C1701 0.950 1_655 S
H1673 C1702 0.950 . S
H1674 C1704 0.950 . S
H1675 C1705 0.950 . S
C1676 H1658 0.951 . S
C1676 C1677 1.366 . S
C1676 C1678 1.388 . S
C1677 C1676 1.366 . S
C1677 C1681 1.385 . S
C1678 H1659 0.951 . S
C1678 C1676 1.388 . S
C1678 C1679 1.366 . S
C1679 C1678 1.366 . S
C1679 C1680 1.414 1_655 S
C1679 C1682 1.499 . S
C1680 H1660 0.950 . S
C1680 C1679 1.414 1_455 S
C1680 C1681 1.374 1_455 S
C1681 H1661 0.950 1_655 S
C1681 C1677 1.385 . S
C1681 C1680 1.374 1_655 S
C1682 C1679 1.499 . S
C1682 C1683 1.373 1_655 S
C1682 C1684 1.389 . S
C1683 H1662 0.950 . S
C1683 C1682 1.373 1_455 S
C1683 C1699 1.377 . S
C1684 C1682 1.389 . S
C1684 C1685 1.524 . S
C1684 C1698 1.377 . S
C1685 C1684 1.524 . S
C1685 C1686 1.397 . S
C1685 C1690 1.363 . S
C1686 H1663 0.950 1_655 S
C1686 C1685 1.397 . S
C1686 C1687 1.334 . S
C1687 H1664 0.950 . S
C1687 C1686 1.334 . S
C1687 C1688 1.287 . S
C1688 C1687 1.287 . S
C1688 C1689 1.524 . S
C1688 H1707 0.913 . S
C1689 H1665 0.950 . S
C1689 C1688 1.524 . S
C1689 C1690 1.415 . S
C1690 H1666 0.950 . S
C1690 C1685 1.363 . S
C1690 C1689 1.415 . S
C1691 H1667 0.951 . S
C1691 C1692 1.366 . S
C1691 C1693 1.388 . S
C1692 C1691 1.366 . S
C1692 C1696 1.385 . S
C1693 H1668 0.951 . S
C1693 C1691 1.388 . S
C1693 C1694 1.366 . S
C1694 C1693 1.366 . S
C1694 C1695 1.414 1_455 S
C1694 C1697 1.499 . S
C1695 H1669 0.950 . S
C1695 C1694 1.414 1_655 S
C1695 C1696 1.374 1_655 S
C1696 H1670 0.950 1_455 S
C1696 C1692 1.385 . S
C1696 C1695 1.374 1_455 S
C1697 C1694 1.499 . S
C1697 C1698 1.373 1_455 S
C1697 C1699 1.389 . S
C1698 H1671 0.950 . S
C1698 C1684 1.377 . S
C1698 C1697 1.373 1_655 S
C1699 C1683 1.377 . S
C1699 C1697 1.389 . S
C1699 C1700 1.524 . S
C1700 C1699 1.524 . S
C1700 C1701 1.397 . S
C1700 C1705 1.363 . S
C1701 H1672 0.950 1_455 S
C1701 C1700 1.397 . S
C1701 C1702 1.334 . S
C1702 H1673 0.950 . S
C1702 C1701 1.334 . S
C1702 C1703 1.287 . S
C1703 C1702 1.287 . S
C1703 C1704 1.524 . S
C1703 H1706 0.999 . S
C1704 H1674 0.950 . S
C1704 C1703 1.524 . S
C1704 C1705 1.415 . S
C1705 H1675 0.950 . S
C1705 C1700 1.363 . S
C1705 C1704 1.415 . S
H1706 C1703 0.999 . S
H1707 C1688 0.913 . S
H1708 C1726 0.953 . S
H1709 C1728 0.951 1_565 S
H1710 C1730 0.950 . S
H1711 C1731 0.950 . S
H1712 C1733 0.950 . S
H1713 C1736 0.950 . S
H1714 C1737 0.950 . S
H1715 C1739 0.950 . S
H1716 C1740 0.950 . S
H1717 C1741 0.953 . S
H1718 C1743 0.951 1_545 S
H1719 C1745 0.950 . S
H1720 C1746 0.950 . S
H1721 C1748 0.950 . S
H1722 C1751 0.950 . S
H1723 C1752 0.950 . S
H1724 C1754 0.950 . S
H1725 C1755 0.950 . S
C1726 H1708 0.953 . S
C1726 C1727 1.366 . S
C1726 C1728 1.388 . S
C1727 C1726 1.366 . S
C1727 C1731 1.385 . S
C1728 H1709 0.951 1_545 S
C1728 C1726 1.388 . S
C1728 C1729 1.366 . S
C1729 C1728 1.366 . S
C1729 C1730 1.414 . S
C1729 C1732 1.499 . S
C1730 H1710 0.950 . S
C1730 C1729 1.414 . S
C1730 C1731 1.374 . S
C1731 H1711 0.950 . S
C1731 C1727 1.385 . S
C1731 C1730 1.374 . S
C1732 C1729 1.499 . S
C1732 C1733 1.373 . S
C1732 C1734 1.389 1_545 S
C1733 H1712 0.950 . S
C1733 C1732 1.373 . S
C1733 C1749 1.377 1_554 S
C1734 C1732 1.389 1_565 S
C1734 C1735 1.524 . S
C1734 C1748 1.377 1_554 S
C1735 C1734 1.524 . S
C1735 C1736 1.397 . S
C1735 C1740 1.363 . S
C1736 H1713 0.950 . S
C1736 C1735 1.397 . S
C1736 C1737 1.334 . S
C1737 H1714 0.950 . S
C1737 C1736 1.334 . S
C1737 C1738 1.287 . S
C1738 C1737 1.287 . S
C1738 C1739 1.524 . S
C1738 H1757 0.913 . S
C1739 H1715 0.950 . S
C1739 C1738 1.524 . S
C1739 C1740 1.415 . S
C1740 H1716 0.950 . S
C1740 C1735 1.363 . S
C1740 C1739 1.415 . S
C1741 H1717 0.953 . S
C1741 C1742 1.366 . S
C1741 C1743 1.388 . S
C1742 C1741 1.366 . S
C1742 C1746 1.385 . S
C1743 H1718 0.951 1_565 S
C1743 C1741 1.388 . S
C1743 C1744 1.366 . S
C1744 C1743 1.366 . S
C1744 C1745 1.414 . S
C1744 C1747 1.499 . S
C1745 H1719 0.950 . S
C1745 C1744 1.414 . S
C1745 C1746 1.374 . S
C1746 H1720 0.950 . S
C1746 C1742 1.385 . S
C1746 C1745 1.374 . S
C1747 C1744 1.499 . S
C1747 C1748 1.373 . S
C1747 C1749 1.389 1_565 S
C1748 H1721 0.950 . S
C1748 C1734 1.377 1_556 S
C1748 C1747 1.373 . S
C1749 C1733 1.377 1_556 S
C1749 C1747 1.389 1_545 S
C1749 C1750 1.524 . S
C1750 C1749 1.524 . S
C1750 C1751 1.397 . S
C1750 C1755 1.363 . S
C1751 H1722 0.950 . S
C1751 C1750 1.397 . S
C1751 C1752 1.334 . S
C1752 H1723 0.950 . S
C1752 C1751 1.334 . S
C1752 C1753 1.287 . S
C1753 C1752 1.287 . S
C1753 C1754 1.524 . S
C1753 H1756 0.999 . S
C1754 H1724 0.950 . S
C1754 C1753 1.524 . S
C1754 C1755 1.415 . S
C1755 H1725 0.950 . S
C1755 C1750 1.363 . S
C1755 C1754 1.415 . S
H1756 C1753 0.999 . S
H1757 C1738 0.913 . S
H1758 C1776 0.951 . S
H1759 C1778 0.951 . S
H1760 C1780 0.950 . S
H1761 C1781 0.950 . S
H1762 C1783 0.950 . S
H1763 C1786 0.950 . S
H1764 C1787 0.950 . S
H1765 C1789 0.950 . S
H1766 C1790 0.950 . S
H1767 C1791 0.951 . S
H1768 C1793 0.951 . S
H1769 C1795 0.950 . S
H1770 C1796 0.950 . S
H1771 C1798 0.950 . S
H1772 C1801 0.950 . S
H1773 C1802 0.950 . S
H1774 C1804 0.950 . S
H1775 C1805 0.950 . S
C1776 H1758 0.951 . S
C1776 C1777 1.366 . S
C1776 C1778 1.388 . S
C1777 C1776 1.366 . S
C1777 C1781 1.385 . S
C1778 H1759 0.951 . S
C1778 C1776 1.388 . S
C1778 C1779 1.366 . S
C1779 C1778 1.366 . S
C1779 C1780 1.414 . S
C1779 C1782 1.499 . S
C1780 H1760 0.950 . S
C1780 C1779 1.414 . S
C1780 C1781 1.374 . S
C1781 H1761 0.950 . S
C1781 C1777 1.385 . S
C1781 C1780 1.374 . S
C1782 C1779 1.499 . S
C1782 C1783 1.373 . S
C1782 C1784 1.389 . S
C1783 H1762 0.950 . S
C1783 C1782 1.373 . S
C1783 C1799 1.377 . S
C1784 C1782 1.389 . S
C1784 C1785 1.524 . S
C1784 C1798 1.377 . S
C1785 C1784 1.524 . S
C1785 C1786 1.397 . S
C1785 C1790 1.363 . S
C1786 H1763 0.950 . S
C1786 C1785 1.397 . S
C1786 C1787 1.334 . S
C1787 H1764 0.950 . S
C1787 C1786 1.334 . S
C1787 C1788 1.287 . S
C1788 C1787 1.287 . S
C1788 C1789 1.524 . S
C1788 H1807 0.913 . S
C1789 H1765 0.950 . S
C1789 C1788 1.524 . S
C1789 C1790 1.415 . S
C1790 H1766 0.950 . S
C1790 C1785 1.363 . S
C1790 C1789 1.415 . S
C1791 H1767 0.951 . S
C1791 C1792 1.366 . S
C1791 C1793 1.388 . S
C1792 C1791 1.366 . S
C1792 C1796 1.385 . S
C1793 H1768 0.951 . S
C1793 C1791 1.388 . S
C1793 C1794 1.366 . S
C1794 C1793 1.366 . S
C1794 C1795 1.414 . S
C1794 C1797 1.499 . S
C1795 H1769 0.950 . S
C1795 C1794 1.414 . S
C1795 C1796 1.374 . S
C1796 H1770 0.950 . S
C1796 C1792 1.385 . S
C1796 C1795 1.374 . S
C1797 C1794 1.499 . S
C1797 C1798 1.373 . S
C1797 C1799 1.389 . S
C1798 H1771 0.950 . S
C1798 C1784 1.377 . S
C1798 C1797 1.373 . S
C1799 C1783 1.377 . S
C1799 C1797 1.389 . S
C1799 C1800 1.524 . S
C1800 C1799 1.524 . S
C1800 C1801 1.397 . S
C1800 C1805 1.363 . S
C1801 H1772 0.950 . S
C1801 C1800 1.397 . S
C1801 C1802 1.334 . S
C1802 H1773 0.950 . S
C1802 C1801 1.334 . S
C1802 C1803 1.287 . S
C1803 C1802 1.287 . S
C1803 C1804 1.524 . S
C1803 H1806 0.999 . S
C1804 H1774 0.950 . S
C1804 C1803 1.524 . S
C1804 C1805 1.415 . S
C1805 H1775 0.950 . S
C1805 C1800 1.363 . S
C1805 C1804 1.415 . S
H1806 C1803 0.999 . S
H1807 C1788 0.913 . S
H1808 C1826 0.951 . S
H1809 C1828 0.951 . S
H1810 C1830 0.950 . S
H1811 C1831 0.950 . S
H1812 C1833 0.950 . S
H1813 C1836 0.950 . S
H1814 C1837 0.950 . S
H1815 C1839 0.950 . S
H1816 C1840 0.950 . S
H1817 C1841 0.951 . S
H1818 C1843 0.951 . S
H1819 C1845 0.950 . S
H1820 C1846 0.950 . S
H1821 C1848 0.950 . S
H1822 C1851 0.950 . S
H1823 C1852 0.950 . S
H1824 C1854 0.950 . S
H1825 C1855 0.950 . S
C1826 H1808 0.951 . S
C1826 C1827 1.366 . S
C1826 C1828 1.388 . S
C1827 C1826 1.366 . S
C1827 C1831 1.385 . S
C1828 H1809 0.951 . S
C1828 C1826 1.388 . S
C1828 C1829 1.366 . S
C1829 C1828 1.366 . S
C1829 C1830 1.414 . S
C1829 C1832 1.499 . S
C1830 H1810 0.950 . S
C1830 C1829 1.414 . S
C1830 C1831 1.374 . S
C1831 H1811 0.950 . S
C1831 C1827 1.385 . S
C1831 C1830 1.374 . S
C1832 C1829 1.499 . S
C1832 C1833 1.373 1_455 S
C1832 C1834 1.389 . S
C1833 H1812 0.950 . S
C1833 C1832 1.373 1_655 S
C1833 C1849 1.377 . S
C1834 C1832 1.389 . S
C1834 C1835 1.524 . S
C1834 C1848 1.377 . S
C1835 C1834 1.524 . S
C1835 C1836 1.397 . S
C1835 C1840 1.363 . S
C1836 H1813 0.950 . S
C1836 C1835 1.397 . S
C1836 C1837 1.334 . S
C1837 H1814 0.950 . S
C1837 C1836 1.334 . S
C1837 C1838 1.287 . S
C1838 C1837 1.287 . S
C1838 C1839 1.524 . S
C1838 H1857 0.913 . S
C1839 H1815 0.950 . S
C1839 C1838 1.524 . S
C1839 C1840 1.415 . S
C1840 H1816 0.950 . S
C1840 C1835 1.363 . S
C1840 C1839 1.415 . S
C1841 H1817 0.951 . S
C1841 C1842 1.366 . S
C1841 C1843 1.388 . S
C1842 C1841 1.366 . S
C1842 C1846 1.385 . S
C1843 H1818 0.951 . S
C1843 C1841 1.388 . S
C1843 C1844 1.366 . S
C1844 C1843 1.366 . S
C1844 C1845 1.414 . S
C1844 C1847 1.499 . S
C1845 H1819 0.950 . S
C1845 C1844 1.414 . S
C1845 C1846 1.374 . S
C1846 H1820 0.950 . S
C1846 C1842 1.385 . S
C1846 C1845 1.374 . S
C1847 C1844 1.499 . S
C1847 C1848 1.373 1_655 S
C1847 C1849 1.389 . S
C1848 H1821 0.950 . S
C1848 C1834 1.377 . S
C1848 C1847 1.373 1_455 S
C1849 C1833 1.377 . S
C1849 C1847 1.389 . S
C1849 C1850 1.524 . S
C1850 C1849 1.524 . S
C1850 C1851 1.397 . S
C1850 C1855 1.363 . S
C1851 H1822 0.950 . S
C1851 C1850 1.397 . S
C1851 C1852 1.334 . S
C1852 H1823 0.950 . S
C1852 C1851 1.334 . S
C1852 C1853 1.287 . S
C1853 C1852 1.287 . S
C1853 C1854 1.524 . S
C1853 H1856 0.999 . S
C1854 H1824 0.950 . S
C1854 C1853 1.524 . S
C1854 C1855 1.415 . S
C1855 H1825 0.950 . S
C1855 C1850 1.363 . S
C1855 C1854 1.415 . S
H1856 C1853 0.999 . S
H1857 C1838 0.913 . S
H1858 C1876 0.951 . S
H1859 C1878 0.951 . S
H1860 C1880 0.969 . S
H1861 C1881 0.950 1_545 S
H1862 C1883 0.950 . S
H1863 C1886 0.950 . S
H1864 C1887 0.950 . S
H1865 C1889 0.950 . S
H1866 C1890 0.949 1_556 S
H1867 C1891 0.951 . S
H1868 C1893 0.951 . S
H1869 C1895 0.971 . S
H1870 C1896 0.950 1_565 S
H1871 C1898 0.950 . S
H1872 C1901 0.950 . S
H1873 C1902 0.950 . S
H1874 C1904 0.950 . S
H1875 C1905 0.949 1_554 S
C1876 H1858 0.951 . S
C1876 C1877 1.366 . S
C1876 C1878 1.388 . S
C1877 C1876 1.366 . S
C1877 C1881 1.385 . S
C1878 H1859 0.951 . S
C1878 C1876 1.388 . S
C1878 C1879 1.366 . S
C1879 C1878 1.366 . S
C1879 C1880 1.400 1_565 S
C1879 C1882 1.499 . S
C1880 H1860 0.969 . S
C1880 C1879 1.400 1_545 S
C1880 C1881 1.370 1_545 S
C1881 H1861 0.950 1_565 S
C1881 C1877 1.385 . S
C1881 C1880 1.370 1_565 S
C1882 C1879 1.499 . S
C1882 C1883 1.373 . S
C1882 C1884 1.389 . S
C1883 H1862 0.950 . S
C1883 C1882 1.373 . S
C1883 C1899 1.377 1_564 S
C1884 C1882 1.389 . S
C1884 C1885 1.524 . S
C1884 C1898 1.377 1_564 S
C1885 C1884 1.524 . S
C1885 C1886 1.397 1_565 S
C1885 C1890 1.363 . S
C1886 H1863 0.950 . S
C1886 C1885 1.397 1_545 S
C1886 C1887 1.334 . S
C1887 H1864 0.950 . S
C1887 C1886 1.334 . S
C1887 C1888 1.287 . S
C1888 C1887 1.287 . S
C1888 C1889 1.524 1_545 S
C1888 H1907 0.913 . S
C1889 H1865 0.950 . S
C1889 C1888 1.524 1_565 S
C1889 C1890 1.415 . S
C1890 H1866 0.949 1_554 S
C1890 C1885 1.363 . S
C1890 C1889 1.415 . S
C1891 H1867 0.951 . S
C1891 C1892 1.366 . S
C1891 C1893 1.388 . S
C1892 C1891 1.366 . S
C1892 C1896 1.385 . S
C1893 H1868 0.951 . S
C1893 C1891 1.388 . S
C1893 C1894 1.366 . S
C1894 C1893 1.366 . S
C1894 C1895 1.398 1_545 S
C1894 C1897 1.499 . S
C1895 H1869 0.971 . S
C1895 C1894 1.398 1_565 S
C1895 C1896 1.369 1_565 S
C1896 H1870 0.950 1_545 S
C1896 C1892 1.385 . S
C1896 C1895 1.369 1_545 S
C1897 C1894 1.499 . S
C1897 C1898 1.373 . S
C1897 C1899 1.389 . S
C1898 H1871 0.950 . S
C1898 C1884 1.377 1_546 S
C1898 C1897 1.373 . S
C1899 C1883 1.377 1_546 S
C1899 C1897 1.389 . S
C1899 C1900 1.524 . S
C1900 C1899 1.524 . S
C1900 C1901 1.397 1_545 S
C1900 C1905 1.363 . S
C1901 H1872 0.950 . S
C1901 C1900 1.397 1_565 S
C1901 C1902 1.334 . S
C1902 H1873 0.950 . S
C1902 C1901 1.334 . S
C1902 C1903 1.287 . S
C1903 C1902 1.287 . S
C1903 C1904 1.524 1_565 S
C1903 H1906 0.999 . S
C1904 H1874 0.950 . S
C1904 C1903 1.524 1_545 S
C1904 C1905 1.415 . S
C1905 H1875 0.949 1_556 S
C1905 C1900 1.363 . S
C1905 C1904 1.415 . S
H1906 C1903 0.999 . S
H1907 C1888 0.913 . S
C727 C682 1.932 . S
C742 C33 1.932 . S
C777 C92 1.932 . S
C792 C387 1.932 . S
C827 C151 1.932 . S
C842 C446 1.932 . S
C877 C210 1.932 . S
C892 C505 1.932 . S
C927 C564 1.932 . S
C942 C269 1.932 . S
C977 C328 1.932 . S
C992 C623 1.933 . S
C1027 C180 1.351 . S
C1042 C3 1.351 . S
C1077 C239 1.351 . S
C1092 C62 1.351 . S
C1127 C298 1.351 . S
C1142 C121 1.351 . S
C1177 C357 1.351 . S
C1192 C534 1.351 . S
C1227 C416 1.351 . S
C1242 C593 1.351 . S
C1277 C475 1.351 . S
C1292 C652 1.351 . S
C1327 C524 0.294 . S
C1342 C52 0.294 . S
C1377 C111 0.295 . S
C1392 C583 0.295 . S
C1427 C642 0.296 . S
C1442 C170 0.296 . S
C1477 C701 0.296 . S
C1492 C229 0.296 . S
C1527 C406 0.296 . S
C1542 C288 0.296 . S
C1577 C347 0.295 . S
C1592 C465 0.295 . S
C1627 C536 1.601 . S
C1642 C5 1.601 . S
C1677 C64 1.601 . S
C1692 C595 1.601 . S
C1727 C654 1.602 . S
C1742 C123 1.602 . S
C1777 C182 1.601 . S
C1792 C359 1.601 . S
C1827 C241 1.601 . S
C1842 C418 1.601 . S
C1877 C477 1.602 . S
C1892 C300 1.601 . S
