# Generated by pormake.
# Topology lcy-e, (6)-cn, num edge types: 1
# Building blocks:
#     Node 0, Type 0, BuildingBlock: CUKXOW_clean_sbu_0, # of connection points: 6
#     Node 1, Type 0, BuildingBlock: CUKXOW_clean_sbu_0, # of connection points: 6
#     Node 2, Type 0, BuildingBlock: CUKXOW_clean_sbu_0, # of connection points: 6
#     Node 3, Type 0, BuildingBlock: CUKXOW_clean_sbu_0, # of connection points: 6
#     Node 4, Type 0, BuildingBlock: CUKXOW_clean_sbu_0, # of connection points: 6
#     Node 5, Type 0, BuildingBlock: CUKXOW_clean_sbu_0, # of connection points: 6
#     Node 6, Type 0, BuildingBlock: CUKXOW_clean_sbu_0, # of connection points: 6
#     Node 7, Type 0, BuildingBlock: CUKXOW_clean_sbu_0, # of connection points: 6
#     Node 8, Type 0, BuildingBlock: CUKXOW_clean_sbu_0, # of connection points: 6
#     Node 9, Type 0, BuildingBlock: CUKXOW_clean_sbu_0, # of connection points: 6
#     Node 10, Type 0, BuildingBlock: CUKXOW_clean_sbu_0, # of connection points: 6
#     Node 11, Type 0, BuildingBlock: CUKXOW_clean_sbu_0, # of connection points: 6
#     Edge 12, Type (0, 0), BuildingBlock: TEMPAE_clean_linker_10, # of connection points: 2
#     Edge 13, Type (0, 0), BuildingBlock: TEMPAE_clean_linker_10, # of connection points: 2
#     Edge 14, Type (0, 0), BuildingBlock: TEMPAE_clean_linker_10, # of connection points: 2
#     Edge 15, Type (0, 0), BuildingBlock: TEMPAE_clean_linker_10, # of connection points: 2
#     Edge 16, Type (0, 0), BuildingBlock: TEMPAE_clean_linker_10, # of connection points: 2
#     Edge 17, Type (0, 0), BuildingBlock: TEMPAE_clean_linker_10, # of connection points: 2
#     Edge 18, Type (0, 0), BuildingBlock: TEMPAE_clean_linker_10, # of connection points: 2
#     Edge 19, Type (0, 0), BuildingBlock: TEMPAE_clean_linker_10, # of connection points: 2
#     Edge 20, Type (0, 0), BuildingBlock: TEMPAE_clean_linker_10, # of connection points: 2
#     Edge 21, Type (0, 0), BuildingBlock: TEMPAE_clean_linker_10, # of connection points: 2
#     Edge 22, Type (0, 0), BuildingBlock: TEMPAE_clean_linker_10, # of connection points: 2
#     Edge 23, Type (0, 0), BuildingBlock: TEMPAE_clean_linker_10, # of connection points: 2
#     Edge 24, Type (0, 0), BuildingBlock: TEMPAE_clean_linker_10, # of connection points: 2
#     Edge 25, Type (0, 0), BuildingBlock: TEMPAE_clean_linker_10, # of connection points: 2
#     Edge 26, Type (0, 0), BuildingBlock: TEMPAE_clean_linker_10, # of connection points: 2
#     Edge 27, Type (0, 0), BuildingBlock: TEMPAE_clean_linker_10, # of connection points: 2
#     Edge 28, Type (0, 0), BuildingBlock: TEMPAE_clean_linker_10, # of connection points: 2
#     Edge 29, Type (0, 0), BuildingBlock: TEMPAE_clean_linker_10, # of connection points: 2
#     Edge 30, Type (0, 0), BuildingBlock: TEMPAE_clean_linker_10, # of connection points: 2
#     Edge 31, Type (0, 0), BuildingBlock: TEMPAE_clean_linker_10, # of connection points: 2
#     Edge 32, Type (0, 0), BuildingBlock: TEMPAE_clean_linker_10, # of connection points: 2
#     Edge 33, Type (0, 0), BuildingBlock: TEMPAE_clean_linker_10, # of connection points: 2
#     Edge 34, Type (0, 0), BuildingBlock: TEMPAE_clean_linker_10, # of connection points: 2
#     Edge 35, Type (0, 0), BuildingBlock: TEMPAE_clean_linker_10, # of connection points: 2
#     Edge 36, Type (0, 0), BuildingBlock: TEMPAE_clean_linker_10, # of connection points: 2
#     Edge 37, Type (0, 0), BuildingBlock: TEMPAE_clean_linker_10, # of connection points: 2
#     Edge 38, Type (0, 0), BuildingBlock: TEMPAE_clean_linker_10, # of connection points: 2
#     Edge 39, Type (0, 0), BuildingBlock: TEMPAE_clean_linker_10, # of connection points: 2
#     Edge 40, Type (0, 0), BuildingBlock: TEMPAE_clean_linker_10, # of connection points: 2
#     Edge 41, Type (0, 0), BuildingBlock: TEMPAE_clean_linker_10, # of connection points: 2
#     Edge 42, Type (0, 0), BuildingBlock: TEMPAE_clean_linker_10, # of connection points: 2
#     Edge 43, Type (0, 0), BuildingBlock: TEMPAE_clean_linker_10, # of connection points: 2
#     Edge 44, Type (0, 0), BuildingBlock: TEMPAE_clean_linker_10, # of connection points: 2
#     Edge 45, Type (0, 0), BuildingBlock: TEMPAE_clean_linker_10, # of connection points: 2
#     Edge 46, Type (0, 0), BuildingBlock: TEMPAE_clean_linker_10, # of connection points: 2
#     Edge 47, Type (0, 0), BuildingBlock: TEMPAE_clean_linker_10, # of connection points: 2
# Relax obj value: 0.161
# Max RMSD: 0.260
# Mean RMSD: 0.229
data_MOF--net-lcy-e--node1-CUKXOW_clean_sbu_0--edge1-TEMPAE_clean_linker_10
_symmetry_space_group_name_H-M    P1
_symmetry_Int_Tables_number       1
_symmetry_cell_setting            triclinic
loop_
_symmetry_equiv_pos_as_xyz
'x, y, z'
_cell_length_a     35.202988
_cell_length_b     38.153314
_cell_length_c     38.363648
_cell_angle_alpha  89.76533
_cell_angle_beta   91.45012
_cell_angle_gamma 88.834932
loop_
_atom_site_label
_atom_site_type_symbol
_atom_site_fract_x
_atom_site_fract_y
_atom_site_fract_z
_atom_type_partial_charge
Tb0 Tb 0.17094 0.18342 0.42677 0.0
C1 C 0.0953 0.1377 0.42269 0.0
Tb2 Tb 0.10127 0.2036 0.46978 0.0
O3 O 0.20026 0.16167 0.47382 0.0
O4 O 0.14187 0.16274 0.46926 0.0
O5 O 0.12611 0.14796 0.40583 0.0
C6 C 0.0583 0.2164 0.52428 0.0
O7 O 0.08534 0.15194 0.45271 0.0
C8 C 0.10173 0.22811 0.40656 0.0
C9 C 0.17458 0.25126 0.47405 0.0
O10 O 0.04554 0.21379 0.49234 0.0
O11 O 0.09488 0.21193 0.52531 0.0
O12 O 0.07042 0.22292 0.42282 0.0
O13 O 0.12967 0.22402 0.42703 0.0
O14 O 0.14295 0.24118 0.48897 0.0
O15 O 0.18817 0.23516 0.44608 0.0
C16 C 0.22341 0.17197 0.37849 0.0
O17 O 0.22768 0.16593 0.41162 0.0
O18 O 0.18905 0.18392 0.37219 0.0
C19 C 0.16901 0.15662 0.49012 0.0
Tb20 Tb 0.1009 0.91253 0.70136 0.0
C21 C 0.12717 0.83434 0.68666 0.0
Tb22 Tb 0.06711 0.85579 0.74378 0.0
O23 O 0.15615 0.90485 0.72525 0.0
O24 O 0.10791 0.89572 0.75486 0.0
O25 O 0.12714 0.86729 0.67498 0.0
C26 C 0.05578 0.80358 0.78874 0.0
O27 O 0.10735 0.82471 0.71393 0.0
C28 C 0.029 0.8734 0.68612 0.0
C29 C 0.0327 0.92953 0.75258 0.0
O30 O 0.03004 0.81798 0.76827 0.0
O31 O 0.08786 0.81864 0.78388 0.0
O32 O 0.01269 0.86148 0.71358 0.0
O33 O 0.06411 0.87158 0.69127 0.0
O34 O 0.0422 0.9004 0.76969 0.0
O35 O 0.04953 0.93806 0.7231 0.0
C36 C 0.11622 0.96676 0.66054 0.0
O37 O 0.12042 0.966 0.69417 0.0
O38 O 0.10303 0.93708 0.64982 0.0
C39 C 0.14409 0.89335 0.75466 0.0
Tb40 Tb 0.432 0.82087 0.96806 0.0
C41 C 0.35127 0.83945 0.92991 0.0
Tb42 Tb 0.35812 0.78939 0.99397 0.0
O43 O 0.44688 0.7716 0.94082 0.0
O44 O 0.39144 0.78501 0.94917 0.0
O45 O 0.38736 0.84885 0.93554 0.0
C46 C 0.30759 0.74062 1.00627 0.0
O47 O 0.33608 0.81262 0.94606 0.0
C48 C 0.37372 0.8519 0.01722 0.0
C49 C 0.43419 0.77502 0.03861 0.0
O50 O 0.30114 0.77415 1.00919 0.0
O51 O 0.34226 0.7348 0.99686 0.0
O52 O 0.33921 0.84041 0.01466 0.0
O53 O 0.39679 0.82742 0.01093 0.0
O54 O 0.3993 0.76462 0.03072 0.0
O55 O 0.45092 0.79995 0.02012 0.0
C56 C 0.48744 0.8649 0.95135 0.0
O57 O 0.49087 0.83099 0.95357 0.0
O58 O 0.45274 0.87396 0.9585 0.0
C59 C 0.41217 0.76074 0.93793 0.0
Tb60 Tb 0.45701 0.13703 0.13701 0.0
C61 C 0.42373 0.21499 0.14338 0.0
Tb62 Tb 0.49133 0.18905 0.19414 0.0
O63 O 0.41264 0.11545 0.17069 0.0
O64 O 0.45138 0.14986 0.18899 0.0
O65 O 0.42886 0.18723 0.12264 0.0
C66 C 0.50168 0.2218 0.25505 0.0
O67 O 0.44283 0.21934 0.17344 0.0
C68 C 0.52848 0.18204 0.13542 0.0
C69 C 0.52463 0.11202 0.18885 0.0
O70 O 0.51273 0.23344 0.225 0.0
O71 O 0.48471 0.19228 0.2504 0.0
O72 O 0.54436 0.19136 0.16494 0.0
O73 O 0.49312 0.18075 0.13926 0.0
O74 O 0.519 0.1399 0.20874 0.0
O75 O 0.50639 0.10721 0.15844 0.0
C76 C 0.44185 0.09533 0.08287 0.0
O77 O 0.47563 0.10126 0.09582 0.0
O78 O 0.41723 0.11431 0.09944 0.0
C79 C 0.4224 0.13388 0.19762 0.0
Tb80 Tb 0.61967 0.34088 0.55668 0.0
C81 C 0.70415 0.35914 0.58419 0.0
Tb82 Tb 0.68781 0.30535 0.52446 0.0
O83 O 0.60585 0.29193 0.58313 0.0
O84 O 0.66144 0.30313 0.57371 0.0
O85 O 0.66707 0.36776 0.58384 0.0
C86 C 0.73102 0.24866 0.5105 0.0
O87 O 0.7184 0.33333 0.56498 0.0
C88 C 0.67027 0.36815 0.49899 0.0
C89 C 0.60609 0.29404 0.48996 0.0
O90 O 0.73101 0.27808 0.49304 0.0
O91 O 0.70769 0.25193 0.53589 0.0
O92 O 0.70446 0.35416 0.49821 0.0
O93 O 0.64788 0.34516 0.50935 0.0
O94 O 0.64079 0.28082 0.49569 0.0
O95 O 0.5936 0.32145 0.50796 0.0
C96 C 0.56175 0.38069 0.57842 0.0
O97 O 0.56278 0.34682 0.57719 0.0
O98 O 0.59394 0.39257 0.56799 0.0
C99 C 0.64046 0.27996 0.58587 0.0
Tb100 Tb 0.92705 0.42084 0.83788 0.0
C101 C 0.89067 0.34602 0.85155 0.0
Tb102 Tb 0.94694 0.35798 0.7918 0.0
O103 O 0.89814 0.44601 0.79233 0.0
O104 O 0.89991 0.39198 0.7979 0.0
O105 O 0.90145 0.37628 0.86581 0.0
C106 C 0.94829 0.32008 0.73406 0.0
O107 O 0.8998 0.33673 0.81954 0.0
C108 C 0.98329 0.35866 0.85159 0.0
C109 C 0.9945 0.42868 0.7847 0.0
O110 O 0.95848 0.30866 0.76494 0.0
O111 O 0.93811 0.35288 0.73571 0.0
O112 O 0.9781 0.33003 0.83384 0.0
O113 O 0.97296 0.38479 0.83327 0.0
O114 O 0.9868 0.39691 0.77238 0.0
O115 O 0.97565 0.44285 0.81102 0.0
C116 C 0.917 0.46999 0.88665 0.0
O117 O 0.94818 0.4523 0.88171 0.0
O118 O 0.89104 0.45921 0.86483 0.0
C119 C 0.88965 0.41648 0.77772 0.0
Tb120 Tb 0.85808 0.69762 0.11841 0.0
C121 C 0.93901 0.66006 0.1276 0.0
Tb122 Tb 0.92595 0.7186 0.06999 0.0
O123 O 0.85375 0.64738 0.09243 0.0
O124 O 0.8745 0.6902 0.06556 0.0
O125 O 0.90625 0.66832 0.14273 0.0
C126 C 0.97113 0.72362 0.01592 0.0
O127 O 0.95004 0.6736 0.09764 0.0
C128 C 0.92755 0.75119 0.13098 0.0
C129 C 0.85115 0.76427 0.06818 0.0
O130 O 0.95798 0.74971 0.0339 0.0
O131 O 0.95912 0.69431 0.0286 0.0
O132 O 0.95253 0.75628 0.10716 0.0
O133 O 0.90547 0.72886 0.11896 0.0
O134 O 0.87937 0.75124 0.04962 0.0
O135 O 0.84079 0.74995 0.09819 0.0
C136 C 0.799 0.69003 0.15971 0.0
O137 O 0.79702 0.69427 0.12608 0.0
O138 O 0.83438 0.69084 0.1703 0.0
C139 C 0.86978 0.65749 0.06424 0.0
Tb140 Tb 0.54824 0.66647 0.35079 0.0
C141 C 0.56375 0.58643 0.37627 0.0
Tb142 Tb 0.50275 0.60754 0.31854 0.0
O143 O 0.49823 0.68556 0.37793 0.0
O144 O 0.50479 0.6326 0.36853 0.0
O145 O 0.57637 0.61942 0.37601 0.0
C146 C 0.44568 0.56605 0.29886 0.0
O147 O 0.53228 0.57721 0.3591 0.0
C148 C 0.57002 0.61779 0.29236 0.0
C149 C 0.49553 0.6826 0.2827 0.0
O150 O 0.4802 0.56401 0.28779 0.0
O151 O 0.44334 0.59139 0.32128 0.0
O152 O 0.55362 0.58755 0.2914 0.0
O153 O 0.54684 0.63997 0.30358 0.0
O154 O 0.47815 0.65263 0.28866 0.0
O155 O 0.52642 0.69106 0.30148 0.0
C156 C 0.59844 0.71599 0.36832 0.0
O157 O 0.56191 0.71835 0.37137 0.0
O158 O 0.60706 0.68497 0.35663 0.0
C159 C 0.48253 0.65534 0.38119 0.0
Tb160 Tb 0.16338 0.4031 0.14876 0.0
C161 C 0.13128 0.40142 0.07025 0.0
Tb162 Tb 0.18282 0.46281 0.09508 0.0
O163 O 0.13506 0.44303 0.18046 0.0
O164 O 0.13696 0.44858 0.12659 0.0
O165 O 0.13981 0.38329 0.09926 0.0
C166 C 0.17723 0.52677 0.06793 0.0
O167 O 0.14134 0.43427 0.06466 0.0
C168 C 0.23192 0.40951 0.09387 0.0
C169 C 0.22631 0.45732 0.16907 0.0
O170 O 0.18498 0.49845 0.0504 0.0
O171 O 0.17305 0.51889 0.10053 0.0
O172 O 0.2356 0.43774 0.07501 0.0
O173 O 0.2024 0.41398 0.11086 0.0
O174 O 0.21442 0.47739 0.14234 0.0
O175 O 0.21325 0.42531 0.17479 0.0
C176 C 0.1451 0.34585 0.18353 0.0
O177 O 0.17963 0.35468 0.17671 0.0
O178 O 0.1213 0.36918 0.17075 0.0
C179 C 0.12685 0.46345 0.15409 0.0
Tb180 Tb 0.72192 0.09351 0.85785 0.0
C181 C 0.68447 0.10339 0.932 0.0
Tb182 Tb 0.75485 0.05289 0.92285 0.0
O183 O 0.6685 0.06529 0.85841 0.0
O184 O 0.71817 0.04224 0.87943 0.0
O185 O 0.6918 0.11898 0.90161 0.0
C186 C 0.77028 0.99835 0.96573 0.0
O187 O 0.70281 0.07461 0.94304 0.0
C188 C 0.77382 0.11925 0.91736 0.0
C189 C 0.79894 0.04644 0.85209 0.0
O190 O 0.79262 0.02467 0.96091 0.0
O191 O 0.73974 1.0032 0.94672 0.0
O192 O 0.77242 0.10267 0.94713 0.0
O193 O 0.7683 0.09759 0.8932 0.0
O194 O 0.7964 0.03623 0.88506 0.0
O195 O 0.77371 0.06835 0.83641 0.0
C196 C 0.70991 0.13321 0.80033 0.0
O197 O 0.71091 0.09916 0.80154 0.0
O198 O 0.71552 0.14511 0.83182 0.0
C199 C 0.68241 0.03934 0.87687 0.0
Tb200 Tb 0.85256 0.94251 0.40144 0.0
C201 C 0.85568 0.9083 0.32772 0.0
Tb202 Tb 0.79976 0.97108 0.3447 0.0
O203 O 0.82101 0.89489 0.40781 0.0
O204 O 0.79254 0.94035 0.39047 0.0
O205 O 0.87656 0.91654 0.35585 0.0
C206 C 0.74439 0.98187 0.29654 0.0
O207 O 0.82196 0.92335 0.32104 0.0
C208 C 0.86485 1.00343 0.35263 0.0
C209 C 0.80069 1.01101 0.41512 0.0
O210 O 0.77942 0.9912 0.29373 0.0
O211 O 0.74063 0.9666 0.32644 0.0
O212 O 0.83332 0.01904 0.34251 0.0
O213 O 0.85945 0.9711 0.35518 0.0
O214 O 0.78058 1.00465 0.3863 0.0
O215 O 0.83047 0.9911 0.42519 0.0
C216 C 0.90322 0.93094 0.4538 0.0
O217 O 0.88412 0.90732 0.43731 0.0
O218 O 0.89467 0.96134 0.44012 0.0
C219 C 0.78969 0.90748 0.39427 0.0
Tb220 Tb 0.30056 0.58606 0.67037 0.0
C221 C 0.32948 0.59625 0.59241 0.0
Tb222 Tb 0.2673 0.54181 0.60859 0.0
O223 O 0.35617 0.5609 0.66683 0.0
O224 O 0.30765 0.53445 0.6504 0.0
O225 O 0.32412 0.61166 0.62338 0.0
C226 C 0.25329 0.48529 0.56942 0.0
O227 O 0.3144 0.5659 0.58369 0.0
C228 C 0.24258 0.60718 0.61298 0.0
C229 C 0.22692 0.53756 0.68116 0.0
O230 O 0.23001 0.51191 0.5731 0.0
O231 O 0.28418 0.49091 0.58742 0.0
O232 O 0.24281 0.58992 0.58367 0.0
O233 O 0.2522 0.58658 0.63736 0.0
O234 O 0.22943 0.52545 0.64892 0.0
O235 O 0.25068 0.56128 0.69463 0.0
C236 C 0.3171 0.62403 0.72752 0.0
O237 O 0.31598 0.59007 0.72586 0.0
O238 O 0.30831 0.63697 0.69674 0.0
C239 C 0.34358 0.53377 0.65056 0.0
C240 C 0.18462 0.29572 0.52075 0.0
C241 C 0.19171 0.28421 0.48679 0.0
C242 C 0.19687 0.3285 0.5325 0.0
C243 C 0.21634 0.3507 0.50963 0.0
C244 C 0.22437 0.33895 0.47552 0.0
C245 C 0.21218 0.3057 0.46457 0.0
C246 C 0.18824 0.33964 0.56925 0.0
C247 C 0.24473 0.36194 0.45025 0.0
C248 C 0.2103 0.44757 0.53319 0.0
C249 C 0.24504 0.45215 0.55102 0.0
C250 C 0.20127 0.41506 0.51822 0.0
C251 C 0.22745 0.38641 0.5215 0.0
C252 C 0.26308 0.39133 0.53856 0.0
C253 C 0.27149 0.42416 0.55296 0.0
C254 C 0.16315 0.41105 0.49991 0.0
C255 C 0.29171 0.36152 0.54294 0.0
H256 H 0.16898 0.27919 0.53815 0.0
H257 H 0.21742 0.29715 0.43818 0.0
H258 H 0.21483 0.34684 0.58336 0.0
H259 H 0.16926 0.36322 0.5686 0.0
H260 H 0.1743 0.31872 0.58423 0.0
H261 H 0.25016 0.34848 0.42518 0.0
H262 H 0.22745 0.38607 0.44477 0.0
H263 H 0.27226 0.37024 0.46187 0.0
H264 H 0.18986 0.46918 0.53156 0.0
H265 H 0.29846 0.4276 0.56668 0.0
H266 H 0.14554 0.39289 0.51498 0.0
H267 H 0.16688 0.39942 0.47373 0.0
H268 H 0.14744 0.43647 0.49689 0.0
H269 H 0.28011 0.34109 0.56011 0.0
H270 H 0.31915 0.37027 0.55453 0.0
H271 H 0.2972 0.34912 0.51741 0.0
C272 C 0.86838 0.03203 0.85208 0.0
C273 C 0.83354 0.03461 0.83353 0.0
C274 C 0.90136 0.01868 0.83654 0.0
C275 C 0.8995 1.00648 0.80173 0.0
C276 C 0.86458 1.00988 0.78248 0.0
C277 C 0.83212 0.02441 0.79846 0.0
C278 C 0.93796 0.01652 0.85791 0.0
C279 C 0.86098 0.99652 0.74562 0.0
C280 C 0.9934 0.98574 0.75649 0.0
C281 C 0.99901 0.95008 0.76462 0.0
C282 C 0.96103 1.00452 0.768 0.0
C283 C 0.93303 0.98699 0.78716 0.0
C284 C 0.93817 0.95076 0.79443 0.0
C285 C 0.97111 0.93299 0.78353 0.0
C286 C 0.95723 0.04327 0.7604 0.0
C287 C 0.9089 0.93064 0.81405 0.0
H288 H 0.86984 0.04035 0.87907 0.0
H289 H 0.80528 0.02627 0.78403 0.0
H290 H 0.94535 0.98869 0.8638 0.0
H291 H 0.96163 0.02745 0.84301 0.0
H292 H 0.93586 0.03086 0.88296 0.0
H293 H 0.83308 1.00375 0.73315 0.0
H294 H 0.88392 1.00698 0.7295 0.0
H295 H 0.86422 0.96752 0.74573 0.0
H296 H 0.01466 0.99912 0.74176 0.0
H297 H 0.97467 0.90528 0.78939 0.0
H298 H 0.95723 0.05803 0.78527 0.0
H299 H 0.92977 0.04924 0.74663 0.0
H300 H 0.98067 0.05286 0.74427 0.0
H301 H 0.90725 0.94062 0.8411 0.0
H302 H 0.91564 0.90208 0.81523 0.0
H303 H 0.88039 0.93456 0.80147 0.0
C304 C 0.29498 0.6797 0.02305 0.0
C305 C 0.28069 0.71284 0.01335 0.0
C306 C 0.27053 0.65232 0.02996 0.0
C307 C 0.23076 0.658 0.02592 0.0
C308 C 0.2161 0.69134 0.0154 0.0
C309 C 0.24139 0.71872 1.00976 0.0
C310 C 0.28739 0.61739 0.0419 0.0
C311 C 0.17396 0.69786 1.00973 0.0
C312 C 0.18752 0.56911 0.01969 0.0
C313 C 0.18044 0.56278 0.05485 0.0
C314 C 0.19947 0.60213 1.00874 0.0
C315 C 0.20528 0.62874 0.03383 0.0
C316 C 0.19419 0.62345 0.06862 0.0
C317 C 0.18147 0.59049 0.07864 0.0
C318 C 0.20963 0.60726 0.97111 0.0
C319 C 0.20017 0.65095 0.09631 0.0
H320 H 0.32545 0.67534 0.02585 0.0
H321 H 0.23056 0.7444 1.00181 0.0
H322 H 0.27542 0.60977 0.06725 0.0
H323 H 0.28 0.59676 0.02276 0.0
H324 H 0.31884 0.6179 0.04499 0.0
H325 H 0.16725 0.72515 1.00104 0.0
H326 H 0.16274 0.67952 0.98979 0.0
H327 H 0.15877 0.69272 0.03414 0.0
H328 H 0.18599 0.54777 1.00115 0.0
H329 H 0.17539 0.5857 0.1058 0.0
H330 H 0.24082 0.6039 0.96855 0.0
H331 H 0.2016 0.63409 0.96197 0.0
H332 H 0.19548 0.5879 0.95386 0.0
H333 H 0.23075 0.65118 0.10411 0.0
H334 H 0.18353 0.64557 0.1199 0.0
H335 H 0.19221 0.67746 0.08632 0.0
C336 C 0.56668 0.05861 0.17997 0.0
C337 C 0.55417 0.08622 0.20118 0.0
C338 C 0.59693 0.03616 0.19104 0.0
C339 C 0.61516 0.04175 0.22385 0.0
C340 C 0.60192 0.06896 0.24564 0.0
C341 C 0.57159 0.09061 0.23416 0.0
C342 C 0.60997 1.00709 0.16734 0.0
C343 C 0.62049 0.07596 0.28085 0.0
C344 C 0.67658 0.97807 0.27706 0.0
C345 C 0.71266 0.99197 0.27253 0.0
C346 C 0.64471 0.99177 0.25853 0.0
C347 C 0.64906 0.02048 0.23556 0.0
C348 C 0.68594 0.03275 0.22897 0.0
C349 C 0.7174 0.01813 0.24742 0.0
C350 C 0.60605 0.97734 0.26566 0.0
C351 C 0.69184 0.06345 0.20489 0.0
H352 H 0.55344 0.05497 0.15447 0.0
H353 H 0.56208 0.11159 0.251 0.0
H354 H 0.6384 0.01313 0.15735 0.0
H355 H 0.6128 0.98198 0.18196 0.0
H356 H 0.59009 1.00355 0.14473 0.0
H357 H 0.60651 0.09803 0.29471 0.0
H358 H 0.61957 0.05221 0.29756 0.0
H359 H 0.65084 0.08227 0.2776 0.0
H360 H 0.67299 0.95746 0.29618 0.0
H361 H 0.74536 0.02876 0.24378 0.0
H362 H 0.58895 0.97499 0.24112 0.0
H363 H 0.59051 0.99559 0.28296 0.0
H364 H 0.60817 0.95126 0.27863 0.0
H365 H 0.67534 0.06038 0.18013 0.0
H366 H 0.72228 0.06659 0.19881 0.0
H367 H 0.68145 0.08787 0.21743 0.0
C368 C 0.7434 0.18497 0.52113 0.0
C369 C 0.74853 0.21469 0.50023 0.0
C370 C 0.75452 0.15136 0.50998 0.0
C371 C 0.77139 0.14726 0.4771 0.0
C372 C 0.77845 0.17742 0.45665 0.0
C373 C 0.76683 0.21082 0.46843 0.0
C374 C 0.7464 0.12008 0.53265 0.0
C375 C 0.79673 0.17426 0.42161 0.0
C376 C 0.81994 0.0599 0.45513 0.0
C377 C 0.79195 0.0439 0.43426 0.0
C378 C 0.81373 0.09345 0.46937 0.0
C379 C 0.77855 0.11132 0.4629 0.0
C380 C 0.74981 0.09481 0.44276 0.0
C381 C 0.75692 0.06148 0.42858 0.0
C382 C 0.8452 0.11019 0.49047 0.0
C383 C 0.71169 0.11264 0.43558 0.0
H384 H 0.72933 0.18779 0.54581 0.0
H385 H 0.77082 0.2337 0.45218 0.0
H386 H 0.72439 0.10392 0.51966 0.0
H387 H 0.7723 0.10328 0.53625 0.0
H388 H 0.73617 0.12789 0.55872 0.0
H389 H 0.80368 0.20022 0.41051 0.0
H390 H 0.82317 0.15798 0.42384 0.0
H391 H 0.77716 0.16091 0.40309 0.0
H392 H 0.84731 0.0468 0.45926 0.0
H393 H 0.73512 0.0494 0.4125 0.0
H394 H 0.83484 0.118 0.51643 0.0
H395 H 0.85425 0.13438 0.47716 0.0
H396 H 0.87036 0.09239 0.49421 0.0
H397 H 0.69814 0.11953 0.46051 0.0
H398 H 0.69204 0.09592 0.4202 0.0
H399 H 0.71559 0.13743 0.42101 0.0
C400 C 0.05654 0.42817 0.75354 0.0
C401 C 0.02836 0.44704 0.77128 0.0
C402 C 0.08959 0.44441 0.7421 0.0
C403 C 0.09459 0.48075 0.74777 0.0
C404 C 0.06626 0.5 0.76563 0.0
C405 C 0.03376 0.48289 0.77746 0.0
C406 C 0.11911 0.42263 0.72361 0.0
C407 C 0.06987 0.53888 0.77158 0.0
C408 C 0.19468 0.51667 0.73564 0.0
C409 C 0.19287 0.52661 0.70041 0.0
C410 C 0.16273 0.50237 0.75182 0.0
C411 C 0.12799 0.49879 0.73253 0.0
C412 C 0.12575 0.51057 0.69749 0.0
C413 C 0.15815 0.52385 0.68187 0.0
C414 C 0.1666 0.48969 0.78904 0.0
C415 C 0.08934 0.50817 0.676 0.0
H416 H 0.0531 0.40038 0.74899 0.0
H417 H 0.0123 0.49776 0.79119 0.0
H418 H 0.12105 0.43168 0.69621 0.0
H419 H 0.14748 0.42596 0.7363 0.0
H420 H 0.11245 0.39429 0.72352 0.0
H421 H 0.04623 0.54989 0.78705 0.0
H422 H 0.09717 0.54434 0.78536 0.0
H423 H 0.07009 0.55276 0.74612 0.0
H424 H 0.22144 0.51857 0.75004 0.0
H425 H 0.15638 0.53189 0.65472 0.0
H426 H 0.16372 0.46079 0.78982 0.0
H427 H 0.14355 0.50115 0.80485 0.0
H428 H 0.19444 0.49645 0.80126 0.0
H429 H 0.08252 0.48025 0.67161 0.0
H430 H 0.09128 0.52131 0.65022 0.0
H431 H 0.06534 0.52028 0.69015 0.0
C432 C 0.81467 0.96026 1.00244 0.0
C433 C 0.77892 0.9661 0.98637 0.0
C434 C 0.82391 0.92802 0.01894 0.0
C435 C 0.79677 0.90102 0.01929 0.0
C436 C 0.76007 0.90748 1.00436 0.0
C437 C 0.75163 0.93989 0.98812 0.0
C438 C 0.8633 0.92231 0.03464 0.0
C439 C 0.73024 0.87959 1.00403 0.0
C440 C 0.83647 0.80756 0.02045 0.0
C441 C 0.83302 0.79766 0.0555 0.0
C442 C 0.82411 0.84074 1.00837 0.0
C443 C 0.808 0.86501 0.0319 0.0
C444 C 0.8034 0.85492 0.06716 0.0
C445 C 0.81582 0.82128 0.07852 0.0
C446 C 0.8292 0.85011 0.9705 0.0
C447 C 0.78648 0.88002 0.09309 0.0
H448 H 0.8358 0.98047 1.0012 0.0
H449 H 0.72383 0.94432 0.97587 0.0
H450 H 0.86168 0.91191 0.06159 0.0
H451 H 0.87899 0.90252 0.01915 0.0
H452 H 0.87982 0.94682 0.03526 0.0
H453 H 0.70207 0.88983 0.99449 0.0
H454 H 0.73918 0.85777 0.98685 0.0
H455 H 0.72717 0.86852 0.03057 0.0
H456 H 0.84954 0.78948 1.00238 0.0
H457 H 0.8134 0.81402 0.10571 0.0
H458 H 0.84862 0.87254 0.96851 0.0
H459 H 0.80154 0.85842 0.9583 0.0
H460 H 0.84107 0.82789 0.95533 0.0
H461 H 0.80485 0.90317 0.09601 0.0
H462 H 0.78335 0.86775 0.11915 0.0
H463 H 0.75818 0.88971 0.08347 0.0
C464 C 0.3769 0.55066 0.29803 0.0
C465 C 0.41349 0.54543 0.28519 0.0
C466 C 0.34549 0.53377 0.28278 0.0
C467 C 0.35085 0.51137 0.25386 0.0
C468 C 0.38805 0.50488 0.24183 0.0
C469 C 0.41892 0.52192 0.25771 0.0
C470 C 0.30639 0.54116 0.29661 0.0
C471 C 0.39504 0.48133 0.211 0.0
C472 C 0.27237 0.45159 0.22038 0.0
C473 C 0.25668 0.47142 0.19245 0.0
C474 C 0.3025 0.46448 0.2412 0.0
C475 C 0.31742 0.49784 0.23377 0.0
C476 C 0.30124 0.51816 0.20604 0.0
C477 C 0.27113 0.5048 0.18588 0.0
C478 C 0.31882 0.44216 0.27073 0.0
C479 C 0.3163 0.55381 0.19707 0.0
H480 H 0.37264 0.56871 0.3194 0.0
H481 H 0.4472 0.51773 0.24778 0.0
H482 H 0.28942 0.55692 0.27723 0.0
H483 H 0.29124 0.51631 0.30069 0.0
H484 H 0.30749 0.55579 0.32158 0.0
H485 H 0.42582 0.47655 0.20681 0.0
H486 H 0.38126 0.45574 0.21467 0.0
H487 H 0.38222 0.49356 0.18707 0.0
H488 H 0.26148 0.42581 0.22576 0.0
H489 H 0.25933 0.52054 0.1645 0.0
H490 H 0.31902 0.45727 0.29538 0.0
H491 H 0.34874 0.43474 0.26538 0.0
H492 H 0.30256 0.41785 0.27453 0.0
H493 H 0.31517 0.57123 0.22012 0.0
H494 H 0.30001 0.56664 0.17517 0.0
H495 H 0.34651 0.55125 0.18973 0.0
C496 C 0.53786 0.26278 0.2939 0.0
C497 C 0.51073 0.23668 0.28979 0.0
C498 C 0.55004 0.27353 0.32736 0.0
C499 C 0.53447 0.25796 0.35733 0.0
C500 C 0.50563 0.23288 0.35314 0.0
C501 C 0.49425 0.22245 0.31945 0.0
C502 C 0.58084 0.30035 0.33064 0.0
C503 C 0.48793 0.2159 0.38425 0.0
C504 C 0.59813 0.25384 0.43894 0.0
C505 C 0.58456 0.2824 0.45833 0.0
C506 C 0.58162 0.24531 0.40645 0.0
C507 C 0.55058 0.26572 0.39283 0.0
C508 C 0.53574 0.29374 0.41282 0.0
C509 C 0.55289 0.30176 0.44531 0.0
C510 C 0.59823 0.21505 0.38618 0.0
C511 C 0.5025 0.31594 0.39938 0.0
H512 H 0.55067 0.27379 0.27102 0.0
H513 H 0.47304 0.2024 0.31637 0.0
H514 H 0.57195 0.3218 0.3483 0.0
H515 H 0.60693 0.28788 0.34234 0.0
H516 H 0.58793 0.31189 0.30504 0.0
H517 H 0.46317 0.19974 0.37665 0.0
H518 H 0.50938 0.1988 0.39798 0.0
H519 H 0.47852 0.23611 0.40304 0.0
H520 H 0.62247 0.23859 0.44871 0.0
H521 H 0.54221 0.32395 0.45994 0.0
H522 H 0.60938 0.22478 0.36121 0.0
H523 H 0.57583 0.19594 0.37967 0.0
H524 H 0.62167 0.20114 0.40083 0.0
H525 H 0.51071 0.33042 0.37569 0.0
H526 H 0.49268 0.33522 0.41901 0.0
H527 H 0.47838 0.29908 0.39179 0.0
C528 C 0.99634 0.2236 0.55395 0.0
C529 C 0.03593 0.22643 0.55446 0.0
C530 C 0.97521 0.23476 0.58258 0.0
C531 C 0.99429 0.25004 0.61149 0.0
C532 C 0.03438 0.25245 0.61209 0.0
C533 C 0.05473 0.24009 0.58375 0.0
C534 C 0.93263 0.23076 0.58167 0.0
C535 C 0.05581 0.26918 0.64215 0.0
C536 C 0.95156 0.31843 0.66975 0.0
C537 C 0.95225 0.30041 0.70159 0.0
C538 C 0.96225 0.30147 0.63915 0.0
C539 C 0.97293 0.2655 0.64057 0.0
C540 C 0.9697 0.24641 0.67203 0.0
C541 C 0.9599 0.26428 0.70245 0.0
C542 C 0.96581 0.32291 0.60626 0.0
C543 C 0.97948 0.20775 0.67418 0.0
H544 H 0.98197 0.2127 0.53127 0.0
H545 H 0.0854 0.24229 0.58401 0.0
H546 H 0.92321 0.21896 0.6064 0.0
H547 H 0.91848 0.25691 0.57906 0.0
H548 H 0.92287 0.21421 0.55957 0.0
H549 H 0.08696 0.26936 0.63819 0.0
H550 H 0.04557 0.29663 0.64553 0.0
H551 H 0.05055 0.25488 0.66673 0.0
H552 H 0.9452 0.34636 0.66911 0.0
H553 H 0.95969 0.25027 0.72709 0.0
H554 H 0.95361 0.30898 0.58343 0.0
H555 H 0.99636 0.32696 0.60132 0.0
H556 H 0.95144 0.34901 0.6082 0.0
H557 H 0.96829 0.19385 0.65086 0.0
H558 H 0.96797 0.1955 0.69792 0.0
H559 H 0.01083 0.20399 0.67502 0.0
C560 C 0.01076 0.77041 0.82432 0.0
C561 C 0.04821 0.77924 0.81744 0.0
C562 C 1.00194 0.75374 0.8556 0.0
C563 C 0.03143 0.74556 0.88028 0.0
C564 C 0.06973 0.7511 0.87174 0.0
C565 C 0.0777 0.76821 0.84039 0.0
C566 C 0.96071 0.74822 0.86366 0.0
C567 C 0.102 0.74181 0.89696 0.0
C568 C 1.00113 0.7614 0.97253 0.0
C569 C 0.99177 0.7277 0.98339 0.0
C570 C 0.01574 0.76717 0.93953 0.0
C571 C 0.02147 0.73839 0.91693 0.0
C572 C 0.01425 0.70393 0.92857 0.0
C573 C 0.99918 0.69898 0.96178 0.0
C574 C 0.02295 0.8044 0.92819 0.0
C575 C 0.02055 0.67254 0.90548 0.0
H576 H 0.98799 0.77863 0.80636 0.0
H577 H 0.10679 0.77466 0.83482 0.0
H578 H 0.95675 0.72171 0.87476 0.0
H579 H 0.95161 0.7676 0.88345 0.0
H580 H 0.94186 0.75145 0.84015 0.0
H581 H 0.12983 0.74112 0.88392 0.0
H582 H 0.10326 0.76169 0.91797 0.0
H583 H 0.09745 0.71598 0.90941 0.0
H584 H 0.99558 0.7836 0.98936 0.0
H585 H 0.99196 0.67286 0.97028 0.0
H586 H 1.00352 0.81168 0.90598 0.0
H587 H 0.05247 0.8067 0.91913 0.0
H588 H 0.01854 0.82358 0.94949 0.0
H589 H 0.99671 0.67094 0.88613 0.0
H590 H 0.02184 0.64771 0.92074 0.0
H591 H 0.04719 0.67494 0.89088 0.0
C592 C 0.45054 0.70399 0.23437 0.0
C593 C 0.48752 0.70105 0.24874 0.0
C594 C 0.44362 0.71811 0.2006 0.0
C595 C 0.47452 0.72813 0.17984 0.0
C596 C 0.51194 0.72511 0.19432 0.0
C597 C 0.51786 0.71229 0.22864 0.0
C598 C 0.40316 0.72183 0.18694 0.0
C599 C 0.54597 0.73391 0.17303 0.0
C600 C 0.45452 0.72756 0.08102 0.0
C601 C 0.45053 0.76338 0.07307 0.0
C602 C 0.46399 0.71589 0.11519 0.0
C603 C 0.46776 0.74049 0.14269 0.0
C604 C 0.46394 0.77679 0.13463 0.0
C605 C 0.45599 0.78776 0.09992 0.0
C606 C 0.46915 0.67707 0.12196 0.0
C607 C 0.46633 0.80401 0.16298 0.0
H608 H 0.42698 0.69514 0.24955 0.0
H609 H 0.54666 0.70938 0.23912 0.0
H610 H 0.39768 0.74876 0.17671 0.0
H611 H 0.39843 0.70344 0.16502 0.0
H612 H 0.38223 0.71629 0.20734 0.0
H613 H 0.57318 0.73047 0.18809 0.0
H614 H 0.54687 0.71679 0.14973 0.0
H615 H 0.54361 0.76137 0.16353 0.0
H616 H 0.44974 0.70859 0.06049 0.0
H617 H 0.45185 0.81544 0.09412 0.0
H618 H 0.44572 0.66764 0.13811 0.0
H619 H 0.49617 0.67175 0.13676 0.0
H620 H 0.46941 0.6617 0.09743 0.0
H621 H 0.44346 0.79982 0.18186 0.0
H622 H 0.46343 0.83115 0.1525 0.0
H623 H 0.49381 0.80136 0.17761 0.0
C624 C 0.08965 0.2215 0.34304 0.0
C625 C 0.10477 0.24065 0.37089 0.0
C626 C 0.09552 0.23215 0.30856 0.0
C627 C 0.11554 0.26331 0.30242 0.0
C628 C 0.13044 0.28279 0.33083 0.0
C629 C 0.12559 0.27067 0.36478 0.0
C630 C 0.08083 0.20999 0.27885 0.0
C631 C 0.15099 0.31674 0.32549 0.0
C632 C 0.16162 0.29361 0.2204 0.0
C633 C 0.13473 0.31863 0.20842 0.0
C634 C 0.15406 0.27231 0.24919 0.0
C635 C 0.11941 0.2772 0.26668 0.0
C636 C 0.09112 0.30059 0.2529 0.0
C637 C 0.09897 0.32066 0.2235 0.0
C638 C 0.18415 0.24646 0.26237 0.0
C639 C 0.05424 0.30733 0.27129 0.0
H640 H 0.07438 0.19771 0.34823 0.0
H641 H 0.13751 0.28501 0.3867 0.0
H642 H 0.05974 0.2252 0.26268 0.0
H643 H 0.10456 0.20255 0.26168 0.0
H644 H 0.0673 0.18573 0.28815 0.0
H645 H 0.15943 0.32924 0.35054 0.0
H646 H 0.17695 0.31189 0.31031 0.0
H647 H 0.13252 0.33549 0.31031 0.0
H648 H 0.18909 0.29178 0.20829 0.0
H649 H 0.0781 0.33998 0.21406 0.0
H650 H 0.17129 0.22076 0.26785 0.0
H651 H 0.19702 0.25594 0.28719 0.0
H652 H 0.20715 0.24264 0.24337 0.0
H653 H 0.04093 0.28236 0.27859 0.0
H654 H 0.03354 0.32298 0.255 0.0
H655 H 0.06013 0.32193 0.29574 0.0
C656 C 0.03317 0.88733 0.62311 0.0
C657 C 0.01075 0.88414 0.65261 0.0
C658 C 0.01711 0.89723 0.59069 0.0
C659 C 0.97754 0.90412 0.58762 0.0
C660 C 0.95478 0.9016 0.61751 0.0
C661 C 0.97168 0.89142 0.64972 0.0
C662 C 0.04238 0.89936 0.55954 0.0
C663 C 0.91254 0.90912 0.6153 0.0
C664 C 0.93888 0.95231 0.50661 0.0
C665 C 0.92522 0.92445 0.48653 0.0
C666 C 0.95611 0.94619 0.53963 0.0
C667 C 0.95972 0.91141 0.55265 0.0
C668 C 0.94678 0.8832 0.53197 0.0
C669 C 0.92966 0.89009 0.4992 0.0
C670 C 0.96978 0.97691 0.56085 0.0
C671 C 0.95054 0.84572 0.54465 0.0
H672 H 0.06339 0.88141 0.6252 0.0
H673 H 0.95441 0.88921 0.6726 0.0
H674 H 0.03411 0.87921 0.54016 0.0
H675 H 0.03879 0.9253 0.54658 0.0
H676 H 0.07291 0.89522 0.56678 0.0
H677 H 0.89932 0.90834 0.64128 0.0
H678 H 0.90681 0.93532 0.6034 0.0
H679 H 0.8986 0.88954 0.59822 0.0
H680 H 0.93529 0.97892 0.49688 0.0
H681 H 0.91906 0.86849 0.48373 0.0
H682 H 1.00037 0.97331 0.56789 0.0
H683 H 0.95415 0.97837 0.58557 0.0
H684 H 0.96572 1.0022 0.54666 0.0
H685 H 0.9808 0.839 0.55071 0.0
H686 H 0.93951 0.82676 0.52516 0.0
H687 H 0.93474 0.84254 0.56909 0.0
C688 C 0.33801 0.6259 0.79035 0.0
C689 C 0.32907 0.64394 0.75914 0.0
C690 C 0.35107 0.64362 0.82033 0.0
C691 C 0.35559 0.68042 0.81925 0.0
C692 C 0.34608 0.69889 0.7879 0.0
C693 C 0.3329 0.68045 0.75826 0.0
C694 C 0.36029 0.62285 0.85315 0.0
C695 C 0.35026 0.73811 0.78556 0.0
C696 C 0.35936 0.73181 0.90464 0.0
C697 C 0.39851 0.73685 0.90983 0.0
C698 C 0.34508 0.71328 0.87563 0.0
C699 C 0.37047 0.69944 0.85085 0.0
C700 C 0.41013 0.70373 0.8564 0.0
C701 C 0.42366 0.72223 0.88583 0.0
C702 C 0.30266 0.70922 0.87114 0.0
C703 C 0.43827 0.6895 0.83073 0.0
H704 H 0.33506 0.59769 0.79131 0.0
H705 H 0.32602 0.69458 0.73428 0.0
H706 H 0.39071 0.62573 0.86065 0.0
H707 H 0.34334 0.63318 0.87498 0.0
H708 H 0.35447 0.59451 0.85003 0.0
H709 H 0.34102 0.74875 0.75965 0.0
H710 H 0.33323 0.75121 0.80587 0.0
H711 H 0.38039 0.74496 0.79058 0.0
H712 H 0.33966 0.7431 0.92294 0.0
H713 H 0.45391 0.7262 0.88942 0.0
H714 H 0.29577 0.68117 0.8678 0.0
H715 H 0.29238 0.72327 0.84723 0.0
H716 H 0.2869 0.71971 0.89369 0.0
H717 H 0.43483 0.66084 0.82765 0.0
H718 H 0.46815 0.6945 0.83895 0.0
H719 H 0.43269 0.70174 0.80476 0.0
C720 C 0.52853 0.16782 0.0715 0.0
C721 C 0.54875 0.17383 0.10283 0.0
C722 C 0.54754 0.15922 0.04068 0.0
C723 C 0.58778 0.15629 0.04118 0.0
C724 C 0.60827 0.16291 0.07272 0.0
C725 C 0.58855 0.17171 0.10303 0.0
C726 C 0.52448 0.1524 1.0078 0.0
C727 C 0.65108 0.15956 0.07475 0.0
C728 C 0.63834 0.09454 0.97928 0.0
C729 C 0.65534 0.11767 0.95597 0.0
C730 C 0.61517 0.10672 1.00606 0.0
C731 C 0.60845 0.14316 1.00991 0.0
C732 C 0.62375 0.16667 0.98534 0.0
C733 C 0.64702 0.15364 0.95857 0.0
C734 C 0.59943 0.0805 0.03127 0.0
C735 C 0.61681 0.20567 0.9882 0.0
H736 H 0.49775 0.16963 0.07112 0.0
H737 H 0.60434 0.17631 0.12716 0.0
H738 H 0.53562 0.16761 0.98571 0.0
H739 H 0.52691 0.12424 1.00093 0.0
H740 H 0.49392 0.15932 0.01069 0.0
H741 H 0.66293 0.16738 0.10062 0.0
H742 H 0.65994 0.13199 0.06975 0.0
H743 H 0.66375 0.17605 0.05438 0.0
H744 H 0.64404 0.06661 0.97725 0.0
H745 H 0.66003 0.17169 0.94077 0.0
H746 H 0.56829 0.08446 0.03345 0.0
H747 H 0.61237 0.08445 0.05761 0.0
H748 H 0.60517 0.05296 0.0233 0.0
H749 H 0.58602 0.21155 0.99085 0.0
H750 H 0.62722 0.22012 0.96525 0.0
H751 H 0.63156 0.21556 0.01198 0.0
C752 C 0.69147 0.25119 0.62413 0.0
C753 C 0.65291 0.25531 0.61439 0.0
C754 C 0.70299 0.23096 0.65358 0.0
C755 C 0.6753 0.21469 0.67409 0.0
C756 C 0.63641 0.21822 0.66387 0.0
C757 C 0.62577 0.23823 0.63415 0.0
C758 C 0.74475 0.22761 0.66313 0.0
C759 C 0.60584 0.20157 0.6849 0.0
C760 C 0.70094 0.13812 0.73544 0.0
C761 C 0.70289 0.15452 0.76811 0.0
C762 C 0.69318 0.15747 0.70463 0.0
C763 C 0.68665 0.1942 0.70638 0.0
C764 C 0.68919 0.21098 0.73931 0.0
C765 C 0.69749 0.19099 0.7697 0.0
C766 C 0.69141 0.13848 0.67019 0.0
C767 C 0.68225 0.24998 0.74254 0.0
H768 H 0.71265 0.26444 0.60919 0.0
H769 H 0.59592 0.2413 0.62693 0.0
H770 H 0.7504 0.24035 0.68863 0.0
H771 H 0.75328 0.19957 0.666 0.0
H772 H 0.76285 0.23987 0.64334 0.0
H773 H 0.57694 0.20651 0.67339 0.0
H774 H 0.61099 0.17283 0.68675 0.0
H775 H 0.60669 0.212 0.71186 0.0
H776 H 0.70534 0.10997 0.73394 0.0
H777 H 0.69906 0.20386 0.79483 0.0
H778 H 0.71066 0.15081 0.65147 0.0
H779 H 0.66219 0.14059 0.65875 0.0
H780 H 0.69944 0.11028 0.67291 0.0
H781 H 0.70171 0.26436 0.72553 0.0
H782 H 0.6864 0.25927 0.76975 0.0
H783 H 0.65278 0.25679 0.73361 0.0
C784 C 0.07031 0.3813 0.04461 0.0
C785 C 0.1096 0.38471 0.04217 0.0
C786 C 0.04807 0.37265 0.01512 0.0
C787 C 0.06592 0.36702 0.98286 0.0
C788 C 0.10602 0.36808 0.98111 0.0
C789 C 0.12738 0.37743 0.01079 0.0
C790 C 1.00539 0.37225 0.01788 0.0
C791 C 0.12616 0.36172 0.94736 0.0
C792 C 0.01142 0.33005 0.90507 0.0
C793 C 1.00324 0.36057 0.88565 0.0
C794 C 0.03133 0.33164 0.9372 0.0
C795 C 0.04276 0.36459 0.95015 0.0
C796 C 0.03383 0.39551 0.93083 0.0
C797 C 0.01468 0.39301 0.89856 0.0
C798 C 0.04087 0.29814 0.95686 0.0
C799 C 0.04511 0.43123 0.9439 0.0
H800 H 0.05679 0.38754 0.06897 0.0
H801 H 0.15786 0.38044 1.00917 0.0
H802 H 0.99277 0.39566 1.00437 0.0
H803 H 0.99364 0.34879 1.00486 0.0
H804 H 0.99638 0.37256 0.04542 0.0
H805 H 0.15742 0.35886 0.95145 0.0
H806 H 0.11548 0.33776 0.93444 0.0
H807 H 0.1203 0.38408 0.92929 0.0
H808 H 1.00261 0.3049 0.89499 0.0
H809 H 1.00935 0.41646 0.88309 0.0
H810 H 0.03054 0.29985 0.98389 0.0
H811 H 0.07218 0.29422 0.95869 0.0
H812 H 0.02828 0.27485 0.94408 0.0
H813 H 0.03459 0.43546 0.97061 0.0
H814 H 0.03376 0.45277 0.9268 0.0
H815 H 0.07654 0.43284 0.94533 0.0
C816 C 0.85597 0.88597 0.26696 0.0
C817 C 0.87101 0.88428 0.30116 0.0
C818 C 0.86904 0.86332 0.24112 0.0
C819 C 0.89757 0.83788 0.2497 0.0
C820 C 0.91323 0.83614 0.28408 0.0
C821 C 0.89995 0.85964 0.30944 0.0
C822 C 0.85192 0.8664 0.20465 0.0
C823 C 0.94335 0.80902 0.29419 0.0
C824 C 0.89568 0.7615 0.18723 0.0
C825 C 0.92343 0.77083 0.16369 0.0
C826 C 0.88857 0.78192 0.21672 0.0
C827 C 0.9097 0.81261 0.22259 0.0
C828 C 0.93915 0.82122 0.19975 0.0
C829 C 0.94575 0.80009 0.17054 0.0
C830 C 0.85703 0.77168 0.24046 0.0
C831 C 0.96214 0.85383 0.20499 0.0
H832 H 0.83393 0.90525 0.26021 0.0
H833 H 0.91158 0.85821 0.33585 0.0
H834 H 0.87463 0.87018 0.18554 0.0
H835 H 0.8373 0.84183 0.19761 0.0
H836 H 0.83108 0.88857 0.20196 0.0
H837 H 0.95366 0.81196 0.32161 0.0
H838 H 0.93174 0.78237 0.29095 0.0
H839 H 0.96789 0.81093 0.27675 0.0
H840 H 0.87883 0.73871 0.1821 0.0
H841 H 0.96739 0.80725 0.15235 0.0
H842 H 0.83293 0.79074 0.23741 0.0
H843 H 0.86694 0.77241 0.26812 0.0
H844 H 0.84637 0.74506 0.23461 0.0
H845 H 0.9438 0.87732 0.19958 0.0
H846 H 0.98682 0.85456 0.18754 0.0
H847 H 0.97264 0.85562 0.23242 0.0
C848 C 0.33336 0.61429 0.53051 0.0
C849 C 0.35029 0.6135 0.56405 0.0
C850 C 0.35406 0.62296 0.50097 0.0
C851 C 0.39307 0.63081 0.50473 0.0
C852 C 0.41004 0.63152 0.53877 0.0
C853 C 0.3884 0.62291 0.5681 0.0
C854 C 0.33447 0.62214 0.4655 0.0
C855 C 0.4515 0.63975 0.54402 0.0
C856 C 0.45402 0.61443 0.42478 0.0
C857 C 0.45727 0.64833 0.41099 0.0
C858 C 0.43375 0.60845 0.45546 0.0
C859 C 0.41602 0.63699 0.47281 0.0
C860 C 0.4187 0.67116 0.45859 0.0
C861 C 0.43922 0.67639 0.42799 0.0
C862 C 0.43156 0.57154 0.4695 0.0
C863 C 0.40003 0.70231 0.47583 0.0
H864 H 0.30394 0.60678 0.52723 0.0
H865 H 0.40182 0.62162 0.59383 0.0
H866 H 0.33869 0.64714 0.45139 0.0
H867 H 0.34714 0.60083 0.44968 0.0
H868 H 0.30347 0.61775 0.4672 0.0
H869 H 0.45978 0.64187 0.57206 0.0
H870 H 0.46919 0.61878 0.53217 0.0
H871 H 0.45805 0.66468 0.5307 0.0
H872 H 0.46808 0.59262 0.41203 0.0
H873 H 0.44164 0.7027 0.41763 0.0
H874 H 0.40145 0.56358 0.47021 0.0
H875 H 0.44314 0.57038 0.49666 0.0
H876 H 0.44753 0.55232 0.45352 0.0
H877 H 0.36892 0.6985 0.47698 0.0
H878 H 0.40509 0.72725 0.46181 0.0
H879 H 0.41098 0.7047 0.50307 0.0
C880 C 0.29038 0.15664 0.36417 0.0
C881 C 0.25383 0.16759 0.35286 0.0
C882 C 0.31995 0.15252 0.34055 0.0
C883 C 0.31277 0.15933 0.30467 0.0
C884 C 0.27589 0.17061 0.29312 0.0
C885 C 0.24689 0.17481 0.31743 0.0
C886 C 0.35875 0.14034 0.35392 0.0
C887 C 0.26701 0.17827 0.25511 0.0
C888 C 0.39543 0.17271 0.24385 0.0
C889 C 0.39809 0.13986 0.22787 0.0
C890 C 0.36825 0.17938 0.26944 0.0
C891 C 0.34319 0.15254 0.27901 0.0
C892 C 0.34652 0.11909 0.26341 0.0
C893 C 0.37376 0.11327 0.2379 0.0
C894 C 0.36546 0.21545 0.28525 0.0
C895 C 0.32048 0.08972 0.27283 0.0
H896 H 0.29592 0.15121 0.39161 0.0
H897 H 0.21873 0.18354 0.30868 0.0
H898 H 0.36628 0.11469 0.34215 0.0
H899 H 0.38058 0.1592 0.34608 0.0
H900 H 0.36007 0.13747 0.38276 0.0
H901 H 0.23602 0.18168 0.24973 0.0
H902 H 0.28132 0.20266 0.24739 0.0
H903 H 0.2779 0.15682 0.23841 0.0
H904 H 0.41321 0.19368 0.23519 0.0
H905 H 0.37555 0.08796 0.22522 0.0
H906 H 0.36601 0.2136 0.31412 0.0
H907 H 0.33799 0.22814 0.27712 0.0
H908 H 0.38892 0.23249 0.27713 0.0
H909 H 0.32185 0.08497 0.30139 0.0
H910 H 0.32781 0.06486 0.25937 0.0
H911 H 0.29066 0.09726 0.26571 0.0
C912 C 0.12893 0.12962 0.53446 0.0
C913 C 0.16513 0.13416 0.521 0.0
C914 C 0.12275 0.10449 0.56017 0.0
C915 C 0.15343 0.08277 0.5721 0.0
C916 C 0.19047 0.08824 0.55978 0.0
C917 C 0.19597 0.11422 0.53445 0.0
C918 C 0.08292 0.09991 0.57302 0.0
C919 C 0.22376 0.06531 0.57177 0.0
C920 C 0.13796 0.02785 0.65285 0.0
C921 C 0.12627 0.99622 0.63805 0.0
C922 C 0.14761 0.0562 0.6317 0.0
C923 C 0.14582 0.0525 0.59503 0.0
C924 C 0.13453 0.02036 0.58002 0.0
C925 C 0.12465 0.99261 0.60178 0.0
C926 C 0.15884 0.0903 0.64852 0.0
C927 C 0.13237 0.01545 0.54097 0.0
H928 H 0.10496 0.14473 0.52385 0.0
H929 H 0.22394 0.1176 0.52387 0.0
H930 H 0.07137 0.07503 0.5628 0.0
H931 H 0.08309 0.09827 0.6019 0.0
H932 H 0.06343 0.12176 0.56451 0.0
H933 H 0.2512 0.07509 0.56233 0.0
H934 H 0.22529 0.06371 0.60064 0.0
H935 H 0.21986 0.0383 0.56187 0.0
H936 H 0.13917 0.03057 0.68097 0.0
H937 H 0.11571 0.96805 0.59041 0.0
H938 H 0.1379 0.11127 0.64093 0.0
H939 H 0.18689 0.09845 0.63916 0.0
H940 H 0.16033 0.08839 0.67743 0.0
H941 H 0.11046 0.03355 0.52929 0.0
H942 H 0.12516 0.9882 0.53359 0.0
H943 H 0.15993 0.02197 0.52939 0.0
C944 C 0.20152 0.91411 0.78629 0.0
C945 C 0.17029 0.89177 0.78549 0.0
C946 C 0.23137 0.9096 0.81086 0.0
C947 C 0.23042 0.88165 0.83508 0.0
C948 C 0.19809 0.85997 0.83558 0.0
C949 C 0.16818 0.86551 0.81087 0.0
C950 C 0.26483 0.93371 0.80971 0.0
C951 C 0.19599 0.82981 0.86098 0.0
C952 C 0.32461 0.84282 0.86974 0.0
C953 C 0.3267 0.85684 0.90334 0.0
C954 C 0.29381 0.85127 0.84699 0.0
C955 C 0.26426 0.874 0.85836 0.0
C956 C 0.26713 0.88924 0.89191 0.0
C957 C 0.29822 0.88023 0.91411 0.0
C958 C 0.29198 0.83444 0.81145 0.0
C959 C 0.23648 0.91372 0.905 0.0
H960 H 0.20323 0.93467 0.76681 0.0
H961 H 0.14437 0.8481 0.81028 0.0
H962 H 0.27129 0.94432 0.83604 0.0
H963 H 0.29038 0.91876 0.80142 0.0
H964 H 0.25969 0.956 0.79136 0.0
H965 H 0.16789 0.81705 0.85977 0.0
H966 H 0.2183 0.80987 0.85513 0.0
H967 H 0.20155 0.83899 0.888 0.0
H968 H 0.34593 0.82365 0.86202 0.0
H969 H 0.29921 0.88999 0.94062 0.0
H970 H 0.28691 0.85466 0.7909 0.0
H971 H 0.26782 0.81622 0.81006 0.0
H972 H 0.31849 0.81953 0.80562 0.0
H973 H 0.23061 0.93523 0.88595 0.0
H974 H 0.24434 0.92536 0.93062 0.0
H975 H 0.20973 0.89921 0.90778 0.0
C976 C 0.39449 0.05164 0.06407 0.0
C977 C 0.43166 0.06392 0.06259 0.0
C978 C 0.38561 0.01783 0.05277 0.0
C979 C 0.41433 0.99618 0.03844 0.0
C980 C 0.45115 1.00967 0.03395 0.0
C981 C 0.4596 0.04325 0.0467 0.0
C982 C 0.34621 1.00437 0.05876 0.0
C983 C 0.48217 0.98806 0.01744 0.0
C984 C 0.40378 0.89829 0.05281 0.0
C985 C 0.38436 0.88856 0.02228 0.0
C986 C 0.41422 0.93321 0.05818 0.0
C987 C 0.40646 0.95855 0.03163 0.0
C988 C 0.38842 0.94825 0.99998 0.0
C989 C 0.37674 0.91346 0.99603 0.0
C990 C 0.43251 0.94317 0.09266 0.0
C991 C 0.38148 0.97395 0.97038 0.0
H992 H 0.3728 0.06749 0.07644 0.0
H993 H 0.48837 0.05274 0.04542 0.0
H994 H 0.33373 0.99381 0.03425 0.0
H995 H 0.34793 0.98254 0.078 0.0
H996 H 0.32668 0.02504 0.0687 0.0
H997 H 0.50558 1.00467 1.0084 0.0
H998 H 0.49427 0.96896 0.03678 0.0
H999 H 0.47073 0.97302 0.99499 0.0
H1000 H 0.40992 0.87871 0.07286 0.0
H1001 H 0.36226 0.90559 0.97217 0.0
H1002 H 0.41477 0.9635 0.10549 0.0
H1003 H 0.46073 0.95459 0.08842 0.0
H1004 H 0.43624 0.9204 0.11065 0.0
H1005 H 0.3697 0.96116 0.94661 0.0
H1006 H 0.40848 0.98668 0.96382 0.0
H1007 H 0.36133 0.99497 0.97836 0.0
C1008 C 0.8488 0.37877 0.74027 0.0
C1009 C 0.86331 0.412 0.74745 0.0
C1010 C 0.82239 0.37375 0.71286 0.0
C1011 C 0.81041 0.40263 0.69171 0.0
C1012 C 0.82536 0.43622 0.69851 0.0
C1013 C 0.85152 0.44056 0.72649 0.0
C1014 C 0.80715 0.33749 0.70669 0.0
C1015 C 0.81377 0.46748 0.67618 0.0
C1016 C 0.76974 0.37502 0.60375 0.0
C1017 C 0.73051 0.37588 0.60956 0.0
C1018 C 0.79596 0.38569 0.62955 0.0
C1019 C 0.78274 0.39709 0.66223 0.0
C1020 C 0.74308 0.39965 0.66767 0.0
C1021 C 0.71739 0.38926 0.64114 0.0
C1022 C 0.83793 0.38298 0.62244 0.0
C1023 C 0.72783 0.41125 0.70227 0.0
H1024 H 0.85771 0.35659 0.75645 0.0
H1025 H 0.86273 0.46627 0.73196 0.0
H1026 H 0.77569 0.33814 0.70792 0.0
H1027 H 0.81457 0.32837 0.68025 0.0
H1028 H 0.81861 0.31804 0.72608 0.0
H1029 H 0.82819 0.49174 0.68467 0.0
H1030 H 0.82063 0.46228 0.64859 0.0
H1031 H 0.78259 0.47201 0.67715 0.0
H1032 H 0.78009 0.36501 0.57927 0.0
H1033 H 0.68716 0.38979 0.64589 0.0
H1034 H 0.85118 0.36141 0.63831 0.0
H1035 H 0.85224 0.40753 0.63008 0.0
H1036 H 0.8434 0.37771 0.59453 0.0
H1037 H 0.73516 0.3911 0.72241 0.0
H1038 H 0.69646 0.41521 0.70124 0.0
H1039 H 0.74111 0.43602 0.71072 0.0
C1040 C 0.94414 0.51117 0.93075 0.0
C1041 C 0.91284 0.49977 0.91084 0.0
C1042 C 0.94065 0.53971 0.95358 0.0
C1043 C 0.90493 0.55704 0.9567 0.0
C1044 C 0.87349 0.54606 0.93599 0.0
C1045 C 0.87785 0.51759 0.91327 0.0
C1046 C 0.97487 0.55064 0.97511 0.0
C1047 C 0.83484 0.56359 0.93877 0.0
C1048 C 0.87958 0.59687 0.04342 0.0
C1049 C 0.88147 0.63292 0.03666 0.0
C1050 C 0.88808 0.5721 0.01786 0.0
C1051 C 0.89907 0.58355 0.98456 0.0
C1052 C 0.9023 0.61997 0.9778 0.0
C1053 C 0.89312 0.64436 1.00396 0.0
C1054 C 0.88422 0.53362 0.0263 0.0
C1055 C 0.91472 0.63312 0.94282 0.0
H1056 H 0.97136 0.49762 0.92865 0.0
H1057 H 0.8537 0.509 0.89767 0.0
H1058 H 0.97886 0.57932 0.97273 0.0
H1059 H 0.97031 0.54486 1.00304 0.0
H1060 H 1.00134 0.53682 0.96719 0.0
H1061 H 0.81408 0.55372 0.91904 0.0
H1062 H 0.82361 0.55881 0.9651 0.0
H1063 H 0.83706 0.59236 0.93546 0.0
H1064 H 0.87085 0.58786 0.06877 0.0
H1065 H 0.89432 0.67222 0.99861 0.0
H1066 H 0.91125 0.51925 0.02139 0.0
H1067 H 0.86196 0.52215 1.00909 0.0
H1068 H 0.87656 0.52908 0.05385 0.0
H1069 H 0.94237 0.62072 0.93617 0.0
H1070 H 0.91769 0.66206 0.94231 0.0
H1071 H 0.89373 0.62565 0.92226 0.0
C1072 C 0.72999 0.67954 0.16627 0.0
C1073 C 0.76651 0.6812 0.18146 0.0
C1074 C 0.69909 0.66867 0.18571 0.0
C1075 C 0.70492 0.6591 0.22118 0.0
C1076 C 0.74168 0.66128 0.23682 0.0
C1077 C 0.77211 0.67237 0.21673 0.0
C1078 C 0.66022 0.66722 0.16821 0.0
C1079 C 0.74889 0.65165 0.27465 0.0
C1080 C 0.61681 0.6624 0.27581 0.0
C1081 C 0.60604 0.6272 0.2761 0.0
C1082 C 0.64965 0.67292 0.25917 0.0
C1083 C 0.67218 0.64764 0.2419 0.0
C1084 C 0.66197 0.61186 0.2427 0.0
C1085 C 0.62895 0.60202 0.2599 0.0
C1086 C 0.65947 0.71129 0.25918 0.0
C1087 C 0.68538 0.58417 0.2246 0.0
H1088 H 0.7256 0.68635 0.13899 0.0
H1089 H 0.80037 0.67359 0.22849 0.0
H1090 H 0.64939 0.64015 0.16957 0.0
H1091 H 0.63989 0.68448 0.18206 0.0
H1092 H 0.6605 0.67548 0.14041 0.0
H1093 H 0.77914 0.6546 0.28284 0.0
H1094 H 0.73102 0.66846 0.29148 0.0
H1095 H 0.74073 0.62411 0.27926 0.0
H1096 H 0.59913 0.68208 0.28806 0.0
H1097 H 0.62069 0.5748 0.26011 0.0
H1098 H 0.65667 0.72193 0.23226 0.0
H1099 H 0.6894 0.71467 0.26808 0.0
H1100 H 0.64077 0.72708 0.27626 0.0
H1101 H 0.68455 0.58921 0.19609 0.0
H1102 H 0.67496 0.55732 0.22939 0.0
H1103 H 0.71553 0.58532 0.23359 0.0
C1104 C 0.68337 0.42396 0.4661 0.0
C1105 C 0.65798 0.40293 0.48401 0.0
C1106 C 0.67119 0.4559 0.45022 0.0
C1107 C 0.63283 0.46764 0.45286 0.0
C1108 C 0.60752 0.44705 0.47212 0.0
C1109 C 0.6202 0.41484 0.48687 0.0
C1110 C 0.69906 0.47641 0.42943 0.0
C1111 C 0.56659 0.45848 0.47635 0.0
C1112 C 0.60248 0.56238 0.42825 0.0
C1113 C 0.58497 0.55763 0.39539 0.0
C1114 C 0.61863 0.53354 0.44723 0.0
C1115 C 0.61808 0.49931 0.43267 0.0
C1116 C 0.60178 0.49488 0.39888 0.0
C1117 C 0.58521 0.52382 0.38099 0.0
C1118 C 0.635 0.53946 0.48337 0.0
C1119 C 0.60105 0.4593 0.38177 0.0
H1120 H 0.71258 0.41497 0.46365 0.0
H1121 H 0.60023 0.39872 0.50032 0.0
H1122 H 0.69005 0.47653 0.4015 0.0
H1123 H 0.69937 0.50409 0.43814 0.0
H1124 H 0.72839 0.46521 0.43179 0.0
H1125 H 0.55198 0.4421 0.49572 0.0
H1126 H 0.56486 0.48626 0.48472 0.0
H1127 H 0.55104 0.45659 0.45093 0.0
H1128 H 0.60217 0.5883 0.43971 0.0
H1129 H 0.57209 0.51989 0.35546 0.0
H1130 H 0.66446 0.52865 0.48553 0.0
H1131 H 0.61797 0.52532 0.50268 0.0
H1132 H 0.63524 0.56769 0.49034 0.0
H1133 H 0.63009 0.44745 0.38175 0.0
H1134 H 0.5898 0.46064 0.35447 0.0
H1135 H 0.58299 0.44149 0.39679 0.0
C1136 C 0.29526 0.38163 0.08315 0.0
C1137 C 0.25891 0.37952 0.0969 0.0
C1138 C 0.32192 0.35397 0.0877 0.0
C1139 C 0.31185 0.32358 0.1064 0.0
C1140 C 0.27464 0.32093 0.11925 0.0
C1141 C 0.24859 0.34892 0.11416 0.0
C1142 C 0.36128 0.35781 0.0736 0.0
C1143 C 0.26269 0.28904 0.13934 0.0
C1144 C 0.37381 0.24065 0.10189 0.0
C1145 C 0.39566 0.24295 0.13289 0.0
C1146 C 0.34655 0.26681 0.0927 0.0
C1147 C 0.34103 0.29587 0.11502 0.0
C1148 C 0.36315 0.29842 0.14615 0.0
C1149 C 0.39009 0.27203 0.15468 0.0
C1150 C 0.32342 0.26323 0.05928 0.0
C1151 C 0.35814 0.32895 0.17073 0.0
H1152 H 0.30317 0.40525 0.06954 0.0
H1153 H 0.22014 0.34695 0.12385 0.0
H1154 H 0.38232 0.35909 0.09557 0.0
H1155 H 0.36902 0.33464 0.0577 0.0
H1156 H 0.36367 0.38179 0.05734 0.0
H1157 H 0.23205 0.29016 0.14564 0.0
H1158 H 0.26845 0.2649 0.12416 0.0
H1159 H 0.27957 0.28683 0.1641 0.0
H1160 H 0.37778 0.21833 0.0849 0.0
H1161 H 0.40663 0.27423 0.17874 0.0
H1162 H 0.32703 0.2866 0.04248 0.0
H1163 H 0.29279 0.26194 0.06519 0.0
H1164 H 0.33162 0.23944 0.04442 0.0
H1165 H 0.36291 0.35397 0.15682 0.0
H1166 H 0.37796 0.32726 0.1937 0.0
H1167 H 0.32859 0.32993 0.18014 0.0
C1168 C 0.89305 0.28922 0.8827 0.0
C1169 C 0.87178 0.31902 0.87226 0.0
C1170 C 0.8753 0.25872 0.89411 0.0
C1171 C 0.83509 0.25783 0.89494 0.0
C1172 C 0.81355 0.28869 0.88632 0.0
C1173 C 0.83217 0.31889 0.8748 0.0
C1174 C 0.89957 0.22663 0.90283 0.0
C1175 C 0.77072 0.28909 0.88707 0.0
C1176 C 0.79372 0.16771 0.8782 0.0
C1177 C 0.78677 0.15569 0.91199 0.0
C1178 C 0.8081 0.20127 0.87231 0.0
C1179 C 0.81595 0.22361 0.90094 0.0
C1180 C 0.80796 0.21199 0.93512 0.0
C1181 C 0.79355 0.17814 0.94025 0.0
C1182 C 0.81607 0.21233 0.8354 0.0
C1183 C 0.81552 0.23499 0.96632 0.0
H1184 H 0.92367 0.28912 0.88006 0.0
H1185 H 0.81565 0.34167 0.86594 0.0
H1186 H 0.89133 0.21519 0.92809 0.0
H1187 H 0.89498 0.20641 0.88253 0.0
H1188 H 0.93033 0.23257 0.9043 0.0
H1189 H 0.75852 0.31612 0.88482 0.0
H1190 H 0.75934 0.27338 0.86503 0.0
H1191 H 0.76095 0.27698 0.91152 0.0
H1192 H 0.78878 0.15047 0.85624 0.0
H1193 H 0.78812 0.16906 0.96643 0.0
H1194 H 0.84706 0.21583 0.83261 0.0
H1195 H 0.80181 0.2379 0.82932 0.0
H1196 H 0.80629 0.19282 0.81589 0.0
H1197 H 0.84654 0.23896 0.96961 0.0
H1198 H 0.80488 0.22345 0.99075 0.0
H1199 H 0.80189 0.26121 0.9622 0.0
C1200 C 0.08447 0.50749 0.12393 0.0
C1201 C 0.10057 0.49398 0.15504 0.0
C1202 C 0.05738 0.5349 0.12427 0.0
C1203 C 0.0465 0.54944 0.15654 0.0
C1204 C 0.06318 0.53629 0.18804 0.0
C1205 C 0.08992 0.50848 0.18693 0.0
C1206 C 0.04021 0.5481 0.09005 0.0
C1207 C 0.05278 0.55159 0.22282 0.0
C1208 C 1.0041 0.64057 0.14496 0.0
C1209 C 0.96514 0.6338 0.14362 0.0
C1210 C 0.03093 0.61369 0.15189 0.0
C1211 C 0.0184 0.57906 0.15679 0.0
C1212 C 0.97891 0.5725 0.15764 0.0
C1213 C 0.9526 0.60016 0.15129 0.0
C1214 C 0.07271 0.62194 0.15133 0.0
C1215 C 0.96446 0.53586 0.16232 0.0
H1216 H 0.09254 0.49618 0.09924 0.0
H1217 H 0.10241 0.49801 0.211 0.0
H1218 H 1.0088 0.54621 0.09027 0.0
H1219 H 0.0469 0.57614 0.08637 0.0
H1220 H 0.05087 0.53317 0.06737 0.0
H1221 H 0.06851 0.53854 0.24491 0.0
H1222 H 0.05896 0.57999 0.22327 0.0
H1223 H 0.02185 0.54905 0.2268 0.0
H1224 H 0.01366 0.66671 0.13891 0.0
H1225 H 0.92244 0.59493 0.14965 0.0
H1226 H 0.08514 0.61138 0.12714 0.0
H1227 H 0.0882 0.60928 0.17371 0.0
H1228 H 0.0776 0.6506 0.15218 0.0
H1229 H 0.93341 0.53576 0.1668 0.0
H1230 H 0.97949 0.52249 0.18455 0.0
H1231 H 0.97024 0.52033 0.13857 0.0
C1232 C 0.74832 0.8625 0.41903 0.0
C1233 C 0.75489 0.88638 0.39208 0.0
C1234 C 0.72097 0.83642 0.41532 0.0
C1235 C 0.69975 0.83376 0.38364 0.0
C1236 C 0.7052 0.85871 0.35674 0.0
C1237 C 0.73291 0.88465 0.36123 0.0
C1238 C 0.71609 0.81067 0.4448 0.0
C1239 C 0.68325 0.85689 0.32253 0.0
C1240 C 0.66257 0.74268 0.36259 0.0
C1241 C 0.62472 0.74564 0.37285 0.0
C1242 C 0.68701 0.77139 0.36514 0.0
C1243 C 0.67334 0.80383 0.3784 0.0
C1244 C 0.63501 0.80693 0.38854 0.0
C1245 C 0.61121 0.77785 0.3856 0.0
C1246 C 0.72759 0.76691 0.35388 0.0
C1247 C 0.61922 0.84091 0.40275 0.0
H1248 H 0.76572 0.86342 0.44274 0.0
H1249 H 0.73902 0.90194 0.33979 0.0
H1250 H 0.68573 0.80945 0.45171 0.0
H1251 H 0.72509 0.78404 0.43642 0.0
H1252 H 0.73301 0.81764 0.46852 0.0
H1253 H 0.68754 0.88036 0.30594 0.0
H1254 H 0.6926 0.83328 0.30802 0.0
H1255 H 0.65243 0.85441 0.32709 0.0
H1256 H 0.67299 0.71799 0.35225 0.0
H1257 H 0.58185 0.78038 0.39327 0.0
H1258 H 0.74725 0.77062 0.37658 0.0
H1259 H 0.73416 0.78714 0.3342 0.0
H1260 H 0.73332 0.74061 0.34259 0.0
H1261 H 0.63478 0.84773 0.42722 0.0
H1262 H 0.58846 0.83947 0.40824 0.0
H1263 H 0.6234 0.86253 0.38389 0.0
C1264 C 0.52861 0.43833 0.58787 0.0
C1265 C 0.5281 0.40168 0.58818 0.0
C1266 C 0.49628 0.45814 0.59696 0.0
C1267 C 0.4628 0.44073 0.6064 0.0
C1268 C 0.46207 0.4037 0.60614 0.0
C1269 C 0.49479 0.38462 0.59714 0.0
C1270 C 0.49808 0.49764 0.5969 0.0
C1271 C 0.42683 0.38425 0.61568 0.0
C1272 C 0.39587 0.49166 0.66417 0.0
C1273 C 0.36882 0.50484 0.6399 0.0
C1274 C 0.42594 0.46983 0.65375 0.0
C1275 C 0.42914 0.46124 0.61807 0.0
C1276 C 0.40109 0.47351 0.59359 0.0
C1277 C 0.37146 0.49559 0.60479 0.0
C1278 C 0.45525 0.45732 0.68067 0.0
C1279 C 0.40345 0.46489 0.55532 0.0
H1280 H 0.55427 0.4515 0.58065 0.0
H1281 H 0.49425 0.35622 0.59712 0.0
H1282 H 0.47523 0.50896 0.5796 0.0
H1283 H 0.49327 0.50772 0.62356 0.0
H1284 H 0.52587 0.50713 0.58803 0.0
H1285 H 0.43049 0.35542 0.61291 0.0
H1286 H 0.41951 0.3901 0.64304 0.0
H1287 H 0.40236 0.39318 0.59888 0.0
H1288 H 0.39427 0.4996 0.69122 0.0
H1289 H 0.35199 0.50728 0.58567 0.0
H1290 H 0.48319 0.46872 0.67497 0.0
H1291 H 0.45879 0.42839 0.67956 0.0
H1292 H 0.44751 0.4648 0.70757 0.0
H1293 H 0.42763 0.47882 0.544 0.0
H1294 H 0.37706 0.47271 0.54054 0.0
H1295 H 0.40875 0.43639 0.5517 0.0
C1296 C 0.23028 0.6576 0.65207 0.0
C1297 C 0.23042 0.64408 0.61818 0.0
C1298 C 0.21732 0.69182 0.65861 0.0
C1299 C 0.20282 0.71287 0.63065 0.0
C1300 C 0.20376 0.69974 0.59613 0.0
C1301 C 0.21783 0.66546 0.59025 0.0
C1302 C 0.21736 0.70471 0.6958 0.0
C1303 C 0.18822 0.72119 0.56569 0.0
C1304 C 0.12588 0.77456 0.66214 0.0
C1305 C 0.14548 0.80585 0.66682 0.0
C1306 C 0.14353 0.74492 0.64787 0.0
C1307 C 0.18215 0.74629 0.63864 0.0
C1308 C 0.20158 0.77843 0.64155 0.0
C1309 C 0.18281 0.80809 0.65538 0.0
C1310 C 0.12143 0.71149 0.64478 0.0
C1311 C 0.24281 0.78087 0.63227 0.0
H1312 H 0.23932 0.64101 0.67381 0.0
H1313 H 0.2179 0.65506 0.564 0.0
H1314 H 0.22933 0.73134 0.69749 0.0
H1315 H 0.18773 0.70644 0.70495 0.0
H1316 H 0.23407 0.68702 0.71376 0.0
H1317 H 0.19557 0.70932 0.54027 0.0
H1318 H 0.1568 0.72322 0.56707 0.0
H1319 H 0.19919 0.74822 0.56674 0.0
H1320 H 0.09678 0.77298 0.67056 0.0
H1321 H 0.19796 0.8323 0.65909 0.0
H1322 H 0.13252 0.69218 0.66441 0.0
H1323 H 0.12495 0.69968 0.61866 0.0
H1324 H 0.09061 0.71591 0.64906 0.0
H1325 H 0.26067 0.7669 0.65235 0.0
H1326 H 0.25209 0.80849 0.63086 0.0
H1327 H 0.24804 0.768 0.60691 0.0
C1328 C 0.51019 0.9253 0.93866 0.0
C1329 C 0.51792 0.88922 0.94177 0.0
C1330 C 0.53858 0.94866 0.92905 0.0
C1331 C 0.57568 0.93565 0.92223 0.0
C1332 C 0.58372 0.89923 0.92576 0.0
C1333 C 0.55474 0.87647 0.93543 0.0
C1334 C 0.52876 0.98728 0.92594 0.0
C1335 C 0.62288 0.88429 0.91906 0.0
C1336 C 0.63609 0.99236 0.86407 0.0
C1337 C 0.65929 1.00958 0.88847 0.0
C1338 C 0.60959 0.96753 0.8746 0.0
C1339 C 0.60571 0.96006 0.91056 0.0
C1340 C 0.62943 0.97712 0.9353 0.0
C1341 C 0.65559 1.00187 0.92395 0.0
C1342 C 0.58489 0.95012 0.84729 0.0
C1343 C 0.62617 0.97031 0.97389 0.0
H1344 H 0.48175 0.93526 0.94345 0.0
H1345 H 0.56091 0.84861 0.9379 0.0
H1346 H 0.54727 1.00241 0.94393 0.0
H1347 H 0.53402 0.9966 0.89909 0.0
H1348 H 0.49863 0.99319 0.93205 0.0
H1349 H 0.62477 0.85552 0.92356 0.0
H1350 H 0.63062 0.88981 0.89175 0.0
H1351 H 0.64423 0.89708 0.93628 0.0
H1352 H 0.63816 0.99889 0.83665 0.0
H1353 H 0.67157 0.0164 0.94314 0.0
H1354 H 0.55467 0.95769 0.85105 0.0
H1355 H 0.58727 0.92119 0.85007 0.0
H1356 H 0.59264 0.95745 0.82037 0.0
H1357 H 0.59815 0.98012 0.98273 0.0
H1358 H 0.6488 0.98336 0.98949 0.0
H1359 H 0.62781 0.94174 0.97938 0.0
C1360 C 0.903 0.05686 0.36392 0.0
C1361 C 0.90169 0.02058 0.35895 0.0
C1362 C 0.93761 0.07334 0.37139 0.0
C1363 C 0.97189 0.05312 0.3732 0.0
C1364 C 0.97077 0.01655 0.36709 0.0
C1365 C 0.93562 1.00065 0.36048 0.0
C1366 C 0.93728 0.11222 0.37862 0.0
C1367 C 1.00658 0.9941 0.36834 0.0
C1368 C 0.0623 0.1069 0.37291 0.0
C1369 C 0.06992 0.11026 0.40875 0.0
C1370 C 0.03159 0.08675 0.36063 0.0
C1371 C 1.00807 0.06984 0.38481 0.0
C1372 C 0.01741 0.07133 0.42085 0.0
C1373 C 0.04823 0.09131 0.43228 0.0
C1374 C 0.023 0.08522 0.32196 0.0
C1375 C 0.99331 0.05382 0.44767 0.0
H1376 H 0.87676 0.07227 0.36295 0.0
H1377 H 0.93469 0.97257 0.35647 0.0
H1378 H 0.95726 0.1256 0.36134 0.0
H1379 H 0.90855 0.12443 0.37476 0.0
H1380 H 0.94706 0.11684 0.40591 0.0
H1381 H 1.00145 0.96694 0.35928 0.0
H1382 H 0.02854 1.00585 0.35193 0.0
H1383 H 0.01828 0.99284 0.39544 0.0
H1384 H 0.07877 0.12167 0.35463 0.0
H1385 H 0.05421 0.09351 0.46005 0.0
H1386 H 0.99681 0.1009 0.3157 0.0
H1387 H 0.01768 0.05784 0.31383 0.0
H1388 H 0.04653 0.09567 0.30648 0.0
H1389 H 0.96472 0.06664 0.44768 0.0
H1390 H 1.00601 0.05535 0.47442 0.0
H1391 H 0.98929 0.02584 0.44112 0.0
loop_
_geom_bond_atom_site_label_1
_geom_bond_atom_site_label_2
_geom_bond_distance
_geom_bond_site_symmetry_2
_ccdc_geom_bond_type
Tb0 O3 2.453 . S
Tb0 O4 2.596 . S
Tb0 O5 2.374 . S
Tb0 O13 2.343 . S
Tb0 O15 2.353 . S
Tb0 O17 2.427 . S
Tb0 O18 2.513 . S
C1 O5 1.251 . S
C1 O7 1.263 . S
Tb2 O4 2.343 . S
Tb2 O7 2.353 . S
Tb2 O10 2.427 . S
Tb2 O11 2.513 . S
Tb2 O12 2.453 . S
Tb2 O13 2.596 . S
Tb2 O14 2.374 . S
O3 Tb0 2.453 . S
O3 C19 1.245 . S
O4 Tb0 2.596 . S
O4 Tb2 2.343 . S
O4 C19 1.259 . S
O5 Tb0 2.374 . S
O5 C1 1.251 . S
C6 O10 1.275 . S
C6 O11 1.246 . S
O7 C1 1.263 . S
O7 Tb2 2.353 . S
C8 O12 1.245 . S
C8 O13 1.259 . S
C9 O14 1.250 . S
C9 O15 1.263 . S
O10 Tb2 2.427 . S
O10 C6 1.275 . S
O11 Tb2 2.513 . S
O11 C6 1.246 . S
O12 Tb2 2.453 . S
O12 C8 1.245 . S
O13 Tb0 2.343 . S
O13 Tb2 2.596 . S
O13 C8 1.259 . S
O14 Tb2 2.374 . S
O14 C9 1.250 . S
O15 Tb0 2.353 . S
O15 C9 1.263 . S
C16 O17 1.275 . S
C16 O18 1.246 . S
O17 Tb0 2.427 . S
O17 C16 1.275 . S
O18 Tb0 2.513 . S
O18 C16 1.246 . S
C19 O3 1.245 . S
C19 O4 1.259 . S
Tb20 O23 2.453 . S
Tb20 O24 2.596 . S
Tb20 O25 2.374 . S
Tb20 O33 2.343 . S
Tb20 O35 2.353 . S
Tb20 O37 2.427 . S
Tb20 O38 2.513 . S
C21 O25 1.251 . S
C21 O27 1.263 . S
Tb22 O24 2.343 . S
Tb22 O27 2.353 . S
Tb22 O30 2.427 . S
Tb22 O31 2.513 . S
Tb22 O32 2.453 . S
Tb22 O33 2.596 . S
Tb22 O34 2.374 . S
O23 Tb20 2.453 . S
O23 C39 1.245 . S
O24 Tb20 2.596 . S
O24 Tb22 2.343 . S
O24 C39 1.259 . S
O25 Tb20 2.374 . S
O25 C21 1.251 . S
C26 O30 1.275 . S
C26 O31 1.246 . S
O27 C21 1.263 . S
O27 Tb22 2.353 . S
C28 O32 1.245 . S
C28 O33 1.259 . S
C29 O34 1.250 . S
C29 O35 1.263 . S
O30 Tb22 2.427 . S
O30 C26 1.275 . S
O31 Tb22 2.513 . S
O31 C26 1.246 . S
O32 Tb22 2.453 . S
O32 C28 1.245 . S
O33 Tb20 2.343 . S
O33 Tb22 2.596 . S
O33 C28 1.259 . S
O34 Tb22 2.374 . S
O34 C29 1.250 . S
O35 Tb20 2.353 . S
O35 C29 1.263 . S
C36 O37 1.275 . S
C36 O38 1.246 . S
O37 Tb20 2.427 . S
O37 C36 1.275 . S
O38 Tb20 2.513 . S
O38 C36 1.246 . S
C39 O23 1.245 . S
C39 O24 1.259 . S
Tb40 O43 2.453 . S
Tb40 O44 2.596 . S
Tb40 O45 2.374 . S
Tb40 O53 2.343 . S
Tb40 O55 2.353 . S
Tb40 O57 2.427 . S
Tb40 O58 2.513 . S
C41 O45 1.251 . S
C41 O47 1.263 . S
Tb42 O44 2.343 . S
Tb42 O47 2.353 . S
Tb42 O50 2.427 . S
Tb42 O51 2.513 . S
Tb42 O52 2.453 1_556 S
Tb42 O53 2.596 . S
Tb42 O54 2.374 1_556 S
O43 Tb40 2.453 . S
O43 C59 1.245 . S
O44 Tb40 2.596 . S
O44 Tb42 2.343 . S
O44 C59 1.259 . S
O45 Tb40 2.374 . S
O45 C41 1.251 . S
C46 O50 1.275 . S
C46 O51 1.246 . S
O47 C41 1.263 . S
O47 Tb42 2.353 . S
C48 O52 1.238 1_556 S
C48 O53 1.270 . S
C49 O54 1.250 . S
C49 O55 1.263 1_554 S
O50 Tb42 2.427 . S
O50 C46 1.275 . S
O51 Tb42 2.513 . S
O51 C46 1.246 . S
O52 Tb42 2.453 1_554 S
O52 C48 1.238 1_554 S
O53 Tb40 2.343 . S
O53 Tb42 2.596 . S
O53 C48 1.270 . S
O54 Tb42 2.374 1_554 S
O54 C49 1.250 . S
O55 Tb40 2.353 . S
O55 C49 1.263 1_556 S
C56 O57 1.275 . S
C56 O58 1.246 . S
O57 Tb40 2.427 . S
O57 C56 1.275 . S
O58 Tb40 2.513 . S
O58 C56 1.246 . S
C59 O43 1.245 . S
C59 O44 1.259 . S
Tb60 O63 2.453 . S
Tb60 O64 2.596 . S
Tb60 O65 2.374 . S
Tb60 O73 2.343 . S
Tb60 O75 2.353 . S
Tb60 O77 2.427 . S
Tb60 O78 2.513 . S
C61 O65 1.251 . S
C61 O67 1.263 . S
Tb62 O64 2.343 . S
Tb62 O67 2.353 . S
Tb62 O70 2.427 . S
Tb62 O71 2.513 . S
Tb62 O72 2.453 . S
Tb62 O73 2.596 . S
Tb62 O74 2.374 . S
O63 Tb60 2.453 . S
O63 C79 1.245 . S
O64 Tb60 2.596 . S
O64 Tb62 2.343 . S
O64 C79 1.259 . S
O65 Tb60 2.374 . S
O65 C61 1.251 . S
C66 O70 1.275 . S
C66 O71 1.246 . S
O67 C61 1.263 . S
O67 Tb62 2.353 . S
C68 O72 1.245 . S
C68 O73 1.259 . S
C69 O74 1.250 . S
C69 O75 1.263 . S
O70 Tb62 2.427 . S
O70 C66 1.275 . S
O71 Tb62 2.513 . S
O71 C66 1.246 . S
O72 Tb62 2.453 . S
O72 C68 1.245 . S
O73 Tb60 2.343 . S
O73 Tb62 2.596 . S
O73 C68 1.259 . S
O74 Tb62 2.374 . S
O74 C69 1.250 . S
O75 Tb60 2.353 . S
O75 C69 1.263 . S
C76 O77 1.275 . S
C76 O78 1.246 . S
O77 Tb60 2.427 . S
O77 C76 1.275 . S
O78 Tb60 2.513 . S
O78 C76 1.246 . S
C79 O63 1.245 . S
C79 O64 1.259 . S
Tb80 O83 2.453 . S
Tb80 O84 2.596 . S
Tb80 O85 2.374 . S
Tb80 O93 2.343 . S
Tb80 O95 2.353 . S
Tb80 O97 2.427 . S
Tb80 O98 2.513 . S
C81 O85 1.251 . S
C81 O87 1.263 . S
Tb82 O84 2.343 . S
Tb82 O87 2.353 . S
Tb82 O90 2.427 . S
Tb82 O91 2.513 . S
Tb82 O92 2.453 . S
Tb82 O93 2.596 . S
Tb82 O94 2.374 . S
O83 Tb80 2.453 . S
O83 C99 1.245 . S
O84 Tb80 2.596 . S
O84 Tb82 2.343 . S
O84 C99 1.259 . S
O85 Tb80 2.374 . S
O85 C81 1.251 . S
C86 O90 1.275 . S
C86 O91 1.246 . S
O87 C81 1.263 . S
O87 Tb82 2.353 . S
C88 O92 1.245 . S
C88 O93 1.259 . S
C89 O94 1.250 . S
C89 O95 1.263 . S
O90 Tb82 2.427 . S
O90 C86 1.275 . S
O91 Tb82 2.513 . S
O91 C86 1.246 . S
O92 Tb82 2.453 . S
O92 C88 1.245 . S
O93 Tb80 2.343 . S
O93 Tb82 2.596 . S
O93 C88 1.259 . S
O94 Tb82 2.374 . S
O94 C89 1.250 . S
O95 Tb80 2.353 . S
O95 C89 1.263 . S
C96 O97 1.275 . S
C96 O98 1.246 . S
O97 Tb80 2.427 . S
O97 C96 1.275 . S
O98 Tb80 2.513 . S
O98 C96 1.246 . S
C99 O83 1.245 . S
C99 O84 1.259 . S
Tb100 O103 2.453 . S
Tb100 O104 2.596 . S
Tb100 O105 2.374 . S
Tb100 O113 2.343 . S
Tb100 O115 2.353 . S
Tb100 O117 2.427 . S
Tb100 O118 2.513 . S
C101 O105 1.251 . S
C101 O107 1.263 . S
Tb102 O104 2.343 . S
Tb102 O107 2.353 . S
Tb102 O110 2.427 . S
Tb102 O111 2.513 . S
Tb102 O112 2.453 1_655 S
Tb102 O113 2.596 . S
Tb102 O114 2.374 . S
O103 Tb100 2.453 . S
O103 C119 1.245 . S
O104 Tb100 2.596 . S
O104 Tb102 2.343 . S
O104 C119 1.259 . S
O105 Tb100 2.374 . S
O105 C101 1.251 . S
C106 O110 1.275 . S
C106 O111 1.246 . S
O107 C101 1.263 . S
O107 Tb102 2.353 . S
C108 O112 1.245 1_655 S
C108 O113 1.259 . S
C109 O114 1.250 . S
C109 O115 1.263 . S
O110 Tb102 2.427 . S
O110 C106 1.275 . S
O111 Tb102 2.513 . S
O111 C106 1.246 . S
O112 Tb102 2.453 1_455 S
O112 C108 1.245 1_455 S
O113 Tb100 2.343 . S
O113 Tb102 2.596 . S
O113 C108 1.259 . S
O114 Tb102 2.374 . S
O114 C109 1.250 . S
O115 Tb100 2.353 . S
O115 C109 1.263 . S
C116 O117 1.275 . S
C116 O118 1.246 . S
O117 Tb100 2.427 . S
O117 C116 1.275 . S
O118 Tb100 2.513 . S
O118 C116 1.246 . S
C119 O103 1.245 . S
C119 O104 1.259 . S
Tb120 O123 2.453 . S
Tb120 O124 2.596 . S
Tb120 O125 2.374 . S
Tb120 O133 2.343 . S
Tb120 O135 2.353 . S
Tb120 O137 2.427 . S
Tb120 O138 2.513 . S
C121 O125 1.251 . S
C121 O127 1.263 . S
Tb122 O124 2.343 . S
Tb122 O127 2.353 . S
Tb122 O130 2.427 . S
Tb122 O131 2.513 . S
Tb122 O132 2.453 . S
Tb122 O133 2.596 . S
Tb122 O134 2.374 . S
O123 Tb120 2.453 . S
O123 C139 1.245 . S
O124 Tb120 2.596 . S
O124 Tb122 2.343 . S
O124 C139 1.259 . S
O125 Tb120 2.374 . S
O125 C121 1.251 . S
C126 O130 1.275 . S
C126 O131 1.246 . S
O127 C121 1.263 . S
O127 Tb122 2.353 . S
C128 O132 1.245 . S
C128 O133 1.259 . S
C129 O134 1.250 . S
C129 O135 1.263 . S
O130 Tb122 2.427 . S
O130 C126 1.275 . S
O131 Tb122 2.513 . S
O131 C126 1.246 . S
O132 Tb122 2.453 . S
O132 C128 1.245 . S
O133 Tb120 2.343 . S
O133 Tb122 2.596 . S
O133 C128 1.259 . S
O134 Tb122 2.374 . S
O134 C129 1.250 . S
O135 Tb120 2.353 . S
O135 C129 1.263 . S
C136 O137 1.275 . S
C136 O138 1.246 . S
O137 Tb120 2.427 . S
O137 C136 1.275 . S
O138 Tb120 2.513 . S
O138 C136 1.246 . S
C139 O123 1.245 . S
C139 O124 1.259 . S
Tb140 O143 2.453 . S
Tb140 O144 2.596 . S
Tb140 O145 2.374 . S
Tb140 O153 2.343 . S
Tb140 O155 2.353 . S
Tb140 O157 2.427 . S
Tb140 O158 2.513 . S
C141 O145 1.251 . S
C141 O147 1.263 . S
Tb142 O144 2.343 . S
Tb142 O147 2.353 . S
Tb142 O150 2.427 . S
Tb142 O151 2.513 . S
Tb142 O152 2.453 . S
Tb142 O153 2.596 . S
Tb142 O154 2.374 . S
O143 Tb140 2.453 . S
O143 C159 1.245 . S
O144 Tb140 2.596 . S
O144 Tb142 2.343 . S
O144 C159 1.259 . S
O145 Tb140 2.374 . S
O145 C141 1.251 . S
C146 O150 1.275 . S
C146 O151 1.246 . S
O147 C141 1.263 . S
O147 Tb142 2.353 . S
C148 O152 1.245 . S
C148 O153 1.259 . S
C149 O154 1.250 . S
C149 O155 1.263 . S
O150 Tb142 2.427 . S
O150 C146 1.275 . S
O151 Tb142 2.513 . S
O151 C146 1.246 . S
O152 Tb142 2.453 . S
O152 C148 1.245 . S
O153 Tb140 2.343 . S
O153 Tb142 2.596 . S
O153 C148 1.259 . S
O154 Tb142 2.374 . S
O154 C149 1.250 . S
O155 Tb140 2.353 . S
O155 C149 1.263 . S
C156 O157 1.275 . S
C156 O158 1.246 . S
O157 Tb140 2.427 . S
O157 C156 1.275 . S
O158 Tb140 2.513 . S
O158 C156 1.246 . S
C159 O143 1.245 . S
C159 O144 1.259 . S
Tb160 O163 2.453 . S
Tb160 O164 2.596 . S
Tb160 O165 2.374 . S
Tb160 O173 2.343 . S
Tb160 O175 2.353 . S
Tb160 O177 2.427 . S
Tb160 O178 2.513 . S
C161 O165 1.251 . S
C161 O167 1.263 . S
Tb162 O164 2.343 . S
Tb162 O167 2.353 . S
Tb162 O170 2.427 . S
Tb162 O171 2.513 . S
Tb162 O172 2.453 . S
Tb162 O173 2.596 . S
Tb162 O174 2.374 . S
O163 Tb160 2.453 . S
O163 C179 1.245 . S
O164 Tb160 2.596 . S
O164 Tb162 2.343 . S
O164 C179 1.259 . S
O165 Tb160 2.374 . S
O165 C161 1.251 . S
C166 O170 1.275 . S
C166 O171 1.246 . S
O167 C161 1.263 . S
O167 Tb162 2.353 . S
C168 O172 1.245 . S
C168 O173 1.259 . S
C169 O174 1.250 . S
C169 O175 1.263 . S
O170 Tb162 2.427 . S
O170 C166 1.275 . S
O171 Tb162 2.513 . S
O171 C166 1.246 . S
O172 Tb162 2.453 . S
O172 C168 1.245 . S
O173 Tb160 2.343 . S
O173 Tb162 2.596 . S
O173 C168 1.259 . S
O174 Tb162 2.374 . S
O174 C169 1.250 . S
O175 Tb160 2.353 . S
O175 C169 1.263 . S
C176 O177 1.275 . S
C176 O178 1.246 . S
O177 Tb160 2.427 . S
O177 C176 1.275 . S
O178 Tb160 2.513 . S
O178 C176 1.246 . S
C179 O163 1.245 . S
C179 O164 1.259 . S
Tb180 O183 2.453 . S
Tb180 O184 2.596 . S
Tb180 O185 2.374 . S
Tb180 O193 2.343 . S
Tb180 O195 2.353 . S
Tb180 O197 2.427 . S
Tb180 O198 2.513 . S
C181 O185 1.251 . S
C181 O187 1.263 . S
Tb182 O184 2.343 . S
Tb182 O187 2.353 . S
Tb182 O190 2.427 . S
Tb182 O191 2.513 1_545 S
Tb182 O192 2.453 . S
Tb182 O193 2.596 . S
Tb182 O194 2.374 . S
O183 Tb180 2.453 . S
O183 C199 1.243 1_545 S
O184 Tb180 2.596 . S
O184 Tb182 2.343 . S
O184 C199 1.252 1_545 S
O185 Tb180 2.374 . S
O185 C181 1.251 . S
C186 O190 1.275 1_565 S
C186 O191 1.246 . S
O187 C181 1.263 . S
O187 Tb182 2.353 . S
C188 O192 1.245 . S
C188 O193 1.259 . S
C189 O194 1.250 . S
C189 O195 1.263 . S
O190 Tb182 2.427 . S
O190 C186 1.275 1_545 S
O191 Tb182 2.513 1_565 S
O191 C186 1.246 . S
O192 Tb182 2.453 . S
O192 C188 1.245 . S
O193 Tb180 2.343 . S
O193 Tb182 2.596 . S
O193 C188 1.259 . S
O194 Tb182 2.374 . S
O194 C189 1.250 . S
O195 Tb180 2.353 . S
O195 C189 1.263 . S
C196 O197 1.275 . S
C196 O198 1.246 . S
O197 Tb180 2.427 . S
O197 C196 1.275 . S
O198 Tb180 2.513 . S
O198 C196 1.246 . S
C199 O183 1.243 1_565 S
C199 O184 1.252 1_565 S
Tb200 O203 2.453 . S
Tb200 O204 2.596 . S
Tb200 O205 2.374 . S
Tb200 O213 2.343 . S
Tb200 O215 2.353 . S
Tb200 O217 2.427 . S
Tb200 O218 2.513 . S
C201 O205 1.251 . S
C201 O207 1.263 . S
Tb202 O204 2.343 . S
Tb202 O207 2.353 . S
Tb202 O210 2.427 . S
Tb202 O211 2.513 . S
Tb202 O212 2.453 1_565 S
Tb202 O213 2.596 . S
Tb202 O214 2.374 1_565 S
O203 Tb200 2.453 . S
O203 C219 1.245 . S
O204 Tb200 2.596 . S
O204 Tb202 2.343 . S
O204 C219 1.259 . S
O205 Tb200 2.374 . S
O205 C201 1.251 . S
C206 O210 1.275 . S
C206 O211 1.246 . S
O207 C201 1.263 . S
O207 Tb202 2.353 . S
C208 O212 1.245 1_565 S
C208 O213 1.259 . S
C209 O214 1.250 1_565 S
C209 O215 1.263 . S
O210 Tb202 2.427 . S
O210 C206 1.275 . S
O211 Tb202 2.513 . S
O211 C206 1.246 . S
O212 Tb202 2.453 1_545 S
O212 C208 1.245 1_545 S
O213 Tb200 2.343 . S
O213 Tb202 2.596 . S
O213 C208 1.259 . S
O214 Tb202 2.374 1_545 S
O214 C209 1.250 1_545 S
O215 Tb200 2.353 . S
O215 C209 1.263 . S
C216 O217 1.275 . S
C216 O218 1.246 . S
O217 Tb200 2.427 . S
O217 C216 1.275 . S
O218 Tb200 2.513 . S
O218 C216 1.246 . S
C219 O203 1.245 . S
C219 O204 1.259 . S
Tb220 O223 2.453 . S
Tb220 O224 2.596 . S
Tb220 O225 2.374 . S
Tb220 O233 2.343 . S
Tb220 O235 2.353 . S
Tb220 O237 2.427 . S
Tb220 O238 2.513 . S
C221 O225 1.251 . S
C221 O227 1.263 . S
Tb222 O224 2.343 . S
Tb222 O227 2.353 . S
Tb222 O230 2.427 . S
Tb222 O231 2.513 . S
Tb222 O232 2.453 . S
Tb222 O233 2.596 . S
Tb222 O234 2.374 . S
O223 Tb220 2.453 . S
O223 C239 1.245 . S
O224 Tb220 2.596 . S
O224 Tb222 2.343 . S
O224 C239 1.259 . S
O225 Tb220 2.374 . S
O225 C221 1.251 . S
C226 O230 1.275 . S
C226 O231 1.246 . S
O227 C221 1.263 . S
O227 Tb222 2.353 . S
C228 O232 1.245 . S
C228 O233 1.259 . S
C229 O234 1.250 . S
C229 O235 1.263 . S
O230 Tb222 2.427 . S
O230 C226 1.275 . S
O231 Tb222 2.513 . S
O231 C226 1.246 . S
O232 Tb222 2.453 . S
O232 C228 1.245 . S
O233 Tb220 2.343 . S
O233 Tb222 2.596 . S
O233 C228 1.259 . S
O234 Tb222 2.374 . S
O234 C229 1.250 . S
O235 Tb220 2.353 . S
O235 C229 1.263 . S
C236 O237 1.275 . S
C236 O238 1.246 . S
O237 Tb220 2.427 . S
O237 C236 1.275 . S
O238 Tb220 2.513 . S
O238 C236 1.246 . S
C239 O223 1.245 . S
C239 O224 1.259 . S
C240 C241 1.391 . S
C240 C242 1.394 . S
C240 H256 0.931 . S
C241 C240 1.391 . S
C241 C245 1.376 . S
C242 C240 1.394 . S
C242 C243 1.369 . S
C242 C246 1.531 . S
C243 C242 1.369 . S
C243 C244 1.410 . S
C243 C251 1.503 . S
C244 C243 1.410 . S
C244 C245 1.392 . S
C244 C247 1.511 . S
C245 C241 1.376 . S
C245 C244 1.392 . S
C245 H257 0.929 . S
C246 C242 1.531 . S
C246 H258 0.960 . S
C246 H259 0.962 . S
C246 H260 0.960 . S
C247 C244 1.511 . S
C247 H261 0.961 . S
C247 H262 0.961 . S
C247 H263 0.961 . S
C248 C249 1.370 . S
C248 C250 1.363 . S
C248 H264 0.931 . S
C249 C248 1.370 . S
C249 C253 1.408 . S
C250 C248 1.363 . S
C250 C251 1.370 . S
C250 C254 1.524 . S
C251 C243 1.503 . S
C251 C250 1.370 . S
C251 C252 1.403 . S
C252 C251 1.403 . S
C252 C253 1.404 . S
C252 C255 1.539 . S
C253 C249 1.408 . S
C253 C252 1.404 . S
C253 H265 0.930 . S
C254 C250 1.524 . S
C254 H266 0.956 . S
C254 H267 0.961 . S
C254 H268 0.961 . S
C255 C252 1.539 . S
C255 H269 0.958 . S
C255 H270 0.961 . S
C255 H271 0.960 . S
H256 C240 0.931 . S
H257 C245 0.929 . S
H258 C246 0.960 . S
H259 C246 0.962 . S
H260 C246 0.960 . S
H261 C247 0.961 . S
H262 C247 0.961 . S
H263 C247 0.961 . S
H264 C248 0.931 . S
H265 C253 0.930 . S
H266 C254 0.956 . S
H267 C254 0.961 . S
H268 C254 0.961 . S
H269 C255 0.958 . S
H270 C255 0.961 . S
H271 C255 0.960 . S
C272 C273 1.391 1_565 S
C272 C274 1.394 . S
C272 H288 0.931 . S
C273 C272 1.391 1_545 S
C273 C277 1.376 . S
C274 C272 1.394 . S
C274 C275 1.369 . S
C274 C278 1.531 . S
C275 C274 1.369 . S
C275 C276 1.410 . S
C275 C283 1.503 . S
C276 C275 1.410 . S
C276 C277 1.392 1_565 S
C276 C279 1.511 1_565 S
C277 C273 1.376 . S
C277 C276 1.392 1_545 S
C277 H289 0.929 . S
C278 C274 1.531 . S
C278 H290 0.960 . S
C278 H291 0.962 . S
C278 H292 0.960 . S
C279 C276 1.511 1_545 S
C279 H293 0.961 . S
C279 H294 0.961 . S
C279 H295 0.961 1_545 S
C280 C281 1.370 . S
C280 C282 1.363 . S
C280 H296 0.931 . S
C281 C280 1.370 . S
C281 C285 1.408 . S
C282 C280 1.363 . S
C282 C283 1.370 . S
C282 C286 1.524 1_565 S
C283 C275 1.503 . S
C283 C282 1.370 . S
C283 C284 1.403 . S
C284 C283 1.403 . S
C284 C285 1.404 . S
C284 C287 1.539 . S
C285 C281 1.408 . S
C285 C284 1.404 . S
C285 H297 0.930 . S
C286 C282 1.524 1_545 S
C286 H298 0.956 . S
C286 H299 0.961 . S
C286 H300 0.961 . S
C287 C284 1.539 . S
C287 H301 0.958 . S
C287 H302 0.961 . S
C287 H303 0.960 . S
H288 C272 0.931 . S
H289 C277 0.929 . S
H290 C278 0.960 . S
H291 C278 0.962 . S
H292 C278 0.960 . S
H293 C279 0.961 . S
H294 C279 0.961 . S
H295 C279 0.961 1_565 S
H296 C280 0.931 . S
H297 C285 0.930 . S
H298 C286 0.956 . S
H299 C286 0.961 . S
H300 C286 0.961 . S
H301 C287 0.958 . S
H302 C287 0.961 . S
H303 C287 0.960 . S
C304 C305 1.391 1_554 S
C304 C306 1.394 . S
C304 H320 0.931 . S
C305 C304 1.391 1_556 S
C305 C309 1.376 . S
C306 C304 1.394 . S
C306 C307 1.369 . S
C306 C310 1.531 . S
C307 C306 1.369 . S
C307 C308 1.410 1_554 S
C307 C315 1.503 . S
C308 C307 1.410 1_556 S
C308 C309 1.392 . S
C308 C311 1.511 . S
C309 C305 1.376 . S
C309 C308 1.392 . S
C309 H321 0.929 . S
C310 C306 1.531 . S
C310 H322 0.960 . S
C310 H323 0.962 . S
C310 H324 0.960 . S
C311 C308 1.511 . S
C311 H325 0.961 . S
C311 H326 0.961 . S
C311 H327 0.961 1_556 S
C312 C313 1.370 . S
C312 C314 1.363 1_554 S
C312 H328 0.931 1_554 S
C313 C312 1.370 . S
C313 C317 1.408 . S
C314 C312 1.363 1_556 S
C314 C315 1.370 1_556 S
C314 C318 1.524 . S
C315 C307 1.503 . S
C315 C314 1.370 1_554 S
C315 C316 1.403 . S
C316 C315 1.403 . S
C316 C317 1.404 . S
C316 C319 1.539 . S
C317 C313 1.408 . S
C317 C316 1.404 . S
C317 H329 0.930 . S
C318 C314 1.524 . S
C318 H330 0.956 . S
C318 H331 0.961 . S
C318 H332 0.961 . S
C319 C316 1.539 . S
C319 H333 0.958 . S
C319 H334 0.961 . S
C319 H335 0.960 . S
H320 C304 0.931 . S
H321 C309 0.929 . S
H322 C310 0.960 . S
H323 C310 0.962 . S
H324 C310 0.960 . S
H325 C311 0.961 . S
H326 C311 0.961 . S
H327 C311 0.961 1_554 S
H328 C312 0.931 1_556 S
H329 C317 0.930 . S
H330 C318 0.956 . S
H331 C318 0.961 . S
H332 C318 0.961 . S
H333 C319 0.958 . S
H334 C319 0.961 . S
H335 C319 0.960 . S
C336 C337 1.391 . S
C336 C338 1.394 . S
C336 H352 0.931 . S
C337 C336 1.391 . S
C337 C341 1.376 . S
C338 C336 1.394 . S
C338 C339 1.369 . S
C338 C342 1.531 1_545 S
C339 C338 1.369 . S
C339 C340 1.410 . S
C339 C347 1.503 . S
C340 C339 1.410 . S
C340 C341 1.392 . S
C340 C343 1.511 . S
C341 C337 1.376 . S
C341 C340 1.392 . S
C341 H353 0.929 . S
C342 C338 1.531 1_565 S
C342 H354 0.960 . S
C342 H355 0.962 . S
C342 H356 0.960 . S
C343 C340 1.511 . S
C343 H357 0.961 . S
C343 H358 0.961 . S
C343 H359 0.961 . S
C344 C345 1.370 . S
C344 C346 1.363 1_565 S
C344 H360 0.931 . S
C345 C344 1.370 . S
C345 C349 1.408 . S
C346 C344 1.363 1_545 S
C346 C347 1.370 . S
C346 C350 1.524 . S
C347 C339 1.503 . S
C347 C346 1.370 . S
C347 C348 1.403 . S
C348 C347 1.403 . S
C348 C349 1.404 1_545 S
C348 C351 1.539 . S
C349 C345 1.408 . S
C349 C348 1.404 1_565 S
C349 H361 0.930 . S
C350 C346 1.524 . S
C350 H362 0.956 1_545 S
C350 H363 0.961 . S
C350 H364 0.961 . S
C351 C348 1.539 . S
C351 H365 0.958 . S
C351 H366 0.961 . S
C351 H367 0.960 . S
H352 C336 0.931 . S
H353 C341 0.929 . S
H354 C342 0.960 . S
H355 C342 0.962 . S
H356 C342 0.960 . S
H357 C343 0.961 . S
H358 C343 0.961 . S
H359 C343 0.961 . S
H360 C344 0.931 . S
H361 C349 0.930 . S
H362 C350 0.956 1_565 S
H363 C350 0.961 . S
H364 C350 0.961 . S
H365 C351 0.958 . S
H366 C351 0.961 . S
H367 C351 0.960 . S
C368 C369 1.391 . S
C368 C370 1.394 . S
C368 H384 0.931 . S
C369 C368 1.391 . S
C369 C373 1.376 . S
C370 C368 1.394 . S
C370 C371 1.369 . S
C370 C374 1.531 . S
C371 C370 1.369 . S
C371 C372 1.410 . S
C371 C379 1.503 . S
C372 C371 1.410 . S
C372 C373 1.392 . S
C372 C375 1.511 . S
C373 C369 1.376 . S
C373 C372 1.392 . S
C373 H385 0.929 . S
C374 C370 1.531 . S
C374 H386 0.960 . S
C374 H387 0.962 . S
C374 H388 0.960 . S
C375 C372 1.511 . S
C375 H389 0.961 . S
C375 H390 0.961 . S
C375 H391 0.961 . S
C376 C377 1.370 . S
C376 C378 1.363 . S
C376 H392 0.931 . S
C377 C376 1.370 . S
C377 C381 1.408 . S
C378 C376 1.363 . S
C378 C379 1.370 . S
C378 C382 1.524 . S
C379 C371 1.503 . S
C379 C378 1.370 . S
C379 C380 1.403 . S
C380 C379 1.403 . S
C380 C381 1.404 . S
C380 C383 1.539 . S
C381 C377 1.408 . S
C381 C380 1.404 . S
C381 H393 0.930 . S
C382 C378 1.524 . S
C382 H394 0.956 . S
C382 H395 0.961 . S
C382 H396 0.961 . S
C383 C380 1.539 . S
C383 H397 0.958 . S
C383 H398 0.961 . S
C383 H399 0.960 . S
H384 C368 0.931 . S
H385 C373 0.929 . S
H386 C374 0.960 . S
H387 C374 0.962 . S
H388 C374 0.960 . S
H389 C375 0.961 . S
H390 C375 0.961 . S
H391 C375 0.961 . S
H392 C376 0.931 . S
H393 C381 0.930 . S
H394 C382 0.956 . S
H395 C382 0.961 . S
H396 C382 0.961 . S
H397 C383 0.958 . S
H398 C383 0.961 . S
H399 C383 0.960 . S
C400 C401 1.391 . S
C400 C402 1.394 . S
C400 H416 0.931 . S
C401 C400 1.391 . S
C401 C405 1.376 . S
C402 C400 1.394 . S
C402 C403 1.369 . S
C402 C406 1.531 . S
C403 C402 1.369 . S
C403 C404 1.410 . S
C403 C411 1.503 . S
C404 C403 1.410 . S
C404 C405 1.392 . S
C404 C407 1.511 . S
C405 C401 1.376 . S
C405 C404 1.392 . S
C405 H417 0.929 1_455 S
C406 C402 1.531 . S
C406 H418 0.960 . S
C406 H419 0.962 . S
C406 H420 0.960 . S
C407 C404 1.511 . S
C407 H421 0.961 . S
C407 H422 0.961 . S
C407 H423 0.961 . S
C408 C409 1.370 . S
C408 C410 1.363 . S
C408 H424 0.931 . S
C409 C408 1.370 . S
C409 C413 1.408 . S
C410 C408 1.363 . S
C410 C411 1.370 . S
C410 C414 1.524 . S
C411 C403 1.503 . S
C411 C410 1.370 . S
C411 C412 1.403 . S
C412 C411 1.403 . S
C412 C413 1.404 . S
C412 C415 1.539 . S
C413 C409 1.408 . S
C413 C412 1.404 . S
C413 H425 0.930 . S
C414 C410 1.524 . S
C414 H426 0.956 . S
C414 H427 0.961 . S
C414 H428 0.961 . S
C415 C412 1.539 . S
C415 H429 0.958 . S
C415 H430 0.961 . S
C415 H431 0.960 . S
H416 C400 0.931 . S
H417 C405 0.929 1_655 S
H418 C406 0.960 . S
H419 C406 0.962 . S
H420 C406 0.960 . S
H421 C407 0.961 . S
H422 C407 0.961 . S
H423 C407 0.961 . S
H424 C408 0.931 . S
H425 C413 0.930 . S
H426 C414 0.956 . S
H427 C414 0.961 . S
H428 C414 0.961 . S
H429 C415 0.958 . S
H430 C415 0.961 . S
H431 C415 0.960 . S
C432 C433 1.391 . S
C432 C434 1.394 1_556 S
C432 H448 0.931 . S
C433 C432 1.391 . S
C433 C437 1.376 . S
C434 C432 1.394 1_554 S
C434 C435 1.369 . S
C434 C438 1.531 . S
C435 C434 1.369 . S
C435 C436 1.410 1_554 S
C435 C443 1.503 . S
C436 C435 1.410 1_556 S
C436 C437 1.392 . S
C436 C439 1.511 . S
C437 C433 1.376 . S
C437 C436 1.392 . S
C437 H449 0.929 . S
C438 C434 1.531 . S
C438 H450 0.960 . S
C438 H451 0.962 . S
C438 H452 0.960 . S
C439 C436 1.511 . S
C439 H453 0.961 . S
C439 H454 0.961 . S
C439 H455 0.961 1_556 S
C440 C441 1.370 . S
C440 C442 1.355 1_554 S
C440 H456 0.931 1_554 S
C441 C440 1.370 . S
C441 C445 1.408 . S
C442 C440 1.355 1_556 S
C442 C443 1.357 1_556 S
C442 C446 1.546 . S
C443 C435 1.503 . S
C443 C442 1.357 1_554 S
C443 C444 1.403 . S
C444 C443 1.403 . S
C444 C445 1.404 . S
C444 C447 1.539 . S
C445 C441 1.408 . S
C445 C444 1.404 . S
C445 H457 0.930 . S
C446 C442 1.546 . S
C446 H458 0.956 . S
C446 H459 0.961 . S
C446 H460 0.961 . S
C447 C444 1.539 . S
C447 H461 0.958 . S
C447 H462 0.961 . S
C447 H463 0.960 . S
H448 C432 0.931 . S
H449 C437 0.929 . S
H450 C438 0.960 . S
H451 C438 0.962 . S
H452 C438 0.960 . S
H453 C439 0.961 . S
H454 C439 0.961 . S
H455 C439 0.961 1_554 S
H456 C440 0.931 1_556 S
H457 C445 0.930 . S
H458 C446 0.956 . S
H459 C446 0.961 . S
H460 C446 0.961 . S
H461 C447 0.958 . S
H462 C447 0.961 . S
H463 C447 0.960 . S
C464 C465 1.391 . S
C464 C466 1.394 . S
C464 H480 0.931 . S
C465 C464 1.391 . S
C465 C469 1.376 . S
C466 C464 1.394 . S
C466 C467 1.369 . S
C466 C470 1.531 . S
C467 C466 1.369 . S
C467 C468 1.410 . S
C467 C475 1.503 . S
C468 C467 1.410 . S
C468 C469 1.392 . S
C468 C471 1.511 . S
C469 C465 1.376 . S
C469 C468 1.392 . S
C469 H481 0.929 . S
C470 C466 1.531 . S
C470 H482 0.960 . S
C470 H483 0.962 . S
C470 H484 0.960 . S
C471 C468 1.511 . S
C471 H485 0.961 . S
C471 H486 0.961 . S
C471 H487 0.961 . S
C472 C473 1.370 . S
C472 C474 1.363 . S
C472 H488 0.931 . S
C473 C472 1.370 . S
C473 C477 1.408 . S
C474 C472 1.363 . S
C474 C475 1.370 . S
C474 C478 1.524 . S
C475 C467 1.503 . S
C475 C474 1.370 . S
C475 C476 1.403 . S
C476 C475 1.403 . S
C476 C477 1.404 . S
C476 C479 1.539 . S
C477 C473 1.408 . S
C477 C476 1.404 . S
C477 H489 0.930 . S
C478 C474 1.524 . S
C478 H490 0.956 . S
C478 H491 0.961 . S
C478 H492 0.961 . S
C479 C476 1.539 . S
C479 H493 0.958 . S
C479 H494 0.961 . S
C479 H495 0.960 . S
H480 C464 0.931 . S
H481 C469 0.929 . S
H482 C470 0.960 . S
H483 C470 0.962 . S
H484 C470 0.960 . S
H485 C471 0.961 . S
H486 C471 0.961 . S
H487 C471 0.961 . S
H488 C472 0.931 . S
H489 C477 0.930 . S
H490 C478 0.956 . S
H491 C478 0.961 . S
H492 C478 0.961 . S
H493 C479 0.958 . S
H494 C479 0.961 . S
H495 C479 0.960 . S
C496 C497 1.391 . S
C496 C498 1.394 . S
C496 H512 0.931 . S
C497 C496 1.391 . S
C497 C501 1.376 . S
C498 C496 1.394 . S
C498 C499 1.369 . S
C498 C502 1.531 . S
C499 C498 1.369 . S
C499 C500 1.410 . S
C499 C507 1.503 . S
C500 C499 1.410 . S
C500 C501 1.392 . S
C500 C503 1.511 . S
C501 C497 1.376 . S
C501 C500 1.392 . S
C501 H513 0.929 . S
C502 C498 1.531 . S
C502 H514 0.960 . S
C502 H515 0.962 . S
C502 H516 0.960 . S
C503 C500 1.511 . S
C503 H517 0.961 . S
C503 H518 0.961 . S
C503 H519 0.961 . S
C504 C505 1.370 . S
C504 C506 1.363 . S
C504 H520 0.931 . S
C505 C504 1.370 . S
C505 C509 1.408 . S
C506 C504 1.363 . S
C506 C507 1.370 . S
C506 C510 1.524 . S
C507 C499 1.503 . S
C507 C506 1.370 . S
C507 C508 1.403 . S
C508 C507 1.403 . S
C508 C509 1.404 . S
C508 C511 1.539 . S
C509 C505 1.408 . S
C509 C508 1.404 . S
C509 H521 0.930 . S
C510 C506 1.524 . S
C510 H522 0.956 . S
C510 H523 0.961 . S
C510 H524 0.961 . S
C511 C508 1.539 . S
C511 H525 0.958 . S
C511 H526 0.961 . S
C511 H527 0.960 . S
H512 C496 0.931 . S
H513 C501 0.929 . S
H514 C502 0.960 . S
H515 C502 0.962 . S
H516 C502 0.960 . S
H517 C503 0.961 . S
H518 C503 0.961 . S
H519 C503 0.961 . S
H520 C504 0.931 . S
H521 C509 0.930 . S
H522 C510 0.956 . S
H523 C510 0.961 . S
H524 C510 0.961 . S
H525 C511 0.958 . S
H526 C511 0.961 . S
H527 C511 0.960 . S
C528 C529 1.391 . S
C528 C530 1.394 . S
C528 H544 0.931 . S
C529 C528 1.391 . S
C529 C533 1.376 . S
C530 C528 1.394 . S
C530 C531 1.369 . S
C530 C534 1.531 1_455 S
C531 C530 1.369 . S
C531 C532 1.410 . S
C531 C539 1.503 . S
C532 C531 1.410 . S
C532 C533 1.392 . S
C532 C535 1.511 . S
C533 C529 1.376 . S
C533 C532 1.392 . S
C533 H545 0.929 . S
C534 C530 1.531 1_655 S
C534 H546 0.960 . S
C534 H547 0.962 . S
C534 H548 0.960 . S
C535 C532 1.511 . S
C535 H549 0.961 . S
C535 H550 0.961 . S
C535 H551 0.961 . S
C536 C537 1.370 . S
C536 C538 1.363 . S
C536 H552 0.931 . S
C537 C536 1.370 . S
C537 C541 1.408 1_655 S
C538 C536 1.363 . S
C538 C539 1.370 1_655 S
C538 C542 1.524 . S
C539 C531 1.503 . S
C539 C538 1.370 1_455 S
C539 C540 1.403 . S
C540 C539 1.403 . S
C540 C541 1.404 . S
C540 C543 1.539 . S
C541 C537 1.408 1_455 S
C541 C540 1.404 . S
C541 H553 0.930 . S
C542 C538 1.524 . S
C542 H554 0.956 . S
C542 H555 0.961 . S
C542 H556 0.961 . S
C543 C540 1.539 . S
C543 H557 0.958 . S
C543 H558 0.961 . S
C543 H559 0.960 . S
H544 C528 0.931 . S
H545 C533 0.929 . S
H546 C534 0.960 . S
H547 C534 0.962 . S
H548 C534 0.960 . S
H549 C535 0.961 . S
H550 C535 0.961 . S
H551 C535 0.961 . S
H552 C536 0.931 . S
H553 C541 0.930 . S
H554 C542 0.956 . S
H555 C542 0.961 . S
H556 C542 0.961 . S
H557 C543 0.958 . S
H558 C543 0.961 . S
H559 C543 0.960 . S
C560 C561 1.391 . S
C560 C562 1.394 1_455 S
C560 H576 0.931 1_455 S
C561 C560 1.391 . S
C561 C565 1.376 . S
C562 C560 1.394 1_655 S
C562 C563 1.369 1_655 S
C562 C566 1.531 . S
C563 C562 1.369 1_455 S
C563 C564 1.410 . S
C563 C571 1.503 . S
C564 C563 1.410 . S
C564 C565 1.392 . S
C564 C567 1.511 . S
C565 C561 1.376 . S
C565 C564 1.392 . S
C565 H577 0.929 . S
C566 C562 1.531 . S
C566 H578 0.960 . S
C566 H579 0.962 . S
C566 H580 0.960 . S
C567 C564 1.511 . S
C567 H581 0.961 . S
C567 H582 0.961 . S
C567 H583 0.961 . S
C568 C569 1.370 . S
C568 C570 1.363 . S
C568 H584 0.931 . S
C569 C568 1.370 . S
C569 C573 1.408 1_655 S
C570 C568 1.363 . S
C570 C571 1.370 1_655 S
C570 C574 1.524 . S
C571 C563 1.503 . S
C571 C570 1.370 1_455 S
C571 C572 1.403 . S
C572 C571 1.403 . S
C572 C573 1.404 . S
C572 C575 1.539 . S
C573 C569 1.408 1_455 S
C573 C572 1.404 . S
C573 H585 0.930 . S
C574 C570 1.524 . S
C574 H586 0.956 . S
C574 H587 0.961 1_655 S
C574 H588 0.961 . S
C575 C572 1.539 . S
C575 H589 0.958 . S
C575 H590 0.961 . S
C575 H591 0.960 . S
H576 C560 0.931 1_655 S
H577 C565 0.929 . S
H578 C566 0.960 . S
H579 C566 0.962 . S
H580 C566 0.960 . S
H581 C567 0.961 . S
H582 C567 0.961 . S
H583 C567 0.961 . S
H584 C568 0.931 . S
H585 C573 0.930 . S
H586 C574 0.956 . S
H587 C574 0.961 1_455 S
H588 C574 0.961 . S
H589 C575 0.958 . S
H590 C575 0.961 . S
H591 C575 0.960 . S
C592 C593 1.391 . S
C592 C594 1.394 . S
C592 H608 0.931 . S
C593 C592 1.391 . S
C593 C597 1.376 . S
C594 C592 1.394 . S
C594 C595 1.369 . S
C594 C598 1.531 . S
C595 C594 1.369 . S
C595 C596 1.410 . S
C595 C603 1.503 . S
C596 C595 1.410 . S
C596 C597 1.392 . S
C596 C599 1.511 . S
C597 C593 1.376 . S
C597 C596 1.392 . S
C597 H609 0.929 . S
C598 C594 1.531 . S
C598 H610 0.960 . S
C598 H611 0.962 . S
C598 H612 0.960 . S
C599 C596 1.511 . S
C599 H613 0.961 . S
C599 H614 0.961 . S
C599 H615 0.961 . S
C600 C601 1.370 . S
C600 C602 1.363 . S
C600 H616 0.931 . S
C601 C600 1.370 . S
C601 C605 1.408 . S
C602 C600 1.363 . S
C602 C603 1.370 . S
C602 C606 1.524 . S
C603 C595 1.503 . S
C603 C602 1.370 . S
C603 C604 1.403 . S
C604 C603 1.403 . S
C604 C605 1.404 . S
C604 C607 1.539 . S
C605 C601 1.408 . S
C605 C604 1.404 . S
C605 H617 0.930 . S
C606 C602 1.524 . S
C606 H618 0.956 . S
C606 H619 0.961 . S
C606 H620 0.961 . S
C607 C604 1.539 . S
C607 H621 0.958 . S
C607 H622 0.961 . S
C607 H623 0.960 . S
H608 C592 0.931 . S
H609 C597 0.929 . S
H610 C598 0.960 . S
H611 C598 0.962 . S
H612 C598 0.960 . S
H613 C599 0.961 . S
H614 C599 0.961 . S
H615 C599 0.961 . S
H616 C600 0.931 . S
H617 C605 0.930 . S
H618 C606 0.956 . S
H619 C606 0.961 . S
H620 C606 0.961 . S
H621 C607 0.958 . S
H622 C607 0.961 . S
H623 C607 0.960 . S
C624 C625 1.391 . S
C624 C626 1.394 . S
C624 H640 0.931 . S
C625 C624 1.391 . S
C625 C629 1.376 . S
C626 C624 1.394 . S
C626 C627 1.369 . S
C626 C630 1.531 . S
C627 C626 1.369 . S
C627 C628 1.410 . S
C627 C635 1.503 . S
C628 C627 1.410 . S
C628 C629 1.392 . S
C628 C631 1.511 . S
C629 C625 1.376 . S
C629 C628 1.392 . S
C629 H641 0.929 . S
C630 C626 1.531 . S
C630 H642 0.960 . S
C630 H643 0.962 . S
C630 H644 0.960 . S
C631 C628 1.511 . S
C631 H645 0.961 . S
C631 H646 0.961 . S
C631 H647 0.961 . S
C632 C633 1.370 . S
C632 C634 1.363 . S
C632 H648 0.931 . S
C633 C632 1.370 . S
C633 C637 1.408 . S
C634 C632 1.363 . S
C634 C635 1.370 . S
C634 C638 1.524 . S
C635 C627 1.503 . S
C635 C634 1.370 . S
C635 C636 1.403 . S
C636 C635 1.403 . S
C636 C637 1.404 . S
C636 C639 1.539 . S
C637 C633 1.408 . S
C637 C636 1.404 . S
C637 H649 0.930 . S
C638 C634 1.524 . S
C638 H650 0.956 . S
C638 H651 0.961 . S
C638 H652 0.961 . S
C639 C636 1.539 . S
C639 H653 0.958 . S
C639 H654 0.961 . S
C639 H655 0.960 . S
H640 C624 0.931 . S
H641 C629 0.929 . S
H642 C630 0.960 . S
H643 C630 0.962 . S
H644 C630 0.960 . S
H645 C631 0.961 . S
H646 C631 0.961 . S
H647 C631 0.961 . S
H648 C632 0.931 . S
H649 C637 0.930 . S
H650 C638 0.956 . S
H651 C638 0.961 . S
H652 C638 0.961 . S
H653 C639 0.958 . S
H654 C639 0.961 . S
H655 C639 0.960 . S
C656 C657 1.391 . S
C656 C658 1.394 . S
C656 H672 0.931 . S
C657 C656 1.391 . S
C657 C661 1.376 1_455 S
C658 C656 1.394 . S
C658 C659 1.369 1_455 S
C658 C662 1.531 . S
C659 C658 1.369 1_655 S
C659 C660 1.410 . S
C659 C667 1.503 . S
C660 C659 1.410 . S
C660 C661 1.392 . S
C660 C663 1.511 . S
C661 C657 1.376 1_655 S
C661 C660 1.392 . S
C661 H673 0.929 . S
C662 C658 1.531 . S
C662 H674 0.960 . S
C662 H675 0.962 . S
C662 H676 0.960 . S
C663 C660 1.511 . S
C663 H677 0.961 . S
C663 H678 0.961 . S
C663 H679 0.961 . S
C664 C665 1.370 . S
C664 C666 1.363 . S
C664 H680 0.931 . S
C665 C664 1.370 . S
C665 C669 1.408 . S
C666 C664 1.363 . S
C666 C667 1.370 . S
C666 C670 1.524 . S
C667 C659 1.503 . S
C667 C666 1.370 . S
C667 C668 1.403 . S
C668 C667 1.403 . S
C668 C669 1.404 . S
C668 C671 1.539 . S
C669 C665 1.408 . S
C669 C668 1.404 . S
C669 H681 0.930 . S
C670 C666 1.524 . S
C670 H682 0.956 . S
C670 H683 0.961 . S
C670 H684 0.961 . S
C671 C668 1.539 . S
C671 H685 0.958 . S
C671 H686 0.961 . S
C671 H687 0.960 . S
H672 C656 0.931 . S
H673 C661 0.929 . S
H674 C662 0.960 . S
H675 C662 0.962 . S
H676 C662 0.960 . S
H677 C663 0.961 . S
H678 C663 0.961 . S
H679 C663 0.961 . S
H680 C664 0.931 . S
H681 C669 0.930 . S
H682 C670 0.956 . S
H683 C670 0.961 . S
H684 C670 0.961 . S
H685 C671 0.958 . S
H686 C671 0.961 . S
H687 C671 0.960 . S
C688 C689 1.391 . S
C688 C690 1.394 . S
C688 H704 0.931 . S
C689 C688 1.391 . S
C689 C693 1.376 . S
C690 C688 1.394 . S
C690 C691 1.369 . S
C690 C694 1.531 . S
C691 C690 1.369 . S
C691 C692 1.410 . S
C691 C699 1.503 . S
C692 C691 1.410 . S
C692 C693 1.392 . S
C692 C695 1.511 . S
C693 C689 1.376 . S
C693 C692 1.392 . S
C693 H705 0.929 . S
C694 C690 1.531 . S
C694 H706 0.960 . S
C694 H707 0.962 . S
C694 H708 0.960 . S
C695 C692 1.511 . S
C695 H709 0.961 . S
C695 H710 0.961 . S
C695 H711 0.961 . S
C696 C697 1.370 . S
C696 C698 1.363 . S
C696 H712 0.931 . S
C697 C696 1.370 . S
C697 C701 1.408 . S
C698 C696 1.363 . S
C698 C699 1.370 . S
C698 C702 1.524 . S
C699 C691 1.503 . S
C699 C698 1.370 . S
C699 C700 1.403 . S
C700 C699 1.403 . S
C700 C701 1.404 . S
C700 C703 1.539 . S
C701 C697 1.408 . S
C701 C700 1.404 . S
C701 H713 0.930 . S
C702 C698 1.524 . S
C702 H714 0.956 . S
C702 H715 0.961 . S
C702 H716 0.961 . S
C703 C700 1.539 . S
C703 H717 0.958 . S
C703 H718 0.961 . S
C703 H719 0.960 . S
H704 C688 0.931 . S
H705 C693 0.929 . S
H706 C694 0.960 . S
H707 C694 0.962 . S
H708 C694 0.960 . S
H709 C695 0.961 . S
H710 C695 0.961 . S
H711 C695 0.961 . S
H712 C696 0.931 . S
H713 C701 0.930 . S
H714 C702 0.956 . S
H715 C702 0.961 . S
H716 C702 0.961 . S
H717 C703 0.958 . S
H718 C703 0.961 . S
H719 C703 0.960 . S
C720 C721 1.391 . S
C720 C722 1.394 . S
C720 H736 0.931 . S
C721 C720 1.391 . S
C721 C725 1.376 . S
C722 C720 1.394 . S
C722 C723 1.369 . S
C722 C726 1.531 . S
C723 C722 1.369 . S
C723 C724 1.410 . S
C723 C731 1.503 . S
C724 C723 1.410 . S
C724 C725 1.392 . S
C724 C727 1.511 . S
C725 C721 1.376 . S
C725 C724 1.392 . S
C725 H737 0.929 . S
C726 C722 1.531 . S
C726 H738 0.960 . S
C726 H739 0.962 . S
C726 H740 0.960 . S
C727 C724 1.511 . S
C727 H741 0.961 . S
C727 H742 0.961 . S
C727 H743 0.961 1_554 S
C728 C729 1.370 . S
C728 C730 1.363 1_556 S
C728 H744 0.931 . S
C729 C728 1.370 . S
C729 C733 1.408 . S
C730 C728 1.363 1_554 S
C730 C731 1.370 . S
C730 C734 1.524 . S
C731 C723 1.503 . S
C731 C730 1.370 . S
C731 C732 1.403 1_554 S
C732 C731 1.403 1_556 S
C732 C733 1.404 . S
C732 C735 1.539 . S
C733 C729 1.408 . S
C733 C732 1.404 . S
C733 H745 0.930 . S
C734 C730 1.524 . S
C734 H746 0.956 . S
C734 H747 0.961 . S
C734 H748 0.961 . S
C735 C732 1.539 . S
C735 H749 0.958 . S
C735 H750 0.961 . S
C735 H751 0.960 . S
H736 C720 0.931 . S
H737 C725 0.929 . S
H738 C726 0.960 . S
H739 C726 0.962 . S
H740 C726 0.960 . S
H741 C727 0.961 . S
H742 C727 0.961 . S
H743 C727 0.961 1_556 S
H744 C728 0.931 . S
H745 C733 0.930 . S
H746 C734 0.956 . S
H747 C734 0.961 . S
H748 C734 0.961 . S
H749 C735 0.958 . S
H750 C735 0.961 . S
H751 C735 0.960 . S
C752 C753 1.391 . S
C752 C754 1.394 . S
C752 H768 0.931 . S
C753 C752 1.391 . S
C753 C757 1.376 . S
C754 C752 1.394 . S
C754 C755 1.369 . S
C754 C758 1.531 . S
C755 C754 1.369 . S
C755 C756 1.410 . S
C755 C763 1.503 . S
C756 C755 1.410 . S
C756 C757 1.392 . S
C756 C759 1.511 . S
C757 C753 1.376 . S
C757 C756 1.392 . S
C757 H769 0.929 . S
C758 C754 1.531 . S
C758 H770 0.960 . S
C758 H771 0.962 . S
C758 H772 0.960 . S
C759 C756 1.511 . S
C759 H773 0.961 . S
C759 H774 0.961 . S
C759 H775 0.961 . S
C760 C761 1.370 . S
C760 C762 1.363 . S
C760 H776 0.931 . S
C761 C760 1.370 . S
C761 C765 1.408 . S
C762 C760 1.363 . S
C762 C763 1.370 . S
C762 C766 1.524 . S
C763 C755 1.503 . S
C763 C762 1.370 . S
C763 C764 1.403 . S
C764 C763 1.403 . S
C764 C765 1.404 . S
C764 C767 1.539 . S
C765 C761 1.408 . S
C765 C764 1.404 . S
C765 H777 0.930 . S
C766 C762 1.524 . S
C766 H778 0.956 . S
C766 H779 0.961 . S
C766 H780 0.961 . S
C767 C764 1.539 . S
C767 H781 0.958 . S
C767 H782 0.961 . S
C767 H783 0.960 . S
H768 C752 0.931 . S
H769 C757 0.929 . S
H770 C758 0.960 . S
H771 C758 0.962 . S
H772 C758 0.960 . S
H773 C759 0.961 . S
H774 C759 0.961 . S
H775 C759 0.961 . S
H776 C760 0.931 . S
H777 C765 0.930 . S
H778 C766 0.956 . S
H779 C766 0.961 . S
H780 C766 0.961 . S
H781 C767 0.958 . S
H782 C767 0.961 . S
H783 C767 0.960 . S
C784 C785 1.391 . S
C784 C786 1.394 . S
C784 H800 0.931 . S
C785 C784 1.391 . S
C785 C789 1.376 . S
C786 C784 1.394 . S
C786 C787 1.369 1_554 S
C786 C790 1.531 . S
C787 C786 1.369 1_556 S
C787 C788 1.410 . S
C787 C795 1.503 . S
C788 C787 1.410 . S
C788 C789 1.392 1_556 S
C788 C791 1.511 . S
C789 C785 1.376 . S
C789 C788 1.392 1_554 S
C789 H801 0.929 . S
C790 C786 1.531 . S
C790 H802 0.960 1_454 S
C790 H803 0.962 . S
C790 H804 0.960 1_455 S
C791 C788 1.511 . S
C791 H805 0.961 . S
C791 H806 0.961 . S
C791 H807 0.961 . S
C792 C793 1.370 . S
C792 C794 1.363 . S
C792 H808 0.931 . S
C793 C792 1.370 . S
C793 C797 1.408 . S
C794 C792 1.363 . S
C794 C795 1.370 . S
C794 C798 1.524 . S
C795 C787 1.503 . S
C795 C794 1.370 . S
C795 C796 1.403 . S
C796 C795 1.403 . S
C796 C797 1.404 . S
C796 C799 1.539 . S
C797 C793 1.408 . S
C797 C796 1.404 . S
C797 H809 0.930 1_455 S
C798 C794 1.524 . S
C798 H810 0.956 . S
C798 H811 0.961 . S
C798 H812 0.961 . S
C799 C796 1.539 . S
C799 H813 0.958 . S
C799 H814 0.961 . S
C799 H815 0.960 . S
H800 C784 0.931 . S
H801 C789 0.929 . S
H802 C790 0.960 1_656 S
H803 C790 0.962 . S
H804 C790 0.960 1_655 S
H805 C791 0.961 . S
H806 C791 0.961 . S
H807 C791 0.961 . S
H808 C792 0.931 . S
H809 C797 0.930 1_655 S
H810 C798 0.956 . S
H811 C798 0.961 . S
H812 C798 0.961 . S
H813 C799 0.958 . S
H814 C799 0.961 . S
H815 C799 0.960 . S
C816 C817 1.391 . S
C816 C818 1.394 . S
C816 H832 0.931 . S
C817 C816 1.391 . S
C817 C821 1.376 . S
C818 C816 1.394 . S
C818 C819 1.369 . S
C818 C822 1.531 . S
C819 C818 1.369 . S
C819 C820 1.410 . S
C819 C827 1.503 . S
C820 C819 1.410 . S
C820 C821 1.392 . S
C820 C823 1.511 . S
C821 C817 1.376 . S
C821 C820 1.392 . S
C821 H833 0.929 . S
C822 C818 1.531 . S
C822 H834 0.960 . S
C822 H835 0.962 . S
C822 H836 0.960 . S
C823 C820 1.511 . S
C823 H837 0.961 . S
C823 H838 0.961 . S
C823 H839 0.961 . S
C824 C825 1.370 . S
C824 C826 1.363 . S
C824 H840 0.931 . S
C825 C824 1.370 . S
C825 C829 1.408 . S
C826 C824 1.363 . S
C826 C827 1.370 . S
C826 C830 1.524 . S
C827 C819 1.503 . S
C827 C826 1.370 . S
C827 C828 1.403 . S
C828 C827 1.403 . S
C828 C829 1.404 . S
C828 C831 1.539 . S
C829 C825 1.408 . S
C829 C828 1.404 . S
C829 H841 0.930 . S
C830 C826 1.524 . S
C830 H842 0.956 . S
C830 H843 0.961 . S
C830 H844 0.961 . S
C831 C828 1.539 . S
C831 H845 0.958 . S
C831 H846 0.961 . S
C831 H847 0.960 . S
H832 C816 0.931 . S
H833 C821 0.929 . S
H834 C822 0.960 . S
H835 C822 0.962 . S
H836 C822 0.960 . S
H837 C823 0.961 . S
H838 C823 0.961 . S
H839 C823 0.961 . S
H840 C824 0.931 . S
H841 C829 0.930 . S
H842 C830 0.956 . S
H843 C830 0.961 . S
H844 C830 0.961 . S
H845 C831 0.958 . S
H846 C831 0.961 . S
H847 C831 0.960 . S
C848 C849 1.391 . S
C848 C850 1.394 . S
C848 H864 0.931 . S
C849 C848 1.391 . S
C849 C853 1.376 . S
C850 C848 1.394 . S
C850 C851 1.369 . S
C850 C854 1.531 . S
C851 C850 1.369 . S
C851 C852 1.410 . S
C851 C859 1.503 . S
C852 C851 1.410 . S
C852 C853 1.392 . S
C852 C855 1.511 . S
C853 C849 1.376 . S
C853 C852 1.392 . S
C853 H865 0.929 . S
C854 C850 1.531 . S
C854 H866 0.960 . S
C854 H867 0.962 . S
C854 H868 0.960 . S
C855 C852 1.511 . S
C855 H869 0.961 . S
C855 H870 0.961 . S
C855 H871 0.961 . S
C856 C857 1.370 . S
C856 C858 1.363 . S
C856 H872 0.931 . S
C857 C856 1.370 . S
C857 C861 1.408 . S
C858 C856 1.363 . S
C858 C859 1.370 . S
C858 C862 1.524 . S
C859 C851 1.503 . S
C859 C858 1.370 . S
C859 C860 1.403 . S
C860 C859 1.403 . S
C860 C861 1.404 . S
C860 C863 1.539 . S
C861 C857 1.408 . S
C861 C860 1.404 . S
C861 H873 0.930 . S
C862 C858 1.524 . S
C862 H874 0.956 . S
C862 H875 0.961 . S
C862 H876 0.961 . S
C863 C860 1.539 . S
C863 H877 0.958 . S
C863 H878 0.961 . S
C863 H879 0.960 . S
H864 C848 0.931 . S
H865 C853 0.929 . S
H866 C854 0.960 . S
H867 C854 0.962 . S
H868 C854 0.960 . S
H869 C855 0.961 . S
H870 C855 0.961 . S
H871 C855 0.961 . S
H872 C856 0.931 . S
H873 C861 0.930 . S
H874 C862 0.956 . S
H875 C862 0.961 . S
H876 C862 0.961 . S
H877 C863 0.958 . S
H878 C863 0.961 . S
H879 C863 0.960 . S
C880 C881 1.391 . S
C880 C882 1.394 . S
C880 H896 0.931 . S
C881 C880 1.391 . S
C881 C885 1.376 . S
C882 C880 1.394 . S
C882 C883 1.369 . S
C882 C886 1.531 . S
C883 C882 1.369 . S
C883 C884 1.410 . S
C883 C891 1.503 . S
C884 C883 1.410 . S
C884 C885 1.392 . S
C884 C887 1.511 . S
C885 C881 1.376 . S
C885 C884 1.392 . S
C885 H897 0.929 . S
C886 C882 1.531 . S
C886 H898 0.960 . S
C886 H899 0.962 . S
C886 H900 0.960 . S
C887 C884 1.511 . S
C887 H901 0.961 . S
C887 H902 0.961 . S
C887 H903 0.961 . S
C888 C889 1.370 . S
C888 C890 1.363 . S
C888 H904 0.931 . S
C889 C888 1.370 . S
C889 C893 1.408 . S
C890 C888 1.363 . S
C890 C891 1.370 . S
C890 C894 1.524 . S
C891 C883 1.503 . S
C891 C890 1.370 . S
C891 C892 1.403 . S
C892 C891 1.403 . S
C892 C893 1.404 . S
C892 C895 1.539 . S
C893 C889 1.408 . S
C893 C892 1.404 . S
C893 H905 0.930 . S
C894 C890 1.524 . S
C894 H906 0.956 . S
C894 H907 0.961 . S
C894 H908 0.961 . S
C895 C892 1.539 . S
C895 H909 0.958 . S
C895 H910 0.961 . S
C895 H911 0.960 . S
H896 C880 0.931 . S
H897 C885 0.929 . S
H898 C886 0.960 . S
H899 C886 0.962 . S
H900 C886 0.960 . S
H901 C887 0.961 . S
H902 C887 0.961 . S
H903 C887 0.961 . S
H904 C888 0.931 . S
H905 C893 0.930 . S
H906 C894 0.956 . S
H907 C894 0.961 . S
H908 C894 0.961 . S
H909 C895 0.958 . S
H910 C895 0.961 . S
H911 C895 0.960 . S
C912 C913 1.391 . S
C912 C914 1.394 . S
C912 H928 0.931 . S
C913 C912 1.391 . S
C913 C917 1.376 . S
C914 C912 1.394 . S
C914 C915 1.369 . S
C914 C918 1.531 . S
C915 C914 1.369 . S
C915 C916 1.410 . S
C915 C923 1.503 . S
C916 C915 1.410 . S
C916 C917 1.392 . S
C916 C919 1.511 . S
C917 C913 1.376 . S
C917 C916 1.392 . S
C917 H929 0.929 . S
C918 C914 1.531 . S
C918 H930 0.960 . S
C918 H931 0.962 . S
C918 H932 0.960 . S
C919 C916 1.511 . S
C919 H933 0.961 . S
C919 H934 0.961 . S
C919 H935 0.961 . S
C920 C921 1.370 1_545 S
C920 C922 1.363 . S
C920 H936 0.931 . S
C921 C920 1.370 1_565 S
C921 C925 1.408 . S
C922 C920 1.363 . S
C922 C923 1.370 . S
C922 C926 1.524 . S
C923 C915 1.503 . S
C923 C922 1.370 . S
C923 C924 1.403 1_545 S
C924 C923 1.403 1_565 S
C924 C925 1.404 . S
C924 C927 1.539 . S
C925 C921 1.408 . S
C925 C924 1.404 . S
C925 H937 0.930 . S
C926 C922 1.524 . S
C926 H938 0.956 . S
C926 H939 0.961 . S
C926 H940 0.961 . S
C927 C924 1.539 . S
C927 H941 0.952 1_565 S
C927 H942 0.961 . S
C927 H943 0.960 1_565 S
H928 C912 0.931 . S
H929 C917 0.929 . S
H930 C918 0.960 . S
H931 C918 0.962 . S
H932 C918 0.960 . S
H933 C919 0.961 . S
H934 C919 0.961 . S
H935 C919 0.961 . S
H936 C920 0.931 . S
H937 C925 0.930 . S
H938 C926 0.956 . S
H939 C926 0.961 . S
H940 C926 0.961 . S
H941 C927 0.952 1_545 S
H942 C927 0.961 . S
H943 C927 0.960 1_545 S
C944 C945 1.391 . S
C944 C946 1.394 . S
C944 H960 0.931 . S
C945 C944 1.391 . S
C945 C949 1.376 . S
C946 C944 1.394 . S
C946 C947 1.369 . S
C946 C950 1.531 . S
C947 C946 1.369 . S
C947 C948 1.410 . S
C947 C955 1.503 . S
C948 C947 1.410 . S
C948 C949 1.392 . S
C948 C951 1.511 . S
C949 C945 1.376 . S
C949 C948 1.392 . S
C949 H961 0.929 . S
C950 C946 1.531 . S
C950 H962 0.960 . S
C950 H963 0.962 . S
C950 H964 0.960 . S
C951 C948 1.511 . S
C951 H965 0.961 . S
C951 H966 0.961 . S
C951 H967 0.961 . S
C952 C953 1.370 . S
C952 C954 1.363 . S
C952 H968 0.931 . S
C953 C952 1.370 . S
C953 C957 1.408 . S
C954 C952 1.363 . S
C954 C955 1.370 . S
C954 C958 1.524 . S
C955 C947 1.503 . S
C955 C954 1.370 . S
C955 C956 1.403 . S
C956 C955 1.403 . S
C956 C957 1.404 . S
C956 C959 1.539 . S
C957 C953 1.408 . S
C957 C956 1.404 . S
C957 H969 0.930 . S
C958 C954 1.524 . S
C958 H970 0.956 . S
C958 H971 0.961 . S
C958 H972 0.961 . S
C959 C956 1.539 . S
C959 H973 0.958 . S
C959 H974 0.961 . S
C959 H975 0.960 . S
H960 C944 0.931 . S
H961 C949 0.929 . S
H962 C950 0.960 . S
H963 C950 0.962 . S
H964 C950 0.960 . S
H965 C951 0.961 . S
H966 C951 0.961 . S
H967 C951 0.961 . S
H968 C952 0.931 . S
H969 C957 0.930 . S
H970 C958 0.956 . S
H971 C958 0.961 . S
H972 C958 0.961 . S
H973 C959 0.958 . S
H974 C959 0.961 . S
H975 C959 0.960 . S
C976 C977 1.391 . S
C976 C978 1.394 . S
C976 H992 0.931 . S
C977 C976 1.391 . S
C977 C981 1.376 . S
C978 C976 1.394 . S
C978 C979 1.369 1_545 S
C978 C982 1.531 1_545 S
C979 C978 1.369 1_565 S
C979 C980 1.410 . S
C979 C987 1.503 . S
C980 C979 1.410 . S
C980 C981 1.392 1_565 S
C980 C983 1.511 . S
C981 C977 1.376 . S
C981 C980 1.392 1_545 S
C981 H993 0.929 . S
C982 C978 1.531 1_565 S
C982 H994 0.960 . S
C982 H995 0.962 . S
C982 H996 0.960 1_565 S
C983 C980 1.511 . S
C983 H997 0.961 . S
C983 H998 0.961 . S
C983 H999 0.961 . S
C984 C985 1.370 . S
C984 C986 1.363 . S
C984 H1000 0.931 . S
C985 C984 1.370 . S
C985 C989 1.408 1_554 S
C986 C984 1.363 . S
C986 C987 1.370 . S
C986 C990 1.524 . S
C987 C979 1.503 . S
C987 C986 1.370 . S
C987 C988 1.403 . S
C988 C987 1.403 . S
C988 C989 1.404 1_554 S
C988 C991 1.539 1_554 S
C989 C985 1.408 1_556 S
C989 C988 1.404 1_556 S
C989 H1001 0.930 . S
C990 C986 1.524 . S
C990 H1002 0.956 . S
C990 H1003 0.961 . S
C990 H1004 0.961 . S
C991 C988 1.539 1_556 S
C991 H1005 0.958 . S
C991 H1006 0.961 . S
C991 H1007 0.960 . S
H992 C976 0.931 . S
H993 C981 0.929 . S
H994 C982 0.960 . S
H995 C982 0.962 . S
H996 C982 0.960 1_545 S
H997 C983 0.961 . S
H998 C983 0.961 . S
H999 C983 0.961 . S
H1000 C984 0.931 . S
H1001 C989 0.930 . S
H1002 C990 0.956 . S
H1003 C990 0.961 . S
H1004 C990 0.961 . S
H1005 C991 0.958 . S
H1006 C991 0.961 . S
H1007 C991 0.960 . S
C1008 C1009 1.391 . S
C1008 C1010 1.394 . S
C1008 H1024 0.931 . S
C1009 C1008 1.391 . S
C1009 C1013 1.376 . S
C1010 C1008 1.394 . S
C1010 C1011 1.369 . S
C1010 C1014 1.531 . S
C1011 C1010 1.369 . S
C1011 C1012 1.410 . S
C1011 C1019 1.503 . S
C1012 C1011 1.410 . S
C1012 C1013 1.392 . S
C1012 C1015 1.511 . S
C1013 C1009 1.376 . S
C1013 C1012 1.392 . S
C1013 H1025 0.929 . S
C1014 C1010 1.531 . S
C1014 H1026 0.960 . S
C1014 H1027 0.962 . S
C1014 H1028 0.960 . S
C1015 C1012 1.511 . S
C1015 H1029 0.961 . S
C1015 H1030 0.961 . S
C1015 H1031 0.961 . S
C1016 C1017 1.370 . S
C1016 C1018 1.363 . S
C1016 H1032 0.931 . S
C1017 C1016 1.370 . S
C1017 C1021 1.408 . S
C1018 C1016 1.363 . S
C1018 C1019 1.370 . S
C1018 C1022 1.524 . S
C1019 C1011 1.503 . S
C1019 C1018 1.370 . S
C1019 C1020 1.403 . S
C1020 C1019 1.403 . S
C1020 C1021 1.404 . S
C1020 C1023 1.539 . S
C1021 C1017 1.408 . S
C1021 C1020 1.404 . S
C1021 H1033 0.930 . S
C1022 C1018 1.524 . S
C1022 H1034 0.956 . S
C1022 H1035 0.961 . S
C1022 H1036 0.961 . S
C1023 C1020 1.539 . S
C1023 H1037 0.958 . S
C1023 H1038 0.961 . S
C1023 H1039 0.960 . S
H1024 C1008 0.931 . S
H1025 C1013 0.929 . S
H1026 C1014 0.960 . S
H1027 C1014 0.962 . S
H1028 C1014 0.960 . S
H1029 C1015 0.961 . S
H1030 C1015 0.961 . S
H1031 C1015 0.961 . S
H1032 C1016 0.931 . S
H1033 C1021 0.930 . S
H1034 C1022 0.956 . S
H1035 C1022 0.961 . S
H1036 C1022 0.961 . S
H1037 C1023 0.958 . S
H1038 C1023 0.961 . S
H1039 C1023 0.960 . S
C1040 C1041 1.391 . S
C1040 C1042 1.394 . S
C1040 H1056 0.931 . S
C1041 C1040 1.391 . S
C1041 C1045 1.376 . S
C1042 C1040 1.394 . S
C1042 C1043 1.369 . S
C1042 C1046 1.531 . S
C1043 C1042 1.369 . S
C1043 C1044 1.410 . S
C1043 C1051 1.503 . S
C1044 C1043 1.410 . S
C1044 C1045 1.392 . S
C1044 C1047 1.511 . S
C1045 C1041 1.376 . S
C1045 C1044 1.392 . S
C1045 H1057 0.929 . S
C1046 C1042 1.531 . S
C1046 H1058 0.960 . S
C1046 H1059 0.962 . S
C1046 H1060 0.960 . S
C1047 C1044 1.511 . S
C1047 H1061 0.961 . S
C1047 H1062 0.961 . S
C1047 H1063 0.961 . S
C1048 C1049 1.370 1_554 S
C1048 C1050 1.363 1_554 S
C1048 H1064 0.931 . S
C1049 C1048 1.370 1_556 S
C1049 C1053 1.409 . S
C1050 C1048 1.363 1_556 S
C1050 C1051 1.370 . S
C1050 C1054 1.524 1_556 S
C1051 C1043 1.503 . S
C1051 C1050 1.370 . S
C1051 C1052 1.403 . S
C1052 C1051 1.403 . S
C1052 C1053 1.404 . S
C1052 C1055 1.539 . S
C1053 C1049 1.409 . S
C1053 C1052 1.404 . S
C1053 H1065 0.930 . S
C1054 C1050 1.524 1_554 S
C1054 H1066 0.956 1_554 S
C1054 H1067 0.961 . S
C1054 H1068 0.961 . S
C1055 C1052 1.539 . S
C1055 H1069 0.958 . S
C1055 H1070 0.961 . S
C1055 H1071 0.960 . S
H1056 C1040 0.931 . S
H1057 C1045 0.929 . S
H1058 C1046 0.960 . S
H1059 C1046 0.962 . S
H1060 C1046 0.960 . S
H1061 C1047 0.961 . S
H1062 C1047 0.961 . S
H1063 C1047 0.961 . S
H1064 C1048 0.931 . S
H1065 C1053 0.930 . S
H1066 C1054 0.956 1_556 S
H1067 C1054 0.961 . S
H1068 C1054 0.961 . S
H1069 C1055 0.958 . S
H1070 C1055 0.961 . S
H1071 C1055 0.960 . S
C1072 C1073 1.391 . S
C1072 C1074 1.394 . S
C1072 H1088 0.931 . S
C1073 C1072 1.391 . S
C1073 C1077 1.376 . S
C1074 C1072 1.394 . S
C1074 C1075 1.369 . S
C1074 C1078 1.531 . S
C1075 C1074 1.369 . S
C1075 C1076 1.410 . S
C1075 C1083 1.503 . S
C1076 C1075 1.410 . S
C1076 C1077 1.392 . S
C1076 C1079 1.511 . S
C1077 C1073 1.376 . S
C1077 C1076 1.392 . S
C1077 H1089 0.929 . S
C1078 C1074 1.531 . S
C1078 H1090 0.960 . S
C1078 H1091 0.962 . S
C1078 H1092 0.960 . S
C1079 C1076 1.511 . S
C1079 H1093 0.961 . S
C1079 H1094 0.961 . S
C1079 H1095 0.961 . S
C1080 C1081 1.370 . S
C1080 C1082 1.363 . S
C1080 H1096 0.931 . S
C1081 C1080 1.370 . S
C1081 C1085 1.408 . S
C1082 C1080 1.363 . S
C1082 C1083 1.370 . S
C1082 C1086 1.524 . S
C1083 C1075 1.503 . S
C1083 C1082 1.370 . S
C1083 C1084 1.403 . S
C1084 C1083 1.403 . S
C1084 C1085 1.404 . S
C1084 C1087 1.539 . S
C1085 C1081 1.408 . S
C1085 C1084 1.404 . S
C1085 H1097 0.930 . S
C1086 C1082 1.524 . S
C1086 H1098 0.956 . S
C1086 H1099 0.961 . S
C1086 H1100 0.961 . S
C1087 C1084 1.539 . S
C1087 H1101 0.958 . S
C1087 H1102 0.961 . S
C1087 H1103 0.960 . S
H1088 C1072 0.931 . S
H1089 C1077 0.929 . S
H1090 C1078 0.960 . S
H1091 C1078 0.962 . S
H1092 C1078 0.960 . S
H1093 C1079 0.961 . S
H1094 C1079 0.961 . S
H1095 C1079 0.961 . S
H1096 C1080 0.931 . S
H1097 C1085 0.930 . S
H1098 C1086 0.956 . S
H1099 C1086 0.961 . S
H1100 C1086 0.961 . S
H1101 C1087 0.958 . S
H1102 C1087 0.961 . S
H1103 C1087 0.960 . S
C1104 C1105 1.391 . S
C1104 C1106 1.394 . S
C1104 H1120 0.931 . S
C1105 C1104 1.391 . S
C1105 C1109 1.376 . S
C1106 C1104 1.394 . S
C1106 C1107 1.369 . S
C1106 C1110 1.531 . S
C1107 C1106 1.369 . S
C1107 C1108 1.410 . S
C1107 C1115 1.503 . S
C1108 C1107 1.410 . S
C1108 C1109 1.392 . S
C1108 C1111 1.511 . S
C1109 C1105 1.376 . S
C1109 C1108 1.392 . S
C1109 H1121 0.929 . S
C1110 C1106 1.531 . S
C1110 H1122 0.960 . S
C1110 H1123 0.962 . S
C1110 H1124 0.960 . S
C1111 C1108 1.511 . S
C1111 H1125 0.961 . S
C1111 H1126 0.961 . S
C1111 H1127 0.961 . S
C1112 C1113 1.370 . S
C1112 C1114 1.363 . S
C1112 H1128 0.931 . S
C1113 C1112 1.370 . S
C1113 C1117 1.408 . S
C1114 C1112 1.363 . S
C1114 C1115 1.370 . S
C1114 C1118 1.524 . S
C1115 C1107 1.503 . S
C1115 C1114 1.370 . S
C1115 C1116 1.403 . S
C1116 C1115 1.403 . S
C1116 C1117 1.404 . S
C1116 C1119 1.539 . S
C1117 C1113 1.408 . S
C1117 C1116 1.404 . S
C1117 H1129 0.930 . S
C1118 C1114 1.524 . S
C1118 H1130 0.956 . S
C1118 H1131 0.961 . S
C1118 H1132 0.961 . S
C1119 C1116 1.539 . S
C1119 H1133 0.958 . S
C1119 H1134 0.961 . S
C1119 H1135 0.960 . S
H1120 C1104 0.931 . S
H1121 C1109 0.929 . S
H1122 C1110 0.960 . S
H1123 C1110 0.962 . S
H1124 C1110 0.960 . S
H1125 C1111 0.961 . S
H1126 C1111 0.961 . S
H1127 C1111 0.961 . S
H1128 C1112 0.931 . S
H1129 C1117 0.930 . S
H1130 C1118 0.956 . S
H1131 C1118 0.961 . S
H1132 C1118 0.961 . S
H1133 C1119 0.958 . S
H1134 C1119 0.961 . S
H1135 C1119 0.960 . S
C1136 C1137 1.391 . S
C1136 C1138 1.394 . S
C1136 H1152 0.931 . S
C1137 C1136 1.391 . S
C1137 C1141 1.376 . S
C1138 C1136 1.394 . S
C1138 C1139 1.369 . S
C1138 C1142 1.531 . S
C1139 C1138 1.369 . S
C1139 C1140 1.410 . S
C1139 C1147 1.503 . S
C1140 C1139 1.410 . S
C1140 C1141 1.392 . S
C1140 C1143 1.511 . S
C1141 C1137 1.376 . S
C1141 C1140 1.392 . S
C1141 H1153 0.929 . S
C1142 C1138 1.531 . S
C1142 H1154 0.960 . S
C1142 H1155 0.962 . S
C1142 H1156 0.960 . S
C1143 C1140 1.511 . S
C1143 H1157 0.961 . S
C1143 H1158 0.961 . S
C1143 H1159 0.961 . S
C1144 C1145 1.370 . S
C1144 C1146 1.363 . S
C1144 H1160 0.931 . S
C1145 C1144 1.370 . S
C1145 C1149 1.408 . S
C1146 C1144 1.363 . S
C1146 C1147 1.370 . S
C1146 C1150 1.524 . S
C1147 C1139 1.503 . S
C1147 C1146 1.370 . S
C1147 C1148 1.403 . S
C1148 C1147 1.403 . S
C1148 C1149 1.404 . S
C1148 C1151 1.539 . S
C1149 C1145 1.408 . S
C1149 C1148 1.404 . S
C1149 H1161 0.930 . S
C1150 C1146 1.524 . S
C1150 H1162 0.956 . S
C1150 H1163 0.961 . S
C1150 H1164 0.961 . S
C1151 C1148 1.539 . S
C1151 H1165 0.958 . S
C1151 H1166 0.961 . S
C1151 H1167 0.960 . S
H1152 C1136 0.931 . S
H1153 C1141 0.929 . S
H1154 C1142 0.960 . S
H1155 C1142 0.962 . S
H1156 C1142 0.960 . S
H1157 C1143 0.961 . S
H1158 C1143 0.961 . S
H1159 C1143 0.961 . S
H1160 C1144 0.931 . S
H1161 C1149 0.930 . S
H1162 C1150 0.956 . S
H1163 C1150 0.961 . S
H1164 C1150 0.961 . S
H1165 C1151 0.958 . S
H1166 C1151 0.961 . S
H1167 C1151 0.960 . S
C1168 C1169 1.391 . S
C1168 C1170 1.394 . S
C1168 H1184 0.931 . S
C1169 C1168 1.391 . S
C1169 C1173 1.376 . S
C1170 C1168 1.394 . S
C1170 C1171 1.369 . S
C1170 C1174 1.531 . S
C1171 C1170 1.369 . S
C1171 C1172 1.410 . S
C1171 C1179 1.503 . S
C1172 C1171 1.410 . S
C1172 C1173 1.392 . S
C1172 C1175 1.511 . S
C1173 C1169 1.376 . S
C1173 C1172 1.392 . S
C1173 H1185 0.929 . S
C1174 C1170 1.531 . S
C1174 H1186 0.960 . S
C1174 H1187 0.962 . S
C1174 H1188 0.960 . S
C1175 C1172 1.511 . S
C1175 H1189 0.961 . S
C1175 H1190 0.961 . S
C1175 H1191 0.961 . S
C1176 C1177 1.370 . S
C1176 C1178 1.363 . S
C1176 H1192 0.931 . S
C1177 C1176 1.370 . S
C1177 C1181 1.408 . S
C1178 C1176 1.363 . S
C1178 C1179 1.370 . S
C1178 C1182 1.524 . S
C1179 C1171 1.503 . S
C1179 C1178 1.370 . S
C1179 C1180 1.403 . S
C1180 C1179 1.403 . S
C1180 C1181 1.404 . S
C1180 C1183 1.539 . S
C1181 C1177 1.408 . S
C1181 C1180 1.404 . S
C1181 H1193 0.930 . S
C1182 C1178 1.524 . S
C1182 H1194 0.956 . S
C1182 H1195 0.961 . S
C1182 H1196 0.961 . S
C1183 C1180 1.539 . S
C1183 H1197 0.958 . S
C1183 H1198 0.961 . S
C1183 H1199 0.960 . S
H1184 C1168 0.931 . S
H1185 C1173 0.929 . S
H1186 C1174 0.960 . S
H1187 C1174 0.962 . S
H1188 C1174 0.960 . S
H1189 C1175 0.961 . S
H1190 C1175 0.961 . S
H1191 C1175 0.961 . S
H1192 C1176 0.931 . S
H1193 C1181 0.930 . S
H1194 C1182 0.956 . S
H1195 C1182 0.961 . S
H1196 C1182 0.961 . S
H1197 C1183 0.958 . S
H1198 C1183 0.961 . S
H1199 C1183 0.960 . S
C1200 C1201 1.391 . S
C1200 C1202 1.394 . S
C1200 H1216 0.931 . S
C1201 C1200 1.391 . S
C1201 C1205 1.376 . S
C1202 C1200 1.394 . S
C1202 C1203 1.369 . S
C1202 C1206 1.531 . S
C1203 C1202 1.369 . S
C1203 C1204 1.410 . S
C1203 C1211 1.503 . S
C1204 C1203 1.410 . S
C1204 C1205 1.392 . S
C1204 C1207 1.511 . S
C1205 C1201 1.376 . S
C1205 C1204 1.392 . S
C1205 H1217 0.929 . S
C1206 C1202 1.531 . S
C1206 H1218 0.960 . S
C1206 H1219 0.962 . S
C1206 H1220 0.960 . S
C1207 C1204 1.511 . S
C1207 H1221 0.961 . S
C1207 H1222 0.972 . S
C1207 H1223 0.961 1_455 S
C1208 C1209 1.370 . S
C1208 C1210 1.363 1_655 S
C1208 H1224 0.931 . S
C1209 C1208 1.370 . S
C1209 C1213 1.408 . S
C1210 C1208 1.363 1_455 S
C1210 C1211 1.370 . S
C1210 C1214 1.524 . S
C1211 C1203 1.503 . S
C1211 C1210 1.370 . S
C1211 C1212 1.403 1_455 S
C1212 C1211 1.403 1_655 S
C1212 C1213 1.404 . S
C1212 C1215 1.539 . S
C1213 C1209 1.408 . S
C1213 C1212 1.404 . S
C1213 H1225 0.930 . S
C1214 C1210 1.524 . S
C1214 H1226 0.956 . S
C1214 H1227 0.961 . S
C1214 H1228 0.961 . S
C1215 C1212 1.539 . S
C1215 H1229 0.958 1_655 S
C1215 H1230 0.961 . S
C1215 H1231 0.960 1_655 S
H1216 C1200 0.931 . S
H1217 C1205 0.929 . S
H1218 C1206 0.960 . S
H1219 C1206 0.962 . S
H1220 C1206 0.960 . S
H1221 C1207 0.961 . S
H1222 C1207 0.972 . S
H1223 C1207 0.961 1_655 S
H1224 C1208 0.931 . S
H1225 C1213 0.930 . S
H1226 C1214 0.956 . S
H1227 C1214 0.961 . S
H1228 C1214 0.961 . S
H1229 C1215 0.958 1_455 S
H1230 C1215 0.961 . S
H1231 C1215 0.960 1_455 S
C1232 C1233 1.391 . S
C1232 C1234 1.394 . S
C1232 H1248 0.931 . S
C1233 C1232 1.391 . S
C1233 C1237 1.376 . S
C1234 C1232 1.394 . S
C1234 C1235 1.369 . S
C1234 C1238 1.531 . S
C1235 C1234 1.369 . S
C1235 C1236 1.410 . S
C1235 C1243 1.503 . S
C1236 C1235 1.410 . S
C1236 C1237 1.392 . S
C1236 C1239 1.511 . S
C1237 C1233 1.376 . S
C1237 C1236 1.392 . S
C1237 H1249 0.929 . S
C1238 C1234 1.531 . S
C1238 H1250 0.960 . S
C1238 H1251 0.962 . S
C1238 H1252 0.960 . S
C1239 C1236 1.511 . S
C1239 H1253 0.961 . S
C1239 H1254 0.961 . S
C1239 H1255 0.961 . S
C1240 C1241 1.370 . S
C1240 C1242 1.363 . S
C1240 H1256 0.931 . S
C1241 C1240 1.370 . S
C1241 C1245 1.408 . S
C1242 C1240 1.363 . S
C1242 C1243 1.370 . S
C1242 C1246 1.524 . S
C1243 C1235 1.503 . S
C1243 C1242 1.370 . S
C1243 C1244 1.403 . S
C1244 C1243 1.403 . S
C1244 C1245 1.404 . S
C1244 C1247 1.539 . S
C1245 C1241 1.408 . S
C1245 C1244 1.404 . S
C1245 H1257 0.930 . S
C1246 C1242 1.524 . S
C1246 H1258 0.956 . S
C1246 H1259 0.961 . S
C1246 H1260 0.961 . S
C1247 C1244 1.539 . S
C1247 H1261 0.958 . S
C1247 H1262 0.961 . S
C1247 H1263 0.960 . S
H1248 C1232 0.931 . S
H1249 C1237 0.929 . S
H1250 C1238 0.960 . S
H1251 C1238 0.962 . S
H1252 C1238 0.960 . S
H1253 C1239 0.961 . S
H1254 C1239 0.961 . S
H1255 C1239 0.961 . S
H1256 C1240 0.931 . S
H1257 C1245 0.930 . S
H1258 C1246 0.956 . S
H1259 C1246 0.961 . S
H1260 C1246 0.961 . S
H1261 C1247 0.958 . S
H1262 C1247 0.961 . S
H1263 C1247 0.960 . S
C1264 C1265 1.391 . S
C1264 C1266 1.394 . S
C1264 H1280 0.931 . S
C1265 C1264 1.391 . S
C1265 C1269 1.376 . S
C1266 C1264 1.394 . S
C1266 C1267 1.369 . S
C1266 C1270 1.531 . S
C1267 C1266 1.369 . S
C1267 C1268 1.410 . S
C1267 C1275 1.503 . S
C1268 C1267 1.410 . S
C1268 C1269 1.392 . S
C1268 C1271 1.511 . S
C1269 C1265 1.376 . S
C1269 C1268 1.392 . S
C1269 H1281 0.929 . S
C1270 C1266 1.531 . S
C1270 H1282 0.960 . S
C1270 H1283 0.962 . S
C1270 H1284 0.960 . S
C1271 C1268 1.511 . S
C1271 H1285 0.961 . S
C1271 H1286 0.961 . S
C1271 H1287 0.961 . S
C1272 C1273 1.370 . S
C1272 C1274 1.363 . S
C1272 H1288 0.931 . S
C1273 C1272 1.370 . S
C1273 C1277 1.408 . S
C1274 C1272 1.363 . S
C1274 C1275 1.370 . S
C1274 C1278 1.524 . S
C1275 C1267 1.503 . S
C1275 C1274 1.370 . S
C1275 C1276 1.403 . S
C1276 C1275 1.403 . S
C1276 C1277 1.404 . S
C1276 C1279 1.539 . S
C1277 C1273 1.408 . S
C1277 C1276 1.404 . S
C1277 H1289 0.930 . S
C1278 C1274 1.524 . S
C1278 H1290 0.956 . S
C1278 H1291 0.961 . S
C1278 H1292 0.961 . S
C1279 C1276 1.539 . S
C1279 H1293 0.958 . S
C1279 H1294 0.961 . S
C1279 H1295 0.960 . S
H1280 C1264 0.931 . S
H1281 C1269 0.929 . S
H1282 C1270 0.960 . S
H1283 C1270 0.962 . S
H1284 C1270 0.960 . S
H1285 C1271 0.961 . S
H1286 C1271 0.961 . S
H1287 C1271 0.961 . S
H1288 C1272 0.931 . S
H1289 C1277 0.930 . S
H1290 C1278 0.956 . S
H1291 C1278 0.961 . S
H1292 C1278 0.961 . S
H1293 C1279 0.958 . S
H1294 C1279 0.961 . S
H1295 C1279 0.960 . S
C1296 C1297 1.391 . S
C1296 C1298 1.394 . S
C1296 H1312 0.931 . S
C1297 C1296 1.391 . S
C1297 C1301 1.376 . S
C1298 C1296 1.394 . S
C1298 C1299 1.369 . S
C1298 C1302 1.531 . S
C1299 C1298 1.369 . S
C1299 C1300 1.410 . S
C1299 C1307 1.503 . S
C1300 C1299 1.410 . S
C1300 C1301 1.392 . S
C1300 C1303 1.511 . S
C1301 C1297 1.376 . S
C1301 C1300 1.392 . S
C1301 H1313 0.929 . S
C1302 C1298 1.531 . S
C1302 H1314 0.960 . S
C1302 H1315 0.962 . S
C1302 H1316 0.960 . S
C1303 C1300 1.511 . S
C1303 H1317 0.961 . S
C1303 H1318 0.961 . S
C1303 H1319 0.961 . S
C1304 C1305 1.370 . S
C1304 C1306 1.363 . S
C1304 H1320 0.931 . S
C1305 C1304 1.370 . S
C1305 C1309 1.408 . S
C1306 C1304 1.363 . S
C1306 C1307 1.370 . S
C1306 C1310 1.524 . S
C1307 C1299 1.503 . S
C1307 C1306 1.370 . S
C1307 C1308 1.403 . S
C1308 C1307 1.403 . S
C1308 C1309 1.404 . S
C1308 C1311 1.539 . S
C1309 C1305 1.408 . S
C1309 C1308 1.404 . S
C1309 H1321 0.930 . S
C1310 C1306 1.524 . S
C1310 H1322 0.956 . S
C1310 H1323 0.961 . S
C1310 H1324 0.961 . S
C1311 C1308 1.539 . S
C1311 H1325 0.958 . S
C1311 H1326 0.961 . S
C1311 H1327 0.960 . S
H1312 C1296 0.931 . S
H1313 C1301 0.929 . S
H1314 C1302 0.960 . S
H1315 C1302 0.962 . S
H1316 C1302 0.960 . S
H1317 C1303 0.961 . S
H1318 C1303 0.961 . S
H1319 C1303 0.961 . S
H1320 C1304 0.931 . S
H1321 C1309 0.930 . S
H1322 C1310 0.956 . S
H1323 C1310 0.961 . S
H1324 C1310 0.961 . S
H1325 C1311 0.958 . S
H1326 C1311 0.961 . S
H1327 C1311 0.960 . S
C1328 C1329 1.391 . S
C1328 C1330 1.394 . S
C1328 H1344 0.931 . S
C1329 C1328 1.391 . S
C1329 C1333 1.376 . S
C1330 C1328 1.394 . S
C1330 C1331 1.369 . S
C1330 C1334 1.531 . S
C1331 C1330 1.369 . S
C1331 C1332 1.410 . S
C1331 C1339 1.503 . S
C1332 C1331 1.410 . S
C1332 C1333 1.392 . S
C1332 C1335 1.511 . S
C1333 C1329 1.376 . S
C1333 C1332 1.392 . S
C1333 H1345 0.929 . S
C1334 C1330 1.531 . S
C1334 H1346 0.960 . S
C1334 H1347 0.962 . S
C1334 H1348 0.960 . S
C1335 C1332 1.511 . S
C1335 H1349 0.961 . S
C1335 H1350 0.961 . S
C1335 H1351 0.961 . S
C1336 C1337 1.370 . S
C1336 C1338 1.363 . S
C1336 H1352 0.931 . S
C1337 C1336 1.370 . S
C1337 C1341 1.408 . S
C1338 C1336 1.363 . S
C1338 C1339 1.370 . S
C1338 C1342 1.524 . S
C1339 C1331 1.503 . S
C1339 C1338 1.370 . S
C1339 C1340 1.403 . S
C1340 C1339 1.403 . S
C1340 C1341 1.404 . S
C1340 C1343 1.539 . S
C1341 C1337 1.408 . S
C1341 C1340 1.404 . S
C1341 H1353 0.930 . S
C1342 C1338 1.524 . S
C1342 H1354 0.956 . S
C1342 H1355 0.961 . S
C1342 H1356 0.961 . S
C1343 C1340 1.539 . S
C1343 H1357 0.958 . S
C1343 H1358 0.961 . S
C1343 H1359 0.960 . S
H1344 C1328 0.931 . S
H1345 C1333 0.929 . S
H1346 C1334 0.960 . S
H1347 C1334 0.962 . S
H1348 C1334 0.960 . S
H1349 C1335 0.961 . S
H1350 C1335 0.961 . S
H1351 C1335 0.961 . S
H1352 C1336 0.931 . S
H1353 C1341 0.930 . S
H1354 C1342 0.956 . S
H1355 C1342 0.961 . S
H1356 C1342 0.961 . S
H1357 C1343 0.958 . S
H1358 C1343 0.961 . S
H1359 C1343 0.960 . S
C1360 C1361 1.391 . S
C1360 C1362 1.394 . S
C1360 H1376 0.931 . S
C1361 C1360 1.391 . S
C1361 C1365 1.376 1_545 S
C1362 C1360 1.394 . S
C1362 C1363 1.369 . S
C1362 C1366 1.531 . S
C1363 C1362 1.369 . S
C1363 C1364 1.410 . S
C1363 C1371 1.503 . S
C1364 C1363 1.410 . S
C1364 C1365 1.392 1_545 S
C1364 C1367 1.511 1_645 S
C1365 C1361 1.376 1_565 S
C1365 C1364 1.392 1_565 S
C1365 H1377 0.929 . S
C1366 C1362 1.531 . S
C1366 H1378 0.960 . S
C1366 H1379 0.962 . S
C1366 H1380 0.960 . S
C1367 C1364 1.511 1_465 S
C1367 H1381 0.961 . S
C1367 H1382 0.961 1_565 S
C1367 H1383 0.961 . S
C1368 C1369 1.370 . S
C1368 C1370 1.363 . S
C1368 H1384 0.931 . S
C1369 C1368 1.370 . S
C1369 C1373 1.408 . S
C1370 C1368 1.363 . S
C1370 C1371 1.370 1_455 S
C1370 C1374 1.524 1_455 S
C1371 C1363 1.503 . S
C1371 C1370 1.370 1_655 S
C1371 C1372 1.403 1_655 S
C1372 C1371 1.403 1_455 S
C1372 C1373 1.404 . S
C1372 C1375 1.539 . S
C1373 C1369 1.408 . S
C1373 C1372 1.404 . S
C1373 H1385 0.930 . S
C1374 C1370 1.524 1_655 S
C1374 H1386 0.956 . S
C1374 H1387 0.961 . S
C1374 H1388 0.961 1_655 S
C1375 C1372 1.539 . S
C1375 H1389 0.958 1_455 S
C1375 H1390 0.961 . S
C1375 H1391 0.960 1_455 S
H1376 C1360 0.931 . S
H1377 C1365 0.929 . S
H1378 C1366 0.960 . S
H1379 C1366 0.962 . S
H1380 C1366 0.960 . S
H1381 C1367 0.961 . S
H1382 C1367 0.961 1_545 S
H1383 C1367 0.961 . S
H1384 C1368 0.931 . S
H1385 C1373 0.930 . S
H1386 C1374 0.956 . S
H1387 C1374 0.961 . S
H1388 C1374 0.961 1_455 S
H1389 C1375 0.958 1_655 S
H1390 C1375 0.961 . S
H1391 C1375 0.960 1_655 S
C241 C9 1.567 . S
C249 C226 1.583 . S
C273 C189 1.694 . S
C281 C29 1.681 1_655 S
C305 C46 1.175 . S
C313 C166 1.190 . S
C337 C69 1.451 . S
C345 C206 1.396 . S
C369 C86 1.532 . S
C377 C209 1.586 1_545 S
C401 C109 1.596 1_455 S
C409 C229 1.638 . S
C433 C186 1.581 . S
C441 C129 1.582 . S
C465 C146 1.367 . S
C473 C169 1.430 . S
C497 C66 1.559 . S
C505 C89 1.569 . S
C529 C6 1.241 . S
C537 C106 1.240 . S
C561 C26 1.254 . S
C569 C126 1.228 1_556 S
C593 C149 1.946 . S
C601 C49 1.923 . S
C625 C8 1.376 . S
C633 C176 1.403 . S
C657 C28 1.353 . S
C665 C216 1.365 . S
C689 C236 1.781 . S
C697 C59 1.790 . S
C721 C68 1.694 . S
C729 C181 1.737 . S
C753 C99 1.668 . S
C761 C196 1.773 . S
C785 C161 1.600 . S
C793 C108 1.556 1_455 S
C817 C201 1.562 . S
C825 C128 1.515 . S
C849 C221 1.802 . S
C857 C159 1.686 . S
C881 C16 1.223 . S
C889 C79 1.156 . S
C913 C19 1.320 . S
C921 C36 1.382 . S
C945 C39 1.217 . S
C953 C41 1.234 . S
C977 C76 1.386 . S
C985 C48 1.400 1_554 S
C1009 C119 1.582 . S
C1017 C81 1.704 . S
C1041 C116 1.813 . S
C1049 C139 1.750 1_556 S
C1073 C136 1.606 . S
C1081 C148 1.657 . S
C1105 C88 2.018 . S
C1113 C141 2.027 . S
C1137 C168 1.567 . S
C1145 C61 1.616 . S
C1169 C101 1.762 . S
C1177 C188 1.712 . S
C1201 C179 1.310 . S
C1209 C121 1.384 . S
C1233 C219 1.490 . S
C1241 C156 1.526 . S
C1265 C96 1.483 . S
C1273 C239 1.438 . S
C1297 C228 1.614 . S
C1305 C21 1.630 . S
C1329 C56 1.591 . S
C1337 C199 1.556 . S
C1361 C208 1.467 1_545 S
C1369 C1 1.489 . S
