# Generated by pormake.
# Topology uof, (4)-cn, num edge types: 1
# Building blocks:
#     Node 0, Type 0, BuildingBlock: QUQFOY_clean_sbu_1, # of connection points: 4
#     Node 1, Type 0, BuildingBlock: QUQFOY_clean_sbu_1, # of connection points: 4
#     Node 2, Type 0, BuildingBlock: QUQFOY_clean_sbu_1, # of connection points: 4
#     Node 3, Type 0, BuildingBlock: QUQFOY_clean_sbu_1, # of connection points: 4
#     Node 4, Type 0, BuildingBlock: QUQFOY_clean_sbu_1, # of connection points: 4
#     Node 5, Type 0, BuildingBlock: QUQFOY_clean_sbu_1, # of connection points: 4
#     Node 6, Type 0, BuildingBlock: QUQFOY_clean_sbu_1, # of connection points: 4
#     Node 7, Type 0, BuildingBlock: QUQFOY_clean_sbu_1, # of connection points: 4
#     Node 8, Type 0, BuildingBlock: QUQFOY_clean_sbu_1, # of connection points: 4
#     Node 9, Type 0, BuildingBlock: QUQFOY_clean_sbu_1, # of connection points: 4
#     Node 10, Type 0, BuildingBlock: QUQFOY_clean_sbu_1, # of connection points: 4
#     Node 11, Type 0, BuildingBlock: QUQFOY_clean_sbu_1, # of connection points: 4
#     Edge 12, Type (0, 0), BuildingBlock: MIFKUJ_clean_linker_0, # of connection points: 2
#     Edge 13, Type (0, 0), BuildingBlock: MIFKUJ_clean_linker_0, # of connection points: 2
#     Edge 14, Type (0, 0), BuildingBlock: MIFKUJ_clean_linker_0, # of connection points: 2
#     Edge 15, Type (0, 0), BuildingBlock: MIFKUJ_clean_linker_0, # of connection points: 2
#     Edge 16, Type (0, 0), BuildingBlock: MIFKUJ_clean_linker_0, # of connection points: 2
#     Edge 17, Type (0, 0), BuildingBlock: MIFKUJ_clean_linker_0, # of connection points: 2
#     Edge 18, Type (0, 0), BuildingBlock: MIFKUJ_clean_linker_0, # of connection points: 2
#     Edge 19, Type (0, 0), BuildingBlock: MIFKUJ_clean_linker_0, # of connection points: 2
#     Edge 20, Type (0, 0), BuildingBlock: MIFKUJ_clean_linker_0, # of connection points: 2
#     Edge 21, Type (0, 0), BuildingBlock: MIFKUJ_clean_linker_0, # of connection points: 2
#     Edge 22, Type (0, 0), BuildingBlock: MIFKUJ_clean_linker_0, # of connection points: 2
#     Edge 23, Type (0, 0), BuildingBlock: MIFKUJ_clean_linker_0, # of connection points: 2
#     Edge 24, Type (0, 0), BuildingBlock: MIFKUJ_clean_linker_0, # of connection points: 2
#     Edge 25, Type (0, 0), BuildingBlock: MIFKUJ_clean_linker_0, # of connection points: 2
#     Edge 26, Type (0, 0), BuildingBlock: MIFKUJ_clean_linker_0, # of connection points: 2
#     Edge 27, Type (0, 0), BuildingBlock: MIFKUJ_clean_linker_0, # of connection points: 2
#     Edge 28, Type (0, 0), BuildingBlock: MIFKUJ_clean_linker_0, # of connection points: 2
#     Edge 29, Type (0, 0), BuildingBlock: MIFKUJ_clean_linker_0, # of connection points: 2
#     Edge 30, Type (0, 0), BuildingBlock: MIFKUJ_clean_linker_0, # of connection points: 2
#     Edge 31, Type (0, 0), BuildingBlock: MIFKUJ_clean_linker_0, # of connection points: 2
#     Edge 32, Type (0, 0), BuildingBlock: MIFKUJ_clean_linker_0, # of connection points: 2
#     Edge 33, Type (0, 0), BuildingBlock: MIFKUJ_clean_linker_0, # of connection points: 2
#     Edge 34, Type (0, 0), BuildingBlock: MIFKUJ_clean_linker_0, # of connection points: 2
#     Edge 35, Type (0, 0), BuildingBlock: MIFKUJ_clean_linker_0, # of connection points: 2
# Relax obj value: 0.166
# Max RMSD: 0.164
# Mean RMSD: 0.164
data_MOF--net-uof--node1-QUQFOY_clean_sbu_1--edge1-MIFKUJ_clean_linker_0
_symmetry_space_group_name_H-M    P1
_symmetry_Int_Tables_number       1
_symmetry_cell_setting            triclinic
loop_
_symmetry_equiv_pos_as_xyz
'x, y, z'
_cell_length_a     41.515261
_cell_length_b     41.49538
_cell_length_c     93.671114
_cell_angle_alpha  90.002387
_cell_angle_beta   89.991674
_cell_angle_gamma 119.99825
loop_
_atom_site_label
_atom_site_type_symbol
_atom_site_fract_x
_atom_site_fract_y
_atom_site_fract_z
_atom_type_partial_charge
O0 O 0.29108 0.35091 0.22975 0.0
Cd1 Cd 0.24209 0.30149 0.23311 0.0
Cd2 Cd 0.22697 0.3336 0.20755 0.0
O3 O 0.27878 0.37866 0.21212 0.0
O4 O 0.25892 0.2795 0.2483 0.0
O5 O 0.21516 0.29371 0.25207 0.0
C6 C 0.23554 0.28078 0.25692 0.0
C7 C 0.17312 0.33531 0.20193 0.0
C8 C 0.30108 0.37846 0.22139 0.0
C9 C 0.22321 0.26023 0.20466 0.0
O10 O 0.22677 0.28885 0.19831 0.0
O11 O 0.2252 0.25942 0.21819 0.0
O12 O 0.20134 0.34922 0.19342 0.0
O13 O 0.17667 0.32331 0.21424 0.0
O14 O 0.93573 0.29346 0.56188 0.0
Cd15 Cd 0.94104 0.24712 0.56507 0.0
Cd16 Cd 0.89498 0.23136 0.53902 0.0
O17 O 0.89559 0.28019 0.54427 0.0
O18 O 0.9786 0.26827 0.58072 0.0
O19 O 0.92396 0.21802 0.58373 0.0
C20 C 0.95556 0.24239 0.58903 0.0
C21 C 0.84345 0.17492 0.53218 0.0
C22 C 0.917 0.30257 0.55378 0.0
C23 C 0.96866 0.2351 0.53667 0.0
O24 O 0.94296 0.23746 0.53028 0.0
O25 O 0.97008 0.23492 0.55023 0.0
O26 O 0.85622 0.20395 0.52411 0.0
O27 O 0.85791 0.17881 0.54474 0.0
O28 O 0.66627 0.95848 0.89582 0.0
Cd29 Cd 0.71066 0.9508 0.90039 0.0
Cd30 Cd 0.67454 0.9011 0.87754 0.0
O31 O 0.63019 0.90843 0.88305 0.0
O32 O 0.7355 0.9883 0.9159 0.0
O33 O 0.71215 0.92822 0.91947 0.0
C34 C 0.72879 0.96161 0.92455 0.0
C35 C 0.67235 0.84489 0.87261 0.0
C36 C 0.63552 0.93762 0.88957 0.0
C37 C 0.74888 0.96701 0.87217 0.0
O38 O 0.71755 0.94434 0.86673 0.0
O39 O 0.75301 0.96967 0.88563 0.0
O40 O 0.65681 0.8578 0.86424 0.0
O41 O 0.68623 0.86222 0.8845 0.0
O42 O 0.70469 0.64305 0.23217 0.0
Cd43 Cd 0.75145 0.69381 0.23659 0.0
Cd44 Cd 0.77076 0.66726 0.20992 0.0
O45 O 0.71936 0.62063 0.21334 0.0
O46 O 0.73195 0.71032 0.25281 0.0
O47 O 0.77944 0.70109 0.25524 0.0
C48 C 0.75694 0.71041 0.26091 0.0
C49 C 0.82403 0.66664 0.20205 0.0
C50 C 0.69625 0.61761 0.22292 0.0
C51 C 0.76968 0.73937 0.20932 0.0
O52 O 0.76974 0.71302 0.20248 0.0
O53 O 0.76573 0.73784 0.2228 0.0
O54 O 0.79554 0.65629 0.19387 0.0
O55 O 0.8211 0.67444 0.21518 0.0
O56 O 0.0371 0.70775 0.56588 0.0
Cd57 Cd 0.04587 0.75864 0.57284 0.0
Cd58 Cd 0.09428 0.77572 0.54685 0.0
O59 O 0.08063 0.72048 0.54963 0.0
O60 O 0.00914 0.7418 0.5888 0.0
O61 O 0.06916 0.77866 0.59227 0.0
C62 C 0.03604 0.76043 0.59752 0.0
C63 C 0.15113 0.82271 0.53759 0.0
C64 C 0.05359 0.69711 0.55726 0.0
C65 C 0.02965 0.79089 0.54709 0.0
O66 O 0.0526 0.78524 0.54011 0.0
O67 O 0.02563 0.78527 0.56045 0.0
O68 O 0.1283 0.79467 0.52997 0.0
O69 O 0.1434 0.82235 0.55098 0.0
O70 O 0.34409 0.05024 0.89603 0.0
Cd71 Cd 0.30045 0.05799 0.90186 0.0
Cd72 Cd 0.3338 0.10631 0.87678 0.0
O73 O 0.37709 0.09612 0.88091 0.0
O74 O 0.27781 0.01973 0.91721 0.0
O75 O 0.30073 0.07945 0.92142 0.0
C76 C 0.28481 0.04579 0.9262 0.0
C77 C 0.34069 0.16304 0.86897 0.0
C78 C 0.3729 0.06859 0.88835 0.0
C79 C 0.25599 0.0408 0.87494 0.0
O80 O 0.28574 0.06311 0.86842 0.0
O81 O 0.25542 0.03829 0.88844 0.0
O82 O 0.34959 0.14344 0.86095 0.0
O83 O 0.33124 0.15219 0.88201 0.0
O84 O 0.66116 0.70234 0.43928 0.0
Cd85 Cd 0.70329 0.75547 0.43442 0.0
Cd86 Cd 0.66682 0.76598 0.45725 0.0
O87 O 0.62302 0.71386 0.4518 0.0
O88 O 0.72988 0.74448 0.41911 0.0
O89 O 0.70248 0.7774 0.41512 0.0
C90 C 0.72107 0.76245 0.41026 0.0
C91 C 0.66783 0.82181 0.46105 0.0
C92 C 0.62998 0.69092 0.44542 0.0
C93 C 0.74205 0.77952 0.46239 0.0
O94 O 0.71014 0.76665 0.46802 0.0
O95 O 0.74576 0.78271 0.44892 0.0
O96 O 0.6506 0.79422 0.46975 0.0
O97 O 0.68071 0.81615 0.44931 0.0
O98 O 0.94059 0.64456 0.77569 0.0
Cd99 Cd 0.93928 0.69281 0.77149 0.0
Cd100 Cd 0.89698 0.66479 0.79836 0.0
O101 O 0.90413 0.6196 0.79451 0.0
O102 O 0.97629 0.71312 0.75564 0.0
O103 O 0.91758 0.69708 0.75257 0.0
C104 C 0.95043 0.70999 0.74725 0.0
C105 C 0.84175 0.66369 0.80398 0.0
C106 C 0.92508 0.61852 0.78482 0.0
C107 C 0.96488 0.73944 0.79878 0.0
O108 O 0.94214 0.71164 0.80615 0.0
O109 O 0.96506 0.73758 0.78524 0.0
O110 O 0.85683 0.65132 0.81284 0.0
O111 O 0.85625 0.67361 0.7914 0.0
O112 O 0.29576 0.9408 0.10424 0.0
Cd113 Cd 0.24701 0.94041 0.0994 0.0
Cd114 Cd 0.2311 0.89648 0.12653 0.0
O115 O 0.28337 0.90333 0.12279 0.0
O116 O 0.26551 0.97725 0.08346 0.0
O117 O 0.22135 0.91912 0.0804 0.0
C118 C 0.24242 0.95173 0.07504 0.0
C119 C 0.17961 0.84212 0.13515 0.0
C120 C 0.30589 0.92481 0.11331 0.0
C121 C 0.22602 0.96639 0.12631 0.0
O122 O 0.22949 0.94245 0.13353 0.0
O123 O 0.22879 0.96739 0.11279 0.0
O124 O 0.20846 0.86171 0.143 0.0
O125 O 0.18132 0.85155 0.1219 0.0
O126 O 0.34852 0.28488 0.43401 0.0
Cd127 Cd 0.29944 0.2366 0.42954 0.0
Cd128 Cd 0.32797 0.22055 0.45673 0.0
O129 O 0.37346 0.27281 0.45269 0.0
O130 O 0.28136 0.25505 0.4135 0.0
O131 O 0.29361 0.20964 0.41071 0.0
C132 C 0.28269 0.23108 0.40523 0.0
C133 C 0.33111 0.16928 0.46558 0.0
C134 C 0.37469 0.2951 0.44306 0.0
C135 C 0.25361 0.21764 0.45667 0.0
O136 O 0.28055 0.21935 0.46371 0.0
O137 O 0.25518 0.22095 0.44318 0.0
O138 O 0.3402 0.19824 0.47334 0.0
O139 O 0.32329 0.17071 0.45231 0.0
O140 O 0.066 0.35559 0.76771 0.0
Cd141 Cd 0.06186 0.30528 0.76241 0.0
Cd142 Cd 0.10931 0.33062 0.78961 0.0
O143 O 0.10122 0.37574 0.7871 0.0
O144 O 0.02608 0.29149 0.74622 0.0
O145 O 0.08165 0.29787 0.74352 0.0
C146 C 0.05029 0.29058 0.73796 0.0
C147 C 0.16408 0.33546 0.79898 0.0
C148 C 0.08166 0.37967 0.77753 0.0
C149 C 0.0365 0.25649 0.78894 0.0
O150 O 0.06391 0.28159 0.79583 0.0
O151 O 0.03211 0.26036 0.77576 0.0
O152 O 0.14235 0.34218 0.80665 0.0
O153 O 0.15632 0.3288 0.78557 0.0
O154 O 0.71029 0.05387 0.10237 0.0
Cd155 Cd 0.76005 0.05565 0.09848 0.0
Cd156 Cd 0.77613 0.10433 0.12319 0.0
O157 O 0.72407 0.09726 0.11874 0.0
O158 O 0.74467 0.01892 0.0825 0.0
O159 O 0.78761 0.07772 0.07986 0.0
C160 C 0.76794 0.04507 0.07432 0.0
C161 C 0.82917 0.16036 0.12929 0.0
C162 C 0.7007 0.07249 0.11032 0.0
C163 C 0.77947 0.0342 0.12669 0.0
O164 O 0.77652 0.06003 0.13269 0.0
O165 O 0.77718 0.03038 0.1132 0.0
O166 O 0.80058 0.14518 0.13759 0.0
O167 O 0.8265 0.14537 0.11692 0.0
H168 H 0.84095 0.21333 0.14918 0.0
H169 H 0.89964 0.25616 0.16099 0.0
H170 H 0.95635 0.21437 0.13478 0.0
H171 H 0.89841 0.17387 0.12231 0.0
H172 H 0.93822 0.2447 0.17741 0.0
H173 H 0.04677 0.26857 0.13273 0.0
H174 H 0.05414 0.28004 0.10678 0.0
H175 H 0.97787 0.32145 0.10802 0.0
H176 H 0.9704 0.31072 0.134 0.0
H177 H 0.10529 0.27661 0.20835 0.0
H178 H 0.04679 0.25772 0.1961 0.0
H179 H 0.0993 0.3596 0.17163 0.0
H180 H 0.15877 0.37692 0.18311 0.0
H181 H 0.06235 0.31134 0.1545 0.0
H182 H 0.02717 0.33579 0.19926 0.0
H183 H 0.01939 0.33465 0.22539 0.0
H184 H 0.94837 0.21598 0.22425 0.0
H185 H 0.95611 0.21631 0.19813 0.0
C186 C 0.86626 0.21426 0.14566 0.0
C187 C 0.86519 0.19058 0.13472 0.0
C188 C 0.89981 0.23851 0.1525 0.0
C189 C 0.9329 0.23897 0.14881 0.0
C190 C 0.9318 0.21574 0.13763 0.0
C191 C 0.89849 0.19235 0.1305 0.0
C192 C 0.96767 0.26114 0.15737 0.0
C193 C 0.96531 0.2596 0.17236 0.0
C194 C 0.00323 0.28176 0.15095 0.0
C195 C 0.00783 0.28856 0.13532 0.0
C196 C 0.03172 0.28031 0.12749 0.0
C197 C 0.03587 0.28663 0.11276 0.0
C198 C 0.01642 0.30137 0.10575 0.0
C199 C 0.99283 0.30991 0.11346 0.0
C200 C 0.98858 0.30367 0.12818 0.0
C201 C 0.10412 0.29539 0.2006 0.0
C202 C 0.13652 0.32836 0.19676 0.0
C203 C 0.07047 0.28463 0.1936 0.0
C204 C 0.06802 0.30734 0.18298 0.0
C205 C 0.10017 0.34132 0.17968 0.0
C206 C 0.13414 0.35146 0.18635 0.0
C207 C 0.03294 0.29412 0.17455 0.0
C208 C 0.03525 0.29714 0.15957 0.0
C209 C 0.99727 0.27651 0.18101 0.0
C210 C 0.99242 0.27608 0.19673 0.0
C211 C 0.01007 0.30942 0.20459 0.0
C212 C 0.00564 0.30892 0.2194 0.0
C213 C 0.98345 0.27526 0.22647 0.0
C214 C 0.96556 0.24203 0.21875 0.0
C215 C 0.96991 0.24237 0.20394 0.0
H216 H 0.98006 0.27493 0.23794 0.0
H217 H 0.01966 0.30623 0.09436 0.0
H218 H 0.83397 0.10768 0.54048 0.0
H219 H 0.7995 0.04838 0.52793 0.0
H220 H 0.75744 0.09825 0.49832 0.0
H221 H 0.7938 0.15818 0.51036 0.0
H222 H 0.73557 0.99904 0.52206 0.0
H223 H 0.74603 0.06349 0.46567 0.0
H224 H 0.78905 0.12008 0.45223 0.0
H225 H 0.87937 0.1357 0.47922 0.0
H226 H 0.83698 0.07908 0.49272 0.0
H227 H 0.62969 0.84316 0.47894 0.0
H228 H 0.65318 0.90415 0.49016 0.0
H229 H 0.75541 0.94611 0.46629 0.0
H230 H 0.73072 0.88621 0.4543 0.0
H231 H 0.74694 0.9996 0.46935 0.0
H232 H 0.74251 0.91229 0.50313 0.0
H233 H 0.71521 0.85445 0.51728 0.0
H234 H 0.63872 0.88258 0.53665 0.0
H235 H 0.66536 0.94046 0.52249 0.0
C236 C 0.81689 0.10585 0.53143 0.0
C237 C 0.81677 0.13767 0.52636 0.0
C238 C 0.79717 0.07185 0.52421 0.0
C239 C 0.7764 0.06875 0.5119 0.0
C240 C 0.77413 0.09997 0.50748 0.0
C241 C 0.7946 0.13419 0.51448 0.0
C242 C 0.7585 0.03344 0.5034 0.0
C243 C 0.738 0.99927 0.51053 0.0
C244 C 0.7626 0.03319 0.48837 0.0
C245 C 0.78821 0.06733 0.48031 0.0
C246 C 0.77507 0.079 0.46872 0.0
C247 C 0.79935 0.11108 0.4611 0.0
C248 C 0.83688 0.13155 0.46491 0.0
C249 C 0.85026 0.11993 0.47632 0.0
C250 C 0.82611 0.08789 0.48398 0.0
C251 C 0.65672 0.86579 0.47581 0.0
C252 C 0.6783 0.85994 0.46571 0.0
C253 C 0.67044 0.90057 0.48239 0.0
C254 C 0.70672 0.92975 0.4795 0.0
C255 C 0.72742 0.92434 0.46882 0.0
C256 C 0.71321 0.88998 0.46191 0.0
C257 C 0.72388 0.9651 0.488 0.0
C258 C 0.74423 0.99933 0.48087 0.0
C259 C 0.72184 0.96523 0.50313 0.0
C260 C 0.70561 0.93045 0.51163 0.0
C261 C 0.71969 0.906 0.51033 0.0
C262 C 0.70437 0.87324 0.51837 0.0
C263 C 0.67516 0.86478 0.52782 0.0
C264 C 0.66129 0.88914 0.5293 0.0
C265 C 0.6765 0.92193 0.52128 0.0
H266 H 0.66333 0.83941 0.53403 0.0
H267 H 0.85562 0.15636 0.45899 0.0
H268 H 0.63137 0.78978 0.85338 0.0
H269 H 0.64792 0.74655 0.84235 0.0
H270 H 0.74693 0.79195 0.86838 0.0
H271 H 0.729 0.83309 0.88005 0.0
H272 H 0.69831 0.75731 0.82602 0.0
H273 H 0.78349 0.73815 0.87176 0.0
H274 H 0.77956 0.7291 0.89786 0.0
H275 H 0.66177 0.68692 0.8964 0.0
H276 H 0.66488 0.69523 0.87027 0.0
H277 H 0.83281 0.7219 0.79652 0.0
H278 H 0.79377 0.74238 0.80822 0.0
H279 H 0.74476 0.64322 0.83429 0.0
H280 H 0.78646 0.62445 0.82337 0.0
H281 H 0.75624 0.69314 0.85055 0.0
H282 H 0.69622 0.6645 0.80573 0.0
H283 H 0.68958 0.66337 0.77954 0.0
H284 H 0.73744 0.78211 0.77906 0.0
H285 H 0.74484 0.78403 0.80522 0.0
C286 C 0.65605 0.78964 0.85703 0.0
C287 C 0.67867 0.81455 0.86769 0.0
C288 C 0.66572 0.76513 0.85063 0.0
C289 C 0.69868 0.76553 0.85451 0.0
C290 C 0.72081 0.78998 0.8654 0.0
C291 C 0.71059 0.81371 0.87208 0.0
C292 C 0.71149 0.7428 0.84644 0.0
C293 C 0.71062 0.74297 0.83143 0.0
C294 C 0.7266 0.72292 0.85334 0.0
C295 C 0.7245 0.71759 0.86905 0.0
C296 C 0.75672 0.72676 0.87699 0.0
C297 C 0.75464 0.72181 0.8918 0.0
C298 C 0.72045 0.70753 0.89878 0.0
C299 C 0.68825 0.69809 0.89098 0.0
C300 C 0.69017 0.70297 0.87617 0.0
C301 C 0.81307 0.70405 0.80451 0.0
C302 C 0.81244 0.67142 0.80895 0.0
C303 C 0.79049 0.71571 0.8112 0.0
C304 C 0.76555 0.69422 0.82209 0.0
C305 C 0.76372 0.66058 0.82601 0.0
C306 C 0.78729 0.6496 0.81967 0.0
C307 C 0.74386 0.70837 0.83011 0.0
C308 C 0.74327 0.70681 0.84512 0.0
C309 C 0.72573 0.72536 0.8232 0.0
C310 C 0.72128 0.72441 0.80745 0.0
C311 C 0.70553 0.6904 0.80003 0.0
C312 C 0.70161 0.68962 0.78519 0.0
C313 C 0.71313 0.72265 0.77764 0.0
C314 C 0.72853 0.75654 0.78493 0.0
C315 C 0.73254 0.75748 0.79976 0.0
H316 H 0.71009 0.72199 0.76616 0.0
H317 H 0.71891 0.70374 0.91025 0.0
H318 H 0.89072 0.69209 0.2159 0.0
H319 H 0.9517 0.71332 0.20502 0.0
H320 H 0.90025 0.68043 0.16354 0.0
H321 H 0.83928 0.6583 0.17436 0.0
H322 H 0.95587 0.66738 0.16482 0.0
H323 H 0.93961 0.77109 0.17535 0.0
H324 H 0.92661 0.81244 0.19015 0.0
H325 H 0.01991 0.8365 0.21696 0.0
H326 H 0.03318 0.7949 0.20241 0.0
H327 H 0.11183 0.79871 0.12223 0.0
H328 H 0.05186 0.75992 0.13405 0.0
H329 H 0.10719 0.78262 0.17482 0.0
H330 H 0.16705 0.82114 0.16314 0.0
H331 H 0.05053 0.79903 0.17428 0.0
H332 H 0.06828 0.69685 0.16102 0.0
H333 H 0.08041 0.65826 0.14428 0.0
H334 H 0.98283 0.63461 0.12032 0.0
H335 H 0.9704 0.67349 0.1368 0.0
C336 C 0.8923 0.68867 0.2045 0.0
C337 C 0.86009 0.67374 0.196 0.0
C338 C 0.92724 0.70109 0.19827 0.0
C339 C 0.93076 0.69927 0.18339 0.0
C340 C 0.89839 0.68233 0.17502 0.0
C341 C 0.86347 0.6697 0.18124 0.0
C342 C 0.96808 0.71706 0.17644 0.0
C343 C 0.97646 0.69624 0.16683 0.0
C344 C 0.99517 0.75471 0.17905 0.0
C345 C 0.9871 0.77952 0.18789 0.0
C346 C 0.95715 0.78494 0.18448 0.0
C347 C 0.94977 0.80847 0.19281 0.0
C348 C 0.97235 0.82699 0.20452 0.0
C349 C 0.0024 0.82207 0.2079 0.0
C350 C 0.00987 0.79853 0.19962 0.0
C351 C 0.11134 0.79472 0.13367 0.0
C352 C 0.1443 0.81319 0.14172 0.0
C353 C 0.07701 0.77253 0.14042 0.0
C354 C 0.075 0.76845 0.15534 0.0
C355 C 0.10804 0.78545 0.16331 0.0
C356 C 0.1423 0.80737 0.15658 0.0
C357 C 0.03844 0.74928 0.1628 0.0
C358 C 0.03011 0.77002 0.17242 0.0
C359 C 0.01125 0.71187 0.15996 0.0
C360 C 0.0186 0.68836 0.15007 0.0
C361 C 0.04958 0.68368 0.15211 0.0
C362 C 0.05647 0.66169 0.14268 0.0
C363 C 0.03246 0.64407 0.13122 0.0
C364 C 0.00144 0.64831 0.12919 0.0
C365 C 0.99443 0.67028 0.13858 0.0
H366 H 0.03784 0.62706 0.12394 0.0
H367 H 0.96662 0.84523 0.21094 0.0
H368 H 0.31056 0.10243 0.45253 0.0
H369 H 0.29045 0.04249 0.46416 0.0
H370 H 0.31596 0.09628 0.50533 0.0
H371 H 0.33715 0.15626 0.49377 0.0
H372 H 0.33101 0.04177 0.50591 0.0
H373 H 0.22682 0.05399 0.49098 0.0
H374 H 0.18793 0.06462 0.47386 0.0
H375 H 0.17167 0.97033 0.44924 0.0
H376 H 0.21091 0.95945 0.46612 0.0
H377 H 0.19706 0.89137 0.54943 0.0
H378 H 0.23798 0.94919 0.53667 0.0
H379 H 0.21459 0.88815 0.49716 0.0
H380 H 0.17357 0.83044 0.50979 0.0
H381 H 0.20132 0.94473 0.49486 0.0
H382 H 0.30154 0.92954 0.51226 0.0
H383 H 0.33859 0.91966 0.53048 0.0
H384 H 0.36001 0.02001 0.55185 0.0
H385 H 0.32265 0.03025 0.53386 0.0
C386 C 0.31266 0.10162 0.46403 0.0
C387 C 0.32516 0.13416 0.47221 0.0
C388 C 0.3009 0.06726 0.4707 0.0
C389 C 0.30081 0.06461 0.48568 0.0
C390 C 0.31555 0.09743 0.49378 0.0
C391 C 0.32762 0.1318 0.48713 0.0
C392 C 0.28283 0.02767 0.49298 0.0
C393 C 0.30258 0.02063 0.50355 0.0
C394 C 0.24582 0.99977 0.48985 0.0
C395 C 0.22214 0.00618 0.47971 0.0
C396 C 0.21517 0.0357 0.48185 0.0
C397 C 0.19304 0.04174 0.47221 0.0
C398 C 0.17743 0.01823 0.46045 0.0
C399 C 0.18384 0.98856 0.45834 0.0
C400 C 0.20601 0.98244 0.46794 0.0
C401 C 0.2014 0.89009 0.53809 0.0
C402 C 0.18184 0.85623 0.53064 0.0
C403 C 0.22485 0.92323 0.53079 0.0
C404 C 0.22935 0.92313 0.51591 0.0
C405 C 0.21147 0.88902 0.50861 0.0
C406 C 0.1881 0.85597 0.51588 0.0
C407 C 0.2495 0.95867 0.50776 0.0
C408 C 0.22996 0.96559 0.49709 0.0
C409 C 0.28645 0.98651 0.51096 0.0
C410 C 0.30902 0.98049 0.52177 0.0
C411 C 0.3139 0.94935 0.5209 0.0
C412 C 0.33501 0.94372 0.53118 0.0
C413 C 0.35158 0.96915 0.54233 0.0
C414 C 0.34714 1.00032 0.54321 0.0
C415 C 0.32603 0.00608 0.53297 0.0
H416 H 0.36791 0.96473 0.55028 0.0
H417 H 0.1603 0.02295 0.45299 0.0
H418 H 0.32108 0.20939 0.88257 0.0
H419 H 0.30188 0.2504 0.87136 0.0
H420 H 0.32844 0.22461 0.82992 0.0
H421 H 0.34885 0.18477 0.84106 0.0
H422 H 0.34287 0.29373 0.82978 0.0
H423 H 0.23896 0.17643 0.84407 0.0
H424 H 0.20016 0.12602 0.86089 0.0
H425 H 0.18315 0.20251 0.88622 0.0
H426 H 0.2223 0.25351 0.86964 0.0
H427 H 0.20862 0.31139 0.78684 0.0
H428 H 0.24911 0.2934 0.79931 0.0
H429 H 0.22661 0.3303 0.83918 0.0
H430 H 0.18607 0.3481 0.82686 0.0
H431 H 0.21291 0.2599 0.84095 0.0
H432 H 0.31302 0.37627 0.82395 0.0
H433 H 0.34982 0.42368 0.80583 0.0
H434 H 0.37129 0.34543 0.78393 0.0
H435 H 0.33418 0.29737 0.80182 0.0
C436 C 0.32371 0.21318 0.87111 0.0
C437 C 0.33615 0.19344 0.86272 0.0
C438 C 0.31245 0.23644 0.86468 0.0
C439 C 0.31275 0.23989 0.84973 0.0
C440 C 0.32769 0.22232 0.84145 0.0
C441 C 0.33934 0.19943 0.84787 0.0
C442 C 0.29468 0.25899 0.84262 0.0
C443 C 0.31439 0.2862 0.83217 0.0
C444 C 0.25757 0.24949 0.84577 0.0
C445 C 0.23389 0.21885 0.85571 0.0
C446 C 0.22716 0.18254 0.85329 0.0
C447 C 0.20508 0.15386 0.86277 0.0
C448 C 0.18929 0.16108 0.87464 0.0
C449 C 0.19546 0.19698 0.87703 0.0
C450 C 0.21758 0.22578 0.8676 0.0
C451 C 0.213 0.3165 0.79821 0.0
C452 C 0.19392 0.33103 0.80585 0.0
C453 C 0.23621 0.30622 0.80533 0.0
C454 C 0.24091 0.31043 0.82022 0.0
C455 C 0.22334 0.32665 0.82772 0.0
C456 C 0.20023 0.33694 0.82062 0.0
C457 C 0.2611 0.2948 0.82816 0.0
C458 C 0.24159 0.26791 0.8387 0.0
C459 C 0.29811 0.30422 0.82491 0.0
C460 C 0.32055 0.33312 0.81417 0.0
C461 C 0.32534 0.36908 0.81521 0.0
C462 C 0.34631 0.39609 0.80499 0.0
C463 C 0.36281 0.38755 0.79372 0.0
C464 C 0.35846 0.352 0.79266 0.0
C465 C 0.3375 0.32488 0.80285 0.0
H466 H 0.37903 0.4085 0.78582 0.0
H467 H 0.1722 0.13884 0.88197 0.0
H468 H 0.65565 0.58031 0.19944 0.0
H469 H 0.58813 0.53804 0.19835 0.0
H470 H 0.58147 0.54329 0.24414 0.0
H471 H 0.64866 0.58632 0.24529 0.0
H472 H 0.53635 0.46816 0.23022 0.0
H473 H 0.56304 0.5966 0.22848 0.0
H474 H 0.59401 0.65996 0.21838 0.0
H475 H 0.54396 0.61602 0.17761 0.0
H476 H 0.51316 0.55229 0.18744 0.0
H477 H 0.34862 0.4009 0.24397 0.0
H478 H 0.41601 0.44155 0.2435 0.0
H479 H 0.41091 0.46181 0.19859 0.0
H480 H 0.34306 0.42228 0.19918 0.0
H481 H 0.46302 0.52229 0.21025 0.0
H482 H 0.43324 0.39569 0.21093 0.0
H483 H 0.4031 0.33082 0.21944 0.0
H484 H 0.45944 0.36777 0.25967 0.0
H485 H 0.48952 0.43296 0.25148 0.0
C486 C 0.63991 0.57173 0.2093 0.0
C487 C 0.65737 0.58659 0.22245 0.0
C488 C 0.60137 0.54781 0.20865 0.0
C489 C 0.57991 0.53784 0.22116 0.0
C490 C 0.59761 0.55071 0.23438 0.0
C491 C 0.63594 0.57525 0.23501 0.0
C492 C 0.53877 0.51621 0.22047 0.0
C493 C 0.5202 0.47998 0.22597 0.0
C494 C 0.51794 0.53138 0.21451 0.0
C495 C 0.53619 0.56967 0.20864 0.0
C496 C 0.55894 0.60042 0.21733 0.0
C497 C 0.5764 0.6364 0.21166 0.0
C498 C 0.57105 0.64201 0.19735 0.0
C499 C 0.54814 0.61163 0.18869 0.0
C500 C 0.53066 0.57558 0.1943 0.0
C501 C 0.36178 0.4146 0.23406 0.0
C502 C 0.34059 0.40822 0.22159 0.0
C503 C 0.40037 0.43757 0.23376 0.0
C504 C 0.41877 0.45381 0.2209 0.0
C505 C 0.39745 0.44933 0.20862 0.0
C506 C 0.35864 0.42684 0.20897 0.0
C507 C 0.46017 0.4741 0.22022 0.0
C508 C 0.47892 0.51015 0.21443 0.0
C509 C 0.48122 0.45844 0.22568 0.0
C510 C 0.46338 0.41925 0.23063 0.0
C511 C 0.43901 0.39001 0.22163 0.0
C512 C 0.42196 0.35318 0.22639 0.0
C513 C 0.42929 0.34519 0.2401 0.0
C514 C 0.45376 0.37401 0.24906 0.0
C515 C 0.47085 0.41091 0.24436 0.0
H516 H 0.41605 0.31665 0.24377 0.0
H517 H 0.58459 0.66989 0.19298 0.0
H518 H 0.98345 0.64168 0.56278 0.0
H519 H 0.95842 0.57487 0.56119 0.0
H520 H 0.06535 0.59313 0.54724 0.0
H521 H 0.09031 0.66078 0.54819 0.0
H522 H 0.01323 0.53663 0.53327 0.0
H523 H 0.03417 0.56913 0.58266 0.0
H524 H 0.03004 0.5978 0.60514 0.0
H525 H 0.91105 0.52958 0.60454 0.0
H526 H 0.91443 0.50083 0.58195 0.0
H527 H 0.95557 0.35374 0.57442 0.0
H528 H 0.9765 0.41984 0.57422 0.0
H529 H 0.91596 0.40636 0.53516 0.0
H530 H 0.89556 0.33971 0.53505 0.0
H531 H 0.94651 0.46072 0.57565 0.0
H532 H 0.96498 0.48499 0.51461 0.0
H533 H 0.97685 0.45728 0.49336 0.0
H534 H 0.0306 0.41316 0.51955 0.0
H535 H 0.0195 0.44102 0.54091 0.0
C536 C 0.00176 0.63159 0.55937 0.0
C537 C 0.03908 0.65656 0.55582 0.0
C538 C 0.98737 0.59326 0.55849 0.0
C539 C 0.01016 0.57878 0.55445 0.0
C540 C 0.04723 0.6036 0.55048 0.0
C541 C 0.06153 0.64222 0.55107 0.0
C542 C 0.99523 0.5378 0.55474 0.0
C543 C 0.99863 0.52005 0.54254 0.0
C544 C 0.97668 0.51603 0.56691 0.0
C545 C 0.97455 0.53306 0.58055 0.0
C546 C 0.00711 0.56041 0.58728 0.0
C547 C 0.0049 0.57665 0.60005 0.0
C548 C 0.9703 0.56558 0.60625 0.0
C549 C 0.93783 0.53816 0.59972 0.0
C550 C 0.93988 0.52185 0.58694 0.0
C551 C 0.94628 0.36458 0.56582 0.0
C552 C 0.92408 0.34133 0.55467 0.0
C553 C 0.95829 0.40254 0.56575 0.0
C554 C 0.9484 0.41835 0.55456 0.0
C555 C 0.92458 0.39496 0.54377 0.0
C556 C 0.9126 0.35677 0.5438 0.0
C557 C 0.96416 0.45944 0.55414 0.0
C558 C 0.9609 0.47723 0.56634 0.0
C559 C 0.98388 0.48128 0.54216 0.0
C560 C 0.99099 0.46471 0.52936 0.0
C561 C 0.97941 0.46945 0.51582 0.0
C562 C 0.986 0.45372 0.50376 0.0
C563 C 0.00434 0.43335 0.50511 0.0
C564 C 0.01626 0.42881 0.51852 0.0
C565 C 0.00979 0.44453 0.53061 0.0
H566 H 0.00939 0.42118 0.49577 0.0
H567 H 0.96865 0.57821 0.61613 0.0
H568 H 0.4478 0.10932 0.88238 0.0
H569 H 0.49237 0.08685 0.88208 0.0
H570 H 0.4035 0.97577 0.89161 0.0
H571 H 0.35972 0.99847 0.89273 0.0
H572 H 0.45745 0.98629 0.90657 0.0
H573 H 0.44658 0.00656 0.85694 0.0
H574 H 0.44778 0.04162 0.83549 0.0
H575 H 0.56322 0.12024 0.84272 0.0
H576 H 0.56259 0.0859 0.86432 0.0
H577 H 0.56006 0.89484 0.88499 0.0
H578 H 0.51452 0.91635 0.8842 0.0
H579 H 0.6023 0.02893 0.89172 0.0
H580 H 0.64752 0.00778 0.89293 0.0
H581 H 0.54909 0.01616 0.86762 0.0
H582 H 0.55599 0.99269 0.91814 0.0
H583 H 0.5522 0.95332 0.93852 0.0
H584 H 0.43913 0.8743 0.9276 0.0
H585 H 0.44247 0.91299 0.90702 0.0
C586 C 0.43792 0.08015 0.8844 0.0
C587 C 0.40033 0.05573 0.88764 0.0
C588 C 0.46333 0.0672 0.88413 0.0
C589 C 0.45136 0.02937 0.88665 0.0
C590 C 0.41367 0.00506 0.88972 0.0
C591 C 0.38858 0.0181 0.89033 0.0
C592 C 0.47788 0.01496 0.88648 0.0
C593 C 0.47702 0.99248 0.89789 0.0
C594 C 0.50393 0.02315 0.87531 0.0
C595 C 0.50442 0.04387 0.86233 0.0
C596 C 0.47214 0.03148 0.85401 0.0
C597 C 0.47274 0.0512 0.84182 0.0
C598 C 0.50553 0.0832 0.83777 0.0
C599 C 0.53783 0.09549 0.84588 0.0
C600 C 0.53738 0.07589 0.8581 0.0
C601 C 0.56955 0.92412 0.88651 0.0
C602 C 0.60732 0.94954 0.88912 0.0
C603 C 0.54359 0.93635 0.88604 0.0
C604 C 0.55519 0.97423 0.88787 0.0
C605 C 0.59288 0.99963 0.89024 0.0
C606 C 0.6186 0.98739 0.89103 0.0
C607 C 0.52814 0.98762 0.88759 0.0
C608 C 0.52914 0.00992 0.87615 0.0
C609 C 0.50168 0.97865 0.89855 0.0
C610 C 0.49964 0.95549 0.91095 0.0
C611 C 0.53046 0.96674 0.92 0.0
C612 C 0.52836 0.94459 0.93161 0.0
C613 C 0.49548 0.91126 0.93433 0.0
C614 C 0.4646 0.90008 0.92547 0.0
C615 C 0.46657 0.92211 0.91384 0.0
H616 H 0.49391 0.89415 0.94332 0.0
H617 H 0.50593 0.09842 0.82832 0.0
H618 H 0.64481 0.63525 0.44024 0.0
H619 H 0.60216 0.56852 0.4405 0.0
H620 H 0.51151 0.58697 0.45112 0.0
H621 H 0.55482 0.65449 0.45144 0.0
H622 H 0.50432 0.52954 0.46557 0.0
H623 H 0.52515 0.56462 0.41642 0.0
H624 H 0.56211 0.59435 0.39481 0.0
H625 H 0.61203 0.52551 0.39751 0.0
H626 H 0.57571 0.49571 0.41926 0.0
H627 H 0.38788 0.34715 0.42269 0.0
H628 H 0.43136 0.41368 0.42361 0.0
H629 H 0.47384 0.4002 0.46384 0.0
H630 H 0.42941 0.3331 0.46317 0.0
H631 H 0.50279 0.45554 0.42369 0.0
H632 H 0.4981 0.47763 0.48455 0.0
H633 H 0.45515 0.44867 0.50484 0.0
H634 H 0.36188 0.40425 0.47623 0.0
H635 H 0.40421 0.43336 0.45581 0.0
C636 C 0.61578 0.62528 0.4426 0.0
C637 C 0.60314 0.65031 0.44564 0.0
C638 C 0.59135 0.58697 0.44271 0.0
C639 C 0.55339 0.57257 0.44551 0.0
C640 C 0.54066 0.59739 0.44886 0.0
C641 C 0.56537 0.63596 0.44898 0.0
C642 C 0.52726 0.53168 0.44472 0.0
C643 C 0.50399 0.51339 0.45641 0.0
C644 C 0.52623 0.51048 0.43268 0.0
C645 C 0.54792 0.52815 0.41954 0.0
C646 C 0.54418 0.55599 0.41246 0.0
C647 C 0.56499 0.57283 0.40017 0.0
C648 C 0.58946 0.56189 0.39481 0.0
C649 C 0.59309 0.53399 0.40169 0.0
C650 C 0.57236 0.51708 0.41398 0.0
C651 C 0.40661 0.35811 0.43171 0.0
C652 C 0.40489 0.33466 0.44291 0.0
C653 C 0.43159 0.3963 0.4322 0.0
C654 C 0.45555 0.41216 0.44389 0.0
C655 C 0.45515 0.38871 0.45482 0.0
C656 C 0.42997 0.3503 0.45436 0.0
C657 C 0.48019 0.4533 0.4446 0.0
C658 C 0.50322 0.47165 0.43289 0.0
C659 C 0.48011 0.47458 0.45642 0.0
C660 C 0.45438 0.45732 0.46865 0.0
C661 C 0.46842 0.46177 0.4826 0.0
C662 C 0.44418 0.44533 0.49412 0.0
C663 C 0.40583 0.42452 0.49182 0.0
C664 C 0.39161 0.42024 0.478 0.0
C665 C 0.41571 0.43668 0.46645 0.0
H666 H 0.38712 0.41178 0.50075 0.0
H667 H 0.60557 0.57497 0.3853 0.0
H668 H 0.94531 0.5923 0.76193 0.0
H669 H 0.97037 0.55003 0.76207 0.0
H670 H 0.95457 0.53698 0.80763 0.0
H671 H 0.92857 0.57878 0.80754 0.0
H672 H 0.02973 0.55848 0.79677 0.0
H673 H 0.90116 0.46647 0.78999 0.0
H674 H 0.83961 0.43923 0.7785 0.0
H675 H 0.8874 0.43434 0.73847 0.0
H676 H 0.94938 0.46207 0.74968 0.0
H677 H 0.08116 0.41742 0.80146 0.0
H678 H 0.05454 0.45813 0.80373 0.0
H679 H 0.03504 0.45092 0.75828 0.0
H680 H 0.06024 0.40916 0.75607 0.0
H681 H 0.97532 0.43832 0.77086 0.0
H682 H 0.10308 0.53265 0.77598 0.0
H683 H 0.16642 0.56297 0.78605 0.0
H684 H 0.1234 0.56734 0.82725 0.0
H685 H 0.05969 0.53659 0.81746 0.0
C686 C 0.94651 0.57989 0.77195 0.0
C687 C 0.93485 0.58874 0.78472 0.0
C688 C 0.9609 0.55582 0.77201 0.0
C689 C 0.96444 0.54054 0.78486 0.0
C690 C 0.95207 0.54858 0.79761 0.0
C691 C 0.93694 0.57215 0.79752 0.0
C692 C 0.98258 0.51751 0.78491 0.0
C693 C 0.01763 0.53184 0.79135 0.0
C694 C 0.96725 0.48346 0.77742 0.0
C695 C 0.92998 0.46666 0.77065 0.0
C696 C 0.89862 0.4599 0.77871 0.0
C697 C 0.86363 0.4443 0.77225 0.0
C698 C 0.85961 0.43514 0.75776 0.0
C699 C 0.89056 0.44148 0.7497 0.0
C700 C 0.92562 0.4571 0.7561 0.0
C701 C 0.07199 0.42523 0.79191 0.0
C702 C 0.07276 0.41002 0.77859 0.0
C703 C 0.05671 0.44853 0.79322 0.0
C704 C 0.04267 0.45771 0.78117 0.0
C705 C 0.0453 0.44405 0.76776 0.0
C706 C 0.05997 0.42035 0.76649 0.0
C707 C 0.02303 0.4794 0.78257 0.0
C708 C 0.98756 0.46482 0.77639 0.0
C709 C 0.03832 0.51355 0.7901 0.0
C710 C 0.07657 0.53193 0.79602 0.0
C711 C 0.10708 0.53978 0.78722 0.0
C712 C 0.14306 0.5571 0.79287 0.0
C713 C 0.14892 0.56697 0.80729 0.0
C714 C 0.11881 0.55962 0.81608 0.0
C715 C 0.08277 0.54227 0.81049 0.0
H716 H 0.1768 0.58039 0.81164 0.0
H717 H 0.8325 0.42306 0.75278 0.0
H718 H 0.34399 0.91072 0.13419 0.0
H719 H 0.41146 0.93587 0.13557 0.0
H720 H 0.42479 0.98667 0.09421 0.0
H721 H 0.35798 0.9621 0.09277 0.0
H722 H 0.46353 0.93044 0.11933 0.0
H723 H 0.49948 0.07307 0.09471 0.0
H724 H 0.47232 0.11398 0.0933 0.0
H725 H 0.412 0.06698 0.13216 0.0
H726 H 0.43921 0.0262 0.13392 0.0
H727 H 0.6452 0.02334 0.09289 0.0
H728 H 0.57859 0.99871 0.09543 0.0
H729 H 0.59827 0.07157 0.13124 0.0
H730 H 0.66552 0.09668 0.12878 0.0
H731 H 0.54348 0.06714 0.11349 0.0
H732 H 0.57139 0.98341 0.13774 0.0
H733 H 0.599 0.94325 0.14077 0.0
H734 H 0.53219 0.8737 0.10632 0.0
H735 H 0.50459 0.91378 0.10293 0.0
C736 C 0.36124 0.92675 0.1253 0.0
C737 C 0.34556 0.9347 0.11344 0.0
C738 C 0.3998 0.94117 0.12612 0.0
C739 C 0.42322 0.96383 0.11513 0.0
C740 C 0.40736 0.96996 0.10296 0.0
C741 C 0.36904 0.9557 0.10214 0.0
C742 C 0.46434 0.98231 0.11644 0.0
C743 C 0.481 0.96031 0.11811 0.0
C744 C 0.48718 0.02144 0.11521 0.0
C745 C 0.47119 0.04637 0.11438 0.0
C746 C 0.48059 0.07161 0.103 0.0
C747 C 0.46515 0.09475 0.10213 0.0
C748 C 0.44037 0.09301 0.11261 0.0
C749 C 0.43109 0.06822 0.12402 0.0
C750 C 0.44649 0.04506 0.12495 0.0
C751 C 0.63558 0.03455 0.10124 0.0
C752 C 0.66083 0.06185 0.11071 0.0
C753 C 0.59737 0.02021 0.10271 0.0
C754 C 0.58342 0.03271 0.11371 0.0
C755 C 0.60848 0.06133 0.12275 0.0
C756 C 0.6469 0.07572 0.1213 0.0
C757 C 0.54261 0.01513 0.11582 0.0
C758 C 0.52601 0.0373 0.11482 0.0
C759 C 0.51988 0.97625 0.11792 0.0
C760 C 0.5361 0.95178 0.12002 0.0
C761 C 0.56276 0.9597 0.13074 0.0
C762 C 0.57839 0.93693 0.13254 0.0
C763 C 0.56741 0.90599 0.12373 0.0
C764 C 0.54069 0.89769 0.11313 0.0
C765 C 0.525 0.92041 0.11128 0.0
H766 H 0.57956 0.88841 0.12513 0.0
H767 H 0.42842 0.11092 0.11191 0.0
H768 H 0.22008 0.97349 0.15505 0.0
H769 H 0.21281 0.02119 0.1674 0.0
H770 H 0.20982 0.06938 0.12696 0.0
H771 H 0.21766 0.02206 0.11446 0.0
H772 H 0.25748 0.12105 0.14518 0.0
H773 H 0.13119 0.02151 0.14686 0.0
H774 H 0.08032 0.95771 0.15165 0.0
H775 H 0.10856 0.97118 0.19619 0.0
H776 H 0.15997 0.0349 0.19164 0.0
H777 H 0.21483 0.25091 0.17574 0.0
H778 H 0.20881 0.19858 0.1617 0.0
H779 H 0.21329 0.14413 0.20027 0.0
H780 H 0.21877 0.19604 0.21444 0.0
H781 H 0.16126 0.09533 0.18186 0.0
H782 H 0.2899 0.19166 0.1801 0.0
H783 H 0.34203 0.25506 0.1757 0.0
H784 H 0.31028 0.24686 0.13164 0.0
H785 H 0.25761 0.18355 0.13583 0.0
C786 C 0.2176 0.99404 0.14875 0.0
C787 C 0.21956 0.99403 0.13376 0.0
C788 C 0.21322 0.02116 0.15584 0.0
C789 C 0.2104 0.04855 0.14808 0.0
C790 C 0.21186 0.04837 0.13312 0.0
C791 C 0.21631 0.0213 0.12601 0.0
C792 C 0.20816 0.07864 0.15563 0.0
C793 C 0.236 0.11548 0.153 0.0
C794 C 0.18069 0.07118 0.16609 0.0
C795 C 0.14964 0.03291 0.16888 0.0
C796 C 0.12674 0.01078 0.15766 0.0
C797 C 0.09777 0.97464 0.16034 0.0
C798 C 0.09126 0.96037 0.17421 0.0
C799 C 0.11365 0.98226 0.18544 0.0
C800 C 0.14268 0.01841 0.18282 0.0
C801 C 0.21433 0.22773 0.18126 0.0
C802 C 0.21763 0.22779 0.1962 0.0
C803 C 0.21093 0.19789 0.17321 0.0
C804 C 0.21109 0.16778 0.17995 0.0
C805 C 0.21315 0.16717 0.19488 0.0
C806 C 0.21644 0.19694 0.20295 0.0
C807 C 0.21064 0.13761 0.17142 0.0
C808 C 0.18242 0.10083 0.17391 0.0
C809 C 0.23786 0.14504 0.16087 0.0
C810 C 0.26958 0.18305 0.15832 0.0
C811 C 0.29386 0.2035 0.1695 0.0
C812 C 0.32353 0.23939 0.16704 0.0
C813 C 0.3294 0.25502 0.15341 0.0
C814 C 0.30566 0.23474 0.1422 0.0
C815 C 0.27591 0.19885 0.14461 0.0
H816 H 0.35239 0.28281 0.15152 0.0
H817 H 0.06882 0.93238 0.17626 0.0
H818 H 0.97792 0.24037 0.5077 0.0
H819 H 0.02466 0.23488 0.49378 0.0
H820 H 0.06982 0.21681 0.53247 0.0
H821 H 0.0237 0.22303 0.54652 0.0
H822 H 0.1237 0.26554 0.51522 0.0
H823 H 0.01423 0.14444 0.51019 0.0
H824 H 0.94827 0.10176 0.50436 0.0
H825 H 0.96754 0.14195 0.4612 0.0
H826 H 0.03354 0.18524 0.46682 0.0
H827 H 0.23802 0.20411 0.48509 0.0
H828 H 0.18695 0.20355 0.4982 0.0
H829 H 0.14442 0.22258 0.45901 0.0
H830 H 0.1951 0.22257 0.44573 0.0
H831 H 0.08864 0.17327 0.47608 0.0
H832 H 0.19658 0.2943 0.48069 0.0
H833 H 0.26218 0.33929 0.48616 0.0
H834 H 0.24547 0.30149 0.52963 0.0
H835 H 0.17986 0.25588 0.52437 0.0
C836 C 0.99778 0.23522 0.51326 0.0
C837 C 0.99704 0.23204 0.52822 0.0
C838 C 0.02435 0.23192 0.50528 0.0
C839 C 0.05032 0.22493 0.51209 0.0
C840 C 0.04992 0.22212 0.52702 0.0
C841 C 0.02351 0.22563 0.53502 0.0
C842 C 0.07835 0.22107 0.50369 0.0
C843 C 0.11603 0.24499 0.5068 0.0
C844 C 0.06823 0.19499 0.49245 0.0
C845 C 0.02876 0.1683 0.48896 0.0
C846 C 0.00436 0.1443 0.49947 0.0
C847 C 0.96697 0.11999 0.4962 0.0
C848 C 0.95369 0.11921 0.48243 0.0
C849 C 0.97785 0.14261 0.47187 0.0
C850 C 0.01527 0.167 0.47508 0.0
C851 C 0.21765 0.20785 0.47922 0.0
C852 C 0.22086 0.21383 0.46439 0.0
C853 C 0.18853 0.20758 0.48674 0.0
C854 C 0.16236 0.21369 0.47959 0.0
C855 C 0.16446 0.21796 0.46471 0.0
C856 C 0.1935 0.21804 0.45716 0.0
C857 C 0.13394 0.21744 0.48775 0.0
C858 C 0.09625 0.19367 0.48455 0.0
C859 C 0.144 0.24384 0.49887 0.0
C860 C 0.1834 0.27142 0.50209 0.0
C861 C 0.20696 0.29538 0.49139 0.0
C862 C 0.24414 0.32103 0.49445 0.0
C863 C 0.25801 0.32318 0.50822 0.0
C864 C 0.2347 0.29976 0.51897 0.0
C865 C 0.19751 0.27402 0.51595 0.0
H866 H 0.2868 0.34305 0.51058 0.0
H867 H 0.92471 0.10044 0.47993 0.0
H868 H 0.03839 0.23866 0.81684 0.0
H869 H 0.99116 0.18516 0.82998 0.0
H870 H 0.92442 0.14475 0.79184 0.0
H871 H 0.97182 0.19816 0.77849 0.0
H872 H 0.92062 0.1687 0.83458 0.0
H873 H 0.87287 0.04849 0.79396 0.0
H874 H 0.89868 0.02942 0.77408 0.0
H875 H 0.00779 0.0909 0.79245 0.0
H876 H 0.98257 0.1099 0.81253 0.0
H877 H 0.74879 0.97334 0.84308 0.0
H878 H 0.79914 0.01897 0.82804 0.0
H879 H 0.87018 0.06212 0.86499 0.0
H880 H 0.82 0.01711 0.88013 0.0
H881 H 0.87077 0.03577 0.82224 0.0
H882 H 0.91815 0.15609 0.8629 0.0
H883 H 0.89186 0.17517 0.88261 0.0
H884 H 0.78328 0.11407 0.86376 0.0
H885 H 0.809 0.09508 0.84385 0.0
C886 C 0.01384 0.21829 0.81118 0.0
C887 C 0.00879 0.2228 0.79662 0.0
C888 C 0.98687 0.18775 0.81872 0.0
C889 C 0.95442 0.161 0.81187 0.0
C890 C 0.94952 0.1649 0.79728 0.0
C891 C 0.97656 0.19551 0.78969 0.0
C892 C 0.92484 0.13031 0.82027 0.0
C893 C 0.91011 0.13962 0.832 0.0
C894 C 0.91041 0.09247 0.81661 0.0
C895 C 0.92586 0.08095 0.80466 0.0
C896 C 0.90235 0.05784 0.79377 0.0
C897 C 0.91688 0.04706 0.78247 0.0
C898 C 0.95487 0.05906 0.78198 0.0
C899 C 0.9784 0.08176 0.79281 0.0
C900 C 0.964 0.0926 0.80415 0.0
C901 C 0.77523 0.99232 0.84799 0.0
C902 C 0.78024 0.99193 0.86283 0.0
C903 C 0.80398 0.01825 0.83937 0.0
C904 C 0.83809 0.0442 0.84545 0.0
C905 C 0.84379 0.04267 0.86014 0.0
C906 C 0.81508 0.01689 0.86877 0.0
C907 C 0.86705 0.07426 0.83664 0.0
C908 C 0.88143 0.06486 0.82481 0.0
C909 C 0.88117 0.11214 0.84015 0.0
C910 C 0.86547 0.12385 0.85197 0.0
C911 C 0.88869 0.14685 0.86294 0.0
C912 C 0.87388 0.15764 0.87414 0.0
C913 C 0.8359 0.14574 0.87446 0.0
C914 C 0.81267 0.12315 0.86353 0.0
C915 C 0.82734 0.11233 0.85229 0.0
H916 H 0.82449 0.15409 0.88315 0.0
H917 H 0.96607 0.05069 0.77321 0.0
H918 H 0.77659 0.96998 0.11797 0.0
H919 H 0.77817 0.92265 0.13295 0.0
H920 H 0.7932 0.98932 0.17036 0.0
H921 H 0.79173 0.03701 0.15548 0.0
H922 H 0.838 0.95612 0.17023 0.0
H923 H 0.71034 0.92195 0.16401 0.0
H924 H 0.65448 0.90932 0.15033 0.0
H925 H 0.65757 0.82036 0.12815 0.0
H926 H 0.71385 0.83285 0.14154 0.0
H927 H 0.78104 0.80568 0.2201 0.0
H928 H 0.78591 0.85857 0.20665 0.0
H929 H 0.77141 0.79907 0.16723 0.0
H930 H 0.76665 0.74628 0.18049 0.0
H931 H 0.72582 0.83026 0.16954 0.0
H932 H 0.8545 0.8656 0.17553 0.0
H933 H 0.91028 0.87843 0.1893 0.0
H934 H 0.90474 0.96511 0.21226 0.0
H935 H 0.84853 0.95239 0.19876 0.0
C936 C 0.78062 0.97483 0.12936 0.0
C937 C 0.78368 0.0071 0.13555 0.0
C938 C 0.78143 0.94771 0.13789 0.0
C939 C 0.78535 0.95241 0.15274 0.0
C940 C 0.79005 0.98525 0.15891 0.0
C941 C 0.78904 0.01234 0.15039 0.0
C942 C 0.78269 0.92214 0.16184 0.0
C943 C 0.81333 0.92872 0.17026 0.0
C944 C 0.75059 0.8864 0.16169 0.0
C945 C 0.71655 0.87858 0.15368 0.0
C946 C 0.6993 0.89989 0.15613 0.0
C947 C 0.66753 0.89273 0.14845 0.0
C948 C 0.65254 0.86412 0.13835 0.0
C949 C 0.66925 0.84254 0.13596 0.0
C950 C 0.70107 0.84964 0.1436 0.0
C951 C 0.77899 0.80391 0.20857 0.0
C952 C 0.77347 0.7718 0.20136 0.0
C953 C 0.78189 0.83415 0.20092 0.0
C954 C 0.77912 0.83262 0.18598 0.0
C955 C 0.77357 0.80067 0.17877 0.0
C956 C 0.77101 0.77061 0.18637 0.0
C957 C 0.78131 0.86403 0.17779 0.0
C958 C 0.75047 0.85768 0.16956 0.0
C959 C 0.81316 0.89994 0.17817 0.0
C960 C 0.84705 0.90775 0.18625 0.0
C961 C 0.86497 0.88717 0.18361 0.0
C962 C 0.89671 0.89446 0.19134 0.0
C963 C 0.91099 0.9225 0.20168 0.0
C964 C 0.89361 0.94336 0.20427 0.0
C965 C 0.86182 0.93613 0.19657 0.0
H966 H 0.93557 0.92812 0.20765 0.0
H967 H 0.62795 0.85862 0.13241 0.0
H968 H 0.74464 0.776 0.4915 0.0
H969 H 0.79845 0.78907 0.50621 0.0
H970 H 0.86741 0.81989 0.46854 0.0
H971 H 0.8138 0.80653 0.45373 0.0
H972 H 0.87307 0.76891 0.48457 0.0
H973 H 0.87754 0.88535 0.49239 0.0
H974 H 0.85134 0.92517 0.49888 0.0
H975 H 0.82742 0.87857 0.54109 0.0
H976 H 0.85298 0.83804 0.53479 0.0
H977 H 0.03851 0.81747 0.51989 0.0
H978 H 0.99438 0.8272 0.50599 0.0
H979 H 0.92199 0.79773 0.54261 0.0
H980 H 0.96643 0.78878 0.55672 0.0
H981 H 0.92034 0.85214 0.52678 0.0
H982 H 0.90866 0.73224 0.51882 0.0
H983 H 0.93097 0.68888 0.51278 0.0
H984 H 0.96436 0.7387 0.47128 0.0
H985 H 0.94271 0.78274 0.47716 0.0
C986 C 0.77133 0.78589 0.48636 0.0
C987 C 0.7749 0.78992 0.47144 0.0
C988 C 0.80207 0.79359 0.49479 0.0
C989 C 0.83688 0.80566 0.48844 0.0
C990 C 0.84073 0.81064 0.47361 0.0
C991 C 0.81005 0.80295 0.46518 0.0
C992 C 0.86852 0.80999 0.4971 0.0
C993 C 0.88392 0.78769 0.49362 0.0
C994 C 0.88168 0.83358 0.50917 0.0
C995 C 0.86692 0.85843 0.51308 0.0
C996 C 0.86648 0.88341 0.50303 0.0
C997 C 0.85177 0.90614 0.50668 0.0
C998 C 0.83764 0.90433 0.52038 0.0
C999 C 0.83835 0.87991 0.53048 0.0
C1000 C 0.85299 0.85709 0.52688 0.0
C1001 C 0.01348 0.81362 0.52506 0.0
C1002 C 0.0056 0.80171 0.53932 0.0
C1003 C 0.98834 0.81924 0.51711 0.0
C1004 C 0.95465 0.81244 0.52321 0.0
C1005 C 0.94782 0.803 0.53771 0.0
C1006 C 0.97317 0.79774 0.54573 0.0
C1007 C 0.92502 0.81131 0.51412 0.0
C1008 C 0.9098 0.83385 0.51759 0.0
C1009 C 0.91159 0.78761 0.50208 0.0
C1010 C 0.92445 0.76104 0.49849 0.0
C1011 C 0.92102 0.73413 0.50845 0.0
C1012 C 0.93351 0.70941 0.50505 0.0
C1013 C 0.94918 0.71111 0.49167 0.0
C1014 C 0.95229 0.73747 0.48165 0.0
C1015 C 0.9399 0.7623 0.48501 0.0
H1016 H 0.95882 0.69194 0.48905 0.0
H1017 H 0.8262 0.9219 0.52317 0.0
H1018 H 0.19051 0.98346 0.885 0.0
H1019 H 0.13783 0.93774 0.87099 0.0
H1020 H 0.19204 0.99602 0.83228 0.0
H1021 H 0.24523 0.04155 0.84617 0.0
H1022 H 0.08837 0.93859 0.85232 0.0
H1023 H 0.1786 0.93191 0.8069 0.0
H1024 H 0.24267 0.94461 0.80289 0.0
H1025 H 0.25167 0.92317 0.84713 0.0
H1026 H 0.18752 0.90986 0.85135 0.0
H1027 H 0.01843 0.80374 0.78642 0.0
H1028 H 0.06419 0.86067 0.79839 0.0
H1029 H 0.01848 0.81104 0.8393 0.0
H1030 H 0.9723 0.75411 0.82744 0.0
H1031 H 0.11727 0.86806 0.81673 0.0
H1032 H 0.02945 0.87894 0.86263 0.0
H1033 H 0.96495 0.86428 0.86706 0.0
H1034 H 0.94985 0.87446 0.82228 0.0
H1035 H 0.0144 0.88969 0.8176 0.0
C1036 C 0.19109 0.98684 0.87352 0.0
C1037 C 0.22232 0.0158 0.86667 0.0
C1038 C 0.16087 0.96076 0.86554 0.0
C1039 C 0.16136 0.96322 0.85061 0.0
C1040 C 0.19147 0.99333 0.8438 0.0
C1041 C 0.22181 0.01931 0.85175 0.0
C1042 C 0.13171 0.93276 0.84215 0.0
C1043 C 0.09458 0.92299 0.84459 0.0
C1044 C 0.14001 0.9129 0.83191 0.0
C1045 C 0.17845 0.92036 0.82946 0.0
C1046 C 0.19424 0.92982 0.81575 0.0
C1047 C 0.23056 0.93712 0.81344 0.0
C1048 C 0.25128 0.93484 0.82476 0.0
C1049 C 0.23565 0.92508 0.83839 0.0
C1050 C 0.19933 0.91769 0.84075 0.0
C1051 C 0.01789 0.80498 0.79796 0.0
C1052 C 0.99178 0.77433 0.80598 0.0
C1053 C 0.04406 0.83754 0.80477 0.0
C1054 C 0.04447 0.84014 0.8197 0.0
C1055 C 0.01822 0.80979 0.82774 0.0
C1056 C 0.99202 0.77719 0.82095 0.0
C1057 C 0.07381 0.87369 0.82692 0.0
C1058 C 0.11097 0.88395 0.8243 0.0
C1059 C 0.06544 0.89375 0.83704 0.0
C1060 C 0.0267 0.88513 0.83976 0.0
C1061 C 0.01243 0.87822 0.85374 0.0
C1062 C 0.97584 0.86978 0.85629 0.0
C1063 C 0.95328 0.86833 0.84495 0.0
C1064 C 0.96731 0.87545 0.83104 0.0
C1065 C 0.00388 0.88393 0.82843 0.0
H1066 H 0.92496 0.86176 0.84695 0.0
H1067 H 0.2794 0.94055 0.82295 0.0
H1068 H 0.29327 0.19277 0.38349 0.0
H1069 H 0.2799 0.19404 0.35802 0.0
H1070 H 0.23619 0.26676 0.36715 0.0
H1071 H 0.2493 0.2656 0.39245 0.0
H1072 H 0.19305 0.2126 0.34767 0.0
H1073 H 0.32303 0.30258 0.35519 0.0
H1074 H 0.38711 0.32295 0.36303 0.0
H1075 H 0.39245 0.24564 0.33401 0.0
H1076 H 0.32817 0.22446 0.32613 0.0
H1077 H 0.20491 0.29669 0.27994 0.0
H1078 H 0.20772 0.2815 0.30502 0.0
H1079 H 0.26391 0.22196 0.29273 0.0
H1080 H 0.26234 0.23815 0.26783 0.0
H1081 H 0.29899 0.26477 0.31376 0.0
H1082 H 0.17073 0.17733 0.30481 0.0
H1083 H 0.10653 0.15627 0.29696 0.0
H1084 H 0.09699 0.22653 0.32832 0.0
H1085 H 0.16133 0.24839 0.33624 0.0
C1086 C 0.28051 0.20873 0.38007 0.0
C1087 C 0.27261 0.2293 0.38997 0.0
C1088 C 0.27297 0.20951 0.36553 0.0
C1089 C 0.2573 0.23074 0.36069 0.0
C1090 C 0.24823 0.25017 0.37064 0.0
C1091 C 0.25596 0.24962 0.3851 0.0
C1092 C 0.25193 0.23441 0.34523 0.0
C1093 C 0.21619 0.22418 0.34024 0.0
C1094 C 0.28201 0.24883 0.33551 0.0
C1095 C 0.32067 0.26165 0.3402 0.0
C1096 C 0.33777 0.28972 0.35057 0.0
C1097 C 0.37414 0.30145 0.355 0.0
C1098 C 0.3938 0.28552 0.34906 0.0
C1099 C 0.37716 0.2579 0.33863 0.0
C1100 C 0.34077 0.24604 0.33417 0.0
C1101 C 0.21744 0.28 0.2826 0.0
C1102 C 0.23353 0.26876 0.27193 0.0
C1103 C 0.21892 0.27117 0.29693 0.0
C1104 C 0.23583 0.25031 0.30081 0.0
C1105 C 0.25088 0.2382 0.29006 0.0
C1106 C 0.24987 0.24742 0.27581 0.0
C1107 C 0.23995 0.24293 0.31606 0.0
C1108 C 0.2756 0.25269 0.32108 0.0
C1109 C 0.2097 0.22787 0.32576 0.0
C1110 C 0.17098 0.21474 0.32103 0.0
C1111 C 0.15504 0.1885 0.30996 0.0
C1112 C 0.11861 0.17638 0.30551 0.0
C1113 C 0.09773 0.19012 0.31211 0.0
C1114 C 0.11321 0.21594 0.3232 0.0
C1115 C 0.14965 0.22817 0.32769 0.0
H1116 H 0.06952 0.1807 0.30865 0.0
H1117 H 0.42196 0.29464 0.3525 0.0
H1118 H 0.92905 0.18308 0.60755 0.0
H1119 H 0.94666 0.18435 0.63266 0.0
H1120 H 0.01959 0.3033 0.62986 0.0
H1121 H 0.0039 0.30163 0.60477 0.0
H1122 H 0.05274 0.27912 0.64454 0.0
H1123 H 0.92692 0.25719 0.64571 0.0
H1124 H 0.85977 0.22344 0.64029 0.0
H1125 H 0.84806 0.12588 0.66106 0.0
H1126 H 0.91526 0.15898 0.66646 0.0
H1127 H 0.99737 0.2949 0.72249 0.0
H1128 H 0.9827 0.28113 0.6973 0.0
H1129 H 0.06774 0.25066 0.69358 0.0
H1130 H 0.08381 0.26633 0.71882 0.0
H1131 H 0.95623 0.22328 0.68219 0.0
H1132 H 0.1016 0.26569 0.65974 0.0
H1133 H 0.1678 0.30869 0.6652 0.0
H1134 H 0.13876 0.38151 0.68712 0.0
H1135 H 0.07249 0.33916 0.68165 0.0
C1136 C 0.94891 0.20938 0.61235 0.0
C1137 C 0.9651 0.24224 0.60423 0.0
C1138 C 0.95887 0.21016 0.62671 0.0
C1139 C 0.98422 0.24403 0.6333 0.0
C1140 C 1.00026 0.27674 0.6251 0.0
C1141 C 0.9911 0.2758 0.61073 0.0
C1142 C 0.9939 0.24617 0.64875 0.0
C1143 C 0.03155 0.26672 0.65275 0.0
C1144 C 0.96648 0.2303 0.65957 0.0
C1145 C 0.92614 0.21039 0.65633 0.0
C1146 C 0.91005 0.22846 0.64903 0.0
C1147 C 0.87199 0.20947 0.64598 0.0
C1148 C 0.84969 0.1725 0.65029 0.0
C1149 C 0.86538 0.15449 0.6577 0.0
C1150 C 0.90344 0.17334 0.66077 0.0
C1151 C 0.01308 0.28538 0.71632 0.0
C1152 C 0.0419 0.28188 0.72262 0.0
C1153 C 0.0045 0.27729 0.7019 0.0
C1154 C 0.02416 0.265 0.69343 0.0
C1155 C 0.05257 0.26076 0.69977 0.0
C1156 C 0.0617 0.26962 0.71421 0.0
C1157 C 0.01493 0.2574 0.67796 0.0
C1158 C 0.97742 0.2354 0.67397 0.0
C1159 C 0.04234 0.2733 0.66715 0.0
C1160 C 0.0821 0.29901 0.67045 0.0
C1161 C 0.10939 0.2909 0.66571 0.0
C1162 C 0.1469 0.31516 0.6688 0.0
C1163 C 0.15746 0.34773 0.67655 0.0
C1164 C 0.13053 0.35619 0.68117 0.0
C1165 C 0.093 0.33206 0.67809 0.0
H1166 H 0.18651 0.36645 0.67894 0.0
H1167 H 0.82022 0.15785 0.64792 0.0
H1168 H 0.73486 0.97773 0.06099 0.0
H1169 H 0.73482 0.96494 0.0356 0.0
H1170 H 0.80626 0.08211 0.02741 0.0
H1171 H 0.80626 0.09526 0.05297 0.0
H1172 H 0.74656 0.05064 0.00948 0.0
H1173 H 0.83999 0.02286 0.02492 0.0
H1174 H 0.86663 0.99304 0.03985 0.0
H1175 H 0.78022 0.88521 0.02636 0.0
H1176 H 0.75274 0.91437 0.0115 0.0
H1177 H 0.77308 0.02917 0.93682 0.0
H1178 H 0.78538 0.04364 0.96214 0.0
H1179 H 0.71849 0.92705 0.97241 0.0
H1180 H 0.70674 0.91219 0.94691 0.0
H1181 H 0.77888 0.95986 0.98925 0.0
H1182 H 0.68315 0.98587 0.97523 0.0
H1183 H 0.65427 0.01405 0.96062 0.0
H1184 H 0.74227 0.12325 0.97188 0.0
H1185 H 0.77195 0.0957 0.98642 0.0
C1186 C 0.7509 0.00083 0.05384 0.0
C1187 C 0.77055 0.03756 0.05901 0.0
C1188 C 0.75098 0.99341 0.03931 0.0
C1189 C 0.77079 0.0225 0.0296 0.0
C1190 C 0.79087 0.05921 0.03473 0.0
C1191 C 0.79094 0.06668 0.04933 0.0
C1192 C 0.76865 0.01458 0.01404 0.0
C1193 C 0.75433 0.03135 0.00501 0.0
C1194 C 0.77759 0.98844 0.00829 0.0
C1195 C 0.79413 0.97082 0.01718 0.0
C1196 C 0.82649 0.99278 0.02522 0.0
C1197 C 0.84178 0.976 0.03366 0.0
C1198 C 0.82508 0.93726 0.03408 0.0
C1199 C 0.79311 0.91522 0.02604 0.0
C1200 C 0.77769 0.93186 0.01759 0.0
C1201 C 0.76118 0.0065 0.94444 0.0
C1202 C 0.73862 0.96953 0.93986 0.0
C1203 C 0.76815 0.01487 0.95893 0.0
C1204 C 0.75224 0.98655 0.96922 0.0
C1205 C 0.73092 0.9494 0.96467 0.0
C1206 C 0.72418 0.94094 0.9501 0.0
C1207 C 0.75684 0.99598 0.98469 0.0
C1208 C 0.77143 0.97939 0.9937 0.0
C1209 C 0.74784 0.02206 0.99048 0.0
C1210 C 0.72997 0.03871 0.9818 0.0
C1211 C 0.69649 0.01589 0.97451 0.0
C1212 C 0.67995 0.03175 0.96625 0.0
C1213 C 0.69648 0.07041 0.96529 0.0
C1214 C 0.72953 0.0933 0.97262 0.0
C1215 C 0.74621 0.07758 0.98088 0.0
H1216 H 0.68364 0.08264 0.95889 0.0
H1217 H 0.83696 0.92431 0.04062 0.0
H1218 H 0.80159 0.70728 0.28192 0.0
H1219 H 0.80173 0.72137 0.30738 0.0
H1220 H 0.71642 0.74976 0.29982 0.0
H1221 H 0.71632 0.73613 0.27451 0.0
H1222 H 0.76924 0.79908 0.31778 0.0
H1223 H 0.69441 0.66545 0.31317 0.0
H1224 H 0.68215 0.60298 0.30623 0.0
H1225 H 0.77118 0.61543 0.33328 0.0
H1226 H 0.78426 0.67822 0.34024 0.0
H1227 H 0.69347 0.78284 0.38752 0.0
H1228 H 0.70548 0.77917 0.36214 0.0
H1229 H 0.78301 0.74252 0.37314 0.0
H1230 H 0.77029 0.74506 0.39841 0.0
H1231 H 0.73871 0.69957 0.35346 0.0
H1232 H 0.81127 0.83166 0.35943 0.0
H1233 H 0.82366 0.89413 0.36644 0.0
H1234 H 0.74028 0.88541 0.33706 0.0
H1235 H 0.72704 0.82267 0.33001 0.0
C1236 C 0.78306 0.71674 0.28568 0.0
C1237 C 0.7588 0.72036 0.2762 0.0
C1238 C 0.78309 0.72469 0.30023 0.0
C1239 C 0.75884 0.73632 0.30552 0.0
C1240 C 0.73538 0.74088 0.29599 0.0
C1241 C 0.73526 0.73287 0.28152 0.0
C1242 C 0.75674 0.74261 0.32103 0.0
C1243 C 0.76233 0.77728 0.32559 0.0
C1244 C 0.74849 0.71443 0.33125 0.0
C1245 C 0.74058 0.67667 0.3271 0.0
C1246 C 0.71156 0.65498 0.31755 0.0
C1247 C 0.70443 0.6195 0.31363 0.0
C1248 C 0.72595 0.60529 0.31928 0.0
C1249 C 0.75458 0.6265 0.32889 0.0
C1250 C 0.76185 0.66202 0.33284 0.0
C1251 C 0.71341 0.77446 0.38452 0.0
C1252 C 0.73083 0.76414 0.39496 0.0
C1253 C 0.72038 0.77249 0.37 0.0
C1254 C 0.74539 0.76079 0.36569 0.0
C1255 C 0.76352 0.75149 0.37616 0.0
C1256 C 0.75627 0.75306 0.39062 0.0
C1257 C 0.75114 0.75613 0.3503 0.0
C1258 C 0.74606 0.72164 0.34573 0.0
C1259 C 0.75999 0.78455 0.3401 0.0
C1260 C 0.76794 0.82232 0.34429 0.0
C1261 C 0.79538 0.84295 0.35454 0.0
C1262 C 0.80259 0.87843 0.35851 0.0
C1263 C 0.78271 0.89369 0.35222 0.0
C1264 C 0.75563 0.87354 0.34193 0.0
C1265 C 0.7483 0.83803 0.33793 0.0
H1266 H 0.78833 0.92117 0.3553 0.0
H1267 H 0.72038 0.57781 0.31623 0.0
H1268 H 0.96859 0.72641 0.61072 0.0
H1269 H 0.95552 0.72305 0.63619 0.0
H1270 H 0.07291 0.78974 0.64501 0.0
H1271 H 0.08637 0.79293 0.61937 0.0
H1272 H 0.03916 0.72885 0.66214 0.0
H1273 H 0.01617 0.8267 0.64817 0.0
H1274 H 0.98836 0.85616 0.63369 0.0
H1275 H 0.87903 0.77106 0.6463 0.0
H1276 H 0.90617 0.74078 0.6607 0.0
H1277 H 0.01848 0.75178 0.73512 0.0
H1278 H 0.03339 0.76498 0.70988 0.0
H1279 H 0.91654 0.70358 0.69947 0.0
H1280 H 0.90129 0.69118 0.72493 0.0
H1281 H 0.95139 0.76411 0.68318 0.0
H1282 H 0.97283 0.66447 0.69598 0.0
H1283 H 0.99919 0.63307 0.71014 0.0
H1284 H 0.10967 0.71909 0.69928 0.0
H1285 H 0.08395 0.75129 0.68521 0.0
C1286 C 0.99172 0.74061 0.61804 0.0
C1287 C 0.02858 0.75999 0.613 0.0
C1288 C 0.98413 0.7388 0.63262 0.0
C1289 C 0.01317 0.75652 0.64251 0.0
C1290 C 0.05005 0.77599 0.63755 0.0
C1291 C 0.05771 0.77786 0.62291 0.0
C1292 C 0.00489 0.75322 0.65804 0.0
C1293 C 0.02052 0.7372 0.66679 0.0
C1294 C 0.9796 0.76301 0.66401 0.0
C1295 C 0.96321 0.7813 0.65543 0.0
C1296 C 0.98619 0.81411 0.64777 0.0
C1297 C 0.97054 0.83098 0.63959 0.0
C1298 C 0.93195 0.81545 0.63905 0.0
C1299 C 0.90892 0.78305 0.64672 0.0
C1300 C 0.92442 0.76604 0.65491 0.0
C1301 C 0.99587 0.74124 0.72749 0.0
C1302 C 0.95869 0.72009 0.732 0.0
C1303 C 0.00448 0.74871 0.71304 0.0
C1304 C 0.97617 0.73455 0.70273 0.0
C1305 C 0.93888 0.7146 0.70723 0.0
C1306 C 0.93019 0.7075 0.72176 0.0
C1307 C 0.9857 0.73976 0.68728 0.0
C1308 C 0.97023 0.756 0.67854 0.0
C1309 C 0.01093 0.7299 0.68127 0.0
C1310 C 0.02646 0.71047 0.68965 0.0
C1311 C 0.00275 0.67683 0.69669 0.0
C1312 C 0.01757 0.65887 0.70469 0.0
C1313 C 0.05608 0.67413 0.70564 0.0
C1314 C 0.07984 0.70733 0.69855 0.0
C1315 C 0.06516 0.72543 0.69055 0.0
H1316 H 0.06751 0.66018 0.71184 0.0
H1317 H 0.91989 0.82855 0.6327 0.0
H1318 H 0.27795 0.01963 0.06224 0.0
H1319 H 0.27902 0.03404 0.03697 0.0
H1320 H 0.20554 0.91778 0.0278 0.0
H1321 H 0.20441 0.90297 0.05325 0.0
H1322 H 0.26616 0.94993 0.00997 0.0
H1323 H 0.17324 0.97764 0.02613 0.0
H1324 H 0.14677 0.0067 0.04157 0.0
H1325 H 0.23414 0.1152 0.02922 0.0
H1326 H 0.26146 0.0868 0.01385 0.0
H1327 H 0.24084 0.97741 0.93782 0.0
H1328 H 0.22864 0.96107 0.96299 0.0
H1329 H 0.29609 0.07681 0.97447 0.0
H1330 H 0.30772 0.09356 0.94911 0.0
H1331 H 0.2355 0.04314 0.9911 0.0
H1332 H 0.33065 0.01702 0.97633 0.0
H1333 H 0.35934 0.98949 0.96124 0.0
H1334 H 0.2705 0.87985 0.97146 0.0
H1335 H 0.241 0.90676 0.98646 0.0
C1336 C 0.26175 0.99705 0.05489 0.0
C1337 C 0.2411 0.96009 0.05976 0.0
C1338 C 0.26226 0.00542 0.04044 0.0
C1339 C 0.24208 0.97706 0.03052 0.0
C1340 C 0.22119 0.9401 0.03531 0.0
C1341 C 0.2205 0.93169 0.04984 0.0
C1342 C 0.2445 0.98606 0.01508 0.0
C1343 C 0.25877 0.96976 0.00579 0.0
C1344 C 0.23602 0.01288 0.00973 0.0
C1345 C 0.21957 0.03006 0.01892 0.0
C1346 C 0.18699 0.0077 0.02679 0.0
C1347 C 0.17179 0.02405 0.03551 0.0
C1348 C 0.18881 0.06277 0.0364 0.0
C1349 C 0.221 0.08521 0.02853 0.0
C1350 C 0.23633 0.069 0.0198 0.0
C1351 C 0.25295 0.9995 0.94567 0.0
C1352 C 0.27557 0.03679 0.94148 0.0
C1353 C 0.24603 0.99006 0.96008 0.0
C1354 C 0.26207 0.0176 0.97065 0.0
C1355 C 0.28358 0.05506 0.9665 0.0
C1356 C 0.29025 0.0646 0.95202 0.0
C1357 C 0.25717 0.007 0.98599 0.0
C1358 C 0.2426 0.02309 0.99526 0.0
C1359 C 0.26568 0.9802 0.99137 0.0
C1360 C 0.28343 0.96393 0.9824 0.0
C1361 C 0.31709 0.98705 0.97527 0.0
C1362 C 0.33352 0.97156 0.96675 0.0
C1363 C 0.3167 0.93295 0.96536 0.0
C1364 C 0.28347 0.90976 0.97252 0.0
C1365 C 0.26689 0.92511 0.98105 0.0
H1366 H 0.32947 0.92101 0.95875 0.0
H1367 H 0.177 0.07538 0.04316 0.0
loop_
_geom_bond_atom_site_label_1
_geom_bond_atom_site_label_2
_geom_bond_distance
_geom_bond_site_symmetry_2
_ccdc_geom_bond_type
O0 Cd1 2.223 . S
O0 C8 1.315 . S
Cd1 O0 2.223 . S
Cd1 O4 2.297 . S
Cd1 O5 2.439 . S
Cd1 O11 2.240 . S
Cd2 O3 2.240 . S
Cd2 O10 2.223 . S
Cd2 O12 2.297 . S
Cd2 O13 2.439 . S
O3 Cd2 2.240 . S
O3 C8 1.279 . S
O4 Cd1 2.297 . S
O4 C6 1.247 . S
O5 Cd1 2.439 . S
O5 C6 1.208 . S
C6 O4 1.247 . S
C6 O5 1.208 . S
C7 O12 1.247 . S
C7 O13 1.208 . S
C8 O0 1.315 . S
C8 O3 1.279 . S
C9 O10 1.315 . S
C9 O11 1.279 . S
O10 Cd2 2.223 . S
O10 C9 1.315 . S
O11 Cd1 2.240 . S
O11 C9 1.279 . S
O12 Cd2 2.297 . S
O12 C7 1.247 . S
O13 Cd2 2.439 . S
O13 C7 1.208 . S
O14 Cd15 2.223 . S
O14 C22 1.315 1_455 S
Cd15 O14 2.223 . S
Cd15 O18 2.297 1_455 S
Cd15 O19 2.439 1_455 S
Cd15 O25 2.240 1_455 S
Cd16 O17 2.240 . S
Cd16 O24 2.223 . S
Cd16 O26 2.297 . S
Cd16 O27 2.439 . S
O17 Cd16 2.240 . S
O17 C22 1.279 . S
O18 Cd15 2.297 1_655 S
O18 C20 1.247 . S
O19 Cd15 2.439 1_655 S
O19 C20 1.208 . S
C20 O18 1.247 . S
C20 O19 1.208 . S
C21 O26 1.247 . S
C21 O27 1.208 . S
C22 O14 1.315 1_655 S
C22 O17 1.279 . S
C23 O24 1.315 1_455 S
C23 O25 1.279 1_455 S
O24 Cd16 2.223 . S
O24 C23 1.315 1_655 S
O25 Cd15 2.240 1_655 S
O25 C23 1.279 1_655 S
O26 Cd16 2.297 . S
O26 C21 1.247 . S
O27 Cd16 2.439 . S
O27 C21 1.208 . S
O28 Cd29 2.223 . S
O28 C36 1.315 1_545 S
Cd29 O28 2.223 . S
Cd29 O32 2.297 1_545 S
Cd29 O33 2.439 1_545 S
Cd29 O39 2.240 1_545 S
Cd30 O31 2.240 . S
Cd30 O38 2.223 . S
Cd30 O40 2.297 . S
Cd30 O41 2.439 . S
O31 Cd30 2.240 . S
O31 C36 1.279 . S
O32 Cd29 2.297 1_565 S
O32 C34 1.247 . S
O33 Cd29 2.439 1_565 S
O33 C34 1.208 . S
C34 O32 1.247 . S
C34 O33 1.208 . S
C35 O40 1.247 . S
C35 O41 1.208 . S
C36 O28 1.315 1_565 S
C36 O31 1.279 . S
C37 O38 1.315 1_545 S
C37 O39 1.279 1_545 S
O38 Cd30 2.223 . S
O38 C37 1.315 1_565 S
O39 Cd29 2.240 1_565 S
O39 C37 1.279 1_565 S
O40 Cd30 2.297 . S
O40 C35 1.247 . S
O41 Cd30 2.439 . S
O41 C35 1.208 . S
O42 Cd43 2.223 . S
O42 C50 1.315 . S
Cd43 O42 2.223 . S
Cd43 O46 2.297 . S
Cd43 O47 2.439 . S
Cd43 O53 2.240 . S
Cd44 O45 2.240 . S
Cd44 O52 2.223 . S
Cd44 O54 2.297 . S
Cd44 O55 2.439 . S
O45 Cd44 2.240 . S
O45 C50 1.279 . S
O46 Cd43 2.297 . S
O46 C48 1.247 . S
O47 Cd43 2.439 . S
O47 C48 1.208 . S
C48 O46 1.247 . S
C48 O47 1.208 . S
C49 O54 1.247 . S
C49 O55 1.208 . S
C50 O42 1.315 . S
C50 O45 1.279 . S
C51 O52 1.315 . S
C51 O53 1.279 . S
O52 Cd44 2.223 . S
O52 C51 1.315 . S
O53 Cd43 2.240 . S
O53 C51 1.279 . S
O54 Cd44 2.297 . S
O54 C49 1.247 . S
O55 Cd44 2.439 . S
O55 C49 1.208 . S
O56 Cd57 2.223 . S
O56 C64 1.315 1_655 S
Cd57 O56 2.223 . S
Cd57 O60 2.297 1_655 S
Cd57 O61 2.439 1_655 S
Cd57 O67 2.240 1_655 S
Cd58 O59 2.240 . S
Cd58 O66 2.223 . S
Cd58 O68 2.297 . S
Cd58 O69 2.439 . S
O59 Cd58 2.240 . S
O59 C64 1.279 . S
O60 Cd57 2.297 1_455 S
O60 C62 1.247 . S
O61 Cd57 2.439 1_455 S
O61 C62 1.208 . S
C62 O60 1.247 . S
C62 O61 1.208 . S
C63 O68 1.247 . S
C63 O69 1.208 . S
C64 O56 1.315 1_455 S
C64 O59 1.279 . S
C65 O66 1.315 1_655 S
C65 O67 1.279 1_655 S
O66 Cd58 2.223 . S
O66 C65 1.315 1_455 S
O67 Cd57 2.240 1_455 S
O67 C65 1.279 1_455 S
O68 Cd58 2.297 . S
O68 C63 1.247 . S
O69 Cd58 2.439 . S
O69 C63 1.208 . S
O70 Cd71 2.223 . S
O70 C78 1.315 1_565 S
Cd71 O70 2.223 . S
Cd71 O74 2.297 1_565 S
Cd71 O75 2.439 1_565 S
Cd71 O81 2.240 1_565 S
Cd72 O73 2.240 . S
Cd72 O80 2.223 . S
Cd72 O82 2.297 . S
Cd72 O83 2.439 . S
O73 Cd72 2.240 . S
O73 C78 1.279 . S
O74 Cd71 2.297 1_545 S
O74 C76 1.247 . S
O75 Cd71 2.439 1_545 S
O75 C76 1.208 . S
C76 O74 1.247 . S
C76 O75 1.208 . S
C77 O82 1.247 . S
C77 O83 1.208 . S
C78 O70 1.315 1_545 S
C78 O73 1.279 . S
C79 O80 1.315 1_565 S
C79 O81 1.279 1_565 S
O80 Cd72 2.223 . S
O80 C79 1.315 1_545 S
O81 Cd71 2.240 1_545 S
O81 C79 1.279 1_545 S
O82 Cd72 2.297 . S
O82 C77 1.247 . S
O83 Cd72 2.439 . S
O83 C77 1.208 . S
O84 Cd85 2.223 . S
O84 C92 1.315 . S
Cd85 O84 2.223 . S
Cd85 O88 2.297 . S
Cd85 O89 2.439 . S
Cd85 O95 2.240 . S
Cd86 O87 2.240 . S
Cd86 O94 2.223 . S
Cd86 O96 2.297 . S
Cd86 O97 2.439 . S
O87 Cd86 2.240 . S
O87 C92 1.279 . S
O88 Cd85 2.297 . S
O88 C90 1.247 . S
O89 Cd85 2.439 . S
O89 C90 1.208 . S
C90 O88 1.247 . S
C90 O89 1.208 . S
C91 O96 1.247 . S
C91 O97 1.208 . S
C92 O84 1.315 . S
C92 O87 1.279 . S
C93 O94 1.315 . S
C93 O95 1.279 . S
O94 Cd86 2.223 . S
O94 C93 1.315 . S
O95 Cd85 2.240 . S
O95 C93 1.279 . S
O96 Cd86 2.297 . S
O96 C91 1.247 . S
O97 Cd86 2.439 . S
O97 C91 1.208 . S
O98 Cd99 2.223 . S
O98 C106 1.315 1_455 S
Cd99 O98 2.223 . S
Cd99 O102 2.297 1_455 S
Cd99 O103 2.439 1_455 S
Cd99 O109 2.240 1_455 S
Cd100 O101 2.240 . S
Cd100 O108 2.223 . S
Cd100 O110 2.297 . S
Cd100 O111 2.439 . S
O101 Cd100 2.240 . S
O101 C106 1.279 . S
O102 Cd99 2.297 1_655 S
O102 C104 1.247 . S
O103 Cd99 2.439 1_655 S
O103 C104 1.208 . S
C104 O102 1.247 . S
C104 O103 1.208 . S
C105 O110 1.247 . S
C105 O111 1.208 . S
C106 O98 1.315 1_655 S
C106 O101 1.279 . S
C107 O108 1.315 1_455 S
C107 O109 1.279 1_455 S
O108 Cd100 2.223 . S
O108 C107 1.315 1_655 S
O109 Cd99 2.240 1_655 S
O109 C107 1.279 1_655 S
O110 Cd100 2.297 . S
O110 C105 1.247 . S
O111 Cd100 2.439 . S
O111 C105 1.208 . S
O112 Cd113 2.223 . S
O112 C120 1.315 1_545 S
Cd113 O112 2.223 . S
Cd113 O116 2.297 1_545 S
Cd113 O117 2.439 1_545 S
Cd113 O123 2.240 1_545 S
Cd114 O115 2.240 . S
Cd114 O122 2.223 . S
Cd114 O124 2.297 . S
Cd114 O125 2.439 . S
O115 Cd114 2.240 . S
O115 C120 1.279 . S
O116 Cd113 2.297 1_565 S
O116 C118 1.247 . S
O117 Cd113 2.439 1_565 S
O117 C118 1.208 . S
C118 O116 1.247 . S
C118 O117 1.208 . S
C119 O124 1.247 . S
C119 O125 1.208 . S
C120 O112 1.315 1_565 S
C120 O115 1.279 . S
C121 O122 1.315 1_545 S
C121 O123 1.279 1_545 S
O122 Cd114 2.223 . S
O122 C121 1.315 1_565 S
O123 Cd113 2.240 1_565 S
O123 C121 1.279 1_565 S
O124 Cd114 2.297 . S
O124 C119 1.247 . S
O125 Cd114 2.439 . S
O125 C119 1.208 . S
O126 Cd127 2.223 . S
O126 C134 1.315 . S
Cd127 O126 2.223 . S
Cd127 O130 2.297 . S
Cd127 O131 2.439 . S
Cd127 O137 2.240 . S
Cd128 O129 2.240 . S
Cd128 O136 2.223 . S
Cd128 O138 2.297 . S
Cd128 O139 2.439 . S
O129 Cd128 2.240 . S
O129 C134 1.279 . S
O130 Cd127 2.297 . S
O130 C132 1.247 . S
O131 Cd127 2.439 . S
O131 C132 1.208 . S
C132 O130 1.247 . S
C132 O131 1.208 . S
C133 O138 1.247 . S
C133 O139 1.208 . S
C134 O126 1.315 . S
C134 O129 1.279 . S
C135 O136 1.315 . S
C135 O137 1.279 . S
O136 Cd128 2.223 . S
O136 C135 1.315 . S
O137 Cd127 2.240 . S
O137 C135 1.279 . S
O138 Cd128 2.297 . S
O138 C133 1.247 . S
O139 Cd128 2.439 . S
O139 C133 1.208 . S
O140 Cd141 2.223 . S
O140 C148 1.315 1_655 S
Cd141 O140 2.223 . S
Cd141 O144 2.297 1_655 S
Cd141 O145 2.439 1_655 S
Cd141 O151 2.240 1_655 S
Cd142 O143 2.240 . S
Cd142 O150 2.223 . S
Cd142 O152 2.297 . S
Cd142 O153 2.439 . S
O143 Cd142 2.240 . S
O143 C148 1.279 . S
O144 Cd141 2.297 1_455 S
O144 C146 1.247 . S
O145 Cd141 2.439 1_455 S
O145 C146 1.208 . S
C146 O144 1.247 . S
C146 O145 1.208 . S
C147 O152 1.247 . S
C147 O153 1.208 . S
C148 O140 1.315 1_455 S
C148 O143 1.279 . S
C149 O150 1.315 1_655 S
C149 O151 1.279 1_655 S
O150 Cd142 2.223 . S
O150 C149 1.315 1_455 S
O151 Cd141 2.240 1_455 S
O151 C149 1.279 1_455 S
O152 Cd142 2.297 . S
O152 C147 1.247 . S
O153 Cd142 2.439 . S
O153 C147 1.208 . S
O154 Cd155 2.223 . S
O154 C162 1.315 1_565 S
Cd155 O154 2.223 . S
Cd155 O158 2.297 1_565 S
Cd155 O159 2.439 1_565 S
Cd155 O165 2.240 1_565 S
Cd156 O157 2.240 . S
Cd156 O164 2.223 . S
Cd156 O166 2.297 . S
Cd156 O167 2.439 . S
O157 Cd156 2.240 . S
O157 C162 1.279 . S
O158 Cd155 2.297 1_545 S
O158 C160 1.247 . S
O159 Cd155 2.439 1_545 S
O159 C160 1.208 . S
C160 O158 1.247 . S
C160 O159 1.208 . S
C161 O166 1.247 . S
C161 O167 1.208 . S
C162 O154 1.315 1_545 S
C162 O157 1.279 . S
C163 O164 1.315 1_565 S
C163 O165 1.279 1_565 S
O164 Cd156 2.223 . S
O164 C163 1.315 1_545 S
O165 Cd155 2.240 1_545 S
O165 C163 1.279 1_545 S
O166 Cd156 2.297 . S
O166 C161 1.247 . S
O167 Cd156 2.439 . S
O167 C161 1.208 . S
H168 C186 0.951 . S
H169 C188 0.951 . S
H170 C190 0.950 . S
H171 C191 0.950 . S
H172 C193 0.950 . S
H173 C196 0.950 . S
H174 C197 0.950 . S
H175 C199 0.950 . S
H176 C200 0.950 . S
H177 C201 0.951 . S
H178 C203 0.951 . S
H179 C205 0.950 . S
H180 C206 0.950 . S
H181 C208 0.950 . S
H182 C211 0.950 . S
H183 C212 0.950 . S
H184 C214 0.950 . S
H185 C215 0.950 . S
C186 H168 0.951 . S
C186 C187 1.366 . S
C186 C188 1.388 . S
C187 C186 1.366 . S
C187 C191 1.385 . S
C188 H169 0.951 . S
C188 C186 1.388 . S
C188 C189 1.366 . S
C189 C188 1.366 . S
C189 C190 1.414 . S
C189 C192 1.499 . S
C190 H170 0.950 . S
C190 C189 1.414 . S
C190 C191 1.374 . S
C191 H171 0.950 . S
C191 C187 1.385 . S
C191 C190 1.374 . S
C192 C189 1.499 . S
C192 C193 1.373 . S
C192 C194 1.389 . S
C193 H172 0.950 . S
C193 C192 1.373 . S
C193 C209 1.377 1_655 S
C194 C192 1.389 . S
C194 C195 1.524 . S
C194 C208 1.377 1_655 S
C195 C194 1.524 . S
C195 C196 1.397 . S
C195 C200 1.363 1_655 S
C196 H173 0.950 . S
C196 C195 1.397 . S
C196 C197 1.334 . S
C197 H174 0.950 . S
C197 C196 1.334 . S
C197 C198 1.287 . S
C198 C197 1.287 . S
C198 C199 1.524 1_655 S
C198 H217 0.913 . S
C199 H175 0.950 . S
C199 C198 1.524 1_455 S
C199 C200 1.415 . S
C200 H176 0.950 . S
C200 C195 1.363 1_455 S
C200 C199 1.415 . S
C201 H177 0.951 . S
C201 C202 1.366 . S
C201 C203 1.388 . S
C202 C201 1.366 . S
C202 C206 1.385 . S
C203 H178 0.951 . S
C203 C201 1.388 . S
C203 C204 1.366 . S
C204 C203 1.366 . S
C204 C205 1.414 . S
C204 C207 1.499 . S
C205 H179 0.950 . S
C205 C204 1.414 . S
C205 C206 1.374 . S
C206 H180 0.950 . S
C206 C202 1.385 . S
C206 C205 1.374 . S
C207 C204 1.499 . S
C207 C208 1.373 . S
C207 C209 1.389 . S
C208 H181 0.950 . S
C208 C194 1.377 1_455 S
C208 C207 1.373 . S
C209 C193 1.377 1_455 S
C209 C207 1.389 . S
C209 C210 1.524 . S
C210 C209 1.524 . S
C210 C211 1.397 . S
C210 C215 1.363 1_455 S
C211 H182 0.950 . S
C211 C210 1.397 . S
C211 C212 1.334 . S
C212 H183 0.950 . S
C212 C211 1.334 . S
C212 C213 1.287 . S
C213 C212 1.287 . S
C213 C214 1.524 1_455 S
C213 H216 0.999 . S
C214 H184 0.950 . S
C214 C213 1.524 1_655 S
C214 C215 1.415 . S
C215 H185 0.950 . S
C215 C210 1.363 1_655 S
C215 C214 1.415 . S
H216 C213 0.999 . S
H217 C198 0.913 . S
H218 C236 0.951 . S
H219 C238 0.951 . S
H220 C240 0.950 . S
H221 C241 0.950 . S
H222 C243 0.950 . S
H223 C246 0.950 . S
H224 C247 0.950 . S
H225 C249 0.950 . S
H226 C250 0.950 . S
H227 C251 0.951 . S
H228 C253 0.951 . S
H229 C255 0.950 . S
H230 C256 0.950 . S
H231 C258 0.950 . S
H232 C261 0.950 . S
H233 C262 0.950 . S
H234 C264 0.950 . S
H235 C265 0.950 . S
C236 H218 0.951 . S
C236 C237 1.366 . S
C236 C238 1.388 . S
C237 C236 1.366 . S
C237 C241 1.385 . S
C238 H219 0.951 . S
C238 C236 1.388 . S
C238 C239 1.366 . S
C239 C238 1.366 . S
C239 C240 1.414 . S
C239 C242 1.499 . S
C240 H220 0.950 . S
C240 C239 1.414 . S
C240 C241 1.374 . S
C241 H221 0.950 . S
C241 C237 1.385 . S
C241 C240 1.374 . S
C242 C239 1.499 . S
C242 C243 1.373 . S
C242 C244 1.389 . S
C243 H222 0.950 . S
C243 C242 1.373 . S
C243 C259 1.377 1_545 S
C244 C242 1.389 . S
C244 C245 1.524 . S
C244 C258 1.377 1_545 S
C245 C244 1.524 . S
C245 C246 1.397 . S
C245 C250 1.363 . S
C246 H223 0.950 . S
C246 C245 1.397 . S
C246 C247 1.334 . S
C247 H224 0.950 . S
C247 C246 1.334 . S
C247 C248 1.287 . S
C248 C247 1.287 . S
C248 C249 1.524 . S
C248 H267 0.913 . S
C249 H225 0.950 . S
C249 C248 1.524 . S
C249 C250 1.415 . S
C250 H226 0.950 . S
C250 C245 1.363 . S
C250 C249 1.415 . S
C251 H227 0.951 . S
C251 C252 1.366 . S
C251 C253 1.388 . S
C252 C251 1.366 . S
C252 C256 1.385 . S
C253 H228 0.951 . S
C253 C251 1.388 . S
C253 C254 1.366 . S
C254 C253 1.366 . S
C254 C255 1.414 . S
C254 C257 1.499 . S
C255 H229 0.950 . S
C255 C254 1.414 . S
C255 C256 1.374 . S
C256 H230 0.950 . S
C256 C252 1.385 . S
C256 C255 1.374 . S
C257 C254 1.499 . S
C257 C258 1.373 . S
C257 C259 1.389 . S
C258 H231 0.950 . S
C258 C244 1.377 1_565 S
C258 C257 1.373 . S
C259 C243 1.377 1_565 S
C259 C257 1.389 . S
C259 C260 1.524 . S
C260 C259 1.524 . S
C260 C261 1.397 . S
C260 C265 1.363 . S
C261 H232 0.950 . S
C261 C260 1.397 . S
C261 C262 1.334 . S
C262 H233 0.950 . S
C262 C261 1.334 . S
C262 C263 1.287 . S
C263 C262 1.287 . S
C263 C264 1.524 . S
C263 H266 0.999 . S
C264 H234 0.950 . S
C264 C263 1.524 . S
C264 C265 1.415 . S
C265 H235 0.950 . S
C265 C260 1.363 . S
C265 C264 1.415 . S
H266 C263 0.999 . S
H267 C248 0.913 . S
H268 C286 0.951 . S
H269 C288 0.951 . S
H270 C290 0.950 . S
H271 C291 0.950 . S
H272 C293 0.950 . S
H273 C296 0.950 . S
H274 C297 0.950 . S
H275 C299 0.950 . S
H276 C300 0.950 . S
H277 C301 0.951 . S
H278 C303 0.951 . S
H279 C305 0.950 . S
H280 C306 0.950 . S
H281 C308 0.950 . S
H282 C311 0.950 . S
H283 C312 0.950 . S
H284 C314 0.950 . S
H285 C315 0.950 . S
C286 H268 0.951 . S
C286 C287 1.366 . S
C286 C288 1.388 . S
C287 C286 1.366 . S
C287 C291 1.385 . S
C288 H269 0.951 . S
C288 C286 1.388 . S
C288 C289 1.366 . S
C289 C288 1.366 . S
C289 C290 1.414 . S
C289 C292 1.499 . S
C290 H270 0.950 . S
C290 C289 1.414 . S
C290 C291 1.374 . S
C291 H271 0.950 . S
C291 C287 1.385 . S
C291 C290 1.374 . S
C292 C289 1.499 . S
C292 C293 1.373 . S
C292 C294 1.389 . S
C293 H272 0.950 . S
C293 C292 1.373 . S
C293 C309 1.377 . S
C294 C292 1.389 . S
C294 C295 1.524 . S
C294 C308 1.377 . S
C295 C294 1.524 . S
C295 C296 1.397 . S
C295 C300 1.363 . S
C296 H273 0.950 . S
C296 C295 1.397 . S
C296 C297 1.334 . S
C297 H274 0.950 . S
C297 C296 1.334 . S
C297 C298 1.287 . S
C298 C297 1.287 . S
C298 C299 1.524 . S
C298 H317 0.913 . S
C299 H275 0.950 . S
C299 C298 1.524 . S
C299 C300 1.415 . S
C300 H276 0.950 . S
C300 C295 1.363 . S
C300 C299 1.415 . S
C301 H277 0.951 . S
C301 C302 1.366 . S
C301 C303 1.388 . S
C302 C301 1.366 . S
C302 C306 1.385 . S
C303 H278 0.951 . S
C303 C301 1.388 . S
C303 C304 1.366 . S
C304 C303 1.366 . S
C304 C305 1.414 . S
C304 C307 1.499 . S
C305 H279 0.950 . S
C305 C304 1.414 . S
C305 C306 1.374 . S
C306 H280 0.950 . S
C306 C302 1.385 . S
C306 C305 1.374 . S
C307 C304 1.499 . S
C307 C308 1.373 . S
C307 C309 1.389 . S
C308 H281 0.950 . S
C308 C294 1.377 . S
C308 C307 1.373 . S
C309 C293 1.377 . S
C309 C307 1.389 . S
C309 C310 1.524 . S
C310 C309 1.524 . S
C310 C311 1.397 . S
C310 C315 1.363 . S
C311 H282 0.950 . S
C311 C310 1.397 . S
C311 C312 1.334 . S
C312 H283 0.950 . S
C312 C311 1.334 . S
C312 C313 1.287 . S
C313 C312 1.287 . S
C313 C314 1.524 . S
C313 H316 0.999 . S
C314 H284 0.950 . S
C314 C313 1.524 . S
C314 C315 1.415 . S
C315 H285 0.950 . S
C315 C310 1.363 . S
C315 C314 1.415 . S
H316 C313 0.999 . S
H317 C298 0.913 . S
H318 C336 0.951 . S
H319 C338 0.951 . S
H320 C340 0.950 . S
H321 C341 0.950 . S
H322 C343 0.950 . S
H323 C346 0.950 . S
H324 C347 0.950 . S
H325 C349 0.950 . S
H326 C350 0.950 . S
H327 C351 0.951 . S
H328 C353 0.951 . S
H329 C355 0.950 . S
H330 C356 0.950 . S
H331 C358 0.950 . S
H332 C361 0.950 . S
H333 C362 0.950 . S
H334 C364 0.950 . S
H335 C365 0.950 . S
C336 H318 0.951 . S
C336 C337 1.366 . S
C336 C338 1.388 . S
C337 C336 1.366 . S
C337 C341 1.385 . S
C338 H319 0.951 . S
C338 C336 1.388 . S
C338 C339 1.366 . S
C339 C338 1.366 . S
C339 C340 1.414 . S
C339 C342 1.499 . S
C340 H320 0.950 . S
C340 C339 1.414 . S
C340 C341 1.374 . S
C341 H321 0.950 . S
C341 C337 1.385 . S
C341 C340 1.374 . S
C342 C339 1.499 . S
C342 C343 1.373 . S
C342 C344 1.373 1_655 S
C343 H322 0.950 . S
C343 C342 1.373 . S
C343 C359 1.397 . S
C344 C342 1.373 1_455 S
C344 C345 1.521 . S
C344 C358 1.397 . S
C345 C344 1.521 . S
C345 C346 1.397 1_455 S
C345 C350 1.363 . S
C346 H323 0.950 . S
C346 C345 1.397 1_655 S
C346 C347 1.334 . S
C347 H324 0.950 . S
C347 C346 1.334 . S
C347 C348 1.287 1_655 S
C348 C347 1.287 1_455 S
C348 C349 1.524 . S
C348 H367 0.913 . S
C349 H325 0.950 . S
C349 C348 1.524 . S
C349 C350 1.415 . S
C350 H326 0.950 . S
C350 C345 1.363 . S
C350 C349 1.415 . S
C351 H327 0.951 . S
C351 C352 1.366 . S
C351 C353 1.388 . S
C352 C351 1.366 . S
C352 C356 1.385 . S
C353 H328 0.951 . S
C353 C351 1.388 . S
C353 C354 1.366 . S
C354 C353 1.366 . S
C354 C355 1.414 . S
C354 C357 1.499 . S
C355 H329 0.950 . S
C355 C354 1.414 . S
C355 C356 1.374 . S
C356 H330 0.950 . S
C356 C352 1.385 . S
C356 C355 1.374 . S
C357 C354 1.499 . S
C357 C358 1.373 . S
C357 C359 1.373 1_455 S
C358 H331 0.950 . S
C358 C344 1.397 . S
C358 C357 1.373 . S
C359 C343 1.397 . S
C359 C357 1.373 1_655 S
C359 C360 1.521 . S
C360 C359 1.521 . S
C360 C361 1.397 1_655 S
C360 C365 1.363 . S
C361 H332 0.950 . S
C361 C360 1.397 1_455 S
C361 C362 1.334 . S
C362 H333 0.950 . S
C362 C361 1.334 . S
C362 C363 1.287 1_455 S
C363 C362 1.287 1_655 S
C363 C364 1.524 . S
C363 H366 0.999 . S
C364 H334 0.950 . S
C364 C363 1.524 . S
C364 C365 1.415 . S
C365 H335 0.950 . S
C365 C360 1.363 . S
C365 C364 1.415 . S
H366 C363 0.999 . S
H367 C348 0.913 . S
H368 C386 0.951 . S
H369 C388 0.951 . S
H370 C390 0.950 . S
H371 C391 0.950 . S
H372 C393 0.950 . S
H373 C396 0.950 . S
H374 C397 0.950 . S
H375 C399 0.950 . S
H376 C400 0.950 . S
H377 C401 0.951 . S
H378 C403 0.951 . S
H379 C405 0.950 . S
H380 C406 0.950 . S
H381 C408 0.950 . S
H382 C411 0.950 . S
H383 C412 0.950 . S
H384 C414 0.950 . S
H385 C415 0.950 . S
C386 H368 0.951 . S
C386 C387 1.366 . S
C386 C388 1.388 . S
C387 C386 1.366 . S
C387 C391 1.385 . S
C388 H369 0.951 . S
C388 C386 1.388 . S
C388 C389 1.366 . S
C389 C388 1.366 . S
C389 C390 1.414 . S
C389 C392 1.499 . S
C390 H370 0.950 . S
C390 C389 1.414 . S
C390 C391 1.374 . S
C391 H371 0.950 . S
C391 C387 1.385 . S
C391 C390 1.374 . S
C392 C389 1.499 . S
C392 C393 1.373 . S
C392 C394 1.389 1_545 S
C393 H372 0.950 . S
C393 C392 1.373 . S
C393 C409 1.377 . S
C394 C392 1.389 1_565 S
C394 C395 1.524 . S
C394 C408 1.377 . S
C395 C394 1.524 . S
C395 C396 1.397 1_565 S
C395 C400 1.363 . S
C396 H373 0.950 . S
C396 C395 1.397 1_545 S
C396 C397 1.334 . S
C397 H374 0.950 . S
C397 C396 1.334 . S
C397 C398 1.287 1_545 S
C398 C397 1.287 1_565 S
C398 C399 1.524 . S
C398 H417 0.913 . S
C399 H375 0.950 . S
C399 C398 1.524 . S
C399 C400 1.415 . S
C400 H376 0.950 . S
C400 C395 1.363 . S
C400 C399 1.415 . S
C401 H377 0.951 . S
C401 C402 1.366 . S
C401 C403 1.388 . S
C402 C401 1.366 . S
C402 C406 1.385 . S
C403 H378 0.951 . S
C403 C401 1.388 . S
C403 C404 1.366 . S
C404 C403 1.366 . S
C404 C405 1.414 . S
C404 C407 1.499 . S
C405 H379 0.950 . S
C405 C404 1.414 . S
C405 C406 1.374 . S
C406 H380 0.950 . S
C406 C402 1.385 . S
C406 C405 1.374 . S
C407 C404 1.499 . S
C407 C408 1.373 . S
C407 C409 1.389 1_565 S
C408 H381 0.950 . S
C408 C394 1.377 . S
C408 C407 1.373 . S
C409 C393 1.377 . S
C409 C407 1.389 1_545 S
C409 C410 1.524 . S
C410 C409 1.524 . S
C410 C411 1.397 1_545 S
C410 C415 1.363 . S
C411 H382 0.950 . S
C411 C410 1.397 1_565 S
C411 C412 1.334 . S
C412 H383 0.950 . S
C412 C411 1.334 . S
C412 C413 1.287 1_565 S
C413 C412 1.287 1_545 S
C413 C414 1.524 . S
C413 H416 0.999 . S
C414 H384 0.950 . S
C414 C413 1.524 . S
C414 C415 1.415 . S
C415 H385 0.950 . S
C415 C410 1.363 . S
C415 C414 1.415 . S
H416 C413 0.999 . S
H417 C398 0.913 . S
H418 C436 0.951 . S
H419 C438 0.951 . S
H420 C440 0.950 . S
H421 C441 0.950 . S
H422 C443 0.950 . S
H423 C446 0.950 . S
H424 C447 0.950 . S
H425 C449 0.950 . S
H426 C450 0.950 . S
H427 C451 0.951 . S
H428 C453 0.951 . S
H429 C455 0.950 . S
H430 C456 0.950 . S
H431 C458 0.950 . S
H432 C461 0.950 . S
H433 C462 0.950 . S
H434 C464 0.950 . S
H435 C465 0.950 . S
C436 H418 0.951 . S
C436 C437 1.366 . S
C436 C438 1.388 . S
C437 C436 1.366 . S
C437 C441 1.385 . S
C438 H419 0.951 . S
C438 C436 1.388 . S
C438 C439 1.366 . S
C439 C438 1.366 . S
C439 C440 1.414 . S
C439 C442 1.499 . S
C440 H420 0.950 . S
C440 C439 1.414 . S
C440 C441 1.374 . S
C441 H421 0.950 . S
C441 C437 1.385 . S
C441 C440 1.374 . S
C442 C439 1.499 . S
C442 C443 1.373 . S
C442 C444 1.389 . S
C443 H422 0.950 . S
C443 C442 1.373 . S
C443 C459 1.377 . S
C444 C442 1.389 . S
C444 C445 1.524 . S
C444 C458 1.377 . S
C445 C444 1.524 . S
C445 C446 1.397 . S
C445 C450 1.363 . S
C446 H423 0.950 . S
C446 C445 1.397 . S
C446 C447 1.334 . S
C447 H424 0.950 . S
C447 C446 1.334 . S
C447 C448 1.287 . S
C448 C447 1.287 . S
C448 C449 1.524 . S
C448 H467 0.913 . S
C449 H425 0.950 . S
C449 C448 1.524 . S
C449 C450 1.415 . S
C450 H426 0.950 . S
C450 C445 1.363 . S
C450 C449 1.415 . S
C451 H427 0.951 . S
C451 C452 1.366 . S
C451 C453 1.388 . S
C452 C451 1.366 . S
C452 C456 1.385 . S
C453 H428 0.951 . S
C453 C451 1.388 . S
C453 C454 1.366 . S
C454 C453 1.366 . S
C454 C455 1.414 . S
C454 C457 1.499 . S
C455 H429 0.950 . S
C455 C454 1.414 . S
C455 C456 1.374 . S
C456 H430 0.950 . S
C456 C452 1.385 . S
C456 C455 1.374 . S
C457 C454 1.499 . S
C457 C458 1.373 . S
C457 C459 1.389 . S
C458 H431 0.950 . S
C458 C444 1.377 . S
C458 C457 1.373 . S
C459 C443 1.377 . S
C459 C457 1.389 . S
C459 C460 1.524 . S
C460 C459 1.524 . S
C460 C461 1.397 . S
C460 C465 1.363 . S
C461 H432 0.950 . S
C461 C460 1.397 . S
C461 C462 1.334 . S
C462 H433 0.950 . S
C462 C461 1.334 . S
C462 C463 1.287 . S
C463 C462 1.287 . S
C463 C464 1.524 . S
C463 H466 0.999 . S
C464 H434 0.950 . S
C464 C463 1.524 . S
C464 C465 1.415 . S
C465 H435 0.950 . S
C465 C460 1.363 . S
C465 C464 1.415 . S
H466 C463 0.999 . S
H467 C448 0.913 . S
H468 C486 0.951 . S
H469 C488 0.951 . S
H470 C490 0.950 . S
H471 C491 0.950 . S
H472 C493 0.950 . S
H473 C496 0.950 . S
H474 C497 0.950 . S
H475 C499 0.950 . S
H476 C500 0.950 . S
H477 C501 0.951 . S
H478 C503 0.951 . S
H479 C505 0.950 . S
H480 C506 0.950 . S
H481 C508 0.950 . S
H482 C511 0.950 . S
H483 C512 0.950 . S
H484 C514 0.950 . S
H485 C515 0.950 . S
C486 H468 0.951 . S
C486 C487 1.366 . S
C486 C488 1.388 . S
C487 C486 1.366 . S
C487 C491 1.385 . S
C488 H469 0.951 . S
C488 C486 1.388 . S
C488 C489 1.366 . S
C489 C488 1.366 . S
C489 C490 1.414 . S
C489 C492 1.499 . S
C490 H470 0.950 . S
C490 C489 1.414 . S
C490 C491 1.374 . S
C491 H471 0.950 . S
C491 C487 1.385 . S
C491 C490 1.374 . S
C492 C489 1.499 . S
C492 C493 1.373 . S
C492 C494 1.389 . S
C493 H472 0.950 . S
C493 C492 1.373 . S
C493 C509 1.377 . S
C494 C492 1.389 . S
C494 C495 1.524 . S
C494 C508 1.377 . S
C495 C494 1.524 . S
C495 C496 1.397 . S
C495 C500 1.363 . S
C496 H473 0.950 . S
C496 C495 1.397 . S
C496 C497 1.334 . S
C497 H474 0.950 . S
C497 C496 1.334 . S
C497 C498 1.287 . S
C498 C497 1.287 . S
C498 C499 1.524 . S
C498 H517 0.913 . S
C499 H475 0.950 . S
C499 C498 1.524 . S
C499 C500 1.415 . S
C500 H476 0.950 . S
C500 C495 1.363 . S
C500 C499 1.415 . S
C501 H477 0.951 . S
C501 C502 1.366 . S
C501 C503 1.388 . S
C502 C501 1.366 . S
C502 C506 1.385 . S
C503 H478 0.951 . S
C503 C501 1.388 . S
C503 C504 1.366 . S
C504 C503 1.366 . S
C504 C505 1.414 . S
C504 C507 1.499 . S
C505 H479 0.950 . S
C505 C504 1.414 . S
C505 C506 1.374 . S
C506 H480 0.950 . S
C506 C502 1.385 . S
C506 C505 1.374 . S
C507 C504 1.499 . S
C507 C508 1.373 . S
C507 C509 1.389 . S
C508 H481 0.950 . S
C508 C494 1.377 . S
C508 C507 1.373 . S
C509 C493 1.377 . S
C509 C507 1.389 . S
C509 C510 1.524 . S
C510 C509 1.524 . S
C510 C511 1.397 . S
C510 C515 1.363 . S
C511 H482 0.950 . S
C511 C510 1.397 . S
C511 C512 1.334 . S
C512 H483 0.950 . S
C512 C511 1.334 . S
C512 C513 1.287 . S
C513 C512 1.287 . S
C513 C514 1.524 . S
C513 H516 0.999 . S
C514 H484 0.950 . S
C514 C513 1.524 . S
C514 C515 1.415 . S
C515 H485 0.950 . S
C515 C510 1.363 . S
C515 C514 1.415 . S
H516 C513 0.999 . S
H517 C498 0.913 . S
H518 C536 0.951 . S
H519 C538 0.951 . S
H520 C540 0.950 . S
H521 C541 0.950 . S
H522 C543 0.950 . S
H523 C546 0.950 1_455 S
H524 C547 0.950 . S
H525 C549 0.950 . S
H526 C550 0.950 . S
H527 C551 0.951 . S
H528 C553 0.951 . S
H529 C555 0.950 . S
H530 C556 0.950 . S
H531 C558 0.950 . S
H532 C561 0.950 1_655 S
H533 C562 0.950 . S
H534 C564 0.950 . S
H535 C565 0.950 . S
C536 H518 0.951 . S
C536 C537 1.366 1_655 S
C536 C538 1.388 . S
C537 C536 1.366 1_455 S
C537 C541 1.385 . S
C538 H519 0.951 . S
C538 C536 1.388 . S
C538 C539 1.366 1_655 S
C539 C538 1.366 1_455 S
C539 C540 1.414 . S
C539 C542 1.499 . S
C540 H520 0.950 . S
C540 C539 1.414 . S
C540 C541 1.374 . S
C541 H521 0.950 . S
C541 C537 1.385 . S
C541 C540 1.374 . S
C542 C539 1.499 . S
C542 C543 1.373 . S
C542 C544 1.389 1_455 S
C543 H522 0.950 . S
C543 C542 1.373 . S
C543 C559 1.377 . S
C544 C542 1.389 1_655 S
C544 C545 1.524 . S
C544 C558 1.377 . S
C545 C544 1.524 . S
C545 C546 1.397 . S
C545 C550 1.363 . S
C546 H523 0.950 1_655 S
C546 C545 1.397 . S
C546 C547 1.334 . S
C547 H524 0.950 . S
C547 C546 1.334 . S
C547 C548 1.287 . S
C548 C547 1.287 . S
C548 C549 1.524 . S
C548 H567 0.913 . S
C549 H525 0.950 . S
C549 C548 1.524 . S
C549 C550 1.415 . S
C550 H526 0.950 . S
C550 C545 1.363 . S
C550 C549 1.415 . S
C551 H527 0.951 . S
C551 C552 1.366 1_455 S
C551 C553 1.388 . S
C552 C551 1.366 1_655 S
C552 C556 1.385 . S
C553 H528 0.951 . S
C553 C551 1.388 . S
C553 C554 1.366 1_455 S
C554 C553 1.366 1_655 S
C554 C555 1.414 . S
C554 C557 1.499 . S
C555 H529 0.950 . S
C555 C554 1.414 . S
C555 C556 1.374 . S
C556 H530 0.950 . S
C556 C552 1.385 . S
C556 C555 1.374 . S
C557 C554 1.499 . S
C557 C558 1.373 . S
C557 C559 1.389 1_655 S
C558 H531 0.950 . S
C558 C544 1.377 . S
C558 C557 1.373 . S
C559 C543 1.377 . S
C559 C557 1.389 1_455 S
C559 C560 1.524 . S
C560 C559 1.524 . S
C560 C561 1.397 . S
C560 C565 1.363 . S
C561 H532 0.950 1_455 S
C561 C560 1.397 . S
C561 C562 1.334 . S
C562 H533 0.950 . S
C562 C561 1.334 . S
C562 C563 1.287 . S
C563 C562 1.287 . S
C563 C564 1.524 . S
C563 H566 0.999 . S
C564 H534 0.950 . S
C564 C563 1.524 . S
C564 C565 1.415 . S
C565 H535 0.950 . S
C565 C560 1.363 . S
C565 C564 1.415 . S
H566 C563 0.999 . S
H567 C548 0.913 . S
H568 C586 0.951 . S
H569 C588 0.951 . S
H570 C590 0.950 . S
H571 C591 0.950 . S
H572 C593 0.950 . S
H573 C596 0.950 . S
H574 C597 0.950 . S
H575 C599 0.950 . S
H576 C600 0.950 . S
H577 C601 0.951 . S
H578 C603 0.951 . S
H579 C605 0.950 . S
H580 C606 0.950 . S
H581 C608 0.950 . S
H582 C611 0.950 . S
H583 C612 0.950 . S
H584 C614 0.950 . S
H585 C615 0.950 . S
C586 H568 0.951 . S
C586 C587 1.366 . S
C586 C588 1.388 . S
C587 C586 1.366 . S
C587 C591 1.385 1_545 S
C588 H569 0.951 . S
C588 C586 1.388 . S
C588 C589 1.366 . S
C589 C588 1.366 . S
C589 C590 1.414 1_545 S
C589 C592 1.499 . S
C590 H570 0.950 . S
C590 C589 1.414 1_565 S
C590 C591 1.374 . S
C591 H571 0.950 . S
C591 C587 1.385 1_565 S
C591 C590 1.374 . S
C592 C589 1.499 . S
C592 C593 1.373 1_545 S
C592 C594 1.389 . S
C593 H572 0.950 . S
C593 C592 1.373 1_565 S
C593 C609 1.377 . S
C594 C592 1.389 . S
C594 C595 1.524 . S
C594 C608 1.377 . S
C595 C594 1.524 . S
C595 C596 1.397 . S
C595 C600 1.363 . S
C596 H573 0.950 . S
C596 C595 1.397 . S
C596 C597 1.334 . S
C597 H574 0.950 . S
C597 C596 1.334 . S
C597 C598 1.287 . S
C598 C597 1.287 . S
C598 C599 1.524 . S
C598 H617 0.913 . S
C599 H575 0.950 . S
C599 C598 1.524 . S
C599 C600 1.415 . S
C600 H576 0.950 . S
C600 C595 1.363 . S
C600 C599 1.415 . S
C601 H577 0.951 . S
C601 C602 1.366 . S
C601 C603 1.388 . S
C602 C601 1.366 . S
C602 C606 1.385 1_565 S
C603 H578 0.951 . S
C603 C601 1.388 . S
C603 C604 1.366 . S
C604 C603 1.366 . S
C604 C605 1.414 1_565 S
C604 C607 1.499 . S
C605 H579 0.950 . S
C605 C604 1.414 1_545 S
C605 C606 1.374 . S
C606 H580 0.950 . S
C606 C602 1.385 1_545 S
C606 C605 1.374 . S
C607 C604 1.499 . S
C607 C608 1.373 1_565 S
C607 C609 1.389 . S
C608 H581 0.950 . S
C608 C594 1.377 . S
C608 C607 1.373 1_545 S
C609 C593 1.377 . S
C609 C607 1.389 . S
C609 C610 1.524 . S
C610 C609 1.524 . S
C610 C611 1.397 . S
C610 C615 1.363 . S
C611 H582 0.950 . S
C611 C610 1.397 . S
C611 C612 1.334 . S
C612 H583 0.950 . S
C612 C611 1.334 . S
C612 C613 1.287 . S
C613 C612 1.287 . S
C613 C614 1.524 . S
C613 H616 0.999 . S
C614 H584 0.950 . S
C614 C613 1.524 . S
C614 C615 1.415 . S
C615 H585 0.950 . S
C615 C610 1.363 . S
C615 C614 1.415 . S
H616 C613 0.999 . S
H617 C598 0.913 . S
H618 C636 0.951 . S
H619 C638 0.951 . S
H620 C640 0.950 . S
H621 C641 0.950 . S
H622 C643 0.950 . S
H623 C646 0.950 . S
H624 C647 0.950 . S
H625 C649 0.950 . S
H626 C650 0.950 . S
H627 C651 0.951 . S
H628 C653 0.951 . S
H629 C655 0.950 . S
H630 C656 0.950 . S
H631 C658 0.950 . S
H632 C661 0.950 . S
H633 C662 0.950 . S
H634 C664 0.950 . S
H635 C665 0.950 . S
C636 H618 0.951 . S
C636 C637 1.366 . S
C636 C638 1.388 . S
C637 C636 1.366 . S
C637 C641 1.385 . S
C638 H619 0.951 . S
C638 C636 1.388 . S
C638 C639 1.366 . S
C639 C638 1.366 . S
C639 C640 1.414 . S
C639 C642 1.499 . S
C640 H620 0.950 . S
C640 C639 1.414 . S
C640 C641 1.374 . S
C641 H621 0.950 . S
C641 C637 1.385 . S
C641 C640 1.374 . S
C642 C639 1.499 . S
C642 C643 1.373 . S
C642 C644 1.389 . S
C643 H622 0.950 . S
C643 C642 1.373 . S
C643 C659 1.377 . S
C644 C642 1.389 . S
C644 C645 1.524 . S
C644 C658 1.377 . S
C645 C644 1.524 . S
C645 C646 1.397 . S
C645 C650 1.363 . S
C646 H623 0.950 . S
C646 C645 1.397 . S
C646 C647 1.334 . S
C647 H624 0.950 . S
C647 C646 1.334 . S
C647 C648 1.287 . S
C648 C647 1.287 . S
C648 C649 1.524 . S
C648 H667 0.913 . S
C649 H625 0.950 . S
C649 C648 1.524 . S
C649 C650 1.415 . S
C650 H626 0.950 . S
C650 C645 1.363 . S
C650 C649 1.415 . S
C651 H627 0.951 . S
C651 C652 1.366 . S
C651 C653 1.388 . S
C652 C651 1.366 . S
C652 C656 1.385 . S
C653 H628 0.951 . S
C653 C651 1.388 . S
C653 C654 1.366 . S
C654 C653 1.366 . S
C654 C655 1.414 . S
C654 C657 1.499 . S
C655 H629 0.950 . S
C655 C654 1.414 . S
C655 C656 1.374 . S
C656 H630 0.950 . S
C656 C652 1.385 . S
C656 C655 1.374 . S
C657 C654 1.499 . S
C657 C658 1.373 . S
C657 C659 1.389 . S
C658 H631 0.950 . S
C658 C644 1.377 . S
C658 C657 1.373 . S
C659 C643 1.377 . S
C659 C657 1.389 . S
C659 C660 1.524 . S
C660 C659 1.524 . S
C660 C661 1.397 . S
C660 C665 1.363 . S
C661 H632 0.950 . S
C661 C660 1.397 . S
C661 C662 1.334 . S
C662 H633 0.950 . S
C662 C661 1.334 . S
C662 C663 1.287 . S
C663 C662 1.287 . S
C663 C664 1.524 . S
C663 H666 0.999 . S
C664 H634 0.950 . S
C664 C663 1.524 . S
C664 C665 1.415 . S
C665 H635 0.950 . S
C665 C660 1.363 . S
C665 C664 1.415 . S
H666 C663 0.999 . S
H667 C648 0.913 . S
H668 C686 0.951 . S
H669 C688 0.951 . S
H670 C690 0.950 . S
H671 C691 0.952 . S
H672 C693 0.950 . S
H673 C696 0.950 . S
H674 C697 0.950 . S
H675 C699 0.950 . S
H676 C700 0.950 . S
H677 C701 0.951 . S
H678 C703 0.951 . S
H679 C705 0.950 . S
H680 C706 0.952 . S
H681 C708 0.950 . S
H682 C711 0.950 . S
H683 C712 0.950 . S
H684 C714 0.950 . S
H685 C715 0.950 . S
C686 H668 0.951 . S
C686 C687 1.366 . S
C686 C688 1.388 . S
C687 C686 1.366 . S
C687 C691 1.373 1_655 S
C688 H669 0.951 . S
C688 C686 1.388 . S
C688 C689 1.366 . S
C689 C688 1.366 . S
C689 C690 1.414 1_655 S
C689 C692 1.499 . S
C690 H670 0.950 . S
C690 C689 1.414 1_455 S
C690 C691 1.383 . S
C691 H671 0.952 . S
C691 C687 1.373 1_455 S
C691 C690 1.383 . S
C692 C689 1.499 . S
C692 C693 1.373 1_655 S
C692 C694 1.389 . S
C693 H672 0.950 . S
C693 C692 1.373 1_455 S
C693 C709 1.377 . S
C694 C692 1.389 . S
C694 C695 1.524 . S
C694 C708 1.377 . S
C695 C694 1.524 . S
C695 C696 1.397 . S
C695 C700 1.363 . S
C696 H673 0.950 . S
C696 C695 1.397 . S
C696 C697 1.334 . S
C697 H674 0.950 . S
C697 C696 1.334 . S
C697 C698 1.287 . S
C698 C697 1.287 . S
C698 C699 1.524 . S
C698 H717 0.913 . S
C699 H675 0.950 . S
C699 C698 1.524 . S
C699 C700 1.415 . S
C700 H676 0.950 . S
C700 C695 1.363 . S
C700 C699 1.415 . S
C701 H677 0.951 . S
C701 C702 1.366 . S
C701 C703 1.388 . S
C702 C701 1.366 . S
C702 C706 1.373 1_455 S
C703 H678 0.951 . S
C703 C701 1.388 . S
C703 C704 1.366 . S
C704 C703 1.366 . S
C704 C705 1.414 1_455 S
C704 C707 1.499 . S
C705 H679 0.950 . S
C705 C704 1.414 1_655 S
C705 C706 1.383 . S
C706 H680 0.952 . S
C706 C702 1.373 1_655 S
C706 C705 1.383 . S
C707 C704 1.499 . S
C707 C708 1.373 1_455 S
C707 C709 1.389 . S
C708 H681 0.950 . S
C708 C694 1.377 . S
C708 C707 1.373 1_655 S
C709 C693 1.377 . S
C709 C707 1.389 . S
C709 C710 1.524 . S
C710 C709 1.524 . S
C710 C711 1.397 . S
C710 C715 1.363 . S
C711 H682 0.950 . S
C711 C710 1.397 . S
C711 C712 1.334 . S
C712 H683 0.950 . S
C712 C711 1.334 . S
C712 C713 1.287 . S
C713 C712 1.287 . S
C713 C714 1.524 . S
C713 H716 0.999 . S
C714 H684 0.950 . S
C714 C713 1.524 . S
C714 C715 1.415 . S
C715 H685 0.950 . S
C715 C710 1.363 . S
C715 C714 1.415 . S
H716 C713 0.999 . S
H717 C698 0.913 . S
H718 C736 0.951 . S
H719 C738 0.951 . S
H720 C740 0.950 . S
H721 C741 0.950 . S
H722 C743 0.950 . S
H723 C746 0.950 . S
H724 C747 0.950 . S
H725 C749 0.950 . S
H726 C750 0.950 . S
H727 C751 0.951 . S
H728 C753 0.951 . S
H729 C755 0.950 . S
H730 C756 0.950 . S
H731 C758 0.950 . S
H732 C761 0.950 . S
H733 C762 0.950 . S
H734 C764 0.950 . S
H735 C765 0.950 . S
C736 H718 0.951 . S
C736 C737 1.366 1_545 S
C736 C738 1.388 . S
C737 C736 1.366 1_565 S
C737 C741 1.385 . S
C738 H719 0.951 . S
C738 C736 1.388 . S
C738 C739 1.366 1_545 S
C739 C738 1.366 1_565 S
C739 C740 1.414 . S
C739 C742 1.499 . S
C740 H720 0.950 . S
C740 C739 1.414 . S
C740 C741 1.374 . S
C741 H721 0.950 . S
C741 C737 1.385 . S
C741 C740 1.374 . S
C742 C739 1.499 . S
C742 C743 1.373 . S
C742 C744 1.389 1_565 S
C743 H722 0.950 . S
C743 C742 1.373 . S
C743 C759 1.377 . S
C744 C742 1.389 1_545 S
C744 C745 1.524 . S
C744 C758 1.377 . S
C745 C744 1.524 . S
C745 C746 1.397 . S
C745 C750 1.363 . S
C746 H723 0.950 . S
C746 C745 1.397 . S
C746 C747 1.334 . S
C747 H724 0.950 . S
C747 C746 1.334 . S
C747 C748 1.287 . S
C748 C747 1.287 . S
C748 C749 1.524 . S
C748 H767 0.913 . S
C749 H725 0.950 . S
C749 C748 1.524 . S
C749 C750 1.415 . S
C750 H726 0.950 . S
C750 C745 1.363 . S
C750 C749 1.415 . S
C751 H727 0.951 . S
C751 C752 1.366 1_565 S
C751 C753 1.388 . S
C752 C751 1.366 1_545 S
C752 C756 1.385 . S
C753 H728 0.951 . S
C753 C751 1.388 . S
C753 C754 1.366 1_565 S
C754 C753 1.366 1_545 S
C754 C755 1.414 . S
C754 C757 1.499 . S
C755 H729 0.950 . S
C755 C754 1.414 . S
C755 C756 1.374 . S
C756 H730 0.950 . S
C756 C752 1.385 . S
C756 C755 1.374 . S
C757 C754 1.499 . S
C757 C758 1.373 . S
C757 C759 1.389 1_545 S
C758 H731 0.950 . S
C758 C744 1.377 . S
C758 C757 1.373 . S
C759 C743 1.377 . S
C759 C757 1.389 1_565 S
C759 C760 1.524 . S
C760 C759 1.524 . S
C760 C761 1.397 . S
C760 C765 1.363 . S
C761 H732 0.950 . S
C761 C760 1.397 . S
C761 C762 1.334 . S
C762 H733 0.950 . S
C762 C761 1.334 . S
C762 C763 1.287 . S
C763 C762 1.287 . S
C763 C764 1.524 . S
C763 H766 0.999 . S
C764 H734 0.950 . S
C764 C763 1.524 . S
C764 C765 1.415 . S
C765 H735 0.950 . S
C765 C760 1.363 . S
C765 C764 1.415 . S
H766 C763 0.999 . S
H767 C748 0.913 . S
H768 C786 0.951 . S
H769 C788 0.951 . S
H770 C790 0.950 . S
H771 C791 0.950 . S
H772 C793 0.950 . S
H773 C796 0.950 . S
H774 C797 0.950 1_565 S
H775 C799 0.950 . S
H776 C800 0.950 . S
H777 C801 0.951 . S
H778 C803 0.951 . S
H779 C805 0.950 . S
H780 C806 0.950 . S
H781 C808 0.950 . S
H782 C811 0.950 . S
H783 C812 0.950 . S
H784 C814 0.950 . S
H785 C815 0.950 . S
C786 H768 0.951 . S
C786 C787 1.366 . S
C786 C788 1.388 . S
C787 C786 1.366 . S
C787 C791 1.385 . S
C788 H769 0.951 . S
C788 C786 1.388 . S
C788 C789 1.366 . S
C789 C788 1.366 . S
C789 C790 1.414 . S
C789 C792 1.499 . S
C790 H770 0.950 . S
C790 C789 1.414 . S
C790 C791 1.374 . S
C791 H771 0.950 . S
C791 C787 1.385 . S
C791 C790 1.374 . S
C792 C789 1.499 . S
C792 C793 1.373 . S
C792 C794 1.389 . S
C793 H772 0.950 . S
C793 C792 1.373 . S
C793 C809 1.377 . S
C794 C792 1.389 . S
C794 C795 1.524 . S
C794 C808 1.377 . S
C795 C794 1.524 . S
C795 C796 1.397 . S
C795 C800 1.363 . S
C796 H773 0.950 . S
C796 C795 1.397 . S
C796 C797 1.334 . S
C797 H774 0.950 1_545 S
C797 C796 1.334 . S
C797 C798 1.287 . S
C798 C797 1.287 . S
C798 C799 1.524 . S
C798 H817 0.913 1_545 S
C799 H775 0.950 . S
C799 C798 1.524 . S
C799 C800 1.415 . S
C800 H776 0.950 . S
C800 C795 1.363 . S
C800 C799 1.415 . S
C801 H777 0.951 . S
C801 C802 1.366 . S
C801 C803 1.388 . S
C802 C801 1.366 . S
C802 C806 1.385 . S
C803 H778 0.951 . S
C803 C801 1.388 . S
C803 C804 1.366 . S
C804 C803 1.366 . S
C804 C805 1.414 . S
C804 C807 1.499 . S
C805 H779 0.950 . S
C805 C804 1.414 . S
C805 C806 1.374 . S
C806 H780 0.950 . S
C806 C802 1.385 . S
C806 C805 1.374 . S
C807 C804 1.499 . S
C807 C808 1.373 . S
C807 C809 1.389 . S
C808 H781 0.950 . S
C808 C794 1.377 . S
C808 C807 1.373 . S
C809 C793 1.377 . S
C809 C807 1.389 . S
C809 C810 1.524 . S
C810 C809 1.524 . S
C810 C811 1.397 . S
C810 C815 1.363 . S
C811 H782 0.950 . S
C811 C810 1.397 . S
C811 C812 1.334 . S
C812 H783 0.950 . S
C812 C811 1.334 . S
C812 C813 1.287 . S
C813 C812 1.287 . S
C813 C814 1.524 . S
C813 H816 0.999 . S
C814 H784 0.950 . S
C814 C813 1.524 . S
C814 C815 1.415 . S
C815 H785 0.950 . S
C815 C810 1.363 . S
C815 C814 1.415 . S
H816 C813 0.999 . S
H817 C798 0.913 1_565 S
H818 C836 0.951 . S
H819 C838 0.951 . S
H820 C840 0.950 . S
H821 C841 0.950 . S
H822 C843 0.950 . S
H823 C846 0.950 . S
H824 C847 0.950 1_655 S
H825 C849 0.950 . S
H826 C850 0.950 . S
H827 C851 0.951 . S
H828 C853 0.951 . S
H829 C855 0.950 . S
H830 C856 0.950 . S
H831 C858 0.950 . S
H832 C861 0.950 . S
H833 C862 0.950 . S
H834 C864 0.950 . S
H835 C865 0.950 . S
C836 H818 0.951 . S
C836 C837 1.366 . S
C836 C838 1.388 . S
C837 C836 1.366 . S
C837 C841 1.385 . S
C838 H819 0.951 . S
C838 C836 1.388 . S
C838 C839 1.366 . S
C839 C838 1.366 . S
C839 C840 1.414 . S
C839 C842 1.499 . S
C840 H820 0.950 . S
C840 C839 1.414 . S
C840 C841 1.374 . S
C841 H821 0.950 . S
C841 C837 1.385 . S
C841 C840 1.374 . S
C842 C839 1.499 . S
C842 C843 1.373 . S
C842 C844 1.389 . S
C843 H822 0.950 . S
C843 C842 1.373 . S
C843 C859 1.377 . S
C844 C842 1.389 . S
C844 C845 1.524 . S
C844 C858 1.377 . S
C845 C844 1.524 . S
C845 C846 1.397 . S
C845 C850 1.363 . S
C846 H823 0.950 . S
C846 C845 1.397 . S
C846 C847 1.334 . S
C847 H824 0.950 1_455 S
C847 C846 1.334 . S
C847 C848 1.287 . S
C848 C847 1.287 . S
C848 C849 1.524 . S
C848 H867 0.913 1_455 S
C849 H825 0.950 . S
C849 C848 1.524 . S
C849 C850 1.415 . S
C850 H826 0.950 . S
C850 C845 1.363 . S
C850 C849 1.415 . S
C851 H827 0.951 . S
C851 C852 1.366 . S
C851 C853 1.388 . S
C852 C851 1.366 . S
C852 C856 1.385 . S
C853 H828 0.951 . S
C853 C851 1.388 . S
C853 C854 1.366 . S
C854 C853 1.366 . S
C854 C855 1.414 . S
C854 C857 1.499 . S
C855 H829 0.950 . S
C855 C854 1.414 . S
C855 C856 1.374 . S
C856 H830 0.950 . S
C856 C852 1.385 . S
C856 C855 1.374 . S
C857 C854 1.499 . S
C857 C858 1.373 . S
C857 C859 1.389 . S
C858 H831 0.950 . S
C858 C844 1.377 . S
C858 C857 1.373 . S
C859 C843 1.377 . S
C859 C857 1.389 . S
C859 C860 1.524 . S
C860 C859 1.524 . S
C860 C861 1.397 . S
C860 C865 1.363 . S
C861 H832 0.950 . S
C861 C860 1.397 . S
C861 C862 1.334 . S
C862 H833 0.950 . S
C862 C861 1.334 . S
C862 C863 1.287 . S
C863 C862 1.287 . S
C863 C864 1.524 . S
C863 H866 0.999 . S
C864 H834 0.950 . S
C864 C863 1.524 . S
C864 C865 1.415 . S
C865 H835 0.950 . S
C865 C860 1.363 . S
C865 C864 1.415 . S
H866 C863 0.999 . S
H867 C848 0.913 1_655 S
H868 C886 0.951 1_455 S
H869 C888 0.951 . S
H870 C890 0.950 . S
H871 C891 0.950 . S
H872 C893 0.950 . S
H873 C896 0.950 . S
H874 C897 0.950 . S
H875 C899 0.950 . S
H876 C900 0.950 . S
H877 C901 0.951 . S
H878 C903 0.951 . S
H879 C905 0.950 . S
H880 C906 0.950 1_565 S
H881 C908 0.950 . S
H882 C911 0.950 . S
H883 C912 0.950 . S
H884 C914 0.950 . S
H885 C915 0.950 . S
C886 H868 0.951 1_655 S
C886 C887 1.366 . S
C886 C888 1.388 . S
C887 C886 1.366 . S
C887 C891 1.385 . S
C888 H869 0.951 . S
C888 C886 1.388 . S
C888 C889 1.366 . S
C889 C888 1.366 . S
C889 C890 1.414 . S
C889 C892 1.499 . S
C890 H870 0.950 . S
C890 C889 1.414 . S
C890 C891 1.374 . S
C891 H871 0.950 . S
C891 C887 1.385 . S
C891 C890 1.374 . S
C892 C889 1.499 . S
C892 C893 1.373 . S
C892 C894 1.389 . S
C893 H872 0.950 . S
C893 C892 1.373 . S
C893 C909 1.377 . S
C894 C892 1.389 . S
C894 C895 1.524 . S
C894 C908 1.377 . S
C895 C894 1.524 . S
C895 C896 1.397 . S
C895 C900 1.363 . S
C896 H873 0.950 . S
C896 C895 1.397 . S
C896 C897 1.334 . S
C897 H874 0.950 . S
C897 C896 1.334 . S
C897 C898 1.287 . S
C898 C897 1.287 . S
C898 C899 1.524 . S
C898 H917 0.913 . S
C899 H875 0.950 . S
C899 C898 1.524 . S
C899 C900 1.415 . S
C900 H876 0.950 . S
C900 C895 1.363 . S
C900 C899 1.415 . S
C901 H877 0.951 . S
C901 C902 1.366 . S
C901 C903 1.388 . S
C902 C901 1.366 . S
C902 C906 1.385 . S
C903 H878 0.951 . S
C903 C901 1.388 . S
C903 C904 1.366 . S
C904 C903 1.366 . S
C904 C905 1.414 . S
C904 C907 1.499 . S
C905 H879 0.950 . S
C905 C904 1.414 . S
C905 C906 1.374 . S
C906 H880 0.950 1_545 S
C906 C902 1.385 . S
C906 C905 1.374 . S
C907 C904 1.499 . S
C907 C908 1.373 . S
C907 C909 1.389 . S
C908 H881 0.950 . S
C908 C894 1.377 . S
C908 C907 1.373 . S
C909 C893 1.377 . S
C909 C907 1.389 . S
C909 C910 1.524 . S
C910 C909 1.524 . S
C910 C911 1.397 . S
C910 C915 1.363 . S
C911 H882 0.950 . S
C911 C910 1.397 . S
C911 C912 1.334 . S
C912 H883 0.950 . S
C912 C911 1.334 . S
C912 C913 1.287 . S
C913 C912 1.287 . S
C913 C914 1.524 . S
C913 H916 0.999 . S
C914 H884 0.950 . S
C914 C913 1.524 . S
C914 C915 1.415 . S
C915 H885 0.950 . S
C915 C910 1.363 . S
C915 C914 1.415 . S
H916 C913 0.999 . S
H917 C898 0.913 . S
H918 C936 0.951 . S
H919 C938 0.951 . S
H920 C940 0.950 . S
H921 C941 0.950 1_545 S
H922 C943 0.950 . S
H923 C946 0.950 . S
H924 C947 0.950 . S
H925 C949 0.950 . S
H926 C950 0.950 . S
H927 C951 0.951 . S
H928 C953 0.951 . S
H929 C955 0.950 . S
H930 C956 0.950 . S
H931 C958 0.950 . S
H932 C961 0.950 . S
H933 C962 0.950 . S
H934 C964 0.950 . S
H935 C965 0.950 . S
C936 H918 0.951 . S
C936 C937 1.366 . S
C936 C938 1.388 . S
C937 C936 1.366 . S
C937 C941 1.385 . S
C938 H919 0.951 . S
C938 C936 1.388 . S
C938 C939 1.366 . S
C939 C938 1.366 . S
C939 C940 1.414 . S
C939 C942 1.499 . S
C940 H920 0.950 . S
C940 C939 1.414 . S
C940 C941 1.374 . S
C941 H921 0.950 1_565 S
C941 C937 1.385 . S
C941 C940 1.374 . S
C942 C939 1.499 . S
C942 C943 1.373 . S
C942 C944 1.389 . S
C943 H922 0.950 . S
C943 C942 1.373 . S
C943 C959 1.377 . S
C944 C942 1.389 . S
C944 C945 1.524 . S
C944 C958 1.377 . S
C945 C944 1.524 . S
C945 C946 1.397 . S
C945 C950 1.363 . S
C946 H923 0.950 . S
C946 C945 1.397 . S
C946 C947 1.334 . S
C947 H924 0.950 . S
C947 C946 1.334 . S
C947 C948 1.287 . S
C948 C947 1.287 . S
C948 C949 1.524 . S
C948 H967 0.913 . S
C949 H925 0.950 . S
C949 C948 1.524 . S
C949 C950 1.415 . S
C950 H926 0.950 . S
C950 C945 1.363 . S
C950 C949 1.415 . S
C951 H927 0.951 . S
C951 C952 1.366 . S
C951 C953 1.388 . S
C952 C951 1.366 . S
C952 C956 1.385 . S
C953 H928 0.951 . S
C953 C951 1.388 . S
C953 C954 1.366 . S
C954 C953 1.366 . S
C954 C955 1.414 . S
C954 C957 1.499 . S
C955 H929 0.950 . S
C955 C954 1.414 . S
C955 C956 1.374 . S
C956 H930 0.950 . S
C956 C952 1.385 . S
C956 C955 1.374 . S
C957 C954 1.499 . S
C957 C958 1.373 . S
C957 C959 1.389 . S
C958 H931 0.950 . S
C958 C944 1.377 . S
C958 C957 1.373 . S
C959 C943 1.377 . S
C959 C957 1.389 . S
C959 C960 1.524 . S
C960 C959 1.524 . S
C960 C961 1.397 . S
C960 C965 1.363 . S
C961 H932 0.950 . S
C961 C960 1.397 . S
C961 C962 1.334 . S
C962 H933 0.950 . S
C962 C961 1.334 . S
C962 C963 1.287 . S
C963 C962 1.287 . S
C963 C964 1.524 . S
C963 H966 0.999 . S
C964 H934 0.950 . S
C964 C963 1.524 . S
C964 C965 1.415 . S
C965 H935 0.950 . S
C965 C960 1.363 . S
C965 C964 1.415 . S
H966 C963 0.999 . S
H967 C948 0.913 . S
H968 C986 0.951 . S
H969 C988 0.951 . S
H970 C990 0.950 . S
H971 C991 0.950 . S
H972 C993 0.950 . S
H973 C996 0.950 . S
H974 C997 0.950 . S
H975 C999 0.950 . S
H976 C1000 0.950 . S
H977 C1001 0.975 . S
H978 C1003 0.951 . S
H979 C1005 0.950 . S
H980 C1006 0.950 . S
H981 C1008 0.950 . S
H982 C1011 0.950 . S
H983 C1012 0.950 . S
H984 C1014 0.950 . S
H985 C1015 0.950 . S
C986 H968 0.951 . S
C986 C987 1.366 . S
C986 C988 1.388 . S
C987 C986 1.366 . S
C987 C991 1.385 . S
C988 H969 0.951 . S
C988 C986 1.388 . S
C988 C989 1.366 . S
C989 C988 1.366 . S
C989 C990 1.414 . S
C989 C992 1.499 . S
C990 H970 0.950 . S
C990 C989 1.414 . S
C990 C991 1.374 . S
C991 H971 0.950 . S
C991 C987 1.385 . S
C991 C990 1.374 . S
C992 C989 1.499 . S
C992 C993 1.373 . S
C992 C994 1.389 . S
C993 H972 0.950 . S
C993 C992 1.373 . S
C993 C1009 1.377 . S
C994 C992 1.389 . S
C994 C995 1.524 . S
C994 C1008 1.377 . S
C995 C994 1.524 . S
C995 C996 1.397 . S
C995 C1000 1.363 . S
C996 H973 0.950 . S
C996 C995 1.397 . S
C996 C997 1.334 . S
C997 H974 0.950 . S
C997 C996 1.334 . S
C997 C998 1.287 . S
C998 C997 1.287 . S
C998 C999 1.524 . S
C998 H1017 0.913 . S
C999 H975 0.950 . S
C999 C998 1.524 . S
C999 C1000 1.415 . S
C1000 H976 0.950 . S
C1000 C995 1.363 . S
C1000 C999 1.415 . S
C1001 H977 0.975 . S
C1001 C1002 1.366 . S
C1001 C1003 1.388 . S
C1002 C1001 1.366 . S
C1002 C1006 1.385 . S
C1003 H978 0.951 . S
C1003 C1001 1.388 . S
C1003 C1004 1.366 . S
C1004 C1003 1.366 . S
C1004 C1005 1.414 . S
C1004 C1007 1.499 . S
C1005 H979 0.950 . S
C1005 C1004 1.414 . S
C1005 C1006 1.374 . S
C1006 H980 0.950 . S
C1006 C1002 1.385 . S
C1006 C1005 1.374 . S
C1007 C1004 1.499 . S
C1007 C1008 1.373 . S
C1007 C1009 1.389 . S
C1008 H981 0.950 . S
C1008 C994 1.377 . S
C1008 C1007 1.373 . S
C1009 C993 1.377 . S
C1009 C1007 1.389 . S
C1009 C1010 1.524 . S
C1010 C1009 1.524 . S
C1010 C1011 1.397 . S
C1010 C1015 1.363 . S
C1011 H982 0.950 . S
C1011 C1010 1.397 . S
C1011 C1012 1.334 . S
C1012 H983 0.950 . S
C1012 C1011 1.334 . S
C1012 C1013 1.287 . S
C1013 C1012 1.287 . S
C1013 C1014 1.524 . S
C1013 H1016 0.999 . S
C1014 H984 0.950 . S
C1014 C1013 1.524 . S
C1014 C1015 1.415 . S
C1015 H985 0.950 . S
C1015 C1010 1.363 . S
C1015 C1014 1.415 . S
H1016 C1013 0.999 . S
H1017 C998 0.913 . S
H1018 C1036 0.951 . S
H1019 C1038 0.951 . S
H1020 C1040 0.950 . S
H1021 C1041 0.950 1_545 S
H1022 C1043 0.950 . S
H1023 C1046 0.950 . S
H1024 C1047 0.950 . S
H1025 C1049 0.950 . S
H1026 C1050 0.950 . S
H1027 C1051 0.951 . S
H1028 C1053 0.951 . S
H1029 C1055 0.950 . S
H1030 C1056 0.950 . S
H1031 C1058 0.950 . S
H1032 C1061 0.950 . S
H1033 C1062 0.950 1_655 S
H1034 C1064 0.950 . S
H1035 C1065 0.950 . S
C1036 H1018 0.951 . S
C1036 C1037 1.366 . S
C1036 C1038 1.388 . S
C1037 C1036 1.366 . S
C1037 C1041 1.385 . S
C1038 H1019 0.951 . S
C1038 C1036 1.388 . S
C1038 C1039 1.366 . S
C1039 C1038 1.366 . S
C1039 C1040 1.414 . S
C1039 C1042 1.499 . S
C1040 H1020 0.950 . S
C1040 C1039 1.414 . S
C1040 C1041 1.374 . S
C1041 H1021 0.950 1_565 S
C1041 C1037 1.385 . S
C1041 C1040 1.374 . S
C1042 C1039 1.499 . S
C1042 C1043 1.373 . S
C1042 C1044 1.389 . S
C1043 H1022 0.950 . S
C1043 C1042 1.373 . S
C1043 C1059 1.377 . S
C1044 C1042 1.389 . S
C1044 C1045 1.524 . S
C1044 C1058 1.377 . S
C1045 C1044 1.524 . S
C1045 C1046 1.397 . S
C1045 C1050 1.363 . S
C1046 H1023 0.950 . S
C1046 C1045 1.397 . S
C1046 C1047 1.334 . S
C1047 H1024 0.950 . S
C1047 C1046 1.334 . S
C1047 C1048 1.287 . S
C1048 C1047 1.287 . S
C1048 C1049 1.524 . S
C1048 H1067 0.913 . S
C1049 H1025 0.950 . S
C1049 C1048 1.524 . S
C1049 C1050 1.415 . S
C1050 H1026 0.950 . S
C1050 C1045 1.363 . S
C1050 C1049 1.415 . S
C1051 H1027 0.951 . S
C1051 C1052 1.366 . S
C1051 C1053 1.388 . S
C1052 C1051 1.366 . S
C1052 C1056 1.385 . S
C1053 H1028 0.951 . S
C1053 C1051 1.388 . S
C1053 C1054 1.366 . S
C1054 C1053 1.366 . S
C1054 C1055 1.414 . S
C1054 C1057 1.499 . S
C1055 H1029 0.950 . S
C1055 C1054 1.414 . S
C1055 C1056 1.374 . S
C1056 H1030 0.950 . S
C1056 C1052 1.385 . S
C1056 C1055 1.374 . S
C1057 C1054 1.499 . S
C1057 C1058 1.373 . S
C1057 C1059 1.389 . S
C1058 H1031 0.950 . S
C1058 C1044 1.377 . S
C1058 C1057 1.373 . S
C1059 C1043 1.377 . S
C1059 C1057 1.389 . S
C1059 C1060 1.524 . S
C1060 C1059 1.524 . S
C1060 C1061 1.397 . S
C1060 C1065 1.363 . S
C1061 H1032 0.950 . S
C1061 C1060 1.397 . S
C1061 C1062 1.334 . S
C1062 H1033 0.950 1_455 S
C1062 C1061 1.334 . S
C1062 C1063 1.287 . S
C1063 C1062 1.287 . S
C1063 C1064 1.524 . S
C1063 H1066 0.999 1_455 S
C1064 H1034 0.950 . S
C1064 C1063 1.524 . S
C1064 C1065 1.415 . S
C1065 H1035 0.950 . S
C1065 C1060 1.363 . S
C1065 C1064 1.415 . S
H1066 C1063 0.999 1_655 S
H1067 C1048 0.913 . S
H1068 C1086 0.951 . S
H1069 C1088 0.951 . S
H1070 C1090 0.950 . S
H1071 C1091 0.950 . S
H1072 C1093 0.950 . S
H1073 C1096 0.950 . S
H1074 C1097 0.950 . S
H1075 C1099 0.950 . S
H1076 C1100 0.950 . S
H1077 C1101 0.951 . S
H1078 C1103 0.951 . S
H1079 C1105 0.950 . S
H1080 C1106 0.950 . S
H1081 C1108 0.950 . S
H1082 C1111 0.950 . S
H1083 C1112 0.950 . S
H1084 C1114 0.950 . S
H1085 C1115 0.950 . S
C1086 H1068 0.951 . S
C1086 C1087 1.366 . S
C1086 C1088 1.388 . S
C1087 C1086 1.366 . S
C1087 C1091 1.385 . S
C1088 H1069 0.951 . S
C1088 C1086 1.388 . S
C1088 C1089 1.366 . S
C1089 C1088 1.366 . S
C1089 C1090 1.414 . S
C1089 C1092 1.499 . S
C1090 H1070 0.950 . S
C1090 C1089 1.414 . S
C1090 C1091 1.374 . S
C1091 H1071 0.950 . S
C1091 C1087 1.385 . S
C1091 C1090 1.374 . S
C1092 C1089 1.499 . S
C1092 C1093 1.373 . S
C1092 C1094 1.389 . S
C1093 H1072 0.950 . S
C1093 C1092 1.373 . S
C1093 C1109 1.377 . S
C1094 C1092 1.389 . S
C1094 C1095 1.524 . S
C1094 C1108 1.377 . S
C1095 C1094 1.524 . S
C1095 C1096 1.397 . S
C1095 C1100 1.363 . S
C1096 H1073 0.950 . S
C1096 C1095 1.397 . S
C1096 C1097 1.334 . S
C1097 H1074 0.950 . S
C1097 C1096 1.334 . S
C1097 C1098 1.287 . S
C1098 C1097 1.287 . S
C1098 C1099 1.524 . S
C1098 H1117 0.913 . S
C1099 H1075 0.950 . S
C1099 C1098 1.524 . S
C1099 C1100 1.415 . S
C1100 H1076 0.950 . S
C1100 C1095 1.363 . S
C1100 C1099 1.415 . S
C1101 H1077 0.951 . S
C1101 C1102 1.366 . S
C1101 C1103 1.388 . S
C1102 C1101 1.366 . S
C1102 C1106 1.385 . S
C1103 H1078 0.951 . S
C1103 C1101 1.388 . S
C1103 C1104 1.366 . S
C1104 C1103 1.366 . S
C1104 C1105 1.414 . S
C1104 C1107 1.499 . S
C1105 H1079 0.950 . S
C1105 C1104 1.414 . S
C1105 C1106 1.374 . S
C1106 H1080 0.950 . S
C1106 C1102 1.385 . S
C1106 C1105 1.374 . S
C1107 C1104 1.499 . S
C1107 C1108 1.373 . S
C1107 C1109 1.389 . S
C1108 H1081 0.950 . S
C1108 C1094 1.377 . S
C1108 C1107 1.373 . S
C1109 C1093 1.377 . S
C1109 C1107 1.389 . S
C1109 C1110 1.524 . S
C1110 C1109 1.524 . S
C1110 C1111 1.397 . S
C1110 C1115 1.363 . S
C1111 H1082 0.950 . S
C1111 C1110 1.397 . S
C1111 C1112 1.334 . S
C1112 H1083 0.950 . S
C1112 C1111 1.334 . S
C1112 C1113 1.287 . S
C1113 C1112 1.287 . S
C1113 C1114 1.524 . S
C1113 H1116 0.999 . S
C1114 H1084 0.950 . S
C1114 C1113 1.524 . S
C1114 C1115 1.415 . S
C1115 H1085 0.950 . S
C1115 C1110 1.363 . S
C1115 C1114 1.415 . S
H1116 C1113 0.999 . S
H1117 C1098 0.913 . S
H1118 C1136 0.951 . S
H1119 C1138 0.951 . S
H1120 C1140 0.950 . S
H1121 C1141 0.950 . S
H1122 C1143 0.950 . S
H1123 C1146 0.950 . S
H1124 C1147 0.950 . S
H1125 C1149 0.950 . S
H1126 C1150 0.950 . S
H1127 C1151 0.951 . S
H1128 C1153 0.951 . S
H1129 C1155 0.950 . S
H1130 C1156 0.950 . S
H1131 C1158 0.950 . S
H1132 C1161 0.950 . S
H1133 C1162 0.950 . S
H1134 C1164 0.950 . S
H1135 C1165 0.950 . S
C1136 H1118 0.951 . S
C1136 C1137 1.366 . S
C1136 C1138 1.388 . S
C1137 C1136 1.366 . S
C1137 C1141 1.385 . S
C1138 H1119 0.951 . S
C1138 C1136 1.388 . S
C1138 C1139 1.366 . S
C1139 C1138 1.366 . S
C1139 C1140 1.414 . S
C1139 C1142 1.499 . S
C1140 H1120 0.950 . S
C1140 C1139 1.414 . S
C1140 C1141 1.374 . S
C1141 H1121 0.950 . S
C1141 C1137 1.385 . S
C1141 C1140 1.374 . S
C1142 C1139 1.499 . S
C1142 C1143 1.373 1_655 S
C1142 C1144 1.389 . S
C1143 H1122 0.950 . S
C1143 C1142 1.373 1_455 S
C1143 C1159 1.377 . S
C1144 C1142 1.389 . S
C1144 C1145 1.524 . S
C1144 C1158 1.377 . S
C1145 C1144 1.524 . S
C1145 C1146 1.397 . S
C1145 C1150 1.363 . S
C1146 H1123 0.950 . S
C1146 C1145 1.397 . S
C1146 C1147 1.334 . S
C1147 H1124 0.950 . S
C1147 C1146 1.334 . S
C1147 C1148 1.287 . S
C1148 C1147 1.287 . S
C1148 C1149 1.524 . S
C1148 H1167 0.913 . S
C1149 H1125 0.950 . S
C1149 C1148 1.524 . S
C1149 C1150 1.415 . S
C1150 H1126 0.950 . S
C1150 C1145 1.363 . S
C1150 C1149 1.415 . S
C1151 H1127 0.951 . S
C1151 C1152 1.366 . S
C1151 C1153 1.388 . S
C1152 C1151 1.366 . S
C1152 C1156 1.385 . S
C1153 H1128 0.951 . S
C1153 C1151 1.388 . S
C1153 C1154 1.366 . S
C1154 C1153 1.366 . S
C1154 C1155 1.414 . S
C1154 C1157 1.499 . S
C1155 H1129 0.950 . S
C1155 C1154 1.414 . S
C1155 C1156 1.374 . S
C1156 H1130 0.950 . S
C1156 C1152 1.385 . S
C1156 C1155 1.374 . S
C1157 C1154 1.499 . S
C1157 C1158 1.373 1_455 S
C1157 C1159 1.389 . S
C1158 H1131 0.950 . S
C1158 C1144 1.377 . S
C1158 C1157 1.373 1_655 S
C1159 C1143 1.377 . S
C1159 C1157 1.389 . S
C1159 C1160 1.524 . S
C1160 C1159 1.524 . S
C1160 C1161 1.397 . S
C1160 C1165 1.363 . S
C1161 H1132 0.950 . S
C1161 C1160 1.397 . S
C1161 C1162 1.334 . S
C1162 H1133 0.950 . S
C1162 C1161 1.334 . S
C1162 C1163 1.287 . S
C1163 C1162 1.287 . S
C1163 C1164 1.524 . S
C1163 H1166 0.999 . S
C1164 H1134 0.950 . S
C1164 C1163 1.524 . S
C1164 C1165 1.415 . S
C1165 H1135 0.950 . S
C1165 C1160 1.363 . S
C1165 C1164 1.415 . S
H1166 C1163 0.999 . S
H1167 C1148 0.913 . S
H1168 C1186 0.951 1_565 S
H1169 C1188 0.951 . S
H1170 C1190 0.950 . S
H1171 C1191 0.950 . S
H1172 C1193 0.950 . S
H1173 C1196 0.950 . S
H1174 C1197 0.950 . S
H1175 C1199 0.950 . S
H1176 C1200 0.950 . S
H1177 C1201 0.951 1_545 S
H1178 C1203 0.951 . S
H1179 C1205 0.950 . S
H1180 C1206 0.950 . S
H1181 C1208 0.950 . S
H1182 C1211 0.950 . S
H1183 C1212 0.950 . S
H1184 C1214 0.950 . S
H1185 C1215 0.950 . S
C1186 H1168 0.951 1_545 S
C1186 C1187 1.366 . S
C1186 C1188 1.388 1_545 S
C1187 C1186 1.366 . S
C1187 C1191 1.385 . S
C1188 H1169 0.951 . S
C1188 C1186 1.388 1_565 S
C1188 C1189 1.366 1_565 S
C1189 C1188 1.366 1_545 S
C1189 C1190 1.414 . S
C1189 C1192 1.499 . S
C1190 H1170 0.950 . S
C1190 C1189 1.414 . S
C1190 C1191 1.374 . S
C1191 H1171 0.950 . S
C1191 C1187 1.385 . S
C1191 C1190 1.374 . S
C1192 C1189 1.499 . S
C1192 C1193 1.373 . S
C1192 C1194 1.389 1_545 S
C1193 H1172 0.950 . S
C1193 C1192 1.373 . S
C1193 C1209 1.377 1_554 S
C1194 C1192 1.389 1_565 S
C1194 C1195 1.524 . S
C1194 C1208 1.377 1_554 S
C1195 C1194 1.524 . S
C1195 C1196 1.397 . S
C1195 C1200 1.363 . S
C1196 H1173 0.950 . S
C1196 C1195 1.397 . S
C1196 C1197 1.334 . S
C1197 H1174 0.950 . S
C1197 C1196 1.334 . S
C1197 C1198 1.287 . S
C1198 C1197 1.287 . S
C1198 C1199 1.524 . S
C1198 H1217 0.913 . S
C1199 H1175 0.950 . S
C1199 C1198 1.524 . S
C1199 C1200 1.415 . S
C1200 H1176 0.950 . S
C1200 C1195 1.363 . S
C1200 C1199 1.415 . S
C1201 H1177 0.951 1_565 S
C1201 C1202 1.366 . S
C1201 C1203 1.388 1_565 S
C1202 C1201 1.366 . S
C1202 C1206 1.385 . S
C1203 H1178 0.951 . S
C1203 C1201 1.388 1_545 S
C1203 C1204 1.366 1_545 S
C1204 C1203 1.366 1_565 S
C1204 C1205 1.414 . S
C1204 C1207 1.499 . S
C1205 H1179 0.950 . S
C1205 C1204 1.414 . S
C1205 C1206 1.374 . S
C1206 H1180 0.950 . S
C1206 C1202 1.385 . S
C1206 C1205 1.374 . S
C1207 C1204 1.499 . S
C1207 C1208 1.373 . S
C1207 C1209 1.389 1_565 S
C1208 H1181 0.950 . S
C1208 C1194 1.377 1_556 S
C1208 C1207 1.373 . S
C1209 C1193 1.377 1_556 S
C1209 C1207 1.389 1_545 S
C1209 C1210 1.524 . S
C1210 C1209 1.524 . S
C1210 C1211 1.397 . S
C1210 C1215 1.363 . S
C1211 H1182 0.950 . S
C1211 C1210 1.397 . S
C1211 C1212 1.334 . S
C1212 H1183 0.950 . S
C1212 C1211 1.334 . S
C1212 C1213 1.287 . S
C1213 C1212 1.287 . S
C1213 C1214 1.524 . S
C1213 H1216 0.999 . S
C1214 H1184 0.950 . S
C1214 C1213 1.524 . S
C1214 C1215 1.415 . S
C1215 H1185 0.950 . S
C1215 C1210 1.363 . S
C1215 C1214 1.415 . S
H1216 C1213 0.999 . S
H1217 C1198 0.913 . S
H1218 C1236 0.951 . S
H1219 C1238 0.951 . S
H1220 C1240 0.950 . S
H1221 C1241 0.950 . S
H1222 C1243 0.950 . S
H1223 C1246 0.950 . S
H1224 C1247 0.950 . S
H1225 C1249 0.950 . S
H1226 C1250 0.950 . S
H1227 C1251 0.951 . S
H1228 C1253 0.951 . S
H1229 C1255 0.950 . S
H1230 C1256 0.950 . S
H1231 C1258 0.950 . S
H1232 C1261 0.950 . S
H1233 C1262 0.950 . S
H1234 C1264 0.950 . S
H1235 C1265 0.950 . S
C1236 H1218 0.951 . S
C1236 C1237 1.366 . S
C1236 C1238 1.388 . S
C1237 C1236 1.366 . S
C1237 C1241 1.385 . S
C1238 H1219 0.951 . S
C1238 C1236 1.388 . S
C1238 C1239 1.366 . S
C1239 C1238 1.366 . S
C1239 C1240 1.414 . S
C1239 C1242 1.499 . S
C1240 H1220 0.950 . S
C1240 C1239 1.414 . S
C1240 C1241 1.374 . S
C1241 H1221 0.950 . S
C1241 C1237 1.385 . S
C1241 C1240 1.374 . S
C1242 C1239 1.499 . S
C1242 C1243 1.373 . S
C1242 C1244 1.389 . S
C1243 H1222 0.950 . S
C1243 C1242 1.373 . S
C1243 C1259 1.377 . S
C1244 C1242 1.389 . S
C1244 C1245 1.524 . S
C1244 C1258 1.377 . S
C1245 C1244 1.524 . S
C1245 C1246 1.397 . S
C1245 C1250 1.363 . S
C1246 H1223 0.950 . S
C1246 C1245 1.397 . S
C1246 C1247 1.334 . S
C1247 H1224 0.950 . S
C1247 C1246 1.334 . S
C1247 C1248 1.287 . S
C1248 C1247 1.287 . S
C1248 C1249 1.524 . S
C1248 H1267 0.913 . S
C1249 H1225 0.950 . S
C1249 C1248 1.524 . S
C1249 C1250 1.415 . S
C1250 H1226 0.950 . S
C1250 C1245 1.363 . S
C1250 C1249 1.415 . S
C1251 H1227 0.951 . S
C1251 C1252 1.366 . S
C1251 C1253 1.388 . S
C1252 C1251 1.366 . S
C1252 C1256 1.385 . S
C1253 H1228 0.951 . S
C1253 C1251 1.388 . S
C1253 C1254 1.366 . S
C1254 C1253 1.366 . S
C1254 C1255 1.414 . S
C1254 C1257 1.499 . S
C1255 H1229 0.950 . S
C1255 C1254 1.414 . S
C1255 C1256 1.374 . S
C1256 H1230 0.950 . S
C1256 C1252 1.385 . S
C1256 C1255 1.374 . S
C1257 C1254 1.499 . S
C1257 C1258 1.373 . S
C1257 C1259 1.389 . S
C1258 H1231 0.950 . S
C1258 C1244 1.377 . S
C1258 C1257 1.373 . S
C1259 C1243 1.377 . S
C1259 C1257 1.389 . S
C1259 C1260 1.524 . S
C1260 C1259 1.524 . S
C1260 C1261 1.397 . S
C1260 C1265 1.363 . S
C1261 H1232 0.950 . S
C1261 C1260 1.397 . S
C1261 C1262 1.334 . S
C1262 H1233 0.950 . S
C1262 C1261 1.334 . S
C1262 C1263 1.287 . S
C1263 C1262 1.287 . S
C1263 C1264 1.524 . S
C1263 H1266 0.999 . S
C1264 H1234 0.950 . S
C1264 C1263 1.524 . S
C1264 C1265 1.415 . S
C1265 H1235 0.950 . S
C1265 C1260 1.363 . S
C1265 C1264 1.415 . S
H1266 C1263 0.999 . S
H1267 C1248 0.913 . S
H1268 C1286 0.951 . S
H1269 C1288 0.951 1_655 S
H1270 C1290 0.950 . S
H1271 C1291 0.950 . S
H1272 C1293 0.950 . S
H1273 C1296 0.950 . S
H1274 C1297 0.950 . S
H1275 C1299 0.950 . S
H1276 C1300 0.950 . S
H1277 C1301 0.951 . S
H1278 C1303 0.951 1_455 S
H1279 C1305 0.950 . S
H1280 C1306 0.950 . S
H1281 C1308 0.950 . S
H1282 C1311 0.950 . S
H1283 C1312 0.950 . S
H1284 C1314 0.950 . S
H1285 C1315 0.950 . S
C1286 H1268 0.951 . S
C1286 C1287 1.366 . S
C1286 C1288 1.388 . S
C1287 C1286 1.366 . S
C1287 C1291 1.385 . S
C1288 H1269 0.951 1_455 S
C1288 C1286 1.388 . S
C1288 C1289 1.366 . S
C1289 C1288 1.366 . S
C1289 C1290 1.414 . S
C1289 C1292 1.499 . S
C1290 H1270 0.950 . S
C1290 C1289 1.414 . S
C1290 C1291 1.374 . S
C1291 H1271 0.950 . S
C1291 C1287 1.385 . S
C1291 C1290 1.374 . S
C1292 C1289 1.499 . S
C1292 C1293 1.373 . S
C1292 C1294 1.389 1_455 S
C1293 H1272 0.950 . S
C1293 C1292 1.373 . S
C1293 C1309 1.377 . S
C1294 C1292 1.389 1_655 S
C1294 C1295 1.524 . S
C1294 C1308 1.377 . S
C1295 C1294 1.524 . S
C1295 C1296 1.397 . S
C1295 C1300 1.363 . S
C1296 H1273 0.950 . S
C1296 C1295 1.397 . S
C1296 C1297 1.334 . S
C1297 H1274 0.950 . S
C1297 C1296 1.334 . S
C1297 C1298 1.287 . S
C1298 C1297 1.287 . S
C1298 C1299 1.524 . S
C1298 H1317 0.913 . S
C1299 H1275 0.950 . S
C1299 C1298 1.524 . S
C1299 C1300 1.415 . S
C1300 H1276 0.950 . S
C1300 C1295 1.363 . S
C1300 C1299 1.415 . S
C1301 H1277 0.951 . S
C1301 C1302 1.366 . S
C1301 C1303 1.388 . S
C1302 C1301 1.366 . S
C1302 C1306 1.385 . S
C1303 H1278 0.951 1_655 S
C1303 C1301 1.388 . S
C1303 C1304 1.366 . S
C1304 C1303 1.366 . S
C1304 C1305 1.414 . S
C1304 C1307 1.499 . S
C1305 H1279 0.950 . S
C1305 C1304 1.414 . S
C1305 C1306 1.374 . S
C1306 H1280 0.950 . S
C1306 C1302 1.385 . S
C1306 C1305 1.374 . S
C1307 C1304 1.499 . S
C1307 C1308 1.373 . S
C1307 C1309 1.389 1_655 S
C1308 H1281 0.950 . S
C1308 C1294 1.377 . S
C1308 C1307 1.373 . S
C1309 C1293 1.377 . S
C1309 C1307 1.389 1_455 S
C1309 C1310 1.524 . S
C1310 C1309 1.524 . S
C1310 C1311 1.397 . S
C1310 C1315 1.363 . S
C1311 H1282 0.950 . S
C1311 C1310 1.397 . S
C1311 C1312 1.334 . S
C1312 H1283 0.950 . S
C1312 C1311 1.334 . S
C1312 C1313 1.287 . S
C1313 C1312 1.287 . S
C1313 C1314 1.524 . S
C1313 H1316 0.999 . S
C1314 H1284 0.950 . S
C1314 C1313 1.524 . S
C1314 C1315 1.415 . S
C1315 H1285 0.950 . S
C1315 C1310 1.363 . S
C1315 C1314 1.415 . S
H1316 C1313 0.999 . S
H1317 C1298 0.913 . S
H1318 C1336 0.951 1_545 S
H1319 C1338 0.951 . S
H1320 C1340 0.950 . S
H1321 C1341 0.950 . S
H1322 C1343 0.950 . S
H1323 C1346 0.950 . S
H1324 C1347 0.950 . S
H1325 C1349 0.950 . S
H1326 C1350 0.950 . S
H1327 C1351 0.951 1_565 S
H1328 C1353 0.951 . S
H1329 C1355 0.950 . S
H1330 C1356 0.950 . S
H1331 C1358 0.950 . S
H1332 C1361 0.950 . S
H1333 C1362 0.950 . S
H1334 C1364 0.950 . S
H1335 C1365 0.950 . S
C1336 H1318 0.951 1_565 S
C1336 C1337 1.366 . S
C1336 C1338 1.388 1_565 S
C1337 C1336 1.366 . S
C1337 C1341 1.385 . S
C1338 H1319 0.951 . S
C1338 C1336 1.388 1_545 S
C1338 C1339 1.366 1_545 S
C1339 C1338 1.366 1_565 S
C1339 C1340 1.414 . S
C1339 C1342 1.499 . S
C1340 H1320 0.950 . S
C1340 C1339 1.414 . S
C1340 C1341 1.374 . S
C1341 H1321 0.950 . S
C1341 C1337 1.385 . S
C1341 C1340 1.374 . S
C1342 C1339 1.499 . S
C1342 C1343 1.373 . S
C1342 C1344 1.389 1_565 S
C1343 H1322 0.950 . S
C1343 C1342 1.373 . S
C1343 C1359 1.377 1_554 S
C1344 C1342 1.389 1_545 S
C1344 C1345 1.524 . S
C1344 C1358 1.377 1_554 S
C1345 C1344 1.524 . S
C1345 C1346 1.397 . S
C1345 C1350 1.363 . S
C1346 H1323 0.950 . S
C1346 C1345 1.397 . S
C1346 C1347 1.334 . S
C1347 H1324 0.950 . S
C1347 C1346 1.334 . S
C1347 C1348 1.287 . S
C1348 C1347 1.287 . S
C1348 C1349 1.524 . S
C1348 H1367 0.913 . S
C1349 H1325 0.950 . S
C1349 C1348 1.524 . S
C1349 C1350 1.415 . S
C1350 H1326 0.950 . S
C1350 C1345 1.363 . S
C1350 C1349 1.415 . S
C1351 H1327 0.951 1_545 S
C1351 C1352 1.366 . S
C1351 C1353 1.388 1_545 S
C1352 C1351 1.366 . S
C1352 C1356 1.385 . S
C1353 H1328 0.951 . S
C1353 C1351 1.388 1_565 S
C1353 C1354 1.366 1_565 S
C1354 C1353 1.366 1_545 S
C1354 C1355 1.414 . S
C1354 C1357 1.499 . S
C1355 H1329 0.950 . S
C1355 C1354 1.414 . S
C1355 C1356 1.374 . S
C1356 H1330 0.950 . S
C1356 C1352 1.385 . S
C1356 C1355 1.374 . S
C1357 C1354 1.499 . S
C1357 C1358 1.373 . S
C1357 C1359 1.389 1_545 S
C1358 H1331 0.950 . S
C1358 C1344 1.377 1_556 S
C1358 C1357 1.373 . S
C1359 C1343 1.377 1_556 S
C1359 C1357 1.389 1_565 S
C1359 C1360 1.524 . S
C1360 C1359 1.524 . S
C1360 C1361 1.397 . S
C1360 C1365 1.363 . S
C1361 H1332 0.950 . S
C1361 C1360 1.397 . S
C1361 C1362 1.334 . S
C1362 H1333 0.950 . S
C1362 C1361 1.334 . S
C1362 C1363 1.287 . S
C1363 C1362 1.287 . S
C1363 C1364 1.524 . S
C1363 H1366 0.999 . S
C1364 H1334 0.950 . S
C1364 C1363 1.524 . S
C1364 C1365 1.415 . S
C1365 H1335 0.950 . S
C1365 C1360 1.363 . S
C1365 C1364 1.415 . S
H1366 C1363 0.999 . S
H1367 C1348 0.913 . S
C187 C161 1.565 . S
C202 C7 1.565 . S
C237 C21 1.566 . S
C252 C91 1.566 . S
C287 C35 1.565 . S
C302 C105 1.565 . S
C337 C49 1.565 . S
C352 C119 1.565 . S
C387 C133 1.565 . S
C402 C63 1.565 . S
C437 C77 1.565 . S
C452 C147 1.565 . S
C487 C50 1.057 . S
C502 C8 1.056 . S
C537 C64 1.057 . S
C552 C22 1.056 . S
C587 C78 1.056 . S
C602 C36 1.057 . S
C637 C92 1.057 . S
C652 C134 1.056 . S
C687 C106 1.056 . S
C702 C148 1.056 . S
C737 C120 1.057 . S
C752 C162 1.056 . S
C787 C121 0.716 . S
C802 C9 0.715 . S
C837 C23 0.716 . S
C852 C135 0.714 . S
C887 C149 0.715 . S
C902 C37 0.715 . S
C937 C163 0.715 . S
C952 C51 0.716 . S
C987 C93 0.716 . S
C1002 C65 0.714 . S
C1037 C79 0.715 . S
C1052 C107 0.716 . S
C1087 C132 1.674 . S
C1102 C6 1.674 . S
C1137 C20 1.673 . S
C1152 C146 1.673 . S
C1187 C160 1.674 . S
C1202 C34 1.674 . S
C1237 C48 1.674 . S
C1252 C90 1.674 . S
C1287 C62 1.675 . S
C1302 C104 1.675 . S
C1337 C118 1.674 . S
C1352 C76 1.674 . S
