# Generated by pormake.
# Topology ecf, (8)-cn, num edge types: 1
# Building blocks:
#     Node 0, Type 0, BuildingBlock: AJUNOK_clean_sbu_0, # of connection points: 8
#     Node 1, Type 0, BuildingBlock: AJUNOK_clean_sbu_0, # of connection points: 8
#     Node 2, Type 0, BuildingBlock: AJUNOK_clean_sbu_0, # of connection points: 8
#     Node 3, Type 0, BuildingBlock: AJUNOK_clean_sbu_0, # of connection points: 8
#     Node 4, Type 0, BuildingBlock: AJUNOK_clean_sbu_0, # of connection points: 8
#     Node 5, Type 0, BuildingBlock: AJUNOK_clean_sbu_0, # of connection points: 8
#     Edge 6, Type (0, 0), BuildingBlock: OJICUG_clean_linker_0, # of connection points: 2
#     Edge 7, Type (0, 0), BuildingBlock: OJICUG_clean_linker_0, # of connection points: 2
#     Edge 8, Type (0, 0), BuildingBlock: OJICUG_clean_linker_0, # of connection points: 2
#     Edge 9, Type (0, 0), BuildingBlock: OJICUG_clean_linker_0, # of connection points: 2
#     Edge 10, Type (0, 0), BuildingBlock: OJICUG_clean_linker_0, # of connection points: 2
#     Edge 11, Type (0, 0), BuildingBlock: OJICUG_clean_linker_0, # of connection points: 2
#     Edge 12, Type (0, 0), BuildingBlock: OJICUG_clean_linker_0, # of connection points: 2
#     Edge 13, Type (0, 0), BuildingBlock: OJICUG_clean_linker_0, # of connection points: 2
#     Edge 14, Type (0, 0), BuildingBlock: OJICUG_clean_linker_0, # of connection points: 2
#     Edge 15, Type (0, 0), BuildingBlock: OJICUG_clean_linker_0, # of connection points: 2
#     Edge 16, Type (0, 0), BuildingBlock: OJICUG_clean_linker_0, # of connection points: 2
#     Edge 17, Type (0, 0), BuildingBlock: OJICUG_clean_linker_0, # of connection points: 2
#     Edge 18, Type (0, 0), BuildingBlock: OJICUG_clean_linker_0, # of connection points: 2
#     Edge 19, Type (0, 0), BuildingBlock: OJICUG_clean_linker_0, # of connection points: 2
#     Edge 20, Type (0, 0), BuildingBlock: OJICUG_clean_linker_0, # of connection points: 2
#     Edge 21, Type (0, 0), BuildingBlock: OJICUG_clean_linker_0, # of connection points: 2
#     Edge 22, Type (0, 0), BuildingBlock: OJICUG_clean_linker_0, # of connection points: 2
#     Edge 23, Type (0, 0), BuildingBlock: OJICUG_clean_linker_0, # of connection points: 2
#     Edge 24, Type (0, 0), BuildingBlock: OJICUG_clean_linker_0, # of connection points: 2
#     Edge 25, Type (0, 0), BuildingBlock: OJICUG_clean_linker_0, # of connection points: 2
#     Edge 26, Type (0, 0), BuildingBlock: OJICUG_clean_linker_0, # of connection points: 2
#     Edge 27, Type (0, 0), BuildingBlock: OJICUG_clean_linker_0, # of connection points: 2
#     Edge 28, Type (0, 0), BuildingBlock: OJICUG_clean_linker_0, # of connection points: 2
#     Edge 29, Type (0, 0), BuildingBlock: OJICUG_clean_linker_0, # of connection points: 2
# Relax obj value: 0.435
# Max RMSD: 0.281
# Mean RMSD: 0.281
data_MOF--net-ecf--node1-AJUNOK_clean_sbu_0--edge1-OJICUG_clean_linker_0
_symmetry_space_group_name_H-M    P1
_symmetry_Int_Tables_number       1
_symmetry_cell_setting            triclinic
loop_
_symmetry_equiv_pos_as_xyz
'x, y, z'
_cell_length_a     31.920739
_cell_length_b     31.771544
_cell_length_c     16.483006
_cell_angle_alpha  90.048093
_cell_angle_beta   90.157171
_cell_angle_gamma 119.87418
loop_
_atom_site_label
_atom_site_type_symbol
_atom_site_fract_x
_atom_site_fract_y
_atom_site_fract_z
_atom_type_partial_charge
Cd0 Cd 0.1287 0.33238 0.26336 0.0
Cd1 Cd 0.20534 0.32627 0.41522 0.0
C2 C 0.02663 0.24109 0.25175 0.0
N3 N 0.07182 0.25314 0.22764 0.0
C4 C 0.04372 0.17223 0.17954 0.0
C5 C 0.99725 0.15871 0.20753 0.0
C6 C 0.98879 0.1941 0.24222 0.0
C7 C 0.08087 0.2203 0.18989 0.0
H8 H 0.02019 0.26761 0.28148 0.0
H9 H 0.11698 0.23045 0.17083 0.0
C10 C 0.21658 0.2991 0.20635 0.0
C11 C 0.27314 0.42048 0.31588 0.0
C12 C 0.30871 0.46867 0.30445 0.0
C13 C 0.31448 0.50426 0.36125 0.0
C14 C 0.28319 0.48984 0.42831 0.0
C15 C 0.24841 0.44084 0.438 0.0
N16 N 0.24323 0.40757 0.38093 0.0
H17 H 0.27109 0.39304 0.27492 0.0
H18 H 0.22659 0.42903 0.49229 0.0
C19 C 0.19355 0.2229 0.40026 0.0
N20 N 0.16442 0.24271 0.40252 0.0
C21 C 0.09778 0.16952 0.3519 0.0
C22 C 0.12909 0.15163 0.33741 0.0
C23 C 0.17667 0.17725 0.36624 0.0
C24 C 0.1167 0.2163 0.38311 0.0
H25 H 0.23127 0.2446 0.4166 0.0
H26 H 0.09408 0.23239 0.38548 0.0
C27 C 0.09107 0.30094 0.47806 0.0
C28 C 0.07467 0.36835 0.1855 0.0
N29 N 0.1739 0.4154 0.28977 0.0
C30 C 0.15896 0.43096 0.35449 0.0
C31 C 0.17439 0.48013 0.36451 0.0
C32 C 0.20499 0.51395 0.30665 0.0
C33 C 0.21993 0.4968 0.24029 0.0
C34 C 0.20305 0.447 0.23213 0.0
C35 C 0.29108 0.34985 0.495 0.0
O36 O 0.18888 0.3149 0.18154 0.0
O37 O 0.22359 0.29878 0.28226 0.0
O38 O 0.133 0.31114 0.50315 0.0
O39 O 0.08522 0.30487 0.40218 0.0
O40 O 0.10378 0.36024 0.14487 0.0
O41 O 0.07032 0.35798 0.26001 0.0
O42 O 0.25464 0.34322 0.53616 0.0
O43 O 0.28517 0.34128 0.42005 0.0
H44 H 0.13339 0.40482 0.3967 0.0
H45 H 0.21203 0.43335 0.17871 0.0
H46 H 0.05149 0.14571 0.15282 0.0
H47 H 0.95366 0.18503 0.26594 0.0
H48 H 0.33305 0.47731 0.25365 0.0
H49 H 0.28642 0.51578 0.47403 0.0
H50 H 0.06042 0.14952 0.33314 0.0
H51 H 0.20141 0.16363 0.35705 0.0
H52 H 0.16033 0.49101 0.41506 0.0
H53 H 0.24329 0.52133 0.19397 0.0
Cd54 Cd 0.87973 0.21264 0.91413 0.0
Cd55 Cd 0.80763 0.12845 0.76282 0.0
C56 C 0.9861 0.23425 0.92965 0.0
N57 N 0.94157 0.19847 0.95165 0.0
C58 C 0.97419 0.14971 0.99969 0.0
C59 C 0.02001 0.18478 0.97206 0.0
C60 C 0.02586 0.22814 0.93909 0.0
C61 C 0.93503 0.15737 0.98876 0.0
H62 H 0.99047 0.26667 0.90073 0.0
H63 H 0.89928 0.1294 1.006 0.0
C64 C 0.79516 0.08923 0.96928 0.0
C65 C 0.73634 0.15099 0.86099 0.0
C66 C 0.69789 0.15976 0.86871 0.0
C67 C 0.69011 0.18634 0.80873 0.0
C68 C 0.7222 0.20514 0.74342 0.0
C69 C 0.75992 0.19487 0.7374 0.0
N70 N 0.76669 0.16885 0.79646 0.0
H71 H 0.74002 0.12739 0.90379 0.0
H72 H 0.78215 0.20527 0.68358 0.0
C73 C 0.82072 0.0375 0.77506 0.0
N74 N 0.849 0.08657 0.77752 0.0
C75 C 0.91401 0.08027 0.83617 0.0
C76 C 0.88304 0.0305 0.84535 0.0
C77 C 0.83692 0.0085 0.81029 0.0
C78 C 0.89569 0.10824 0.80327 0.0
H79 H 0.7838 0.02126 0.75394 0.0
H80 H 0.91753 0.14713 0.80451 0.0
C81 C 0.92216 0.21808 0.70291 0.0
C82 C 0.92521 0.29989 1.00306 0.0
N83 N 0.83513 0.24964 0.87743 0.0
C84 C 0.8507 0.27941 0.81181 0.0
C85 C 0.83457 0.31235 0.79824 0.0
C86 C 0.80256 0.31541 0.85336 0.0
C87 C 0.78651 0.28354 0.91995 0.0
C88 C 0.80426 0.25169 0.93193 0.0
C89 C 0.72337 0.0662 0.68022 0.0
O90 O 0.82139 0.13302 0.99417 0.0
O91 O 0.78889 0.08171 0.89341 0.0
O92 O 0.88055 0.18584 0.6774 0.0
O93 O 0.92729 0.22888 0.77849 0.0
O94 O 0.89668 0.26012 1.0382 0.0
O95 O 0.93209 0.29783 0.92813 0.0
O96 O 0.75993 0.09692 0.64028 0.0
O97 O 0.7288 0.0625 0.755 0.0
H98 H 0.87747 0.27917 0.77208 0.0
H99 H 0.79456 0.22954 0.98599 0.0
H100 H 0.96824 0.11579 1.02528 0.0
H101 H 0.06023 0.25595 0.9155 0.0
H102 H 0.67286 0.14365 0.91861 0.0
H103 H 0.7161 0.22446 0.6949 0.0
H104 H 0.95037 0.09762 0.85982 0.0
H105 H 0.81252 0.96975 0.81548 0.0
H106 H 0.8494 0.33706 0.74757 0.0
H107 H 0.76181 0.2843 0.964 0.0
Cd108 Cd 0.66991 0.79223 0.23978 0.0
Cd109 Cd 0.66524 0.8685 0.38639 0.0
C110 C 0.74347 0.7532 0.23348 0.0
N111 N 0.73955 0.79163 0.20744 0.0
C112 C 0.82449 0.83935 0.18875 0.0
C113 C 0.8298 0.80328 0.22807 0.0
C114 C 0.78891 0.75838 0.24474 0.0
C115 C 0.77822 0.8327 0.17895 0.0
H116 H 0.7119 0.72078 0.25485 0.0
H117 H 0.77374 0.86235 0.15746 0.0
C118 C 0.70654 0.91835 0.19147 0.0
C119 C 0.57797 0.84992 0.26458 0.0
C120 C 0.53196 0.84218 0.24548 0.0
C121 C 0.49398 0.81859 0.30119 0.0
C122 C 0.50299 0.80084 0.37334 0.0
C123 C 0.54963 0.80937 0.39007 0.0
N124 N 0.58602 0.83337 0.33578 0.0
H125 H 0.60751 0.87085 0.22386 0.0
H126 H 0.55746 0.79924 0.4484 0.0
C127 C 0.76605 0.96596 0.39518 0.0
N128 N 0.74809 0.91862 0.37459 0.0
C129 C 0.82116 0.93709 0.3063 0.0
C130 C 0.83784 0.98652 0.31813 0.0
C131 C 0.81107 1.00086 0.3667 0.0
C132 C 0.77542 0.90328 0.3351 0.0
H133 H 0.74354 0.97706 0.42694 0.0
H134 H 0.76011 0.86543 0.32033 0.0
C135 C 0.70726 0.78802 0.44863 0.0
C136 C 0.62056 0.71618 0.12711 0.0
N137 N 0.59133 0.7524 0.29218 0.0
C138 C 0.58039 0.72618 0.36187 0.0
C139 C 0.5324 0.69178 0.37951 0.0
C140 C 0.49515 0.68405 0.32479 0.0
C141 C 0.50769 0.71314 0.25492 0.0
C142 C 0.55606 0.74584 0.23855 0.0
C143 C 0.63616 0.91881 0.48936 0.0
O144 O 0.69878 0.87638 0.16949 0.0
O145 O 0.69701 0.92379 0.26428 0.0
O146 O 0.69016 0.81511 0.47087 0.0
O147 O 0.70575 0.77812 0.37308 0.0
O148 O 0.63678 0.76007 0.1059 0.0
O149 O 0.62853 0.70902 0.1996 0.0
O150 O 0.64308 0.8857 0.51818 0.0
O151 O 0.64612 0.92928 0.41565 0.0
H152 H 0.60899 0.72952 0.40119 0.0
H153 H 0.56569 0.76553 0.18189 0.0
H154 H 0.85563 0.87416 0.17446 0.0
H155 H 0.79215 0.72966 0.27421 0.0
H156 H 0.5267 0.85643 0.18908 0.0
H157 H 0.47518 0.78344 0.41888 0.0
H158 H 0.84152 0.92528 0.26992 0.0
H159 H 0.82345 0.03891 0.37779 0.0
H160 H 0.52525 0.66954 0.43299 0.0
H161 H 0.48072 0.7098 0.2115 0.0
Cd162 Cd 0.80431 0.69293 0.90705 0.0
Cd163 Cd 0.87521 0.67231 0.76201 0.0
C164 C 0.80358 0.78745 0.97137 0.0
N165 N 0.83524 0.77079 0.96471 0.0
C166 C 0.90154 0.84992 0.99408 0.0
C167 C 0.87024 0.86872 0.99205 0.0
C168 C 0.82036 0.83654 0.98494 0.0
C169 C 0.88329 0.80063 0.97945 0.0
H170 H 0.76564 0.7636 0.95965 0.0
H171 H 0.90859 0.78795 0.97227 0.0
C172 C 0.91929 0.71017 0.9705 0.0
C173 C 0.84543 0.57855 0.86663 0.0
C174 C 0.83033 0.52975 0.88039 0.0
C175 C 0.79855 0.49414 0.8254 0.0
C176 C 0.78141 0.50908 0.75893 0.0
C177 C 0.79798 0.55851 0.74697 0.0
N178 N 0.82875 0.59194 0.80134 0.0
H179 H 0.87251 0.60603 0.90565 0.0
H180 H 0.78785 0.57043 0.69265 0.0
C181 C 0.96881 0.76871 0.71733 0.0
N182 N 0.92481 0.754 0.75051 0.0
C183 C 0.9511 0.83243 0.80538 0.0
C184 C 0.99833 0.84661 0.78126 0.0
C185 C 0.00655 0.81538 0.73207 0.0
C186 C 0.91453 0.78514 0.79014 0.0
H187 H 0.97584 0.74295 0.68618 0.0
H188 H 0.87934 0.77207 0.81635 0.0
C189 C 0.79798 0.71549 0.69095 0.0
C190 C 0.7091 0.66321 0.95078 0.0
N191 N 0.7645 0.6084 0.89461 0.0
C192 C 0.73341 0.59198 0.83064 0.0
C193 C 0.69825 0.54313 0.82456 0.0
C194 C 0.69461 0.51018 0.88488 0.0
C195 C 0.72701 0.52827 0.95098 0.0
C196 C 0.76115 0.57797 0.95556 0.0
C197 C 0.9317 0.64056 0.68045 0.0
O198 O 0.87754 0.70211 0.99292 0.0
O199 O 0.92532 0.70445 0.89544 0.0
O200 O 0.81998 0.69255 0.67079 0.0
O201 O 0.79422 0.72211 0.76642 0.0
O202 O 0.73815 0.66175 1.00245 0.0
O203 O 0.72616 0.68235 0.88272 0.0
O204 O 0.90065 0.64646 0.64123 0.0
O205 O 0.9367 0.65135 0.7548 0.0
H206 H 0.73487 0.61734 0.7855 0.0
H207 H 0.78425 0.59241 1.00836 0.0
H208 H 0.94019 0.87377 0.99957 0.0
H209 H 0.79488 0.84964 0.9822 0.0
H210 H 0.84607 0.52059 0.93081 0.0
H211 H 0.757 0.48315 0.71479 0.0
H212 H 0.94359 0.85618 0.84167 0.0
H213 H 0.04256 0.82492 0.71241 0.0
H214 H 0.67318 0.53182 0.77408 0.0
H215 H 0.72558 0.50455 0.99931 0.0
Cd216 Cd 0.20177 0.89187 0.26645 0.0
Cd217 Cd 0.13535 0.79947 0.4088 0.0
C218 C 0.20209 0.98568 0.19575 0.0
N219 N 0.1704 0.93767 0.20665 0.0
C220 C 0.10362 0.9505 0.18322 0.0
C221 C 0.13528 1.00062 0.18216 0.0
C222 C 0.18525 0.01801 0.18343 0.0
C223 C 0.122 0.91948 0.19637 0.0
H224 H 0.24032 0.99974 0.20385 0.0
H225 H 0.09681 0.8817 0.20641 0.0
C226 C 0.08737 0.79313 0.20357 0.0
C227 C 0.16318 0.73564 0.2964 0.0
C228 C 0.17801 0.70191 0.28022 0.0
C229 C 0.21027 0.6976 0.33339 0.0
C230 C 0.2285 0.72964 0.39994 0.0
C231 C 0.21198 0.76225 0.41461 0.0
N232 N 0.18043 0.76513 0.36245 0.0
H233 H 0.13566 0.73627 0.25893 0.0
H234 H 0.2228 0.78396 0.4694 0.0
C235 C 0.03651 0.79274 0.44795 0.0
N236 N 0.08059 0.82542 0.41858 0.0
C237 C 0.05034 0.87487 0.36649 0.0
C238 C 1.0035 0.8387 0.38692 0.0
C239 C 0.99701 0.79869 0.43265 0.0
C240 C 0.08883 0.86717 0.38237 0.0
H241 H 0.03111 0.75988 0.47663 0.0
H242 H 0.12421 0.89215 0.35929 0.0
C243 C 0.20885 0.92112 0.48028 0.0
C244 C 0.29703 0.95819 0.22496 0.0
N245 N 0.24325 0.84873 0.27765 0.0
C246 C 0.27439 0.86326 0.34173 0.0
C247 C 0.31162 0.85232 0.34455 0.0
C248 C 0.31713 0.82645 0.28062 0.0
C249 C 0.28444 0.81135 0.21539 0.0
C250 C 0.24795 0.82377 0.21435 0.0
C251 C 0.08513 0.7132 0.49896 0.0
O252 O 0.12863 0.82774 0.18127 0.0
O253 O 0.08207 0.78031 0.27814 0.0
O254 O 0.18981 0.87613 0.49925 0.0
O255 O 0.21047 0.93182 0.40533 0.0
O256 O 0.26851 0.92765 0.17271 0.0
O257 O 0.27931 0.96025 0.29243 0.0
O258 O 0.11452 0.75266 0.5343 0.0
O259 O 0.0793 0.71531 0.42372 0.0
H260 H 0.27163 0.8854 0.38895 0.0
H261 H 0.22487 0.81548 0.16164 0.0
H262 H 0.06487 0.93588 0.18212 0.0
H263 H 0.21105 0.05656 0.1835 0.0
H264 H 0.16153 0.67723 0.22969 0.0
H265 H 0.25362 0.72815 0.44247 0.0
H266 H 0.05642 0.90663 0.33291 0.0
H267 H 0.96134 0.76992 0.4494 0.0
H268 H 0.33701 0.8655 0.39473 0.0
H269 H 0.2887 0.79254 0.16404 0.0
Cd270 Cd 0.33658 0.12492 0.93221 0.0
Cd271 Cd 0.34568 0.20829 0.78522 0.0
C272 C 0.25731 0.01374 0.93796 0.0
N273 N 0.26423 0.05733 0.9639 0.0
C274 C 0.17971 0.02549 0.98026 0.0
C275 C 0.1717 0.983 0.94135 0.0
C276 C 0.21067 0.97566 0.92547 0.0
C277 C 0.2271 0.06289 0.9911 0.0
H278 H 0.28767 0.01039 0.91745 0.0
H279 H 0.23384 0.09787 1.01251 0.0
C280 C 0.30567 0.21805 0.98201 0.0
C281 C 0.43671 0.27521 0.90127 0.0
C282 C 0.48423 0.31192 0.9164 0.0
C283 C 0.52099 0.32129 0.85998 0.0
C284 C 0.50848 0.29093 0.79122 0.0
C285 C 0.4603 0.25555 0.77743 0.0
N286 N 0.42557 0.24794 0.83252 0.0
H287 H 0.40833 0.27075 0.9419 0.0
H288 H 0.4502 0.23543 0.72098 0.0
C289 C 0.24988 0.21403 0.7753 0.0
N290 N 0.2642 0.18178 0.79624 0.0
C291 C 0.19039 0.13253 0.8666 0.0
C292 C 0.1776 0.1683 0.85445 0.0
C293 C 0.20642 0.20803 0.80432 0.0
C294 C 0.23452 0.14015 0.8366 0.0
H295 H 0.27422 0.24667 0.74269 0.0
H296 H 0.24704 0.11524 0.85135 0.0
C297 C 0.29779 0.08399 0.72396 0.0
C298 C 0.3844 0.09751 1.0464 0.0
N299 N 0.41402 0.15873 0.8753 0.0
C300 C 0.42129 0.1416 0.80414 0.0
C301 C 0.46768 0.15185 0.78211 0.0
C302 C 0.50683 0.1791 0.83457 0.0
C303 C 0.49853 0.19707 0.90681 0.0
C304 C 0.45159 0.18577 0.92663 0.0
C305 C 0.37828 0.28843 0.68238 0.0
O306 O 0.31129 0.1824 1.00287 0.0
O307 O 0.31612 0.23359 0.90957 0.0
O308 O 0.3166 0.12841 0.70179 0.0
O309 O 0.29881 0.07532 0.79947 0.0
O310 O 0.37163 0.12825 1.06539 0.0
O311 O 0.37306 0.07923 0.97602 0.0
O312 O 0.36703 0.24712 0.65306 0.0
O313 O 0.37167 0.29038 0.75725 0.0
H314 H 0.39108 0.11784 0.76639 0.0
H315 H 0.44485 0.19732 0.98445 0.0
H316 H 0.14998 0.03163 0.99374 0.0
H317 H 0.2052 0.9428 0.89595 0.0
H318 H 0.49105 0.33474 0.96915 0.0
H319 H 0.5351 0.29556 0.74636 0.0
H320 H 0.16847 0.10124 0.90402 0.0
H321 H 0.19692 0.23575 0.79213 0.0
H322 H 0.47255 0.13691 0.72619 0.0
H323 H 0.5275 0.21729 0.94977 0.0
C324 C 0.2169 0.59109 0.24222 0.0
C325 C 0.21662 0.56556 0.31214 0.0
H326 H 0.2172 0.65364 0.19361 0.0
C327 C 0.22205 0.58785 0.38817 0.0
H328 H 0.21288 0.57532 0.18247 0.0
C329 C 0.22288 0.63211 0.39476 0.0
C330 C 0.21924 0.65586 0.32526 0.0
H331 H 0.22338 0.56999 0.44326 0.0
H332 H 0.22333 0.64591 0.45498 0.0
C333 C 0.2186 0.63584 0.2487 0.0
C334 C 0.55689 0.14182 0.7978 0.0
C335 C 0.55459 0.18338 0.81949 0.0
H336 H 0.60203 0.11068 0.77805 0.0
C337 C 0.5979 0.2273 0.83314 0.0
H338 H 0.52423 0.10733 0.7882 0.0
C339 C 0.64261 0.22916 0.82688 0.0
C340 C 0.64431 0.18697 0.8081 0.0
H341 H 0.59708 0.25988 0.84979 0.0
H342 H 0.6756 0.26294 0.83911 0.0
C343 C 0.60128 0.14358 0.79258 0.0
C344 C 0.37234 0.57497 0.2764 0.0
C345 C 0.35591 0.55469 0.35349 0.0
H346 H 0.42899 0.62968 0.20638 0.0
C347 C 0.38258 0.58086 0.42203 0.0
H348 H 0.35214 0.55662 0.22227 0.0
C349 C 0.42629 0.62444 0.4132 0.0
C350 C 0.44488 0.64251 0.33559 0.0
H351 H 0.37117 0.56655 0.48254 0.0
H352 H 0.44622 0.64297 0.46736 0.0
C353 C 0.4164 0.61777 0.26746 0.0
C354 C 0.78813 0.37336 0.76954 0.0
C355 C 0.79104 0.35541 0.8461 0.0
H356 H 0.78892 0.43123 0.70262 0.0
C357 C 0.78838 0.37965 0.91573 0.0
H358 H 0.78866 0.355 0.71452 0.0
C359 C 0.78686 0.42273 0.90891 0.0
C360 C 0.78882 0.44321 0.8324 0.0
H361 H 0.79053 0.36723 0.97589 0.0
H362 H 0.78653 0.44121 0.96393 0.0
C363 C 0.78743 0.41688 0.76273 0.0
C364 C 0.35974 0.77898 0.3043 0.0
C365 C 0.36073 0.82147 0.27798 0.0
H366 H 0.4013 0.74437 0.33163 0.0
C367 C 0.40484 0.86158 0.25528 0.0
H368 H 0.32601 0.74774 0.3226 0.0
C369 C 0.44761 0.85981 0.26026 0.0
C370 C 0.44733 0.8179 0.28866 0.0
H371 H 0.40635 0.89487 0.23566 0.0
H372 H 0.48121 0.89211 0.24493 0.0
C373 C 0.40277 0.77724 0.30985 0.0
C374 C 0.59633 0.39035 0.79824 0.0
C375 C 0.57002 0.36574 0.86787 0.0
H376 H 0.65695 0.45331 0.7491 0.0
C377 C 0.58912 0.38672 0.94422 0.0
H378 H 0.58338 0.37629 0.738 0.0
C379 C 0.63077 0.43253 0.95029 0.0
C380 C 0.6551 0.45831 0.88021 0.0
H381 H 0.57111 0.36859 0.99965 0.0
H382 H 0.64238 0.44858 1.00989 0.0
C383 C 0.63845 0.43548 0.80444 0.0
C384 C 0.1389 0.11877 0.20797 0.0
C385 C 0.11549 0.11037 0.28308 0.0
H386 H 0.16241 0.08901 0.11396 0.0
C387 C 0.08749 0.063 0.31165 0.0
H388 H 0.16004 0.15535 0.1847 0.0
C389 C 0.0883 0.02497 0.27081 0.0
C390 C 0.11769 0.03442 0.20188 0.0
H391 H 0.06906 0.05612 0.36937 0.0
H392 H 0.07068 0.98948 0.29886 0.0
C393 C 0.14002 0.08091 0.16741 0.0
C394 C 0.0526 0.13036 0.93282 0.0
C395 C 0.06038 0.17469 0.96545 0.0
H396 H 0.08425 0.09353 0.87076 0.0
C397 C 0.10789 0.21305 0.97483 0.0
H398 H 0.01649 0.09974 0.92609 0.0
C399 C 0.14597 0.20989 0.94101 0.0
C400 C 0.13771 0.16769 0.90024 0.0
H401 H 0.11519 0.2471 1.00213 0.0
H402 H 0.18156 0.24156 0.94264 0.0
C403 C 0.09124 0.12683 0.90054 0.0
C404 C 0.91101 0.09685 0.19181 0.0
C405 C 0.95817 0.10764 0.21066 0.0
H406 H 0.83608 0.05006 0.21354 0.0
C407 C 0.9654 0.07266 0.25079 0.0
H408 H 0.90445 0.12287 0.16009 0.0
C409 C 0.92579 0.03058 0.28151 0.0
C410 C 0.87906 0.02354 0.27181 0.0
H411 H 1.00146 0.07976 0.265 0.0
H412 H 0.9319 0.0058 0.31802 0.0
C413 C 0.87187 0.05538 0.22279 0.0
C414 C 0.92389 0.98308 0.87291 0.0
C415 C 0.89504 1.0018 0.9 0.0
H416 H 0.93985 0.92578 0.88444 0.0
C417 C 0.86894 0.98471 0.9724 0.0
H418 H 0.94444 0.99625 0.81736 0.0
C419 C 0.86584 0.94422 1.01066 0.0
C420 C 0.88904 0.92079 0.97667 0.0
H421 H 0.84724 0.99971 0.99471 0.0
H422 H 0.84146 0.92838 1.06146 0.0
C423 C 0.92124 0.94284 0.91166 0.0
C424 C 0.91855 0.83409 0.2242 0.0
C425 C 0.87559 0.81593 0.26812 0.0
H426 H 0.99345 0.85546 0.22828 0.0
C427 C 0.87617 0.81111 0.35272 0.0
H428 H 0.91873 0.83852 0.15913 0.0
C429 C 0.91873 0.82184 0.39261 0.0
C430 C 0.96133 0.83742 0.34836 0.0
H431 H 0.84348 0.79857 0.38791 0.0
H432 H 0.91805 0.81643 0.4576 0.0
C433 C 0.96123 0.84447 0.26404 0.0
C434 C 0.12426 0.94917 0.81603 0.0
C435 C 0.12547 0.95198 0.90106 0.0
H436 H 0.08187 0.91454 0.71049 0.0
C437 C 0.08309 0.92527 0.94561 0.0
H438 H 0.15669 0.97063 0.78078 0.0
C439 C 0.04041 0.89316 0.90554 0.0
C440 C 0.03971 0.88817 0.82052 0.0
H441 H 0.08357 0.9275 1.01117 0.0
H442 H 0.00888 0.87 0.94151 0.0
C443 C 0.0816 0.91759 0.77595 0.0
C444 C 0.25468 0.24629 0.17564 0.0
C445 C 0.24017 0.27938 0.14834 0.0
H446 H 0.285 0.20067 0.14684 0.0
C447 C 0.24879 0.29284 1.06587 0.0
H448 H 0.24906 0.2347 0.23832 0.0
C449 C 0.27088 0.27406 1.01331 0.0
C450 C 0.28431 0.24005 1.0402 0.0
H451 H 0.23864 0.31819 1.0417 0.0
H452 H 0.27654 0.28564 0.95058 0.0
C453 C 0.2756 0.2266 0.12272 0.0
C454 C 0.01364 0.26569 0.6747 0.0
C455 C 0.9655 0.24118 0.64537 0.0
H456 H 0.0899 0.30274 0.64727 0.0
C457 C 0.95962 0.23762 0.5601 0.0
H458 H 0.02039 0.2692 0.73945 0.0
C459 C 0.99983 0.25769 0.5068 0.0
C460 C 0.04798 0.28155 0.53606 0.0
H461 H 0.92363 0.21913 0.53413 0.0
H462 H 0.99302 0.25361 0.44207 0.0
C463 C 0.0539 0.285 0.62135 0.0
C464 C 0.73564 0.95729 1.0508 0.0
C465 C 0.72824 0.96192 0.13394 0.0
H466 H 0.76095 0.99223 0.93519 0.0
C467 C 0.74277 0.00945 0.16211 0.0
H468 H 0.72528 0.92189 1.02573 0.0
C469 C 0.76472 0.05052 0.11011 0.0
C470 C 0.772 0.04581 1.02696 0.0
H471 H 0.73815 0.01528 0.22542 0.0
H472 H 0.7758 0.08606 0.13525 0.0
C473 C 0.75638 0.99812 0.99846 0.0
C474 C 0.77442 0.72483 0.54347 0.0
C475 C 0.77502 0.73386 0.62776 0.0
H476 H 0.75304 0.7335 0.42284 0.0
C477 C 0.75252 0.76075 0.65161 0.0
H478 H 0.79097 0.7045 0.5212 0.0
C479 C 0.73081 0.77781 0.59464 0.0
C480 C 0.73001 0.7687 0.51044 0.0
H481 H 0.75168 0.76893 0.71518 0.0
H482 H 0.71451 0.79836 0.61705 0.0
C483 C 0.75234 0.74164 0.48642 0.0
C484 C 0.01077 0.75398 1.00359 0.0
C485 C 0.96219 0.7299 1.03065 0.0
H486 H 0.08686 0.7927 1.03396 0.0
C487 C 0.95577 0.72684 0.11591 0.0
H488 H 0.01819 0.75823 0.93913 0.0
C489 C 0.99569 0.746 0.17096 0.0
C490 C 0.04427 0.77029 0.14383 0.0
H491 H 0.91957 0.70936 0.14055 0.0
H492 H 0.98834 0.7426 0.23545 0.0
C493 C 0.05066 0.77411 1.05861 0.0
C494 C 0.25263 0.99253 0.68565 0.0
C495 C 0.27488 0.04198 0.66193 0.0
H496 H 0.21488 0.91678 0.6502 0.0
C497 C 0.27442 0.05042 0.57777 0.0
H498 H 0.25161 0.98358 0.74923 0.0
C499 C 0.25317 0.01172 0.52051 0.0
C500 C 0.23103 0.96228 0.54397 0.0
H501 H 0.29069 0.08731 0.5556 0.0
H502 H 0.25428 0.02086 0.45697 0.0
C503 C 0.23125 0.95371 0.62823 0.0
C504 C 0.64111 0.67861 0.93795 0.0
C505 C 0.66055 0.65194 0.97369 0.0
H506 H 0.60627 0.71948 0.96339 0.0
C507 C 0.64015 0.62602 1.04509 0.0
H508 H 0.65443 0.69688 0.88042 0.0
C509 C 0.61051 0.63737 0.09066 0.0
C510 C 0.60597 0.67739 1.06688 0.0
H511 H 0.65268 0.60299 1.07137 0.0
H512 H 0.60169 0.62325 0.15187 0.0
C513 C 0.61284 0.69108 0.98507 0.0
C514 C 0.05474 0.67093 0.62909 0.0
C515 C 0.0499 0.67112 0.54475 0.0
H516 H 0.0179 0.65775 0.7416 0.0
C517 C 0.00452 0.64113 0.50869 0.0
H518 H 0.08969 0.69222 0.65802 0.0
C519 C 0.96325 0.62305 0.55614 0.0
C520 C 0.96811 0.63347 0.63921 0.0
H521 H 1.00013 0.6389 0.44334 0.0
H522 H 0.9283 0.60741 0.52652 0.0
C523 C 0.01347 0.65132 0.67675 0.0
C524 C 0.39596 0.03012 0.0861 0.0
C525 C 0.39956 0.07457 0.10796 0.0
H526 H 0.35487 0.95374 0.10769 0.0
C527 C 0.39245 0.08222 0.18928 0.0
H528 H 0.40512 0.0244 1.02536 0.0
C529 C 0.36452 0.04187 0.23741 0.0
C530 C 0.34577 0.99544 0.20306 0.0
H531 H 0.39844 0.11726 0.20955 0.0
H532 H 0.35073 0.04719 0.29419 0.0
C533 C 0.3668 0.98951 0.13275 0.0
C534 C 0.38671 0.32308 0.54656 0.0
C535 C 0.38559 0.32858 0.63057 0.0
H536 H 0.35615 0.32728 0.43418 0.0
C537 C 0.37214 0.36128 0.66202 0.0
H538 H 0.3992 0.29989 0.52084 0.0
C539 C 0.34541 0.37495 0.6135 0.0
C540 C 0.33555 0.3583 0.53344 0.0
H541 H 0.37355 0.36832 0.72661 0.0
H542 H 0.32733 0.39253 0.64113 0.0
C543 C 0.36162 0.3384 0.49729 0.0
C544 C 0.99427 0.36079 0.18246 0.0
C545 C 0.03965 0.3783 0.14575 0.0
H546 H 0.91818 0.32075 0.16155 0.0
C547 C 0.04513 0.39043 1.06342 0.0
H548 H 0.98947 0.35322 0.24691 0.0
C549 C 1.00415 0.37365 1.01505 0.0
C550 C 0.95864 0.34291 1.04945 0.0
H551 H 0.0802 0.40603 1.03465 0.0
H552 H 0.00893 0.37673 0.94984 0.0
C553 C 0.95328 0.34241 0.13373 0.0
C554 C 0.67006 0.03823 0.56046 0.0
C555 C 0.67916 0.03068 0.64049 0.0
H556 H 0.64254 0.0044 0.44648 0.0
C557 C 0.65235 0.98451 0.67563 0.0
H558 H 0.68863 0.07411 0.53368 0.0
C559 C 0.62726 0.9445 0.62543 0.0
C560 C 0.62925 0.95178 0.54156 0.0
H561 H 0.65714 0.97835 0.73878 0.0
H562 H 0.61411 0.90858 0.65054 0.0
C563 C 0.6434 0.99825 0.51097 0.0
loop_
_geom_bond_atom_site_label_1
_geom_bond_atom_site_label_2
_geom_bond_distance
_geom_bond_site_symmetry_2
_ccdc_geom_bond_type
Cd0 N3 2.334 . S
Cd0 N29 2.304 . S
Cd0 O36 2.268 . S
Cd0 O39 2.273 . S
Cd0 O40 2.417 . S
Cd0 O41 2.330 . S
Cd1 N16 2.304 . S
Cd1 N20 2.334 . S
Cd1 O37 2.273 . S
Cd1 O38 2.268 . S
Cd1 O42 2.417 . S
Cd1 O43 2.330 . S
C2 N3 1.332 . S
C2 C6 1.381 . S
C2 H8 0.931 . S
N3 Cd0 2.334 . S
N3 C2 1.332 . S
N3 C7 1.328 . S
C4 C5 1.396 . S
C4 C7 1.378 . S
C4 H46 0.931 . S
C5 C4 1.396 . S
C5 C6 1.382 . S
C6 C2 1.381 . S
C6 C5 1.382 . S
C6 H47 0.930 1_455 S
C7 N3 1.328 . S
C7 C4 1.378 . S
C7 H9 0.930 . S
H8 C2 0.931 . S
H9 C7 0.930 . S
C10 O36 1.238 . S
C10 O37 1.253 . S
C11 C12 1.379 . S
C11 N16 1.337 . S
C11 H17 0.929 . S
C12 C11 1.379 . S
C12 C13 1.380 . S
C12 H48 0.929 . S
C13 C12 1.380 . S
C13 C14 1.399 . S
C14 C13 1.399 . S
C14 C15 1.376 . S
C14 H49 0.931 . S
C15 C14 1.376 . S
C15 N16 1.338 . S
C15 H18 0.930 . S
N16 Cd1 2.304 . S
N16 C11 1.337 . S
N16 C15 1.338 . S
H17 C11 0.929 . S
H18 C15 0.930 . S
C19 N20 1.332 . S
C19 C23 1.381 . S
C19 H25 0.931 . S
N20 Cd1 2.334 . S
N20 C19 1.332 . S
N20 C24 1.328 . S
C21 C22 1.396 . S
C21 C24 1.378 . S
C21 H50 0.931 . S
C22 C21 1.396 . S
C22 C23 1.382 . S
C23 C19 1.381 . S
C23 C22 1.382 . S
C23 H51 0.930 . S
C24 N20 1.328 . S
C24 C21 1.378 . S
C24 H26 0.930 . S
H25 C19 0.931 . S
H26 C24 0.930 . S
C27 O38 1.238 . S
C27 O39 1.253 . S
C28 O40 1.239 . S
C28 O41 1.230 . S
N29 Cd0 2.304 . S
N29 C30 1.337 . S
N29 C34 1.338 . S
C30 N29 1.337 . S
C30 C31 1.379 . S
C30 H44 0.929 . S
C31 C30 1.379 . S
C31 C32 1.380 . S
C31 H52 0.929 . S
C32 C31 1.380 . S
C32 C33 1.399 . S
C33 C32 1.399 . S
C33 C34 1.376 . S
C33 H53 0.931 . S
C34 N29 1.338 . S
C34 C33 1.376 . S
C34 H45 0.930 . S
C35 O42 1.239 . S
C35 O43 1.230 . S
O36 Cd0 2.268 . S
O36 C10 1.238 . S
O37 Cd1 2.273 . S
O37 C10 1.253 . S
O38 Cd1 2.268 . S
O38 C27 1.238 . S
O39 Cd0 2.273 . S
O39 C27 1.253 . S
O40 Cd0 2.417 . S
O40 C28 1.239 . S
O41 Cd0 2.330 . S
O41 C28 1.230 . S
O42 Cd1 2.417 . S
O42 C35 1.239 . S
O43 Cd1 2.330 . S
O43 C35 1.230 . S
H44 C30 0.929 . S
H45 C34 0.930 . S
H46 C4 0.931 . S
H47 C6 0.930 1_655 S
H48 C12 0.929 . S
H49 C14 0.931 . S
H50 C21 0.931 . S
H51 C23 0.930 . S
H52 C31 0.929 . S
H53 C33 0.931 . S
Cd54 N57 2.334 . S
Cd54 N83 2.304 . S
Cd54 O90 2.268 . S
Cd54 O93 2.273 . S
Cd54 O94 2.417 . S
Cd54 O95 2.330 . S
Cd55 N70 2.304 . S
Cd55 N74 2.334 . S
Cd55 O91 2.273 . S
Cd55 O92 2.268 . S
Cd55 O96 2.417 . S
Cd55 O97 2.330 . S
C56 N57 1.332 . S
C56 C60 1.381 . S
C56 H62 0.931 . S
N57 Cd54 2.334 . S
N57 C56 1.332 . S
N57 C61 1.328 . S
C58 C59 1.396 . S
C58 C61 1.378 . S
C58 H100 0.931 . S
C59 C58 1.396 . S
C59 C60 1.382 . S
C60 C56 1.381 . S
C60 C59 1.382 . S
C60 H101 0.930 1_655 S
C61 N57 1.328 . S
C61 C58 1.378 . S
C61 H63 0.930 . S
H62 C56 0.931 . S
H63 C61 0.930 . S
C64 O90 1.238 . S
C64 O91 1.253 . S
C65 C66 1.379 . S
C65 N70 1.337 . S
C65 H71 0.929 . S
C66 C65 1.379 . S
C66 C67 1.380 . S
C66 H102 0.929 . S
C67 C66 1.380 . S
C67 C68 1.399 . S
C68 C67 1.399 . S
C68 C69 1.376 . S
C68 H103 0.931 . S
C69 C68 1.376 . S
C69 N70 1.338 . S
C69 H72 0.930 . S
N70 Cd55 2.304 . S
N70 C65 1.337 . S
N70 C69 1.338 . S
H71 C65 0.929 . S
H72 C69 0.930 . S
C73 N74 1.332 . S
C73 C77 1.381 . S
C73 H79 0.931 . S
N74 Cd55 2.334 . S
N74 C73 1.332 . S
N74 C78 1.328 . S
C75 C76 1.396 . S
C75 C78 1.378 . S
C75 H104 0.931 . S
C76 C75 1.396 . S
C76 C77 1.382 . S
C77 C73 1.381 . S
C77 C76 1.382 . S
C77 H105 0.930 1_545 S
C78 N74 1.328 . S
C78 C75 1.378 . S
C78 H80 0.930 . S
H79 C73 0.931 . S
H80 C78 0.930 . S
C81 O92 1.238 . S
C81 O93 1.253 . S
C82 O94 1.239 . S
C82 O95 1.230 . S
N83 Cd54 2.304 . S
N83 C84 1.337 . S
N83 C88 1.338 . S
C84 N83 1.337 . S
C84 C85 1.379 . S
C84 H98 0.929 . S
C85 C84 1.379 . S
C85 C86 1.380 . S
C85 H106 0.929 . S
C86 C85 1.380 . S
C86 C87 1.399 . S
C87 C86 1.399 . S
C87 C88 1.376 . S
C87 H107 0.931 . S
C88 N83 1.338 . S
C88 C87 1.376 . S
C88 H99 0.930 . S
C89 O96 1.239 . S
C89 O97 1.230 . S
O90 Cd54 2.268 . S
O90 C64 1.238 . S
O91 Cd55 2.273 . S
O91 C64 1.253 . S
O92 Cd55 2.268 . S
O92 C81 1.238 . S
O93 Cd54 2.273 . S
O93 C81 1.253 . S
O94 Cd54 2.417 . S
O94 C82 1.239 . S
O95 Cd54 2.330 . S
O95 C82 1.230 . S
O96 Cd55 2.417 . S
O96 C89 1.239 . S
O97 Cd55 2.330 . S
O97 C89 1.230 . S
H98 C84 0.929 . S
H99 C88 0.930 . S
H100 C58 0.931 . S
H101 C60 0.930 1_455 S
H102 C66 0.929 . S
H103 C68 0.931 . S
H104 C75 0.931 . S
H105 C77 0.930 1_565 S
H106 C85 0.929 . S
H107 C87 0.931 . S
Cd108 N111 2.334 . S
Cd108 N137 2.304 . S
Cd108 O144 2.268 . S
Cd108 O147 2.273 . S
Cd108 O148 2.417 . S
Cd108 O149 2.330 . S
Cd109 N124 2.304 . S
Cd109 N128 2.334 . S
Cd109 O145 2.273 . S
Cd109 O146 2.268 . S
Cd109 O150 2.417 . S
Cd109 O151 2.330 . S
C110 N111 1.332 . S
C110 C114 1.381 . S
C110 H116 0.931 . S
N111 Cd108 2.334 . S
N111 C110 1.332 . S
N111 C115 1.328 . S
C112 C113 1.396 . S
C112 C115 1.378 . S
C112 H154 0.931 . S
C113 C112 1.396 . S
C113 C114 1.382 . S
C114 C110 1.381 . S
C114 C113 1.382 . S
C114 H155 0.930 . S
C115 N111 1.328 . S
C115 C112 1.378 . S
C115 H117 0.930 . S
H116 C110 0.931 . S
H117 C115 0.930 . S
C118 O144 1.238 . S
C118 O145 1.253 . S
C119 C120 1.379 . S
C119 N124 1.337 . S
C119 H125 0.929 . S
C120 C119 1.379 . S
C120 C121 1.380 . S
C120 H156 0.929 . S
C121 C120 1.380 . S
C121 C122 1.399 . S
C122 C121 1.399 . S
C122 C123 1.376 . S
C122 H157 0.931 . S
C123 C122 1.376 . S
C123 N124 1.338 . S
C123 H126 0.930 . S
N124 Cd109 2.304 . S
N124 C119 1.337 . S
N124 C123 1.338 . S
H125 C119 0.929 . S
H126 C123 0.930 . S
C127 N128 1.332 . S
C127 C131 1.381 . S
C127 H133 0.931 . S
N128 Cd109 2.334 . S
N128 C127 1.332 . S
N128 C132 1.328 . S
C129 C130 1.396 . S
C129 C132 1.378 . S
C129 H158 0.931 . S
C130 C129 1.396 . S
C130 C131 1.382 . S
C131 C127 1.381 . S
C131 C130 1.382 . S
C131 H159 0.930 1_565 S
C132 N128 1.328 . S
C132 C129 1.378 . S
C132 H134 0.930 . S
H133 C127 0.931 . S
H134 C132 0.930 . S
C135 O146 1.238 . S
C135 O147 1.253 . S
C136 O148 1.239 . S
C136 O149 1.230 . S
N137 Cd108 2.304 . S
N137 C138 1.337 . S
N137 C142 1.338 . S
C138 N137 1.337 . S
C138 C139 1.379 . S
C138 H152 0.929 . S
C139 C138 1.379 . S
C139 C140 1.380 . S
C139 H160 0.929 . S
C140 C139 1.380 . S
C140 C141 1.399 . S
C141 C140 1.399 . S
C141 C142 1.376 . S
C141 H161 0.931 . S
C142 N137 1.338 . S
C142 C141 1.376 . S
C142 H153 0.930 . S
C143 O150 1.239 . S
C143 O151 1.230 . S
O144 Cd108 2.268 . S
O144 C118 1.238 . S
O145 Cd109 2.273 . S
O145 C118 1.253 . S
O146 Cd109 2.268 . S
O146 C135 1.238 . S
O147 Cd108 2.273 . S
O147 C135 1.253 . S
O148 Cd108 2.417 . S
O148 C136 1.239 . S
O149 Cd108 2.330 . S
O149 C136 1.230 . S
O150 Cd109 2.417 . S
O150 C143 1.239 . S
O151 Cd109 2.330 . S
O151 C143 1.230 . S
H152 C138 0.929 . S
H153 C142 0.930 . S
H154 C112 0.931 . S
H155 C114 0.930 . S
H156 C120 0.929 . S
H157 C122 0.931 . S
H158 C129 0.931 . S
H159 C131 0.930 1_545 S
H160 C139 0.929 . S
H161 C141 0.931 . S
Cd162 N165 2.334 . S
Cd162 N191 2.304 . S
Cd162 O198 2.268 . S
Cd162 O201 2.273 . S
Cd162 O202 2.417 . S
Cd162 O203 2.330 . S
Cd163 N178 2.304 . S
Cd163 N182 2.334 . S
Cd163 O199 2.273 . S
Cd163 O200 2.268 . S
Cd163 O204 2.417 . S
Cd163 O205 2.330 . S
C164 N165 1.332 . S
C164 C168 1.381 . S
C164 H170 0.931 . S
N165 Cd162 2.334 . S
N165 C164 1.332 . S
N165 C169 1.328 . S
C166 C167 1.396 . S
C166 C169 1.378 . S
C166 H208 0.931 . S
C167 C166 1.396 . S
C167 C168 1.382 . S
C168 C164 1.381 . S
C168 C167 1.382 . S
C168 H209 0.930 . S
C169 N165 1.328 . S
C169 C166 1.378 . S
C169 H171 0.930 . S
H170 C164 0.931 . S
H171 C169 0.930 . S
C172 O198 1.238 . S
C172 O199 1.253 . S
C173 C174 1.379 . S
C173 N178 1.337 . S
C173 H179 0.929 . S
C174 C173 1.379 . S
C174 C175 1.380 . S
C174 H210 0.929 . S
C175 C174 1.380 . S
C175 C176 1.399 . S
C176 C175 1.399 . S
C176 C177 1.376 . S
C176 H211 0.931 . S
C177 C176 1.376 . S
C177 N178 1.338 . S
C177 H180 0.930 . S
N178 Cd163 2.304 . S
N178 C173 1.337 . S
N178 C177 1.338 . S
H179 C173 0.929 . S
H180 C177 0.930 . S
C181 N182 1.332 . S
C181 C185 1.381 . S
C181 H187 0.931 . S
N182 Cd163 2.334 . S
N182 C181 1.332 . S
N182 C186 1.328 . S
C183 C184 1.396 . S
C183 C186 1.378 . S
C183 H212 0.931 . S
C184 C183 1.396 . S
C184 C185 1.382 . S
C185 C181 1.381 . S
C185 C184 1.382 . S
C185 H213 0.930 1_655 S
C186 N182 1.328 . S
C186 C183 1.378 . S
C186 H188 0.930 . S
H187 C181 0.931 . S
H188 C186 0.930 . S
C189 O200 1.238 . S
C189 O201 1.253 . S
C190 O202 1.239 . S
C190 O203 1.230 . S
N191 Cd162 2.304 . S
N191 C192 1.337 . S
N191 C196 1.338 . S
C192 N191 1.337 . S
C192 C193 1.379 . S
C192 H206 0.929 . S
C193 C192 1.379 . S
C193 C194 1.380 . S
C193 H214 0.929 . S
C194 C193 1.380 . S
C194 C195 1.399 . S
C195 C194 1.399 . S
C195 C196 1.376 . S
C195 H215 0.931 . S
C196 N191 1.338 . S
C196 C195 1.376 . S
C196 H207 0.930 . S
C197 O204 1.239 . S
C197 O205 1.230 . S
O198 Cd162 2.268 . S
O198 C172 1.238 . S
O199 Cd163 2.273 . S
O199 C172 1.253 . S
O200 Cd163 2.268 . S
O200 C189 1.238 . S
O201 Cd162 2.273 . S
O201 C189 1.253 . S
O202 Cd162 2.417 . S
O202 C190 1.239 . S
O203 Cd162 2.330 . S
O203 C190 1.230 . S
O204 Cd163 2.417 . S
O204 C197 1.239 . S
O205 Cd163 2.330 . S
O205 C197 1.230 . S
H206 C192 0.929 . S
H207 C196 0.930 . S
H208 C166 0.931 . S
H209 C168 0.930 . S
H210 C174 0.929 . S
H211 C176 0.931 . S
H212 C183 0.931 . S
H213 C185 0.930 1_455 S
H214 C193 0.929 . S
H215 C195 0.931 . S
Cd216 N219 2.334 . S
Cd216 N245 2.304 . S
Cd216 O252 2.268 . S
Cd216 O255 2.273 . S
Cd216 O256 2.417 . S
Cd216 O257 2.330 . S
Cd217 N232 2.304 . S
Cd217 N236 2.334 . S
Cd217 O253 2.273 . S
Cd217 O254 2.268 . S
Cd217 O258 2.417 . S
Cd217 O259 2.330 . S
C218 N219 1.332 . S
C218 C222 1.381 . S
C218 H224 0.931 . S
N219 Cd216 2.334 . S
N219 C218 1.332 . S
N219 C223 1.328 . S
C220 C221 1.396 . S
C220 C223 1.378 . S
C220 H262 0.931 . S
C221 C220 1.396 . S
C221 C222 1.382 . S
C222 C218 1.381 . S
C222 C221 1.382 . S
C222 H263 0.930 1_565 S
C223 N219 1.328 . S
C223 C220 1.378 . S
C223 H225 0.930 . S
H224 C218 0.931 . S
H225 C223 0.930 . S
C226 O252 1.238 . S
C226 O253 1.253 . S
C227 C228 1.379 . S
C227 N232 1.337 . S
C227 H233 0.929 . S
C228 C227 1.379 . S
C228 C229 1.380 . S
C228 H264 0.929 . S
C229 C228 1.380 . S
C229 C230 1.399 . S
C230 C229 1.399 . S
C230 C231 1.376 . S
C230 H265 0.931 . S
C231 C230 1.376 . S
C231 N232 1.338 . S
C231 H234 0.930 . S
N232 Cd217 2.304 . S
N232 C227 1.337 . S
N232 C231 1.338 . S
H233 C227 0.929 . S
H234 C231 0.930 . S
C235 N236 1.332 . S
C235 C239 1.381 . S
C235 H241 0.931 . S
N236 Cd217 2.334 . S
N236 C235 1.332 . S
N236 C240 1.328 . S
C237 C238 1.396 . S
C237 C240 1.378 . S
C237 H266 0.931 . S
C238 C237 1.396 . S
C238 C239 1.382 . S
C239 C235 1.381 . S
C239 C238 1.382 . S
C239 H267 0.930 1_455 S
C240 N236 1.328 . S
C240 C237 1.378 . S
C240 H242 0.930 . S
H241 C235 0.931 . S
H242 C240 0.930 . S
C243 O254 1.238 . S
C243 O255 1.253 . S
C244 O256 1.239 . S
C244 O257 1.230 . S
N245 Cd216 2.304 . S
N245 C246 1.337 . S
N245 C250 1.338 . S
C246 N245 1.337 . S
C246 C247 1.379 . S
C246 H260 0.929 . S
C247 C246 1.379 . S
C247 C248 1.380 . S
C247 H268 0.929 . S
C248 C247 1.380 . S
C248 C249 1.399 . S
C249 C248 1.399 . S
C249 C250 1.376 . S
C249 H269 0.931 . S
C250 N245 1.338 . S
C250 C249 1.376 . S
C250 H261 0.930 . S
C251 O258 1.239 . S
C251 O259 1.230 . S
O252 Cd216 2.268 . S
O252 C226 1.238 . S
O253 Cd217 2.273 . S
O253 C226 1.253 . S
O254 Cd217 2.268 . S
O254 C243 1.238 . S
O255 Cd216 2.273 . S
O255 C243 1.253 . S
O256 Cd216 2.417 . S
O256 C244 1.239 . S
O257 Cd216 2.330 . S
O257 C244 1.230 . S
O258 Cd217 2.417 . S
O258 C251 1.239 . S
O259 Cd217 2.330 . S
O259 C251 1.230 . S
H260 C246 0.929 . S
H261 C250 0.930 . S
H262 C220 0.931 . S
H263 C222 0.930 1_545 S
H264 C228 0.929 . S
H265 C230 0.931 . S
H266 C237 0.931 . S
H267 C239 0.930 1_655 S
H268 C247 0.929 . S
H269 C249 0.931 . S
Cd270 N273 2.334 . S
Cd270 N299 2.304 . S
Cd270 O306 2.268 . S
Cd270 O309 2.273 . S
Cd270 O310 2.417 . S
Cd270 O311 2.330 . S
Cd271 N286 2.304 . S
Cd271 N290 2.334 . S
Cd271 O307 2.273 . S
Cd271 O308 2.268 . S
Cd271 O312 2.417 . S
Cd271 O313 2.330 . S
C272 N273 1.332 . S
C272 C276 1.381 . S
C272 H278 0.931 . S
N273 Cd270 2.334 . S
N273 C272 1.332 . S
N273 C277 1.328 . S
C274 C275 1.396 . S
C274 C277 1.378 . S
C274 H316 0.931 . S
C275 C274 1.396 . S
C275 C276 1.382 . S
C276 C272 1.381 . S
C276 C275 1.382 . S
C276 H317 0.930 1_545 S
C277 N273 1.328 . S
C277 C274 1.378 . S
C277 H279 0.930 . S
H278 C272 0.931 . S
H279 C277 0.930 . S
C280 O306 1.238 . S
C280 O307 1.253 . S
C281 C282 1.379 . S
C281 N286 1.337 . S
C281 H287 0.929 . S
C282 C281 1.379 . S
C282 C283 1.380 . S
C282 H318 0.929 . S
C283 C282 1.380 . S
C283 C284 1.399 . S
C284 C283 1.399 . S
C284 C285 1.376 . S
C284 H319 0.931 . S
C285 C284 1.376 . S
C285 N286 1.338 . S
C285 H288 0.930 . S
N286 Cd271 2.304 . S
N286 C281 1.337 . S
N286 C285 1.338 . S
H287 C281 0.929 . S
H288 C285 0.930 . S
C289 N290 1.332 . S
C289 C293 1.381 . S
C289 H295 0.931 . S
N290 Cd271 2.334 . S
N290 C289 1.332 . S
N290 C294 1.328 . S
C291 C292 1.396 . S
C291 C294 1.378 . S
C291 H320 0.931 . S
C292 C291 1.396 . S
C292 C293 1.382 . S
C293 C289 1.381 . S
C293 C292 1.382 . S
C293 H321 0.930 . S
C294 N290 1.328 . S
C294 C291 1.378 . S
C294 H296 0.930 . S
H295 C289 0.931 . S
H296 C294 0.930 . S
C297 O308 1.238 . S
C297 O309 1.253 . S
C298 O310 1.239 . S
C298 O311 1.230 . S
N299 Cd270 2.304 . S
N299 C300 1.337 . S
N299 C304 1.338 . S
C300 N299 1.337 . S
C300 C301 1.379 . S
C300 H314 0.929 . S
C301 C300 1.379 . S
C301 C302 1.380 . S
C301 H322 0.929 . S
C302 C301 1.380 . S
C302 C303 1.399 . S
C303 C302 1.399 . S
C303 C304 1.376 . S
C303 H323 0.931 . S
C304 N299 1.338 . S
C304 C303 1.376 . S
C304 H315 0.930 . S
C305 O312 1.239 . S
C305 O313 1.230 . S
O306 Cd270 2.268 . S
O306 C280 1.238 . S
O307 Cd271 2.273 . S
O307 C280 1.253 . S
O308 Cd271 2.268 . S
O308 C297 1.238 . S
O309 Cd270 2.273 . S
O309 C297 1.253 . S
O310 Cd270 2.417 . S
O310 C298 1.239 . S
O311 Cd270 2.330 . S
O311 C298 1.230 . S
O312 Cd271 2.417 . S
O312 C305 1.239 . S
O313 Cd271 2.330 . S
O313 C305 1.230 . S
H314 C300 0.929 . S
H315 C304 0.930 . S
H316 C274 0.931 . S
H317 C276 0.930 1_565 S
H318 C282 0.929 . S
H319 C284 0.931 . S
H320 C291 0.931 . S
H321 C293 0.930 . S
H322 C301 0.929 . S
H323 C303 0.931 . S
C324 C325 1.387 . S
C324 H328 0.950 . S
C324 C333 1.390 . S
C325 C324 1.387 . S
C325 C327 1.387 . S
H326 C333 0.950 . S
C327 C325 1.387 . S
C327 C329 1.390 . S
C327 H331 0.950 . S
H328 C324 0.950 . S
C329 C327 1.390 . S
C329 C330 1.387 . S
C329 H332 0.950 . S
C330 C329 1.387 . S
C330 C333 1.387 . S
H331 C327 0.950 . S
H332 C329 0.950 . S
C333 C324 1.390 . S
C333 H326 0.950 . S
C333 C330 1.387 . S
C334 C335 1.387 . S
C334 H338 0.950 . S
C334 C343 1.390 . S
C335 C334 1.387 . S
C335 C337 1.387 . S
H336 C343 0.950 . S
C337 C335 1.387 . S
C337 C339 1.390 . S
C337 H341 0.950 . S
H338 C334 0.950 . S
C339 C337 1.390 . S
C339 C340 1.387 . S
C339 H342 0.950 . S
C340 C339 1.387 . S
C340 C343 1.387 . S
H341 C337 0.950 . S
H342 C339 0.950 . S
C343 C334 1.390 . S
C343 H336 0.950 . S
C343 C340 1.387 . S
C344 C345 1.387 . S
C344 H348 0.950 . S
C344 C353 1.390 . S
C345 C344 1.387 . S
C345 C347 1.387 . S
H346 C353 0.950 . S
C347 C345 1.387 . S
C347 C349 1.390 . S
C347 H351 0.950 . S
H348 C344 0.950 . S
C349 C347 1.390 . S
C349 C350 1.387 . S
C349 H352 0.950 . S
C350 C349 1.387 . S
C350 C353 1.387 . S
H351 C347 0.950 . S
H352 C349 0.950 . S
C353 C344 1.390 . S
C353 H346 0.950 . S
C353 C350 1.387 . S
C354 C355 1.387 . S
C354 H358 0.950 . S
C354 C363 1.390 . S
C355 C354 1.387 . S
C355 C357 1.387 . S
H356 C363 0.950 . S
C357 C355 1.387 . S
C357 C359 1.390 . S
C357 H361 0.950 . S
H358 C354 0.950 . S
C359 C357 1.390 . S
C359 C360 1.387 . S
C359 H362 0.950 . S
C360 C359 1.387 . S
C360 C363 1.387 . S
H361 C357 0.950 . S
H362 C359 0.950 . S
C363 C354 1.390 . S
C363 H356 0.950 . S
C363 C360 1.387 . S
C364 C365 1.387 . S
C364 H368 0.950 . S
C364 C373 1.390 . S
C365 C364 1.387 . S
C365 C367 1.387 . S
H366 C373 0.950 . S
C367 C365 1.387 . S
C367 C369 1.390 . S
C367 H371 0.950 . S
H368 C364 0.950 . S
C369 C367 1.390 . S
C369 C370 1.387 . S
C369 H372 0.950 . S
C370 C369 1.387 . S
C370 C373 1.387 . S
H371 C367 0.950 . S
H372 C369 0.950 . S
C373 C364 1.390 . S
C373 H366 0.950 . S
C373 C370 1.387 . S
C374 C375 1.387 . S
C374 H378 0.950 . S
C374 C383 1.390 . S
C375 C374 1.387 . S
C375 C377 1.387 . S
H376 C383 0.950 . S
C377 C375 1.387 . S
C377 C379 1.390 . S
C377 H381 0.950 . S
H378 C374 0.950 . S
C379 C377 1.390 . S
C379 C380 1.387 . S
C379 H382 0.950 . S
C380 C379 1.387 . S
C380 C383 1.387 . S
H381 C377 0.950 . S
H382 C379 0.950 . S
C383 C374 1.390 . S
C383 H376 0.950 . S
C383 C380 1.387 . S
C384 C385 1.387 . S
C384 H388 0.950 . S
C384 C393 1.390 . S
C385 C384 1.387 . S
C385 C387 1.387 . S
H386 C393 0.950 . S
C387 C385 1.387 . S
C387 C389 1.390 . S
C387 H391 0.950 . S
H388 C384 0.950 . S
C389 C387 1.390 . S
C389 C390 1.387 . S
C389 H392 0.950 1_545 S
C390 C389 1.387 . S
C390 C393 1.387 . S
H391 C387 0.950 . S
H392 C389 0.950 1_565 S
C393 C384 1.390 . S
C393 H386 0.950 . S
C393 C390 1.387 . S
C394 C395 1.387 . S
C394 H398 0.950 1_455 S
C394 C403 1.390 . S
C395 C394 1.387 . S
C395 C397 1.387 . S
H396 C403 0.950 . S
C397 C395 1.387 . S
C397 C399 1.390 . S
C397 H401 0.950 . S
H398 C394 0.950 1_655 S
C399 C397 1.390 . S
C399 C400 1.387 . S
C399 H402 0.950 . S
C400 C399 1.387 . S
C400 C403 1.387 . S
H401 C397 0.950 . S
H402 C399 0.950 . S
C403 C394 1.390 . S
C403 H396 0.950 . S
C403 C400 1.387 . S
C404 C405 1.387 . S
C404 H408 0.950 . S
C404 C413 1.390 . S
C405 C404 1.387 . S
C405 C407 1.387 . S
H406 C413 0.950 . S
C407 C405 1.387 . S
C407 C409 1.390 . S
C407 H411 0.950 1_655 S
H408 C404 0.950 . S
C409 C407 1.390 . S
C409 C410 1.387 . S
C409 H412 0.950 . S
C410 C409 1.387 . S
C410 C413 1.387 . S
H411 C407 0.950 1_455 S
H412 C409 0.950 . S
C413 C404 1.390 . S
C413 H406 0.950 . S
C413 C410 1.387 . S
C414 C415 1.387 . S
C414 H418 0.950 . S
C414 C423 1.390 . S
C415 C414 1.387 . S
C415 C417 1.387 . S
H416 C423 0.950 . S
C417 C415 1.387 . S
C417 C419 1.390 . S
C417 H421 0.950 1_565 S
H418 C414 0.950 . S
C419 C417 1.390 . S
C419 C420 1.387 . S
C419 H422 0.950 . S
C420 C419 1.387 . S
C420 C423 1.387 . S
H421 C417 0.950 1_545 S
H422 C419 0.950 . S
C423 C414 1.390 . S
C423 H416 0.950 . S
C423 C420 1.387 . S
C424 C425 1.387 . S
C424 H428 0.950 . S
C424 C433 1.390 . S
C425 C424 1.387 . S
C425 C427 1.387 . S
H426 C433 0.950 1_455 S
C427 C425 1.387 . S
C427 C429 1.390 . S
C427 H431 0.950 . S
H428 C424 0.950 . S
C429 C427 1.390 . S
C429 C430 1.387 . S
C429 H432 0.950 . S
C430 C429 1.387 . S
C430 C433 1.387 . S
H431 C427 0.950 . S
H432 C429 0.950 . S
C433 C424 1.390 . S
C433 H426 0.950 1_655 S
C433 C430 1.387 . S
C434 C435 1.387 . S
C434 H438 0.950 . S
C434 C443 1.390 . S
C435 C434 1.387 . S
C435 C437 1.387 . S
H436 C443 0.950 . S
C437 C435 1.387 . S
C437 C439 1.390 . S
C437 H441 0.950 1_565 S
H438 C434 0.950 . S
C439 C437 1.390 . S
C439 C440 1.387 . S
C439 H442 0.950 1_455 S
C440 C439 1.387 . S
C440 C443 1.387 . S
H441 C437 0.950 1_545 S
H442 C439 0.950 1_655 S
C443 C434 1.390 . S
C443 H436 0.950 . S
C443 C440 1.387 . S
C444 C445 1.387 . S
C444 H448 0.950 . S
C444 C453 1.390 1_554 S
C445 C444 1.387 . S
C445 C447 1.387 . S
H446 C453 0.950 . S
C447 C445 1.387 . S
C447 C449 1.390 1_554 S
C447 H451 0.950 . S
H448 C444 0.950 . S
C449 C447 1.390 1_556 S
C449 C450 1.387 . S
C449 H452 0.950 . S
C450 C449 1.387 . S
C450 C453 1.387 . S
H451 C447 0.950 . S
H452 C449 0.950 . S
C453 C444 1.390 1_556 S
C453 H446 0.950 . S
C453 C450 1.387 . S
C454 C455 1.387 1_455 S
C454 H458 0.950 . S
C454 C463 1.390 . S
C455 C454 1.387 1_655 S
C455 C457 1.387 . S
H456 C463 0.950 . S
C457 C455 1.387 . S
C457 C459 1.390 . S
C457 H461 0.950 . S
H458 C454 0.950 . S
C459 C457 1.390 . S
C459 C460 1.387 1_655 S
C459 H462 0.950 . S
C460 C459 1.387 1_455 S
C460 C463 1.387 . S
H461 C457 0.950 . S
H462 C459 0.950 . S
C463 C454 1.390 . S
C463 H456 0.950 . S
C463 C460 1.387 . S
C464 C465 1.387 . S
C464 H468 0.950 . S
C464 C473 1.390 1_564 S
C465 C464 1.387 . S
C465 C467 1.387 . S
H466 C473 0.950 . S
C467 C465 1.387 . S
C467 C469 1.390 1_564 S
C467 H471 0.950 . S
H468 C464 0.950 . S
C469 C467 1.390 1_546 S
C469 C470 1.387 . S
C469 H472 0.950 . S
C470 C469 1.387 . S
C470 C473 1.387 . S
H471 C467 0.950 . S
H472 C469 0.950 . S
C473 C464 1.390 1_546 S
C473 H466 0.950 . S
C473 C470 1.387 . S
C474 C475 1.387 . S
C474 H478 0.950 . S
C474 C483 1.390 . S
C475 C474 1.387 . S
C475 C477 1.387 . S
H476 C483 0.950 . S
C477 C475 1.387 . S
C477 C479 1.390 . S
C477 H481 0.950 . S
H478 C474 0.950 . S
C479 C477 1.390 . S
C479 C480 1.387 . S
C479 H482 0.950 . S
C480 C479 1.387 . S
C480 C483 1.387 . S
H481 C477 0.950 . S
H482 C479 0.950 . S
C483 C474 1.390 . S
C483 H476 0.950 . S
C483 C480 1.387 . S
C484 C485 1.387 . S
C484 H488 0.950 . S
C484 C493 1.390 1_656 S
C485 C484 1.387 . S
C485 C487 1.387 . S
H486 C493 0.950 . S
C487 C485 1.387 . S
C487 C489 1.390 1_656 S
C487 H491 0.950 . S
H488 C484 0.950 . S
C489 C487 1.390 1_454 S
C489 C490 1.387 . S
C489 H492 0.950 . S
C490 C489 1.387 . S
C490 C493 1.387 . S
H491 C487 0.950 . S
H492 C489 0.950 . S
C493 C484 1.390 1_454 S
C493 H486 0.950 . S
C493 C490 1.387 . S
C494 C495 1.387 . S
C494 H498 0.950 . S
C494 C503 1.390 1_545 S
C495 C494 1.387 . S
C495 C497 1.387 . S
H496 C503 0.950 . S
C497 C495 1.387 . S
C497 C499 1.390 1_545 S
C497 H501 0.950 . S
H498 C494 0.950 . S
C499 C497 1.390 1_565 S
C499 C500 1.387 . S
C499 H502 0.950 . S
C500 C499 1.387 . S
C500 C503 1.387 . S
H501 C497 0.950 . S
H502 C499 0.950 . S
C503 C494 1.390 1_565 S
C503 H496 0.950 . S
C503 C500 1.387 . S
C504 C505 1.387 . S
C504 H508 0.950 . S
C504 C513 1.390 1_556 S
C505 C504 1.387 . S
C505 C507 1.387 . S
H506 C513 0.950 . S
C507 C505 1.387 . S
C507 C509 1.390 1_556 S
C507 H511 0.950 . S
H508 C504 0.950 . S
C509 C507 1.390 1_554 S
C509 C510 1.387 . S
C509 H512 0.950 . S
C510 C509 1.387 . S
C510 C513 1.387 . S
H511 C507 0.950 . S
H512 C509 0.950 . S
C513 C504 1.390 1_554 S
C513 H506 0.950 . S
C513 C510 1.387 . S
C514 C515 1.387 . S
C514 H518 0.950 . S
C514 C523 1.390 1_455 S
C515 C514 1.387 . S
C515 C517 1.387 . S
H516 C523 0.950 . S
C517 C515 1.387 . S
C517 C519 1.390 1_455 S
C517 H521 0.950 . S
H518 C514 0.950 . S
C519 C517 1.390 1_655 S
C519 C520 1.387 . S
C519 H522 0.950 . S
C520 C519 1.387 . S
C520 C523 1.387 . S
H521 C517 0.950 . S
H522 C519 0.950 . S
C523 C514 1.390 1_655 S
C523 H516 0.950 . S
C523 C520 1.387 . S
C524 C525 1.387 . S
C524 H528 0.950 . S
C524 C533 1.390 1_546 S
C525 C524 1.387 . S
C525 C527 1.387 . S
H526 C533 0.950 . S
C527 C525 1.387 . S
C527 C529 1.390 1_546 S
C527 H531 0.950 . S
H528 C524 0.950 . S
C529 C527 1.390 1_564 S
C529 C530 1.387 . S
C529 H532 0.950 . S
C530 C529 1.387 . S
C530 C533 1.387 . S
H531 C527 0.950 . S
H532 C529 0.950 . S
C533 C524 1.390 1_564 S
C533 H526 0.950 . S
C533 C530 1.387 . S
C534 C535 1.387 . S
C534 H538 0.950 . S
C534 C543 1.390 . S
C535 C534 1.387 . S
C535 C537 1.387 . S
H536 C543 0.950 . S
C537 C535 1.387 . S
C537 C539 1.390 . S
C537 H541 0.950 . S
H538 C534 0.950 . S
C539 C537 1.390 . S
C539 C540 1.387 . S
C539 H542 0.950 . S
C540 C539 1.387 . S
C540 C543 1.387 . S
H541 C537 0.950 . S
H542 C539 0.950 . S
C543 C534 1.390 . S
C543 H536 0.950 . S
C543 C540 1.387 . S
C544 C545 1.387 1_655 S
C544 H548 0.950 . S
C544 C553 1.390 . S
C545 C544 1.387 1_455 S
C545 C547 1.387 1_554 S
H546 C553 0.950 . S
C547 C545 1.387 1_556 S
C547 C549 1.390 . S
C547 H551 0.950 . S
H548 C544 0.950 . S
C549 C547 1.390 . S
C549 C550 1.387 1_455 S
C549 H552 0.950 . S
C550 C549 1.387 1_655 S
C550 C553 1.387 1_556 S
H551 C547 0.950 . S
H552 C549 0.950 . S
C553 C544 1.390 . S
C553 H546 0.950 . S
C553 C550 1.387 1_554 S
C554 C555 1.387 . S
C554 H558 0.950 . S
C554 C563 1.390 1_545 S
C555 C554 1.387 . S
C555 C557 1.387 . S
H556 C563 0.950 . S
C557 C555 1.387 . S
C557 C559 1.390 1_545 S
C557 H561 0.950 . S
H558 C554 0.950 . S
C559 C557 1.390 1_565 S
C559 C560 1.387 . S
C559 H562 0.950 . S
C560 C559 1.387 . S
C560 C563 1.387 . S
H561 C557 0.950 . S
H562 C559 0.950 . S
C563 C554 1.390 1_565 S
C563 H556 0.950 . S
C563 C560 1.387 . S
C325 C32 2.054 . S
C330 C229 2.052 . S
C335 C302 2.053 . S
C340 C67 2.053 . S
C345 C13 2.053 . S
C350 C140 2.054 . S
C355 C86 2.052 . S
C360 C175 2.054 . S
C365 C248 2.052 . S
C370 C121 2.052 . S
C375 C283 2.054 . S
C380 C194 2.052 . S
C385 C22 1.266 . S
C390 C221 1.262 1_545 S
C395 C59 1.266 1_455 S
C400 C292 1.266 . S
C405 C5 1.262 1_655 S
C410 C130 1.265 1_545 S
C415 C76 1.263 1_565 S
C420 C167 1.266 . S
C425 C113 1.266 . S
C430 C238 1.266 1_655 S
C435 C275 1.264 1_565 S
C440 C184 1.262 1_455 S
C445 C10 2.745 . S
C450 C280 2.745 . S
C455 C81 2.745 . S
C460 C27 2.744 . S
C465 C118 2.743 . S
C470 C64 2.743 . S
C475 C189 2.744 . S
C480 C135 2.744 . S
C485 C172 2.745 . S
C490 C226 2.745 . S
C495 C297 2.745 . S
C500 C243 2.745 . S
C505 C190 0.822 . S
C510 C136 0.824 . S
C515 C251 0.823 . S
C520 C197 0.823 . S
C525 C298 0.823 . S
C530 C244 0.823 . S
C535 C305 0.824 . S
C540 C35 0.822 . S
C545 C28 0.821 . S
C550 C82 0.825 . S
C555 C89 0.823 . S
C560 C143 0.823 . S
