# Generated by pormake.
# Topology wiv, (6)-cn, num edge types: 1
# Building blocks:
#     Node 0, Type 0, BuildingBlock: PAMTUU_clean_sbu_0, # of connection points: 6
#     Node 1, Type 0, BuildingBlock: PAMTUU_clean_sbu_0, # of connection points: 6
#     Node 2, Type 0, BuildingBlock: PAMTUU_clean_sbu_0, # of connection points: 6
#     Node 3, Type 0, BuildingBlock: PAMTUU_clean_sbu_0, # of connection points: 6
#     Node 4, Type 0, BuildingBlock: PAMTUU_clean_sbu_0, # of connection points: 6
#     Node 5, Type 0, BuildingBlock: PAMTUU_clean_sbu_0, # of connection points: 6
#     Node 6, Type 0, BuildingBlock: PAMTUU_clean_sbu_0, # of connection points: 6
#     Node 7, Type 0, BuildingBlock: PAMTUU_clean_sbu_0, # of connection points: 6
#     Node 8, Type 0, BuildingBlock: PAMTUU_clean_sbu_0, # of connection points: 6
#     Node 9, Type 0, BuildingBlock: PAMTUU_clean_sbu_0, # of connection points: 6
#     Node 10, Type 0, BuildingBlock: PAMTUU_clean_sbu_0, # of connection points: 6
#     Node 11, Type 0, BuildingBlock: PAMTUU_clean_sbu_0, # of connection points: 6
#     Node 12, Type 0, BuildingBlock: PAMTUU_clean_sbu_0, # of connection points: 6
#     Node 13, Type 0, BuildingBlock: PAMTUU_clean_sbu_0, # of connection points: 6
#     Node 14, Type 0, BuildingBlock: PAMTUU_clean_sbu_0, # of connection points: 6
#     Node 15, Type 0, BuildingBlock: PAMTUU_clean_sbu_0, # of connection points: 6
#     Edge 16, Type (0, 0), BuildingBlock: CIFDUS_clean_linker_0, # of connection points: 2
#     Edge 17, Type (0, 0), BuildingBlock: CIFDUS_clean_linker_0, # of connection points: 2
#     Edge 18, Type (0, 0), BuildingBlock: CIFDUS_clean_linker_0, # of connection points: 2
#     Edge 19, Type (0, 0), BuildingBlock: CIFDUS_clean_linker_0, # of connection points: 2
#     Edge 20, Type (0, 0), BuildingBlock: CIFDUS_clean_linker_0, # of connection points: 2
#     Edge 21, Type (0, 0), BuildingBlock: CIFDUS_clean_linker_0, # of connection points: 2
#     Edge 22, Type (0, 0), BuildingBlock: CIFDUS_clean_linker_0, # of connection points: 2
#     Edge 23, Type (0, 0), BuildingBlock: CIFDUS_clean_linker_0, # of connection points: 2
#     Edge 24, Type (0, 0), BuildingBlock: CIFDUS_clean_linker_0, # of connection points: 2
#     Edge 25, Type (0, 0), BuildingBlock: CIFDUS_clean_linker_0, # of connection points: 2
#     Edge 26, Type (0, 0), BuildingBlock: CIFDUS_clean_linker_0, # of connection points: 2
#     Edge 27, Type (0, 0), BuildingBlock: CIFDUS_clean_linker_0, # of connection points: 2
#     Edge 28, Type (0, 0), BuildingBlock: CIFDUS_clean_linker_0, # of connection points: 2
#     Edge 29, Type (0, 0), BuildingBlock: CIFDUS_clean_linker_0, # of connection points: 2
#     Edge 30, Type (0, 0), BuildingBlock: CIFDUS_clean_linker_0, # of connection points: 2
#     Edge 31, Type (0, 0), BuildingBlock: CIFDUS_clean_linker_0, # of connection points: 2
#     Edge 32, Type (0, 0), BuildingBlock: CIFDUS_clean_linker_0, # of connection points: 2
#     Edge 33, Type (0, 0), BuildingBlock: CIFDUS_clean_linker_0, # of connection points: 2
#     Edge 34, Type (0, 0), BuildingBlock: CIFDUS_clean_linker_0, # of connection points: 2
#     Edge 35, Type (0, 0), BuildingBlock: CIFDUS_clean_linker_0, # of connection points: 2
#     Edge 36, Type (0, 0), BuildingBlock: CIFDUS_clean_linker_0, # of connection points: 2
#     Edge 37, Type (0, 0), BuildingBlock: CIFDUS_clean_linker_0, # of connection points: 2
#     Edge 38, Type (0, 0), BuildingBlock: CIFDUS_clean_linker_0, # of connection points: 2
#     Edge 39, Type (0, 0), BuildingBlock: CIFDUS_clean_linker_0, # of connection points: 2
#     Edge 40, Type (0, 0), BuildingBlock: CIFDUS_clean_linker_0, # of connection points: 2
#     Edge 41, Type (0, 0), BuildingBlock: CIFDUS_clean_linker_0, # of connection points: 2
#     Edge 42, Type (0, 0), BuildingBlock: CIFDUS_clean_linker_0, # of connection points: 2
#     Edge 43, Type (0, 0), BuildingBlock: CIFDUS_clean_linker_0, # of connection points: 2
#     Edge 44, Type (0, 0), BuildingBlock: CIFDUS_clean_linker_0, # of connection points: 2
#     Edge 45, Type (0, 0), BuildingBlock: CIFDUS_clean_linker_0, # of connection points: 2
#     Edge 46, Type (0, 0), BuildingBlock: CIFDUS_clean_linker_0, # of connection points: 2
#     Edge 47, Type (0, 0), BuildingBlock: CIFDUS_clean_linker_0, # of connection points: 2
#     Edge 48, Type (0, 0), BuildingBlock: CIFDUS_clean_linker_0, # of connection points: 2
#     Edge 49, Type (0, 0), BuildingBlock: CIFDUS_clean_linker_0, # of connection points: 2
#     Edge 50, Type (0, 0), BuildingBlock: CIFDUS_clean_linker_0, # of connection points: 2
#     Edge 51, Type (0, 0), BuildingBlock: CIFDUS_clean_linker_0, # of connection points: 2
#     Edge 52, Type (0, 0), BuildingBlock: CIFDUS_clean_linker_0, # of connection points: 2
#     Edge 53, Type (0, 0), BuildingBlock: CIFDUS_clean_linker_0, # of connection points: 2
#     Edge 54, Type (0, 0), BuildingBlock: CIFDUS_clean_linker_0, # of connection points: 2
#     Edge 55, Type (0, 0), BuildingBlock: CIFDUS_clean_linker_0, # of connection points: 2
#     Edge 56, Type (0, 0), BuildingBlock: CIFDUS_clean_linker_0, # of connection points: 2
#     Edge 57, Type (0, 0), BuildingBlock: CIFDUS_clean_linker_0, # of connection points: 2
#     Edge 58, Type (0, 0), BuildingBlock: CIFDUS_clean_linker_0, # of connection points: 2
#     Edge 59, Type (0, 0), BuildingBlock: CIFDUS_clean_linker_0, # of connection points: 2
#     Edge 60, Type (0, 0), BuildingBlock: CIFDUS_clean_linker_0, # of connection points: 2
#     Edge 61, Type (0, 0), BuildingBlock: CIFDUS_clean_linker_0, # of connection points: 2
#     Edge 62, Type (0, 0), BuildingBlock: CIFDUS_clean_linker_0, # of connection points: 2
#     Edge 63, Type (0, 0), BuildingBlock: CIFDUS_clean_linker_0, # of connection points: 2
# Relax obj value: 0.157
# Max RMSD: 0.203
# Mean RMSD: 0.203
data_MOF--net-wiv--node1-PAMTUU_clean_sbu_0--edge1-CIFDUS_clean_linker_0
_symmetry_space_group_name_H-M    P1
_symmetry_Int_Tables_number       1
_symmetry_cell_setting            triclinic
loop_
_symmetry_equiv_pos_as_xyz
'x, y, z'
_cell_length_a     43.423256
_cell_length_b     43.5246
_cell_length_c     22.844872
_cell_angle_alpha  89.99865
_cell_angle_beta   90.111383
_cell_angle_gamma 89.815549
loop_
_atom_site_label
_atom_site_type_symbol
_atom_site_fract_x
_atom_site_fract_y
_atom_site_fract_z
_atom_type_partial_charge
Tb0 Tb 0.38203 0.1058 0.06265 0.0
Tb1 Tb 0.33581 0.10569 0.17722 0.0
C2 C 0.37224 0.04831 0.14184 0.0
C3 C 0.40482 0.10628 0.90549 0.0
C4 C 0.3899 0.10834 0.78461 0.0
C5 C 0.41436 0.08992 0.8053 0.0
C6 C 0.42173 0.08897 0.86495 0.0
C7 C 0.38019 0.12451 0.8854 0.0
C8 C 0.37284 0.12557 0.82558 0.0
C9 C 0.41258 0.10404 0.96845 0.0
O10 O 0.33744 0.09055 0.03215 0.0
O11 O 0.30551 0.11233 0.10041 0.0
O12 O 0.35231 0.15221 0.16846 0.0
O13 O 0.36106 0.15177 0.06964 0.0
O14 O 0.31465 0.07893 0.2419 0.0
O15 O 0.30686 0.1277 0.23872 0.0
O16 O 0.38271 0.10648 0.21378 0.0
O17 O 0.41114 0.12201 0.13332 0.0
O18 O 0.39319 0.06513 0.1157 0.0
O19 O 0.34426 0.05912 0.14761 0.0
C20 C 0.31055 0.10172 0.04701 0.0
O21 O 0.40901 0.12874 1.00006 0.0
O22 O 0.40227 0.07976 0.99528 0.0
C23 C 0.3567 0.16685 0.11914 0.0
C24 C 0.31176 0.1049 0.3329 0.0
C25 C 0.32558 0.10867 0.4541 0.0
C26 C 0.30217 0.12695 0.42924 0.0
C27 C 0.29536 0.12507 0.36932 0.0
C28 C 0.33548 0.08691 0.35749 0.0
C29 C 0.34225 0.08874 0.41732 0.0
C30 C 0.30398 0.10276 0.26973 0.0
C31 C 0.40811 0.11759 0.19009 0.0
H32 H 0.42766 0.07585 0.77548 0.0
H33 H 0.44057 0.07447 0.87951 0.0
H34 H 0.36659 0.13789 0.91594 0.0
H35 H 0.35403 0.14019 0.8114 0.0
H36 H 0.28935 0.143 0.45604 0.0
H37 H 0.27733 0.13949 0.35131 0.0
H38 H 0.34877 0.07124 0.33064 0.0
H39 H 0.36025 0.07413 0.43494 0.0
Tb40 Tb 0.10473 0.67487 0.88478 0.0
Tb41 Tb 0.10538 0.62872 0.99963 0.0
C42 C 0.16598 0.65383 0.94245 0.0
C43 C 0.1043 0.69863 0.72887 0.0
C44 C 0.10825 0.68473 0.60773 0.0
C45 C 0.12579 0.70866 0.63228 0.0
C46 C 0.12382 0.71551 0.69215 0.0
C47 C 0.0871 0.67438 0.70463 0.0
C48 C 0.08902 0.66757 0.64484 0.0
C49 C 0.10195 0.70652 0.79194 0.0
O50 O 0.10369 0.62804 0.84835 0.0
O51 O 0.12039 0.5994 0.92786 0.0
O52 O 0.06383 0.61907 0.94821 0.0
O53 O 0.05851 0.66822 0.91755 0.0
O54 O 0.12859 0.60126 0.06153 0.0
O55 O 0.07959 0.60872 0.06736 0.0
O56 O 0.09121 0.67349 0.03132 0.0
O57 O 0.11176 0.70523 0.96133 0.0
O58 O 0.15108 0.65739 0.89308 0.0
O59 O 0.15111 0.64977 0.99214 0.0
C60 C 0.11476 0.60238 0.87133 0.0
O61 O 0.07803 0.69595 0.81952 0.0
O62 O 0.12688 0.70364 0.82336 0.0
C63 C 0.0471 0.64062 0.92339 0.0
C64 C 0.10666 0.60552 0.15658 0.0
C65 C 0.10894 0.62042 0.27742 0.0
C66 C 0.09118 0.59554 0.25708 0.0
C67 C 0.09012 0.5882 0.19747 0.0
C68 C 0.12427 0.63053 0.1763 0.0
C69 C 0.12544 0.63788 0.23611 0.0
C70 C 0.104 0.59797 0.09362 0.0
C71 C 0.10182 0.70036 1.01532 0.0
H72 H 0.14133 0.72187 0.60524 0.0
H73 H 0.13764 0.73396 0.70988 0.0
H74 H 0.07195 0.66071 0.73174 0.0
H75 H 0.07498 0.64915 0.6275 0.0
H76 H 0.07766 0.58192 0.28716 0.0
H77 H 0.07606 0.56908 0.18318 0.0
H78 H 0.13705 0.64444 0.14548 0.0
H79 H 0.13956 0.65701 0.24999 0.0
Tb80 Tb 0.63682 0.90678 0.07333 0.0
Tb81 Tb 0.684 0.90521 0.18787 0.0
C82 C 0.64716 0.96242 0.15572 0.0
C83 C 0.61569 0.90864 0.91534 0.0
C84 C 0.63225 0.90806 0.7949 0.0
C85 C 0.61357 0.93162 0.81814 0.0
C86 C 0.60533 0.93181 0.87738 0.0
C87 C 0.63476 0.88526 0.89276 0.0
C88 C 0.64285 0.88493 0.83324 0.0
C89 C 0.60707 0.91001 0.97823 0.0
O90 O 0.68138 0.92258 0.04395 0.0
O91 O 0.71363 0.89911 0.10982 0.0
O92 O 0.66737 0.85888 0.17667 0.0
O93 O 0.65774 0.86081 0.07801 0.0
O94 O 0.7063 0.93178 0.25174 0.0
O95 O 0.71308 0.88291 0.24911 0.0
O96 O 0.63712 0.90408 0.22513 0.0
O97 O 0.60766 0.89046 0.14419 0.0
O98 O 0.62578 0.94608 0.1298 0.0
O99 O 0.67525 0.9516 0.15778 0.0
C100 C 0.70818 0.91055 0.05707 0.0
O101 O 0.60985 0.88489 1.00907 0.0
O102 O 0.61694 0.93391 1.00696 0.0
C103 C 0.66244 0.84505 0.12659 0.0
C104 C 0.71096 0.9064 0.34368 0.0
C105 C 0.69838 0.90287 0.46562 0.0
C106 C 0.71487 0.87931 0.43712 0.0
C107 C 0.72104 0.88105 0.37686 0.0
C108 C 0.69536 0.93036 0.37269 0.0
C109 C 0.68899 0.92852 0.4326 0.0
C110 C 0.71707 0.90794 0.27951 0.0
C111 C 0.61113 0.89423 0.20122 0.0
H112 H 0.60546 0.95025 0.79068 0.0
H113 H 0.59094 0.95029 0.8937 0.0
H114 H 0.64344 0.86722 0.92104 0.0
H115 H 0.65707 0.86629 0.81718 0.0
H116 H 0.72251 0.85923 0.46114 0.0
H117 H 0.73356 0.86245 0.35611 0.0
H118 H 0.68802 0.9507 0.34931 0.0
H119 H 0.67693 0.94744 0.45323 0.0
Tb120 Tb 0.91095 0.33511 0.87844 0.0
Tb121 Tb 0.9096 0.38144 0.99357 0.0
C122 C 0.8493 0.3552 0.9367 0.0
C123 C 0.91129 0.31125 0.72243 0.0
C124 C 0.90724 0.32492 0.60105 0.0
C125 C 0.89471 0.29758 0.62385 0.0
C126 C 0.8968 0.2908 0.6838 0.0
C127 C 0.92339 0.33879 0.70009 0.0
C128 C 0.92153 0.34546 0.64021 0.0
C129 C 0.91417 0.30353 0.78546 0.0
O130 O 0.91106 0.38196 0.8423 0.0
O131 O 0.89367 0.41023 0.92164 0.0
O132 O 0.95093 0.39179 0.9421 0.0
O133 O 0.95715 0.3428 0.91098 0.0
O134 O 0.88608 0.40912 0.05455 0.0
O135 O 0.93501 0.40152 0.06197 0.0
O136 O 0.92411 0.33688 1.02583 0.0
O137 O 0.90531 0.30444 0.95483 0.0
O138 O 0.86413 0.35148 0.88733 0.0
O139 O 0.86423 0.35963 0.98631 0.0
C140 C 0.89937 0.40731 0.86519 0.0
O141 O 0.93787 0.31505 0.81254 0.0
O142 O 0.88934 0.30579 0.81713 0.0
C143 C 0.968 0.37063 0.91693 0.0
C144 C 0.90729 0.40494 0.15032 0.0
C145 C 0.90427 0.38991 0.27097 0.0
C146 C 0.92106 0.4156 0.25163 0.0
C147 C 0.92258 0.42297 0.19202 0.0
C148 C 0.89038 0.37932 0.16924 0.0
C149 C 0.88892 0.37185 0.22896 0.0
C150 C 0.91046 0.41241 0.0874 0.0
C151 C 0.91474 0.30965 1.00909 0.0
H152 H 0.88304 0.28147 0.59543 0.0
H153 H 0.88715 0.26951 0.69998 0.0
H154 H 0.93465 0.35509 0.72882 0.0
H155 H 0.93188 0.3665 0.62456 0.0
H156 H 0.93349 0.4298 0.28254 0.0
H157 H 0.93599 0.44266 0.1784 0.0
H158 H 0.87839 0.36502 0.13784 0.0
H159 H 0.87545 0.35218 0.24231 0.0
Tb160 Tb 0.38456 0.40846 0.24266 0.0
Tb161 Tb 0.33815 0.40982 0.12856 0.0
C162 C 0.37369 0.46713 0.16681 0.0
C163 C 0.40531 0.40426 0.39911 0.0
C164 C 0.38469 0.39968 0.51648 0.0
C165 C 0.41003 0.41831 0.50189 0.0
C166 C 0.42018 0.42057 0.44386 0.0
C167 C 0.38024 0.38538 0.41343 0.0
C168 C 0.37012 0.38302 0.47146 0.0
C169 C 0.41468 0.4088 0.33749 0.0
O170 O 0.3398 0.42279 0.27467 0.0
O171 O 0.30767 0.40255 0.20491 0.0
O172 O 0.35457 0.36306 0.13652 0.0
O173 O 0.36317 0.36291 0.23529 0.0
O174 O 0.31476 0.4371 0.06702 0.0
O175 O 0.31181 0.3879 0.06293 0.0
O176 O 0.38504 0.41099 0.09216 0.0
O177 O 0.41348 0.39292 0.1708 0.0
O178 O 0.39496 0.45015 0.19217 0.0
O179 O 0.34592 0.45608 0.16015 0.0
C180 C 0.31276 0.41231 0.25899 0.0
O181 O 0.41281 0.38501 0.30294 0.0
O182 O 0.40373 0.43344 0.31254 0.0
C183 C 0.35868 0.3481 0.18562 0.0
C184 C 0.31627 0.41457 0.97286 0.0
C185 C 0.334 0.41658 0.8535 0.0
C186 C 0.30858 0.39893 0.87142 0.0
C187 C 0.29981 0.39797 0.93051 0.0
C188 C 0.34202 0.43175 0.95522 0.0
C189 C 0.3507 0.4328 0.89632 0.0
C190 C 0.30689 0.41359 0.03521 0.0
C191 C 0.41046 0.39897 0.1145 0.0
H192 H 0.42213 0.4311 0.5354 0.0
H193 H 0.43945 0.4354 0.43379 0.0
H194 H 0.36807 0.37288 0.37956 0.0
H195 H 0.35037 0.36873 0.48076 0.0
H196 H 0.29516 0.38624 0.83963 0.0
H197 H 0.28016 0.38428 0.94318 0.0
H198 H 0.35553 0.44441 0.98696 0.0
H199 H 0.37075 0.44614 0.88441 0.0
Tb200 Tb 0.40769 0.68377 0.93724 0.0
Tb201 Tb 0.40899 0.63652 0.82311 0.0
C202 C 0.3472 0.66124 0.87797 0.0
C203 C 0.4118 0.71077 0.09271 0.0
C204 C 0.41375 0.69858 0.2151 0.0
C205 C 0.38602 0.70728 0.18752 0.0
C206 C 0.38508 0.7134 0.12716 0.0
C207 C 0.43959 0.70257 0.12051 0.0
C208 C 0.44051 0.69641 0.18064 0.0
C209 C 0.41087 0.71696 1.02845 0.0
O210 O 0.4072 0.63701 0.97506 0.0
O211 O 0.3934 0.60739 0.89449 0.0
O212 O 0.44869 0.62527 0.87898 0.0
O213 O 0.45398 0.67461 0.90697 0.0
O214 O 0.38703 0.6085 0.7607 0.0
O215 O 0.43556 0.6183 0.75435 0.0
O216 O 0.4242 0.6811 0.79315 0.0
O217 O 0.40071 0.71315 0.859 0.0
O218 O 0.3614 0.66681 0.9274 0.0
O219 O 0.36261 0.65668 0.82893 0.0
C220 C 0.39728 0.61101 0.95147 0.0
O221 O 0.43459 0.70805 0.99807 0.0
O222 O 0.38529 0.71119 1.00068 0.0
C223 C 0.46475 0.64656 0.90578 0.0
C224 C 0.40753 0.61794 0.66524 0.0
C225 C 0.4019 0.63904 0.54792 0.0
C226 C 0.42985 0.62667 0.56864 0.0
C227 C 0.43256 0.61613 0.62644 0.0
C228 C 0.37959 0.63046 0.64466 0.0
C229 C 0.3768 0.64075 0.5867 0.0
C230 C 0.41134 0.60781 0.72715 0.0
C231 C 0.41199 0.70773 0.80614 0.0
H232 H 0.36504 0.7097 0.21268 0.0
H233 H 0.3634 0.72018 0.10744 0.0
H234 H 0.46078 0.70072 0.09584 0.0
H235 H 0.46224 0.68947 0.19994 0.0
H236 H 0.44954 0.62468 0.53984 0.0
H237 H 0.45438 0.60664 0.64096 0.0
H238 H 0.35988 0.63255 0.67337 0.0
H239 H 0.35504 0.65043 0.57241 0.0
Tb240 Tb 0.63553 0.60248 0.2388 0.0
Tb241 Tb 0.68393 0.60284 0.12622 0.0
C242 C 0.64955 0.54407 0.16398 0.0
C243 C 0.61482 0.60703 0.39548 0.0
C244 C 0.63572 0.61243 0.51313 0.0
C245 C 0.61171 0.59213 0.49825 0.0
C246 C 0.60144 0.58947 0.44018 0.0
C247 C 0.6385 0.62762 0.4101 0.0
C248 C 0.64873 0.63037 0.46817 0.0
C249 C 0.60553 0.60195 0.33364 0.0
O250 O 0.68035 0.58827 0.27106 0.0
O251 O 0.71302 0.61027 0.20429 0.0
O252 O 0.66433 0.64847 0.1337 0.0
O253 O 0.65643 0.64806 0.23236 0.0
O254 O 0.70953 0.57742 0.06492 0.0
O255 O 0.70901 0.6267 0.06139 0.0
O256 O 0.63811 0.59791 0.08829 0.0
O257 O 0.60603 0.61368 0.16353 0.0
O258 O 0.62776 0.55996 0.19007 0.0
O259 O 0.6769 0.55603 0.15599 0.0
C260 C 0.7073 0.59967 0.25747 0.0
O261 O 0.60657 0.62555 0.29838 0.0
O262 O 0.61709 0.57746 0.30921 0.0
C263 C 0.66024 0.66317 0.18303 0.0
C264 C 0.70645 0.60016 0.9707 0.0
C265 C 0.68848 0.59774 0.85097 0.0
C266 C 0.71314 0.61646 0.86919 0.0
C267 C 0.72202 0.61761 0.92839 0.0
C268 C 0.68152 0.58186 0.95272 0.0
C269 C 0.67272 0.58063 0.89376 0.0
C270 C 0.71574 0.60152 0.03335 0.0
C271 C 0.61102 0.60708 0.10773 0.0
H272 H 0.60069 0.57831 0.53153 0.0
H273 H 0.58326 0.57332 0.43003 0.0
H274 H 0.64959 0.64113 0.3764 0.0
H275 H 0.66747 0.64598 0.47748 0.0
H276 H 0.72599 0.62976 0.83755 0.0
H277 H 0.7412 0.63203 0.9411 0.0
H278 H 0.66872 0.56845 0.9843 0.0
H279 H 0.65327 0.56642 0.88179 0.0
Tb280 Tb 0.60558 0.33412 0.92635 0.0
Tb281 Tb 0.60735 0.38044 0.81208 0.0
C282 C 0.66766 0.35398 0.87111 0.0
C283 C 0.60765 0.30847 0.0803 0.0
C284 C 0.61336 0.32837 0.1979 0.0
C285 C 0.63404 0.33861 0.15464 0.0
C286 C 0.63104 0.32901 0.09643 0.0
C287 C 0.5879 0.29705 0.12354 0.0
C288 C 0.59063 0.30692 0.18165 0.0
C289 C 0.60108 0.30196 1.01812 0.0
O290 O 0.60847 0.38095 0.96263 0.0
O291 O 0.62415 0.40945 0.88223 0.0
O292 O 0.56648 0.39172 0.86431 0.0
O293 O 0.55951 0.34264 0.89361 0.0
O294 O 0.63182 0.40291 0.74489 0.0
O295 O 0.5823 0.40473 0.74833 0.0
O296 O 0.5907 0.33666 0.78098 0.0
O297 O 0.61122 0.30392 0.84946 0.0
O298 O 0.6527 0.34946 0.92003 0.0
O299 O 0.65289 0.35873 0.82134 0.0
C300 C 0.61975 0.4063 0.93901 0.0
O301 O 0.57865 0.31812 0.99601 0.0
O302 O 0.62446 0.30045 0.98239 0.0
C303 C 0.54902 0.37073 0.88867 0.0
C304 C 0.60511 0.39832 0.65473 0.0
C305 C 0.60433 0.37504 0.53857 0.0
C306 C 0.58175 0.36621 0.57938 0.0
C307 C 0.58224 0.37753 0.63668 0.0
C308 C 0.62743 0.40755 0.61406 0.0
C309 C 0.62712 0.396 0.55673 0.0
C310 C 0.60663 0.40934 0.7162 0.0
C311 C 0.60102 0.30952 0.79596 0.0
H312 H 0.65228 0.35456 0.16539 0.0
H313 H 0.64642 0.33839 0.06374 0.0
H314 H 0.56947 0.28145 0.11191 0.0
H315 H 0.57398 0.2987 0.21315 0.0
H316 H 0.56352 0.35055 0.56715 0.0
H317 H 0.56476 0.36972 0.66694 0.0
H318 H 0.64546 0.42334 0.62692 0.0
H319 H 0.64521 0.40301 0.52709 0.0
Tb320 Tb 0.88394 0.60497 0.56492 0.0
Tb321 Tb 0.83769 0.60368 0.67894 0.0
C322 C 0.87308 0.5465 0.64034 0.0
C323 C 0.90272 0.60981 0.40783 0.0
C324 C 0.88026 0.61537 0.29145 0.0
C325 C 0.90028 0.59119 0.30738 0.0
C326 C 0.91142 0.58855 0.36475 0.0
C327 C 0.88281 0.63403 0.39226 0.0
C328 C 0.87187 0.63687 0.33475 0.0
C329 C 0.91293 0.6052 0.46921 0.0
O330 O 0.8397 0.58901 0.53423 0.0
O331 O 0.80731 0.61028 0.60209 0.0
O332 O 0.85492 0.65003 0.67248 0.0
O333 O 0.86184 0.65026 0.5734 0.0
O334 O 0.82022 0.57728 0.7481 0.0
O335 O 0.80563 0.62415 0.73627 0.0
O336 O 0.88458 0.60397 0.71565 0.0
O337 O 0.91371 0.61945 0.63613 0.0
O338 O 0.89445 0.56344 0.61571 0.0
O339 O 0.84518 0.55761 0.64599 0.0
C340 C 0.81264 0.59987 0.54864 0.0
O341 O 0.91133 0.62883 0.50426 0.0
O342 O 0.9029 0.58031 0.49438 0.0
C343 C 0.8583 0.66507 0.62334 0.0
C344 C 0.81483 0.60671 0.83291 0.0
C345 C 0.83605 0.61114 0.94965 0.0
C346 C 0.80729 0.5978 0.93708 0.0
C347 C 0.79692 0.59535 0.87907 0.0
C348 C 0.84297 0.62107 0.84554 0.0
C349 C 0.85352 0.62318 0.90324 0.0
C350 C 0.80608 0.6006 0.77161 0.0
C351 C 0.91039 0.6145 0.69271 0.0
H352 H 0.90681 0.57377 0.27591 0.0
H353 H 0.9264 0.56944 0.37579 0.0
H354 H 0.87536 0.65064 0.42464 0.0
H355 H 0.85684 0.656 0.32434 0.0
H356 H 0.79341 0.58812 0.97181 0.0
H357 H 0.7754 0.58373 0.8701 0.0
H358 H 0.85725 0.62987 0.81058 0.0
H359 H 0.8756 0.63386 0.9115 0.0
Tb360 Tb 0.60618 0.18287 0.37378 0.0
Tb361 Tb 0.6061 0.13457 0.48574 0.0
C362 C 0.66675 0.15788 0.42746 0.0
C363 C 0.60337 0.20567 0.21925 0.0
C364 C 0.60553 0.18383 0.10195 0.0
C365 C 0.62387 0.20883 0.11999 0.0
C366 C 0.62275 0.21962 0.17796 0.0
C367 C 0.58451 0.18125 0.201 0.0
C368 C 0.58542 0.17067 0.14322 0.0
C369 C 0.60418 0.21519 0.28172 0.0
O370 O 0.60199 0.13727 0.33502 0.0
O371 O 0.61638 0.1047 0.41074 0.0
O372 O 0.56362 0.12628 0.43727 0.0
O373 O 0.5593 0.17539 0.40359 0.0
O374 O 0.6296 0.1067 0.54675 0.0
O375 O 0.58114 0.11618 0.55628 0.0
O376 O 0.59085 0.17929 0.51607 0.0
O377 O 0.6155 0.21104 0.452 0.0
O378 O 0.65156 0.16244 0.37873 0.0
O379 O 0.65208 0.1546 0.47741 0.0
C380 C 0.61048 0.11 0.35467 0.0
O381 O 0.58012 0.20831 0.31299 0.0
O382 O 0.62952 0.20919 0.31013 0.0
C383 C 0.54748 0.148 0.41155 0.0
C384 C 0.61048 0.1158 0.64307 0.0
C385 C 0.61486 0.13857 0.7596 0.0
C386 C 0.59447 0.11453 0.74531 0.0
C387 C 0.59239 0.10329 0.68788 0.0
C388 C 0.631 0.13966 0.65693 0.0
C389 C 0.63331 0.15075 0.71445 0.0
C390 C 0.60585 0.10557 0.58168 0.0
C391 C 0.60397 0.20562 0.50446 0.0
H392 H 0.63981 0.21952 0.08992 0.0
H393 H 0.63755 0.23843 0.19088 0.0
H394 H 0.5693 0.1699 0.23164 0.0
H395 H 0.57033 0.15195 0.13111 0.0
H396 H 0.57936 0.10489 0.77809 0.0
H397 H 0.57603 0.08523 0.67817 0.0
H398 H 0.64495 0.15008 0.6231 0.0
H399 H 0.64956 0.16897 0.72333 0.0
Tb400 Tb 0.13182 0.40827 0.56155 0.0
Tb401 Tb 0.17828 0.40861 0.67587 0.0
C402 C 0.14187 0.46598 0.64002 0.0
C403 C 0.11131 0.40468 0.40508 0.0
C404 C 0.13207 0.39996 0.28783 0.0
C405 C 0.10623 0.41813 0.30207 0.0
C406 C 0.09601 0.42047 0.36006 0.0
C407 C 0.13688 0.38625 0.39112 0.0
C408 C 0.14709 0.38384 0.33317 0.0
C409 C 0.10183 0.40925 0.46661 0.0
O410 O 0.1766 0.42285 0.53048 0.0
O411 O 0.2086 0.40137 0.59925 0.0
O412 O 0.16163 0.36214 0.66703 0.0
O413 O 0.15292 0.36242 0.56827 0.0
O414 O 0.20247 0.4353 0.73704 0.0
O415 O 0.20408 0.38605 0.74167 0.0
O416 O 0.13144 0.40971 0.71254 0.0
O417 O 0.10281 0.39284 0.63325 0.0
O418 O 0.12086 0.44936 0.61341 0.0
O419 O 0.1698 0.45507 0.64589 0.0
C420 C 0.20356 0.41177 0.54558 0.0
O421 O 0.10348 0.38534 0.50096 0.0
O422 O 0.11294 0.43368 0.49182 0.0
C423 C 0.15731 0.34742 0.61778 0.0
C424 C 0.20036 0.41309 0.83135 0.0
C425 C 0.18246 0.4158 0.95054 0.0
C426 C 0.20859 0.39881 0.93336 0.0
C427 C 0.21743 0.39751 0.87434 0.0
C428 C 0.17395 0.42962 0.84824 0.0
C429 C 0.1652 0.43104 0.90708 0.0
C430 C 0.20974 0.41164 0.76908 0.0
C431 C 0.1059 0.39833 0.68976 0.0
H432 H 0.09377 0.43049 0.26833 0.0
H433 H 0.07634 0.43494 0.36988 0.0
H434 H 0.14935 0.37415 0.42522 0.0
H435 H 0.16724 0.36992 0.32417 0.0
H436 H 0.22245 0.38689 0.96566 0.0
H437 H 0.2376 0.3843 0.86223 0.0
H438 H 0.15998 0.44144 0.81595 0.0
H439 H 0.14463 0.44384 0.91844 0.0
Tb440 Tb 0.4096 0.83684 0.38286 0.0
Tb441 Tb 0.40975 0.88308 0.4963 0.0
C442 C 0.34861 0.85862 0.43976 0.0
C443 C 0.4117 0.81515 0.22804 0.0
C444 C 0.40764 0.83753 0.1116 0.0
C445 C 0.38921 0.81278 0.1303 0.0
C446 C 0.39129 0.80168 0.18788 0.0
C447 C 0.43052 0.83942 0.20917 0.0
C448 C 0.4287 0.85026 0.15173 0.0
C449 C 0.41203 0.80525 0.29014 0.0
O450 O 0.41064 0.88353 0.34521 0.0
O451 O 0.39521 0.91272 0.42474 0.0
O452 O 0.45133 0.89327 0.4452 0.0
O453 O 0.45642 0.84436 0.41246 0.0
O454 O 0.38665 0.91159 0.55635 0.0
O455 O 0.43485 0.90105 0.56728 0.0
O456 O 0.42511 0.83842 0.52663 0.0
O457 O 0.40183 0.80695 0.45996 0.0
O458 O 0.36337 0.85474 0.39049 0.0
O459 O 0.36377 0.86228 0.48936 0.0
C460 C 0.40015 0.90945 0.36811 0.0
O461 O 0.4361 0.81313 0.32065 0.0
O462 O 0.38675 0.80985 0.31947 0.0
C463 C 0.46781 0.87195 0.41894 0.0
C464 C 0.4049 0.90276 0.65304 0.0
C465 C 0.39843 0.88131 0.76974 0.0
C466 C 0.42019 0.90412 0.75559 0.0
C467 C 0.4233 0.91473 0.69801 0.0
C468 C 0.38302 0.88015 0.66677 0.0
C469 C 0.37969 0.86971 0.72444 0.0
C470 C 0.41025 0.91242 0.59175 0.0
C471 C 0.41301 0.81185 0.51308 0.0
H472 H 0.37254 0.80247 0.10106 0.0
H473 H 0.37647 0.78302 0.20141 0.0
H474 H 0.44648 0.85043 0.23898 0.0
H475 H 0.44386 0.86877 0.13893 0.0
H476 H 0.43555 0.91321 0.78865 0.0
H477 H 0.44061 0.93186 0.68835 0.0
H478 H 0.36875 0.87021 0.63278 0.0
H479 H 0.36243 0.85245 0.73332 0.0
Tb480 Tb 0.88218 0.90694 0.74567 0.0
Tb481 Tb 0.83525 0.90726 0.63238 0.0
C482 C 0.87235 0.96452 0.66677 0.0
C483 C 0.90119 0.90329 0.90303 0.0
C484 C 0.87877 0.8985 1.01948 0.0
C485 C 0.89684 0.92373 1.00199 0.0
C486 C 0.90798 0.92599 0.94465 0.0
C487 C 0.88324 0.87799 0.92018 0.0
C488 C 0.87232 0.87555 0.97771 0.0
C489 C 0.9113 0.90743 0.84147 0.0
O490 O 0.83779 0.92328 0.77551 0.0
O491 O 0.80579 0.89978 0.71009 0.0
O492 O 0.85247 0.86088 0.6403 0.0
O493 O 0.86094 0.86127 0.73903 0.0
O494 O 0.81049 0.93402 0.57184 0.0
O495 O 0.8083 0.8848 0.56835 0.0
O496 O 0.88191 0.9076 0.59438 0.0
O497 O 0.91134 0.89185 0.67381 0.0
O498 O 0.89333 0.94781 0.69361 0.0
O499 O 0.84435 0.95387 0.66098 0.0
C500 C 0.81111 0.9111 0.7629 0.0
O501 O 0.90988 0.88356 0.80699 0.0
O502 O 0.90111 0.93213 0.81554 0.0
C503 C 0.8568 0.84618 0.68957 0.0
C504 C 0.8111 0.91115 0.47742 0.0
C505 C 0.8318 0.91014 0.35959 0.0
C506 C 0.81359 0.88611 0.38191 0.0
C507 C 0.80333 0.88665 0.44015 0.0
C508 C 0.82825 0.9357 0.45441 0.0
C509 C 0.83833 0.93524 0.39638 0.0
C510 C 0.80267 0.91032 0.54048 0.0
C511 C 0.90784 0.89681 0.61716 0.0
H512 H 0.90182 0.94224 0.03216 0.0
H513 H 0.92144 0.9459 0.93245 0.0
H514 H 0.8773 0.8602 0.88903 0.0
H515 H 0.85884 0.8556 0.98935 0.0
H516 H 0.8081 0.86636 0.35505 0.0
H517 H 0.78997 0.86751 0.45652 0.0
H518 H 0.83446 0.95515 0.48141 0.0
H519 H 0.85155 0.95457 0.38051 0.0
Tb520 Tb 0.90904 0.17374 0.42261 0.0
Tb521 Tb 0.90895 0.12762 0.3087 0.0
C522 C 0.84813 0.15334 0.36344 0.0
C523 C 0.91113 0.19488 0.57771 0.0
C524 C 0.90755 0.17264 0.69409 0.0
C525 C 0.88805 0.19653 0.6748 0.0
C526 C 0.88981 0.20747 0.61716 0.0
C527 C 0.93094 0.17136 0.5972 0.0
C528 C 0.92926 0.16051 0.65463 0.0
C529 C 0.91145 0.20494 0.51572 0.0
O530 O 0.91063 0.12707 0.45967 0.0
O531 O 0.89377 0.09846 0.38051 0.0
O532 O 0.95037 0.1173 0.3602 0.0
O533 O 0.95546 0.16641 0.39112 0.0
O534 O 0.88599 0.09913 0.24852 0.0
O535 O 0.93432 0.10915 0.23867 0.0
O536 O 0.92394 0.1723 0.27809 0.0
O537 O 0.90183 0.20402 0.34623 0.0
O538 O 0.86272 0.15663 0.41315 0.0
O539 O 0.86338 0.14939 0.3142 0.0
C540 C 0.89942 0.10148 0.43701 0.0
O541 O 0.93552 0.19707 0.48527 0.0
O542 O 0.88615 0.20061 0.48616 0.0
C543 C 0.96689 0.13873 0.38561 0.0
C544 C 0.90476 0.10781 0.15243 0.0
C545 C 0.89938 0.12981 0.03598 0.0
C546 C 0.92023 0.10603 0.05018 0.0
C547 C 0.9228 0.09514 0.10768 0.0
C548 C 0.88381 0.13142 0.13865 0.0
C549 C 0.881 0.14214 0.08107 0.0
C550 C 0.90977 0.09801 0.2137 0.0
C551 C 0.91278 0.19918 0.29301 0.0
H552 H 0.87084 0.20622 0.70371 0.0
H553 H 0.87403 0.22532 0.60303 0.0
H554 H 0.94754 0.16093 0.5679 0.0
H555 H 0.94504 0.14251 0.66806 0.0
H556 H 0.93531 0.09635 1.01726 0.0
H557 H 0.93946 0.07726 0.11747 0.0
H558 H 0.8699 0.14192 0.17256 0.0
H559 H 0.86444 0.16017 0.07209 0.0
Tb560 Tb 0.13086 0.10605 0.74351 0.0
Tb561 Tb 0.17731 0.10494 0.62913 0.0
C562 C 0.14234 0.04768 0.6678 0.0
C563 C 0.10802 0.10698 0.90067 0.0
C564 C 0.12312 0.1083 1.02159 0.0
C565 C 0.09953 0.08913 1.00027 0.0
C566 C 0.09206 0.08856 0.94066 0.0
C567 C 0.13185 0.12594 0.92134 0.0
C568 C 0.13927 0.12665 0.98118 0.0
C569 C 0.10024 0.10497 0.83764 0.0
O570 O 0.17547 0.09115 0.77496 0.0
O571 O 0.20751 0.112 0.70592 0.0
O572 O 0.15996 0.15137 0.63629 0.0
O573 O 0.15185 0.15173 0.73522 0.0
O574 O 0.19827 0.07792 0.56443 0.0
O575 O 0.20649 0.12658 0.56776 0.0
O576 O 0.13045 0.10403 0.59249 0.0
O577 O 0.1016 0.12094 0.67151 0.0
O578 O 0.12088 0.06459 0.69244 0.0
O579 O 0.1701 0.05883 0.66183 0.0
C580 C 0.20241 0.10189 0.75967 0.0
O581 O 0.10408 0.12959 0.80593 0.0
O582 O 0.11018 0.08048 0.81081 0.0
C583 C 0.15597 0.16642 0.68531 0.0
C584 C 0.20141 0.10391 0.47335 0.0
C585 C 0.18757 0.10819 0.35214 0.0
C586 C 0.20937 0.12783 0.37807 0.0
C587 C 0.21619 0.12572 0.43798 0.0
C588 C 0.17936 0.08446 0.44759 0.0
C589 C 0.17255 0.08658 0.38779 0.0
C590 C 0.20912 0.10161 0.53662 0.0
C591 C 0.10474 0.11516 0.61513 0.0
H592 H 0.087 0.07415 0.02956 0.0
H593 H 0.0739 0.07344 0.92566 0.0
H594 H 0.14478 0.14015 0.89127 0.0
H595 H 0.15739 0.14187 0.99579 0.0
H596 H 0.22088 0.14514 0.35212 0.0
H597 H 0.23293 0.14124 0.4568 0.0
H598 H 0.16735 0.06744 0.47348 0.0
H599 H 0.15583 0.07091 0.36929 0.0
Tb600 Tb 0.10565 0.83607 0.43038 0.0
Tb601 Tb 0.10577 0.88217 0.3157 0.0
C602 C 0.16691 0.85752 0.37326 0.0
C603 C 0.10529 0.81231 0.58633 0.0
C604 C 0.10928 0.82611 0.7075 0.0
C605 C 0.1275 0.80268 0.68271 0.0
C606 C 0.12552 0.79589 0.62281 0.0
C607 C 0.0874 0.83606 0.61085 0.0
C608 C 0.08935 0.84282 0.67065 0.0
C609 C 0.10291 0.80447 0.52322 0.0
O610 O 0.105 0.88291 0.46679 0.0
O611 O 0.12109 0.91147 0.38698 0.0
O612 O 0.06442 0.89229 0.36751 0.0
O613 O 0.0591 0.8433 0.39891 0.0
O614 O 0.12868 0.90949 0.2536 0.0
O615 O 0.07969 0.9022 0.24801 0.0
O616 O 0.09166 0.83746 0.28404 0.0
O617 O 0.11253 0.80567 0.35387 0.0
O618 O 0.15209 0.85325 0.42242 0.0
O619 O 0.15193 0.86162 0.32351 0.0
C620 C 0.11592 0.90847 0.44356 0.0
O621 O 0.07898 0.8152 0.49552 0.0
O622 O 0.12782 0.80717 0.49194 0.0
C623 C 0.04774 0.87099 0.39288 0.0
C624 C 0.10651 0.90513 0.15867 0.0
C625 C 0.10885 0.89019 0.03788 0.0
C626 C 0.09066 0.91485 0.05815 0.0
C627 C 0.08957 0.92223 0.11774 0.0
C628 C 0.12451 0.8803 0.13902 0.0
C629 C 0.12571 0.87293 0.07924 0.0
C630 C 0.10398 0.9128 0.22158 0.0
C631 C 0.1024 0.81056 0.29994 0.0
H632 H 0.14356 0.78984 0.70957 0.0
H633 H 0.13987 0.77784 0.60487 0.0
H634 H 0.0717 0.84937 0.58397 0.0
H635 H 0.0748 0.86084 0.68822 0.0
H636 H 0.07684 0.92831 1.02803 0.0
H637 H 0.07522 0.94121 0.13197 0.0
H638 H 0.13759 0.86655 0.16988 0.0
H639 H 0.14015 0.85396 0.06543 0.0
H640 H 0.42544 0.9268 0.26186 0.0
H641 H 0.35516 0.95116 0.38716 0.0
H642 H 0.33958 0.99455 0.32685 0.0
H643 H 0.34597 0.02632 0.24021 0.0
H644 H 0.41854 1.00656 0.11741 0.0
H645 H 0.43298 0.96071 0.1744 0.0
C646 C 0.40668 0.9416 0.27571 0.0
C647 C 0.39155 0.93564 0.32923 0.0
C648 C 0.39816 0.96733 0.24113 0.0
C649 C 0.36744 0.95524 0.34666 0.0
C650 C 0.35837 0.98007 0.31202 0.0
C651 C 0.3648 0.01191 0.22539 0.0
C652 C 0.38084 0.01971 0.17404 0.0
C653 C 0.37357 0.98641 0.25938 0.0
C654 C 0.40566 1.00102 0.15654 0.0
C655 C 0.41393 0.97482 0.18924 0.0
H656 H 0.92632 0.58949 0.79948 0.0
H657 H 0.95292 0.65857 0.67387 0.0
H658 H 0.99576 0.6738 0.73609 0.0
H659 H 0.02625 0.66731 0.82447 0.0
H660 H 1.00444 0.59552 0.94725 0.0
H661 H 0.95898 0.58174 0.88849 0.0
C662 C 0.94151 0.60788 0.78595 0.0
C663 C 0.9364 0.62282 0.73191 0.0
C664 C 0.96684 0.61615 0.82158 0.0
C665 C 0.95642 0.64648 0.71482 0.0
C666 C 0.98089 0.65534 0.75054 0.0
C667 C 0.01149 0.64881 0.83888 0.0
C668 C 0.01855 0.63276 0.89067 0.0
C669 C 0.98636 0.64032 0.80381 0.0
C670 C 0.99941 0.60838 0.90776 0.0
C671 C 0.97348 0.60047 0.87406 0.0
H672 H 0.62275 0.01989 0.13646 0.0
H673 H 0.65207 0.95798 0.27254 0.0
H674 H 0.64287 0.99729 0.34668 0.0
H675 H 0.62852 0.05023 0.37286 0.0
H676 H 0.59913 0.11268 0.23677 0.0
H677 H 0.60611 0.07267 0.16351 0.0
C678 C 0.62683 0.01509 0.18241 0.0
C679 C 0.63855 0.98625 0.19908 0.0
C680 C 0.62158 0.03808 0.22504 0.0
C681 C 0.64371 0.98024 0.2587 0.0
C682 C 0.6383 1.00269 0.30116 0.0
C683 C 0.62346 0.0551 0.32729 0.0
C684 C 0.61343 0.08466 0.31086 0.0
C685 C 0.62765 0.0319 0.28487 0.0
C686 C 0.60699 0.0903 0.25123 0.0
C687 C 0.61097 0.06734 0.20896 0.0
H688 H 0.99144 0.34262 0.82131 0.0
H689 H 0.00821 0.41828 0.93861 0.0
H690 H 0.05352 0.43301 0.8807 0.0
H691 H 0.08759 0.42493 0.79384 0.0
H692 H 0.06605 0.35164 0.67337 0.0
H693 H 0.02337 0.33562 0.73502 0.0
C694 C 1.00507 0.36219 0.83475 0.0
C695 C 0.99658 0.37906 0.88479 0.0
C696 C 0.03019 0.37113 0.80011 0.0
C697 C 0.01432 0.40475 0.90055 0.0
C698 C 0.04019 0.41321 0.86731 0.0
C699 C 0.07354 0.40544 0.78134 0.0
C700 C 0.08003 0.38954 0.72887 0.0
C701 C 0.04824 0.39669 0.81657 0.0
C702 C 0.06146 0.36447 0.71307 0.0
C703 C 0.03708 0.35517 0.74848 0.0
H704 H 0.34379 0.49329 0.07553 0.0
H705 H 0.42199 0.50665 0.18906 0.0
H706 H 0.43549 0.55361 0.13513 0.0
H707 H 0.42567 0.59021 0.05249 0.0
H708 H 0.34952 0.57254 0.93577 0.0
H709 H 0.33469 0.52812 0.99396 0.0
C710 C 0.36364 0.50656 0.08912 0.0
C711 C 0.3816 0.49656 0.13693 0.0
C712 C 0.37174 0.53283 0.05686 0.0
C713 C 0.40763 0.51386 0.15273 0.0
C714 C 0.41536 0.54072 0.12178 0.0
C715 C 0.40573 0.5767 0.04026 0.0
C716 C 0.38867 0.58477 0.9898 0.0
C717 C 0.39769 0.55037 0.07335 0.0
C718 C 0.36313 0.5668 0.97407 0.0
C719 C 0.35456 0.54138 1.00744 0.0
H720 H 0.55294 0.63052 0.12386 0.0
H721 H 0.6116 0.58989 0.9924 0.0
H722 H 0.57146 0.59667 0.91891 0.0
H723 H 0.51986 0.61638 0.88996 0.0
H724 H 0.46198 0.65726 1.02164 0.0
H725 H 0.50109 0.6481 0.09621 0.0
C726 C 0.55692 0.62295 0.07929 0.0
C727 C 0.58549 0.60986 0.06411 0.0
C728 C 0.53372 0.62713 0.0367 0.0
C729 C 0.59002 0.60023 1.00577 0.0
C730 C 0.56699 0.60407 0.9634 0.0
C731 C 0.51587 0.62302 0.93508 0.0
C732 C 0.48831 0.63806 0.95006 0.0
C733 C 0.53879 0.6178 0.97807 0.0
C734 C 0.48334 0.64645 1.00871 0.0
C735 C 0.50566 0.64101 0.05156 0.0
H736 H 0.67549 0.52242 0.06508 0.0
H737 H 0.6055 0.50124 0.1922 0.0
H738 H 0.59091 0.45548 0.13566 0.0
H739 H 0.59691 0.42265 0.04699 0.0
H740 H 0.66441 0.44794 0.91728 0.0
H741 H 0.68093 0.49094 0.97762 0.0
C742 C 0.65732 0.50759 0.08102 0.0
C743 C 0.64193 0.51497 0.1333 0.0
C744 C 0.64836 0.48218 0.04726 0.0
C745 C 0.61788 0.49591 0.15234 0.0
C746 C 0.60948 0.46982 0.11988 0.0
C747 C 0.61531 0.43753 0.03222 0.0
C748 C 0.62933 0.43207 0.97752 0.0
C749 C 0.62436 0.46288 0.06681 0.0
C750 C 0.65299 0.45172 0.9588 0.0
C751 C 0.66259 0.47628 0.99343 0.0
H752 H 0.43081 0.42745 1.01385 0.0
H753 H 0.4476 0.34959 0.12656 0.0
H754 H 0.48984 0.3329 0.06408 0.0
H755 H 0.52288 0.34068 0.9795 0.0
H756 H 0.51113 0.42087 0.87098 0.0
H757 H 0.46597 0.43619 0.92893 0.0
C758 C 0.44373 0.40682 1.02446 0.0
C759 C 0.43606 0.38982 0.07498 0.0
C760 C 0.46884 0.39771 0.98894 0.0
C761 C 0.45316 0.36326 0.0884 0.0
C762 C 0.47727 0.35359 0.0525 0.0
C763 C 0.51043 0.36143 0.96805 0.0
C764 C 0.52034 0.37943 0.92049 0.0
C765 C 0.48543 0.37068 1.00293 0.0
C766 C 0.50397 0.40648 0.90712 0.0
C767 C 0.47818 0.41528 0.94042 0.0
H768 H 0.92741 0.42678 0.76365 0.0
H769 H 0.85113 0.44589 0.87901 0.0
H770 H 0.83513 0.48862 0.81706 0.0
H771 H 0.84317 0.52142 0.73228 0.0
H772 H 0.9219 0.50713 0.62086 0.0
H773 H 0.93639 0.46156 0.67838 0.0
C774 C 0.90726 0.44031 0.77495 0.0
C775 C 0.89051 0.43315 0.82604 0.0
C776 C 0.89857 0.46565 0.73971 0.0
C777 C 0.8646 0.45103 0.84037 0.0
C778 C 0.85533 0.47543 0.80479 0.0
C779 C 0.8634 0.5083 0.72005 0.0
C780 C 0.88123 0.51761 0.67183 0.0
C781 C 0.87219 0.48305 0.75463 0.0
C782 C 0.90765 0.50043 0.65752 0.0
C783 C 0.91597 0.47441 0.69056 0.0
H784 H 0.52409 0.17471 0.3147 0.0
H785 H 0.50569 0.10308 0.44 0.0
H786 H 0.45961 0.08809 0.38449 0.0
H787 H 0.42581 0.09413 0.29693 0.0
H788 H 0.44839 0.16337 0.16882 0.0
H789 H 0.49155 0.18035 0.22855 0.0
C790 C 0.50979 0.1561 0.33049 0.0
C791 C 0.51807 0.14033 0.38189 0.0
C792 C 0.4842 0.14693 0.29728 0.0
C793 C 0.49966 0.11575 0.40078 0.0
C794 C 0.47339 0.10712 0.36892 0.0
C795 C 0.44015 0.11299 0.2824 0.0
C796 C 0.43393 0.12736 0.22832 0.0
C797 C 0.46561 0.12232 0.31658 0.0
C798 C 0.45283 0.15166 0.20986 0.0
C799 C 0.47747 0.16153 0.24413 0.0
H800 H 0.08923 0.58605 0.7649 0.0
H801 H 0.15903 0.55966 0.89022 0.0
H802 H 0.17426 0.51674 0.82838 0.0
H803 H 0.16796 0.48633 0.73988 0.0
H804 H 0.09575 0.50818 0.61703 0.0
H805 H 0.08143 0.55328 0.67615 0.0
C806 C 0.10779 0.5709 0.77847 0.0
C807 C 0.12296 0.57619 0.83231 0.0
C808 C 0.11612 0.54553 0.74297 0.0
C809 C 0.14677 0.55612 0.84943 0.0
C810 C 0.15564 0.53158 0.81391 0.0
C811 C 0.14923 0.50103 0.72555 0.0
C812 C 0.13328 0.4941 0.6735 0.0
C813 C 0.14052 0.52606 0.76071 0.0
C814 C 0.10858 0.51311 0.65662 0.0
C815 C 0.10038 0.53886 0.69053 0.0
H816 H 0.59163 0.92187 0.30359 0.0
H817 H 0.57081 0.84807 0.18389 0.0
H818 H 0.52622 0.83388 0.24241 0.0
H819 H 0.49227 0.84281 0.32541 0.0
H820 H 0.50886 0.91884 0.44201 0.0
H821 H 0.55585 0.93169 0.38738 0.0
C822 C 0.57739 0.90258 0.29073 0.0
C823 C 0.58465 0.88599 0.23938 0.0
C824 C 0.551 0.89494 0.32404 0.0
C825 C 0.56572 0.86132 0.22288 0.0
C826 C 0.54021 0.85311 0.25644 0.0
C827 C 0.50625 0.86204 0.33948 0.0
C828 C 0.49717 0.87956 0.38839 0.0
C829 C 0.53253 0.86981 0.30684 0.0
C830 C 0.51536 0.90483 0.40483 0.0
C831 C 0.54223 0.91219 0.37348 0.0
H832 H 0.84473 0.9869 0.56985 0.0
H833 H 0.91976 1.00524 0.6883 0.0
H834 H 0.93421 0.05035 0.62961 0.0
H835 H 0.92599 0.08388 0.5419 0.0
H836 H 0.85347 0.06071 0.42029 0.0
H837 H 0.83782 0.01815 0.48243 0.0
C838 C 0.86415 1.0008 0.58325 0.0
C839 C 0.88089 0.99283 0.6339 0.0
C840 C 0.87296 0.02578 0.54815 0.0
C841 C 0.90635 0.01093 0.64975 0.0
C842 C 0.91464 0.03668 0.61606 0.0
C843 C 0.90676 0.06949 0.52921 0.0
C844 C 0.89096 0.07555 0.47629 0.0
C845 C 0.89823 0.04425 0.56476 0.0
C846 C 0.86624 0.05651 0.46032 0.0
C847 C 0.85714 0.03218 0.49602 0.0
H848 H 0.08751 0.08771 0.51148 0.0
H849 H 0.06325 0.16076 0.6308 0.0
H850 H 0.02015 0.17537 0.56836 0.0
H851 H 0.98886 0.16734 0.48152 0.0
H852 H 0.00848 0.09187 0.36518 0.0
H853 H 0.05402 0.07843 0.42422 0.0
C854 C 0.07279 0.10686 0.52354 0.0
C855 C 0.07863 0.12313 0.57583 0.0
C856 C 0.04732 0.11479 0.48785 0.0
C857 C 0.05918 0.14769 0.59118 0.0
C858 C 0.03457 0.15619 0.55533 0.0
C859 C 1.00316 0.14808 0.46855 0.0
C860 C 0.99546 0.1309 0.41847 0.0
C861 C 0.02839 0.1399 0.50376 0.0
C862 C 0.01401 0.10561 0.40328 0.0
C863 C 0.04 0.09791 0.43715 0.0
H864 H 0.08928 0.927 0.54731 0.0
H865 H 0.16242 0.94845 0.42649 0.0
H866 H 0.17809 0.99159 0.48732 0.0
H867 H 0.17073 0.02399 0.57287 0.0
H868 H 0.09516 0.00715 0.69043 0.0
H869 H 0.08091 0.96138 0.6335 0.0
C870 C 0.10868 0.94111 0.53459 0.0
C871 C 0.12463 0.93448 0.48228 0.0
C872 C 0.11722 0.96664 0.56932 0.0
C873 C 0.14957 0.95315 0.46611 0.0
C874 C 0.15867 0.97778 0.50104 0.0
C875 C 0.1513 0.01023 0.58659 0.0
C876 C 0.1343 0.01883 0.63638 0.0
C877 C 0.14263 0.98482 0.5525 0.0
C878 C 0.10878 1.00094 0.65253 0.0
C879 C 0.1006 0.97482 0.61986 0.0
H880 H 0.02398 0.8424 0.48754 0.0
H881 H 1.00691 0.91835 0.37078 0.0
H882 H 0.9609 0.9324 0.42754 0.0
H883 H 0.92632 0.92378 0.51348 0.0
H884 H 0.94796 0.85012 0.63334 0.0
H885 H 0.99132 0.83468 0.57262 0.0
C886 C 0.01012 0.86188 0.47394 0.0
C887 C 0.01877 0.87904 0.4244 0.0
C888 C 0.98453 0.87041 0.50791 0.0
C889 C 1.00072 0.90461 0.40847 0.0
C890 C 0.97443 0.91268 0.44106 0.0
C891 C 0.9405 0.90429 0.52598 0.0
C892 C 0.93384 0.88814 0.57806 0.0
C893 C 0.9662 0.89588 0.49131 0.0
C894 C 0.95264 0.86312 0.59392 0.0
C895 C 0.97743 0.85416 0.55905 0.0
H896 H 0.35734 0.20346 0.21583 0.0
H897 H 0.35764 0.20752 1.02696 0.0
H898 H 0.35822 0.26373 0.03134 0.0
H899 H 0.35836 0.31156 0.08868 0.0
H900 H 0.359 0.30738 0.27754 0.0
H901 H 0.35835 0.25119 0.27309 0.0
C902 C 0.35743 0.21653 0.17542 0.0
C903 C 0.35724 0.20109 0.12098 0.0
C904 C 0.35794 0.24883 0.17831 0.0
C905 C 0.35771 0.21863 0.06937 0.0
C906 C 0.35802 0.25082 0.0719 0.0
C907 C 0.35827 0.29846 0.12904 0.0
C908 C 0.35854 0.31387 0.18353 0.0
C909 C 0.35807 0.26615 0.12612 0.0
C910 C 0.35875 0.29629 0.2351 0.0
C911 C 0.35835 0.26412 0.23254 0.0
H912 H 0.31049 0.65968 0.9741 0.0
H913 H 0.30685 0.65836 0.78517 0.0
H914 H 0.25055 0.65574 0.78898 0.0
H915 H 0.20262 0.65431 0.84589 0.0
H916 H 0.2065 0.65484 0.03483 0.0
H917 H 0.26275 0.65722 0.03089 0.0
C918 C 0.29749 0.65895 0.93355 0.0
C919 C 0.31301 0.65949 0.87927 0.0
C920 C 0.26522 0.65725 0.93612 0.0
C921 C 0.29562 0.65809 0.82745 0.0
C922 C 0.26341 0.65659 0.82966 0.0
C923 C 0.21568 0.65498 0.88638 0.0
C924 C 0.2002 0.65457 0.94073 0.0
C925 C 0.24799 0.65625 0.88375 0.0
C926 C 0.21768 0.65516 0.99249 0.0
C927 C 0.24987 0.65657 0.99023 0.0
H928 H 0.66152 0.80704 0.22094 0.0
H929 H 0.66153 0.806 0.03195 0.0
H930 H 0.66083 0.74973 0.033 0.0
H931 H 0.6606 0.70095 0.08768 0.0
H932 H 0.65962 0.70245 0.27671 0.0
H933 H 0.6603 0.75858 0.27535 0.0
C934 C 0.66148 0.79461 0.1798 0.0
C935 C 0.6618 0.81087 0.12634 0.0
C936 C 0.66088 0.76233 0.18077 0.0
C937 C 0.66136 0.79419 0.07368 0.0
C938 C 0.66098 0.76199 0.07429 0.0
C939 C 0.66057 0.71349 0.12869 0.0
C940 C 0.6602 0.69734 0.18232 0.0
C941 C 0.66081 0.74583 0.12759 0.0
C942 C 0.65992 0.71414 0.23485 0.0
C943 C 0.66035 0.74628 0.2341 0.0
H944 H 0.81244 0.35511 0.84019 0.0
H945 H 0.80883 0.355 1.02907 0.0
H946 H 0.75249 0.35433 1.02505 0.0
H947 H 0.70441 0.3537 0.96799 0.0
H948 H 0.70819 0.35486 0.77911 0.0
H949 H 0.76448 0.35519 0.78325 0.0
C950 C 0.79943 0.35484 0.88066 0.0
C951 C 0.81502 0.35493 0.93498 0.0
C952 C 0.76707 0.35465 0.87799 0.0
C953 C 0.79758 0.35489 0.98672 0.0
C954 C 0.76532 0.35449 0.98441 0.0
C955 C 0.71746 0.3539 0.92758 0.0
C956 C 0.70193 0.35407 0.87318 0.0
C957 C 0.74984 0.35431 0.9303 0.0
C958 C 0.7194 0.35467 0.8215 0.0
C959 C 0.75163 0.35484 0.82387 0.0
H960 H 0.85865 0.70155 0.7203 0.0
H961 H 0.85789 0.70571 0.53142 0.0
H962 H 0.85728 0.76187 0.53582 0.0
H963 H 0.85671 0.80959 0.59299 0.0
H964 H 0.85835 0.80562 0.78186 0.0
H965 H 0.85889 0.74939 0.77758 0.0
C966 C 0.85827 0.71465 0.67994 0.0
C967 C 0.85814 0.69926 0.62547 0.0
C968 C 0.85808 0.74696 0.68281 0.0
C969 C 0.85795 0.71681 0.57386 0.0
C970 C 0.85758 0.74896 0.57638 0.0
C971 C 0.8571 0.79653 0.63342 0.0
C972 C 0.8573 0.81198 0.68782 0.0
C973 C 0.85757 0.76425 0.63059 0.0
C974 C 0.85812 0.79447 0.73947 0.0
C975 C 0.85841 0.76229 0.737 0.0
H976 H 0.81123 0.15311 0.45923 0.0
H977 H 0.80786 0.15446 0.27032 0.0
H978 H 0.75149 0.15603 0.27376 0.0
H979 H 0.70334 0.15742 0.33054 0.0
H980 H 0.70721 0.1553 0.51945 0.0
H981 H 0.76342 0.15364 0.51567 0.0
C982 C 0.79828 0.15381 0.41861 0.0
C983 C 0.81389 0.15384 0.36448 0.0
C984 C 0.76597 0.15458 0.42095 0.0
C985 C 0.79654 0.15445 0.31253 0.0
C986 C 0.76429 0.15538 0.31451 0.0
C987 C 0.71642 0.15664 0.371 0.0
C988 C 0.70094 0.15663 0.42532 0.0
C989 C 0.74878 0.15554 0.3685 0.0
C990 C 0.71839 0.15537 0.47711 0.0
C991 C 0.75057 0.15444 0.47496 0.0
H992 H 0.15679 0.31101 0.71461 0.0
H993 H 0.15647 0.30667 0.52576 0.0
H994 H 0.15606 0.25045 0.53045 0.0
H995 H 0.15608 0.20273 0.58809 0.0
H996 H 0.15551 0.20726 0.77694 0.0
H997 H 0.15596 0.26342 0.77213 0.0
C998 C 0.15673 0.29787 0.67427 0.0
C999 C 0.15687 0.31321 0.61976 0.0
C1000 C 0.15632 0.2656 0.67734 0.0
C1001 C 0.15644 0.2956 0.56823 0.0
C1002 C 0.15622 0.26343 0.57094 0.0
C1003 C 0.15612 0.21591 0.62837 0.0
C1004 C 0.15593 0.20061 0.68295 0.0
C1005 C 0.15622 0.2482 0.62525 0.0
C1006 C 0.15569 0.21827 0.73442 0.0
C1007 C 0.15598 0.25042 0.73166 0.0
H1008 H 0.31184 0.85904 0.34307 0.0
H1009 H 0.30795 0.859 0.53194 0.0
H1010 H 0.2516 0.85863 0.52756 0.0
H1011 H 0.20362 0.85789 0.47021 0.0
H1012 H 0.20762 0.85873 0.28134 0.0
H1013 H 0.26393 0.85923 0.28581 0.0
C1014 C 0.29877 0.85889 0.38347 0.0
C1015 C 0.3143 0.85886 0.43791 0.0
C1016 C 0.2664 0.85881 0.38058 0.0
C1017 C 0.29676 0.85897 0.48953 0.0
C1018 C 0.2645 0.85873 0.487 0.0
C1019 C 0.21671 0.8581 0.42984 0.0
C1020 C 0.20122 0.85808 0.37536 0.0
C1021 C 0.2491 0.85855 0.43277 0.0
C1022 C 0.21877 0.85868 0.32379 0.0
C1023 C 0.25102 0.85895 0.32636 0.0
H1024 H 0.19418 0.1032 0.87772 0.0
H1025 H 0.2656 0.10276 0.74667 0.0
H1026 H 0.30484 0.10216 0.82421 0.0
H1027 H 0.31879 0.10115 0.92887 0.0
H1028 H 0.24741 0.1047 0.05985 0.0
H1029 H 0.20817 0.10473 0.98232 0.0
C1030 C 0.21834 0.10298 0.86586 0.0
C1031 C 0.22683 0.10272 0.80602 0.0
C1032 C 0.24075 0.10324 0.9107 0.0
C1033 C 0.25831 0.10294 0.79197 0.0
C1034 C 0.28076 0.10256 0.83639 0.0
C1035 C 0.29464 0.10193 0.94072 0.0
C1036 C 0.28616 0.10261 1.00057 0.0
C1037 C 0.27225 0.10258 0.89587 0.0
C1038 C 0.2547 0.1041 1.01456 0.0
C1039 C 0.23225 0.1041 0.97015 0.0
H1040 H 0.10228 0.69309 0.13396 0.0
H1041 H 0.10379 0.76333 1.00071 0.0
H1042 H 0.10369 0.80306 0.07699 0.0
H1043 H 0.10254 0.81784 0.1813 0.0
H1044 H 0.10433 0.74759 0.31453 0.0
H1045 H 0.10386 0.70787 0.23825 0.0
C1046 C 0.1026 0.71709 0.12133 0.0
C1047 C 0.10274 0.72506 0.06116 0.0
C1048 C 0.10317 0.73981 0.16552 0.0
C1049 C 0.10361 0.75637 0.04623 0.0
C1050 C 0.10353 0.77912 0.08996 0.0
C1051 C 0.10284 0.79384 0.19393 0.0
C1052 C 0.10317 0.78586 0.2541 0.0
C1053 C 0.10319 0.77112 0.14973 0.0
C1054 C 0.10402 0.75454 0.26902 0.0
C1055 C 0.10372 0.7318 0.22528 0.0
H1056 H 0.69802 0.90579 0.9399 0.0
H1057 H 0.77148 0.91411 0.06612 0.0
H1058 H 0.80918 0.91609 0.98598 0.0
H1059 H 0.8213 0.91485 0.8806 0.0
H1060 H 0.748 0.90417 0.75447 0.0
H1061 H 0.71028 0.90322 0.83447 0.0
C1062 C 0.72233 0.90786 0.95009 0.0
C1063 C 0.73184 0.9099 1.00935 0.0
C1064 C 0.74391 0.90822 0.90384 0.0
C1065 C 0.76347 0.91227 1.02134 0.0
C1066 C 0.78501 0.91339 0.97545 0.0
C1067 C 0.79705 0.91238 0.87027 0.0
C1068 C 0.7876 0.90987 0.81098 0.0
C1069 C 0.77552 0.91133 0.91657 0.0
C1070 C 0.75606 0.90616 0.79918 0.0
C1071 C 0.73446 0.90562 0.84501 0.0
H1072 H 0.90788 0.31645 0.12677 0.0
H1073 H 0.92164 0.24702 0.99466 0.0
H1074 H 0.92394 0.20744 0.07139 0.0
H1075 H 0.92035 0.19237 0.17498 0.0
H1076 H 0.90391 0.2616 0.30672 0.0
H1077 H 0.90346 0.30131 0.23061 0.0
C1078 C 0.91112 0.29263 0.11447 0.0
C1079 C 0.91462 0.28485 0.05464 0.0
C1080 C 0.9114 0.2699 0.15862 0.0
C1081 C 0.91865 0.25376 0.03994 0.0
C1082 C 0.91987 0.23111 0.08382 0.0
C1083 C 0.91678 0.21616 0.1874 0.0
C1084 C 0.91241 0.22385 0.24713 0.0
C1085 C 0.91606 0.23887 0.14322 0.0
C1086 C 0.90739 0.25485 0.26158 0.0
C1087 C 0.90712 0.27761 0.21793 0.0
H1088 H 0.32055 0.41127 0.37764 0.0
H1089 H 0.24952 0.41134 0.24535 0.0
H1090 H 0.21008 0.41191 0.32209 0.0
H1091 H 0.19576 0.41279 0.42689 0.0
H1092 H 0.26676 0.40896 0.55905 0.0
H1093 H 0.30619 0.40945 0.48234 0.0
C1094 C 0.29645 0.41131 0.36535 0.0
C1095 C 0.28818 0.41149 0.30523 0.0
C1096 C 0.27387 0.41087 0.40991 0.0
C1097 C 0.25671 0.4112 0.29078 0.0
C1098 C 0.23412 0.41153 0.33485 0.0
C1099 C 0.21985 0.41193 0.43915 0.0
C1100 C 0.22811 0.41104 0.49925 0.0
C1101 C 0.24241 0.41144 0.39456 0.0
C1102 C 0.25956 0.40966 0.51365 0.0
C1103 C 0.28216 0.40993 0.46959 0.0
H1104 H 0.40377 0.69828 0.68917 0.0
H1105 H 0.41996 0.77028 0.81509 0.0
H1106 H 0.42328 0.80791 0.73507 0.0
H1107 H 0.42037 0.82064 0.63052 0.0
H1108 H 0.40204 0.7493 0.50404 0.0
H1109 H 0.39995 0.71129 0.5834 0.0
C1110 C 0.4077 0.7223 0.69929 0.0
C1111 C 0.41151 0.73143 0.75849 0.0
C1112 C 0.40874 0.74397 0.65308 0.0
C1113 C 0.41651 0.76264 0.77044 0.0
C1114 C 0.41842 0.78414 0.72463 0.0
C1115 C 0.41602 0.79676 0.61989 0.0
C1116 C 0.41161 0.78799 0.56069 0.0
C1117 C 0.41441 0.77513 0.66591 0.0
C1118 C 0.40557 0.75689 0.54869 0.0
C1119 C 0.40437 0.73511 0.59426 0.0
H1120 H 0.69777 0.60221 0.3752 0.0
H1121 H 0.7705 0.59809 0.2471 0.0
H1122 H 0.80886 0.59657 0.32629 0.0
H1123 H 0.82178 0.59756 0.43093 0.0
H1124 H 0.74935 0.60424 0.55948 0.0
H1125 H 0.71082 0.60424 0.48078 0.0
C1126 C 0.72203 0.60124 0.36439 0.0
C1127 C 0.73116 0.60025 0.30488 0.0
C1128 C 0.74398 0.60127 0.41013 0.0
C1129 C 0.76275 0.59912 0.2921 0.0
C1130 C 0.78468 0.59831 0.3374 0.0
C1131 C 0.79755 0.59896 0.44205 0.0
C1132 C 0.78857 0.60061 0.50157 0.0
C1133 C 0.77558 0.59952 0.39647 0.0
C1134 C 0.75703 0.60293 0.51446 0.0
C1135 C 0.73497 0.60295 0.4693 0.0
H1136 H 0.58865 0.19778 0.61954 0.0
H1137 H 0.6243 0.26551 0.49959 0.0
H1138 H 0.62729 0.30289 0.57973 0.0
H1139 H 0.61782 0.31703 0.68288 0.0
H1140 H 0.58509 0.24855 0.80378 0.0
H1141 H 0.58206 0.21097 0.72361 0.0
C1142 C 0.59685 0.22079 0.61044 0.0
C1143 C 0.60569 0.22886 0.55278 0.0
C1144 C 0.59875 0.24211 0.65687 0.0
C1145 C 0.61692 0.25866 0.54291 0.0
C1146 C 0.61864 0.28006 0.58882 0.0
C1147 C 0.61026 0.29376 0.69179 0.0
C1148 C 0.60161 0.28558 0.74933 0.0
C1149 C 0.60931 0.27215 0.64578 0.0
C1150 C 0.59207 0.25536 0.76018 0.0
C1151 C 0.59024 0.23395 0.71424 0.0
H1152 H 0.3819 0.10894 0.50741 0.0
H1153 H 0.28461 0.1116 0.54512 0.0
H1154 H 0.2957 0.11257 0.65004 0.0
H1155 H 0.33309 0.11087 0.73143 0.0
H1156 H 0.43038 0.10887 0.69289 0.0
H1157 H 0.41914 0.10874 0.58839 0.0
C1158 C 0.36309 0.10953 0.53855 0.0
C1159 C 0.33246 0.11009 0.51815 0.0
C1160 C 0.36962 0.10995 0.59892 0.0
C1161 C 0.30842 0.11145 0.55935 0.0
C1162 C 0.31474 0.11181 0.61949 0.0
C1163 C 0.35188 0.11074 0.70032 0.0
C1164 C 0.38259 0.10956 0.72056 0.0
C1165 C 0.34527 0.11093 0.63985 0.0
C1166 C 0.40652 0.10912 0.67904 0.0
C1167 C 0.40013 0.10926 0.61905 0.0
H1168 H 0.1102 0.62854 0.55463 0.0
H1169 H 0.10953 0.72562 0.51641 0.0
H1170 H 0.11052 0.71454 0.41153 0.0
H1171 H 0.10979 0.67718 0.3303 0.0
H1172 H 0.11118 0.58012 0.36937 0.0
H1173 H 0.11101 0.59137 0.47381 0.0
C1174 C 0.11008 0.64731 0.5234 0.0
C1175 C 0.10969 0.67788 0.54367 0.0
C1176 C 0.11054 0.64078 0.46304 0.0
C1177 C 0.11012 0.70186 0.50231 0.0
C1178 C 0.1105 0.69554 0.44219 0.0
C1179 C 0.11041 0.65845 0.36152 0.0
C1180 C 0.11019 0.62778 0.34143 0.0
C1181 C 0.11058 0.66507 0.42197 0.0
C1182 C 0.11069 0.60393 0.38309 0.0
C1183 C 0.1108 0.61033 0.44305 0.0
H1184 H 0.64418 0.91781 0.5187 0.0
H1185 H 0.7353 0.8832 0.55615 0.0
H1186 H 0.72292 0.88098 0.66054 0.0
H1187 H 0.6865 0.89026 0.74173 0.0
H1188 H 0.59521 0.92431 0.7027 0.0
H1189 H 0.60765 0.92586 0.59897 0.0
C1190 C 0.66146 0.90999 0.54968 0.0
C1191 C 0.69071 0.90084 0.52934 0.0
C1192 C 0.65422 0.90887 0.60969 0.0
C1193 C 0.71253 0.89018 0.57028 0.0
C1194 C 0.70551 0.88907 0.63014 0.0
C1195 C 0.66921 0.89785 0.7107 0.0
C1196 C 0.64003 0.90762 0.73089 0.0
C1197 C 0.67643 0.89847 0.65046 0.0
C1198 C 0.61809 0.91737 0.68927 0.0
C1199 C 0.6251 0.91806 0.62959 0.0
H1200 H 0.90897 0.33331 0.32318 0.0
H1201 H 0.89622 0.42946 0.36262 0.0
H1202 H 0.89548 0.41789 0.46712 0.0
H1203 H 0.89867 0.38071 0.54761 0.0
H1204 H 0.91294 0.28461 0.50888 0.0
H1205 H 0.91191 0.29586 0.40426 0.0
C1206 C 0.90571 0.3517 0.35458 0.0
C1207 C 0.90277 0.38227 0.33474 0.0
C1208 C 0.90539 0.34489 0.41496 0.0
C1209 C 0.89897 0.4058 0.37639 0.0
C1210 C 0.89838 0.39918 0.43629 0.0
C1211 C 0.90187 0.36218 0.51648 0.0
C1212 C 0.90592 0.33181 0.53675 0.0
C1213 C 0.90178 0.36886 0.45614 0.0
C1214 C 0.90934 0.30816 0.49511 0.0
C1215 C 0.909 0.3146 0.43502 0.0
H1216 H 0.3794 0.44624 0.59621 0.0
H1217 H 0.36434 0.34887 0.57593 0.0
H1218 H 0.34632 0.34563 0.67695 0.0
H1219 H 0.33638 0.37013 0.77254 0.0
H1220 H 0.35202 0.46743 0.79249 0.0
H1221 H 0.36878 0.4708 0.69084 0.0
C1222 C 0.37247 0.42422 0.61394 0.0
C1223 C 0.37342 0.39783 0.57821 0.0
C1224 C 0.36235 0.42244 0.67236 0.0
C1225 C 0.36363 0.36966 0.60194 0.0
C1226 C 0.35346 0.36773 0.65995 0.0
C1227 C 0.34317 0.39213 0.75451 0.0
C1228 C 0.3431 0.41844 0.79053 0.0
C1229 C 0.35283 0.39395 0.69571 0.0
C1230 C 0.3523 0.44669 0.76631 0.0
C1231 C 0.36175 0.44869 0.70797 0.0
H1232 H 0.37144 0.66754 0.28157 0.0
H1233 H 0.45892 0.71392 0.29376 0.0
H1234 H 0.46289 0.69997 0.39695 0.0
H1235 H 0.44218 0.67357 0.48382 0.0
H1236 H 0.35439 0.6279 0.47215 0.0
H1237 H 0.34966 0.64312 0.36954 0.0
C1238 C 0.39121 0.67497 0.30689 0.0
C1239 C 0.41498 0.69155 0.2793 0.0
C1240 C 0.39333 0.66698 0.36662 0.0
C1241 C 0.44053 0.70064 0.31314 0.0
C1242 C 0.44277 0.69281 0.37243 0.0
C1243 C 0.42206 0.66685 0.45875 0.0
C1244 C 0.39875 0.64945 0.4858 0.0
C1245 C 0.41949 0.67568 0.39953 0.0
C1246 C 0.37259 0.64145 0.45278 0.0
C1247 C 0.36993 0.65003 0.3939 0.0
H1248 H 0.684 0.64408 0.76946 0.0
H1249 H 0.67232 0.54624 0.78973 0.0
H1250 H 0.65536 0.54214 0.68821 0.0
H1251 H 0.6434 0.56612 0.59342 0.0
H1252 H 0.65417 0.66407 0.57291 0.0
H1253 H 0.67252 0.66808 0.6737 0.0
C1254 C 0.67802 0.62181 0.75156 0.0
C1255 C 0.67929 0.59556 0.78779 0.0
C1256 C 0.66816 0.61956 0.69272 0.0
C1257 C 0.67113 0.56696 0.76356 0.0
C1258 C 0.66154 0.56454 0.70522 0.0
C1259 C 0.64944 0.58845 0.61099 0.0
C1260 C 0.6472 0.61474 0.57505 0.0
C1261 C 0.65973 0.59069 0.66946 0.0
C1262 C 0.65589 0.64331 0.59883 0.0
C1263 C 0.66625 0.64568 0.65681 0.0
H1264 H 0.61967 0.40358 0.43554 0.0
H1265 H 0.58832 0.31677 0.50416 0.0
H1266 H 0.58992 0.29445 0.40671 0.0
H1267 H 0.60041 0.29921 0.30162 0.0
H1268 H 0.62799 0.38714 0.23165 0.0
H1269 H 0.62858 0.4088 0.32982 0.0
C1270 C 0.61351 0.37967 0.42946 0.0
C1271 C 0.60448 0.36185 0.47799 0.0
C1272 C 0.61399 0.36698 0.37273 0.0
C1273 C 0.59568 0.33114 0.46831 0.0
C1274 C 0.59657 0.31826 0.4123 0.0
C1275 C 0.60627 0.32321 0.3075 0.0
C1276 C 0.61438 0.34127 0.25867 0.0
C1277 C 0.60569 0.33594 0.36414 0.0
C1278 C 0.62235 0.37226 0.26803 0.0
C1279 C 0.62238 0.38487 0.32433 0.0
H1280 H 0.80685 0.62691 0.05138 0.0
H1281 H 0.89393 0.59482 0.98396 0.0
H1282 H 0.91536 0.59384 0.0828 0.0
H1283 H 0.90947 0.6018 0.18839 0.0
H1284 H 0.82274 0.63491 0.25611 0.0
H1285 H 0.80135 0.63599 0.1576 0.0
C1286 C 0.83047 0.61961 0.05845 0.0
C1287 C 0.84875 0.61101 1.01028 0.0
C1288 C 0.8428 0.61931 0.11557 0.0
C1289 C 0.87945 0.60191 1.02012 0.0
C1290 C 0.8917 0.60121 0.0767 0.0
C1291 C 0.88578 0.60896 0.18192 0.0
C1292 C 0.8677 0.6176 0.23044 0.0
C1293 C 0.8736 0.60981 0.1248 0.0
C1294 C 0.83732 0.62782 0.22025 0.0
C1295 C 0.82496 0.62843 0.16365 0.0
H1296 H 0.6082 0.10813 0.86434 0.0
H1297 H 0.62497 0.19845 0.79358 0.0
H1298 H 0.62342 0.22031 0.89153 0.0
H1299 H 0.61544 0.21431 0.9978 0.0
H1300 H 0.60143 0.12339 0.06864 0.0
H1301 H 0.603 0.10173 0.97057 0.0
C1302 C 0.61123 0.13266 0.87 0.0
C1303 C 0.61596 0.15155 0.82061 0.0
C1304 C 0.61058 0.14518 0.92693 0.0
C1305 C 0.62092 0.18316 0.82996 0.0
C1306 C 0.62002 0.1958 0.88631 0.0
C1307 C 0.61308 0.18971 0.99208 0.0
C1308 C 0.60781 0.17076 0.04123 0.0
C1309 C 0.61462 0.17708 0.9352 0.0
C1310 C 0.60463 0.13889 0.03209 0.0
C1311 C 0.60582 0.12631 0.9758 0.0
H1312 H 0.13573 0.44608 0.20681 0.0
H1313 H 0.15417 0.34932 0.22969 0.0
H1314 H 0.17242 0.34588 0.12887 0.0
H1315 H 0.18163 0.36995 0.03273 0.0
H1316 H 0.16243 0.46656 1.00994 0.0
H1317 H 0.14546 0.4702 0.11147 0.0
C1318 C 0.14344 0.42414 0.18969 0.0
C1319 C 0.1434 0.39799 0.22613 0.0
C1320 C 0.15365 0.42222 0.13134 0.0
C1321 C 0.15418 0.36994 0.20316 0.0
C1322 C 0.16448 0.36789 0.14525 0.0
C1323 C 0.17402 0.39187 0.05012 0.0
C1324 C 0.17318 0.41789 1.01337 0.0
C1325 C 0.16421 0.39384 0.1088 0.0
C1326 C 0.1629 0.44602 0.03673 0.0
C1327 C 0.15331 0.44819 0.09498 0.0
H1328 H 0.39586 0.80704 1.00857 0.0
H1329 H 0.41231 0.89787 0.07799 0.0
H1330 H 0.41067 0.91921 0.97963 0.0
H1331 H 0.4054 0.91232 0.87353 0.0
H1332 H 0.38547 0.8222 0.80468 0.0
H1333 H 0.38666 0.80083 0.90294 0.0
C1334 C 0.39866 0.83157 1.00251 0.0
C1335 C 0.40477 0.85057 0.05115 0.0
C1336 C 0.39702 0.84399 0.94562 0.0
C1337 C 0.40851 0.88235 0.04167 0.0
C1338 C 0.40728 0.89473 0.98528 0.0
C1339 C 0.40156 0.88794 0.87973 0.0
C1340 C 0.39635 0.86887 0.83082 0.0
C1341 C 0.40188 0.87574 0.93682 0.0
C1342 C 0.39018 0.83753 0.8407 0.0
C1343 C 0.39081 0.82519 0.89722 0.0
H1344 H 0.80488 0.8885 0.25861 0.0
H1345 H 0.88909 0.92827 0.32448 0.0
H1346 H 0.91082 0.92795 0.2264 0.0
H1347 H 0.90624 0.91668 0.12179 0.0
H1348 H 0.82289 0.87537 0.0556 0.0
H1349 H 0.80114 0.87522 0.15376 0.0
C1350 C 0.8281 0.89682 0.25171 0.0
C1351 C 0.84504 0.90879 0.29921 0.0
C1352 C 0.8408 0.8962 0.19492 0.0
C1353 C 0.87508 0.91963 0.28888 0.0
C1354 C 0.88771 0.91923 0.23271 0.0
C1355 C 0.88318 0.9079 0.12847 0.0
C1356 C 0.86615 0.89667 0.08046 0.0
C1357 C 0.87074 0.90777 0.18531 0.0
C1358 C 0.83668 0.88441 0.09107 0.0
C1359 C 0.82409 0.88436 0.14745 0.0
H1360 H 0.90516 0.0985 0.93243 0.0
H1361 H 0.88894 0.18951 1.00111 0.0
H1362 H 0.88972 0.21059 0.90259 0.0
H1363 H 0.89717 0.20371 0.79657 0.0
H1364 H 0.91194 0.11244 0.72782 0.0
H1365 H 0.91022 0.09128 0.82649 0.0
C1366 C 0.90208 0.123 0.92614 0.0
C1367 C 0.89772 0.14233 0.97496 0.0
C1368 C 0.90247 0.13508 0.86901 0.0
C1369 C 0.89268 0.17391 0.96505 0.0
C1370 C 0.89315 0.1861 0.90842 0.0
C1371 C 0.89965 0.17915 0.80301 0.0
C1372 C 0.90506 0.15984 0.75456 0.0
C1373 C 0.89832 0.16695 0.86005 0.0
C1374 C 0.90846 0.12805 0.76416 0.0
C1375 C 0.90725 0.11583 0.82066 0.0
H1376 H 0.17979 0.11333 0.07494 0.0
H1377 H 0.0828 0.10554 0.11347 0.0
H1378 H 0.09413 0.10464 0.21786 0.0
H1379 H 0.13135 0.1058 0.29883 0.0
H1380 H 0.22825 0.11466 0.26137 0.0
H1381 H 0.21707 0.11621 0.15644 0.0
C1382 C 0.16106 0.11177 0.10602 0.0
C1383 C 0.13045 0.10915 0.08571 0.0
C1384 C 0.16769 0.11159 0.1665 0.0
C1385 C 0.10663 0.10689 0.12725 0.0
C1386 C 0.11305 0.1066 0.18722 0.0
C1387 C 0.15006 0.10789 0.26772 0.0
C1388 C 0.18061 0.10999 0.28816 0.0
C1389 C 0.14348 0.10872 0.20738 0.0
C1390 C 0.20449 0.11326 0.24707 0.0
C1391 C 0.19812 0.11397 0.18694 0.0
H1392 H 0.11007 0.88225 0.76069 0.0
H1393 H 0.11174 0.78515 0.79862 0.0
H1394 H 0.11255 0.79617 0.90358 0.0
H1395 H 0.11095 0.83347 0.98489 0.0
H1396 H 0.11015 0.93056 0.94601 0.0
H1397 H 0.11015 0.91937 0.84157 0.0
C1398 C 0.11044 0.86347 0.79188 0.0
C1399 C 0.11073 0.83291 0.77155 0.0
C1400 C 0.1108 0.86995 0.85225 0.0
C1401 C 0.11178 0.8089 0.81282 0.0
C1402 C 0.11206 0.81518 0.87297 0.0
C1403 C 0.11113 0.85222 0.95371 0.0
C1404 C 0.11022 0.88287 0.97387 0.0
C1405 C 0.11143 0.84564 0.89326 0.0
C1406 C 0.11017 0.90675 0.93226 0.0
C1407 C 0.11039 0.90039 0.87229 0.0
loop_
_geom_bond_atom_site_label_1
_geom_bond_atom_site_label_2
_geom_bond_distance
_geom_bond_site_symmetry_2
_ccdc_geom_bond_type
Tb0 C9 2.764 1_554 S
Tb0 O10 2.325 . S
Tb0 O13 2.303 . S
Tb0 O17 2.322 . S
Tb0 O18 2.349 . S
Tb0 O21 2.415 1_554 S
Tb0 O22 2.399 1_554 S
Tb1 O11 2.322 . S
Tb1 O12 2.349 . S
Tb1 O14 2.415 . S
Tb1 O15 2.399 . S
Tb1 O16 2.325 . S
Tb1 O19 2.303 . S
Tb1 C30 2.764 . S
C2 O18 1.261 . S
C2 O19 1.257 . S
C3 C6 1.358 . S
C3 C7 1.332 . S
C3 C9 1.504 . S
C4 C5 1.373 . S
C4 C8 1.308 . S
C5 C4 1.373 . S
C5 C6 1.429 . S
C5 H32 0.932 . S
C6 C3 1.358 . S
C6 C5 1.429 . S
C6 H33 0.930 . S
C7 C3 1.332 . S
C7 C8 1.394 . S
C7 H34 0.932 . S
C8 C4 1.308 . S
C8 C7 1.394 . S
C8 H35 0.929 . S
C9 Tb0 2.764 1_556 S
C9 C3 1.504 . S
C9 O21 1.239 . S
C9 O22 1.263 . S
O10 Tb0 2.325 . S
O10 C20 1.236 . S
O11 Tb1 2.322 . S
O11 C20 1.257 . S
O12 Tb1 2.349 . S
O12 C23 1.261 . S
O13 Tb0 2.303 . S
O13 C23 1.257 . S
O14 Tb1 2.415 . S
O14 C30 1.239 . S
O15 Tb1 2.399 . S
O15 C30 1.263 . S
O16 Tb1 2.325 . S
O16 C31 1.236 . S
O17 Tb0 2.322 . S
O17 C31 1.257 . S
O18 Tb0 2.349 . S
O18 C2 1.261 . S
O19 Tb1 2.303 . S
O19 C2 1.257 . S
C20 O10 1.236 . S
C20 O11 1.257 . S
O21 Tb0 2.415 1_556 S
O21 C9 1.239 . S
O22 Tb0 2.399 1_556 S
O22 C9 1.263 . S
C23 O12 1.261 . S
C23 O13 1.257 . S
C24 C27 1.358 . S
C24 C28 1.332 . S
C24 C30 1.504 . S
C25 C26 1.373 . S
C25 C29 1.308 . S
C26 C25 1.373 . S
C26 C27 1.429 . S
C26 H36 0.932 . S
C27 C24 1.358 . S
C27 C26 1.429 . S
C27 H37 0.930 . S
C28 C24 1.332 . S
C28 C29 1.394 . S
C28 H38 0.932 . S
C29 C25 1.308 . S
C29 C28 1.394 . S
C29 H39 0.929 . S
C30 Tb1 2.764 . S
C30 O14 1.239 . S
C30 O15 1.263 . S
C30 C24 1.504 . S
C31 O16 1.236 . S
C31 O17 1.257 . S
H32 C5 0.932 . S
H33 C6 0.930 . S
H34 C7 0.932 . S
H35 C8 0.929 . S
H36 C26 0.932 . S
H37 C27 0.930 . S
H38 C28 0.932 . S
H39 C29 0.929 . S
Tb40 C49 2.764 . S
Tb40 O50 2.325 . S
Tb40 O53 2.303 . S
Tb40 O57 2.322 . S
Tb40 O58 2.349 . S
Tb40 O61 2.415 . S
Tb40 O62 2.399 . S
Tb41 O51 2.322 . S
Tb41 O52 2.349 . S
Tb41 O54 2.415 1_556 S
Tb41 O55 2.399 1_556 S
Tb41 O56 2.325 . S
Tb41 O59 2.303 . S
Tb41 C70 2.764 1_556 S
C42 O58 1.261 . S
C42 O59 1.257 . S
C43 C46 1.358 . S
C43 C47 1.332 . S
C43 C49 1.504 . S
C44 C45 1.373 . S
C44 C48 1.308 . S
C45 C44 1.373 . S
C45 C46 1.429 . S
C45 H72 0.932 . S
C46 C43 1.358 . S
C46 C45 1.429 . S
C46 H73 0.930 . S
C47 C43 1.332 . S
C47 C48 1.394 . S
C47 H74 0.932 . S
C48 C44 1.308 . S
C48 C47 1.394 . S
C48 H75 0.929 . S
C49 Tb40 2.764 . S
C49 C43 1.504 . S
C49 O61 1.239 . S
C49 O62 1.263 . S
O50 Tb40 2.325 . S
O50 C60 1.236 . S
O51 Tb41 2.322 . S
O51 C60 1.257 . S
O52 Tb41 2.349 . S
O52 C63 1.261 . S
O53 Tb40 2.303 . S
O53 C63 1.257 . S
O54 Tb41 2.415 1_554 S
O54 C70 1.239 . S
O55 Tb41 2.399 1_554 S
O55 C70 1.263 . S
O56 Tb41 2.325 . S
O56 C71 1.236 . S
O57 Tb40 2.322 . S
O57 C71 1.257 . S
O58 Tb40 2.349 . S
O58 C42 1.261 . S
O59 Tb41 2.303 . S
O59 C42 1.257 . S
C60 O50 1.236 . S
C60 O51 1.257 . S
O61 Tb40 2.415 . S
O61 C49 1.239 . S
O62 Tb40 2.399 . S
O62 C49 1.263 . S
C63 O52 1.261 . S
C63 O53 1.257 . S
C64 C67 1.358 . S
C64 C68 1.332 . S
C64 C70 1.504 . S
C65 C66 1.373 . S
C65 C69 1.308 . S
C66 C65 1.373 . S
C66 C67 1.429 . S
C66 H76 0.932 . S
C67 C64 1.358 . S
C67 C66 1.429 . S
C67 H77 0.930 . S
C68 C64 1.332 . S
C68 C69 1.394 . S
C68 H78 0.932 . S
C69 C65 1.308 . S
C69 C68 1.394 . S
C69 H79 0.929 . S
C70 Tb41 2.764 1_554 S
C70 O54 1.239 . S
C70 O55 1.263 . S
C70 C64 1.504 . S
C71 O56 1.236 . S
C71 O57 1.257 . S
H72 C45 0.932 . S
H73 C46 0.930 . S
H74 C47 0.932 . S
H75 C48 0.929 . S
H76 C66 0.932 . S
H77 C67 0.930 . S
H78 C68 0.932 . S
H79 C69 0.929 . S
Tb80 C89 2.764 1_554 S
Tb80 O90 2.325 . S
Tb80 O93 2.303 . S
Tb80 O97 2.322 . S
Tb80 O98 2.349 . S
Tb80 O101 2.415 1_554 S
Tb80 O102 2.399 1_554 S
Tb81 O91 2.322 . S
Tb81 O92 2.349 . S
Tb81 O94 2.415 . S
Tb81 O95 2.399 . S
Tb81 O96 2.325 . S
Tb81 O99 2.303 . S
Tb81 C110 2.764 . S
C82 O98 1.261 . S
C82 O99 1.257 . S
C83 C86 1.358 . S
C83 C87 1.332 . S
C83 C89 1.504 . S
C84 C85 1.373 . S
C84 C88 1.308 . S
C85 C84 1.373 . S
C85 C86 1.429 . S
C85 H112 0.932 . S
C86 C83 1.358 . S
C86 C85 1.429 . S
C86 H113 0.930 . S
C87 C83 1.332 . S
C87 C88 1.394 . S
C87 H114 0.932 . S
C88 C84 1.308 . S
C88 C87 1.394 . S
C88 H115 0.929 . S
C89 Tb80 2.764 1_556 S
C89 C83 1.504 . S
C89 O101 1.239 . S
C89 O102 1.263 . S
O90 Tb80 2.325 . S
O90 C100 1.236 . S
O91 Tb81 2.322 . S
O91 C100 1.257 . S
O92 Tb81 2.349 . S
O92 C103 1.261 . S
O93 Tb80 2.303 . S
O93 C103 1.257 . S
O94 Tb81 2.415 . S
O94 C110 1.239 . S
O95 Tb81 2.399 . S
O95 C110 1.263 . S
O96 Tb81 2.325 . S
O96 C111 1.236 . S
O97 Tb80 2.322 . S
O97 C111 1.257 . S
O98 Tb80 2.349 . S
O98 C82 1.261 . S
O99 Tb81 2.303 . S
O99 C82 1.257 . S
C100 O90 1.236 . S
C100 O91 1.257 . S
O101 Tb80 2.415 1_556 S
O101 C89 1.239 . S
O102 Tb80 2.399 1_556 S
O102 C89 1.263 . S
C103 O92 1.261 . S
C103 O93 1.257 . S
C104 C107 1.358 . S
C104 C108 1.332 . S
C104 C110 1.504 . S
C105 C106 1.373 . S
C105 C109 1.308 . S
C106 C105 1.373 . S
C106 C107 1.429 . S
C106 H116 0.932 . S
C107 C104 1.358 . S
C107 C106 1.429 . S
C107 H117 0.930 . S
C108 C104 1.332 . S
C108 C109 1.394 . S
C108 H118 0.932 . S
C109 C105 1.308 . S
C109 C108 1.394 . S
C109 H119 0.929 . S
C110 Tb81 2.764 . S
C110 O94 1.239 . S
C110 O95 1.263 . S
C110 C104 1.504 . S
C111 O96 1.236 . S
C111 O97 1.257 . S
H112 C85 0.932 . S
H113 C86 0.930 . S
H114 C87 0.932 . S
H115 C88 0.929 . S
H116 C106 0.932 . S
H117 C107 0.930 . S
H118 C108 0.932 . S
H119 C109 0.929 . S
Tb120 C129 2.764 . S
Tb120 O130 2.325 . S
Tb120 O133 2.303 . S
Tb120 O137 2.322 . S
Tb120 O138 2.349 . S
Tb120 O141 2.415 . S
Tb120 O142 2.399 . S
Tb121 O131 2.322 . S
Tb121 O132 2.349 . S
Tb121 O134 2.415 1_556 S
Tb121 O135 2.399 1_556 S
Tb121 O136 2.325 . S
Tb121 O139 2.303 . S
Tb121 C150 2.764 1_556 S
C122 O138 1.261 . S
C122 O139 1.257 . S
C123 C126 1.358 . S
C123 C127 1.332 . S
C123 C129 1.504 . S
C124 C125 1.373 . S
C124 C128 1.308 . S
C125 C124 1.373 . S
C125 C126 1.429 . S
C125 H152 0.932 . S
C126 C123 1.358 . S
C126 C125 1.429 . S
C126 H153 0.930 . S
C127 C123 1.332 . S
C127 C128 1.394 . S
C127 H154 0.932 . S
C128 C124 1.308 . S
C128 C127 1.394 . S
C128 H155 0.929 . S
C129 Tb120 2.764 . S
C129 C123 1.504 . S
C129 O141 1.239 . S
C129 O142 1.263 . S
O130 Tb120 2.325 . S
O130 C140 1.236 . S
O131 Tb121 2.322 . S
O131 C140 1.257 . S
O132 Tb121 2.349 . S
O132 C143 1.261 . S
O133 Tb120 2.303 . S
O133 C143 1.257 . S
O134 Tb121 2.415 1_554 S
O134 C150 1.239 . S
O135 Tb121 2.399 1_554 S
O135 C150 1.263 . S
O136 Tb121 2.325 . S
O136 C151 1.236 . S
O137 Tb120 2.322 . S
O137 C151 1.257 . S
O138 Tb120 2.349 . S
O138 C122 1.261 . S
O139 Tb121 2.303 . S
O139 C122 1.257 . S
C140 O130 1.236 . S
C140 O131 1.257 . S
O141 Tb120 2.415 . S
O141 C129 1.239 . S
O142 Tb120 2.399 . S
O142 C129 1.263 . S
C143 O132 1.261 . S
C143 O133 1.257 . S
C144 C147 1.358 . S
C144 C148 1.332 . S
C144 C150 1.504 . S
C145 C146 1.373 . S
C145 C149 1.308 . S
C146 C145 1.373 . S
C146 C147 1.429 . S
C146 H156 0.932 . S
C147 C144 1.358 . S
C147 C146 1.429 . S
C147 H157 0.930 . S
C148 C144 1.332 . S
C148 C149 1.394 . S
C148 H158 0.932 . S
C149 C145 1.308 . S
C149 C148 1.394 . S
C149 H159 0.929 . S
C150 Tb121 2.764 1_554 S
C150 O134 1.239 . S
C150 O135 1.263 . S
C150 C144 1.504 . S
C151 O136 1.236 . S
C151 O137 1.257 . S
H152 C125 0.932 . S
H153 C126 0.930 . S
H154 C127 0.932 . S
H155 C128 0.929 . S
H156 C146 0.932 . S
H157 C147 0.930 . S
H158 C148 0.932 . S
H159 C149 0.929 . S
Tb160 C169 2.764 . S
Tb160 O170 2.325 . S
Tb160 O173 2.303 . S
Tb160 O177 2.322 . S
Tb160 O178 2.349 . S
Tb160 O181 2.415 . S
Tb160 O182 2.399 . S
Tb161 O171 2.322 . S
Tb161 O172 2.349 . S
Tb161 O174 2.415 1_554 S
Tb161 O175 2.399 1_554 S
Tb161 O176 2.325 . S
Tb161 O179 2.303 . S
Tb161 C190 2.764 1_554 S
C162 O178 1.261 . S
C162 O179 1.257 . S
C163 C166 1.358 . S
C163 C167 1.332 . S
C163 C169 1.504 . S
C164 C165 1.373 . S
C164 C168 1.308 . S
C165 C164 1.373 . S
C165 C166 1.429 . S
C165 H192 0.932 . S
C166 C163 1.358 . S
C166 C165 1.429 . S
C166 H193 0.930 . S
C167 C163 1.332 . S
C167 C168 1.394 . S
C167 H194 0.932 . S
C168 C164 1.308 . S
C168 C167 1.394 . S
C168 H195 0.929 . S
C169 Tb160 2.764 . S
C169 C163 1.504 . S
C169 O181 1.239 . S
C169 O182 1.263 . S
O170 Tb160 2.325 . S
O170 C180 1.236 . S
O171 Tb161 2.322 . S
O171 C180 1.257 . S
O172 Tb161 2.349 . S
O172 C183 1.261 . S
O173 Tb160 2.303 . S
O173 C183 1.257 . S
O174 Tb161 2.415 1_556 S
O174 C190 1.239 . S
O175 Tb161 2.399 1_556 S
O175 C190 1.263 . S
O176 Tb161 2.325 . S
O176 C191 1.236 . S
O177 Tb160 2.322 . S
O177 C191 1.257 . S
O178 Tb160 2.349 . S
O178 C162 1.261 . S
O179 Tb161 2.303 . S
O179 C162 1.257 . S
C180 O170 1.236 . S
C180 O171 1.257 . S
O181 Tb160 2.415 . S
O181 C169 1.239 . S
O182 Tb160 2.399 . S
O182 C169 1.263 . S
C183 O172 1.261 . S
C183 O173 1.257 . S
C184 C187 1.358 . S
C184 C188 1.332 . S
C184 C190 1.504 . S
C185 C186 1.373 . S
C185 C189 1.308 . S
C186 C185 1.373 . S
C186 C187 1.429 . S
C186 H196 0.932 . S
C187 C184 1.358 . S
C187 C186 1.429 . S
C187 H197 0.930 . S
C188 C184 1.332 . S
C188 C189 1.394 . S
C188 H198 0.932 . S
C189 C185 1.308 . S
C189 C188 1.394 . S
C189 H199 0.929 . S
C190 Tb161 2.764 1_556 S
C190 O174 1.239 . S
C190 O175 1.263 . S
C190 C184 1.504 . S
C191 O176 1.236 . S
C191 O177 1.257 . S
H192 C165 0.932 . S
H193 C166 0.930 . S
H194 C167 0.932 . S
H195 C168 0.929 . S
H196 C186 0.932 . S
H197 C187 0.930 . S
H198 C188 0.932 . S
H199 C189 0.929 . S
Tb200 C209 2.764 1_556 S
Tb200 O210 2.325 . S
Tb200 O213 2.303 . S
Tb200 O217 2.322 . S
Tb200 O218 2.349 . S
Tb200 O221 2.415 1_556 S
Tb200 O222 2.399 1_556 S
Tb201 O211 2.322 . S
Tb201 O212 2.349 . S
Tb201 O214 2.415 . S
Tb201 O215 2.399 . S
Tb201 O216 2.325 . S
Tb201 O219 2.303 . S
Tb201 C230 2.764 . S
C202 O218 1.261 . S
C202 O219 1.257 . S
C203 C206 1.358 . S
C203 C207 1.332 . S
C203 C209 1.504 . S
C204 C205 1.373 . S
C204 C208 1.308 . S
C205 C204 1.373 . S
C205 C206 1.429 . S
C205 H232 0.932 . S
C206 C203 1.358 . S
C206 C205 1.429 . S
C206 H233 0.930 . S
C207 C203 1.332 . S
C207 C208 1.394 . S
C207 H234 0.932 . S
C208 C204 1.308 . S
C208 C207 1.394 . S
C208 H235 0.929 . S
C209 Tb200 2.764 1_554 S
C209 C203 1.504 . S
C209 O221 1.239 . S
C209 O222 1.263 . S
O210 Tb200 2.325 . S
O210 C220 1.236 . S
O211 Tb201 2.322 . S
O211 C220 1.257 . S
O212 Tb201 2.349 . S
O212 C223 1.261 . S
O213 Tb200 2.303 . S
O213 C223 1.257 . S
O214 Tb201 2.415 . S
O214 C230 1.239 . S
O215 Tb201 2.399 . S
O215 C230 1.263 . S
O216 Tb201 2.325 . S
O216 C231 1.236 . S
O217 Tb200 2.322 . S
O217 C231 1.257 . S
O218 Tb200 2.349 . S
O218 C202 1.261 . S
O219 Tb201 2.303 . S
O219 C202 1.257 . S
C220 O210 1.236 . S
C220 O211 1.257 . S
O221 Tb200 2.415 1_554 S
O221 C209 1.239 . S
O222 Tb200 2.399 1_554 S
O222 C209 1.263 . S
C223 O212 1.261 . S
C223 O213 1.257 . S
C224 C227 1.358 . S
C224 C228 1.332 . S
C224 C230 1.504 . S
C225 C226 1.373 . S
C225 C229 1.308 . S
C226 C225 1.373 . S
C226 C227 1.429 . S
C226 H236 0.932 . S
C227 C224 1.358 . S
C227 C226 1.429 . S
C227 H237 0.930 . S
C228 C224 1.332 . S
C228 C229 1.394 . S
C228 H238 0.932 . S
C229 C225 1.308 . S
C229 C228 1.394 . S
C229 H239 0.929 . S
C230 Tb201 2.764 . S
C230 O214 1.239 . S
C230 O215 1.263 . S
C230 C224 1.504 . S
C231 O216 1.236 . S
C231 O217 1.257 . S
H232 C205 0.932 . S
H233 C206 0.930 . S
H234 C207 0.932 . S
H235 C208 0.929 . S
H236 C226 0.932 . S
H237 C227 0.930 . S
H238 C228 0.932 . S
H239 C229 0.929 . S
Tb240 C249 2.764 . S
Tb240 O250 2.325 . S
Tb240 O253 2.303 . S
Tb240 O257 2.322 . S
Tb240 O258 2.349 . S
Tb240 O261 2.415 . S
Tb240 O262 2.399 . S
Tb241 O251 2.322 . S
Tb241 O252 2.349 . S
Tb241 O254 2.415 1_554 S
Tb241 O255 2.399 1_554 S
Tb241 O256 2.325 . S
Tb241 O259 2.303 . S
Tb241 C270 2.764 1_554 S
C242 O258 1.261 . S
C242 O259 1.257 . S
C243 C246 1.358 . S
C243 C247 1.332 . S
C243 C249 1.504 . S
C244 C245 1.373 . S
C244 C248 1.308 . S
C245 C244 1.373 . S
C245 C246 1.429 . S
C245 H272 0.932 . S
C246 C243 1.358 . S
C246 C245 1.429 . S
C246 H273 0.930 . S
C247 C243 1.332 . S
C247 C248 1.394 . S
C247 H274 0.932 . S
C248 C244 1.308 . S
C248 C247 1.394 . S
C248 H275 0.929 . S
C249 Tb240 2.764 . S
C249 C243 1.504 . S
C249 O261 1.239 . S
C249 O262 1.263 . S
O250 Tb240 2.325 . S
O250 C260 1.236 . S
O251 Tb241 2.322 . S
O251 C260 1.257 . S
O252 Tb241 2.349 . S
O252 C263 1.261 . S
O253 Tb240 2.303 . S
O253 C263 1.257 . S
O254 Tb241 2.415 1_556 S
O254 C270 1.239 . S
O255 Tb241 2.399 1_556 S
O255 C270 1.263 . S
O256 Tb241 2.325 . S
O256 C271 1.236 . S
O257 Tb240 2.322 . S
O257 C271 1.257 . S
O258 Tb240 2.349 . S
O258 C242 1.261 . S
O259 Tb241 2.303 . S
O259 C242 1.257 . S
C260 O250 1.236 . S
C260 O251 1.257 . S
O261 Tb240 2.415 . S
O261 C249 1.239 . S
O262 Tb240 2.399 . S
O262 C249 1.263 . S
C263 O252 1.261 . S
C263 O253 1.257 . S
C264 C267 1.358 . S
C264 C268 1.332 . S
C264 C270 1.504 . S
C265 C266 1.373 . S
C265 C269 1.308 . S
C266 C265 1.373 . S
C266 C267 1.429 . S
C266 H276 0.932 . S
C267 C264 1.358 . S
C267 C266 1.429 . S
C267 H277 0.930 . S
C268 C264 1.332 . S
C268 C269 1.394 . S
C268 H278 0.932 . S
C269 C265 1.308 . S
C269 C268 1.394 . S
C269 H279 0.929 . S
C270 Tb241 2.764 1_556 S
C270 O254 1.239 . S
C270 O255 1.263 . S
C270 C264 1.504 . S
C271 O256 1.236 . S
C271 O257 1.257 . S
H272 C245 0.932 . S
H273 C246 0.930 . S
H274 C247 0.932 . S
H275 C248 0.929 . S
H276 C266 0.932 . S
H277 C267 0.930 . S
H278 C268 0.932 . S
H279 C269 0.929 . S
Tb280 C289 2.764 1_556 S
Tb280 O290 2.325 . S
Tb280 O293 2.303 . S
Tb280 O297 2.322 . S
Tb280 O298 2.349 . S
Tb280 O301 2.415 1_556 S
Tb280 O302 2.399 1_556 S
Tb281 O291 2.322 . S
Tb281 O292 2.349 . S
Tb281 O294 2.415 . S
Tb281 O295 2.399 . S
Tb281 O296 2.325 . S
Tb281 O299 2.303 . S
Tb281 C310 2.764 . S
C282 O298 1.261 . S
C282 O299 1.257 . S
C283 C286 1.358 . S
C283 C287 1.332 . S
C283 C289 1.504 . S
C284 C285 1.373 . S
C284 C288 1.308 . S
C285 C284 1.373 . S
C285 C286 1.429 . S
C285 H312 0.932 . S
C286 C283 1.358 . S
C286 C285 1.429 . S
C286 H313 0.930 . S
C287 C283 1.332 . S
C287 C288 1.394 . S
C287 H314 0.932 . S
C288 C284 1.308 . S
C288 C287 1.394 . S
C288 H315 0.929 . S
C289 Tb280 2.764 1_554 S
C289 C283 1.504 . S
C289 O301 1.239 . S
C289 O302 1.263 . S
O290 Tb280 2.325 . S
O290 C300 1.236 . S
O291 Tb281 2.322 . S
O291 C300 1.257 . S
O292 Tb281 2.349 . S
O292 C303 1.261 . S
O293 Tb280 2.303 . S
O293 C303 1.257 . S
O294 Tb281 2.415 . S
O294 C310 1.239 . S
O295 Tb281 2.399 . S
O295 C310 1.263 . S
O296 Tb281 2.325 . S
O296 C311 1.236 . S
O297 Tb280 2.322 . S
O297 C311 1.257 . S
O298 Tb280 2.349 . S
O298 C282 1.261 . S
O299 Tb281 2.303 . S
O299 C282 1.257 . S
C300 O290 1.236 . S
C300 O291 1.257 . S
O301 Tb280 2.415 1_554 S
O301 C289 1.239 . S
O302 Tb280 2.399 1_554 S
O302 C289 1.263 . S
C303 O292 1.261 . S
C303 O293 1.257 . S
C304 C307 1.358 . S
C304 C308 1.332 . S
C304 C310 1.504 . S
C305 C306 1.373 . S
C305 C309 1.308 . S
C306 C305 1.373 . S
C306 C307 1.429 . S
C306 H316 0.932 . S
C307 C304 1.358 . S
C307 C306 1.429 . S
C307 H317 0.930 . S
C308 C304 1.332 . S
C308 C309 1.394 . S
C308 H318 0.932 . S
C309 C305 1.308 . S
C309 C308 1.394 . S
C309 H319 0.929 . S
C310 Tb281 2.764 . S
C310 O294 1.239 . S
C310 O295 1.263 . S
C310 C304 1.504 . S
C311 O296 1.236 . S
C311 O297 1.257 . S
H312 C285 0.932 . S
H313 C286 0.930 . S
H314 C287 0.932 . S
H315 C288 0.929 . S
H316 C306 0.932 . S
H317 C307 0.930 . S
H318 C308 0.932 . S
H319 C309 0.929 . S
Tb320 C329 2.764 . S
Tb320 O330 2.325 . S
Tb320 O333 2.303 . S
Tb320 O337 2.322 . S
Tb320 O338 2.349 . S
Tb320 O341 2.415 . S
Tb320 O342 2.399 . S
Tb321 O331 2.322 . S
Tb321 O332 2.349 . S
Tb321 O334 2.415 . S
Tb321 O335 2.399 . S
Tb321 O336 2.325 . S
Tb321 O339 2.303 . S
Tb321 C350 2.764 . S
C322 O338 1.261 . S
C322 O339 1.257 . S
C323 C326 1.358 . S
C323 C327 1.332 . S
C323 C329 1.504 . S
C324 C325 1.373 . S
C324 C328 1.308 . S
C325 C324 1.373 . S
C325 C326 1.429 . S
C325 H352 0.932 . S
C326 C323 1.358 . S
C326 C325 1.429 . S
C326 H353 0.930 . S
C327 C323 1.332 . S
C327 C328 1.394 . S
C327 H354 0.932 . S
C328 C324 1.308 . S
C328 C327 1.394 . S
C328 H355 0.929 . S
C329 Tb320 2.764 . S
C329 C323 1.504 . S
C329 O341 1.239 . S
C329 O342 1.263 . S
O330 Tb320 2.325 . S
O330 C340 1.236 . S
O331 Tb321 2.322 . S
O331 C340 1.257 . S
O332 Tb321 2.349 . S
O332 C343 1.261 . S
O333 Tb320 2.303 . S
O333 C343 1.257 . S
O334 Tb321 2.415 . S
O334 C350 1.239 . S
O335 Tb321 2.399 . S
O335 C350 1.263 . S
O336 Tb321 2.325 . S
O336 C351 1.236 . S
O337 Tb320 2.322 . S
O337 C351 1.257 . S
O338 Tb320 2.349 . S
O338 C322 1.261 . S
O339 Tb321 2.303 . S
O339 C322 1.257 . S
C340 O330 1.236 . S
C340 O331 1.257 . S
O341 Tb320 2.415 . S
O341 C329 1.239 . S
O342 Tb320 2.399 . S
O342 C329 1.263 . S
C343 O332 1.261 . S
C343 O333 1.257 . S
C344 C347 1.358 . S
C344 C348 1.332 . S
C344 C350 1.504 . S
C345 C346 1.373 . S
C345 C349 1.308 . S
C346 C345 1.373 . S
C346 C347 1.429 . S
C346 H356 0.932 . S
C347 C344 1.358 . S
C347 C346 1.429 . S
C347 H357 0.930 . S
C348 C344 1.332 . S
C348 C349 1.394 . S
C348 H358 0.932 . S
C349 C345 1.308 . S
C349 C348 1.394 . S
C349 H359 0.929 . S
C350 Tb321 2.764 . S
C350 O334 1.239 . S
C350 O335 1.263 . S
C350 C344 1.504 . S
C351 O336 1.236 . S
C351 O337 1.257 . S
H352 C325 0.932 . S
H353 C326 0.930 . S
H354 C327 0.932 . S
H355 C328 0.929 . S
H356 C346 0.932 . S
H357 C347 0.930 . S
H358 C348 0.932 . S
H359 C349 0.929 . S
Tb360 C369 2.764 . S
Tb360 O370 2.325 . S
Tb360 O373 2.303 . S
Tb360 O377 2.322 . S
Tb360 O378 2.349 . S
Tb360 O381 2.415 . S
Tb360 O382 2.399 . S
Tb361 O371 2.322 . S
Tb361 O372 2.349 . S
Tb361 O374 2.415 . S
Tb361 O375 2.399 . S
Tb361 O376 2.325 . S
Tb361 O379 2.303 . S
Tb361 C390 2.764 . S
C362 O378 1.261 . S
C362 O379 1.257 . S
C363 C366 1.358 . S
C363 C367 1.332 . S
C363 C369 1.504 . S
C364 C365 1.373 . S
C364 C368 1.308 . S
C365 C364 1.373 . S
C365 C366 1.429 . S
C365 H392 0.932 . S
C366 C363 1.358 . S
C366 C365 1.429 . S
C366 H393 0.930 . S
C367 C363 1.332 . S
C367 C368 1.394 . S
C367 H394 0.932 . S
C368 C364 1.308 . S
C368 C367 1.394 . S
C368 H395 0.929 . S
C369 Tb360 2.764 . S
C369 C363 1.504 . S
C369 O381 1.239 . S
C369 O382 1.263 . S
O370 Tb360 2.325 . S
O370 C380 1.236 . S
O371 Tb361 2.322 . S
O371 C380 1.257 . S
O372 Tb361 2.349 . S
O372 C383 1.261 . S
O373 Tb360 2.303 . S
O373 C383 1.257 . S
O374 Tb361 2.415 . S
O374 C390 1.239 . S
O375 Tb361 2.399 . S
O375 C390 1.263 . S
O376 Tb361 2.325 . S
O376 C391 1.236 . S
O377 Tb360 2.322 . S
O377 C391 1.257 . S
O378 Tb360 2.349 . S
O378 C362 1.261 . S
O379 Tb361 2.303 . S
O379 C362 1.257 . S
C380 O370 1.236 . S
C380 O371 1.257 . S
O381 Tb360 2.415 . S
O381 C369 1.239 . S
O382 Tb360 2.399 . S
O382 C369 1.263 . S
C383 O372 1.261 . S
C383 O373 1.257 . S
C384 C387 1.358 . S
C384 C388 1.332 . S
C384 C390 1.504 . S
C385 C386 1.373 . S
C385 C389 1.308 . S
C386 C385 1.373 . S
C386 C387 1.429 . S
C386 H396 0.932 . S
C387 C384 1.358 . S
C387 C386 1.429 . S
C387 H397 0.930 . S
C388 C384 1.332 . S
C388 C389 1.394 . S
C388 H398 0.932 . S
C389 C385 1.308 . S
C389 C388 1.394 . S
C389 H399 0.929 . S
C390 Tb361 2.764 . S
C390 O374 1.239 . S
C390 O375 1.263 . S
C390 C384 1.504 . S
C391 O376 1.236 . S
C391 O377 1.257 . S
H392 C365 0.932 . S
H393 C366 0.930 . S
H394 C367 0.932 . S
H395 C368 0.929 . S
H396 C386 0.932 . S
H397 C387 0.930 . S
H398 C388 0.932 . S
H399 C389 0.929 . S
Tb400 C409 2.764 . S
Tb400 O410 2.325 . S
Tb400 O413 2.303 . S
Tb400 O417 2.322 . S
Tb400 O418 2.349 . S
Tb400 O421 2.415 . S
Tb400 O422 2.399 . S
Tb401 O411 2.322 . S
Tb401 O412 2.349 . S
Tb401 O414 2.415 . S
Tb401 O415 2.399 . S
Tb401 O416 2.325 . S
Tb401 O419 2.303 . S
Tb401 C430 2.764 . S
C402 O418 1.261 . S
C402 O419 1.257 . S
C403 C406 1.358 . S
C403 C407 1.332 . S
C403 C409 1.504 . S
C404 C405 1.373 . S
C404 C408 1.308 . S
C405 C404 1.373 . S
C405 C406 1.429 . S
C405 H432 0.932 . S
C406 C403 1.358 . S
C406 C405 1.429 . S
C406 H433 0.930 . S
C407 C403 1.332 . S
C407 C408 1.394 . S
C407 H434 0.932 . S
C408 C404 1.308 . S
C408 C407 1.394 . S
C408 H435 0.929 . S
C409 Tb400 2.764 . S
C409 C403 1.504 . S
C409 O421 1.239 . S
C409 O422 1.263 . S
O410 Tb400 2.325 . S
O410 C420 1.236 . S
O411 Tb401 2.322 . S
O411 C420 1.257 . S
O412 Tb401 2.349 . S
O412 C423 1.261 . S
O413 Tb400 2.303 . S
O413 C423 1.257 . S
O414 Tb401 2.415 . S
O414 C430 1.239 . S
O415 Tb401 2.399 . S
O415 C430 1.263 . S
O416 Tb401 2.325 . S
O416 C431 1.236 . S
O417 Tb400 2.322 . S
O417 C431 1.257 . S
O418 Tb400 2.349 . S
O418 C402 1.261 . S
O419 Tb401 2.303 . S
O419 C402 1.257 . S
C420 O410 1.236 . S
C420 O411 1.257 . S
O421 Tb400 2.415 . S
O421 C409 1.239 . S
O422 Tb400 2.399 . S
O422 C409 1.263 . S
C423 O412 1.261 . S
C423 O413 1.257 . S
C424 C427 1.358 . S
C424 C428 1.332 . S
C424 C430 1.504 . S
C425 C426 1.373 . S
C425 C429 1.308 . S
C426 C425 1.373 . S
C426 C427 1.429 . S
C426 H436 0.932 . S
C427 C424 1.358 . S
C427 C426 1.429 . S
C427 H437 0.930 . S
C428 C424 1.332 . S
C428 C429 1.394 . S
C428 H438 0.932 . S
C429 C425 1.308 . S
C429 C428 1.394 . S
C429 H439 0.929 . S
C430 Tb401 2.764 . S
C430 O414 1.239 . S
C430 O415 1.263 . S
C430 C424 1.504 . S
C431 O416 1.236 . S
C431 O417 1.257 . S
H432 C405 0.932 . S
H433 C406 0.930 . S
H434 C407 0.932 . S
H435 C408 0.929 . S
H436 C426 0.932 . S
H437 C427 0.930 . S
H438 C428 0.932 . S
H439 C429 0.929 . S
Tb440 C449 2.764 . S
Tb440 O450 2.325 . S
Tb440 O453 2.303 . S
Tb440 O457 2.322 . S
Tb440 O458 2.349 . S
Tb440 O461 2.415 . S
Tb440 O462 2.399 . S
Tb441 O451 2.322 . S
Tb441 O452 2.349 . S
Tb441 O454 2.415 . S
Tb441 O455 2.399 . S
Tb441 O456 2.325 . S
Tb441 O459 2.303 . S
Tb441 C470 2.764 . S
C442 O458 1.261 . S
C442 O459 1.257 . S
C443 C446 1.358 . S
C443 C447 1.332 . S
C443 C449 1.504 . S
C444 C445 1.373 . S
C444 C448 1.308 . S
C445 C444 1.373 . S
C445 C446 1.429 . S
C445 H472 0.932 . S
C446 C443 1.358 . S
C446 C445 1.429 . S
C446 H473 0.930 . S
C447 C443 1.332 . S
C447 C448 1.394 . S
C447 H474 0.932 . S
C448 C444 1.308 . S
C448 C447 1.394 . S
C448 H475 0.929 . S
C449 Tb440 2.764 . S
C449 C443 1.504 . S
C449 O461 1.239 . S
C449 O462 1.263 . S
O450 Tb440 2.325 . S
O450 C460 1.236 . S
O451 Tb441 2.322 . S
O451 C460 1.257 . S
O452 Tb441 2.349 . S
O452 C463 1.261 . S
O453 Tb440 2.303 . S
O453 C463 1.257 . S
O454 Tb441 2.415 . S
O454 C470 1.239 . S
O455 Tb441 2.399 . S
O455 C470 1.263 . S
O456 Tb441 2.325 . S
O456 C471 1.236 . S
O457 Tb440 2.322 . S
O457 C471 1.257 . S
O458 Tb440 2.349 . S
O458 C442 1.261 . S
O459 Tb441 2.303 . S
O459 C442 1.257 . S
C460 O450 1.236 . S
C460 O451 1.257 . S
O461 Tb440 2.415 . S
O461 C449 1.239 . S
O462 Tb440 2.399 . S
O462 C449 1.263 . S
C463 O452 1.261 . S
C463 O453 1.257 . S
C464 C467 1.358 . S
C464 C468 1.332 . S
C464 C470 1.504 . S
C465 C466 1.373 . S
C465 C469 1.308 . S
C466 C465 1.373 . S
C466 C467 1.429 . S
C466 H476 0.932 . S
C467 C464 1.358 . S
C467 C466 1.429 . S
C467 H477 0.930 . S
C468 C464 1.332 . S
C468 C469 1.394 . S
C468 H478 0.932 . S
C469 C465 1.308 . S
C469 C468 1.394 . S
C469 H479 0.929 . S
C470 Tb441 2.764 . S
C470 O454 1.239 . S
C470 O455 1.263 . S
C470 C464 1.504 . S
C471 O456 1.236 . S
C471 O457 1.257 . S
H472 C445 0.932 . S
H473 C446 0.930 . S
H474 C447 0.932 . S
H475 C448 0.929 . S
H476 C466 0.932 . S
H477 C467 0.930 . S
H478 C468 0.932 . S
H479 C469 0.929 . S
Tb480 C489 2.764 . S
Tb480 O490 2.325 . S
Tb480 O493 2.303 . S
Tb480 O497 2.322 . S
Tb480 O498 2.349 . S
Tb480 O501 2.415 . S
Tb480 O502 2.399 . S
Tb481 O491 2.322 . S
Tb481 O492 2.349 . S
Tb481 O494 2.415 . S
Tb481 O495 2.399 . S
Tb481 O496 2.325 . S
Tb481 O499 2.303 . S
Tb481 C510 2.764 . S
C482 O498 1.261 . S
C482 O499 1.257 . S
C483 C486 1.358 . S
C483 C487 1.332 . S
C483 C489 1.504 . S
C484 C485 1.373 . S
C484 C488 1.308 . S
C485 C484 1.373 . S
C485 C486 1.429 . S
C485 H512 0.932 . S
C486 C483 1.358 . S
C486 C485 1.429 . S
C486 H513 0.930 . S
C487 C483 1.332 . S
C487 C488 1.394 . S
C487 H514 0.932 . S
C488 C484 1.308 . S
C488 C487 1.394 . S
C488 H515 0.929 . S
C489 Tb480 2.764 . S
C489 C483 1.504 . S
C489 O501 1.239 . S
C489 O502 1.263 . S
O490 Tb480 2.325 . S
O490 C500 1.236 . S
O491 Tb481 2.322 . S
O491 C500 1.257 . S
O492 Tb481 2.349 . S
O492 C503 1.261 . S
O493 Tb480 2.303 . S
O493 C503 1.257 . S
O494 Tb481 2.415 . S
O494 C510 1.239 . S
O495 Tb481 2.399 . S
O495 C510 1.263 . S
O496 Tb481 2.325 . S
O496 C511 1.236 . S
O497 Tb480 2.322 . S
O497 C511 1.257 . S
O498 Tb480 2.349 . S
O498 C482 1.261 . S
O499 Tb481 2.303 . S
O499 C482 1.257 . S
C500 O490 1.236 . S
C500 O491 1.257 . S
O501 Tb480 2.415 . S
O501 C489 1.239 . S
O502 Tb480 2.399 . S
O502 C489 1.263 . S
C503 O492 1.261 . S
C503 O493 1.257 . S
C504 C507 1.358 . S
C504 C508 1.332 . S
C504 C510 1.504 . S
C505 C506 1.373 . S
C505 C509 1.308 . S
C506 C505 1.373 . S
C506 C507 1.429 . S
C506 H516 0.932 . S
C507 C504 1.358 . S
C507 C506 1.429 . S
C507 H517 0.930 . S
C508 C504 1.332 . S
C508 C509 1.394 . S
C508 H518 0.932 . S
C509 C505 1.308 . S
C509 C508 1.394 . S
C509 H519 0.929 . S
C510 Tb481 2.764 . S
C510 O494 1.239 . S
C510 O495 1.263 . S
C510 C504 1.504 . S
C511 O496 1.236 . S
C511 O497 1.257 . S
H512 C485 0.932 . S
H513 C486 0.930 . S
H514 C487 0.932 . S
H515 C488 0.929 . S
H516 C506 0.932 . S
H517 C507 0.930 . S
H518 C508 0.932 . S
H519 C509 0.929 . S
Tb520 C529 2.764 . S
Tb520 O530 2.325 . S
Tb520 O533 2.303 . S
Tb520 O537 2.322 . S
Tb520 O538 2.349 . S
Tb520 O541 2.415 . S
Tb520 O542 2.399 . S
Tb521 O531 2.322 . S
Tb521 O532 2.349 . S
Tb521 O534 2.415 . S
Tb521 O535 2.399 . S
Tb521 O536 2.325 . S
Tb521 O539 2.303 . S
Tb521 C550 2.764 . S
C522 O538 1.261 . S
C522 O539 1.257 . S
C523 C526 1.358 . S
C523 C527 1.332 . S
C523 C529 1.504 . S
C524 C525 1.373 . S
C524 C528 1.308 . S
C525 C524 1.373 . S
C525 C526 1.429 . S
C525 H552 0.932 . S
C526 C523 1.358 . S
C526 C525 1.429 . S
C526 H553 0.930 . S
C527 C523 1.332 . S
C527 C528 1.394 . S
C527 H554 0.932 . S
C528 C524 1.308 . S
C528 C527 1.394 . S
C528 H555 0.929 . S
C529 Tb520 2.764 . S
C529 C523 1.504 . S
C529 O541 1.239 . S
C529 O542 1.263 . S
O530 Tb520 2.325 . S
O530 C540 1.236 . S
O531 Tb521 2.322 . S
O531 C540 1.257 . S
O532 Tb521 2.349 . S
O532 C543 1.261 . S
O533 Tb520 2.303 . S
O533 C543 1.257 . S
O534 Tb521 2.415 . S
O534 C550 1.239 . S
O535 Tb521 2.399 . S
O535 C550 1.263 . S
O536 Tb521 2.325 . S
O536 C551 1.236 . S
O537 Tb520 2.322 . S
O537 C551 1.257 . S
O538 Tb520 2.349 . S
O538 C522 1.261 . S
O539 Tb521 2.303 . S
O539 C522 1.257 . S
C540 O530 1.236 . S
C540 O531 1.257 . S
O541 Tb520 2.415 . S
O541 C529 1.239 . S
O542 Tb520 2.399 . S
O542 C529 1.263 . S
C543 O532 1.261 . S
C543 O533 1.257 . S
C544 C547 1.358 . S
C544 C548 1.332 . S
C544 C550 1.504 . S
C545 C546 1.373 . S
C545 C549 1.308 . S
C546 C545 1.373 . S
C546 C547 1.429 . S
C546 H556 0.932 . S
C547 C544 1.358 . S
C547 C546 1.429 . S
C547 H557 0.930 . S
C548 C544 1.332 . S
C548 C549 1.394 . S
C548 H558 0.932 . S
C549 C545 1.308 . S
C549 C548 1.394 . S
C549 H559 0.929 . S
C550 Tb521 2.764 . S
C550 O534 1.239 . S
C550 O535 1.263 . S
C550 C544 1.504 . S
C551 O536 1.236 . S
C551 O537 1.257 . S
H552 C525 0.932 . S
H553 C526 0.930 . S
H554 C527 0.932 . S
H555 C528 0.929 . S
H556 C546 0.932 . S
H557 C547 0.930 . S
H558 C548 0.932 . S
H559 C549 0.929 . S
Tb560 C569 2.764 . S
Tb560 O570 2.325 . S
Tb560 O573 2.303 . S
Tb560 O577 2.322 . S
Tb560 O578 2.349 . S
Tb560 O581 2.415 . S
Tb560 O582 2.399 . S
Tb561 O571 2.322 . S
Tb561 O572 2.349 . S
Tb561 O574 2.415 . S
Tb561 O575 2.399 . S
Tb561 O576 2.325 . S
Tb561 O579 2.303 . S
Tb561 C590 2.764 . S
C562 O578 1.261 . S
C562 O579 1.257 . S
C563 C566 1.358 . S
C563 C567 1.332 . S
C563 C569 1.504 . S
C564 C565 1.373 . S
C564 C568 1.308 . S
C565 C564 1.373 . S
C565 C566 1.429 . S
C565 H592 0.932 . S
C566 C563 1.358 . S
C566 C565 1.429 . S
C566 H593 0.930 . S
C567 C563 1.332 . S
C567 C568 1.394 . S
C567 H594 0.932 . S
C568 C564 1.308 . S
C568 C567 1.394 . S
C568 H595 0.929 . S
C569 Tb560 2.764 . S
C569 C563 1.504 . S
C569 O581 1.239 . S
C569 O582 1.263 . S
O570 Tb560 2.325 . S
O570 C580 1.236 . S
O571 Tb561 2.322 . S
O571 C580 1.257 . S
O572 Tb561 2.349 . S
O572 C583 1.261 . S
O573 Tb560 2.303 . S
O573 C583 1.257 . S
O574 Tb561 2.415 . S
O574 C590 1.239 . S
O575 Tb561 2.399 . S
O575 C590 1.263 . S
O576 Tb561 2.325 . S
O576 C591 1.236 . S
O577 Tb560 2.322 . S
O577 C591 1.257 . S
O578 Tb560 2.349 . S
O578 C562 1.261 . S
O579 Tb561 2.303 . S
O579 C562 1.257 . S
C580 O570 1.236 . S
C580 O571 1.257 . S
O581 Tb560 2.415 . S
O581 C569 1.239 . S
O582 Tb560 2.399 . S
O582 C569 1.263 . S
C583 O572 1.261 . S
C583 O573 1.257 . S
C584 C587 1.358 . S
C584 C588 1.332 . S
C584 C590 1.504 . S
C585 C586 1.373 . S
C585 C589 1.308 . S
C586 C585 1.373 . S
C586 C587 1.429 . S
C586 H596 0.932 . S
C587 C584 1.358 . S
C587 C586 1.429 . S
C587 H597 0.930 . S
C588 C584 1.332 . S
C588 C589 1.394 . S
C588 H598 0.932 . S
C589 C585 1.308 . S
C589 C588 1.394 . S
C589 H599 0.929 . S
C590 Tb561 2.764 . S
C590 O574 1.239 . S
C590 O575 1.263 . S
C590 C584 1.504 . S
C591 O576 1.236 . S
C591 O577 1.257 . S
H592 C565 0.932 . S
H593 C566 0.930 . S
H594 C567 0.932 . S
H595 C568 0.929 . S
H596 C586 0.932 . S
H597 C587 0.930 . S
H598 C588 0.932 . S
H599 C589 0.929 . S
Tb600 C609 2.764 . S
Tb600 O610 2.325 . S
Tb600 O613 2.303 . S
Tb600 O617 2.322 . S
Tb600 O618 2.349 . S
Tb600 O621 2.415 . S
Tb600 O622 2.399 . S
Tb601 O611 2.322 . S
Tb601 O612 2.349 . S
Tb601 O614 2.415 . S
Tb601 O615 2.399 . S
Tb601 O616 2.325 . S
Tb601 O619 2.303 . S
Tb601 C630 2.764 . S
C602 O618 1.261 . S
C602 O619 1.257 . S
C603 C606 1.358 . S
C603 C607 1.332 . S
C603 C609 1.504 . S
C604 C605 1.373 . S
C604 C608 1.308 . S
C605 C604 1.373 . S
C605 C606 1.429 . S
C605 H632 0.932 . S
C606 C603 1.358 . S
C606 C605 1.429 . S
C606 H633 0.930 . S
C607 C603 1.332 . S
C607 C608 1.394 . S
C607 H634 0.932 . S
C608 C604 1.308 . S
C608 C607 1.394 . S
C608 H635 0.929 . S
C609 Tb600 2.764 . S
C609 C603 1.504 . S
C609 O621 1.239 . S
C609 O622 1.263 . S
O610 Tb600 2.325 . S
O610 C620 1.236 . S
O611 Tb601 2.322 . S
O611 C620 1.257 . S
O612 Tb601 2.349 . S
O612 C623 1.261 . S
O613 Tb600 2.303 . S
O613 C623 1.257 . S
O614 Tb601 2.415 . S
O614 C630 1.239 . S
O615 Tb601 2.399 . S
O615 C630 1.263 . S
O616 Tb601 2.325 . S
O616 C631 1.236 . S
O617 Tb600 2.322 . S
O617 C631 1.257 . S
O618 Tb600 2.349 . S
O618 C602 1.261 . S
O619 Tb601 2.303 . S
O619 C602 1.257 . S
C620 O610 1.236 . S
C620 O611 1.257 . S
O621 Tb600 2.415 . S
O621 C609 1.239 . S
O622 Tb600 2.399 . S
O622 C609 1.263 . S
C623 O612 1.261 . S
C623 O613 1.257 . S
C624 C627 1.358 . S
C624 C628 1.332 . S
C624 C630 1.504 . S
C625 C626 1.373 . S
C625 C629 1.308 . S
C626 C625 1.373 . S
C626 C627 1.429 . S
C626 H636 0.932 . S
C627 C624 1.358 . S
C627 C626 1.429 . S
C627 H637 0.930 . S
C628 C624 1.332 . S
C628 C629 1.394 . S
C628 H638 0.932 . S
C629 C625 1.308 . S
C629 C628 1.394 . S
C629 H639 0.929 . S
C630 Tb601 2.764 . S
C630 O614 1.239 . S
C630 O615 1.263 . S
C630 C624 1.504 . S
C631 O616 1.236 . S
C631 O617 1.257 . S
H632 C605 0.932 . S
H633 C606 0.930 . S
H634 C607 0.932 . S
H635 C608 0.929 . S
H636 C626 0.932 . S
H637 C627 0.930 . S
H638 C628 0.932 . S
H639 C629 0.929 . S
H640 C646 0.930 . S
H641 C649 0.930 . S
H642 C650 0.930 . S
H643 C651 0.930 . S
H644 C654 0.930 . S
H645 C655 0.930 . S
C646 H640 0.930 . S
C646 C647 1.355 . S
C646 C648 1.415 . S
C647 C646 1.355 . S
C647 C649 1.419 . S
C648 C646 1.415 . S
C648 C653 1.425 . S
C648 C655 1.409 . S
C649 H641 0.930 . S
C649 C647 1.419 . S
C649 C650 1.362 . S
C650 H642 0.930 . S
C650 C649 1.362 . S
C650 C653 1.409 . S
C651 H643 0.930 . S
C651 C652 1.355 . S
C651 C653 1.415 1_545 S
C652 C651 1.355 . S
C652 C654 1.419 . S
C653 C648 1.425 . S
C653 C650 1.409 . S
C653 C651 1.415 1_565 S
C654 H644 0.930 . S
C654 C652 1.419 . S
C654 C655 1.362 1_545 S
C655 H645 0.930 . S
C655 C648 1.409 . S
C655 C654 1.362 1_565 S
H656 C662 0.930 . S
H657 C665 0.930 . S
H658 C666 0.930 . S
H659 C667 0.930 . S
H660 C670 0.930 . S
H661 C671 0.930 . S
C662 H656 0.930 . S
C662 C663 1.355 . S
C662 C664 1.415 . S
C663 C662 1.355 . S
C663 C665 1.419 . S
C664 C662 1.415 . S
C664 C669 1.425 . S
C664 C671 1.409 1_655 S
C665 H657 0.930 . S
C665 C663 1.419 . S
C665 C666 1.362 . S
C666 H658 0.930 . S
C666 C665 1.362 . S
C666 C669 1.409 . S
C667 H659 0.930 . S
C667 C668 1.355 1_655 S
C667 C669 1.415 . S
C668 C667 1.355 1_455 S
C668 C670 1.419 . S
C669 C664 1.425 . S
C669 C666 1.409 . S
C669 C667 1.415 . S
C670 H660 0.930 . S
C670 C668 1.419 . S
C670 C671 1.362 . S
C671 H661 0.930 . S
C671 C664 1.409 1_455 S
C671 C670 1.362 . S
H672 C678 0.930 . S
H673 C681 0.930 . S
H674 C682 0.927 1_565 S
H675 C683 0.930 . S
H676 C686 0.930 . S
H677 C687 0.930 . S
C678 H672 0.930 . S
C678 C679 1.355 1_545 S
C678 C680 1.415 . S
C679 C678 1.355 1_565 S
C679 C681 1.419 . S
C680 C678 1.415 . S
C680 C685 1.425 . S
C680 C687 1.409 . S
C681 H673 0.930 . S
C681 C679 1.419 . S
C681 C682 1.336 1_565 S
C682 H674 0.927 1_545 S
C682 C681 1.336 1_545 S
C682 C685 1.438 . S
C683 H675 0.930 . S
C683 C684 1.355 . S
C683 C685 1.415 . S
C684 C683 1.355 . S
C684 C686 1.419 . S
C685 C680 1.425 . S
C685 C682 1.438 . S
C685 C683 1.415 . S
C686 H676 0.930 . S
C686 C684 1.419 . S
C686 C687 1.362 . S
C687 H677 0.930 . S
C687 C680 1.409 . S
C687 C686 1.362 . S
H688 C694 0.930 . S
H689 C697 0.930 . S
H690 C698 0.930 . S
H691 C699 0.930 . S
H692 C702 0.930 . S
H693 C703 0.930 . S
C694 H688 0.930 . S
C694 C695 1.355 1_455 S
C694 C696 1.415 . S
C695 C694 1.355 1_655 S
C695 C697 1.419 . S
C696 C694 1.415 . S
C696 C701 1.425 . S
C696 C703 1.409 . S
C697 H689 0.930 . S
C697 C695 1.419 . S
C697 C698 1.362 . S
C698 H690 0.930 . S
C698 C697 1.362 . S
C698 C701 1.409 1_655 S
C699 H691 0.930 . S
C699 C700 1.355 . S
C699 C701 1.415 . S
C700 C699 1.355 . S
C700 C702 1.419 . S
C701 C696 1.425 . S
C701 C698 1.409 1_455 S
C701 C699 1.415 . S
C702 H692 0.930 . S
C702 C700 1.419 . S
C702 C703 1.362 . S
C703 H693 0.930 . S
C703 C696 1.409 . S
C703 C702 1.362 . S
H704 C710 0.930 . S
H705 C713 0.930 . S
H706 C714 0.933 . S
H707 C715 0.930 . S
H708 C718 0.930 . S
H709 C719 0.930 . S
C710 H704 0.930 . S
C710 C711 1.355 . S
C710 C712 1.415 . S
C711 C710 1.355 . S
C711 C713 1.419 . S
C712 C710 1.415 . S
C712 C717 1.425 . S
C712 C719 1.409 . S
C713 H705 0.930 . S
C713 C711 1.419 . S
C713 C714 1.360 1_554 S
C714 H706 0.933 . S
C714 C713 1.360 1_556 S
C714 C717 1.409 1_556 S
C715 H707 0.930 . S
C715 C716 1.355 . S
C715 C717 1.415 1_556 S
C716 C715 1.355 . S
C716 C718 1.419 1_556 S
C717 C712 1.425 . S
C717 C714 1.409 1_554 S
C717 C715 1.415 1_554 S
C718 H708 0.930 . S
C718 C716 1.419 1_554 S
C718 C719 1.362 . S
C719 H709 0.930 . S
C719 C712 1.409 . S
C719 C718 1.362 . S
H720 C726 0.930 . S
H721 C729 0.930 . S
H722 C730 0.930 . S
H723 C731 0.930 . S
H724 C734 0.930 1_554 S
H725 C735 0.930 . S
C726 H720 0.930 . S
C726 C727 1.355 . S
C726 C728 1.415 . S
C727 C726 1.355 . S
C727 C729 1.419 1_554 S
C728 C726 1.415 . S
C728 C733 1.425 1_554 S
C728 C735 1.409 . S
C729 H721 0.930 . S
C729 C727 1.419 1_556 S
C729 C730 1.362 . S
C730 H722 0.930 . S
C730 C729 1.362 . S
C730 C733 1.409 . S
C731 H723 0.930 . S
C731 C732 1.355 . S
C731 C733 1.415 . S
C732 C731 1.355 . S
C732 C734 1.419 . S
C733 C728 1.425 1_556 S
C733 C730 1.409 . S
C733 C731 1.415 . S
C734 H724 0.930 1_556 S
C734 C732 1.419 . S
C734 C735 1.362 1_556 S
C735 H725 0.930 . S
C735 C728 1.409 . S
C735 C734 1.362 1_554 S
H736 C742 0.930 . S
H737 C745 0.930 . S
H738 C746 0.930 . S
H739 C747 0.930 . S
H740 C750 0.930 . S
H741 C751 0.930 . S
C742 H736 0.930 . S
C742 C743 1.355 . S
C742 C744 1.415 . S
C743 C742 1.355 . S
C743 C745 1.419 . S
C744 C742 1.415 . S
C744 C749 1.425 . S
C744 C751 1.409 1_554 S
C745 H737 0.930 . S
C745 C743 1.419 . S
C745 C746 1.362 . S
C746 H738 0.930 . S
C746 C745 1.362 . S
C746 C749 1.409 . S
C747 H739 0.930 . S
C747 C748 1.355 1_554 S
C747 C749 1.415 . S
C748 C747 1.355 1_556 S
C748 C750 1.419 . S
C749 C744 1.425 . S
C749 C746 1.409 . S
C749 C747 1.415 . S
C750 H740 0.930 . S
C750 C748 1.419 . S
C750 C751 1.362 . S
C751 H741 0.930 . S
C751 C744 1.409 1_556 S
C751 C750 1.362 . S
H752 C758 0.930 . S
H753 C761 0.930 . S
H754 C762 0.930 . S
H755 C763 0.930 . S
H756 C766 0.930 . S
H757 C767 0.930 . S
C758 H752 0.930 . S
C758 C759 1.355 1_556 S
C758 C760 1.415 . S
C759 C758 1.355 1_554 S
C759 C761 1.419 . S
C760 C758 1.415 . S
C760 C765 1.425 . S
C760 C767 1.409 . S
C761 H753 0.930 . S
C761 C759 1.419 . S
C761 C762 1.362 . S
C762 H754 0.930 . S
C762 C761 1.362 . S
C762 C765 1.409 1_554 S
C763 H755 0.930 . S
C763 C764 1.355 . S
C763 C765 1.415 . S
C764 C763 1.355 . S
C764 C766 1.419 . S
C765 C760 1.425 . S
C765 C762 1.409 1_556 S
C765 C763 1.415 . S
C766 H756 0.930 . S
C766 C764 1.419 . S
C766 C767 1.362 . S
C767 H757 0.930 . S
C767 C760 1.409 . S
C767 C766 1.362 . S
H768 C774 0.930 . S
H769 C777 0.930 . S
H770 C778 0.930 . S
H771 C779 0.930 . S
H772 C782 0.930 . S
H773 C783 0.930 . S
C774 H768 0.930 . S
C774 C775 1.355 . S
C774 C776 1.415 . S
C775 C774 1.355 . S
C775 C777 1.419 . S
C776 C774 1.415 . S
C776 C781 1.425 . S
C776 C783 1.409 . S
C777 H769 0.930 . S
C777 C775 1.419 . S
C777 C778 1.362 . S
C778 H770 0.930 . S
C778 C777 1.362 . S
C778 C781 1.409 . S
C779 H771 0.930 . S
C779 C780 1.355 . S
C779 C781 1.415 . S
C780 C779 1.355 . S
C780 C782 1.419 . S
C781 C776 1.425 . S
C781 C778 1.409 . S
C781 C779 1.415 . S
C782 H772 0.930 . S
C782 C780 1.419 . S
C782 C783 1.362 . S
C783 H773 0.930 . S
C783 C776 1.409 . S
C783 C782 1.362 . S
H784 C790 0.930 . S
H785 C793 0.930 . S
H786 C794 0.930 . S
H787 C795 0.930 . S
H788 C798 0.930 . S
H789 C799 0.930 . S
C790 H784 0.930 . S
C790 C791 1.355 . S
C790 C792 1.415 . S
C791 C790 1.355 . S
C791 C793 1.419 . S
C792 C790 1.415 . S
C792 C797 1.425 . S
C792 C799 1.409 . S
C793 H785 0.930 . S
C793 C791 1.419 . S
C793 C794 1.362 . S
C794 H786 0.930 . S
C794 C793 1.362 . S
C794 C797 1.409 . S
C795 H787 0.930 . S
C795 C796 1.355 . S
C795 C797 1.415 . S
C796 C795 1.355 . S
C796 C798 1.419 . S
C797 C792 1.425 . S
C797 C794 1.409 . S
C797 C795 1.415 . S
C798 H788 0.930 . S
C798 C796 1.419 . S
C798 C799 1.362 . S
C799 H789 0.930 . S
C799 C792 1.409 . S
C799 C798 1.362 . S
H800 C806 0.930 . S
H801 C809 0.930 . S
H802 C810 0.930 . S
H803 C811 0.930 . S
H804 C814 0.930 . S
H805 C815 0.930 . S
C806 H800 0.930 . S
C806 C807 1.355 . S
C806 C808 1.415 . S
C807 C806 1.355 . S
C807 C809 1.419 . S
C808 C806 1.415 . S
C808 C813 1.425 . S
C808 C815 1.409 . S
C809 H801 0.930 . S
C809 C807 1.419 . S
C809 C810 1.362 . S
C810 H802 0.930 . S
C810 C809 1.362 . S
C810 C813 1.409 . S
C811 H803 0.930 . S
C811 C812 1.355 . S
C811 C813 1.415 . S
C812 C811 1.355 . S
C812 C814 1.419 . S
C813 C808 1.425 . S
C813 C810 1.409 . S
C813 C811 1.415 . S
C814 H804 0.930 . S
C814 C812 1.419 . S
C814 C815 1.362 . S
C815 H805 0.930 . S
C815 C808 1.409 . S
C815 C814 1.362 . S
H816 C822 0.930 . S
H817 C825 0.930 . S
H818 C826 0.930 . S
H819 C827 0.930 . S
H820 C830 0.930 . S
H821 C831 0.930 . S
C822 H816 0.930 . S
C822 C823 1.355 . S
C822 C824 1.415 . S
C823 C822 1.355 . S
C823 C825 1.419 . S
C824 C822 1.415 . S
C824 C829 1.425 . S
C824 C831 1.409 . S
C825 H817 0.930 . S
C825 C823 1.419 . S
C825 C826 1.362 . S
C826 H818 0.930 . S
C826 C825 1.362 . S
C826 C829 1.409 . S
C827 H819 0.930 . S
C827 C828 1.355 . S
C827 C829 1.415 . S
C828 C827 1.355 . S
C828 C830 1.419 . S
C829 C824 1.425 . S
C829 C826 1.409 . S
C829 C827 1.415 . S
C830 H820 0.930 . S
C830 C828 1.419 . S
C830 C831 1.362 . S
C831 H821 0.930 . S
C831 C824 1.409 . S
C831 C830 1.362 . S
H832 C838 0.930 . S
H833 C841 0.930 . S
H834 C842 0.930 . S
H835 C843 0.930 . S
H836 C846 0.930 . S
H837 C847 0.930 . S
C838 H832 0.930 . S
C838 C839 1.355 . S
C838 C840 1.415 1_565 S
C839 C838 1.355 . S
C839 C841 1.419 1_565 S
C840 C838 1.415 1_545 S
C840 C845 1.425 . S
C840 C847 1.409 . S
C841 H833 0.930 . S
C841 C839 1.419 1_545 S
C841 C842 1.362 . S
C842 H834 0.930 . S
C842 C841 1.362 . S
C842 C845 1.409 . S
C843 H835 0.930 . S
C843 C844 1.355 . S
C843 C845 1.415 . S
C844 C843 1.355 . S
C844 C846 1.419 . S
C845 C840 1.425 . S
C845 C842 1.409 . S
C845 C843 1.415 . S
C846 H836 0.930 . S
C846 C844 1.419 . S
C846 C847 1.362 . S
C847 H837 0.930 . S
C847 C840 1.409 . S
C847 C846 1.362 . S
H848 C854 0.930 . S
H849 C857 0.930 . S
H850 C858 0.930 . S
H851 C859 0.930 . S
H852 C862 0.930 . S
H853 C863 0.930 . S
C854 H848 0.930 . S
C854 C855 1.355 . S
C854 C856 1.415 . S
C855 C854 1.355 . S
C855 C857 1.419 . S
C856 C854 1.415 . S
C856 C861 1.425 . S
C856 C863 1.409 . S
C857 H849 0.930 . S
C857 C855 1.419 . S
C857 C858 1.362 . S
C858 H850 0.930 . S
C858 C857 1.362 . S
C858 C861 1.409 . S
C859 H851 0.930 . S
C859 C860 1.355 . S
C859 C861 1.415 1_655 S
C860 C859 1.355 . S
C860 C862 1.419 . S
C861 C856 1.425 . S
C861 C858 1.409 . S
C861 C859 1.415 1_455 S
C862 H852 0.930 . S
C862 C860 1.419 . S
C862 C863 1.362 1_655 S
C863 H853 0.930 . S
C863 C856 1.409 . S
C863 C862 1.362 1_455 S
H864 C870 0.930 . S
H865 C873 0.930 . S
H866 C874 0.930 . S
H867 C875 0.930 . S
H868 C878 0.930 . S
H869 C879 0.930 . S
C870 H864 0.930 . S
C870 C871 1.355 . S
C870 C872 1.415 . S
C871 C870 1.355 . S
C871 C873 1.419 . S
C872 C870 1.415 . S
C872 C877 1.425 . S
C872 C879 1.409 . S
C873 H865 0.930 . S
C873 C871 1.419 . S
C873 C874 1.362 . S
C874 H866 0.930 . S
C874 C873 1.362 . S
C874 C877 1.409 . S
C875 H867 0.930 . S
C875 C876 1.355 1_565 S
C875 C877 1.415 . S
C876 C875 1.355 1_545 S
C876 C878 1.419 . S
C877 C872 1.425 . S
C877 C874 1.409 . S
C877 C875 1.415 . S
C878 H868 0.930 . S
C878 C876 1.419 . S
C878 C879 1.362 1_545 S
C879 H869 0.930 . S
C879 C872 1.409 . S
C879 C878 1.362 1_565 S
H880 C886 0.930 . S
H881 C889 0.930 . S
H882 C890 0.930 . S
H883 C891 0.930 . S
H884 C894 0.930 . S
H885 C895 0.930 . S
C886 H880 0.930 . S
C886 C887 1.355 . S
C886 C888 1.415 1_455 S
C887 C886 1.355 . S
C887 C889 1.419 1_455 S
C888 C886 1.415 1_655 S
C888 C893 1.425 . S
C888 C895 1.409 . S
C889 H881 0.930 . S
C889 C887 1.419 1_655 S
C889 C890 1.362 . S
C890 H882 0.930 . S
C890 C889 1.362 . S
C890 C893 1.409 . S
C891 H883 0.930 . S
C891 C892 1.355 . S
C891 C893 1.415 . S
C892 C891 1.355 . S
C892 C894 1.419 . S
C893 C888 1.425 . S
C893 C890 1.409 . S
C893 C891 1.415 . S
C894 H884 0.930 . S
C894 C892 1.419 . S
C894 C895 1.362 . S
C895 H885 0.930 . S
C895 C888 1.409 . S
C895 C894 1.362 . S
H896 C902 0.930 . S
H897 C905 0.930 . S
H898 C906 0.930 . S
H899 C907 0.930 . S
H900 C910 0.930 . S
H901 C911 0.930 . S
C902 H896 0.930 . S
C902 C903 1.355 . S
C902 C904 1.415 . S
C903 C902 1.355 . S
C903 C905 1.419 . S
C904 C902 1.415 . S
C904 C909 1.425 . S
C904 C911 1.409 . S
C905 H897 0.930 . S
C905 C903 1.419 . S
C905 C906 1.362 . S
C906 H898 0.930 . S
C906 C905 1.362 . S
C906 C909 1.409 . S
C907 H899 0.930 . S
C907 C908 1.355 . S
C907 C909 1.415 . S
C908 C907 1.355 . S
C908 C910 1.419 . S
C909 C904 1.425 . S
C909 C906 1.409 . S
C909 C907 1.415 . S
C910 H900 0.930 . S
C910 C908 1.419 . S
C910 C911 1.362 . S
C911 H901 0.930 . S
C911 C904 1.409 . S
C911 C910 1.362 . S
H912 C918 0.930 . S
H913 C921 0.930 . S
H914 C922 0.930 . S
H915 C923 0.930 . S
H916 C926 0.930 . S
H917 C927 0.930 . S
C918 H912 0.930 . S
C918 C919 1.355 . S
C918 C920 1.415 . S
C919 C918 1.355 . S
C919 C921 1.419 . S
C920 C918 1.415 . S
C920 C925 1.425 . S
C920 C927 1.409 . S
C921 H913 0.930 . S
C921 C919 1.419 . S
C921 C922 1.362 . S
C922 H914 0.930 . S
C922 C921 1.362 . S
C922 C925 1.409 . S
C923 H915 0.930 . S
C923 C924 1.355 . S
C923 C925 1.415 . S
C924 C923 1.355 . S
C924 C926 1.419 . S
C925 C920 1.425 . S
C925 C922 1.409 . S
C925 C923 1.415 . S
C926 H916 0.930 . S
C926 C924 1.419 . S
C926 C927 1.362 . S
C927 H917 0.930 . S
C927 C920 1.409 . S
C927 C926 1.362 . S
H928 C934 0.930 . S
H929 C937 0.930 . S
H930 C938 0.930 . S
H931 C939 0.930 . S
H932 C942 0.930 . S
H933 C943 0.930 . S
C934 H928 0.930 . S
C934 C935 1.355 . S
C934 C936 1.415 . S
C935 C934 1.355 . S
C935 C937 1.419 . S
C936 C934 1.415 . S
C936 C941 1.425 . S
C936 C943 1.409 . S
C937 H929 0.930 . S
C937 C935 1.419 . S
C937 C938 1.362 . S
C938 H930 0.930 . S
C938 C937 1.362 . S
C938 C941 1.409 . S
C939 H931 0.930 . S
C939 C940 1.355 . S
C939 C941 1.415 . S
C940 C939 1.355 . S
C940 C942 1.419 . S
C941 C936 1.425 . S
C941 C938 1.409 . S
C941 C939 1.415 . S
C942 H932 0.930 . S
C942 C940 1.419 . S
C942 C943 1.362 . S
C943 H933 0.930 . S
C943 C936 1.409 . S
C943 C942 1.362 . S
H944 C950 0.930 . S
H945 C953 0.930 . S
H946 C954 0.930 . S
H947 C955 0.930 . S
H948 C958 0.930 . S
H949 C959 0.930 . S
C950 H944 0.930 . S
C950 C951 1.355 . S
C950 C952 1.415 . S
C951 C950 1.355 . S
C951 C953 1.419 . S
C952 C950 1.415 . S
C952 C957 1.425 . S
C952 C959 1.409 . S
C953 H945 0.930 . S
C953 C951 1.419 . S
C953 C954 1.362 . S
C954 H946 0.930 . S
C954 C953 1.362 . S
C954 C957 1.409 . S
C955 H947 0.930 . S
C955 C956 1.355 . S
C955 C957 1.415 . S
C956 C955 1.355 . S
C956 C958 1.419 . S
C957 C952 1.425 . S
C957 C954 1.409 . S
C957 C955 1.415 . S
C958 H948 0.930 . S
C958 C956 1.419 . S
C958 C959 1.362 . S
C959 H949 0.930 . S
C959 C952 1.409 . S
C959 C958 1.362 . S
H960 C966 0.930 . S
H961 C969 0.930 . S
H962 C970 0.930 . S
H963 C971 0.930 . S
H964 C974 0.930 . S
H965 C975 0.930 . S
C966 H960 0.930 . S
C966 C967 1.355 . S
C966 C968 1.415 . S
C967 C966 1.355 . S
C967 C969 1.419 . S
C968 C966 1.415 . S
C968 C973 1.425 . S
C968 C975 1.409 . S
C969 H961 0.930 . S
C969 C967 1.419 . S
C969 C970 1.362 . S
C970 H962 0.930 . S
C970 C969 1.362 . S
C970 C973 1.409 . S
C971 H963 0.930 . S
C971 C972 1.355 . S
C971 C973 1.415 . S
C972 C971 1.355 . S
C972 C974 1.419 . S
C973 C968 1.425 . S
C973 C970 1.409 . S
C973 C971 1.415 . S
C974 H964 0.930 . S
C974 C972 1.419 . S
C974 C975 1.362 . S
C975 H965 0.930 . S
C975 C968 1.409 . S
C975 C974 1.362 . S
H976 C982 0.930 . S
H977 C985 0.930 . S
H978 C986 0.930 . S
H979 C987 0.930 . S
H980 C990 0.930 . S
H981 C991 0.930 . S
C982 H976 0.930 . S
C982 C983 1.355 . S
C982 C984 1.415 . S
C983 C982 1.355 . S
C983 C985 1.419 . S
C984 C982 1.415 . S
C984 C989 1.425 . S
C984 C991 1.409 . S
C985 H977 0.930 . S
C985 C983 1.419 . S
C985 C986 1.362 . S
C986 H978 0.930 . S
C986 C985 1.362 . S
C986 C989 1.409 . S
C987 H979 0.930 . S
C987 C988 1.355 . S
C987 C989 1.415 . S
C988 C987 1.355 . S
C988 C990 1.419 . S
C989 C984 1.425 . S
C989 C986 1.409 . S
C989 C987 1.415 . S
C990 H980 0.930 . S
C990 C988 1.419 . S
C990 C991 1.362 . S
C991 H981 0.930 . S
C991 C984 1.409 . S
C991 C990 1.362 . S
H992 C998 0.930 . S
H993 C1001 0.930 . S
H994 C1002 0.930 . S
H995 C1003 0.930 . S
H996 C1006 0.930 . S
H997 C1007 0.930 . S
C998 H992 0.930 . S
C998 C999 1.355 . S
C998 C1000 1.415 . S
C999 C998 1.355 . S
C999 C1001 1.419 . S
C1000 C998 1.415 . S
C1000 C1005 1.425 . S
C1000 C1007 1.409 . S
C1001 H993 0.930 . S
C1001 C999 1.419 . S
C1001 C1002 1.362 . S
C1002 H994 0.930 . S
C1002 C1001 1.362 . S
C1002 C1005 1.409 . S
C1003 H995 0.930 . S
C1003 C1004 1.355 . S
C1003 C1005 1.415 . S
C1004 C1003 1.355 . S
C1004 C1006 1.419 . S
C1005 C1000 1.425 . S
C1005 C1002 1.409 . S
C1005 C1003 1.415 . S
C1006 H996 0.930 . S
C1006 C1004 1.419 . S
C1006 C1007 1.362 . S
C1007 H997 0.930 . S
C1007 C1000 1.409 . S
C1007 C1006 1.362 . S
H1008 C1014 0.930 . S
H1009 C1017 0.930 . S
H1010 C1018 0.930 . S
H1011 C1019 0.930 . S
H1012 C1022 0.930 . S
H1013 C1023 0.930 . S
C1014 H1008 0.930 . S
C1014 C1015 1.355 . S
C1014 C1016 1.415 . S
C1015 C1014 1.355 . S
C1015 C1017 1.419 . S
C1016 C1014 1.415 . S
C1016 C1021 1.425 . S
C1016 C1023 1.409 . S
C1017 H1009 0.930 . S
C1017 C1015 1.419 . S
C1017 C1018 1.362 . S
C1018 H1010 0.930 . S
C1018 C1017 1.362 . S
C1018 C1021 1.409 . S
C1019 H1011 0.930 . S
C1019 C1020 1.355 . S
C1019 C1021 1.415 . S
C1020 C1019 1.355 . S
C1020 C1022 1.419 . S
C1021 C1016 1.425 . S
C1021 C1018 1.409 . S
C1021 C1019 1.415 . S
C1022 H1012 0.930 . S
C1022 C1020 1.419 . S
C1022 C1023 1.362 . S
C1023 H1013 0.930 . S
C1023 C1016 1.409 . S
C1023 C1022 1.362 . S
H1024 C1030 0.930 . S
H1025 C1033 0.930 . S
H1026 C1034 0.930 . S
H1027 C1035 0.930 . S
H1028 C1038 0.930 . S
H1029 C1039 0.930 . S
C1030 H1024 0.930 . S
C1030 C1031 1.355 . S
C1030 C1032 1.415 . S
C1031 C1030 1.355 . S
C1031 C1033 1.419 . S
C1032 C1030 1.415 . S
C1032 C1037 1.425 . S
C1032 C1039 1.409 . S
C1033 H1025 0.930 . S
C1033 C1031 1.419 . S
C1033 C1034 1.362 . S
C1034 H1026 0.930 . S
C1034 C1033 1.362 . S
C1034 C1037 1.409 . S
C1035 H1027 0.930 . S
C1035 C1036 1.355 . S
C1035 C1037 1.415 . S
C1036 C1035 1.355 . S
C1036 C1038 1.419 . S
C1037 C1032 1.425 . S
C1037 C1034 1.409 . S
C1037 C1035 1.415 . S
C1038 H1028 0.930 . S
C1038 C1036 1.419 . S
C1038 C1039 1.362 . S
C1039 H1029 0.930 . S
C1039 C1032 1.409 . S
C1039 C1038 1.362 . S
H1040 C1046 0.930 . S
H1041 C1049 0.930 . S
H1042 C1050 0.930 . S
H1043 C1051 0.930 . S
H1044 C1054 0.930 . S
H1045 C1055 0.930 . S
C1046 H1040 0.930 . S
C1046 C1047 1.355 . S
C1046 C1048 1.415 . S
C1047 C1046 1.355 . S
C1047 C1049 1.419 . S
C1048 C1046 1.415 . S
C1048 C1053 1.425 . S
C1048 C1055 1.409 . S
C1049 H1041 0.930 . S
C1049 C1047 1.419 . S
C1049 C1050 1.362 . S
C1050 H1042 0.930 . S
C1050 C1049 1.362 . S
C1050 C1053 1.409 . S
C1051 H1043 0.930 . S
C1051 C1052 1.355 . S
C1051 C1053 1.415 . S
C1052 C1051 1.355 . S
C1052 C1054 1.419 . S
C1053 C1048 1.425 . S
C1053 C1050 1.409 . S
C1053 C1051 1.415 . S
C1054 H1044 0.930 . S
C1054 C1052 1.419 . S
C1054 C1055 1.362 . S
C1055 H1045 0.930 . S
C1055 C1048 1.409 . S
C1055 C1054 1.362 . S
H1056 C1062 0.930 . S
H1057 C1065 0.930 1_554 S
H1058 C1066 0.930 . S
H1059 C1067 0.930 . S
H1060 C1070 0.930 . S
H1061 C1071 0.930 . S
C1062 H1056 0.930 . S
C1062 C1063 1.355 . S
C1062 C1064 1.415 . S
C1063 C1062 1.355 . S
C1063 C1065 1.419 . S
C1064 C1062 1.415 . S
C1064 C1069 1.425 . S
C1064 C1071 1.409 . S
C1065 H1057 0.930 1_556 S
C1065 C1063 1.419 . S
C1065 C1066 1.362 . S
C1066 H1058 0.930 . S
C1066 C1065 1.362 . S
C1066 C1069 1.409 . S
C1067 H1059 0.930 . S
C1067 C1068 1.355 . S
C1067 C1069 1.415 . S
C1068 C1067 1.355 . S
C1068 C1070 1.419 . S
C1069 C1064 1.425 . S
C1069 C1066 1.409 . S
C1069 C1067 1.415 . S
C1070 H1060 0.930 . S
C1070 C1068 1.419 . S
C1070 C1071 1.362 . S
C1071 H1061 0.930 . S
C1071 C1064 1.409 . S
C1071 C1070 1.362 . S
H1072 C1078 0.930 . S
H1073 C1081 0.930 . S
H1074 C1082 0.930 . S
H1075 C1083 0.930 . S
H1076 C1086 0.930 . S
H1077 C1087 0.930 . S
C1078 H1072 0.930 . S
C1078 C1079 1.355 . S
C1078 C1080 1.415 . S
C1079 C1078 1.355 . S
C1079 C1081 1.419 . S
C1080 C1078 1.415 . S
C1080 C1085 1.425 . S
C1080 C1087 1.409 . S
C1081 H1073 0.930 . S
C1081 C1079 1.419 . S
C1081 C1082 1.362 . S
C1082 H1074 0.930 . S
C1082 C1081 1.362 . S
C1082 C1085 1.409 . S
C1083 H1075 0.930 . S
C1083 C1084 1.355 . S
C1083 C1085 1.415 . S
C1084 C1083 1.355 . S
C1084 C1086 1.419 . S
C1085 C1080 1.425 . S
C1085 C1082 1.409 . S
C1085 C1083 1.415 . S
C1086 H1076 0.930 . S
C1086 C1084 1.419 . S
C1086 C1087 1.362 . S
C1087 H1077 0.930 . S
C1087 C1080 1.409 . S
C1087 C1086 1.362 . S
H1088 C1094 0.930 . S
H1089 C1097 0.930 . S
H1090 C1098 0.930 . S
H1091 C1099 0.930 . S
H1092 C1102 0.930 . S
H1093 C1103 0.930 . S
C1094 H1088 0.930 . S
C1094 C1095 1.355 . S
C1094 C1096 1.415 . S
C1095 C1094 1.355 . S
C1095 C1097 1.419 . S
C1096 C1094 1.415 . S
C1096 C1101 1.425 . S
C1096 C1103 1.409 . S
C1097 H1089 0.930 . S
C1097 C1095 1.419 . S
C1097 C1098 1.362 . S
C1098 H1090 0.930 . S
C1098 C1097 1.362 . S
C1098 C1101 1.409 . S
C1099 H1091 0.930 . S
C1099 C1100 1.355 . S
C1099 C1101 1.415 . S
C1100 C1099 1.355 . S
C1100 C1102 1.419 . S
C1101 C1096 1.425 . S
C1101 C1098 1.409 . S
C1101 C1099 1.415 . S
C1102 H1092 0.930 . S
C1102 C1100 1.419 . S
C1102 C1103 1.362 . S
C1103 H1093 0.930 . S
C1103 C1096 1.409 . S
C1103 C1102 1.362 . S
H1104 C1110 0.930 . S
H1105 C1113 0.930 . S
H1106 C1114 0.930 . S
H1107 C1115 0.930 . S
H1108 C1118 0.930 . S
H1109 C1119 0.930 . S
C1110 H1104 0.930 . S
C1110 C1111 1.355 . S
C1110 C1112 1.415 . S
C1111 C1110 1.355 . S
C1111 C1113 1.419 . S
C1112 C1110 1.415 . S
C1112 C1117 1.425 . S
C1112 C1119 1.409 . S
C1113 H1105 0.930 . S
C1113 C1111 1.419 . S
C1113 C1114 1.362 . S
C1114 H1106 0.930 . S
C1114 C1113 1.362 . S
C1114 C1117 1.409 . S
C1115 H1107 0.930 . S
C1115 C1116 1.355 . S
C1115 C1117 1.415 . S
C1116 C1115 1.355 . S
C1116 C1118 1.419 . S
C1117 C1112 1.425 . S
C1117 C1114 1.409 . S
C1117 C1115 1.415 . S
C1118 H1108 0.930 . S
C1118 C1116 1.419 . S
C1118 C1119 1.362 . S
C1119 H1109 0.930 . S
C1119 C1112 1.409 . S
C1119 C1118 1.362 . S
H1120 C1126 0.930 . S
H1121 C1129 0.930 . S
H1122 C1130 0.930 . S
H1123 C1131 0.930 . S
H1124 C1134 0.930 . S
H1125 C1135 0.930 . S
C1126 H1120 0.930 . S
C1126 C1127 1.355 . S
C1126 C1128 1.415 . S
C1127 C1126 1.355 . S
C1127 C1129 1.419 . S
C1128 C1126 1.415 . S
C1128 C1133 1.425 . S
C1128 C1135 1.409 . S
C1129 H1121 0.930 . S
C1129 C1127 1.419 . S
C1129 C1130 1.362 . S
C1130 H1122 0.930 . S
C1130 C1129 1.362 . S
C1130 C1133 1.409 . S
C1131 H1123 0.930 . S
C1131 C1132 1.355 . S
C1131 C1133 1.415 . S
C1132 C1131 1.355 . S
C1132 C1134 1.419 . S
C1133 C1128 1.425 . S
C1133 C1130 1.409 . S
C1133 C1131 1.415 . S
C1134 H1124 0.930 . S
C1134 C1132 1.419 . S
C1134 C1135 1.362 . S
C1135 H1125 0.930 . S
C1135 C1128 1.409 . S
C1135 C1134 1.362 . S
H1136 C1142 0.930 . S
H1137 C1145 0.930 . S
H1138 C1146 0.930 . S
H1139 C1147 0.930 . S
H1140 C1150 0.930 . S
H1141 C1151 0.930 . S
C1142 H1136 0.930 . S
C1142 C1143 1.355 . S
C1142 C1144 1.415 . S
C1143 C1142 1.355 . S
C1143 C1145 1.419 . S
C1144 C1142 1.415 . S
C1144 C1149 1.425 . S
C1144 C1151 1.409 . S
C1145 H1137 0.930 . S
C1145 C1143 1.419 . S
C1145 C1146 1.362 . S
C1146 H1138 0.930 . S
C1146 C1145 1.362 . S
C1146 C1149 1.409 . S
C1147 H1139 0.930 . S
C1147 C1148 1.355 . S
C1147 C1149 1.415 . S
C1148 C1147 1.355 . S
C1148 C1150 1.419 . S
C1149 C1144 1.425 . S
C1149 C1146 1.409 . S
C1149 C1147 1.415 . S
C1150 H1140 0.930 . S
C1150 C1148 1.419 . S
C1150 C1151 1.362 . S
C1151 H1141 0.930 . S
C1151 C1144 1.409 . S
C1151 C1150 1.362 . S
H1152 C1158 0.930 . S
H1153 C1161 0.930 . S
H1154 C1162 0.930 . S
H1155 C1163 0.930 . S
H1156 C1166 0.930 . S
H1157 C1167 0.930 . S
C1158 H1152 0.930 . S
C1158 C1159 1.355 . S
C1158 C1160 1.415 . S
C1159 C1158 1.355 . S
C1159 C1161 1.419 . S
C1160 C1158 1.415 . S
C1160 C1165 1.425 . S
C1160 C1167 1.409 . S
C1161 H1153 0.930 . S
C1161 C1159 1.419 . S
C1161 C1162 1.362 . S
C1162 H1154 0.930 . S
C1162 C1161 1.362 . S
C1162 C1165 1.409 . S
C1163 H1155 0.930 . S
C1163 C1164 1.355 . S
C1163 C1165 1.415 . S
C1164 C1163 1.355 . S
C1164 C1166 1.419 . S
C1165 C1160 1.425 . S
C1165 C1162 1.409 . S
C1165 C1163 1.415 . S
C1166 H1156 0.930 . S
C1166 C1164 1.419 . S
C1166 C1167 1.362 . S
C1167 H1157 0.930 . S
C1167 C1160 1.409 . S
C1167 C1166 1.362 . S
H1168 C1174 0.930 . S
H1169 C1177 0.930 . S
H1170 C1178 0.930 . S
H1171 C1179 0.930 . S
H1172 C1182 0.930 . S
H1173 C1183 0.930 . S
C1174 H1168 0.930 . S
C1174 C1175 1.355 . S
C1174 C1176 1.415 . S
C1175 C1174 1.355 . S
C1175 C1177 1.419 . S
C1176 C1174 1.415 . S
C1176 C1181 1.425 . S
C1176 C1183 1.409 . S
C1177 H1169 0.930 . S
C1177 C1175 1.419 . S
C1177 C1178 1.362 . S
C1178 H1170 0.930 . S
C1178 C1177 1.362 . S
C1178 C1181 1.409 . S
C1179 H1171 0.930 . S
C1179 C1180 1.355 . S
C1179 C1181 1.415 . S
C1180 C1179 1.355 . S
C1180 C1182 1.419 . S
C1181 C1176 1.425 . S
C1181 C1178 1.409 . S
C1181 C1179 1.415 . S
C1182 H1172 0.930 . S
C1182 C1180 1.419 . S
C1182 C1183 1.362 . S
C1183 H1173 0.930 . S
C1183 C1176 1.409 . S
C1183 C1182 1.362 . S
H1184 C1190 0.930 . S
H1185 C1193 0.930 . S
H1186 C1194 0.930 . S
H1187 C1195 0.930 . S
H1188 C1198 0.930 . S
H1189 C1199 0.930 . S
C1190 H1184 0.930 . S
C1190 C1191 1.355 . S
C1190 C1192 1.415 . S
C1191 C1190 1.355 . S
C1191 C1193 1.419 . S
C1192 C1190 1.415 . S
C1192 C1197 1.425 . S
C1192 C1199 1.409 . S
C1193 H1185 0.930 . S
C1193 C1191 1.419 . S
C1193 C1194 1.362 . S
C1194 H1186 0.930 . S
C1194 C1193 1.362 . S
C1194 C1197 1.409 . S
C1195 H1187 0.930 . S
C1195 C1196 1.355 . S
C1195 C1197 1.415 . S
C1196 C1195 1.355 . S
C1196 C1198 1.419 . S
C1197 C1192 1.425 . S
C1197 C1194 1.409 . S
C1197 C1195 1.415 . S
C1198 H1188 0.930 . S
C1198 C1196 1.419 . S
C1198 C1199 1.362 . S
C1199 H1189 0.930 . S
C1199 C1192 1.409 . S
C1199 C1198 1.362 . S
H1200 C1206 0.930 . S
H1201 C1209 0.930 . S
H1202 C1210 0.930 . S
H1203 C1211 0.930 . S
H1204 C1214 0.930 . S
H1205 C1215 0.930 . S
C1206 H1200 0.930 . S
C1206 C1207 1.355 . S
C1206 C1208 1.415 . S
C1207 C1206 1.355 . S
C1207 C1209 1.419 . S
C1208 C1206 1.415 . S
C1208 C1213 1.425 . S
C1208 C1215 1.409 . S
C1209 H1201 0.930 . S
C1209 C1207 1.419 . S
C1209 C1210 1.362 . S
C1210 H1202 0.930 . S
C1210 C1209 1.362 . S
C1210 C1213 1.409 . S
C1211 H1203 0.930 . S
C1211 C1212 1.355 . S
C1211 C1213 1.415 . S
C1212 C1211 1.355 . S
C1212 C1214 1.419 . S
C1213 C1208 1.425 . S
C1213 C1210 1.409 . S
C1213 C1211 1.415 . S
C1214 H1204 0.930 . S
C1214 C1212 1.419 . S
C1214 C1215 1.362 . S
C1215 H1205 0.930 . S
C1215 C1208 1.409 . S
C1215 C1214 1.362 . S
H1216 C1222 0.930 . S
H1217 C1225 0.930 . S
H1218 C1226 0.930 . S
H1219 C1227 0.930 . S
H1220 C1230 0.930 . S
H1221 C1231 0.930 . S
C1222 H1216 0.930 . S
C1222 C1223 1.355 . S
C1222 C1224 1.415 . S
C1223 C1222 1.355 . S
C1223 C1225 1.419 . S
C1224 C1222 1.415 . S
C1224 C1229 1.425 . S
C1224 C1231 1.409 . S
C1225 H1217 0.930 . S
C1225 C1223 1.419 . S
C1225 C1226 1.362 . S
C1226 H1218 0.930 . S
C1226 C1225 1.362 . S
C1226 C1229 1.409 . S
C1227 H1219 0.930 . S
C1227 C1228 1.355 . S
C1227 C1229 1.415 . S
C1228 C1227 1.355 . S
C1228 C1230 1.419 . S
C1229 C1224 1.425 . S
C1229 C1226 1.409 . S
C1229 C1227 1.415 . S
C1230 H1220 0.930 . S
C1230 C1228 1.419 . S
C1230 C1231 1.362 . S
C1231 H1221 0.930 . S
C1231 C1224 1.409 . S
C1231 C1230 1.362 . S
H1232 C1238 0.930 . S
H1233 C1241 0.930 . S
H1234 C1242 0.930 . S
H1235 C1243 0.930 . S
H1236 C1246 0.930 . S
H1237 C1247 0.930 . S
C1238 H1232 0.930 . S
C1238 C1239 1.355 . S
C1238 C1240 1.415 . S
C1239 C1238 1.355 . S
C1239 C1241 1.419 . S
C1240 C1238 1.415 . S
C1240 C1245 1.425 . S
C1240 C1247 1.409 . S
C1241 H1233 0.930 . S
C1241 C1239 1.419 . S
C1241 C1242 1.362 . S
C1242 H1234 0.930 . S
C1242 C1241 1.362 . S
C1242 C1245 1.409 . S
C1243 H1235 0.930 . S
C1243 C1244 1.355 . S
C1243 C1245 1.415 . S
C1244 C1243 1.355 . S
C1244 C1246 1.419 . S
C1245 C1240 1.425 . S
C1245 C1242 1.409 . S
C1245 C1243 1.415 . S
C1246 H1236 0.930 . S
C1246 C1244 1.419 . S
C1246 C1247 1.362 . S
C1247 H1237 0.930 . S
C1247 C1240 1.409 . S
C1247 C1246 1.362 . S
H1248 C1254 0.930 . S
H1249 C1257 0.930 . S
H1250 C1258 0.930 . S
H1251 C1259 0.930 . S
H1252 C1262 0.930 . S
H1253 C1263 0.930 . S
C1254 H1248 0.930 . S
C1254 C1255 1.355 . S
C1254 C1256 1.415 . S
C1255 C1254 1.355 . S
C1255 C1257 1.419 . S
C1256 C1254 1.415 . S
C1256 C1261 1.425 . S
C1256 C1263 1.409 . S
C1257 H1249 0.930 . S
C1257 C1255 1.419 . S
C1257 C1258 1.362 . S
C1258 H1250 0.930 . S
C1258 C1257 1.362 . S
C1258 C1261 1.409 . S
C1259 H1251 0.930 . S
C1259 C1260 1.355 . S
C1259 C1261 1.415 . S
C1260 C1259 1.355 . S
C1260 C1262 1.419 . S
C1261 C1256 1.425 . S
C1261 C1258 1.409 . S
C1261 C1259 1.415 . S
C1262 H1252 0.930 . S
C1262 C1260 1.419 . S
C1262 C1263 1.362 . S
C1263 H1253 0.930 . S
C1263 C1256 1.409 . S
C1263 C1262 1.362 . S
H1264 C1270 0.930 . S
H1265 C1273 0.930 . S
H1266 C1274 0.930 . S
H1267 C1275 0.930 . S
H1268 C1278 0.930 . S
H1269 C1279 0.930 . S
C1270 H1264 0.930 . S
C1270 C1271 1.355 . S
C1270 C1272 1.415 . S
C1271 C1270 1.355 . S
C1271 C1273 1.419 . S
C1272 C1270 1.415 . S
C1272 C1277 1.425 . S
C1272 C1279 1.409 . S
C1273 H1265 0.930 . S
C1273 C1271 1.419 . S
C1273 C1274 1.362 . S
C1274 H1266 0.930 . S
C1274 C1273 1.362 . S
C1274 C1277 1.409 . S
C1275 H1267 0.930 . S
C1275 C1276 1.355 . S
C1275 C1277 1.415 . S
C1276 C1275 1.355 . S
C1276 C1278 1.419 . S
C1277 C1272 1.425 . S
C1277 C1274 1.409 . S
C1277 C1275 1.415 . S
C1278 H1268 0.930 . S
C1278 C1276 1.419 . S
C1278 C1279 1.362 . S
C1279 H1269 0.930 . S
C1279 C1272 1.409 . S
C1279 C1278 1.362 . S
H1280 C1286 0.930 . S
H1281 C1289 0.930 . S
H1282 C1290 0.930 . S
H1283 C1291 0.930 . S
H1284 C1294 0.930 . S
H1285 C1295 0.930 . S
C1286 H1280 0.930 . S
C1286 C1287 1.355 . S
C1286 C1288 1.415 . S
C1287 C1286 1.355 . S
C1287 C1289 1.419 . S
C1288 C1286 1.415 . S
C1288 C1293 1.425 . S
C1288 C1295 1.409 . S
C1289 H1281 0.930 . S
C1289 C1287 1.419 . S
C1289 C1290 1.362 . S
C1290 H1282 0.930 . S
C1290 C1289 1.362 . S
C1290 C1293 1.409 . S
C1291 H1283 0.930 . S
C1291 C1292 1.355 . S
C1291 C1293 1.415 . S
C1292 C1291 1.355 . S
C1292 C1294 1.419 . S
C1293 C1288 1.425 . S
C1293 C1290 1.409 . S
C1293 C1291 1.415 . S
C1294 H1284 0.930 . S
C1294 C1292 1.419 . S
C1294 C1295 1.362 . S
C1295 H1285 0.930 . S
C1295 C1288 1.409 . S
C1295 C1294 1.362 . S
H1296 C1302 0.930 . S
H1297 C1305 0.930 . S
H1298 C1306 0.930 . S
H1299 C1307 0.930 . S
H1300 C1310 0.930 1_554 S
H1301 C1311 0.930 . S
C1302 H1296 0.930 . S
C1302 C1303 1.355 . S
C1302 C1304 1.415 . S
C1303 C1302 1.355 . S
C1303 C1305 1.419 . S
C1304 C1302 1.415 . S
C1304 C1309 1.425 . S
C1304 C1311 1.409 . S
C1305 H1297 0.930 . S
C1305 C1303 1.419 . S
C1305 C1306 1.362 . S
C1306 H1298 0.930 . S
C1306 C1305 1.362 . S
C1306 C1309 1.409 . S
C1307 H1299 0.930 . S
C1307 C1308 1.355 . S
C1307 C1309 1.415 . S
C1308 C1307 1.355 . S
C1308 C1310 1.419 . S
C1309 C1304 1.425 . S
C1309 C1306 1.409 . S
C1309 C1307 1.415 . S
C1310 H1300 0.930 1_556 S
C1310 C1308 1.419 . S
C1310 C1311 1.362 . S
C1311 H1301 0.930 . S
C1311 C1304 1.409 . S
C1311 C1310 1.362 . S
H1312 C1318 0.930 . S
H1313 C1321 0.930 . S
H1314 C1322 0.930 . S
H1315 C1323 0.930 . S
H1316 C1326 0.930 . S
H1317 C1327 0.930 . S
C1318 H1312 0.930 . S
C1318 C1319 1.355 . S
C1318 C1320 1.415 . S
C1319 C1318 1.355 . S
C1319 C1321 1.419 . S
C1320 C1318 1.415 . S
C1320 C1325 1.425 . S
C1320 C1327 1.409 . S
C1321 H1313 0.930 . S
C1321 C1319 1.419 . S
C1321 C1322 1.362 . S
C1322 H1314 0.930 . S
C1322 C1321 1.362 . S
C1322 C1325 1.409 . S
C1323 H1315 0.930 . S
C1323 C1324 1.355 . S
C1323 C1325 1.415 . S
C1324 C1323 1.355 . S
C1324 C1326 1.419 . S
C1325 C1320 1.425 . S
C1325 C1322 1.409 . S
C1325 C1323 1.415 . S
C1326 H1316 0.930 . S
C1326 C1324 1.419 . S
C1326 C1327 1.362 . S
C1327 H1317 0.930 . S
C1327 C1320 1.409 . S
C1327 C1326 1.362 . S
H1328 C1334 0.930 . S
H1329 C1337 0.930 1_554 S
H1330 C1338 0.930 . S
H1331 C1339 0.930 . S
H1332 C1342 0.930 . S
H1333 C1343 0.930 . S
C1334 H1328 0.930 . S
C1334 C1335 1.355 . S
C1334 C1336 1.415 . S
C1335 C1334 1.355 . S
C1335 C1337 1.419 . S
C1336 C1334 1.415 . S
C1336 C1341 1.425 . S
C1336 C1343 1.409 . S
C1337 H1329 0.930 1_556 S
C1337 C1335 1.419 . S
C1337 C1338 1.362 . S
C1338 H1330 0.930 . S
C1338 C1337 1.362 . S
C1338 C1341 1.409 . S
C1339 H1331 0.930 . S
C1339 C1340 1.355 . S
C1339 C1341 1.415 . S
C1340 C1339 1.355 . S
C1340 C1342 1.419 . S
C1341 C1336 1.425 . S
C1341 C1338 1.409 . S
C1341 C1339 1.415 . S
C1342 H1332 0.930 . S
C1342 C1340 1.419 . S
C1342 C1343 1.362 . S
C1343 H1333 0.930 . S
C1343 C1336 1.409 . S
C1343 C1342 1.362 . S
H1344 C1350 0.930 . S
H1345 C1353 0.930 . S
H1346 C1354 0.930 . S
H1347 C1355 0.930 . S
H1348 C1358 0.930 1_556 S
H1349 C1359 0.930 . S
C1350 H1344 0.930 . S
C1350 C1351 1.355 . S
C1350 C1352 1.415 . S
C1351 C1350 1.355 . S
C1351 C1353 1.419 . S
C1352 C1350 1.415 . S
C1352 C1357 1.425 . S
C1352 C1359 1.409 . S
C1353 H1345 0.930 . S
C1353 C1351 1.419 . S
C1353 C1354 1.362 . S
C1354 H1346 0.930 . S
C1354 C1353 1.362 . S
C1354 C1357 1.409 . S
C1355 H1347 0.930 . S
C1355 C1356 1.355 . S
C1355 C1357 1.415 . S
C1356 C1355 1.355 . S
C1356 C1358 1.419 . S
C1357 C1352 1.425 . S
C1357 C1354 1.409 . S
C1357 C1355 1.415 . S
C1358 H1348 0.930 1_554 S
C1358 C1356 1.419 . S
C1358 C1359 1.362 . S
C1359 H1349 0.930 . S
C1359 C1352 1.409 . S
C1359 C1358 1.362 . S
H1360 C1366 0.930 . S
H1361 C1369 0.930 1_554 S
H1362 C1370 0.930 . S
H1363 C1371 0.930 . S
H1364 C1374 0.930 . S
H1365 C1375 0.930 . S
C1366 H1360 0.930 . S
C1366 C1367 1.355 . S
C1366 C1368 1.415 . S
C1367 C1366 1.355 . S
C1367 C1369 1.419 . S
C1368 C1366 1.415 . S
C1368 C1373 1.425 . S
C1368 C1375 1.409 . S
C1369 H1361 0.930 1_556 S
C1369 C1367 1.419 . S
C1369 C1370 1.362 . S
C1370 H1362 0.930 . S
C1370 C1369 1.362 . S
C1370 C1373 1.409 . S
C1371 H1363 0.930 . S
C1371 C1372 1.355 . S
C1371 C1373 1.415 . S
C1372 C1371 1.355 . S
C1372 C1374 1.419 . S
C1373 C1368 1.425 . S
C1373 C1370 1.409 . S
C1373 C1371 1.415 . S
C1374 H1364 0.930 . S
C1374 C1372 1.419 . S
C1374 C1375 1.362 . S
C1375 H1365 0.930 . S
C1375 C1368 1.409 . S
C1375 C1374 1.362 . S
H1376 C1382 0.930 . S
H1377 C1385 0.930 . S
H1378 C1386 0.930 . S
H1379 C1387 0.930 . S
H1380 C1390 0.930 . S
H1381 C1391 0.930 . S
C1382 H1376 0.930 . S
C1382 C1383 1.355 . S
C1382 C1384 1.415 . S
C1383 C1382 1.355 . S
C1383 C1385 1.419 . S
C1384 C1382 1.415 . S
C1384 C1389 1.425 . S
C1384 C1391 1.409 . S
C1385 H1377 0.930 . S
C1385 C1383 1.419 . S
C1385 C1386 1.362 . S
C1386 H1378 0.930 . S
C1386 C1385 1.362 . S
C1386 C1389 1.409 . S
C1387 H1379 0.930 . S
C1387 C1388 1.355 . S
C1387 C1389 1.415 . S
C1388 C1387 1.355 . S
C1388 C1390 1.419 . S
C1389 C1384 1.425 . S
C1389 C1386 1.409 . S
C1389 C1387 1.415 . S
C1390 H1380 0.930 . S
C1390 C1388 1.419 . S
C1390 C1391 1.362 . S
C1391 H1381 0.930 . S
C1391 C1384 1.409 . S
C1391 C1390 1.362 . S
H1392 C1398 0.930 . S
H1393 C1401 0.930 . S
H1394 C1402 0.930 . S
H1395 C1403 0.930 . S
H1396 C1406 0.930 . S
H1397 C1407 0.930 . S
C1398 H1392 0.930 . S
C1398 C1399 1.355 . S
C1398 C1400 1.415 . S
C1399 C1398 1.355 . S
C1399 C1401 1.419 . S
C1400 C1398 1.415 . S
C1400 C1405 1.425 . S
C1400 C1407 1.409 . S
C1401 H1393 0.930 . S
C1401 C1399 1.419 . S
C1401 C1402 1.362 . S
C1402 H1394 0.930 . S
C1402 C1401 1.362 . S
C1402 C1405 1.409 . S
C1403 H1395 0.930 . S
C1403 C1404 1.355 . S
C1403 C1405 1.415 . S
C1404 C1403 1.355 . S
C1404 C1406 1.419 . S
C1405 C1400 1.425 . S
C1405 C1402 1.409 . S
C1405 C1403 1.415 . S
C1406 H1396 0.930 . S
C1406 C1404 1.419 . S
C1406 C1407 1.362 . S
C1407 H1397 0.930 . S
C1407 C1400 1.409 . S
C1407 C1406 1.362 . S
C647 C460 1.699 . S
C652 C2 1.701 . S
C663 C351 1.722 . S
C668 C63 1.719 . S
C679 C82 1.728 . S
C684 C380 1.729 . S
C695 C143 1.715 . S
C700 C431 1.718 . S
C711 C162 1.711 . S
C716 C220 1.714 . S
C727 C271 1.727 . S
C732 C223 1.725 . S
C743 C242 1.703 . S
C748 C300 1.700 . S
C759 C191 1.709 . S
C764 C303 1.712 . S
C775 C140 1.707 . S
C780 C322 1.711 . S
C791 C383 1.719 . S
C796 C31 1.715 . S
C807 C60 1.700 . S
C812 C402 1.698 . S
C823 C111 1.697 . S
C828 C463 1.699 . S
C839 C482 1.703 . S
C844 C540 1.701 . S
C855 C591 1.695 . S
C860 C543 1.695 . S
C871 C620 1.697 . S
C876 C562 1.696 . S
C887 C623 1.716 . S
C892 C511 1.713 . S
C903 C23 1.253 . S
C908 C183 1.257 . S
C919 C202 1.147 . S
C924 C42 1.152 . S
C935 C103 1.249 . S
C940 C263 1.254 . S
C951 C122 1.254 . S
C956 C282 1.249 . S
C967 C343 1.185 . S
C972 C503 1.195 . S
C983 C522 1.140 . S
C988 C362 1.141 . S
C999 C423 1.240 . S
C1004 C583 1.246 . S
C1015 C442 1.240 . S
C1020 C602 1.232 . S
C1031 C580 2.459 . S
C1036 C20 2.460 1_556 S
C1047 C71 2.419 1_554 S
C1052 C631 2.417 . S
C1063 C100 2.464 1_556 S
C1068 C500 2.463 . S
C1079 C151 2.415 1_554 S
C1084 C551 2.414 . S
C1095 C180 2.464 . S
C1100 C420 2.463 . S
C1111 C231 2.464 . S
C1116 C471 2.463 . S
C1127 C260 2.417 . S
C1132 C340 2.419 . S
C1143 C391 2.437 . S
C1148 C311 2.434 . S
C1159 C25 1.140 . S
C1164 C4 1.140 . S
C1175 C44 1.141 . S
C1180 C65 1.141 . S
C1191 C105 1.140 . S
C1196 C84 1.140 . S
C1207 C145 1.136 . S
C1212 C124 1.136 . S
C1223 C164 1.130 . S
C1228 C185 1.130 . S
C1239 C204 1.134 . S
C1244 C225 1.134 . S
C1255 C265 1.053 . S
C1260 C244 1.053 . S
C1271 C305 1.082 . S
C1276 C284 1.082 . S
C1287 C345 1.053 1_554 S
C1292 C324 1.053 . S
C1303 C385 1.059 . S
C1308 C364 1.059 1_556 S
C1319 C404 1.134 . S
C1324 C425 1.134 1_554 S
C1335 C444 1.050 1_556 S
C1340 C465 1.050 . S
C1351 C505 1.052 . S
C1356 C484 1.052 1_554 S
C1367 C545 1.053 1_556 S
C1372 C524 1.053 . S
C1383 C564 1.121 1_554 S
C1388 C585 1.121 . S
C1399 C604 1.134 . S
C1404 C625 1.134 1_556 S
