# Generated by pormake.
# Topology zfa, (5)-cn, num edge types: 1
# Building blocks:
#     Node 0, Type 0, BuildingBlock: XOMCOT_clean_sbu_1, # of connection points: 5
#     Node 1, Type 0, BuildingBlock: XOMCOT_clean_sbu_1, # of connection points: 5
#     Node 2, Type 0, BuildingBlock: XOMCOT_clean_sbu_1, # of connection points: 5
#     Node 3, Type 0, BuildingBlock: XOMCOT_clean_sbu_1, # of connection points: 5
#     Node 4, Type 0, BuildingBlock: XOMCOT_clean_sbu_1, # of connection points: 5
#     Node 5, Type 0, BuildingBlock: XOMCOT_clean_sbu_1, # of connection points: 5
#     Node 6, Type 0, BuildingBlock: XOMCOT_clean_sbu_1, # of connection points: 5
#     Node 7, Type 0, BuildingBlock: XOMCOT_clean_sbu_1, # of connection points: 5
#     Edge 8, Type (0, 0), BuildingBlock: XIVTED_clean_linker_0, # of connection points: 2
#     Edge 9, Type (0, 0), BuildingBlock: XIVTED_clean_linker_0, # of connection points: 2
#     Edge 10, Type (0, 0), BuildingBlock: XIVTED_clean_linker_0, # of connection points: 2
#     Edge 11, Type (0, 0), BuildingBlock: XIVTED_clean_linker_0, # of connection points: 2
#     Edge 12, Type (0, 0), BuildingBlock: XIVTED_clean_linker_0, # of connection points: 2
#     Edge 13, Type (0, 0), BuildingBlock: XIVTED_clean_linker_0, # of connection points: 2
#     Edge 14, Type (0, 0), BuildingBlock: XIVTED_clean_linker_0, # of connection points: 2
#     Edge 15, Type (0, 0), BuildingBlock: XIVTED_clean_linker_0, # of connection points: 2
#     Edge 16, Type (0, 0), BuildingBlock: XIVTED_clean_linker_0, # of connection points: 2
#     Edge 17, Type (0, 0), BuildingBlock: XIVTED_clean_linker_0, # of connection points: 2
#     Edge 18, Type (0, 0), BuildingBlock: XIVTED_clean_linker_0, # of connection points: 2
#     Edge 19, Type (0, 0), BuildingBlock: XIVTED_clean_linker_0, # of connection points: 2
#     Edge 20, Type (0, 0), BuildingBlock: XIVTED_clean_linker_0, # of connection points: 2
#     Edge 21, Type (0, 0), BuildingBlock: XIVTED_clean_linker_0, # of connection points: 2
#     Edge 22, Type (0, 0), BuildingBlock: XIVTED_clean_linker_0, # of connection points: 2
#     Edge 23, Type (0, 0), BuildingBlock: XIVTED_clean_linker_0, # of connection points: 2
#     Edge 24, Type (0, 0), BuildingBlock: XIVTED_clean_linker_0, # of connection points: 2
#     Edge 25, Type (0, 0), BuildingBlock: XIVTED_clean_linker_0, # of connection points: 2
#     Edge 26, Type (0, 0), BuildingBlock: XIVTED_clean_linker_0, # of connection points: 2
#     Edge 27, Type (0, 0), BuildingBlock: XIVTED_clean_linker_0, # of connection points: 2
# Relax obj value: 0.195
# Max RMSD: 0.172
# Mean RMSD: 0.172
data_MOF--net-zfa--node1-XOMCOT_clean_sbu_1--edge1-XIVTED_clean_linker_0
_symmetry_space_group_name_H-M    P1
_symmetry_Int_Tables_number       1
_symmetry_cell_setting            triclinic
loop_
_symmetry_equiv_pos_as_xyz
'x, y, z'
_cell_length_a     31.639172
_cell_length_b     31.711383
_cell_length_c     40.847284
_cell_angle_alpha  90.110859
_cell_angle_beta   90.079463
_cell_angle_gamma 90.101199
loop_
_atom_site_label
_atom_site_type_symbol
_atom_site_fract_x
_atom_site_fract_y
_atom_site_fract_z
_atom_type_partial_charge
C0 C 0.12345 0.18148 0.3229 0.0
C1 C 0.11031 0.14117 0.31563 0.0
N2 N 0.08603 0.1272 0.34046 0.0
N3 N 0.10777 0.19281 0.35229 0.0
C4 C 0.08546 0.15899 0.36251 0.0
H5 H 0.14134 0.20199 0.30695 0.0
Co6 Co 0.10774 0.24669 0.3706 0.0
C7 C 0.10316 0.2282 0.44114 0.0
O8 O 0.0701 0.25306 0.44328 0.0
N9 N 0.10727 0.30086 0.38863 0.0
C10 C 0.12386 0.35938 0.41582 0.0
C11 C 0.13605 0.31868 0.4088 0.0
C12 C 0.07803 0.33117 0.38371 0.0
N13 N 0.08722 0.36704 0.40009 0.0
O14 O 0.04785 0.24161 0.37764 0.0
H15 H 0.16406 0.30303 0.41787 0.0
H16 H 0.05075 0.32731 0.36801 0.0
O17 O 0.12088 0.2226 0.4134 0.0
C18 C 0.02846 0.24553 0.35044 0.0
O19 O 0.05042 0.25344 0.32388 0.0
N20 N 0.16503 0.25247 0.36045 0.0
C21 C 0.24414 0.25504 0.33042 0.0
C22 C 0.2364 0.22774 0.35687 0.0
C23 C 0.19645 0.22674 0.3715 0.0
C24 C 0.17246 0.28055 0.33592 0.0
C25 C 0.21182 0.28251 0.32064 0.0
H26 H 0.19019 0.20361 0.39026 0.0
H27 H 0.14684 0.29988 0.3269 0.0
H28 H 0.06644 0.15903 0.38451 0.0
H29 H 0.11683 0.12417 0.29321 0.0
H30 H 0.1403 0.38136 0.43166 0.0
H31 H 0.26055 0.20628 0.36549 0.0
H32 H 0.21598 0.30364 0.30011 0.0
C33 C 0.32685 0.64342 0.82553 0.0
C34 C 0.36813 0.63275 0.81885 0.0
N35 N 0.3821 0.60718 0.84288 0.0
N36 N 0.315 0.6247 0.85366 0.0
C37 C 0.3493 0.60307 0.86369 0.0
H38 H 0.3063 0.66217 0.81021 0.0
Co39 Co 0.26141 0.62199 0.87216 0.0
C40 C 0.28313 0.60672 0.94151 0.0
O41 O 0.25857 0.57327 0.94188 0.0
N42 N 0.20756 0.61908 0.8909 0.0
C43 C 0.1506 0.63 0.92162 0.0
C44 C 0.19141 0.64288 0.9153 0.0
C45 C 0.17601 0.59249 0.88258 0.0
N46 N 0.14113 0.59807 0.90106 0.0
O47 O 0.26565 0.56137 0.87237 0.0
H48 H 0.20838 0.66774 0.92788 0.0
H49 H 0.17832 0.56958 0.86309 0.0
O50 O 0.28683 0.62813 0.91528 0.0
C51 C 0.25673 0.55089 0.84292 0.0
O52 O 0.24595 0.58102 0.82247 0.0
N53 N 0.2559 0.6799 0.8677 0.0
C54 C 0.25219 0.76175 0.84342 0.0
C55 C 0.28027 0.75139 0.86894 0.0
C56 C 0.28184 0.70998 0.88069 0.0
C57 C 0.22715 0.6898 0.84415 0.0
C58 C 0.22463 0.7305 0.83173 0.0
H59 H 0.30551 0.70164 0.89862 0.0
H60 H 0.20781 0.66517 0.83348 0.0
H61 H 0.34922 0.58245 0.88478 0.0
H62 H 0.38599 0.64207 0.79747 0.0
H63 H 0.12996 0.64248 0.94037 0.0
H64 H 0.3019 0.77463 0.87888 0.0
H65 H 0.20307 0.73657 0.81169 0.0
C66 C 0.87074 0.81196 0.32423 0.0
C67 C 0.88188 0.85269 0.31626 0.0
N68 N 0.90778 0.86771 0.33982 0.0
N69 N 0.88943 0.80151 0.35275 0.0
C70 C 0.91155 0.83608 0.36168 0.0
H71 H 0.85166 0.79078 0.30957 0.0
Co72 Co 0.89187 0.74891 0.37285 0.0
C73 C 0.9069 0.77386 0.44172 0.0
O74 O 0.94001 0.74899 0.44338 0.0
N75 N 0.8948 0.69594 0.39315 0.0
C76 C 0.88217 0.63972 0.4242 0.0
C77 C 0.86953 0.68019 0.4168 0.0
C78 C 0.9224 0.66458 0.38663 0.0
N79 N 0.91562 0.63017 0.40525 0.0
O80 O 0.95219 0.75322 0.37306 0.0
H81 H 0.84355 0.69707 0.42791 0.0
H82 H 0.94673 0.66643 0.36817 0.0
O83 O 0.88597 0.77631 0.41512 0.0
C84 C 0.96239 0.74277 0.34392 0.0
O85 O 0.93218 0.73016 0.32401 0.0
N86 N 0.83373 0.7435 0.36868 0.0
C87 C 0.75118 0.73986 0.34538 0.0
C88 C 0.76308 0.77034 0.36871 0.0
C89 C 0.80477 0.77174 0.38004 0.0
C90 C 0.82235 0.71265 0.34717 0.0
C91 C 0.78114 0.70998 0.33543 0.0
H92 H 0.81434 0.79719 0.39604 0.0
H93 H 0.84604 0.69129 0.33777 0.0
H94 H 0.93225 0.83694 0.38278 0.0
H95 H 0.87254 0.86942 0.29435 0.0
H96 H 0.86829 0.6192 0.44242 0.0
H97 H 0.74116 0.79443 0.37668 0.0
H98 H 0.77323 0.68556 0.31788 0.0
C99 C 0.68573 0.37904 0.82616 0.0
C100 C 0.64562 0.39361 0.8203 0.0
N101 N 0.63624 0.4227 0.84322 0.0
N102 N 0.70158 0.39845 0.85293 0.0
C103 C 0.67054 0.42472 0.8629 0.0
H104 H 0.70293 0.35739 0.81071 0.0
Co105 Co 0.75771 0.39692 0.86705 0.0
C106 C 0.75305 0.37456 0.93779 0.0
O107 O 0.78595 0.35004 0.9341 0.0
N108 N 0.81612 0.39615 0.88044 0.0
C109 C 0.88242 0.37561 0.89039 0.0
C110 C 0.84195 0.36243 0.88439 0.0
C111 C 0.84257 0.42961 0.88427 0.0
N112 N 0.88298 0.41794 0.88998 0.0
O113 O 0.75786 0.45712 0.86751 0.0
H114 H 0.83251 0.32972 0.88325 0.0
H115 H 0.83306 0.4621 0.88156 0.0
O116 O 0.73794 0.39444 0.91316 0.0
C117 C 0.7668 0.46699 0.83803 0.0
O118 O 0.77545 0.43636 0.81738 0.0
N119 N 0.7574 0.33873 0.86159 0.0
C120 C 0.75378 0.25728 0.83639 0.0
C121 C 0.73129 0.26791 0.86493 0.0
C122 C 0.73302 0.30931 0.87698 0.0
C123 C 0.77912 0.3288 0.83385 0.0
C124 C 0.77835 0.28825 0.82118 0.0
H125 H 0.71329 0.31806 0.89744 0.0
H126 H 0.79666 0.35304 0.82115 0.0
H127 H 0.67434 0.44719 0.88267 0.0
H128 H 0.62561 0.38469 0.79991 0.0
H129 H 0.90944 0.35538 0.89443 0.0
H130 H 0.71122 0.24501 0.87696 0.0
H131 H 0.79652 0.28142 0.79936 0.0
C132 C 0.6076 0.30767 0.26775 0.0
C133 C 0.59325 0.34655 0.27781 0.0
N134 N 0.57573 0.36621 0.25187 0.0
N135 N 0.59968 0.30306 0.23552 0.0
C136 C 0.58029 0.33912 0.22655 0.0
H137 H 0.62134 0.2836 0.28316 0.0
Co138 Co 0.60432 0.25387 0.21082 0.0
C139 C 0.65424 0.28595 0.15452 0.0
O140 O 0.68229 0.25651 0.16073 0.0
N141 N 0.60596 0.20302 0.18598 0.0
C142 C 0.59667 0.15725 0.14508 0.0
C143 C 0.60857 0.1975 0.15319 0.0
C144 C 0.59129 0.16534 0.19692 0.0
N145 N 0.5849 0.13708 0.17253 0.0
O146 O 0.54529 0.25822 0.20109 0.0
H147 H 0.61401 0.22173 0.13529 0.0
H148 H 0.58182 0.15996 0.22197 0.0
O149 O 0.62023 0.28804 0.17157 0.0
C150 C 0.52632 0.24067 0.22502 0.0
O151 O 0.54916 0.22391 0.24851 0.0
N152 N 0.66165 0.24836 0.22448 0.0
C153 C 0.73942 0.2425 0.25713 0.0
C154 C 0.72709 0.28017 0.24199 0.0
C155 C 0.68804 0.2826 0.22614 0.0
C156 C 0.67325 0.21145 0.23907 0.0
C157 C 0.71217 0.20766 0.25508 0.0
H158 H 0.67836 0.31258 0.21607 0.0
H159 H 0.65155 0.18526 0.23995 0.0
H160 H 0.56714 0.34403 0.20239 0.0
H161 H 0.59454 0.35872 0.30255 0.0
H162 H 0.59399 0.14502 0.12042 0.0
H163 H 0.74713 0.30787 0.24282 0.0
H164 H 0.71991 0.17824 0.26709 0.0
C165 C 0.19376 0.13475 0.76239 0.0
C166 C 0.15359 0.12109 0.7699 0.0
N167 N 0.13988 0.09581 0.74548 0.0
N168 N 0.20525 0.1184 0.73327 0.0
C169 C 0.17172 0.09509 0.72349 0.0
H170 H 0.21406 0.15364 0.77792 0.0
Co171 Co 0.25895 0.11875 0.71451 0.0
C172 C 0.23894 0.10884 0.64436 0.0
O173 O 0.265 0.0767 0.64279 0.0
N174 N 0.31343 0.1183 0.69575 0.0
C175 C 0.37115 0.13335 0.66678 0.0
C176 C 0.33054 0.1459 0.67435 0.0
C177 C 0.34426 0.08953 0.70081 0.0
N178 N 0.37946 0.09763 0.68334 0.0
O179 O 0.25543 0.05879 0.71056 0.0
H180 H 0.31438 0.17319 0.66465 0.0
H181 H 0.34146 0.0631 0.71724 0.0
O182 O 0.23357 0.1279 0.67158 0.0
C183 C 0.2663 0.04435 0.73842 0.0
O184 O 0.27864 0.07097 0.76123 0.0
N185 N 0.26324 0.17665 0.72206 0.0
C186 C 0.26626 0.25831 0.74754 0.0
C187 C 0.2369 0.24746 0.723 0.0
C188 C 0.23576 0.20628 0.71063 0.0
C189 C 0.29263 0.1868 0.74517 0.0
C190 C 0.2949 0.22748 0.75809 0.0
H191 H 0.21137 0.19772 0.6933 0.0
H192 H 0.31341 0.16262 0.75458 0.0
H193 H 0.17199 0.07549 0.70177 0.0
H194 H 0.13647 0.12811 0.79216 0.0
H195 H 0.39248 0.14872 0.64986 0.0
H196 H 0.2137 0.26999 0.71448 0.0
H197 H 0.31844 0.23443 0.7766 0.0
C198 C 0.37025 0.68764 0.26412 0.0
C199 C 0.38138 0.64685 0.27176 0.0
N200 N 0.40815 0.63258 0.24858 0.0
N201 N 0.38971 0.69893 0.23614 0.0
C202 C 0.41239 0.66478 0.22724 0.0
H203 H 0.35047 0.70823 0.27862 0.0
Co204 Co 0.3919 0.75206 0.21674 0.0
C205 C 0.40796 0.72928 0.14766 0.0
O206 O 0.44115 0.75423 0.14713 0.0
N207 N 0.3946 0.80557 0.19717 0.0
C208 C 0.38294 0.86074 0.16494 0.0
C209 C 0.37018 0.82046 0.1727 0.0
C210 C 0.42153 0.83752 0.20413 0.0
N211 N 0.4154 0.87142 0.18473 0.0
O212 O 0.45215 0.74847 0.21689 0.0
H213 H 0.3449 0.80297 0.16104 0.0
H214 H 0.44592 0.83575 0.22257 0.0
O215 O 0.38654 0.72563 0.17393 0.0
C216 C 0.46192 0.75895 0.24612 0.0
O217 O 0.43135 0.77092 0.26585 0.0
N218 N 0.33366 0.75682 0.22058 0.0
C219 C 0.2508 0.75979 0.24309 0.0
C220 C 0.26296 0.72985 0.21946 0.0
C221 C 0.30481 0.72878 0.20853 0.0
C222 C 0.32204 0.78712 0.24241 0.0
C223 C 0.28069 0.78943 0.25378 0.0
H224 H 0.31457 0.70378 0.19223 0.0
H225 H 0.34563 0.80834 0.25232 0.0
H226 H 0.43359 0.66459 0.20648 0.0
H227 H 0.37124 0.6295 0.29315 0.0
H228 H 0.36923 0.88056 0.14621 0.0
H229 H 0.24104 0.70599 0.21089 0.0
H230 H 0.2726 0.81345 0.27157 0.0
C231 C 0.82763 0.87531 0.758 0.0
C232 C 0.8685 0.88732 0.76518 0.0
N233 N 0.88186 0.91408 0.74172 0.0
N234 N 0.81536 0.8943 0.73008 0.0
C235 C 0.8491 0.91742 0.72066 0.0
H236 H 0.80753 0.8556 0.77296 0.0
Co237 Co 0.76118 0.89659 0.71179 0.0
C238 C 0.78154 0.91031 0.64174 0.0
O239 O 0.75563 0.94258 0.64007 0.0
N240 N 0.70671 0.89964 0.6932 0.0
C241 C 0.64888 0.8877 0.66343 0.0
C242 C 0.68911 0.87379 0.67066 0.0
C243 C 0.67661 0.92889 0.69923 0.0
N244 N 0.64128 0.92258 0.68133 0.0
O245 O 0.76512 0.95668 0.71175 0.0
H246 H 0.7047 0.84679 0.65991 0.0
H247 H 0.68017 0.95435 0.71661 0.0
O248 O 0.7861 0.89072 0.66871 0.0
C249 C 0.75684 0.96593 0.7415 0.0
O250 O 0.74648 0.93512 0.76148 0.0
N251 N 0.75614 0.83846 0.71595 0.0
C252 C 0.75339 0.75579 0.73864 0.0
C253 C 0.78268 0.76781 0.71449 0.0
C254 C 0.78366 0.80954 0.7035 0.0
C255 C 0.72648 0.82702 0.73837 0.0
C256 C 0.72427 0.78578 0.74983 0.0
H257 H 0.80823 0.81912 0.68675 0.0
H258 H 0.70569 0.85065 0.7486 0.0
H259 H 0.84849 0.93862 0.69994 0.0
H260 H 0.88641 0.87808 0.78657 0.0
H261 H 0.62732 0.8738 0.64586 0.0
H262 H 0.80616 0.74586 0.70551 0.0
H263 H 0.70074 0.77782 0.76804 0.0
H264 H 0.88699 0.55078 0.41649 0.0
H265 H 0.11661 0.44701 0.40599 0.0
H266 H 0.99942 0.6218 0.39363 0.0
H267 H 1.00194 0.37437 0.39618 0.0
H268 H 0.07441 0.51164 0.40771 0.0
H269 H 0.92889 0.48572 0.4154 0.0
C270 C 0.92051 0.55266 0.41141 0.0
C271 C 0.93976 0.59168 0.40504 0.0
C272 C 0.05849 0.48155 0.40512 0.0
C273 C 0.98782 0.51764 0.40385 0.0
C274 C 0.08254 0.44469 0.40434 0.0
C275 C 0.06274 0.40531 0.4009 0.0
C276 C 0.01424 0.47902 0.40293 0.0
C277 C 0.01847 0.40413 0.3985 0.0
C278 C 0.94433 0.51557 0.41057 0.0
C279 C 0.98325 0.59234 0.39828 0.0
N280 N 0.99567 0.44043 0.39975 0.0
N281 N 0.00585 0.55593 0.39802 0.0
H282 H 0.96323 0.39692 0.87374 0.0
H283 H 0.06186 0.62222 0.91903 0.0
H284 H 0.88749 0.49997 0.90997 0.0
H285 H 0.13286 0.51707 0.88077 0.0
H286 H 0.99756 0.57893 0.91682 0.0
H287 H 0.02553 0.44136 0.87705 0.0
C288 C 0.95967 0.42883 0.88272 0.0
C289 C 0.91995 0.44452 0.89188 0.0
C290 C 0.02726 0.56547 0.90886 0.0
C291 C 0.99166 0.49623 0.89527 0.0
C292 C 0.06398 0.59008 0.91026 0.0
C293 C 0.10285 0.57338 0.8999 0.0
C294 C 0.02953 0.52383 0.89718 0.0
C295 C 0.10363 0.53163 0.88846 0.0
C296 C 0.99537 0.45441 0.88437 0.0
C297 C 0.9174 0.48662 0.9025 0.0
N298 N 0.06763 0.5084 0.88746 0.0
N299 N 0.95283 0.51104 0.90399 0.0
H300 H 0.46154 0.90611 0.23447 0.0
H301 H 0.53952 0.09916 0.124 0.0
H302 H 0.42579 0.92504 0.13356 0.0
H303 H 0.57633 0.08486 0.2252 0.0
H304 H 0.49909 0.03446 0.12754 0.0
H305 H 0.50434 0.9704 0.2321 0.0
C306 C 0.46272 0.9236 0.21178 0.0
C307 C 0.43989 0.90993 0.18414 0.0
C308 C 0.51608 0.04526 0.14902 0.0
C309 C 0.48873 0.98383 0.18137 0.0
C310 C 0.53969 0.08225 0.14695 0.0
C311 C 0.56192 0.09766 0.17431 0.0
C312 C 0.51433 0.02309 0.17867 0.0
C313 C 0.5596 0.07443 0.20354 0.0
C314 C 0.48706 0.96046 0.21051 0.0
C315 C 0.44227 0.93442 0.15561 0.0
N316 N 0.53624 0.0383 0.20496 0.0
N317 N 0.46624 0.96999 0.15498 0.0
H318 H 0.63671 0.00723 0.69053 0.0
H319 H 0.38455 0.01265 0.68877 0.0
H320 H 0.56032 0.89723 0.67119 0.0
H321 H 0.46044 0.12425 0.67497 0.0
H322 H 0.44873 0.96981 0.68772 0.0
H323 H 0.5727 0.05061 0.69027 0.0
C324 C 0.60643 0.99218 0.68638 0.0
C325 C 0.60382 0.94849 0.68095 0.0
C326 C 0.45138 1.00366 0.68483 0.0
C327 C 0.53045 0.99796 0.68062 0.0
C328 C 0.41478 0.02817 0.68566 0.0
C329 C 0.41717 0.07214 0.68206 0.0
C330 C 0.49087 0.02321 0.68084 0.0
C331 C 0.45718 0.09046 0.67761 0.0
C332 C 0.56996 0.017 0.68599 0.0
C333 C 0.56379 0.93078 0.67523 0.0
N334 N 0.4925 0.06596 0.67737 0.0
N335 N 0.52867 0.9555 0.67544 0.0
H336 H 0.47251 0.30797 0.21852 0.0
H337 H 0.28877 0.18437 0.31368 0.0
H338 H 0.47681 0.17633 0.24418 0.0
H339 H 0.29033 0.31976 0.30278 0.0
H340 H 0.35328 0.18009 0.28148 0.0
H341 H 0.40027 0.31178 0.24081 0.0
C342 C 0.45762 0.27962 0.22779 0.0
C343 C 0.48024 0.24172 0.22942 0.0
C344 C 0.33957 0.21079 0.28607 0.0
C345 C 0.39873 0.24593 0.25556 0.0
C346 C 0.30288 0.21331 0.30483 0.0
C347 C 0.28424 0.25254 0.31142 0.0
C348 C 0.35804 0.24775 0.27364 0.0
C349 C 0.30347 0.2888 0.29829 0.0
C350 C 0.41675 0.28189 0.24093 0.0
C351 C 0.46021 0.20609 0.24244 0.0
N352 N 0.33941 0.28556 0.28015 0.0
N353 N 0.42078 0.20912 0.25518 0.0
H354 H 0.33061 1.00203 0.76611 0.0
H355 H 0.18644 0.80874 0.81862 0.0
H356 H 0.20394 0.98551 0.72936 0.0
H357 H 0.32227 0.8093 0.82936 0.0
H358 H 0.19125 0.87413 0.78723 0.0
H359 H 0.32805 0.93133 0.78949 0.0
C360 C 0.30255 0.98293 0.76243 0.0
C361 C 0.26752 0.99916 0.74574 0.0
C362 C 0.21996 0.85982 0.79641 0.0
C363 C 0.26369 0.91895 0.77333 0.0
C364 C 0.21728 0.82254 0.81441 0.0
C365 C 0.25402 0.80341 0.82682 0.0
C366 C 0.2596 0.8784 0.791 0.0
C367 C 0.293 0.82318 0.82092 0.0
C368 C 0.301 0.94272 0.77588 0.0
C369 C 0.23174 0.97362 0.74176 0.0
N370 N 0.29472 0.85958 0.80353 0.0
N371 N 0.23043 0.93482 0.75597 0.0
H372 H 0.48813 0.78359 0.30627 0.0
H373 H 0.73091 0.72592 0.28086 0.0
H374 H 0.53474 0.73036 0.21588 0.0
H375 H 0.67483 0.75682 0.37418 0.0
H376 H 0.6611 0.73004 0.2554 0.0
H377 H 0.55811 0.77812 0.32971 0.0
C378 C 0.51318 0.77077 0.29121 0.0
C379 C 0.50547 0.75725 0.25901 0.0
C380 C 0.66411 0.73572 0.28145 0.0
C381 C 0.5863 0.75078 0.28607 0.0
C382 C 0.70389 0.7331 0.29611 0.0
C383 C 0.70878 0.7409 0.32983 0.0
C384 C 0.629 0.74652 0.30058 0.0
C385 C 0.67274 0.75104 0.34811 0.0
C386 C 0.55326 0.76756 0.30476 0.0
C387 C 0.53937 0.74114 0.24079 0.0
N388 N 0.63446 0.75361 0.33323 0.0
N389 N 0.57849 0.73829 0.25463 0.0
H390 H 0.74683 0.23644 0.77149 0.0
H391 H 0.75607 0.98899 0.80517 0.0
H392 H 0.75538 0.18099 0.8677 0.0
H393 H 0.75952 0.04142 0.70773 0.0
H394 H 0.7538 0.0595 0.82785 0.0
H395 H 0.74867 0.16596 0.74733 0.0
C396 C 0.74916 0.2094 0.78756 0.0
C397 C 0.75138 0.21459 0.82172 0.0
C398 C 0.75511 0.05583 0.80151 0.0
C399 C 0.75309 0.13391 0.79415 0.0
C400 C 0.75637 0.01546 0.78844 0.0
C401 C 0.75776 0.00932 0.75443 0.0
C402 C 0.75509 0.09068 0.78051 0.0
C403 C 0.7585 0.04485 0.73409 0.0
C404 C 0.7501 0.16922 0.77371 0.0
C405 C 0.75336 0.17847 0.84132 0.0
N406 N 0.75697 0.0842 0.74748 0.0
N407 N 0.75434 0.13968 0.82723 0.0
H408 H 0.99145 0.17941 0.32044 0.0
H409 H 0.77327 0.30156 0.29883 0.0
H410 H 0.96343 0.29604 0.36992 0.0
H411 H 0.79705 0.17784 0.25882 0.0
H412 H 0.84057 0.29812 0.32816 0.0
H413 H 0.91789 0.175 0.30213 0.0
C414 C 0.96926 0.20346 0.32818 0.0
C415 C 0.98298 0.23781 0.34699 0.0
C416 C 0.83096 0.27159 0.31315 0.0
C417 C 0.89937 0.23407 0.32512 0.0
C418 C 0.7927 0.27369 0.29613 0.0
C419 C 0.77965 0.24013 0.27597 0.0
C420 C 0.85666 0.23577 0.3099 0.0
C421 C 0.80572 0.20442 0.27409 0.0
C422 C 0.92742 0.20117 0.31754 0.0
C423 C 0.95361 0.26871 0.35588 0.0
N424 N 0.84308 0.20335 0.29057 0.0
N425 N 0.91319 0.26643 0.34449 0.0
H426 H 0.23813 0.52451 0.78155 0.0
H427 H 0.27862 0.2793 0.81237 0.0
H428 H 0.27829 0.47707 0.87559 0.0
H429 H 0.25319 0.33478 0.71795 0.0
H430 H 0.2772 0.34977 0.83698 0.0
H431 H 0.24108 0.45394 0.7594 0.0
C432 C 0.24759 0.49917 0.79771 0.0
C433 C 0.25806 0.50693 0.8306 0.0
C434 C 0.27204 0.34644 0.81089 0.0
C435 C 0.26157 0.42502 0.80494 0.0
C436 C 0.27308 0.30625 0.79672 0.0
C437 C 0.26606 0.30096 0.76291 0.0
C438 C 0.26376 0.38164 0.79116 0.0
C439 C 0.25823 0.33707 0.7441 0.0
C440 C 0.24933 0.45865 0.78489 0.0
C441 C 0.26997 0.47252 0.85011 0.0
N442 N 0.25727 0.3757 0.75847 0.0
N443 N 0.27141 0.43291 0.83696 0.0
H444 H 0.03528 0.76894 0.37567 0.0
H445 H 0.17484 0.74434 0.21296 0.0
H446 H 0.98871 0.7224 0.28293 0.0
H447 H 0.2295 0.77205 0.30753 0.0
H448 H 0.10536 0.74032 0.23849 0.0
H449 H 0.10641 0.77416 0.35155 0.0
C450 C 0.04001 0.75972 0.3504 0.0
C451 C 0.00605 0.74524 0.33133 0.0
C452 C 0.13254 0.74734 0.2537 0.0
C453 C 0.08662 0.75138 0.30365 0.0
C454 C 0.17226 0.74949 0.2391 0.0
C455 C 0.20808 0.75859 0.25806 0.0
C456 C 0.12846 0.75433 0.28757 0.0
C457 C 0.20266 0.7656 0.29183 0.0
C458 C 0.08047 0.76274 0.33664 0.0
C459 C 0.01383 0.73379 0.29866 0.0
N460 N 0.16361 0.76329 0.30553 0.0
N461 N 0.05313 0.73721 0.28592 0.0
H462 H 0.76777 0.68001 0.7082 0.0
H463 H 0.74378 0.54011 0.87048 0.0
H464 H 0.74252 0.73431 0.80319 0.0
H465 H 0.78835 0.49349 0.77733 0.0
H466 H 0.74013 0.61138 0.84683 0.0
H467 H 0.77197 0.61059 0.73351 0.0
C468 C 0.76322 0.67737 0.73439 0.0
C469 C 0.75473 0.7131 0.75352 0.0
C470 C 0.75083 0.58543 0.83172 0.0
C471 C 0.75918 0.6335 0.78278 0.0
C472 C 0.753 0.54488 0.84523 0.0
C473 C 0.76627 0.51082 0.82586 0.0
C474 C 0.76186 0.59162 0.7987 0.0
C475 C 0.77775 0.51867 0.79324 0.0
C476 C 0.76548 0.63768 0.74886 0.0
C477 C 0.74846 0.70758 0.78735 0.0
N478 N 0.77513 0.55807 0.78073 0.0
N479 N 0.75082 0.66854 0.80092 0.0
H480 H 0.08025 0.2421 0.50499 0.0
H481 H 0.25185 0.08375 0.58078 0.0
H482 H 0.16775 0.1705 0.4461 0.0
H483 H 0.17745 0.1696 0.63901 0.0
H484 H 0.21801 0.11131 0.53137 0.0
H485 H 0.11198 0.21207 0.55428 0.0
C486 C 0.10603 0.21993 0.50235 0.0
C487 C 0.12135 0.20894 0.47122 0.0
C488 C 0.20904 0.1241 0.55495 0.0
C489 C 0.15796 0.1743 0.52785 0.0
C490 C 0.22828 0.10828 0.58324 0.0
C491 C 0.21762 0.12439 0.61421 0.0
C492 C 0.17861 0.15616 0.55752 0.0
C493 C 0.18687 0.15628 0.61573 0.0
C494 C 0.12423 0.20286 0.53059 0.0
C495 C 0.15494 0.18006 0.46951 0.0
N496 N 0.16848 0.17104 0.58785 0.0
N497 N 0.17206 0.16377 0.49737 0.0
H498 H 0.43535 0.74201 0.08468 0.0
H499 H 0.27062 0.57899 1.00443 0.0
H500 H 0.34622 0.66891 0.14095 0.0
H501 H 0.3435 0.6684 0.94833 0.0
H502 H 0.3031 0.60638 0.05458 0.0
H503 H 0.40728 0.71015 1.03452 0.0
C504 C 0.41008 0.71906 0.08655 0.0
C505 C 0.39303 0.70833 0.11716 0.0
C506 C 0.31207 0.61993 1.03129 0.0
C507 C 0.36065 0.67167 0.05967 0.0
C508 C 0.29362 0.6042 1.00259 0.0
C509 C 0.30414 0.62151 0.97204 0.0
C510 C 0.34155 0.65306 1.02952 0.0
C511 C 0.33415 0.65424 0.9713 0.0
C512 C 0.39394 0.70099 0.05785 0.0
C513 C 0.3602 0.67842 0.11794 0.0
N514 N 0.35174 0.66892 0.99955 0.0
N515 N 0.3451 0.66121 0.08968 0.0
H516 H 0.76747 0.93238 0.57758 0.0
H517 H 0.93416 0.76586 0.50529 0.0
H518 H 0.84448 0.85124 0.63773 0.0
H519 H 0.84533 0.83451 0.4455 0.0
H520 H 0.90625 0.80163 0.55379 0.0
H521 H 0.80024 0.9018 0.52873 0.0
C522 C 0.79146 0.90836 0.58057 0.0
C523 C 0.80298 0.89421 0.61188 0.0
C524 C 0.89294 0.80896 0.53005 0.0
C525 C 0.84065 0.85895 0.55595 0.0
C526 C 0.90896 0.78861 0.50229 0.0
C527 C 0.89194 0.79693 0.47121 0.0
C528 C 0.85974 0.83809 0.52678 0.0
C529 C 0.85924 0.82676 0.46894 0.0
C530 C 0.81006 0.89078 0.55263 0.0
C531 C 0.83425 0.8629 0.61414 0.0
N532 N 0.84421 0.84616 0.4963 0.0
N533 N 0.85188 0.84632 0.58662 0.0
H534 H 0.72716 0.3258 0.14114 0.0
H535 H 0.66823 0.37544 0.95446 0.0
H536 H 0.60114 0.30799 0.10351 0.0
H537 H 0.79363 0.37603 0.99577 0.0
H538 H 0.63906 0.36454 1.00993 0.0
H539 H 0.74749 0.3593 0.08999 0.0
C540 C 0.70352 0.32976 0.12217 0.0
C541 C 0.66252 0.3141 0.12646 0.0
C542 C 0.67288 0.36785 1.00682 0.0
C543 C 0.6859 0.35123 0.06697 0.0
C544 C 0.68945 0.37436 0.97527 0.0
C545 C 0.73339 0.37637 0.97062 0.0
C546 C 0.70056 0.36388 1.03368 0.0
C547 C 0.75959 0.37429 0.99824 0.0
C548 C 0.71516 0.34869 0.09282 0.0
C549 C 0.63305 0.31996 0.10113 0.0
N550 N 0.74285 0.36797 1.02838 0.0
N551 N 0.64551 0.33744 0.07212 0.0
H552 H 0.93073 0.91459 0.28708 0.0
H553 H 0.05769 0.08503 0.39397 0.0
H554 H 0.93865 0.91028 0.3925 0.0
H555 H 0.05567 0.08314 0.28835 0.0
H556 H 0.01214 0.02256 0.39432 0.0
H557 H 0.97371 0.97848 0.28745 0.0
C558 C 0.94109 0.92727 0.31035 0.0
C559 C 0.93106 0.90687 0.33981 0.0
C560 C 0.02179 0.03578 0.37107 0.0
C561 C 0.98099 0.97992 0.34038 0.0
C562 C 0.0477 0.07151 0.37087 0.0
C563 C 0.06073 0.08933 0.3411 0.0
C564 C 0.00859 0.01783 0.34128 0.0
C565 C 0.04708 0.07021 0.31189 0.0
C566 C 0.96599 0.96363 0.31053 0.0
C567 C 0.94605 0.92458 0.36918 0.0
N568 N 0.02172 0.03562 0.31273 0.0
N569 N 0.97029 0.96003 0.36873 0.0
H570 H 0.42335 0.57859 0.89677 0.0
H571 H 0.59087 0.44894 0.79079 0.0
H572 H 0.42998 0.58219 0.79132 0.0
H573 H 0.59957 0.46029 0.89585 0.0
H574 H 0.53029 0.49606 0.79114 0.0
H575 H 0.48672 0.53436 0.89761 0.0
C576 C 0.4382 0.57019 0.87381 0.0
C577 C 0.42123 0.58404 0.84392 0.0
C578 C 0.54538 0.48834 0.81417 0.0
C579 C 0.49365 0.53346 0.84469 0.0
C580 C 0.57979 0.46104 0.81402 0.0
C581 C 0.60013 0.45032 0.8434 0.0
C582 C 0.53082 0.50501 0.84394 0.0
C583 C 0.58489 0.46788 0.87266 0.0
C584 C 0.47444 0.5451 0.87432 0.0
C585 C 0.44209 0.57266 0.81494 0.0
N586 N 0.55098 0.49423 0.87223 0.0
N587 N 0.47698 0.54783 0.81605 0.0
H588 H 0.44264 0.59261 0.19604 0.0
H589 H 0.53782 0.40459 0.30378 0.0
H590 H 0.4267 0.5824 0.30066 0.0
H591 H 0.55967 0.41749 0.19998 0.0
H592 H 0.49661 0.46937 0.30289 0.0
H593 H 0.48442 0.52793 0.19667 0.0
C594 C 0.44794 0.5769 0.21917 0.0
C595 C 0.4311 0.59324 0.24836 0.0
C596 C 0.51046 0.45809 0.28029 0.0
C597 C 0.4788 0.51879 0.24921 0.0
C598 C 0.53436 0.42114 0.28081 0.0
C599 C 0.55244 0.40536 0.25189 0.0
C600 C 0.50443 0.4796 0.25063 0.0
C601 C 0.54599 0.42806 0.2228 0.0
C602 C 0.47171 0.53982 0.21949 0.0
C603 C 0.43852 0.57093 0.27749 0.0
N604 N 0.52253 0.46396 0.22291 0.0
N605 N 0.46186 0.53499 0.27717 0.0
H606 H 0.09538 0.06699 0.79779 0.0
H607 H 0.92219 0.94681 0.68879 0.0
H608 H 0.09794 0.06551 0.69219 0.0
H609 H 0.92954 0.938 0.79402 0.0
H610 H 0.98522 0.99171 0.68921 0.0
H611 H 0.03292 0.02193 0.79661 0.0
C612 C 0.08262 0.05757 0.77431 0.0
C613 C 0.10201 0.07029 0.74502 0.0
C614 C 0.97312 0.97979 0.71219 0.0
C615 C 0.03045 0.01794 0.7435 0.0
C616 C 0.93703 0.95427 0.71198 0.0
C617 C 0.92041 0.93855 0.74141 0.0
C618 C 0.99266 0.98998 0.74209 0.0
C619 C 0.94137 0.94889 0.7707 0.0
C620 C 0.04707 0.03145 0.77366 0.0
C621 C 0.08432 0.05624 0.71536 0.0
N622 N 0.97619 0.97406 0.77029 0.0
N623 N 0.04953 0.03091 0.71535 0.0
loop_
_geom_bond_atom_site_label_1
_geom_bond_atom_site_label_2
_geom_bond_distance
_geom_bond_site_symmetry_2
_ccdc_geom_bond_type
C0 C1 1.351 . S
C0 N3 1.368 . S
C0 H5 0.931 . S
C1 C0 1.351 . S
C1 N2 1.373 . S
C1 H29 0.930 . S
N2 C1 1.373 . S
N2 C4 1.340 . S
N3 C0 1.368 . S
N3 C4 1.321 . S
N3 Co6 2.135 . S
C4 N2 1.340 . S
C4 N3 1.321 . S
C4 H28 0.930 . S
H5 C0 0.931 . S
Co6 N3 2.135 . S
Co6 N9 2.121 . S
Co6 O14 2.055 1_455 S
Co6 O17 2.039 . S
Co6 N20 2.140 . S
C7 O8 1.227 . S
C7 O17 1.265 . S
O8 C7 1.227 . S
N9 Co6 2.121 . S
N9 C11 1.375 . S
N9 C12 1.313 . S
C10 C11 1.338 . S
C10 N13 1.377 . S
C10 H30 0.930 . S
C11 N9 1.375 . S
C11 C10 1.338 . S
C11 H15 0.931 . S
C12 N9 1.313 . S
C12 N13 1.344 . S
C12 H16 0.930 . S
N13 C10 1.377 . S
N13 C12 1.344 . S
O14 Co6 2.055 1_655 S
O14 C18 1.253 . S
H15 C11 0.931 . S
H16 C12 0.930 . S
O17 Co6 2.039 . S
O17 C7 1.265 . S
C18 O14 1.253 . S
C18 O19 1.227 1_655 S
O19 C18 1.227 1_455 S
N20 Co6 2.140 . S
N20 C23 1.346 . S
N20 C24 1.345 . S
C21 C22 1.387 . S
C21 C25 1.391 . S
C22 C21 1.387 . S
C22 C23 1.369 . S
C22 H31 0.929 . S
C23 N20 1.346 . S
C23 C22 1.369 . S
C23 H26 0.928 . S
C24 N20 1.345 . S
C24 C25 1.371 . S
C24 H27 0.931 . S
C25 C21 1.391 . S
C25 C24 1.371 . S
C25 H32 0.930 . S
H26 C23 0.928 . S
H27 C24 0.931 . S
H28 C4 0.930 . S
H29 C1 0.930 . S
H30 C10 0.930 . S
H31 C22 0.929 . S
H32 C25 0.930 . S
C33 C34 1.351 . S
C33 N36 1.368 . S
C33 H38 0.931 . S
C34 C33 1.351 . S
C34 N35 1.373 . S
C34 H62 0.930 . S
N35 C34 1.373 . S
N35 C37 1.340 . S
N36 C33 1.368 . S
N36 C37 1.321 . S
N36 Co39 2.135 . S
C37 N35 1.340 . S
C37 N36 1.321 . S
C37 H61 0.930 . S
H38 C33 0.931 . S
Co39 N36 2.135 . S
Co39 N42 2.121 . S
Co39 O47 2.055 . S
Co39 O50 2.039 . S
Co39 N53 2.140 . S
C40 O41 1.227 . S
C40 O50 1.265 . S
O41 C40 1.227 . S
N42 Co39 2.121 . S
N42 C44 1.375 . S
N42 C45 1.313 . S
C43 C44 1.338 . S
C43 N46 1.377 . S
C43 H63 0.930 . S
C44 N42 1.375 . S
C44 C43 1.338 . S
C44 H48 0.931 . S
C45 N42 1.313 . S
C45 N46 1.344 . S
C45 H49 0.930 . S
N46 C43 1.377 . S
N46 C45 1.344 . S
O47 Co39 2.055 . S
O47 C51 1.253 . S
H48 C44 0.931 . S
H49 C45 0.930 . S
O50 Co39 2.039 . S
O50 C40 1.265 . S
C51 O47 1.253 . S
C51 O52 1.227 . S
O52 C51 1.227 . S
N53 Co39 2.140 . S
N53 C56 1.346 . S
N53 C57 1.345 . S
C54 C55 1.387 . S
C54 C58 1.391 . S
C55 C54 1.387 . S
C55 C56 1.369 . S
C55 H64 0.929 . S
C56 N53 1.346 . S
C56 C55 1.369 . S
C56 H59 0.928 . S
C57 N53 1.345 . S
C57 C58 1.371 . S
C57 H60 0.931 . S
C58 C54 1.391 . S
C58 C57 1.371 . S
C58 H65 0.930 . S
H59 C56 0.928 . S
H60 C57 0.931 . S
H61 C37 0.930 . S
H62 C34 0.930 . S
H63 C43 0.930 . S
H64 C55 0.929 . S
H65 C58 0.930 . S
C66 C67 1.351 . S
C66 N69 1.368 . S
C66 H71 0.931 . S
C67 C66 1.351 . S
C67 N68 1.373 . S
C67 H95 0.930 . S
N68 C67 1.373 . S
N68 C70 1.340 . S
N69 C66 1.368 . S
N69 C70 1.321 . S
N69 Co72 2.135 . S
C70 N68 1.340 . S
C70 N69 1.321 . S
C70 H94 0.930 . S
H71 C66 0.931 . S
Co72 N69 2.135 . S
Co72 N75 2.121 . S
Co72 O80 2.055 1_655 S
Co72 O83 2.039 . S
Co72 N86 2.140 . S
C73 O74 1.227 . S
C73 O83 1.265 . S
O74 C73 1.227 . S
N75 Co72 2.121 . S
N75 C77 1.375 . S
N75 C78 1.313 . S
C76 C77 1.338 . S
C76 N79 1.377 . S
C76 H96 0.930 . S
C77 N75 1.375 . S
C77 C76 1.338 . S
C77 H81 0.931 . S
C78 N75 1.313 . S
C78 N79 1.344 . S
C78 H82 0.930 . S
N79 C76 1.377 . S
N79 C78 1.344 . S
O80 Co72 2.055 1_455 S
O80 C84 1.253 . S
H81 C77 0.931 . S
H82 C78 0.930 . S
O83 Co72 2.039 . S
O83 C73 1.265 . S
C84 O80 1.253 . S
C84 O85 1.227 1_455 S
O85 C84 1.227 1_655 S
N86 Co72 2.140 . S
N86 C89 1.346 . S
N86 C90 1.345 . S
C87 C88 1.387 . S
C87 C91 1.391 . S
C88 C87 1.387 . S
C88 C89 1.369 . S
C88 H97 0.929 . S
C89 N86 1.346 . S
C89 C88 1.369 . S
C89 H92 0.928 . S
C90 N86 1.345 . S
C90 C91 1.371 . S
C90 H93 0.931 . S
C91 C87 1.391 . S
C91 C90 1.371 . S
C91 H98 0.930 . S
H92 C89 0.928 . S
H93 C90 0.931 . S
H94 C70 0.930 . S
H95 C67 0.930 . S
H96 C76 0.930 . S
H97 C88 0.929 . S
H98 C91 0.930 . S
C99 C100 1.351 . S
C99 N102 1.368 . S
C99 H104 0.931 . S
C100 C99 1.351 . S
C100 N101 1.373 . S
C100 H128 0.930 . S
N101 C100 1.373 . S
N101 C103 1.340 . S
N102 C99 1.368 . S
N102 C103 1.321 . S
N102 Co105 2.135 . S
C103 N101 1.340 . S
C103 N102 1.321 . S
C103 H127 0.930 . S
H104 C99 0.931 . S
Co105 N102 2.135 . S
Co105 N108 2.121 . S
Co105 O113 2.055 . S
Co105 O116 2.039 . S
Co105 N119 2.140 . S
C106 O107 1.227 . S
C106 O116 1.265 . S
O107 C106 1.227 . S
N108 Co105 2.121 . S
N108 C110 1.375 . S
N108 C111 1.313 . S
C109 C110 1.338 . S
C109 N112 1.377 . S
C109 H129 0.930 . S
C110 N108 1.375 . S
C110 C109 1.338 . S
C110 H114 0.931 . S
C111 N108 1.313 . S
C111 N112 1.344 . S
C111 H115 0.930 . S
N112 C109 1.377 . S
N112 C111 1.344 . S
O113 Co105 2.055 . S
O113 C117 1.253 . S
H114 C110 0.931 . S
H115 C111 0.930 . S
O116 Co105 2.039 . S
O116 C106 1.265 . S
C117 O113 1.253 . S
C117 O118 1.227 . S
O118 C117 1.227 . S
N119 Co105 2.140 . S
N119 C122 1.346 . S
N119 C123 1.345 . S
C120 C121 1.387 . S
C120 C124 1.391 . S
C121 C120 1.387 . S
C121 C122 1.369 . S
C121 H130 0.929 . S
C122 N119 1.346 . S
C122 C121 1.369 . S
C122 H125 0.928 . S
C123 N119 1.345 . S
C123 C124 1.371 . S
C123 H126 0.931 . S
C124 C120 1.391 . S
C124 C123 1.371 . S
C124 H131 0.930 . S
H125 C122 0.928 . S
H126 C123 0.931 . S
H127 C103 0.930 . S
H128 C100 0.930 . S
H129 C109 0.930 . S
H130 C121 0.929 . S
H131 C124 0.930 . S
C132 C133 1.351 . S
C132 N135 1.368 . S
C132 H137 0.931 . S
C133 C132 1.351 . S
C133 N134 1.373 . S
C133 H161 0.930 . S
N134 C133 1.373 . S
N134 C136 1.340 . S
N135 C132 1.368 . S
N135 C136 1.321 . S
N135 Co138 2.135 . S
C136 N134 1.340 . S
C136 N135 1.321 . S
C136 H160 0.930 . S
H137 C132 0.931 . S
Co138 N135 2.135 . S
Co138 N141 2.121 . S
Co138 O146 2.055 . S
Co138 O149 2.039 . S
Co138 N152 2.140 . S
C139 O140 1.227 . S
C139 O149 1.265 . S
O140 C139 1.227 . S
N141 Co138 2.121 . S
N141 C143 1.375 . S
N141 C144 1.313 . S
C142 C143 1.338 . S
C142 N145 1.377 . S
C142 H162 0.930 . S
C143 N141 1.375 . S
C143 C142 1.338 . S
C143 H147 0.931 . S
C144 N141 1.313 . S
C144 N145 1.344 . S
C144 H148 0.930 . S
N145 C142 1.377 . S
N145 C144 1.344 . S
O146 Co138 2.055 . S
O146 C150 1.253 . S
H147 C143 0.931 . S
H148 C144 0.930 . S
O149 Co138 2.039 . S
O149 C139 1.265 . S
C150 O146 1.253 . S
C150 O151 1.227 . S
O151 C150 1.227 . S
N152 Co138 2.140 . S
N152 C155 1.346 . S
N152 C156 1.345 . S
C153 C154 1.387 . S
C153 C157 1.391 . S
C154 C153 1.387 . S
C154 C155 1.369 . S
C154 H163 0.929 . S
C155 N152 1.346 . S
C155 C154 1.369 . S
C155 H158 0.928 . S
C156 N152 1.345 . S
C156 C157 1.371 . S
C156 H159 0.931 . S
C157 C153 1.391 . S
C157 C156 1.371 . S
C157 H164 0.930 . S
H158 C155 0.928 . S
H159 C156 0.931 . S
H160 C136 0.930 . S
H161 C133 0.930 . S
H162 C142 0.930 . S
H163 C154 0.929 . S
H164 C157 0.930 . S
C165 C166 1.351 . S
C165 N168 1.368 . S
C165 H170 0.931 . S
C166 C165 1.351 . S
C166 N167 1.373 . S
C166 H194 0.930 . S
N167 C166 1.373 . S
N167 C169 1.340 . S
N168 C165 1.368 . S
N168 C169 1.321 . S
N168 Co171 2.135 . S
C169 N167 1.340 . S
C169 N168 1.321 . S
C169 H193 0.930 . S
H170 C165 0.931 . S
Co171 N168 2.135 . S
Co171 N174 2.121 . S
Co171 O179 2.055 1_545 S
Co171 O182 2.039 . S
Co171 N185 2.140 . S
C172 O173 1.227 . S
C172 O182 1.265 . S
O173 C172 1.227 . S
N174 Co171 2.121 . S
N174 C176 1.375 . S
N174 C177 1.313 . S
C175 C176 1.338 . S
C175 N178 1.377 . S
C175 H195 0.930 . S
C176 N174 1.375 . S
C176 C175 1.338 . S
C176 H180 0.931 . S
C177 N174 1.313 . S
C177 N178 1.344 . S
C177 H181 0.930 . S
N178 C175 1.377 . S
N178 C177 1.344 . S
O179 Co171 2.055 1_565 S
O179 C183 1.253 . S
H180 C176 0.931 . S
H181 C177 0.930 . S
O182 Co171 2.039 . S
O182 C172 1.265 . S
C183 O179 1.253 . S
C183 O184 1.227 1_565 S
O184 C183 1.227 1_545 S
N185 Co171 2.140 . S
N185 C188 1.346 . S
N185 C189 1.345 . S
C186 C187 1.387 . S
C186 C190 1.391 . S
C187 C186 1.387 . S
C187 C188 1.369 . S
C187 H196 0.929 . S
C188 N185 1.346 . S
C188 C187 1.369 . S
C188 H191 0.928 . S
C189 N185 1.345 . S
C189 C190 1.371 . S
C189 H192 0.931 . S
C190 C186 1.391 . S
C190 C189 1.371 . S
C190 H197 0.930 . S
H191 C188 0.928 . S
H192 C189 0.931 . S
H193 C169 0.930 . S
H194 C166 0.930 . S
H195 C175 0.930 . S
H196 C187 0.929 . S
H197 C190 0.930 . S
C198 C199 1.351 . S
C198 N201 1.368 . S
C198 H203 0.931 . S
C199 C198 1.351 . S
C199 N200 1.373 . S
C199 H227 0.930 . S
N200 C199 1.373 . S
N200 C202 1.340 . S
N201 C198 1.368 . S
N201 C202 1.321 . S
N201 Co204 2.135 . S
C202 N200 1.340 . S
C202 N201 1.321 . S
C202 H226 0.930 . S
H203 C198 0.931 . S
Co204 N201 2.135 . S
Co204 N207 2.121 . S
Co204 O212 2.055 . S
Co204 O215 2.039 . S
Co204 N218 2.140 . S
C205 O206 1.227 . S
C205 O215 1.265 . S
O206 C205 1.227 . S
N207 Co204 2.121 . S
N207 C209 1.375 . S
N207 C210 1.313 . S
C208 C209 1.338 . S
C208 N211 1.377 . S
C208 H228 0.930 . S
C209 N207 1.375 . S
C209 C208 1.338 . S
C209 H213 0.931 . S
C210 N207 1.313 . S
C210 N211 1.344 . S
C210 H214 0.930 . S
N211 C208 1.377 . S
N211 C210 1.344 . S
O212 Co204 2.055 . S
O212 C216 1.253 . S
H213 C209 0.931 . S
H214 C210 0.930 . S
O215 Co204 2.039 . S
O215 C205 1.265 . S
C216 O212 1.253 . S
C216 O217 1.227 . S
O217 C216 1.227 . S
N218 Co204 2.140 . S
N218 C221 1.346 . S
N218 C222 1.345 . S
C219 C220 1.387 . S
C219 C223 1.391 . S
C220 C219 1.387 . S
C220 C221 1.369 . S
C220 H229 0.929 . S
C221 N218 1.346 . S
C221 C220 1.369 . S
C221 H224 0.928 . S
C222 N218 1.345 . S
C222 C223 1.371 . S
C222 H225 0.931 . S
C223 C219 1.391 . S
C223 C222 1.371 . S
C223 H230 0.930 . S
H224 C221 0.928 . S
H225 C222 0.931 . S
H226 C202 0.930 . S
H227 C199 0.930 . S
H228 C208 0.930 . S
H229 C220 0.929 . S
H230 C223 0.930 . S
C231 C232 1.351 . S
C231 N234 1.368 . S
C231 H236 0.931 . S
C232 C231 1.351 . S
C232 N233 1.373 . S
C232 H260 0.930 . S
N233 C232 1.373 . S
N233 C235 1.340 . S
N234 C231 1.368 . S
N234 C235 1.321 . S
N234 Co237 2.135 . S
C235 N233 1.340 . S
C235 N234 1.321 . S
C235 H259 0.930 . S
H236 C231 0.931 . S
Co237 N234 2.135 . S
Co237 N240 2.121 . S
Co237 O245 2.055 1_565 S
Co237 O248 2.039 . S
Co237 N251 2.140 . S
C238 O239 1.227 . S
C238 O248 1.265 . S
O239 C238 1.227 . S
N240 Co237 2.121 . S
N240 C242 1.375 . S
N240 C243 1.313 . S
C241 C242 1.338 . S
C241 N244 1.377 . S
C241 H261 0.930 . S
C242 N240 1.375 . S
C242 C241 1.338 . S
C242 H246 0.931 . S
C243 N240 1.313 . S
C243 N244 1.344 . S
C243 H247 0.930 . S
N244 C241 1.377 . S
N244 C243 1.344 . S
O245 Co237 2.055 1_545 S
O245 C249 1.253 . S
H246 C242 0.931 . S
H247 C243 0.930 . S
O248 Co237 2.039 . S
O248 C238 1.265 . S
C249 O245 1.253 . S
C249 O250 1.227 1_545 S
O250 C249 1.227 1_565 S
N251 Co237 2.140 . S
N251 C254 1.346 . S
N251 C255 1.345 . S
C252 C253 1.387 . S
C252 C256 1.391 . S
C253 C252 1.387 . S
C253 C254 1.369 . S
C253 H262 0.929 . S
C254 N251 1.346 . S
C254 C253 1.369 . S
C254 H257 0.928 . S
C255 N251 1.345 . S
C255 C256 1.371 . S
C255 H258 0.931 . S
C256 C252 1.391 . S
C256 C255 1.371 . S
C256 H263 0.930 . S
H257 C254 0.928 . S
H258 C255 0.931 . S
H259 C235 0.930 . S
H260 C232 0.930 . S
H261 C241 0.930 . S
H262 C253 0.929 . S
H263 C256 0.930 . S
H264 C270 0.930 . S
H265 C274 0.930 . S
H266 C279 0.925 1_455 S
H267 C277 0.925 1_655 S
H268 C272 0.929 . S
H269 C278 0.929 . S
C270 H264 0.930 . S
C270 C271 1.367 . S
C270 C278 1.378 . S
C271 C270 1.367 . S
C271 C279 1.440 . S
C272 H268 0.929 . S
C272 C274 1.378 . S
C272 C276 1.350 . S
C273 C276 1.463 1_655 S
C273 C278 1.350 . S
C273 N281 1.427 1_655 S
C274 H265 0.930 . S
C274 C272 1.378 . S
C274 C275 1.367 . S
C275 C274 1.367 . S
C275 C277 1.440 . S
C276 C272 1.350 . S
C276 C273 1.463 1_455 S
C276 N280 1.427 1_455 S
C277 H267 0.925 1_455 S
C277 C275 1.440 . S
C277 N280 1.381 1_455 S
C278 H269 0.929 . S
C278 C270 1.378 . S
C278 C273 1.350 . S
C279 H266 0.925 1_655 S
C279 C271 1.440 . S
C279 N281 1.381 1_655 S
N280 C276 1.427 1_655 S
N280 C277 1.381 1_655 S
N281 C273 1.427 1_455 S
N281 C279 1.381 1_455 S
H282 C288 0.930 . S
H283 C292 0.930 . S
H284 C297 0.929 . S
H285 C295 0.929 . S
H286 C290 0.929 . S
H287 C296 0.929 . S
C288 H282 0.930 . S
C288 C289 1.367 . S
C288 C296 1.378 . S
C289 C288 1.367 . S
C289 C297 1.433 . S
C290 H286 0.929 . S
C290 C292 1.378 . S
C290 C294 1.350 . S
C291 C294 1.463 1_655 S
C291 C296 1.350 . S
C291 N299 1.427 . S
C292 H283 0.930 . S
C292 C290 1.378 . S
C292 C293 1.367 . S
C293 C292 1.367 . S
C293 C295 1.433 . S
C294 C290 1.350 . S
C294 C291 1.463 1_455 S
C294 N298 1.427 . S
C295 H285 0.929 . S
C295 C293 1.433 . S
C295 N298 1.384 . S
C296 H287 0.929 . S
C296 C288 1.378 . S
C296 C291 1.350 . S
C297 H284 0.929 . S
C297 C289 1.433 . S
C297 N299 1.384 . S
N298 C294 1.427 . S
N298 C295 1.384 . S
N299 C291 1.427 . S
N299 C297 1.384 . S
H300 C306 0.930 . S
H301 C310 0.930 . S
H302 C315 0.929 . S
H303 C313 0.929 . S
H304 C308 0.929 . S
H305 C314 0.929 . S
C306 H300 0.930 . S
C306 C307 1.367 . S
C306 C314 1.378 . S
C307 C306 1.367 . S
C307 C315 1.433 . S
C308 H304 0.929 . S
C308 C310 1.378 . S
C308 C312 1.350 . S
C309 C312 1.463 1_565 S
C309 C314 1.350 . S
C309 N317 1.427 . S
C310 H301 0.930 . S
C310 C308 1.378 . S
C310 C311 1.367 . S
C311 C310 1.367 . S
C311 C313 1.433 . S
C312 C308 1.350 . S
C312 C309 1.463 1_545 S
C312 N316 1.427 . S
C313 H303 0.929 . S
C313 C311 1.433 . S
C313 N316 1.384 . S
C314 H305 0.929 . S
C314 C306 1.378 . S
C314 C309 1.350 . S
C315 H302 0.929 . S
C315 C307 1.433 . S
C315 N317 1.384 . S
N316 C312 1.427 . S
N316 C313 1.384 . S
N317 C309 1.427 . S
N317 C315 1.384 . S
H318 C324 0.927 1_545 S
H319 C328 0.927 1_565 S
H320 C333 0.929 . S
H321 C331 0.929 . S
H322 C326 0.929 . S
H323 C332 0.929 . S
C324 H318 0.927 1_565 S
C324 C325 1.367 . S
C324 C332 1.378 1_565 S
C325 C324 1.367 . S
C325 C333 1.433 . S
C326 H322 0.929 . S
C326 C328 1.378 1_565 S
C326 C330 1.350 1_565 S
C327 C330 1.463 1_565 S
C327 C332 1.350 1_565 S
C327 N335 1.427 . S
C328 H319 0.927 1_545 S
C328 C326 1.378 1_545 S
C328 C329 1.367 . S
C329 C328 1.367 . S
C329 C331 1.433 . S
C330 C326 1.350 1_545 S
C330 C327 1.463 1_545 S
C330 N334 1.427 . S
C331 H321 0.929 . S
C331 C329 1.433 . S
C331 N334 1.384 . S
C332 H323 0.929 . S
C332 C324 1.378 1_545 S
C332 C327 1.350 1_545 S
C333 H320 0.929 . S
C333 C325 1.433 . S
C333 N335 1.384 . S
N334 C330 1.427 . S
N334 C331 1.384 . S
N335 C327 1.427 . S
N335 C333 1.384 . S
H336 C342 0.930 . S
H337 C346 0.930 . S
H338 C351 0.929 . S
H339 C349 0.929 . S
H340 C344 0.929 . S
H341 C350 0.929 . S
C342 H336 0.930 . S
C342 C343 1.367 . S
C342 C350 1.378 . S
C343 C342 1.367 . S
C343 C351 1.433 . S
C344 H340 0.929 . S
C344 C346 1.378 . S
C344 C348 1.350 . S
C345 C348 1.463 . S
C345 C350 1.350 . S
C345 N353 1.427 . S
C346 H337 0.930 . S
C346 C344 1.378 . S
C346 C347 1.367 . S
C347 C346 1.367 . S
C347 C349 1.433 . S
C348 C344 1.350 . S
C348 C345 1.463 . S
C348 N352 1.427 . S
C349 H339 0.929 . S
C349 C347 1.433 . S
C349 N352 1.384 . S
C350 H341 0.929 . S
C350 C342 1.378 . S
C350 C345 1.350 . S
C351 H338 0.929 . S
C351 C343 1.433 . S
C351 N353 1.384 . S
N352 C348 1.427 . S
N352 C349 1.384 . S
N353 C345 1.427 . S
N353 C351 1.384 . S
H354 C360 0.930 . S
H355 C364 0.930 . S
H356 C369 0.929 . S
H357 C367 0.929 . S
H358 C362 0.929 . S
H359 C368 0.929 . S
C360 H354 0.930 . S
C360 C361 1.367 . S
C360 C368 1.378 . S
C361 C360 1.367 . S
C361 C369 1.433 . S
C362 H358 0.929 . S
C362 C364 1.378 . S
C362 C366 1.350 . S
C363 C366 1.463 . S
C363 C368 1.350 . S
C363 N371 1.427 . S
C364 H355 0.930 . S
C364 C362 1.378 . S
C364 C365 1.367 . S
C365 C364 1.367 . S
C365 C367 1.433 . S
C366 C362 1.350 . S
C366 C363 1.463 . S
C366 N370 1.427 . S
C367 H357 0.929 . S
C367 C365 1.433 . S
C367 N370 1.384 . S
C368 H359 0.929 . S
C368 C360 1.378 . S
C368 C363 1.350 . S
C369 H356 0.929 . S
C369 C361 1.433 . S
C369 N371 1.384 . S
N370 C366 1.427 . S
N370 C367 1.384 . S
N371 C363 1.427 . S
N371 C369 1.384 . S
H372 C378 0.930 . S
H373 C382 0.930 . S
H374 C387 0.929 . S
H375 C385 0.929 . S
H376 C380 0.929 . S
H377 C386 0.929 . S
C378 H372 0.930 . S
C378 C379 1.367 . S
C378 C386 1.378 . S
C379 C378 1.367 . S
C379 C387 1.433 . S
C380 H376 0.929 . S
C380 C382 1.378 . S
C380 C384 1.350 . S
C381 C384 1.463 . S
C381 C386 1.350 . S
C381 N389 1.427 . S
C382 H373 0.930 . S
C382 C380 1.378 . S
C382 C383 1.367 . S
C383 C382 1.367 . S
C383 C385 1.433 . S
C384 C380 1.350 . S
C384 C381 1.463 . S
C384 N388 1.427 . S
C385 H375 0.929 . S
C385 C383 1.433 . S
C385 N388 1.384 . S
C386 H377 0.929 . S
C386 C378 1.378 . S
C386 C381 1.350 . S
C387 H374 0.929 . S
C387 C379 1.433 . S
C387 N389 1.384 . S
N388 C384 1.427 . S
N388 C385 1.384 . S
N389 C381 1.427 . S
N389 C387 1.384 . S
H390 C396 0.930 . S
H391 C400 0.930 . S
H392 C405 0.929 . S
H393 C403 0.929 . S
H394 C398 0.929 . S
H395 C404 0.929 . S
C396 H390 0.930 . S
C396 C397 1.367 . S
C396 C404 1.378 . S
C397 C396 1.367 . S
C397 C405 1.433 . S
C398 H394 0.929 . S
C398 C400 1.378 . S
C398 C402 1.350 . S
C399 C402 1.463 . S
C399 C404 1.350 . S
C399 N407 1.427 . S
C400 H391 0.930 . S
C400 C398 1.378 . S
C400 C401 1.367 . S
C401 C400 1.367 . S
C401 C403 1.433 . S
C402 C398 1.350 . S
C402 C399 1.463 . S
C402 N406 1.427 . S
C403 H393 0.929 . S
C403 C401 1.433 . S
C403 N406 1.384 . S
C404 H395 0.929 . S
C404 C396 1.378 . S
C404 C399 1.350 . S
C405 H392 0.929 . S
C405 C397 1.433 . S
C405 N407 1.384 . S
N406 C402 1.427 . S
N406 C403 1.384 . S
N407 C399 1.427 . S
N407 C405 1.384 . S
H408 C414 0.930 . S
H409 C418 0.930 . S
H410 C423 0.929 . S
H411 C421 0.929 . S
H412 C416 0.929 . S
H413 C422 0.929 . S
C414 H408 0.930 . S
C414 C415 1.367 . S
C414 C422 1.378 . S
C415 C414 1.367 . S
C415 C423 1.433 . S
C416 H412 0.929 . S
C416 C418 1.378 . S
C416 C420 1.350 . S
C417 C420 1.463 . S
C417 C422 1.350 . S
C417 N425 1.427 . S
C418 H409 0.930 . S
C418 C416 1.378 . S
C418 C419 1.367 . S
C419 C418 1.367 . S
C419 C421 1.433 . S
C420 C416 1.350 . S
C420 C417 1.463 . S
C420 N424 1.427 . S
C421 H411 0.929 . S
C421 C419 1.433 . S
C421 N424 1.384 . S
C422 H413 0.929 . S
C422 C414 1.378 . S
C422 C417 1.350 . S
C423 H410 0.929 . S
C423 C415 1.433 . S
C423 N425 1.384 . S
N424 C420 1.427 . S
N424 C421 1.384 . S
N425 C417 1.427 . S
N425 C423 1.384 . S
H426 C432 0.930 . S
H427 C436 0.930 . S
H428 C441 0.929 . S
H429 C439 0.929 . S
H430 C434 0.929 . S
H431 C440 0.929 . S
C432 H426 0.930 . S
C432 C433 1.367 . S
C432 C440 1.378 . S
C433 C432 1.367 . S
C433 C441 1.433 . S
C434 H430 0.929 . S
C434 C436 1.378 . S
C434 C438 1.350 . S
C435 C438 1.463 . S
C435 C440 1.350 . S
C435 N443 1.427 . S
C436 H427 0.930 . S
C436 C434 1.378 . S
C436 C437 1.367 . S
C437 C436 1.367 . S
C437 C439 1.433 . S
C438 C434 1.350 . S
C438 C435 1.463 . S
C438 N442 1.427 . S
C439 H429 0.929 . S
C439 C437 1.433 . S
C439 N442 1.384 . S
C440 H431 0.929 . S
C440 C432 1.378 . S
C440 C435 1.350 . S
C441 H428 0.929 . S
C441 C433 1.433 . S
C441 N443 1.384 . S
N442 C438 1.427 . S
N442 C439 1.384 . S
N443 C435 1.427 . S
N443 C441 1.384 . S
H444 C450 0.930 . S
H445 C454 0.930 . S
H446 C459 0.929 . S
H447 C457 0.929 . S
H448 C452 0.929 . S
H449 C458 0.929 . S
C450 H444 0.930 . S
C450 C451 1.367 . S
C450 C458 1.378 . S
C451 C450 1.367 . S
C451 C459 1.433 . S
C452 H448 0.929 . S
C452 C454 1.378 . S
C452 C456 1.350 . S
C453 C456 1.463 . S
C453 C458 1.350 . S
C453 N461 1.427 . S
C454 H445 0.930 . S
C454 C452 1.378 . S
C454 C455 1.367 . S
C455 C454 1.367 . S
C455 C457 1.433 . S
C456 C452 1.350 . S
C456 C453 1.463 . S
C456 N460 1.427 . S
C457 H447 0.929 . S
C457 C455 1.433 . S
C457 N460 1.384 . S
C458 H449 0.929 . S
C458 C450 1.378 . S
C458 C453 1.350 . S
C459 H446 0.929 . S
C459 C451 1.433 . S
C459 N461 1.384 . S
N460 C456 1.427 . S
N460 C457 1.384 . S
N461 C453 1.427 . S
N461 C459 1.384 . S
H462 C468 0.930 . S
H463 C472 0.930 . S
H464 C477 0.929 . S
H465 C475 0.929 . S
H466 C470 0.929 . S
H467 C476 0.929 . S
C468 H462 0.930 . S
C468 C469 1.367 . S
C468 C476 1.378 . S
C469 C468 1.367 . S
C469 C477 1.433 . S
C470 H466 0.929 . S
C470 C472 1.378 . S
C470 C474 1.350 . S
C471 C474 1.463 . S
C471 C476 1.350 . S
C471 N479 1.427 . S
C472 H463 0.930 . S
C472 C470 1.378 . S
C472 C473 1.367 . S
C473 C472 1.367 . S
C473 C475 1.433 . S
C474 C470 1.350 . S
C474 C471 1.463 . S
C474 N478 1.427 . S
C475 H465 0.929 . S
C475 C473 1.433 . S
C475 N478 1.384 . S
C476 H467 0.929 . S
C476 C468 1.378 . S
C476 C471 1.350 . S
C477 H464 0.929 . S
C477 C469 1.433 . S
C477 N479 1.384 . S
N478 C474 1.427 . S
N478 C475 1.384 . S
N479 C471 1.427 . S
N479 C477 1.384 . S
H480 C486 0.930 . S
H481 C490 0.930 . S
H482 C495 0.929 . S
H483 C493 0.929 . S
H484 C488 0.929 . S
H485 C494 0.929 . S
C486 H480 0.930 . S
C486 C487 1.367 . S
C486 C494 1.378 . S
C487 C486 1.367 . S
C487 C495 1.433 . S
C488 H484 0.929 . S
C488 C490 1.378 . S
C488 C492 1.350 . S
C489 C492 1.463 . S
C489 C494 1.350 . S
C489 N497 1.427 . S
C490 H481 0.930 . S
C490 C488 1.378 . S
C490 C491 1.367 . S
C491 C490 1.367 . S
C491 C493 1.433 . S
C492 C488 1.350 . S
C492 C489 1.463 . S
C492 N496 1.427 . S
C493 H483 0.929 . S
C493 C491 1.433 . S
C493 N496 1.384 . S
C494 H485 0.929 . S
C494 C486 1.378 . S
C494 C489 1.350 . S
C495 H482 0.929 . S
C495 C487 1.433 . S
C495 N497 1.384 . S
N496 C492 1.427 . S
N496 C493 1.384 . S
N497 C489 1.427 . S
N497 C495 1.384 . S
H498 C504 0.930 . S
H499 C508 0.930 . S
H500 C513 0.929 . S
H501 C511 0.929 . S
H502 C506 0.929 1_554 S
H503 C512 0.929 1_556 S
C504 H498 0.930 . S
C504 C505 1.367 . S
C504 C512 1.378 . S
C505 C504 1.367 . S
C505 C513 1.433 . S
C506 H502 0.929 1_556 S
C506 C508 1.378 . S
C506 C510 1.350 . S
C507 C510 1.463 1_554 S
C507 C512 1.350 . S
C507 N515 1.427 . S
C508 H499 0.930 . S
C508 C506 1.378 . S
C508 C509 1.367 . S
C509 C508 1.367 . S
C509 C511 1.433 . S
C510 C506 1.350 . S
C510 C507 1.463 1_556 S
C510 N514 1.427 . S
C511 H501 0.929 . S
C511 C509 1.433 . S
C511 N514 1.384 . S
C512 H503 0.929 1_554 S
C512 C504 1.378 . S
C512 C507 1.350 . S
C513 H500 0.929 . S
C513 C505 1.433 . S
C513 N515 1.384 . S
N514 C510 1.427 . S
N514 C511 1.384 . S
N515 C507 1.427 . S
N515 C513 1.384 . S
H516 C522 0.930 . S
H517 C526 0.930 . S
H518 C531 0.929 . S
H519 C529 0.929 . S
H520 C524 0.929 . S
H521 C530 0.929 . S
C522 H516 0.930 . S
C522 C523 1.367 . S
C522 C530 1.378 . S
C523 C522 1.367 . S
C523 C531 1.433 . S
C524 H520 0.929 . S
C524 C526 1.378 . S
C524 C528 1.350 . S
C525 C528 1.463 . S
C525 C530 1.350 . S
C525 N533 1.427 . S
C526 H517 0.930 . S
C526 C524 1.378 . S
C526 C527 1.367 . S
C527 C526 1.367 . S
C527 C529 1.433 . S
C528 C524 1.350 . S
C528 C525 1.463 . S
C528 N532 1.427 . S
C529 H519 0.929 . S
C529 C527 1.433 . S
C529 N532 1.384 . S
C530 H521 0.929 . S
C530 C522 1.378 . S
C530 C525 1.350 . S
C531 H518 0.929 . S
C531 C523 1.433 . S
C531 N533 1.384 . S
N532 C528 1.427 . S
N532 C529 1.384 . S
N533 C525 1.427 . S
N533 C531 1.384 . S
H534 C540 0.930 . S
H535 C544 0.930 . S
H536 C549 0.929 . S
H537 C547 0.929 . S
H538 C542 0.929 . S
H539 C548 0.929 . S
C540 H534 0.930 . S
C540 C541 1.367 . S
C540 C548 1.378 . S
C541 C540 1.367 . S
C541 C549 1.433 . S
C542 H538 0.929 . S
C542 C544 1.378 . S
C542 C546 1.350 . S
C543 C546 1.463 1_554 S
C543 C548 1.350 . S
C543 N551 1.427 . S
C544 H535 0.930 . S
C544 C542 1.378 . S
C544 C545 1.367 . S
C545 C544 1.367 . S
C545 C547 1.433 . S
C546 C542 1.350 . S
C546 C543 1.463 1_556 S
C546 N550 1.427 . S
C547 H537 0.929 . S
C547 C545 1.433 . S
C547 N550 1.384 . S
C548 H539 0.929 . S
C548 C540 1.378 . S
C548 C543 1.350 . S
C549 H536 0.929 . S
C549 C541 1.433 . S
C549 N551 1.384 . S
N550 C546 1.427 . S
N550 C547 1.384 . S
N551 C543 1.427 . S
N551 C549 1.384 . S
H552 C558 0.930 . S
H553 C562 0.930 . S
H554 C567 0.929 . S
H555 C565 0.929 . S
H556 C560 0.929 . S
H557 C566 0.929 . S
C558 H552 0.930 . S
C558 C559 1.367 . S
C558 C566 1.378 . S
C559 C558 1.367 . S
C559 C567 1.433 . S
C560 H556 0.929 . S
C560 C562 1.378 . S
C560 C564 1.350 . S
C561 C564 1.463 1_665 S
C561 C566 1.350 . S
C561 N569 1.427 . S
C562 H553 0.930 . S
C562 C560 1.378 . S
C562 C563 1.367 . S
C563 C562 1.367 . S
C563 C565 1.433 . S
C564 C560 1.350 . S
C564 C561 1.463 1_445 S
C564 N568 1.427 . S
C565 H555 0.929 . S
C565 C563 1.433 . S
C565 N568 1.384 . S
C566 H557 0.929 . S
C566 C558 1.378 . S
C566 C561 1.350 . S
C567 H554 0.929 . S
C567 C559 1.433 . S
C567 N569 1.384 . S
N568 C564 1.427 . S
N568 C565 1.384 . S
N569 C561 1.427 . S
N569 C567 1.384 . S
H570 C576 0.930 . S
H571 C580 0.930 . S
H572 C585 0.929 . S
H573 C583 0.929 . S
H574 C578 0.929 . S
H575 C584 0.929 . S
C576 H570 0.930 . S
C576 C577 1.367 . S
C576 C584 1.378 . S
C577 C576 1.367 . S
C577 C585 1.433 . S
C578 H574 0.929 . S
C578 C580 1.378 . S
C578 C582 1.350 . S
C579 C582 1.463 . S
C579 C584 1.350 . S
C579 N587 1.427 . S
C580 H571 0.930 . S
C580 C578 1.378 . S
C580 C581 1.367 . S
C581 C580 1.367 . S
C581 C583 1.433 . S
C582 C578 1.350 . S
C582 C579 1.463 . S
C582 N586 1.427 . S
C583 H573 0.929 . S
C583 C581 1.433 . S
C583 N586 1.384 . S
C584 H575 0.929 . S
C584 C576 1.378 . S
C584 C579 1.350 . S
C585 H572 0.929 . S
C585 C577 1.433 . S
C585 N587 1.384 . S
N586 C582 1.427 . S
N586 C583 1.384 . S
N587 C579 1.427 . S
N587 C585 1.384 . S
H588 C594 0.930 . S
H589 C598 0.930 . S
H590 C603 0.929 . S
H591 C601 0.929 . S
H592 C596 0.929 . S
H593 C602 0.929 . S
C594 H588 0.930 . S
C594 C595 1.367 . S
C594 C602 1.378 . S
C595 C594 1.367 . S
C595 C603 1.433 . S
C596 H592 0.929 . S
C596 C598 1.378 . S
C596 C600 1.350 . S
C597 C600 1.463 . S
C597 C602 1.350 . S
C597 N605 1.427 . S
C598 H589 0.930 . S
C598 C596 1.378 . S
C598 C599 1.367 . S
C599 C598 1.367 . S
C599 C601 1.433 . S
C600 C596 1.350 . S
C600 C597 1.463 . S
C600 N604 1.427 . S
C601 H591 0.929 . S
C601 C599 1.433 . S
C601 N604 1.384 . S
C602 H593 0.929 . S
C602 C594 1.378 . S
C602 C597 1.350 . S
C603 H590 0.929 . S
C603 C595 1.433 . S
C603 N605 1.384 . S
N604 C600 1.427 . S
N604 C601 1.384 . S
N605 C597 1.427 . S
N605 C603 1.384 . S
H606 C612 0.930 . S
H607 C616 0.930 . S
H608 C621 0.929 . S
H609 C619 0.929 . S
H610 C614 0.929 . S
H611 C620 0.929 . S
C612 H606 0.930 . S
C612 C613 1.367 . S
C612 C620 1.378 . S
C613 C612 1.367 . S
C613 C621 1.433 . S
C614 H610 0.929 . S
C614 C616 1.378 . S
C614 C618 1.350 . S
C615 C618 1.463 1_445 S
C615 C620 1.350 . S
C615 N623 1.427 . S
C616 H607 0.930 . S
C616 C614 1.378 . S
C616 C617 1.367 . S
C617 C616 1.367 . S
C617 C619 1.433 . S
C618 C614 1.350 . S
C618 C615 1.463 1_665 S
C618 N622 1.427 . S
C619 H609 0.929 . S
C619 C617 1.433 . S
C619 N622 1.384 . S
C620 H611 0.929 . S
C620 C612 1.378 . S
C620 C615 1.350 . S
C621 H608 0.929 . S
C621 C613 1.433 . S
C621 N623 1.384 . S
N622 C618 1.427 . S
N622 C619 1.384 . S
N623 C615 1.427 . S
N623 C621 1.384 . S
C271 N79 1.114 . S
C275 N13 1.120 . S
C289 N112 1.114 . S
C293 N46 1.121 . S
C307 N211 1.121 . S
C311 N145 1.113 . S
C325 N244 1.121 . S
C329 N178 1.114 . S
C343 C150 1.934 . S
C347 C21 1.930 . S
C361 C183 1.935 . S
C365 C54 1.928 . S
C379 C216 1.935 . S
C383 C87 1.931 . S
C397 C120 1.931 . S
C401 C249 1.934 . S
C415 C18 1.934 . S
C419 C153 1.930 . S
C433 C51 1.934 . S
C437 C186 1.931 . S
C451 C84 1.934 . S
C455 C219 1.927 . S
C469 C252 1.927 . S
C473 C117 1.935 . S
C487 C7 1.756 . S
C491 C172 1.756 . S
C505 C205 1.755 . S
C509 C40 1.755 . S
C523 C238 1.757 . S
C527 C73 1.757 . S
C541 C139 1.743 . S
C545 C106 1.744 . S
C559 N68 0.605 . S
C563 N2 0.621 . S
C577 N35 0.632 . S
C581 N101 0.616 . S
C595 N200 0.617 . S
C599 N134 0.602 . S
C613 N167 0.622 . S
C617 N233 0.637 . S
