# Generated by pormake.
# Topology uov, (4)-cn, num edge types: 1
# Building blocks:
#     Node 0, Type 0, BuildingBlock: UXUYUI_clean_sbu_0, # of connection points: 4
#     Node 1, Type 0, BuildingBlock: UXUYUI_clean_sbu_0, # of connection points: 4
#     Node 2, Type 0, BuildingBlock: UXUYUI_clean_sbu_0, # of connection points: 4
#     Node 3, Type 0, BuildingBlock: UXUYUI_clean_sbu_0, # of connection points: 4
#     Node 4, Type 0, BuildingBlock: UXUYUI_clean_sbu_0, # of connection points: 4
#     Node 5, Type 0, BuildingBlock: UXUYUI_clean_sbu_0, # of connection points: 4
#     Node 6, Type 0, BuildingBlock: UXUYUI_clean_sbu_0, # of connection points: 4
#     Node 7, Type 0, BuildingBlock: UXUYUI_clean_sbu_0, # of connection points: 4
#     Edge 8, Type (0, 0), BuildingBlock: KIFKEQ_clean_linker_1, # of connection points: 2
#     Edge 9, Type (0, 0), BuildingBlock: KIFKEQ_clean_linker_1, # of connection points: 2
#     Edge 10, Type (0, 0), BuildingBlock: KIFKEQ_clean_linker_1, # of connection points: 2
#     Edge 11, Type (0, 0), BuildingBlock: KIFKEQ_clean_linker_1, # of connection points: 2
#     Edge 12, Type (0, 0), BuildingBlock: KIFKEQ_clean_linker_1, # of connection points: 2
#     Edge 13, Type (0, 0), BuildingBlock: KIFKEQ_clean_linker_1, # of connection points: 2
#     Edge 14, Type (0, 0), BuildingBlock: KIFKEQ_clean_linker_1, # of connection points: 2
#     Edge 15, Type (0, 0), BuildingBlock: KIFKEQ_clean_linker_1, # of connection points: 2
#     Edge 16, Type (0, 0), BuildingBlock: KIFKEQ_clean_linker_1, # of connection points: 2
#     Edge 17, Type (0, 0), BuildingBlock: KIFKEQ_clean_linker_1, # of connection points: 2
#     Edge 18, Type (0, 0), BuildingBlock: KIFKEQ_clean_linker_1, # of connection points: 2
#     Edge 19, Type (0, 0), BuildingBlock: KIFKEQ_clean_linker_1, # of connection points: 2
#     Edge 20, Type (0, 0), BuildingBlock: KIFKEQ_clean_linker_1, # of connection points: 2
#     Edge 21, Type (0, 0), BuildingBlock: KIFKEQ_clean_linker_1, # of connection points: 2
#     Edge 22, Type (0, 0), BuildingBlock: KIFKEQ_clean_linker_1, # of connection points: 2
#     Edge 23, Type (0, 0), BuildingBlock: KIFKEQ_clean_linker_1, # of connection points: 2
# Relax obj value: 0.339
# Max RMSD: 0.266
# Mean RMSD: 0.265
data_MOF--net-uov--node1-UXUYUI_clean_sbu_0--edge1-KIFKEQ_clean_linker_1
_symmetry_space_group_name_H-M    P1
_symmetry_Int_Tables_number       1
_symmetry_cell_setting            triclinic
loop_
_symmetry_equiv_pos_as_xyz
'x, y, z'
_cell_length_a     44.271549
_cell_length_b     44.255065
_cell_length_c     63.03288
_cell_angle_alpha  90.003187
_cell_angle_beta   90.048013
_cell_angle_gamma 90.275791
loop_
_atom_site_label
_atom_site_type_symbol
_atom_site_fract_x
_atom_site_fract_y
_atom_site_fract_z
_atom_type_partial_charge
Li0 Li 0.04084 0.23068 0.62253 0.0
Li1 Li 0.02664 0.28174 0.60537 0.0
Li2 Li -0.0013 0.23499 0.59818 0.0
Li3 Li 0.04726 0.24083 0.5846 0.0
C4 C 0.97578 0.25257 0.63455 0.0
N5 N 0.91814 0.24549 0.65058 0.0
C6 C 0.95299 0.27271 0.62878 0.0
C7 C 0.96933 0.22891 0.64854 0.0
C8 C 0.92397 0.2687 0.63702 0.0
C9 C 0.94003 0.22571 0.65647 0.0
C10 C 0.09531 0.26771 0.60138 0.0
C11 C 0.13248 0.30045 0.58531 0.0
N12 N 0.1527 0.27741 0.58554 0.0
C13 C 0.11649 0.2444 0.60159 0.0
C14 C 0.10334 0.29601 0.59326 0.0
C15 C 0.14537 0.24973 0.59344 0.0
C16 C 0.07821 0.19024 0.64423 0.0
N17 N 0.05779 0.21272 0.64692 0.0
C18 C 0.063 0.20987 0.68457 0.0
C19 C 0.05007 0.22279 0.66652 0.0
C20 C 0.08433 0.18662 0.68235 0.0
C21 C 0.09188 0.17686 0.6618 0.0
H22 H 0.08391 0.18278 0.6284 0.0
H23 H 0.03388 0.24087 0.66813 0.0
C24 C -0.00044 0.33769 0.60043 0.0
N25 N 0.02303 0.32353 0.61003 0.0
C26 C 0.99509 0.3685 0.60349 0.0
C27 C 0.03908 0.36961 0.6263 0.0
C28 C 0.04264 0.33864 0.62284 0.0
C29 C 0.01495 0.38486 0.6166 0.0
H30 H 0.98435 0.32495 0.59035 0.0
H31 H 0.06094 0.32661 0.63039 0.0
C32 C 0.01597 0.17751 0.59693 0.0
N33 N 0.98472 0.1235 0.59371 0.0
C34 C 0.00406 0.16829 0.57741 0.0
C35 C 0.0122 0.15913 0.61478 0.0
C36 C 0.98825 0.14096 0.57612 0.0
C37 C -0.0037 0.13191 0.61282 0.0
C38 C 0.01647 0.27369 0.55741 0.0
C39 C 0.00969 0.25272 0.5415 0.0
C40 C 0.02815 0.30202 0.55193 0.0
C41 C 0.01507 0.26033 0.52033 0.0
C42 C 0.03312 0.30881 0.53056 0.0
N43 N 0.02658 0.28799 0.51534 0.0
C44 C 0.94452 0.23477 0.57532 0.0
C45 C 0.94521 0.19743 0.60222 0.0
C46 C 0.91706 0.22377 0.56765 0.0
N47 N 0.95855 0.2209 0.59182 0.0
C48 C 0.91779 0.18553 0.59499 0.0
C49 C 0.9038 0.19825 0.57711 0.0
H50 H 0.95511 0.25383 0.5676 0.0
H51 H 0.95631 0.18717 0.61563 0.0
C52 C 0.07478 0.20141 0.55608 0.0
N53 N 0.07284 0.23125 0.5609 0.0
C54 C 0.09014 0.19201 0.53802 0.0
C55 C 0.10306 0.24407 0.53068 0.0
C56 C 0.08708 0.25253 0.54885 0.0
C57 C 0.10407 0.21349 0.52488 0.0
H58 H 0.064 0.18481 0.56609 0.0
H59 H 0.08548 0.27612 0.553 0.0
O60 O 0.00419 0.25582 0.62638 0.0
O61 O 0.06685 0.26286 0.60908 0.0
O62 O 0.03161 0.20417 0.5985 0.0
O63 O 0.01153 0.26656 0.57825 0.0
H64 H 0.95761 0.29104 0.61789 0.0
H65 H 0.98664 0.21294 0.65299 0.0
H66 H 0.90606 0.28402 0.63261 0.0
H67 H 0.93465 0.20742 0.66723 0.0
H68 H 0.13897 0.32219 0.57887 0.0
H69 H 0.11057 0.22235 0.60775 0.0
H70 H 0.08715 0.31423 0.59285 0.0
H71 H 0.16194 0.23184 0.59337 0.0
H72 H 0.05618 0.21788 0.70006 0.0
H73 H 0.10853 0.1594 0.65926 0.0
H74 H 0.97648 0.37947 0.59547 0.0
H75 H 0.05472 0.38137 0.63666 0.0
H76 H 0.00679 0.18222 0.56343 0.0
H77 H 0.02111 0.16592 0.63003 0.0
H78 H 0.97873 0.13367 0.56115 0.0
H79 H 0.99307 0.11755 0.62652 0.0
H80 H 0.00058 0.23072 0.54547 0.0
H81 H 0.03374 0.31845 0.56403 0.0
H82 H 0.01013 0.24425 0.50786 0.0
H83 H 0.04233 0.33058 0.52609 0.0
H84 H 0.90718 0.2342 0.55376 0.0
H85 H 0.90808 0.16609 0.60294 0.0
H86 H 0.09101 0.16812 0.5343 0.0
H87 H 0.11364 0.26126 0.52093 0.0
Li88 Li 0.23676 0.00115 0.38858 0.0
Li89 Li 0.2812 0.97075 0.38126 0.0
Li90 Li 0.23243 0.95834 0.36561 0.0
Li91 Li 0.24196 0.95023 0.40341 0.0
C92 C 0.2588 0.02388 0.35392 0.0
N93 N 0.26149 0.08374 0.34162 0.0
C94 C 0.28585 0.04008 0.35574 0.0
C95 C 0.23315 0.03806 0.34576 0.0
C96 C 0.28675 0.07033 0.34943 0.0
C97 C 0.23495 0.06836 0.33967 0.0
C98 C 0.27125 0.98567 0.43024 0.0
C99 C 0.29207 0.96255 0.46166 0.0
N100 N 0.27697 0.98281 0.47387 0.0
C101 C 0.25599 0.00629 0.44312 0.0
C102 C 0.28952 0.96366 0.43959 0.0
C103 C 0.25918 0.00447 0.46514 0.0
C104 C 0.19291 0.04507 0.39751 0.0
N105 N 0.22306 0.04052 0.3954 0.0
C106 C 0.2338 0.08984 0.40895 0.0
C107 C 0.2435 0.06238 0.40051 0.0
C108 C 0.2028 0.09467 0.41223 0.0
C109 C 0.18222 0.07216 0.40583 0.0
H110 H 0.17723 0.02708 0.39376 0.0
H111 H 0.26739 0.05787 0.39903 0.0
C112 C 0.33495 0.96801 0.35683 0.0
N113 N 0.32347 0.97223 0.37661 0.0
C114 C 0.36614 0.96904 0.35354 0.0
C115 C 0.37286 0.9794 0.39092 0.0
C116 C 0.34165 0.97818 0.39347 0.0
C117 C 0.38551 0.97463 0.37078 0.0
H118 H 0.31985 0.96382 0.34365 0.0
H119 H 0.33192 0.98227 0.40888 0.0
C120 C 0.17901 0.958 0.38337 0.0
N121 N 0.12516 0.93441 0.3684 0.0
C122 C 0.16819 0.9304 0.39111 0.0
C123 C 0.16234 0.9737 0.36812 0.0
C124 C 0.14092 0.91885 0.38333 0.0
C125 C 0.13522 0.96135 0.36071 0.0
C126 C 0.28459 0.91304 0.37221 0.0
C127 C 0.28743 0.90673 0.35058 0.0
C128 C 0.30627 0.90236 0.38645 0.0
C129 C 0.31212 0.88995 0.34352 0.0
C130 C 0.33067 0.88573 0.37876 0.0
N131 N 0.33306 0.87993 0.35763 0.0
C132 C 0.20892 0.957 0.32352 0.0
C133 C 0.20272 0.91216 0.34366 0.0
C134 C 0.19422 0.94377 0.30621 0.0
N135 N 0.21273 0.94109 0.34175 0.0
C136 C 0.18779 0.89811 0.32683 0.0
C137 C 0.18344 0.9139 0.30774 0.0
H138 H 0.21744 0.97986 0.32238 0.0
H139 H 0.20625 0.90006 0.35836 0.0
C140 C 0.21617 0.93824 0.4431 0.0
N141 N 0.23222 0.92553 0.42707 0.0
C142 C 0.20758 0.92099 0.4606 0.0
C143 C 0.23102 0.87749 0.44435 0.0
C144 C 0.23979 0.8958 0.42735 0.0
C145 C 0.21477 0.89019 0.46122 0.0
H146 H 0.20964 0.9617 0.44211 0.0
H147 H 0.25205 0.88618 0.41417 0.0
O148 O 0.25732 0.99439 0.36032 0.0
O149 O 0.26817 0.98685 0.40864 0.0
O150 O 0.20597 0.96938 0.39044 0.0
O151 O 0.26091 0.9299 0.37938 0.0
H152 H 0.30588 0.02951 0.36211 0.0
H153 H 0.21197 0.02591 0.34441 0.0
H154 H 0.3075 0.08319 0.35083 0.0
H155 H 0.21524 0.07969 0.33345 0.0
H156 H 0.30597 0.94552 0.46909 0.0
H157 H 0.24155 0.02331 0.43625 0.0
H158 H 0.30128 0.94734 0.4299 0.0
H159 H 0.24739 0.02021 0.47528 0.0
H160 H 0.2504 0.10663 0.4136 0.0
H161 H 0.15818 0.07462 0.40845 0.0
H162 H 0.375 0.9652 0.33776 0.0
H163 H 0.38691 0.98451 0.40454 0.0
H164 H 0.18082 0.91787 0.40284 0.0
H165 H 0.17051 0.99496 0.36183 0.0
H166 H 0.13235 0.89745 0.38911 0.0
H167 H 0.12222 0.97314 0.34879 0.0
H168 H 0.27095 0.91496 0.33933 0.0
H169 H 0.30442 0.90709 0.40323 0.0
H170 H 0.3147 0.88502 0.32682 0.0
H171 H 0.34772 0.87747 0.38958 0.0
H172 H 0.19178 0.95662 0.2917 0.0
H173 H 0.17954 0.87522 0.32884 0.0
H174 H 0.19449 0.93134 0.47313 0.0
H175 H 0.23664 0.8537 0.44427 0.0
Li176 Li 0.95189 0.76348 0.62329 0.0
Li177 Li 0.96733 0.71297 0.6106 0.0
Li178 Li 0.99359 0.75678 0.59799 0.0
Li179 Li 0.94349 0.74754 0.58723 0.0
C180 C 0.01803 0.75293 0.63513 0.0
N181 N 0.07333 0.77578 0.64788 0.0
C182 C 0.04158 0.73333 0.64027 0.0
C183 C 0.02253 0.78415 0.63664 0.0
C184 C 0.06939 0.74533 0.64665 0.0
C185 C 0.05067 0.79526 0.64307 0.0
C186 C 0.91015 0.71812 0.62986 0.0
C187 C 0.86391 0.70016 0.64576 0.0
N188 N 0.879 0.6948 0.66417 0.0
C189 C 0.92522 0.71246 0.64896 0.0
C190 C 0.87925 0.71198 0.62825 0.0
C191 C 0.90906 0.70066 0.66611 0.0
C192 C 0.90603 0.79332 0.64532 0.0
N193 N 0.93545 0.78489 0.64663 0.0
C194 C 0.93908 0.80447 0.68186 0.0
C195 C 0.95197 0.78985 0.66449 0.0
C196 C 0.90877 0.81365 0.68092 0.0
C197 C 0.89218 0.80788 0.66234 0.0
H198 H 0.8932 0.78831 0.63113 0.0
H199 H 0.97497 0.78197 0.66544 0.0
C200 C 0.00081 0.66038 0.61647 0.0
N201 N 0.97218 0.67128 0.61686 0.0
C202 C 0.00603 0.6295 0.61891 0.0
C203 C 0.95214 0.62163 0.62197 0.0
C204 C 0.94798 0.65261 0.61943 0.0
C205 C 0.98145 0.60966 0.62152 0.0
H206 H 0.0195 0.67557 0.61346 0.0
H207 H 0.92534 0.66149 0.61881 0.0
C208 C 0.94893 0.8062 0.58295 0.0
N209 N 0.92329 0.84375 0.55295 0.0
C210 C 0.96232 0.80951 0.563 0.0
C211 C 0.92268 0.82223 0.58771 0.0
C212 C 0.94899 0.82857 0.54804 0.0
C213 C 0.91 0.84102 0.5723 0.0
C214 C 0.97179 0.69841 0.56854 0.0
C215 C 0.99297 0.68706 0.55423 0.0
C216 C 0.94331 0.68475 0.57004 0.0
C217 C 0.98532 0.66222 0.54161 0.0
C218 C 0.93654 0.65994 0.55716 0.0
N219 N 0.9575 0.64928 0.54333 0.0
C220 C 0.05396 0.75118 0.58433 0.0
C221 C 0.03539 0.8013 0.58505 0.0
C222 C 0.08096 0.76101 0.57512 0.0
N223 N 0.03171 0.77128 0.58867 0.0
C224 C 0.06172 0.81205 0.57554 0.0
C225 C 0.0848 0.79175 0.56999 0.0
H226 H 0.05036 0.72741 0.58752 0.0
H227 H 0.01737 0.81679 0.58884 0.0
C228 C 0.88707 0.75861 0.56797 0.0
N229 N 0.91646 0.75205 0.56401 0.0
C230 C 0.86793 0.76687 0.55137 0.0
C231 C 0.90939 0.76007 0.52689 0.0
C232 C 0.92765 0.7518 0.54394 0.0
C233 C 0.87929 0.76856 0.53056 0.0
H234 H 0.87891 0.75878 0.58414 0.0
H235 H 0.95126 0.74692 0.54131 0.0
O236 O 0.99082 0.7417 0.62836 0.0
O237 O 0.92521 0.73014 0.61287 0.0
O238 O 0.9612 0.787 0.59761 0.0
O239 O 0.97929 0.72249 0.58114 0.0
H240 H 0.03845 0.70913 0.63941 0.0
H241 H 0.00459 0.79965 0.63257 0.0
H242 H 0.08785 0.73042 0.65063 0.0
H243 H 0.05452 0.81936 0.64415 0.0
H244 H 0.83998 0.69528 0.64473 0.0
H245 H 0.94909 0.71709 0.65059 0.0
H246 H 0.86725 0.71633 0.6136 0.0
H247 H 0.92043 0.69617 0.68097 0.0
H248 H 0.95246 0.80791 0.69605 0.0
H249 H 0.86879 0.81464 0.66093 0.0
H250 H 0.02894 0.62115 0.61796 0.0
H251 H 0.93256 0.60715 0.62396 0.0
H252 H 0.9824 0.79696 0.55891 0.0
H253 H 0.91206 0.82005 0.60306 0.0
H254 H 0.95895 0.8311 0.53247 0.0
H255 H 0.88956 0.85338 0.57573 0.0
H256 H 0.01514 0.69734 0.55293 0.0
H257 H 0.9266 0.69309 0.58104 0.0
H258 H 0.00151 0.65321 0.53046 0.0
H259 H 0.91462 0.64914 0.55819 0.0
H260 H 0.09826 0.74457 0.5716 0.0
H261 H 0.06321 0.83584 0.57169 0.0
H262 H 0.84477 0.77281 0.55489 0.0
H263 H 0.9193 0.7615 0.51123 0.0
Li264 Li 0.76109 0.03732 0.37331 0.0
Li265 Li 0.74895 0.04143 0.41095 0.0
Li266 Li 0.75741 0.9923 0.39418 0.0
Li267 Li 0.71198 0.02135 0.38671 0.0
C268 C 0.81364 0.03748 0.39273 0.0
N269 N 0.8679 0.06326 0.38062 0.0
C270 C 0.82291 0.06503 0.40148 0.0
C271 C 0.83205 0.02293 0.37794 0.0
C272 C 0.85042 0.0777 0.39514 0.0
C273 C 0.85936 0.03639 0.37197 0.0
C274 C 0.70659 0.08002 0.3802 0.0
C275 C 0.6584 0.10369 0.3862 0.0
N276 N 0.65822 0.11344 0.36573 0.0
C277 C 0.70601 0.09036 0.35925 0.0
C278 C 0.6827 0.08684 0.39383 0.0
C279 C 0.68133 0.10721 0.35224 0.0
C280 C 0.78619 0.04256 0.33207 0.0
N281 N 0.78168 0.05698 0.35082 0.0
C282 C 0.80763 0.10086 0.33825 0.0
C283 C 0.79172 0.08565 0.3541 0.0
C284 C 0.81285 0.08656 0.31868 0.0
C285 C 0.80177 0.05702 0.31569 0.0
H286 H 0.77758 0.0199 0.32982 0.0
H287 H 0.78752 0.09661 0.36914 0.0
C288 C 0.77606 0.05055 0.45011 0.0
N289 N 0.75643 0.06337 0.43625 0.0
C290 C 0.78403 0.0655 0.46874 0.0
C291 C 0.75163 0.10684 0.45844 0.0
C292 C 0.74403 0.09088 0.44003 0.0
C293 C 0.77204 0.09417 0.473 0.0
H294 H 0.78599 0.02889 0.44644 0.0
H295 H 0.72873 0.10067 0.42859 0.0
C296 C 0.73874 0.97195 0.35774 0.0
N297 N 0.73988 0.91355 0.34229 0.0
C298 C 0.71225 0.95466 0.35716 0.0
C299 C 0.76577 0.95963 0.35035 0.0
C300 C 0.71331 0.92516 0.34931 0.0
C301 C 0.76589 0.93003 0.34264 0.0
C302 C 0.71998 0.00291 0.43514 0.0
C303 C 0.73758 0.9841 0.44793 0.0
C304 C 0.69824 0.02146 0.44446 0.0
C305 C 0.73324 0.98432 0.46988 0.0
C306 C 0.69463 0.02107 0.46647 0.0
N307 N 0.71206 0.00267 0.47862 0.0
C308 C 0.80129 0.94877 0.40473 0.0
C309 C 0.75078 0.93078 0.40353 0.0
C310 C 0.81092 0.92169 0.41377 0.0
N311 N 0.77159 0.95298 0.4003 0.0
C312 C 0.7594 0.90334 0.41251 0.0
C313 C 0.78966 0.89894 0.41844 0.0
H314 H 0.81719 0.9671 0.40252 0.0
H315 H 0.72719 0.9351 0.40033 0.0
C316 C 0.65831 0.02586 0.36186 0.0
N317 N 0.67022 0.01694 0.38074 0.0
C318 C 0.6278 0.02062 0.35741 0.0
C319 C 0.62283 -0.00366 0.39161 0.0
C320 C 0.65322 0.00236 0.39549 0.0
C321 C 0.60982 0.00539 0.37234 0.0
H322 H 0.6726 0.03654 0.35013 0.0
H323 H 0.6634 0.99483 0.41012 0.0
O324 O 0.7865 0.025 0.39839 0.0
O325 O 0.73042 0.0633 0.38732 0.0
O326 O 0.73829 0.00071 0.36566 0.0
O327 O 0.72428 0.0035 0.41365 0.0
H328 H 0.80887 0.0767 0.41284 0.0
H329 H 0.82513 0.00167 0.37094 0.0
H330 H 0.85781 0.09909 0.40169 0.0
H331 H 0.87372 0.0255 0.36043 0.0
H332 H 0.63966 0.10898 0.39653 0.0
H333 H 0.72428 0.08523 0.34847 0.0
H334 H 0.68279 0.07898 0.41008 0.0
H335 H 0.68051 0.11526 0.33604 0.0
H336 H 0.81603 0.12343 0.3414 0.0
H337 H 0.80472 0.04531 0.30076 0.0
H338 H 0.80033 0.0552 0.4793 0.0
H339 H 0.74195 0.12893 0.46116 0.0
H340 H 0.69115 0.9638 0.36284 0.0
H341 H 0.78649 0.97266 0.35078 0.0
H342 H 0.69301 0.91147 0.34884 0.0
H343 H 0.78668 0.92014 0.33699 0.0
H344 H 0.75469 0.96977 0.44105 0.0
H345 H 0.6845 0.03622 0.43481 0.0
H346 H 0.74681 0.97 0.47997 0.0
H347 H 0.67801 0.03544 0.4739 0.0
H348 H 0.83436 0.91951 0.41841 0.0
H349 H 0.74234 0.88633 0.41571 0.0
H350 H 0.61858 0.02765 0.34228 0.0
H351 H 0.60962 0.98473 0.40358 0.0
Li352 Li 0.93998 0.24271 0.09719 0.0
Li353 Li 0.95454 0.23395 0.13408 0.0
Li354 Li 0.96533 0.28163 0.11693 0.0
Li355 Li 0.99285 0.23613 0.10723 0.0
C356 C 0.89509 0.26399 0.11881 0.0
N357 N 0.83417 0.26222 0.10924 0.0
C358 C 0.87582 0.24431 0.12974 0.0
C359 C 0.88335 0.28276 0.10301 0.0
C360 C 0.84509 0.24378 0.12468 0.0
C361 C 0.85251 0.28151 0.0984 0.0
C362 C 0.97192 0.18079 0.10237 0.0
C363 C 0.00783 0.14027 0.10602 0.0
N364 N 0.00021 0.13013 0.08635 0.0
C365 C 0.96439 0.1699 0.08222 0.0
C366 C 0.99374 0.16578 0.11442 0.0
C367 C 0.97895 0.14427 0.0744 0.0
C368 C 0.9168 0.24272 0.05542 0.0
N369 N 0.91223 0.23217 0.07542 0.0
C370 C 0.87379 0.19841 0.06321 0.0
C371 C 0.89091 0.21084 0.07964 0.0
C372 C 0.87903 0.20773 0.04221 0.0
C373 C 0.90023 0.23085 0.03848 0.0
H374 H 0.93446 0.2591 0.05245 0.0
H375 H 0.88834 0.20232 0.09562 0.0
C376 C 0.928 0.23412 0.17446 0.0
N377 N 0.94182 0.21609 0.15999 0.0
C378 C 0.91616 0.22178 0.19305 0.0
C379 C 0.93374 0.17268 0.18179 0.0
C380 C 0.94502 0.18594 0.16332 0.0
C381 C 0.9187 0.19062 0.19678 0.0
H382 H 0.92556 0.258 0.17126 0.0
H383 H 0.95564 0.17206 0.15142 0.0
C384 C 0.98598 0.29215 0.07899 0.0
N385 N 0.00838 0.34559 0.06255 0.0
C386 C 0.01702 0.29801 0.07934 0.0
C387 C 0.96633 0.31338 0.0702 0.0
C388 C 0.02791 0.32517 0.07094 0.0
C389 C 0.9781 0.3403 0.06201 0.0
C390 C -0.00051 0.25582 0.1557 0.0
C391 C 0.99005 0.27901 0.16916 0.0
C392 C 0.01411 0.23062 0.16415 0.0
C393 C 0.99526 0.2765 0.19095 0.0
C394 C 0.01884 0.22893 0.18603 0.0
N395 N 0.00938 0.25171 0.19887 0.0
C396 C 0.94597 0.34255 0.11844 0.0
C397 C -0.00194 0.33464 0.12514 0.0
C398 C 0.95001 0.37377 0.11968 0.0
N399 N 0.96994 0.32381 0.12084 0.0
C400 C 0.0031 0.36569 0.12671 0.0
C401 C 0.97894 0.38565 0.12367 0.0
H402 H 0.92385 0.33331 0.1152 0.0
H403 H 0.01669 0.3191 0.12691 0.0
C404 C 0.02654 0.21325 0.075 0.0
N405 N 0.02918 0.22066 0.09582 0.0
C406 C 0.05048 0.19996 0.06436 0.0
C407 C 0.08041 0.20377 0.0964 0.0
C408 C 0.05547 0.21659 0.10664 0.0
C409 C 0.07768 0.19488 0.0751 0.0
H410 H 0.00547 0.21724 0.06679 0.0
H411 H 0.05697 0.22301 0.12316 0.0
O412 O 0.92533 0.26464 0.12337 0.0
O413 O 0.95846 0.20631 0.11011 0.0
O414 O 0.97479 0.26613 0.08775 0.0
O415 O 0.99393 0.2575 0.13439 0.0
H416 H 0.88447 0.22936 0.14183 0.0
H417 H 0.89798 0.29771 0.0941 0.0
H418 H 0.82994 0.22861 0.13298 0.0
H419 H 0.84317 0.29577 0.08612 0.0
H420 H 0.02494 0.12862 0.1151 0.0
H421 H 0.94778 0.18127 0.07256 0.0
H422 H 0.00018 0.17409 0.12991 0.0
H423 H 0.97344 0.1357 0.05879 0.0
H424 H 0.85749 0.18082 0.06681 0.0
H425 H 0.90532 0.23835 0.02252 0.0
H426 H 0.90489 0.23639 0.2043 0.0
H427 H 0.93579 0.1485 0.18396 0.0
H428 H 0.03253 0.28197 0.08627 0.0
H429 H 0.94222 0.30933 0.06999 0.0
H430 H 0.05186 0.33009 0.0712 0.0
H431 H 0.96315 0.35705 0.05531 0.0
H432 H 0.97848 0.29856 0.16289 0.0
H433 H 0.02146 0.21244 0.15395 0.0
H434 H 0.98793 0.2942 0.20158 0.0
H435 H 0.02996 0.20948 0.19281 0.0
H436 H 0.93077 0.38847 0.11748 0.0
H437 H 0.02577 0.37403 0.12962 0.0
H438 H 0.0478 0.19369 0.04784 0.0
H439 H 0.10124 0.20022 0.10504 0.0
Li440 Li 0.24509 0.05576 0.90559 0.0
Li441 Li 0.23472 0.00591 0.89141 0.0
Li442 Li 0.282 0.03009 0.88375 0.0
Li443 Li 0.23457 0.04808 0.86731 0.0
C444 C 0.25998 0.00741 0.9318 0.0
N445 N 0.24592 0.98624 0.97187 0.0
C446 C 0.23028 0.00877 0.93927 0.0
C447 C 0.28252 0.99528 0.94474 0.0
C448 C 0.22363 -0.00205 0.95955 0.0
C449 C 0.27496 0.98471 0.96495 0.0
C450 C 0.17729 0.04 0.89053 0.0
C451 C 0.13154 0.0291 0.87112 0.0
N452 N 0.11498 0.03715 0.88836 0.0
C453 C 0.15981 0.0482 0.90806 0.0
C454 C 0.16305 0.03038 0.87191 0.0
C455 C 0.12835 0.04659 0.90665 0.0
C456 C 0.21486 0.10289 0.92459 0.0
N457 N 0.23715 0.08265 0.92835 0.0
C458 C 0.23793 0.0956 0.96515 0.0
C459 C 0.24981 0.07975 0.94792 0.0
C460 C 0.21306 0.11472 0.96203 0.0
C461 C 0.20248 0.11934 0.94126 0.0
H462 H 0.20547 0.10489 0.9088 0.0
H463 H 0.26793 0.06387 0.95043 0.0
C464 C 0.2378 0.94497 0.9028 0.0
N465 N 0.21774 0.96756 0.89915 0.0
C466 C 0.22827 0.91781 0.91189 0.0
C467 C 0.17752 0.9375 0.91318 0.0
C468 C 0.18795 0.96405 0.90373 0.0
C469 C 0.19788 0.91411 0.91785 0.0
H470 H 0.2615 0.94857 0.89949 0.0
H471 H 0.17241 0.98232 0.90119 0.0
C472 C 0.28911 0.09256 0.88815 0.0
N473 N 0.33278 0.13237 0.90257 0.0
C474 C 0.29413 0.11984 0.87755 0.0
C475 C 0.30626 0.08552 0.90611 0.0
C476 C 0.31633 0.13968 0.88508 0.0
C477 C 0.32824 0.10594 0.91313 0.0
C478 C 0.2533 0.9797 0.85631 0.0
C479 C 0.27886 0.96128 0.85627 0.0
C480 C 0.22561 0.96799 0.84939 0.0
C481 C 0.27617 0.93126 0.84963 0.0
C482 C 0.22384 0.93785 0.84291 0.0
N483 N 0.24894 0.92025 0.84317 0.0
C484 C 0.33716 0.00216 0.89122 0.0
C485 C 0.3393 0.04104 0.86534 0.0
C486 C 0.36791 -0.00343 0.88882 0.0
N487 N 0.32362 0.02405 0.87957 0.0
C488 C 0.37019 0.03632 0.8625 0.0
C489 C 0.38482 0.01377 0.87431 0.0
H490 H 0.32396 0.98893 0.90229 0.0
H491 H 0.32778 0.05821 0.85624 0.0
C492 C 0.20741 0.09516 0.84479 0.0
N493 N 0.21665 0.06602 0.84329 0.0
C494 C 0.19318 0.10903 0.82761 0.0
C495 C 0.19823 0.06252 0.80778 0.0
C496 C 0.21264 0.04966 0.82526 0.0
C497 C 0.18825 0.09256 0.80886 0.0
H498 H 0.21089 0.1075 0.85941 0.0
H499 H 0.22035 0.02654 0.82455 0.0
O500 O 0.26707 0.01744 0.91185 0.0
O501 O 0.20813 0.04155 0.89167 0.0
O502 O 0.26748 0.07295 0.88089 0.0
O503 O 0.25544 0.00905 0.863 0.0
H504 H 0.21252 0.01805 0.92955 0.0
H505 H 0.30563 0.99407 0.93925 0.0
H506 H 0.20074 -0.00114 0.96549 0.0
H507 H 0.2922 0.97528 0.97513 0.0
H508 H 0.12025 0.02167 0.8568 0.0
H509 H 0.17039 0.05554 0.92267 0.0
H510 H 0.17612 0.02386 0.85823 0.0
H511 H 0.11456 0.05281 0.92011 0.0
H512 H 0.24681 0.09139 0.98088 0.0
H513 H 0.18381 0.13441 0.93807 0.0
H514 H 0.24478 0.90035 0.91485 0.0
H515 H 0.15403 0.93618 0.91783 0.0
H516 H 0.28101 0.1256 0.86364 0.0
H517 H 0.30275 0.06452 0.91452 0.0
H518 H 0.32048 0.16087 0.87703 0.0
H519 H 0.3417 0.10078 0.92699 0.0
H520 H 0.30052 0.96999 0.86136 0.0
H521 H 0.20562 0.98188 0.84926 0.0
H522 H 0.29574 0.91671 0.84962 0.0
H523 H 0.2025 0.92843 0.83769 0.0
H524 H 0.37839 0.97923 0.89841 0.0
H525 H 0.3824 0.04989 0.85103 0.0
H526 H 0.18559 0.13217 0.8291 0.0
H527 H 0.19512 0.0492 0.79351 0.0
Li528 Li -0.00375 0.75883 0.10112 0.0
Li529 Li 0.02699 0.71434 0.10848 0.0
Li530 Li 0.03876 0.76339 0.12427 0.0
Li531 Li 0.04741 0.75428 0.08657 0.0
C532 C 0.97341 0.73636 0.13569 0.0
N533 N 0.91361 0.73322 0.148 0.0
C534 C 0.95772 0.70892 0.13459 0.0
C535 C 0.95878 0.76215 0.14319 0.0
C536 C 0.92748 0.70782 0.14086 0.0
C537 C 0.92851 0.76012 0.14928 0.0
C538 C 0.01269 0.72351 0.05975 0.0
C539 C 0.03537 0.69986 0.02922 0.0
N540 N 0.01615 0.71526 0.01636 0.0
C541 C 0.99307 0.73901 0.04623 0.0
C542 C 0.03391 0.70366 0.0512 0.0
C543 C 0.9952 0.73455 0.02434 0.0
C544 C 0.95156 0.801 0.0896 0.0
N545 N 0.95691 0.77129 0.09335 0.0
C546 C 0.9094 0.75739 0.0782 0.0
C547 C 0.93627 0.7496 0.08835 0.0
C548 C 0.90397 0.78775 0.07297 0.0
C549 C 0.925 0.80981 0.07946 0.0
H550 H 0.96872 0.81765 0.09328 0.0
H551 H 0.94151 0.72607 0.09107 0.0
C552 C 0.03339 0.65863 0.13091 0.0
N553 N 0.02456 0.67192 0.11248 0.0
C554 C 0.0296 0.62753 0.13376 0.0
C555 C 0.00687 0.62472 0.09891 0.0
C556 C 0.01144 0.65568 0.09664 0.0
C557 C 0.01586 0.61032 0.11769 0.0
H558 H 0.04277 0.67224 0.14355 0.0
H559 H 0.00385 0.66687 0.0824 0.0
C560 C 0.03834 0.81706 0.10674 0.0
N561 N 0.06059 0.87119 0.12217 0.0
C562 C 0.06629 0.82802 0.0998 0.0
C563 C 0.02159 0.83372 0.12139 0.0
C564 C 0.07716 0.85543 0.10781 0.0
C565 C 0.03327 0.86099 0.12906 0.0
C566 C 0.08566 0.71215 0.11755 0.0
C567 C 0.09356 0.71016 0.13898 0.0
C568 C 0.09636 0.69061 0.10323 0.0
C569 C 0.11187 0.68641 0.14576 0.0
C570 C 0.11456 0.66717 0.11065 0.0
N571 N 0.12187 0.66557 0.13158 0.0
C572 C 0.03919 0.78694 0.16635 0.0
C573 C 0.0844 0.79325 0.14668 0.0
C574 C 0.05209 0.80151 0.18384 0.0
N575 N 0.05545 0.78319 0.14828 0.0
C576 C 0.09813 0.80802 0.16369 0.0
C577 C 0.08201 0.81222 0.18266 0.0
H578 H 0.0163 0.77844 0.16723 0.0
H579 H 0.09679 0.78977 0.13211 0.0
C580 C 0.05832 0.78056 0.04716 0.0
N581 N 0.07165 0.76428 0.06282 0.0
C582 C 0.07483 0.7894 0.0294 0.0
C583 C 0.11897 0.76574 0.04465 0.0
C584 C 0.10136 0.75672 0.06194 0.0
C585 C 0.10558 0.78221 0.02812 0.0
H586 H 0.03491 0.78706 0.04864 0.0
H587 H 0.11148 0.74425 0.07485 0.0
O588 O 0.00289 0.73802 0.12933 0.0
O589 O 0.01128 0.72788 0.08122 0.0
O590 O 0.02763 0.78994 0.09946 0.0
O591 O 0.06763 0.73512 0.11061 0.0
H592 H 0.96868 0.68874 0.12882 0.0
H593 H 0.97057 0.78358 0.14405 0.0
H594 H 0.91501 0.68677 0.14002 0.0
H595 H 0.91683 0.77994 0.15498 0.0
H596 H 0.05179 0.68469 0.02239 0.0
H597 H 0.97663 0.75462 0.05251 0.0
H598 H 0.04922 0.69146 0.06143 0.0
H599 H 0.98028 0.74652 0.0137 0.0
H600 H 0.89371 0.73971 0.07361 0.0
H601 H 0.922 0.8334 0.07545 0.0
H602 H 0.03643 0.61722 0.14858 0.0
H603 H -0.00371 0.61216 0.08613 0.0
H604 H 0.07961 0.81537 0.08852 0.0
H605 H -3e-05 0.82548 0.12699 0.0
H606 H 0.09883 0.86413 0.10267 0.0
H607 H 0.02066 0.87401 0.14053 0.0
H608 H 0.0854 0.72657 0.1503 0.0
H609 H 0.09055 0.6919 0.08659 0.0
H610 H 0.11805 0.6845 0.16231 0.0
H611 H 0.12288 0.65025 0.09976 0.0
H612 H 0.03897 0.80386 0.19823 0.0
H613 H 0.12106 0.81625 0.16194 0.0
H614 H 0.06398 0.80266 0.01715 0.0
H615 H 0.14275 0.76013 0.04422 0.0
Li616 Li 0.75754 0.99335 0.89235 0.0
Li617 Li 0.75035 0.94271 0.90379 0.0
Li618 Li 0.76263 0.95353 0.86679 0.0
Li619 Li 0.71329 0.96679 0.88153 0.0
C620 C 0.80936 0.96307 0.90754 0.0
N621 N 0.85268 0.96748 0.93898 0.0
C622 C 0.80237 0.97657 0.92697 0.0
C623 C 0.83836 0.95179 0.90412 0.0
C624 C 0.82458 0.97861 0.94265 0.0
C625 C 0.85996 0.95423 0.92021 0.0
C626 C 0.70211 0.96931 0.92422 0.0
C627 C 0.6661 0.93207 0.9364 0.0
N628 N 0.65602 0.95192 0.95123 0.0
C629 C 0.69141 0.98931 0.93961 0.0
C630 C 0.68938 0.94041 0.92262 0.0
C631 C 0.6681 0.98011 0.95311 0.0
C632 C 0.75401 0.04887 0.91336 0.0
N633 N 0.77263 0.03149 0.90143 0.0
C634 C 0.81454 0.0638 0.9091 0.0
C635 C 0.80215 0.03896 0.89853 0.0
C636 C 0.79638 0.08089 0.92286 0.0
C637 C 0.76546 0.07384 0.92429 0.0
H638 H 0.73063 0.04229 0.91536 0.0
H639 H 0.81648 0.02462 0.88902 0.0
C640 C 0.76704 0.88678 0.92158 0.0
N641 N 0.7579 0.91523 0.92635 0.0
C642 C 0.7763 0.86724 0.9377 0.0
C643 C 0.76575 0.90645 0.96332 0.0
C644 C 0.75657 0.92512 0.94674 0.0
C645 C 0.77637 0.87726 0.95889 0.0
H646 H 0.76803 0.87963 0.90518 0.0
H647 H 0.74956 0.94797 0.95011 0.0
C648 C 0.75228 0.01752 0.85475 0.0
N649 N 0.77766 0.0699 0.83869 0.0
C650 C 0.73485 0.0436 0.85267 0.0
C651 C 0.78265 0.01812 0.84869 0.0
C652 C 0.74809 0.06985 0.8445 0.0
C653 C 0.79506 0.0448 0.84059 0.0
C654 C 0.71877 0.90964 0.86165 0.0
C655 C 0.70881 0.92473 0.84347 0.0
C656 C 0.71644 0.87818 0.86275 0.0
C657 C 0.69661 0.90804 0.82669 0.0
C658 C 0.70409 0.8623 0.84564 0.0
N659 N 0.69452 0.87743 0.82811 0.0
C660 C 0.80341 0.91598 0.84565 0.0
C661 C 0.77588 0.94863 0.823 0.0
C662 C 0.81787 0.90297 0.82825 0.0
N663 N 0.78289 0.9383 0.84269 0.0
C664 C 0.78983 0.93631 0.80517 0.0
C665 C 0.81104 0.91304 0.80765 0.0
H666 H 0.80817 0.90801 0.86152 0.0
H667 H 0.75926 0.96626 0.82115 0.0
C668 C 0.6599 -0.00107 0.87546 0.0
N669 N 0.67118 0.9705 0.87654 0.0
C670 C 0.62893 0.00346 0.87309 0.0
C671 C 0.6217 0.94927 0.87328 0.0
C672 C 0.65282 0.94581 0.87563 0.0
C673 C 0.60939 0.97841 0.87208 0.0
H674 H 0.67492 0.0181 0.87703 0.0
H675 H 0.66217 0.92342 0.87717 0.0
O676 O 0.78803 0.96067 0.89189 0.0
O677 O 0.72483 0.97826 0.91085 0.0
O678 O 0.73995 0.99171 0.86308 0.0
O679 O 0.73119 0.92535 0.87821 0.0
H680 H 0.78004 0.98539 0.92993 0.0
H681 H 0.84411 0.94124 0.88917 0.0
H682 H 0.81947 0.98902 0.95775 0.0
H683 H 0.88251 0.94559 0.91778 0.0
H684 H 0.65605 0.90979 0.93531 0.0
H685 H 0.70103 0.01173 0.94113 0.0
H686 H 0.69734 0.92449 0.91093 0.0
H687 H 0.65961 0.99539 0.96508 0.0
H688 H 0.83839 0.06871 0.9073 0.0
H689 H 0.75067 0.08615 0.93484 0.0
H690 H 0.78397 0.8448 0.93357 0.0
H691 H 0.76588 0.91539 0.97931 0.0
H692 H 0.71136 0.04364 0.85728 0.0
H693 H 0.79668 -0.00164 0.85057 0.0
H694 H 0.73485 0.09019 0.84281 0.0
H695 H 0.81856 0.0456 0.83594 0.0
H696 H 0.71041 0.94905 0.84231 0.0
H697 H 0.72413 0.86618 0.8767 0.0
H698 H 0.68881 0.91942 0.81254 0.0
H699 H 0.70214 0.83794 0.84628 0.0
H700 H 0.83371 0.88478 0.83089 0.0
H701 H 0.78412 0.945 0.78962 0.0
H702 H 0.6203 0.02631 0.87271 0.0
H703 H 0.60743 0.92935 0.87254 0.0
H704 H 0.94856 0.56556 0.60185 0.0
H705 H 0.02534 0.57896 0.64322 0.0
H706 H 0.95683 0.51131 0.60262 0.0
H707 H 0.03369 0.52441 0.64395 0.0
H708 H 0.05781 0.42962 0.61672 0.0
H709 H 0.04973 0.48401 0.61961 0.0
H710 H 0.95387 0.46846 0.62689 0.0
H711 H 0.96193 0.4142 0.62394 0.0
C712 C 0.96695 0.55688 0.61138 0.0
C713 C 0.9862 0.57655 0.62257 0.0
C714 C 0.9717 0.52577 0.61181 0.0
C715 C -0.00416 0.51357 0.62343 0.0
C716 C 0.01509 0.53319 0.63469 0.0
C717 C 0.01031 0.56439 0.63427 0.0
C718 C 0.03508 0.43783 0.61924 0.0
C719 C 0.01047 0.41769 0.6199 0.0
C720 C 0.03046 0.46896 0.62091 0.0
C721 C 0.00113 0.48051 0.62329 0.0
C722 C 0.97666 0.46027 0.62464 0.0
C723 C 0.98128 0.42921 0.62295 0.0
H724 H 0.58051 0.95182 0.37784 0.0
H725 H 0.56672 0.04372 0.35715 0.0
H726 H 0.52659 0.94169 0.37423 0.0
H727 H 0.51254 0.03388 0.35396 0.0
H728 H 0.41753 0.00166 0.3387 0.0
H729 H 0.47239 0.00656 0.33567 0.0
H730 H 0.48295 0.95656 0.39409 0.0
H731 H 0.42852 0.95062 0.3966 0.0
C732 C 0.56587 0.96982 0.37247 0.0
C733 C 0.57764 -0.00135 0.36803 0.0
C734 C 0.53502 0.96406 0.37043 0.0
C735 C 0.51521 0.98709 0.36408 0.0
C736 C 0.52721 0.01557 0.35871 0.0
C737 C 0.55819 0.02126 0.3606 0.0
C738 C 0.43166 0.99126 0.35065 0.0
C739 C 0.41873 0.97594 0.36797 0.0
C740 C 0.46304 0.99433 0.34904 0.0
C741 C 0.48205 0.98204 0.36467 0.0
C742 C 0.46904 0.966 0.38163 0.0
C743 C 0.43779 0.96292 0.38323 0.0
H744 H 0.0112 0.41884 0.1525 0.0
H745 H 0.95848 0.42684 0.09514 0.0
H746 H 0.01966 0.47345 0.15257 0.0
H747 H 0.96745 0.48112 0.09483 0.0
H748 H 0.96338 0.58006 0.11031 0.0
H749 H 0.95398 0.52597 0.11315 0.0
H750 H 0.04613 0.51267 0.13382 0.0
H751 H 0.05513 0.56713 0.13153 0.0
C752 C 0.00159 0.43231 0.13986 0.0
C753 C 0.98403 0.41871 0.1239 0.0
C754 C 0.0065 0.46354 0.13984 0.0
C755 C 0.99412 0.48172 0.12376 0.0
C756 C 0.97675 0.46794 0.10773 0.0
C757 C 0.97165 0.43682 0.10786 0.0
C758 C 0.98158 0.56553 0.11548 0.0
C759 C 0.01004 0.57765 0.12053 0.0
C760 C 0.97626 0.53454 0.11704 0.0
C761 C -0.0006 0.5149 0.12347 0.0
C762 C 0.02772 0.52717 0.12901 0.0
C763 C 0.03294 0.5583 0.12765 0.0
H764 H 0.41354 0.95947 0.87166 0.0
H765 H 0.4301 0.05574 0.87125 0.0
H766 H 0.4677 0.95033 0.86948 0.0
H767 H 0.48432 0.04664 0.86919 0.0
H768 H 0.5785 0.01871 0.84741 0.0
H769 H 0.52401 0.02688 0.84621 0.0
H770 H 0.5112 0.95623 0.8927 0.0
H771 H 0.5655 0.94804 0.89385 0.0
C772 C 0.42878 0.97867 0.87116 0.0
C773 C 0.41761 0.00832 0.87176 0.0
C774 C 0.45979 0.97345 0.86992 0.0
C775 C 0.4803 -0.00224 0.8693 0.0
C776 C 0.46908 0.02742 0.86939 0.0
C777 C 0.43804 0.03265 0.87059 0.0
C778 C 0.564 0.00499 0.85739 0.0
C779 C 0.57627 0.98271 0.8707 0.0
C780 C 0.53283 0.00967 0.85671 0.0
C781 C 0.5133 0.99218 0.86934 0.0
C782 C 0.52558 0.96972 0.88249 0.0
C783 C 0.5567 0.96502 0.88315 0.0
H784 H 0.15258 0.12918 0.40497 0.0
H785 H 0.22817 0.11933 0.44778 0.0
H786 H 0.12961 0.16523 0.42937 0.0
H787 H 0.20534 0.15535 0.47201 0.0
H788 H 0.16054 0.22842 0.51043 0.0
H789 H 0.18663 0.20719 0.47954 0.0
H790 H 0.10689 0.15483 0.46428 0.0
H791 H 0.08099 0.17622 0.49476 0.0
C792 C 0.16454 0.13511 0.41939 0.0
C793 C 0.19199 0.12107 0.42457 0.0
C794 C 0.15141 0.15576 0.43334 0.0
C795 C 0.16548 0.16281 0.45273 0.0
C796 C 0.19405 0.1506 0.45712 0.0
C797 C 0.20716 0.12992 0.44319 0.0
C798 C 0.14853 0.21282 0.50017 0.0
C799 C 0.11893 0.20364 0.50505 0.0
C800 C 0.16345 0.20059 0.48259 0.0
C801 C 0.14882 0.17932 0.4695 0.0
C802 C 0.11869 0.17142 0.47387 0.0
C803 C 0.10395 0.18338 0.49147 0.0
H804 H 0.22243 0.89851 0.50372 0.0
H805 H 0.18026 0.83967 0.4578 0.0
H806 H 0.19795 0.87065 0.53244 0.0
H807 H 0.15426 0.81288 0.48611 0.0
H808 H 0.11541 0.76119 0.53878 0.0
H809 H 0.15373 0.78079 0.51501 0.0
H810 H 0.15032 0.86704 0.54717 0.0
H811 H 0.11431 0.8465 0.57223 0.0
C812 C 0.20803 0.87942 0.49987 0.0
C813 C 0.20311 0.87117 0.47865 0.0
C814 C 0.19378 0.86358 0.51626 0.0
C815 C 0.17372 0.83963 0.51172 0.0
C816 C 0.16987 0.83077 0.49041 0.0
C817 C 0.18462 0.84621 0.47409 0.0
C818 C 0.12354 0.78401 0.54131 0.0
C819 C 0.11123 0.80236 0.55733 0.0
C820 C 0.14523 0.79548 0.52734 0.0
C821 C 0.15477 0.82579 0.52873 0.0
C822 C 0.14378 0.84356 0.54553 0.0
C823 C 0.12257 0.8319 0.55975 0.0
H824 H 0.84116 0.86479 0.41625 0.0
H825 H 0.75817 0.87474 0.45156 0.0
H826 H 0.85907 0.82834 0.44244 0.0
H827 H 0.77564 0.83768 0.47724 0.0
H828 H 0.84109 0.81662 0.53305 0.0
H829 H 0.81563 0.84244 0.50423 0.0
H830 H 0.85157 0.77798 0.45955 0.0
H831 H 0.8768 0.75154 0.48861 0.0
C832 C 0.82652 0.85875 0.42935 0.0
C833 C 0.79837 0.87286 0.4319 0.0
C834 C 0.83664 0.83767 0.44424 0.0
C835 C 0.81885 0.8304 0.462 0.0
C836 C 0.78998 0.84313 0.46385 0.0
C837 C 0.77985 0.86412 0.44897 0.0
C838 C 0.84291 0.80732 0.51721 0.0
C839 C 0.86101 0.78195 0.51318 0.0
C840 C 0.82833 0.82221 0.50065 0.0
C841 C 0.8316 0.81224 0.47961 0.0
C842 C 0.84889 0.78633 0.47559 0.0
C843 C 0.86336 0.77126 0.49222 0.0
H844 H 0.77961 0.07388 0.51362 0.0
H845 H 0.78951 0.1533 0.47441 0.0
H846 H 0.80508 0.09998 0.54276 0.0
H847 H 0.81531 0.17924 0.50329 0.0
H848 H 0.89531 0.13807 0.57024 0.0
H849 H 0.85698 0.11417 0.54827 0.0
H850 H 0.81447 0.20077 0.53845 0.0
H851 H 0.85324 0.2248 0.5604 0.0
C852 C 0.78694 0.09704 0.51134 0.0
C853 C 0.78286 0.11146 0.49169 0.0
C854 C 0.80155 0.11197 0.52799 0.0
C855 C 0.81256 0.14158 0.5253 0.0
C856 C 0.80683 0.15658 0.50604 0.0
C857 C 0.79207 0.1417 0.48943 0.0
C858 C 0.87731 0.15191 0.56391 0.0
C859 C 0.87743 0.18335 0.56693 0.0
C860 C 0.85526 0.13819 0.55129 0.0
C861 C 0.83275 0.15558 0.54143 0.0
C862 C 0.83181 0.18681 0.5455 0.0
C863 C 0.85396 0.20056 0.55809 0.0
H864 H 0.84949 0.07566 0.94435 0.0
H865 H 0.77407 0.13601 0.93539 0.0
H866 H 0.86931 0.1085 0.97195 0.0
H867 H 0.79356 0.1685 0.96375 0.0
H868 H 0.85575 0.23087 0.00517 0.0
H869 H 0.83674 0.20247 0.97451 0.0
H870 H 0.85183 0.1189 0.0082 0.0
H871 H 0.8715 0.14694 0.03834 0.0
C872 C 0.8374 0.09624 0.94797 0.0
C873 C 0.81015 0.10317 0.93765 0.0
C874 C 0.84856 0.11484 0.96403 0.0
C875 C 0.83272 0.1408 0.97025 0.0
C876 C 0.80623 0.14862 0.95929 0.0
C877 C 0.79499 0.12992 0.94317 0.0
C878 C 0.85495 0.20643 0.00597 0.0
C879 C 0.86504 0.19116 0.02421 0.0
C880 C 0.84393 0.19022 0.98849 0.0
C881 C 0.84311 0.15847 0.98889 0.0
C882 C 0.85264 0.14334 0.00728 0.0
C883 C 0.86349 0.15945 0.0247 0.0
H884 H 0.23515 0.13919 -0.00076 0.0
H885 H 0.15214 0.1169 0.96654 0.0
H886 H 0.20582 0.15618 0.03001 0.0
H887 H 0.12323 0.13465 0.9966 0.0
H888 H 0.07685 0.13915 0.05781 0.0
H889 H 0.11299 0.11823 0.03266 0.0
H890 H 0.16971 0.19724 0.04034 0.0
H891 H 0.13363 0.21772 0.06611 0.0
C892 C 0.21073 0.13806 -0.00142 0.0
C893 C 0.19598 0.12691 0.98038 0.0
C894 C 0.19398 0.14789 0.01612 0.0
C895 C 0.16225 0.1464 0.01582 0.0
C896 C 0.14766 0.13556 -0.00248 0.0
C897 C 0.16426 0.12587 0.9801 0.0
C898 C 0.09745 0.15161 0.05448 0.0
C899 C 0.10253 0.18003 0.06366 0.0
C900 C 0.118 0.13982 0.04 0.0
C901 C 0.14383 0.15643 0.03416 0.0
C902 C 0.15002 0.18393 0.04454 0.0
C903 C 0.12946 0.19565 0.05926 0.0
H904 H 0.09529 0.77502 0.98581 0.0
H905 H 0.1562 0.81674 0.0306 0.0
H906 H 0.12149 0.80021 0.95663 0.0
H907 H 0.18137 0.84339 0.00185 0.0
H908 H 0.23011 0.88316 0.94805 0.0
H909 H 0.21191 0.84445 0.97207 0.0
H910 H 0.12387 0.84841 0.94243 0.0
H911 H 0.14293 0.88492 0.9171 0.0
C912 C 0.1145 0.78945 0.98931 0.0
C913 C 0.12379 0.79407 0.01035 0.0
C914 C 0.12937 0.8041 0.97266 0.0
C915 C 0.1534 0.82424 0.97678 0.0
C916 C 0.16337 0.82774 -0.00212 0.0
C917 C 0.14887 0.8126 0.01445 0.0
C918 C 0.20717 0.87507 0.94611 0.0
C919 C 0.18792 0.8876 0.93069 0.0
C920 C 0.19652 0.85315 0.96022 0.0
C921 C 0.16618 0.8436 0.9596 0.0
C922 C 0.14742 0.85493 0.94344 0.0
C923 C 0.15824 0.87639 0.92906 0.0
H924 H 0.8267 0.84194 0.95667 0.0
H925 H 0.75708 0.8709 0.00011 0.0
H926 H 0.85233 0.81622 0.98549 0.0
H927 H 0.78321 0.84538 0.02914 0.0
H928 H 0.86685 0.83711 0.07523 0.0
H929 H 0.83157 0.85468 0.04816 0.0
H930 H 0.84883 0.77451 0.0111 0.0
H931 H 0.88475 0.75745 0.03773 0.0
C932 C 0.81643 0.84223 0.97226 0.0
C933 C 0.78984 0.8586 0.97605 0.0
C934 C 0.8312 0.82749 0.98882 0.0
C935 C 0.81983 0.82883 0.00961 0.0
C936 C 0.79269 0.84426 0.01332 0.0
C937 C 0.77778 0.8589 0.9967 0.0
C938 C 0.86282 0.8231 0.06141 0.0
C939 C 0.87877 0.79601 0.05857 0.0
C940 C 0.84241 0.83301 0.046 0.0
C941 C 0.83764 0.81608 0.02741 0.0
C942 C 0.85232 0.78821 0.02514 0.0
C943 C 0.87264 0.77828 0.04054 0.0
H944 H 0.09912 0.12721 0.68859 0.0
H945 H 0.10249 0.2147 0.71903 0.0
H946 H 0.12457 0.10495 0.71893 0.0
H947 H 0.12618 0.19204 0.74997 0.0
H948 H 0.19822 0.14831 0.79164 0.0
H949 H 0.17288 0.17101 0.76123 0.0
H950 H 0.11688 0.09118 0.75493 0.0
H951 H 0.14286 0.0683 0.78496 0.0
C952 C 0.10524 0.14172 0.70176 0.0
C953 C 0.09883 0.17281 0.70128 0.0
C954 C 0.11946 0.12885 0.71933 0.0
C955 C 0.12742 0.14666 0.73696 0.0
C956 C 0.12074 0.17769 0.73658 0.0
C957 C 0.10673 0.19062 0.71893 0.0
C958 C 0.18039 0.13574 0.78377 0.0
C959 C 0.17256 0.10653 0.79059 0.0
C960 C 0.16578 0.14875 0.7664 0.0
C961 C 0.14281 0.13294 0.75558 0.0
C962 C 0.13483 0.1038 0.7626 0.0
C963 C 0.14965 0.09069 0.77984 0.0
H964 H 0.05688 0.85263 0.21043 0.0
H965 H 0.14006 0.80581 0.19675 0.0
H966 H 0.08079 0.87678 0.24095 0.0
H967 H 0.16432 0.83104 0.22655 0.0
H968 H 0.18937 0.85551 0.29417 0.0
H969 H 0.16394 0.83094 0.26458 0.0
H970 H 0.11854 0.9145 0.24961 0.0
H971 H 0.14286 0.93872 0.27992 0.0
C972 C 0.08025 0.84747 0.21393 0.0
C973 C 0.09654 0.82727 0.20113 0.0
C974 C 0.09407 0.86161 0.23127 0.0
C975 C 0.12449 0.85588 0.2362 0.0
C976 C 0.14076 0.83571 0.22337 0.0
C977 C 0.12694 0.82153 0.2061 0.0
C978 C 0.17367 0.86857 0.28475 0.0
C979 C 0.16812 0.89909 0.28947 0.0
C980 C 0.15938 0.85457 0.2676 0.0
C981 C 0.13928 0.87076 0.25465 0.0
C982 C 0.13366 0.90128 0.25938 0.0
C983 C 0.1479 0.91528 0.2766 0.0
H984 H 0.85256 0.80317 0.6973 0.0
H985 H 0.9326 0.85793 0.70623 0.0
H986 H 0.82911 0.82744 0.7278 0.0
H987 H 0.90908 0.88241 0.73665 0.0
H988 H 0.87 0.89574 0.80319 0.0
H989 H 0.89344 0.87151 0.77267 0.0
H990 H 0.80865 0.87551 0.7388 0.0
H991 H 0.78489 0.89847 0.76963 0.0
C992 C 0.86502 0.82063 0.70565 0.0
C993 C 0.89442 0.82866 0.69935 0.0
C994 C 0.85158 0.83455 0.72312 0.0
C995 C 0.86721 0.85689 0.73465 0.0
C996 C 0.8966 0.86497 0.72831 0.0
C997 C 0.91007 0.85097 0.71087 0.0
C998 C 0.8563 0.89119 0.7893 0.0
C999 C 0.82556 0.89901 0.78887 0.0
C1000 C 0.86982 0.87764 0.77171 0.0
C1001 C 0.85293 0.8716 0.75328 0.0
C1002 C 0.82223 0.87955 0.75282 0.0
C1003 C 0.8087 0.89306 0.77041 0.0
H1004 H 0.85366 0.0628 0.29064 0.0
H1005 H 0.80976 0.14638 0.30769 0.0
H1006 H 0.87947 0.08847 0.26168 0.0
H1007 H 0.83702 0.17242 0.2796 0.0
H1008 H 0.86217 0.20071 0.21216 0.0
H1009 H 0.83741 0.17601 0.24199 0.0
H1010 H 0.91831 0.12437 0.25396 0.0
H1011 H 0.94277 0.14868 0.2237 0.0
C1012 C 0.84954 0.08666 0.28825 0.0
C1013 C 0.82948 0.10245 0.30146 0.0
C1014 C 0.86472 0.1015 0.27183 0.0
C1015 C 0.86037 0.13255 0.26829 0.0
C1016 C 0.84062 0.14842 0.28168 0.0
C1017 C 0.82528 0.13354 0.298 0.0
C1018 C 0.87475 0.18432 0.22132 0.0
C1019 C 0.90439 0.17662 0.21563 0.0
C1020 C 0.86059 0.17018 0.23846 0.0
C1021 C 0.87584 0.14817 0.25042 0.0
C1022 C 0.90571 0.14083 0.24489 0.0
C1023 C 0.91978 0.15481 0.22762 0.0
loop_
_geom_bond_atom_site_label_1
_geom_bond_atom_site_label_2
_geom_bond_distance
_geom_bond_site_symmetry_2
_ccdc_geom_bond_type
Li0 N17 1.990 . S
Li0 O60 1.956 . S
Li0 O61 1.970 . S
Li0 O62 1.961 . S
Li1 N25 1.990 . S
Li1 O60 1.970 . S
Li1 O61 1.956 . S
Li1 O63 1.961 . S
Li2 N47 1.990 1_455 S
Li2 O60 1.961 . S
Li2 O62 1.956 . S
Li2 O63 1.970 . S
Li3 N53 1.990 . S
Li3 O61 1.961 . S
Li3 O62 1.970 . S
Li3 O63 1.956 . S
C4 C6 1.348 . S
C4 C7 1.356 . S
C4 O60 1.325 1_655 S
N5 C8 1.314 . S
N5 C9 1.279 . S
C6 C4 1.348 . S
C6 C8 1.353 . S
C6 H64 0.929 1_655 S
C7 C4 1.356 . S
C7 C9 1.358 . S
C7 H65 0.930 . S
C8 N5 1.314 . S
C8 C6 1.353 . S
C8 H66 0.930 . S
C9 N5 1.279 . S
C9 C7 1.358 . S
C9 H67 0.930 . S
C10 C13 1.348 . S
C10 C14 1.356 . S
C10 O61 1.325 . S
C11 N12 1.279 . S
C11 C14 1.358 . S
C11 H68 0.930 . S
N12 C11 1.279 . S
N12 C15 1.314 . S
C13 C10 1.348 . S
C13 C15 1.353 . S
C13 H69 0.929 . S
C14 C10 1.356 . S
C14 C11 1.358 . S
C14 H70 0.930 . S
C15 N12 1.314 . S
C15 C13 1.353 . S
C15 H71 0.930 . S
C16 N17 1.314 . S
C16 C21 1.353 . S
C16 H22 0.930 . S
N17 Li0 1.990 . S
N17 C16 1.314 . S
N17 C19 1.279 . S
C18 C19 1.358 . S
C18 C20 1.356 . S
C18 H72 0.930 . S
C19 N17 1.279 . S
C19 C18 1.358 . S
C19 H23 0.930 . S
C20 C18 1.356 . S
C20 C21 1.348 . S
C21 C16 1.353 . S
C21 C20 1.348 . S
C21 H73 0.929 . S
H22 C16 0.930 . S
H23 C19 0.930 . S
C24 N25 1.314 . S
C24 C26 1.353 . S
C24 H30 0.930 . S
N25 Li1 1.990 . S
N25 C24 1.314 . S
N25 C28 1.279 . S
C26 C24 1.353 . S
C26 C29 1.348 . S
C26 H74 0.929 . S
C27 C28 1.358 . S
C27 C29 1.356 . S
C27 H75 0.930 . S
C28 N25 1.279 . S
C28 C27 1.358 . S
C28 H31 0.930 . S
C29 C26 1.348 . S
C29 C27 1.356 . S
H30 C24 0.930 . S
H31 C28 0.930 . S
C32 C34 1.348 . S
C32 C35 1.356 . S
C32 O62 1.325 . S
N33 C36 1.314 . S
N33 C37 1.279 . S
C34 C32 1.348 . S
C34 C36 1.353 . S
C34 H76 0.929 . S
C35 C32 1.356 . S
C35 C37 1.358 . S
C35 H77 0.930 . S
C36 N33 1.314 . S
C36 C34 1.353 . S
C36 H78 0.930 . S
C37 N33 1.279 . S
C37 C35 1.358 . S
C37 H79 0.930 . S
C38 C39 1.348 . S
C38 C40 1.356 . S
C38 O63 1.325 . S
C39 C38 1.348 . S
C39 C41 1.353 . S
C39 H80 0.929 1_455 S
C40 C38 1.356 . S
C40 C42 1.358 . S
C40 H81 0.930 . S
C41 C39 1.353 . S
C41 N43 1.314 . S
C41 H82 0.930 1_455 S
C42 C40 1.358 . S
C42 N43 1.279 . S
C42 H83 0.930 . S
N43 C41 1.314 . S
N43 C42 1.279 . S
C44 C46 1.353 . S
C44 N47 1.314 . S
C44 H50 0.930 . S
C45 N47 1.279 . S
C45 C48 1.358 . S
C45 H51 0.930 . S
C46 C44 1.353 . S
C46 C49 1.348 . S
C46 H84 0.929 . S
N47 Li2 1.990 1_655 S
N47 C44 1.314 . S
N47 C45 1.279 . S
C48 C45 1.358 . S
C48 C49 1.356 . S
C48 H85 0.930 . S
C49 C46 1.348 . S
C49 C48 1.356 . S
H50 C44 0.930 . S
H51 C45 0.930 . S
C52 N53 1.314 . S
C52 C54 1.353 . S
C52 H58 0.930 . S
N53 Li3 1.990 . S
N53 C52 1.314 . S
N53 C56 1.279 . S
C54 C52 1.353 . S
C54 C57 1.348 . S
C54 H86 0.929 . S
C55 C56 1.358 . S
C55 C57 1.356 . S
C55 H87 0.930 . S
C56 N53 1.279 . S
C56 C55 1.358 . S
C56 H59 0.930 . S
C57 C54 1.348 . S
C57 C55 1.356 . S
H58 C52 0.930 . S
H59 C56 0.930 . S
O60 Li0 1.956 . S
O60 Li1 1.970 . S
O60 Li2 1.961 . S
O60 C4 1.325 1_455 S
O61 Li0 1.970 . S
O61 Li1 1.956 . S
O61 Li3 1.961 . S
O61 C10 1.325 . S
O62 Li0 1.961 . S
O62 Li2 1.956 . S
O62 Li3 1.970 . S
O62 C32 1.325 . S
O63 Li1 1.961 . S
O63 Li2 1.970 . S
O63 Li3 1.956 . S
O63 C38 1.325 . S
H64 C6 0.929 1_455 S
H65 C7 0.930 . S
H66 C8 0.930 . S
H67 C9 0.930 . S
H68 C11 0.930 . S
H69 C13 0.929 . S
H70 C14 0.930 . S
H71 C15 0.930 . S
H72 C18 0.930 . S
H73 C21 0.929 . S
H74 C26 0.929 . S
H75 C27 0.930 . S
H76 C34 0.929 . S
H77 C35 0.930 . S
H78 C36 0.930 . S
H79 C37 0.930 . S
H80 C39 0.929 1_655 S
H81 C40 0.930 . S
H82 C41 0.930 1_655 S
H83 C42 0.930 . S
H84 C46 0.929 . S
H85 C48 0.930 . S
H86 C54 0.929 . S
H87 C55 0.930 . S
Li88 N105 1.990 1_565 S
Li88 O148 1.956 . S
Li88 O149 1.970 . S
Li88 O150 1.961 . S
Li89 N113 1.990 . S
Li89 O148 1.970 . S
Li89 O149 1.956 . S
Li89 O151 1.961 . S
Li90 N135 1.990 . S
Li90 O148 1.961 . S
Li90 O150 1.956 . S
Li90 O151 1.970 . S
Li91 N141 1.990 . S
Li91 O149 1.961 . S
Li91 O150 1.970 . S
Li91 O151 1.956 . S
C92 C94 1.348 . S
C92 C95 1.356 . S
C92 O148 1.325 1_545 S
N93 C96 1.314 . S
N93 C97 1.279 . S
C94 C92 1.348 . S
C94 C96 1.353 . S
C94 H152 0.929 . S
C95 C92 1.356 . S
C95 C97 1.358 . S
C95 H153 0.930 . S
C96 N93 1.314 . S
C96 C94 1.353 . S
C96 H154 0.930 . S
C97 N93 1.279 . S
C97 C95 1.358 . S
C97 H155 0.930 . S
C98 C101 1.348 1_565 S
C98 C102 1.356 . S
C98 O149 1.325 . S
C99 N100 1.279 . S
C99 C102 1.358 . S
C99 H156 0.930 . S
N100 C99 1.279 . S
N100 C103 1.314 1_565 S
C101 C98 1.348 1_545 S
C101 C103 1.353 . S
C101 H157 0.929 . S
C102 C98 1.356 . S
C102 C99 1.358 . S
C102 H158 0.930 . S
C103 N100 1.314 1_545 S
C103 C101 1.353 . S
C103 H159 0.930 . S
C104 N105 1.314 . S
C104 C109 1.353 . S
C104 H110 0.930 . S
N105 Li88 1.990 1_545 S
N105 C104 1.314 . S
N105 C107 1.279 . S
C106 C107 1.358 . S
C106 C108 1.356 . S
C106 H160 0.930 . S
C107 N105 1.279 . S
C107 C106 1.358 . S
C107 H111 0.930 . S
C108 C106 1.356 . S
C108 C109 1.348 . S
C109 C104 1.353 . S
C109 C108 1.348 . S
C109 H161 0.929 . S
H110 C104 0.930 . S
H111 C107 0.930 . S
C112 N113 1.314 . S
C112 C114 1.353 . S
C112 H118 0.930 . S
N113 Li89 1.990 . S
N113 C112 1.314 . S
N113 C116 1.279 . S
C114 C112 1.353 . S
C114 C117 1.348 . S
C114 H162 0.929 . S
C115 C116 1.358 . S
C115 C117 1.356 . S
C115 H163 0.930 . S
C116 N113 1.279 . S
C116 C115 1.358 . S
C116 H119 0.930 . S
C117 C114 1.348 . S
C117 C115 1.356 . S
H118 C112 0.930 . S
H119 C116 0.930 . S
C120 C122 1.348 . S
C120 C123 1.356 . S
C120 O150 1.325 . S
N121 C124 1.314 . S
N121 C125 1.279 . S
C122 C120 1.348 . S
C122 C124 1.353 . S
C122 H164 0.929 . S
C123 C120 1.356 . S
C123 C125 1.358 . S
C123 H165 0.930 . S
C124 N121 1.314 . S
C124 C122 1.353 . S
C124 H166 0.930 . S
C125 N121 1.279 . S
C125 C123 1.358 . S
C125 H167 0.930 . S
C126 C127 1.348 . S
C126 C128 1.356 . S
C126 O151 1.325 . S
C127 C126 1.348 . S
C127 C129 1.353 . S
C127 H168 0.929 . S
C128 C126 1.356 . S
C128 C130 1.358 . S
C128 H169 0.930 . S
C129 C127 1.353 . S
C129 N131 1.314 . S
C129 H170 0.930 . S
C130 C128 1.358 . S
C130 N131 1.279 . S
C130 H171 0.930 . S
N131 C129 1.314 . S
N131 C130 1.279 . S
C132 C134 1.353 . S
C132 N135 1.314 . S
C132 H138 0.930 . S
C133 N135 1.279 . S
C133 C136 1.358 . S
C133 H139 0.930 . S
C134 C132 1.353 . S
C134 C137 1.348 . S
C134 H172 0.929 . S
N135 Li90 1.990 . S
N135 C132 1.314 . S
N135 C133 1.279 . S
C136 C133 1.358 . S
C136 C137 1.356 . S
C136 H173 0.930 . S
C137 C134 1.348 . S
C137 C136 1.356 . S
H138 C132 0.930 . S
H139 C133 0.930 . S
C140 N141 1.314 . S
C140 C142 1.353 . S
C140 H146 0.930 . S
N141 Li91 1.990 . S
N141 C140 1.314 . S
N141 C144 1.279 . S
C142 C140 1.353 . S
C142 C145 1.348 . S
C142 H174 0.929 . S
C143 C144 1.358 . S
C143 C145 1.356 . S
C143 H175 0.930 . S
C144 N141 1.279 . S
C144 C143 1.358 . S
C144 H147 0.930 . S
C145 C142 1.348 . S
C145 C143 1.356 . S
H146 C140 0.930 . S
H147 C144 0.930 . S
O148 Li88 1.956 . S
O148 Li89 1.970 . S
O148 Li90 1.961 . S
O148 C92 1.325 1_565 S
O149 Li88 1.970 . S
O149 Li89 1.956 . S
O149 Li91 1.961 . S
O149 C98 1.325 . S
O150 Li88 1.961 . S
O150 Li90 1.956 . S
O150 Li91 1.970 . S
O150 C120 1.325 . S
O151 Li89 1.961 . S
O151 Li90 1.970 . S
O151 Li91 1.956 . S
O151 C126 1.325 . S
H152 C94 0.929 . S
H153 C95 0.930 . S
H154 C96 0.930 . S
H155 C97 0.930 . S
H156 C99 0.930 . S
H157 C101 0.929 . S
H158 C102 0.930 . S
H159 C103 0.930 . S
H160 C106 0.930 . S
H161 C109 0.929 . S
H162 C114 0.929 . S
H163 C115 0.930 . S
H164 C122 0.929 . S
H165 C123 0.930 . S
H166 C124 0.930 . S
H167 C125 0.930 . S
H168 C127 0.929 . S
H169 C128 0.930 . S
H170 C129 0.930 . S
H171 C130 0.930 . S
H172 C134 0.929 . S
H173 C136 0.930 . S
H174 C142 0.929 . S
H175 C143 0.930 . S
Li176 N193 1.990 . S
Li176 O236 1.956 . S
Li176 O237 1.970 . S
Li176 O238 1.961 . S
Li177 N201 1.990 . S
Li177 O236 1.970 . S
Li177 O237 1.956 . S
Li177 O239 1.961 . S
Li178 N223 1.990 1_655 S
Li178 O236 1.961 . S
Li178 O238 1.956 . S
Li178 O239 1.970 . S
Li179 N229 1.990 . S
Li179 O237 1.961 . S
Li179 O238 1.970 . S
Li179 O239 1.956 . S
C180 C182 1.348 . S
C180 C183 1.356 . S
C180 O236 1.325 1_455 S
N181 C184 1.314 . S
N181 C185 1.279 . S
C182 C180 1.348 . S
C182 C184 1.353 . S
C182 H240 0.929 1_455 S
C183 C180 1.356 . S
C183 C185 1.358 . S
C183 H241 0.930 . S
C184 N181 1.314 . S
C184 C182 1.353 . S
C184 H242 0.930 . S
C185 N181 1.279 . S
C185 C183 1.358 . S
C185 H243 0.930 . S
C186 C189 1.348 . S
C186 C190 1.356 . S
C186 O237 1.325 . S
C187 N188 1.279 . S
C187 C190 1.358 . S
C187 H244 0.930 . S
N188 C187 1.279 . S
N188 C191 1.314 . S
C189 C186 1.348 . S
C189 C191 1.353 . S
C189 H245 0.929 . S
C190 C186 1.356 . S
C190 C187 1.358 . S
C190 H246 0.930 . S
C191 N188 1.314 . S
C191 C189 1.353 . S
C191 H247 0.930 . S
C192 N193 1.314 . S
C192 C197 1.353 . S
C192 H198 0.930 . S
N193 Li176 1.990 . S
N193 C192 1.314 . S
N193 C195 1.279 . S
C194 C195 1.358 . S
C194 C196 1.356 . S
C194 H248 0.930 . S
C195 N193 1.279 . S
C195 C194 1.358 . S
C195 H199 0.930 . S
C196 C194 1.356 . S
C196 C197 1.348 . S
C197 C192 1.353 . S
C197 C196 1.348 . S
C197 H249 0.929 . S
H198 C192 0.930 . S
H199 C195 0.930 . S
C200 N201 1.314 . S
C200 C202 1.353 . S
C200 H206 0.930 . S
N201 Li177 1.990 . S
N201 C200 1.314 . S
N201 C204 1.279 . S
C202 C200 1.353 . S
C202 C205 1.348 . S
C202 H250 0.929 . S
C203 C204 1.358 . S
C203 C205 1.356 . S
C203 H251 0.930 . S
C204 N201 1.279 . S
C204 C203 1.358 . S
C204 H207 0.930 . S
C205 C202 1.348 . S
C205 C203 1.356 . S
H206 C200 0.930 . S
H207 C204 0.930 . S
C208 C210 1.348 . S
C208 C211 1.356 . S
C208 O238 1.325 . S
N209 C212 1.314 . S
N209 C213 1.279 . S
C210 C208 1.348 . S
C210 C212 1.353 . S
C210 H252 0.929 . S
C211 C208 1.356 . S
C211 C213 1.358 . S
C211 H253 0.930 . S
C212 N209 1.314 . S
C212 C210 1.353 . S
C212 H254 0.930 . S
C213 N209 1.279 . S
C213 C211 1.358 . S
C213 H255 0.930 . S
C214 C215 1.348 . S
C214 C216 1.356 . S
C214 O239 1.325 . S
C215 C214 1.348 . S
C215 C217 1.353 . S
C215 H256 0.929 1_655 S
C216 C214 1.356 . S
C216 C218 1.358 . S
C216 H257 0.930 . S
C217 C215 1.353 . S
C217 N219 1.314 . S
C217 H258 0.930 1_655 S
C218 C216 1.358 . S
C218 N219 1.279 . S
C218 H259 0.930 . S
N219 C217 1.314 . S
N219 C218 1.279 . S
C220 C222 1.353 . S
C220 N223 1.314 . S
C220 H226 0.930 . S
C221 N223 1.279 . S
C221 C224 1.358 . S
C221 H227 0.930 . S
C222 C220 1.353 . S
C222 C225 1.348 . S
C222 H260 0.929 . S
N223 Li178 1.990 1_455 S
N223 C220 1.314 . S
N223 C221 1.279 . S
C224 C221 1.358 . S
C224 C225 1.356 . S
C224 H261 0.930 . S
C225 C222 1.348 . S
C225 C224 1.356 . S
H226 C220 0.930 . S
H227 C221 0.930 . S
C228 N229 1.314 . S
C228 C230 1.353 . S
C228 H234 0.930 . S
N229 Li179 1.990 . S
N229 C228 1.314 . S
N229 C232 1.279 . S
C230 C228 1.353 . S
C230 C233 1.348 . S
C230 H262 0.929 . S
C231 C232 1.358 . S
C231 C233 1.356 . S
C231 H263 0.930 . S
C232 N229 1.279 . S
C232 C231 1.358 . S
C232 H235 0.930 . S
C233 C230 1.348 . S
C233 C231 1.356 . S
H234 C228 0.930 . S
H235 C232 0.930 . S
O236 Li176 1.956 . S
O236 Li177 1.970 . S
O236 Li178 1.961 . S
O236 C180 1.325 1_655 S
O237 Li176 1.970 . S
O237 Li177 1.956 . S
O237 Li179 1.961 . S
O237 C186 1.325 . S
O238 Li176 1.961 . S
O238 Li178 1.956 . S
O238 Li179 1.970 . S
O238 C208 1.325 . S
O239 Li177 1.961 . S
O239 Li178 1.970 . S
O239 Li179 1.956 . S
O239 C214 1.325 . S
H240 C182 0.929 1_655 S
H241 C183 0.930 . S
H242 C184 0.930 . S
H243 C185 0.930 . S
H244 C187 0.930 . S
H245 C189 0.929 . S
H246 C190 0.930 . S
H247 C191 0.930 . S
H248 C194 0.930 . S
H249 C197 0.929 . S
H250 C202 0.929 . S
H251 C203 0.930 . S
H252 C210 0.929 . S
H253 C211 0.930 . S
H254 C212 0.930 . S
H255 C213 0.930 . S
H256 C215 0.929 1_455 S
H257 C216 0.930 . S
H258 C217 0.930 1_455 S
H259 C218 0.930 . S
H260 C222 0.929 . S
H261 C224 0.930 . S
H262 C230 0.929 . S
H263 C231 0.930 . S
Li264 N281 1.990 . S
Li264 O324 1.956 . S
Li264 O325 1.970 . S
Li264 O326 1.961 . S
Li265 N289 1.990 . S
Li265 O324 1.970 . S
Li265 O325 1.956 . S
Li265 O327 1.961 . S
Li266 N311 1.990 1_545 S
Li266 O324 1.961 . S
Li266 O326 1.956 . S
Li266 O327 1.970 . S
Li267 N317 1.990 . S
Li267 O325 1.961 . S
Li267 O326 1.970 . S
Li267 O327 1.956 . S
C268 C270 1.348 . S
C268 C271 1.356 . S
C268 O324 1.325 . S
N269 C272 1.314 . S
N269 C273 1.279 . S
C270 C268 1.348 . S
C270 C272 1.353 . S
C270 H328 0.929 . S
C271 C268 1.356 . S
C271 C273 1.358 . S
C271 H329 0.930 . S
C272 N269 1.314 . S
C272 C270 1.353 . S
C272 H330 0.930 . S
C273 N269 1.279 . S
C273 C271 1.358 . S
C273 H331 0.930 . S
C274 C277 1.348 . S
C274 C278 1.356 . S
C274 O325 1.325 . S
C275 N276 1.279 . S
C275 C278 1.358 . S
C275 H332 0.930 . S
N276 C275 1.279 . S
N276 C279 1.314 . S
C277 C274 1.348 . S
C277 C279 1.353 . S
C277 H333 0.929 . S
C278 C274 1.356 . S
C278 C275 1.358 . S
C278 H334 0.930 . S
C279 N276 1.314 . S
C279 C277 1.353 . S
C279 H335 0.930 . S
C280 N281 1.314 . S
C280 C285 1.353 . S
C280 H286 0.930 . S
N281 Li264 1.990 . S
N281 C280 1.314 . S
N281 C283 1.279 . S
C282 C283 1.358 . S
C282 C284 1.356 . S
C282 H336 0.930 . S
C283 N281 1.279 . S
C283 C282 1.358 . S
C283 H287 0.930 . S
C284 C282 1.356 . S
C284 C285 1.348 . S
C285 C280 1.353 . S
C285 C284 1.348 . S
C285 H337 0.929 . S
H286 C280 0.930 . S
H287 C283 0.930 . S
C288 N289 1.314 . S
C288 C290 1.353 . S
C288 H294 0.930 . S
N289 Li265 1.990 . S
N289 C288 1.314 . S
N289 C292 1.279 . S
C290 C288 1.353 . S
C290 C293 1.348 . S
C290 H338 0.929 . S
C291 C292 1.358 . S
C291 C293 1.356 . S
C291 H339 0.930 . S
C292 N289 1.279 . S
C292 C291 1.358 . S
C292 H295 0.930 . S
C293 C290 1.348 . S
C293 C291 1.356 . S
H294 C288 0.930 . S
H295 C292 0.930 . S
C296 C298 1.348 . S
C296 C299 1.356 . S
C296 O326 1.325 1_565 S
N297 C300 1.314 . S
N297 C301 1.279 . S
C298 C296 1.348 . S
C298 C300 1.353 . S
C298 H340 0.929 . S
C299 C296 1.356 . S
C299 C301 1.358 . S
C299 H341 0.930 . S
C300 N297 1.314 . S
C300 C298 1.353 . S
C300 H342 0.930 . S
C301 N297 1.279 . S
C301 C299 1.358 . S
C301 H343 0.930 . S
C302 C303 1.348 1_545 S
C302 C304 1.356 . S
C302 O327 1.325 . S
C303 C302 1.348 1_565 S
C303 C305 1.353 . S
C303 H344 0.929 . S
C304 C302 1.356 . S
C304 C306 1.358 . S
C304 H345 0.930 . S
C305 C303 1.353 . S
C305 N307 1.314 1_565 S
C305 H346 0.930 . S
C306 C304 1.358 . S
C306 N307 1.279 . S
C306 H347 0.930 . S
N307 C305 1.314 1_545 S
N307 C306 1.279 . S
C308 C310 1.353 . S
C308 N311 1.314 . S
C308 H314 0.930 . S
C309 N311 1.279 . S
C309 C312 1.358 . S
C309 H315 0.930 . S
C310 C308 1.353 . S
C310 C313 1.348 . S
C310 H348 0.929 . S
N311 Li266 1.990 1_565 S
N311 C308 1.314 . S
N311 C309 1.279 . S
C312 C309 1.358 . S
C312 C313 1.356 . S
C312 H349 0.930 . S
C313 C310 1.348 . S
C313 C312 1.356 . S
H314 C308 0.930 . S
H315 C309 0.930 . S
C316 N317 1.314 . S
C316 C318 1.353 . S
C316 H322 0.930 . S
N317 Li267 1.990 . S
N317 C316 1.314 . S
N317 C320 1.279 . S
C318 C316 1.353 . S
C318 C321 1.348 . S
C318 H350 0.929 . S
C319 C320 1.358 . S
C319 C321 1.356 . S
C319 H351 0.930 . S
C320 N317 1.279 . S
C320 C319 1.358 . S
C320 H323 0.930 . S
C321 C318 1.348 . S
C321 C319 1.356 . S
H322 C316 0.930 . S
H323 C320 0.930 . S
O324 Li264 1.956 . S
O324 Li265 1.970 . S
O324 Li266 1.961 . S
O324 C268 1.325 . S
O325 Li264 1.970 . S
O325 Li265 1.956 . S
O325 Li267 1.961 . S
O325 C274 1.325 . S
O326 Li264 1.961 . S
O326 Li266 1.956 . S
O326 Li267 1.970 . S
O326 C296 1.325 1_545 S
O327 Li265 1.961 . S
O327 Li266 1.970 . S
O327 Li267 1.956 . S
O327 C302 1.325 . S
H328 C270 0.929 . S
H329 C271 0.930 . S
H330 C272 0.930 . S
H331 C273 0.930 . S
H332 C275 0.930 . S
H333 C277 0.929 . S
H334 C278 0.930 . S
H335 C279 0.930 . S
H336 C282 0.930 . S
H337 C285 0.929 . S
H338 C290 0.929 . S
H339 C291 0.930 . S
H340 C298 0.929 . S
H341 C299 0.930 . S
H342 C300 0.930 . S
H343 C301 0.930 . S
H344 C303 0.929 . S
H345 C304 0.930 . S
H346 C305 0.930 . S
H347 C306 0.930 . S
H348 C310 0.929 . S
H349 C312 0.930 . S
H350 C318 0.929 . S
H351 C319 0.930 . S
Li352 N369 1.990 . S
Li352 O412 1.956 . S
Li352 O413 1.970 . S
Li352 O414 1.961 . S
Li353 N377 1.990 . S
Li353 O412 1.970 . S
Li353 O413 1.956 . S
Li353 O415 1.961 . S
Li354 N399 1.990 . S
Li354 O412 1.961 . S
Li354 O414 1.956 . S
Li354 O415 1.970 . S
Li355 N405 1.990 1_655 S
Li355 O413 1.961 . S
Li355 O414 1.970 . S
Li355 O415 1.956 . S
C356 C358 1.348 . S
C356 C359 1.356 . S
C356 O412 1.325 . S
N357 C360 1.314 . S
N357 C361 1.279 . S
C358 C356 1.348 . S
C358 C360 1.353 . S
C358 H416 0.929 . S
C359 C356 1.356 . S
C359 C361 1.358 . S
C359 H417 0.930 . S
C360 N357 1.314 . S
C360 C358 1.353 . S
C360 H418 0.930 . S
C361 N357 1.279 . S
C361 C359 1.358 . S
C361 H419 0.930 . S
C362 C365 1.348 . S
C362 C366 1.356 . S
C362 O413 1.325 . S
C363 N364 1.279 . S
C363 C366 1.358 . S
C363 H420 0.930 . S
N364 C363 1.279 . S
N364 C367 1.314 . S
C365 C362 1.348 . S
C365 C367 1.353 . S
C365 H421 0.929 . S
C366 C362 1.356 . S
C366 C363 1.358 . S
C366 H422 0.930 . S
C367 N364 1.314 . S
C367 C365 1.353 . S
C367 H423 0.930 . S
C368 N369 1.314 . S
C368 C373 1.353 . S
C368 H374 0.930 . S
N369 Li352 1.990 . S
N369 C368 1.314 . S
N369 C371 1.279 . S
C370 C371 1.358 . S
C370 C372 1.356 . S
C370 H424 0.930 . S
C371 N369 1.279 . S
C371 C370 1.358 . S
C371 H375 0.930 . S
C372 C370 1.356 . S
C372 C373 1.348 . S
C373 C368 1.353 . S
C373 C372 1.348 . S
C373 H425 0.929 . S
H374 C368 0.930 . S
H375 C371 0.930 . S
C376 N377 1.314 . S
C376 C378 1.353 . S
C376 H382 0.930 . S
N377 Li353 1.990 . S
N377 C376 1.314 . S
N377 C380 1.279 . S
C378 C376 1.353 . S
C378 C381 1.348 . S
C378 H426 0.929 . S
C379 C380 1.358 . S
C379 C381 1.356 . S
C379 H427 0.930 . S
C380 N377 1.279 . S
C380 C379 1.358 . S
C380 H383 0.930 . S
C381 C378 1.348 . S
C381 C379 1.356 . S
H382 C376 0.930 . S
H383 C380 0.930 . S
C384 C386 1.348 1_655 S
C384 C387 1.356 . S
C384 O414 1.325 . S
N385 C388 1.314 1_655 S
N385 C389 1.279 . S
C386 C384 1.348 1_455 S
C386 C388 1.353 . S
C386 H428 0.929 . S
C387 C384 1.356 . S
C387 C389 1.358 . S
C387 H429 0.930 . S
C388 N385 1.314 1_455 S
C388 C386 1.353 . S
C388 H430 0.930 . S
C389 N385 1.279 . S
C389 C387 1.358 . S
C389 H431 0.930 . S
C390 C391 1.348 . S
C390 C392 1.356 . S
C390 O415 1.325 1_455 S
C391 C390 1.348 . S
C391 C393 1.353 . S
C391 H432 0.929 . S
C392 C390 1.356 . S
C392 C394 1.358 . S
C392 H433 0.930 . S
C393 C391 1.353 . S
C393 N395 1.314 . S
C393 H434 0.930 . S
C394 C392 1.358 . S
C394 N395 1.279 . S
C394 H435 0.930 . S
N395 C393 1.314 . S
N395 C394 1.279 . S
C396 C398 1.353 . S
C396 N399 1.314 . S
C396 H402 0.930 . S
C397 N399 1.279 . S
C397 C400 1.358 . S
C397 H403 0.930 . S
C398 C396 1.353 . S
C398 C401 1.348 . S
C398 H436 0.929 . S
N399 Li354 1.990 . S
N399 C396 1.314 . S
N399 C397 1.279 . S
C400 C397 1.358 . S
C400 C401 1.356 . S
C400 H437 0.930 . S
C401 C398 1.348 . S
C401 C400 1.356 . S
H402 C396 0.930 . S
H403 C397 0.930 . S
C404 N405 1.314 . S
C404 C406 1.353 . S
C404 H410 0.930 . S
N405 Li355 1.990 1_455 S
N405 C404 1.314 . S
N405 C408 1.279 . S
C406 C404 1.353 . S
C406 C409 1.348 . S
C406 H438 0.929 . S
C407 C408 1.358 . S
C407 C409 1.356 . S
C407 H439 0.930 . S
C408 N405 1.279 . S
C408 C407 1.358 . S
C408 H411 0.930 . S
C409 C406 1.348 . S
C409 C407 1.356 . S
H410 C404 0.930 . S
H411 C408 0.930 . S
O412 Li352 1.956 . S
O412 Li353 1.970 . S
O412 Li354 1.961 . S
O412 C356 1.325 . S
O413 Li352 1.970 . S
O413 Li353 1.956 . S
O413 Li355 1.961 . S
O413 C362 1.325 . S
O414 Li352 1.961 . S
O414 Li354 1.956 . S
O414 Li355 1.970 . S
O414 C384 1.325 . S
O415 Li353 1.961 . S
O415 Li354 1.970 . S
O415 Li355 1.956 . S
O415 C390 1.325 1_655 S
H416 C358 0.929 . S
H417 C359 0.930 . S
H418 C360 0.930 . S
H419 C361 0.930 . S
H420 C363 0.930 . S
H421 C365 0.929 . S
H422 C366 0.930 . S
H423 C367 0.930 . S
H424 C370 0.930 . S
H425 C373 0.929 . S
H426 C378 0.929 . S
H427 C379 0.930 . S
H428 C386 0.929 . S
H429 C387 0.930 . S
H430 C388 0.930 . S
H431 C389 0.930 . S
H432 C391 0.929 . S
H433 C392 0.930 . S
H434 C393 0.930 . S
H435 C394 0.930 . S
H436 C398 0.929 . S
H437 C400 0.930 . S
H438 C406 0.929 . S
H439 C407 0.930 . S
Li440 N457 1.990 . S
Li440 O500 1.956 . S
Li440 O501 1.970 . S
Li440 O502 1.961 . S
Li441 N465 1.990 1_545 S
Li441 O500 1.970 . S
Li441 O501 1.956 . S
Li441 O503 1.961 . S
Li442 N487 1.990 . S
Li442 O500 1.961 . S
Li442 O502 1.956 . S
Li442 O503 1.970 . S
Li443 N493 1.990 . S
Li443 O501 1.961 . S
Li443 O502 1.970 . S
Li443 O503 1.956 . S
C444 C446 1.348 . S
C444 C447 1.356 . S
C444 O500 1.325 . S
N445 C448 1.314 . S
N445 C449 1.279 . S
C446 C444 1.348 . S
C446 C448 1.353 . S
C446 H504 0.929 1_545 S
C447 C444 1.356 . S
C447 C449 1.358 . S
C447 H505 0.930 . S
C448 N445 1.314 . S
C448 C446 1.353 . S
C448 H506 0.930 1_545 S
C449 N445 1.279 . S
C449 C447 1.358 . S
C449 H507 0.930 . S
C450 C453 1.348 . S
C450 C454 1.356 . S
C450 O501 1.325 . S
C451 N452 1.279 . S
C451 C454 1.358 . S
C451 H508 0.930 . S
N452 C451 1.279 . S
N452 C455 1.314 . S
C453 C450 1.348 . S
C453 C455 1.353 . S
C453 H509 0.929 . S
C454 C450 1.356 . S
C454 C451 1.358 . S
C454 H510 0.930 . S
C455 N452 1.314 . S
C455 C453 1.353 . S
C455 H511 0.930 . S
C456 N457 1.314 . S
C456 C461 1.353 . S
C456 H462 0.930 . S
N457 Li440 1.990 . S
N457 C456 1.314 . S
N457 C459 1.279 . S
C458 C459 1.358 . S
C458 C460 1.356 . S
C458 H512 0.930 . S
C459 N457 1.279 . S
C459 C458 1.358 . S
C459 H463 0.930 . S
C460 C458 1.356 . S
C460 C461 1.348 . S
C461 C456 1.353 . S
C461 C460 1.348 . S
C461 H513 0.929 . S
H462 C456 0.930 . S
H463 C459 0.930 . S
C464 N465 1.314 . S
C464 C466 1.353 . S
C464 H470 0.930 . S
N465 Li441 1.990 1_565 S
N465 C464 1.314 . S
N465 C468 1.279 . S
C466 C464 1.353 . S
C466 C469 1.348 . S
C466 H514 0.929 . S
C467 C468 1.358 . S
C467 C469 1.356 . S
C467 H515 0.930 . S
C468 N465 1.279 . S
C468 C467 1.358 . S
C468 H471 0.930 . S
C469 C466 1.348 . S
C469 C467 1.356 . S
H470 C464 0.930 . S
H471 C468 0.930 . S
C472 C474 1.348 . S
C472 C475 1.356 . S
C472 O502 1.325 . S
N473 C476 1.314 . S
N473 C477 1.279 . S
C474 C472 1.348 . S
C474 C476 1.353 . S
C474 H516 0.929 . S
C475 C472 1.356 . S
C475 C477 1.358 . S
C475 H517 0.930 . S
C476 N473 1.314 . S
C476 C474 1.353 . S
C476 H518 0.930 . S
C477 N473 1.279 . S
C477 C475 1.358 . S
C477 H519 0.930 . S
C478 C479 1.348 . S
C478 C480 1.356 . S
C478 O503 1.325 1_565 S
C479 C478 1.348 . S
C479 C481 1.353 . S
C479 H520 0.929 1_565 S
C480 C478 1.356 . S
C480 C482 1.358 . S
C480 H521 0.930 . S
C481 C479 1.353 . S
C481 N483 1.314 . S
C481 H522 0.930 . S
C482 C480 1.358 . S
C482 N483 1.279 . S
C482 H523 0.930 . S
N483 C481 1.314 . S
N483 C482 1.279 . S
C484 C486 1.353 . S
C484 N487 1.314 . S
C484 H490 0.930 . S
C485 N487 1.279 . S
C485 C488 1.358 . S
C485 H491 0.930 . S
C486 C484 1.353 . S
C486 C489 1.348 . S
C486 H524 0.929 . S
N487 Li442 1.990 . S
N487 C484 1.314 . S
N487 C485 1.279 . S
C488 C485 1.358 . S
C488 C489 1.356 . S
C488 H525 0.930 . S
C489 C486 1.348 . S
C489 C488 1.356 . S
H490 C484 0.930 . S
H491 C485 0.930 . S
C492 N493 1.314 . S
C492 C494 1.353 . S
C492 H498 0.930 . S
N493 Li443 1.990 . S
N493 C492 1.314 . S
N493 C496 1.279 . S
C494 C492 1.353 . S
C494 C497 1.348 . S
C494 H526 0.929 . S
C495 C496 1.358 . S
C495 C497 1.356 . S
C495 H527 0.930 . S
C496 N493 1.279 . S
C496 C495 1.358 . S
C496 H499 0.930 . S
C497 C494 1.348 . S
C497 C495 1.356 . S
H498 C492 0.930 . S
H499 C496 0.930 . S
O500 Li440 1.956 . S
O500 Li441 1.970 . S
O500 Li442 1.961 . S
O500 C444 1.325 . S
O501 Li440 1.970 . S
O501 Li441 1.956 . S
O501 Li443 1.961 . S
O501 C450 1.325 . S
O502 Li440 1.961 . S
O502 Li442 1.956 . S
O502 Li443 1.970 . S
O502 C472 1.325 . S
O503 Li441 1.961 . S
O503 Li442 1.970 . S
O503 Li443 1.956 . S
O503 C478 1.325 1_545 S
H504 C446 0.929 1_565 S
H505 C447 0.930 . S
H506 C448 0.930 1_565 S
H507 C449 0.930 . S
H508 C451 0.930 . S
H509 C453 0.929 . S
H510 C454 0.930 . S
H511 C455 0.930 . S
H512 C458 0.930 . S
H513 C461 0.929 . S
H514 C466 0.929 . S
H515 C467 0.930 . S
H516 C474 0.929 . S
H517 C475 0.930 . S
H518 C476 0.930 . S
H519 C477 0.930 . S
H520 C479 0.929 1_545 S
H521 C480 0.930 . S
H522 C481 0.930 . S
H523 C482 0.930 . S
H524 C486 0.929 . S
H525 C488 0.930 . S
H526 C494 0.929 . S
H527 C495 0.930 . S
Li528 N545 1.990 1_455 S
Li528 O588 1.956 . S
Li528 O589 1.970 . S
Li528 O590 1.961 . S
Li529 N553 1.990 . S
Li529 O588 1.970 . S
Li529 O589 1.956 . S
Li529 O591 1.961 . S
Li530 N575 1.990 . S
Li530 O588 1.961 . S
Li530 O590 1.956 . S
Li530 O591 1.970 . S
Li531 N581 1.990 . S
Li531 O589 1.961 . S
Li531 O590 1.970 . S
Li531 O591 1.956 . S
C532 C534 1.348 . S
C532 C535 1.356 . S
C532 O588 1.325 1_655 S
N533 C536 1.314 . S
N533 C537 1.279 . S
C534 C532 1.348 . S
C534 C536 1.353 . S
C534 H592 0.929 . S
C535 C532 1.356 . S
C535 C537 1.358 . S
C535 H593 0.930 . S
C536 N533 1.314 . S
C536 C534 1.353 . S
C536 H594 0.930 . S
C537 N533 1.279 . S
C537 C535 1.358 . S
C537 H595 0.930 . S
C538 C541 1.348 1_455 S
C538 C542 1.356 . S
C538 O589 1.325 . S
C539 N540 1.279 . S
C539 C542 1.358 . S
C539 H596 0.930 . S
N540 C539 1.279 . S
N540 C543 1.314 1_455 S
C541 C538 1.348 1_655 S
C541 C543 1.353 . S
C541 H597 0.929 . S
C542 C538 1.356 . S
C542 C539 1.358 . S
C542 H598 0.930 . S
C543 N540 1.314 1_655 S
C543 C541 1.353 . S
C543 H599 0.930 . S
C544 N545 1.314 . S
C544 C549 1.353 . S
C544 H550 0.930 . S
N545 Li528 1.990 1_655 S
N545 C544 1.314 . S
N545 C547 1.279 . S
C546 C547 1.358 . S
C546 C548 1.356 . S
C546 H600 0.930 . S
C547 N545 1.279 . S
C547 C546 1.358 . S
C547 H551 0.930 . S
C548 C546 1.356 . S
C548 C549 1.348 . S
C549 C544 1.353 . S
C549 C548 1.348 . S
C549 H601 0.929 . S
H550 C544 0.930 . S
H551 C547 0.930 . S
C552 N553 1.314 . S
C552 C554 1.353 . S
C552 H558 0.930 . S
N553 Li529 1.990 . S
N553 C552 1.314 . S
N553 C556 1.279 . S
C554 C552 1.353 . S
C554 C557 1.348 . S
C554 H602 0.929 . S
C555 C556 1.358 . S
C555 C557 1.356 . S
C555 H603 0.930 . S
C556 N553 1.279 . S
C556 C555 1.358 . S
C556 H559 0.930 . S
C557 C554 1.348 . S
C557 C555 1.356 . S
H558 C552 0.930 . S
H559 C556 0.930 . S
C560 C562 1.348 . S
C560 C563 1.356 . S
C560 O590 1.325 . S
N561 C564 1.314 . S
N561 C565 1.279 . S
C562 C560 1.348 . S
C562 C564 1.353 . S
C562 H604 0.929 . S
C563 C560 1.356 . S
C563 C565 1.358 . S
C563 H605 0.930 . S
C564 N561 1.314 . S
C564 C562 1.353 . S
C564 H606 0.930 . S
C565 N561 1.279 . S
C565 C563 1.358 . S
C565 H607 0.930 . S
C566 C567 1.348 . S
C566 C568 1.356 . S
C566 O591 1.325 . S
C567 C566 1.348 . S
C567 C569 1.353 . S
C567 H608 0.929 . S
C568 C566 1.356 . S
C568 C570 1.358 . S
C568 H609 0.930 . S
C569 C567 1.353 . S
C569 N571 1.314 . S
C569 H610 0.930 . S
C570 C568 1.358 . S
C570 N571 1.279 . S
C570 H611 0.930 . S
N571 C569 1.314 . S
N571 C570 1.279 . S
C572 C574 1.353 . S
C572 N575 1.314 . S
C572 H578 0.930 . S
C573 N575 1.279 . S
C573 C576 1.358 . S
C573 H579 0.930 . S
C574 C572 1.353 . S
C574 C577 1.348 . S
C574 H612 0.929 . S
N575 Li530 1.990 . S
N575 C572 1.314 . S
N575 C573 1.279 . S
C576 C573 1.358 . S
C576 C577 1.356 . S
C576 H613 0.930 . S
C577 C574 1.348 . S
C577 C576 1.356 . S
H578 C572 0.930 . S
H579 C573 0.930 . S
C580 N581 1.314 . S
C580 C582 1.353 . S
C580 H586 0.930 . S
N581 Li531 1.990 . S
N581 C580 1.314 . S
N581 C584 1.279 . S
C582 C580 1.353 . S
C582 C585 1.348 . S
C582 H614 0.929 . S
C583 C584 1.358 . S
C583 C585 1.356 . S
C583 H615 0.930 . S
C584 N581 1.279 . S
C584 C583 1.358 . S
C584 H587 0.930 . S
C585 C582 1.348 . S
C585 C583 1.356 . S
H586 C580 0.930 . S
H587 C584 0.930 . S
O588 Li528 1.956 . S
O588 Li529 1.970 . S
O588 Li530 1.961 . S
O588 C532 1.325 1_455 S
O589 Li528 1.970 . S
O589 Li529 1.956 . S
O589 Li531 1.961 . S
O589 C538 1.325 . S
O590 Li528 1.961 . S
O590 Li530 1.956 . S
O590 Li531 1.970 . S
O590 C560 1.325 . S
O591 Li529 1.961 . S
O591 Li530 1.970 . S
O591 Li531 1.956 . S
O591 C566 1.325 . S
H592 C534 0.929 . S
H593 C535 0.930 . S
H594 C536 0.930 . S
H595 C537 0.930 . S
H596 C539 0.930 . S
H597 C541 0.929 . S
H598 C542 0.930 . S
H599 C543 0.930 . S
H600 C546 0.930 . S
H601 C549 0.929 . S
H602 C554 0.929 . S
H603 C555 0.930 . S
H604 C562 0.929 . S
H605 C563 0.930 . S
H606 C564 0.930 . S
H607 C565 0.930 . S
H608 C567 0.929 . S
H609 C568 0.930 . S
H610 C569 0.930 . S
H611 C570 0.930 . S
H612 C574 0.929 . S
H613 C576 0.930 . S
H614 C582 0.929 . S
H615 C583 0.930 . S
Li616 N633 1.990 1_565 S
Li616 O676 1.956 . S
Li616 O677 1.970 . S
Li616 O678 1.961 . S
Li617 N641 1.990 . S
Li617 O676 1.970 . S
Li617 O677 1.956 . S
Li617 O679 1.961 . S
Li618 N663 1.990 . S
Li618 O676 1.961 . S
Li618 O678 1.956 . S
Li618 O679 1.970 . S
Li619 N669 1.990 . S
Li619 O677 1.961 . S
Li619 O678 1.970 . S
Li619 O679 1.956 . S
C620 C622 1.348 . S
C620 C623 1.356 . S
C620 O676 1.325 . S
N621 C624 1.314 . S
N621 C625 1.279 . S
C622 C620 1.348 . S
C622 C624 1.353 . S
C622 H680 0.929 . S
C623 C620 1.356 . S
C623 C625 1.358 . S
C623 H681 0.930 . S
C624 N621 1.314 . S
C624 C622 1.353 . S
C624 H682 0.930 . S
C625 N621 1.279 . S
C625 C623 1.358 . S
C625 H683 0.930 . S
C626 C629 1.348 . S
C626 C630 1.356 . S
C626 O677 1.325 . S
C627 N628 1.279 . S
C627 C630 1.358 . S
C627 H684 0.930 . S
N628 C627 1.279 . S
N628 C631 1.314 . S
C629 C626 1.348 . S
C629 C631 1.353 . S
C629 H685 0.929 1_565 S
C630 C626 1.356 . S
C630 C627 1.358 . S
C630 H686 0.930 . S
C631 N628 1.314 . S
C631 C629 1.353 . S
C631 H687 0.930 1_565 S
C632 N633 1.314 . S
C632 C637 1.353 . S
C632 H638 0.930 . S
N633 Li616 1.990 1_545 S
N633 C632 1.314 . S
N633 C635 1.279 . S
C634 C635 1.358 . S
C634 C636 1.356 . S
C634 H688 0.930 . S
C635 N633 1.279 . S
C635 C634 1.358 . S
C635 H639 0.930 . S
C636 C634 1.356 . S
C636 C637 1.348 . S
C637 C632 1.353 . S
C637 C636 1.348 . S
C637 H689 0.929 . S
H638 C632 0.930 . S
H639 C635 0.930 . S
C640 N641 1.314 . S
C640 C642 1.353 . S
C640 H646 0.930 . S
N641 Li617 1.990 . S
N641 C640 1.314 . S
N641 C644 1.279 . S
C642 C640 1.353 . S
C642 C645 1.348 . S
C642 H690 0.929 . S
C643 C644 1.358 . S
C643 C645 1.356 . S
C643 H691 0.930 . S
C644 N641 1.279 . S
C644 C643 1.358 . S
C644 H647 0.930 . S
C645 C642 1.348 . S
C645 C643 1.356 . S
H646 C640 0.930 . S
H647 C644 0.930 . S
C648 C650 1.348 . S
C648 C651 1.356 . S
C648 O678 1.325 1_545 S
N649 C652 1.314 . S
N649 C653 1.279 . S
C650 C648 1.348 . S
C650 C652 1.353 . S
C650 H692 0.929 1_545 S
C651 C648 1.356 . S
C651 C653 1.358 . S
C651 H693 0.930 . S
C652 N649 1.314 . S
C652 C650 1.353 . S
C652 H694 0.930 . S
C653 N649 1.279 . S
C653 C651 1.358 . S
C653 H695 0.930 . S
C654 C655 1.348 . S
C654 C656 1.356 . S
C654 O679 1.325 . S
C655 C654 1.348 . S
C655 C657 1.353 . S
C655 H696 0.929 . S
C656 C654 1.356 . S
C656 C658 1.358 . S
C656 H697 0.930 . S
C657 C655 1.353 . S
C657 N659 1.314 . S
C657 H698 0.930 . S
C658 C656 1.358 . S
C658 N659 1.279 . S
C658 H699 0.930 . S
N659 C657 1.314 . S
N659 C658 1.279 . S
C660 C662 1.353 . S
C660 N663 1.314 . S
C660 H666 0.930 . S
C661 N663 1.279 . S
C661 C664 1.358 . S
C661 H667 0.930 . S
C662 C660 1.353 . S
C662 C665 1.348 . S
C662 H700 0.929 . S
N663 Li618 1.990 . S
N663 C660 1.314 . S
N663 C661 1.279 . S
C664 C661 1.358 . S
C664 C665 1.356 . S
C664 H701 0.930 . S
C665 C662 1.348 . S
C665 C664 1.356 . S
H666 C660 0.930 . S
H667 C661 0.930 . S
C668 N669 1.314 . S
C668 C670 1.353 . S
C668 H674 0.930 . S
N669 Li619 1.990 . S
N669 C668 1.314 . S
N669 C672 1.279 . S
C670 C668 1.353 . S
C670 C673 1.348 . S
C670 H702 0.929 . S
C671 C672 1.358 . S
C671 C673 1.356 . S
C671 H703 0.930 . S
C672 N669 1.279 . S
C672 C671 1.358 . S
C672 H675 0.930 . S
C673 C670 1.348 . S
C673 C671 1.356 . S
H674 C668 0.930 . S
H675 C672 0.930 . S
O676 Li616 1.956 . S
O676 Li617 1.970 . S
O676 Li618 1.961 . S
O676 C620 1.325 . S
O677 Li616 1.970 . S
O677 Li617 1.956 . S
O677 Li619 1.961 . S
O677 C626 1.325 . S
O678 Li616 1.961 . S
O678 Li618 1.956 . S
O678 Li619 1.970 . S
O678 C648 1.325 1_565 S
O679 Li617 1.961 . S
O679 Li618 1.970 . S
O679 Li619 1.956 . S
O679 C654 1.325 . S
H680 C622 0.929 . S
H681 C623 0.930 . S
H682 C624 0.930 . S
H683 C625 0.930 . S
H684 C627 0.930 . S
H685 C629 0.929 1_545 S
H686 C630 0.930 . S
H687 C631 0.930 1_545 S
H688 C634 0.930 . S
H689 C637 0.929 . S
H690 C642 0.929 . S
H691 C643 0.930 . S
H692 C650 0.929 1_565 S
H693 C651 0.930 . S
H694 C652 0.930 . S
H695 C653 0.930 . S
H696 C655 0.929 . S
H697 C656 0.930 . S
H698 C657 0.930 . S
H699 C658 0.930 . S
H700 C662 0.929 . S
H701 C664 0.930 . S
H702 C670 0.929 . S
H703 C671 0.930 . S
H704 C712 0.950 . S
H705 C717 0.950 1_455 S
H706 C714 0.950 . S
H707 C716 0.950 . S
H708 C718 0.950 . S
H709 C720 0.950 . S
H710 C722 0.950 . S
H711 C723 0.950 1_655 S
C712 H704 0.950 . S
C712 C713 1.386 . S
C712 C714 1.391 . S
C713 C712 1.386 . S
C713 C717 1.393 . S
C714 H706 0.950 . S
C714 C712 1.391 . S
C714 C715 1.400 . S
C715 C714 1.400 . S
C715 C716 1.398 1_655 S
C715 C721 1.491 1_655 S
C716 H707 0.950 . S
C716 C715 1.398 1_455 S
C716 C717 1.391 1_455 S
C717 H705 0.950 1_655 S
C717 C713 1.393 . S
C717 C716 1.391 1_655 S
C718 H708 0.950 . S
C718 C719 1.386 . S
C718 C720 1.391 . S
C719 C718 1.386 . S
C719 C723 1.393 . S
C720 H709 0.950 . S
C720 C718 1.391 . S
C720 C721 1.400 . S
C721 C715 1.491 1_455 S
C721 C720 1.400 . S
C721 C722 1.398 1_455 S
C722 H710 0.950 . S
C722 C721 1.398 1_655 S
C722 C723 1.391 1_655 S
C723 H711 0.950 1_455 S
C723 C719 1.393 . S
C723 C722 1.391 1_455 S
H724 C732 0.950 1_565 S
H725 C737 0.950 . S
H726 C734 0.950 . S
H727 C736 0.950 . S
H728 C738 0.950 1_545 S
H729 C740 0.950 . S
H730 C742 0.950 . S
H731 C743 0.950 . S
C732 H724 0.950 1_545 S
C732 C733 1.386 . S
C732 C734 1.391 1_545 S
C733 C732 1.386 . S
C733 C737 1.393 . S
C734 H726 0.950 . S
C734 C732 1.391 1_565 S
C734 C735 1.400 1_565 S
C735 C734 1.400 1_545 S
C735 C736 1.398 . S
C735 C741 1.491 1_545 S
C736 H727 0.950 . S
C736 C735 1.398 . S
C736 C737 1.391 . S
C737 H725 0.950 . S
C737 C733 1.393 . S
C737 C736 1.391 . S
C738 H728 0.950 1_565 S
C738 C739 1.386 . S
C738 C740 1.391 1_565 S
C739 C738 1.386 . S
C739 C743 1.393 . S
C740 H729 0.950 . S
C740 C738 1.391 1_545 S
C740 C741 1.400 1_545 S
C741 C735 1.491 1_565 S
C741 C740 1.400 1_565 S
C741 C742 1.398 . S
C742 H730 0.950 . S
C742 C741 1.398 . S
C742 C743 1.391 . S
C743 H731 0.950 . S
C743 C739 1.393 . S
C743 C742 1.391 . S
H744 C752 0.927 1_455 S
H745 C757 0.950 . S
H746 C754 0.950 . S
H747 C756 0.950 . S
H748 C758 0.927 1_655 S
H749 C760 0.950 . S
H750 C762 0.950 . S
H751 C763 0.950 . S
C752 H744 0.927 1_655 S
C752 C753 1.424 . S
C752 C754 1.377 1_655 S
C753 C752 1.424 . S
C753 C757 1.393 . S
C754 H746 0.950 . S
C754 C752 1.377 1_455 S
C754 C755 1.400 1_455 S
C755 C754 1.400 1_655 S
C755 C756 1.398 . S
C755 C761 1.491 1_655 S
C756 H747 0.950 . S
C756 C755 1.398 . S
C756 C757 1.391 . S
C757 H745 0.950 . S
C757 C753 1.393 . S
C757 C756 1.391 . S
C758 H748 0.927 1_455 S
C758 C759 1.424 . S
C758 C760 1.377 1_455 S
C759 C758 1.424 . S
C759 C763 1.393 . S
C760 H749 0.950 . S
C760 C758 1.377 1_655 S
C760 C761 1.400 1_655 S
C761 C755 1.491 1_455 S
C761 C760 1.400 1_455 S
C761 C762 1.398 . S
C762 H750 0.950 . S
C762 C761 1.398 . S
C762 C763 1.391 . S
C763 H751 0.950 . S
C763 C759 1.393 . S
C763 C762 1.391 . S
H764 C772 0.950 1_565 S
H765 C777 0.950 . S
H766 C774 0.950 . S
H767 C776 0.950 . S
H768 C778 0.950 1_545 S
H769 C780 0.950 . S
H770 C782 0.950 . S
H771 C783 0.950 . S
C772 H764 0.950 1_545 S
C772 C773 1.386 . S
C772 C774 1.391 1_545 S
C773 C772 1.386 . S
C773 C777 1.393 . S
C774 H766 0.950 . S
C774 C772 1.391 1_565 S
C774 C775 1.400 1_565 S
C775 C774 1.400 1_545 S
C775 C776 1.398 . S
C775 C781 1.491 1_545 S
C776 H767 0.950 . S
C776 C775 1.398 . S
C776 C777 1.391 . S
C777 H765 0.950 . S
C777 C773 1.393 . S
C777 C776 1.391 . S
C778 H768 0.950 1_565 S
C778 C779 1.386 . S
C778 C780 1.391 1_565 S
C779 C778 1.386 . S
C779 C783 1.393 . S
C780 H769 0.950 . S
C780 C778 1.391 1_545 S
C780 C781 1.400 1_545 S
C781 C775 1.491 1_565 S
C781 C780 1.400 1_565 S
C781 C782 1.398 . S
C782 H770 0.950 . S
C782 C781 1.398 . S
C782 C783 1.391 . S
C783 H771 0.950 . S
C783 C779 1.393 . S
C783 C782 1.391 . S
H784 C792 0.950 . S
H785 C797 0.950 . S
H786 C794 0.950 . S
H787 C796 0.950 . S
H788 C798 0.950 . S
H789 C800 0.950 . S
H790 C802 0.950 . S
H791 C803 0.950 . S
C792 H784 0.950 . S
C792 C793 1.386 . S
C792 C794 1.391 . S
C793 C792 1.386 . S
C793 C797 1.393 . S
C794 H786 0.950 . S
C794 C792 1.391 . S
C794 C795 1.400 . S
C795 C794 1.400 . S
C795 C796 1.398 . S
C795 C801 1.491 . S
C796 H787 0.950 . S
C796 C795 1.398 . S
C796 C797 1.391 . S
C797 H785 0.950 . S
C797 C793 1.393 . S
C797 C796 1.391 . S
C798 H788 0.950 . S
C798 C799 1.386 . S
C798 C800 1.391 . S
C799 C798 1.386 . S
C799 C803 1.393 . S
C800 H789 0.950 . S
C800 C798 1.391 . S
C800 C801 1.400 . S
C801 C795 1.491 . S
C801 C800 1.400 . S
C801 C802 1.398 . S
C802 H790 0.950 . S
C802 C801 1.398 . S
C802 C803 1.391 . S
C803 H791 0.950 . S
C803 C799 1.393 . S
C803 C802 1.391 . S
H804 C812 0.950 . S
H805 C817 0.950 . S
H806 C814 0.950 . S
H807 C816 0.950 . S
H808 C818 0.950 . S
H809 C820 0.950 . S
H810 C822 0.950 . S
H811 C823 0.950 . S
C812 H804 0.950 . S
C812 C813 1.386 . S
C812 C814 1.391 . S
C813 C812 1.386 . S
C813 C817 1.393 . S
C814 H806 0.950 . S
C814 C812 1.391 . S
C814 C815 1.400 . S
C815 C814 1.400 . S
C815 C816 1.398 . S
C815 C821 1.491 . S
C816 H807 0.950 . S
C816 C815 1.398 . S
C816 C817 1.391 . S
C817 H805 0.950 . S
C817 C813 1.393 . S
C817 C816 1.391 . S
C818 H808 0.950 . S
C818 C819 1.386 . S
C818 C820 1.391 . S
C819 C818 1.386 . S
C819 C823 1.393 . S
C820 H809 0.950 . S
C820 C818 1.391 . S
C820 C821 1.400 . S
C821 C815 1.491 . S
C821 C820 1.400 . S
C821 C822 1.398 . S
C822 H810 0.950 . S
C822 C821 1.398 . S
C822 C823 1.391 . S
C823 H811 0.950 . S
C823 C819 1.393 . S
C823 C822 1.391 . S
H824 C832 0.950 . S
H825 C837 0.950 . S
H826 C834 0.950 . S
H827 C836 0.950 . S
H828 C838 0.950 . S
H829 C840 0.950 . S
H830 C842 0.950 . S
H831 C843 0.950 . S
C832 H824 0.950 . S
C832 C833 1.386 . S
C832 C834 1.391 . S
C833 C832 1.386 . S
C833 C837 1.393 . S
C834 H826 0.950 . S
C834 C832 1.391 . S
C834 C835 1.400 . S
C835 C834 1.400 . S
C835 C836 1.398 . S
C835 C841 1.491 . S
C836 H827 0.950 . S
C836 C835 1.398 . S
C836 C837 1.391 . S
C837 H825 0.950 . S
C837 C833 1.393 . S
C837 C836 1.391 . S
C838 H828 0.950 . S
C838 C839 1.386 . S
C838 C840 1.391 . S
C839 C838 1.386 . S
C839 C843 1.393 . S
C840 H829 0.950 . S
C840 C838 1.391 . S
C840 C841 1.400 . S
C841 C835 1.491 . S
C841 C840 1.400 . S
C841 C842 1.398 . S
C842 H830 0.950 . S
C842 C841 1.398 . S
C842 C843 1.391 . S
C843 H831 0.950 . S
C843 C839 1.393 . S
C843 C842 1.391 . S
H844 C852 0.950 . S
H845 C857 0.950 . S
H846 C854 0.950 . S
H847 C856 0.950 . S
H848 C858 0.950 . S
H849 C860 0.950 . S
H850 C862 0.950 . S
H851 C863 0.950 . S
C852 H844 0.950 . S
C852 C853 1.386 . S
C852 C854 1.391 . S
C853 C852 1.386 . S
C853 C857 1.393 . S
C854 H846 0.950 . S
C854 C852 1.391 . S
C854 C855 1.400 . S
C855 C854 1.400 . S
C855 C856 1.398 . S
C855 C861 1.491 . S
C856 H847 0.950 . S
C856 C855 1.398 . S
C856 C857 1.391 . S
C857 H845 0.950 . S
C857 C853 1.393 . S
C857 C856 1.391 . S
C858 H848 0.950 . S
C858 C859 1.386 . S
C858 C860 1.391 . S
C859 C858 1.386 . S
C859 C863 1.393 . S
C860 H849 0.950 . S
C860 C858 1.391 . S
C860 C861 1.400 . S
C861 C855 1.491 . S
C861 C860 1.400 . S
C861 C862 1.398 . S
C862 H850 0.950 . S
C862 C861 1.398 . S
C862 C863 1.391 . S
C863 H851 0.950 . S
C863 C859 1.393 . S
C863 C862 1.391 . S
H864 C872 0.950 . S
H865 C877 0.950 . S
H866 C874 0.950 . S
H867 C876 0.950 . S
H868 C878 0.950 . S
H869 C880 0.950 . S
H870 C882 0.950 . S
H871 C883 0.950 . S
C872 H864 0.950 . S
C872 C873 1.386 . S
C872 C874 1.391 . S
C873 C872 1.386 . S
C873 C877 1.393 . S
C874 H866 0.950 . S
C874 C872 1.391 . S
C874 C875 1.400 . S
C875 C874 1.400 . S
C875 C876 1.398 . S
C875 C881 1.491 . S
C876 H867 0.950 . S
C876 C875 1.398 . S
C876 C877 1.391 . S
C877 H865 0.950 . S
C877 C873 1.393 . S
C877 C876 1.391 . S
C878 H868 0.950 . S
C878 C879 1.386 . S
C878 C880 1.391 1_554 S
C879 C878 1.386 . S
C879 C883 1.393 . S
C880 H869 0.950 . S
C880 C878 1.391 1_556 S
C880 C881 1.400 . S
C881 C875 1.491 . S
C881 C880 1.400 . S
C881 C882 1.398 1_556 S
C882 H870 0.950 . S
C882 C881 1.398 1_554 S
C882 C883 1.391 . S
C883 H871 0.950 . S
C883 C879 1.393 . S
C883 C882 1.391 . S
H884 C892 0.950 . S
H885 C897 0.950 . S
H886 C894 0.946 1_554 S
H887 C896 0.957 . S
H888 C898 0.950 . S
H889 C900 0.950 . S
H890 C902 0.950 . S
H891 C903 0.950 . S
C892 H884 0.950 . S
C892 C893 1.386 . S
C892 C894 1.400 . S
C893 C892 1.386 . S
C893 C897 1.393 . S
C894 H886 0.946 1_556 S
C894 C892 1.400 . S
C894 C895 1.396 1_556 S
C895 C894 1.396 1_554 S
C895 C896 1.406 . S
C895 C901 1.491 . S
C896 H887 0.957 . S
C896 C895 1.406 . S
C896 C897 1.377 1_554 S
C897 H885 0.950 . S
C897 C893 1.393 . S
C897 C896 1.377 1_556 S
C898 H888 0.950 . S
C898 C899 1.386 . S
C898 C900 1.391 . S
C899 C898 1.386 . S
C899 C903 1.393 . S
C900 H889 0.950 . S
C900 C898 1.391 . S
C900 C901 1.400 . S
C901 C895 1.491 . S
C901 C900 1.400 . S
C901 C902 1.398 . S
C902 H890 0.950 . S
C902 C901 1.398 . S
C902 C903 1.391 . S
C903 H891 0.950 . S
C903 C899 1.393 . S
C903 C902 1.391 . S
H904 C912 0.950 . S
H905 C917 0.950 . S
H906 C914 0.950 . S
H907 C916 0.950 . S
H908 C918 0.950 . S
H909 C920 0.950 . S
H910 C922 0.950 . S
H911 C923 0.950 . S
C912 H904 0.950 . S
C912 C913 1.386 . S
C912 C914 1.391 1_554 S
C913 C912 1.386 . S
C913 C917 1.393 . S
C914 H906 0.950 . S
C914 C912 1.391 1_556 S
C914 C915 1.400 . S
C915 C914 1.400 . S
C915 C916 1.398 1_556 S
C915 C921 1.491 . S
C916 H907 0.950 . S
C916 C915 1.398 1_554 S
C916 C917 1.391 . S
C917 H905 0.950 . S
C917 C913 1.393 . S
C917 C916 1.391 . S
C918 H908 0.950 . S
C918 C919 1.386 . S
C918 C920 1.391 . S
C919 C918 1.386 . S
C919 C923 1.393 . S
C920 H909 0.950 . S
C920 C918 1.391 . S
C920 C921 1.400 . S
C921 C915 1.491 . S
C921 C920 1.400 . S
C921 C922 1.398 . S
C922 H910 0.950 . S
C922 C921 1.398 . S
C922 C923 1.391 . S
C923 H911 0.950 . S
C923 C919 1.393 . S
C923 C922 1.391 . S
H924 C932 0.950 . S
H925 C937 0.950 . S
H926 C934 0.950 . S
H927 C936 0.950 . S
H928 C938 0.950 . S
H929 C940 0.950 . S
H930 C942 0.950 . S
H931 C943 0.950 . S
C932 H924 0.950 . S
C932 C933 1.386 . S
C932 C934 1.391 . S
C933 C932 1.386 . S
C933 C937 1.393 . S
C934 H926 0.950 . S
C934 C932 1.391 . S
C934 C935 1.400 1_556 S
C935 C934 1.400 1_554 S
C935 C936 1.398 . S
C935 C941 1.491 . S
C936 H927 0.950 . S
C936 C935 1.398 . S
C936 C937 1.391 1_554 S
C937 H925 0.950 . S
C937 C933 1.393 . S
C937 C936 1.391 1_556 S
C938 H928 0.950 . S
C938 C939 1.386 . S
C938 C940 1.391 . S
C939 C938 1.386 . S
C939 C943 1.393 . S
C940 H929 0.950 . S
C940 C938 1.391 . S
C940 C941 1.400 . S
C941 C935 1.491 . S
C941 C940 1.400 . S
C941 C942 1.398 . S
C942 H930 0.950 . S
C942 C941 1.398 . S
C942 C943 1.391 . S
C943 H931 0.950 . S
C943 C939 1.393 . S
C943 C942 1.391 . S
H944 C952 0.950 . S
H945 C957 0.950 . S
H946 C954 0.950 . S
H947 C956 0.950 . S
H948 C958 0.950 . S
H949 C960 0.950 . S
H950 C962 0.950 . S
H951 C963 0.950 . S
C952 H944 0.950 . S
C952 C953 1.386 . S
C952 C954 1.391 . S
C953 C952 1.386 . S
C953 C957 1.393 . S
C954 H946 0.950 . S
C954 C952 1.391 . S
C954 C955 1.400 . S
C955 C954 1.400 . S
C955 C956 1.398 . S
C955 C961 1.491 . S
C956 H947 0.950 . S
C956 C955 1.398 . S
C956 C957 1.391 . S
C957 H945 0.950 . S
C957 C953 1.393 . S
C957 C956 1.391 . S
C958 H948 0.950 . S
C958 C959 1.386 . S
C958 C960 1.391 . S
C959 C958 1.386 . S
C959 C963 1.393 . S
C960 H949 0.950 . S
C960 C958 1.391 . S
C960 C961 1.400 . S
C961 C955 1.491 . S
C961 C960 1.400 . S
C961 C962 1.398 . S
C962 H950 0.950 . S
C962 C961 1.398 . S
C962 C963 1.391 . S
C963 H951 0.950 . S
C963 C959 1.393 . S
C963 C962 1.391 . S
H964 C972 0.950 . S
H965 C977 0.950 . S
H966 C974 0.950 . S
H967 C976 0.950 . S
H968 C978 0.950 . S
H969 C980 0.950 . S
H970 C982 0.950 . S
H971 C983 0.950 . S
C972 H964 0.950 . S
C972 C973 1.386 . S
C972 C974 1.391 . S
C973 C972 1.386 . S
C973 C977 1.393 . S
C974 H966 0.950 . S
C974 C972 1.391 . S
C974 C975 1.400 . S
C975 C974 1.400 . S
C975 C976 1.398 . S
C975 C981 1.491 . S
C976 H967 0.950 . S
C976 C975 1.398 . S
C976 C977 1.391 . S
C977 H965 0.950 . S
C977 C973 1.393 . S
C977 C976 1.391 . S
C978 H968 0.950 . S
C978 C979 1.386 . S
C978 C980 1.391 . S
C979 C978 1.386 . S
C979 C983 1.393 . S
C980 H969 0.950 . S
C980 C978 1.391 . S
C980 C981 1.400 . S
C981 C975 1.491 . S
C981 C980 1.400 . S
C981 C982 1.398 . S
C982 H970 0.950 . S
C982 C981 1.398 . S
C982 C983 1.391 . S
C983 H971 0.950 . S
C983 C979 1.393 . S
C983 C982 1.391 . S
H984 C992 0.950 . S
H985 C997 0.950 . S
H986 C994 0.950 . S
H987 C996 0.950 . S
H988 C998 0.950 . S
H989 C1000 0.950 . S
H990 C1002 0.950 . S
H991 C1003 0.950 . S
C992 H984 0.950 . S
C992 C993 1.386 . S
C992 C994 1.391 . S
C993 C992 1.386 . S
C993 C997 1.393 . S
C994 H986 0.950 . S
C994 C992 1.391 . S
C994 C995 1.400 . S
C995 C994 1.400 . S
C995 C996 1.398 . S
C995 C1001 1.491 . S
C996 H987 0.950 . S
C996 C995 1.398 . S
C996 C997 1.391 . S
C997 H985 0.950 . S
C997 C993 1.393 . S
C997 C996 1.391 . S
C998 H988 0.950 . S
C998 C999 1.386 . S
C998 C1000 1.391 . S
C999 C998 1.386 . S
C999 C1003 1.393 . S
C1000 H989 0.950 . S
C1000 C998 1.391 . S
C1000 C1001 1.400 . S
C1001 C995 1.491 . S
C1001 C1000 1.400 . S
C1001 C1002 1.398 . S
C1002 H990 0.950 . S
C1002 C1001 1.398 . S
C1002 C1003 1.391 . S
C1003 H991 0.950 . S
C1003 C999 1.393 . S
C1003 C1002 1.391 . S
H1004 C1012 0.950 . S
H1005 C1017 0.950 . S
H1006 C1014 0.950 . S
H1007 C1016 0.950 . S
H1008 C1018 0.950 . S
H1009 C1020 0.950 . S
H1010 C1022 0.950 . S
H1011 C1023 0.950 . S
C1012 H1004 0.950 . S
C1012 C1013 1.386 . S
C1012 C1014 1.391 . S
C1013 C1012 1.386 . S
C1013 C1017 1.393 . S
C1014 H1006 0.950 . S
C1014 C1012 1.391 . S
C1014 C1015 1.400 . S
C1015 C1014 1.400 . S
C1015 C1016 1.398 . S
C1015 C1021 1.491 . S
C1016 H1007 0.950 . S
C1016 C1015 1.398 . S
C1016 C1017 1.391 . S
C1017 H1005 0.950 . S
C1017 C1013 1.393 . S
C1017 C1016 1.391 . S
C1018 H1008 0.950 . S
C1018 C1019 1.386 . S
C1018 C1020 1.391 . S
C1019 C1018 1.386 . S
C1019 C1023 1.393 . S
C1020 H1009 0.950 . S
C1020 C1018 1.391 . S
C1020 C1021 1.400 . S
C1021 C1015 1.491 . S
C1021 C1020 1.400 . S
C1021 C1022 1.398 . S
C1022 H1010 0.950 . S
C1022 C1021 1.398 . S
C1022 C1023 1.391 . S
C1023 H1011 0.950 . S
C1023 C1019 1.393 . S
C1023 C1022 1.391 . S
C713 C205 1.126 . S
C719 C29 1.126 . S
C733 C321 1.127 . S
C739 C117 1.128 . S
C753 C401 1.121 . S
C759 C557 1.122 . S
C773 C489 1.137 . S
C779 C673 1.138 . S
C793 C108 0.683 . S
C799 C57 0.715 . S
C813 C145 0.680 . S
C819 C225 0.717 . S
C833 C313 0.693 . S
C839 C233 0.730 . S
C853 C293 0.677 . S
C859 C49 0.688 . S
C873 C636 0.728 . S
C879 C372 0.712 . S
C893 C460 0.709 . S
C899 C409 0.735 . S
C913 C585 0.680 . S
C919 C469 0.717 . S
C933 C645 0.687 . S
C939 C548 0.721 . S
C953 C20 2.105 . S
C959 C497 2.106 . S
C973 C577 2.120 . S
C979 C137 2.120 . S
C993 C196 2.120 . S
C999 C665 2.120 . S
C1013 C284 2.118 . S
C1019 C381 2.119 . S
