# Generated by pormake.
# Topology rob, (6)-cn, num edge types: 1
# Building blocks:
#     Node 0, Type 0, BuildingBlock: VOLQOD_clean_sbu_1, # of connection points: 6
#     Node 1, Type 0, BuildingBlock: VOLQOD_clean_sbu_1, # of connection points: 6
#     Node 2, Type 0, BuildingBlock: VOLQOD_clean_sbu_1, # of connection points: 6
#     Node 3, Type 0, BuildingBlock: VOLQOD_clean_sbu_1, # of connection points: 6
#     Edge 4, Type (0, 0), BuildingBlock: MIFKUJ_clean_linker_0, # of connection points: 2
#     Edge 5, Type (0, 0), BuildingBlock: MIFKUJ_clean_linker_0, # of connection points: 2
#     Edge 6, Type (0, 0), BuildingBlock: MIFKUJ_clean_linker_0, # of connection points: 2
#     Edge 7, Type (0, 0), BuildingBlock: MIFKUJ_clean_linker_0, # of connection points: 2
#     Edge 8, Type (0, 0), BuildingBlock: MIFKUJ_clean_linker_0, # of connection points: 2
#     Edge 9, Type (0, 0), BuildingBlock: MIFKUJ_clean_linker_0, # of connection points: 2
#     Edge 10, Type (0, 0), BuildingBlock: MIFKUJ_clean_linker_0, # of connection points: 2
#     Edge 11, Type (0, 0), BuildingBlock: MIFKUJ_clean_linker_0, # of connection points: 2
#     Edge 12, Type (0, 0), BuildingBlock: MIFKUJ_clean_linker_0, # of connection points: 2
#     Edge 13, Type (0, 0), BuildingBlock: MIFKUJ_clean_linker_0, # of connection points: 2
#     Edge 14, Type (0, 0), BuildingBlock: MIFKUJ_clean_linker_0, # of connection points: 2
#     Edge 15, Type (0, 0), BuildingBlock: MIFKUJ_clean_linker_0, # of connection points: 2
# Relax obj value: 0.389
# Max RMSD: 0.278
# Mean RMSD: 0.278
data_MOF--net-rob--node1-VOLQOD_clean_sbu_1--edge1-MIFKUJ_clean_linker_0
_symmetry_space_group_name_H-M    P1
_symmetry_Int_Tables_number       1
_symmetry_cell_setting            triclinic
loop_
_symmetry_equiv_pos_as_xyz
'x, y, z'
_cell_length_a     21.922612
_cell_length_b     37.081719
_cell_length_c     31.932161
_cell_angle_alpha  89.841469
_cell_angle_beta   89.96966
_cell_angle_gamma 89.990595
loop_
_atom_site_label
_atom_site_type_symbol
_atom_site_fract_x
_atom_site_fract_y
_atom_site_fract_z
_atom_type_partial_charge
O0 O 0.30306 0.32225 0.02873 0.0
Zn1 Zn 0.23001 0.29069 0.02215 0.0
O2 O 0.24941 0.24216 0.04035 0.0
Zn3 Zn 0.24068 0.2086 -0.00572 0.0
Zn4 Zn 0.33285 0.24075 0.06066 0.0
Zn5 Zn 0.19469 0.22823 0.08502 0.0
O6 O 0.18625 0.1673 0.01023 0.0
O7 O 0.1397 0.18762 0.06741 0.0
O8 O 0.20614 0.29158 0.96206 0.0
O9 O 0.2073 0.23399 0.94322 0.0
O10 O 0.32182 0.18925 0.97653 0.0
O11 O 0.38723 0.21739 0.01817 0.0
O12 O 0.33742 0.21116 0.11321 0.0
O13 O 0.16171 0.31274 0.05598 0.0
O14 O 0.24067 0.20839 0.13412 0.0
O15 O 0.145 0.27013 0.10381 0.0
C16 C 0.35167 0.31994 0.05031 0.0
C17 C 0.14614 0.16404 0.03884 0.0
C18 C 0.37618 0.19656 0.98751 0.0
C19 C 0.19818 0.26716 0.93474 0.0
C20 C 0.29688 0.20135 0.13942 0.0
C21 C 0.13492 0.30139 0.08882 0.0
O22 O 0.36673 0.29101 0.06929 0.0
O23 O 0.76918 0.83428 0.05777 0.0
Zn24 Zn 0.70702 0.79836 0.03931 0.0
O25 O 0.73202 0.74959 0.05472 0.0
Zn26 Zn 0.72936 0.71815 0.00595 0.0
Zn27 Zn 0.81466 0.75044 0.07772 0.0
Zn28 Zn 0.67585 0.73111 0.09636 0.0
O29 O 0.67549 0.67461 0.0148 0.0
O30 O 0.64206 0.68349 0.07948 0.0
O31 O 0.69803 0.8028 0.97698 0.0
O32 O 0.70381 0.74614 0.95479 0.0
O33 O 0.81291 0.69968 0.9928 0.0
O34 O 0.87416 0.7253 0.03943 0.0
O35 O 0.81598 0.72651 0.13448 0.0
O36 O 0.62751 0.81275 0.06614 0.0
O37 O 0.71778 0.72164 0.1509 0.0
O38 O 0.60591 0.7648 0.10522 0.0
C39 C 0.82137 0.83196 0.07494 0.0
C40 C 0.64509 0.66431 0.04665 0.0
C41 C 0.86593 0.70535 0.00754 0.0
C42 C 0.69616 0.77968 0.9476 0.0
C43 C 0.77385 0.71835 0.16038 0.0
C44 C 0.59262 0.79607 0.09146 0.0
O45 O 0.84483 0.80156 0.08425 0.0
O46 O 0.23121 0.84122 0.54319 0.0
Zn47 Zn 0.29242 0.80282 0.52984 0.0
O48 O 0.25827 0.75466 0.53832 0.0
Zn49 Zn 0.30487 0.72909 0.58038 0.0
Zn50 Zn 0.17417 0.75937 0.55686 0.0
Zn51 Zn 0.26127 0.72733 0.48648 0.0
O52 O 0.33641 0.68214 0.55867 0.0
O53 O 0.31867 0.68486 0.49034 0.0
O54 O 0.36943 0.81071 0.56335 0.0
O55 O 0.37806 0.75804 0.59615 0.0
O56 O 0.25547 0.72007 0.6326 0.0
O57 O 0.16656 0.74575 0.61742 0.0
O58 O 0.1182 0.72712 0.52393 0.0
O59 O 0.30995 0.81114 0.46892 0.0
O60 O 0.17895 0.70676 0.47368 0.0
O61 O 0.28464 0.75954 0.43836 0.0
C62 C 0.17339 0.84022 0.54656 0.0
C63 C 0.34175 0.66906 0.52206 0.0
C64 C 0.20166 0.72943 0.64297 0.0
C65 C 0.39815 0.78943 0.58773 0.0
C66 C 0.12687 0.70824 0.49123 0.0
C67 C 0.30285 0.79212 0.43618 0.0
O68 O 0.14483 0.81041 0.5495 0.0
O69 O 0.7284 0.33725 0.51399 0.0
Zn70 Zn 0.79249 0.29977 0.50171 0.0
O71 O 0.7593 0.25127 0.5087 0.0
Zn72 Zn 0.80398 0.22545 0.551 0.0
Zn73 Zn 0.67444 0.2548 0.52505 0.0
Zn74 Zn 0.76489 0.22419 0.45721 0.0
O75 O 0.84394 0.18149 0.52832 0.0
O76 O 0.8306 0.18597 0.45948 0.0
O77 O 0.86739 0.30842 0.53791 0.0
O78 O 0.87267 0.25548 0.57044 0.0
O79 O 0.75205 0.21381 0.60117 0.0
O80 O 0.66608 0.2427 0.58568 0.0
O81 O 0.62181 0.21939 0.49376 0.0
O82 O 0.81242 0.30804 0.44103 0.0
O83 O 0.68781 0.19677 0.4481 0.0
O84 O 0.77851 0.25855 0.40911 0.0
C85 C 0.67039 0.33533 0.51535 0.0
C86 C 0.85438 0.17065 0.49127 0.0
C87 C 0.69901 0.22483 0.61115 0.0
C88 C 0.89352 0.28686 0.56334 0.0
C89 C 0.63505 0.19735 0.46466 0.0
C90 C 0.79983 0.29054 0.40785 0.0
O91 O 0.64291 0.30508 0.5164 0.0
H92 H 0.59927 0.62811 0.11411 0.0
H93 H 0.55563 0.56762 0.11577 0.0
H94 H 0.58135 0.55836 0.98235 0.0
H95 H 0.62575 0.619 0.98026 0.0
H96 H 0.463 0.53863 0.01282 0.0
H97 H 0.67632 0.51622 0.04357 0.0
H98 H 0.77146 0.52504 0.08343 0.0
H99 H 0.68211 0.4897 0.19596 0.0
H100 H 0.5861 0.4812 0.15689 0.0
H101 H 0.38956 0.35906 0.98422 0.0
H102 H 0.44728 0.41529 0.98509 0.0
H103 H 0.45839 0.40949 0.11999 0.0
H104 H 0.40374 0.35157 0.11873 0.0
H105 H 0.55816 0.43774 0.09171 0.0
H106 H 0.34779 0.46163 0.06822 0.0
H107 H 0.24697 0.45548 0.0348 0.0
H108 H 0.32179 0.49181 0.91778 0.0
H109 H 0.42332 0.4977 0.95036 0.0
C110 C 0.59549 0.61335 0.085 0.0
C111 C 0.61594 0.62839 0.04697 0.0
C112 C 0.57092 0.5787 0.08614 0.0
C113 C 0.56603 0.55853 0.04929 0.0
C114 C 0.58521 0.57358 0.01113 0.0
C115 C 0.61046 0.60817 0.01 0.0
C116 C 0.53935 0.52202 0.05048 0.0
C117 C 0.48417 0.51636 0.02947 0.0
C118 C 0.56585 0.49365 0.07396 0.0
C119 C 0.62382 0.49841 0.09735 0.0
C120 C 0.67679 0.51061 0.07688 0.0
C121 C 0.73091 0.5155 0.09932 0.0
C122 C 0.73278 0.50803 0.14223 0.0
C123 C 0.68057 0.49553 0.16274 0.0
C124 C 0.62631 0.49064 0.14045 0.0
C125 C 0.40519 0.3696 0.01396 0.0
C126 C 0.39192 0.35148 0.05146 0.0
C127 C 0.43776 0.40179 0.0145 0.0
C128 C 0.45538 0.41726 0.05271 0.0
C129 C 0.44477 0.39822 0.09016 0.0
C130 C 0.41359 0.36527 0.0895 0.0
C131 C 0.48207 0.45401 0.0533 0.0
C132 C 0.53694 0.45988 0.07489 0.0
C133 C 0.45442 0.48301 0.03133 0.0
C134 C 0.39329 0.4798 0.01166 0.0
C135 C 0.34283 0.4681 0.0353 0.0
C136 C 0.28555 0.46468 0.01651 0.0
C137 C 0.27801 0.47317 0.97417 0.0
C138 C 0.32772 0.48521 0.95056 0.0
C139 C 0.38513 0.48862 0.96918 0.0
H140 H 0.23363 0.4705 0.95968 0.0
H141 H 0.7747 0.51186 0.15956 0.0
H142 H 0.36606 0.63278 0.44904 0.0
H143 H 0.41783 0.57457 0.44151 0.0
H144 H 0.44375 0.56938 0.57527 0.0
H145 H 0.39205 0.62705 0.58322 0.0
H146 H 0.53294 0.55225 0.46243 0.0
H147 H 0.42153 0.4838 0.60781 0.0
H148 H 0.32384 0.48541 0.64615 0.0
H149 H 0.23213 0.52225 0.53522 0.0
H150 H 0.32901 0.52034 0.49606 0.0
H151 H 0.7095 0.40421 0.52968 0.0
H152 H 0.64998 0.45972 0.5247 0.0
H153 H 0.49076 0.39808 0.49037 0.0
H154 H 0.54941 0.34238 0.49677 0.0
H155 H 0.4593 0.44638 0.54332 0.0
H156 H 0.57575 0.44785 0.41712 0.0
H157 H 0.66856 0.44466 0.37357 0.0
H158 H 0.74048 0.53829 0.435 0.0
H159 H 0.64854 0.54175 0.47937 0.0
C160 C 0.38284 0.61926 0.47684 0.0
C161 C 0.37457 0.63449 0.51676 0.0
C162 C 0.41252 0.58609 0.47245 0.0
C163 C 0.43386 0.56755 0.50789 0.0
C164 C 0.42674 0.58302 0.54759 0.0
C165 C 0.39731 0.61609 0.55203 0.0
C166 C 0.46345 0.53188 0.50386 0.0
C167 C 0.51682 0.52899 0.47989 0.0
C168 C 0.44139 0.50142 0.52588 0.0
C169 C 0.38271 0.50222 0.54912 0.0
C170 C 0.38047 0.49208 0.59155 0.0
C171 C 0.32524 0.49308 0.61344 0.0
C172 C 0.27185 0.50403 0.59317 0.0
C173 C 0.27354 0.5139 0.55093 0.0
C174 C 0.32863 0.51291 0.52889 0.0
C175 C 0.66178 0.40247 0.52115 0.0
C176 C 0.63417 0.36891 0.51361 0.0
C177 C 0.62792 0.43426 0.51799 0.0
C178 C 0.56616 0.43314 0.50638 0.0
C179 C 0.53837 0.39962 0.49927 0.0
C180 C 0.57196 0.3678 0.50299 0.0
C181 C 0.53009 0.46685 0.50284 0.0
C182 C 0.47537 0.46943 0.52547 0.0
C183 C 0.55021 0.49671 0.47872 0.0
C184 C 0.60539 0.49488 0.45181 0.0
C185 C 0.61152 0.46763 0.42154 0.0
C186 C 0.66395 0.46579 0.39668 0.0
C187 C 0.71041 0.49121 0.40161 0.0
C188 C 0.70446 0.5186 0.43127 0.0
C189 C 0.65217 0.52054 0.45625 0.0
H190 H 0.75101 0.4897 0.38246 0.0
H191 H 0.22915 0.5048 0.61018 0.0
H192 H 0.02903 0.15517 0.06592 0.0
H193 H 0.9747 0.09813 0.07599 0.0
H194 H 0.13348 0.03993 0.0329 0.0
H195 H 0.18571 0.09691 0.01982 0.0
H196 H 0.04398 0.00813 0.00441 0.0
H197 H 0.08948 0.05011 0.14223 0.0
H198 H 0.09173 0.09323 0.20089 0.0
H199 H 0.89593 0.09453 0.20415 0.0
H200 H 0.89249 0.05175 0.14516 0.0
H201 H 0.9449 0.83905 0.08349 0.0
H202 H 0.00327 0.89541 0.08437 0.0
H203 H 0.8358 0.95639 0.08233 0.0
H204 H 0.77713 0.90037 0.08095 0.0
H205 H 0.93325 0.9844 0.13726 0.0
H206 H 0.89562 0.94262 -0.00599 0.0
H207 H 0.90071 0.8964 0.93869 0.0
H208 H 0.09546 0.89127 0.95189 0.0
H209 H 0.09136 0.93713 0.00771 0.0
C210 C 0.05176 0.13012 0.05812 0.0
C211 C 0.11129 0.13029 0.04197 0.0
C212 C 0.02109 0.09752 0.06436 0.0
C213 C 0.05049 0.06453 0.05629 0.0
C214 C 0.10968 0.0649 0.03943 0.0
C215 C 0.13951 0.09747 0.03188 0.0
C216 C 0.01972 0.0296 0.06499 0.0
C217 C 0.02076 0.00293 0.03383 0.0
C218 C 0.98888 0.02254 0.10323 0.0
C219 C 0.99075 0.04796 0.13903 0.0
C220 C 0.0469 0.05975 0.15531 0.0
C221 C 0.04839 0.08411 0.18863 0.0
C222 C 0.99401 0.09668 0.20616 0.0
C223 C 0.93802 0.0848 0.19051 0.0
C224 C 0.93627 0.06046 0.15716 0.0
C225 C 0.92052 0.86445 0.08406 0.0
C226 C 0.85652 0.86537 0.08165 0.0
C227 C 0.95388 0.89654 0.08455 0.0
C228 C 0.92362 0.92987 0.08315 0.0
C229 C 0.85977 0.93085 0.08348 0.0
C230 C 0.82644 0.89885 0.0824 0.0
C231 C 0.95809 0.96359 0.07682 0.0
C232 C 0.95734 0.98987 0.10824 0.0
C233 C 0.99065 0.97001 0.03937 0.0
C234 C 0.99312 0.94302 0.00524 0.0
C235 C 0.93946 0.93146 0.98527 0.0
C236 C 0.94217 0.90536 0.95381 0.0
C237 C -0.00164 0.89085 0.94185 0.0
C238 C 0.05197 0.90251 0.96121 0.0
C239 C 0.04948 0.92857 0.99273 0.0
H240 H 0.00036 0.87062 0.91752 0.0
H241 H 0.99525 0.11557 0.23192 0.0
H242 H 0.8359 0.11276 0.44046 0.0
H243 H 0.89282 0.05554 0.44205 0.0
H244 H 0.0184 0.10074 0.53153 0.0
H245 H 0.96045 0.15723 0.53141 0.0
H246 H 0.06163 0.0492 0.45139 0.0
H247 H 0.94025 0.06285 0.58301 0.0
H248 H 0.84247 0.07648 0.61787 0.0
H249 H 0.7535 0.99486 0.54486 0.0
H250 H 0.85076 0.98119 0.50912 0.0
H251 H 0.21644 0.90902 0.55369 0.0
H252 H 0.16221 0.96486 0.53777 0.0
H253 H -0.00108 0.90411 0.51114 0.0
H254 H 0.05234 0.84818 0.52827 0.0
H255 H 0.96971 0.9619 0.55136 0.0
H256 H 0.09227 0.93695 0.43278 0.0
H257 H 0.18531 0.92222 0.39298 0.0
H258 H 0.26683 0.02206 0.43117 0.0
H259 H 0.17484 0.03711 0.4721 0.0
C260 C 0.87649 0.11062 0.45964 0.0
C261 C 0.8939 0.13906 0.48597 0.0
C262 C 0.9088 0.0781 0.46052 0.0
C263 C 0.95957 0.07423 0.48688 0.0
C264 C 0.97944 0.10348 0.5109 0.0
C265 C 0.94627 0.13554 0.51092 0.0
C266 C 0.98741 0.03858 0.49367 0.0
C267 C 0.04207 0.03003 0.47333 0.0
C268 C 0.96045 0.01349 0.52132 0.0
C269 C 0.90239 0.02134 0.54311 0.0
C270 C 0.89967 0.04807 0.57416 0.0
C271 C 0.84442 0.05575 0.59411 0.0
C272 C 0.79175 0.03663 0.58349 0.0
C273 C 0.7943 0.00971 0.55298 0.0
C274 C 0.84944 0.00199 0.53288 0.0
C275 C 0.16878 0.90756 0.54491 0.0
C276 C 0.13875 0.87417 0.54207 0.0
C277 C 0.138 0.93948 0.53545 0.0
C278 C 0.07697 0.93858 0.52222 0.0
C279 C 0.04615 0.90542 0.52099 0.0
C280 C 0.07671 0.87348 0.53094 0.0
C281 C 0.04539 0.97227 0.50975 0.0
C282 C 0.98963 0.98061 0.52904 0.0
C283 C 0.07109 0.99681 0.48046 0.0
C284 C 0.12674 0.98797 0.45593 0.0
C285 C 0.13024 0.95563 0.43308 0.0
C286 C 0.1828 0.94724 0.41029 0.0
C287 C 0.23202 0.97115 0.4097 0.0
C288 C 0.22873 0.00354 0.43183 0.0
C289 C 0.17637 0.01201 0.45484 0.0
H290 H 0.27265 0.96462 0.39199 0.0
H291 H 0.74901 0.0426 0.59897 0.0
H292 H 0.51173 0.20785 0.46405 0.0
H293 H 0.43887 0.17699 0.4189 0.0
H294 H 0.57858 0.10142 0.38209 0.0
H295 H 0.65202 0.13284 0.42625 0.0
H296 H 0.54627 0.14241 0.31989 0.0
H297 H 0.43984 0.07031 0.4157 0.0
H298 H 0.38616 0.0524 0.48028 0.0
H299 H 0.24444 0.12911 0.45421 0.0
H300 H 0.29776 0.1481 0.3899 0.0
H301 H 0.37108 0.14311 0.14107 0.0
H302 H 0.41124 0.11228 0.2031 0.0
H303 H 0.30667 0.18347 0.28234 0.0
H304 H 0.26306 0.21243 0.22014 0.0
H305 H 0.32316 0.12064 0.32133 0.0
H306 H 0.45327 0.20644 0.24536 0.0
H307 H 0.50828 0.22832 0.18279 0.0
H308 H 0.60701 0.12845 0.17612 0.0
H309 H 0.55202 0.10589 0.23844 0.0
C310 C 0.52628 0.18387 0.44751 0.0
C311 C 0.58781 0.17342 0.4474 0.0
C312 C 0.48437 0.16592 0.42207 0.0
C313 C 0.50347 0.13708 0.39676 0.0
C314 C 0.56301 0.12372 0.40118 0.0
C315 C 0.60505 0.14195 0.42603 0.0
C316 C 0.46859 0.12877 0.35835 0.0
C317 C 0.49786 0.13624 0.32024 0.0
C318 C 0.40523 0.12157 0.35878 0.0
C319 C 0.37313 0.11076 0.39789 0.0
C320 C 0.39757 0.08369 0.4239 0.0
C321 C 0.36715 0.07331 0.46049 0.0
C322 C 0.31202 0.08968 0.4714 0.0
C323 C 0.28719 0.11647 0.44573 0.0
C324 C 0.31749 0.12702 0.40915 0.0
C325 C 0.35586 0.15152 0.17182 0.0
C326 C 0.31549 0.18058 0.17629 0.0
C327 C 0.37842 0.13384 0.20713 0.0
C328 C 0.36326 0.14626 0.24732 0.0
C329 C 0.31915 0.1735 0.25164 0.0
C330 C 0.29485 0.19032 0.21623 0.0
C331 C 0.40076 0.13598 0.28396 0.0
C332 C 0.37201 0.12521 0.3213 0.0
C333 C 0.4648 0.14072 0.28335 0.0
C334 C 0.49806 0.15434 0.2461 0.0
C335 C 0.48651 0.18913 0.23038 0.0
C336 C 0.51767 0.20164 0.195 0.0
C337 C 0.56096 0.17974 0.17541 0.0
C338 C 0.57334 0.14533 0.19125 0.0
C339 C 0.5422 0.13267 0.22658 0.0
H340 H 0.58503 0.18946 0.14801 0.0
H341 H 0.28841 0.08149 0.49964 0.0
H342 H 0.48873 0.76433 0.11879 0.0
H343 H 0.41043 0.79147 0.16226 0.0
H344 H 0.49561 0.89571 0.14747 0.0
H345 H 0.57464 0.86834 0.10337 0.0
H346 H 0.49275 0.8758 0.22681 0.0
H347 H 0.34246 0.88869 0.12578 0.0
H348 H 0.27939 0.87563 0.06382 0.0
H349 H 0.20523 0.78229 0.12522 0.0
H350 H 0.26846 0.79437 0.18733 0.0
H351 H 0.32627 0.86314 0.418 0.0
H352 H 0.34699 0.88967 0.34918 0.0
H353 H 0.32443 0.78521 0.29203 0.0
H354 H 0.30272 0.75867 0.36021 0.0
H355 H 0.27645 0.8392 0.24288 0.0
H356 H 0.46701 0.81619 0.32389 0.0
H357 H 0.53391 0.82745 0.38464 0.0
H358 H 0.53189 0.94099 0.3577 0.0
H359 H 0.46453 0.93032 0.29698 0.0
C360 C 0.48966 0.79324 0.12363 0.0
C361 C 0.53819 0.81414 0.10842 0.0
C362 C 0.44436 0.8089 0.14808 0.0
C363 C 0.44695 0.84573 0.15808 0.0
C364 C 0.49253 0.86731 0.1399 0.0
C365 C 0.53765 0.85163 0.11482 0.0
C366 C 0.41141 0.85853 0.19457 0.0
C367 C 0.44468 0.86932 0.22992 0.0
C368 C 0.3487 0.85032 0.19872 0.0
C369 C 0.31026 0.84259 0.16143 0.0
C370 C 0.31295 0.86526 0.12606 0.0
C371 C 0.27711 0.85803 0.09087 0.0
C372 C 0.23827 0.82818 0.0906 0.0
C373 C 0.2352 0.80548 0.12553 0.0
C374 C 0.27093 0.81259 0.16082 0.0
C375 C 0.32542 0.84585 0.39073 0.0
C376 C 0.31389 0.80862 0.39466 0.0
C377 C 0.33681 0.86115 0.35143 0.0
C378 C 0.33745 0.83939 0.31557 0.0
C379 C 0.32366 0.80256 0.31928 0.0
C380 C 0.31195 0.78732 0.35839 0.0
C381 C 0.35954 0.85318 0.27479 0.0
C382 C 0.3235 0.84762 0.23906 0.0
C383 C 0.41975 0.86623 0.27009 0.0
C384 C 0.46031 0.87254 0.30635 0.0
C385 C 0.48066 0.84355 0.33111 0.0
C386 C 0.51864 0.84981 0.36548 0.0
C387 C 0.53697 0.88493 0.3751 0.0
C388 C 0.51752 0.91382 0.35028 0.0
C389 C 0.47946 0.90769 0.3159 0.0
H390 H 0.56638 0.88973 0.40173 0.0
H391 H 0.21056 0.82263 0.06332 0.0
H392 H 0.68538 0.8492 0.91902 0.0
H393 H 0.66424 0.86909 0.84738 0.0
H394 H 0.66241 0.75831 0.80645 0.0
H395 H 0.6845 0.73822 0.87751 0.0
H396 H 0.71701 0.80232 0.74867 0.0
H397 H 0.5303 0.80224 0.83507 0.0
H398 H 0.46866 0.82325 0.89493 0.0
H399 H 0.48812 0.93279 0.853 0.0
H400 H 0.55043 0.91237 0.79311 0.0
H401 H 0.4877 0.7472 0.6197 0.0
H402 H 0.5689 0.76524 0.66675 0.0
H403 H 0.51744 0.87688 0.6515 0.0
H404 H 0.43489 0.85872 0.60414 0.0
H405 H 0.51264 0.8575 0.73048 0.0
H406 H 0.6646 0.85012 0.6283 0.0
H407 H 0.72294 0.82736 0.56791 0.0
H408 H 0.76908 0.7316 0.63679 0.0
H409 H 0.71011 0.75334 0.69732 0.0
C410 C 0.68091 0.82907 0.89471 0.0
C411 C 0.68572 0.79205 0.90412 0.0
C412 C 0.66913 0.84053 0.85378 0.0
C413 C 0.66143 0.81517 0.82171 0.0
C414 C 0.66856 0.77835 0.83072 0.0
C415 C 0.68058 0.76689 0.87149 0.0
C416 C 0.63971 0.82602 0.77967 0.0
C417 C 0.67252 0.81456 0.74437 0.0
C418 C 0.5831 0.84369 0.7742 0.0
C419 C 0.54559 0.85587 0.81005 0.0
C420 C 0.52172 0.83081 0.83883 0.0
C421 C 0.48664 0.84261 0.8727 0.0
C422 C 0.47467 0.87935 0.87785 0.0
C423 C 0.49758 0.90436 0.84904 0.0
C424 C 0.53276 0.8927 0.81514 0.0
C425 C 0.49451 0.7757 0.62549 0.0
C426 C 0.45429 0.80151 0.60892 0.0
C427 C 0.54164 0.78607 0.65199 0.0
C428 C 0.54962 0.82248 0.66252 0.0
C429 C 0.5123 0.84866 0.64357 0.0
C430 C 0.46515 0.83826 0.61662 0.0
C431 C 0.58788 0.83136 0.69929 0.0
C432 C 0.55836 0.84667 0.73397 0.0
C433 C 0.64737 0.81707 0.70402 0.0
C434 C 0.68275 0.80348 0.66752 0.0
C435 C 0.68677 0.82408 0.63053 0.0
C436 C 0.72003 0.81135 0.59624 0.0
C437 C 0.7497 0.77806 0.59851 0.0
C438 C 0.74614 0.75741 0.63508 0.0
C439 C 0.71288 0.76998 0.66945 0.0
H440 H 0.77547 0.76828 0.57194 0.0
H441 H 0.4475 0.88843 0.90409 0.0
H442 H 0.61088 0.2618 0.65236 0.0
H443 H 0.56839 0.24887 0.72118 0.0
H444 H 0.68768 0.15674 0.73326 0.0
H445 H 0.73237 0.17054 0.66471 0.0
H446 H 0.50601 0.19565 0.74664 0.0
H447 H 0.71564 0.14091 0.83764 0.0
H448 H 0.82749 0.14851 0.83843 0.0
H449 H 0.8087 0.25481 0.7863 0.0
H450 H 0.6968 0.24805 0.7858 0.0
H451 H 0.37802 0.1403 0.93259 0.0
H452 H 0.44818 0.13323 0.87368 0.0
H453 H 0.55525 0.22265 0.91894 0.0
H454 H 0.48701 0.22883 0.97871 0.0
H455 H 0.62627 0.17917 0.87691 0.0
H456 H 0.43171 0.23612 0.85475 0.0
H457 H 0.31948 0.24122 0.85401 0.0
H458 H 0.3082 0.1518 0.76924 0.0
H459 H 0.42031 0.14578 0.77005 0.0
C460 C 0.62828 0.23886 0.66972 0.0
C461 C 0.67477 0.21709 0.6532 0.0
C462 C 0.60389 0.23146 0.70902 0.0
C463 C 0.62486 0.20186 0.7324 0.0
C464 C 0.67144 0.18003 0.71603 0.0
C465 C 0.69675 0.18785 0.67687 0.0
C466 C 0.59626 0.19367 0.7733 0.0
C467 C 0.53243 0.1918 0.77504 0.0
C468 C 0.63066 0.1892 0.81046 0.0
C469 C 0.69789 0.19374 0.8112 0.0
C470 C 0.7354 0.16593 0.82648 0.0
C471 C 0.7988 0.1701 0.82687 0.0
C472 C 0.82519 0.20206 0.81227 0.0
C473 C 0.78822 0.23 0.79744 0.0
C474 C 0.72482 0.226 0.79706 0.0
C475 C 0.41776 0.1576 0.93073 0.0
C476 C 0.42637 0.18563 0.95963 0.0
C477 C 0.4577 0.15358 0.89705 0.0
C478 C 0.50565 0.17819 0.89127 0.0
C479 C 0.51822 0.20355 0.92262 0.0
C480 C 0.47902 0.20711 0.95677 0.0
C481 C 0.53614 0.18149 0.85011 0.0
C482 C 0.60012 0.18237 0.8483 0.0
C483 C 0.50186 0.18688 0.81301 0.0
C484 C 0.43433 0.19012 0.81301 0.0
C485 C 0.40523 0.21727 0.83636 0.0
C486 C 0.34165 0.22033 0.83593 0.0
C487 C 0.30674 0.19667 0.81182 0.0
C488 C 0.33531 0.16995 0.78809 0.0
C489 C 0.39884 0.16669 0.78855 0.0
H490 H 0.2576 0.1992 0.81119 0.0
H491 H 0.87427 0.2052 0.81254 0.0
H492 H 0.8841 0.6921 0.18538 0.0
H493 H 0.91255 0.6705 0.25478 0.0
H494 H 0.72981 0.69036 0.29929 0.0
H495 H 0.7006 0.71196 0.22951 0.0
H496 H 0.81778 0.72233 0.34735 0.0
H497 H 0.77535 0.6055 0.30034 0.0
H498 H 0.77222 0.5547 0.25075 0.0
H499 H 0.96766 0.54807 0.25285 0.0
H500 H 0.97219 0.59918 0.30192 0.0
H501 H 0.00961 0.70114 0.52068 0.0
H502 H 0.9204 0.68141 0.48074 0.0
H503 H 0.03669 0.65651 0.3756 0.0
H504 H 0.12554 0.67464 0.4155 0.0
H505 H 0.94113 0.61272 0.3754 0.0
H506 H 0.97413 0.74517 0.39361 0.0
H507 H 0.98019 0.79923 0.43844 0.0
H508 H 0.80194 0.77648 0.48777 0.0
H509 H 0.79519 0.72213 0.44341 0.0
C510 C 0.84974 0.69162 0.20977 0.0
C511 C 0.79029 0.70405 0.20207 0.0
C512 C 0.86583 0.67881 0.24929 0.0
C513 C 0.82294 0.6783 0.28194 0.0
C514 C 0.76325 0.69015 0.27431 0.0
C515 C 0.74684 0.70261 0.23453 0.0
C516 C 0.84377 0.66982 0.32484 0.0
C517 C 0.84287 0.69779 0.35424 0.0
C518 C 0.8762 0.63775 0.33374 0.0
C519 C 0.87406 0.60635 0.30485 0.0
C520 C 0.81773 0.59336 0.29009 0.0
C521 C 0.8157 0.56452 0.26201 0.0
C522 C 0.86972 0.54834 0.24846 0.0
C523 C 0.92586 0.56074 0.26326 0.0
C524 C 0.92817 0.58959 0.29135 0.0
C525 C 0.01624 0.69059 0.48942 0.0
C526 C 0.07448 0.69035 0.47085 0.0
C527 C 0.96522 0.67926 0.46668 0.0
C528 C 0.9717 0.66831 0.42484 0.0
C529 C 0.03041 0.66493 0.40779 0.0
C530 C 0.08131 0.67569 0.43059 0.0
C531 C 0.91874 0.66636 0.39612 0.0
C532 C 0.9134 0.63641 0.36949 0.0
C533 C 0.88065 0.6967 0.38949 0.0
C534 C 0.88444 0.72951 0.41565 0.0
C535 C 0.93636 0.75172 0.41412 0.0
C536 C 0.93992 0.78236 0.43943 0.0
C537 C 0.89155 0.79122 0.46602 0.0
C538 C 0.83942 0.76953 0.46724 0.0
C539 C 0.8357 0.73882 0.44204 0.0
H540 H 0.8944 0.81493 0.48562 0.0
H541 H 0.86804 0.52601 0.22672 0.0
H542 H 0.88659 0.33983 0.38745 0.0
H543 H 0.90854 0.36457 0.3185 0.0
H544 H 0.75288 0.30813 0.26772 0.0
H545 H 0.73358 0.28129 0.33653 0.0
H546 H 0.83883 0.29334 0.22306 0.0
H547 H 0.76903 0.40715 0.2621 0.0
H548 H 0.74969 0.46072 0.30566 0.0
H549 H 0.94163 0.48332 0.30956 0.0
H550 H 0.96233 0.42981 0.26628 0.0
H551 H 0.04322 0.34133 0.05374 0.0
H552 H 0.95396 0.36547 0.0913 0.0
H553 H 0.03695 0.33595 0.20892 0.0
H554 H 0.12465 0.31129 0.17186 0.0
H555 H 0.94345 0.40939 0.19436 0.0
H556 H 0.94737 0.25855 0.20633 0.0
H557 H 0.96936 0.20536 0.16244 0.0
H558 H 0.8965 0.26018 0.0549 0.0
H559 H 0.87354 0.3135 0.09832 0.0
C560 C 0.85665 0.3331 0.36164 0.0
C561 C 0.80924 0.30813 0.36699 0.0
C562 C 0.86846 0.34782 0.32224 0.0
C563 C 0.83181 0.33881 0.28765 0.0
C564 C 0.78191 0.31556 0.29374 0.0
C565 C 0.7712 0.29999 0.33295 0.0
C566 C 0.85299 0.34792 0.24466 0.0
C567 C 0.85906 0.31937 0.21615 0.0
C568 C 0.87896 0.38193 0.23469 0.0
C569 C 0.86719 0.41434 0.26081 0.0
C570 C 0.80719 0.42342 0.27239 0.0
C571 C 0.79599 0.45382 0.29704 0.0
C572 C 0.84443 0.47534 0.31047 0.0
C573 C 0.90417 0.4666 0.29914 0.0
C574 C 0.91562 0.43633 0.27433 0.0
C575 C 0.0431 0.34135 0.08766 0.0
C576 C 0.08989 0.32408 0.11013 0.0
C577 C 0.99243 0.35525 0.10898 0.0
C578 C 0.9892 0.35235 0.15273 0.0
C579 C 0.03905 0.33863 0.17513 0.0
C580 C 0.08876 0.32425 0.15398 0.0
C581 C 0.93067 0.35446 0.17513 0.0
C582 C 0.91867 0.38458 0.20018 0.0
C583 C 0.89731 0.32236 0.18136 0.0
C584 C 0.90886 0.28993 0.15548 0.0
C585 C 0.93563 0.25909 0.17338 0.0
C586 C 0.94841 0.22898 0.14859 0.0
C587 C 0.9344 0.22941 0.1059 0.0
C588 C 0.90739 0.2599 0.08795 0.0
C589 C 0.8945 0.29005 0.11263 0.0
H590 H 0.94444 0.20612 0.08674 0.0
H591 H 0.83573 0.49891 0.32946 0.0
H592 H 0.98574 0.24388 0.58839 0.0
H593 H 0.0599 0.25663 0.64282 0.0
H594 H -0.00148 0.36718 0.64744 0.0
H595 H 0.92271 0.35418 0.59282 0.0
H596 H 0.15216 0.29893 0.66433 0.0
H597 H 0.97856 0.38784 0.74924 0.0
H598 H 0.86796 0.40066 0.74987 0.0
H599 H 0.83085 0.29313 0.70722 0.0
H600 H 0.94111 0.27969 0.70664 0.0
H601 H 0.16968 0.3348 0.90672 0.0
H602 H 0.13954 0.35261 0.83603 0.0
H603 H 0.15547 0.24219 0.79537 0.0
H604 H 0.18539 0.22399 0.86602 0.0
H605 H 0.03807 0.32742 0.79435 0.0
H606 H 0.20325 0.2415 0.69391 0.0
H607 H 0.30892 0.21889 0.69739 0.0
H608 H 0.35888 0.30751 0.77646 0.0
H609 H 0.25381 0.33105 0.77292 0.0
C610 C 0.9891 0.27119 0.60018 0.0
C611 C 0.94773 0.29789 0.58721 0.0
C612 C 0.03193 0.27853 0.63107 0.0
C613 C 0.03392 0.31265 0.64974 0.0
C614 C 0.99709 0.34052 0.63368 0.0
C615 C 0.95403 0.33315 0.60247 0.0
C616 C 0.06629 0.31636 0.69015 0.0
C617 C 0.1276 0.30556 0.69278 0.0
C618 C 0.03417 0.32512 0.72723 0.0
C619 C 0.96793 0.33301 0.72731 0.0
C620 C 0.94671 0.36701 0.73996 0.0
C621 C 0.88414 0.37436 0.74032 0.0
C622 C 0.84243 0.34778 0.7284 0.0
C623 C 0.86319 0.31375 0.71623 0.0
C624 C 0.92569 0.30628 0.71582 0.0
C625 C 0.16705 0.31427 0.88274 0.0
C626 C 0.17982 0.2779 0.892 0.0
C627 C 0.15006 0.32458 0.84237 0.0
C628 C 0.14626 0.29882 0.81048 0.0
C629 C 0.15935 0.26257 0.81947 0.0
C630 C 0.17592 0.25218 0.8599 0.0
C631 C 0.12343 0.30909 0.76865 0.0
C632 C 0.06369 0.3223 0.76588 0.0
C633 C 0.15656 0.30146 0.73171 0.0
C634 C 0.22044 0.28802 0.73318 0.0
C635 C 0.23688 0.25639 0.71171 0.0
C636 C 0.29669 0.24339 0.7137 0.0
C637 C 0.34063 0.26183 0.73699 0.0
C638 C 0.32483 0.2933 0.75835 0.0
C639 C 0.26511 0.30646 0.7564 0.0
H640 H 0.38682 0.2516 0.73867 0.0
H641 H 0.79403 0.35353 0.72872 0.0
H642 H 0.24457 0.67828 0.69763 0.0
H643 H 0.20036 0.66101 0.76533 0.0
H644 H 0.06445 0.74443 0.75177 0.0
H645 H 0.10677 0.76088 0.68382 0.0
H646 H 0.18145 0.69295 0.83835 0.0
H647 H 0.93066 0.71844 0.78589 0.0
H648 H 0.86918 0.71507 0.72135 0.0
H649 H 0.99323 0.63695 0.67057 0.0
H650 H 0.05499 0.63945 0.73502 0.0
H651 H 0.97572 0.7386 -0.0017 0.0
H652 H 0.04961 0.72741 0.94284 0.0
H653 H 0.94966 0.63228 0.90604 0.0
H654 H 0.87377 0.64465 0.96019 0.0
H655 H 0.95803 0.67244 0.84364 0.0
H656 H 0.10537 0.62987 0.93906 0.0
H657 H 0.16835 0.62794 0.00296 0.0
H658 H 0.25295 0.72809 0.96829 0.0
H659 H 0.18993 0.73091 0.90445 0.0
C660 C 0.20538 0.69298 0.70923 0.0
C661 C 0.17854 0.72058 0.68519 0.0
C662 C 0.18029 0.68312 0.7479 0.0
C663 C 0.12833 0.7009 0.76312 0.0
C664 C 0.10353 0.72966 0.74007 0.0
C665 C 0.12787 0.73912 0.70129 0.0
C666 C 0.09852 0.68916 0.80251 0.0
C667 C 0.13268 0.68815 0.83967 0.0
C668 C 0.03532 0.68154 0.80386 0.0
C669 C -0.00235 0.67929 0.76526 0.0
C670 C 0.9446 0.70035 0.76109 0.0
C671 C 0.90976 0.69864 0.72448 0.0
C672 C 0.92736 0.67586 0.69186 0.0
C673 C 0.97973 0.65465 0.69582 0.0
C674 C 0.0147 0.65622 0.73238 0.0
C675 C 0.97071 0.71461 0.97933 0.0
C676 C 0.91871 0.69275 0.98306 0.0
C677 C 0.01325 0.70808 0.94766 0.0
C678 C 0.00524 0.67903 0.92 0.0
C679 C 0.95655 0.65506 0.92669 0.0
C680 C 0.91329 0.66207 0.95768 0.0
C681 C 0.04031 0.67768 0.88022 0.0
C682 C 0.00704 0.67634 0.84268 0.0
C683 C 0.10442 0.68216 0.87862 0.0
C684 C 0.14263 0.68066 0.91698 0.0
C685 C 0.1371 0.65162 0.94518 0.0
C686 C 0.17288 0.65034 0.98138 0.0
C687 C 0.21457 0.6779 0.9897 0.0
C688 C 0.22066 0.70675 0.96179 0.0
C689 C 0.185 0.70816 0.92553 0.0
H690 H 0.24221 0.67686 0.01775 0.0
H691 H 0.90038 0.67463 0.66352 0.0
loop_
_geom_bond_atom_site_label_1
_geom_bond_atom_site_label_2
_geom_bond_distance
_geom_bond_site_symmetry_2
_ccdc_geom_bond_type
O0 Zn1 1.953 . S
O0 C16 1.225 . S
Zn1 O0 1.953 . S
Zn1 O2 1.949 . S
Zn1 O8 1.919 1_554 S
Zn1 O13 1.924 . S
O2 Zn1 1.949 . S
O2 Zn3 1.923 1_554 S
O2 Zn4 1.950 . S
O2 Zn5 1.945 . S
Zn3 O2 1.923 1_556 S
Zn3 O6 1.933 1_556 S
Zn3 O9 1.941 . S
Zn3 O10 1.965 . S
Zn4 O2 1.950 . S
Zn4 O11 1.916 1_554 S
Zn4 O12 1.906 . S
Zn4 O22 1.953 . S
Zn5 O2 1.945 . S
Zn5 O7 1.932 . S
Zn5 O14 1.977 . S
Zn5 O15 1.910 . S
O6 Zn3 1.933 1_554 S
O6 C17 1.226 . S
O7 Zn5 1.932 . S
O7 C17 1.307 . S
O8 Zn1 1.919 1_556 S
O8 C19 1.253 . S
O9 Zn3 1.941 . S
O9 C19 1.283 . S
O10 Zn3 1.965 . S
O10 C18 1.303 . S
O11 Zn4 1.916 1_556 S
O11 C18 1.270 . S
O12 Zn4 1.906 . S
O12 C20 1.304 . S
O13 Zn1 1.924 . S
O13 C21 1.311 . S
O14 Zn5 1.977 . S
O14 C20 1.272 . S
O15 Zn5 1.910 . S
O15 C21 1.231 . S
C16 O0 1.225 . S
C16 O22 1.298 . S
C17 O6 1.226 . S
C17 O7 1.307 . S
C18 O10 1.303 . S
C18 O11 1.270 . S
C19 O8 1.253 . S
C19 O9 1.283 . S
C20 O12 1.304 . S
C20 O14 1.272 . S
C21 O13 1.311 . S
C21 O15 1.231 . S
O22 Zn4 1.953 . S
O22 C16 1.298 . S
O23 Zn24 1.953 . S
O23 C39 1.225 . S
Zn24 O23 1.953 . S
Zn24 O25 1.949 . S
Zn24 O31 1.919 1_554 S
Zn24 O36 1.924 . S
O25 Zn24 1.949 . S
O25 Zn26 1.923 1_554 S
O25 Zn27 1.950 . S
O25 Zn28 1.945 . S
Zn26 O25 1.923 1_556 S
Zn26 O29 1.933 1_556 S
Zn26 O32 1.941 . S
Zn26 O33 1.965 . S
Zn27 O25 1.950 . S
Zn27 O34 1.916 1_554 S
Zn27 O35 1.906 . S
Zn27 O45 1.953 . S
Zn28 O25 1.945 . S
Zn28 O30 1.932 . S
Zn28 O37 1.977 . S
Zn28 O38 1.910 . S
O29 Zn26 1.933 1_554 S
O29 C40 1.226 . S
O30 Zn28 1.932 . S
O30 C40 1.307 . S
O31 Zn24 1.919 1_556 S
O31 C42 1.253 . S
O32 Zn26 1.941 . S
O32 C42 1.283 . S
O33 Zn26 1.965 . S
O33 C41 1.303 . S
O34 Zn27 1.916 1_556 S
O34 C41 1.270 . S
O35 Zn27 1.906 . S
O35 C43 1.304 . S
O36 Zn24 1.924 . S
O36 C44 1.311 . S
O37 Zn28 1.977 . S
O37 C43 1.272 . S
O38 Zn28 1.910 . S
O38 C44 1.231 . S
C39 O23 1.225 . S
C39 O45 1.298 . S
C40 O29 1.226 . S
C40 O30 1.307 . S
C41 O33 1.303 . S
C41 O34 1.270 . S
C42 O31 1.253 . S
C42 O32 1.283 . S
C43 O35 1.304 . S
C43 O37 1.272 . S
C44 O36 1.311 . S
C44 O38 1.231 . S
O45 Zn27 1.953 . S
O45 C39 1.298 . S
O46 Zn47 1.953 . S
O46 C62 1.225 . S
Zn47 O46 1.953 . S
Zn47 O48 1.949 . S
Zn47 O54 1.919 . S
Zn47 O59 1.924 . S
O48 Zn47 1.949 . S
O48 Zn49 1.923 . S
O48 Zn50 1.950 . S
O48 Zn51 1.945 . S
Zn49 O48 1.923 . S
Zn49 O52 1.933 . S
Zn49 O55 1.941 . S
Zn49 O56 1.965 . S
Zn50 O48 1.950 . S
Zn50 O57 1.938 . S
Zn50 O58 1.906 . S
Zn50 O68 1.953 . S
Zn51 O48 1.945 . S
Zn51 O53 1.932 . S
Zn51 O60 1.977 . S
Zn51 O61 1.910 . S
O52 Zn49 1.933 . S
O52 C63 1.226 . S
O53 Zn51 1.932 . S
O53 C63 1.307 . S
O54 Zn47 1.919 . S
O54 C65 1.253 . S
O55 Zn49 1.941 . S
O55 C65 1.283 . S
O56 Zn49 1.965 . S
O56 C64 1.303 . S
O57 Zn50 1.938 . S
O57 C64 1.247 . S
O58 Zn50 1.906 . S
O58 C66 1.304 . S
O59 Zn47 1.924 . S
O59 C67 1.311 . S
O60 Zn51 1.977 . S
O60 C66 1.272 . S
O61 Zn51 1.910 . S
O61 C67 1.231 . S
C62 O46 1.225 . S
C62 O68 1.298 . S
C63 O52 1.226 . S
C63 O53 1.307 . S
C64 O56 1.303 . S
C64 O57 1.247 . S
C65 O54 1.253 . S
C65 O55 1.283 . S
C66 O58 1.304 . S
C66 O60 1.272 . S
C67 O59 1.311 . S
C67 O61 1.231 . S
O68 Zn50 1.953 . S
O68 C62 1.298 . S
O69 Zn70 1.953 . S
O69 C85 1.225 . S
Zn70 O69 1.953 . S
Zn70 O71 1.949 . S
Zn70 O77 1.919 . S
Zn70 O82 1.924 . S
O71 Zn70 1.949 . S
O71 Zn72 1.923 . S
O71 Zn73 1.950 . S
O71 Zn74 1.945 . S
Zn72 O71 1.923 . S
Zn72 O75 1.933 . S
Zn72 O78 1.941 . S
Zn72 O79 1.965 . S
Zn73 O71 1.950 . S
Zn73 O80 1.938 . S
Zn73 O81 1.906 . S
Zn73 O91 1.953 . S
Zn74 O71 1.945 . S
Zn74 O76 1.932 . S
Zn74 O83 1.977 . S
Zn74 O84 1.910 . S
O75 Zn72 1.933 . S
O75 C86 1.226 . S
O76 Zn74 1.932 . S
O76 C86 1.307 . S
O77 Zn70 1.919 . S
O77 C88 1.253 . S
O78 Zn72 1.941 . S
O78 C88 1.283 . S
O79 Zn72 1.965 . S
O79 C87 1.303 . S
O80 Zn73 1.938 . S
O80 C87 1.247 . S
O81 Zn73 1.906 . S
O81 C89 1.304 . S
O82 Zn70 1.924 . S
O82 C90 1.311 . S
O83 Zn74 1.977 . S
O83 C89 1.272 . S
O84 Zn74 1.910 . S
O84 C90 1.231 . S
C85 O69 1.225 . S
C85 O91 1.298 . S
C86 O75 1.226 . S
C86 O76 1.307 . S
C87 O79 1.303 . S
C87 O80 1.247 . S
C88 O77 1.253 . S
C88 O78 1.283 . S
C89 O81 1.304 . S
C89 O83 1.272 . S
C90 O82 1.311 . S
C90 O84 1.231 . S
O91 Zn73 1.953 . S
O91 C85 1.298 . S
H92 C110 0.951 . S
H93 C112 0.951 . S
H94 C114 0.950 1_556 S
H95 C115 0.950 1_556 S
H96 C117 0.950 1_556 S
H97 C120 0.950 . S
H98 C121 0.950 . S
H99 C123 0.950 . S
H100 C124 0.950 . S
H101 C125 0.951 1_556 S
H102 C127 0.951 1_556 S
H103 C129 0.950 . S
H104 C130 0.950 . S
H105 C132 0.950 . S
H106 C135 0.950 . S
H107 C136 0.950 . S
H108 C138 0.950 . S
H109 C139 0.950 . S
C110 H92 0.951 . S
C110 C111 1.366 . S
C110 C112 1.388 . S
C111 C110 1.366 . S
C111 C115 1.385 . S
C112 H93 0.951 . S
C112 C110 1.388 . S
C112 C113 1.366 . S
C113 C112 1.366 . S
C113 C114 1.414 . S
C113 C116 1.499 . S
C114 H94 0.950 1_554 S
C114 C113 1.414 . S
C114 C115 1.374 . S
C115 H95 0.950 1_554 S
C115 C111 1.385 . S
C115 C114 1.374 . S
C116 C113 1.499 . S
C116 C117 1.373 . S
C116 C118 1.389 . S
C117 H96 0.950 1_554 S
C117 C116 1.373 . S
C117 C133 1.377 . S
C118 C116 1.389 . S
C118 C119 1.524 . S
C118 C132 1.377 . S
C119 C118 1.524 . S
C119 C120 1.397 . S
C119 C124 1.363 . S
C120 H97 0.950 . S
C120 C119 1.397 . S
C120 C121 1.334 . S
C121 H98 0.950 . S
C121 C120 1.334 . S
C121 C122 1.287 . S
C122 C121 1.287 . S
C122 C123 1.524 . S
C122 H141 0.913 . S
C123 H99 0.950 . S
C123 C122 1.524 . S
C123 C124 1.415 . S
C124 H100 0.950 . S
C124 C119 1.363 . S
C124 C123 1.415 . S
C125 H101 0.951 1_554 S
C125 C126 1.366 . S
C125 C127 1.388 . S
C126 C125 1.366 . S
C126 C130 1.385 . S
C127 H102 0.951 1_554 S
C127 C125 1.388 . S
C127 C128 1.366 . S
C128 C127 1.366 . S
C128 C129 1.414 . S
C128 C131 1.499 . S
C129 H103 0.950 . S
C129 C128 1.414 . S
C129 C130 1.374 . S
C130 H104 0.950 . S
C130 C126 1.385 . S
C130 C129 1.374 . S
C131 C128 1.499 . S
C131 C132 1.373 . S
C131 C133 1.389 . S
C132 H105 0.950 . S
C132 C118 1.377 . S
C132 C131 1.373 . S
C133 C117 1.377 . S
C133 C131 1.389 . S
C133 C134 1.524 1_554 S
C134 C133 1.524 1_556 S
C134 C135 1.397 . S
C134 C139 1.363 . S
C135 H106 0.950 . S
C135 C134 1.397 . S
C135 C136 1.334 . S
C136 H107 0.950 . S
C136 C135 1.334 . S
C136 C137 1.287 . S
C137 C136 1.287 . S
C137 C138 1.524 . S
C137 H140 0.999 . S
C138 H108 0.950 . S
C138 C137 1.524 . S
C138 C139 1.415 . S
C139 H109 0.950 . S
C139 C134 1.363 . S
C139 C138 1.415 . S
H140 C137 0.999 . S
H141 C122 0.913 . S
H142 C160 0.951 . S
H143 C162 0.951 . S
H144 C164 0.950 . S
H145 C165 0.950 . S
H146 C167 0.950 . S
H147 C170 0.950 . S
H148 C171 0.950 . S
H149 C173 0.950 . S
H150 C174 0.950 . S
H151 C175 0.951 . S
H152 C177 0.951 . S
H153 C179 0.950 . S
H154 C180 0.950 . S
H155 C182 0.950 . S
H156 C185 0.950 . S
H157 C186 0.950 . S
H158 C188 0.950 . S
H159 C189 0.950 . S
C160 H142 0.951 . S
C160 C161 1.366 . S
C160 C162 1.388 . S
C161 C160 1.366 . S
C161 C165 1.385 . S
C162 H143 0.951 . S
C162 C160 1.388 . S
C162 C163 1.366 . S
C163 C162 1.366 . S
C163 C164 1.414 . S
C163 C166 1.499 . S
C164 H144 0.950 . S
C164 C163 1.414 . S
C164 C165 1.374 . S
C165 H145 0.950 . S
C165 C161 1.385 . S
C165 C164 1.374 . S
C166 C163 1.499 . S
C166 C167 1.373 . S
C166 C168 1.389 . S
C167 H146 0.950 . S
C167 C166 1.373 . S
C167 C183 1.377 . S
C168 C166 1.389 . S
C168 C169 1.524 . S
C168 C182 1.377 . S
C169 C168 1.524 . S
C169 C170 1.397 . S
C169 C174 1.363 . S
C170 H147 0.950 . S
C170 C169 1.397 . S
C170 C171 1.334 . S
C171 H148 0.950 . S
C171 C170 1.334 . S
C171 C172 1.287 . S
C172 C171 1.287 . S
C172 C173 1.524 . S
C172 H191 0.913 . S
C173 H149 0.950 . S
C173 C172 1.524 . S
C173 C174 1.415 . S
C174 H150 0.950 . S
C174 C169 1.363 . S
C174 C173 1.415 . S
C175 H151 0.951 . S
C175 C176 1.366 . S
C175 C177 1.388 . S
C176 C175 1.366 . S
C176 C180 1.385 . S
C177 H152 0.951 . S
C177 C175 1.388 . S
C177 C178 1.366 . S
C178 C177 1.366 . S
C178 C179 1.414 . S
C178 C181 1.499 . S
C179 H153 0.950 . S
C179 C178 1.414 . S
C179 C180 1.374 . S
C180 H154 0.950 . S
C180 C176 1.385 . S
C180 C179 1.374 . S
C181 C178 1.499 . S
C181 C182 1.373 . S
C181 C183 1.389 . S
C182 H155 0.950 . S
C182 C168 1.377 . S
C182 C181 1.373 . S
C183 C167 1.377 . S
C183 C181 1.389 . S
C183 C184 1.524 . S
C184 C183 1.524 . S
C184 C185 1.397 . S
C184 C189 1.363 . S
C185 H156 0.950 . S
C185 C184 1.397 . S
C185 C186 1.334 . S
C186 H157 0.950 . S
C186 C185 1.334 . S
C186 C187 1.287 . S
C187 C186 1.287 . S
C187 C188 1.524 . S
C187 H190 0.999 . S
C188 H158 0.950 . S
C188 C187 1.524 . S
C188 C189 1.415 . S
C189 H159 0.950 . S
C189 C184 1.363 . S
C189 C188 1.415 . S
H190 C187 0.999 . S
H191 C172 0.913 . S
H192 C210 0.951 1_556 S
H193 C212 0.951 1_556 S
H194 C214 0.950 . S
H195 C215 0.950 . S
H196 C217 0.950 . S
H197 C220 0.950 . S
H198 C221 0.950 . S
H199 C223 0.950 . S
H200 C224 0.950 . S
H201 C225 0.951 . S
H202 C227 0.951 . S
H203 C229 0.950 1_556 S
H204 C230 0.950 1_556 S
H205 C232 0.950 . S
H206 C235 0.950 1_655 S
H207 C236 0.950 . S
H208 C238 0.950 . S
H209 C239 0.950 . S
C210 H192 0.951 1_554 S
C210 C211 1.366 . S
C210 C212 1.388 . S
C211 C210 1.366 . S
C211 C215 1.385 . S
C212 H193 0.951 1_554 S
C212 C210 1.388 . S
C212 C213 1.366 . S
C213 C212 1.366 . S
C213 C214 1.414 . S
C213 C216 1.499 . S
C214 H194 0.950 . S
C214 C213 1.414 . S
C214 C215 1.374 . S
C215 H195 0.950 . S
C215 C211 1.385 . S
C215 C214 1.374 . S
C216 C213 1.499 . S
C216 C217 1.373 1_545 S
C216 C218 1.389 1_455 S
C217 H196 0.950 . S
C217 C216 1.373 1_565 S
C217 C233 1.377 . S
C218 C216 1.389 1_655 S
C218 C219 1.524 . S
C218 C232 1.377 . S
C219 C218 1.524 . S
C219 C220 1.397 . S
C219 C224 1.363 . S
C220 H197 0.950 . S
C220 C219 1.397 . S
C220 C221 1.334 . S
C221 H198 0.950 . S
C221 C220 1.334 . S
C221 C222 1.287 . S
C222 C221 1.287 . S
C222 C223 1.524 . S
C222 H241 0.913 . S
C223 H199 0.950 . S
C223 C222 1.524 . S
C223 C224 1.415 . S
C224 H200 0.950 . S
C224 C219 1.363 . S
C224 C223 1.415 . S
C225 H201 0.951 . S
C225 C226 1.366 . S
C225 C227 1.388 . S
C226 C225 1.366 . S
C226 C230 1.385 . S
C227 H202 0.951 . S
C227 C225 1.388 . S
C227 C228 1.366 . S
C228 C227 1.366 . S
C228 C229 1.414 . S
C228 C231 1.499 . S
C229 H203 0.950 1_554 S
C229 C228 1.414 . S
C229 C230 1.374 . S
C230 H204 0.950 1_554 S
C230 C226 1.385 . S
C230 C229 1.374 . S
C231 C228 1.499 . S
C231 C232 1.373 1_565 S
C231 C233 1.389 1_655 S
C232 H205 0.950 . S
C232 C218 1.377 . S
C232 C231 1.373 1_545 S
C233 C217 1.377 . S
C233 C231 1.389 1_455 S
C233 C234 1.524 . S
C234 C233 1.524 . S
C234 C235 1.397 1_554 S
C234 C239 1.363 . S
C235 H206 0.950 1_455 S
C235 C234 1.397 1_556 S
C235 C236 1.334 . S
C236 H207 0.950 . S
C236 C235 1.334 . S
C236 C237 1.287 . S
C237 C236 1.287 . S
C237 C238 1.524 1_556 S
C237 H240 0.999 . S
C238 H208 0.950 . S
C238 C237 1.524 1_554 S
C238 C239 1.415 . S
C239 H209 0.950 . S
C239 C234 1.363 . S
C239 C238 1.415 . S
H240 C237 0.999 . S
H241 C222 0.913 . S
H242 C260 0.951 . S
H243 C262 0.951 . S
H244 C264 0.950 . S
H245 C265 0.950 . S
H246 C267 0.950 . S
H247 C270 0.950 . S
H248 C271 0.950 . S
H249 C273 0.950 . S
H250 C274 0.950 . S
H251 C275 0.951 . S
H252 C277 0.951 . S
H253 C279 0.950 . S
H254 C280 0.950 . S
H255 C282 0.950 . S
H256 C285 0.950 . S
H257 C286 0.950 . S
H258 C288 0.950 . S
H259 C289 0.950 . S
C260 H242 0.951 . S
C260 C261 1.366 . S
C260 C262 1.388 . S
C261 C260 1.366 . S
C261 C265 1.385 . S
C262 H243 0.951 . S
C262 C260 1.388 . S
C262 C263 1.366 . S
C263 C262 1.366 . S
C263 C264 1.414 . S
C263 C266 1.499 . S
C264 H244 0.950 . S
C264 C263 1.414 . S
C264 C265 1.374 . S
C265 H245 0.950 . S
C265 C261 1.385 . S
C265 C264 1.374 . S
C266 C263 1.499 . S
C266 C267 1.373 1_655 S
C266 C268 1.389 1_545 S
C267 H246 0.950 . S
C267 C266 1.373 1_455 S
C267 C283 1.377 . S
C268 C266 1.389 1_565 S
C268 C269 1.524 . S
C268 C282 1.377 . S
C269 C268 1.524 . S
C269 C270 1.397 1_565 S
C269 C274 1.363 . S
C270 H247 0.950 . S
C270 C269 1.397 1_545 S
C270 C271 1.334 . S
C271 H248 0.950 . S
C271 C270 1.334 . S
C271 C272 1.287 1_545 S
C272 C271 1.287 1_565 S
C272 C273 1.524 . S
C272 H291 0.913 . S
C273 H249 0.950 . S
C273 C272 1.524 . S
C273 C274 1.415 . S
C274 H250 0.950 . S
C274 C269 1.363 . S
C274 C273 1.415 . S
C275 H251 0.951 . S
C275 C276 1.366 . S
C275 C277 1.388 . S
C276 C275 1.366 . S
C276 C280 1.385 . S
C277 H252 0.951 . S
C277 C275 1.388 . S
C277 C278 1.366 . S
C278 C277 1.366 . S
C278 C279 1.414 . S
C278 C281 1.499 . S
C279 H253 0.950 . S
C279 C278 1.414 . S
C279 C280 1.374 . S
C280 H254 0.950 . S
C280 C276 1.385 . S
C280 C279 1.374 . S
C281 C278 1.499 . S
C281 C282 1.373 1_455 S
C281 C283 1.389 1_565 S
C282 H255 0.950 . S
C282 C268 1.377 . S
C282 C281 1.373 1_655 S
C283 C267 1.377 . S
C283 C281 1.389 1_545 S
C283 C284 1.524 . S
C284 C283 1.524 . S
C284 C285 1.397 1_545 S
C284 C289 1.363 . S
C285 H256 0.950 . S
C285 C284 1.397 1_565 S
C285 C286 1.334 . S
C286 H257 0.950 . S
C286 C285 1.334 . S
C286 C287 1.287 1_565 S
C287 C286 1.287 1_545 S
C287 C288 1.524 . S
C287 H290 0.999 . S
C288 H258 0.950 . S
C288 C287 1.524 . S
C288 C289 1.415 . S
C289 H259 0.950 . S
C289 C284 1.363 . S
C289 C288 1.415 . S
H290 C287 0.999 . S
H291 C272 0.913 . S
H292 C310 0.951 . S
H293 C312 0.951 . S
H294 C314 0.950 . S
H295 C315 0.950 . S
H296 C317 0.950 . S
H297 C320 0.950 . S
H298 C321 0.950 . S
H299 C323 0.950 . S
H300 C324 0.950 . S
H301 C325 0.951 . S
H302 C327 0.951 . S
H303 C329 0.950 . S
H304 C330 0.950 . S
H305 C332 0.950 . S
H306 C335 0.950 . S
H307 C336 0.950 . S
H308 C338 0.950 . S
H309 C339 0.950 . S
C310 H292 0.951 . S
C310 C311 1.366 . S
C310 C312 1.388 . S
C311 C310 1.366 . S
C311 C315 1.385 . S
C312 H293 0.951 . S
C312 C310 1.388 . S
C312 C313 1.366 . S
C313 C312 1.366 . S
C313 C314 1.414 . S
C313 C316 1.499 . S
C314 H294 0.950 . S
C314 C313 1.414 . S
C314 C315 1.374 . S
C315 H295 0.950 . S
C315 C311 1.385 . S
C315 C314 1.374 . S
C316 C313 1.499 . S
C316 C317 1.373 . S
C316 C318 1.389 . S
C317 H296 0.950 . S
C317 C316 1.373 . S
C317 C333 1.377 . S
C318 C316 1.389 . S
C318 C319 1.524 . S
C318 C332 1.377 . S
C319 C318 1.524 . S
C319 C320 1.397 . S
C319 C324 1.363 . S
C320 H297 0.950 . S
C320 C319 1.397 . S
C320 C321 1.334 . S
C321 H298 0.950 . S
C321 C320 1.334 . S
C321 C322 1.287 . S
C322 C321 1.287 . S
C322 C323 1.524 . S
C322 H341 0.913 . S
C323 H299 0.950 . S
C323 C322 1.524 . S
C323 C324 1.415 . S
C324 H300 0.950 . S
C324 C319 1.363 . S
C324 C323 1.415 . S
C325 H301 0.951 . S
C325 C326 1.366 . S
C325 C327 1.388 . S
C326 C325 1.366 . S
C326 C330 1.385 . S
C327 H302 0.951 . S
C327 C325 1.388 . S
C327 C328 1.366 . S
C328 C327 1.366 . S
C328 C329 1.414 . S
C328 C331 1.499 . S
C329 H303 0.950 . S
C329 C328 1.414 . S
C329 C330 1.374 . S
C330 H304 0.950 . S
C330 C326 1.385 . S
C330 C329 1.374 . S
C331 C328 1.499 . S
C331 C332 1.373 . S
C331 C333 1.389 . S
C332 H305 0.950 . S
C332 C318 1.377 . S
C332 C331 1.373 . S
C333 C317 1.377 . S
C333 C331 1.389 . S
C333 C334 1.524 . S
C334 C333 1.524 . S
C334 C335 1.397 . S
C334 C339 1.363 . S
C335 H306 0.950 . S
C335 C334 1.397 . S
C335 C336 1.334 . S
C336 H307 0.950 . S
C336 C335 1.334 . S
C336 C337 1.287 . S
C337 C336 1.287 . S
C337 C338 1.524 . S
C337 H340 0.999 . S
C338 H308 0.950 . S
C338 C337 1.524 . S
C338 C339 1.415 . S
C339 H309 0.950 . S
C339 C334 1.363 . S
C339 C338 1.415 . S
H340 C337 0.999 . S
H341 C322 0.913 . S
H342 C360 0.951 . S
H343 C362 0.951 . S
H344 C364 0.950 . S
H345 C365 0.950 . S
H346 C367 0.950 . S
H347 C370 0.950 . S
H348 C371 0.950 . S
H349 C373 0.950 . S
H350 C374 0.950 . S
H351 C375 0.951 . S
H352 C377 0.951 . S
H353 C379 0.950 . S
H354 C380 0.950 . S
H355 C382 0.950 . S
H356 C385 0.950 . S
H357 C386 0.950 . S
H358 C388 0.950 . S
H359 C389 0.950 . S
C360 H342 0.951 . S
C360 C361 1.366 . S
C360 C362 1.388 . S
C361 C360 1.366 . S
C361 C365 1.385 . S
C362 H343 0.951 . S
C362 C360 1.388 . S
C362 C363 1.366 . S
C363 C362 1.366 . S
C363 C364 1.414 . S
C363 C366 1.499 . S
C364 H344 0.950 . S
C364 C363 1.414 . S
C364 C365 1.374 . S
C365 H345 0.950 . S
C365 C361 1.385 . S
C365 C364 1.374 . S
C366 C363 1.499 . S
C366 C367 1.373 . S
C366 C368 1.389 . S
C367 H346 0.950 . S
C367 C366 1.373 . S
C367 C383 1.377 . S
C368 C366 1.389 . S
C368 C369 1.524 . S
C368 C382 1.377 . S
C369 C368 1.524 . S
C369 C370 1.397 . S
C369 C374 1.363 . S
C370 H347 0.950 . S
C370 C369 1.397 . S
C370 C371 1.334 . S
C371 H348 0.950 . S
C371 C370 1.334 . S
C371 C372 1.287 . S
C372 C371 1.287 . S
C372 C373 1.524 . S
C372 H391 0.913 . S
C373 H349 0.950 . S
C373 C372 1.524 . S
C373 C374 1.415 . S
C374 H350 0.950 . S
C374 C369 1.363 . S
C374 C373 1.415 . S
C375 H351 0.951 . S
C375 C376 1.366 . S
C375 C377 1.388 . S
C376 C375 1.366 . S
C376 C380 1.385 . S
C377 H352 0.951 . S
C377 C375 1.388 . S
C377 C378 1.366 . S
C378 C377 1.366 . S
C378 C379 1.414 . S
C378 C381 1.499 . S
C379 H353 0.950 . S
C379 C378 1.414 . S
C379 C380 1.374 . S
C380 H354 0.950 . S
C380 C376 1.385 . S
C380 C379 1.374 . S
C381 C378 1.499 . S
C381 C382 1.373 . S
C381 C383 1.389 . S
C382 H355 0.950 . S
C382 C368 1.377 . S
C382 C381 1.373 . S
C383 C367 1.377 . S
C383 C381 1.389 . S
C383 C384 1.524 . S
C384 C383 1.524 . S
C384 C385 1.397 . S
C384 C389 1.363 . S
C385 H356 0.950 . S
C385 C384 1.397 . S
C385 C386 1.334 . S
C386 H357 0.950 . S
C386 C385 1.334 . S
C386 C387 1.287 . S
C387 C386 1.287 . S
C387 C388 1.524 . S
C387 H390 0.999 . S
C388 H358 0.950 . S
C388 C387 1.524 . S
C388 C389 1.415 . S
C389 H359 0.950 . S
C389 C384 1.363 . S
C389 C388 1.415 . S
H390 C387 0.999 . S
H391 C372 0.913 . S
H392 C410 0.951 . S
H393 C412 0.951 . S
H394 C414 0.950 . S
H395 C415 0.950 . S
H396 C417 0.950 . S
H397 C420 0.950 . S
H398 C421 0.950 . S
H399 C423 0.950 . S
H400 C424 0.950 . S
H401 C425 0.951 . S
H402 C427 0.951 . S
H403 C429 0.950 . S
H404 C430 0.950 . S
H405 C432 0.950 . S
H406 C435 0.950 . S
H407 C436 0.950 . S
H408 C438 0.950 . S
H409 C439 0.950 . S
C410 H392 0.951 . S
C410 C411 1.366 . S
C410 C412 1.388 . S
C411 C410 1.366 . S
C411 C415 1.385 . S
C412 H393 0.951 . S
C412 C410 1.388 . S
C412 C413 1.366 . S
C413 C412 1.366 . S
C413 C414 1.414 . S
C413 C416 1.499 . S
C414 H394 0.950 . S
C414 C413 1.414 . S
C414 C415 1.374 . S
C415 H395 0.950 . S
C415 C411 1.385 . S
C415 C414 1.374 . S
C416 C413 1.499 . S
C416 C417 1.373 . S
C416 C418 1.389 . S
C417 H396 0.950 . S
C417 C416 1.373 . S
C417 C433 1.377 . S
C418 C416 1.389 . S
C418 C419 1.524 . S
C418 C432 1.377 . S
C419 C418 1.524 . S
C419 C420 1.397 . S
C419 C424 1.363 . S
C420 H397 0.950 . S
C420 C419 1.397 . S
C420 C421 1.334 . S
C421 H398 0.950 . S
C421 C420 1.334 . S
C421 C422 1.287 . S
C422 C421 1.287 . S
C422 C423 1.524 . S
C422 H441 0.913 . S
C423 H399 0.950 . S
C423 C422 1.524 . S
C423 C424 1.415 . S
C424 H400 0.950 . S
C424 C419 1.363 . S
C424 C423 1.415 . S
C425 H401 0.951 . S
C425 C426 1.366 . S
C425 C427 1.388 . S
C426 C425 1.366 . S
C426 C430 1.385 . S
C427 H402 0.951 . S
C427 C425 1.388 . S
C427 C428 1.366 . S
C428 C427 1.366 . S
C428 C429 1.414 . S
C428 C431 1.499 . S
C429 H403 0.950 . S
C429 C428 1.414 . S
C429 C430 1.374 . S
C430 H404 0.950 . S
C430 C426 1.385 . S
C430 C429 1.374 . S
C431 C428 1.499 . S
C431 C432 1.373 . S
C431 C433 1.389 . S
C432 H405 0.950 . S
C432 C418 1.377 . S
C432 C431 1.373 . S
C433 C417 1.377 . S
C433 C431 1.389 . S
C433 C434 1.524 . S
C434 C433 1.524 . S
C434 C435 1.397 . S
C434 C439 1.363 . S
C435 H406 0.950 . S
C435 C434 1.397 . S
C435 C436 1.334 . S
C436 H407 0.950 . S
C436 C435 1.334 . S
C436 C437 1.287 . S
C437 C436 1.287 . S
C437 C438 1.524 . S
C437 H440 0.999 . S
C438 H408 0.950 . S
C438 C437 1.524 . S
C438 C439 1.415 . S
C439 H409 0.950 . S
C439 C434 1.363 . S
C439 C438 1.415 . S
H440 C437 0.999 . S
H441 C422 0.913 . S
H442 C460 0.951 . S
H443 C462 0.951 . S
H444 C464 0.950 . S
H445 C465 0.950 . S
H446 C467 0.950 . S
H447 C470 0.950 . S
H448 C471 0.950 . S
H449 C473 0.950 . S
H450 C474 0.950 . S
H451 C475 0.951 . S
H452 C477 0.951 . S
H453 C479 0.950 . S
H454 C480 0.950 . S
H455 C482 0.950 . S
H456 C485 0.950 . S
H457 C486 0.950 . S
H458 C488 0.950 . S
H459 C489 0.950 . S
C460 H442 0.951 . S
C460 C461 1.366 . S
C460 C462 1.388 . S
C461 C460 1.366 . S
C461 C465 1.385 . S
C462 H443 0.951 . S
C462 C460 1.388 . S
C462 C463 1.366 . S
C463 C462 1.366 . S
C463 C464 1.414 . S
C463 C466 1.499 . S
C464 H444 0.950 . S
C464 C463 1.414 . S
C464 C465 1.374 . S
C465 H445 0.950 . S
C465 C461 1.385 . S
C465 C464 1.374 . S
C466 C463 1.499 . S
C466 C467 1.373 . S
C466 C468 1.389 . S
C467 H446 0.950 . S
C467 C466 1.373 . S
C467 C483 1.377 . S
C468 C466 1.389 . S
C468 C469 1.524 . S
C468 C482 1.377 . S
C469 C468 1.524 . S
C469 C470 1.397 . S
C469 C474 1.363 . S
C470 H447 0.950 . S
C470 C469 1.397 . S
C470 C471 1.334 . S
C471 H448 0.950 . S
C471 C470 1.334 . S
C471 C472 1.287 . S
C472 C471 1.287 . S
C472 C473 1.524 . S
C472 H491 0.913 . S
C473 H449 0.950 . S
C473 C472 1.524 . S
C473 C474 1.415 . S
C474 H450 0.950 . S
C474 C469 1.363 . S
C474 C473 1.415 . S
C475 H451 0.951 . S
C475 C476 1.366 . S
C475 C477 1.388 . S
C476 C475 1.366 . S
C476 C480 1.385 . S
C477 H452 0.951 . S
C477 C475 1.388 . S
C477 C478 1.366 . S
C478 C477 1.366 . S
C478 C479 1.414 . S
C478 C481 1.499 . S
C479 H453 0.950 . S
C479 C478 1.414 . S
C479 C480 1.374 . S
C480 H454 0.950 . S
C480 C476 1.385 . S
C480 C479 1.374 . S
C481 C478 1.499 . S
C481 C482 1.373 . S
C481 C483 1.389 . S
C482 H455 0.950 . S
C482 C468 1.377 . S
C482 C481 1.373 . S
C483 C467 1.377 . S
C483 C481 1.389 . S
C483 C484 1.524 . S
C484 C483 1.524 . S
C484 C485 1.397 . S
C484 C489 1.363 . S
C485 H456 0.950 . S
C485 C484 1.397 . S
C485 C486 1.334 . S
C486 H457 0.950 . S
C486 C485 1.334 . S
C486 C487 1.287 . S
C487 C486 1.287 . S
C487 C488 1.524 . S
C487 H490 0.999 . S
C488 H458 0.950 . S
C488 C487 1.524 . S
C488 C489 1.415 . S
C489 H459 0.950 . S
C489 C484 1.363 . S
C489 C488 1.415 . S
H490 C487 0.999 . S
H491 C472 0.913 . S
H492 C510 0.951 . S
H493 C512 0.951 1_455 S
H494 C514 0.950 . S
H495 C515 0.950 . S
H496 C517 0.950 . S
H497 C520 0.950 1_655 S
H498 C521 0.950 . S
H499 C523 0.950 . S
H500 C524 0.950 . S
H501 C525 0.951 . S
H502 C527 0.951 1_655 S
H503 C529 0.950 . S
H504 C530 0.950 . S
H505 C532 0.950 . S
H506 C535 0.950 1_455 S
H507 C536 0.950 . S
H508 C538 0.950 . S
H509 C539 0.950 . S
C510 H492 0.951 . S
C510 C511 1.366 . S
C510 C512 1.388 . S
C511 C510 1.366 . S
C511 C515 1.385 . S
C512 H493 0.951 1_655 S
C512 C510 1.388 . S
C512 C513 1.366 . S
C513 C512 1.366 . S
C513 C514 1.414 . S
C513 C516 1.499 . S
C514 H494 0.950 . S
C514 C513 1.414 . S
C514 C515 1.374 . S
C515 H495 0.950 . S
C515 C511 1.385 . S
C515 C514 1.374 . S
C516 C513 1.499 . S
C516 C517 1.373 . S
C516 C518 1.389 1_655 S
C517 H496 0.950 . S
C517 C516 1.373 . S
C517 C533 1.377 . S
C518 C516 1.389 1_455 S
C518 C519 1.524 . S
C518 C532 1.377 . S
C519 C518 1.524 . S
C519 C520 1.397 . S
C519 C524 1.363 . S
C520 H497 0.950 1_455 S
C520 C519 1.397 . S
C520 C521 1.334 . S
C521 H498 0.950 . S
C521 C520 1.334 . S
C521 C522 1.287 . S
C522 C521 1.287 . S
C522 C523 1.524 . S
C522 H541 0.913 . S
C523 H499 0.950 . S
C523 C522 1.524 . S
C523 C524 1.415 . S
C524 H500 0.950 . S
C524 C519 1.363 . S
C524 C523 1.415 . S
C525 H501 0.951 . S
C525 C526 1.366 . S
C525 C527 1.388 . S
C526 C525 1.366 . S
C526 C530 1.385 . S
C527 H502 0.951 1_455 S
C527 C525 1.388 . S
C527 C528 1.366 . S
C528 C527 1.366 . S
C528 C529 1.414 . S
C528 C531 1.499 . S
C529 H503 0.950 . S
C529 C528 1.414 . S
C529 C530 1.374 . S
C530 H504 0.950 . S
C530 C526 1.385 . S
C530 C529 1.374 . S
C531 C528 1.499 . S
C531 C532 1.373 . S
C531 C533 1.389 1_455 S
C532 H505 0.950 . S
C532 C518 1.377 . S
C532 C531 1.373 . S
C533 C517 1.377 . S
C533 C531 1.389 1_655 S
C533 C534 1.524 . S
C534 C533 1.524 . S
C534 C535 1.397 . S
C534 C539 1.363 . S
C535 H506 0.950 1_655 S
C535 C534 1.397 . S
C535 C536 1.334 . S
C536 H507 0.950 . S
C536 C535 1.334 . S
C536 C537 1.287 . S
C537 C536 1.287 . S
C537 C538 1.524 . S
C537 H540 0.999 . S
C538 H508 0.950 . S
C538 C537 1.524 . S
C538 C539 1.415 . S
C539 H509 0.950 . S
C539 C534 1.363 . S
C539 C538 1.415 . S
H540 C537 0.999 . S
H541 C522 0.913 . S
H542 C560 0.951 . S
H543 C562 0.951 1_455 S
H544 C564 0.950 . S
H545 C565 0.950 . S
H546 C567 0.950 . S
H547 C570 0.950 . S
H548 C571 0.950 . S
H549 C573 0.950 . S
H550 C574 0.950 . S
H551 C575 0.951 . S
H552 C577 0.951 1_655 S
H553 C579 0.950 . S
H554 C580 0.950 . S
H555 C582 0.950 . S
H556 C585 0.950 . S
H557 C586 0.950 . S
H558 C588 0.950 . S
H559 C589 0.950 . S
C560 H542 0.951 . S
C560 C561 1.366 . S
C560 C562 1.388 . S
C561 C560 1.366 . S
C561 C565 1.385 . S
C562 H543 0.951 1_655 S
C562 C560 1.388 . S
C562 C563 1.366 . S
C563 C562 1.366 . S
C563 C564 1.414 . S
C563 C566 1.499 . S
C564 H544 0.950 . S
C564 C563 1.414 . S
C564 C565 1.374 . S
C565 H545 0.950 . S
C565 C561 1.385 . S
C565 C564 1.374 . S
C566 C563 1.499 . S
C566 C567 1.373 . S
C566 C568 1.389 . S
C567 H546 0.950 . S
C567 C566 1.373 . S
C567 C583 1.377 1_655 S
C568 C566 1.389 . S
C568 C569 1.524 . S
C568 C582 1.377 1_655 S
C569 C568 1.524 . S
C569 C570 1.397 . S
C569 C574 1.363 1_655 S
C570 H547 0.950 . S
C570 C569 1.397 . S
C570 C571 1.334 . S
C571 H548 0.950 . S
C571 C570 1.334 . S
C571 C572 1.287 . S
C572 C571 1.287 . S
C572 C573 1.524 1_655 S
C572 H591 0.913 . S
C573 H549 0.950 . S
C573 C572 1.524 1_455 S
C573 C574 1.415 . S
C574 H550 0.950 . S
C574 C569 1.363 1_455 S
C574 C573 1.415 . S
C575 H551 0.951 . S
C575 C576 1.366 . S
C575 C577 1.388 . S
C576 C575 1.366 . S
C576 C580 1.385 . S
C577 H552 0.951 1_455 S
C577 C575 1.388 . S
C577 C578 1.366 . S
C578 C577 1.366 . S
C578 C579 1.414 . S
C578 C581 1.499 . S
C579 H553 0.950 . S
C579 C578 1.414 . S
C579 C580 1.374 . S
C580 H554 0.950 . S
C580 C576 1.385 . S
C580 C579 1.374 . S
C581 C578 1.499 . S
C581 C582 1.373 . S
C581 C583 1.389 . S
C582 H555 0.950 . S
C582 C568 1.377 1_455 S
C582 C581 1.373 . S
C583 C567 1.377 1_455 S
C583 C581 1.389 . S
C583 C584 1.524 . S
C584 C583 1.524 . S
C584 C585 1.397 . S
C584 C589 1.363 1_455 S
C585 H556 0.950 . S
C585 C584 1.397 . S
C585 C586 1.334 . S
C586 H557 0.950 . S
C586 C585 1.334 . S
C586 C587 1.287 . S
C587 C586 1.287 . S
C587 C588 1.524 1_455 S
C587 H590 0.999 . S
C588 H558 0.950 . S
C588 C587 1.524 1_655 S
C588 C589 1.415 . S
C589 H559 0.950 . S
C589 C584 1.363 1_655 S
C589 C588 1.415 . S
H590 C587 0.999 . S
H591 C572 0.913 . S
H592 C610 0.951 . S
H593 C612 0.951 . S
H594 C614 0.950 1_455 S
H595 C615 0.950 . S
H596 C617 0.950 . S
H597 C620 0.950 . S
H598 C621 0.950 . S
H599 C623 0.950 . S
H600 C624 0.950 . S
H601 C625 0.951 . S
H602 C627 0.951 . S
H603 C629 0.950 1_655 S
H604 C630 0.950 . S
H605 C632 0.950 . S
H606 C635 0.950 . S
H607 C636 0.950 . S
H608 C638 0.950 . S
H609 C639 0.950 . S
C610 H592 0.951 . S
C610 C611 1.366 . S
C610 C612 1.388 . S
C611 C610 1.366 . S
C611 C615 1.385 . S
C612 H593 0.951 . S
C612 C610 1.388 . S
C612 C613 1.366 . S
C613 C612 1.366 . S
C613 C614 1.414 . S
C613 C616 1.499 . S
C614 H594 0.950 1_655 S
C614 C613 1.414 . S
C614 C615 1.374 . S
C615 H595 0.950 . S
C615 C611 1.385 . S
C615 C614 1.374 . S
C616 C613 1.499 . S
C616 C617 1.373 1_655 S
C616 C618 1.389 . S
C617 H596 0.950 . S
C617 C616 1.373 1_455 S
C617 C633 1.377 . S
C618 C616 1.389 . S
C618 C619 1.524 . S
C618 C632 1.377 . S
C619 C618 1.524 . S
C619 C620 1.397 . S
C619 C624 1.363 . S
C620 H597 0.950 . S
C620 C619 1.397 . S
C620 C621 1.334 . S
C621 H598 0.950 . S
C621 C620 1.334 . S
C621 C622 1.287 . S
C622 C621 1.287 . S
C622 C623 1.524 . S
C622 H641 0.913 . S
C623 H599 0.950 . S
C623 C622 1.524 . S
C623 C624 1.415 . S
C624 H600 0.950 . S
C624 C619 1.363 . S
C624 C623 1.415 . S
C625 H601 0.951 . S
C625 C626 1.366 . S
C625 C627 1.388 . S
C626 C625 1.366 . S
C626 C630 1.385 . S
C627 H602 0.951 . S
C627 C625 1.388 . S
C627 C628 1.366 . S
C628 C627 1.366 . S
C628 C629 1.414 . S
C628 C631 1.499 . S
C629 H603 0.950 1_455 S
C629 C628 1.414 . S
C629 C630 1.374 . S
C630 H604 0.950 . S
C630 C626 1.385 . S
C630 C629 1.374 . S
C631 C628 1.499 . S
C631 C632 1.373 1_455 S
C631 C633 1.389 . S
C632 H605 0.950 . S
C632 C618 1.377 . S
C632 C631 1.373 1_655 S
C633 C617 1.377 . S
C633 C631 1.389 . S
C633 C634 1.524 . S
C634 C633 1.524 . S
C634 C635 1.397 . S
C634 C639 1.363 . S
C635 H606 0.950 . S
C635 C634 1.397 . S
C635 C636 1.334 . S
C636 H607 0.950 . S
C636 C635 1.334 . S
C636 C637 1.287 . S
C637 C636 1.287 . S
C637 C638 1.524 . S
C637 H640 0.999 . S
C638 H608 0.950 . S
C638 C637 1.524 . S
C638 C639 1.415 . S
C639 H609 0.950 . S
C639 C634 1.363 . S
C639 C638 1.415 . S
H640 C637 0.999 . S
H641 C622 0.913 . S
H642 C660 0.951 . S
H643 C662 0.951 . S
H644 C664 0.950 . S
H645 C665 0.950 . S
H646 C667 0.950 . S
H647 C670 0.950 . S
H648 C671 0.950 . S
H649 C673 0.950 . S
H650 C674 0.950 . S
H651 C675 0.951 . S
H652 C677 0.951 . S
H653 C679 0.950 . S
H654 C680 0.950 . S
H655 C682 0.950 . S
H656 C685 0.950 . S
H657 C686 0.950 . S
H658 C688 0.950 . S
H659 C689 0.950 . S
C660 H642 0.951 . S
C660 C661 1.366 . S
C660 C662 1.388 . S
C661 C660 1.366 . S
C661 C665 1.385 . S
C662 H643 0.951 . S
C662 C660 1.388 . S
C662 C663 1.366 . S
C663 C662 1.366 . S
C663 C664 1.414 . S
C663 C666 1.499 . S
C664 H644 0.950 . S
C664 C663 1.414 . S
C664 C665 1.374 . S
C665 H645 0.950 . S
C665 C661 1.385 . S
C665 C664 1.374 . S
C666 C663 1.499 . S
C666 C667 1.373 . S
C666 C668 1.389 1_455 S
C667 H646 0.950 . S
C667 C666 1.373 . S
C667 C683 1.377 . S
C668 C666 1.389 1_655 S
C668 C669 1.524 . S
C668 C682 1.377 . S
C669 C668 1.524 . S
C669 C670 1.397 . S
C669 C674 1.363 . S
C670 H647 0.950 . S
C670 C669 1.397 . S
C670 C671 1.334 . S
C671 H648 0.950 . S
C671 C670 1.334 . S
C671 C672 1.287 . S
C672 C671 1.287 . S
C672 C673 1.524 . S
C672 H691 0.913 . S
C673 H649 0.950 . S
C673 C672 1.524 . S
C673 C674 1.415 . S
C674 H650 0.950 . S
C674 C669 1.363 . S
C674 C673 1.415 . S
C675 H651 0.951 . S
C675 C676 1.366 . S
C675 C677 1.388 . S
C676 C675 1.366 . S
C676 C680 1.385 . S
C677 H652 0.951 . S
C677 C675 1.388 . S
C677 C678 1.366 . S
C678 C677 1.366 . S
C678 C679 1.414 . S
C678 C681 1.499 . S
C679 H653 0.950 . S
C679 C678 1.414 . S
C679 C680 1.374 . S
C680 H654 0.950 . S
C680 C676 1.385 . S
C680 C679 1.374 . S
C681 C678 1.499 . S
C681 C682 1.373 . S
C681 C683 1.389 1_655 S
C682 H655 0.950 . S
C682 C668 1.377 . S
C682 C681 1.373 . S
C683 C667 1.377 . S
C683 C681 1.389 1_455 S
C683 C684 1.524 . S
C684 C683 1.524 . S
C684 C685 1.397 . S
C684 C689 1.363 . S
C685 H656 0.950 . S
C685 C684 1.397 . S
C685 C686 1.334 . S
C686 H657 0.950 . S
C686 C685 1.334 . S
C686 C687 1.287 . S
C687 C686 1.287 . S
C687 C688 1.524 . S
C687 H690 0.999 . S
C688 H658 0.950 . S
C688 C687 1.524 . S
C688 C689 1.415 . S
C689 H659 0.950 . S
C689 C684 1.363 . S
C689 C688 1.415 . S
H690 C687 0.999 . S
H691 C672 0.913 . S
C111 C40 1.664 . S
C126 C16 1.659 . S
C161 C63 1.664 . S
C176 C85 1.659 . S
C211 C17 1.664 . S
C226 C39 1.660 . S
C261 C86 1.664 . S
C276 C62 1.659 . S
C311 C89 0.729 . S
C326 C20 0.731 . S
C361 C44 0.721 . S
C376 C67 0.722 . S
C411 C42 0.593 . S
C426 C65 0.592 . S
C461 C87 0.638 . S
C476 C18 0.639 . S
C511 C43 0.729 . S
C526 C66 0.731 . S
C561 C90 0.720 . S
C576 C21 0.723 . S
C611 C88 0.594 . S
C626 C19 0.593 . S
C661 C64 0.638 . S
C676 C41 0.638 . S
