# Generated by pormake.
# Topology uks, (4)-cn, num edge types: 1
# Building blocks:
#     Node 0, Type 0, BuildingBlock: NAWXER_clean_sbu_0, # of connection points: 4
#     Node 1, Type 0, BuildingBlock: NAWXER_clean_sbu_0, # of connection points: 4
#     Node 2, Type 0, BuildingBlock: NAWXER_clean_sbu_0, # of connection points: 4
#     Node 3, Type 0, BuildingBlock: NAWXER_clean_sbu_0, # of connection points: 4
#     Node 4, Type 0, BuildingBlock: NAWXER_clean_sbu_0, # of connection points: 4
#     Node 5, Type 0, BuildingBlock: NAWXER_clean_sbu_0, # of connection points: 4
#     Node 6, Type 0, BuildingBlock: NAWXER_clean_sbu_0, # of connection points: 4
#     Node 7, Type 0, BuildingBlock: NAWXER_clean_sbu_0, # of connection points: 4
#     Node 8, Type 0, BuildingBlock: NAWXER_clean_sbu_0, # of connection points: 4
#     Node 9, Type 0, BuildingBlock: NAWXER_clean_sbu_0, # of connection points: 4
#     Node 10, Type 0, BuildingBlock: NAWXER_clean_sbu_0, # of connection points: 4
#     Node 11, Type 0, BuildingBlock: NAWXER_clean_sbu_0, # of connection points: 4
#     Node 12, Type 0, BuildingBlock: NAWXER_clean_sbu_0, # of connection points: 4
#     Node 13, Type 0, BuildingBlock: NAWXER_clean_sbu_0, # of connection points: 4
#     Node 14, Type 0, BuildingBlock: NAWXER_clean_sbu_0, # of connection points: 4
#     Node 15, Type 0, BuildingBlock: NAWXER_clean_sbu_0, # of connection points: 4
#     Node 16, Type 0, BuildingBlock: NAWXER_clean_sbu_0, # of connection points: 4
#     Node 17, Type 0, BuildingBlock: NAWXER_clean_sbu_0, # of connection points: 4
#     Node 18, Type 0, BuildingBlock: NAWXER_clean_sbu_0, # of connection points: 4
#     Node 19, Type 0, BuildingBlock: NAWXER_clean_sbu_0, # of connection points: 4
#     Node 20, Type 0, BuildingBlock: NAWXER_clean_sbu_0, # of connection points: 4
#     Node 21, Type 0, BuildingBlock: NAWXER_clean_sbu_0, # of connection points: 4
#     Node 22, Type 0, BuildingBlock: NAWXER_clean_sbu_0, # of connection points: 4
#     Node 23, Type 0, BuildingBlock: NAWXER_clean_sbu_0, # of connection points: 4
#     Edge 24, Type (0, 0), BuildingBlock: UVAHIK_clean_linker_0, # of connection points: 2
#     Edge 25, Type (0, 0), BuildingBlock: UVAHIK_clean_linker_0, # of connection points: 2
#     Edge 26, Type (0, 0), BuildingBlock: UVAHIK_clean_linker_0, # of connection points: 2
#     Edge 27, Type (0, 0), BuildingBlock: UVAHIK_clean_linker_0, # of connection points: 2
#     Edge 28, Type (0, 0), BuildingBlock: UVAHIK_clean_linker_0, # of connection points: 2
#     Edge 29, Type (0, 0), BuildingBlock: UVAHIK_clean_linker_0, # of connection points: 2
#     Edge 30, Type (0, 0), BuildingBlock: UVAHIK_clean_linker_0, # of connection points: 2
#     Edge 31, Type (0, 0), BuildingBlock: UVAHIK_clean_linker_0, # of connection points: 2
#     Edge 32, Type (0, 0), BuildingBlock: UVAHIK_clean_linker_0, # of connection points: 2
#     Edge 33, Type (0, 0), BuildingBlock: UVAHIK_clean_linker_0, # of connection points: 2
#     Edge 34, Type (0, 0), BuildingBlock: UVAHIK_clean_linker_0, # of connection points: 2
#     Edge 35, Type (0, 0), BuildingBlock: UVAHIK_clean_linker_0, # of connection points: 2
#     Edge 36, Type (0, 0), BuildingBlock: UVAHIK_clean_linker_0, # of connection points: 2
#     Edge 37, Type (0, 0), BuildingBlock: UVAHIK_clean_linker_0, # of connection points: 2
#     Edge 38, Type (0, 0), BuildingBlock: UVAHIK_clean_linker_0, # of connection points: 2
#     Edge 39, Type (0, 0), BuildingBlock: UVAHIK_clean_linker_0, # of connection points: 2
#     Edge 40, Type (0, 0), BuildingBlock: UVAHIK_clean_linker_0, # of connection points: 2
#     Edge 41, Type (0, 0), BuildingBlock: UVAHIK_clean_linker_0, # of connection points: 2
#     Edge 42, Type (0, 0), BuildingBlock: UVAHIK_clean_linker_0, # of connection points: 2
#     Edge 43, Type (0, 0), BuildingBlock: UVAHIK_clean_linker_0, # of connection points: 2
#     Edge 44, Type (0, 0), BuildingBlock: UVAHIK_clean_linker_0, # of connection points: 2
#     Edge 45, Type (0, 0), BuildingBlock: UVAHIK_clean_linker_0, # of connection points: 2
#     Edge 46, Type (0, 0), BuildingBlock: UVAHIK_clean_linker_0, # of connection points: 2
#     Edge 47, Type (0, 0), BuildingBlock: UVAHIK_clean_linker_0, # of connection points: 2
#     Edge 48, Type (0, 0), BuildingBlock: UVAHIK_clean_linker_0, # of connection points: 2
#     Edge 49, Type (0, 0), BuildingBlock: UVAHIK_clean_linker_0, # of connection points: 2
#     Edge 50, Type (0, 0), BuildingBlock: UVAHIK_clean_linker_0, # of connection points: 2
#     Edge 51, Type (0, 0), BuildingBlock: UVAHIK_clean_linker_0, # of connection points: 2
#     Edge 52, Type (0, 0), BuildingBlock: UVAHIK_clean_linker_0, # of connection points: 2
#     Edge 53, Type (0, 0), BuildingBlock: UVAHIK_clean_linker_0, # of connection points: 2
#     Edge 54, Type (0, 0), BuildingBlock: UVAHIK_clean_linker_0, # of connection points: 2
#     Edge 55, Type (0, 0), BuildingBlock: UVAHIK_clean_linker_0, # of connection points: 2
#     Edge 56, Type (0, 0), BuildingBlock: UVAHIK_clean_linker_0, # of connection points: 2
#     Edge 57, Type (0, 0), BuildingBlock: UVAHIK_clean_linker_0, # of connection points: 2
#     Edge 58, Type (0, 0), BuildingBlock: UVAHIK_clean_linker_0, # of connection points: 2
#     Edge 59, Type (0, 0), BuildingBlock: UVAHIK_clean_linker_0, # of connection points: 2
#     Edge 60, Type (0, 0), BuildingBlock: UVAHIK_clean_linker_0, # of connection points: 2
#     Edge 61, Type (0, 0), BuildingBlock: UVAHIK_clean_linker_0, # of connection points: 2
#     Edge 62, Type (0, 0), BuildingBlock: UVAHIK_clean_linker_0, # of connection points: 2
#     Edge 63, Type (0, 0), BuildingBlock: UVAHIK_clean_linker_0, # of connection points: 2
#     Edge 64, Type (0, 0), BuildingBlock: UVAHIK_clean_linker_0, # of connection points: 2
#     Edge 65, Type (0, 0), BuildingBlock: UVAHIK_clean_linker_0, # of connection points: 2
#     Edge 66, Type (0, 0), BuildingBlock: UVAHIK_clean_linker_0, # of connection points: 2
#     Edge 67, Type (0, 0), BuildingBlock: UVAHIK_clean_linker_0, # of connection points: 2
#     Edge 68, Type (0, 0), BuildingBlock: UVAHIK_clean_linker_0, # of connection points: 2
#     Edge 69, Type (0, 0), BuildingBlock: UVAHIK_clean_linker_0, # of connection points: 2
#     Edge 70, Type (0, 0), BuildingBlock: UVAHIK_clean_linker_0, # of connection points: 2
#     Edge 71, Type (0, 0), BuildingBlock: UVAHIK_clean_linker_0, # of connection points: 2
# Relax obj value: 0.065
# Max RMSD: 0.064
# Mean RMSD: 0.064
data_MOF--net-uks--node1-NAWXER_clean_sbu_0--edge1-UVAHIK_clean_linker_0
_symmetry_space_group_name_H-M    P1
_symmetry_Int_Tables_number       1
_symmetry_cell_setting            triclinic
loop_
_symmetry_equiv_pos_as_xyz
'x, y, z'
_cell_length_a     70.475191
_cell_length_b     70.533448
_cell_length_c     70.517064
_cell_angle_alpha  90.160865
_cell_angle_beta   89.885446
_cell_angle_gamma 89.864695
loop_
_atom_site_label
_atom_site_type_symbol
_atom_site_fract_x
_atom_site_fract_y
_atom_site_fract_z
_atom_type_partial_charge
C0 C 0.09519 0.37131 0.68914 0.0
C1 C 0.15369 0.38035 0.72495 0.0
O2 O 0.11013 0.36741 0.6795 0.0
Zn3 Zn 0.14014 0.36804 0.68298 0.0
O4 O 0.09684 0.37797 0.70582 0.0
Zn5 Zn 0.12431 0.37738 0.70708 0.0
O6 O 0.13317 0.39959 0.6884 0.0
O7 O 0.14883 0.38633 0.66471 0.0
O8 O 0.1369 0.38382 0.73068 0.0
O9 O 0.15644 0.37473 0.70784 0.0
O10 O 0.14637 0.34153 0.67922 0.0
O11 O 0.13043 0.34754 0.70562 0.0
C12 C 0.14245 0.40114 0.67282 0.0
C13 C 0.13881 0.33573 0.69453 0.0
C14 C 0.60057 0.63055 0.18267 0.0
C15 C 0.66421 0.62487 0.20994 0.0
O16 O 0.6053 0.62292 0.19826 0.0
Zn17 Zn 0.6325 0.62717 0.19658 0.0
O18 O 0.61354 0.63713 0.17174 0.0
Zn19 Zn 0.64384 0.63988 0.1717 0.0
O20 O 0.65247 0.62373 0.1508 0.0
O21 O 0.64251 0.6075 0.17553 0.0
O22 O 0.66414 0.63238 0.19338 0.0
O23 O 0.64859 0.62002 0.21761 0.0
O24 O 0.63507 0.65754 0.19764 0.0
O25 O 0.64687 0.66734 0.17039 0.0
C26 C 0.65004 0.60785 0.15896 0.0
C27 C 0.64069 0.67111 0.18695 0.0
C28 C 0.35726 0.12183 0.73907 0.0
C29 C 0.42093 0.12323 0.71157 0.0
O30 O 0.35739 0.12661 0.72152 0.0
Zn31 Zn 0.3777 0.13044 0.69903 0.0
O32 O 0.37275 0.11745 0.74718 0.0
Zn33 Zn 0.3891 0.12151 0.72542 0.0
O34 O 0.38601 0.15168 0.72174 0.0
O35 O 0.37446 0.157 0.69314 0.0
O36 O 0.41627 0.11833 0.72826 0.0
O37 O 0.40796 0.12785 0.6997 0.0
O38 O 0.36994 0.112 0.68048 0.0
O39 O 0.38131 0.09891 0.70647 0.0
C40 C 0.38028 0.1633 0.70899 0.0
C41 C 0.37414 0.09723 0.68984 0.0
C42 C 0.91576 0.87072 0.20913 0.0
C43 C 0.85759 0.89198 0.24164 0.0
O44 O 0.91479 0.87895 0.22519 0.0
Zn45 Zn 0.88725 0.88278 0.226 0.0
O46 O 0.90057 0.8683 0.1995 0.0
Zn47 Zn 0.87096 0.87363 0.20182 0.0
O48 O 0.86567 0.89183 0.18182 0.0
O49 O 0.88207 0.90437 0.20531 0.0
O50 O 0.85506 0.88538 0.22489 0.0
O51 O 0.8743 0.89299 0.24846 0.0
O52 O 0.8767 0.85447 0.22721 0.0
O53 O 0.86085 0.8478 0.20103 0.0
C54 C 0.87367 0.90618 0.18929 0.0
C55 C 0.86691 0.84283 0.21729 0.0
C56 C 0.13271 0.10128 0.82534 0.0
C57 C 0.12827 0.16016 0.78982 0.0
O58 O 0.12615 0.10365 0.80874 0.0
Zn59 Zn 0.12896 0.13079 0.80774 0.0
O60 O 0.13784 0.11571 0.83514 0.0
Zn61 Zn 0.13939 0.14586 0.83178 0.0
O62 O 0.12139 0.1561 0.85008 0.0
O63 O 0.10742 0.14096 0.82659 0.0
O64 O 0.13413 0.16254 0.80688 0.0
O65 O 0.12336 0.14373 0.78426 0.0
O66 O 0.15925 0.13428 0.80911 0.0
O67 O 0.16644 0.14994 0.8353 0.0
C68 C 0.10628 0.15043 0.84209 0.0
C69 C 0.17171 0.14173 0.82007 0.0
C70 C 0.90772 0.62922 0.32807 0.0
C71 C 0.8458 0.61503 0.29965 0.0
O72 O 0.90433 0.61932 0.31339 0.0
Zn73 Zn 0.87679 0.62135 0.31343 0.0
O74 O 0.89379 0.63626 0.33749 0.0
Zn75 Zn 0.86343 0.6369 0.33581 0.0
O76 O 0.85461 0.62369 0.35829 0.0
O77 O 0.8677 0.60455 0.33717 0.0
O78 O 0.84486 0.62474 0.31501 0.0
O79 O 0.8619 0.61007 0.29303 0.0
O80 O 0.87167 0.65072 0.30759 0.0
O81 O 0.85808 0.66379 0.33263 0.0
C82 C 0.85918 0.60701 0.35308 0.0
C83 C 0.86437 0.66527 0.31578 0.0
C84 C 0.39626 0.35892 0.84121 0.0
C85 C 0.33111 0.36918 0.81958 0.0
O86 O 0.3811 0.35497 0.85015 0.0
Zn87 Zn 0.3633 0.36477 0.83148 0.0
O88 O 0.3952 0.36745 0.82522 0.0
Zn89 Zn 0.37404 0.37802 0.80643 0.0
O90 O 0.3781 0.40508 0.80632 0.0
O91 O 0.36619 0.3949 0.83337 0.0
O92 O 0.3438 0.37557 0.80823 0.0
O93 O 0.33611 0.36173 0.83523 0.0
O94 O 0.36825 0.34642 0.80749 0.0
O95 O 0.3791 0.36353 0.78362 0.0
C96 C 0.37188 0.40858 0.82289 0.0
C97 C 0.37412 0.34755 0.79028 0.0
C98 C 0.60034 0.87056 0.32493 0.0
C99 C 0.66629 0.88271 0.30648 0.0
O100 O 0.60178 0.87795 0.30838 0.0
Zn101 Zn 0.62397 0.88718 0.28953 0.0
O102 O 0.61529 0.86705 0.33434 0.0
Zn103 Zn 0.63349 0.87632 0.31589 0.0
O104 O 0.62811 0.90653 0.31536 0.0
O105 O 0.61826 0.9139 0.28663 0.0
O106 O 0.66041 0.87539 0.32186 0.0
O107 O 0.65423 0.88752 0.29374 0.0
O108 O 0.62141 0.8704 0.26776 0.0
O109 O 0.6313 0.85567 0.29343 0.0
C110 C 0.62244 0.91903 0.30341 0.0
C111 C 0.62665 0.85519 0.27585 0.0
C112 C 0.69659 0.13284 0.34106 0.0
C113 C 0.67099 0.13757 0.40533 0.0
O114 O 0.70508 0.12865 0.35639 0.0
Zn115 Zn 0.68426 0.13475 0.37338 0.0
O116 O 0.67953 0.13919 0.34168 0.0
Zn117 Zn 0.65809 0.14552 0.36232 0.0
O118 O 0.65466 0.1729 0.35944 0.0
O119 O 0.6827 0.16498 0.37085 0.0
O120 O 0.65924 0.14296 0.39256 0.0
O121 O 0.68723 0.13134 0.40044 0.0
O122 O 0.66384 0.11358 0.36606 0.0
O123 O 0.63828 0.12769 0.3548 0.0
C124 C 0.67093 0.17779 0.36554 0.0
C125 C 0.64712 0.11253 0.35902 0.0
C126 C 0.86807 0.16702 0.90405 0.0
C127 C 0.87081 0.19962 0.84331 0.0
O128 O 0.87395 0.18417 0.90542 0.0
Zn129 Zn 0.87948 0.20785 0.88725 0.0
O130 O 0.86415 0.16008 0.88788 0.0
Zn131 Zn 0.87023 0.18254 0.8734 0.0
O132 O 0.90041 0.18516 0.87634 0.0
O133 O 0.90642 0.21227 0.89075 0.0
O134 O 0.86672 0.18232 0.8462 0.0
O135 O 0.87576 0.21016 0.85727 0.0
O136 O 0.86109 0.22637 0.89633 0.0
O137 O 0.84812 0.20134 0.8827 0.0
C138 C 0.9124 0.19705 0.8831 0.0
C139 C 0.84634 0.21735 0.89117 0.0
C140 C 0.8021 0.37783 0.41588 0.0
C141 C 0.7789 0.38668 0.35152 0.0
O142 O 0.78556 0.38547 0.41549 0.0
Zn143 Zn 0.76535 0.39455 0.39449 0.0
O144 O 0.81041 0.37369 0.40041 0.0
Zn145 Zn 0.79097 0.38254 0.38352 0.0
O146 O 0.79168 0.41251 0.38751 0.0
O147 O 0.76403 0.42201 0.39868 0.0
O148 O 0.79493 0.38012 0.35656 0.0
O149 O 0.76709 0.39245 0.36415 0.0
O150 O 0.74344 0.37818 0.3993 0.0
O151 O 0.76842 0.36281 0.38821 0.0
C152 C 0.78079 0.42594 0.39325 0.0
C153 C 0.75116 0.36271 0.39398 0.0
C154 C 0.62834 0.30966 0.84047 0.0
C155 C 0.6312 0.33203 0.90611 0.0
O156 O 0.62438 0.29688 0.85271 0.0
Zn157 Zn 0.62092 0.29416 0.88252 0.0
O158 O 0.63139 0.32656 0.84597 0.0
Zn159 Zn 0.62879 0.32194 0.87314 0.0
O160 O 0.65191 0.3029 0.87919 0.0
O161 O 0.64017 0.27533 0.88825 0.0
O162 O 0.63391 0.34196 0.8913 0.0
O163 O 0.62628 0.31461 0.90444 0.0
O164 O 0.59412 0.28818 0.88556 0.0
O165 O 0.5991 0.31785 0.87708 0.0
C166 C 0.65447 0.28581 0.88487 0.0
C167 C 0.58765 0.30456 0.88176 0.0
C168 C 0.72308 0.38648 0.15536 0.0
C169 C 0.70186 0.38034 0.08992 0.0
O170 O 0.73586 0.39083 0.1432 0.0
Zn171 Zn 0.73913 0.39289 0.1132 0.0
O172 O 0.70662 0.38179 0.14972 0.0
Zn173 Zn 0.71184 0.38366 0.12279 0.0
O174 O 0.73247 0.36152 0.11857 0.0
O175 O 0.75938 0.37428 0.109 0.0
O176 O 0.69228 0.37723 0.10489 0.0
O177 O 0.71912 0.38598 0.09125 0.0
O178 O 0.74339 0.42015 0.10972 0.0
O179 O 0.71419 0.4135 0.1187 0.0
C180 C 0.74988 0.35963 0.11354 0.0
C181 C 0.72669 0.42571 0.11383 0.0
C182 C 0.63295 0.21791 0.66055 0.0
C183 C 0.63249 0.18393 0.60023 0.0
O184 O 0.62708 0.22386 0.6446 0.0
Zn185 Zn 0.63156 0.20072 0.63049 0.0
O186 O 0.639 0.20079 0.662 0.0
Zn187 Zn 0.6429 0.17632 0.64405 0.0
O188 O 0.67005 0.17222 0.6458 0.0
O189 O 0.66197 0.19854 0.63093 0.0
O190 O 0.63875 0.17366 0.61385 0.0
O191 O 0.62631 0.20052 0.60372 0.0
O192 O 0.61083 0.18175 0.64164 0.0
O193 O 0.62579 0.15784 0.65512 0.0
C194 C 0.67484 0.18719 0.637 0.0
C195 C 0.61036 0.16605 0.65073 0.0
C196 C 0.81351 0.16618 0.13206 0.0
C197 C 0.83211 0.09897 0.13775 0.0
O198 O 0.8294 0.15987 0.13786 0.0
Zn199 Zn 0.82368 0.13278 0.13524 0.0
O200 O 0.80064 0.15443 0.12693 0.0
Zn201 Zn 0.79653 0.12445 0.12445 0.0
O202 O 0.77562 0.12021 0.14172 0.0
O203 O 0.8021 0.12847 0.1562 0.0
O204 O 0.81536 0.10155 0.13115 0.0
O205 O 0.84216 0.11328 0.14219 0.0
O206 O 0.82198 0.12957 0.10512 0.0
O207 O 0.79287 0.12106 0.09741 0.0
C208 C 0.78457 0.12371 0.15698 0.0
C209 C 0.80974 0.12512 0.09244 0.0
C210 C 0.87129 0.28621 0.65898 0.0
C211 C 0.86954 0.31697 0.59713 0.0
O212 O 0.88047 0.27717 0.6461 0.0
Zn213 Zn 0.88766 0.28001 0.61675 0.0
O214 O 0.86363 0.30208 0.65512 0.0
Zn215 Zn 0.87099 0.30258 0.6286 0.0
O216 O 0.85553 0.27899 0.61747 0.0
O217 O 0.87563 0.25729 0.60676 0.0
O218 O 0.86245 0.32304 0.61259 0.0
O219 O 0.87908 0.30146 0.59701 0.0
O220 O 0.91508 0.28205 0.6171 0.0
O221 O 0.90084 0.30659 0.63044 0.0
C222 C 0.85869 0.26279 0.60979 0.0
C223 C 0.9161 0.29789 0.62569 0.0
C224 C 0.34158 0.70041 0.1253 0.0
C225 C 0.40792 0.68288 0.13723 0.0
O226 O 0.35349 0.71324 0.1204 0.0
Zn227 Zn 0.38367 0.71782 0.12052 0.0
O228 O 0.34766 0.68512 0.13268 0.0
Zn229 Zn 0.37456 0.69136 0.13157 0.0
O230 O 0.37661 0.71394 0.15209 0.0
O231 O 0.38603 0.73969 0.13718 0.0
O232 O 0.39315 0.67319 0.14078 0.0
O233 O 0.40614 0.69937 0.12978 0.0
O234 O 0.3891 0.72066 0.0937 0.0
O235 O 0.37959 0.69189 0.10133 0.0
C236 C 0.38104 0.73158 0.15247 0.0
C237 C 0.38498 0.70383 0.0887 0.0
C238 C 0.35965 0.85157 0.39858 0.0
C239 C 0.36751 0.82156 0.33612 0.0
O240 O 0.35603 0.85878 0.38247 0.0
Zn241 Zn 0.36451 0.83745 0.36701 0.0
O242 O 0.36722 0.83504 0.39942 0.0
Zn243 Zn 0.37587 0.81289 0.38023 0.0
O244 O 0.40299 0.81077 0.38418 0.0
O245 O 0.39493 0.8373 0.36984 0.0
O246 O 0.37315 0.81112 0.34988 0.0
O247 O 0.36138 0.83819 0.33959 0.0
O248 O 0.34411 0.81631 0.37528 0.0
O249 O 0.35951 0.79237 0.38827 0.0
C250 C 0.40782 0.82631 0.3765 0.0
C251 C 0.34393 0.8 0.38327 0.0
C252 C 0.21323 0.8479 0.8793 0.0
C253 C 0.18556 0.91106 0.8736 0.0
O254 O 0.22145 0.86367 0.88225 0.0
Zn255 Zn 0.19985 0.87972 0.87699 0.0
O256 O 0.19573 0.84767 0.87434 0.0
Zn257 Zn 0.17325 0.86743 0.86885 0.0
O258 O 0.16795 0.86306 0.84188 0.0
O259 O 0.1962 0.87537 0.84719 0.0
O260 O 0.17383 0.89773 0.86976 0.0
O261 O 0.20234 0.90696 0.87878 0.0
O262 O 0.18122 0.87344 0.9 0.0
O263 O 0.15494 0.86086 0.8887 0.0
C264 C 0.18374 0.86913 0.83554 0.0
C265 C 0.16475 0.86632 0.90283 0.0
C266 C 0.16224 0.70978 0.39003 0.0
C267 C 0.10006 0.6813 0.37706 0.0
O268 O 0.14618 0.71663 0.39481 0.0
Zn269 Zn 0.1311 0.69601 0.3842 0.0
O270 O 0.16305 0.69412 0.38079 0.0
Zn271 Zn 0.14427 0.6731 0.36936 0.0
O272 O 0.1495 0.6753 0.34241 0.0
O273 O 0.13598 0.70082 0.35457 0.0
O274 O 0.1139 0.67159 0.37023 0.0
O275 O 0.10358 0.69629 0.38644 0.0
O276 O 0.14004 0.67269 0.4017 0.0
O277 O 0.15294 0.65095 0.38313 0.0
C278 C 0.14318 0.69207 0.3403 0.0
C279 C 0.14842 0.65664 0.39967 0.0
C280 C 0.35711 0.64977 0.89421 0.0
C281 C 0.33421 0.64177 0.82874 0.0
O282 O 0.36605 0.65417 0.87916 0.0
Zn283 Zn 0.34649 0.64621 0.86113 0.0
O284 O 0.3405 0.64254 0.89298 0.0
Zn285 Zn 0.32036 0.63492 0.87176 0.0
O286 O 0.31756 0.60803 0.87572 0.0
O287 O 0.34561 0.6159 0.86419 0.0
O288 O 0.32242 0.63653 0.84155 0.0
O289 O 0.35017 0.64858 0.83368 0.0
O290 O 0.32472 0.66667 0.86685 0.0
O291 O 0.29931 0.65172 0.87729 0.0
C292 C 0.33389 0.60315 0.86971 0.0
C293 C 0.30759 0.66711 0.87298 0.0
C294 C 0.09036 0.79355 0.13282 0.0
C295 C 0.14941 0.76246 0.11179 0.0
O296 O 0.09173 0.77742 0.12478 0.0
Zn297 Zn 0.11927 0.77736 0.12076 0.0
O298 O 0.10529 0.80362 0.13503 0.0
Zn299 Zn 0.13491 0.80215 0.12957 0.0
O300 O 0.13938 0.82207 0.111 0.0
O301 O 0.12358 0.79794 0.09895 0.0
O302 O 0.15146 0.77937 0.11813 0.0
O303 O 0.1329 0.75518 0.11082 0.0
O304 O 0.13002 0.77683 0.14897 0.0
O305 O 0.14504 0.80355 0.15543 0.0
C306 C 0.13141 0.81419 0.09685 0.0
C307 C 0.13952 0.78714 0.1605 0.0
C308 C 0.25768 0.61114 0.64339 0.0
C309 C 0.22693 0.61472 0.58094 0.0
O310 O 0.2402 0.61619 0.64409 0.0
Zn311 Zn 0.21706 0.62134 0.62504 0.0
O312 O 0.26523 0.60726 0.62743 0.0
Zn313 Zn 0.24286 0.61221 0.61191 0.0
O314 O 0.23995 0.64218 0.61596 0.0
O315 O 0.2121 0.64799 0.6292 0.0
O316 O 0.24395 0.60973 0.58434 0.0
O317 O 0.216 0.6192 0.59479 0.0
O318 O 0.19847 0.60308 0.63312 0.0
O319 O 0.22367 0.58992 0.61982 0.0
C320 C 0.22781 0.65399 0.62269 0.0
C321 C 0.20732 0.5883 0.6277 0.0
C322 C 0.28472 0.84959 0.62334 0.0
C323 C 0.30878 0.91365 0.63185 0.0
O324 O 0.27299 0.86233 0.61775 0.0
Zn325 Zn 0.27162 0.89268 0.61559 0.0
O326 O 0.30092 0.85445 0.62955 0.0
Zn327 Zn 0.29726 0.88141 0.62714 0.0
O328 O 0.27498 0.88642 0.64724 0.0
O329 O 0.24996 0.89786 0.63238 0.0
O330 O 0.31695 0.8981 0.63583 0.0
O331 O 0.29218 0.91345 0.62438 0.0
O332 O 0.27002 0.8967 0.58813 0.0
O333 O 0.2976 0.88509 0.59711 0.0
C334 C 0.2578 0.89243 0.6477 0.0
C335 C 0.28661 0.89088 0.58388 0.0
C336 C 0.12652 0.17396 0.75694 0.0
C337 C 0.12867 0.17643 0.77663 0.0
C338 C 0.12902 0.18931 0.7446 0.0
C339 C 0.15277 0.23581 0.74312 0.0
H340 H 0.11699 0.24898 0.70354 0.0
C341 C 0.1393 0.31129 0.71971 0.0
C342 C 0.14008 0.3157 0.70032 0.0
C343 C 0.14008 0.29255 0.7257 0.0
C344 C 0.1273 0.24521 0.71427 0.0
H345 H 0.13415 0.19709 0.79883 0.0
H346 H 0.13822 0.22362 0.77749 0.0
H347 H 0.11343 0.2189 0.72065 0.0
H348 H 0.1422 0.30399 0.67195 0.0
H349 H 0.14301 0.27072 0.68259 0.0
H350 H 0.16597 0.2625 0.73754 0.0
C351 C 0.1351 0.20982 0.77149 0.0
C352 C 0.12526 0.22807 0.72406 0.0
C353 C 0.13261 0.19461 0.78374 0.0
C354 C 0.14166 0.30093 0.68698 0.0
C355 C 0.14204 0.28199 0.69302 0.0
C356 C 0.15471 0.25288 0.73346 0.0
C357 C 0.13377 0.2073 0.75178 0.0
C358 C 0.13756 0.2236 0.73909 0.0
C359 C 0.14137 0.27773 0.71246 0.0
C360 C 0.14162 0.25803 0.71944 0.0
H361 H 0.12348 0.16011 0.75105 0.0
H362 H 0.12782 0.187 0.72946 0.0
H363 H 0.16275 0.23251 0.7543 0.0
H364 H 0.13818 0.32238 0.73033 0.0
H365 H 0.13936 0.28959 0.74076 0.0
C366 C 0.68342 0.61575 0.23857 0.0
C367 C 0.68259 0.62136 0.21948 0.0
C368 C 0.70096 0.61252 0.24731 0.0
C369 C 0.75138 0.60191 0.23722 0.0
H370 H 0.76033 0.62547 0.28607 0.0
C371 C 0.82651 0.61035 0.27009 0.0
C372 C 0.82789 0.61032 0.28993 0.0
C373 C 0.80869 0.6091 0.26134 0.0
C374 C 0.75803 0.61844 0.2726 0.0
H375 H 0.69955 0.62762 0.19453 0.0
H376 H 0.72997 0.62197 0.20976 0.0
H377 H 0.72923 0.62805 0.2715 0.0
H378 H 0.81211 0.60741 0.31616 0.0
H379 H 0.78133 0.60438 0.30103 0.0
H380 H 0.78022 0.59229 0.23832 0.0
C381 C 0.71711 0.62001 0.21795 0.0
C382 C 0.74017 0.61999 0.26423 0.0
C383 C 0.69965 0.62341 0.20929 0.0
C384 C 0.8114 0.60775 0.30081 0.0
C385 C 0.79373 0.60618 0.29213 0.0
C386 C 0.76925 0.6002 0.24568 0.0
C387 C 0.71799 0.61462 0.23707 0.0
C388 C 0.73667 0.6119 0.24639 0.0
C389 C 0.79201 0.60754 0.27233 0.0
C390 C 0.77285 0.60855 0.26345 0.0
H391 H 0.67055 0.61398 0.24679 0.0
H392 H 0.70121 0.60827 0.26206 0.0
H393 H 0.74903 0.59537 0.22351 0.0
H394 H 0.83902 0.61243 0.2614 0.0
H395 H 0.80793 0.61028 0.24606 0.0
C396 C 0.37853 0.33081 0.75891 0.0
C397 C 0.37456 0.33018 0.77846 0.0
C398 C 0.37805 0.31419 0.74795 0.0
C399 C 0.35848 0.26547 0.74914 0.0
H400 H 0.39885 0.25265 0.71386 0.0
C401 C 0.38002 0.18965 0.73251 0.0
C402 C 0.37949 0.18377 0.71347 0.0
C403 C 0.37833 0.20875 0.73722 0.0
C404 C 0.38733 0.25624 0.72342 0.0
H405 H 0.36754 0.31152 0.80189 0.0
H406 H 0.36703 0.28284 0.78303 0.0
H407 H 0.39787 0.28435 0.72835 0.0
H408 H 0.37729 0.19339 0.68436 0.0
H409 H 0.37483 0.22723 0.69275 0.0
H410 H 0.3486 0.23708 0.74509 0.0
C411 C 0.37003 0.29613 0.77598 0.0
C412 C 0.38674 0.27433 0.73169 0.0
C413 C 0.37047 0.31261 0.78684 0.0
C414 C 0.37768 0.19753 0.69916 0.0
C415 C 0.37633 0.21681 0.70391 0.0
C416 C 0.35919 0.24744 0.74107 0.0
C417 C 0.37355 0.2967 0.75637 0.0
C418 C 0.37266 0.27887 0.74516 0.0
C419 C 0.37636 0.22247 0.72301 0.0
C420 C 0.37392 0.2425 0.7286 0.0
H421 H 0.38173 0.34414 0.75204 0.0
H422 H 0.38084 0.31506 0.73287 0.0
H423 H 0.34716 0.26869 0.75906 0.0
H424 H 0.38133 0.17944 0.74389 0.0
H425 H 0.37852 0.21285 0.75204 0.0
C426 C 0.7008 0.87915 0.31557 0.0
C427 C 0.68685 0.88557 0.30282 0.0
C428 C 0.72016 0.88127 0.31131 0.0
C429 C 0.75163 0.88684 0.26991 0.0
H430 H 0.78984 0.90324 0.30587 0.0
C431 C 0.82513 0.90527 0.24335 0.0
C432 C 0.84055 0.89698 0.25278 0.0
C433 C 0.80724 0.90581 0.25178 0.0
C434 C 0.77933 0.89852 0.29573 0.0
H435 H 0.68241 0.89988 0.27597 0.0
H436 H 0.71583 0.90363 0.26873 0.0
H437 H 0.75671 0.89973 0.31623 0.0
H438 H 0.84972 0.88382 0.27891 0.0
H439 H 0.81811 0.88455 0.29374 0.0
H440 H 0.77392 0.8855 0.24945 0.0
C441 C 0.71192 0.89665 0.28183 0.0
C442 C 0.76039 0.89647 0.30166 0.0
C443 C 0.6927 0.89456 0.28604 0.0
C444 C 0.83807 0.89048 0.27144 0.0
C445 C 0.81997 0.89083 0.27987 0.0
C446 C 0.7704 0.88887 0.26403 0.0
C447 C 0.72591 0.88977 0.29422 0.0
C448 C 0.74628 0.89092 0.28868 0.0
C449 C 0.80422 0.89777 0.26974 0.0
C450 C 0.78445 0.89507 0.27673 0.0
H451 H 0.69678 0.87222 0.32865 0.0
H452 H 0.7306 0.87576 0.32113 0.0
H453 H 0.74125 0.88203 0.25967 0.0
H454 H 0.8267 0.91048 0.22899 0.0
H455 H 0.79553 0.91175 0.2438 0.0
C456 C 0.78604 0.12283 0.19234 0.0
C457 C 0.7751 0.12251 0.17568 0.0
C458 C 0.77734 0.1224 0.21012 0.0
C459 C 0.73311 0.13486 0.23404 0.0
H460 H 0.7524 0.10344 0.27478 0.0
C461 C 0.69482 0.1309 0.3058 0.0
C462 C 0.70585 0.13026 0.32237 0.0
C463 C 0.70322 0.12887 0.288 0.0
C464 C 0.74699 0.11248 0.26363 0.0
H465 H 0.74645 0.1212 0.16462 0.0
H466 H 0.73118 0.12064 0.19584 0.0
H467 H 0.76687 0.10149 0.24333 0.0
H468 H 0.73437 0.12679 0.33326 0.0
H469 H 0.74923 0.12374 0.30201 0.0
H470 H 0.71358 0.14625 0.25428 0.0
C471 C 0.74652 0.12125 0.19504 0.0
C472 C 0.75522 0.11129 0.2456 0.0
C473 C 0.75525 0.12148 0.17719 0.0
C474 C 0.7255 0.12732 0.32075 0.0
C475 C 0.73398 0.12547 0.30284 0.0
C476 C 0.72499 0.13618 0.25207 0.0
C477 C 0.7575 0.1218 0.21168 0.0
C478 C 0.74835 0.12247 0.23063 0.0
C479 C 0.72293 0.12636 0.28624 0.0
C480 C 0.73179 0.12498 0.2671 0.0
H481 H 0.80138 0.12354 0.19169 0.0
H482 H 0.78615 0.12302 0.22268 0.0
H483 H 0.72775 0.1439 0.22286 0.0
H484 H 0.67959 0.13288 0.30654 0.0
H485 H 0.69419 0.12917 0.2756 0.0
C486 C 0.87214 0.25793 0.67994 0.0
C487 C 0.8694 0.27755 0.67793 0.0
C488 C 0.87098 0.24941 0.6977 0.0
C489 C 0.85431 0.25706 0.74714 0.0
H490 H 0.88972 0.2162 0.75758 0.0
C491 C 0.86904 0.22783 0.82212 0.0
C492 C 0.86945 0.208 0.82417 0.0
C493 C 0.86785 0.23602 0.80419 0.0
C494 C 0.87962 0.22745 0.75478 0.0
H495 H 0.86304 0.30365 0.69292 0.0
H496 H 0.86166 0.28886 0.72425 0.0
H497 H 0.89025 0.23162 0.72676 0.0
H498 H 0.86886 0.18122 0.80904 0.0
H499 H 0.86715 0.19565 0.7775 0.0
H500 H 0.8442 0.25316 0.77556 0.0
C501 C 0.8643 0.27997 0.71198 0.0
C502 C 0.87986 0.23629 0.7371 0.0
C503 C 0.86519 0.28849 0.69407 0.0
C504 C 0.86858 0.19652 0.80789 0.0
C505 C 0.86766 0.20476 0.78988 0.0
C506 C 0.85425 0.24836 0.76493 0.0
C507 C 0.86737 0.26033 0.71401 0.0
C508 C 0.86716 0.25116 0.733 0.0
C509 C 0.86728 0.22459 0.78789 0.0
C510 C 0.86688 0.23345 0.76889 0.0
H511 H 0.87509 0.24904 0.66772 0.0
H512 H 0.8729 0.2342 0.69858 0.0
H513 H 0.84415 0.26826 0.74442 0.0
H514 H 0.86958 0.23707 0.83439 0.0
H515 H 0.86776 0.25134 0.80304 0.0
C516 C 0.78672 0.38416 0.31685 0.0
C517 C 0.7733 0.38701 0.33134 0.0
C518 C 0.78109 0.38424 0.29784 0.0
C519 C 0.74001 0.37628 0.26719 0.0
H520 H 0.76754 0.40664 0.23065 0.0
C521 C 0.71405 0.38589 0.18988 0.0
C522 C 0.72806 0.38645 0.17571 0.0
C523 C 0.71919 0.38612 0.20906 0.0
C524 C 0.75983 0.39786 0.24059 0.0
H525 H 0.74345 0.39203 0.33728 0.0
H526 H 0.7337 0.39197 0.30417 0.0
H527 H 0.77777 0.4062 0.26363 0.0
H528 H 0.75842 0.38714 0.17049 0.0
H529 H 0.76731 0.38695 0.20364 0.0
H530 H 0.72231 0.36757 0.24417 0.0
C531 C 0.74853 0.3897 0.30751 0.0
C532 C 0.76569 0.39767 0.25948 0.0
C533 C 0.75417 0.38986 0.32645 0.0
C534 C 0.74724 0.38696 0.18106 0.0
C535 C 0.75236 0.38697 0.20012 0.0
C536 C 0.73426 0.37629 0.24824 0.0
C537 C 0.76192 0.38691 0.29303 0.0
C538 C 0.75584 0.38689 0.27295 0.0
C539 C 0.73843 0.38672 0.21439 0.0
C540 C 0.74414 0.38705 0.23469 0.0
H541 H 0.80155 0.38191 0.32018 0.0
H542 H 0.79168 0.38195 0.2869 0.0
H543 H 0.73226 0.36772 0.27731 0.0
H544 H 0.69915 0.38553 0.18618 0.0
H545 H 0.70807 0.38612 0.21968 0.0
C546 C 0.62773 0.24967 0.67625 0.0
C547 C 0.63324 0.23052 0.6774 0.0
C548 C 0.62851 0.26144 0.69229 0.0
C549 C 0.651 0.26436 0.73978 0.0
H550 H 0.60888 0.29742 0.75287 0.0
C551 C 0.63352 0.28492 0.81583 0.0
C552 C 0.6302 0.30407 0.82031 0.0
C553 C 0.63538 0.27908 0.79705 0.0
C554 C 0.62089 0.28852 0.7492 0.0
H555 H 0.64362 0.2087 0.69642 0.0
H556 H 0.6447 0.22896 0.72419 0.0
H557 H 0.60914 0.28101 0.72216 0.0
H558 H 0.62607 0.33213 0.80854 0.0
H559 H 0.62885 0.32166 0.77527 0.0
H560 H 0.66227 0.27109 0.76713 0.0
C561 C 0.64015 0.23508 0.71088 0.0
C562 C 0.62106 0.27912 0.73165 0.0
C563 C 0.63938 0.22339 0.69494 0.0
C564 C 0.62868 0.31729 0.80549 0.0
C565 C 0.6302 0.31133 0.78652 0.0
C566 C 0.65075 0.2736 0.75728 0.0
C567 C 0.63488 0.25429 0.70977 0.0
C568 C 0.63583 0.26644 0.72702 0.0
C569 C 0.63372 0.29216 0.7822 0.0
C570 C 0.63544 0.2853 0.7624 0.0
H571 H 0.62294 0.25561 0.66294 0.0
H572 H 0.6244 0.27618 0.69096 0.0
H573 H 0.66286 0.25512 0.73646 0.0
H574 H 0.63486 0.27436 0.82688 0.0
H575 H 0.63787 0.26419 0.7941 0.0
C576 C 0.31498 0.72061 0.11349 0.0
C577 C 0.32098 0.70382 0.12237 0.0
C578 C 0.29573 0.72454 0.11116 0.0
C579 C 0.24766 0.70389 0.1101 0.0
H580 H 0.23298 0.75578 0.12111 0.0
C581 C 0.16935 0.73295 0.11386 0.0
C582 C 0.1668 0.75159 0.10732 0.0
C583 C 0.18757 0.72479 0.11409 0.0
C584 C 0.23683 0.74128 0.11773 0.0
H585 H 0.3113 0.67771 0.13531 0.0
H586 H 0.2774 0.68473 0.13134 0.0
H587 H 0.2657 0.74604 0.12543 0.0
H588 H 0.18074 0.77561 0.09435 0.0
H589 H 0.21215 0.76127 0.09411 0.0
H590 H 0.21848 0.69929 0.10245 0.0
C591 C 0.28775 0.69477 0.12611 0.0
C592 C 0.25563 0.73568 0.12025 0.0
C593 C 0.30716 0.69081 0.12847 0.0
C594 C 0.18235 0.76126 0.09958 0.0
C595 C 0.20037 0.7531 0.09962 0.0
C596 C 0.22869 0.70954 0.10757 0.0
C597 C 0.28185 0.71185 0.11769 0.0
C598 C 0.2614 0.71704 0.11615 0.0
C599 C 0.2034 0.73516 0.10771 0.0
C600 C 0.22317 0.72843 0.111 0.0
H601 H 0.32516 0.7309 0.10841 0.0
H602 H 0.29171 0.73765 0.10425 0.0
H603 H 0.25167 0.68942 0.10681 0.0
H604 H 0.15761 0.72528 0.1201 0.0
H605 H 0.18943 0.71092 0.12037 0.0
C606 C 0.30849 0.80079 0.38474 0.0
C607 C 0.32551 0.79055 0.38682 0.0
C608 C 0.29098 0.79209 0.3878 0.0
C609 C 0.26805 0.74582 0.38638 0.0
H610 H 0.22739 0.77095 0.41392 0.0
C611 C 0.19677 0.70866 0.39684 0.0
C612 C 0.18021 0.7195 0.39453 0.0
C613 C 0.2144 0.71739 0.3986 0.0
C614 C 0.23852 0.76381 0.40603 0.0
H615 H 0.33746 0.76314 0.39398 0.0
H616 H 0.30674 0.74782 0.39908 0.0
H617 H 0.25857 0.78592 0.41177 0.0
H618 H 0.16895 0.74803 0.39302 0.0
H619 H 0.19996 0.76346 0.3955 0.0
H620 H 0.24807 0.72407 0.37999 0.0
C621 C 0.30704 0.76263 0.39508 0.0
C622 C 0.2564 0.77236 0.40486 0.0
C623 C 0.32462 0.77141 0.39221 0.0
C624 C 0.18151 0.73935 0.39486 0.0
C625 C 0.19929 0.74815 0.39632 0.0
C626 C 0.25018 0.73737 0.38737 0.0
C627 C 0.29004 0.77288 0.39285 0.0
C628 C 0.27133 0.76347 0.39498 0.0
C629 C 0.21602 0.73723 0.39773 0.0
C630 C 0.23514 0.74623 0.3972 0.0
H631 H 0.30865 0.8156 0.38069 0.0
H632 H 0.27814 0.80031 0.38577 0.0
H633 H 0.27916 0.73878 0.37837 0.0
H634 H 0.19615 0.6933 0.39692 0.0
H635 H 0.22684 0.70851 0.40027 0.0
C636 C 0.21342 0.81259 0.88161 0.0
C637 C 0.22356 0.82973 0.88123 0.0
C638 C 0.22295 0.79526 0.88251 0.0
C639 C 0.268 0.77309 0.86996 0.0
H640 H 0.25083 0.73226 0.90246 0.0
C641 C 0.30854 0.70245 0.87411 0.0
C642 C 0.29794 0.68563 0.87524 0.0
C643 C 0.29973 0.72007 0.87604 0.0
C644 C 0.25566 0.74343 0.89313 0.0
H645 H 0.25167 0.84215 0.88187 0.0
H646 H 0.2684 0.81171 0.88326 0.0
H647 H 0.23525 0.76318 0.90414 0.0
H648 H 0.26976 0.67412 0.87941 0.0
H649 H 0.2542 0.705 0.88229 0.0
H650 H 0.28804 0.75336 0.85853 0.0
C651 C 0.25303 0.81178 0.88282 0.0
C652 C 0.2468 0.76116 0.89417 0.0
C653 C 0.24347 0.82918 0.88212 0.0
C654 C 0.27831 0.68683 0.8785 0.0
C655 C 0.26943 0.70453 0.88027 0.0
C656 C 0.27676 0.75534 0.8688 0.0
C657 C 0.24285 0.79466 0.8829 0.0
C658 C 0.25285 0.77614 0.88256 0.0
C659 C 0.28004 0.72138 0.87897 0.0
C660 C 0.2707 0.74027 0.88035 0.0
H661 H 0.19806 0.81251 0.88103 0.0
H662 H 0.21473 0.7823 0.88237 0.0
H663 H 0.27275 0.78428 0.86061 0.0
H664 H 0.32374 0.70205 0.87184 0.0
H665 H 0.30843 0.73269 0.87537 0.0
C666 C 0.21871 0.68831 0.626 0.0
C667 C 0.23271 0.67432 0.62342 0.0
C668 C 0.22373 0.7075 0.62653 0.0
C669 C 0.26342 0.73917 0.63679 0.0
H670 H 0.23824 0.77481 0.60345 0.0
C671 C 0.29209 0.81484 0.6255 0.0
C672 C 0.2788 0.82952 0.62329 0.0
C673 C 0.28618 0.79593 0.62575 0.0
C674 C 0.24524 0.76514 0.61309 0.0
H675 H 0.26293 0.66939 0.61971 0.0
H676 H 0.2716 0.70274 0.62092 0.0
H677 H 0.22773 0.7419 0.60434 0.0
H678 H 0.24886 0.83593 0.61993 0.0
H679 H 0.23852 0.80317 0.62099 0.0
H680 H 0.28072 0.76231 0.64585 0.0
C681 C 0.2568 0.69891 0.62244 0.0
C682 C 0.23921 0.7463 0.61355 0.0
C683 C 0.25178 0.67984 0.62161 0.0
C684 C 0.2595 0.82493 0.62144 0.0
C685 C 0.25357 0.80609 0.62195 0.0
C686 C 0.26929 0.75805 0.63654 0.0
C687 C 0.24284 0.71292 0.62484 0.0
C688 C 0.24837 0.73312 0.62526 0.0
C689 C 0.26681 0.79133 0.62406 0.0
C690 C 0.26039 0.77126 0.62456 0.0
H691 H 0.20391 0.68445 0.62743 0.0
H692 H 0.21273 0.71809 0.62846 0.0
H693 H 0.27059 0.72927 0.64608 0.0
H694 H 0.30707 0.81795 0.62688 0.0
H695 H 0.29682 0.78492 0.62709 0.0
C696 C 0.86157 0.82234 0.24536 0.0
C697 C 0.86254 0.82409 0.22553 0.0
C698 C 0.85902 0.80468 0.25379 0.0
C699 C 0.86937 0.75493 0.24657 0.0
H700 H 0.83544 0.74751 0.28929 0.0
C701 C 0.86513 0.68312 0.28523 0.0
C702 C 0.86269 0.68323 0.30503 0.0
C703 C 0.86341 0.69979 0.27476 0.0
C704 C 0.84517 0.74938 0.27754 0.0
H705 H 0.86116 0.80879 0.19892 0.0
H706 H 0.85711 0.77751 0.21379 0.0
H707 H 0.83464 0.77733 0.27184 0.0
H708 H 0.85652 0.70103 0.32936 0.0
H709 H 0.85416 0.73038 0.31117 0.0
H710 H 0.88054 0.72744 0.25265 0.0
C711 C 0.85821 0.78997 0.22273 0.0
C712 C 0.84458 0.76642 0.26745 0.0
C713 C 0.86041 0.80782 0.21423 0.0
C714 C 0.85845 0.70047 0.31413 0.0
C715 C 0.85695 0.71726 0.30364 0.0
C716 C 0.87013 0.73798 0.25679 0.0
C717 C 0.85764 0.78825 0.24262 0.0
C718 C 0.8568 0.76944 0.25198 0.0
C719 C 0.85943 0.71715 0.28379 0.0
C720 C 0.85816 0.73502 0.27254 0.0
H721 H 0.86303 0.83466 0.25446 0.0
H722 H 0.85882 0.8038 0.26913 0.0
H723 H 0.87916 0.75699 0.2349 0.0
H724 H 0.86817 0.67004 0.27771 0.0
H725 H 0.86501 0.69899 0.2595 0.0
C726 C 0.16778 0.38138 0.75779 0.0
C727 C 0.17011 0.38128 0.73796 0.0
C728 C 0.18359 0.37963 0.76974 0.0
C729 C 0.23216 0.36045 0.76827 0.0
H730 H 0.24257 0.39195 0.81219 0.0
C731 C 0.30677 0.37339 0.79449 0.0
C732 C 0.311 0.36986 0.81362 0.0
C733 C 0.28809 0.37359 0.7882 0.0
C734 C 0.23961 0.38284 0.80017 0.0
H735 H 0.19089 0.38059 0.71521 0.0
H736 H 0.21818 0.37783 0.73587 0.0
H737 H 0.2122 0.39534 0.79536 0.0
H738 H 0.29882 0.36419 0.84129 0.0
H739 H 0.26568 0.36494 0.83014 0.0
H740 H 0.25976 0.34855 0.77245 0.0
C741 C 0.20421 0.37871 0.74225 0.0
C742 C 0.22231 0.38478 0.79054 0.0
C743 C 0.18854 0.38042 0.7304 0.0
C744 C 0.29598 0.36687 0.82645 0.0
C745 C 0.27709 0.36737 0.82013 0.0
C746 C 0.24935 0.35859 0.77777 0.0
C747 C 0.20191 0.37773 0.76201 0.0
C748 C 0.21875 0.37406 0.77408 0.0
C749 C 0.27309 0.37047 0.80087 0.0
C750 C 0.2535 0.37017 0.79341 0.0
H751 H 0.15374 0.38202 0.76403 0.0
H752 H 0.18143 0.379 0.78494 0.0
H753 H 0.22961 0.35162 0.75594 0.0
H754 H 0.31794 0.37573 0.78418 0.0
H755 H 0.28535 0.37621 0.77331 0.0
C756 C 0.63049 0.81989 0.27508 0.0
C757 C 0.62782 0.83698 0.26523 0.0
C758 C 0.63233 0.80272 0.26533 0.0
C759 C 0.62407 0.77939 0.21859 0.0
H760 H 0.6583 0.7418 0.23954 0.0
C761 C 0.6416 0.70661 0.18222 0.0
C762 C 0.64012 0.69086 0.19433 0.0
C763 C 0.64069 0.72512 0.18957 0.0
C764 C 0.64865 0.75213 0.23353 0.0
H765 H 0.62484 0.84934 0.23728 0.0
H766 H 0.62848 0.81934 0.22015 0.0
H767 H 0.65563 0.77277 0.25459 0.0
H768 H 0.63674 0.68228 0.22368 0.0
H769 H 0.63549 0.71433 0.23639 0.0
H770 H 0.61733 0.75855 0.19737 0.0
C771 C 0.62884 0.81919 0.2355 0.0
C772 C 0.64701 0.76989 0.24222 0.0
C773 C 0.62682 0.83642 0.24531 0.0
C774 C 0.6379 0.69404 0.21391 0.0
C775 C 0.63729 0.71244 0.22124 0.0
C776 C 0.62587 0.76163 0.20975 0.0
C777 C 0.63179 0.8021 0.24538 0.0
C778 C 0.63441 0.78367 0.23514 0.0
C779 C 0.63866 0.7282 0.2092 0.0
C780 C 0.63792 0.74768 0.21736 0.0
H781 H 0.63114 0.81974 0.29043 0.0
H782 H 0.63408 0.78987 0.27351 0.0
H783 H 0.61411 0.78954 0.21278 0.0
H784 H 0.64326 0.70463 0.16707 0.0
H785 H 0.64185 0.73702 0.17996 0.0
C786 C 0.32197 0.12422 0.73979 0.0
C787 C 0.33914 0.12262 0.74973 0.0
C788 C 0.3049 0.12686 0.74946 0.0
C789 C 0.28125 0.12298 0.79616 0.0
H790 H 0.2456 0.15756 0.77252 0.0
C791 C 0.20669 0.14373 0.82743 0.0
C792 C 0.19191 0.14099 0.81433 0.0
C793 C 0.2257 0.14253 0.82153 0.0
C794 C 0.25543 0.14791 0.77932 0.0
H795 H 0.35178 0.12194 0.77773 0.0
H796 H 0.32179 0.12682 0.79473 0.0
H797 H 0.27692 0.1531 0.75862 0.0
H798 H 0.18549 0.13512 0.78479 0.0
H799 H 0.21837 0.13341 0.77459 0.0
H800 H 0.25943 0.11786 0.81686 0.0
C801 C 0.32159 0.12587 0.7794 0.0
C802 C 0.27334 0.14523 0.7713 0.0
C803 C 0.33876 0.12309 0.76967 0.0
C804 C 0.1965 0.13725 0.79527 0.0
C805 C 0.21535 0.13637 0.78938 0.0
C806 C 0.26328 0.12579 0.80431 0.0
C807 C 0.30451 0.12817 0.76936 0.0
C808 C 0.28628 0.13232 0.77927 0.0
C809 C 0.23015 0.13898 0.8024 0.0
C810 C 0.25005 0.1379 0.79563 0.0
H811 H 0.3217 0.12369 0.72444 0.0
H812 H 0.29196 0.12801 0.74127 0.0
H813 H 0.29086 0.11292 0.80265 0.0
H814 H 0.20357 0.14656 0.84221 0.0
H815 H 0.23689 0.14462 0.83183 0.0
C816 C 0.25752 0.88868 0.68285 0.0
C817 C 0.24733 0.8917 0.666 0.0
C818 C 0.24812 0.88567 0.69998 0.0
C819 C 0.20282 0.89102 0.72577 0.0
H820 H 0.22512 0.85188 0.75727 0.0
C821 C 0.174 0.86947 0.801 0.0
C822 C 0.18824 0.8693 0.81496 0.0
C823 C 0.17883 0.87101 0.7817 0.0
C824 C 0.21869 0.86284 0.74865 0.0
H825 H 0.21912 0.89472 0.65419 0.0
H826 H 0.20253 0.88938 0.68441 0.0
H827 H 0.23783 0.85756 0.7257 0.0
H828 H 0.21866 0.87015 0.81955 0.0
H829 H 0.22697 0.87247 0.78624 0.0
H830 H 0.18382 0.89637 0.74911 0.0
C831 C 0.2179 0.88937 0.68421 0.0
C832 C 0.22603 0.86617 0.73057 0.0
C833 C 0.22739 0.89245 0.66691 0.0
C834 C 0.20731 0.87026 0.80921 0.0
C835 C 0.21211 0.8715 0.79006 0.0
C836 C 0.1954 0.88762 0.74396 0.0
C837 C 0.2282 0.88547 0.70085 0.0
C838 C 0.21861 0.88068 0.71911 0.0
C839 C 0.19798 0.872 0.77606 0.0
C840 C 0.20365 0.87385 0.75579 0.0
H841 H 0.27289 0.88826 0.68279 0.0
H842 H 0.25653 0.88326 0.71259 0.0
H843 H 0.19677 0.90229 0.7173 0.0
H844 H 0.15917 0.86887 0.80501 0.0
H845 H 0.16765 0.87132 0.77119 0.0
C846 C 0.14083 0.72155 0.32078 0.0
C847 C 0.14454 0.70196 0.32182 0.0
C848 C 0.1422 0.73116 0.30355 0.0
C849 C 0.13923 0.72361 0.25235 0.0
H850 H 0.16374 0.77268 0.24874 0.0
C851 C 0.14769 0.75943 0.18036 0.0
C852 C 0.1443 0.77901 0.17916 0.0
C853 C 0.14977 0.75066 0.1979 0.0
C854 C 0.15666 0.7591 0.24954 0.0
H855 H 0.15272 0.67715 0.30551 0.0
H856 H 0.15486 0.69396 0.27525 0.0
H857 H 0.16328 0.75589 0.27905 0.0
H858 H 0.14119 0.80497 0.19529 0.0
H859 H 0.14426 0.7895 0.2263 0.0
H860 H 0.13206 0.72688 0.22317 0.0
C861 C 0.15089 0.70183 0.28786 0.0
C862 C 0.15646 0.74945 0.26689 0.0
C863 C 0.14971 0.69222 0.30519 0.0
C864 C 0.14386 0.78986 0.19587 0.0
C865 C 0.14565 0.78097 0.21359 0.0
C866 C 0.13927 0.73329 0.23511 0.0
C867 C 0.14714 0.72141 0.28687 0.0
C868 C 0.14779 0.73157 0.26844 0.0
C869 C 0.14813 0.76114 0.2148 0.0
C870 C 0.14809 0.75112 0.2334 0.0
H871 H 0.13689 0.72955 0.33333 0.0
H872 H 0.13902 0.74619 0.30321 0.0
H873 H 0.13211 0.71004 0.25318 0.0
H874 H 0.1484 0.75077 0.16766 0.0
H875 H 0.15232 0.73551 0.19818 0.0
C876 C 0.31056 0.63306 0.80392 0.0
C877 C 0.32905 0.63893 0.80849 0.0
C878 C 0.30558 0.62889 0.78525 0.0
C879 C 0.31851 0.63624 0.73514 0.0
H880 H 0.28518 0.59312 0.72799 0.0
C881 C 0.28861 0.61331 0.66123 0.0
C882 C 0.2688 0.61089 0.66122 0.0
C883 C 0.29852 0.61513 0.67842 0.0
C884 C 0.2945 0.6052 0.72972 0.0
H885 H 0.35671 0.64552 0.79677 0.0
H886 H 0.34794 0.63814 0.76386 0.0
H887 H 0.29787 0.59991 0.75935 0.0
H888 H 0.24399 0.60783 0.67919 0.0
H889 H 0.26117 0.61064 0.7089 0.0
H890 H 0.31478 0.64159 0.7054 0.0
C891 C 0.33732 0.63683 0.77489 0.0
C892 C 0.30173 0.60915 0.74772 0.0
C893 C 0.34235 0.64104 0.79373 0.0
C894 C 0.25924 0.60968 0.67868 0.0
C895 C 0.26911 0.61121 0.69574 0.0
C896 C 0.3113 0.63222 0.71703 0.0
C897 C 0.31893 0.63038 0.77051 0.0
C898 C 0.31336 0.62504 0.75081 0.0
C899 C 0.28882 0.61419 0.69586 0.0
C900 C 0.29878 0.61695 0.71426 0.0
H901 H 0.29984 0.63146 0.81482 0.0
H902 H 0.29116 0.62448 0.78237 0.0
H903 H 0.3274 0.64861 0.73702 0.0
H904 H 0.29635 0.61443 0.648 0.0
H905 H 0.31371 0.61734 0.67808 0.0
C906 C 0.36638 0.82578 0.30058 0.0
C907 C 0.36806 0.81389 0.31648 0.0
C908 C 0.36727 0.81821 0.28216 0.0
C909 C 0.35973 0.77387 0.25568 0.0
H910 H 0.3935 0.79494 0.21777 0.0
C911 C 0.37762 0.73237 0.1878 0.0
C912 C 0.37991 0.74222 0.17065 0.0
C913 C 0.37586 0.74214 0.20498 0.0
C914 C 0.38376 0.78903 0.22806 0.0
H915 H 0.37181 0.7847 0.32543 0.0
H916 H 0.37304 0.7716 0.2935 0.0
H917 H 0.39041 0.81045 0.2487 0.0
H918 H 0.38231 0.77017 0.15819 0.0
H919 H 0.3788 0.78731 0.18819 0.0
H920 H 0.35282 0.75262 0.23522 0.0
C921 C 0.37109 0.78675 0.29522 0.0
C922 C 0.38203 0.79793 0.2458 0.0
C923 C 0.37048 0.7943 0.31354 0.0
C924 C 0.38062 0.76214 0.17115 0.0
C925 C 0.37868 0.77197 0.18839 0.0
C926 C 0.36129 0.76512 0.23794 0.0
C927 C 0.36951 0.79858 0.27931 0.0
C928 C 0.37025 0.79023 0.25991 0.0
C929 C 0.37611 0.76208 0.20554 0.0
C930 C 0.37361 0.77233 0.22398 0.0
H931 H 0.36456 0.84093 0.30237 0.0
H932 H 0.36594 0.82767 0.27016 0.0
H933 H 0.35028 0.76779 0.26615 0.0
H934 H 0.37721 0.71702 0.188 0.0
H935 H 0.37442 0.73396 0.21787 0.0
C936 C 0.68916 0.29189 0.88832 0.0
C937 C 0.6741 0.27887 0.88777 0.0
C938 C 0.70781 0.28571 0.8908 0.0
C939 C 0.73678 0.24437 0.90609 0.0
H940 H 0.7762 0.26976 0.87736 0.0
C941 C 0.81132 0.2129 0.89332 0.0
C942 C 0.82705 0.22508 0.89435 0.0
C943 C 0.79289 0.22002 0.89483 0.0
C944 C 0.7654 0.26271 0.8857 0.0
H945 H 0.6668 0.24911 0.88955 0.0
H946 H 0.69952 0.23817 0.89332 0.0
H947 H 0.7435 0.28062 0.87487 0.0
H948 H 0.83581 0.25425 0.89827 0.0
H949 H 0.80341 0.26682 0.90068 0.0
H950 H 0.75877 0.22605 0.91636 0.0
C951 C 0.69685 0.25325 0.89223 0.0
C952 C 0.74662 0.26893 0.88429 0.0
C953 C 0.6781 0.25948 0.88995 0.0
C954 C 0.82397 0.24453 0.89743 0.0
C955 C 0.80545 0.25172 0.8987 0.0
C956 C 0.75556 0.23805 0.90735 0.0
C957 C 0.71197 0.2663 0.89258 0.0
C958 C 0.73202 0.25979 0.8944 0.0
C959 C 0.78973 0.23953 0.89722 0.0
C960 C 0.77005 0.24709 0.89708 0.0
H961 H 0.68657 0.30697 0.88695 0.0
H962 H 0.71896 0.29622 0.89143 0.0
H963 H 0.72601 0.2372 0.91435 0.0
H964 H 0.8132 0.19781 0.89105 0.0
H965 H 0.78109 0.2103 0.89346 0.0
C966 C 0.84232 0.23143 0.61208 0.0
C967 C 0.84228 0.25046 0.60624 0.0
C968 C 0.82515 0.22153 0.61377 0.0
C969 C 0.77609 0.2336 0.62467 0.0
H970 H 0.76304 0.18191 0.61121 0.0
C971 C 0.69957 0.20916 0.62478 0.0
C972 C 0.69501 0.19186 0.63349 0.0
C973 C 0.71837 0.21409 0.62148 0.0
C974 C 0.76665 0.19628 0.61525 0.0
H975 H 0.82488 0.27345 0.59572 0.0
H976 H 0.79516 0.25612 0.59805 0.0
H977 H 0.79483 0.1942 0.6036 0.0
H978 H 0.70672 0.16594 0.64517 0.0
H979 H 0.73996 0.17474 0.63936 0.0
H980 H 0.74816 0.23592 0.63617 0.0
C981 C 0.80822 0.24895 0.60188 0.0
C982 C 0.78475 0.2033 0.61085 0.0
C983 C 0.82522 0.25883 0.60039 0.0
C984 C 0.70979 0.17942 0.63854 0.0
C985 C 0.72877 0.18437 0.63512 0.0
C986 C 0.75818 0.22664 0.62904 0.0
C987 C 0.80787 0.2306 0.60954 0.0
C988 C 0.78941 0.22222 0.61508 0.0
C989 C 0.73319 0.2019 0.62678 0.0
C990 C 0.75307 0.2081 0.62397 0.0
H991 H 0.85533 0.22476 0.61682 0.0
H992 H 0.82526 0.20737 0.61966 0.0
H993 H 0.77948 0.24804 0.62866 0.0
H994 H 0.68859 0.21906 0.62056 0.0
H995 H 0.72134 0.22756 0.61474 0.0
C996 C 0.74697 0.32441 0.11597 0.0
C997 C 0.75865 0.34042 0.11404 0.0
C998 C 0.75479 0.30635 0.11817 0.0
C999 C 0.79866 0.27759 0.11254 0.0
H1000 H 0.7722 0.24452 0.14755 0.0
C1001 C 0.8238 0.20058 0.13216 0.0
C1002 C 0.80936 0.18686 0.13119 0.0
C1003 C 0.81941 0.21999 0.13074 0.0
C1004 C 0.77974 0.25355 0.13769 0.0
H1005 H 0.78786 0.34982 0.11235 0.0
H1006 H 0.80162 0.31811 0.11643 0.0
H1007 H 0.7614 0.27701 0.14347 0.0
H1008 H 0.77898 0.18289 0.12813 0.0
H1009 H 0.77143 0.2164 0.12593 0.0
H1010 H 0.81702 0.25383 0.10688 0.0
C1011 C 0.78633 0.3196 0.11609 0.0
C1012 C 0.7735 0.27219 0.13526 0.0
C1013 C 0.77845 0.33779 0.11377 0.0
C1014 C 0.7905 0.193 0.12894 0.0
C1015 C 0.78612 0.21227 0.12778 0.0
C1016 C 0.80501 0.25886 0.11509 0.0
C1017 C 0.77456 0.30368 0.11868 0.0
C1018 C 0.78254 0.28436 0.12231 0.0
C1019 C 0.80047 0.22603 0.12866 0.0
C1020 C 0.79532 0.24651 0.12737 0.0
H1021 H 0.73166 0.32581 0.11601 0.0
H1022 H 0.74523 0.29443 0.11956 0.0
H1023 H 0.80595 0.28651 0.10243 0.0
H1024 H 0.83848 0.19632 0.13381 0.0
H1025 H 0.83077 0.23028 0.13152 0.0
C1026 C 0.75043 0.3275 0.39078 0.0
C1027 C 0.74043 0.34462 0.3931 0.0
C1028 C 0.74084 0.31053 0.38757 0.0
C1029 C 0.69451 0.2862 0.39066 0.0
H1030 H 0.71804 0.25327 0.35321 0.0
C1031 C 0.66331 0.21285 0.36665 0.0
C1032 C 0.67667 0.198 0.36686 0.0
C1033 C 0.66917 0.23176 0.36895 0.0
C1034 C 0.71129 0.26228 0.36372 0.0
H1035 H 0.71235 0.35714 0.39466 0.0
H1036 H 0.69546 0.32725 0.38889 0.0
H1037 H 0.73163 0.28428 0.35961 0.0
H1038 H 0.70668 0.19145 0.36934 0.0
H1039 H 0.71677 0.2241 0.37306 0.0
H1040 H 0.6742 0.26387 0.39475 0.0
C1041 C 0.7108 0.32707 0.38964 0.0
C1042 C 0.71912 0.28004 0.36747 0.0
C1043 C 0.72047 0.34419 0.39296 0.0
C1044 C 0.69597 0.20249 0.36911 0.0
C1045 C 0.7018 0.22126 0.37115 0.0
C1046 C 0.68658 0.26834 0.38683 0.0
C1047 C 0.72094 0.31012 0.38644 0.0
C1048 C 0.71118 0.29205 0.38135 0.0
C1049 C 0.68852 0.23614 0.37116 0.0
C1050 C 0.6952 0.256 0.37365 0.0
H1051 H 0.76579 0.32723 0.39106 0.0
H1052 H 0.74911 0.29769 0.38574 0.0
H1053 H 0.68803 0.29509 0.40143 0.0
H1054 H 0.64833 0.20985 0.36504 0.0
H1055 H 0.65862 0.24295 0.36884 0.0
C1056 C 0.20739 0.55339 0.6216 0.0
C1057 C 0.19904 0.56924 0.63042 0.0
C1058 C 0.20002 0.53527 0.62442 0.0
C1059 C 0.15752 0.50942 0.64164 0.0
H1060 H 0.1936 0.46835 0.64812 0.0
C1061 C 0.13823 0.43637 0.67331 0.0
C1062 C 0.1466 0.42018 0.66512 0.0
C1063 C 0.14336 0.45449 0.66726 0.0
C1064 C 0.18333 0.47961 0.64607 0.0
H1065 H 0.17625 0.57852 0.64898 0.0
H1066 H 0.16364 0.54677 0.65431 0.0
H1067 H 0.20506 0.50016 0.6415 0.0
H1068 H 0.16646 0.41032 0.64369 0.0
H1069 H 0.17545 0.44202 0.63317 0.0
H1070 H 0.13582 0.48879 0.64675 0.0
C1071 C 0.17569 0.5484 0.64491 0.0
C1072 C 0.18989 0.49787 0.64226 0.0
C1073 C 0.18298 0.56659 0.64195 0.0
C1074 C 0.15978 0.4225 0.65032 0.0
C1075 C 0.16501 0.44065 0.64437 0.0
C1076 C 0.15096 0.49115 0.64558 0.0
C1077 C 0.18423 0.53249 0.63629 0.0
C1078 C 0.17708 0.51302 0.64003 0.0
C1079 C 0.15706 0.45683 0.65298 0.0
C1080 C 0.16381 0.47606 0.64788 0.0
H1081 H 0.21965 0.55495 0.61245 0.0
H1082 H 0.20673 0.52342 0.61725 0.0
H1083 H 0.14724 0.52069 0.63973 0.0
H1084 H 0.12799 0.43509 0.68471 0.0
H1085 H 0.1371 0.46669 0.67427 0.0
C1086 C 0.42979 0.66019 0.15414 0.0
C1087 C 0.42715 0.67556 0.14175 0.0
C1088 C 0.44813 0.65412 0.15898 0.0
C1089 C 0.49827 0.67106 0.15874 0.0
H1090 H 0.51059 0.61804 0.16652 0.0
C1091 C 0.57535 0.64492 0.16227 0.0
C1092 C 0.58028 0.63322 0.17762 0.0
C1093 C 0.55635 0.64894 0.15829 0.0
C1094 C 0.50729 0.63291 0.16452 0.0
H1095 H 0.44173 0.69608 0.12415 0.0
H1096 H 0.47342 0.68521 0.132 0.0
H1097 H 0.47801 0.62721 0.15865 0.0
H1098 H 0.56895 0.616 0.2004 0.0
H1099 H 0.53559 0.62283 0.19318 0.0
H1100 H 0.5276 0.6767 0.16414 0.0
C1101 C 0.46146 0.67818 0.13857 0.0
C1102 C 0.48861 0.6382 0.16007 0.0
C1103 C 0.44322 0.68436 0.13393 0.0
C1104 C 0.56565 0.62509 0.1885 0.0
C1105 C 0.54656 0.62895 0.18434 0.0
C1106 C 0.5169 0.66576 0.16294 0.0
C1107 C 0.46424 0.66318 0.1514 0.0
C1108 C 0.48389 0.65736 0.15691 0.0
C1109 C 0.54175 0.64121 0.16941 0.0
C1110 C 0.52168 0.64663 0.1657 0.0
H1111 H 0.4177 0.65313 0.16044 0.0
H1112 H 0.44965 0.64263 0.16902 0.0
H1113 H 0.49517 0.68599 0.15698 0.0
H1114 H 0.58619 0.65143 0.15355 0.0
H1115 H 0.55308 0.65824 0.14653 0.0
C1116 C 0.33397 0.93284 0.64802 0.0
C1117 C 0.31803 0.93198 0.6361 0.0
C1118 C 0.34204 0.95032 0.65275 0.0
C1119 C 0.34557 1.00011 0.63768 0.0
H1120 H 0.35405 0.01043 0.69101 0.0
C1121 C 0.3582 0.07582 0.66636 0.0
C1122 C 0.37024 0.07814 0.68204 0.0
C1123 C 0.35355 0.05767 0.65984 0.0
C1124 C 0.35213 0.00772 0.67602 0.0
H1125 H 0.29842 0.94873 0.61934 0.0
H1126 H 0.31262 0.97917 0.62747 0.0
H1127 H 0.34326 0.97917 0.68113 0.0
H1128 H 0.38748 0.0633 0.7027 0.0
H1129 H 0.37985 0.03174 0.69102 0.0
H1130 H 0.3545 0.0286 0.63249 0.0
C1131 C 0.31885 0.96634 0.63316 0.0
C1132 C 0.34589 0.9898 0.67038 0.0
C1133 C 0.31065 0.94891 0.62862 0.0
C1134 C 0.37799 0.06198 0.6907 0.0
C1135 C 0.37352 0.04386 0.68406 0.0
C1136 C 0.352 0.018 0.64329 0.0
C1137 C 0.33449 0.96725 0.64544 0.0
C1138 C 0.34233 0.98588 0.65119 0.0
C1139 C 0.36099 0.04145 0.66874 0.0
C1140 C 0.35516 0.02211 0.66256 0.0
H1141 H 0.34 0.92005 0.65401 0.0
H1142 H 0.35418 0.95062 0.66214 0.0
H1143 H 0.34313 0.9974 0.62275 0.0
H1144 H 0.35193 0.088 0.65943 0.0
H1145 H 0.34365 0.0564 0.64818 0.0
C1146 C 0.05458 0.79268 0.13525 0.0
C1147 C 0.07204 0.80073 0.14047 0.0
C1148 C 0.03751 0.79989 0.14267 0.0
C1149 C 0.01806 0.82682 0.1832 0.0
H1150 H 0.9764 0.83885 0.14953 0.0
C1151 C 0.95152 0.86799 0.2095 0.0
C1152 C 0.93393 0.86304 0.20158 0.0
C1153 C 0.96843 0.8604 0.2021 0.0
C1154 C 0.98774 0.83532 0.15924 0.0
H1155 H 0.08521 0.8225 0.15783 0.0
H1156 H 0.05565 0.83477 0.17082 0.0
H1157 H 0.00523 0.82457 0.13669 0.0
H1158 H 0.92035 0.8459 0.17991 0.0
H1159 H 0.94946 0.83236 0.16755 0.0
H1160 H 1.00057 0.83718 0.20582 0.0
C1161 C 0.0551 0.82296 0.16099 0.0
C1162 C 0.00429 0.82715 0.15182 0.0
C1163 C 0.07204 0.81598 0.1534 0.0
C1164 C 0.93365 0.85024 0.18625 0.0
C1165 C 0.95044 0.84252 0.17903 0.0
C1166 C 1.00142 0.83477 0.19067 0.0
C1167 C 0.03763 0.81506 0.1557 0.0
C1168 C 0.01968 0.8229 0.16369 0.0
C1169 C 0.96812 0.84753 0.18675 0.0
C1170 C 0.98601 0.8392 0.1788 0.0
H1171 H 0.05409 0.78094 0.12533 0.0
H1172 H 0.02424 0.79347 0.1384 0.0
H1173 H 0.02964 0.82354 0.19274 0.0
H1174 H 0.95224 0.87784 0.22129 0.0
H1175 H 0.98176 0.86483 0.20829 0.0
C1176 C 0.16307 0.93501 0.8606 0.0
C1177 C 0.17951 0.93097 0.8711 0.0
C1178 C 0.15742 0.95369 0.8575 0.0
C1179 C 0.17563 1.00292 0.85792 0.0
H1180 H 0.1221 0.01525 0.85385 0.0
C1181 C 0.14812 0.07938 0.84844 0.0
C1182 C 0.13596 0.08201 0.83286 0.0
C1183 C 0.1527 0.06117 0.85463 0.0
C1184 C 0.13709 0.01196 0.85492 0.0
H1185 H 0.20274 0.94336 0.8869 0.0
H1186 H 0.19252 0.97611 0.88205 0.0
H1187 H 0.1317 0.98323 0.8627 0.0
H1188 H 0.11854 0.06763 0.81201 0.0
H1189 H 0.12627 0.03569 0.82318 0.0
H1190 H 0.18088 0.03186 0.85046 0.0
C1191 C 0.18424 0.96481 0.87579 0.0
C1192 C 0.14263 0.99361 0.85989 0.0
C1193 C 0.19006 0.94605 0.87868 0.0
C1194 C 0.12796 0.06605 0.82403 0.0
C1195 C 0.13232 0.0478 0.83044 0.0
C1196 C 0.17006 0.02134 0.85324 0.0
C1197 C 0.16789 0.96887 0.86505 0.0
C1198 C 0.16199 0.98876 0.86117 0.0
C1199 C 0.14499 0.04522 0.84559 0.0
C1200 C 0.15076 0.02595 0.85146 0.0
H1201 H 0.15472 0.92373 0.85439 0.0
H1202 H 0.14503 0.95619 0.8488 0.0
H1203 H 0.19065 0.9997 0.85845 0.0
H1204 H 0.15457 0.09137 0.85553 0.0
H1205 H 0.16238 0.05953 0.86643 0.0
C1206 C 0.93101 0.64647 0.3487 0.0
C1207 C 0.92753 0.63341 0.33399 0.0
C1208 C 0.94957 0.65118 0.35386 0.0
C1209 C 0.9992 0.63448 0.35166 0.0
H1210 H 0.0113 0.68744 0.36007 0.0
C1211 C 0.07653 0.66019 0.36075 0.0
C1212 C 0.0802 0.67528 0.37329 0.0
C1213 C 0.05792 0.65482 0.35652 0.0
C1214 C 0.00816 0.67255 0.35808 0.0
H1215 H 0.94099 0.61487 0.31337 0.0
H1216 H 0.97345 0.62303 0.32249 0.0
H1217 H 0.97904 0.67843 0.35163 0.0
H1218 H 0.067 0.69637 0.39147 0.0
H1219 H 0.0345 0.68674 0.38447 0.0
H1220 H 0.02822 0.62852 0.35831 0.0
C1221 C 0.96174 0.62958 0.33005 0.0
C1222 C 0.98963 0.66739 0.35317 0.0
C1223 C 0.94313 0.62496 0.32477 0.0
C1224 C 0.06472 0.68473 0.3817 0.0
C1225 C 0.04605 0.67927 0.37756 0.0
C1226 C 0.01771 0.63962 0.35672 0.0
C1227 C 0.96518 0.64288 0.34455 0.0
C1228 C 0.98492 0.6483 0.34985 0.0
C1229 C 0.04238 0.6643 0.36481 0.0
C1230 C 0.02249 0.65875 0.35993 0.0
H1231 H 0.91938 0.65327 0.35614 0.0
H1232 H 0.9517 0.66129 0.36524 0.0
H1233 H 0.996 0.61963 0.34946 0.0
H1234 H 0.08808 0.65265 0.35389 0.0
H1235 H 0.05574 0.64346 0.3464 0.0
C1236 C 0.32815 0.56864 0.87628 0.0
C1237 C 0.33912 0.58291 0.86781 0.0
C1238 C 0.3327 0.54951 0.87344 0.0
C1239 C 0.37121 0.51762 0.85529 0.0
H1240 H 0.3297 0.48227 0.84856 0.0
C1241 C 0.37878 0.4434 0.82023 0.0
C1242 C 0.36999 0.42832 0.8298 0.0
C1243 C 0.376 0.4621 0.82635 0.0
C1244 C 0.34143 0.49197 0.85056 0.0
H1245 H 0.36351 0.5883 0.8498 0.0
H1246 H 0.37101 0.55519 0.84434 0.0
H1247 H 0.32286 0.51515 0.85676 0.0
H1248 H 0.35157 0.42102 0.85338 0.0
H1249 H 0.34653 0.45363 0.86378 0.0
H1250 H 0.38967 0.4944 0.8483 0.0
C1251 C 0.35923 0.55861 0.85363 0.0
C1252 C 0.33754 0.5108 0.85539 0.0
C1253 C 0.35485 0.57767 0.85668 0.0
C1254 C 0.35859 0.4323 0.84572 0.0
C1255 C 0.3556 0.45097 0.85163 0.0
C1256 C 0.37506 0.49883 0.85018 0.0
C1257 C 0.34816 0.54424 0.86186 0.0
C1258 C 0.35237 0.52393 0.85772 0.0
C1259 C 0.36416 0.46605 0.84194 0.0
C1260 C 0.3602 0.48586 0.84772 0.0
H1261 H 0.31601 0.57223 0.88502 0.0
H1262 H 0.32404 0.53887 0.88029 0.0
H1263 H 0.38303 0.52718 0.85733 0.0
H1264 H 0.38766 0.44078 0.80794 0.0
H1265 H 0.38269 0.47352 0.81858 0.0
C1266 C 0.43334 0.84696 0.363 0.0
C1267 C 0.42815 0.8314 0.37428 0.0
C1268 C 0.45243 0.85133 0.35994 0.0
C1269 C 0.50082 0.83032 0.36191 0.0
H1270 H 0.51592 0.88269 0.35506 0.0
C1271 C 0.57898 0.85394 0.34824 0.0
C1272 C 0.58127 0.86629 0.33278 0.0
C1273 C 0.5608 0.84966 0.35514 0.0
C1274 C 0.51191 0.868 0.35691 0.0
H1275 H 0.43908 0.80847 0.39154 0.0
H1276 H 0.47245 0.8164 0.38662 0.0
H1277 H 0.48343 0.87544 0.36433 0.0
H1278 H 0.56627 0.88405 0.31267 0.0
H1279 H 0.53475 0.87685 0.32489 0.0
H1280 H 0.52951 0.82302 0.35458 0.0
C1281 C 0.46173 0.825 0.37978 0.0
C1282 C 0.49324 0.8638 0.36214 0.0
C1283 C 0.44257 0.82051 0.38272 0.0
C1284 C 0.56504 0.87445 0.32457 0.0
C1285 C 0.54696 0.87042 0.33164 0.0
C1286 C 0.51959 0.83456 0.35688 0.0
C1287 C 0.46693 0.84041 0.36823 0.0
C1288 C 0.4873 0.84488 0.36433 0.0
C1289 C 0.54461 0.85792 0.34694 0.0
C1290 C 0.52522 0.85343 0.35396 0.0
H1291 H 0.42264 0.85558 0.35614 0.0
H1292 H 0.45577 0.86306 0.35065 0.0
H1293 H 0.49679 0.81558 0.36324 0.0
H1294 H 0.59119 0.84738 0.35485 0.0
H1295 H 0.55941 0.84003 0.367 0.0
C1296 C 0.62453 0.18637 0.56567 0.0
C1297 C 0.63397 0.177 0.58046 0.0
C1298 C 0.62728 0.18069 0.54684 0.0
C1299 C 0.64732 0.1417 0.51675 0.0
H1300 H 0.64984 0.18156 0.47909 0.0
C1301 C 0.67714 0.13218 0.44007 0.0
C1302 C 0.66584 0.13988 0.42558 0.0
C1303 C 0.67257 0.13546 0.45915 0.0
C1304 C 0.64905 0.17027 0.48945 0.0
H1305 H 0.65347 0.15413 0.58712 0.0
H1306 H 0.65873 0.14466 0.55438 0.0
H1307 H 0.64283 0.18963 0.51193 0.0
H1308 H 0.64073 0.15682 0.4198 0.0
H1309 H 0.63304 0.16269 0.45294 0.0
H1310 H 0.65422 0.12246 0.49411 0.0
C1311 C 0.64882 0.15607 0.55724 0.0
C1312 C 0.6449 0.17485 0.50827 0.0
C1313 C 0.64587 0.16157 0.57606 0.0
C1314 C 0.64976 0.15065 0.43057 0.0
C1315 C 0.64537 0.15412 0.44956 0.0
C1316 C 0.65175 0.13715 0.49792 0.0
C1317 C 0.63975 0.1657 0.54233 0.0
C1318 C 0.64388 0.16064 0.52219 0.0
C1319 C 0.65681 0.14673 0.46403 0.0
C1320 C 0.65255 0.15139 0.48409 0.0
H1321 H 0.61517 0.19822 0.56861 0.0
H1322 H 0.61969 0.18818 0.53581 0.0
H1323 H 0.64641 0.13032 0.52698 0.0
H1324 H 0.6896 0.1238 0.43668 0.0
H1325 H 0.68165 0.12965 0.47007 0.0
C1326 C 0.80271 0.12074 0.05764 0.0
C1327 C 0.81546 0.12545 0.07223 0.0
C1328 C 0.80823 0.12228 0.03858 0.0
C1329 C 0.84057 0.14973 0.00939 0.0
H1330 H 0.83478 0.11106 0.97064 0.0
C1331 C 0.87533 0.16023 0.93774 0.0
C1332 C 0.86434 0.15643 0.92163 0.0
C1333 C 0.86979 0.15351 0.95545 0.0
C1334 C 0.83632 0.12204 0.98128 0.0
H1335 H 0.84422 0.13475 0.07822 0.0
H1336 H 0.85362 0.13755 0.04526 0.0
H1337 H 0.82319 0.10513 1.00297 0.0
H1338 H 0.83957 0.1417 0.91108 0.0
H1339 H 0.82947 0.1303 0.9423 0.0
H1340 H 0.85327 0.16685 0.98804 0.0
C1341 C 0.83936 0.1328 0.04849 0.0
C1342 C 0.82969 0.11864 0.99973 0.0
C1343 C 0.83394 0.13115 0.0674 0.0
C1344 C 0.84834 0.14472 0.92332 0.0
C1345 C 0.84256 0.13822 0.94119 0.0
C1346 C 0.84702 0.15317 0.99106 0.0
C1347 C 0.8265 0.12872 0.03389 0.0
C1348 C 0.83209 0.13238 0.014 0.0
C1349 C 0.85286 0.14319 0.95754 0.0
C1350 C 0.84534 0.13926 0.97684 0.0
H1351 H 0.7884 0.11621 0.06091 0.0
H1352 H 0.79805 0.11909 0.02754 0.0
H1353 H 0.84223 0.16072 0.02003 0.0
H1354 H 0.88787 0.16905 0.93676 0.0
H1355 H 0.8784 0.15707 0.96765 0.0
C1356 C 0.85127 0.34032 0.57746 0.0
C1357 C 0.86586 0.32681 0.579 0.0
C1358 C 0.8464 0.34781 0.55976 0.0
C1359 C 0.84948 0.33553 0.50892 0.0
H1360 H 0.83165 0.38702 0.5016 0.0
C1361 C 0.82848 0.36372 0.43516 0.0
C1362 C 0.81125 0.37376 0.43432 0.0
C1363 C 0.8367 0.35939 0.45265 0.0
C1364 C 0.83653 0.37257 0.50346 0.0
H1365 H 0.88757 0.31144 0.56337 0.0
H1366 H 0.87942 0.32481 0.53269 0.0
H1367 H 0.8436 0.37736 0.53261 0.0
H1368 H 0.78937 0.38748 0.45122 0.0
H1369 H 0.80368 0.37984 0.48167 0.0
H1370 H 0.84229 0.33068 0.47985 0.0
C1371 C 0.87134 0.32923 0.54502 0.0
C1372 C 0.84334 0.36703 0.52123 0.0
C1373 C 0.87609 0.32166 0.56264 0.0
C1374 C 0.80263 0.37968 0.45134 0.0
C1375 C 0.8109 0.37544 0.46881 0.0
C1376 C 0.84277 0.34109 0.49117 0.0
C1377 C 0.85613 0.34202 0.54327 0.0
C1378 C 0.84977 0.34838 0.5242 0.0
C1379 C 0.82793 0.36509 0.46967 0.0
C1380 C 0.83606 0.35962 0.48828 0.0
H1381 H 0.84309 0.34454 0.5898 0.0
H1382 H 0.83451 0.35752 0.55893 0.0
H1383 H 0.85395 0.32095 0.51076 0.0
H1384 H 0.83552 0.35901 0.42231 0.0
H1385 H 0.84994 0.35156 0.45286 0.0
C1386 C 0.64055 0.35863 0.92814 0.0
C1387 C 0.63521 0.33963 0.92527 0.0
C1388 C 0.64619 0.36489 0.94616 0.0
C1389 C 0.66976 0.34698 0.98766 0.0
H1390 H 0.64918 0.38966 0.01585 0.0
C1391 C 0.70522 0.37607 0.05493 0.0
C1392 C 0.69342 0.37741 0.07097 0.0
C1393 C 0.6975 0.37293 0.03701 0.0
C1394 C 0.65501 0.37772 0.00807 0.0
H1395 H 0.63086 0.31256 0.93928 0.0
H1396 H 0.64099 0.32342 0.97034 0.0
H1397 H 0.63622 0.38174 0.98442 0.0
H1398 H 0.66421 0.37703 0.08072 0.0
H1399 H 0.65067 0.37178 0.04914 0.0
H1400 H 0.68863 0.34296 0.01104 0.0
C1401 C 0.6408 0.33343 0.95871 0.0
C1402 C 0.64771 0.3733 0.99013 0.0
C1403 C 0.63495 0.32727 0.94089 0.0
C1404 C 0.67367 0.37595 0.06864 0.0
C1405 C 0.66591 0.3731 0.0506 0.0
C1406 C 0.67725 0.35159 0.00535 0.0
C1407 C 0.64681 0.35216 0.96144 0.0
C1408 C 0.65492 0.35775 0.97992 0.0
C1409 C 0.6778 0.37134 0.03468 0.0
C1410 C 0.66988 0.3669 0.01578 0.0
H1411 H 0.64085 0.36851 0.91641 0.0
H1412 H 0.65082 0.37941 0.94798 0.0
H1413 H 0.6756 0.33498 0.97998 0.0
H1414 H 0.7205 0.37714 0.05624 0.0
H1415 H 0.70695 0.37171 0.02492 0.0
C1416 C 0.83654 0.59098 0.37547 0.0
C1417 C 0.85275 0.59015 0.36382 0.0
C1418 C 0.82858 0.57433 0.3828 0.0
C1419 C 0.83845 0.52358 0.39213 0.0
H1420 H 0.78499 0.51597 0.38166 0.0
C1421 C 0.80667 0.44919 0.38674 0.0
C1422 C 0.78813 0.44569 0.39323 0.0
C1423 C 0.81395 0.46756 0.38633 0.0
C1424 C 0.79984 0.51794 0.38505 0.0
H1425 H 0.87387 0.57133 0.35159 0.0
H1426 H 0.86028 0.54246 0.36466 0.0
H1427 H 0.79931 0.547 0.37613 0.0
H1428 H 0.7627 0.45895 0.40449 0.0
H1429 H 0.77554 0.49125 0.40391 0.0
H1430 H 0.83915 0.49456 0.40078 0.0
C1431 C 0.85363 0.55591 0.36808 0.0
C1432 C 0.80805 0.53575 0.38186 0.0
C1433 C 0.8614 0.57247 0.36054 0.0
C1434 C 0.77703 0.46114 0.39939 0.0
C1435 C 0.78437 0.47965 0.39899 0.0
C1436 C 0.83024 0.50587 0.39543 0.0
C1437 C 0.83687 0.55657 0.3789 0.0
C1438 C 0.82757 0.53861 0.38488 0.0
C1439 C 0.80297 0.48306 0.39247 0.0
C1440 C 0.81095 0.50263 0.3914 0.0
H1441 H 0.82946 0.60438 0.37813 0.0
H1442 H 0.81573 0.57529 0.39121 0.0
H1443 H 0.85345 0.52542 0.39489 0.0
H1444 H 0.81566 0.43772 0.38177 0.0
H1445 H 0.82815 0.46961 0.3808 0.0
C1446 C 0.41738 0.3441 0.86602 0.0
C1447 C 0.41516 0.35317 0.84842 0.0
C1448 C 0.43544 0.33845 0.87222 0.0
C1449 C 0.48642 0.34809 0.86347 0.0
H1450 H 0.49504 0.29943 0.88744 0.0
C1451 C 0.56112 0.32736 0.8865 0.0
C1452 C 0.56713 0.30877 0.88259 0.0
C1453 C 0.54198 0.33224 0.8855 0.0
C1454 C 0.49287 0.31303 0.88068 0.0
H1455 H 0.43019 0.36309 0.82343 0.0
H1456 H 0.46123 0.35307 0.83399 0.0
H1457 H 0.46272 0.30909 0.87915 0.0
H1458 H 0.55776 0.28045 0.87537 0.0
H1459 H 0.52417 0.28912 0.87282 0.0
H1460 H 0.51638 0.35182 0.86401 0.0
C1461 C 0.44922 0.35067 0.84328 0.0
C1462 C 0.47432 0.31866 0.87615 0.0
C1463 C 0.43132 0.35634 0.83716 0.0
C1464 C 0.55348 0.2949 0.87844 0.0
C1465 C 0.53424 0.29987 0.87708 0.0
C1466 C 0.50486 0.34245 0.86784 0.0
C1467 C 0.45158 0.34177 0.86092 0.0
C1468 C 0.47094 0.33617 0.86723 0.0
C1469 C 0.52833 0.31875 0.88014 0.0
C1470 C 0.5084 0.32481 0.8764 0.0
H1471 H 0.4052 0.34139 0.875 0.0
H1472 H 0.43679 0.33171 0.88593 0.0
H1473 H 0.48435 0.3618 0.8569 0.0
H1474 H 0.57131 0.33828 0.89009 0.0
H1475 H 0.53795 0.34675 0.88856 0.0
C1476 C 0.62617 0.09076 0.33998 0.0
C1477 C 0.63913 0.09355 0.35486 0.0
C1478 C 0.62086 0.07235 0.33457 0.0
C1479 C 0.61958 0.02257 0.35094 0.0
H1480 H 0.6263 0.00937 0.29794 0.0
C1481 C 0.62846 0.94506 0.3269 0.0
C1482 C 0.62131 0.93928 0.30921 0.0
C1483 C 0.628 0.96413 0.33233 0.0
C1484 C 0.62398 0.01281 0.31274 0.0
H1485 H 0.65594 0.07932 0.37628 0.0
H1486 H 0.64639 0.04744 0.36715 0.0
H1487 H 0.6292 0.04238 0.30799 0.0
H1488 H 0.60776 0.94912 0.28346 0.0
H1489 H 0.60657 0.98241 0.29311 0.0
H1490 H 0.61441 0.99313 0.35582 0.0
C1491 C 0.64041 0.05937 0.35957 0.0
C1492 C 0.62566 0.03177 0.31849 0.0
C1493 C 0.64595 0.07766 0.36475 0.0
C1494 C 0.61346 0.95308 0.29716 0.0
C1495 C 0.61288 0.9722 0.30266 0.0
C1496 C 0.61771 0.00368 0.34519 0.0
C1497 C 0.62811 0.05645 0.34418 0.0
C1498 C 0.6239 0.0368 0.33772 0.0
C1499 C 0.62022 0.97801 0.32031 0.0
C1500 C 0.62033 0.99843 0.32608 0.0
H1501 H 0.62079 0.10272 0.33202 0.0
H1502 H 0.61128 0.07053 0.32271 0.0
H1503 H 0.61789 0.02604 0.36582 0.0
H1504 H 0.63473 0.93487 0.33651 0.0
H1505 H 0.63416 0.968 0.34584 0.0
C1506 C 0.08486 0.16954 0.86353 0.0
C1507 C 0.08733 0.15497 0.85008 0.0
C1508 C 0.06663 0.17442 0.86996 0.0
C1509 C 0.01787 0.15587 0.87407 0.0
H1510 H 1.00194 0.20848 0.87196 0.0
C1511 C 0.93922 0.17643 0.87218 0.0
C1512 C 0.93301 0.19282 0.88176 0.0
C1513 C 0.95852 0.17222 0.87068 0.0
C1514 C 0.00622 0.19376 0.87297 0.0
H1515 H 0.07267 0.13379 0.83325 0.0
H1516 H 0.04113 0.14212 0.8446 0.0
H1517 H 0.03507 0.20018 0.86565 0.0
H1518 H 0.94234 0.21764 0.89734 0.0
H1519 H 0.97619 0.21013 0.89491 0.0
H1520 H 0.98915 0.14933 0.88122 0.0
C1521 C 0.05319 0.1498 0.85018 0.0
C1522 C 0.02521 0.18902 0.86934 0.0
C1523 C 0.07129 0.14511 0.84359 0.0
C1524 C 0.94664 0.20492 0.88984 0.0
C1525 C 0.96605 0.20065 0.88837 0.0
C1526 C 0.99898 0.1606 0.87782 0.0
C1527 C 0.05061 0.1646 0.8633 0.0
C1528 C 0.03112 0.16997 0.8694 0.0
C1529 C 0.97221 0.1842 0.8788 0.0
C1530 C 0.99278 0.17955 0.87684 0.0
H1531 H 0.09693 0.17744 0.86876 0.0
H1532 H 0.06507 0.18584 0.88015 0.0
H1533 H 0.02208 0.1411 0.87456 0.0
H1534 H 0.92917 0.16684 0.86566 0.0
H1535 H 0.9627 0.15966 0.86284 0.0
C1536 C 0.85461 0.07513 0.15218 0.0
C1537 C 0.83906 0.07926 0.14044 0.0
C1538 C 0.85988 0.05625 0.1557 0.0
C1539 C 0.83973 0.00754 0.15419 0.0
H1540 H 0.892 0.99174 0.16079 0.0
C1541 C 0.85954 0.92888 0.16564 0.0
C1542 C 0.87224 0.92529 0.18056 0.0
C1543 C 0.85677 0.9474 0.159 0.0
C1544 C 0.87732 0.99595 0.15906 0.0
H1545 H 0.81747 0.06678 0.12243 0.0
H1546 H 0.82687 0.03419 0.12812 0.0
H1547 H 0.8849 0.02467 0.15272 0.0
H1548 H 0.89261 0.9383 0.1996 0.0
H1549 H 0.88781 0.97042 0.18801 0.0
H1550 H 0.83213 0.9789 0.16057 0.0
C1551 C 0.8347 0.04538 0.13514 0.0
C1552 C 0.87324 0.01486 0.15449 0.0
C1553 C 0.82936 0.06415 0.13177 0.0
C1554 C 0.88267 0.94053 0.18812 0.0
C1555 C 0.88 0.95898 0.1814 0.0
C1556 C 0.84381 0.98867 0.15863 0.0
C1557 C 0.84977 0.04111 0.14745 0.0
C1558 C 0.85436 0.02094 0.15205 0.0
C1559 C 0.86675 0.96272 0.16702 0.0
C1560 C 0.86264 0.98263 0.16122 0.0
H1561 H 0.86235 0.08644 0.1591 0.0
H1562 H 0.87148 0.05353 0.16537 0.0
H1563 H 0.825 0.01171 0.15284 0.0
H1564 H 0.85128 0.91749 0.15949 0.0
H1565 H 0.84663 0.94976 0.14773 0.0
C1566 C 0.05952 0.3711 0.69083 0.0
C1567 C 0.0764 0.36642 0.68122 0.0
C1568 C 0.04199 0.36488 0.68389 0.0
C1569 C 0.02145 0.32646 0.6561 0.0
H1570 H 0.97765 0.35931 0.65075 0.0
C1571 C 0.95163 0.29952 0.62292 0.0
C1572 C 0.93461 0.30621 0.63092 0.0
C1573 C 0.96899 0.30752 0.62822 0.0
C1574 C 0.98966 0.34986 0.65239 0.0
H1575 H 0.08802 0.35197 0.65652 0.0
H1576 H 0.05757 0.34104 0.64467 0.0
H1577 H 0.00758 0.37241 0.66213 0.0
H1578 H 0.92248 0.32634 0.6509 0.0
H1579 H 0.95259 0.33975 0.66054 0.0
H1580 H 1.0036 0.30378 0.64697 0.0
C1581 C 0.0579 0.34945 0.65755 0.0
C1582 C 0.0068 0.35742 0.65885 0.0
C1583 C 0.07533 0.35583 0.66432 0.0
C1584 C 0.93532 0.32098 0.64432 0.0
C1585 C 0.95263 0.32878 0.64977 0.0
C1586 C 0.00428 0.31884 0.64988 0.0
C1587 C 0.0411 0.35368 0.66739 0.0
C1588 C 0.02285 0.34579 0.66071 0.0
C1589 C 0.96971 0.32221 0.64179 0.0
C1590 C 0.98815 0.33043 0.64794 0.0
H1591 H 0.05987 0.37924 0.70387 0.0
H1592 H 0.0292 0.36828 0.69175 0.0
H1593 H 0.03359 0.31713 0.65764 0.0
H1594 H 0.95152 0.28823 0.61249 0.0
H1595 H 0.98183 0.30228 0.62155 0.0
C1596 C 0.70209 0.45107 0.11113 0.0
C1597 C 0.72126 0.44605 0.11351 0.0
C1598 C 0.69624 0.46996 0.11264 0.0
C1599 C 0.70814 0.51343 0.13734 0.0
H1600 H 0.67024 0.53627 0.10464 0.0
C1601 C 0.65932 0.5738 0.16232 0.0
C1602 C 0.65778 0.58997 0.15077 0.0
C1603 C 0.66836 0.55742 0.15573 0.0
C1604 C 0.68096 0.53015 0.11378 0.0
H1605 H 0.74944 0.45701 0.11885 0.0
H1606 H 0.73909 0.49018 0.12198 0.0
H1607 H 0.68447 0.50566 0.09595 0.0
H1608 H 0.66409 0.60128 0.12291 0.0
H1609 H 0.67945 0.5722 0.11113 0.0
H1610 H 0.70409 0.53749 0.15555 0.0
C1611 C 0.72865 0.4794 0.11877 0.0
C1612 C 0.68903 0.51262 0.10887 0.0
C1613 C 0.73459 0.46046 0.11689 0.0
C1614 C 0.665 0.58908 0.13216 0.0
C1615 C 0.6738 0.57247 0.12542 0.0
C1616 C 0.69986 0.53078 0.14239 0.0
C1617 C 0.70936 0.4843 0.11688 0.0
C1618 C 0.70251 0.50393 0.12075 0.0
C1619 C 0.67588 0.5566 0.1373 0.0
C1620 C 0.68595 0.53917 0.13084 0.0
H1621 H 0.69148 0.44032 0.10843 0.0
H1622 H 0.68127 0.47321 0.11129 0.0
H1623 H 0.71835 0.50705 0.14687 0.0
H1624 H 0.65402 0.57391 0.17675 0.0
H1625 H 0.66949 0.54533 0.16511 0.0
C1626 C 0.45585 0.11869 0.71787 0.0
C1627 C 0.44111 0.12469 0.70585 0.0
C1628 C 0.47486 0.12128 0.7126 0.0
C1629 C 0.50399 0.15269 0.68382 0.0
H1630 H 0.54249 0.11332 0.68453 0.0
C1631 C 0.57522 0.16456 0.6475 0.0
C1632 C 0.59178 0.15828 0.65658 0.0
C1633 C 0.55742 0.15891 0.65394 0.0
C1634 C 0.53196 0.12453 0.6845 0.0
H1635 H 0.43484 0.13765 0.67865 0.0
H1636 H 0.4678 0.14229 0.66969 0.0
H1637 H 0.51025 0.10629 0.69564 0.0
H1638 H 0.60271 0.1406 0.67917 0.0
H1639 H 0.5714 0.13101 0.6908 0.0
H1640 H 0.5254 0.17106 0.67303 0.0
C1641 C 0.46468 0.13566 0.68318 0.0
C1642 C 0.51354 0.12048 0.69082 0.0
C1643 C 0.44579 0.13291 0.68832 0.0
C1644 C 0.59017 0.14564 0.67187 0.0
C1645 C 0.57224 0.14012 0.6785 0.0
C1646 C 0.52233 0.15678 0.67771 0.0
C1647 C 0.47941 0.13014 0.69536 0.0
C1648 C 0.49931 0.13445 0.69017 0.0
C1649 C 0.55564 0.14705 0.66983 0.0
C1650 C 0.53647 0.14267 0.67756 0.0
H1651 H 0.4527 0.11226 0.73144 0.0
H1652 H 0.48598 0.11693 0.72225 0.0
H1653 H 0.49339 0.16384 0.68353 0.0
H1654 H 0.57599 0.17409 0.63549 0.0
H1655 H 0.54499 0.16407 0.64654 0.0
C1656 C 0.36184 0.85559 0.43374 0.0
C1657 C 0.35366 0.86106 0.41643 0.0
C1658 C 0.35475 0.86255 0.45093 0.0
C1659 C 0.311 0.87951 0.47296 0.0
H1660 H 0.34434 0.89378 0.51422 0.0
C1661 C 0.28272 0.89756 0.54882 0.0
C1662 C 0.29354 0.89036 0.56394 0.0
C1663 C 0.2897 0.89678 0.53014 0.0
C1664 C 0.33479 0.8897 0.50292 0.0
H1665 H 0.33182 0.87846 0.4036 0.0
H1666 H 0.31921 0.89047 0.4338 0.0
H1667 H 0.35757 0.88772 0.48284 0.0
H1668 H 0.32013 0.87653 0.57111 0.0
H1669 H 0.33194 0.87485 0.53893 0.0
H1670 H 0.28829 0.88074 0.49322 0.0
C1671 C 0.3312 0.88084 0.43397 0.0
C1672 C 0.3424 0.88631 0.4849 0.0
C1673 C 0.33853 0.87409 0.41669 0.0
C1674 C 0.31141 0.88237 0.55991 0.0
C1675 C 0.3183 0.88153 0.54137 0.0
C1676 C 0.30337 0.88274 0.49108 0.0
C1677 C 0.33911 0.87495 0.45129 0.0
C1678 C 0.33067 0.88079 0.46979 0.0
C1679 C 0.30764 0.88878 0.52619 0.0
C1680 C 0.31525 0.88744 0.50642 0.0
H1681 H 0.37349 0.84555 0.43404 0.0
H1682 H 0.36106 0.8576 0.46401 0.0
H1683 H 0.30159 0.87515 0.46164 0.0
H1684 H 0.26891 0.90383 0.55141 0.0
H1685 H 0.28112 0.9026 0.51884 0.0
C1686 C 0.14372 0.83846 0.07372 0.0
C1687 C 0.13201 0.82285 0.07766 0.0
C1688 C 0.14553 0.84526 0.05513 0.0
C1689 C 0.12342 0.84383 0.0072 0.0
H1690 H 0.17462 0.85375 0.98981 0.0
C1691 C 0.14348 0.8512 0.92734 0.0
C1692 C 0.15804 0.86395 0.92266 0.0
C1693 C 0.13886 0.84772 0.9464 0.0
C1694 C 0.16017 0.85135 0.99444 0.0
H1695 H 0.11245 0.80264 0.06519 0.0
H1696 H 0.11563 0.81443 0.03297 0.0
H1697 H 0.16912 0.84564 0.02284 0.0
H1698 H 0.17839 0.88385 0.93432 0.0
H1699 H 0.17007 0.8782 0.96722 0.0
H1700 H 0.11451 0.84943 0.9787 0.0
C1701 C 0.12337 0.82151 0.04419 0.0
C1702 C 0.15702 0.8467 0.01345 0.0
C1703 C 0.12164 0.81466 0.0627 0.0
C1704 C 0.16727 0.87373 0.93739 0.0
C1705 C 0.16258 0.87039 0.95633 0.0
C1706 C 0.12656 0.84857 0.98816 0.0
C1707 C 0.13558 0.83668 0.04009 0.0
C1708 C 0.13864 0.84277 0.02007 0.0
C1709 C 0.14863 0.85702 0.96116 0.0
C1710 C 0.145 0.85233 0.9815 0.0
H1711 H 0.15189 0.84511 0.08489 0.0
H1712 H 0.15489 0.85712 0.05251 0.0
H1713 H 0.10905 0.84107 0.01187 0.0
H1714 H 0.13614 0.8434 0.91633 0.0
H1715 H 0.12811 0.83725 0.94956 0.0
C1716 C 0.20099 0.62257 0.55812 0.0
C1717 C 0.21941 0.61554 0.56128 0.0
C1718 C 0.19353 0.62351 0.53984 0.0
C1719 C 0.2072 0.62473 0.48921 0.0
H1720 H 0.15327 0.61647 0.48213 0.0
C1721 C 0.17051 0.63407 0.41617 0.0
C1722 C 0.15467 0.64623 0.41679 0.0
C1723 C 0.17831 0.62687 0.43297 0.0
C1724 C 0.16836 0.6188 0.48387 0.0
H1725 H 0.2444 0.60391 0.54753 0.0
H1726 H 0.23123 0.60534 0.51544 0.0
H1727 H 0.16758 0.61036 0.51295 0.0
H1728 H 0.134 0.65951 0.4354 0.0
H1729 H 0.14731 0.64668 0.46453 0.0
H1730 H 0.20783 0.63333 0.46006 0.0
C1731 C 0.22265 0.61032 0.5272 0.0
C1732 C 0.17658 0.61539 0.50156 0.0
C1733 C 0.23019 0.60943 0.5456 0.0
C1734 C 0.1462 0.65018 0.43443 0.0
C1735 C 0.1538 0.64277 0.45113 0.0
C1736 C 0.19898 0.62799 0.47143 0.0
C1737 C 0.20418 0.61734 0.5241 0.0
C1738 C 0.19601 0.6188 0.50463 0.0
C1739 C 0.17021 0.63142 0.45066 0.0
C1740 C 0.17938 0.62551 0.4687 0.0
H1741 H 0.19228 0.62753 0.5698 0.0
H1742 H 0.17945 0.62942 0.53805 0.0
H1743 H 0.22216 0.62766 0.49105 0.0
H1744 H 0.17745 0.63087 0.40282 0.0
H1745 H 0.19088 0.61804 0.43215 0.0
C1746 C 0.39198 0.71043 0.05422 0.0
C1747 C 0.3854 0.69807 0.06842 0.0
C1748 C 0.39121 0.70515 0.03503 0.0
C1749 C 0.36416 0.67428 1.00314 0.0
H1750 H 0.4054 0.68109 0.96733 0.0
C1751 C 0.35864 0.64281 0.92874 0.0
C1752 C 0.36484 0.65375 0.91333 0.0
C1753 C 0.36327 0.64792 0.94729 0.0
C1754 C 0.39367 0.67929 0.97709 0.0
H1755 H 0.37332 0.67025 0.07349 0.0
H1756 H 0.37188 0.66121 0.04022 0.0
H1757 H 0.40936 0.69107 1.00042 0.0
H1758 H 0.38145 0.67821 0.9052 0.0
H1759 H 0.38922 0.68752 0.93781 0.0
H1760 H 0.34825 0.66296 0.98007 0.0
C1761 C 0.37753 0.67501 0.04388 0.0
C1762 C 0.39597 0.68498 0.99605 0.0
C1763 C 0.37844 0.68019 0.06299 0.0
C1764 C 0.37657 0.66945 0.91682 0.0
C1765 C 0.381 0.67477 0.93551 0.0
C1766 C 0.36181 0.66878 0.98427 0.0
C1767 C 0.38365 0.68751 0.02965 0.0
C1768 C 0.3813 0.68228 0.00932 0.0
C1769 C 0.37393 0.66434 0.95101 0.0
C1770 C 0.37661 0.67091 0.971 0.0
H1771 H 0.39747 0.72429 0.05791 0.0
H1772 H 0.39597 0.71511 0.02438 0.0
H1773 H 0.35243 0.67241 0.0129 0.0
H1774 H 0.34978 0.63047 0.9265 0.0
H1775 H 0.35808 0.63915 0.95876 0.0
loop_
_geom_bond_atom_site_label_1
_geom_bond_atom_site_label_2
_geom_bond_distance
_geom_bond_site_symmetry_2
_ccdc_geom_bond_type
C0 O2 1.247 . S
C0 O4 1.258 . S
C1 O8 1.247 . S
C1 O9 1.258 . S
O2 C0 1.247 . S
O2 Zn3 2.028 . S
Zn3 O2 2.028 . S
Zn3 O7 2.035 . S
Zn3 O9 2.035 . S
Zn3 O10 2.028 . S
O4 C0 1.258 . S
O4 Zn5 2.035 . S
Zn5 O4 2.035 . S
Zn5 O6 2.028 . S
Zn5 O8 2.028 . S
Zn5 O11 2.035 . S
O6 Zn5 2.028 . S
O6 C12 1.247 . S
O7 Zn3 2.035 . S
O7 C12 1.258 . S
O8 C1 1.247 . S
O8 Zn5 2.028 . S
O9 C1 1.258 . S
O9 Zn3 2.035 . S
O10 Zn3 2.028 . S
O10 C13 1.247 . S
O11 Zn5 2.035 . S
O11 C13 1.258 . S
C12 O6 1.247 . S
C12 O7 1.258 . S
C13 O10 1.247 . S
C13 O11 1.258 . S
C14 O16 1.247 . S
C14 O18 1.258 . S
C15 O22 1.247 . S
C15 O23 1.258 . S
O16 C14 1.247 . S
O16 Zn17 2.028 . S
Zn17 O16 2.028 . S
Zn17 O21 2.035 . S
Zn17 O23 2.035 . S
Zn17 O24 2.028 . S
O18 C14 1.258 . S
O18 Zn19 2.035 . S
Zn19 O18 2.035 . S
Zn19 O20 2.028 . S
Zn19 O22 2.028 . S
Zn19 O25 2.035 . S
O20 Zn19 2.028 . S
O20 C26 1.247 . S
O21 Zn17 2.035 . S
O21 C26 1.258 . S
O22 C15 1.247 . S
O22 Zn19 2.028 . S
O23 C15 1.258 . S
O23 Zn17 2.035 . S
O24 Zn17 2.028 . S
O24 C27 1.247 . S
O25 Zn19 2.035 . S
O25 C27 1.258 . S
C26 O20 1.247 . S
C26 O21 1.258 . S
C27 O24 1.247 . S
C27 O25 1.258 . S
C28 O30 1.247 . S
C28 O32 1.258 . S
C29 O36 1.247 . S
C29 O37 1.258 . S
O30 C28 1.247 . S
O30 Zn31 2.028 . S
Zn31 O30 2.028 . S
Zn31 O35 2.035 . S
Zn31 O37 2.035 . S
Zn31 O38 2.028 . S
O32 C28 1.258 . S
O32 Zn33 2.035 . S
Zn33 O32 2.035 . S
Zn33 O34 2.028 . S
Zn33 O36 2.028 . S
Zn33 O39 2.035 . S
O34 Zn33 2.028 . S
O34 C40 1.247 . S
O35 Zn31 2.035 . S
O35 C40 1.258 . S
O36 C29 1.247 . S
O36 Zn33 2.028 . S
O37 C29 1.258 . S
O37 Zn31 2.035 . S
O38 Zn31 2.028 . S
O38 C41 1.247 . S
O39 Zn33 2.035 . S
O39 C41 1.258 . S
C40 O34 1.247 . S
C40 O35 1.258 . S
C41 O38 1.247 . S
C41 O39 1.258 . S
C42 O44 1.247 . S
C42 O46 1.258 . S
C43 O50 1.247 . S
C43 O51 1.258 . S
O44 C42 1.247 . S
O44 Zn45 2.028 . S
Zn45 O44 2.028 . S
Zn45 O49 2.035 . S
Zn45 O51 2.035 . S
Zn45 O52 2.028 . S
O46 C42 1.258 . S
O46 Zn47 2.035 . S
Zn47 O46 2.035 . S
Zn47 O48 2.028 . S
Zn47 O50 2.028 . S
Zn47 O53 2.035 . S
O48 Zn47 2.028 . S
O48 C54 1.247 . S
O49 Zn45 2.035 . S
O49 C54 1.258 . S
O50 C43 1.247 . S
O50 Zn47 2.028 . S
O51 C43 1.258 . S
O51 Zn45 2.035 . S
O52 Zn45 2.028 . S
O52 C55 1.247 . S
O53 Zn47 2.035 . S
O53 C55 1.258 . S
C54 O48 1.247 . S
C54 O49 1.258 . S
C55 O52 1.247 . S
C55 O53 1.258 . S
C56 O58 1.247 . S
C56 O60 1.258 . S
C57 O64 1.247 . S
C57 O65 1.258 . S
O58 C56 1.247 . S
O58 Zn59 2.028 . S
Zn59 O58 2.028 . S
Zn59 O63 2.035 . S
Zn59 O65 2.035 . S
Zn59 O66 2.028 . S
O60 C56 1.258 . S
O60 Zn61 2.035 . S
Zn61 O60 2.035 . S
Zn61 O62 2.028 . S
Zn61 O64 2.028 . S
Zn61 O67 2.035 . S
O62 Zn61 2.028 . S
O62 C68 1.247 . S
O63 Zn59 2.035 . S
O63 C68 1.258 . S
O64 C57 1.247 . S
O64 Zn61 2.028 . S
O65 C57 1.258 . S
O65 Zn59 2.035 . S
O66 Zn59 2.028 . S
O66 C69 1.247 . S
O67 Zn61 2.035 . S
O67 C69 1.258 . S
C68 O62 1.247 . S
C68 O63 1.258 . S
C69 O66 1.247 . S
C69 O67 1.258 . S
C70 O72 1.247 . S
C70 O74 1.258 . S
C71 O78 1.247 . S
C71 O79 1.258 . S
O72 C70 1.247 . S
O72 Zn73 2.028 . S
Zn73 O72 2.028 . S
Zn73 O77 2.035 . S
Zn73 O79 2.035 . S
Zn73 O80 2.028 . S
O74 C70 1.258 . S
O74 Zn75 2.035 . S
Zn75 O74 2.035 . S
Zn75 O76 2.028 . S
Zn75 O78 2.028 . S
Zn75 O81 2.035 . S
O76 Zn75 2.028 . S
O76 C82 1.247 . S
O77 Zn73 2.035 . S
O77 C82 1.258 . S
O78 C71 1.247 . S
O78 Zn75 2.028 . S
O79 C71 1.258 . S
O79 Zn73 2.035 . S
O80 Zn73 2.028 . S
O80 C83 1.247 . S
O81 Zn75 2.035 . S
O81 C83 1.258 . S
C82 O76 1.247 . S
C82 O77 1.258 . S
C83 O80 1.247 . S
C83 O81 1.258 . S
C84 O86 1.247 . S
C84 O88 1.258 . S
C85 O92 1.247 . S
C85 O93 1.258 . S
O86 C84 1.247 . S
O86 Zn87 2.028 . S
Zn87 O86 2.028 . S
Zn87 O91 2.035 . S
Zn87 O93 2.035 . S
Zn87 O94 2.028 . S
O88 C84 1.258 . S
O88 Zn89 2.035 . S
Zn89 O88 2.035 . S
Zn89 O90 2.028 . S
Zn89 O92 2.028 . S
Zn89 O95 2.035 . S
O90 Zn89 2.028 . S
O90 C96 1.247 . S
O91 Zn87 2.035 . S
O91 C96 1.258 . S
O92 C85 1.247 . S
O92 Zn89 2.028 . S
O93 C85 1.258 . S
O93 Zn87 2.035 . S
O94 Zn87 2.028 . S
O94 C97 1.247 . S
O95 Zn89 2.035 . S
O95 C97 1.258 . S
C96 O90 1.247 . S
C96 O91 1.258 . S
C97 O94 1.247 . S
C97 O95 1.258 . S
C98 O100 1.247 . S
C98 O102 1.258 . S
C99 O106 1.247 . S
C99 O107 1.258 . S
O100 C98 1.247 . S
O100 Zn101 2.028 . S
Zn101 O100 2.028 . S
Zn101 O105 2.035 . S
Zn101 O107 2.035 . S
Zn101 O108 2.028 . S
O102 C98 1.258 . S
O102 Zn103 2.035 . S
Zn103 O102 2.035 . S
Zn103 O104 2.028 . S
Zn103 O106 2.028 . S
Zn103 O109 2.035 . S
O104 Zn103 2.028 . S
O104 C110 1.247 . S
O105 Zn101 2.035 . S
O105 C110 1.258 . S
O106 C99 1.247 . S
O106 Zn103 2.028 . S
O107 C99 1.258 . S
O107 Zn101 2.035 . S
O108 Zn101 2.028 . S
O108 C111 1.247 . S
O109 Zn103 2.035 . S
O109 C111 1.258 . S
C110 O104 1.247 . S
C110 O105 1.258 . S
C111 O108 1.247 . S
C111 O109 1.258 . S
C112 O114 1.247 . S
C112 O116 1.258 . S
C113 O120 1.247 . S
C113 O121 1.258 . S
O114 C112 1.247 . S
O114 Zn115 2.028 . S
Zn115 O114 2.028 . S
Zn115 O119 2.035 . S
Zn115 O121 2.035 . S
Zn115 O122 2.028 . S
O116 C112 1.258 . S
O116 Zn117 2.035 . S
Zn117 O116 2.035 . S
Zn117 O118 2.028 . S
Zn117 O120 2.028 . S
Zn117 O123 2.035 . S
O118 Zn117 2.028 . S
O118 C124 1.247 . S
O119 Zn115 2.035 . S
O119 C124 1.258 . S
O120 C113 1.247 . S
O120 Zn117 2.028 . S
O121 C113 1.258 . S
O121 Zn115 2.035 . S
O122 Zn115 2.028 . S
O122 C125 1.247 . S
O123 Zn117 2.035 . S
O123 C125 1.258 . S
C124 O118 1.247 . S
C124 O119 1.258 . S
C125 O122 1.247 . S
C125 O123 1.258 . S
C126 O128 1.247 . S
C126 O130 1.258 . S
C127 O134 1.247 . S
C127 O135 1.258 . S
O128 C126 1.247 . S
O128 Zn129 2.028 . S
Zn129 O128 2.028 . S
Zn129 O133 2.035 . S
Zn129 O135 2.035 . S
Zn129 O136 2.028 . S
O130 C126 1.258 . S
O130 Zn131 2.035 . S
Zn131 O130 2.035 . S
Zn131 O132 2.028 . S
Zn131 O134 2.028 . S
Zn131 O137 2.035 . S
O132 Zn131 2.028 . S
O132 C138 1.247 . S
O133 Zn129 2.035 . S
O133 C138 1.258 . S
O134 C127 1.247 . S
O134 Zn131 2.028 . S
O135 C127 1.258 . S
O135 Zn129 2.035 . S
O136 Zn129 2.028 . S
O136 C139 1.247 . S
O137 Zn131 2.035 . S
O137 C139 1.258 . S
C138 O132 1.247 . S
C138 O133 1.258 . S
C139 O136 1.247 . S
C139 O137 1.258 . S
C140 O142 1.247 . S
C140 O144 1.258 . S
C141 O148 1.247 . S
C141 O149 1.258 . S
O142 C140 1.247 . S
O142 Zn143 2.028 . S
Zn143 O142 2.028 . S
Zn143 O147 2.035 . S
Zn143 O149 2.035 . S
Zn143 O150 2.028 . S
O144 C140 1.258 . S
O144 Zn145 2.035 . S
Zn145 O144 2.035 . S
Zn145 O146 2.028 . S
Zn145 O148 2.028 . S
Zn145 O151 2.035 . S
O146 Zn145 2.028 . S
O146 C152 1.247 . S
O147 Zn143 2.035 . S
O147 C152 1.258 . S
O148 C141 1.247 . S
O148 Zn145 2.028 . S
O149 C141 1.258 . S
O149 Zn143 2.035 . S
O150 Zn143 2.028 . S
O150 C153 1.247 . S
O151 Zn145 2.035 . S
O151 C153 1.258 . S
C152 O146 1.247 . S
C152 O147 1.258 . S
C153 O150 1.247 . S
C153 O151 1.258 . S
C154 O156 1.247 . S
C154 O158 1.258 . S
C155 O162 1.247 . S
C155 O163 1.258 . S
O156 C154 1.247 . S
O156 Zn157 2.028 . S
Zn157 O156 2.028 . S
Zn157 O161 2.035 . S
Zn157 O163 2.035 . S
Zn157 O164 2.028 . S
O158 C154 1.258 . S
O158 Zn159 2.035 . S
Zn159 O158 2.035 . S
Zn159 O160 2.028 . S
Zn159 O162 2.028 . S
Zn159 O165 2.035 . S
O160 Zn159 2.028 . S
O160 C166 1.247 . S
O161 Zn157 2.035 . S
O161 C166 1.258 . S
O162 C155 1.247 . S
O162 Zn159 2.028 . S
O163 C155 1.258 . S
O163 Zn157 2.035 . S
O164 Zn157 2.028 . S
O164 C167 1.247 . S
O165 Zn159 2.035 . S
O165 C167 1.258 . S
C166 O160 1.247 . S
C166 O161 1.258 . S
C167 O164 1.247 . S
C167 O165 1.258 . S
C168 O170 1.247 . S
C168 O172 1.258 . S
C169 O176 1.247 . S
C169 O177 1.258 . S
O170 C168 1.247 . S
O170 Zn171 2.028 . S
Zn171 O170 2.028 . S
Zn171 O175 2.035 . S
Zn171 O177 2.035 . S
Zn171 O178 2.028 . S
O172 C168 1.258 . S
O172 Zn173 2.035 . S
Zn173 O172 2.035 . S
Zn173 O174 2.028 . S
Zn173 O176 2.028 . S
Zn173 O179 2.035 . S
O174 Zn173 2.028 . S
O174 C180 1.247 . S
O175 Zn171 2.035 . S
O175 C180 1.258 . S
O176 C169 1.247 . S
O176 Zn173 2.028 . S
O177 C169 1.258 . S
O177 Zn171 2.035 . S
O178 Zn171 2.028 . S
O178 C181 1.247 . S
O179 Zn173 2.035 . S
O179 C181 1.258 . S
C180 O174 1.247 . S
C180 O175 1.258 . S
C181 O178 1.247 . S
C181 O179 1.258 . S
C182 O184 1.247 . S
C182 O186 1.258 . S
C183 O190 1.247 . S
C183 O191 1.258 . S
O184 C182 1.247 . S
O184 Zn185 2.028 . S
Zn185 O184 2.028 . S
Zn185 O189 2.035 . S
Zn185 O191 2.035 . S
Zn185 O192 2.028 . S
O186 C182 1.258 . S
O186 Zn187 2.035 . S
Zn187 O186 2.035 . S
Zn187 O188 2.028 . S
Zn187 O190 2.028 . S
Zn187 O193 2.035 . S
O188 Zn187 2.028 . S
O188 C194 1.247 . S
O189 Zn185 2.035 . S
O189 C194 1.258 . S
O190 C183 1.247 . S
O190 Zn187 2.028 . S
O191 C183 1.258 . S
O191 Zn185 2.035 . S
O192 Zn185 2.028 . S
O192 C195 1.247 . S
O193 Zn187 2.035 . S
O193 C195 1.258 . S
C194 O188 1.247 . S
C194 O189 1.258 . S
C195 O192 1.247 . S
C195 O193 1.258 . S
C196 O198 1.247 . S
C196 O200 1.258 . S
C197 O204 1.247 . S
C197 O205 1.258 . S
O198 C196 1.247 . S
O198 Zn199 2.028 . S
Zn199 O198 2.028 . S
Zn199 O203 2.035 . S
Zn199 O205 2.035 . S
Zn199 O206 2.028 . S
O200 C196 1.258 . S
O200 Zn201 2.035 . S
Zn201 O200 2.035 . S
Zn201 O202 2.028 . S
Zn201 O204 2.028 . S
Zn201 O207 2.035 . S
O202 Zn201 2.028 . S
O202 C208 1.247 . S
O203 Zn199 2.035 . S
O203 C208 1.258 . S
O204 C197 1.247 . S
O204 Zn201 2.028 . S
O205 C197 1.258 . S
O205 Zn199 2.035 . S
O206 Zn199 2.028 . S
O206 C209 1.247 . S
O207 Zn201 2.035 . S
O207 C209 1.258 . S
C208 O202 1.247 . S
C208 O203 1.258 . S
C209 O206 1.247 . S
C209 O207 1.258 . S
C210 O212 1.247 . S
C210 O214 1.258 . S
C211 O218 1.247 . S
C211 O219 1.258 . S
O212 C210 1.247 . S
O212 Zn213 2.028 . S
Zn213 O212 2.028 . S
Zn213 O217 2.035 . S
Zn213 O219 2.035 . S
Zn213 O220 2.028 . S
O214 C210 1.258 . S
O214 Zn215 2.035 . S
Zn215 O214 2.035 . S
Zn215 O216 2.028 . S
Zn215 O218 2.028 . S
Zn215 O221 2.035 . S
O216 Zn215 2.028 . S
O216 C222 1.247 . S
O217 Zn213 2.035 . S
O217 C222 1.258 . S
O218 C211 1.247 . S
O218 Zn215 2.028 . S
O219 C211 1.258 . S
O219 Zn213 2.035 . S
O220 Zn213 2.028 . S
O220 C223 1.247 . S
O221 Zn215 2.035 . S
O221 C223 1.258 . S
C222 O216 1.247 . S
C222 O217 1.258 . S
C223 O220 1.247 . S
C223 O221 1.258 . S
C224 O226 1.247 . S
C224 O228 1.258 . S
C225 O232 1.247 . S
C225 O233 1.258 . S
O226 C224 1.247 . S
O226 Zn227 2.028 . S
Zn227 O226 2.028 . S
Zn227 O231 2.035 . S
Zn227 O233 2.035 . S
Zn227 O234 2.028 . S
O228 C224 1.258 . S
O228 Zn229 2.035 . S
Zn229 O228 2.035 . S
Zn229 O230 2.028 . S
Zn229 O232 2.028 . S
Zn229 O235 2.035 . S
O230 Zn229 2.028 . S
O230 C236 1.247 . S
O231 Zn227 2.035 . S
O231 C236 1.258 . S
O232 C225 1.247 . S
O232 Zn229 2.028 . S
O233 C225 1.258 . S
O233 Zn227 2.035 . S
O234 Zn227 2.028 . S
O234 C237 1.247 . S
O235 Zn229 2.035 . S
O235 C237 1.258 . S
C236 O230 1.247 . S
C236 O231 1.258 . S
C237 O234 1.247 . S
C237 O235 1.258 . S
C238 O240 1.247 . S
C238 O242 1.258 . S
C239 O246 1.247 . S
C239 O247 1.258 . S
O240 C238 1.247 . S
O240 Zn241 2.028 . S
Zn241 O240 2.028 . S
Zn241 O245 2.035 . S
Zn241 O247 2.035 . S
Zn241 O248 2.028 . S
O242 C238 1.258 . S
O242 Zn243 2.035 . S
Zn243 O242 2.035 . S
Zn243 O244 2.028 . S
Zn243 O246 2.028 . S
Zn243 O249 2.035 . S
O244 Zn243 2.028 . S
O244 C250 1.247 . S
O245 Zn241 2.035 . S
O245 C250 1.258 . S
O246 C239 1.247 . S
O246 Zn243 2.028 . S
O247 C239 1.258 . S
O247 Zn241 2.035 . S
O248 Zn241 2.028 . S
O248 C251 1.247 . S
O249 Zn243 2.035 . S
O249 C251 1.258 . S
C250 O244 1.247 . S
C250 O245 1.258 . S
C251 O248 1.247 . S
C251 O249 1.258 . S
C252 O254 1.247 . S
C252 O256 1.258 . S
C253 O260 1.247 . S
C253 O261 1.258 . S
O254 C252 1.247 . S
O254 Zn255 2.028 . S
Zn255 O254 2.028 . S
Zn255 O259 2.035 . S
Zn255 O261 2.035 . S
Zn255 O262 2.028 . S
O256 C252 1.258 . S
O256 Zn257 2.035 . S
Zn257 O256 2.035 . S
Zn257 O258 2.028 . S
Zn257 O260 2.028 . S
Zn257 O263 2.035 . S
O258 Zn257 2.028 . S
O258 C264 1.247 . S
O259 Zn255 2.035 . S
O259 C264 1.258 . S
O260 C253 1.247 . S
O260 Zn257 2.028 . S
O261 C253 1.258 . S
O261 Zn255 2.035 . S
O262 Zn255 2.028 . S
O262 C265 1.247 . S
O263 Zn257 2.035 . S
O263 C265 1.258 . S
C264 O258 1.247 . S
C264 O259 1.258 . S
C265 O262 1.247 . S
C265 O263 1.258 . S
C266 O268 1.247 . S
C266 O270 1.258 . S
C267 O274 1.247 . S
C267 O275 1.258 . S
O268 C266 1.247 . S
O268 Zn269 2.028 . S
Zn269 O268 2.028 . S
Zn269 O273 2.035 . S
Zn269 O275 2.035 . S
Zn269 O276 2.028 . S
O270 C266 1.258 . S
O270 Zn271 2.035 . S
Zn271 O270 2.035 . S
Zn271 O272 2.028 . S
Zn271 O274 2.028 . S
Zn271 O277 2.035 . S
O272 Zn271 2.028 . S
O272 C278 1.247 . S
O273 Zn269 2.035 . S
O273 C278 1.258 . S
O274 C267 1.247 . S
O274 Zn271 2.028 . S
O275 C267 1.258 . S
O275 Zn269 2.035 . S
O276 Zn269 2.028 . S
O276 C279 1.247 . S
O277 Zn271 2.035 . S
O277 C279 1.258 . S
C278 O272 1.247 . S
C278 O273 1.258 . S
C279 O276 1.247 . S
C279 O277 1.258 . S
C280 O282 1.247 . S
C280 O284 1.258 . S
C281 O288 1.247 . S
C281 O289 1.258 . S
O282 C280 1.247 . S
O282 Zn283 2.028 . S
Zn283 O282 2.028 . S
Zn283 O287 2.035 . S
Zn283 O289 2.035 . S
Zn283 O290 2.028 . S
O284 C280 1.258 . S
O284 Zn285 2.035 . S
Zn285 O284 2.035 . S
Zn285 O286 2.028 . S
Zn285 O288 2.028 . S
Zn285 O291 2.035 . S
O286 Zn285 2.028 . S
O286 C292 1.247 . S
O287 Zn283 2.035 . S
O287 C292 1.258 . S
O288 C281 1.247 . S
O288 Zn285 2.028 . S
O289 C281 1.258 . S
O289 Zn283 2.035 . S
O290 Zn283 2.028 . S
O290 C293 1.247 . S
O291 Zn285 2.035 . S
O291 C293 1.258 . S
C292 O286 1.247 . S
C292 O287 1.258 . S
C293 O290 1.247 . S
C293 O291 1.258 . S
C294 O296 1.247 . S
C294 O298 1.258 . S
C295 O302 1.247 . S
C295 O303 1.258 . S
O296 C294 1.247 . S
O296 Zn297 2.028 . S
Zn297 O296 2.028 . S
Zn297 O301 2.035 . S
Zn297 O303 2.035 . S
Zn297 O304 2.028 . S
O298 C294 1.258 . S
O298 Zn299 2.035 . S
Zn299 O298 2.035 . S
Zn299 O300 2.028 . S
Zn299 O302 2.028 . S
Zn299 O305 2.035 . S
O300 Zn299 2.028 . S
O300 C306 1.247 . S
O301 Zn297 2.035 . S
O301 C306 1.258 . S
O302 C295 1.247 . S
O302 Zn299 2.028 . S
O303 C295 1.258 . S
O303 Zn297 2.035 . S
O304 Zn297 2.028 . S
O304 C307 1.247 . S
O305 Zn299 2.035 . S
O305 C307 1.258 . S
C306 O300 1.247 . S
C306 O301 1.258 . S
C307 O304 1.247 . S
C307 O305 1.258 . S
C308 O310 1.247 . S
C308 O312 1.258 . S
C309 O316 1.247 . S
C309 O317 1.258 . S
O310 C308 1.247 . S
O310 Zn311 2.028 . S
Zn311 O310 2.028 . S
Zn311 O315 2.035 . S
Zn311 O317 2.035 . S
Zn311 O318 2.028 . S
O312 C308 1.258 . S
O312 Zn313 2.035 . S
Zn313 O312 2.035 . S
Zn313 O314 2.028 . S
Zn313 O316 2.028 . S
Zn313 O319 2.035 . S
O314 Zn313 2.028 . S
O314 C320 1.247 . S
O315 Zn311 2.035 . S
O315 C320 1.258 . S
O316 C309 1.247 . S
O316 Zn313 2.028 . S
O317 C309 1.258 . S
O317 Zn311 2.035 . S
O318 Zn311 2.028 . S
O318 C321 1.247 . S
O319 Zn313 2.035 . S
O319 C321 1.258 . S
C320 O314 1.247 . S
C320 O315 1.258 . S
C321 O318 1.247 . S
C321 O319 1.258 . S
C322 O324 1.247 . S
C322 O326 1.258 . S
C323 O330 1.247 . S
C323 O331 1.258 . S
O324 C322 1.247 . S
O324 Zn325 2.028 . S
Zn325 O324 2.028 . S
Zn325 O329 2.035 . S
Zn325 O331 2.035 . S
Zn325 O332 2.028 . S
O326 C322 1.258 . S
O326 Zn327 2.035 . S
Zn327 O326 2.035 . S
Zn327 O328 2.028 . S
Zn327 O330 2.028 . S
Zn327 O333 2.035 . S
O328 Zn327 2.028 . S
O328 C334 1.247 . S
O329 Zn325 2.035 . S
O329 C334 1.258 . S
O330 C323 1.247 . S
O330 Zn327 2.028 . S
O331 C323 1.258 . S
O331 Zn325 2.035 . S
O332 Zn325 2.028 . S
O332 C335 1.247 . S
O333 Zn327 2.035 . S
O333 C335 1.258 . S
C334 O328 1.247 . S
C334 O329 1.258 . S
C335 O332 1.247 . S
C335 O333 1.258 . S
C336 C337 1.349 . S
C336 C338 1.327 . S
C336 H361 0.950 . S
C337 C336 1.349 . S
C337 C353 1.349 . S
C338 C336 1.327 . S
C338 C357 1.429 . S
C338 H362 0.950 . S
C339 C356 1.574 . S
C339 C358 1.368 . S
C339 H363 0.949 . S
H340 C344 0.949 . S
C341 C342 1.349 . S
C341 C343 1.327 . S
C341 H364 0.950 . S
C342 C341 1.349 . S
C342 C354 1.349 . S
C343 C341 1.327 . S
C343 C359 1.429 . S
C343 H365 0.950 . S
C344 H340 0.949 . S
C344 C352 1.574 . S
C344 C360 1.368 . S
H345 C353 0.950 . S
H346 C351 0.950 . S
H347 C352 0.949 . S
H348 C354 0.950 . S
H349 C355 0.950 . S
H350 C356 0.949 . S
C351 H346 0.950 . S
C351 C353 1.327 . S
C351 C357 1.429 . S
C352 C344 1.574 . S
C352 H347 0.949 . S
C352 C358 1.368 . S
C353 C337 1.349 . S
C353 H345 0.950 . S
C353 C351 1.327 . S
C354 C342 1.349 . S
C354 H348 0.950 . S
C354 C355 1.327 . S
C355 H349 0.950 . S
C355 C354 1.327 . S
C355 C359 1.429 . S
C356 C339 1.574 . S
C356 H350 0.949 . S
C356 C360 1.368 . S
C357 C338 1.429 . S
C357 C351 1.429 . S
C357 C358 1.523 . S
C358 C339 1.368 . S
C358 C352 1.368 . S
C358 C357 1.523 . S
C359 C343 1.429 . S
C359 C355 1.429 . S
C359 C360 1.523 . S
C360 C344 1.368 . S
C360 C356 1.368 . S
C360 C359 1.523 . S
H361 C336 0.950 . S
H362 C338 0.950 . S
H363 C339 0.949 . S
H364 C341 0.950 . S
H365 C343 0.950 . S
C366 C367 1.349 . S
C366 C368 1.327 . S
C366 H391 0.950 . S
C367 C366 1.349 . S
C367 C383 1.349 . S
C368 C366 1.327 . S
C368 C387 1.429 . S
C368 H392 0.950 . S
C369 C386 1.574 . S
C369 C388 1.368 . S
C369 H393 0.949 . S
H370 C374 0.949 . S
C371 C372 1.349 . S
C371 C373 1.327 . S
C371 H394 0.950 . S
C372 C371 1.349 . S
C372 C384 1.349 . S
C373 C371 1.327 . S
C373 C389 1.429 . S
C373 H395 0.950 . S
C374 H370 0.949 . S
C374 C382 1.574 . S
C374 C390 1.368 . S
H375 C383 0.950 . S
H376 C381 0.950 . S
H377 C382 0.949 . S
H378 C384 0.950 . S
H379 C385 0.950 . S
H380 C386 0.949 . S
C381 H376 0.950 . S
C381 C383 1.327 . S
C381 C387 1.429 . S
C382 C374 1.574 . S
C382 H377 0.949 . S
C382 C388 1.368 . S
C383 C367 1.349 . S
C383 H375 0.950 . S
C383 C381 1.327 . S
C384 C372 1.349 . S
C384 H378 0.950 . S
C384 C385 1.327 . S
C385 H379 0.950 . S
C385 C384 1.327 . S
C385 C389 1.429 . S
C386 C369 1.574 . S
C386 H380 0.949 . S
C386 C390 1.368 . S
C387 C368 1.429 . S
C387 C381 1.429 . S
C387 C388 1.523 . S
C388 C369 1.368 . S
C388 C382 1.368 . S
C388 C387 1.523 . S
C389 C373 1.429 . S
C389 C385 1.429 . S
C389 C390 1.523 . S
C390 C374 1.368 . S
C390 C386 1.368 . S
C390 C389 1.523 . S
H391 C366 0.950 . S
H392 C368 0.950 . S
H393 C369 0.949 . S
H394 C371 0.950 . S
H395 C373 0.950 . S
C396 C397 1.349 . S
C396 C398 1.327 . S
C396 H421 0.950 . S
C397 C396 1.349 . S
C397 C413 1.349 . S
C398 C396 1.327 . S
C398 C417 1.429 . S
C398 H422 0.950 . S
C399 C416 1.574 . S
C399 C418 1.368 . S
C399 H423 0.949 . S
H400 C404 0.949 . S
C401 C402 1.349 . S
C401 C403 1.327 . S
C401 H424 0.950 . S
C402 C401 1.349 . S
C402 C414 1.349 . S
C403 C401 1.327 . S
C403 C419 1.429 . S
C403 H425 0.950 . S
C404 H400 0.949 . S
C404 C412 1.574 . S
C404 C420 1.368 . S
H405 C413 0.950 . S
H406 C411 0.950 . S
H407 C412 0.949 . S
H408 C414 0.950 . S
H409 C415 0.950 . S
H410 C416 0.949 . S
C411 H406 0.950 . S
C411 C413 1.327 . S
C411 C417 1.429 . S
C412 C404 1.574 . S
C412 H407 0.949 . S
C412 C418 1.368 . S
C413 C397 1.349 . S
C413 H405 0.950 . S
C413 C411 1.327 . S
C414 C402 1.349 . S
C414 H408 0.950 . S
C414 C415 1.327 . S
C415 H409 0.950 . S
C415 C414 1.327 . S
C415 C419 1.429 . S
C416 C399 1.574 . S
C416 H410 0.949 . S
C416 C420 1.368 . S
C417 C398 1.429 . S
C417 C411 1.429 . S
C417 C418 1.523 . S
C418 C399 1.368 . S
C418 C412 1.368 . S
C418 C417 1.523 . S
C419 C403 1.429 . S
C419 C415 1.429 . S
C419 C420 1.523 . S
C420 C404 1.368 . S
C420 C416 1.368 . S
C420 C419 1.523 . S
H421 C396 0.950 . S
H422 C398 0.950 . S
H423 C399 0.949 . S
H424 C401 0.950 . S
H425 C403 0.950 . S
C426 C427 1.349 . S
C426 C428 1.327 . S
C426 H451 0.950 . S
C427 C426 1.349 . S
C427 C443 1.349 . S
C428 C426 1.327 . S
C428 C447 1.429 . S
C428 H452 0.950 . S
C429 C446 1.574 . S
C429 C448 1.368 . S
C429 H453 0.949 . S
H430 C434 0.949 . S
C431 C432 1.349 . S
C431 C433 1.327 . S
C431 H454 0.950 . S
C432 C431 1.349 . S
C432 C444 1.349 . S
C433 C431 1.327 . S
C433 C449 1.429 . S
C433 H455 0.950 . S
C434 H430 0.949 . S
C434 C442 1.574 . S
C434 C450 1.368 . S
H435 C443 0.950 . S
H436 C441 0.950 . S
H437 C442 0.949 . S
H438 C444 0.950 . S
H439 C445 0.950 . S
H440 C446 0.949 . S
C441 H436 0.950 . S
C441 C443 1.327 . S
C441 C447 1.429 . S
C442 C434 1.574 . S
C442 H437 0.949 . S
C442 C448 1.368 . S
C443 C427 1.349 . S
C443 H435 0.950 . S
C443 C441 1.327 . S
C444 C432 1.349 . S
C444 H438 0.950 . S
C444 C445 1.327 . S
C445 H439 0.950 . S
C445 C444 1.327 . S
C445 C449 1.429 . S
C446 C429 1.574 . S
C446 H440 0.949 . S
C446 C450 1.368 . S
C447 C428 1.429 . S
C447 C441 1.429 . S
C447 C448 1.523 . S
C448 C429 1.368 . S
C448 C442 1.368 . S
C448 C447 1.523 . S
C449 C433 1.429 . S
C449 C445 1.429 . S
C449 C450 1.523 . S
C450 C434 1.368 . S
C450 C446 1.368 . S
C450 C449 1.523 . S
H451 C426 0.950 . S
H452 C428 0.950 . S
H453 C429 0.949 . S
H454 C431 0.950 . S
H455 C433 0.950 . S
C456 C457 1.349 . S
C456 C458 1.327 . S
C456 H481 0.950 . S
C457 C456 1.349 . S
C457 C473 1.349 . S
C458 C456 1.327 . S
C458 C477 1.429 . S
C458 H482 0.950 . S
C459 C476 1.574 . S
C459 C478 1.368 . S
C459 H483 0.949 . S
H460 C464 0.949 . S
C461 C462 1.349 . S
C461 C463 1.327 . S
C461 H484 0.950 . S
C462 C461 1.349 . S
C462 C474 1.349 . S
C463 C461 1.327 . S
C463 C479 1.429 . S
C463 H485 0.950 . S
C464 H460 0.949 . S
C464 C472 1.574 . S
C464 C480 1.368 . S
H465 C473 0.950 . S
H466 C471 0.950 . S
H467 C472 0.949 . S
H468 C474 0.950 . S
H469 C475 0.950 . S
H470 C476 0.949 . S
C471 H466 0.950 . S
C471 C473 1.327 . S
C471 C477 1.429 . S
C472 C464 1.574 . S
C472 H467 0.949 . S
C472 C478 1.368 . S
C473 C457 1.349 . S
C473 H465 0.950 . S
C473 C471 1.327 . S
C474 C462 1.349 . S
C474 H468 0.950 . S
C474 C475 1.327 . S
C475 H469 0.950 . S
C475 C474 1.327 . S
C475 C479 1.429 . S
C476 C459 1.574 . S
C476 H470 0.949 . S
C476 C480 1.368 . S
C477 C458 1.429 . S
C477 C471 1.429 . S
C477 C478 1.523 . S
C478 C459 1.368 . S
C478 C472 1.368 . S
C478 C477 1.523 . S
C479 C463 1.429 . S
C479 C475 1.429 . S
C479 C480 1.523 . S
C480 C464 1.368 . S
C480 C476 1.368 . S
C480 C479 1.523 . S
H481 C456 0.950 . S
H482 C458 0.950 . S
H483 C459 0.949 . S
H484 C461 0.950 . S
H485 C463 0.950 . S
C486 C487 1.349 . S
C486 C488 1.327 . S
C486 H511 0.950 . S
C487 C486 1.349 . S
C487 C503 1.349 . S
C488 C486 1.327 . S
C488 C507 1.429 . S
C488 H512 0.950 . S
C489 C506 1.574 . S
C489 C508 1.368 . S
C489 H513 0.949 . S
H490 C494 0.949 . S
C491 C492 1.349 . S
C491 C493 1.327 . S
C491 H514 0.950 . S
C492 C491 1.349 . S
C492 C504 1.349 . S
C493 C491 1.327 . S
C493 C509 1.429 . S
C493 H515 0.950 . S
C494 H490 0.949 . S
C494 C502 1.574 . S
C494 C510 1.368 . S
H495 C503 0.950 . S
H496 C501 0.950 . S
H497 C502 0.949 . S
H498 C504 0.950 . S
H499 C505 0.950 . S
H500 C506 0.949 . S
C501 H496 0.950 . S
C501 C503 1.327 . S
C501 C507 1.429 . S
C502 C494 1.574 . S
C502 H497 0.949 . S
C502 C508 1.368 . S
C503 C487 1.349 . S
C503 H495 0.950 . S
C503 C501 1.327 . S
C504 C492 1.349 . S
C504 H498 0.950 . S
C504 C505 1.327 . S
C505 H499 0.950 . S
C505 C504 1.327 . S
C505 C509 1.429 . S
C506 C489 1.574 . S
C506 H500 0.949 . S
C506 C510 1.368 . S
C507 C488 1.429 . S
C507 C501 1.429 . S
C507 C508 1.523 . S
C508 C489 1.368 . S
C508 C502 1.368 . S
C508 C507 1.523 . S
C509 C493 1.429 . S
C509 C505 1.429 . S
C509 C510 1.523 . S
C510 C494 1.368 . S
C510 C506 1.368 . S
C510 C509 1.523 . S
H511 C486 0.950 . S
H512 C488 0.950 . S
H513 C489 0.949 . S
H514 C491 0.950 . S
H515 C493 0.950 . S
C516 C517 1.349 . S
C516 C518 1.327 . S
C516 H541 0.950 . S
C517 C516 1.349 . S
C517 C533 1.349 . S
C518 C516 1.327 . S
C518 C537 1.429 . S
C518 H542 0.950 . S
C519 C536 1.574 . S
C519 C538 1.368 . S
C519 H543 0.949 . S
H520 C524 0.949 . S
C521 C522 1.349 . S
C521 C523 1.327 . S
C521 H544 0.950 . S
C522 C521 1.349 . S
C522 C534 1.349 . S
C523 C521 1.327 . S
C523 C539 1.429 . S
C523 H545 0.950 . S
C524 H520 0.949 . S
C524 C532 1.574 . S
C524 C540 1.368 . S
H525 C533 0.950 . S
H526 C531 0.950 . S
H527 C532 0.949 . S
H528 C534 0.950 . S
H529 C535 0.950 . S
H530 C536 0.949 . S
C531 H526 0.950 . S
C531 C533 1.327 . S
C531 C537 1.429 . S
C532 C524 1.574 . S
C532 H527 0.949 . S
C532 C538 1.368 . S
C533 C517 1.349 . S
C533 H525 0.950 . S
C533 C531 1.327 . S
C534 C522 1.349 . S
C534 H528 0.950 . S
C534 C535 1.327 . S
C535 H529 0.950 . S
C535 C534 1.327 . S
C535 C539 1.429 . S
C536 C519 1.574 . S
C536 H530 0.949 . S
C536 C540 1.368 . S
C537 C518 1.429 . S
C537 C531 1.429 . S
C537 C538 1.523 . S
C538 C519 1.368 . S
C538 C532 1.368 . S
C538 C537 1.523 . S
C539 C523 1.429 . S
C539 C535 1.429 . S
C539 C540 1.523 . S
C540 C524 1.368 . S
C540 C536 1.368 . S
C540 C539 1.523 . S
H541 C516 0.950 . S
H542 C518 0.950 . S
H543 C519 0.949 . S
H544 C521 0.950 . S
H545 C523 0.950 . S
C546 C547 1.349 . S
C546 C548 1.327 . S
C546 H571 0.950 . S
C547 C546 1.349 . S
C547 C563 1.349 . S
C548 C546 1.327 . S
C548 C567 1.429 . S
C548 H572 0.950 . S
C549 C566 1.574 . S
C549 C568 1.368 . S
C549 H573 0.949 . S
H550 C554 0.949 . S
C551 C552 1.349 . S
C551 C553 1.327 . S
C551 H574 0.950 . S
C552 C551 1.349 . S
C552 C564 1.349 . S
C553 C551 1.327 . S
C553 C569 1.429 . S
C553 H575 0.950 . S
C554 H550 0.949 . S
C554 C562 1.574 . S
C554 C570 1.368 . S
H555 C563 0.950 . S
H556 C561 0.950 . S
H557 C562 0.949 . S
H558 C564 0.950 . S
H559 C565 0.950 . S
H560 C566 0.949 . S
C561 H556 0.950 . S
C561 C563 1.327 . S
C561 C567 1.429 . S
C562 C554 1.574 . S
C562 H557 0.949 . S
C562 C568 1.368 . S
C563 C547 1.349 . S
C563 H555 0.950 . S
C563 C561 1.327 . S
C564 C552 1.349 . S
C564 H558 0.950 . S
C564 C565 1.327 . S
C565 H559 0.950 . S
C565 C564 1.327 . S
C565 C569 1.429 . S
C566 C549 1.574 . S
C566 H560 0.949 . S
C566 C570 1.368 . S
C567 C548 1.429 . S
C567 C561 1.429 . S
C567 C568 1.523 . S
C568 C549 1.368 . S
C568 C562 1.368 . S
C568 C567 1.523 . S
C569 C553 1.429 . S
C569 C565 1.429 . S
C569 C570 1.523 . S
C570 C554 1.368 . S
C570 C566 1.368 . S
C570 C569 1.523 . S
H571 C546 0.950 . S
H572 C548 0.950 . S
H573 C549 0.949 . S
H574 C551 0.950 . S
H575 C553 0.950 . S
C576 C577 1.349 . S
C576 C578 1.327 . S
C576 H601 0.950 . S
C577 C576 1.349 . S
C577 C593 1.349 . S
C578 C576 1.327 . S
C578 C597 1.429 . S
C578 H602 0.950 . S
C579 C596 1.574 . S
C579 C598 1.368 . S
C579 H603 0.949 . S
H580 C584 0.949 . S
C581 C582 1.349 . S
C581 C583 1.327 . S
C581 H604 0.950 . S
C582 C581 1.349 . S
C582 C594 1.349 . S
C583 C581 1.327 . S
C583 C599 1.429 . S
C583 H605 0.950 . S
C584 H580 0.949 . S
C584 C592 1.574 . S
C584 C600 1.368 . S
H585 C593 0.950 . S
H586 C591 0.950 . S
H587 C592 0.949 . S
H588 C594 0.950 . S
H589 C595 0.950 . S
H590 C596 0.949 . S
C591 H586 0.950 . S
C591 C593 1.327 . S
C591 C597 1.429 . S
C592 C584 1.574 . S
C592 H587 0.949 . S
C592 C598 1.368 . S
C593 C577 1.349 . S
C593 H585 0.950 . S
C593 C591 1.327 . S
C594 C582 1.349 . S
C594 H588 0.950 . S
C594 C595 1.327 . S
C595 H589 0.950 . S
C595 C594 1.327 . S
C595 C599 1.429 . S
C596 C579 1.574 . S
C596 H590 0.949 . S
C596 C600 1.368 . S
C597 C578 1.429 . S
C597 C591 1.429 . S
C597 C598 1.523 . S
C598 C579 1.368 . S
C598 C592 1.368 . S
C598 C597 1.523 . S
C599 C583 1.429 . S
C599 C595 1.429 . S
C599 C600 1.523 . S
C600 C584 1.368 . S
C600 C596 1.368 . S
C600 C599 1.523 . S
H601 C576 0.950 . S
H602 C578 0.950 . S
H603 C579 0.949 . S
H604 C581 0.950 . S
H605 C583 0.950 . S
C606 C607 1.349 . S
C606 C608 1.327 . S
C606 H631 0.950 . S
C607 C606 1.349 . S
C607 C623 1.349 . S
C608 C606 1.327 . S
C608 C627 1.429 . S
C608 H632 0.950 . S
C609 C626 1.574 . S
C609 C628 1.368 . S
C609 H633 0.949 . S
H610 C614 0.949 . S
C611 C612 1.349 . S
C611 C613 1.327 . S
C611 H634 0.950 . S
C612 C611 1.349 . S
C612 C624 1.349 . S
C613 C611 1.327 . S
C613 C629 1.429 . S
C613 H635 0.950 . S
C614 H610 0.949 . S
C614 C622 1.574 . S
C614 C630 1.368 . S
H615 C623 0.950 . S
H616 C621 0.950 . S
H617 C622 0.949 . S
H618 C624 0.950 . S
H619 C625 0.950 . S
H620 C626 0.949 . S
C621 H616 0.950 . S
C621 C623 1.327 . S
C621 C627 1.429 . S
C622 C614 1.574 . S
C622 H617 0.949 . S
C622 C628 1.368 . S
C623 C607 1.349 . S
C623 H615 0.950 . S
C623 C621 1.327 . S
C624 C612 1.349 . S
C624 H618 0.950 . S
C624 C625 1.327 . S
C625 H619 0.950 . S
C625 C624 1.327 . S
C625 C629 1.429 . S
C626 C609 1.574 . S
C626 H620 0.949 . S
C626 C630 1.368 . S
C627 C608 1.429 . S
C627 C621 1.429 . S
C627 C628 1.523 . S
C628 C609 1.368 . S
C628 C622 1.368 . S
C628 C627 1.523 . S
C629 C613 1.429 . S
C629 C625 1.429 . S
C629 C630 1.523 . S
C630 C614 1.368 . S
C630 C626 1.368 . S
C630 C629 1.523 . S
H631 C606 0.950 . S
H632 C608 0.950 . S
H633 C609 0.949 . S
H634 C611 0.950 . S
H635 C613 0.950 . S
C636 C637 1.349 . S
C636 C638 1.327 . S
C636 H661 0.950 . S
C637 C636 1.349 . S
C637 C653 1.349 . S
C638 C636 1.327 . S
C638 C657 1.429 . S
C638 H662 0.950 . S
C639 C656 1.574 . S
C639 C658 1.368 . S
C639 H663 0.949 . S
H640 C644 0.949 . S
C641 C642 1.349 . S
C641 C643 1.327 . S
C641 H664 0.950 . S
C642 C641 1.349 . S
C642 C654 1.349 . S
C643 C641 1.327 . S
C643 C659 1.429 . S
C643 H665 0.950 . S
C644 H640 0.949 . S
C644 C652 1.574 . S
C644 C660 1.368 . S
H645 C653 0.950 . S
H646 C651 0.950 . S
H647 C652 0.949 . S
H648 C654 0.950 . S
H649 C655 0.950 . S
H650 C656 0.949 . S
C651 H646 0.950 . S
C651 C653 1.327 . S
C651 C657 1.429 . S
C652 C644 1.574 . S
C652 H647 0.949 . S
C652 C658 1.368 . S
C653 C637 1.349 . S
C653 H645 0.950 . S
C653 C651 1.327 . S
C654 C642 1.349 . S
C654 H648 0.950 . S
C654 C655 1.327 . S
C655 H649 0.950 . S
C655 C654 1.327 . S
C655 C659 1.429 . S
C656 C639 1.574 . S
C656 H650 0.949 . S
C656 C660 1.368 . S
C657 C638 1.429 . S
C657 C651 1.429 . S
C657 C658 1.523 . S
C658 C639 1.368 . S
C658 C652 1.368 . S
C658 C657 1.523 . S
C659 C643 1.429 . S
C659 C655 1.429 . S
C659 C660 1.523 . S
C660 C644 1.368 . S
C660 C656 1.368 . S
C660 C659 1.523 . S
H661 C636 0.950 . S
H662 C638 0.950 . S
H663 C639 0.949 . S
H664 C641 0.950 . S
H665 C643 0.950 . S
C666 C667 1.349 . S
C666 C668 1.327 . S
C666 H691 0.950 . S
C667 C666 1.349 . S
C667 C683 1.349 . S
C668 C666 1.327 . S
C668 C687 1.429 . S
C668 H692 0.950 . S
C669 C686 1.574 . S
C669 C688 1.368 . S
C669 H693 0.949 . S
H670 C674 0.949 . S
C671 C672 1.349 . S
C671 C673 1.327 . S
C671 H694 0.950 . S
C672 C671 1.349 . S
C672 C684 1.349 . S
C673 C671 1.327 . S
C673 C689 1.429 . S
C673 H695 0.950 . S
C674 H670 0.949 . S
C674 C682 1.574 . S
C674 C690 1.368 . S
H675 C683 0.950 . S
H676 C681 0.950 . S
H677 C682 0.949 . S
H678 C684 0.950 . S
H679 C685 0.950 . S
H680 C686 0.949 . S
C681 H676 0.950 . S
C681 C683 1.327 . S
C681 C687 1.429 . S
C682 C674 1.574 . S
C682 H677 0.949 . S
C682 C688 1.368 . S
C683 C667 1.349 . S
C683 H675 0.950 . S
C683 C681 1.327 . S
C684 C672 1.349 . S
C684 H678 0.950 . S
C684 C685 1.327 . S
C685 H679 0.950 . S
C685 C684 1.327 . S
C685 C689 1.429 . S
C686 C669 1.574 . S
C686 H680 0.949 . S
C686 C690 1.368 . S
C687 C668 1.429 . S
C687 C681 1.429 . S
C687 C688 1.523 . S
C688 C669 1.368 . S
C688 C682 1.368 . S
C688 C687 1.523 . S
C689 C673 1.429 . S
C689 C685 1.429 . S
C689 C690 1.523 . S
C690 C674 1.368 . S
C690 C686 1.368 . S
C690 C689 1.523 . S
H691 C666 0.950 . S
H692 C668 0.950 . S
H693 C669 0.949 . S
H694 C671 0.950 . S
H695 C673 0.950 . S
C696 C697 1.349 . S
C696 C698 1.327 . S
C696 H721 0.950 . S
C697 C696 1.349 . S
C697 C713 1.349 . S
C698 C696 1.327 . S
C698 C717 1.429 . S
C698 H722 0.950 . S
C699 C716 1.574 . S
C699 C718 1.368 . S
C699 H723 0.949 . S
H700 C704 0.949 . S
C701 C702 1.349 . S
C701 C703 1.327 . S
C701 H724 0.950 . S
C702 C701 1.349 . S
C702 C714 1.349 . S
C703 C701 1.327 . S
C703 C719 1.429 . S
C703 H725 0.950 . S
C704 H700 0.949 . S
C704 C712 1.574 . S
C704 C720 1.368 . S
H705 C713 0.950 . S
H706 C711 0.950 . S
H707 C712 0.949 . S
H708 C714 0.950 . S
H709 C715 0.950 . S
H710 C716 0.949 . S
C711 H706 0.950 . S
C711 C713 1.327 . S
C711 C717 1.429 . S
C712 C704 1.574 . S
C712 H707 0.949 . S
C712 C718 1.368 . S
C713 C697 1.349 . S
C713 H705 0.950 . S
C713 C711 1.327 . S
C714 C702 1.349 . S
C714 H708 0.950 . S
C714 C715 1.327 . S
C715 H709 0.950 . S
C715 C714 1.327 . S
C715 C719 1.429 . S
C716 C699 1.574 . S
C716 H710 0.949 . S
C716 C720 1.368 . S
C717 C698 1.429 . S
C717 C711 1.429 . S
C717 C718 1.523 . S
C718 C699 1.368 . S
C718 C712 1.368 . S
C718 C717 1.523 . S
C719 C703 1.429 . S
C719 C715 1.429 . S
C719 C720 1.523 . S
C720 C704 1.368 . S
C720 C716 1.368 . S
C720 C719 1.523 . S
H721 C696 0.950 . S
H722 C698 0.950 . S
H723 C699 0.949 . S
H724 C701 0.950 . S
H725 C703 0.950 . S
C726 C727 1.349 . S
C726 C728 1.327 . S
C726 H751 0.950 . S
C727 C726 1.349 . S
C727 C743 1.349 . S
C728 C726 1.327 . S
C728 C747 1.429 . S
C728 H752 0.950 . S
C729 C746 1.574 . S
C729 C748 1.368 . S
C729 H753 0.949 . S
H730 C734 0.949 . S
C731 C732 1.349 . S
C731 C733 1.327 . S
C731 H754 0.950 . S
C732 C731 1.349 . S
C732 C744 1.349 . S
C733 C731 1.327 . S
C733 C749 1.429 . S
C733 H755 0.950 . S
C734 H730 0.949 . S
C734 C742 1.574 . S
C734 C750 1.368 . S
H735 C743 0.950 . S
H736 C741 0.950 . S
H737 C742 0.949 . S
H738 C744 0.950 . S
H739 C745 0.950 . S
H740 C746 0.949 . S
C741 H736 0.950 . S
C741 C743 1.327 . S
C741 C747 1.429 . S
C742 C734 1.574 . S
C742 H737 0.949 . S
C742 C748 1.368 . S
C743 C727 1.349 . S
C743 H735 0.950 . S
C743 C741 1.327 . S
C744 C732 1.349 . S
C744 H738 0.950 . S
C744 C745 1.327 . S
C745 H739 0.950 . S
C745 C744 1.327 . S
C745 C749 1.429 . S
C746 C729 1.574 . S
C746 H740 0.949 . S
C746 C750 1.368 . S
C747 C728 1.429 . S
C747 C741 1.429 . S
C747 C748 1.523 . S
C748 C729 1.368 . S
C748 C742 1.368 . S
C748 C747 1.523 . S
C749 C733 1.429 . S
C749 C745 1.429 . S
C749 C750 1.523 . S
C750 C734 1.368 . S
C750 C746 1.368 . S
C750 C749 1.523 . S
H751 C726 0.950 . S
H752 C728 0.950 . S
H753 C729 0.949 . S
H754 C731 0.950 . S
H755 C733 0.950 . S
C756 C757 1.349 . S
C756 C758 1.327 . S
C756 H781 0.950 . S
C757 C756 1.349 . S
C757 C773 1.349 . S
C758 C756 1.327 . S
C758 C777 1.429 . S
C758 H782 0.950 . S
C759 C776 1.574 . S
C759 C778 1.368 . S
C759 H783 0.949 . S
H760 C764 0.949 . S
C761 C762 1.349 . S
C761 C763 1.327 . S
C761 H784 0.950 . S
C762 C761 1.349 . S
C762 C774 1.349 . S
C763 C761 1.327 . S
C763 C779 1.429 . S
C763 H785 0.950 . S
C764 H760 0.949 . S
C764 C772 1.574 . S
C764 C780 1.368 . S
H765 C773 0.950 . S
H766 C771 0.950 . S
H767 C772 0.949 . S
H768 C774 0.950 . S
H769 C775 0.950 . S
H770 C776 0.949 . S
C771 H766 0.950 . S
C771 C773 1.327 . S
C771 C777 1.429 . S
C772 C764 1.574 . S
C772 H767 0.949 . S
C772 C778 1.368 . S
C773 C757 1.349 . S
C773 H765 0.950 . S
C773 C771 1.327 . S
C774 C762 1.349 . S
C774 H768 0.950 . S
C774 C775 1.327 . S
C775 H769 0.950 . S
C775 C774 1.327 . S
C775 C779 1.429 . S
C776 C759 1.574 . S
C776 H770 0.949 . S
C776 C780 1.368 . S
C777 C758 1.429 . S
C777 C771 1.429 . S
C777 C778 1.523 . S
C778 C759 1.368 . S
C778 C772 1.368 . S
C778 C777 1.523 . S
C779 C763 1.429 . S
C779 C775 1.429 . S
C779 C780 1.523 . S
C780 C764 1.368 . S
C780 C776 1.368 . S
C780 C779 1.523 . S
H781 C756 0.950 . S
H782 C758 0.950 . S
H783 C759 0.949 . S
H784 C761 0.950 . S
H785 C763 0.950 . S
C786 C787 1.349 . S
C786 C788 1.327 . S
C786 H811 0.950 . S
C787 C786 1.349 . S
C787 C803 1.349 . S
C788 C786 1.327 . S
C788 C807 1.429 . S
C788 H812 0.950 . S
C789 C806 1.574 . S
C789 C808 1.368 . S
C789 H813 0.949 . S
H790 C794 0.949 . S
C791 C792 1.349 . S
C791 C793 1.327 . S
C791 H814 0.950 . S
C792 C791 1.349 . S
C792 C804 1.349 . S
C793 C791 1.327 . S
C793 C809 1.429 . S
C793 H815 0.950 . S
C794 H790 0.949 . S
C794 C802 1.574 . S
C794 C810 1.368 . S
H795 C803 0.950 . S
H796 C801 0.950 . S
H797 C802 0.949 . S
H798 C804 0.950 . S
H799 C805 0.950 . S
H800 C806 0.949 . S
C801 H796 0.950 . S
C801 C803 1.327 . S
C801 C807 1.429 . S
C802 C794 1.574 . S
C802 H797 0.949 . S
C802 C808 1.368 . S
C803 C787 1.349 . S
C803 H795 0.950 . S
C803 C801 1.327 . S
C804 C792 1.349 . S
C804 H798 0.950 . S
C804 C805 1.327 . S
C805 H799 0.950 . S
C805 C804 1.327 . S
C805 C809 1.429 . S
C806 C789 1.574 . S
C806 H800 0.949 . S
C806 C810 1.368 . S
C807 C788 1.429 . S
C807 C801 1.429 . S
C807 C808 1.523 . S
C808 C789 1.368 . S
C808 C802 1.368 . S
C808 C807 1.523 . S
C809 C793 1.429 . S
C809 C805 1.429 . S
C809 C810 1.523 . S
C810 C794 1.368 . S
C810 C806 1.368 . S
C810 C809 1.523 . S
H811 C786 0.950 . S
H812 C788 0.950 . S
H813 C789 0.949 . S
H814 C791 0.950 . S
H815 C793 0.950 . S
C816 C817 1.349 . S
C816 C818 1.327 . S
C816 H841 0.950 . S
C817 C816 1.349 . S
C817 C833 1.349 . S
C818 C816 1.327 . S
C818 C837 1.429 . S
C818 H842 0.950 . S
C819 C836 1.574 . S
C819 C838 1.368 . S
C819 H843 0.949 . S
H820 C824 0.949 . S
C821 C822 1.349 . S
C821 C823 1.327 . S
C821 H844 0.950 . S
C822 C821 1.349 . S
C822 C834 1.349 . S
C823 C821 1.327 . S
C823 C839 1.429 . S
C823 H845 0.950 . S
C824 H820 0.949 . S
C824 C832 1.574 . S
C824 C840 1.368 . S
H825 C833 0.950 . S
H826 C831 0.950 . S
H827 C832 0.949 . S
H828 C834 0.950 . S
H829 C835 0.950 . S
H830 C836 0.949 . S
C831 H826 0.950 . S
C831 C833 1.327 . S
C831 C837 1.429 . S
C832 C824 1.574 . S
C832 H827 0.949 . S
C832 C838 1.368 . S
C833 C817 1.349 . S
C833 H825 0.950 . S
C833 C831 1.327 . S
C834 C822 1.349 . S
C834 H828 0.950 . S
C834 C835 1.327 . S
C835 H829 0.950 . S
C835 C834 1.327 . S
C835 C839 1.429 . S
C836 C819 1.574 . S
C836 H830 0.949 . S
C836 C840 1.368 . S
C837 C818 1.429 . S
C837 C831 1.429 . S
C837 C838 1.523 . S
C838 C819 1.368 . S
C838 C832 1.368 . S
C838 C837 1.523 . S
C839 C823 1.429 . S
C839 C835 1.429 . S
C839 C840 1.523 . S
C840 C824 1.368 . S
C840 C836 1.368 . S
C840 C839 1.523 . S
H841 C816 0.950 . S
H842 C818 0.950 . S
H843 C819 0.949 . S
H844 C821 0.950 . S
H845 C823 0.950 . S
C846 C847 1.349 . S
C846 C848 1.327 . S
C846 H871 0.950 . S
C847 C846 1.349 . S
C847 C863 1.349 . S
C848 C846 1.327 . S
C848 C867 1.429 . S
C848 H872 0.950 . S
C849 C866 1.574 . S
C849 C868 1.368 . S
C849 H873 0.949 . S
H850 C854 0.949 . S
C851 C852 1.349 . S
C851 C853 1.327 . S
C851 H874 0.950 . S
C852 C851 1.349 . S
C852 C864 1.349 . S
C853 C851 1.327 . S
C853 C869 1.429 . S
C853 H875 0.950 . S
C854 H850 0.949 . S
C854 C862 1.574 . S
C854 C870 1.368 . S
H855 C863 0.950 . S
H856 C861 0.950 . S
H857 C862 0.949 . S
H858 C864 0.950 . S
H859 C865 0.950 . S
H860 C866 0.949 . S
C861 H856 0.950 . S
C861 C863 1.327 . S
C861 C867 1.429 . S
C862 C854 1.574 . S
C862 H857 0.949 . S
C862 C868 1.368 . S
C863 C847 1.349 . S
C863 H855 0.950 . S
C863 C861 1.327 . S
C864 C852 1.349 . S
C864 H858 0.950 . S
C864 C865 1.327 . S
C865 H859 0.950 . S
C865 C864 1.327 . S
C865 C869 1.429 . S
C866 C849 1.574 . S
C866 H860 0.949 . S
C866 C870 1.368 . S
C867 C848 1.429 . S
C867 C861 1.429 . S
C867 C868 1.523 . S
C868 C849 1.368 . S
C868 C862 1.368 . S
C868 C867 1.523 . S
C869 C853 1.429 . S
C869 C865 1.429 . S
C869 C870 1.523 . S
C870 C854 1.368 . S
C870 C866 1.368 . S
C870 C869 1.523 . S
H871 C846 0.950 . S
H872 C848 0.950 . S
H873 C849 0.949 . S
H874 C851 0.950 . S
H875 C853 0.950 . S
C876 C877 1.349 . S
C876 C878 1.327 . S
C876 H901 0.950 . S
C877 C876 1.349 . S
C877 C893 1.349 . S
C878 C876 1.327 . S
C878 C897 1.429 . S
C878 H902 0.950 . S
C879 C896 1.574 . S
C879 C898 1.368 . S
C879 H903 0.949 . S
H880 C884 0.949 . S
C881 C882 1.349 . S
C881 C883 1.327 . S
C881 H904 0.950 . S
C882 C881 1.349 . S
C882 C894 1.349 . S
C883 C881 1.327 . S
C883 C899 1.429 . S
C883 H905 0.950 . S
C884 H880 0.949 . S
C884 C892 1.574 . S
C884 C900 1.368 . S
H885 C893 0.950 . S
H886 C891 0.950 . S
H887 C892 0.949 . S
H888 C894 0.950 . S
H889 C895 0.950 . S
H890 C896 0.949 . S
C891 H886 0.950 . S
C891 C893 1.327 . S
C891 C897 1.429 . S
C892 C884 1.574 . S
C892 H887 0.949 . S
C892 C898 1.368 . S
C893 C877 1.349 . S
C893 H885 0.950 . S
C893 C891 1.327 . S
C894 C882 1.349 . S
C894 H888 0.950 . S
C894 C895 1.327 . S
C895 H889 0.950 . S
C895 C894 1.327 . S
C895 C899 1.429 . S
C896 C879 1.574 . S
C896 H890 0.949 . S
C896 C900 1.368 . S
C897 C878 1.429 . S
C897 C891 1.429 . S
C897 C898 1.523 . S
C898 C879 1.368 . S
C898 C892 1.368 . S
C898 C897 1.523 . S
C899 C883 1.429 . S
C899 C895 1.429 . S
C899 C900 1.523 . S
C900 C884 1.368 . S
C900 C896 1.368 . S
C900 C899 1.523 . S
H901 C876 0.950 . S
H902 C878 0.950 . S
H903 C879 0.949 . S
H904 C881 0.950 . S
H905 C883 0.950 . S
C906 C907 1.349 . S
C906 C908 1.327 . S
C906 H931 0.950 . S
C907 C906 1.349 . S
C907 C923 1.349 . S
C908 C906 1.327 . S
C908 C927 1.429 . S
C908 H932 0.950 . S
C909 C926 1.574 . S
C909 C928 1.368 . S
C909 H933 0.949 . S
H910 C914 0.949 . S
C911 C912 1.349 . S
C911 C913 1.327 . S
C911 H934 0.950 . S
C912 C911 1.349 . S
C912 C924 1.349 . S
C913 C911 1.327 . S
C913 C929 1.429 . S
C913 H935 0.950 . S
C914 H910 0.949 . S
C914 C922 1.574 . S
C914 C930 1.368 . S
H915 C923 0.950 . S
H916 C921 0.950 . S
H917 C922 0.949 . S
H918 C924 0.950 . S
H919 C925 0.950 . S
H920 C926 0.949 . S
C921 H916 0.950 . S
C921 C923 1.327 . S
C921 C927 1.429 . S
C922 C914 1.574 . S
C922 H917 0.949 . S
C922 C928 1.368 . S
C923 C907 1.349 . S
C923 H915 0.950 . S
C923 C921 1.327 . S
C924 C912 1.349 . S
C924 H918 0.950 . S
C924 C925 1.327 . S
C925 H919 0.950 . S
C925 C924 1.327 . S
C925 C929 1.429 . S
C926 C909 1.574 . S
C926 H920 0.949 . S
C926 C930 1.368 . S
C927 C908 1.429 . S
C927 C921 1.429 . S
C927 C928 1.523 . S
C928 C909 1.368 . S
C928 C922 1.368 . S
C928 C927 1.523 . S
C929 C913 1.429 . S
C929 C925 1.429 . S
C929 C930 1.523 . S
C930 C914 1.368 . S
C930 C926 1.368 . S
C930 C929 1.523 . S
H931 C906 0.950 . S
H932 C908 0.950 . S
H933 C909 0.949 . S
H934 C911 0.950 . S
H935 C913 0.950 . S
C936 C937 1.349 . S
C936 C938 1.327 . S
C936 H961 0.950 . S
C937 C936 1.349 . S
C937 C953 1.349 . S
C938 C936 1.327 . S
C938 C957 1.429 . S
C938 H962 0.950 . S
C939 C956 1.574 . S
C939 C958 1.368 . S
C939 H963 0.949 . S
H940 C944 0.949 . S
C941 C942 1.349 . S
C941 C943 1.327 . S
C941 H964 0.950 . S
C942 C941 1.349 . S
C942 C954 1.349 . S
C943 C941 1.327 . S
C943 C959 1.429 . S
C943 H965 0.950 . S
C944 H940 0.949 . S
C944 C952 1.574 . S
C944 C960 1.368 . S
H945 C953 0.950 . S
H946 C951 0.950 . S
H947 C952 0.949 . S
H948 C954 0.950 . S
H949 C955 0.950 . S
H950 C956 0.949 . S
C951 H946 0.950 . S
C951 C953 1.327 . S
C951 C957 1.429 . S
C952 C944 1.574 . S
C952 H947 0.949 . S
C952 C958 1.368 . S
C953 C937 1.349 . S
C953 H945 0.950 . S
C953 C951 1.327 . S
C954 C942 1.349 . S
C954 H948 0.950 . S
C954 C955 1.327 . S
C955 H949 0.950 . S
C955 C954 1.327 . S
C955 C959 1.429 . S
C956 C939 1.574 . S
C956 H950 0.949 . S
C956 C960 1.368 . S
C957 C938 1.429 . S
C957 C951 1.429 . S
C957 C958 1.523 . S
C958 C939 1.368 . S
C958 C952 1.368 . S
C958 C957 1.523 . S
C959 C943 1.429 . S
C959 C955 1.429 . S
C959 C960 1.523 . S
C960 C944 1.368 . S
C960 C956 1.368 . S
C960 C959 1.523 . S
H961 C936 0.950 . S
H962 C938 0.950 . S
H963 C939 0.949 . S
H964 C941 0.950 . S
H965 C943 0.950 . S
C966 C967 1.349 . S
C966 C968 1.327 . S
C966 H991 0.950 . S
C967 C966 1.349 . S
C967 C983 1.349 . S
C968 C966 1.327 . S
C968 C987 1.429 . S
C968 H992 0.950 . S
C969 C986 1.574 . S
C969 C988 1.368 . S
C969 H993 0.949 . S
H970 C974 0.949 . S
C971 C972 1.349 . S
C971 C973 1.327 . S
C971 H994 0.950 . S
C972 C971 1.349 . S
C972 C984 1.349 . S
C973 C971 1.327 . S
C973 C989 1.429 . S
C973 H995 0.950 . S
C974 H970 0.949 . S
C974 C982 1.574 . S
C974 C990 1.368 . S
H975 C983 0.950 . S
H976 C981 0.950 . S
H977 C982 0.949 . S
H978 C984 0.950 . S
H979 C985 0.950 . S
H980 C986 0.949 . S
C981 H976 0.950 . S
C981 C983 1.327 . S
C981 C987 1.429 . S
C982 C974 1.574 . S
C982 H977 0.949 . S
C982 C988 1.368 . S
C983 C967 1.349 . S
C983 H975 0.950 . S
C983 C981 1.327 . S
C984 C972 1.349 . S
C984 H978 0.950 . S
C984 C985 1.327 . S
C985 H979 0.950 . S
C985 C984 1.327 . S
C985 C989 1.429 . S
C986 C969 1.574 . S
C986 H980 0.949 . S
C986 C990 1.368 . S
C987 C968 1.429 . S
C987 C981 1.429 . S
C987 C988 1.523 . S
C988 C969 1.368 . S
C988 C982 1.368 . S
C988 C987 1.523 . S
C989 C973 1.429 . S
C989 C985 1.429 . S
C989 C990 1.523 . S
C990 C974 1.368 . S
C990 C986 1.368 . S
C990 C989 1.523 . S
H991 C966 0.950 . S
H992 C968 0.950 . S
H993 C969 0.949 . S
H994 C971 0.950 . S
H995 C973 0.950 . S
C996 C997 1.349 . S
C996 C998 1.327 . S
C996 H1021 0.950 . S
C997 C996 1.349 . S
C997 C1013 1.349 . S
C998 C996 1.327 . S
C998 C1017 1.429 . S
C998 H1022 0.950 . S
C999 C1016 1.574 . S
C999 C1018 1.368 . S
C999 H1023 0.949 . S
H1000 C1004 0.949 . S
C1001 C1002 1.349 . S
C1001 C1003 1.327 . S
C1001 H1024 0.950 . S
C1002 C1001 1.349 . S
C1002 C1014 1.349 . S
C1003 C1001 1.327 . S
C1003 C1019 1.429 . S
C1003 H1025 0.950 . S
C1004 H1000 0.949 . S
C1004 C1012 1.574 . S
C1004 C1020 1.368 . S
H1005 C1013 0.950 . S
H1006 C1011 0.950 . S
H1007 C1012 0.949 . S
H1008 C1014 0.950 . S
H1009 C1015 0.950 . S
H1010 C1016 0.949 . S
C1011 H1006 0.950 . S
C1011 C1013 1.327 . S
C1011 C1017 1.429 . S
C1012 C1004 1.574 . S
C1012 H1007 0.949 . S
C1012 C1018 1.368 . S
C1013 C997 1.349 . S
C1013 H1005 0.950 . S
C1013 C1011 1.327 . S
C1014 C1002 1.349 . S
C1014 H1008 0.950 . S
C1014 C1015 1.327 . S
C1015 H1009 0.950 . S
C1015 C1014 1.327 . S
C1015 C1019 1.429 . S
C1016 C999 1.574 . S
C1016 H1010 0.949 . S
C1016 C1020 1.368 . S
C1017 C998 1.429 . S
C1017 C1011 1.429 . S
C1017 C1018 1.523 . S
C1018 C999 1.368 . S
C1018 C1012 1.368 . S
C1018 C1017 1.523 . S
C1019 C1003 1.429 . S
C1019 C1015 1.429 . S
C1019 C1020 1.523 . S
C1020 C1004 1.368 . S
C1020 C1016 1.368 . S
C1020 C1019 1.523 . S
H1021 C996 0.950 . S
H1022 C998 0.950 . S
H1023 C999 0.949 . S
H1024 C1001 0.950 . S
H1025 C1003 0.950 . S
C1026 C1027 1.349 . S
C1026 C1028 1.327 . S
C1026 H1051 0.950 . S
C1027 C1026 1.349 . S
C1027 C1043 1.349 . S
C1028 C1026 1.327 . S
C1028 C1047 1.429 . S
C1028 H1052 0.950 . S
C1029 C1046 1.574 . S
C1029 C1048 1.368 . S
C1029 H1053 0.949 . S
H1030 C1034 0.949 . S
C1031 C1032 1.349 . S
C1031 C1033 1.327 . S
C1031 H1054 0.950 . S
C1032 C1031 1.349 . S
C1032 C1044 1.349 . S
C1033 C1031 1.327 . S
C1033 C1049 1.429 . S
C1033 H1055 0.950 . S
C1034 H1030 0.949 . S
C1034 C1042 1.574 . S
C1034 C1050 1.368 . S
H1035 C1043 0.950 . S
H1036 C1041 0.950 . S
H1037 C1042 0.949 . S
H1038 C1044 0.950 . S
H1039 C1045 0.950 . S
H1040 C1046 0.949 . S
C1041 H1036 0.950 . S
C1041 C1043 1.327 . S
C1041 C1047 1.429 . S
C1042 C1034 1.574 . S
C1042 H1037 0.949 . S
C1042 C1048 1.368 . S
C1043 C1027 1.349 . S
C1043 H1035 0.950 . S
C1043 C1041 1.327 . S
C1044 C1032 1.349 . S
C1044 H1038 0.950 . S
C1044 C1045 1.327 . S
C1045 H1039 0.950 . S
C1045 C1044 1.327 . S
C1045 C1049 1.429 . S
C1046 C1029 1.574 . S
C1046 H1040 0.949 . S
C1046 C1050 1.368 . S
C1047 C1028 1.429 . S
C1047 C1041 1.429 . S
C1047 C1048 1.523 . S
C1048 C1029 1.368 . S
C1048 C1042 1.368 . S
C1048 C1047 1.523 . S
C1049 C1033 1.429 . S
C1049 C1045 1.429 . S
C1049 C1050 1.523 . S
C1050 C1034 1.368 . S
C1050 C1046 1.368 . S
C1050 C1049 1.523 . S
H1051 C1026 0.950 . S
H1052 C1028 0.950 . S
H1053 C1029 0.949 . S
H1054 C1031 0.950 . S
H1055 C1033 0.950 . S
C1056 C1057 1.349 . S
C1056 C1058 1.327 . S
C1056 H1081 0.950 . S
C1057 C1056 1.349 . S
C1057 C1073 1.349 . S
C1058 C1056 1.327 . S
C1058 C1077 1.429 . S
C1058 H1082 0.950 . S
C1059 C1076 1.574 . S
C1059 C1078 1.368 . S
C1059 H1083 0.949 . S
H1060 C1064 0.949 . S
C1061 C1062 1.349 . S
C1061 C1063 1.327 . S
C1061 H1084 0.950 . S
C1062 C1061 1.349 . S
C1062 C1074 1.349 . S
C1063 C1061 1.327 . S
C1063 C1079 1.429 . S
C1063 H1085 0.950 . S
C1064 H1060 0.949 . S
C1064 C1072 1.574 . S
C1064 C1080 1.368 . S
H1065 C1073 0.950 . S
H1066 C1071 0.950 . S
H1067 C1072 0.949 . S
H1068 C1074 0.950 . S
H1069 C1075 0.950 . S
H1070 C1076 0.949 . S
C1071 H1066 0.950 . S
C1071 C1073 1.327 . S
C1071 C1077 1.429 . S
C1072 C1064 1.574 . S
C1072 H1067 0.949 . S
C1072 C1078 1.368 . S
C1073 C1057 1.349 . S
C1073 H1065 0.950 . S
C1073 C1071 1.327 . S
C1074 C1062 1.349 . S
C1074 H1068 0.950 . S
C1074 C1075 1.327 . S
C1075 H1069 0.950 . S
C1075 C1074 1.327 . S
C1075 C1079 1.429 . S
C1076 C1059 1.574 . S
C1076 H1070 0.949 . S
C1076 C1080 1.368 . S
C1077 C1058 1.429 . S
C1077 C1071 1.429 . S
C1077 C1078 1.523 . S
C1078 C1059 1.368 . S
C1078 C1072 1.368 . S
C1078 C1077 1.523 . S
C1079 C1063 1.429 . S
C1079 C1075 1.429 . S
C1079 C1080 1.523 . S
C1080 C1064 1.368 . S
C1080 C1076 1.368 . S
C1080 C1079 1.523 . S
H1081 C1056 0.950 . S
H1082 C1058 0.950 . S
H1083 C1059 0.949 . S
H1084 C1061 0.950 . S
H1085 C1063 0.950 . S
C1086 C1087 1.349 . S
C1086 C1088 1.327 . S
C1086 H1111 0.950 . S
C1087 C1086 1.349 . S
C1087 C1103 1.349 . S
C1088 C1086 1.327 . S
C1088 C1107 1.429 . S
C1088 H1112 0.950 . S
C1089 C1106 1.574 . S
C1089 C1108 1.368 . S
C1089 H1113 0.949 . S
H1090 C1094 0.949 . S
C1091 C1092 1.349 . S
C1091 C1093 1.327 . S
C1091 H1114 0.950 . S
C1092 C1091 1.349 . S
C1092 C1104 1.349 . S
C1093 C1091 1.327 . S
C1093 C1109 1.429 . S
C1093 H1115 0.950 . S
C1094 H1090 0.949 . S
C1094 C1102 1.574 . S
C1094 C1110 1.368 . S
H1095 C1103 0.950 . S
H1096 C1101 0.950 . S
H1097 C1102 0.949 . S
H1098 C1104 0.950 . S
H1099 C1105 0.950 . S
H1100 C1106 0.949 . S
C1101 H1096 0.950 . S
C1101 C1103 1.327 . S
C1101 C1107 1.429 . S
C1102 C1094 1.574 . S
C1102 H1097 0.949 . S
C1102 C1108 1.368 . S
C1103 C1087 1.349 . S
C1103 H1095 0.950 . S
C1103 C1101 1.327 . S
C1104 C1092 1.349 . S
C1104 H1098 0.950 . S
C1104 C1105 1.327 . S
C1105 H1099 0.950 . S
C1105 C1104 1.327 . S
C1105 C1109 1.429 . S
C1106 C1089 1.574 . S
C1106 H1100 0.949 . S
C1106 C1110 1.368 . S
C1107 C1088 1.429 . S
C1107 C1101 1.429 . S
C1107 C1108 1.523 . S
C1108 C1089 1.368 . S
C1108 C1102 1.368 . S
C1108 C1107 1.523 . S
C1109 C1093 1.429 . S
C1109 C1105 1.429 . S
C1109 C1110 1.523 . S
C1110 C1094 1.368 . S
C1110 C1106 1.368 . S
C1110 C1109 1.523 . S
H1111 C1086 0.950 . S
H1112 C1088 0.950 . S
H1113 C1089 0.949 . S
H1114 C1091 0.950 . S
H1115 C1093 0.950 . S
C1116 C1117 1.349 . S
C1116 C1118 1.327 . S
C1116 H1141 0.950 . S
C1117 C1116 1.349 . S
C1117 C1133 1.349 . S
C1118 C1116 1.327 . S
C1118 C1137 1.429 . S
C1118 H1142 0.950 . S
C1119 C1136 1.574 1_565 S
C1119 C1138 1.368 . S
C1119 H1143 0.949 . S
H1120 C1124 0.949 . S
C1121 C1122 1.349 . S
C1121 C1123 1.327 . S
C1121 H1144 0.950 . S
C1122 C1121 1.349 . S
C1122 C1134 1.349 . S
C1123 C1121 1.327 . S
C1123 C1139 1.429 . S
C1123 H1145 0.950 . S
C1124 H1120 0.949 . S
C1124 C1132 1.574 1_545 S
C1124 C1140 1.368 . S
H1125 C1133 0.950 . S
H1126 C1131 0.950 . S
H1127 C1132 0.949 . S
H1128 C1134 0.950 . S
H1129 C1135 0.950 . S
H1130 C1136 0.949 . S
C1131 H1126 0.950 . S
C1131 C1133 1.327 . S
C1131 C1137 1.429 . S
C1132 C1124 1.574 1_565 S
C1132 H1127 0.949 . S
C1132 C1138 1.368 . S
C1133 C1117 1.349 . S
C1133 H1125 0.950 . S
C1133 C1131 1.327 . S
C1134 C1122 1.349 . S
C1134 H1128 0.950 . S
C1134 C1135 1.327 . S
C1135 H1129 0.950 . S
C1135 C1134 1.327 . S
C1135 C1139 1.429 . S
C1136 C1119 1.574 1_545 S
C1136 H1130 0.949 . S
C1136 C1140 1.368 . S
C1137 C1118 1.429 . S
C1137 C1131 1.429 . S
C1137 C1138 1.523 . S
C1138 C1119 1.368 . S
C1138 C1132 1.368 . S
C1138 C1137 1.523 . S
C1139 C1123 1.429 . S
C1139 C1135 1.429 . S
C1139 C1140 1.523 . S
C1140 C1124 1.368 . S
C1140 C1136 1.368 . S
C1140 C1139 1.523 . S
H1141 C1116 0.950 . S
H1142 C1118 0.950 . S
H1143 C1119 0.949 . S
H1144 C1121 0.950 . S
H1145 C1123 0.950 . S
C1146 C1147 1.349 . S
C1146 C1148 1.327 . S
C1146 H1171 0.950 . S
C1147 C1146 1.349 . S
C1147 C1163 1.349 . S
C1148 C1146 1.327 . S
C1148 C1167 1.429 . S
C1148 H1172 0.950 . S
C1149 C1166 1.574 1_455 S
C1149 C1168 1.368 . S
C1149 H1173 0.949 . S
H1150 C1154 0.949 . S
C1151 C1152 1.349 . S
C1151 C1153 1.327 . S
C1151 H1174 0.950 . S
C1152 C1151 1.349 . S
C1152 C1164 1.349 . S
C1153 C1151 1.327 . S
C1153 C1169 1.429 . S
C1153 H1175 0.950 . S
C1154 H1150 0.949 . S
C1154 C1162 1.574 1_655 S
C1154 C1170 1.368 . S
H1155 C1163 0.950 . S
H1156 C1161 0.950 . S
H1157 C1162 0.949 . S
H1158 C1164 0.950 . S
H1159 C1165 0.950 . S
H1160 C1166 0.949 . S
C1161 H1156 0.950 . S
C1161 C1163 1.327 . S
C1161 C1167 1.429 . S
C1162 C1154 1.574 1_455 S
C1162 H1157 0.949 . S
C1162 C1168 1.368 . S
C1163 C1147 1.349 . S
C1163 H1155 0.950 . S
C1163 C1161 1.327 . S
C1164 C1152 1.349 . S
C1164 H1158 0.950 . S
C1164 C1165 1.327 . S
C1165 H1159 0.950 . S
C1165 C1164 1.327 . S
C1165 C1169 1.429 . S
C1166 C1149 1.574 1_655 S
C1166 H1160 0.949 . S
C1166 C1170 1.368 . S
C1167 C1148 1.429 . S
C1167 C1161 1.429 . S
C1167 C1168 1.523 . S
C1168 C1149 1.368 . S
C1168 C1162 1.368 . S
C1168 C1167 1.523 . S
C1169 C1153 1.429 . S
C1169 C1165 1.429 . S
C1169 C1170 1.523 . S
C1170 C1154 1.368 . S
C1170 C1166 1.368 . S
C1170 C1169 1.523 . S
H1171 C1146 0.950 . S
H1172 C1148 0.950 . S
H1173 C1149 0.949 . S
H1174 C1151 0.950 . S
H1175 C1153 0.950 . S
C1176 C1177 1.349 . S
C1176 C1178 1.327 . S
C1176 H1201 0.950 . S
C1177 C1176 1.349 . S
C1177 C1193 1.349 . S
C1178 C1176 1.327 . S
C1178 C1197 1.429 . S
C1178 H1202 0.950 . S
C1179 C1196 1.574 1_565 S
C1179 C1198 1.368 . S
C1179 H1203 0.949 . S
H1180 C1184 0.949 . S
C1181 C1182 1.349 . S
C1181 C1183 1.327 . S
C1181 H1204 0.950 . S
C1182 C1181 1.349 . S
C1182 C1194 1.349 . S
C1183 C1181 1.327 . S
C1183 C1199 1.429 . S
C1183 H1205 0.950 . S
C1184 H1180 0.949 . S
C1184 C1192 1.574 1_545 S
C1184 C1200 1.368 . S
H1185 C1193 0.950 . S
H1186 C1191 0.950 . S
H1187 C1192 0.949 . S
H1188 C1194 0.950 . S
H1189 C1195 0.950 . S
H1190 C1196 0.949 . S
C1191 H1186 0.950 . S
C1191 C1193 1.327 . S
C1191 C1197 1.429 . S
C1192 C1184 1.574 1_565 S
C1192 H1187 0.949 . S
C1192 C1198 1.368 . S
C1193 C1177 1.349 . S
C1193 H1185 0.950 . S
C1193 C1191 1.327 . S
C1194 C1182 1.349 . S
C1194 H1188 0.950 . S
C1194 C1195 1.327 . S
C1195 H1189 0.950 . S
C1195 C1194 1.327 . S
C1195 C1199 1.429 . S
C1196 C1179 1.574 1_545 S
C1196 H1190 0.949 . S
C1196 C1200 1.368 . S
C1197 C1178 1.429 . S
C1197 C1191 1.429 . S
C1197 C1198 1.523 . S
C1198 C1179 1.368 . S
C1198 C1192 1.368 . S
C1198 C1197 1.523 . S
C1199 C1183 1.429 . S
C1199 C1195 1.429 . S
C1199 C1200 1.523 . S
C1200 C1184 1.368 . S
C1200 C1196 1.368 . S
C1200 C1199 1.523 . S
H1201 C1176 0.950 . S
H1202 C1178 0.950 . S
H1203 C1179 0.949 . S
H1204 C1181 0.950 . S
H1205 C1183 0.950 . S
C1206 C1207 1.349 . S
C1206 C1208 1.327 . S
C1206 H1231 0.950 . S
C1207 C1206 1.349 . S
C1207 C1223 1.349 . S
C1208 C1206 1.327 . S
C1208 C1227 1.429 . S
C1208 H1232 0.950 . S
C1209 C1226 1.574 1_655 S
C1209 C1228 1.368 . S
C1209 H1233 0.949 . S
H1210 C1214 0.949 . S
C1211 C1212 1.349 . S
C1211 C1213 1.327 . S
C1211 H1234 0.950 . S
C1212 C1211 1.349 . S
C1212 C1224 1.349 . S
C1213 C1211 1.327 . S
C1213 C1229 1.429 . S
C1213 H1235 0.950 . S
C1214 H1210 0.949 . S
C1214 C1222 1.574 1_455 S
C1214 C1230 1.368 . S
H1215 C1223 0.950 . S
H1216 C1221 0.950 . S
H1217 C1222 0.949 . S
H1218 C1224 0.950 . S
H1219 C1225 0.950 . S
H1220 C1226 0.949 . S
C1221 H1216 0.950 . S
C1221 C1223 1.327 . S
C1221 C1227 1.429 . S
C1222 C1214 1.574 1_655 S
C1222 H1217 0.949 . S
C1222 C1228 1.368 . S
C1223 C1207 1.349 . S
C1223 H1215 0.950 . S
C1223 C1221 1.327 . S
C1224 C1212 1.349 . S
C1224 H1218 0.950 . S
C1224 C1225 1.327 . S
C1225 H1219 0.950 . S
C1225 C1224 1.327 . S
C1225 C1229 1.429 . S
C1226 C1209 1.574 1_455 S
C1226 H1220 0.949 . S
C1226 C1230 1.368 . S
C1227 C1208 1.429 . S
C1227 C1221 1.429 . S
C1227 C1228 1.523 . S
C1228 C1209 1.368 . S
C1228 C1222 1.368 . S
C1228 C1227 1.523 . S
C1229 C1213 1.429 . S
C1229 C1225 1.429 . S
C1229 C1230 1.523 . S
C1230 C1214 1.368 . S
C1230 C1226 1.368 . S
C1230 C1229 1.523 . S
H1231 C1206 0.950 . S
H1232 C1208 0.950 . S
H1233 C1209 0.949 . S
H1234 C1211 0.950 . S
H1235 C1213 0.950 . S
C1236 C1237 1.349 . S
C1236 C1238 1.327 . S
C1236 H1261 0.950 . S
C1237 C1236 1.349 . S
C1237 C1253 1.349 . S
C1238 C1236 1.327 . S
C1238 C1257 1.429 . S
C1238 H1262 0.950 . S
C1239 C1256 1.574 . S
C1239 C1258 1.368 . S
C1239 H1263 0.949 . S
H1240 C1244 0.949 . S
C1241 C1242 1.349 . S
C1241 C1243 1.327 . S
C1241 H1264 0.950 . S
C1242 C1241 1.349 . S
C1242 C1254 1.349 . S
C1243 C1241 1.327 . S
C1243 C1259 1.429 . S
C1243 H1265 0.950 . S
C1244 H1240 0.949 . S
C1244 C1252 1.574 . S
C1244 C1260 1.368 . S
H1245 C1253 0.950 . S
H1246 C1251 0.950 . S
H1247 C1252 0.949 . S
H1248 C1254 0.950 . S
H1249 C1255 0.950 . S
H1250 C1256 0.949 . S
C1251 H1246 0.950 . S
C1251 C1253 1.327 . S
C1251 C1257 1.429 . S
C1252 C1244 1.574 . S
C1252 H1247 0.949 . S
C1252 C1258 1.368 . S
C1253 C1237 1.349 . S
C1253 H1245 0.950 . S
C1253 C1251 1.327 . S
C1254 C1242 1.349 . S
C1254 H1248 0.950 . S
C1254 C1255 1.327 . S
C1255 H1249 0.950 . S
C1255 C1254 1.327 . S
C1255 C1259 1.429 . S
C1256 C1239 1.574 . S
C1256 H1250 0.949 . S
C1256 C1260 1.368 . S
C1257 C1238 1.429 . S
C1257 C1251 1.429 . S
C1257 C1258 1.523 . S
C1258 C1239 1.368 . S
C1258 C1252 1.368 . S
C1258 C1257 1.523 . S
C1259 C1243 1.429 . S
C1259 C1255 1.429 . S
C1259 C1260 1.523 . S
C1260 C1244 1.368 . S
C1260 C1256 1.368 . S
C1260 C1259 1.523 . S
H1261 C1236 0.950 . S
H1262 C1238 0.950 . S
H1263 C1239 0.949 . S
H1264 C1241 0.950 . S
H1265 C1243 0.950 . S
C1266 C1267 1.349 . S
C1266 C1268 1.327 . S
C1266 H1291 0.950 . S
C1267 C1266 1.349 . S
C1267 C1283 1.349 . S
C1268 C1266 1.327 . S
C1268 C1287 1.429 . S
C1268 H1292 0.950 . S
C1269 C1286 1.574 . S
C1269 C1288 1.368 . S
C1269 H1293 0.949 . S
H1270 C1274 0.949 . S
C1271 C1272 1.349 . S
C1271 C1273 1.327 . S
C1271 H1294 0.950 . S
C1272 C1271 1.349 . S
C1272 C1284 1.349 . S
C1273 C1271 1.327 . S
C1273 C1289 1.429 . S
C1273 H1295 0.950 . S
C1274 H1270 0.949 . S
C1274 C1282 1.574 . S
C1274 C1290 1.368 . S
H1275 C1283 0.950 . S
H1276 C1281 0.950 . S
H1277 C1282 0.949 . S
H1278 C1284 0.950 . S
H1279 C1285 0.950 . S
H1280 C1286 0.949 . S
C1281 H1276 0.950 . S
C1281 C1283 1.327 . S
C1281 C1287 1.429 . S
C1282 C1274 1.574 . S
C1282 H1277 0.949 . S
C1282 C1288 1.368 . S
C1283 C1267 1.349 . S
C1283 H1275 0.950 . S
C1283 C1281 1.327 . S
C1284 C1272 1.349 . S
C1284 H1278 0.950 . S
C1284 C1285 1.327 . S
C1285 H1279 0.950 . S
C1285 C1284 1.327 . S
C1285 C1289 1.429 . S
C1286 C1269 1.574 . S
C1286 H1280 0.949 . S
C1286 C1290 1.368 . S
C1287 C1268 1.429 . S
C1287 C1281 1.429 . S
C1287 C1288 1.523 . S
C1288 C1269 1.368 . S
C1288 C1282 1.368 . S
C1288 C1287 1.523 . S
C1289 C1273 1.429 . S
C1289 C1285 1.429 . S
C1289 C1290 1.523 . S
C1290 C1274 1.368 . S
C1290 C1286 1.368 . S
C1290 C1289 1.523 . S
H1291 C1266 0.950 . S
H1292 C1268 0.950 . S
H1293 C1269 0.949 . S
H1294 C1271 0.950 . S
H1295 C1273 0.950 . S
C1296 C1297 1.349 . S
C1296 C1298 1.327 . S
C1296 H1321 0.950 . S
C1297 C1296 1.349 . S
C1297 C1313 1.349 . S
C1298 C1296 1.327 . S
C1298 C1317 1.429 . S
C1298 H1322 0.950 . S
C1299 C1316 1.574 . S
C1299 C1318 1.368 . S
C1299 H1323 0.949 . S
H1300 C1304 0.949 . S
C1301 C1302 1.349 . S
C1301 C1303 1.327 . S
C1301 H1324 0.950 . S
C1302 C1301 1.349 . S
C1302 C1314 1.349 . S
C1303 C1301 1.327 . S
C1303 C1319 1.429 . S
C1303 H1325 0.950 . S
C1304 H1300 0.949 . S
C1304 C1312 1.574 . S
C1304 C1320 1.368 . S
H1305 C1313 0.950 . S
H1306 C1311 0.950 . S
H1307 C1312 0.949 . S
H1308 C1314 0.950 . S
H1309 C1315 0.950 . S
H1310 C1316 0.949 . S
C1311 H1306 0.950 . S
C1311 C1313 1.327 . S
C1311 C1317 1.429 . S
C1312 C1304 1.574 . S
C1312 H1307 0.949 . S
C1312 C1318 1.368 . S
C1313 C1297 1.349 . S
C1313 H1305 0.950 . S
C1313 C1311 1.327 . S
C1314 C1302 1.349 . S
C1314 H1308 0.950 . S
C1314 C1315 1.327 . S
C1315 H1309 0.950 . S
C1315 C1314 1.327 . S
C1315 C1319 1.429 . S
C1316 C1299 1.574 . S
C1316 H1310 0.949 . S
C1316 C1320 1.368 . S
C1317 C1298 1.429 . S
C1317 C1311 1.429 . S
C1317 C1318 1.523 . S
C1318 C1299 1.368 . S
C1318 C1312 1.368 . S
C1318 C1317 1.523 . S
C1319 C1303 1.429 . S
C1319 C1315 1.429 . S
C1319 C1320 1.523 . S
C1320 C1304 1.368 . S
C1320 C1316 1.368 . S
C1320 C1319 1.523 . S
H1321 C1296 0.950 . S
H1322 C1298 0.950 . S
H1323 C1299 0.949 . S
H1324 C1301 0.950 . S
H1325 C1303 0.950 . S
C1326 C1327 1.349 . S
C1326 C1328 1.327 . S
C1326 H1351 0.950 . S
C1327 C1326 1.349 . S
C1327 C1343 1.349 . S
C1328 C1326 1.327 . S
C1328 C1347 1.429 . S
C1328 H1352 0.950 . S
C1329 C1346 1.574 1_554 S
C1329 C1348 1.368 . S
C1329 H1353 0.949 . S
H1330 C1334 0.949 . S
C1331 C1332 1.349 . S
C1331 C1333 1.327 . S
C1331 H1354 0.950 . S
C1332 C1331 1.349 . S
C1332 C1344 1.349 . S
C1333 C1331 1.327 . S
C1333 C1349 1.429 . S
C1333 H1355 0.950 . S
C1334 H1330 0.949 . S
C1334 C1342 1.574 1_556 S
C1334 C1350 1.368 . S
H1335 C1343 0.950 . S
H1336 C1341 0.950 . S
H1337 C1342 0.949 . S
H1338 C1344 0.950 . S
H1339 C1345 0.950 . S
H1340 C1346 0.949 . S
C1341 H1336 0.950 . S
C1341 C1343 1.327 . S
C1341 C1347 1.429 . S
C1342 C1334 1.574 1_554 S
C1342 H1337 0.949 . S
C1342 C1348 1.368 . S
C1343 C1327 1.349 . S
C1343 H1335 0.950 . S
C1343 C1341 1.327 . S
C1344 C1332 1.349 . S
C1344 H1338 0.950 . S
C1344 C1345 1.327 . S
C1345 H1339 0.950 . S
C1345 C1344 1.327 . S
C1345 C1349 1.429 . S
C1346 C1329 1.574 1_556 S
C1346 H1340 0.949 . S
C1346 C1350 1.368 . S
C1347 C1328 1.429 . S
C1347 C1341 1.429 . S
C1347 C1348 1.523 . S
C1348 C1329 1.368 . S
C1348 C1342 1.368 . S
C1348 C1347 1.523 . S
C1349 C1333 1.429 . S
C1349 C1345 1.429 . S
C1349 C1350 1.523 . S
C1350 C1334 1.368 . S
C1350 C1346 1.368 . S
C1350 C1349 1.523 . S
H1351 C1326 0.950 . S
H1352 C1328 0.950 . S
H1353 C1329 0.949 . S
H1354 C1331 0.950 . S
H1355 C1333 0.950 . S
C1356 C1357 1.349 . S
C1356 C1358 1.327 . S
C1356 H1381 0.950 . S
C1357 C1356 1.349 . S
C1357 C1373 1.349 . S
C1358 C1356 1.327 . S
C1358 C1377 1.429 . S
C1358 H1382 0.950 . S
C1359 C1376 1.574 . S
C1359 C1378 1.368 . S
C1359 H1383 0.949 . S
H1360 C1364 0.949 . S
C1361 C1362 1.349 . S
C1361 C1363 1.327 . S
C1361 H1384 0.950 . S
C1362 C1361 1.349 . S
C1362 C1374 1.349 . S
C1363 C1361 1.327 . S
C1363 C1379 1.429 . S
C1363 H1385 0.950 . S
C1364 H1360 0.949 . S
C1364 C1372 1.574 . S
C1364 C1380 1.368 . S
H1365 C1373 0.950 . S
H1366 C1371 0.950 . S
H1367 C1372 0.949 . S
H1368 C1374 0.950 . S
H1369 C1375 0.950 . S
H1370 C1376 0.949 . S
C1371 H1366 0.950 . S
C1371 C1373 1.327 . S
C1371 C1377 1.429 . S
C1372 C1364 1.574 . S
C1372 H1367 0.949 . S
C1372 C1378 1.368 . S
C1373 C1357 1.349 . S
C1373 H1365 0.950 . S
C1373 C1371 1.327 . S
C1374 C1362 1.349 . S
C1374 H1368 0.950 . S
C1374 C1375 1.327 . S
C1375 H1369 0.950 . S
C1375 C1374 1.327 . S
C1375 C1379 1.429 . S
C1376 C1359 1.574 . S
C1376 H1370 0.949 . S
C1376 C1380 1.368 . S
C1377 C1358 1.429 . S
C1377 C1371 1.429 . S
C1377 C1378 1.523 . S
C1378 C1359 1.368 . S
C1378 C1372 1.368 . S
C1378 C1377 1.523 . S
C1379 C1363 1.429 . S
C1379 C1375 1.429 . S
C1379 C1380 1.523 . S
C1380 C1364 1.368 . S
C1380 C1376 1.368 . S
C1380 C1379 1.523 . S
H1381 C1356 0.950 . S
H1382 C1358 0.950 . S
H1383 C1359 0.949 . S
H1384 C1361 0.950 . S
H1385 C1363 0.950 . S
C1386 C1387 1.349 . S
C1386 C1388 1.327 . S
C1386 H1411 0.950 . S
C1387 C1386 1.349 . S
C1387 C1403 1.349 . S
C1388 C1386 1.327 . S
C1388 C1407 1.429 . S
C1388 H1412 0.950 . S
C1389 C1406 1.574 1_556 S
C1389 C1408 1.368 . S
C1389 H1413 0.949 . S
H1390 C1394 0.949 . S
C1391 C1392 1.349 . S
C1391 C1393 1.327 . S
C1391 H1414 0.950 . S
C1392 C1391 1.349 . S
C1392 C1404 1.349 . S
C1393 C1391 1.327 . S
C1393 C1409 1.429 . S
C1393 H1415 0.950 . S
C1394 H1390 0.949 . S
C1394 C1402 1.574 1_554 S
C1394 C1410 1.368 . S
H1395 C1403 0.950 . S
H1396 C1401 0.950 . S
H1397 C1402 0.949 . S
H1398 C1404 0.950 . S
H1399 C1405 0.950 . S
H1400 C1406 0.949 . S
C1401 H1396 0.950 . S
C1401 C1403 1.327 . S
C1401 C1407 1.429 . S
C1402 C1394 1.574 1_556 S
C1402 H1397 0.949 . S
C1402 C1408 1.368 . S
C1403 C1387 1.349 . S
C1403 H1395 0.950 . S
C1403 C1401 1.327 . S
C1404 C1392 1.349 . S
C1404 H1398 0.950 . S
C1404 C1405 1.327 . S
C1405 H1399 0.950 . S
C1405 C1404 1.327 . S
C1405 C1409 1.429 . S
C1406 C1389 1.574 1_554 S
C1406 H1400 0.949 . S
C1406 C1410 1.368 . S
C1407 C1388 1.429 . S
C1407 C1401 1.429 . S
C1407 C1408 1.523 . S
C1408 C1389 1.368 . S
C1408 C1402 1.368 . S
C1408 C1407 1.523 . S
C1409 C1393 1.429 . S
C1409 C1405 1.429 . S
C1409 C1410 1.523 . S
C1410 C1394 1.368 . S
C1410 C1406 1.368 . S
C1410 C1409 1.523 . S
H1411 C1386 0.950 . S
H1412 C1388 0.950 . S
H1413 C1389 0.949 . S
H1414 C1391 0.950 . S
H1415 C1393 0.950 . S
C1416 C1417 1.349 . S
C1416 C1418 1.327 . S
C1416 H1441 0.950 . S
C1417 C1416 1.349 . S
C1417 C1433 1.349 . S
C1418 C1416 1.327 . S
C1418 C1437 1.429 . S
C1418 H1442 0.950 . S
C1419 C1436 1.574 . S
C1419 C1438 1.368 . S
C1419 H1443 0.949 . S
H1420 C1424 0.949 . S
C1421 C1422 1.349 . S
C1421 C1423 1.327 . S
C1421 H1444 0.950 . S
C1422 C1421 1.349 . S
C1422 C1434 1.349 . S
C1423 C1421 1.327 . S
C1423 C1439 1.429 . S
C1423 H1445 0.950 . S
C1424 H1420 0.949 . S
C1424 C1432 1.574 . S
C1424 C1440 1.368 . S
H1425 C1433 0.950 . S
H1426 C1431 0.950 . S
H1427 C1432 0.949 . S
H1428 C1434 0.950 . S
H1429 C1435 0.950 . S
H1430 C1436 0.949 . S
C1431 H1426 0.950 . S
C1431 C1433 1.327 . S
C1431 C1437 1.429 . S
C1432 C1424 1.574 . S
C1432 H1427 0.949 . S
C1432 C1438 1.368 . S
C1433 C1417 1.349 . S
C1433 H1425 0.950 . S
C1433 C1431 1.327 . S
C1434 C1422 1.349 . S
C1434 H1428 0.950 . S
C1434 C1435 1.327 . S
C1435 H1429 0.950 . S
C1435 C1434 1.327 . S
C1435 C1439 1.429 . S
C1436 C1419 1.574 . S
C1436 H1430 0.949 . S
C1436 C1440 1.368 . S
C1437 C1418 1.429 . S
C1437 C1431 1.429 . S
C1437 C1438 1.523 . S
C1438 C1419 1.368 . S
C1438 C1432 1.368 . S
C1438 C1437 1.523 . S
C1439 C1423 1.429 . S
C1439 C1435 1.429 . S
C1439 C1440 1.523 . S
C1440 C1424 1.368 . S
C1440 C1436 1.368 . S
C1440 C1439 1.523 . S
H1441 C1416 0.950 . S
H1442 C1418 0.950 . S
H1443 C1419 0.949 . S
H1444 C1421 0.950 . S
H1445 C1423 0.950 . S
C1446 C1447 1.349 . S
C1446 C1448 1.327 . S
C1446 H1471 0.950 . S
C1447 C1446 1.349 . S
C1447 C1463 1.349 . S
C1448 C1446 1.327 . S
C1448 C1467 1.429 . S
C1448 H1472 0.950 . S
C1449 C1466 1.574 . S
C1449 C1468 1.368 . S
C1449 H1473 0.949 . S
H1450 C1454 0.949 . S
C1451 C1452 1.349 . S
C1451 C1453 1.327 . S
C1451 H1474 0.950 . S
C1452 C1451 1.349 . S
C1452 C1464 1.349 . S
C1453 C1451 1.327 . S
C1453 C1469 1.429 . S
C1453 H1475 0.950 . S
C1454 H1450 0.949 . S
C1454 C1462 1.574 . S
C1454 C1470 1.368 . S
H1455 C1463 0.950 . S
H1456 C1461 0.950 . S
H1457 C1462 0.949 . S
H1458 C1464 0.950 . S
H1459 C1465 0.950 . S
H1460 C1466 0.949 . S
C1461 H1456 0.950 . S
C1461 C1463 1.327 . S
C1461 C1467 1.429 . S
C1462 C1454 1.574 . S
C1462 H1457 0.949 . S
C1462 C1468 1.368 . S
C1463 C1447 1.349 . S
C1463 H1455 0.950 . S
C1463 C1461 1.327 . S
C1464 C1452 1.349 . S
C1464 H1458 0.950 . S
C1464 C1465 1.327 . S
C1465 H1459 0.950 . S
C1465 C1464 1.327 . S
C1465 C1469 1.429 . S
C1466 C1449 1.574 . S
C1466 H1460 0.949 . S
C1466 C1470 1.368 . S
C1467 C1448 1.429 . S
C1467 C1461 1.429 . S
C1467 C1468 1.523 . S
C1468 C1449 1.368 . S
C1468 C1462 1.368 . S
C1468 C1467 1.523 . S
C1469 C1453 1.429 . S
C1469 C1465 1.429 . S
C1469 C1470 1.523 . S
C1470 C1454 1.368 . S
C1470 C1466 1.368 . S
C1470 C1469 1.523 . S
H1471 C1446 0.950 . S
H1472 C1448 0.950 . S
H1473 C1449 0.949 . S
H1474 C1451 0.950 . S
H1475 C1453 0.950 . S
C1476 C1477 1.349 . S
C1476 C1478 1.327 . S
C1476 H1501 0.950 . S
C1477 C1476 1.349 . S
C1477 C1493 1.349 . S
C1478 C1476 1.327 . S
C1478 C1497 1.429 . S
C1478 H1502 0.950 . S
C1479 C1496 1.574 1_545 S
C1479 C1498 1.368 . S
C1479 H1503 0.949 . S
H1480 C1484 0.949 . S
C1481 C1482 1.349 . S
C1481 C1483 1.327 . S
C1481 H1504 0.950 . S
C1482 C1481 1.349 . S
C1482 C1494 1.349 . S
C1483 C1481 1.327 . S
C1483 C1499 1.429 . S
C1483 H1505 0.950 . S
C1484 H1480 0.949 . S
C1484 C1492 1.574 1_565 S
C1484 C1500 1.368 . S
H1485 C1493 0.950 . S
H1486 C1491 0.950 . S
H1487 C1492 0.949 . S
H1488 C1494 0.950 . S
H1489 C1495 0.950 . S
H1490 C1496 0.949 . S
C1491 H1486 0.950 . S
C1491 C1493 1.327 . S
C1491 C1497 1.429 . S
C1492 C1484 1.574 1_545 S
C1492 H1487 0.949 . S
C1492 C1498 1.368 . S
C1493 C1477 1.349 . S
C1493 H1485 0.950 . S
C1493 C1491 1.327 . S
C1494 C1482 1.349 . S
C1494 H1488 0.950 . S
C1494 C1495 1.327 . S
C1495 H1489 0.950 . S
C1495 C1494 1.327 . S
C1495 C1499 1.429 . S
C1496 C1479 1.574 1_565 S
C1496 H1490 0.949 . S
C1496 C1500 1.368 . S
C1497 C1478 1.429 . S
C1497 C1491 1.429 . S
C1497 C1498 1.523 . S
C1498 C1479 1.368 . S
C1498 C1492 1.368 . S
C1498 C1497 1.523 . S
C1499 C1483 1.429 . S
C1499 C1495 1.429 . S
C1499 C1500 1.523 . S
C1500 C1484 1.368 . S
C1500 C1496 1.368 . S
C1500 C1499 1.523 . S
H1501 C1476 0.950 . S
H1502 C1478 0.950 . S
H1503 C1479 0.949 . S
H1504 C1481 0.950 . S
H1505 C1483 0.950 . S
C1506 C1507 1.349 . S
C1506 C1508 1.327 . S
C1506 H1531 0.950 . S
C1507 C1506 1.349 . S
C1507 C1523 1.349 . S
C1508 C1506 1.327 . S
C1508 C1527 1.429 . S
C1508 H1532 0.950 . S
C1509 C1526 1.574 1_455 S
C1509 C1528 1.368 . S
C1509 H1533 0.949 . S
H1510 C1514 0.949 . S
C1511 C1512 1.349 . S
C1511 C1513 1.327 . S
C1511 H1534 0.950 . S
C1512 C1511 1.349 . S
C1512 C1524 1.349 . S
C1513 C1511 1.327 . S
C1513 C1529 1.429 . S
C1513 H1535 0.950 . S
C1514 H1510 0.949 . S
C1514 C1522 1.574 1_655 S
C1514 C1530 1.368 . S
H1515 C1523 0.950 . S
H1516 C1521 0.950 . S
H1517 C1522 0.949 . S
H1518 C1524 0.950 . S
H1519 C1525 0.950 . S
H1520 C1526 0.949 . S
C1521 H1516 0.950 . S
C1521 C1523 1.327 . S
C1521 C1527 1.429 . S
C1522 C1514 1.574 1_455 S
C1522 H1517 0.949 . S
C1522 C1528 1.368 . S
C1523 C1507 1.349 . S
C1523 H1515 0.950 . S
C1523 C1521 1.327 . S
C1524 C1512 1.349 . S
C1524 H1518 0.950 . S
C1524 C1525 1.327 . S
C1525 H1519 0.950 . S
C1525 C1524 1.327 . S
C1525 C1529 1.429 . S
C1526 C1509 1.574 1_655 S
C1526 H1520 0.949 . S
C1526 C1530 1.368 . S
C1527 C1508 1.429 . S
C1527 C1521 1.429 . S
C1527 C1528 1.523 . S
C1528 C1509 1.368 . S
C1528 C1522 1.368 . S
C1528 C1527 1.523 . S
C1529 C1513 1.429 . S
C1529 C1525 1.429 . S
C1529 C1530 1.523 . S
C1530 C1514 1.368 . S
C1530 C1526 1.368 . S
C1530 C1529 1.523 . S
H1531 C1506 0.950 . S
H1532 C1508 0.950 . S
H1533 C1509 0.949 . S
H1534 C1511 0.950 . S
H1535 C1513 0.950 . S
C1536 C1537 1.349 . S
C1536 C1538 1.327 . S
C1536 H1561 0.950 . S
C1537 C1536 1.349 . S
C1537 C1553 1.349 . S
C1538 C1536 1.327 . S
C1538 C1557 1.429 . S
C1538 H1562 0.950 . S
C1539 C1556 1.574 1_545 S
C1539 C1558 1.368 . S
C1539 H1563 0.949 . S
H1540 C1544 0.949 . S
C1541 C1542 1.349 . S
C1541 C1543 1.327 . S
C1541 H1564 0.950 . S
C1542 C1541 1.349 . S
C1542 C1554 1.349 . S
C1543 C1541 1.327 . S
C1543 C1559 1.429 . S
C1543 H1565 0.950 . S
C1544 H1540 0.949 . S
C1544 C1552 1.574 1_565 S
C1544 C1560 1.368 . S
H1545 C1553 0.950 . S
H1546 C1551 0.950 . S
H1547 C1552 0.949 . S
H1548 C1554 0.950 . S
H1549 C1555 0.950 . S
H1550 C1556 0.949 . S
C1551 H1546 0.950 . S
C1551 C1553 1.327 . S
C1551 C1557 1.429 . S
C1552 C1544 1.574 1_545 S
C1552 H1547 0.949 . S
C1552 C1558 1.368 . S
C1553 C1537 1.349 . S
C1553 H1545 0.950 . S
C1553 C1551 1.327 . S
C1554 C1542 1.349 . S
C1554 H1548 0.950 . S
C1554 C1555 1.327 . S
C1555 H1549 0.950 . S
C1555 C1554 1.327 . S
C1555 C1559 1.429 . S
C1556 C1539 1.574 1_565 S
C1556 H1550 0.949 . S
C1556 C1560 1.368 . S
C1557 C1538 1.429 . S
C1557 C1551 1.429 . S
C1557 C1558 1.523 . S
C1558 C1539 1.368 . S
C1558 C1552 1.368 . S
C1558 C1557 1.523 . S
C1559 C1543 1.429 . S
C1559 C1555 1.429 . S
C1559 C1560 1.523 . S
C1560 C1544 1.368 . S
C1560 C1556 1.368 . S
C1560 C1559 1.523 . S
H1561 C1536 0.950 . S
H1562 C1538 0.950 . S
H1563 C1539 0.949 . S
H1564 C1541 0.950 . S
H1565 C1543 0.950 . S
C1566 C1567 1.349 . S
C1566 C1568 1.327 . S
C1566 H1591 0.950 . S
C1567 C1566 1.349 . S
C1567 C1583 1.349 . S
C1568 C1566 1.327 . S
C1568 C1587 1.429 . S
C1568 H1592 0.950 . S
C1569 C1586 1.574 1_455 S
C1569 C1588 1.368 . S
C1569 H1593 0.949 . S
H1570 C1574 0.949 . S
C1571 C1572 1.349 . S
C1571 C1573 1.327 . S
C1571 H1594 0.950 . S
C1572 C1571 1.349 . S
C1572 C1584 1.349 . S
C1573 C1571 1.327 . S
C1573 C1589 1.429 . S
C1573 H1595 0.950 . S
C1574 H1570 0.949 . S
C1574 C1582 1.574 1_655 S
C1574 C1590 1.368 . S
H1575 C1583 0.950 . S
H1576 C1581 0.950 . S
H1577 C1582 0.949 . S
H1578 C1584 0.950 . S
H1579 C1585 0.950 . S
H1580 C1586 0.949 . S
C1581 H1576 0.950 . S
C1581 C1583 1.327 . S
C1581 C1587 1.429 . S
C1582 C1574 1.574 1_455 S
C1582 H1577 0.949 . S
C1582 C1588 1.368 . S
C1583 C1567 1.349 . S
C1583 H1575 0.950 . S
C1583 C1581 1.327 . S
C1584 C1572 1.349 . S
C1584 H1578 0.950 . S
C1584 C1585 1.327 . S
C1585 H1579 0.950 . S
C1585 C1584 1.327 . S
C1585 C1589 1.429 . S
C1586 C1569 1.574 1_655 S
C1586 H1580 0.949 . S
C1586 C1590 1.368 . S
C1587 C1568 1.429 . S
C1587 C1581 1.429 . S
C1587 C1588 1.523 . S
C1588 C1569 1.368 . S
C1588 C1582 1.368 . S
C1588 C1587 1.523 . S
C1589 C1573 1.429 . S
C1589 C1585 1.429 . S
C1589 C1590 1.523 . S
C1590 C1574 1.368 . S
C1590 C1586 1.368 . S
C1590 C1589 1.523 . S
H1591 C1566 0.950 . S
H1592 C1568 0.950 . S
H1593 C1569 0.949 . S
H1594 C1571 0.950 . S
H1595 C1573 0.950 . S
C1596 C1597 1.349 . S
C1596 C1598 1.327 . S
C1596 H1621 0.950 . S
C1597 C1596 1.349 . S
C1597 C1613 1.349 . S
C1598 C1596 1.327 . S
C1598 C1617 1.429 . S
C1598 H1622 0.950 . S
C1599 C1616 1.574 . S
C1599 C1618 1.368 . S
C1599 H1623 0.949 . S
H1600 C1604 0.949 . S
C1601 C1602 1.349 . S
C1601 C1603 1.327 . S
C1601 H1624 0.950 . S
C1602 C1601 1.349 . S
C1602 C1614 1.349 . S
C1603 C1601 1.327 . S
C1603 C1619 1.429 . S
C1603 H1625 0.950 . S
C1604 H1600 0.949 . S
C1604 C1612 1.574 . S
C1604 C1620 1.368 . S
H1605 C1613 0.950 . S
H1606 C1611 0.950 . S
H1607 C1612 0.949 . S
H1608 C1614 0.950 . S
H1609 C1615 0.950 . S
H1610 C1616 0.949 . S
C1611 H1606 0.950 . S
C1611 C1613 1.327 . S
C1611 C1617 1.429 . S
C1612 C1604 1.574 . S
C1612 H1607 0.949 . S
C1612 C1618 1.368 . S
C1613 C1597 1.349 . S
C1613 H1605 0.950 . S
C1613 C1611 1.327 . S
C1614 C1602 1.349 . S
C1614 H1608 0.950 . S
C1614 C1615 1.327 . S
C1615 H1609 0.950 . S
C1615 C1614 1.327 . S
C1615 C1619 1.429 . S
C1616 C1599 1.574 . S
C1616 H1610 0.949 . S
C1616 C1620 1.368 . S
C1617 C1598 1.429 . S
C1617 C1611 1.429 . S
C1617 C1618 1.523 . S
C1618 C1599 1.368 . S
C1618 C1612 1.368 . S
C1618 C1617 1.523 . S
C1619 C1603 1.429 . S
C1619 C1615 1.429 . S
C1619 C1620 1.523 . S
C1620 C1604 1.368 . S
C1620 C1616 1.368 . S
C1620 C1619 1.523 . S
H1621 C1596 0.950 . S
H1622 C1598 0.950 . S
H1623 C1599 0.949 . S
H1624 C1601 0.950 . S
H1625 C1603 0.950 . S
C1626 C1627 1.349 . S
C1626 C1628 1.327 . S
C1626 H1651 0.950 . S
C1627 C1626 1.349 . S
C1627 C1643 1.349 . S
C1628 C1626 1.327 . S
C1628 C1647 1.429 . S
C1628 H1652 0.950 . S
C1629 C1646 1.574 . S
C1629 C1648 1.368 . S
C1629 H1653 0.949 . S
H1630 C1634 0.949 . S
C1631 C1632 1.349 . S
C1631 C1633 1.327 . S
C1631 H1654 0.950 . S
C1632 C1631 1.349 . S
C1632 C1644 1.349 . S
C1633 C1631 1.327 . S
C1633 C1649 1.429 . S
C1633 H1655 0.950 . S
C1634 H1630 0.949 . S
C1634 C1642 1.574 . S
C1634 C1650 1.368 . S
H1635 C1643 0.950 . S
H1636 C1641 0.950 . S
H1637 C1642 0.949 . S
H1638 C1644 0.950 . S
H1639 C1645 0.950 . S
H1640 C1646 0.949 . S
C1641 H1636 0.950 . S
C1641 C1643 1.327 . S
C1641 C1647 1.429 . S
C1642 C1634 1.574 . S
C1642 H1637 0.949 . S
C1642 C1648 1.368 . S
C1643 C1627 1.349 . S
C1643 H1635 0.950 . S
C1643 C1641 1.327 . S
C1644 C1632 1.349 . S
C1644 H1638 0.950 . S
C1644 C1645 1.327 . S
C1645 H1639 0.950 . S
C1645 C1644 1.327 . S
C1645 C1649 1.429 . S
C1646 C1629 1.574 . S
C1646 H1640 0.949 . S
C1646 C1650 1.368 . S
C1647 C1628 1.429 . S
C1647 C1641 1.429 . S
C1647 C1648 1.523 . S
C1648 C1629 1.368 . S
C1648 C1642 1.368 . S
C1648 C1647 1.523 . S
C1649 C1633 1.429 . S
C1649 C1645 1.429 . S
C1649 C1650 1.523 . S
C1650 C1634 1.368 . S
C1650 C1646 1.368 . S
C1650 C1649 1.523 . S
H1651 C1626 0.950 . S
H1652 C1628 0.950 . S
H1653 C1629 0.949 . S
H1654 C1631 0.950 . S
H1655 C1633 0.950 . S
C1656 C1657 1.349 . S
C1656 C1658 1.327 . S
C1656 H1681 0.950 . S
C1657 C1656 1.349 . S
C1657 C1673 1.349 . S
C1658 C1656 1.327 . S
C1658 C1677 1.429 . S
C1658 H1682 0.950 . S
C1659 C1676 1.574 . S
C1659 C1678 1.368 . S
C1659 H1683 0.949 . S
H1660 C1664 0.949 . S
C1661 C1662 1.349 . S
C1661 C1663 1.327 . S
C1661 H1684 0.950 . S
C1662 C1661 1.349 . S
C1662 C1674 1.349 . S
C1663 C1661 1.327 . S
C1663 C1679 1.429 . S
C1663 H1685 0.950 . S
C1664 H1660 0.949 . S
C1664 C1672 1.574 . S
C1664 C1680 1.368 . S
H1665 C1673 0.950 . S
H1666 C1671 0.950 . S
H1667 C1672 0.949 . S
H1668 C1674 0.950 . S
H1669 C1675 0.950 . S
H1670 C1676 0.949 . S
C1671 H1666 0.950 . S
C1671 C1673 1.327 . S
C1671 C1677 1.429 . S
C1672 C1664 1.574 . S
C1672 H1667 0.949 . S
C1672 C1678 1.368 . S
C1673 C1657 1.349 . S
C1673 H1665 0.950 . S
C1673 C1671 1.327 . S
C1674 C1662 1.349 . S
C1674 H1668 0.950 . S
C1674 C1675 1.327 . S
C1675 H1669 0.950 . S
C1675 C1674 1.327 . S
C1675 C1679 1.429 . S
C1676 C1659 1.574 . S
C1676 H1670 0.949 . S
C1676 C1680 1.368 . S
C1677 C1658 1.429 . S
C1677 C1671 1.429 . S
C1677 C1678 1.523 . S
C1678 C1659 1.368 . S
C1678 C1672 1.368 . S
C1678 C1677 1.523 . S
C1679 C1663 1.429 . S
C1679 C1675 1.429 . S
C1679 C1680 1.523 . S
C1680 C1664 1.368 . S
C1680 C1676 1.368 . S
C1680 C1679 1.523 . S
H1681 C1656 0.950 . S
H1682 C1658 0.950 . S
H1683 C1659 0.949 . S
H1684 C1661 0.950 . S
H1685 C1663 0.950 . S
C1686 C1687 1.349 . S
C1686 C1688 1.327 . S
C1686 H1711 0.950 . S
C1687 C1686 1.349 . S
C1687 C1703 1.349 . S
C1688 C1686 1.327 . S
C1688 C1707 1.429 . S
C1688 H1712 0.950 . S
C1689 C1706 1.574 1_554 S
C1689 C1708 1.368 . S
C1689 H1713 0.949 . S
H1690 C1694 0.949 . S
C1691 C1692 1.349 . S
C1691 C1693 1.327 . S
C1691 H1714 0.950 . S
C1692 C1691 1.349 . S
C1692 C1704 1.349 . S
C1693 C1691 1.327 . S
C1693 C1709 1.429 . S
C1693 H1715 0.950 . S
C1694 H1690 0.949 . S
C1694 C1702 1.574 1_556 S
C1694 C1710 1.368 . S
H1695 C1703 0.950 . S
H1696 C1701 0.950 . S
H1697 C1702 0.949 . S
H1698 C1704 0.950 . S
H1699 C1705 0.950 . S
H1700 C1706 0.949 . S
C1701 H1696 0.950 . S
C1701 C1703 1.327 . S
C1701 C1707 1.429 . S
C1702 C1694 1.574 1_554 S
C1702 H1697 0.949 . S
C1702 C1708 1.368 . S
C1703 C1687 1.349 . S
C1703 H1695 0.950 . S
C1703 C1701 1.327 . S
C1704 C1692 1.349 . S
C1704 H1698 0.950 . S
C1704 C1705 1.327 . S
C1705 H1699 0.950 . S
C1705 C1704 1.327 . S
C1705 C1709 1.429 . S
C1706 C1689 1.574 1_556 S
C1706 H1700 0.949 . S
C1706 C1710 1.368 . S
C1707 C1688 1.429 . S
C1707 C1701 1.429 . S
C1707 C1708 1.523 . S
C1708 C1689 1.368 . S
C1708 C1702 1.368 . S
C1708 C1707 1.523 . S
C1709 C1693 1.429 . S
C1709 C1705 1.429 . S
C1709 C1710 1.523 . S
C1710 C1694 1.368 . S
C1710 C1706 1.368 . S
C1710 C1709 1.523 . S
H1711 C1686 0.950 . S
H1712 C1688 0.950 . S
H1713 C1689 0.949 . S
H1714 C1691 0.950 . S
H1715 C1693 0.950 . S
C1716 C1717 1.349 . S
C1716 C1718 1.327 . S
C1716 H1741 0.950 . S
C1717 C1716 1.349 . S
C1717 C1733 1.349 . S
C1718 C1716 1.327 . S
C1718 C1737 1.429 . S
C1718 H1742 0.950 . S
C1719 C1736 1.574 . S
C1719 C1738 1.368 . S
C1719 H1743 0.949 . S
H1720 C1724 0.949 . S
C1721 C1722 1.349 . S
C1721 C1723 1.327 . S
C1721 H1744 0.950 . S
C1722 C1721 1.349 . S
C1722 C1734 1.349 . S
C1723 C1721 1.327 . S
C1723 C1739 1.429 . S
C1723 H1745 0.950 . S
C1724 H1720 0.949 . S
C1724 C1732 1.574 . S
C1724 C1740 1.368 . S
H1725 C1733 0.950 . S
H1726 C1731 0.950 . S
H1727 C1732 0.949 . S
H1728 C1734 0.950 . S
H1729 C1735 0.950 . S
H1730 C1736 0.949 . S
C1731 H1726 0.950 . S
C1731 C1733 1.327 . S
C1731 C1737 1.429 . S
C1732 C1724 1.574 . S
C1732 H1727 0.949 . S
C1732 C1738 1.368 . S
C1733 C1717 1.349 . S
C1733 H1725 0.950 . S
C1733 C1731 1.327 . S
C1734 C1722 1.349 . S
C1734 H1728 0.950 . S
C1734 C1735 1.327 . S
C1735 H1729 0.950 . S
C1735 C1734 1.327 . S
C1735 C1739 1.429 . S
C1736 C1719 1.574 . S
C1736 H1730 0.949 . S
C1736 C1740 1.368 . S
C1737 C1718 1.429 . S
C1737 C1731 1.429 . S
C1737 C1738 1.523 . S
C1738 C1719 1.368 . S
C1738 C1732 1.368 . S
C1738 C1737 1.523 . S
C1739 C1723 1.429 . S
C1739 C1735 1.429 . S
C1739 C1740 1.523 . S
C1740 C1724 1.368 . S
C1740 C1736 1.368 . S
C1740 C1739 1.523 . S
H1741 C1716 0.950 . S
H1742 C1718 0.950 . S
H1743 C1719 0.949 . S
H1744 C1721 0.950 . S
H1745 C1723 0.950 . S
C1746 C1747 1.349 . S
C1746 C1748 1.327 . S
C1746 H1771 0.950 . S
C1747 C1746 1.349 . S
C1747 C1763 1.349 . S
C1748 C1746 1.327 . S
C1748 C1767 1.429 . S
C1748 H1772 0.950 . S
C1749 C1766 1.574 1_554 S
C1749 C1768 1.368 . S
C1749 H1773 0.949 . S
H1750 C1754 0.949 . S
C1751 C1752 1.349 . S
C1751 C1753 1.327 . S
C1751 H1774 0.950 . S
C1752 C1751 1.349 . S
C1752 C1764 1.349 . S
C1753 C1751 1.327 . S
C1753 C1769 1.429 . S
C1753 H1775 0.950 . S
C1754 H1750 0.949 . S
C1754 C1762 1.574 1_556 S
C1754 C1770 1.368 . S
H1755 C1763 0.950 . S
H1756 C1761 0.950 . S
H1757 C1762 0.949 . S
H1758 C1764 0.950 . S
H1759 C1765 0.950 . S
H1760 C1766 0.949 . S
C1761 H1756 0.950 . S
C1761 C1763 1.327 . S
C1761 C1767 1.429 . S
C1762 C1754 1.574 1_554 S
C1762 H1757 0.949 . S
C1762 C1768 1.368 . S
C1763 C1747 1.349 . S
C1763 H1755 0.950 . S
C1763 C1761 1.327 . S
C1764 C1752 1.349 . S
C1764 H1758 0.950 . S
C1764 C1765 1.327 . S
C1765 H1759 0.950 . S
C1765 C1764 1.327 . S
C1765 C1769 1.429 . S
C1766 C1749 1.574 1_556 S
C1766 H1760 0.949 . S
C1766 C1770 1.368 . S
C1767 C1748 1.429 . S
C1767 C1761 1.429 . S
C1767 C1768 1.523 . S
C1768 C1749 1.368 . S
C1768 C1762 1.368 . S
C1768 C1767 1.523 . S
C1769 C1753 1.429 . S
C1769 C1765 1.429 . S
C1769 C1770 1.523 . S
C1770 C1754 1.368 . S
C1770 C1766 1.368 . S
C1770 C1769 1.523 . S
H1771 C1746 0.950 . S
H1772 C1748 0.950 . S
H1773 C1749 0.949 . S
H1774 C1751 0.950 . S
H1775 C1753 0.950 . S
C337 C57 1.450 . S
C342 C13 1.450 . S
C367 C15 1.450 . S
C372 C71 1.450 . S
C397 C97 1.450 . S
C402 C40 1.450 . S
C427 C99 1.450 . S
C432 C43 1.450 . S
C457 C208 1.450 . S
C462 C112 1.450 . S
C487 C210 1.450 . S
C492 C127 1.450 . S
C517 C141 1.450 . S
C522 C168 1.450 . S
C547 C182 1.450 . S
C552 C154 1.450 . S
C577 C224 1.450 . S
C582 C295 1.450 . S
C607 C251 1.450 . S
C612 C266 1.450 . S
C637 C252 1.450 . S
C642 C293 1.450 . S
C667 C320 1.450 . S
C672 C322 1.450 . S
C697 C55 1.450 . S
C702 C83 1.450 . S
C727 C1 1.450 . S
C732 C85 1.450 . S
C757 C111 1.450 . S
C762 C27 1.450 . S
C787 C28 1.450 . S
C792 C69 1.450 . S
C817 C334 1.450 . S
C822 C264 1.450 . S
C847 C278 1.450 . S
C852 C307 1.450 . S
C877 C281 1.450 . S
C882 C308 1.450 . S
C907 C239 1.450 . S
C912 C236 1.450 . S
C937 C166 1.450 . S
C942 C139 1.450 . S
C967 C222 1.450 . S
C972 C194 1.450 . S
C997 C180 1.450 . S
C1002 C196 1.450 . S
C1027 C153 1.450 . S
C1032 C124 1.450 . S
C1057 C321 1.475 . S
C1062 C12 1.475 . S
C1087 C225 1.475 . S
C1092 C14 1.475 . S
C1117 C323 1.475 . S
C1122 C41 1.475 . S
C1147 C294 1.475 . S
C1152 C42 1.475 . S
C1177 C253 1.475 . S
C1182 C56 1.475 . S
C1207 C70 1.475 . S
C1212 C267 1.475 . S
C1237 C292 1.475 . S
C1242 C96 1.475 . S
C1267 C250 1.475 . S
C1272 C98 1.475 . S
C1297 C183 1.475 . S
C1302 C113 1.475 . S
C1327 C209 1.475 . S
C1332 C126 1.475 . S
C1357 C211 1.475 . S
C1362 C140 1.475 . S
C1387 C155 1.475 . S
C1392 C169 1.475 . S
C1417 C82 1.475 . S
C1422 C152 1.475 . S
C1447 C84 1.475 . S
C1452 C167 1.475 . S
C1477 C125 1.475 . S
C1482 C110 1.475 . S
C1507 C68 1.475 . S
C1512 C138 1.475 . S
C1537 C197 1.475 . S
C1542 C54 1.475 . S
C1567 C0 1.475 . S
C1572 C223 1.475 . S
C1597 C181 1.475 . S
C1602 C26 1.475 . S
C1627 C29 1.475 . S
C1632 C195 1.475 . S
C1657 C238 1.475 . S
C1662 C335 1.475 . S
C1687 C306 1.475 . S
C1692 C265 1.475 . S
C1717 C309 1.475 . S
C1722 C279 1.475 . S
C1747 C237 1.475 . S
C1752 C280 1.475 . S
