# Generated by pormake.
# Topology vbm, (6)-cn, num edge types: 1
# Building blocks:
#     Node 0, Type 0, BuildingBlock: MIFKUJ_clean_sbu_0, # of connection points: 6
#     Node 1, Type 0, BuildingBlock: MIFKUJ_clean_sbu_0, # of connection points: 6
#     Node 2, Type 0, BuildingBlock: MIFKUJ_clean_sbu_0, # of connection points: 6
#     Node 3, Type 0, BuildingBlock: MIFKUJ_clean_sbu_0, # of connection points: 6
#     Node 4, Type 0, BuildingBlock: MIFKUJ_clean_sbu_0, # of connection points: 6
#     Node 5, Type 0, BuildingBlock: MIFKUJ_clean_sbu_0, # of connection points: 6
#     Node 6, Type 0, BuildingBlock: MIFKUJ_clean_sbu_0, # of connection points: 6
#     Node 7, Type 0, BuildingBlock: MIFKUJ_clean_sbu_0, # of connection points: 6
#     Node 8, Type 0, BuildingBlock: MIFKUJ_clean_sbu_0, # of connection points: 6
#     Node 9, Type 0, BuildingBlock: MIFKUJ_clean_sbu_0, # of connection points: 6
#     Node 10, Type 0, BuildingBlock: MIFKUJ_clean_sbu_0, # of connection points: 6
#     Node 11, Type 0, BuildingBlock: MIFKUJ_clean_sbu_0, # of connection points: 6
#     Node 12, Type 0, BuildingBlock: MIFKUJ_clean_sbu_0, # of connection points: 6
#     Node 13, Type 0, BuildingBlock: MIFKUJ_clean_sbu_0, # of connection points: 6
#     Node 14, Type 0, BuildingBlock: MIFKUJ_clean_sbu_0, # of connection points: 6
#     Node 15, Type 0, BuildingBlock: MIFKUJ_clean_sbu_0, # of connection points: 6
#     Edge 16, Type (0, 0), BuildingBlock: CIFDUS_clean_linker_0, # of connection points: 2
#     Edge 17, Type (0, 0), BuildingBlock: CIFDUS_clean_linker_0, # of connection points: 2
#     Edge 18, Type (0, 0), BuildingBlock: CIFDUS_clean_linker_0, # of connection points: 2
#     Edge 19, Type (0, 0), BuildingBlock: CIFDUS_clean_linker_0, # of connection points: 2
#     Edge 20, Type (0, 0), BuildingBlock: CIFDUS_clean_linker_0, # of connection points: 2
#     Edge 21, Type (0, 0), BuildingBlock: CIFDUS_clean_linker_0, # of connection points: 2
#     Edge 22, Type (0, 0), BuildingBlock: CIFDUS_clean_linker_0, # of connection points: 2
#     Edge 23, Type (0, 0), BuildingBlock: CIFDUS_clean_linker_0, # of connection points: 2
#     Edge 24, Type (0, 0), BuildingBlock: CIFDUS_clean_linker_0, # of connection points: 2
#     Edge 25, Type (0, 0), BuildingBlock: CIFDUS_clean_linker_0, # of connection points: 2
#     Edge 26, Type (0, 0), BuildingBlock: CIFDUS_clean_linker_0, # of connection points: 2
#     Edge 27, Type (0, 0), BuildingBlock: CIFDUS_clean_linker_0, # of connection points: 2
#     Edge 28, Type (0, 0), BuildingBlock: CIFDUS_clean_linker_0, # of connection points: 2
#     Edge 29, Type (0, 0), BuildingBlock: CIFDUS_clean_linker_0, # of connection points: 2
#     Edge 30, Type (0, 0), BuildingBlock: CIFDUS_clean_linker_0, # of connection points: 2
#     Edge 31, Type (0, 0), BuildingBlock: CIFDUS_clean_linker_0, # of connection points: 2
#     Edge 32, Type (0, 0), BuildingBlock: CIFDUS_clean_linker_0, # of connection points: 2
#     Edge 33, Type (0, 0), BuildingBlock: CIFDUS_clean_linker_0, # of connection points: 2
#     Edge 34, Type (0, 0), BuildingBlock: CIFDUS_clean_linker_0, # of connection points: 2
#     Edge 35, Type (0, 0), BuildingBlock: CIFDUS_clean_linker_0, # of connection points: 2
#     Edge 36, Type (0, 0), BuildingBlock: CIFDUS_clean_linker_0, # of connection points: 2
#     Edge 37, Type (0, 0), BuildingBlock: CIFDUS_clean_linker_0, # of connection points: 2
#     Edge 38, Type (0, 0), BuildingBlock: CIFDUS_clean_linker_0, # of connection points: 2
#     Edge 39, Type (0, 0), BuildingBlock: CIFDUS_clean_linker_0, # of connection points: 2
#     Edge 40, Type (0, 0), BuildingBlock: CIFDUS_clean_linker_0, # of connection points: 2
#     Edge 41, Type (0, 0), BuildingBlock: CIFDUS_clean_linker_0, # of connection points: 2
#     Edge 42, Type (0, 0), BuildingBlock: CIFDUS_clean_linker_0, # of connection points: 2
#     Edge 43, Type (0, 0), BuildingBlock: CIFDUS_clean_linker_0, # of connection points: 2
#     Edge 44, Type (0, 0), BuildingBlock: CIFDUS_clean_linker_0, # of connection points: 2
#     Edge 45, Type (0, 0), BuildingBlock: CIFDUS_clean_linker_0, # of connection points: 2
#     Edge 46, Type (0, 0), BuildingBlock: CIFDUS_clean_linker_0, # of connection points: 2
#     Edge 47, Type (0, 0), BuildingBlock: CIFDUS_clean_linker_0, # of connection points: 2
#     Edge 48, Type (0, 0), BuildingBlock: CIFDUS_clean_linker_0, # of connection points: 2
#     Edge 49, Type (0, 0), BuildingBlock: CIFDUS_clean_linker_0, # of connection points: 2
#     Edge 50, Type (0, 0), BuildingBlock: CIFDUS_clean_linker_0, # of connection points: 2
#     Edge 51, Type (0, 0), BuildingBlock: CIFDUS_clean_linker_0, # of connection points: 2
#     Edge 52, Type (0, 0), BuildingBlock: CIFDUS_clean_linker_0, # of connection points: 2
#     Edge 53, Type (0, 0), BuildingBlock: CIFDUS_clean_linker_0, # of connection points: 2
#     Edge 54, Type (0, 0), BuildingBlock: CIFDUS_clean_linker_0, # of connection points: 2
#     Edge 55, Type (0, 0), BuildingBlock: CIFDUS_clean_linker_0, # of connection points: 2
#     Edge 56, Type (0, 0), BuildingBlock: CIFDUS_clean_linker_0, # of connection points: 2
#     Edge 57, Type (0, 0), BuildingBlock: CIFDUS_clean_linker_0, # of connection points: 2
#     Edge 58, Type (0, 0), BuildingBlock: CIFDUS_clean_linker_0, # of connection points: 2
#     Edge 59, Type (0, 0), BuildingBlock: CIFDUS_clean_linker_0, # of connection points: 2
#     Edge 60, Type (0, 0), BuildingBlock: CIFDUS_clean_linker_0, # of connection points: 2
#     Edge 61, Type (0, 0), BuildingBlock: CIFDUS_clean_linker_0, # of connection points: 2
#     Edge 62, Type (0, 0), BuildingBlock: CIFDUS_clean_linker_0, # of connection points: 2
#     Edge 63, Type (0, 0), BuildingBlock: CIFDUS_clean_linker_0, # of connection points: 2
# Relax obj value: 0.053
# Max RMSD: 0.108
# Mean RMSD: 0.108
data_MOF--net-vbm--node1-MIFKUJ_clean_sbu_0--edge1-CIFDUS_clean_linker_0
_symmetry_space_group_name_H-M    P1
_symmetry_Int_Tables_number       1
_symmetry_cell_setting            triclinic
loop_
_symmetry_equiv_pos_as_xyz
'x, y, z'
_cell_length_a     59.711428
_cell_length_b     16.968006
_cell_length_c     48.540714
_cell_angle_alpha  89.961482
_cell_angle_beta   90.031795
_cell_angle_gamma 89.776646
loop_
_atom_site_label
_atom_site_type_symbol
_atom_site_fract_x
_atom_site_fract_y
_atom_site_fract_z
_atom_type_partial_charge
Zn0 Zn 0.1443 0.20903 0.12335 0.0
Zn1 Zn 0.11209 0.98454 0.11838 0.0
C2 C 0.19038 0.25914 0.12885 0.0
O3 O 0.18146 0.32159 0.14054 0.0
C4 C 0.06651 0.93216 0.12107 0.0
O5 O 0.07477 0.86954 0.1088 0.0
O6 O 0.13461 0.32436 0.12288 0.0
O7 O 0.13143 0.14479 0.08956 0.0
O8 O 0.11505 0.02883 0.08074 0.0
C9 C 0.14052 0.37034 0.10348 0.0
O10 O 0.15172 0.34103 0.08255 0.0
O11 O 0.17774 0.20554 0.11936 0.0
C12 C 0.11744 0.8247 0.13921 0.0
O13 O 0.1042 0.85181 0.15865 0.0
O14 O 0.12423 0.87184 0.12057 0.0
O15 O 0.12727 0.06818 0.13787 0.0
O16 O 0.1396 0.16338 0.1623 0.0
O17 O 0.07944 0.98834 0.12762 0.0
C18 C 0.12268 0.09535 0.07263 0.0
C19 C 0.1323 0.09371 0.16131 0.0
Zn20 Zn 0.86928 0.79886 0.1217 0.0
Zn21 Zn 0.89128 0.00205 0.11098 0.0
C22 C 0.82242 0.76609 0.11497 0.0
O23 O 0.8305 0.71291 0.098 0.0
C24 C 0.93789 0.04323 0.11131 0.0
O25 O 0.93059 0.0994 0.09496 0.0
O26 O 0.87644 0.68438 0.1281 0.0
O27 O 0.87561 0.82106 0.0814 0.0
O28 O 0.88684 0.94436 0.07565 0.0
C29 C 0.87784 0.63439 0.10869 0.0
O30 O 0.87475 0.65744 0.08313 0.0
O31 O 0.83592 0.81144 0.12754 0.0
C32 C 0.88914 0.16757 0.1207 0.0
O33 O 0.89769 0.14579 0.14448 0.0
O34 O 0.88473 0.1154 0.10278 0.0
O35 O 0.8723 0.97533 0.14375 0.0
O36 O 0.88521 0.85661 0.15272 0.0
O37 O 0.92413 0.99306 0.12085 0.0
C38 C 0.88161 0.87752 0.06594 0.0
C39 C 0.87967 0.92512 0.16087 0.0
Zn40 Zn 0.14587 0.79255 0.34985 0.0
Zn41 Zn 0.10723 0.01358 0.35456 0.0
C42 C 0.1933 0.75325 0.34168 0.0
O43 O 0.18569 0.69471 0.3267 0.0
C44 C 0.06107 0.05927 0.36082 0.0
O45 O 0.07008 0.11437 0.37621 0.0
O46 O 0.13671 0.67609 0.35181 0.0
O47 O 0.13285 0.86184 0.38181 0.0
O48 O 0.11386 0.97182 0.39218 0.0
C49 C 0.14628 0.62651 0.36773 0.0
O50 O 0.16165 0.65175 0.38495 0.0
O51 O 0.1795 0.79964 0.3534 0.0
C52 C 0.10801 0.18103 0.3375 0.0
O53 O 0.09012 0.16029 0.32355 0.0
O54 O 0.11868 0.12846 0.35112 0.0
O55 O 0.12244 0.93015 0.33302 0.0
O56 O 0.1388 0.83557 0.31121 0.0
O57 O 0.07369 0.00882 0.34913 0.0
C58 C 0.12413 0.90882 0.39956 0.0
C59 C 0.12838 0.90079 0.31028 0.0
Zn60 Zn 0.85937 0.2078 0.36 0.0
Zn61 Zn 0.88474 0.99772 0.35732 0.0
C62 C 0.81179 0.18795 0.34382 0.0
O63 O 0.81947 0.13652 0.32594 0.0
C64 C 0.9311 0.9632 0.35773 0.0
O65 O 0.92367 0.9097 0.37497 0.0
O66 O 0.87237 0.31515 0.35888 0.0
O67 O 0.86802 0.16292 0.3978 0.0
O68 O 0.88147 0.04142 0.39461 0.0
C69 C 0.86324 0.3723 0.3714 0.0
O70 O 0.84538 0.35956 0.38654 0.0
O71 O 0.82548 0.22285 0.35972 0.0
C72 C 0.88438 0.82889 0.34676 0.0
O73 O 0.89835 0.84354 0.32651 0.0
O74 O 0.87723 0.88478 0.3617 0.0
O75 O 0.86298 0.03737 0.32981 0.0
O76 O 0.87021 0.1622 0.3233 0.0
O77 O 0.91728 0.01036 0.34637 0.0
C78 C 0.87578 0.10054 0.40892 0.0
C79 C 0.86907 0.09241 0.31405 0.0
Zn80 Zn 0.9081 0.02061 0.85508 0.0
Zn81 Zn 0.86652 0.81272 0.85655 0.0
C82 C 0.95196 0.05382 0.86761 0.0
O83 O 0.94022 0.08659 0.88745 0.0
C84 C 0.81903 0.76498 0.85682 0.0
O85 O 0.82566 0.70683 0.8409 0.0
O86 O 0.89409 0.12895 0.85467 0.0
O87 O 0.89058 0.94195 0.83581 0.0
O88 O 0.86966 0.85531 0.81695 0.0
C89 C 0.90405 0.18999 0.84585 0.0
O90 O 0.92396 0.18262 0.83462 0.0
O91 O 0.94153 0.021 0.84786 0.0
C92 C 0.87095 0.64204 0.86816 0.0
O93 O 0.85443 0.65141 0.88572 0.0
O94 O 0.87831 0.70117 0.85492 0.0
O95 O 0.88309 0.87267 0.88846 0.0
O96 O 0.90467 0.97929 0.89294 0.0
O97 O 0.83332 0.81445 0.86561 0.0
C98 C 0.88174 0.91585 0.81417 0.0
C99 C 0.89466 0.92007 0.90334 0.0
Zn100 Zn 0.13144 0.97575 0.85902 0.0
Zn101 Zn 0.13762 0.17267 0.85653 0.0
C102 C 0.08423 0.98563 0.86584 0.0
O103 O 0.09047 0.96323 0.89058 0.0
C104 C 0.18448 0.21261 0.84494 0.0
O105 O 0.17588 0.26257 0.82711 0.0
O106 O 0.13758 0.8595 0.86057 0.0
O107 O 0.15264 0.02209 0.83231 0.0
O108 O 0.12852 0.11343 0.82152 0.0
C109 C 0.12482 0.80657 0.85088 0.0
O110 O 0.10629 0.82723 0.83813 0.0
O111 O 0.09907 0.99455 0.84735 0.0
C112 C 0.13768 0.33987 0.8652 0.0
O113 O 0.15304 0.32059 0.88343 0.0
O114 O 0.12843 0.28593 0.85112 0.0
O115 O 0.12603 0.14055 0.89475 0.0
O116 O 0.1352 0.01388 0.89723 0.0
O117 O 0.17147 0.16908 0.85902 0.0
C118 C 0.14103 0.05644 0.81412 0.0
C119 C 0.12922 0.07778 0.90869 0.0
Zn120 Zn 0.88802 0.99919 0.62014 0.0
Zn121 Zn 0.86099 0.22001 0.62646 0.0
C122 C 0.93552 0.98343 0.62348 0.0
O123 O 0.93099 0.92716 0.60577 0.0
C124 C 0.81855 0.26259 0.6478 0.0
O125 O 0.83189 0.28876 0.66726 0.0
O126 O 0.88253 0.88045 0.61959 0.0
O127 O 0.86473 0.05786 0.64061 0.0
O128 O 0.8704 0.16705 0.66255 0.0
C129 C 0.89116 0.83454 0.6375 0.0
O130 O 0.90342 0.86479 0.6573 0.0
O131 O 0.91942 0.02337 0.63359 0.0
C132 C 0.86417 0.37986 0.60778 0.0
O133 O 0.85068 0.35126 0.5889 0.0
O134 O 0.87187 0.33349 0.62614 0.0
O135 O 0.87052 0.16321 0.59037 0.0
O136 O 0.88539 0.04423 0.58235 0.0
O137 O 0.82714 0.22798 0.6271 0.0
C138 C 0.87037 0.09237 0.66256 0.0
C139 C 0.87808 0.11074 0.57377 0.0
Zn140 Zn 0.11515 0.03174 0.61347 0.0
Zn141 Zn 0.1422 0.81454 0.61378 0.0
C142 C 0.06787 0.04468 0.63013 0.0
O143 O 0.07278 0.11842 0.63562 0.0
C144 C 0.18661 0.77249 0.63317 0.0
O145 O 0.17525 0.73108 0.65125 0.0
O146 O 0.11745 0.15208 0.61123 0.0
O147 O 0.13685 0.98868 0.6404 0.0
O148 O 0.13013 0.86404 0.64943 0.0
C149 C 0.12464 0.19447 0.63097 0.0
O150 O 0.1311 0.16006 0.65388 0.0
O151 O 0.08328 0.99848 0.6218 0.0
C152 C 0.13381 0.65365 0.59325 0.0
O153 O 0.13843 0.68458 0.5691 0.0
O154 O 0.13368 0.69794 0.61442 0.0
O155 O 0.13481 0.86392 0.57584 0.0
O156 O 0.12224 0.98816 0.57673 0.0
O157 O 0.17601 0.81457 0.61579 0.0
C158 C 0.1299 0.93606 0.65672 0.0
C159 C 0.12866 0.92722 0.56363 0.0
Zn160 Zn 0.64243 0.702 0.11975 0.0
Zn161 Zn 0.61423 0.49901 0.10892 0.0
C162 C 0.6891 0.73756 0.12543 0.0
O163 O 0.68115 0.78516 0.14442 0.0
C164 C 0.5696 0.48655 0.12443 0.0
O165 O 0.58005 0.4398 0.14183 0.0
O166 O 0.63573 0.81527 0.12796 0.0
O167 O 0.62574 0.67249 0.08496 0.0
O168 O 0.63272 0.54635 0.07921 0.0
C169 C 0.63577 0.86651 0.10889 0.0
O170 O 0.63933 0.844 0.08337 0.0
O171 O 0.67556 0.69509 0.11175 0.0
C172 C 0.62295 0.33315 0.12093 0.0
O173 O 0.62748 0.35811 0.14591 0.0
O174 O 0.6171 0.38239 0.10255 0.0
O175 O 0.62367 0.52238 0.14705 0.0
O176 O 0.63748 0.64149 0.15508 0.0
O177 O 0.58112 0.52353 0.10654 0.0
C178 C 0.63399 0.61678 0.07076 0.0
C179 C 0.6312 0.57405 0.16342 0.0
Zn180 Zn 0.37066 0.3014 0.12281 0.0
Zn181 Zn 0.39293 0.50848 0.11615 0.0
C182 C 0.32382 0.26654 0.13314 0.0
O183 O 0.33188 0.19743 0.14029 0.0
C184 C 0.43767 0.549 0.10698 0.0
O185 O 0.42742 0.58204 0.08595 0.0
O186 O 0.37689 0.18739 0.12769 0.0
O187 O 0.38042 0.3249 0.08395 0.0
O188 O 0.39101 0.44972 0.08141 0.0
C189 C 0.37214 0.13564 0.10981 0.0
O190 O 0.36208 0.15677 0.08686 0.0
O191 O 0.33719 0.3207 0.12565 0.0
C192 C 0.38963 0.67247 0.12324 0.0
O193 O 0.4029 0.6552 0.14399 0.0
O194 O 0.38267 0.61749 0.10785 0.0
O195 O 0.3747 0.47085 0.14778 0.0
O196 O 0.38639 0.35013 0.15532 0.0
O197 O 0.42603 0.51232 0.12479 0.0
C198 C 0.38726 0.38375 0.07023 0.0
C199 C 0.38339 0.42013 0.16365 0.0
Zn200 Zn 0.63537 0.26512 0.35512 0.0
Zn201 Zn 0.62954 0.46107 0.36382 0.0
C202 C 0.67827 0.2287 0.33326 0.0
O203 O 0.66502 0.19699 0.31473 0.0
C204 C 0.58152 0.49571 0.36617 0.0
O205 O 0.58834 0.56213 0.37712 0.0
O206 O 0.62679 0.15159 0.34862 0.0
O207 O 0.62523 0.29118 0.39387 0.0
O208 O 0.63976 0.4102 0.39858 0.0
C209 C 0.63597 0.09843 0.3633 0.0
O210 O 0.64998 0.11957 0.38281 0.0
O211 O 0.66945 0.26606 0.35327 0.0
C212 C 0.62934 0.62915 0.35064 0.0
O213 O 0.61891 0.60635 0.32819 0.0
O214 O 0.63535 0.57774 0.36828 0.0
O215 O 0.64551 0.42754 0.32986 0.0
O216 O 0.62308 0.32736 0.32297 0.0
O217 O 0.59592 0.44371 0.35931 0.0
C218 C 0.63235 0.34681 0.40903 0.0
C219 C 0.63368 0.38651 0.3137 0.0
Zn220 Zn 0.37473 0.73125 0.35059 0.0
Zn221 Zn 0.40035 0.52891 0.36367 0.0
C222 C 0.32707 0.76355 0.34967 0.0
O223 O 0.33376 0.82994 0.36076 0.0
C224 C 0.44802 0.49028 0.36228 0.0
O225 O 0.44117 0.42399 0.37331 0.0
O226 O 0.38078 0.8466 0.3444 0.0
O227 O 0.38048 0.70801 0.39097 0.0
O228 O 0.39328 0.58669 0.39812 0.0
C229 C 0.38041 0.89753 0.36357 0.0
O230 O 0.37574 0.8752 0.38883 0.0
O231 O 0.34162 0.71164 0.34333 0.0
C232 C 0.39746 0.36256 0.35335 0.0
O233 O 0.40619 0.38327 0.32961 0.0
O234 O 0.39389 0.41502 0.37149 0.0
O235 O 0.38159 0.55641 0.33087 0.0
O236 O 0.39257 0.67627 0.32084 0.0
O237 O 0.43369 0.54322 0.35603 0.0
C238 C 0.38665 0.65298 0.40712 0.0
C239 C 0.38933 0.60533 0.31367 0.0
Zn240 Zn 0.39011 0.48252 0.86514 0.0
Zn241 Zn 0.36438 0.27815 0.85242 0.0
C242 C 0.4353 0.51463 0.87517 0.0
O243 O 0.42507 0.54816 0.89609 0.0
C244 C 0.31752 0.25115 0.8585 0.0
O245 O 0.32547 0.19716 0.8753 0.0
O246 O 0.38288 0.5947 0.87412 0.0
O247 O 0.37115 0.45363 0.83282 0.0
O248 O 0.382 0.33343 0.82281 0.0
C249 C 0.38682 0.64661 0.85593 0.0
O250 O 0.39472 0.62445 0.83188 0.0
O251 O 0.42353 0.47906 0.8572 0.0
C252 C 0.37205 0.11292 0.86526 0.0
O253 O 0.37064 0.1369 0.89092 0.0
O254 O 0.36996 0.16266 0.84584 0.0
O255 O 0.37166 0.29945 0.89224 0.0
O256 O 0.38528 0.41958 0.89894 0.0
O257 O 0.33118 0.29652 0.84621 0.0
C258 C 0.37975 0.40527 0.81605 0.0
C259 C 0.37905 0.35304 0.90801 0.0
Zn260 Zn 0.61269 0.50391 0.87169 0.0
Zn261 Zn 0.63925 0.72309 0.86448 0.0
C262 C 0.56791 0.4728 0.85502 0.0
O263 O 0.57903 0.42887 0.83738 0.0
C264 C 0.68616 0.76152 0.87416 0.0
O265 O 0.67879 0.83401 0.8712 0.0
O266 O 0.61936 0.38589 0.87295 0.0
O267 O 0.62266 0.55058 0.83573 0.0
O268 O 0.63522 0.67186 0.82747 0.0
C269 C 0.63062 0.34824 0.85497 0.0
O270 O 0.6399 0.38721 0.83461 0.0
O271 O 0.57886 0.5131 0.87256 0.0
C272 C 0.62962 0.88253 0.88266 0.0
O273 O 0.62878 0.84716 0.90669 0.0
O274 O 0.63345 0.84144 0.86122 0.0
O275 O 0.61843 0.67697 0.89284 0.0
O276 O 0.62625 0.55529 0.90497 0.0
O277 O 0.67221 0.70492 0.87371 0.0
C278 C 0.62977 0.60321 0.81926 0.0
C279 C 0.62641 0.62863 0.91023 0.0
Zn280 Zn 0.40471 0.49936 0.61113 0.0
Zn281 Zn 0.36302 0.70878 0.62187 0.0
C282 C 0.45066 0.49008 0.59078 0.0
O283 O 0.44123 0.47482 0.56693 0.0
C284 C 0.31844 0.69309 0.64576 0.0
O285 O 0.32966 0.66613 0.66707 0.0
O286 O 0.39511 0.3882 0.60156 0.0
O287 O 0.39506 0.5235 0.64888 0.0
O288 O 0.3743 0.63271 0.65222 0.0
C289 C 0.39797 0.33441 0.61955 0.0
O290 O 0.40673 0.35338 0.64346 0.0
O291 O 0.43836 0.50386 0.61158 0.0
C292 C 0.37119 0.87293 0.61198 0.0
O293 O 0.36223 0.85405 0.58817 0.0
O294 O 0.37375 0.81948 0.63016 0.0
O295 O 0.37082 0.68593 0.58172 0.0
O296 O 0.39117 0.57933 0.58678 0.0
O297 O 0.32909 0.71372 0.62424 0.0
C298 C 0.38424 0.57353 0.66313 0.0
C299 C 0.38245 0.63078 0.57125 0.0
Zn300 Zn 0.62642 0.50177 0.61107 0.0
Zn301 Zn 0.63823 0.30201 0.62284 0.0
C302 C 0.58432 0.49181 0.58247 0.0
O303 O 0.59657 0.51864 0.56207 0.0
C304 C 0.68509 0.30201 0.63965 0.0
O305 O 0.67645 0.30983 0.66438 0.0
O306 O 0.62969 0.61721 0.60242 0.0
O307 O 0.63381 0.48928 0.6502 0.0
O308 O 0.63047 0.36099 0.6582 0.0
C309 C 0.62217 0.66874 0.61908 0.0
O310 O 0.61242 0.64554 0.64193 0.0
O311 O 0.59367 0.47656 0.60541 0.0
C312 C 0.63382 0.13723 0.61106 0.0
O313 O 0.64366 0.15914 0.58811 0.0
O314 O 0.62922 0.18909 0.6291 0.0
O315 O 0.62606 0.33529 0.58548 0.0
O316 O 0.6464 0.44249 0.58574 0.0
O317 O 0.67206 0.29893 0.61894 0.0
C318 C 0.63207 0.43175 0.66669 0.0
C319 C 0.63702 0.38751 0.5725 0.0
H320 H 0.22228 0.37256 0.13182 0.0
H321 H 0.21336 0.12095 0.12543 0.0
H322 H 0.25384 0.10125 0.127 0.0
H323 H 0.29168 0.15513 0.13043 0.0
H324 H 0.30112 0.40686 0.13415 0.0
H325 H 0.26049 0.42703 0.13335 0.0
C326 C 0.22925 0.31351 0.13073 0.0
C327 C 0.2149 0.24832 0.12857 0.0
C328 C 0.25258 0.30266 0.13121 0.0
C329 C 0.22409 0.17212 0.12693 0.0
C330 C 0.24722 0.16076 0.12794 0.0
C331 C 0.28486 0.21444 0.13118 0.0
C332 C 0.29934 0.2794 0.13259 0.0
C333 C 0.2616 0.22555 0.13015 0.0
C334 C 0.29027 0.35591 0.1331 0.0
C335 C 0.26707 0.36745 0.13266 0.0
H336 H 0.78996 0.67274 0.09341 0.0
H337 H 0.79985 0.87257 0.14703 0.0
H338 H 0.7595 0.88136 0.15484 0.0
H339 H 0.72148 0.83203 0.14663 0.0
H340 H 0.71163 0.63265 0.09281 0.0
H341 H 0.75196 0.62403 0.08495 0.0
C342 C 0.78332 0.71837 0.10678 0.0
C343 C 0.79795 0.77195 0.1196 0.0
C344 C 0.76012 0.72311 0.11119 0.0
C345 C 0.78901 0.83052 0.13691 0.0
C346 C 0.76592 0.83561 0.14139 0.0
C347 C 0.72813 0.78663 0.13318 0.0
C348 C 0.71353 0.73302 0.12036 0.0
C349 C 0.75134 0.78215 0.12868 0.0
C350 C 0.72246 0.67481 0.10289 0.0
C351 C 0.74554 0.66976 0.09841 0.0
H352 H 0.29275 0.86253 0.36194 0.0
H353 H 0.30678 0.63265 0.32789 0.0
H354 H 0.26664 0.60935 0.32208 0.0
H355 H 0.22745 0.65392 0.32732 0.0
H356 H 0.214 0.88319 0.3623 0.0
H357 H 0.25404 0.9069 0.36703 0.0
C358 C 0.2871 0.80726 0.3532 0.0
C359 C 0.30281 0.7494 0.34542 0.0
C360 C 0.26405 0.79407 0.35011 0.0
C361 C 0.29509 0.67824 0.33409 0.0
C362 C 0.27212 0.66484 0.33077 0.0
C363 C 0.23329 0.70909 0.33594 0.0
C364 C 0.2177 0.76658 0.3445 0.0
C365 C 0.25643 0.72226 0.33881 0.0
C366 C 0.22558 0.83766 0.35571 0.0
C367 C 0.2485 0.85142 0.35837 0.0
H368 H 0.77853 0.12483 0.31268 0.0
H369 H 0.79018 0.29134 0.37826 0.0
H370 H 0.75005 0.31971 0.3807 0.0
H371 H 0.71139 0.29603 0.36446 0.0
H372 H 0.70042 0.13038 0.29836 0.0
H373 H 0.74041 0.10318 0.29598 0.0
C374 C 0.77235 0.16737 0.32753 0.0
C375 C 0.78742 0.20556 0.34531 0.0
C376 C 0.74928 0.18368 0.32877 0.0
C377 C 0.779 0.26073 0.36436 0.0
C378 C 0.75602 0.27709 0.36577 0.0
C379 C 0.71777 0.25417 0.34949 0.0
C380 C 0.70283 0.21545 0.33162 0.0
C381 C 0.74096 0.23876 0.34811 0.0
C382 C 0.71145 0.16146 0.31231 0.0
C383 C 0.73437 0.14559 0.31095 0.0
H384 H 0.71949 0.86744 0.88201 0.0
H385 H 0.70786 0.62114 0.86541 0.0
H386 H 0.74807 0.59994 0.85914 0.0
H387 H 0.78635 0.65341 0.85549 0.0
H388 H 0.79777 0.89906 0.87342 0.0
H389 H 0.75785 0.91841 0.88196 0.0
C390 C 0.72574 0.8089 0.87728 0.0
C391 C 0.71063 0.74614 0.87397 0.0
C392 C 0.74886 0.79716 0.87368 0.0
C393 C 0.71909 0.67053 0.8681 0.0
C394 C 0.74209 0.65844 0.86435 0.0
C395 C 0.78009 0.71108 0.86137 0.0
C396 C 0.79499 0.77486 0.86356 0.0
C397 C 0.75709 0.72164 0.86658 0.0
C398 C 0.78668 0.84898 0.87157 0.0
C399 C 0.76383 0.86016 0.87642 0.0
H400 H 0.28539 0.15272 0.87753 0.0
H401 H 0.29468 0.36069 0.82764 0.0
H402 H 0.25437 0.36667 0.8187 0.0
H403 H 0.21644 0.31243 0.82511 0.0
H404 H 0.20768 0.10438 0.8752 0.0
H405 H 0.24787 0.09877 0.88383 0.0
C406 C 0.27865 0.19959 0.86474 0.0
C407 C 0.29307 0.25624 0.85332 0.0
C408 C 0.25553 0.20247 0.85962 0.0
C409 C 0.28398 0.31628 0.8367 0.0
C410 C 0.26092 0.3197 0.83156 0.0
C411 C 0.22333 0.2657 0.83783 0.0
C412 C 0.20901 0.20889 0.84948 0.0
C413 C 0.24653 0.26298 0.84287 0.0
C414 C 0.21825 0.149 0.86603 0.0
C415 C 0.24126 0.1457 0.87099 0.0
H416 H 0.71734 0.32765 0.67798 0.0
H417 H 0.70807 0.25697 0.59337 0.0
H418 H 0.74847 0.23771 0.58835 0.0
H419 H 0.78652 0.2391 0.60833 0.0
H420 H 0.79537 0.3131 0.69271 0.0
H421 H 0.75513 0.33275 0.6974 0.0
C422 C 0.72413 0.3081 0.65841 0.0
C423 C 0.70966 0.29348 0.63615 0.0
C424 C 0.74736 0.2975 0.65563 0.0
C425 C 0.71881 0.26879 0.61087 0.0
C426 C 0.74193 0.25754 0.60799 0.0
C427 C 0.77963 0.25933 0.62775 0.0
C428 C 0.79399 0.27411 0.65017 0.0
C429 C 0.75637 0.27131 0.63029 0.0
C430 C 0.78477 0.3011 0.67511 0.0
C431 C 0.76172 0.31239 0.67785 0.0
H432 H 0.21437 0.69766 0.66933 0.0
H433 H 0.21458 0.83355 0.59411 0.0
H434 H 0.25521 0.81978 0.59106 0.0
H435 H 0.29075 0.7686 0.60956 0.0
H436 H 0.29055 0.63511 0.68531 0.0
H437 H 0.24992 0.6484 0.68823 0.0
C438 C 0.22329 0.72446 0.65229 0.0
C439 C 0.21138 0.76657 0.63199 0.0
C440 C 0.2467 0.71656 0.65068 0.0
C441 C 0.22328 0.80102 0.61009 0.0
C442 C 0.24654 0.79301 0.60827 0.0
C443 C 0.28182 0.74221 0.62667 0.0
C444 C 0.29372 0.70072 0.64713 0.0
C445 C 0.25842 0.75073 0.6284 0.0
C446 C 0.28186 0.66742 0.66926 0.0
C447 C 0.25859 0.67497 0.67097 0.0
H448 H 0.13871 0.85034 0.25854 0.0
H449 H 0.10867 0.04322 0.30275 0.0
H450 H 0.10621 0.12058 0.26038 0.0
H451 H 0.11553 0.13665 0.21112 0.0
H452 H 0.14486 0.94219 0.16686 0.0
H453 H 0.14451 0.86143 0.2086 0.0
C454 C 0.13142 0.90897 0.25884 0.0
C455 C 0.1243 0.94209 0.28389 0.0
C456 C 0.13001 0.95263 0.23431 0.0
C457 C 0.11459 0.01751 0.28382 0.0
C458 C 0.1132 0.06157 0.25958 0.0
C459 C 0.12159 0.07631 0.2107 0.0
C460 C 0.13001 0.0447 0.1861 0.0
C461 C 0.12136 0.03043 0.2348 0.0
C462 C 0.13787 0.96672 0.18557 0.0
C463 C 0.13787 0.92092 0.20946 0.0
H464 H 0.87727 0.95067 0.29055 0.0
H465 H 0.86878 0.19707 0.27098 0.0
H466 H 0.87199 0.16707 0.22182 0.0
H467 H 0.87517 0.06978 0.18448 0.0
H468 H 0.88503 0.82402 0.20434 0.0
H469 H 0.88332 0.85499 0.25342 0.0
C470 C 0.87618 0.99789 0.27554 0.0
C471 C 0.87249 0.07584 0.2844 0.0
C472 C 0.87818 0.98028 0.2474 0.0
C473 C 0.8715 0.13653 0.26472 0.0
C474 C 0.87328 0.11937 0.23661 0.0
C475 C 0.87711 0.023 0.19951 0.0
C476 C 0.88003 0.94456 0.19066 0.0
C477 C 0.8763 0.0413 0.22772 0.0
C478 C 0.88268 0.88483 0.2105 0.0
C479 C 0.88166 0.90246 0.23859 0.0
H480 H 0.88887 0.14235 0.71111 0.0
H481 H 0.8603 0.93864 0.67136 0.0
H482 H 0.86254 0.86472 0.71423 0.0
H483 H 0.86971 0.86075 0.76388 0.0
H484 H 0.89897 0.06217 0.80402 0.0
H485 H 0.89933 0.13397 0.76035 0.0
C486 C 0.88338 0.08154 0.71181 0.0
C487 C 0.87443 0.04624 0.68802 0.0
C488 C 0.88456 0.03915 0.73673 0.0
C489 C 0.86744 0.96724 0.68925 0.0
C490 C 0.86855 0.92492 0.71385 0.0
C491 C 0.87629 0.9202 0.76306 0.0
C492 C 0.8839 0.95662 0.7873 0.0
C493 C 0.87662 0.96076 0.73784 0.0
C494 C 0.89274 0.03317 0.78576 0.0
C495 C 0.89295 0.07426 0.76076 0.0
H496 H 0.11634 0.10754 0.77008 0.0
H497 H 0.16125 0.92184 0.79621 0.0
H498 H 0.1595 0.86231 0.75071 0.0
H499 H 0.14759 0.86799 0.70228 0.0
H500 H 0.10372 0.05482 0.67547 0.0
H501 H 0.10237 0.10809 0.72229 0.0
C502 C 0.12565 0.05389 0.76584 0.0
C503 C 0.13909 0.01994 0.7865 0.0
C504 C 0.12473 0.01991 0.73943 0.0
C505 C 0.15094 0.94997 0.78067 0.0
C506 C 0.14991 0.91551 0.75463 0.0
C507 C 0.13738 0.91932 0.70692 0.0
C508 C 0.12593 0.9581 0.68562 0.0
C509 C 0.13715 0.95054 0.73373 0.0
C510 C 0.11291 0.02494 0.69165 0.0
C511 C 0.11216 0.05536 0.71836 0.0
H512 H 0.64987 0.51932 0.28977 0.0
H513 H 0.61092 0.31072 0.2729 0.0
H514 H 0.60602 0.3529 0.22522 0.0
H515 H 0.6131 0.44727 0.18858 0.0
H516 H 0.65253 0.65512 0.20466 0.0
H517 H 0.65652 0.61543 0.25288 0.0
C518 C 0.64033 0.48295 0.27567 0.0
C519 C 0.63085 0.41176 0.28484 0.0
C520 C 0.63755 0.50755 0.24833 0.0
C521 C 0.61842 0.36565 0.26636 0.0
C522 C 0.61559 0.38974 0.23912 0.0
C523 C 0.62271 0.48387 0.2025 0.0
C524 C 0.63276 0.55354 0.19292 0.0
C525 C 0.62515 0.46032 0.22992 0.0
C526 C 0.64469 0.60105 0.21148 0.0
C527 C 0.64705 0.57825 0.239 0.0
H528 H 0.38523 0.45889 0.29215 0.0
H529 H 0.39738 0.70087 0.26925 0.0
H530 H 0.39752 0.66362 0.22065 0.0
H531 H 0.39201 0.5635 0.18485 0.0
H532 H 0.38198 0.32071 0.20789 0.0
H533 H 0.38366 0.35691 0.25663 0.0
C534 C 0.38832 0.50336 0.27664 0.0
C535 C 0.39121 0.58253 0.28438 0.0
C536 C 0.38871 0.48141 0.24886 0.0
C537 C 0.39502 0.63951 0.26389 0.0
C538 C 0.39508 0.61831 0.2361 0.0
C539 C 0.39039 0.51854 0.20055 0.0
C540 C 0.38665 0.43989 0.19289 0.0
C541 C 0.3916 0.53966 0.22838 0.0
C542 C 0.38486 0.38174 0.21335 0.0
C543 C 0.38572 0.40243 0.24117 0.0
H544 H 0.36773 0.54335 0.79128 0.0
H545 H 0.40143 0.32154 0.77641 0.0
H546 H 0.40649 0.35683 0.72821 0.0
H547 H 0.39989 0.44617 0.69033 0.0
H548 H 0.36563 0.66761 0.70361 0.0
H549 H 0.36232 0.63672 0.75279 0.0
C550 C 0.37634 0.50301 0.77754 0.0
C551 C 0.38405 0.42959 0.78737 0.0
C552 C 0.37896 0.52325 0.7497 0.0
C553 C 0.39517 0.37803 0.76933 0.0
C554 C 0.39808 0.39815 0.74177 0.0
C555 C 0.39172 0.48825 0.70382 0.0
C556 C 0.38277 0.5588 0.69314 0.0
C557 C 0.38976 0.46995 0.73173 0.0
C558 C 0.3724 0.61242 0.71118 0.0
C559 C 0.37057 0.59485 0.73929 0.0
H560 H 0.6197 0.46376 0.79485 0.0
H561 H 0.64395 0.69806 0.77718 0.0
H562 H 0.64725 0.66419 0.72852 0.0
H563 H 0.64297 0.56917 0.69128 0.0
H564 H 0.62001 0.33335 0.70895 0.0
H565 H 0.61708 0.36652 0.75786 0.0
C566 C 0.62593 0.50736 0.78049 0.0
C567 C 0.63163 0.58333 0.78973 0.0
C568 C 0.62813 0.48718 0.75268 0.0
C569 C 0.6394 0.63922 0.77066 0.0
C570 C 0.64135 0.61988 0.74285 0.0
C571 C 0.63732 0.5248 0.70578 0.0
C572 C 0.6315 0.44909 0.69646 0.0
C573 C 0.63571 0.54416 0.73368 0.0
C574 C 0.62454 0.3921 0.71559 0.0
C575 C 0.62279 0.41111 0.7435 0.0
H576 H 0.13376 0.19591 0.94723 0.0
H577 H 0.11461 0.95229 0.93737 0.0
H578 H 0.10927 0.93948 0.98662 0.0
H579 H 0.11225 0.99263 0.03239 0.0
H580 H 0.13372 0.23248 0.04493 0.0
H581 H 0.1359 0.25158 -0.00516 0.0
C582 C 0.12819 0.14051 0.95595 0.0
C583 C 0.12459 0.07519 0.9386 0.0
C584 C 0.12576 0.1325 0.98476 0.0
C585 C 0.11756 0.00346 0.95017 0.0
C586 C 0.11452 0.99589 0.9784 0.0
C587 C 0.11729 0.04956 0.02437 0.0
C588 C 0.12294 0.11085 0.04251 0.0
C589 C 0.11894 0.05939 -0.00413 0.0
C590 C 0.12943 0.184 0.03147 0.0
C591 C 0.13066 0.19492 0.00282 0.0
H592 H 0.86953 0.82528 0.93768 0.0
H593 H 0.92442 0.99072 0.93729 0.0
H594 H 0.92581 0.98831 0.98711 0.0
H595 H 0.90996 0.94842 0.03097 0.0
H596 H 0.85591 0.78103 0.03337 0.0
H597 H 0.8558 0.77457 0.9828 0.0
C598 C 0.88192 0.86003 0.94853 0.0
C599 C 0.89651 0.9093 0.93361 0.0
C600 C 0.88272 0.85865 0.9776 0.0
C601 C 0.91264 0.9534 0.94807 0.0
C602 C 0.91353 0.9521 0.97667 0.0
C603 C 0.89821 0.9102 0.02044 0.0
C604 C 0.88275 0.86631 0.03577 0.0
C605 C 0.89834 0.90658 -0.00837 0.0
C606 C 0.86794 0.81569 0.02192 0.0
C607 C 0.86783 0.81223 -0.00696 0.0
H608 H 0.12551 0.01995 0.43857 0.0
H609 H 0.13056 0.7685 0.42742 0.0
H610 H 0.13332 0.7506 0.47765 0.0
H611 H 0.13229 0.80808 0.52502 0.0
H612 H 0.12746 0.06132 0.53358 0.0
H613 H 0.12673 0.07644 0.48409 0.0
C614 C 0.12718 0.96101 0.44704 0.0
C615 C 0.12745 0.8956 0.4294 0.0
C616 C 0.12876 0.95149 0.47555 0.0
C617 C 0.1302 0.81983 0.44067 0.0
C618 C 0.13171 0.80966 0.46935 0.0
C619 C 0.13118 0.86643 0.51599 0.0
C620 C 0.12954 0.93325 0.53317 0.0
C621 C 0.1307 0.87522 0.48707 0.0
C622 C 0.12831 0.00856 0.52107 0.0
C623 C 0.12797 0.01756 0.49266 0.0
H624 H 0.89032 0.00949 0.53337 0.0
H625 H 0.86413 0.24411 0.54611 0.0
H626 H 0.86146 0.26323 0.49621 0.0
H627 H 0.8656 0.21094 0.4487 0.0
H628 H 0.89162 0.97482 0.43771 0.0
H629 H 0.89518 0.95922 0.48708 0.0
C630 C 0.88409 0.06513 0.52538 0.0
C631 C 0.87737 0.12508 0.54359 0.0
C632 C 0.88245 0.07547 0.49682 0.0
C633 C 0.86938 0.19671 0.53263 0.0
C634 C 0.86782 0.20768 0.50406 0.0
C635 C 0.8721 0.15624 0.45713 0.0
C636 C 0.87824 0.09426 0.4393 0.0
C637 C 0.87413 0.14711 0.48591 0.0
C638 C 0.88668 0.02376 0.4507 0.0
C639 C 0.88876 0.01452 0.47906 0.0
H640 H 0.61677 0.72346 0.03432 0.0
H641 H 0.66479 0.53417 0.04215 0.0
H642 H 0.66928 0.5295 -0.00773 0.0
H643 H 0.65489 0.56365 0.94666 0.0
H644 H 0.60518 0.74699 0.93827 0.0
H645 H 0.60625 0.77068 0.98792 0.0
C646 C 0.62862 0.68275 0.02507 0.0
C647 C 0.64012 0.62821 0.04169 0.0
C648 C 0.63058 0.67861 -0.00375 0.0
C649 C 0.65549 0.57577 0.02959 0.0
C650 C 0.65802 0.57289 0.00111 0.0
C651 C 0.6446 0.6097 0.95571 0.0
C652 C 0.62989 0.65304 0.93901 0.0
C653 C 0.64487 0.62143 0.98425 0.0
C654 C 0.61679 0.71323 0.95076 0.0
C655 C 0.61724 0.7263 0.97919 0.0
H656 H 0.40413 0.43308 0.94441 0.0
H657 H 0.35734 0.24056 0.93859 0.0
H658 H 0.35743 0.22719 -0.01115 0.0
H659 H 0.3683 0.27915 0.03455 0.0
H660 H 0.41433 0.47457 0.03896 0.0
H661 H 0.41713 0.47738 -0.01097 0.0
C662 C 0.39397 0.38794 0.95408 0.0
C663 C 0.38046 0.33883 0.93791 0.0
C664 C 0.39393 0.38128 0.98272 0.0
C665 C 0.3678 0.27946 0.95068 0.0
C666 C 0.36779 0.27196 0.97938 0.0
C667 C 0.37917 0.32146 0.02452 0.0
C668 C 0.39081 0.3773 0.04033 0.0
C669 C 0.38043 0.32378 -0.00436 0.0
C670 C 0.40489 0.43181 0.02718 0.0
C671 C 0.40654 0.43349 -0.00136 0.0
H672 H 0.65021 0.44702 0.44599 0.0
H673 H 0.6129 0.23023 0.44024 0.0
H674 H 0.61099 0.22291 0.49059 0.0
H675 H 0.61958 0.28014 0.53631 0.0
H676 H 0.65705 0.49733 0.54041 0.0
H677 H 0.65913 0.50214 0.49057 0.0
C678 C 0.64164 0.39797 0.45564 0.0
C679 C 0.63165 0.33948 0.43936 0.0
C680 C 0.64058 0.39423 0.48435 0.0
C681 C 0.62076 0.27612 0.45231 0.0
C682 C 0.61962 0.27198 0.48109 0.0
C683 C 0.62819 0.3284 0.52625 0.0
C684 C 0.6381 0.38825 0.54212 0.0
C685 C 0.6294 0.33102 0.49733 0.0
C686 C 0.64925 0.45036 0.52879 0.0
C687 C 0.65048 0.45333 0.50023 0.0
H688 H 0.3704 0.73892 0.53224 0.0
H689 H 0.40148 0.51045 0.54244 0.0
H690 H 0.40647 0.49964 0.49284 0.0
H691 H 0.40107 0.55235 0.4467 0.0
H692 H 0.36934 0.77931 0.43556 0.0
H693 H 0.36568 0.79344 0.48547 0.0
C694 C 0.37828 0.68682 0.5236 0.0
C695 C 0.3856 0.62568 0.54108 0.0
C696 C 0.38098 0.68062 0.49493 0.0
C697 C 0.39585 0.55869 0.52954 0.0
C698 C 0.39865 0.55227 0.50114 0.0
C699 C 0.39339 0.60517 0.45508 0.0
C700 C 0.38542 0.66451 0.43732 0.0
C701 C 0.39116 0.61258 0.48367 0.0
C702 C 0.37565 0.73267 0.4487 0.0
C703 C 0.37348 0.7407 0.47726 0.0
H704 H 0.96145 0.91084 0.12371 0.0
H705 H 0.96841 0.16134 0.11137 0.0
H706 H 0.00899 0.15008 0.11662 0.0
H707 H 0.04261 0.06757 0.1207 0.0
H708 H 0.03599 0.81554 0.12841 0.0
H709 H 0.99516 0.82864 0.12932 0.0
C710 C 0.97186 0.96297 0.12256 0.0
C711 C 0.96205 0.03669 0.1171 0.0
C712 C 0.99522 0.95565 0.12463 0.0
C713 C 0.97567 0.10383 0.11537 0.0
C714 C 0.99884 0.09747 0.11838 0.0
C715 C 0.0322 0.0157 0.12299 0.0
C716 C 0.04215 0.94072 0.12445 0.0
C717 C 0.00882 0.02347 0.12242 0.0
C718 C 0.02858 0.8738 0.12708 0.0
C719 C 1.00528 0.88128 0.12759 0.0
H720 H 0.95588 0.09668 0.35692 0.0
H721 H 0.96052 0.84407 0.3497 0.0
H722 H 1.00139 0.85199 0.34749 0.0
H723 H 0.03584 0.92989 0.35108 0.0
H724 H 0.03137 0.18103 0.36352 0.0
H725 H 0.99052 0.17501 0.36026 0.0
C726 C 0.96591 0.04375 0.35438 0.0
C727 C 0.95538 0.97001 0.35319 0.0
C728 C 0.98942 0.04853 0.35439 0.0
C729 C 0.96841 0.90143 0.35054 0.0
C730 C 0.99173 0.90593 0.34936 0.0
C731 C 0.0259 0.98331 0.35279 0.0
C732 C 0.03653 0.05575 0.35749 0.0
C733 C 1.00243 0.97899 0.35181 0.0
C734 C 0.0235 0.12449 0.36004 0.0
C735 C 1.00016 0.12111 0.35812 0.0
H736 H 0.05317 0.03037 0.90262 0.0
H737 H 0.06171 0.9757 0.81656 0.0
H738 H 0.02128 0.9926 0.80899 0.0
H739 H 0.98314 0.01812 0.82776 0.0
H740 H 0.97622 0.07865 0.91378 0.0
H741 H 0.01632 0.06443 0.92036 0.0
C742 C 0.0462 0.02222 0.88217 0.0
C743 C 0.06028 1.00087 0.86027 0.0
C744 C 0.02319 0.033 0.87799 0.0
C745 C 0.05113 0.99202 0.83377 0.0
C746 C 0.02803 0.00142 0.82948 0.0
C747 C 0.99048 0.02846 0.84786 0.0
C748 C 0.97663 0.04896 0.87026 0.0
C749 C 0.01383 0.02111 0.85155 0.0
C750 C 0.98641 0.06295 0.89615 0.0
C751 C 0.00939 0.05462 0.90001 0.0
H752 H 0.97241 0.89473 0.6128 0.0
H753 H 0.95172 0.11616 0.64849 0.0
H754 H 0.99091 0.15303 0.65512 0.0
H755 H 0.03108 0.12565 0.6481 0.0
H756 H 0.05146 0.90308 0.61283 0.0
H757 H 0.0124 0.86334 0.60896 0.0
C758 C 0.97645 0.9509 0.62219 0.0
C759 C 0.95914 0.00292 0.62988 0.0
C760 C 0.999 0.97165 0.62596 0.0
C761 C 0.9647 0.07504 0.64233 0.0
C762 C 0.98712 0.09627 0.64605 0.0
C763 C 0.027 0.06817 0.63979 0.0
C764 C 0.04424 0.01783 0.63055 0.0
C765 C 1.00442 0.04555 0.63755 0.0
C766 C 0.0386 0.94326 0.62003 0.0
C767 C 0.01622 0.92047 0.61772 0.0
H768 H 0.46492 0.46452 0.14118 0.0
H769 H 0.46603 0.63825 0.07621 0.0
H770 H 0.50686 0.63614 0.07625 0.0
H771 H 0.54238 0.58117 0.0934 0.0
H772 H 0.54116 0.40618 0.15799 0.0
H773 H 0.50043 0.4126 0.15932 0.0
C774 C 0.4741 0.50237 0.12719 0.0
C775 C 0.46241 0.55113 0.10865 0.0
C776 C 0.49763 0.50032 0.12708 0.0
C777 C 0.47458 0.5997 0.0906 0.0
C778 C 0.49797 0.59857 0.09057 0.0
C779 C 0.53321 0.54465 0.10781 0.0
C780 C 0.54487 0.49317 0.12547 0.0
C781 C 0.50968 0.54839 0.10848 0.0
C782 C 0.53268 0.4464 0.14411 0.0
C783 C 0.50933 0.44993 0.14491 0.0
H784 H 0.48123 0.3813 0.35873 0.0
H785 H 0.46937 0.63225 0.35983 0.0
H786 H 0.50975 0.65601 0.36048 0.0
H787 H 0.54833 0.60517 0.36348 0.0
H788 H 0.56025 0.35435 0.36039 0.0
H789 H 0.51991 0.33078 0.35762 0.0
C790 C 0.4875 0.44121 0.35891 0.0
C791 C 0.47234 0.50493 0.35953 0.0
C792 C 0.51072 0.45438 0.35907 0.0
C793 C 0.48069 0.58221 0.35935 0.0
C794 C 0.50377 0.59581 0.35986 0.0
C795 C 0.5421 0.54533 0.36212 0.0
C796 C 0.55724 0.48152 0.36253 0.0
C797 C 0.51892 0.53231 0.36019 0.0
C798 C 0.54894 0.40444 0.36024 0.0
C799 C 0.52588 0.39094 0.35871 0.0
H800 H 0.46315 0.43115 0.84101 0.0
H801 H 0.46322 0.6063 0.90548 0.0
H802 H 0.50396 0.61001 0.90463 0.0
H803 H 0.53976 0.56151 0.88661 0.0
H804 H 0.5401 0.38537 0.8225 0.0
H805 H 0.49923 0.3841 0.82229 0.0
C806 C 0.47209 0.47037 0.85475 0.0
C807 C 0.46008 0.51806 0.87334 0.0
C808 C 0.49568 0.47187 0.85437 0.0
C809 C 0.47197 0.56847 0.89106 0.0
C810 C 0.49532 0.57076 0.89061 0.0
C811 C 0.53092 0.52292 0.87255 0.0
C812 C 0.54305 0.4736 0.85466 0.0
C813 C 0.50737 0.52228 0.87254 0.0
C814 C 0.53124 0.4241 0.83653 0.0
C815 C 0.50782 0.42324 0.83637 0.0
H816 H 0.48189 0.48895 0.55001 0.0
H817 H 0.47486 0.48774 0.6385 0.0
H818 H 0.5155 0.48384 0.64374 0.0
H819 H 0.55313 0.48309 0.62323 0.0
H820 H 0.56018 0.49008 0.53479 0.0
H821 H 0.5195 0.4889 0.52952 0.0
C822 C 0.48925 0.48768 0.57043 0.0
C823 C 0.47533 0.48865 0.59379 0.0
C824 C 0.51266 0.48627 0.57333 0.0
C825 C 0.48516 0.48744 0.62014 0.0
C826 C 0.50842 0.48496 0.62318 0.0
C827 C 0.54577 0.48361 0.6028 0.0
C828 C 0.55969 0.48628 0.57943 0.0
C829 C 0.52234 0.48452 0.59992 0.0
C830 C 0.54986 0.48799 0.55312 0.0
C831 C 0.52659 0.48742 0.55008 0.0
H832 H 0.13434 0.74235 0.09547 0.0
H833 H 0.10996 0.71313 0.17852 0.0
H834 H 0.11428 0.57049 0.17463 0.0
H835 H 0.12452 0.45342 0.14752 0.0
H836 H 0.14873 0.48236 0.06437 0.0
H837 H 0.14473 0.6251 0.06839 0.0
C838 C 0.13018 0.70486 0.11282 0.0
C839 C 0.1219 0.73868 0.13729 0.0
C840 C 0.13245 0.6225 0.11035 0.0
C841 C 0.11638 0.68892 0.15944 0.0
C842 C 0.11878 0.60717 0.15722 0.0
C843 C 0.12881 0.49085 0.13021 0.0
C844 C 0.13687 0.45686 0.10565 0.0
C845 C 0.12664 0.5732 0.13271 0.0
C846 C 0.14247 0.50662 0.08352 0.0
C847 C 0.14025 0.58845 0.08581 0.0
H848 H 0.89668 0.29266 0.15426 0.0
H849 H 0.87466 0.23165 0.07226 0.0
H850 H 0.8699 0.37085 0.06111 0.0
H851 H 0.87162 0.50967 0.07472 0.0
H852 H 0.89281 0.57084 0.15698 0.0
H853 H 0.89839 0.43161 0.16787 0.0
C854 C 0.89082 0.30977 0.13395 0.0
C855 C 0.88599 0.25185 0.11417 0.0
C856 C 0.88803 0.38989 0.12769 0.0
C857 C 0.87844 0.27503 0.08793 0.0
C858 C 0.87574 0.35464 0.0815 0.0
C859 C 0.87757 0.49259 0.09498 0.0
C860 C 0.88181 0.55042 0.11499 0.0
C861 C 0.88047 0.41252 0.10122 0.0
C862 C 0.88935 0.52735 0.14124 0.0
C863 C 0.89255 0.4478 0.14749 0.0
H864 H 0.13782 0.2536 0.37239 0.0
H865 H 0.09151 0.30056 0.306 0.0
H866 H 0.09886 0.44119 0.30966 0.0
H867 H 0.11788 0.55215 0.33204 0.0
H868 H 0.16407 0.50662 0.39862 0.0
H869 H 0.15725 0.36532 0.39458 0.0
C870 C 0.12949 0.29452 0.35857 0.0
C871 C 0.11414 0.266 0.33892 0.0
C872 C 0.13363 0.37616 0.36093 0.0
C873 C 0.1034 0.32035 0.32135 0.0
C874 C 0.10755 0.40113 0.32344 0.0
C875 C 0.12642 0.51146 0.34575 0.0
C876 C 0.14141 0.54055 0.36567 0.0
C877 C 0.12249 0.42989 0.34328 0.0
C878 C 0.15237 0.4864 0.38313 0.0
C879 C 0.14853 0.40527 0.3808 0.0
H880 H 0.84329 0.50872 0.38695 0.0
H881 H 0.90107 0.41675 0.34406 0.0
H882 H 0.91262 0.55024 0.33213 0.0
H883 H 0.90568 0.6931 0.33278 0.0
H884 H 0.84796 0.78403 0.37604 0.0
H885 H 0.83691 0.65078 0.38865 0.0
C886 C 0.85851 0.51785 0.37519 0.0
C887 C 0.87123 0.45304 0.36632 0.0
C888 C 0.86494 0.5945 0.36818 0.0
C889 C 0.8909 0.4658 0.35105 0.0
C890 C 0.8975 0.54205 0.34414 0.0
C891 C 0.89063 0.68351 0.34482 0.0
C892 C 0.87761 0.74795 0.35337 0.0
C893 C 0.88449 0.60678 0.3523 0.0
C894 C 0.85829 0.73511 0.36926 0.0
C895 C 0.85195 0.65904 0.37652 0.0
H896 H 0.92235 0.33214 0.83347 0.0
H897 H 0.86357 0.22551 0.86914 0.0
H898 H 0.84837 0.3557 0.87974 0.0
H899 H 0.85204 0.50007 0.87966 0.0
H900 H 0.91057 0.60622 0.84327 0.0
H901 H 0.92563 0.47601 0.83243 0.0
C902 C 0.90616 0.33728 0.84343 0.0
C903 C 0.89418 0.26905 0.85054 0.0
C904 C 0.89753 0.41231 0.84958 0.0
C905 C 0.8732 0.27698 0.86344 0.0
C906 C 0.86449 0.35146 0.8696 0.0
C907 C 0.86814 0.49465 0.8695 0.0
C908 C 0.88021 0.56273 0.86244 0.0
C909 C 0.8766 0.41953 0.86298 0.0
C910 C 0.90093 0.55475 0.84895 0.0
C911 C 0.90956 0.48031 0.84271 0.0
H912 H 0.1617 0.46798 0.88022 0.0
H913 H 0.10075 0.39925 0.83911 0.0
H914 H 0.09137 0.53767 0.83088 0.0
H915 H 0.10054 0.67826 0.83541 0.0
H916 H 0.16202 0.74584 0.87576 0.0
H917 H 0.17117 0.60781 0.88402 0.0
C918 C 0.14632 0.48327 0.86955 0.0
C919 C 0.13191 0.42351 0.86039 0.0
C920 C 0.14118 0.56277 0.86461 0.0
C921 C 0.11216 0.44423 0.84632 0.0
C922 C 0.10678 0.52334 0.84162 0.0
C923 C 0.11597 0.66281 0.84595 0.0
C924 C 0.13052 0.72244 0.855 0.0
C925 C 0.12119 0.58312 0.85063 0.0
C926 C 0.15046 0.70127 0.86861 0.0
C927 C 0.15573 0.62228 0.87339 0.0
H928 H 0.87138 0.75035 0.59622 0.0
H929 H 0.90409 0.72323 0.67499 0.0
H930 H 0.89946 0.58061 0.67239 0.0
H931 H 0.88562 0.46308 0.64811 0.0
H932 H 0.85281 0.49054 0.5694 0.0
H933 H 0.85815 0.63281 0.57159 0.0
C934 C 0.87746 0.71332 0.61285 0.0
C935 C 0.88801 0.74781 0.6358 0.0
C936 C 0.87482 0.63103 0.61121 0.0
C937 C 0.8959 0.69858 0.65706 0.0
C938 C 0.89328 0.61681 0.6556 0.0
C939 C 0.87977 0.50009 0.63134 0.0
C940 C 0.8688 0.46584 0.60865 0.0
C941 C 0.88274 0.58231 0.6328 0.0
C942 C 0.86126 0.51502 0.58717 0.0
C943 C 0.86428 0.5966 0.5884 0.0
H944 H 0.12099 0.28392 0.58423 0.0
H945 H 0.13104 0.30146 0.67206 0.0
H946 H 0.13376 0.44449 0.66839 0.0
H947 H 0.13421 0.56497 0.64021 0.0
H948 H 0.12571 0.54751 0.55214 0.0
H949 H 0.12142 0.40479 0.55598 0.0
C950 C 0.12368 0.31906 0.60258 0.0
C951 C 0.12581 0.28169 0.62838 0.0
C952 C 0.12553 0.40161 0.6003 0.0
C953 C 0.12943 0.32834 0.65191 0.0
C954 C 0.13096 0.41035 0.64985 0.0
C955 C 0.13124 0.53008 0.62186 0.0
C956 C 0.13021 0.56725 0.59593 0.0
C957 C 0.12915 0.44767 0.62415 0.0
C958 C 0.1266 0.52071 0.57238 0.0
C959 C 0.12414 0.43893 0.57454 0.0
H960 H 0.62918 0.98806 0.0733 0.0
H961 H 0.63636 0.93427 0.15981 0.0
H962 H 0.63316 0.07388 0.17111 0.0
H963 H 0.62873 0.21125 0.15647 0.0
H964 H 0.62076 0.26509 0.07006 0.0
H965 H 0.62384 0.12539 0.05873 0.0
C966 C 0.63001 0.00687 0.09462 0.0
C967 C 0.63303 0.95086 0.11565 0.0
C968 C 0.62805 0.08723 0.10102 0.0
C969 C 0.63396 0.97614 0.14321 0.0
C970 C 0.63219 0.05601 0.14971 0.0
C971 C 0.62769 0.19247 0.13515 0.0
C972 C 0.62461 0.24851 0.11416 0.0
C973 C 0.62931 0.11205 0.12878 0.0
C974 C 0.62313 0.22313 0.08665 0.0
C975 C 0.6249 0.14325 0.08012 0.0
H976 H 0.40253 0.80154 0.15152 0.0
H977 H 0.36364 0.72831 0.08109 0.0
H978 H 0.35489 0.86571 0.07042 0.0
H979 H 0.35858 0.00678 0.08103 0.0
H980 H 0.39743 0.07806 0.15181 0.0
H981 H 0.40595 0.94103 0.16228 0.0
C982 C 0.3921 0.81551 0.13385 0.0
C983 C 0.38378 0.75498 0.11712 0.0
C984 C 0.38719 0.89426 0.12782 0.0
C985 C 0.37027 0.77402 0.09431 0.0
C986 C 0.36528 0.85251 0.08816 0.0
C987 C 0.36895 0.99224 0.09868 0.0
C988 C 0.37736 0.05242 0.11557 0.0
C989 C 0.37372 0.91314 0.10473 0.0
C990 C 0.39068 0.03278 0.13848 0.0
C991 C 0.39559 0.95445 0.14452 0.0
H992 H 0.65328 0.97248 0.3907 0.0
H993 H 0.60967 0.03408 0.32301 0.0
H994 H 0.60401 0.89455 0.31285 0.0
H995 H 0.61168 0.75483 0.32301 0.0
H996 H 0.65495 0.69416 0.39116 0.0
H997 H 0.66055 0.83353 0.40118 0.0
C998 C 0.64248 0.95554 0.37375 0.0
C999 C 0.63193 0.01382 0.35765 0.0
C1000 C 0.63931 0.87525 0.36801 0.0
C1001 C 0.61799 0.99055 0.33578 0.0
C1002 C 0.61478 0.91071 0.32991 0.0
C1003 C 0.6224 0.77208 0.33999 0.0
C1004 C 0.63293 0.714 0.35624 0.0
C1005 C 0.62542 0.85252 0.34583 0.0
C1006 C 0.64662 0.73751 0.37831 0.0
C1007 C 0.64984 0.81727 0.38408 0.0
H1008 H 0.37391 0.02313 0.39729 0.0
H1009 H 0.39616 0.96017 0.31557 0.0
H1010 H 0.40323 0.09858 0.30515 0.0
H1011 H 0.40338 0.23718 0.31934 0.0
H1012 H 0.38074 0.30023 0.40091 0.0
H1013 H 0.37345 0.16196 0.4112 0.0
C1014 C 0.38035 0.03963 0.37722 0.0
C1015 C 0.38459 0.98139 0.3573 0.0
C1016 C 0.38427 0.1193 0.3713 0.0
C1017 C 0.39275 0.00385 0.33129 0.0
C1018 C 0.39682 0.08298 0.32531 0.0
C1019 C 0.39685 0.22074 0.33937 0.0
C1020 C 0.39271 0.27893 0.35935 0.0
C1021 C 0.39268 0.14115 0.34517 0.0
C1022 C 0.38415 0.2566 0.38517 0.0
C1023 C 0.37998 0.17752 0.39109 0.0
H1024 H 0.38744 0.76884 0.81989 0.0
H1025 H 0.37858 0.71347 0.90602 0.0
H1026 H 0.3736 0.85307 0.91652 0.0
H1027 H 0.37174 0.99057 0.90128 0.0
H1028 H 0.37981 0.04588 0.81502 0.0
H1029 H 0.38514 0.90639 0.80457 0.0
C1030 C 0.38443 0.78732 0.84096 0.0
C1031 C 0.38337 0.73092 0.86212 0.0
C1032 C 0.38145 0.86758 0.84684 0.0
C1033 C 0.37935 0.75571 0.88931 0.0
C1034 C 0.37656 0.83553 0.89536 0.0
C1035 C 0.37472 0.9722 0.8802 0.0
C1036 C 0.37544 0.02857 0.85899 0.0
C1037 C 0.37758 0.89193 0.87429 0.0
C1038 C 0.37918 0.00368 0.83175 0.0
C1039 C 0.38223 0.92393 0.82574 0.0
H1040 H 0.61686 0.25056 0.89627 0.0
H1041 H 0.64784 0.24904 0.81595 0.0
H1042 H 0.64955 0.10529 0.8169 0.0
H1043 H 0.64238 0.97938 0.84059 0.0
H1044 H 0.61252 0.98154 0.92152 0.0
H1045 H 0.61016 0.12514 0.92017 0.0
C1046 C 0.62402 0.21887 0.87897 0.0
C1047 C 0.63222 0.26085 0.85609 0.0
C1048 C 0.62508 0.13602 0.87969 0.0
C1049 C 0.64148 0.21853 0.83391 0.0
C1050 C 0.64241 0.13614 0.83437 0.0
C1051 C 0.63522 0.01127 0.85784 0.0
C1052 C 0.62754 0.9696 0.88105 0.0
C1053 C 0.63423 0.09419 0.85714 0.0
C1054 C 0.61857 0.012 0.90338 0.0
C1055 C 0.61721 0.09423 0.90265 0.0
H1056 H 0.37073 0.99668 0.57627 0.0
H1057 H 0.38552 0.93601 0.66075 0.0
H1058 H 0.39485 0.07324 0.67049 0.0
H1059 H 0.39872 0.21043 0.65512 0.0
H1060 H 0.3839 0.27123 0.57066 0.0
H1061 H 0.37467 0.1339 0.56087 0.0
C1062 C 0.37602 0.01334 0.59682 0.0
C1063 C 0.37743 0.9559 0.61773 0.0
C1064 C 0.38134 0.09243 0.60231 0.0
C1065 C 0.38436 0.97876 0.64422 0.0
C1066 C 0.38966 0.05733 0.64984 0.0
C1067 C 0.39348 0.19377 0.63454 0.0
C1068 C 0.39201 0.25127 0.61366 0.0
C1069 C 0.3882 0.11466 0.62905 0.0
C1070 C 0.38511 0.22841 0.58716 0.0
C1071 C 0.37987 0.14979 0.58152 0.0
H1072 H 0.61358 0.79241 0.65322 0.0
H1073 H 0.6363 0.73614 0.5711 0.0
H1074 H 0.64119 0.87602 0.56116 0.0
H1075 H 0.63993 0.01399 0.57607 0.0
H1076 H 0.61762 0.07056 0.65832 0.0
H1077 H 0.61164 0.9309 0.66786 0.0
C1078 C 0.61953 0.81071 0.63311 0.0
C1079 C 0.62465 0.75377 0.61298 0.0
C1080 C 0.62243 0.89132 0.62756 0.0
C1081 C 0.63237 0.77862 0.58705 0.0
C1082 C 0.63514 0.85866 0.58132 0.0
C1083 C 0.63369 0.9959 0.59606 0.0
C1084 C 0.62926 0.0528 0.61643 0.0
C1085 C 0.63038 0.91547 0.60147 0.0
C1086 C 0.62113 0.02814 0.64221 0.0
C1087 C 0.61774 0.9482 0.64772 0.0
loop_
_geom_bond_atom_site_label_1
_geom_bond_atom_site_label_2
_geom_bond_distance
_geom_bond_site_symmetry_2
_ccdc_geom_bond_type
Zn0 O6 1.969 . S
Zn0 O7 1.965 . S
Zn0 O11 2.024 . S
Zn0 O16 1.969 . S
Zn1 O8 1.969 1_565 S
Zn1 O14 1.969 . S
Zn1 O15 1.965 1_565 S
Zn1 O17 2.024 1_565 S
C2 O3 1.229 . S
C2 O11 1.058 . S
O3 C2 1.229 . S
C4 O5 1.229 . S
C4 O17 1.058 1_565 S
O5 C4 1.229 . S
O6 Zn0 1.969 . S
O6 C9 1.267 . S
O7 Zn0 1.965 . S
O7 C18 1.260 . S
O8 Zn1 1.969 1_545 S
O8 C18 1.258 . S
C9 O6 1.267 . S
C9 O10 1.228 . S
O10 C9 1.228 . S
O11 Zn0 2.024 . S
O11 C2 1.058 . S
C12 O13 1.228 . S
C12 O14 1.267 . S
O13 C12 1.228 . S
O14 Zn1 1.969 . S
O14 C12 1.267 . S
O15 Zn1 1.965 1_545 S
O15 C19 1.260 . S
O16 Zn0 1.969 . S
O16 C19 1.258 . S
O17 Zn1 2.024 1_545 S
O17 C4 1.058 1_545 S
C18 O7 1.260 . S
C18 O8 1.258 . S
C19 O15 1.260 . S
C19 O16 1.258 . S
Zn20 O26 1.969 . S
Zn20 O27 1.965 . S
Zn20 O31 2.024 . S
Zn20 O36 1.969 . S
Zn21 O28 1.969 1_545 S
Zn21 O34 1.969 . S
Zn21 O35 1.965 1_545 S
Zn21 O37 2.024 1_545 S
C22 O23 1.229 . S
C22 O31 1.058 . S
O23 C22 1.229 . S
C24 O25 1.229 . S
C24 O37 1.058 1_545 S
O25 C24 1.229 . S
O26 Zn20 1.969 . S
O26 C29 1.267 . S
O27 Zn20 1.965 . S
O27 C38 1.260 . S
O28 Zn21 1.969 1_565 S
O28 C38 1.258 . S
C29 O26 1.267 . S
C29 O30 1.228 . S
O30 C29 1.228 . S
O31 Zn20 2.024 . S
O31 C22 1.058 . S
C32 O33 1.228 . S
C32 O34 1.267 . S
O33 C32 1.228 . S
O34 Zn21 1.969 . S
O34 C32 1.267 . S
O35 Zn21 1.965 1_565 S
O35 C39 1.260 . S
O36 Zn20 1.969 . S
O36 C39 1.258 . S
O37 Zn21 2.024 1_565 S
O37 C24 1.058 1_565 S
C38 O27 1.260 . S
C38 O28 1.258 . S
C39 O35 1.260 . S
C39 O36 1.258 . S
Zn40 O46 1.969 . S
Zn40 O47 1.965 . S
Zn40 O51 2.024 . S
Zn40 O56 1.969 . S
Zn41 O48 1.969 1_545 S
Zn41 O54 1.969 . S
Zn41 O55 1.965 1_545 S
Zn41 O57 2.024 1_545 S
C42 O43 1.229 . S
C42 O51 1.058 . S
O43 C42 1.229 . S
C44 O45 1.229 . S
C44 O57 1.058 1_545 S
O45 C44 1.229 . S
O46 Zn40 1.969 . S
O46 C49 1.267 . S
O47 Zn40 1.965 . S
O47 C58 1.260 . S
O48 Zn41 1.969 1_565 S
O48 C58 1.258 . S
C49 O46 1.267 . S
C49 O50 1.228 . S
O50 C49 1.228 . S
O51 Zn40 2.024 . S
O51 C42 1.058 . S
C52 O53 1.228 . S
C52 O54 1.267 . S
O53 C52 1.228 . S
O54 Zn41 1.969 . S
O54 C52 1.267 . S
O55 Zn41 1.965 1_565 S
O55 C59 1.260 . S
O56 Zn40 1.969 . S
O56 C59 1.258 . S
O57 Zn41 2.024 1_565 S
O57 C44 1.058 1_565 S
C58 O47 1.260 . S
C58 O48 1.258 . S
C59 O55 1.260 . S
C59 O56 1.258 . S
Zn60 O66 1.969 . S
Zn60 O67 1.965 . S
Zn60 O71 2.024 . S
Zn60 O76 1.969 . S
Zn61 O68 1.969 1_565 S
Zn61 O74 1.969 . S
Zn61 O75 1.965 1_565 S
Zn61 O77 2.024 1_565 S
C62 O63 1.229 . S
C62 O71 1.058 . S
O63 C62 1.229 . S
C64 O65 1.229 . S
C64 O77 1.058 1_565 S
O65 C64 1.229 . S
O66 Zn60 1.969 . S
O66 C69 1.267 . S
O67 Zn60 1.965 . S
O67 C78 1.260 . S
O68 Zn61 1.969 1_545 S
O68 C78 1.258 . S
C69 O66 1.267 . S
C69 O70 1.228 . S
O70 C69 1.228 . S
O71 Zn60 2.024 . S
O71 C62 1.058 . S
C72 O73 1.228 . S
C72 O74 1.267 . S
O73 C72 1.228 . S
O74 Zn61 1.969 . S
O74 C72 1.267 . S
O75 Zn61 1.965 1_545 S
O75 C79 1.260 . S
O76 Zn60 1.969 . S
O76 C79 1.258 . S
O77 Zn61 2.024 1_545 S
O77 C64 1.058 1_545 S
C78 O67 1.260 . S
C78 O68 1.258 . S
C79 O75 1.260 . S
C79 O76 1.258 . S
Zn80 O86 1.969 . S
Zn80 O87 1.965 1_545 S
Zn80 O91 2.024 1_545 S
Zn80 O96 1.969 1_545 S
Zn81 O88 1.969 . S
Zn81 O94 1.969 . S
Zn81 O95 1.965 . S
Zn81 O97 2.024 . S
C82 O83 1.229 . S
C82 O91 1.058 1_545 S
O83 C82 1.229 . S
C84 O85 1.229 . S
C84 O97 1.058 . S
O85 C84 1.229 . S
O86 Zn80 1.969 . S
O86 C89 1.267 . S
O87 Zn80 1.965 1_565 S
O87 C98 1.260 . S
O88 Zn81 1.969 . S
O88 C98 1.258 . S
C89 O86 1.267 . S
C89 O90 1.228 . S
O90 C89 1.228 . S
O91 Zn80 2.024 1_565 S
O91 C82 1.058 1_565 S
C92 O93 1.228 . S
C92 O94 1.267 . S
O93 C92 1.228 . S
O94 Zn81 1.969 . S
O94 C92 1.267 . S
O95 Zn81 1.965 . S
O95 C99 1.260 . S
O96 Zn80 1.969 1_565 S
O96 C99 1.258 . S
O97 Zn81 2.024 . S
O97 C84 1.058 . S
C98 O87 1.260 . S
C98 O88 1.258 . S
C99 O95 1.260 . S
C99 O96 1.258 . S
Zn100 O106 1.969 . S
Zn100 O107 1.965 1_565 S
Zn100 O111 2.024 1_565 S
Zn100 O116 1.969 1_565 S
Zn101 O108 1.969 . S
Zn101 O114 1.969 . S
Zn101 O115 1.965 . S
Zn101 O117 2.024 . S
C102 O103 1.229 . S
C102 O111 1.058 1_565 S
O103 C102 1.229 . S
C104 O105 1.229 . S
C104 O117 1.058 . S
O105 C104 1.229 . S
O106 Zn100 1.969 . S
O106 C109 1.267 . S
O107 Zn100 1.965 1_545 S
O107 C118 1.260 . S
O108 Zn101 1.969 . S
O108 C118 1.258 . S
C109 O106 1.267 . S
C109 O110 1.228 . S
O110 C109 1.228 . S
O111 Zn100 2.024 1_545 S
O111 C102 1.058 1_545 S
C112 O113 1.228 . S
C112 O114 1.267 . S
O113 C112 1.228 . S
O114 Zn101 1.969 . S
O114 C112 1.267 . S
O115 Zn101 1.965 . S
O115 C119 1.260 . S
O116 Zn100 1.969 1_545 S
O116 C119 1.258 . S
O117 Zn101 2.024 . S
O117 C104 1.058 . S
C118 O107 1.260 . S
C118 O108 1.258 . S
C119 O115 1.260 . S
C119 O116 1.258 . S
Zn120 O126 1.969 . S
Zn120 O127 1.965 1_565 S
Zn120 O131 2.024 1_565 S
Zn120 O136 1.969 1_565 S
Zn121 O128 1.969 . S
Zn121 O134 1.969 . S
Zn121 O135 1.965 . S
Zn121 O137 2.024 . S
C122 O123 1.229 . S
C122 O131 1.058 1_565 S
O123 C122 1.229 . S
C124 O125 1.229 . S
C124 O137 1.058 . S
O125 C124 1.229 . S
O126 Zn120 1.969 . S
O126 C129 1.267 . S
O127 Zn120 1.965 1_545 S
O127 C138 1.260 . S
O128 Zn121 1.969 . S
O128 C138 1.258 . S
C129 O126 1.267 . S
C129 O130 1.228 . S
O130 C129 1.228 . S
O131 Zn120 2.024 1_545 S
O131 C122 1.058 1_545 S
C132 O133 1.228 . S
C132 O134 1.267 . S
O133 C132 1.228 . S
O134 Zn121 1.969 . S
O134 C132 1.267 . S
O135 Zn121 1.965 . S
O135 C139 1.260 . S
O136 Zn120 1.969 1_545 S
O136 C139 1.258 . S
O137 Zn121 2.024 . S
O137 C124 1.058 . S
C138 O127 1.260 . S
C138 O128 1.258 . S
C139 O135 1.260 . S
C139 O136 1.258 . S
Zn140 O146 1.969 . S
Zn140 O147 1.965 1_545 S
Zn140 O151 2.024 1_545 S
Zn140 O156 1.969 1_545 S
Zn141 O148 1.969 . S
Zn141 O154 1.969 . S
Zn141 O155 1.965 . S
Zn141 O157 2.024 . S
C142 O143 1.229 . S
C142 O151 1.058 1_545 S
O143 C142 1.229 . S
C144 O145 1.229 . S
C144 O157 1.058 . S
O145 C144 1.229 . S
O146 Zn140 1.969 . S
O146 C149 1.267 . S
O147 Zn140 1.965 1_565 S
O147 C158 1.260 . S
O148 Zn141 1.969 . S
O148 C158 1.258 . S
C149 O146 1.267 . S
C149 O150 1.228 . S
O150 C149 1.228 . S
O151 Zn140 2.024 1_565 S
O151 C142 1.058 1_565 S
C152 O153 1.228 . S
C152 O154 1.267 . S
O153 C152 1.228 . S
O154 Zn141 1.969 . S
O154 C152 1.267 . S
O155 Zn141 1.965 . S
O155 C159 1.260 . S
O156 Zn140 1.969 1_565 S
O156 C159 1.258 . S
O157 Zn141 2.024 . S
O157 C144 1.058 . S
C158 O147 1.260 . S
C158 O148 1.258 . S
C159 O155 1.260 . S
C159 O156 1.258 . S
Zn160 O166 1.969 . S
Zn160 O167 1.965 . S
Zn160 O171 2.024 . S
Zn160 O176 1.969 . S
Zn161 O168 1.969 . S
Zn161 O174 1.969 . S
Zn161 O175 1.965 . S
Zn161 O177 2.024 . S
C162 O163 1.229 . S
C162 O171 1.058 . S
O163 C162 1.229 . S
C164 O165 1.229 . S
C164 O177 1.058 . S
O165 C164 1.229 . S
O166 Zn160 1.969 . S
O166 C169 1.267 . S
O167 Zn160 1.965 . S
O167 C178 1.260 . S
O168 Zn161 1.969 . S
O168 C178 1.258 . S
C169 O166 1.267 . S
C169 O170 1.228 . S
O170 C169 1.228 . S
O171 Zn160 2.024 . S
O171 C162 1.058 . S
C172 O173 1.228 . S
C172 O174 1.267 . S
O173 C172 1.228 . S
O174 Zn161 1.969 . S
O174 C172 1.267 . S
O175 Zn161 1.965 . S
O175 C179 1.260 . S
O176 Zn160 1.969 . S
O176 C179 1.258 . S
O177 Zn161 2.024 . S
O177 C164 1.058 . S
C178 O167 1.260 . S
C178 O168 1.258 . S
C179 O175 1.260 . S
C179 O176 1.258 . S
Zn180 O186 1.969 . S
Zn180 O187 1.965 . S
Zn180 O191 2.024 . S
Zn180 O196 1.969 . S
Zn181 O188 1.969 . S
Zn181 O194 1.969 . S
Zn181 O195 1.965 . S
Zn181 O197 2.024 . S
C182 O183 1.229 . S
C182 O191 1.058 . S
O183 C182 1.229 . S
C184 O185 1.229 . S
C184 O197 1.058 . S
O185 C184 1.229 . S
O186 Zn180 1.969 . S
O186 C189 1.267 . S
O187 Zn180 1.965 . S
O187 C198 1.260 . S
O188 Zn181 1.969 . S
O188 C198 1.258 . S
C189 O186 1.267 . S
C189 O190 1.228 . S
O190 C189 1.228 . S
O191 Zn180 2.024 . S
O191 C182 1.058 . S
C192 O193 1.228 . S
C192 O194 1.267 . S
O193 C192 1.228 . S
O194 Zn181 1.969 . S
O194 C192 1.267 . S
O195 Zn181 1.965 . S
O195 C199 1.260 . S
O196 Zn180 1.969 . S
O196 C199 1.258 . S
O197 Zn181 2.024 . S
O197 C184 1.058 . S
C198 O187 1.260 . S
C198 O188 1.258 . S
C199 O195 1.260 . S
C199 O196 1.258 . S
Zn200 O206 1.969 . S
Zn200 O207 1.965 . S
Zn200 O211 2.024 . S
Zn200 O216 1.969 . S
Zn201 O208 1.969 . S
Zn201 O214 1.969 . S
Zn201 O215 1.965 . S
Zn201 O217 2.024 . S
C202 O203 1.229 . S
C202 O211 1.058 . S
O203 C202 1.229 . S
C204 O205 1.229 . S
C204 O217 1.058 . S
O205 C204 1.229 . S
O206 Zn200 1.969 . S
O206 C209 1.267 . S
O207 Zn200 1.965 . S
O207 C218 1.260 . S
O208 Zn201 1.969 . S
O208 C218 1.258 . S
C209 O206 1.267 . S
C209 O210 1.228 . S
O210 C209 1.228 . S
O211 Zn200 2.024 . S
O211 C202 1.058 . S
C212 O213 1.228 . S
C212 O214 1.267 . S
O213 C212 1.228 . S
O214 Zn201 1.969 . S
O214 C212 1.267 . S
O215 Zn201 1.965 . S
O215 C219 1.260 . S
O216 Zn200 1.969 . S
O216 C219 1.258 . S
O217 Zn201 2.024 . S
O217 C204 1.058 . S
C218 O207 1.260 . S
C218 O208 1.258 . S
C219 O215 1.260 . S
C219 O216 1.258 . S
Zn220 O226 1.969 . S
Zn220 O227 1.965 . S
Zn220 O231 2.024 . S
Zn220 O236 1.969 . S
Zn221 O228 1.969 . S
Zn221 O234 1.969 . S
Zn221 O235 1.965 . S
Zn221 O237 2.024 . S
C222 O223 1.229 . S
C222 O231 1.058 . S
O223 C222 1.229 . S
C224 O225 1.229 . S
C224 O237 1.058 . S
O225 C224 1.229 . S
O226 Zn220 1.969 . S
O226 C229 1.267 . S
O227 Zn220 1.965 . S
O227 C238 1.260 . S
O228 Zn221 1.969 . S
O228 C238 1.258 . S
C229 O226 1.267 . S
C229 O230 1.228 . S
O230 C229 1.228 . S
O231 Zn220 2.024 . S
O231 C222 1.058 . S
C232 O233 1.228 . S
C232 O234 1.267 . S
O233 C232 1.228 . S
O234 Zn221 1.969 . S
O234 C232 1.267 . S
O235 Zn221 1.965 . S
O235 C239 1.260 . S
O236 Zn220 1.969 . S
O236 C239 1.258 . S
O237 Zn221 2.024 . S
O237 C224 1.058 . S
C238 O227 1.260 . S
C238 O228 1.258 . S
C239 O235 1.260 . S
C239 O236 1.258 . S
Zn240 O246 1.969 . S
Zn240 O247 1.965 . S
Zn240 O251 2.024 . S
Zn240 O256 1.969 . S
Zn241 O248 1.969 . S
Zn241 O254 1.969 . S
Zn241 O255 1.965 . S
Zn241 O257 2.024 . S
C242 O243 1.229 . S
C242 O251 1.058 . S
O243 C242 1.229 . S
C244 O245 1.229 . S
C244 O257 1.058 . S
O245 C244 1.229 . S
O246 Zn240 1.969 . S
O246 C249 1.267 . S
O247 Zn240 1.965 . S
O247 C258 1.260 . S
O248 Zn241 1.969 . S
O248 C258 1.258 . S
C249 O246 1.267 . S
C249 O250 1.228 . S
O250 C249 1.228 . S
O251 Zn240 2.024 . S
O251 C242 1.058 . S
C252 O253 1.228 . S
C252 O254 1.267 . S
O253 C252 1.228 . S
O254 Zn241 1.969 . S
O254 C252 1.267 . S
O255 Zn241 1.965 . S
O255 C259 1.260 . S
O256 Zn240 1.969 . S
O256 C259 1.258 . S
O257 Zn241 2.024 . S
O257 C244 1.058 . S
C258 O247 1.260 . S
C258 O248 1.258 . S
C259 O255 1.260 . S
C259 O256 1.258 . S
Zn260 O266 1.969 . S
Zn260 O267 1.965 . S
Zn260 O271 2.024 . S
Zn260 O276 1.969 . S
Zn261 O268 1.969 . S
Zn261 O274 1.969 . S
Zn261 O275 1.965 . S
Zn261 O277 2.024 . S
C262 O263 1.229 . S
C262 O271 1.058 . S
O263 C262 1.229 . S
C264 O265 1.229 . S
C264 O277 1.058 . S
O265 C264 1.229 . S
O266 Zn260 1.969 . S
O266 C269 1.267 . S
O267 Zn260 1.965 . S
O267 C278 1.260 . S
O268 Zn261 1.969 . S
O268 C278 1.258 . S
C269 O266 1.267 . S
C269 O270 1.228 . S
O270 C269 1.228 . S
O271 Zn260 2.024 . S
O271 C262 1.058 . S
C272 O273 1.228 . S
C272 O274 1.267 . S
O273 C272 1.228 . S
O274 Zn261 1.969 . S
O274 C272 1.267 . S
O275 Zn261 1.965 . S
O275 C279 1.260 . S
O276 Zn260 1.969 . S
O276 C279 1.258 . S
O277 Zn261 2.024 . S
O277 C264 1.058 . S
C278 O267 1.260 . S
C278 O268 1.258 . S
C279 O275 1.260 . S
C279 O276 1.258 . S
Zn280 O286 1.969 . S
Zn280 O287 1.965 . S
Zn280 O291 2.024 . S
Zn280 O296 1.969 . S
Zn281 O288 1.969 . S
Zn281 O294 1.969 . S
Zn281 O295 1.965 . S
Zn281 O297 2.024 . S
C282 O283 1.229 . S
C282 O291 1.058 . S
O283 C282 1.229 . S
C284 O285 1.229 . S
C284 O297 1.058 . S
O285 C284 1.229 . S
O286 Zn280 1.969 . S
O286 C289 1.267 . S
O287 Zn280 1.965 . S
O287 C298 1.260 . S
O288 Zn281 1.969 . S
O288 C298 1.258 . S
C289 O286 1.267 . S
C289 O290 1.228 . S
O290 C289 1.228 . S
O291 Zn280 2.024 . S
O291 C282 1.058 . S
C292 O293 1.228 . S
C292 O294 1.267 . S
O293 C292 1.228 . S
O294 Zn281 1.969 . S
O294 C292 1.267 . S
O295 Zn281 1.965 . S
O295 C299 1.260 . S
O296 Zn280 1.969 . S
O296 C299 1.258 . S
O297 Zn281 2.024 . S
O297 C284 1.058 . S
C298 O287 1.260 . S
C298 O288 1.258 . S
C299 O295 1.260 . S
C299 O296 1.258 . S
Zn300 O306 1.969 . S
Zn300 O307 1.965 . S
Zn300 O311 2.024 . S
Zn300 O316 1.969 . S
Zn301 O308 1.969 . S
Zn301 O314 1.969 . S
Zn301 O315 1.965 . S
Zn301 O317 2.024 . S
C302 O303 1.229 . S
C302 O311 1.058 . S
O303 C302 1.229 . S
C304 O305 1.229 . S
C304 O317 1.058 . S
O305 C304 1.229 . S
O306 Zn300 1.969 . S
O306 C309 1.267 . S
O307 Zn300 1.965 . S
O307 C318 1.260 . S
O308 Zn301 1.969 . S
O308 C318 1.258 . S
C309 O306 1.267 . S
C309 O310 1.228 . S
O310 C309 1.228 . S
O311 Zn300 2.024 . S
O311 C302 1.058 . S
C312 O313 1.228 . S
C312 O314 1.267 . S
O313 C312 1.228 . S
O314 Zn301 1.969 . S
O314 C312 1.267 . S
O315 Zn301 1.965 . S
O315 C319 1.260 . S
O316 Zn300 1.969 . S
O316 C319 1.258 . S
O317 Zn301 2.024 . S
O317 C304 1.058 . S
C318 O307 1.260 . S
C318 O308 1.258 . S
C319 O315 1.260 . S
C319 O316 1.258 . S
H320 C326 0.930 . S
H321 C329 0.930 . S
H322 C330 0.930 . S
H323 C331 0.930 . S
H324 C334 0.930 . S
H325 C335 0.930 . S
C326 H320 0.930 . S
C326 C327 1.355 . S
C326 C328 1.415 . S
C327 C326 1.355 . S
C327 C329 1.419 . S
C328 C326 1.415 . S
C328 C333 1.425 . S
C328 C335 1.409 . S
C329 H321 0.930 . S
C329 C327 1.419 . S
C329 C330 1.362 . S
C330 H322 0.930 . S
C330 C329 1.362 . S
C330 C333 1.409 . S
C331 H323 0.930 . S
C331 C332 1.355 . S
C331 C333 1.415 . S
C332 C331 1.355 . S
C332 C334 1.419 . S
C333 C328 1.425 . S
C333 C330 1.409 . S
C333 C331 1.415 . S
C334 H324 0.930 . S
C334 C332 1.419 . S
C334 C335 1.362 . S
C335 H325 0.930 . S
C335 C328 1.409 . S
C335 C334 1.362 . S
H336 C342 0.930 . S
H337 C345 0.930 . S
H338 C346 0.930 . S
H339 C347 0.930 . S
H340 C350 0.930 . S
H341 C351 0.930 . S
C342 H336 0.930 . S
C342 C343 1.355 . S
C342 C344 1.415 . S
C343 C342 1.355 . S
C343 C345 1.419 . S
C344 C342 1.415 . S
C344 C349 1.425 . S
C344 C351 1.409 . S
C345 H337 0.930 . S
C345 C343 1.419 . S
C345 C346 1.362 . S
C346 H338 0.930 . S
C346 C345 1.362 . S
C346 C349 1.409 . S
C347 H339 0.930 . S
C347 C348 1.355 . S
C347 C349 1.415 . S
C348 C347 1.355 . S
C348 C350 1.419 . S
C349 C344 1.425 . S
C349 C346 1.409 . S
C349 C347 1.415 . S
C350 H340 0.930 . S
C350 C348 1.419 . S
C350 C351 1.362 . S
C351 H341 0.930 . S
C351 C344 1.409 . S
C351 C350 1.362 . S
H352 C358 0.930 . S
H353 C361 0.930 . S
H354 C362 0.930 . S
H355 C363 0.930 . S
H356 C366 0.930 . S
H357 C367 0.930 . S
C358 H352 0.930 . S
C358 C359 1.355 . S
C358 C360 1.415 . S
C359 C358 1.355 . S
C359 C361 1.419 . S
C360 C358 1.415 . S
C360 C365 1.425 . S
C360 C367 1.409 . S
C361 H353 0.930 . S
C361 C359 1.419 . S
C361 C362 1.362 . S
C362 H354 0.930 . S
C362 C361 1.362 . S
C362 C365 1.409 . S
C363 H355 0.930 . S
C363 C364 1.355 . S
C363 C365 1.415 . S
C364 C363 1.355 . S
C364 C366 1.419 . S
C365 C360 1.425 . S
C365 C362 1.409 . S
C365 C363 1.415 . S
C366 H356 0.930 . S
C366 C364 1.419 . S
C366 C367 1.362 . S
C367 H357 0.930 . S
C367 C360 1.409 . S
C367 C366 1.362 . S
H368 C374 0.930 . S
H369 C377 0.930 . S
H370 C378 0.930 . S
H371 C379 0.930 . S
H372 C382 0.930 . S
H373 C383 0.930 . S
C374 H368 0.930 . S
C374 C375 1.355 . S
C374 C376 1.415 . S
C375 C374 1.355 . S
C375 C377 1.419 . S
C376 C374 1.415 . S
C376 C381 1.425 . S
C376 C383 1.409 . S
C377 H369 0.930 . S
C377 C375 1.419 . S
C377 C378 1.362 . S
C378 H370 0.930 . S
C378 C377 1.362 . S
C378 C381 1.409 . S
C379 H371 0.930 . S
C379 C380 1.355 . S
C379 C381 1.415 . S
C380 C379 1.355 . S
C380 C382 1.419 . S
C381 C376 1.425 . S
C381 C378 1.409 . S
C381 C379 1.415 . S
C382 H372 0.930 . S
C382 C380 1.419 . S
C382 C383 1.362 . S
C383 H373 0.930 . S
C383 C376 1.409 . S
C383 C382 1.362 . S
H384 C390 0.930 . S
H385 C393 0.930 . S
H386 C394 0.930 . S
H387 C395 0.930 . S
H388 C398 0.930 . S
H389 C399 0.930 . S
C390 H384 0.930 . S
C390 C391 1.355 . S
C390 C392 1.415 . S
C391 C390 1.355 . S
C391 C393 1.419 . S
C392 C390 1.415 . S
C392 C397 1.425 . S
C392 C399 1.409 . S
C393 H385 0.930 . S
C393 C391 1.419 . S
C393 C394 1.362 . S
C394 H386 0.930 . S
C394 C393 1.362 . S
C394 C397 1.409 . S
C395 H387 0.930 . S
C395 C396 1.355 . S
C395 C397 1.415 . S
C396 C395 1.355 . S
C396 C398 1.419 . S
C397 C392 1.425 . S
C397 C394 1.409 . S
C397 C395 1.415 . S
C398 H388 0.930 . S
C398 C396 1.419 . S
C398 C399 1.362 . S
C399 H389 0.930 . S
C399 C392 1.409 . S
C399 C398 1.362 . S
H400 C406 0.930 . S
H401 C409 0.930 . S
H402 C410 0.930 . S
H403 C411 0.930 . S
H404 C414 0.930 . S
H405 C415 0.930 . S
C406 H400 0.930 . S
C406 C407 1.355 . S
C406 C408 1.415 . S
C407 C406 1.355 . S
C407 C409 1.419 . S
C408 C406 1.415 . S
C408 C413 1.425 . S
C408 C415 1.409 . S
C409 H401 0.930 . S
C409 C407 1.419 . S
C409 C410 1.362 . S
C410 H402 0.930 . S
C410 C409 1.362 . S
C410 C413 1.409 . S
C411 H403 0.930 . S
C411 C412 1.355 . S
C411 C413 1.415 . S
C412 C411 1.355 . S
C412 C414 1.419 . S
C413 C408 1.425 . S
C413 C410 1.409 . S
C413 C411 1.415 . S
C414 H404 0.930 . S
C414 C412 1.419 . S
C414 C415 1.362 . S
C415 H405 0.930 . S
C415 C408 1.409 . S
C415 C414 1.362 . S
H416 C422 0.930 . S
H417 C425 0.930 . S
H418 C426 0.930 . S
H419 C427 0.930 . S
H420 C430 0.930 . S
H421 C431 0.930 . S
C422 H416 0.930 . S
C422 C423 1.355 . S
C422 C424 1.415 . S
C423 C422 1.355 . S
C423 C425 1.419 . S
C424 C422 1.415 . S
C424 C429 1.425 . S
C424 C431 1.409 . S
C425 H417 0.930 . S
C425 C423 1.419 . S
C425 C426 1.362 . S
C426 H418 0.930 . S
C426 C425 1.362 . S
C426 C429 1.409 . S
C427 H419 0.930 . S
C427 C428 1.355 . S
C427 C429 1.415 . S
C428 C427 1.355 . S
C428 C430 1.419 . S
C429 C424 1.425 . S
C429 C426 1.409 . S
C429 C427 1.415 . S
C430 H420 0.930 . S
C430 C428 1.419 . S
C430 C431 1.362 . S
C431 H421 0.930 . S
C431 C424 1.409 . S
C431 C430 1.362 . S
H432 C438 0.930 . S
H433 C441 0.930 . S
H434 C442 0.930 . S
H435 C443 0.930 . S
H436 C446 0.930 . S
H437 C447 0.930 . S
C438 H432 0.930 . S
C438 C439 1.355 . S
C438 C440 1.415 . S
C439 C438 1.355 . S
C439 C441 1.419 . S
C440 C438 1.415 . S
C440 C445 1.425 . S
C440 C447 1.409 . S
C441 H433 0.930 . S
C441 C439 1.419 . S
C441 C442 1.362 . S
C442 H434 0.930 . S
C442 C441 1.362 . S
C442 C445 1.409 . S
C443 H435 0.930 . S
C443 C444 1.355 . S
C443 C445 1.415 . S
C444 C443 1.355 . S
C444 C446 1.419 . S
C445 C440 1.425 . S
C445 C442 1.409 . S
C445 C443 1.415 . S
C446 H436 0.930 . S
C446 C444 1.419 . S
C446 C447 1.362 . S
C447 H437 0.930 . S
C447 C440 1.409 . S
C447 C446 1.362 . S
H448 C454 0.930 . S
H449 C457 0.930 . S
H450 C458 0.930 . S
H451 C459 0.930 . S
H452 C462 0.930 . S
H453 C463 0.930 . S
C454 H448 0.930 . S
C454 C455 1.355 . S
C454 C456 1.415 . S
C455 C454 1.355 . S
C455 C457 1.419 1_565 S
C456 C454 1.415 . S
C456 C461 1.425 1_565 S
C456 C463 1.409 . S
C457 H449 0.930 . S
C457 C455 1.419 1_545 S
C457 C458 1.362 . S
C458 H450 0.930 . S
C458 C457 1.362 . S
C458 C461 1.409 . S
C459 H451 0.930 . S
C459 C460 1.355 . S
C459 C461 1.415 . S
C460 C459 1.355 . S
C460 C462 1.419 1_545 S
C461 C456 1.425 1_545 S
C461 C458 1.409 . S
C461 C459 1.415 . S
C462 H452 0.930 . S
C462 C460 1.419 1_565 S
C462 C463 1.362 . S
C463 H453 0.930 . S
C463 C456 1.409 . S
C463 C462 1.362 . S
H464 C470 0.930 . S
H465 C473 0.930 . S
H466 C474 0.930 . S
H467 C475 0.930 . S
H468 C478 0.930 . S
H469 C479 0.930 . S
C470 H464 0.930 . S
C470 C471 1.355 1_565 S
C470 C472 1.415 . S
C471 C470 1.355 1_545 S
C471 C473 1.419 . S
C472 C470 1.415 . S
C472 C477 1.425 1_565 S
C472 C479 1.409 . S
C473 H465 0.930 . S
C473 C471 1.419 . S
C473 C474 1.362 . S
C474 H466 0.930 . S
C474 C473 1.362 . S
C474 C477 1.409 . S
C475 H467 0.930 . S
C475 C476 1.355 1_545 S
C475 C477 1.415 . S
C476 C475 1.355 1_565 S
C476 C478 1.419 . S
C477 C472 1.425 1_545 S
C477 C474 1.409 . S
C477 C475 1.415 . S
C478 H468 0.930 . S
C478 C476 1.419 . S
C478 C479 1.362 . S
C479 H469 0.930 . S
C479 C472 1.409 . S
C479 C478 1.362 . S
H480 C486 0.930 . S
H481 C489 0.930 1_565 S
H482 C490 0.930 . S
H483 C491 0.930 . S
H484 C494 0.930 1_545 S
H485 C495 0.930 . S
C486 H480 0.930 . S
C486 C487 1.355 . S
C486 C488 1.415 . S
C487 C486 1.355 . S
C487 C489 1.419 . S
C488 C486 1.415 . S
C488 C493 1.425 1_545 S
C488 C495 1.409 . S
C489 H481 0.930 1_545 S
C489 C487 1.419 . S
C489 C490 1.362 1_545 S
C490 H482 0.930 . S
C490 C489 1.362 1_565 S
C490 C493 1.409 . S
C491 H483 0.930 . S
C491 C492 1.355 . S
C491 C493 1.415 . S
C492 C491 1.355 . S
C492 C494 1.419 . S
C493 C488 1.425 1_565 S
C493 C490 1.409 . S
C493 C491 1.415 . S
C494 H484 0.930 1_565 S
C494 C492 1.419 . S
C494 C495 1.362 1_565 S
C495 H485 0.930 . S
C495 C488 1.409 . S
C495 C494 1.362 1_545 S
H496 C502 0.930 . S
H497 C505 0.930 . S
H498 C506 0.930 . S
H499 C507 0.930 . S
H500 C510 0.930 . S
H501 C511 0.930 . S
C502 H496 0.930 . S
C502 C503 1.355 . S
C502 C504 1.415 . S
C503 C502 1.355 . S
C503 C505 1.419 . S
C504 C502 1.415 . S
C504 C509 1.425 1_545 S
C504 C511 1.409 . S
C505 H497 0.930 . S
C505 C503 1.419 . S
C505 C506 1.362 1_545 S
C506 H498 0.930 . S
C506 C505 1.362 1_565 S
C506 C509 1.409 . S
C507 H499 0.930 . S
C507 C508 1.355 . S
C507 C509 1.415 . S
C508 C507 1.355 . S
C508 C510 1.419 . S
C509 C504 1.425 1_565 S
C509 C506 1.409 . S
C509 C507 1.415 . S
C510 H500 0.930 . S
C510 C508 1.419 . S
C510 C511 1.362 1_565 S
C511 H501 0.930 . S
C511 C504 1.409 . S
C511 C510 1.362 1_545 S
H512 C518 0.930 . S
H513 C521 0.930 . S
H514 C522 0.930 . S
H515 C523 0.930 . S
H516 C526 0.930 . S
H517 C527 0.930 . S
C518 H512 0.930 . S
C518 C519 1.355 . S
C518 C520 1.415 . S
C519 C518 1.355 . S
C519 C521 1.419 . S
C520 C518 1.415 . S
C520 C525 1.425 . S
C520 C527 1.409 . S
C521 H513 0.930 . S
C521 C519 1.419 . S
C521 C522 1.362 . S
C522 H514 0.930 . S
C522 C521 1.362 . S
C522 C525 1.409 . S
C523 H515 0.930 . S
C523 C524 1.355 . S
C523 C525 1.415 . S
C524 C523 1.355 . S
C524 C526 1.419 . S
C525 C520 1.425 . S
C525 C522 1.409 . S
C525 C523 1.415 . S
C526 H516 0.930 . S
C526 C524 1.419 . S
C526 C527 1.362 . S
C527 H517 0.930 . S
C527 C520 1.409 . S
C527 C526 1.362 . S
H528 C534 0.930 . S
H529 C537 0.930 . S
H530 C538 0.930 . S
H531 C539 0.930 . S
H532 C542 0.930 . S
H533 C543 0.930 . S
C534 H528 0.930 . S
C534 C535 1.355 . S
C534 C536 1.415 . S
C535 C534 1.355 . S
C535 C537 1.419 . S
C536 C534 1.415 . S
C536 C541 1.425 . S
C536 C543 1.409 . S
C537 H529 0.930 . S
C537 C535 1.419 . S
C537 C538 1.362 . S
C538 H530 0.930 . S
C538 C537 1.362 . S
C538 C541 1.409 . S
C539 H531 0.930 . S
C539 C540 1.355 . S
C539 C541 1.415 . S
C540 C539 1.355 . S
C540 C542 1.419 . S
C541 C536 1.425 . S
C541 C538 1.409 . S
C541 C539 1.415 . S
C542 H532 0.930 . S
C542 C540 1.419 . S
C542 C543 1.362 . S
C543 H533 0.930 . S
C543 C536 1.409 . S
C543 C542 1.362 . S
H544 C550 0.930 . S
H545 C553 0.930 . S
H546 C554 0.930 . S
H547 C555 0.930 . S
H548 C558 0.930 . S
H549 C559 0.930 . S
C550 H544 0.930 . S
C550 C551 1.355 . S
C550 C552 1.415 . S
C551 C550 1.355 . S
C551 C553 1.419 . S
C552 C550 1.415 . S
C552 C557 1.425 . S
C552 C559 1.409 . S
C553 H545 0.930 . S
C553 C551 1.419 . S
C553 C554 1.362 . S
C554 H546 0.930 . S
C554 C553 1.362 . S
C554 C557 1.409 . S
C555 H547 0.930 . S
C555 C556 1.355 . S
C555 C557 1.415 . S
C556 C555 1.355 . S
C556 C558 1.419 . S
C557 C552 1.425 . S
C557 C554 1.409 . S
C557 C555 1.415 . S
C558 H548 0.930 . S
C558 C556 1.419 . S
C558 C559 1.362 . S
C559 H549 0.930 . S
C559 C552 1.409 . S
C559 C558 1.362 . S
H560 C566 0.930 . S
H561 C569 0.930 . S
H562 C570 0.930 . S
H563 C571 0.930 . S
H564 C574 0.930 . S
H565 C575 0.930 . S
C566 H560 0.930 . S
C566 C567 1.355 . S
C566 C568 1.415 . S
C567 C566 1.355 . S
C567 C569 1.419 . S
C568 C566 1.415 . S
C568 C573 1.425 . S
C568 C575 1.409 . S
C569 H561 0.930 . S
C569 C567 1.419 . S
C569 C570 1.362 . S
C570 H562 0.930 . S
C570 C569 1.362 . S
C570 C573 1.409 . S
C571 H563 0.930 . S
C571 C572 1.355 . S
C571 C573 1.415 . S
C572 C571 1.355 . S
C572 C574 1.419 . S
C573 C568 1.425 . S
C573 C570 1.409 . S
C573 C571 1.415 . S
C574 H564 0.930 . S
C574 C572 1.419 . S
C574 C575 1.362 . S
C575 H565 0.930 . S
C575 C568 1.409 . S
C575 C574 1.362 . S
H576 C582 0.930 . S
H577 C585 0.930 . S
H578 C586 0.930 1_565 S
H579 C587 0.930 . S
H580 C590 0.930 . S
H581 C591 0.930 . S
C582 H576 0.930 . S
C582 C583 1.355 . S
C582 C584 1.415 . S
C583 C582 1.355 . S
C583 C585 1.419 . S
C584 C582 1.415 . S
C584 C589 1.425 1_556 S
C584 C591 1.409 1_556 S
C585 H577 0.930 . S
C585 C583 1.419 . S
C585 C586 1.362 . S
C586 H578 0.930 1_545 S
C586 C585 1.362 . S
C586 C589 1.409 1_556 S
C587 H579 0.930 . S
C587 C588 1.355 . S
C587 C589 1.415 . S
C588 C587 1.355 . S
C588 C590 1.419 . S
C589 C584 1.425 1_554 S
C589 C586 1.409 1_554 S
C589 C587 1.415 . S
C590 H580 0.930 . S
C590 C588 1.419 . S
C590 C591 1.362 . S
C591 H581 0.930 . S
C591 C584 1.409 1_554 S
C591 C590 1.362 . S
H592 C598 0.930 . S
H593 C601 0.930 . S
H594 C602 0.930 . S
H595 C603 0.930 . S
H596 C606 0.930 . S
H597 C607 0.930 . S
C598 H592 0.930 . S
C598 C599 1.355 . S
C598 C600 1.415 . S
C599 C598 1.355 . S
C599 C601 1.419 . S
C600 C598 1.415 . S
C600 C605 1.425 1_556 S
C600 C607 1.409 1_556 S
C601 H593 0.930 . S
C601 C599 1.419 . S
C601 C602 1.362 . S
C602 H594 0.930 . S
C602 C601 1.362 . S
C602 C605 1.409 1_556 S
C603 H595 0.930 . S
C603 C604 1.355 . S
C603 C605 1.415 . S
C604 C603 1.355 . S
C604 C606 1.419 . S
C605 C600 1.425 1_554 S
C605 C602 1.409 1_554 S
C605 C603 1.415 . S
C606 H596 0.930 . S
C606 C604 1.419 . S
C606 C607 1.362 . S
C607 H597 0.930 . S
C607 C600 1.409 1_554 S
C607 C606 1.362 . S
H608 C614 0.930 . S
H609 C617 0.930 . S
H610 C618 0.930 . S
H611 C619 0.930 . S
H612 C622 0.930 . S
H613 C623 0.930 . S
C614 H608 0.930 . S
C614 C615 1.355 . S
C614 C616 1.415 . S
C615 C614 1.355 . S
C615 C617 1.419 . S
C616 C614 1.415 . S
C616 C621 1.425 . S
C616 C623 1.409 . S
C617 H609 0.930 . S
C617 C615 1.419 . S
C617 C618 1.362 . S
C618 H610 0.930 . S
C618 C617 1.362 . S
C618 C621 1.409 . S
C619 H611 0.930 . S
C619 C620 1.355 . S
C619 C621 1.415 . S
C620 C619 1.355 . S
C620 C622 1.419 . S
C621 C616 1.425 . S
C621 C618 1.409 . S
C621 C619 1.415 . S
C622 H612 0.930 . S
C622 C620 1.419 . S
C622 C623 1.362 . S
C623 H613 0.930 . S
C623 C616 1.409 . S
C623 C622 1.362 . S
H624 C630 0.930 . S
H625 C633 0.930 . S
H626 C634 0.930 . S
H627 C635 0.930 . S
H628 C638 0.930 . S
H629 C639 0.930 1_565 S
C630 H624 0.930 . S
C630 C631 1.355 . S
C630 C632 1.415 . S
C631 C630 1.355 . S
C631 C633 1.419 . S
C632 C630 1.415 . S
C632 C637 1.425 . S
C632 C639 1.409 . S
C633 H625 0.930 . S
C633 C631 1.419 . S
C633 C634 1.362 . S
C634 H626 0.930 . S
C634 C633 1.362 . S
C634 C637 1.409 . S
C635 H627 0.930 . S
C635 C636 1.355 . S
C635 C637 1.415 . S
C636 C635 1.355 . S
C636 C638 1.419 . S
C637 C632 1.425 . S
C637 C634 1.409 . S
C637 C635 1.415 . S
C638 H628 0.930 . S
C638 C636 1.419 . S
C638 C639 1.362 . S
C639 H629 0.930 1_545 S
C639 C632 1.409 . S
C639 C638 1.362 . S
H640 C646 0.930 . S
H641 C649 0.930 . S
H642 C650 0.930 . S
H643 C651 0.930 . S
H644 C654 0.930 . S
H645 C655 0.930 . S
C646 H640 0.930 . S
C646 C647 1.355 . S
C646 C648 1.415 . S
C647 C646 1.355 . S
C647 C649 1.419 . S
C648 C646 1.415 . S
C648 C653 1.425 1_554 S
C648 C655 1.409 1_554 S
C649 H641 0.930 . S
C649 C647 1.419 . S
C649 C650 1.362 . S
C650 H642 0.930 . S
C650 C649 1.362 . S
C650 C653 1.409 1_554 S
C651 H643 0.930 . S
C651 C652 1.355 . S
C651 C653 1.415 . S
C652 C651 1.355 . S
C652 C654 1.419 . S
C653 C648 1.425 1_556 S
C653 C650 1.409 1_556 S
C653 C651 1.415 . S
C654 H644 0.930 . S
C654 C652 1.419 . S
C654 C655 1.362 . S
C655 H645 0.930 . S
C655 C648 1.409 1_556 S
C655 C654 1.362 . S
H656 C662 0.930 . S
H657 C665 0.930 . S
H658 C666 0.930 . S
H659 C667 0.930 . S
H660 C670 0.930 . S
H661 C671 0.930 . S
C662 H656 0.930 . S
C662 C663 1.355 . S
C662 C664 1.415 . S
C663 C662 1.355 . S
C663 C665 1.419 . S
C664 C662 1.415 . S
C664 C669 1.425 1_556 S
C664 C671 1.409 1_556 S
C665 H657 0.930 . S
C665 C663 1.419 . S
C665 C666 1.362 . S
C666 H658 0.930 . S
C666 C665 1.362 . S
C666 C669 1.409 1_556 S
C667 H659 0.930 . S
C667 C668 1.355 . S
C667 C669 1.415 . S
C668 C667 1.355 . S
C668 C670 1.419 . S
C669 C664 1.425 1_554 S
C669 C666 1.409 1_554 S
C669 C667 1.415 . S
C670 H660 0.930 . S
C670 C668 1.419 . S
C670 C671 1.362 . S
C671 H661 0.930 . S
C671 C664 1.409 1_554 S
C671 C670 1.362 . S
H672 C678 0.930 . S
H673 C681 0.930 . S
H674 C682 0.930 . S
H675 C683 0.930 . S
H676 C686 0.930 . S
H677 C687 0.930 . S
C678 H672 0.930 . S
C678 C679 1.355 . S
C678 C680 1.415 . S
C679 C678 1.355 . S
C679 C681 1.419 . S
C680 C678 1.415 . S
C680 C685 1.425 . S
C680 C687 1.409 . S
C681 H673 0.930 . S
C681 C679 1.419 . S
C681 C682 1.362 . S
C682 H674 0.930 . S
C682 C681 1.362 . S
C682 C685 1.409 . S
C683 H675 0.930 . S
C683 C684 1.355 . S
C683 C685 1.415 . S
C684 C683 1.355 . S
C684 C686 1.419 . S
C685 C680 1.425 . S
C685 C682 1.409 . S
C685 C683 1.415 . S
C686 H676 0.930 . S
C686 C684 1.419 . S
C686 C687 1.362 . S
C687 H677 0.930 . S
C687 C680 1.409 . S
C687 C686 1.362 . S
H688 C694 0.930 . S
H689 C697 0.930 . S
H690 C698 0.930 . S
H691 C699 0.930 . S
H692 C702 0.930 . S
H693 C703 0.930 . S
C694 H688 0.930 . S
C694 C695 1.355 . S
C694 C696 1.415 . S
C695 C694 1.355 . S
C695 C697 1.419 . S
C696 C694 1.415 . S
C696 C701 1.425 . S
C696 C703 1.409 . S
C697 H689 0.930 . S
C697 C695 1.419 . S
C697 C698 1.362 . S
C698 H690 0.930 . S
C698 C697 1.362 . S
C698 C701 1.409 . S
C699 H691 0.930 . S
C699 C700 1.355 . S
C699 C701 1.415 . S
C700 C699 1.355 . S
C700 C702 1.419 . S
C701 C696 1.425 . S
C701 C698 1.409 . S
C701 C699 1.415 . S
C702 H692 0.930 . S
C702 C700 1.419 . S
C702 C703 1.362 . S
C703 H693 0.930 . S
C703 C696 1.409 . S
C703 C702 1.362 . S
H704 C710 0.930 . S
H705 C713 0.930 . S
H706 C714 0.930 . S
H707 C715 0.930 . S
H708 C718 0.930 . S
H709 C719 0.930 . S
C710 H704 0.930 . S
C710 C711 1.355 1_565 S
C710 C712 1.415 . S
C711 C710 1.355 1_545 S
C711 C713 1.419 . S
C712 C710 1.415 . S
C712 C717 1.425 1_665 S
C712 C719 1.409 1_655 S
C713 H705 0.930 . S
C713 C711 1.419 . S
C713 C714 1.362 . S
C714 H706 0.930 . S
C714 C713 1.362 . S
C714 C717 1.409 1_655 S
C715 H707 0.930 . S
C715 C716 1.355 1_545 S
C715 C717 1.415 . S
C716 C715 1.355 1_565 S
C716 C718 1.419 . S
C717 C712 1.425 1_445 S
C717 C714 1.409 1_455 S
C717 C715 1.415 . S
C718 H708 0.930 . S
C718 C716 1.419 . S
C718 C719 1.362 . S
C719 H709 0.930 . S
C719 C712 1.409 1_455 S
C719 C718 1.362 . S
H720 C726 0.930 . S
H721 C729 0.930 . S
H722 C730 0.930 . S
H723 C731 0.930 . S
H724 C734 0.930 . S
H725 C735 0.930 . S
C726 H720 0.930 . S
C726 C727 1.355 1_545 S
C726 C728 1.415 . S
C727 C726 1.355 1_565 S
C727 C729 1.419 . S
C728 C726 1.415 . S
C728 C733 1.425 1_645 S
C728 C735 1.409 1_655 S
C729 H721 0.930 . S
C729 C727 1.419 . S
C729 C730 1.362 . S
C730 H722 0.930 . S
C730 C729 1.362 . S
C730 C733 1.409 1_655 S
C731 H723 0.930 . S
C731 C732 1.355 1_565 S
C731 C733 1.415 . S
C732 C731 1.355 1_545 S
C732 C734 1.419 . S
C733 C728 1.425 1_465 S
C733 C730 1.409 1_455 S
C733 C731 1.415 . S
C734 H724 0.930 . S
C734 C732 1.419 . S
C734 C735 1.362 . S
C735 H725 0.930 . S
C735 C728 1.409 1_455 S
C735 C734 1.362 . S
H736 C742 0.930 . S
H737 C745 0.930 . S
H738 C746 0.930 . S
H739 C747 0.930 . S
H740 C750 0.930 . S
H741 C751 0.930 . S
C742 H736 0.930 . S
C742 C743 1.353 1_545 S
C742 C744 1.415 . S
C743 C742 1.353 1_565 S
C743 C745 1.421 . S
C744 C742 1.415 . S
C744 C749 1.425 1_445 S
C744 C751 1.409 1_455 S
C745 H737 0.930 . S
C745 C743 1.421 . S
C745 C746 1.362 . S
C746 H738 0.930 . S
C746 C745 1.362 . S
C746 C749 1.409 1_455 S
C747 H739 0.930 . S
C747 C748 1.353 1_565 S
C747 C749 1.415 . S
C748 C747 1.353 1_545 S
C748 C750 1.421 . S
C749 C744 1.425 1_665 S
C749 C746 1.409 1_655 S
C749 C747 1.415 . S
C750 H740 0.930 . S
C750 C748 1.421 . S
C750 C751 1.362 . S
C751 H741 0.930 . S
C751 C744 1.409 1_655 S
C751 C750 1.362 . S
H752 C758 0.930 . S
H753 C761 0.930 . S
H754 C762 0.930 . S
H755 C763 0.930 . S
H756 C766 0.930 . S
H757 C767 0.930 . S
C758 H752 0.930 . S
C758 C759 1.355 1_565 S
C758 C760 1.415 . S
C759 C758 1.355 1_545 S
C759 C761 1.419 . S
C760 C758 1.415 . S
C760 C765 1.425 1_665 S
C760 C767 1.409 1_655 S
C761 H753 0.930 . S
C761 C759 1.419 . S
C761 C762 1.362 . S
C762 H754 0.930 . S
C762 C761 1.362 . S
C762 C765 1.409 1_655 S
C763 H755 0.930 . S
C763 C764 1.355 1_545 S
C763 C765 1.415 . S
C764 C763 1.355 1_565 S
C764 C766 1.419 . S
C765 C760 1.425 1_445 S
C765 C762 1.409 1_455 S
C765 C763 1.415 . S
C766 H756 0.930 . S
C766 C764 1.419 . S
C766 C767 1.362 . S
C767 H757 0.930 . S
C767 C760 1.409 1_455 S
C767 C766 1.362 . S
H768 C774 0.930 . S
H769 C777 0.930 . S
H770 C778 0.930 . S
H771 C779 0.930 . S
H772 C782 0.930 . S
H773 C783 0.930 . S
C774 H768 0.930 . S
C774 C775 1.355 . S
C774 C776 1.415 . S
C775 C774 1.355 . S
C775 C777 1.419 . S
C776 C774 1.415 . S
C776 C781 1.425 . S
C776 C783 1.409 . S
C777 H769 0.930 . S
C777 C775 1.419 . S
C777 C778 1.362 . S
C778 H770 0.930 . S
C778 C777 1.362 . S
C778 C781 1.409 . S
C779 H771 0.930 . S
C779 C780 1.355 . S
C779 C781 1.415 . S
C780 C779 1.355 . S
C780 C782 1.419 . S
C781 C776 1.425 . S
C781 C778 1.409 . S
C781 C779 1.415 . S
C782 H772 0.930 . S
C782 C780 1.419 . S
C782 C783 1.362 . S
C783 H773 0.930 . S
C783 C776 1.409 . S
C783 C782 1.362 . S
H784 C790 0.930 . S
H785 C793 0.930 . S
H786 C794 0.930 . S
H787 C795 0.930 . S
H788 C798 0.930 . S
H789 C799 0.930 . S
C790 H784 0.930 . S
C790 C791 1.355 . S
C790 C792 1.415 . S
C791 C790 1.355 . S
C791 C793 1.419 . S
C792 C790 1.415 . S
C792 C797 1.425 . S
C792 C799 1.409 . S
C793 H785 0.930 . S
C793 C791 1.419 . S
C793 C794 1.362 . S
C794 H786 0.930 . S
C794 C793 1.362 . S
C794 C797 1.409 . S
C795 H787 0.930 . S
C795 C796 1.355 . S
C795 C797 1.415 . S
C796 C795 1.355 . S
C796 C798 1.419 . S
C797 C792 1.425 . S
C797 C794 1.409 . S
C797 C795 1.415 . S
C798 H788 0.930 . S
C798 C796 1.419 . S
C798 C799 1.362 . S
C799 H789 0.930 . S
C799 C792 1.409 . S
C799 C798 1.362 . S
H800 C806 0.930 . S
H801 C809 0.930 . S
H802 C810 0.930 . S
H803 C811 0.930 . S
H804 C814 0.930 . S
H805 C815 0.930 . S
C806 H800 0.930 . S
C806 C807 1.355 . S
C806 C808 1.415 . S
C807 C806 1.355 . S
C807 C809 1.419 . S
C808 C806 1.415 . S
C808 C813 1.425 . S
C808 C815 1.409 . S
C809 H801 0.930 . S
C809 C807 1.419 . S
C809 C810 1.362 . S
C810 H802 0.930 . S
C810 C809 1.362 . S
C810 C813 1.409 . S
C811 H803 0.930 . S
C811 C812 1.355 . S
C811 C813 1.415 . S
C812 C811 1.355 . S
C812 C814 1.419 . S
C813 C808 1.425 . S
C813 C810 1.409 . S
C813 C811 1.415 . S
C814 H804 0.930 . S
C814 C812 1.419 . S
C814 C815 1.362 . S
C815 H805 0.930 . S
C815 C808 1.409 . S
C815 C814 1.362 . S
H816 C822 0.930 . S
H817 C825 0.930 . S
H818 C826 0.930 . S
H819 C827 0.930 . S
H820 C830 0.930 . S
H821 C831 0.930 . S
C822 H816 0.930 . S
C822 C823 1.355 . S
C822 C824 1.415 . S
C823 C822 1.355 . S
C823 C825 1.419 . S
C824 C822 1.415 . S
C824 C829 1.425 . S
C824 C831 1.409 . S
C825 H817 0.930 . S
C825 C823 1.419 . S
C825 C826 1.362 . S
C826 H818 0.930 . S
C826 C825 1.362 . S
C826 C829 1.409 . S
C827 H819 0.930 . S
C827 C828 1.355 . S
C827 C829 1.415 . S
C828 C827 1.355 . S
C828 C830 1.419 . S
C829 C824 1.425 . S
C829 C826 1.409 . S
C829 C827 1.415 . S
C830 H820 0.930 . S
C830 C828 1.419 . S
C830 C831 1.362 . S
C831 H821 0.930 . S
C831 C824 1.409 . S
C831 C830 1.362 . S
H832 C838 0.930 . S
H833 C841 0.930 . S
H834 C842 0.930 . S
H835 C843 0.930 . S
H836 C846 0.930 . S
H837 C847 0.930 . S
C838 H832 0.930 . S
C838 C839 1.355 . S
C838 C840 1.415 . S
C839 C838 1.355 . S
C839 C841 1.419 . S
C840 C838 1.415 . S
C840 C845 1.425 . S
C840 C847 1.409 . S
C841 H833 0.930 . S
C841 C839 1.419 . S
C841 C842 1.362 . S
C842 H834 0.930 . S
C842 C841 1.362 . S
C842 C845 1.409 . S
C843 H835 0.930 . S
C843 C844 1.355 . S
C843 C845 1.415 . S
C844 C843 1.355 . S
C844 C846 1.419 . S
C845 C840 1.425 . S
C845 C842 1.409 . S
C845 C843 1.415 . S
C846 H836 0.930 . S
C846 C844 1.419 . S
C846 C847 1.362 . S
C847 H837 0.930 . S
C847 C840 1.409 . S
C847 C846 1.362 . S
H848 C854 0.930 . S
H849 C857 0.930 . S
H850 C858 0.930 . S
H851 C859 0.930 . S
H852 C862 0.930 . S
H853 C863 0.930 . S
C854 H848 0.930 . S
C854 C855 1.355 . S
C854 C856 1.415 . S
C855 C854 1.355 . S
C855 C857 1.419 . S
C856 C854 1.415 . S
C856 C861 1.425 . S
C856 C863 1.409 . S
C857 H849 0.930 . S
C857 C855 1.419 . S
C857 C858 1.362 . S
C858 H850 0.930 . S
C858 C857 1.362 . S
C858 C861 1.409 . S
C859 H851 0.930 . S
C859 C860 1.355 . S
C859 C861 1.415 . S
C860 C859 1.355 . S
C860 C862 1.419 . S
C861 C856 1.425 . S
C861 C858 1.409 . S
C861 C859 1.415 . S
C862 H852 0.930 . S
C862 C860 1.419 . S
C862 C863 1.362 . S
C863 H853 0.930 . S
C863 C856 1.409 . S
C863 C862 1.362 . S
H864 C870 0.930 . S
H865 C873 0.930 . S
H866 C874 0.930 . S
H867 C875 0.930 . S
H868 C878 0.930 . S
H869 C879 0.930 . S
C870 H864 0.930 . S
C870 C871 1.355 . S
C870 C872 1.415 . S
C871 C870 1.355 . S
C871 C873 1.419 . S
C872 C870 1.415 . S
C872 C877 1.425 . S
C872 C879 1.409 . S
C873 H865 0.930 . S
C873 C871 1.419 . S
C873 C874 1.362 . S
C874 H866 0.930 . S
C874 C873 1.362 . S
C874 C877 1.409 . S
C875 H867 0.930 . S
C875 C876 1.355 . S
C875 C877 1.415 . S
C876 C875 1.355 . S
C876 C878 1.419 . S
C877 C872 1.425 . S
C877 C874 1.409 . S
C877 C875 1.415 . S
C878 H868 0.930 . S
C878 C876 1.419 . S
C878 C879 1.362 . S
C879 H869 0.930 . S
C879 C872 1.409 . S
C879 C878 1.362 . S
H880 C886 0.930 . S
H881 C889 0.930 . S
H882 C890 0.930 . S
H883 C891 0.930 . S
H884 C894 0.930 . S
H885 C895 0.930 . S
C886 H880 0.930 . S
C886 C887 1.355 . S
C886 C888 1.415 . S
C887 C886 1.355 . S
C887 C889 1.419 . S
C888 C886 1.415 . S
C888 C893 1.425 . S
C888 C895 1.409 . S
C889 H881 0.930 . S
C889 C887 1.419 . S
C889 C890 1.362 . S
C890 H882 0.930 . S
C890 C889 1.362 . S
C890 C893 1.409 . S
C891 H883 0.930 . S
C891 C892 1.355 . S
C891 C893 1.415 . S
C892 C891 1.355 . S
C892 C894 1.419 . S
C893 C888 1.425 . S
C893 C890 1.409 . S
C893 C891 1.415 . S
C894 H884 0.930 . S
C894 C892 1.419 . S
C894 C895 1.362 . S
C895 H885 0.930 . S
C895 C888 1.409 . S
C895 C894 1.362 . S
H896 C902 0.930 . S
H897 C905 0.930 . S
H898 C906 0.930 . S
H899 C907 0.930 . S
H900 C910 0.930 . S
H901 C911 0.930 . S
C902 H896 0.930 . S
C902 C903 1.355 . S
C902 C904 1.415 . S
C903 C902 1.355 . S
C903 C905 1.419 . S
C904 C902 1.415 . S
C904 C909 1.425 . S
C904 C911 1.409 . S
C905 H897 0.930 . S
C905 C903 1.419 . S
C905 C906 1.362 . S
C906 H898 0.930 . S
C906 C905 1.362 . S
C906 C909 1.409 . S
C907 H899 0.930 . S
C907 C908 1.355 . S
C907 C909 1.415 . S
C908 C907 1.355 . S
C908 C910 1.419 . S
C909 C904 1.425 . S
C909 C906 1.409 . S
C909 C907 1.415 . S
C910 H900 0.930 . S
C910 C908 1.419 . S
C910 C911 1.362 . S
C911 H901 0.930 . S
C911 C904 1.409 . S
C911 C910 1.362 . S
H912 C918 0.930 . S
H913 C921 0.930 . S
H914 C922 0.930 . S
H915 C923 0.930 . S
H916 C926 0.930 . S
H917 C927 0.930 . S
C918 H912 0.930 . S
C918 C919 1.355 . S
C918 C920 1.415 . S
C919 C918 1.355 . S
C919 C921 1.419 . S
C920 C918 1.415 . S
C920 C925 1.425 . S
C920 C927 1.409 . S
C921 H913 0.930 . S
C921 C919 1.419 . S
C921 C922 1.362 . S
C922 H914 0.930 . S
C922 C921 1.362 . S
C922 C925 1.409 . S
C923 H915 0.930 . S
C923 C924 1.355 . S
C923 C925 1.415 . S
C924 C923 1.355 . S
C924 C926 1.419 . S
C925 C920 1.425 . S
C925 C922 1.409 . S
C925 C923 1.415 . S
C926 H916 0.930 . S
C926 C924 1.419 . S
C926 C927 1.362 . S
C927 H917 0.930 . S
C927 C920 1.409 . S
C927 C926 1.362 . S
H928 C934 0.930 . S
H929 C937 0.930 . S
H930 C938 0.930 . S
H931 C939 0.930 . S
H932 C942 0.930 . S
H933 C943 0.930 . S
C934 H928 0.930 . S
C934 C935 1.355 . S
C934 C936 1.415 . S
C935 C934 1.355 . S
C935 C937 1.419 . S
C936 C934 1.415 . S
C936 C941 1.425 . S
C936 C943 1.409 . S
C937 H929 0.930 . S
C937 C935 1.419 . S
C937 C938 1.362 . S
C938 H930 0.930 . S
C938 C937 1.362 . S
C938 C941 1.409 . S
C939 H931 0.930 . S
C939 C940 1.355 . S
C939 C941 1.415 . S
C940 C939 1.355 . S
C940 C942 1.419 . S
C941 C936 1.425 . S
C941 C938 1.409 . S
C941 C939 1.415 . S
C942 H932 0.930 . S
C942 C940 1.419 . S
C942 C943 1.362 . S
C943 H933 0.930 . S
C943 C936 1.409 . S
C943 C942 1.362 . S
H944 C950 0.930 . S
H945 C953 0.930 . S
H946 C954 0.930 . S
H947 C955 0.930 . S
H948 C958 0.930 . S
H949 C959 0.930 . S
C950 H944 0.930 . S
C950 C951 1.355 . S
C950 C952 1.415 . S
C951 C950 1.355 . S
C951 C953 1.419 . S
C952 C950 1.415 . S
C952 C957 1.425 . S
C952 C959 1.409 . S
C953 H945 0.930 . S
C953 C951 1.419 . S
C953 C954 1.362 . S
C954 H946 0.930 . S
C954 C953 1.362 . S
C954 C957 1.409 . S
C955 H947 0.930 . S
C955 C956 1.355 . S
C955 C957 1.415 . S
C956 C955 1.355 . S
C956 C958 1.419 . S
C957 C952 1.425 . S
C957 C954 1.409 . S
C957 C955 1.415 . S
C958 H948 0.930 . S
C958 C956 1.419 . S
C958 C959 1.362 . S
C959 H949 0.930 . S
C959 C952 1.409 . S
C959 C958 1.362 . S
H960 C966 0.930 1_565 S
H961 C969 0.930 . S
H962 C970 0.930 . S
H963 C971 0.930 . S
H964 C974 0.930 . S
H965 C975 0.930 . S
C966 H960 0.930 1_545 S
C966 C967 1.355 1_545 S
C966 C968 1.415 . S
C967 C966 1.355 1_565 S
C967 C969 1.419 . S
C968 C966 1.415 . S
C968 C973 1.425 . S
C968 C975 1.409 . S
C969 H961 0.930 . S
C969 C967 1.419 . S
C969 C970 1.362 1_565 S
C970 H962 0.930 . S
C970 C969 1.362 1_545 S
C970 C973 1.409 . S
C971 H963 0.930 . S
C971 C972 1.355 . S
C971 C973 1.415 . S
C972 C971 1.355 . S
C972 C974 1.419 . S
C973 C968 1.425 . S
C973 C970 1.409 . S
C973 C971 1.415 . S
C974 H964 0.930 . S
C974 C972 1.419 . S
C974 C975 1.362 . S
C975 H965 0.930 . S
C975 C968 1.409 . S
C975 C974 1.362 . S
H976 C982 0.930 . S
H977 C985 0.930 . S
H978 C986 0.930 . S
H979 C987 0.932 . S
H980 C990 0.930 . S
H981 C991 0.930 . S
C982 H976 0.930 . S
C982 C983 1.355 . S
C982 C984 1.415 . S
C983 C982 1.355 . S
C983 C985 1.419 . S
C984 C982 1.415 . S
C984 C989 1.425 . S
C984 C991 1.409 . S
C985 H977 0.930 . S
C985 C983 1.419 . S
C985 C986 1.362 . S
C986 H978 0.930 . S
C986 C985 1.362 . S
C986 C989 1.409 . S
C987 H979 0.932 . S
C987 C988 1.355 1_565 S
C987 C989 1.415 . S
C988 C987 1.355 1_545 S
C988 C990 1.419 . S
C989 C984 1.425 . S
C989 C986 1.409 . S
C989 C987 1.415 . S
C990 H980 0.930 . S
C990 C988 1.419 . S
C990 C991 1.362 1_545 S
C991 H981 0.930 . S
C991 C984 1.409 . S
C991 C990 1.362 1_565 S
H992 C998 0.930 . S
H993 C1001 0.930 . S
H994 C1002 0.930 . S
H995 C1003 0.930 . S
H996 C1006 0.930 . S
H997 C1007 0.930 . S
C998 H992 0.930 . S
C998 C999 1.355 1_565 S
C998 C1000 1.415 . S
C999 C998 1.355 1_545 S
C999 C1001 1.419 . S
C1000 C998 1.415 . S
C1000 C1005 1.425 . S
C1000 C1007 1.409 . S
C1001 H993 0.930 . S
C1001 C999 1.419 . S
C1001 C1002 1.362 1_545 S
C1002 H994 0.930 . S
C1002 C1001 1.362 1_565 S
C1002 C1005 1.409 . S
C1003 H995 0.930 . S
C1003 C1004 1.355 . S
C1003 C1005 1.415 . S
C1004 C1003 1.355 . S
C1004 C1006 1.419 . S
C1005 C1000 1.425 . S
C1005 C1002 1.409 . S
C1005 C1003 1.415 . S
C1006 H996 0.930 . S
C1006 C1004 1.419 . S
C1006 C1007 1.362 . S
C1007 H997 0.930 . S
C1007 C1000 1.409 . S
C1007 C1006 1.362 . S
H1008 C1014 0.930 . S
H1009 C1017 0.930 . S
H1010 C1018 0.930 . S
H1011 C1019 0.930 . S
H1012 C1022 0.930 . S
H1013 C1023 0.930 . S
C1014 H1008 0.930 . S
C1014 C1015 1.355 1_545 S
C1014 C1016 1.415 . S
C1015 C1014 1.355 1_565 S
C1015 C1017 1.419 . S
C1016 C1014 1.415 . S
C1016 C1021 1.425 . S
C1016 C1023 1.409 . S
C1017 H1009 0.930 . S
C1017 C1015 1.419 . S
C1017 C1018 1.362 1_565 S
C1018 H1010 0.930 . S
C1018 C1017 1.362 1_545 S
C1018 C1021 1.409 . S
C1019 H1011 0.930 . S
C1019 C1020 1.355 . S
C1019 C1021 1.415 . S
C1020 C1019 1.355 . S
C1020 C1022 1.419 . S
C1021 C1016 1.425 . S
C1021 C1018 1.409 . S
C1021 C1019 1.415 . S
C1022 H1012 0.930 . S
C1022 C1020 1.419 . S
C1022 C1023 1.362 . S
C1023 H1013 0.930 . S
C1023 C1016 1.409 . S
C1023 C1022 1.362 . S
H1024 C1030 0.930 . S
H1025 C1033 0.930 . S
H1026 C1034 0.930 . S
H1027 C1035 0.930 1_545 S
H1028 C1038 0.930 . S
H1029 C1039 0.930 . S
C1030 H1024 0.930 . S
C1030 C1031 1.355 . S
C1030 C1032 1.415 . S
C1031 C1030 1.355 . S
C1031 C1033 1.419 . S
C1032 C1030 1.415 . S
C1032 C1037 1.425 . S
C1032 C1039 1.409 . S
C1033 H1025 0.930 . S
C1033 C1031 1.419 . S
C1033 C1034 1.362 . S
C1034 H1026 0.930 . S
C1034 C1033 1.362 . S
C1034 C1037 1.409 . S
C1035 H1027 0.930 1_565 S
C1035 C1036 1.355 1_565 S
C1035 C1037 1.415 . S
C1036 C1035 1.355 1_545 S
C1036 C1038 1.419 . S
C1037 C1032 1.425 . S
C1037 C1034 1.409 . S
C1037 C1035 1.415 . S
C1038 H1028 0.930 . S
C1038 C1036 1.419 . S
C1038 C1039 1.362 1_545 S
C1039 H1029 0.930 . S
C1039 C1032 1.409 . S
C1039 C1038 1.362 1_565 S
H1040 C1046 0.930 . S
H1041 C1049 0.930 . S
H1042 C1050 0.930 . S
H1043 C1051 0.930 1_565 S
H1044 C1054 0.930 . S
H1045 C1055 0.930 . S
C1046 H1040 0.930 . S
C1046 C1047 1.355 . S
C1046 C1048 1.415 . S
C1047 C1046 1.355 . S
C1047 C1049 1.419 . S
C1048 C1046 1.415 . S
C1048 C1053 1.425 . S
C1048 C1055 1.409 . S
C1049 H1041 0.930 . S
C1049 C1047 1.419 . S
C1049 C1050 1.362 . S
C1050 H1042 0.930 . S
C1050 C1049 1.362 . S
C1050 C1053 1.409 . S
C1051 H1043 0.930 1_545 S
C1051 C1052 1.355 1_545 S
C1051 C1053 1.415 . S
C1052 C1051 1.355 1_565 S
C1052 C1054 1.419 . S
C1053 C1048 1.425 . S
C1053 C1050 1.409 . S
C1053 C1051 1.415 . S
C1054 H1044 0.930 . S
C1054 C1052 1.419 . S
C1054 C1055 1.362 1_565 S
C1055 H1045 0.930 . S
C1055 C1048 1.409 . S
C1055 C1054 1.362 1_545 S
H1056 C1062 0.930 1_565 S
H1057 C1065 0.930 . S
H1058 C1066 0.930 . S
H1059 C1067 0.930 . S
H1060 C1070 0.930 . S
H1061 C1071 0.930 . S
C1062 H1056 0.930 1_545 S
C1062 C1063 1.355 1_545 S
C1062 C1064 1.415 . S
C1063 C1062 1.355 1_565 S
C1063 C1065 1.419 . S
C1064 C1062 1.415 . S
C1064 C1069 1.425 . S
C1064 C1071 1.409 . S
C1065 H1057 0.930 . S
C1065 C1063 1.419 . S
C1065 C1066 1.362 1_565 S
C1066 H1058 0.930 . S
C1066 C1065 1.362 1_545 S
C1066 C1069 1.409 . S
C1067 H1059 0.930 . S
C1067 C1068 1.355 . S
C1067 C1069 1.415 . S
C1068 C1067 1.355 . S
C1068 C1070 1.419 . S
C1069 C1064 1.425 . S
C1069 C1066 1.409 . S
C1069 C1067 1.415 . S
C1070 H1060 0.930 . S
C1070 C1068 1.419 . S
C1070 C1071 1.362 . S
C1071 H1061 0.930 . S
C1071 C1064 1.409 . S
C1071 C1070 1.362 . S
H1072 C1078 0.930 . S
H1073 C1081 0.930 . S
H1074 C1082 0.930 . S
H1075 C1083 0.930 1_545 S
H1076 C1086 0.930 . S
H1077 C1087 0.930 . S
C1078 H1072 0.930 . S
C1078 C1079 1.355 . S
C1078 C1080 1.415 . S
C1079 C1078 1.355 . S
C1079 C1081 1.419 . S
C1080 C1078 1.415 . S
C1080 C1085 1.425 . S
C1080 C1087 1.409 . S
C1081 H1073 0.930 . S
C1081 C1079 1.419 . S
C1081 C1082 1.362 . S
C1082 H1074 0.930 . S
C1082 C1081 1.362 . S
C1082 C1085 1.409 . S
C1083 H1075 0.930 1_565 S
C1083 C1084 1.355 1_565 S
C1083 C1085 1.415 . S
C1084 C1083 1.355 1_545 S
C1084 C1086 1.419 . S
C1085 C1080 1.425 . S
C1085 C1082 1.409 . S
C1085 C1083 1.415 . S
C1086 H1076 0.930 . S
C1086 C1084 1.419 . S
C1086 C1087 1.362 1_545 S
C1087 H1077 0.930 . S
C1087 C1080 1.409 . S
C1087 C1086 1.362 1_565 S
C327 C2 1.478 . S
C332 C182 1.472 . S
C343 C22 1.477 . S
C348 C162 1.477 . S
C359 C222 1.478 . S
C364 C42 1.474 . S
C375 C62 1.397 . S
C380 C202 1.401 . S
C391 C264 1.464 . S
C396 C84 1.475 . S
C407 C244 1.470 . S
C412 C104 1.477 . S
C423 C304 1.424 . S
C428 C124 1.408 . S
C439 C144 1.475 . S
C444 C284 1.464 . S
C455 C59 1.564 . S
C460 C19 1.546 . S
C471 C79 1.575 . S
C476 C39 1.567 . S
C487 C138 1.544 . S
C492 C98 1.567 . S
C503 C118 1.543 . S
C508 C158 1.568 . S
C519 C219 1.581 . S
C524 C179 1.545 . S
C535 C239 1.582 . S
C540 C199 1.551 . S
C551 C258 1.565 . S
C556 C298 1.576 . S
C567 C278 1.544 . S
C572 C318 1.581 . S
C583 C119 1.536 . S
C588 C18 1.546 . S
C599 C99 1.518 . S
C604 C38 1.564 . S
C615 C58 1.547 . S
C620 C159 1.535 . S
C631 C139 1.543 . S
C636 C78 1.539 . S
C647 C178 1.546 . S
C652 C279 1.536 . S
C663 C259 1.558 . S
C668 C198 1.524 . S
C679 C218 1.542 . S
C684 C319 1.540 . S
C695 C299 1.535 . S
C700 C238 1.547 . S
C711 C24 1.548 . S
C716 C4 1.546 . S
C727 C64 1.551 . S
C732 C44 1.545 . S
C743 C102 1.557 . S
C748 C82 1.546 . S
C759 C122 1.593 1_545 S
C764 C142 1.585 1_565 S
C775 C184 1.546 . S
C780 C164 1.548 . S
C791 C224 1.578 . S
C796 C204 1.590 . S
C807 C242 1.547 . S
C812 C262 1.559 . S
C823 C282 1.559 . S
C828 C302 1.547 . S
C839 C12 1.637 . S
C844 C9 1.637 . S
C855 C32 1.665 . S
C860 C29 1.665 . S
C871 C52 1.640 . S
C876 C49 1.640 . S
C887 C69 1.665 . S
C892 C72 1.665 . S
C903 C89 1.664 . S
C908 C92 1.664 . S
C919 C112 1.657 . S
C924 C109 1.657 . S
C935 C129 1.641 . S
C940 C132 1.641 . S
C951 C149 1.655 . S
C956 C152 1.655 . S
C967 C169 1.643 . S
C972 C172 1.643 . S
C983 C192 1.667 . S
C988 C189 1.667 . S
C999 C209 1.667 . S
C1004 C212 1.667 . S
C1015 C229 1.667 . S
C1020 C232 1.667 . S
C1031 C249 1.640 . S
C1036 C252 1.640 . S
C1047 C269 1.663 . S
C1052 C272 1.663 . S
C1063 C292 1.650 . S
C1068 C289 1.650 . S
C1079 C309 1.648 . S
C1084 C312 1.648 . S
