# Generated by pormake.
# Topology snp, (6)-cn, num edge types: 1
# Building blocks:
#     Node 0, Type 0, BuildingBlock: MIFKUJ_clean_sbu_0, # of connection points: 6
#     Node 1, Type 0, BuildingBlock: MIFKUJ_clean_sbu_0, # of connection points: 6
#     Node 2, Type 0, BuildingBlock: MIFKUJ_clean_sbu_0, # of connection points: 6
#     Node 3, Type 0, BuildingBlock: MIFKUJ_clean_sbu_0, # of connection points: 6
#     Edge 4, Type (0, 0), BuildingBlock: XUDNAN_clean_linker_2, # of connection points: 2
#     Edge 5, Type (0, 0), BuildingBlock: XUDNAN_clean_linker_2, # of connection points: 2
#     Edge 6, Type (0, 0), BuildingBlock: XUDNAN_clean_linker_2, # of connection points: 2
#     Edge 7, Type (0, 0), BuildingBlock: XUDNAN_clean_linker_2, # of connection points: 2
#     Edge 8, Type (0, 0), BuildingBlock: XUDNAN_clean_linker_2, # of connection points: 2
#     Edge 9, Type (0, 0), BuildingBlock: XUDNAN_clean_linker_2, # of connection points: 2
#     Edge 10, Type (0, 0), BuildingBlock: XUDNAN_clean_linker_2, # of connection points: 2
#     Edge 11, Type (0, 0), BuildingBlock: XUDNAN_clean_linker_2, # of connection points: 2
#     Edge 12, Type (0, 0), BuildingBlock: XUDNAN_clean_linker_2, # of connection points: 2
#     Edge 13, Type (0, 0), BuildingBlock: XUDNAN_clean_linker_2, # of connection points: 2
#     Edge 14, Type (0, 0), BuildingBlock: XUDNAN_clean_linker_2, # of connection points: 2
#     Edge 15, Type (0, 0), BuildingBlock: XUDNAN_clean_linker_2, # of connection points: 2
# Relax obj value: 0.280
# Max RMSD: 0.225
# Mean RMSD: 0.225
data_MOF--net-snp--node1-MIFKUJ_clean_sbu_0--edge1-XUDNAN_clean_linker_2
_symmetry_space_group_name_H-M    P1
_symmetry_Int_Tables_number       1
_symmetry_cell_setting            triclinic
loop_
_symmetry_equiv_pos_as_xyz
'x, y, z'
_cell_length_a     23.28029
_cell_length_b     23.394519
_cell_length_c     30.28725
_cell_angle_alpha  89.979717
_cell_angle_beta   90.020346
_cell_angle_gamma 90.045911
loop_
_atom_site_label
_atom_site_type_symbol
_atom_site_fract_x
_atom_site_fract_y
_atom_site_fract_z
_atom_type_partial_charge
Zn0 Zn 0.31071 0.9502 0.08094 0.0
Zn1 Zn 0.32216 0.93698 0.9383 0.0
C2 C 0.25815 0.85164 0.12291 0.0
O3 O 0.22233 0.85467 0.08946 0.0
C4 C 0.36149 0.03921 0.89015 0.0
O5 O 0.41287 0.02595 0.90485 0.0
O6 O 0.33164 0.01842 0.11919 0.0
O7 O 0.36723 0.9394 0.02955 0.0
O8 O 0.40307 0.92812 0.96323 0.0
C9 C 0.36169 0.01092 0.15385 0.0
O10 O 0.38225 0.95975 0.16217 0.0
O11 O 0.30248 0.88345 0.12294 0.0
C12 C 0.29444 0.87207 0.86065 0.0
O13 O 0.32265 0.91435 0.84205 0.0
O14 O 0.29143 0.87011 0.9026 0.0
O15 O 0.27353 0.95019 0.99122 0.0
O16 O 0.23183 0.96561 0.05407 0.0
O17 O 0.31873 0.00813 0.90064 0.0
C18 C 0.41099 0.9375 1.00437 0.0
C19 C 0.22862 0.96325 0.01224 0.0
Zn20 Zn 0.19284 0.35591 0.5868 0.0
Zn21 Zn 0.21348 0.34093 0.44357 0.0
C22 C 0.22757 0.30367 0.66239 0.0
O23 O 0.1729 0.29136 0.65715 0.0
C24 C 0.11825 0.36763 0.37889 0.0
O25 O 0.14288 0.41629 0.36834 0.0
O26 O 0.122 0.39058 0.61613 0.0
O27 O 0.22074 0.3921 0.5292 0.0
O28 O 0.22795 0.42391 0.46202 0.0
C29 C 0.12815 0.41547 0.65321 0.0
O30 O 0.18031 0.42729 0.66707 0.0
O31 O 0.25153 0.33673 0.63436 0.0
C32 C 0.27878 0.30849 0.36814 0.0
O33 O 0.24479 0.3468 0.35025 0.0
O34 O 0.27704 0.30109 0.40976 0.0
O35 O 0.19126 0.29847 0.49846 0.0
O36 O 0.16997 0.27685 0.56652 0.0
O37 O 0.14134 0.33496 0.40732 0.0
C38 C 0.21883 0.43434 0.50281 0.0
C39 C 0.17458 0.26178 0.52636 0.0
Zn40 Zn 0.80112 0.18184 0.08478 0.0
Zn41 Zn 0.81722 0.21192 0.94538 0.0
C42 C 0.86273 0.2056 0.15962 0.0
O43 O 0.86494 0.14971 0.15578 0.0
C44 C 0.78593 0.12336 0.88458 0.0
O45 O 0.73894 0.15424 0.88213 0.0
O46 O 0.75676 0.12147 0.11893 0.0
O47 O 0.76293 0.22177 0.03308 0.0
O48 O 0.73339 0.21453 0.96501 0.0
C49 C 0.73312 0.13454 0.15546 0.0
O50 O 0.72612 0.18885 0.16509 0.0
O51 O 0.83693 0.23452 0.13007 0.0
C52 C 0.88502 0.26884 0.88187 0.0
O53 O 0.91019 0.21879 0.88381 0.0
O54 O 0.84148 0.2785 0.90615 0.0
O55 O 0.86307 0.20461 1.00198 0.0
O56 O 0.86674 0.14148 0.05538 0.0
O57 O 0.82628 0.1394 0.91002 0.0
C58 C 0.72469 0.2052 1.00595 0.0
C59 C 0.88288 0.15792 0.01729 0.0
Zn60 Zn 0.95456 0.80149 0.58494 0.0
Zn61 Zn 0.93849 0.81802 0.44091 0.0
C62 C 0.92322 0.85533 0.66282 0.0
O63 O 0.97914 0.86273 0.66108 0.0
C64 C 0.01347 0.77044 0.37165 0.0
O65 O 0.97361 0.73115 0.36694 0.0
O66 O 0.02051 0.75953 0.61435 0.0
O67 O 0.9169 0.77048 0.52905 0.0
O68 O 0.91508 0.73856 0.46158 0.0
C69 C 0.01433 0.73353 0.65097 0.0
O70 O 0.96219 0.72238 0.66516 0.0
O71 O 0.89884 0.82704 0.63214 0.0
C72 C 0.86511 0.85674 0.36982 0.0
O73 O 0.89203 0.81565 0.34887 0.0
O74 O 0.87566 0.86456 0.41065 0.0
O75 O 0.96909 0.85745 0.49517 0.0
O76 O 0.99071 0.87433 0.56421 0.0
O77 O 0.00688 0.81001 0.40001 0.0
C78 C 0.92683 0.72992 0.50215 0.0
C79 C 0.99221 0.88948 0.52392 0.0
H80 H 0.90967 0.04666 0.03068 0.0
H81 H 0.95792 0.19542 0.95458 0.0
H82 H 0.04214 0.14395 0.9256 0.0
H83 H 0.03586 0.02905 0.07342 0.0
H84 H 0.03714 0.95204 0.07584 0.0
H85 H 0.96979 0.9888 0.07543 0.0
H86 H 0.93776 0.93137 1.00654 0.0
H87 H 0.00541 0.89382 1.00684 0.0
H88 H 0.98222 0.93099 0.95783 0.0
H89 H 0.1315 0.08726 0.91958 0.0
H90 H 0.21996 0.03804 0.94379 0.0
H91 H 0.12002 0.93228 0.03231 0.0
C92 C 0.93658 0.06727 1.00623 0.0
C93 C 0.92599 0.1241 0.99313 0.0
C94 C 0.96327 0.15075 0.96265 0.0
C95 C 0.01161 0.12184 0.94645 0.0
C96 C 0.02255 0.0666 0.96172 0.0
C97 C 0.98589 0.03961 0.99113 0.0
C98 C 0.01326 0.98686 1.01094 0.0
C99 C 0.0141 0.98946 0.06187 0.0
C100 C 0.98286 0.93254 0.99454 0.0
C101 C 0.07289 0.99155 0.99159 0.0
C102 C 0.07652 0.03573 0.96129 0.0
C103 C 0.12882 0.05175 0.94241 0.0
C104 C 0.17885 0.02362 0.95627 0.0
C105 C 0.17609 0.98151 0.98964 0.0
C106 C 0.12253 0.96399 1.0063 0.0
H107 H 0.05738 0.95468 0.57802 0.0
H108 H -0.00241 0.94261 0.44256 0.0
H109 H 0.04761 0.03367 0.4252 0.0
H110 H 0.03598 0.09935 0.59107 0.0
H111 H 0.09863 0.11049 0.62501 0.0
H112 H 0.06386 0.04192 0.6245 0.0
H113 H 0.15993 0.9937 0.60242 0.0
H114 H 0.19508 0.06234 0.60279 0.0
H115 H 0.19781 0.0182 0.55407 0.0
H116 H 0.09832 0.13092 0.42543 0.0
H117 H 0.14109 0.22511 0.44382 0.0
H118 H 0.16498 0.16944 0.5792 0.0
C119 C 0.05514 0.97061 0.54448 0.0
C120 C 0.02351 0.94182 0.51164 0.0
C121 C 0.02174 0.96419 0.4682 0.0
C122 C 0.05015 0.01562 0.45805 0.0
C123 C 0.0804 0.04333 0.49163 0.0
C124 C 0.08311 0.02122 0.53391 0.0
C125 C 0.11478 0.06023 0.56513 0.0
C126 C 0.07597 0.07911 0.60366 0.0
C127 C 0.17019 0.03192 0.58208 0.0
C128 C 0.12784 0.10906 0.53433 0.0
C129 C 0.10875 0.0985 0.49185 0.0
C130 C 0.11395 0.1393 0.45846 0.0
C131 C 0.13826 0.19256 0.46915 0.0
C132 C 0.1559 0.20434 0.51296 0.0
C133 C 0.15168 0.16157 0.54546 0.0
H134 H 0.6856 0.11847 0.95414 0.0
H135 H 0.66797 0.19236 0.08452 0.0
H136 H 0.59672 0.11738 0.10382 0.0
H137 H 0.54088 0.09354 0.93749 0.0
H138 H 0.55096 0.02836 0.90677 0.0
H139 H 0.60623 0.08194 0.90681 0.0
H140 H 0.67943 0.00674 0.93465 0.0
H141 H 0.62399 0.95289 0.9354 0.0
H142 H 0.66483 0.96756 0.98469 0.0
H143 H 0.52019 0.04047 0.10531 0.0
H144 H 0.43937 0.97646 0.08683 0.0
H145 H 0.5072 0.9554 0.95464 0.0
C146 C 0.66736 0.11862 0.98696 0.0
C147 C 0.68296 0.16049 0.01827 0.0
C148 C 0.65752 0.15958 0.0606 0.0
C149 C 0.61716 0.11723 0.07173 0.0
C150 C 0.60288 0.07633 0.03998 0.0
C151 C 0.6271 0.07707 0.99834 0.0
C152 C 0.60045 0.0327 0.96841 0.0
C153 C 0.57299 0.06083 0.9275 0.0
C154 C 0.64484 0.98727 0.95502 0.0
C155 C 0.55564 0.00811 0.99912 0.0
C156 C 0.55845 0.03284 0.04056 0.0
C157 C 0.51813 0.02034 0.07318 0.0
C158 C 0.47233 0.98386 0.06244 0.0
C159 C 0.46669 0.96118 0.01931 0.0
C160 C 0.51048 0.97148 0.98807 0.0
H161 H 0.18042 0.51737 0.4469 0.0
H162 H 0.18753 0.47122 0.58519 0.0
H163 H 0.11323 0.54407 0.60191 0.0
H164 H 0.15612 0.67406 0.46559 0.0
H165 H 0.11043 0.67823 0.41765 0.0
H166 H 0.16902 0.62799 0.41893 0.0
H167 H 0.09727 0.54616 0.40157 0.0
H168 H 0.0384 0.59582 0.40153 0.0
H169 H 0.03679 0.53458 0.43766 0.0
H170 H 0.02645 0.61108 0.59997 0.0
H171 H 0.94682 0.67793 0.58178 0.0
H172 H 0.00393 0.68223 0.44574 0.0
C173 C 0.16779 0.52359 0.48097 0.0
C174 C 0.1879 0.48722 0.51477 0.0
C175 C 0.17056 0.49722 0.55882 0.0
C176 C 0.12891 0.53876 0.56852 0.0
C177 C 0.10674 0.57108 0.53378 0.0
C178 C 0.12707 0.5652 0.49111 0.0
C179 C 0.09495 0.60308 0.45918 0.0
C180 C 0.13502 0.64854 0.43918 0.0
C181 C 0.06509 0.56777 0.42288 0.0
C182 C 0.05186 0.62959 0.49018 0.0
C183 C 0.05912 0.61094 0.5331 0.0
C184 C 0.02151 0.62724 0.5667 0.0
C185 C 0.97658 0.66506 0.55622 0.0
C186 C 0.97026 0.68625 0.51281 0.0
C187 C 0.0079 0.66733 0.47941 0.0
H188 H 0.26374 0.29154 0.27972 0.0
H189 H 0.36238 0.23163 0.39214 0.0
H190 H 0.40448 0.15547 0.34569 0.0
H191 H 0.22488 0.15839 0.24234 0.0
H192 H 0.22822 0.17527 0.18433 0.0
H193 H 0.21386 0.2308 0.2238 0.0
H194 H 0.30047 0.28904 0.19436 0.0
H195 H 0.315 0.23372 0.15449 0.0
H196 H 0.37051 0.25634 0.19214 0.0
H197 H 0.42693 0.0796 0.28957 0.0
H198 H 0.42596 0.00856 0.22945 0.0
H199 H 0.31031 0.11674 0.15425 0.0
C200 C 0.29555 0.26356 0.29431 0.0
C201 C 0.31031 0.26795 0.33948 0.0
C202 C 0.35082 0.22936 0.35754 0.0
C203 C 0.37504 0.18607 0.33137 0.0
C204 C 0.35827 0.18198 0.28724 0.0
C205 C 0.31953 0.21984 0.26883 0.0
C206 C 0.30377 0.20267 0.22211 0.0
C207 C 0.23886 0.19109 0.21794 0.0
C208 C 0.32364 0.24816 0.18881 0.0
C209 C 0.33833 0.14822 0.21751 0.0
C210 C 0.37023 0.13754 0.25515 0.0
C211 C 0.40274 0.08794 0.25974 0.0
C212 C 0.4018 0.04774 0.22538 0.0
C213 C 0.36815 0.05706 0.18703 0.0
C214 C 0.33702 0.10862 0.18285 0.0
H215 H 0.13668 0.39633 0.74091 0.0
H216 H 0.01238 0.42715 0.63717 0.0
H217 H 0.93327 0.40922 0.69037 0.0
H218 H 0.06969 0.27845 0.7807 0.0
H219 H 0.08794 0.2898 0.83788 0.0
H220 H 0.13303 0.31861 0.79525 0.0
H221 H 0.12182 0.42007 0.82848 0.0
H222 H 0.07666 0.39148 0.87151 0.0
H223 H 0.051 0.44906 0.83722 0.0
H224 H 0.86842 0.37711 0.75357 0.0
H225 H 0.82574 0.32368 0.81642 0.0
H226 H 0.99451 0.30533 0.87464 0.0
C227 C 0.09278 0.40176 0.7298 0.0
C228 C 0.08043 0.41465 0.68531 0.0
C229 C 0.02253 0.41838 0.67142 0.0
C230 C 0.97746 0.40843 0.70144 0.0
C231 C 0.99122 0.39411 0.74498 0.0
C232 C 0.0477 0.39043 0.75891 0.0
C233 C 0.05208 0.36524 0.80477 0.0
C234 C 0.08774 0.30977 0.8046 0.0
C235 C 0.07685 0.4091 0.83742 0.0
C236 C 0.98942 0.35353 0.81415 0.0
C237 C 0.95461 0.37209 0.78001 0.0
C238 C 0.89526 0.36316 0.78069 0.0
C239 C 0.8713 0.33312 0.81651 0.0
C240 C 0.907 0.31129 0.8503 0.0
C241 C 0.96641 0.32257 0.84942 0.0
H242 H 0.85299 0.86372 0.28024 0.0
H243 H 0.79597 0.94239 0.40231 0.0
H244 H 0.74259 0.01492 0.35925 0.0
H245 H 0.88159 0.99002 0.22529 0.0
H246 H 0.85892 0.96517 0.17172 0.0
H247 H 0.88478 0.91496 0.21199 0.0
H248 H 0.79003 0.85727 0.2051 0.0
H249 H 0.76376 0.90768 0.16486 0.0
H250 H 0.72224 0.89274 0.21375 0.0
H251 H 0.70466 0.08486 0.30287 0.0
H252 H 0.69004 0.14864 0.23892 0.0
H253 H 0.7727 0.02411 0.15394 0.0
C254 C 0.82811 0.89526 0.29805 0.0
C255 C 0.82824 0.897 0.34473 0.0
C256 C 0.7962 0.93994 0.3666 0.0
C257 C 0.76557 0.98118 0.3424 0.0
C258 C 0.76727 0.9788 0.29636 0.0
C259 C 0.79776 0.93685 0.27445 0.0
C260 C 0.79777 0.9469 0.22503 0.0
C261 C 0.85941 0.95475 0.20751 0.0
C262 C 0.76658 0.89825 0.20076 0.0
C263 C 0.76394 0.00203 0.22254 0.0
C264 C 0.74591 0.01932 0.26393 0.0
C265 C 0.71778 0.07126 0.27025 0.0
C266 C 0.70957 0.1072 0.23364 0.0
C267 C 0.72985 0.09134 0.19126 0.0
C268 C 0.75569 0.03716 0.18564 0.0
H269 H 0.11425 0.79472 0.64751 0.0
H270 H 0.02222 0.67067 0.72707 0.0
H271 H 0.09341 0.68311 0.78692 0.0
H272 H 0.26295 0.76241 0.68843 0.0
H273 H 0.28204 0.8371 0.68772 0.0
H274 H 0.23108 0.8096 0.64823 0.0
H275 H 0.15711 0.8855 0.67348 0.0
H276 H 0.20725 0.91276 0.71337 0.0
H277 H 0.13714 0.88922 0.73091 0.0
H278 H 0.16535 0.72046 0.84217 0.0
H279 H 0.23238 0.77807 0.88728 0.0
H280 H 0.27599 0.87861 0.77158 0.0
C281 C 0.11034 0.76833 0.67674 0.0
C282 C 0.06307 0.73108 0.68238 0.0
C283 C 0.05843 0.69897 0.72186 0.0
C284 C 0.09868 0.70579 0.75603 0.0
C285 C 0.14336 0.74484 0.75019 0.0
C286 C 0.14965 0.77521 0.7113 0.0
C287 C 0.19686 0.81953 0.7151 0.0
C288 C 0.24617 0.80634 0.68296 0.0
C289 C 0.17315 0.8803 0.7078 0.0
C290 C 0.21516 0.81049 0.76256 0.0
C291 C 0.18434 0.76681 0.78216 0.0
C292 C 0.19054 0.75395 0.8269 0.0
C293 C 0.22865 0.787 0.85231 0.0
C294 C 0.25989 0.83258 0.83297 0.0
C295 C 0.25362 0.84347 0.7873 0.0
H296 H 0.88598 0.06762 0.86472 0.0
H297 H 0.70288 0.06713 0.83771 0.0
H298 H 0.71669 0.98984 0.78319 0.0
H299 H 0.92984 0.05279 0.75632 0.0
H300 H 0.99052 0.00737 0.7679 0.0
H301 H 0.96524 0.05641 0.80922 0.0
H302 H 0.95316 0.97297 0.86468 0.0
H303 H 0.97869 0.92348 0.82353 0.0
H304 H 0.91009 0.91193 0.84964 0.0
H305 H 0.75183 0.91967 0.72621 0.0
H306 H 0.80581 0.86378 0.67068 0.0
H307 H 0.96564 0.91152 0.73473 0.0
C308 C 0.8486 0.05035 0.84809 0.0
C309 C 0.79335 0.07327 0.85545 0.0
C310 C 0.74565 0.05023 0.83248 0.0
C311 C 0.75301 0.00614 0.80162 0.0
C312 C 0.80831 0.98546 0.79426 0.0
C313 C 0.85525 0.00668 0.817 0.0
C314 C 0.91068 0.98072 0.80037 0.0
C315 C 0.95143 0.02709 0.78238 0.0
C316 C 0.93986 0.94515 0.83672 0.0
C317 C 0.88776 0.94301 0.76375 0.0
C318 C 0.82858 0.94557 0.76115 0.0
C319 C 0.79814 0.91673 0.72828 0.0
C320 C 0.82912 0.88513 0.69686 0.0
C321 C 0.88987 0.88326 0.69834 0.0
C322 C 0.91919 0.91185 0.73276 0.0
H323 H 0.16066 0.78843 0.13728 0.0
H324 H 0.31185 0.85537 0.20344 0.0
H325 H 0.26996 0.82941 0.27539 0.0
H326 H 0.06226 0.84198 0.20783 0.0
H327 H 0.01346 0.78213 0.20738 0.0
H328 H 0.05939 0.79491 0.16074 0.0
H329 H 0.10115 0.69264 0.16731 0.0
H330 H 0.05462 0.6791 0.21373 0.0
H331 H 0.13106 0.6691 0.21913 0.0
H332 H 0.204 0.81551 0.33957 0.0
H333 H 0.12242 0.80474 0.39128 0.0
H334 H 0.01594 0.74193 0.28438 0.0
C335 C 0.18595 0.79568 0.16676 0.0
C336 C 0.23959 0.82395 0.16459 0.0
C337 C 0.27084 0.83349 0.2041 0.0
C338 C 0.24735 0.81893 0.24523 0.0
C339 C 0.19306 0.79383 0.24632 0.0
C340 C 0.16326 0.78104 0.20808 0.0
C341 C 0.10359 0.75875 0.2184 0.0
C342 C 0.05697 0.79672 0.19735 0.0
C343 C 0.09725 0.69617 0.20378 0.0
C344 C 0.10344 0.76378 0.26825 0.0
C345 C 0.15561 0.78376 0.28376 0.0
C346 C 0.16357 0.79823 0.32802 0.0
C347 C 0.117 0.79237 0.35706 0.0
C348 C 0.06345 0.77171 0.3418 0.0
C349 C 0.05701 0.75627 0.29705 0.0
H350 H 0.18363 0.2321 0.72437 0.0
H351 H 0.34336 0.31104 0.68242 0.0
H352 H 0.39537 0.25668 0.74038 0.0
H353 H 0.21302 0.22598 0.84137 0.0
H354 H 0.18035 0.15666 0.84843 0.0
H355 H 0.15442 0.2042 0.80622 0.0
H356 H 0.1707 0.12845 0.74599 0.0
H357 H 0.1951 0.07906 0.78746 0.0
H358 H 0.2402 0.09522 0.74072 0.0
H359 H 0.43003 0.18744 0.80032 0.0
H360 H 0.44411 0.11035 0.8553 0.0
H361 H 0.26056 0.0775 0.85503 0.0
C362 C 0.22948 0.23882 0.72755 0.0
C363 C 0.25949 0.27598 0.69886 0.0
C364 C 0.3195 0.28299 0.70417 0.0
C365 C 0.3493 0.2523 0.73698 0.0
C366 C 0.31832 0.21504 0.76409 0.0
C367 C 0.25963 0.20846 0.75963 0.0
C368 C 0.23634 0.16329 0.79054 0.0
C369 C 0.19355 0.18913 0.82363 0.0
C370 C 0.20901 0.11358 0.76462 0.0
C371 C 0.29113 0.14494 0.81308 0.0
C372 C 0.33803 0.17531 0.79772 0.0
C373 C 0.39348 0.16382 0.81277 0.0
C374 C 0.40105 0.11992 0.84397 0.0
C375 C 0.35344 0.08787 0.85951 0.0
C376 C 0.29787 0.10125 0.84403 0.0
H377 H 0.92644 0.30426 0.16679 0.0
H378 H 0.85315 0.16473 0.2424 0.0
H379 H 0.90061 0.20067 0.30965 0.0
H380 H 0.06095 0.29719 0.21523 0.0
H381 H 0.07506 0.37295 0.21568 0.0
H382 H 0.02724 0.34319 0.17509 0.0
H383 H 0.94685 0.41247 0.20025 0.0
H384 H 0.99463 0.44259 0.24097 0.0
H385 H 0.92593 0.41421 0.25754 0.0
H386 H 0.96415 0.24262 0.36556 0.0
H387 H 0.04283 0.28719 0.40744 0.0
H388 H 0.07857 0.39978 0.2968 0.0
C389 C 0.9191 0.28264 0.1979 0.0
C390 C 0.88576 0.23228 0.19984 0.0
C391 C 0.87843 0.20359 0.24055 0.0
C392 C 0.90491 0.22385 0.27889 0.0
C393 C 0.93884 0.2727 0.27591 0.0
C394 C 0.94618 0.30188 0.23657 0.0
C395 C 0.99042 0.34915 0.2416 0.0
C396 C 0.04142 0.34003 0.21004 0.0
C397 C 0.96279 0.40811 0.23468 0.0
C398 C 0.00803 0.34059 0.2894 0.0
C399 C 0.9769 0.29683 0.30861 0.0
C400 C 0.98815 0.27765 0.35123 0.0
C401 C 0.03311 0.30311 0.37468 0.0
C402 C 0.06652 0.3472 0.35547 0.0
C403 C 0.05295 0.36699 0.31261 0.0
loop_
_geom_bond_atom_site_label_1
_geom_bond_atom_site_label_2
_geom_bond_distance
_geom_bond_site_symmetry_2
_ccdc_geom_bond_type
Zn0 O6 1.969 . S
Zn0 O7 1.965 . S
Zn0 O11 2.024 1_545 S
Zn0 O16 1.969 . S
Zn1 O8 1.969 . S
Zn1 O14 1.969 . S
Zn1 O15 1.965 . S
Zn1 O17 2.024 1_565 S
C2 O3 1.229 . S
C2 O11 1.058 . S
O3 C2 1.229 . S
C4 O5 1.229 . S
C4 O17 1.058 . S
O5 C4 1.229 . S
O6 Zn0 1.969 . S
O6 C9 1.267 . S
O7 Zn0 1.965 . S
O7 C18 1.243 1_554 S
O8 Zn1 1.969 . S
O8 C18 1.284 1_565 S
C9 O6 1.267 . S
C9 O10 1.228 . S
O10 C9 1.228 . S
O11 Zn0 2.024 1_565 S
O11 C2 1.058 . S
C12 O13 1.228 . S
C12 O14 1.267 . S
O13 C12 1.228 . S
O14 Zn1 1.969 . S
O14 C12 1.267 . S
O15 Zn1 1.965 . S
O15 C19 1.253 1_566 S
O16 Zn0 1.969 . S
O16 C19 1.261 . S
O17 Zn1 2.024 1_545 S
O17 C4 1.058 . S
C18 O7 1.243 1_556 S
C18 O8 1.284 1_545 S
C19 O15 1.253 1_544 S
C19 O16 1.261 . S
Zn20 O26 1.969 . S
Zn20 O27 1.965 . S
Zn20 O31 2.024 . S
Zn20 O36 1.969 . S
Zn21 O28 1.969 . S
Zn21 O34 1.969 . S
Zn21 O35 1.965 . S
Zn21 O37 2.024 . S
C22 O23 1.229 . S
C22 O31 1.058 . S
O23 C22 1.229 . S
C24 O25 1.229 . S
C24 O37 1.058 . S
O25 C24 1.229 . S
O26 Zn20 1.969 . S
O26 C29 1.267 . S
O27 Zn20 1.965 . S
O27 C38 1.260 . S
O28 Zn21 1.969 . S
O28 C38 1.258 . S
C29 O26 1.267 . S
C29 O30 1.228 . S
O30 C29 1.228 . S
O31 Zn20 2.024 . S
O31 C22 1.058 . S
C32 O33 1.228 . S
C32 O34 1.267 . S
O33 C32 1.228 . S
O34 Zn21 1.969 . S
O34 C32 1.267 . S
O35 Zn21 1.965 . S
O35 C39 1.260 . S
O36 Zn20 1.969 . S
O36 C39 1.258 . S
O37 Zn21 2.024 . S
O37 C24 1.058 . S
C38 O27 1.260 . S
C38 O28 1.258 . S
C39 O35 1.260 . S
C39 O36 1.258 . S
Zn40 O46 1.969 . S
Zn40 O47 1.965 . S
Zn40 O51 2.024 . S
Zn40 O56 1.969 . S
Zn41 O48 1.969 . S
Zn41 O54 1.969 . S
Zn41 O55 1.965 . S
Zn41 O57 2.024 . S
C42 O43 1.229 . S
C42 O51 1.058 . S
O43 C42 1.229 . S
C44 O45 1.229 . S
C44 O57 1.058 . S
O45 C44 1.229 . S
O46 Zn40 1.969 . S
O46 C49 1.267 . S
O47 Zn40 1.965 . S
O47 C58 1.244 1_554 S
O48 Zn41 1.969 . S
O48 C58 1.283 . S
C49 O46 1.267 . S
C49 O50 1.228 . S
O50 C49 1.228 . S
O51 Zn40 2.024 . S
O51 C42 1.058 . S
C52 O53 1.228 . S
C52 O54 1.267 . S
O53 C52 1.228 . S
O54 Zn41 1.969 . S
O54 C52 1.267 . S
O55 Zn41 1.965 . S
O55 C59 1.260 1_556 S
O56 Zn40 1.969 . S
O56 C59 1.258 . S
O57 Zn41 2.024 . S
O57 C44 1.058 . S
C58 O47 1.244 1_556 S
C58 O48 1.283 . S
C59 O55 1.260 1_554 S
C59 O56 1.258 . S
Zn60 O66 1.969 . S
Zn60 O67 1.965 . S
Zn60 O71 2.024 1_455 S
Zn60 O76 1.969 . S
Zn61 O68 1.969 . S
Zn61 O74 1.969 . S
Zn61 O75 1.965 . S
Zn61 O77 2.024 1_655 S
C62 O63 1.229 . S
C62 O71 1.058 . S
O63 C62 1.229 . S
C64 O65 1.229 . S
C64 O77 1.058 . S
O65 C64 1.229 . S
O66 Zn60 1.969 . S
O66 C69 1.267 . S
O67 Zn60 1.965 . S
O67 C78 1.260 . S
O68 Zn61 1.969 . S
O68 C78 1.258 1_655 S
C69 O66 1.267 . S
C69 O70 1.228 . S
O70 C69 1.228 . S
O71 Zn60 2.024 1_655 S
O71 C62 1.058 . S
C72 O73 1.228 . S
C72 O74 1.267 . S
O73 C72 1.228 . S
O74 Zn61 1.969 . S
O74 C72 1.267 . S
O75 Zn61 1.965 . S
O75 C79 1.252 1_655 S
O76 Zn60 1.969 . S
O76 C79 1.262 . S
O77 Zn61 2.024 1_455 S
O77 C64 1.058 . S
C78 O67 1.260 . S
C78 O68 1.258 1_455 S
C79 O75 1.252 1_455 S
C79 O76 1.262 . S
H80 C92 0.930 . S
H81 C94 0.930 . S
H82 C95 0.930 . S
H83 C99 0.959 . S
H84 C99 0.959 . S
H85 C99 0.961 . S
H86 C100 0.960 . S
H87 C100 0.961 . S
H88 C100 0.975 . S
H89 C103 0.929 . S
H90 C104 0.931 . S
H91 C106 0.930 . S
C92 H80 0.930 . S
C92 C93 1.399 1_554 S
C92 C97 1.399 1_655 S
C93 C92 1.399 1_556 S
C93 C94 1.376 . S
C94 H81 0.930 . S
C94 C93 1.376 . S
C94 C95 1.388 1_655 S
C95 H82 0.930 . S
C95 C94 1.388 1_455 S
C95 C96 1.390 . S
C96 C95 1.390 . S
C96 C97 1.394 1_556 S
C96 C102 1.465 . S
C97 C92 1.399 1_455 S
C97 C96 1.394 1_554 S
C97 C98 1.516 . S
C98 C97 1.516 . S
C98 C99 1.502 . S
C98 C100 1.561 . S
C98 C101 1.526 . S
C99 H83 0.959 . S
C99 H84 0.959 . S
C99 H85 0.961 . S
C99 C98 1.502 . S
C100 H86 0.960 . S
C100 H87 0.961 . S
C100 H88 0.975 . S
C100 C98 1.561 . S
C101 C98 1.526 . S
C101 C102 1.396 1_554 S
C101 C106 1.390 . S
C102 C96 1.465 . S
C102 C101 1.396 1_556 S
C102 C103 1.399 . S
C103 H89 0.929 . S
C103 C102 1.399 . S
C103 C104 1.385 1_545 S
C104 H90 0.931 . S
C104 C103 1.385 1_565 S
C104 C105 1.389 . S
C105 C104 1.389 . S
C105 C106 1.387 1_566 S
C106 H91 0.930 . S
C106 C101 1.390 . S
C106 C105 1.387 1_544 S
H107 C119 0.929 . S
H108 C121 0.930 . S
H109 C122 0.930 . S
H110 C126 0.959 1_655 S
H111 C126 0.959 . S
H112 C126 0.961 . S
H113 C127 0.960 . S
H114 C127 0.961 . S
H115 C127 0.959 . S
H116 C130 0.929 . S
H117 C131 0.931 . S
H118 C133 0.930 . S
C119 H107 0.929 . S
C119 C120 1.399 . S
C119 C124 1.399 1_565 S
C120 C119 1.399 . S
C120 C121 1.376 . S
C121 H108 0.930 . S
C121 C120 1.376 . S
C121 C122 1.388 1_565 S
C122 H109 0.930 . S
C122 C121 1.388 1_545 S
C122 C123 1.390 . S
C123 C122 1.390 . S
C123 C124 1.394 . S
C123 C129 1.465 . S
C124 C119 1.399 1_545 S
C124 C123 1.394 . S
C124 C125 1.516 . S
C125 C124 1.516 . S
C125 C126 1.502 . S
C125 C127 1.561 . S
C125 C128 1.526 . S
C126 H110 0.959 1_455 S
C126 H111 0.959 . S
C126 H112 0.961 . S
C126 C125 1.502 . S
C127 H113 0.960 . S
C127 H114 0.961 . S
C127 H115 0.959 . S
C127 C125 1.561 . S
C128 C125 1.526 . S
C128 C129 1.396 . S
C128 C133 1.390 . S
C129 C123 1.465 . S
C129 C128 1.396 . S
C129 C130 1.399 . S
C130 H116 0.929 . S
C130 C129 1.399 . S
C130 C131 1.385 . S
C131 H117 0.931 . S
C131 C130 1.385 . S
C131 C132 1.389 . S
C132 C131 1.389 . S
C132 C133 1.387 . S
C133 H118 0.930 . S
C133 C128 1.390 . S
C133 C132 1.387 . S
H134 C146 0.930 . S
H135 C148 0.930 . S
H136 C149 0.930 . S
H137 C153 0.959 . S
H138 C153 0.959 . S
H139 C153 0.961 . S
H140 C154 0.960 . S
H141 C154 0.961 1_565 S
H142 C154 0.959 1_565 S
H143 C157 0.929 . S
H144 C158 0.931 . S
H145 C160 0.930 . S
C146 H134 0.930 . S
C146 C147 1.399 1_556 S
C146 C151 1.399 . S
C147 C146 1.399 1_554 S
C147 C148 1.376 . S
C148 H135 0.930 . S
C148 C147 1.376 . S
C148 C149 1.388 . S
C149 H136 0.930 . S
C149 C148 1.388 . S
C149 C150 1.390 . S
C150 C149 1.390 . S
C150 C151 1.394 1_554 S
C150 C156 1.465 . S
C151 C146 1.399 . S
C151 C150 1.394 1_556 S
C151 C152 1.516 . S
C152 C151 1.516 . S
C152 C153 1.502 . S
C152 C154 1.561 . S
C152 C155 1.526 . S
C153 H137 0.959 . S
C153 H138 0.959 . S
C153 H139 0.961 . S
C153 C152 1.502 . S
C154 H140 0.960 . S
C154 H141 0.961 1_545 S
C154 H142 0.959 1_545 S
C154 C152 1.561 . S
C155 C152 1.526 . S
C155 C156 1.396 1_556 S
C155 C160 1.390 . S
C156 C150 1.465 . S
C156 C155 1.396 1_554 S
C156 C157 1.399 . S
C157 H143 0.929 . S
C157 C156 1.399 . S
C157 C158 1.385 . S
C158 H144 0.931 . S
C158 C157 1.385 . S
C158 C159 1.389 . S
C159 C158 1.389 . S
C159 C160 1.387 1_554 S
C160 H145 0.930 . S
C160 C155 1.390 . S
C160 C159 1.387 1_556 S
H161 C173 0.930 . S
H162 C175 0.930 . S
H163 C176 0.930 . S
H164 C180 0.959 . S
H165 C180 0.959 . S
H166 C180 0.961 . S
H167 C181 0.960 . S
H168 C181 0.961 . S
H169 C181 0.959 . S
H170 C184 0.929 . S
H171 C185 0.931 . S
H172 C187 0.930 . S
C173 H161 0.930 . S
C173 C174 1.399 . S
C173 C178 1.399 . S
C174 C173 1.399 . S
C174 C175 1.376 . S
C175 H162 0.930 . S
C175 C174 1.376 . S
C175 C176 1.388 . S
C176 H163 0.930 . S
C176 C175 1.388 . S
C176 C177 1.390 . S
C177 C176 1.390 . S
C177 C178 1.394 . S
C177 C183 1.465 . S
C178 C173 1.399 . S
C178 C177 1.394 . S
C178 C179 1.516 . S
C179 C178 1.516 . S
C179 C180 1.502 . S
C179 C181 1.561 . S
C179 C182 1.526 . S
C180 H164 0.959 . S
C180 H165 0.959 . S
C180 H166 0.961 . S
C180 C179 1.502 . S
C181 H167 0.960 . S
C181 H168 0.961 . S
C181 H169 0.959 . S
C181 C179 1.561 . S
C182 C179 1.526 . S
C182 C183 1.396 . S
C182 C187 1.390 . S
C183 C177 1.465 . S
C183 C182 1.396 . S
C183 C184 1.399 1_455 S
C184 H170 0.929 . S
C184 C183 1.399 1_655 S
C184 C185 1.385 . S
C185 H171 0.931 . S
C185 C184 1.385 . S
C185 C186 1.391 . S
C186 C185 1.391 . S
C186 C187 1.384 1_655 S
C187 H172 0.930 . S
C187 C182 1.390 . S
C187 C186 1.384 1_455 S
H188 C200 0.930 . S
H189 C202 0.930 . S
H190 C203 0.930 . S
H191 C207 0.959 . S
H192 C207 0.959 . S
H193 C207 0.961 . S
H194 C208 0.960 . S
H195 C208 0.961 . S
H196 C208 0.959 . S
H197 C211 0.929 . S
H198 C212 0.931 . S
H199 C214 0.930 . S
C200 H188 0.930 . S
C200 C201 1.399 . S
C200 C205 1.399 . S
C201 C200 1.399 . S
C201 C202 1.376 . S
C202 H189 0.930 . S
C202 C201 1.376 . S
C202 C203 1.388 . S
C203 H190 0.930 . S
C203 C202 1.388 . S
C203 C204 1.390 . S
C204 C203 1.390 . S
C204 C205 1.394 . S
C204 C210 1.465 . S
C205 C200 1.399 . S
C205 C204 1.394 . S
C205 C206 1.516 . S
C206 C205 1.516 . S
C206 C207 1.502 . S
C206 C208 1.561 . S
C206 C209 1.526 . S
C207 H191 0.959 . S
C207 H192 0.959 . S
C207 H193 0.961 . S
C207 C206 1.502 . S
C208 H194 0.960 . S
C208 H195 0.961 . S
C208 H196 0.959 . S
C208 C206 1.561 . S
C209 C206 1.526 . S
C209 C210 1.396 . S
C209 C214 1.390 . S
C210 C204 1.465 . S
C210 C209 1.396 . S
C210 C211 1.399 . S
C211 H197 0.929 . S
C211 C210 1.399 . S
C211 C212 1.385 . S
C212 H198 0.931 . S
C212 C211 1.385 . S
C212 C213 1.389 . S
C213 C212 1.389 . S
C213 C214 1.387 . S
C214 H199 0.930 . S
C214 C209 1.390 . S
C214 C213 1.387 . S
H215 C227 0.930 . S
H216 C229 0.930 . S
H217 C230 0.930 . S
H218 C234 0.959 . S
H219 C234 0.959 . S
H220 C234 0.961 . S
H221 C235 0.960 . S
H222 C235 0.961 . S
H223 C235 0.959 . S
H224 C238 0.929 . S
H225 C239 0.931 . S
H226 C241 0.930 . S
C227 H215 0.930 . S
C227 C228 1.399 1_655 S
C227 C232 1.399 . S
C228 C227 1.399 1_455 S
C228 C229 1.376 . S
C229 H216 0.930 . S
C229 C228 1.376 . S
C229 C230 1.388 . S
C230 H217 0.930 . S
C230 C229 1.388 . S
C230 C231 1.390 1_455 S
C231 C230 1.390 1_655 S
C231 C232 1.394 . S
C231 C237 1.465 . S
C232 C227 1.399 . S
C232 C231 1.394 . S
C232 C233 1.516 . S
C233 C232 1.516 . S
C233 C234 1.502 . S
C233 C235 1.561 . S
C233 C236 1.526 . S
C234 H218 0.959 . S
C234 H219 0.959 . S
C234 H220 0.961 . S
C234 C233 1.502 . S
C235 H221 0.960 . S
C235 H222 0.961 . S
C235 H223 0.959 . S
C235 C233 1.561 . S
C236 C233 1.526 . S
C236 C237 1.396 . S
C236 C241 1.390 . S
C237 C231 1.465 . S
C237 C236 1.396 . S
C237 C238 1.399 . S
C238 H224 0.929 . S
C238 C237 1.399 . S
C238 C239 1.385 . S
C239 H225 0.931 . S
C239 C238 1.385 . S
C239 C240 1.389 . S
C240 C239 1.389 . S
C240 C241 1.387 . S
C241 H226 0.930 . S
C241 C236 1.390 . S
C241 C240 1.387 . S
H242 C254 0.930 . S
H243 C256 0.930 . S
H244 C257 0.930 . S
H245 C261 0.959 . S
H246 C261 0.959 . S
H247 C261 0.961 . S
H248 C262 0.960 . S
H249 C262 0.961 . S
H250 C262 0.959 . S
H251 C265 0.929 . S
H252 C266 0.931 . S
H253 C268 0.930 . S
C254 H242 0.930 . S
C254 C255 1.399 . S
C254 C259 1.399 . S
C255 C254 1.399 . S
C255 C256 1.376 . S
C256 H243 0.930 . S
C256 C255 1.376 . S
C256 C257 1.388 . S
C257 H244 0.930 . S
C257 C256 1.388 . S
C257 C258 1.390 . S
C258 C257 1.390 . S
C258 C259 1.394 . S
C258 C264 1.465 . S
C259 C254 1.399 . S
C259 C258 1.394 . S
C259 C260 1.516 . S
C260 C259 1.516 . S
C260 C261 1.502 . S
C260 C262 1.561 . S
C260 C263 1.526 . S
C261 H245 0.959 . S
C261 H246 0.959 . S
C261 H247 0.961 . S
C261 C260 1.502 . S
C262 H248 0.960 . S
C262 H249 0.961 . S
C262 H250 0.959 . S
C262 C260 1.561 . S
C263 C260 1.526 . S
C263 C264 1.396 . S
C263 C268 1.390 . S
C264 C258 1.465 . S
C264 C263 1.396 . S
C264 C265 1.399 1_565 S
C265 H251 0.929 . S
C265 C264 1.399 1_545 S
C265 C266 1.385 . S
C266 H252 0.931 . S
C266 C265 1.385 . S
C266 C267 1.389 . S
C267 C266 1.389 . S
C267 C268 1.387 1_545 S
C268 H253 0.930 . S
C268 C263 1.390 . S
C268 C267 1.387 1_565 S
H269 C281 0.930 . S
H270 C283 0.930 . S
H271 C284 0.930 . S
H272 C288 0.959 . S
H273 C288 0.959 . S
H274 C288 0.961 . S
H275 C289 0.960 . S
H276 C289 0.961 . S
H277 C289 0.959 . S
H278 C292 0.929 . S
H279 C293 0.931 . S
H280 C295 0.930 . S
C281 H269 0.930 . S
C281 C282 1.399 . S
C281 C286 1.399 . S
C282 C281 1.399 . S
C282 C283 1.376 . S
C283 H270 0.930 . S
C283 C282 1.376 . S
C283 C284 1.388 . S
C284 H271 0.930 . S
C284 C283 1.388 . S
C284 C285 1.390 . S
C285 C284 1.390 . S
C285 C286 1.394 . S
C285 C291 1.465 . S
C286 C281 1.399 . S
C286 C285 1.394 . S
C286 C287 1.516 . S
C287 C286 1.516 . S
C287 C288 1.502 . S
C287 C289 1.561 . S
C287 C290 1.526 . S
C288 H272 0.959 . S
C288 H273 0.959 . S
C288 H274 0.961 . S
C288 C287 1.502 . S
C289 H275 0.960 . S
C289 H276 0.961 . S
C289 H277 0.959 . S
C289 C287 1.561 . S
C290 C287 1.526 . S
C290 C291 1.396 . S
C290 C295 1.390 . S
C291 C285 1.465 . S
C291 C290 1.396 . S
C291 C292 1.399 . S
C292 H278 0.929 . S
C292 C291 1.399 . S
C292 C293 1.385 . S
C293 H279 0.931 . S
C293 C292 1.385 . S
C293 C294 1.389 . S
C294 C293 1.389 . S
C294 C295 1.387 . S
C295 H280 0.930 . S
C295 C290 1.390 . S
C295 C294 1.387 . S
H296 C308 0.930 . S
H297 C310 0.930 . S
H298 C311 0.930 . S
H299 C315 0.959 . S
H300 C315 0.959 1_455 S
H301 C315 0.961 . S
H302 C316 0.960 . S
H303 C316 0.961 . S
H304 C316 0.959 . S
H305 C319 0.929 . S
H306 C320 0.931 . S
H307 C322 0.930 . S
C308 H296 0.930 . S
C308 C309 1.399 1_565 S
C308 C313 1.399 . S
C309 C308 1.399 1_545 S
C309 C310 1.376 . S
C310 H297 0.930 . S
C310 C309 1.376 . S
C310 C311 1.388 . S
C311 H298 0.930 . S
C311 C310 1.388 . S
C311 C312 1.390 1_545 S
C312 C311 1.390 1_565 S
C312 C313 1.394 . S
C312 C318 1.465 . S
C313 C308 1.399 . S
C313 C312 1.394 . S
C313 C314 1.516 . S
C314 C313 1.516 . S
C314 C315 1.502 . S
C314 C316 1.561 . S
C314 C317 1.526 . S
C315 H299 0.959 . S
C315 H300 0.959 1_655 S
C315 H301 0.961 . S
C315 C314 1.502 . S
C316 H302 0.960 . S
C316 H303 0.961 . S
C316 H304 0.959 . S
C316 C314 1.561 . S
C317 C314 1.526 . S
C317 C318 1.396 . S
C317 C322 1.390 . S
C318 C312 1.465 . S
C318 C317 1.396 . S
C318 C319 1.399 . S
C319 H305 0.929 . S
C319 C318 1.399 . S
C319 C320 1.385 . S
C320 H306 0.931 . S
C320 C319 1.385 . S
C320 C321 1.389 . S
C321 C320 1.389 . S
C321 C322 1.387 . S
C322 H307 0.930 . S
C322 C317 1.390 . S
C322 C321 1.387 . S
H323 C335 0.930 . S
H324 C337 0.930 . S
H325 C338 0.930 . S
H326 C342 0.959 . S
H327 C342 0.959 . S
H328 C342 0.961 . S
H329 C343 0.960 . S
H330 C343 0.961 . S
H331 C343 0.959 . S
H332 C346 0.929 . S
H333 C347 0.931 . S
H334 C349 0.930 . S
C335 H323 0.930 . S
C335 C336 1.399 . S
C335 C340 1.399 . S
C336 C335 1.399 . S
C336 C337 1.376 . S
C337 H324 0.930 . S
C337 C336 1.376 . S
C337 C338 1.388 . S
C338 H325 0.930 . S
C338 C337 1.388 . S
C338 C339 1.390 . S
C339 C338 1.390 . S
C339 C340 1.394 . S
C339 C345 1.465 . S
C340 C335 1.399 . S
C340 C339 1.394 . S
C340 C341 1.516 . S
C341 C340 1.516 . S
C341 C342 1.502 . S
C341 C343 1.561 . S
C341 C344 1.526 . S
C342 H326 0.959 . S
C342 H327 0.959 . S
C342 H328 0.961 . S
C342 C341 1.502 . S
C343 H329 0.960 . S
C343 H330 0.961 . S
C343 H331 0.959 . S
C343 C341 1.561 . S
C344 C341 1.526 . S
C344 C345 1.396 . S
C344 C349 1.390 . S
C345 C339 1.465 . S
C345 C344 1.396 . S
C345 C346 1.399 . S
C346 H332 0.929 . S
C346 C345 1.399 . S
C346 C347 1.385 . S
C347 H333 0.931 . S
C347 C346 1.385 . S
C347 C348 1.389 . S
C348 C347 1.389 . S
C348 C349 1.387 . S
C349 H334 0.930 . S
C349 C344 1.390 . S
C349 C348 1.387 . S
H350 C362 0.930 . S
H351 C364 0.930 . S
H352 C365 0.930 . S
H353 C369 0.959 . S
H354 C369 0.959 . S
H355 C369 0.961 . S
H356 C370 0.960 . S
H357 C370 0.961 . S
H358 C370 0.959 . S
H359 C373 0.929 . S
H360 C374 0.931 . S
H361 C376 0.930 . S
C362 H350 0.930 . S
C362 C363 1.399 . S
C362 C367 1.399 . S
C363 C362 1.399 . S
C363 C364 1.376 . S
C364 H351 0.930 . S
C364 C363 1.376 . S
C364 C365 1.388 . S
C365 H352 0.930 . S
C365 C364 1.388 . S
C365 C366 1.390 . S
C366 C365 1.390 . S
C366 C367 1.394 . S
C366 C372 1.465 . S
C367 C362 1.399 . S
C367 C366 1.394 . S
C367 C368 1.516 . S
C368 C367 1.516 . S
C368 C369 1.502 . S
C368 C370 1.561 . S
C368 C371 1.526 . S
C369 H353 0.959 . S
C369 H354 0.959 . S
C369 H355 0.961 . S
C369 C368 1.502 . S
C370 H356 0.960 . S
C370 H357 0.961 . S
C370 H358 0.959 . S
C370 C368 1.561 . S
C371 C368 1.526 . S
C371 C372 1.396 . S
C371 C376 1.390 . S
C372 C366 1.465 . S
C372 C371 1.396 . S
C372 C373 1.399 . S
C373 H359 0.929 . S
C373 C372 1.399 . S
C373 C374 1.385 . S
C374 H360 0.931 . S
C374 C373 1.385 . S
C374 C375 1.389 . S
C375 C374 1.389 . S
C375 C376 1.387 . S
C376 H361 0.930 . S
C376 C371 1.390 . S
C376 C375 1.387 . S
H377 C389 0.930 . S
H378 C391 0.930 . S
H379 C392 0.930 . S
H380 C396 0.959 . S
H381 C396 0.959 . S
H382 C396 0.961 . S
H383 C397 0.960 . S
H384 C397 0.961 . S
H385 C397 0.959 . S
H386 C400 0.929 . S
H387 C401 0.931 . S
H388 C403 0.930 . S
C389 H377 0.930 . S
C389 C390 1.399 . S
C389 C394 1.399 . S
C390 C389 1.399 . S
C390 C391 1.376 . S
C391 H378 0.930 . S
C391 C390 1.376 . S
C391 C392 1.388 . S
C392 H379 0.930 . S
C392 C391 1.388 . S
C392 C393 1.390 . S
C393 C392 1.390 . S
C393 C394 1.394 . S
C393 C399 1.465 . S
C394 C389 1.399 . S
C394 C393 1.394 . S
C394 C395 1.516 . S
C395 C394 1.516 . S
C395 C396 1.502 . S
C395 C397 1.561 . S
C395 C398 1.526 . S
C396 H380 0.959 . S
C396 H381 0.959 . S
C396 H382 0.961 . S
C396 C395 1.502 . S
C397 H383 0.960 . S
C397 H384 0.961 . S
C397 H385 0.959 . S
C397 C395 1.561 . S
C398 C395 1.526 . S
C398 C399 1.396 . S
C398 C403 1.390 . S
C399 C393 1.465 . S
C399 C398 1.396 . S
C399 C400 1.399 1_655 S
C400 H386 0.929 . S
C400 C399 1.399 1_455 S
C400 C401 1.385 . S
C401 H387 0.931 . S
C401 C400 1.385 . S
C401 C402 1.389 . S
C402 C401 1.389 . S
C402 C403 1.387 1_455 S
C403 H388 0.930 . S
C403 C398 1.390 . S
C403 C402 1.387 1_655 S
C93 C59 0.437 1_556 S
C105 C19 0.495 1_566 S
C120 C79 0.437 . S
C132 C39 0.496 . S
C147 C58 1.173 1_554 S
C159 C18 1.199 1_554 S
C174 C38 1.127 . S
C186 C78 1.234 1_655 S
C201 C32 1.173 . S
C213 C9 1.173 . S
C228 C29 1.191 . S
C240 C52 1.093 . S
C255 C72 1.215 . S
C267 C49 1.201 . S
C282 C69 1.178 . S
C294 C12 1.183 . S
C309 C44 1.646 . S
C321 C62 1.570 . S
C336 C2 1.465 . S
C348 C64 1.637 . S
C363 C22 1.574 . S
C375 C4 1.680 . S
C390 C42 1.453 . S
C402 C24 1.618 . S
