# Generated by pormake.
# Topology ukl, (4)-cn, num edge types: 1
# Building blocks:
#     Node 0, Type 0, BuildingBlock: ESEHIV_clean_sbu_0, # of connection points: 4
#     Node 1, Type 0, BuildingBlock: ESEHIV_clean_sbu_0, # of connection points: 4
#     Node 2, Type 0, BuildingBlock: ESEHIV_clean_sbu_0, # of connection points: 4
#     Node 3, Type 0, BuildingBlock: ESEHIV_clean_sbu_0, # of connection points: 4
#     Node 4, Type 0, BuildingBlock: ESEHIV_clean_sbu_0, # of connection points: 4
#     Node 5, Type 0, BuildingBlock: ESEHIV_clean_sbu_0, # of connection points: 4
#     Node 6, Type 0, BuildingBlock: ESEHIV_clean_sbu_0, # of connection points: 4
#     Node 7, Type 0, BuildingBlock: ESEHIV_clean_sbu_0, # of connection points: 4
#     Node 8, Type 0, BuildingBlock: ESEHIV_clean_sbu_0, # of connection points: 4
#     Node 9, Type 0, BuildingBlock: ESEHIV_clean_sbu_0, # of connection points: 4
#     Node 10, Type 0, BuildingBlock: ESEHIV_clean_sbu_0, # of connection points: 4
#     Node 11, Type 0, BuildingBlock: ESEHIV_clean_sbu_0, # of connection points: 4
#     Node 12, Type 0, BuildingBlock: ESEHIV_clean_sbu_0, # of connection points: 4
#     Node 13, Type 0, BuildingBlock: ESEHIV_clean_sbu_0, # of connection points: 4
#     Node 14, Type 0, BuildingBlock: ESEHIV_clean_sbu_0, # of connection points: 4
#     Node 15, Type 0, BuildingBlock: ESEHIV_clean_sbu_0, # of connection points: 4
#     Edge 16, Type (0, 0), BuildingBlock: OJICUG_clean_linker_0, # of connection points: 2
#     Edge 17, Type (0, 0), BuildingBlock: OJICUG_clean_linker_0, # of connection points: 2
#     Edge 18, Type (0, 0), BuildingBlock: OJICUG_clean_linker_0, # of connection points: 2
#     Edge 19, Type (0, 0), BuildingBlock: OJICUG_clean_linker_0, # of connection points: 2
#     Edge 20, Type (0, 0), BuildingBlock: OJICUG_clean_linker_0, # of connection points: 2
#     Edge 21, Type (0, 0), BuildingBlock: OJICUG_clean_linker_0, # of connection points: 2
#     Edge 22, Type (0, 0), BuildingBlock: OJICUG_clean_linker_0, # of connection points: 2
#     Edge 23, Type (0, 0), BuildingBlock: OJICUG_clean_linker_0, # of connection points: 2
#     Edge 24, Type (0, 0), BuildingBlock: OJICUG_clean_linker_0, # of connection points: 2
#     Edge 25, Type (0, 0), BuildingBlock: OJICUG_clean_linker_0, # of connection points: 2
#     Edge 26, Type (0, 0), BuildingBlock: OJICUG_clean_linker_0, # of connection points: 2
#     Edge 27, Type (0, 0), BuildingBlock: OJICUG_clean_linker_0, # of connection points: 2
#     Edge 28, Type (0, 0), BuildingBlock: OJICUG_clean_linker_0, # of connection points: 2
#     Edge 29, Type (0, 0), BuildingBlock: OJICUG_clean_linker_0, # of connection points: 2
#     Edge 30, Type (0, 0), BuildingBlock: OJICUG_clean_linker_0, # of connection points: 2
#     Edge 31, Type (0, 0), BuildingBlock: OJICUG_clean_linker_0, # of connection points: 2
#     Edge 32, Type (0, 0), BuildingBlock: OJICUG_clean_linker_0, # of connection points: 2
#     Edge 33, Type (0, 0), BuildingBlock: OJICUG_clean_linker_0, # of connection points: 2
#     Edge 34, Type (0, 0), BuildingBlock: OJICUG_clean_linker_0, # of connection points: 2
#     Edge 35, Type (0, 0), BuildingBlock: OJICUG_clean_linker_0, # of connection points: 2
#     Edge 36, Type (0, 0), BuildingBlock: OJICUG_clean_linker_0, # of connection points: 2
#     Edge 37, Type (0, 0), BuildingBlock: OJICUG_clean_linker_0, # of connection points: 2
#     Edge 38, Type (0, 0), BuildingBlock: OJICUG_clean_linker_0, # of connection points: 2
#     Edge 39, Type (0, 0), BuildingBlock: OJICUG_clean_linker_0, # of connection points: 2
#     Edge 40, Type (0, 0), BuildingBlock: OJICUG_clean_linker_0, # of connection points: 2
#     Edge 41, Type (0, 0), BuildingBlock: OJICUG_clean_linker_0, # of connection points: 2
#     Edge 42, Type (0, 0), BuildingBlock: OJICUG_clean_linker_0, # of connection points: 2
#     Edge 43, Type (0, 0), BuildingBlock: OJICUG_clean_linker_0, # of connection points: 2
#     Edge 44, Type (0, 0), BuildingBlock: OJICUG_clean_linker_0, # of connection points: 2
#     Edge 45, Type (0, 0), BuildingBlock: OJICUG_clean_linker_0, # of connection points: 2
#     Edge 46, Type (0, 0), BuildingBlock: OJICUG_clean_linker_0, # of connection points: 2
#     Edge 47, Type (0, 0), BuildingBlock: OJICUG_clean_linker_0, # of connection points: 2
# Relax obj value: 0.095
# Max RMSD: 0.178
# Mean RMSD: 0.151
data_MOF--net-ukl--node1-ESEHIV_clean_sbu_0--edge1-OJICUG_clean_linker_0
_symmetry_space_group_name_H-M    P1
_symmetry_Int_Tables_number       1
_symmetry_cell_setting            triclinic
loop_
_symmetry_equiv_pos_as_xyz
'x, y, z'
_cell_length_a     25.216329
_cell_length_b     23.895693
_cell_length_c     17.20581
_cell_angle_alpha  90.501278
_cell_angle_beta   89.26768
_cell_angle_gamma 82.36523
loop_
_atom_site_label
_atom_site_type_symbol
_atom_site_fract_x
_atom_site_fract_y
_atom_site_fract_z
_atom_type_partial_charge
Cu0 Cu 0.3229 0.12649 -0.00832 0.0
N1 N 0.3629 0.17341 0.04351 0.0
N2 N 0.43131 0.2214 0.06116 0.0
C3 C 0.40707 0.18956 0.0118 0.0
C4 C 0.40118 0.22543 0.12695 0.0
C5 C 0.35873 0.19538 0.11583 0.0
O6 O 0.37418 0.06028 0.96557 0.0
C7 C 0.27602 0.21798 0.88886 0.0
O8 O 0.26392 0.23231 0.81734 0.0
H9 H 0.42148 0.17684 0.95402 0.0
H10 H 0.3271 0.19011 0.15693 0.0
N11 N 0.26994 0.1034 0.05468 0.0
N12 N 0.19216 0.0773 0.09153 0.0
C13 C 0.2185 0.10244 0.03608 0.0
C14 C 0.27619 0.07856 0.12442 0.0
C15 C 0.22807 0.06198 0.14728 0.0
C16 C 0.39702 0.04534 0.9007 0.0
O17 O 0.38222 0.07324 0.83745 0.0
H18 H 0.20106 0.11868 -0.01772 0.0
H19 H 0.31344 0.07215 0.15552 0.0
O20 O 0.29281 0.16593 0.90117 0.0
H21 H 0.40864 0.24885 0.17886 0.0
H22 H 0.21992 0.04087 0.20067 0.0
Cu23 Cu 0.65037 0.61265 0.29496 0.0
N24 N 0.58557 0.59292 0.25668 0.0
N25 N 0.50464 0.56387 0.26597 0.0
C26 C 0.55471 0.55953 0.2941 0.0
C27 C 0.5046 0.59963 0.20558 0.0
C28 C 0.55457 0.61747 0.20016 0.0
O29 O 0.69512 0.54321 0.32243 0.0
C30 C 0.58775 0.68219 0.40902 0.0
O31 O 0.55673 0.64234 0.41183 0.0
H32 H 0.56734 0.53561 0.34487 0.0
H33 H 0.56643 0.64881 0.16126 0.0
N34 N 0.69073 0.64542 0.22049 0.0
N35 N 0.73759 0.71237 0.17572 0.0
C36 C 0.69318 0.70114 0.21479 0.0
C37 C 0.73488 0.62006 0.18351 0.0
C38 C 0.76375 0.66102 0.1559 0.0
C39 C 0.68421 0.50929 0.3747 0.0
O40 O 0.64601 0.52564 0.42569 0.0
H41 H 0.6648 0.73231 0.24426 0.0
H42 H 0.74746 0.57497 0.18215 0.0
O43 O 0.63296 0.6723 0.37391 0.0
H44 H 0.47001 0.615 0.17146 0.0
H45 H 0.80209 0.65306 0.12637 0.0
Cu46 Cu 0.23598 0.95256 0.48177 0.0
N47 N 0.21686 0.91028 0.39726 0.0
N48 N 0.14884 0.86256 0.36966 0.0
C49 C 0.18746 0.87021 0.41983 0.0
C50 C 0.15625 0.89637 0.30919 0.0
C51 C 0.1984 0.92605 0.32647 0.0
O52 O 0.16702 0.99768 0.50829 0.0
C53 C 0.2955 0.85357 0.52765 0.0
O54 O 0.31484 0.85907 0.45722 0.0
H55 H 0.18899 0.85373 0.47803 0.0
H56 H 0.20908 0.96194 0.29493 0.0
N57 N 0.29042 0.999 0.46987 0.0
N58 N 0.36767 1.03043 0.50238 0.0
C59 C 0.34176 0.98483 0.49135 0.0
C60 C 0.28372 0.05579 0.46725 0.0
C61 C 0.33087 0.07506 0.48682 0.0
C62 C 0.14646 1.03127 0.45594 0.0
O63 O 0.17552 0.03944 0.3943 0.0
H64 H 0.3582 0.94219 0.50496 0.0
H65 H 0.24607 0.08223 0.45972 0.0
O66 O 0.26098 0.89308 0.55535 0.0
H67 H 0.12913 0.90461 0.26112 0.0
H68 H 0.33622 0.11894 0.49358 0.0
Cu69 Cu 0.93705 0.45418 0.79083 0.0
N70 N 1.00149 0.45679 0.73724 0.0
N71 N 0.08377 0.48235 0.7357 0.0
C72 C 0.03079 0.49993 0.74209 0.0
C73 C 0.08744 0.42649 0.72026 0.0
C74 C 0.03689 0.41082 0.72205 0.0
O75 O 0.89824 0.52888 0.80079 0.0
C76 C 0.99928 0.41426 0.91983 0.0
O77 O 0.02943 0.45336 0.90293 0.0
H78 H 1.01466 0.54166 0.76196 0.0
H79 H 1.02756 0.36807 0.72528 0.0
N80 N 0.89181 0.41252 0.73769 0.0
N81 N 0.8387 0.3463 0.71513 0.0
C82 C 0.88531 0.35779 0.74606 0.0
C83 C 0.84854 0.43634 0.70005 0.0
C84 C 0.81556 0.39617 0.68678 0.0
C85 C 0.91523 0.56916 0.83681 0.0
O86 O 0.95941 0.55959 0.87678 0.0
H87 H 0.91232 0.32836 0.77902 0.0
H88 H 0.84025 0.48073 0.68749 0.0
O89 O 0.95373 0.4159 0.88816 0.0
H90 H 0.12417 0.39785 0.71822 0.0
H91 H 0.7773 0.4038 0.65847 0.0
Cu92 Cu 0.70758 0.85631 0.89509 0.0
N93 N 0.69864 0.81096 -0.018 0.0
N94 N 0.64539 0.76294 0.05363 0.0
C95 C 0.65376 0.81385 0.02647 0.0
C96 C 0.6857 0.72621 0.02431 0.0
C97 C 0.71901 0.75573 -0.01742 0.0
O98 O 0.63375 0.88445 0.86234 0.0
C99 C 0.79973 0.79096 0.84641 0.0
O100 O 0.81649 0.81848 0.90572 0.0
H101 H 0.62336 0.85005 0.02949 0.0
H102 H 0.7515 0.73601 0.9467 0.0
N103 N 0.74793 0.91719 0.91007 0.0
N104 N 0.80797 0.97631 0.88419 0.0
C105 C 0.78586 0.93103 0.86 0.0
C106 C 0.74627 0.95557 -0.03188 0.0
C107 C 0.78288 0.99212 0.95202 0.0
C108 C 0.60834 0.9207 0.909 0.0
O109 O 0.63447 0.9393 -0.03293 0.0
H110 H 0.79817 0.90736 0.80749 0.0
H111 H 0.72101 0.95669 0.01943 0.0
O112 O 0.75095 0.80267 0.82625 0.0
H113 H 0.6879 0.68067 0.02643 0.0
H114 H 0.79056 1.02744 -0.01241 0.0
Cu115 Cu 0.41594 0.47615 0.69078 0.0
N116 N 0.43613 0.4564 0.79232 0.0
N117 N 0.46699 0.40081 0.89059 0.0
C118 C 0.4356 0.40626 0.82706 0.0
C119 C 0.48711 0.45 0.8966 0.0
C120 C 0.46853 0.48366 0.83554 0.0
O121 O 0.37886 0.41557 0.64941 0.0
C122 C 0.49982 0.53432 0.64158 0.0
O123 O 0.47061 0.57582 0.67865 0.0
H124 H 0.4192 0.37141 0.79984 0.0
H125 H 0.48391 0.52106 0.81648 0.0
N126 N 0.37046 0.54519 0.69442 0.0
N127 N 0.33792 0.63516 0.66983 0.0
C128 C 0.36117 0.58528 0.63932 0.0
C129 C 0.35182 0.57043 0.76113 0.0
C130 C 0.33286 0.62572 0.74623 0.0
C131 C 0.33285 0.41188 0.67891 0.0
O132 O 0.31292 0.4503 0.73022 0.0
H133 H 0.37522 0.5793 0.57981 0.0
H134 H 0.35617 0.55121 0.8177 0.0
O135 O 0.48288 0.48639 0.63639 0.0
H136 H 0.51988 0.45704 0.93393 0.0
H137 H 0.32195 0.65835 0.78894 0.0
Cu138 Cu 0.82999 0.19144 0.40914 0.0
N139 N 0.83443 0.23201 0.50165 0.0
N140 N 0.88905 0.28721 0.55659 0.0
C141 C 0.88236 0.23435 0.53458 0.0
C142 C 0.84316 0.31945 0.53828 0.0
C143 C 0.80879 0.28504 0.50839 0.0
O144 O 0.90215 0.15184 0.3907 0.0
C145 C 0.75623 0.27045 0.33446 0.0
O146 O 0.72249 0.23668 0.35816 0.0
H147 H 0.9153 0.20067 0.52999 0.0
H148 H 0.77091 0.2997 0.48243 0.0
N149 N 0.7807 0.13928 0.41275 0.0
N150 N 0.72163 0.08391 0.37198 0.0
C151 C 0.75741 0.11831 0.35075 0.0
C152 C 0.75902 0.11721 0.47539 0.0
C153 C 0.72248 0.083 0.4503 0.0
C154 C 0.91953 0.11242 0.43734 0.0
O155 O 0.88631 0.09607 0.48927 0.0
H156 H 0.76528 0.1298 0.29156 0.0
H157 H 0.76819 0.12655 0.53494 0.0
O158 O 0.80627 0.25274 0.33698 0.0
H159 H 0.83671 0.36508 0.53922 0.0
H160 H 0.69656 0.06134 0.48654 0.0
Cu161 Cu 0.16307 0.56683 0.14876 0.0
N162 N 0.13132 0.59248 0.24319 0.0
N163 N 0.08534 0.66397 0.31083 0.0
C164 C 0.09157 0.63593 0.24236 0.0
C165 C 0.12225 0.63598 0.35766 0.0
C166 C 0.15104 0.59231 0.31546 0.0
O167 O 0.20724 0.62559 0.12523 0.0
C168 C 0.06987 0.53101 0.0958 0.0
O169 O 0.09736 0.57028 0.07153 0.0
H170 H 0.07239 0.65036 0.18918 0.0
H171 H 0.18708 0.56651 0.33389 0.0
N172 N 0.19939 0.49248 0.14784 0.0
N173 N 0.23113 0.40507 0.10482 0.0
C174 C 0.20814 0.45748 0.08542 0.0
C175 C 0.21672 0.46079 0.20883 0.0
C176 C 0.2364 0.40704 0.1826 0.0
C177 C 0.24389 0.63454 0.17239 0.0
O178 O 0.25856 0.59671 0.22555 0.0
H179 H 0.19581 0.46952 0.02729 0.0
H180 H 0.21401 0.47557 0.26831 0.0
O181 O 0.09993 0.56805 0.07721 0.0
H182 H 0.13131 0.64871 0.41589 0.0
H183 H 0.2535 0.37216 0.21775 0.0
Cu184 Cu 0.82937 0.65658 0.4877 0.0
N185 N 0.87009 0.70675 0.53346 0.0
N186 N 0.93799 0.75702 0.51872 0.0
C187 C 0.89337 0.74173 0.48759 0.0
C188 C 0.94208 0.73214 0.58891 0.0
C189 C 0.90018 0.70056 0.59764 0.0
O190 O 0.88299 0.59617 0.44965 0.0
C191 C 0.76613 0.74639 0.39985 0.0
O192 O 0.74386 0.76267 0.3342 0.0
H193 H 0.88086 0.75016 0.42863 0.0
H194 H 0.89613 0.66995 0.64255 0.0
N195 N 0.78421 0.62368 0.5551 0.0
N196 N 0.71309 0.58443 0.59492 0.0
C197 C 0.73215 0.61943 0.5435 0.0
C198 C 0.79861 0.59017 0.61572 0.0
C199 C 0.75469 0.56601 0.64063 0.0
C200 C 0.91166 0.5955 0.38799 0.0
O201 O 0.90072 0.63504 0.33588 0.0
H202 H 0.70941 0.63953 0.49604 0.0
H203 H 0.83879 0.58208 0.638 0.0
O204 O 0.7883 0.69518 0.40461 0.0
H205 H 0.97602 0.73124 0.62696 0.0
H206 H 0.75348 0.53677 0.68805 0.0
Cu207 Cu 0.128 0.12159 0.76717 0.0
N208 N 0.06112 0.10439 0.73414 0.0
N209 N 0.98168 0.07234 0.74407 0.0
C210 C 0.03088 0.07174 0.7741 0.0
C211 C 0.98122 0.10557 0.681 0.0
C212 C 0.03045 0.12509 0.67481 0.0
O213 O 0.17018 0.05186 0.79587 0.0
C214 C 0.07757 0.18599 0.89762 0.0
O215 O 0.04155 0.15113 0.89745 0.0
H216 H 0.04395 0.04948 0.82624 0.0
H217 H 0.04237 0.15366 0.63159 0.0
N218 N 0.16675 0.15575 0.69189 0.0
N219 N 0.22087 0.21755 0.65224 0.0
C220 C 0.18153 0.20733 0.70222 0.0
C221 C 0.19739 0.13224 0.63249 0.0
C222 C 0.23058 0.17047 0.60764 0.0
C223 C 0.16126 1.02746 0.85893 0.0
O224 O 0.12594 0.05271 0.90881 0.0
H225 H 0.16633 0.23509 0.74968 0.0
H226 H 0.19801 0.08924 0.61199 0.0
O227 O 0.11804 0.17657 0.85218 0.0
H228 H 0.94706 0.11702 0.64419 0.0
H229 H 0.26014 0.1638 0.56149 0.0
Cu230 Cu 0.72616 0.45934 0.93681 0.0
N231 N 0.69614 0.42131 0.01503 0.0
N232 N 0.64279 0.3579 0.04612 0.0
C233 C 0.6522 0.39839 -0.00329 0.0
C234 C 0.68151 0.3557 0.09983 0.0
C235 C 0.71541 0.39463 0.07947 0.0
O236 O 0.66279 0.50522 0.89903 0.0
C237 C 0.79858 0.36549 0.88905 0.0
O238 O 0.83868 0.392 0.90911 0.0
H239 H 0.62995 0.40827 0.94409 0.0
H240 H 0.7534 0.39942 0.10548 0.0
N241 N 0.7749 0.50608 -0.02719 0.0
N242 N 0.848 0.538 0.01979 0.0
C243 C 0.82139 0.49274 0.01026 0.0
C244 C 0.77081 0.56199 0.96102 0.0
C245 C 0.81556 0.58168 -0.01065 0.0
C246 C 0.64894 0.54655 0.85425 0.0
O247 O 0.68419 0.56646 0.80903 0.0
H248 H 0.83572 0.45038 0.02843 0.0
H249 H 0.7381 0.58681 0.93213 0.0
O250 O 0.75446 0.3948 0.87162 0.0
H251 H 0.68716 0.32544 0.14644 0.0
H252 H 0.82372 0.62483 -0.01477 0.0
Cu253 Cu 0.41841 0.95985 0.27068 0.0
N254 N 0.48073 0.9646 0.21102 0.0
N255 N 0.56508 0.98468 0.20326 0.0
C256 C 0.5134 1.0047 0.21901 0.0
C257 C 0.56463 0.93053 0.18095 0.0
C258 C 0.51264 0.91868 0.18472 0.0
O259 O 0.38024 1.03507 0.29044 0.0
C260 C 0.48835 0.91074 0.38875 0.0
O261 O 0.51805 0.95041 0.37284 0.0
H262 H 0.5014 0.04494 0.24712 0.0
H263 H 0.50008 0.87757 0.17978 0.0
N264 N 0.37064 0.91897 0.21951 0.0
N265 N 0.31708 0.85302 0.19575 0.0
C266 C 0.35634 0.86879 0.24083 0.0
C267 C 0.33926 0.93589 0.1594 0.0
C268 C 0.30598 0.89578 0.14498 0.0
C269 C 0.39986 0.07358 0.32726 0.0
O270 O 0.4459 0.06121 0.36201 0.0
H271 H 0.37447 0.84451 0.28865 0.0
H272 H 0.3411 0.97429 0.12755 0.0
O273 O 0.44124 0.91447 0.36138 0.0
H274 H 0.59994 0.90007 0.1713 0.0
H275 H 0.27774 0.89697 0.098 0.0
Cu276 Cu 0.20486 0.3826 0.40267 0.0
N277 N 0.17577 0.34948 0.48872 0.0
N278 N 0.10417 0.32471 0.5519 0.0
C279 C 0.12763 0.36754 0.52188 0.0
C280 C 0.13938 0.2781 0.53834 0.0
C281 C 0.18313 0.29334 0.49979 0.0
O282 O 0.14233 0.42615 0.35433 0.0
C283 C 0.28771 0.29797 0.37285 0.0
O284 O 0.3052 0.32298 0.43385 0.0
H285 H 0.10735 0.40981 0.51599 0.0
H286 H 0.21454 0.26416 0.47298 0.0
N287 N 0.25596 0.43053 0.4271 0.0
N288 N 0.32608 0.47811 0.41066 0.0
C289 C 0.29331 0.44503 0.37707 0.0
C290 C 0.26596 0.45446 0.49548 0.0
C291 C 0.30913 0.48387 0.48548 0.0
C292 C 0.12462 0.4719 0.39036 0.0
O293 O 0.15321 0.48897 0.44694 0.0
H294 H 0.29791 0.42943 0.31797 0.0
H295 H 0.24369 0.45044 0.54883 0.0
O296 O 0.24263 0.31815 0.34453 0.0
H297 H 0.13122 0.23519 0.54661 0.0
H298 H 0.32655 0.50747 0.52997 0.0
Cu299 Cu 0.87895 1.00546 0.12942 0.0
N300 N 0.89505 0.98626 0.2326 0.0
N301 N 0.94293 0.92059 0.30474 0.0
C302 C 0.9074 0.93081 0.24744 0.0
C303 C 0.95229 0.97187 0.32979 0.0
C304 C 0.92295 1.01243 0.28482 0.0
O305 O 0.84581 0.94078 0.09313 0.0
C306 C 0.97067 0.05329 0.10492 0.0
O307 O 0.94238 0.09369 0.14561 0.0
H308 H 0.89614 0.89824 0.2098 0.0
H309 H 0.92774 0.05664 0.28337 0.0
N310 N 0.8346 0.07437 0.10935 0.0
N311 N 0.80386 0.15415 0.04629 0.0
C312 C 0.8448 0.11208 0.05472 0.0
C313 C 0.78493 0.09335 0.13595 0.0
C314 C 0.76603 0.14244 0.09761 0.0
C315 C 0.80483 0.9313 0.13268 0.0
O316 O 0.78498 0.96885 0.18503 0.0
H317 H 0.8812 0.10791 0.02012 0.0
H318 H 0.76322 0.07266 0.17905 0.0
O319 O 0.94962 1.00965 0.0857 0.0
H320 H 0.98308 0.97919 0.37034 0.0
H321 H 0.72758 0.1677 0.10743 0.0
Cu322 Cu 0.33471 0.71122 0.92467 0.0
N323 N 0.35691 0.73789 0.01907 0.0
N324 N 0.42791 0.74807 0.09217 0.0
C325 C 0.39849 0.71139 0.05856 0.0
C326 C 0.4019 0.79952 0.07656 0.0
C327 C 0.35856 0.79321 0.03147 0.0
O328 O 0.40247 0.68355 0.87073 0.0
C329 C 0.25289 0.79666 0.90802 0.0
O330 O 0.23491 0.76924 0.96644 0.0
H331 H 0.41324 0.6672 0.04969 0.0
H332 H 0.33592 0.82668 -0.00072 0.0
N333 N 0.28888 0.65588 0.93792 0.0
N334 N 0.23057 0.59668 0.90668 0.0
C335 C 0.24899 0.64581 0.89037 0.0
C336 C 0.29342 0.61351 -0.01073 0.0
C337 C 0.25826 0.57654 -0.03058 0.0
C338 C 0.4258 0.63532 0.89018 0.0
O339 O 0.39941 0.60308 0.9331 0.0
H340 H 0.23646 0.67197 0.84118 0.0
H341 H 0.32236 0.6082 0.03538 0.0
O342 O 0.29648 0.77603 0.87462 0.0
H343 H 0.41834 0.83876 0.08491 0.0
H344 H 0.25486 0.53704 -0.00233 0.0
Cu345 Cu 0.66378 0.07458 0.70765 0.0
N346 N 0.64496 0.09174 0.8122 0.0
N347 N 0.61533 0.15221 0.90884 0.0
C348 C 0.64784 0.14232 0.84573 0.0
C349 C 0.59296 0.10439 0.91741 0.0
C350 C 0.61096 0.06752 0.8576 0.0
O351 O 0.70726 0.13151 0.67545 0.0
C352 C 0.57253 1.03555 0.64632 0.0
O353 O 0.59202 0.99051 0.68459 0.0
H354 H 0.66563 0.17532 0.81644 0.0
H355 H 0.59427 1.03 0.84163 0.0
N356 N 0.70053 1.00142 0.69649 0.0
N357 N 0.72887 0.91751 0.6394 0.0
C358 C 0.72183 0.97457 0.6316 0.0
C359 C 0.69444 0.9604 0.74686 0.0
C360 C 0.7106 0.90914 0.71181 0.0
C361 C 0.75021 0.13614 0.71171 0.0
O362 O 0.76698 0.09816 0.76362 0.0
H363 H 0.72822 0.99635 0.57844 0.0
H364 H 0.67464 0.96743 0.80254 0.0
O365 O 0.59755 0.0786 0.64772 0.0
H366 H 0.55905 0.10029 0.95524 0.0
H367 H 0.70466 0.8691 0.73601 0.0
C368 C 0.52317 0.9494 0.83333 0.0
C369 C 0.55024 0.94131 0.90407 0.0
H370 H 0.45338 0.9906 0.77578 0.0
C371 C 0.52308 0.96045 -0.02701 0.0
H372 H 0.54264 0.93395 0.77954 0.0
C373 C 0.47198 0.99057 -0.02841 0.0
C374 C 0.44667 1.00394 0.90069 0.0
H375 H 0.54246 0.95433 0.02845 0.0
H376 H 0.45384 1.00633 0.02631 0.0
C377 C 0.4721 0.98165 0.83141 0.0
C378 C 0.81927 0.82601 0.11029 0.0
C379 C 0.78587 0.87525 0.1333 0.0
H380 H 0.83106 0.73591 0.10664 0.0
C381 C 0.73597 0.87017 0.16743 0.0
H382 H 0.85826 0.82858 0.08445 0.0
C383 C 0.7204 0.81729 0.18118 0.0
C384 C 0.75421 0.76738 0.1609 0.0
H385 H 0.7091 0.90736 0.18507 0.0
H386 H 0.68159 0.81614 0.20786 0.0
C387 C 0.80374 0.77267 0.12415 0.0
C388 C 0.05169 1.03355 0.50592 0.0
C389 C 0.0888 0.05463 0.45632 0.0
H390 H 0.96917 1.03413 0.53748 0.0
C391 C 0.06968 0.09488 0.40042 0.0
H392 H 0.06489 1.00202 0.54884 0.0
C393 C 1.01492 0.11318 0.3936 0.0
C394 C 0.97767 0.09166 0.44241 0.0
H395 H 0.09708 0.11192 0.36089 0.0
H396 H 1.00182 0.14412 0.34986 0.0
C397 C 0.99674 0.05174 0.49886 0.0
C398 C 0.82722 0.19093 0.73211 0.0
C399 C 0.77444 0.18911 0.708 0.0
H400 H 0.8895 0.24162 0.75195 0.0
C401 C 0.74314 0.23952 0.68719 0.0
H402 H 0.85214 0.1527 0.74918 0.0
C403 C 0.76374 0.29081 0.69145 0.0
C404 C 0.81687 0.2931 0.71452 0.0
H405 H 0.70196 0.2397 0.6699 0.0
H406 H 0.73749 0.3285 0.6765 0.0
C407 C 0.84841 0.24221 0.73452 0.0
C408 C 0.30049 0.2658 0.6199 0.0
C409 C 0.24849 0.26708 0.65176 0.0
H410 H 0.36834 0.31065 0.60309 0.0
C411 C 0.22395 0.31765 0.68589 0.0
H412 H 0.32079 0.22769 0.5929 0.0
C413 C 0.25079 0.36483 0.69112 0.0
C414 C 0.30348 0.36307 0.663 0.0
H415 H 0.18392 0.32049 0.70965 0.0
H416 H 0.23044 0.40258 0.71882 0.0
C417 C 0.32778 0.31338 0.62565 0.0
C418 C 0.2501 0.7919 0.15316 0.0
C419 C 0.29684 0.7989 0.19417 0.0
H420 H 0.1974 0.73479 0.1128 0.0
C421 C 0.32589 0.75084 0.22769 0.0
H422 H 0.22609 0.82767 0.1274 0.0
C423 C 0.30935 0.69746 0.21906 0.0
C424 C 0.2634 0.69049 0.17653 0.0
H425 H 0.36248 0.75383 0.25861 0.0
H426 H 0.33289 0.66147 0.24532 0.0
C427 C 0.23379 0.73841 0.14415 0.0
C428 C 0.9909 0.54231 0.31442 0.0
C429 C 0.96366 0.55821 0.38495 0.0
H430 H 0.06318 0.49985 0.26024 0.0
C431 C 0.98866 0.54204 0.45515 0.0
H432 H 0.97267 0.55447 0.25938 0.0
C433 C 0.04033 0.51328 0.45542 0.0
C434 C 0.0681 0.49785 0.38558 0.0
H435 H 0.96929 0.55397 0.51055 0.0
H436 H 0.0589 0.50374 0.51105 0.0
C437 C 0.04247 0.51115 0.31477 0.0
C438 C 0.51409 0.63529 0.81701 0.0
C439 C 0.48425 0.61947 0.88094 0.0
H440 H 0.59053 0.62371 0.75699 0.0
C441 C 0.5106 0.58559 0.93858 0.0
H442 H 0.49498 0.66273 0.7729 0.0
C443 C 0.56408 0.56393 0.92982 0.0
C444 C 0.59331 0.57527 0.86307 0.0
H445 H 0.48946 0.57449 -0.00974 0.0
H446 H 0.58211 0.53703 -0.02464 0.0
C447 C 0.56848 0.61291 0.80784 0.0
C448 C 0.26513 0.36475 -0.02203 0.0
C449 C 0.24593 0.35697 0.05346 0.0
H450 H 0.2909 0.327 0.86835 0.0
C451 C 0.24082 0.30159 0.0772 0.0
H452 H 0.27096 0.40642 0.95868 0.0
C453 C 0.25253 0.25555 0.02534 0.0
C454 C 0.27073 0.26367 0.94924 0.0
H455 H 0.22591 0.29413 0.13496 0.0
H456 H 0.24542 0.2142 0.04401 0.0
C457 C 0.27723 0.31892 0.92666 0.0
C458 C 0.37143 0.51084 0.29361 0.0
C459 C 0.37064 0.50069 0.3742 0.0
H460 H 0.41447 0.53901 0.19604 0.0
C461 C 0.41442 0.51242 0.41829 0.0
H462 H 0.33814 0.5029 0.25793 0.0
C463 C 0.45804 0.53303 0.38282 0.0
C464 C 0.4592 0.54267 0.30211 0.0
H465 H 0.41547 0.50478 0.48018 0.0
H466 H 0.49062 0.54197 0.41922 0.0
C467 C 0.41502 0.53188 0.25809 0.0
C468 C 0.34592 0.75608 0.53369 0.0
C469 C 0.30813 0.79857 0.56712 0.0
H470 H 0.38517 0.67111 0.53973 0.0
C471 C 0.28015 0.78614 0.63436 0.0
H472 H 0.36807 0.76405 0.48151 0.0
C473 C 0.28941 0.73235 0.66696 0.0
C474 C 0.32716 0.68974 0.6335 0.0
H475 H 0.25031 0.81753 0.66098 0.0
H476 H 0.26638 0.724 0.71804 0.0
C477 C 0.35535 0.70237 0.56645 0.0
C478 C 0.12106 0.57016 0.76953 0.0
C479 C 0.12441 0.51095 0.77133 0.0
H480 H 0.15153 0.64407 0.81223 0.0
C481 C 0.16416 0.48075 0.8169 0.0
H482 H 0.09061 0.59462 0.7355 0.0
C483 C 0.19921 0.50887 0.85988 0.0
C484 C 0.19493 0.56804 0.8602 0.0
H485 H 0.16713 0.43536 0.82194 0.0
H486 H 0.22968 0.48413 0.89311 0.0
C487 C 0.15595 0.59842 0.81346 0.0
C488 C 0.91317 0.67325 0.84834 0.0
C489 C 0.88716 0.62686 0.82911 0.0
H490 H 0.90611 0.76252 0.86467 0.0
C491 C 0.83426 0.63614 0.80231 0.0
H492 H 0.95427 0.66744 0.86754 0.0
C493 C 0.80666 0.69082 0.79985 0.0
C494 C 0.83162 0.73683 0.82468 0.0
H495 H 0.81333 0.60095 0.78701 0.0
H496 H 0.76483 0.69646 0.78417 0.0
C497 C 0.88576 0.72772 0.84565 0.0
C498 C 0.59825 0.50154 0.62905 0.0
C499 C 0.55434 0.54306 0.61692 0.0
H500 H 0.6839 0.48266 0.63259 0.0
C501 C 0.56359 0.59703 0.59299 0.0
H502 H 0.59218 0.45992 0.64883 0.0
C503 C 0.61567 0.60996 0.58379 0.0
C504 C 0.65967 0.56946 0.59934 0.0
H505 H 0.5304 0.63 0.58406 0.0
H506 H 0.62157 0.65245 0.56792 0.0
C507 C 0.65057 0.51481 0.62099 0.0
C508 C 0.7716 0.37232 0.31783 0.0
C509 C 0.73727 0.33217 0.33542 0.0
H510 H 0.7817 0.46036 0.31642 0.0
C511 C 0.68578 0.35139 0.36559 0.0
H512 H 0.8116 0.35902 0.29518 0.0
C513 C 0.66982 0.40856 0.38098 0.0
C514 C 0.70414 0.44856 0.3644 0.0
H515 H 0.65806 0.32205 0.38026 0.0
H516 H 0.63001 0.42153 0.40467 0.0
C517 C 0.75481 0.43014 0.33105 0.0
C518 C 0.98237 0.58541 0.05503 0.0
C519 C 1.01271 0.5347 0.07725 0.0
H520 H 0.90631 0.62705 0.02237 0.0
C521 C 0.98717 0.48679 0.08799 0.0
H522 H 1.00069 0.62369 0.04902 0.0
C523 C 0.93285 0.48822 0.07191 0.0
C524 C 0.90247 0.53813 0.04575 0.0
H525 H 1.00956 0.44766 0.10743 0.0
H526 H 0.91541 0.44965 0.07894 0.0
C527 C 0.92776 0.58728 0.04045 0.0
C528 C 0.76251 0.8463 0.44518 0.0
C529 C 0.76418 0.78883 0.46369 0.0
H530 H 0.75136 0.93179 0.48542 0.0
C531 C 0.75781 0.77434 0.54155 0.0
H532 H 0.7673 0.85904 0.38547 0.0
C533 C 0.74873 0.81621 0.59936 0.0
C534 C 0.74437 0.87412 0.58066 0.0
H535 H 0.75778 0.73094 0.55777 0.0
H536 H 0.74385 0.80255 0.65836 0.0
C537 C 0.75308 0.8883 0.50278 0.0
C538 C 0.85694 1.00246 0.76653 0.0
C539 C 0.85174 1.00012 0.84798 0.0
H540 H 0.90188 1.02878 0.66939 0.0
C541 C 0.8904 1.02089 0.89396 0.0
H542 H 0.82776 0.98653 0.72959 0.0
C543 C 0.93276 0.04448 0.85988 0.0
C544 C 0.9376 0.04796 0.77854 0.0
H545 H 0.8883 1.01776 0.95648 0.0
H546 H 0.96149 0.06056 0.89745 0.0
C547 C 0.89904 1.02692 0.73214 0.0
C548 C 0.84987 0.22275 -0.02768 0.0
C549 C 0.80225 0.20273 -0.00401 0.0
H550 H 0.8858 0.28871 0.91744 0.0
C551 C 0.75321 0.23262 -0.0276 0.0
H552 H 0.88842 0.20084 -0.01162 0.0
C553 C 0.7519 0.28324 0.93113 0.0
C554 C 0.79948 0.30576 0.91399 0.0
H555 H 0.71575 0.21768 -0.01258 0.0
H556 H 0.71348 0.30612 0.91641 0.0
C557 C 0.84843 0.27352 0.93198 0.0
C558 C 0.64136 0.97613 0.29222 0.0
C559 C 0.6097 1.00751 0.23699 0.0
H560 H 0.70153 0.97648 0.37905 0.0
C561 C 0.61794 0.06358 0.22318 0.0
H562 H 0.63532 0.93308 0.30463 0.0
C563 C 0.65662 0.08805 0.2649 0.0
C564 C 0.68641 0.05729 0.3227 0.0
H565 H 0.59352 0.08868 0.18154 0.0
H566 H 0.66161 0.13171 0.25466 0.0
C567 C 0.67889 1.00095 0.33514 0.0
C568 C 0.39845 0.17613 0.3569 0.0
C569 C 0.37144 0.13201 0.33083 0.0
H570 H 0.39322 0.26331 0.38845 0.0
C571 C 0.31718 0.14426 0.31061 0.0
H572 H 0.44029 0.16835 0.37227 0.0
C573 C 0.2901 0.19928 0.31919 0.0
C574 C 0.31688 0.2427 0.34848 0.0
H575 H 0.29513 0.11101 0.29103 0.0
H576 H 0.2478 0.20714 0.30661 0.0
C577 C 0.37151 0.23069 0.36569 0.0
C578 C 0.04402 0.10926 0.07521 0.0
C579 C 1.02774 0.05674 0.09202 0.0
H580 H 0.11 0.15651 0.06129 0.0
C581 C 0.06641 1.01049 0.10779 0.0
H582 H 1.01472 0.14568 0.06439 0.0
C583 C 0.12068 1.01732 0.10876 0.0
C584 C 0.13676 0.0699 0.09148 0.0
H585 H 0.05455 0.96995 0.12281 0.0
H586 H 0.15015 0.98166 0.12241 0.0
C587 C 0.09817 0.11557 0.07385 0.0
C588 C 0.18605 0.88029 0.93993 0.0
C589 C 0.22823 0.85481 0.89212 0.0
H590 H 0.13203 0.95463 -0.03318 0.0
C591 C 0.24864 0.88673 0.83336 0.0
H592 H 0.16953 0.85699 -0.01397 0.0
C593 C 0.22737 0.94319 0.82301 0.0
C594 C 0.18553 0.9687 0.8715 0.0
H595 H 0.28133 0.86831 0.7959 0.0
H596 H 0.24378 0.96685 0.77721 0.0
C597 C 0.16499 0.93659 0.92973 0.0
C598 C 0.44265 0.08296 0.5413 0.0
C599 C 0.42045 1.03182 0.53469 0.0
H600 H 0.50803 0.1245 0.58089 0.0
C601 C 0.45053 0.98226 0.56209 0.0
H602 H 0.42171 0.12214 0.52023 0.0
C603 C 0.50006 0.98389 0.59657 0.0
C604 C 0.52144 1.03501 0.60475 0.0
H605 H 0.43602 0.94183 0.5584 0.0
H606 H 0.52137 0.94472 0.61764 0.0
C607 C 0.49258 0.08447 0.57572 0.0
C608 C 0.49877 0.25316 0.95032 0.0
C609 C 0.4787 0.24636 0.04499 0.0
H610 H 0.60739 0.31819 0.89562 0.0
C611 C 0.51258 0.27119 0.11965 0.0
H612 H 0.47502 0.2371 0.90452 0.0
C613 C 0.56773 0.30489 0.11578 0.0
C614 C 0.6022 0.32213 0.03653 0.0
H615 H 0.49741 0.26517 0.17756 0.0
H616 H 0.58176 0.31822 0.17123 0.0
C617 C 0.58373 0.30529 0.94444 0.0
C618 C 0.57061 0.84209 0.41366 0.0
C619 C 0.51442 0.85488 0.41562 0.0
H620 H 0.63819 0.77732 0.41033 0.0
C621 C 0.48377 0.81104 0.43042 0.0
H622 H 0.59562 0.87479 0.40309 0.0
C623 C 0.50834 0.75512 0.43582 0.0
C624 C 0.56411 0.74163 0.4253 0.0
H625 H 0.4405 0.81944 0.43293 0.0
H626 H 0.48304 0.72215 0.44239 0.0
C627 C 0.59516 0.78605 0.41781 0.0
C628 C 0.06232 0.8169 0.31776 0.0
C629 C 0.1012 0.83857 0.38981 0.0
H630 H 0.94681 0.75838 0.34838 0.0
C631 C 0.08365 0.83288 0.48583 0.0
H632 H 0.07593 0.8215 0.25777 0.0
C633 C 1.02918 0.80655 0.52421 0.0
C634 C 0.97932 0.77994 0.47601 0.0
H635 H 0.10909 0.84849 0.52866 0.0
H636 H 1.02622 0.80718 0.58696 0.0
C637 C 0.97919 0.7768 0.37633 0.0
C638 C 1.01214 0.26036 0.96208 0.0
C639 C 0.06399 0.24313 0.93231 0.0
H640 H 0.95122 0.33021 -0.01486 0.0
C641 C 0.09871 0.28402 0.92176 0.0
H642 H 0.98473 0.22992 -0.02733 0.0
C643 C 0.07928 0.34142 0.92871 0.0
C644 C 1.02486 0.35856 0.94604 0.0
H645 H 0.13937 0.27209 0.90073 0.0
H646 H 0.10536 0.3719 0.91177 0.0
C647 C 0.99279 0.31777 -0.03094 0.0
C648 C 0.51351 0.71502 0.02976 0.0
C649 C 0.48513 0.73884 0.09509 0.0
H650 H 0.5874 0.70284 0.96649 0.0
C651 C 0.51253 0.7647 0.15285 0.0
H652 H 0.49256 0.69875 -0.0175 0.0
C653 C 0.5667 0.77057 0.14167 0.0
C654 C 0.59386 0.74864 0.07401 0.0
H655 H 0.49106 0.78345 0.20358 0.0
H656 H 0.58669 0.79404 0.18377 0.0
C657 C 0.56745 0.71878 0.0199 0.0
C658 C 0.56178 0.24242 0.84314 0.0
C659 C 0.58605 0.20695 0.92283 0.0
H660 H 0.51269 0.31943 0.78017 0.0
C661 C 0.57162 0.23363 0.01512 0.0
H662 H 0.572 0.22225 0.78746 0.0
C663 C 0.50992 0.33147 0.00776 0.0
C664 C 0.49672 0.34829 0.91217 0.0
H665 H 0.58818 0.20846 0.0641 0.0
H666 H 0.49268 0.36144 0.05264 0.0
C667 C 0.52223 0.30512 0.83841 0.0
C668 C 1.00892 0.36187 0.53164 0.0
C669 C 0.04808 0.32417 0.56867 0.0
H670 H 0.92681 0.37974 0.4992 0.0
C671 C 0.03158 0.28069 0.61374 0.0
H672 H 1.01997 0.39579 0.49631 0.0
C673 C 0.97808 0.27142 0.61495 0.0
C674 C 0.94006 0.30552 0.57142 0.0
H675 H 0.06064 0.2522 0.64491 0.0
H676 H 0.96671 0.23575 0.64638 0.0
C677 C 0.95532 0.35269 0.53323 0.0
C678 C 1.00694 0.85611 0.40559 0.0
C679 C 0.9746 0.86708 0.31906 0.0
H680 H 0.08725 0.7336 0.45346 0.0
C681 C 0.98049 0.81573 0.24832 0.0
H682 H 1.00153 0.89071 0.44827 0.0
C683 C 1.01631 0.74974 0.25029 0.0
C684 C 0.05511 0.71908 0.32344 0.0
H685 H 0.95992 0.8256 0.19453 0.0
H686 H 1.01333 0.72524 0.19799 0.0
C687 C 0.06186 0.75504 0.40883 0.0
loop_
_geom_bond_atom_site_label_1
_geom_bond_atom_site_label_2
_geom_bond_distance
_geom_bond_site_symmetry_2
_ccdc_geom_bond_type
Cu0 N1 1.999 . S
Cu0 O6 1.974 . S
Cu0 N11 1.985 . S
Cu0 O20 1.959 . S
N1 Cu0 1.999 . S
N1 C3 1.263 1_554 S
N1 C5 1.389 . S
N2 C3 1.358 . S
N2 C4 1.400 1_556 S
C3 N1 1.263 1_556 S
C3 N2 1.358 . S
C3 H9 0.930 . S
C4 N2 1.400 1_554 S
C4 C5 1.351 . S
C4 H21 0.930 . S
C5 N1 1.389 . S
C5 C4 1.351 . S
C5 H10 0.930 . S
O6 Cu0 1.974 . S
O6 C16 1.282 1_554 S
C7 O8 1.261 1_554 S
C7 O20 1.251 . S
O8 C7 1.261 1_556 S
H9 C3 0.930 . S
H10 C5 0.930 . S
N11 Cu0 1.985 . S
N11 C13 1.335 . S
N11 C14 1.390 . S
N12 C13 1.345 . S
N12 C15 1.336 . S
C13 N11 1.335 . S
C13 N12 1.345 . S
C13 H18 0.930 . S
C14 N11 1.390 . S
C14 C15 1.346 . S
C14 H19 0.930 1_554 S
C15 N12 1.336 . S
C15 C14 1.346 . S
C15 H22 0.929 1_544 S
C16 O6 1.282 1_556 S
C16 O17 1.216 . S
O17 C16 1.216 . S
H18 C13 0.930 . S
H19 C14 0.930 1_556 S
O20 Cu0 1.959 . S
O20 C7 1.251 . S
H21 C4 0.930 . S
H22 C15 0.929 1_566 S
Cu23 N24 1.999 . S
Cu23 O29 1.974 . S
Cu23 N34 1.985 . S
Cu23 O43 1.959 . S
N24 Cu23 1.999 . S
N24 C26 1.263 . S
N24 C28 1.389 . S
N25 C26 1.358 . S
N25 C27 1.400 . S
C26 N24 1.263 . S
C26 N25 1.358 . S
C26 H32 0.930 . S
C27 N25 1.400 . S
C27 C28 1.351 . S
C27 H44 0.930 . S
C28 N24 1.389 . S
C28 C27 1.351 . S
C28 H33 0.930 . S
O29 Cu23 1.974 . S
O29 C39 1.282 . S
C30 O31 1.261 . S
C30 O43 1.251 . S
O31 C30 1.261 . S
H32 C26 0.930 . S
H33 C28 0.930 . S
N34 Cu23 1.985 . S
N34 C36 1.335 . S
N34 C37 1.390 . S
N35 C36 1.345 . S
N35 C38 1.336 . S
C36 N34 1.335 . S
C36 N35 1.345 . S
C36 H41 0.930 . S
C37 N34 1.390 . S
C37 C38 1.346 . S
C37 H42 0.930 . S
C38 N35 1.336 . S
C38 C37 1.346 . S
C38 H45 0.929 . S
C39 O29 1.282 . S
C39 O40 1.216 . S
O40 C39 1.216 . S
H41 C36 0.930 . S
H42 C37 0.930 . S
O43 Cu23 1.959 . S
O43 C30 1.251 . S
H44 C27 0.930 . S
H45 C38 0.929 . S
Cu46 N47 1.999 . S
Cu46 O52 1.974 . S
Cu46 N57 1.985 . S
Cu46 O66 1.959 . S
N47 Cu46 1.999 . S
N47 C49 1.263 . S
N47 C51 1.389 . S
N48 C49 1.358 . S
N48 C50 1.400 . S
C49 N47 1.263 . S
C49 N48 1.358 . S
C49 H55 0.930 . S
C50 N48 1.400 . S
C50 C51 1.351 . S
C50 H67 0.930 . S
C51 N47 1.389 . S
C51 C50 1.351 . S
C51 H56 0.930 . S
O52 Cu46 1.974 . S
O52 C62 1.282 . S
C53 O54 1.261 . S
C53 O66 1.251 . S
O54 C53 1.261 . S
H55 C49 0.930 . S
H56 C51 0.930 . S
N57 Cu46 1.985 . S
N57 C59 1.335 . S
N57 C60 1.390 . S
N58 C59 1.345 . S
N58 C61 1.336 . S
C59 N57 1.335 . S
C59 N58 1.345 . S
C59 H64 0.930 . S
C60 N57 1.390 . S
C60 C61 1.346 . S
C60 H65 0.930 . S
C61 N58 1.336 . S
C61 C60 1.346 . S
C61 H68 0.929 1_565 S
C62 O52 1.282 . S
C62 O63 1.216 . S
O63 C62 1.216 . S
H64 C59 0.930 . S
H65 C60 0.930 . S
O66 Cu46 1.959 . S
O66 C53 1.251 . S
H67 C50 0.930 . S
H68 C61 0.929 1_545 S
Cu69 N70 1.999 . S
Cu69 O75 1.974 . S
Cu69 N80 1.985 . S
Cu69 O89 1.959 . S
N70 Cu69 1.999 . S
N70 C72 1.263 . S
N70 C74 1.389 . S
N71 C72 1.358 1_455 S
N71 C73 1.400 . S
C72 N70 1.263 . S
C72 N71 1.358 1_655 S
C72 H78 0.930 . S
C73 N71 1.400 . S
C73 C74 1.351 1_455 S
C73 H90 0.930 . S
C74 N70 1.389 . S
C74 C73 1.351 1_655 S
C74 H79 0.930 1_655 S
O75 Cu69 1.974 . S
O75 C85 1.282 . S
C76 O77 1.261 . S
C76 O89 1.251 . S
O77 C76 1.261 . S
H78 C72 0.930 . S
H79 C74 0.930 1_455 S
N80 Cu69 1.985 . S
N80 C82 1.335 . S
N80 C83 1.390 . S
N81 C82 1.345 . S
N81 C84 1.336 . S
C82 N80 1.335 . S
C82 N81 1.345 . S
C82 H87 0.930 . S
C83 N80 1.390 . S
C83 C84 1.346 . S
C83 H88 0.930 . S
C84 N81 1.336 . S
C84 C83 1.346 . S
C84 H91 0.929 . S
C85 O75 1.282 . S
C85 O86 1.216 . S
O86 C85 1.216 . S
H87 C82 0.930 . S
H88 C83 0.930 . S
O89 Cu69 1.959 . S
O89 C76 1.251 . S
H90 C73 0.930 . S
H91 C84 0.929 . S
Cu92 N93 1.999 . S
Cu92 O98 1.974 . S
Cu92 N103 1.985 . S
Cu92 O112 1.959 . S
N93 Cu92 1.999 . S
N93 C95 1.263 1_556 S
N93 C97 1.389 . S
N94 C95 1.356 1_556 S
N94 C96 1.410 . S
C95 N93 1.263 1_554 S
C95 N94 1.356 1_554 S
C95 H101 0.930 . S
C96 N94 1.410 . S
C96 C97 1.351 . S
C96 H113 0.930 . S
C97 N93 1.389 . S
C97 C96 1.351 . S
C97 H102 0.930 . S
O98 Cu92 1.974 . S
O98 C108 1.282 1_556 S
C99 O100 1.261 1_556 S
C99 O112 1.251 . S
O100 C99 1.261 1_554 S
H101 C95 0.930 . S
H102 C97 0.930 . S
N103 Cu92 1.985 . S
N103 C105 1.335 . S
N103 C106 1.390 1_556 S
N104 C105 1.345 . S
N104 C107 1.336 . S
C105 N103 1.335 . S
C105 N104 1.345 . S
C105 H110 0.930 . S
C106 N103 1.390 1_554 S
C106 C107 1.346 1_554 S
C106 H111 0.930 . S
C107 N104 1.336 . S
C107 C106 1.346 1_556 S
C107 H114 0.929 1_556 S
C108 O98 1.282 1_554 S
C108 O109 1.216 . S
O109 C108 1.216 . S
H110 C105 0.930 . S
H111 C106 0.930 . S
O112 Cu92 1.959 . S
O112 C99 1.251 . S
H113 C96 0.930 . S
H114 C107 0.929 1_554 S
Cu115 N116 1.999 . S
Cu115 O121 1.974 . S
Cu115 N126 1.985 . S
Cu115 O135 1.959 . S
N116 Cu115 1.999 . S
N116 C118 1.263 . S
N116 C120 1.389 . S
N117 C118 1.358 . S
N117 C119 1.400 . S
C118 N116 1.263 . S
C118 N117 1.358 . S
C118 H124 0.930 . S
C119 N117 1.400 . S
C119 C120 1.351 . S
C119 H136 0.930 . S
C120 N116 1.389 . S
C120 C119 1.351 . S
C120 H125 0.930 . S
O121 Cu115 1.974 . S
O121 C131 1.282 . S
C122 O123 1.261 . S
C122 O135 1.251 . S
O123 C122 1.261 . S
H124 C118 0.930 . S
H125 C120 0.930 . S
N126 Cu115 1.985 . S
N126 C128 1.335 . S
N126 C129 1.390 . S
N127 C128 1.345 . S
N127 C130 1.336 . S
C128 N126 1.335 . S
C128 N127 1.345 . S
C128 H133 0.930 . S
C129 N126 1.390 . S
C129 C130 1.346 . S
C129 H134 0.930 . S
C130 N127 1.336 . S
C130 C129 1.346 . S
C130 H137 0.929 . S
C131 O121 1.282 . S
C131 O132 1.216 . S
O132 C131 1.216 . S
H133 C128 0.930 . S
H134 C129 0.930 . S
O135 Cu115 1.959 . S
O135 C122 1.251 . S
H136 C119 0.930 . S
H137 C130 0.929 . S
Cu138 N139 1.999 . S
Cu138 O144 1.974 . S
Cu138 N149 1.985 . S
Cu138 O158 1.959 . S
N139 Cu138 1.999 . S
N139 C141 1.263 . S
N139 C143 1.389 . S
N140 C141 1.358 . S
N140 C142 1.400 . S
C141 N139 1.263 . S
C141 N140 1.358 . S
C141 H147 0.930 . S
C142 N140 1.400 . S
C142 C143 1.351 . S
C142 H159 0.930 . S
C143 N139 1.389 . S
C143 C142 1.351 . S
C143 H148 0.930 . S
O144 Cu138 1.974 . S
O144 C154 1.282 . S
C145 O146 1.261 . S
C145 O158 1.251 . S
O146 C145 1.261 . S
H147 C141 0.930 . S
H148 C143 0.930 . S
N149 Cu138 1.985 . S
N149 C151 1.335 . S
N149 C152 1.390 . S
N150 C151 1.345 . S
N150 C153 1.336 . S
C151 N149 1.335 . S
C151 N150 1.345 . S
C151 H156 0.930 . S
C152 N149 1.390 . S
C152 C153 1.346 . S
C152 H157 0.930 . S
C153 N150 1.336 . S
C153 C152 1.346 . S
C153 H160 0.929 . S
C154 O144 1.282 . S
C154 O155 1.216 . S
O155 C154 1.216 . S
H156 C151 0.930 . S
H157 C152 0.930 . S
O158 Cu138 1.959 . S
O158 C145 1.251 . S
H159 C142 0.930 . S
H160 C153 0.929 . S
Cu161 N162 1.999 . S
Cu161 O167 1.974 . S
Cu161 N172 1.985 . S
Cu161 O181 1.959 . S
N162 Cu161 1.999 . S
N162 C164 1.263 . S
N162 C166 1.389 . S
N163 C164 1.358 . S
N163 C165 1.400 1_455 S
C164 N162 1.263 . S
C164 N163 1.358 . S
C164 H170 0.930 . S
C165 N163 1.400 1_655 S
C165 C166 1.351 1_655 S
C165 H182 0.930 . S
C166 N162 1.389 . S
C166 C165 1.351 1_455 S
C166 H171 0.930 1_455 S
O167 Cu161 1.974 . S
O167 C177 1.282 . S
C168 O169 1.261 . S
C168 O181 1.251 . S
O169 C168 1.261 . S
H170 C164 0.930 . S
H171 C166 0.930 1_655 S
N172 Cu161 1.985 . S
N172 C174 1.335 . S
N172 C175 1.390 . S
N173 C174 1.345 . S
N173 C176 1.336 . S
C174 N172 1.335 . S
C174 N173 1.345 . S
C174 H179 0.930 . S
C175 N172 1.390 . S
C175 C176 1.346 . S
C175 H180 0.930 . S
C176 N173 1.336 . S
C176 C175 1.346 . S
C176 H183 0.929 . S
C177 O167 1.282 . S
C177 O178 1.216 . S
O178 C177 1.216 . S
H179 C174 0.930 . S
H180 C175 0.930 . S
O181 Cu161 1.959 . S
O181 C168 1.251 . S
H182 C165 0.930 . S
H183 C176 0.929 . S
Cu184 N185 1.999 . S
Cu184 O190 1.974 . S
Cu184 N195 1.985 . S
Cu184 O204 1.959 . S
N185 Cu184 1.999 . S
N185 C187 1.263 . S
N185 C189 1.389 . S
N186 C187 1.358 . S
N186 C188 1.400 . S
C187 N185 1.263 . S
C187 N186 1.358 . S
C187 H193 0.930 . S
C188 N186 1.400 . S
C188 C189 1.351 . S
C188 H205 0.930 . S
C189 N185 1.389 . S
C189 C188 1.351 . S
C189 H194 0.930 . S
O190 Cu184 1.974 . S
O190 C200 1.282 . S
C191 O192 1.261 . S
C191 O204 1.251 . S
O192 C191 1.261 . S
H193 C187 0.930 . S
H194 C189 0.930 . S
N195 Cu184 1.985 . S
N195 C197 1.335 . S
N195 C198 1.390 . S
N196 C197 1.345 . S
N196 C199 1.336 . S
C197 N195 1.335 . S
C197 N196 1.345 . S
C197 H202 0.930 . S
C198 N195 1.390 . S
C198 C199 1.346 . S
C198 H203 0.930 . S
C199 N196 1.336 . S
C199 C198 1.346 . S
C199 H206 0.929 . S
C200 O190 1.282 . S
C200 O201 1.216 . S
O201 C200 1.216 . S
H202 C197 0.930 . S
H203 C198 0.930 . S
O204 Cu184 1.959 . S
O204 C191 1.251 . S
H205 C188 0.930 . S
H206 C199 0.929 . S
Cu207 N208 1.999 . S
Cu207 O213 1.974 . S
Cu207 N218 1.985 . S
Cu207 O227 1.959 . S
N208 Cu207 1.999 . S
N208 C210 1.263 1_545 S
N208 C212 1.389 . S
N209 C210 1.358 1_655 S
N209 C211 1.400 1_565 S
C210 N208 1.263 1_565 S
C210 N209 1.358 1_455 S
C210 H216 0.930 . S
C211 N209 1.400 1_545 S
C211 C212 1.351 1_655 S
C211 H228 0.930 . S
C212 N208 1.389 . S
C212 C211 1.351 1_455 S
C212 H217 0.930 1_455 S
O213 Cu207 1.974 . S
O213 C223 1.282 1_545 S
C214 O215 1.261 . S
C214 O227 1.251 . S
O215 C214 1.261 . S
H216 C210 0.930 . S
H217 C212 0.930 1_655 S
N218 Cu207 1.985 . S
N218 C220 1.335 . S
N218 C221 1.390 . S
N219 C220 1.345 . S
N219 C222 1.336 . S
C220 N218 1.335 . S
C220 N219 1.345 . S
C220 H225 0.930 . S
C221 N218 1.390 . S
C221 C222 1.346 . S
C221 H226 0.930 . S
C222 N219 1.336 . S
C222 C221 1.346 . S
C222 H229 0.929 . S
C223 O213 1.282 1_565 S
C223 O224 1.216 1_565 S
O224 C223 1.216 1_545 S
H225 C220 0.930 . S
H226 C221 0.930 . S
O227 Cu207 1.959 . S
O227 C214 1.251 . S
H228 C211 0.930 . S
H229 C222 0.929 . S
Cu230 N231 1.999 . S
Cu230 O236 1.974 . S
Cu230 N241 1.985 . S
Cu230 O250 1.959 . S
N231 Cu230 1.999 . S
N231 C233 1.263 1_554 S
N231 C235 1.389 . S
N232 C233 1.358 . S
N232 C234 1.400 1_556 S
C233 N231 1.263 1_556 S
C233 N232 1.358 . S
C233 H239 0.930 . S
C234 N232 1.400 1_554 S
C234 C235 1.351 . S
C234 H251 0.930 . S
C235 N231 1.389 . S
C235 C234 1.351 . S
C235 H240 0.930 . S
O236 Cu230 1.974 . S
O236 C246 1.282 1_554 S
C237 O238 1.261 1_554 S
C237 O250 1.251 . S
O238 C237 1.261 1_556 S
H239 C233 0.930 . S
H240 C235 0.930 . S
N241 Cu230 1.985 . S
N241 C243 1.335 . S
N241 C244 1.390 . S
N242 C243 1.345 . S
N242 C245 1.336 . S
C243 N241 1.335 . S
C243 N242 1.345 . S
C243 H248 0.930 . S
C244 N241 1.390 . S
C244 C245 1.346 . S
C244 H249 0.930 1_554 S
C245 N242 1.336 . S
C245 C244 1.346 . S
C245 H252 0.929 1_554 S
C246 O236 1.282 1_556 S
C246 O247 1.216 . S
O247 C246 1.216 . S
H248 C243 0.930 . S
H249 C244 0.930 1_556 S
O250 Cu230 1.959 . S
O250 C237 1.251 . S
H251 C234 0.930 . S
H252 C245 0.929 1_556 S
Cu253 N254 1.999 . S
Cu253 O259 1.974 . S
Cu253 N264 1.985 . S
Cu253 O273 1.959 . S
N254 Cu253 1.999 . S
N254 C256 1.263 1_565 S
N254 C258 1.389 . S
N255 C256 1.358 . S
N255 C257 1.400 1_545 S
C256 N254 1.263 1_545 S
C256 N255 1.358 . S
C256 H262 0.930 . S
C257 N255 1.400 1_565 S
C257 C258 1.351 . S
C257 H274 0.930 . S
C258 N254 1.389 . S
C258 C257 1.351 . S
C258 H263 0.930 . S
O259 Cu253 1.974 . S
O259 C269 1.282 1_565 S
C260 O261 1.261 . S
C260 O273 1.251 . S
O261 C260 1.261 . S
H262 C256 0.930 . S
H263 C258 0.930 . S
N264 Cu253 1.985 . S
N264 C266 1.335 . S
N264 C267 1.390 . S
N265 C266 1.345 . S
N265 C268 1.336 . S
C266 N264 1.335 . S
C266 N265 1.345 . S
C266 H271 0.930 . S
C267 N264 1.390 . S
C267 C268 1.346 . S
C267 H272 0.930 . S
C268 N265 1.336 . S
C268 C267 1.346 . S
C268 H275 0.929 . S
C269 O259 1.282 1_545 S
C269 O270 1.216 1_545 S
O270 C269 1.216 1_565 S
H271 C266 0.930 . S
H272 C267 0.930 . S
O273 Cu253 1.959 . S
O273 C260 1.251 . S
H274 C257 0.930 . S
H275 C268 0.929 . S
Cu276 N277 1.999 . S
Cu276 O282 1.974 . S
Cu276 N287 1.985 . S
Cu276 O296 1.959 . S
N277 Cu276 1.999 . S
N277 C279 1.263 . S
N277 C281 1.389 . S
N278 C279 1.358 . S
N278 C280 1.400 . S
C279 N277 1.263 . S
C279 N278 1.358 . S
C279 H285 0.930 . S
C280 N278 1.400 . S
C280 C281 1.351 . S
C280 H297 0.930 . S
C281 N277 1.389 . S
C281 C280 1.351 . S
C281 H286 0.930 . S
O282 Cu276 1.974 . S
O282 C292 1.282 . S
C283 O284 1.261 . S
C283 O296 1.251 . S
O284 C283 1.261 . S
H285 C279 0.930 . S
H286 C281 0.930 . S
N287 Cu276 1.985 . S
N287 C289 1.335 . S
N287 C290 1.390 . S
N288 C289 1.345 . S
N288 C291 1.336 . S
C289 N287 1.335 . S
C289 N288 1.345 . S
C289 H294 0.930 . S
C290 N287 1.390 . S
C290 C291 1.346 . S
C290 H295 0.930 . S
C291 N288 1.336 . S
C291 C290 1.346 . S
C291 H298 0.929 . S
C292 O282 1.282 . S
C292 O293 1.216 . S
O293 C292 1.216 . S
H294 C289 0.930 . S
H295 C290 0.930 . S
O296 Cu276 1.959 . S
O296 C283 1.251 . S
H297 C280 0.930 . S
H298 C291 0.929 . S
Cu299 N300 1.999 . S
Cu299 O305 1.974 . S
Cu299 N310 1.985 1_565 S
Cu299 O319 1.953 1_565 S
N300 Cu299 1.999 . S
N300 C302 1.263 . S
N300 C304 1.389 . S
N301 C302 1.358 . S
N301 C303 1.400 1_655 S
C302 N300 1.263 . S
C302 N301 1.358 . S
C302 H308 0.930 . S
C303 N301 1.400 1_455 S
C303 C304 1.351 1_455 S
C303 H320 0.930 . S
C304 N300 1.389 . S
C304 C303 1.351 1_655 S
C304 H309 0.930 1_655 S
O305 Cu299 1.974 . S
O305 C315 1.282 . S
C306 O307 1.261 . S
C306 O319 1.256 . S
O307 C306 1.261 . S
H308 C302 0.930 . S
H309 C304 0.930 1_455 S
N310 Cu299 1.985 1_545 S
N310 C312 1.335 . S
N310 C313 1.390 . S
N311 C312 1.345 . S
N311 C314 1.336 . S
C312 N310 1.335 . S
C312 N311 1.345 . S
C312 H317 0.930 . S
C313 N310 1.390 . S
C313 C314 1.346 . S
C313 H318 0.930 . S
C314 N311 1.336 . S
C314 C313 1.346 . S
C314 H321 0.929 . S
C315 O305 1.282 . S
C315 O316 1.216 . S
O316 C315 1.216 . S
H317 C312 0.930 . S
H318 C313 0.930 . S
O319 Cu299 1.953 1_545 S
O319 C306 1.256 . S
H320 C303 0.930 . S
H321 C314 0.929 . S
Cu322 N323 1.999 . S
Cu322 O328 1.974 . S
Cu322 N333 1.985 . S
Cu322 O342 1.959 . S
N323 Cu322 1.999 . S
N323 C325 1.263 1_556 S
N323 C327 1.389 . S
N324 C325 1.356 1_556 S
N324 C326 1.410 . S
C325 N323 1.263 1_554 S
C325 N324 1.356 1_554 S
C325 H331 0.930 . S
C326 N324 1.410 . S
C326 C327 1.351 . S
C326 H343 0.930 . S
C327 N323 1.389 . S
C327 C326 1.351 . S
C327 H332 0.930 . S
O328 Cu322 1.974 . S
O328 C338 1.282 1_556 S
C329 O330 1.261 1_556 S
C329 O342 1.251 . S
O330 C329 1.261 1_554 S
H331 C325 0.930 . S
H332 C327 0.930 . S
N333 Cu322 1.985 . S
N333 C335 1.335 . S
N333 C336 1.390 1_556 S
N334 C335 1.345 . S
N334 C337 1.336 . S
C335 N333 1.335 . S
C335 N334 1.345 . S
C335 H340 0.930 . S
C336 N333 1.390 1_554 S
C336 C337 1.346 1_554 S
C336 H341 0.930 . S
C337 N334 1.336 . S
C337 C336 1.346 1_556 S
C337 H344 0.929 1_556 S
C338 O328 1.282 1_554 S
C338 O339 1.216 . S
O339 C338 1.216 . S
H340 C335 0.930 . S
H341 C336 0.930 . S
O342 Cu322 1.959 . S
O342 C329 1.251 . S
H343 C326 0.930 . S
H344 C337 0.929 1_554 S
Cu345 N346 1.999 . S
Cu345 O351 1.974 . S
Cu345 N356 1.985 1_545 S
Cu345 O365 1.959 . S
N346 Cu345 1.999 . S
N346 C348 1.263 . S
N346 C350 1.389 . S
N347 C348 1.358 . S
N347 C349 1.400 . S
C348 N346 1.263 . S
C348 N347 1.358 . S
C348 H354 0.930 . S
C349 N347 1.400 . S
C349 C350 1.351 . S
C349 H366 0.930 . S
C350 N346 1.389 . S
C350 C349 1.351 . S
C350 H355 0.930 . S
O351 Cu345 1.974 . S
O351 C361 1.282 . S
C352 O353 1.261 . S
C352 O365 1.251 1_565 S
O353 C352 1.261 . S
H354 C348 0.930 . S
H355 C350 0.930 . S
N356 Cu345 1.985 1_565 S
N356 C358 1.335 . S
N356 C359 1.390 . S
N357 C358 1.345 . S
N357 C360 1.336 . S
C358 N356 1.335 . S
C358 N357 1.345 . S
C358 H363 0.930 . S
C359 N356 1.390 . S
C359 C360 1.346 . S
C359 H364 0.930 . S
C360 N357 1.336 . S
C360 C359 1.346 . S
C360 H367 0.929 . S
C361 O351 1.282 . S
C361 O362 1.216 . S
O362 C361 1.216 . S
H363 C358 0.930 . S
H364 C359 0.930 . S
O365 Cu345 1.959 . S
O365 C352 1.251 1_545 S
H366 C349 0.930 . S
H367 C360 0.929 . S
C368 C369 1.387 1_556 S
C368 H372 0.950 . S
C368 C377 1.390 . S
C369 C368 1.387 1_554 S
C369 C371 1.387 . S
H370 C377 0.950 . S
C371 C369 1.387 . S
C371 C373 1.390 1_565 S
C371 H375 0.950 . S
H372 C368 0.950 . S
C373 C371 1.390 1_545 S
C373 C374 1.387 1_554 S
C373 H376 0.950 . S
C374 C373 1.387 1_556 S
C374 C377 1.387 1_545 S
H375 C371 0.950 . S
H376 C373 0.950 . S
C377 C368 1.390 . S
C377 H370 0.950 . S
C377 C374 1.387 1_565 S
C378 C379 1.387 . S
C378 H382 0.950 . S
C378 C387 1.390 . S
C379 C378 1.387 . S
C379 C381 1.387 . S
H380 C387 0.950 . S
C381 C379 1.387 . S
C381 C383 1.390 . S
C381 H385 0.950 . S
H382 C378 0.950 . S
C383 C381 1.390 . S
C383 C384 1.387 . S
C383 H386 0.950 . S
C384 C383 1.387 . S
C384 C387 1.387 . S
H385 C381 0.950 . S
H386 C383 0.950 . S
C387 C378 1.390 . S
C387 H380 0.950 . S
C387 C384 1.387 . S
C388 C389 1.388 1_655 S
C388 H392 0.950 . S
C388 C397 1.390 1_565 S
C389 C388 1.388 1_455 S
C389 C391 1.385 1_565 S
H390 C397 0.950 . S
C391 C389 1.385 1_545 S
C391 C393 1.377 1_455 S
C391 H395 0.950 . S
H392 C388 0.950 . S
C393 C391 1.377 1_655 S
C393 C394 1.402 . S
C393 H396 0.949 . S
C394 C393 1.402 . S
C394 C397 1.387 . S
H395 C391 0.950 . S
H396 C393 0.949 . S
C397 C388 1.390 1_545 S
C397 H390 0.950 . S
C397 C394 1.387 . S
C398 C399 1.387 . S
C398 H402 0.950 . S
C398 C407 1.390 . S
C399 C398 1.387 . S
C399 C401 1.387 . S
H400 C407 0.950 . S
C401 C399 1.387 . S
C401 C403 1.390 . S
C401 H405 0.950 . S
H402 C398 0.950 . S
C403 C401 1.390 . S
C403 C404 1.387 . S
C403 H406 0.950 . S
C404 C403 1.387 . S
C404 C407 1.387 . S
H405 C401 0.950 . S
H406 C403 0.950 . S
C407 C398 1.390 . S
C407 H400 0.950 . S
C407 C404 1.387 . S
C408 C409 1.387 . S
C408 H412 0.950 . S
C408 C417 1.390 . S
C409 C408 1.387 . S
C409 C411 1.387 . S
H410 C417 0.950 . S
C411 C409 1.387 . S
C411 C413 1.390 . S
C411 H415 0.950 . S
H412 C408 0.950 . S
C413 C411 1.390 . S
C413 C414 1.387 . S
C413 H416 0.950 . S
C414 C413 1.387 . S
C414 C417 1.387 . S
H415 C411 0.950 . S
H416 C413 0.950 . S
C417 C408 1.390 . S
C417 H410 0.950 . S
C417 C414 1.387 . S
C418 C419 1.387 . S
C418 H422 0.950 . S
C418 C427 1.390 . S
C419 C418 1.387 . S
C419 C421 1.387 . S
H420 C427 0.950 . S
C421 C419 1.387 . S
C421 C423 1.390 . S
C421 H425 0.950 . S
H422 C418 0.950 . S
C423 C421 1.390 . S
C423 C424 1.387 . S
C423 H426 0.950 . S
C424 C423 1.387 . S
C424 C427 1.387 . S
H425 C421 0.950 . S
H426 C423 0.950 . S
C427 C418 1.390 . S
C427 H420 0.950 . S
C427 C424 1.387 . S
C428 C429 1.391 . S
C428 H432 0.950 . S
C428 C437 1.386 1_655 S
C429 C428 1.391 . S
C429 C431 1.387 . S
H430 C437 0.950 . S
C431 C429 1.387 . S
C431 C433 1.390 1_655 S
C431 H435 0.950 . S
H432 C428 0.950 . S
C433 C431 1.390 1_455 S
C433 C434 1.387 . S
C433 H436 0.950 . S
C434 C433 1.387 . S
C434 C437 1.387 . S
H435 C431 0.950 . S
H436 C433 0.950 . S
C437 C428 1.386 1_455 S
C437 H430 0.950 . S
C437 C434 1.387 . S
C438 C439 1.387 1_556 S
C438 H442 0.950 . S
C438 C447 1.390 . S
C439 C438 1.387 1_554 S
C439 C441 1.387 . S
H440 C447 0.950 . S
C441 C439 1.387 . S
C441 C443 1.390 . S
C441 H445 0.950 . S
H442 C438 0.950 . S
C443 C441 1.390 . S
C443 C444 1.387 1_554 S
C443 H446 0.950 . S
C444 C443 1.387 1_556 S
C444 C447 1.387 . S
H445 C441 0.950 . S
H446 C443 0.950 . S
C447 C438 1.390 . S
C447 H440 0.950 . S
C447 C444 1.387 . S
C448 C449 1.387 . S
C448 H452 0.950 . S
C448 C457 1.390 . S
C449 C448 1.387 . S
C449 C451 1.387 . S
H450 C457 0.950 1_556 S
C451 C449 1.387 . S
C451 C453 1.390 . S
C451 H455 0.950 . S
H452 C448 0.950 . S
C453 C451 1.390 . S
C453 C454 1.387 . S
C453 H456 0.950 . S
C454 C453 1.387 . S
C454 C457 1.387 . S
H455 C451 0.950 . S
H456 C453 0.950 . S
C457 C448 1.390 . S
C457 H450 0.950 1_554 S
C457 C454 1.387 . S
C458 C459 1.387 . S
C458 H462 0.950 . S
C458 C467 1.390 . S
C459 C458 1.387 . S
C459 C461 1.387 . S
H460 C467 0.950 . S
C461 C459 1.387 . S
C461 C463 1.390 . S
C461 H465 0.950 . S
H462 C458 0.950 . S
C463 C461 1.390 . S
C463 C464 1.387 . S
C463 H466 0.950 . S
C464 C463 1.387 . S
C464 C467 1.387 . S
H465 C461 0.950 . S
H466 C463 0.950 . S
C467 C458 1.390 . S
C467 H460 0.950 . S
C467 C464 1.387 . S
C468 C469 1.387 . S
C468 H472 0.950 . S
C468 C477 1.390 . S
C469 C468 1.387 . S
C469 C471 1.387 . S
H470 C477 0.950 . S
C471 C469 1.387 . S
C471 C473 1.390 . S
C471 H475 0.950 . S
H472 C468 0.950 . S
C473 C471 1.390 . S
C473 C474 1.387 . S
C473 H476 0.950 . S
C474 C473 1.387 . S
C474 C477 1.387 . S
H475 C471 0.950 . S
H476 C473 0.950 . S
C477 C468 1.390 . S
C477 H470 0.950 . S
C477 C474 1.387 . S
C478 C479 1.387 . S
C478 H482 0.950 . S
C478 C487 1.390 . S
C479 C478 1.387 . S
C479 C481 1.387 . S
H480 C487 0.950 . S
C481 C479 1.387 . S
C481 C483 1.390 . S
C481 H485 0.950 . S
H482 C478 0.950 . S
C483 C481 1.390 . S
C483 C484 1.387 . S
C483 H486 0.950 . S
C484 C483 1.387 . S
C484 C487 1.387 . S
H485 C481 0.950 . S
H486 C483 0.950 . S
C487 C478 1.390 . S
C487 H480 0.950 . S
C487 C484 1.387 . S
C488 C489 1.387 . S
C488 H492 0.950 . S
C488 C497 1.390 . S
C489 C488 1.387 . S
C489 C491 1.387 . S
H490 C497 0.950 1_554 S
C491 C489 1.387 . S
C491 C493 1.390 . S
C491 H495 0.950 . S
H492 C488 0.950 . S
C493 C491 1.390 . S
C493 C494 1.387 . S
C493 H496 0.950 . S
C494 C493 1.387 . S
C494 C497 1.387 . S
H495 C491 0.950 . S
H496 C493 0.950 . S
C497 C488 1.390 . S
C497 H490 0.950 1_556 S
C497 C494 1.387 . S
C498 C499 1.387 . S
C498 H502 0.950 . S
C498 C507 1.390 . S
C499 C498 1.387 . S
C499 C501 1.387 . S
H500 C507 0.950 . S
C501 C499 1.387 . S
C501 C503 1.390 . S
C501 H505 0.950 . S
H502 C498 0.950 . S
C503 C501 1.390 . S
C503 C504 1.387 . S
C503 H506 0.950 . S
C504 C503 1.387 . S
C504 C507 1.387 . S
H505 C501 0.950 . S
H506 C503 0.950 . S
C507 C498 1.390 . S
C507 H500 0.950 . S
C507 C504 1.387 . S
C508 C509 1.387 . S
C508 H512 0.950 . S
C508 C517 1.390 . S
C509 C508 1.387 . S
C509 C511 1.387 . S
H510 C517 0.950 . S
C511 C509 1.387 . S
C511 C513 1.390 . S
C511 H515 0.950 . S
H512 C508 0.950 . S
C513 C511 1.390 . S
C513 C514 1.387 . S
C513 H516 0.950 . S
C514 C513 1.387 . S
C514 C517 1.387 . S
H515 C511 0.950 . S
H516 C513 0.950 . S
C517 C508 1.390 . S
C517 H510 0.950 . S
C517 C514 1.387 . S
C518 C519 1.387 . S
C518 H522 0.950 . S
C518 C527 1.390 . S
C519 C518 1.387 . S
C519 C521 1.387 . S
H520 C527 0.950 . S
C521 C519 1.387 . S
C521 C523 1.390 . S
C521 H525 0.950 . S
H522 C518 0.950 . S
C523 C521 1.390 . S
C523 C524 1.387 . S
C523 H526 0.950 . S
C524 C523 1.387 . S
C524 C527 1.387 . S
H525 C521 0.950 . S
H526 C523 0.950 . S
C527 C518 1.390 . S
C527 H520 0.950 . S
C527 C524 1.387 . S
C528 C529 1.387 . S
C528 H532 0.950 . S
C528 C537 1.390 . S
C529 C528 1.387 . S
C529 C531 1.387 . S
H530 C537 0.950 . S
C531 C529 1.387 . S
C531 C533 1.390 . S
C531 H535 0.950 . S
H532 C528 0.950 . S
C533 C531 1.390 . S
C533 C534 1.387 . S
C533 H536 0.950 . S
C534 C533 1.387 . S
C534 C537 1.387 . S
H535 C531 0.950 . S
H536 C533 0.950 . S
C537 C528 1.390 . S
C537 H530 0.950 . S
C537 C534 1.387 . S
C538 C539 1.387 . S
C538 H542 0.950 . S
C538 C547 1.390 . S
C539 C538 1.387 . S
C539 C541 1.387 . S
H540 C547 0.950 . S
C541 C539 1.387 . S
C541 C543 1.390 . S
C541 H545 0.950 . S
H542 C538 0.950 . S
C543 C541 1.390 . S
C543 C544 1.387 . S
C543 H546 0.950 1_565 S
C544 C543 1.387 . S
C544 C547 1.387 . S
H545 C541 0.950 . S
H546 C543 0.950 1_545 S
C547 C538 1.390 . S
C547 H540 0.950 . S
C547 C544 1.387 . S
C548 C549 1.387 . S
C548 H552 0.950 . S
C548 C557 1.390 . S
C549 C548 1.387 . S
C549 C551 1.387 . S
H550 C557 0.950 . S
C551 C549 1.387 . S
C551 C553 1.390 . S
C551 H555 0.950 . S
H552 C548 0.950 . S
C553 C551 1.390 . S
C553 C554 1.387 . S
C553 H556 0.950 . S
C554 C553 1.387 . S
C554 C557 1.387 . S
H555 C551 0.950 . S
H556 C553 0.950 . S
C557 C548 1.390 . S
C557 H550 0.950 . S
C557 C554 1.387 . S
C558 C559 1.387 . S
C558 H562 0.950 1_545 S
C558 C567 1.390 . S
C559 C558 1.387 . S
C559 C561 1.387 . S
H560 C567 0.950 . S
C561 C559 1.387 . S
C561 C563 1.390 . S
C561 H565 0.950 . S
H562 C558 0.950 1_565 S
C563 C561 1.390 . S
C563 C564 1.387 . S
C563 H566 0.950 . S
C564 C563 1.387 . S
C564 C567 1.387 . S
H565 C561 0.950 . S
H566 C563 0.950 . S
C567 C558 1.390 . S
C567 H560 0.950 . S
C567 C564 1.387 . S
C568 C569 1.387 . S
C568 H572 0.950 . S
C568 C577 1.390 . S
C569 C568 1.387 . S
C569 C571 1.387 . S
H570 C577 0.950 . S
C571 C569 1.387 . S
C571 C573 1.390 . S
C571 H575 0.950 . S
H572 C568 0.950 . S
C573 C571 1.390 . S
C573 C574 1.387 . S
C573 H576 0.950 . S
C574 C573 1.387 . S
C574 C577 1.387 . S
H575 C571 0.950 . S
H576 C573 0.950 . S
C577 C568 1.390 . S
C577 H570 0.950 . S
C577 C574 1.387 . S
C578 C579 1.387 . S
C578 H582 0.950 . S
C578 C587 1.390 . S
C579 C578 1.387 . S
C579 C581 1.382 1_545 S
H580 C587 0.950 . S
C581 C579 1.382 1_565 S
C581 C583 1.389 1_565 S
C581 H585 0.956 . S
H582 C578 0.950 . S
C583 C581 1.389 1_545 S
C583 C584 1.387 . S
C583 H586 0.950 1_545 S
C584 C583 1.387 . S
C584 C587 1.387 . S
H585 C581 0.956 . S
H586 C583 0.950 1_565 S
C587 C578 1.390 . S
C587 H580 0.950 . S
C587 C584 1.387 . S
C588 C589 1.387 . S
C588 H592 0.950 1_556 S
C588 C597 1.390 . S
C589 C588 1.387 . S
C589 C591 1.387 . S
H590 C597 0.950 . S
C591 C589 1.387 . S
C591 C593 1.390 . S
C591 H595 0.950 . S
H592 C588 0.950 1_554 S
C593 C591 1.390 . S
C593 C594 1.387 . S
C593 H596 0.950 . S
C594 C593 1.387 . S
C594 C597 1.387 . S
H595 C591 0.950 . S
H596 C593 0.950 . S
C597 C588 1.390 . S
C597 H590 0.950 . S
C597 C594 1.387 . S
C598 C599 1.387 . S
C598 H602 0.950 1_565 S
C598 C607 1.390 1_565 S
C599 C598 1.387 . S
C599 C601 1.387 . S
H600 C607 0.950 . S
C601 C599 1.387 . S
C601 C603 1.390 . S
C601 H605 0.950 . S
H602 C598 0.950 1_545 S
C603 C601 1.390 . S
C603 C604 1.387 . S
C603 H606 0.950 . S
C604 C603 1.387 . S
C604 C607 1.387 1_565 S
H605 C601 0.950 . S
H606 C603 0.950 . S
C607 C598 1.390 1_545 S
C607 H600 0.950 . S
C607 C604 1.387 1_545 S
C608 C609 1.387 . S
C608 H612 0.950 . S
C608 C617 1.390 . S
C609 C608 1.387 . S
C609 C611 1.387 1_556 S
H610 C617 0.950 . S
C611 C609 1.387 1_554 S
C611 C613 1.390 . S
C611 H615 0.950 . S
H612 C608 0.950 . S
C613 C611 1.390 . S
C613 C614 1.387 1_554 S
C613 H616 0.950 . S
C614 C613 1.387 1_556 S
C614 C617 1.387 . S
H615 C611 0.950 . S
H616 C613 0.950 . S
C617 C608 1.390 . S
C617 H610 0.950 . S
C617 C614 1.387 . S
C618 C619 1.387 . S
C618 H622 0.950 . S
C618 C627 1.390 . S
C619 C618 1.387 . S
C619 C621 1.387 . S
H620 C627 0.950 . S
C621 C619 1.387 . S
C621 C623 1.390 . S
C621 H625 0.950 . S
H622 C618 0.950 . S
C623 C621 1.390 . S
C623 C624 1.387 . S
C623 H626 0.950 . S
C624 C623 1.387 . S
C624 C627 1.387 . S
H625 C621 0.950 . S
H626 C623 0.950 . S
C627 C618 1.390 . S
C627 H620 0.950 . S
C627 C624 1.387 . S
C628 C629 1.387 . S
C628 H632 0.950 . S
C628 C637 1.390 1_455 S
C629 C628 1.387 . S
C629 C631 1.387 . S
H630 C637 0.950 . S
C631 C629 1.387 . S
C631 C633 1.390 1_455 S
C631 H635 0.950 . S
H632 C628 0.950 . S
C633 C631 1.390 1_655 S
C633 C634 1.387 . S
C633 H636 0.950 . S
C634 C633 1.387 . S
C634 C637 1.387 . S
H635 C631 0.950 . S
H636 C633 0.950 . S
C637 C628 1.390 1_655 S
C637 H630 0.950 . S
C637 C634 1.387 . S
C638 C639 1.387 . S
C638 H642 0.950 . S
C638 C647 1.390 1_455 S
C639 C638 1.387 . S
C639 C641 1.387 . S
H640 C647 0.950 . S
C641 C639 1.387 . S
C641 C643 1.390 1_455 S
C641 H645 0.950 . S
H642 C638 0.950 . S
C643 C641 1.390 1_655 S
C643 C644 1.387 . S
C643 H646 0.950 . S
C644 C643 1.387 . S
C644 C647 1.387 . S
H645 C641 0.950 . S
H646 C643 0.950 . S
C647 C638 1.390 1_655 S
C647 H640 0.950 . S
C647 C644 1.387 . S
C648 C649 1.387 1_556 S
C648 H652 0.950 . S
C648 C657 1.390 . S
C649 C648 1.387 1_554 S
C649 C651 1.387 . S
H650 C657 0.950 . S
C651 C649 1.387 . S
C651 C653 1.390 . S
C651 H655 0.950 . S
H652 C648 0.950 . S
C653 C651 1.390 . S
C653 C654 1.387 . S
C653 H656 0.950 . S
C654 C653 1.387 . S
C654 C657 1.387 1_554 S
H655 C651 0.950 . S
H656 C653 0.950 . S
C657 C648 1.390 . S
C657 H650 0.950 . S
C657 C654 1.387 1_556 S
C658 C659 1.387 . S
C658 H662 0.950 . S
C658 C667 1.390 . S
C659 C658 1.387 . S
C659 C661 1.387 . S
H660 C667 0.950 . S
C661 C659 1.387 . S
C661 C663 1.390 . S
C661 H665 0.950 . S
H662 C658 0.950 . S
C663 C661 1.390 . S
C663 C664 1.387 . S
C663 H666 0.950 . S
C664 C663 1.387 . S
C664 C667 1.387 . S
H665 C661 0.950 . S
H666 C663 0.950 . S
C667 C658 1.390 . S
C667 H660 0.950 . S
C667 C664 1.387 . S
C668 C669 1.387 . S
C668 H672 0.950 . S
C668 C677 1.390 1_455 S
C669 C668 1.387 . S
C669 C671 1.387 . S
H670 C677 0.950 . S
C671 C669 1.387 . S
C671 C673 1.390 1_455 S
C671 H675 0.950 . S
H672 C668 0.950 . S
C673 C671 1.390 1_655 S
C673 C674 1.387 . S
C673 H676 0.950 . S
C674 C673 1.387 . S
C674 C677 1.387 . S
H675 C671 0.950 . S
H676 C673 0.950 . S
C677 C668 1.390 1_655 S
C677 H670 0.950 . S
C677 C674 1.387 . S
C678 C679 1.387 . S
C678 H682 0.950 . S
C678 C687 1.390 1_655 S
C679 C678 1.387 . S
C679 C681 1.387 . S
H680 C687 0.950 . S
C681 C679 1.387 . S
C681 C683 1.390 1_655 S
C681 H685 0.950 . S
H682 C678 0.950 . S
C683 C681 1.390 1_455 S
C683 C684 1.387 . S
C683 H686 0.950 . S
C684 C683 1.387 . S
C684 C687 1.387 . S
H685 C681 0.950 . S
H686 C683 0.950 . S
C687 C678 1.390 1_455 S
C687 H680 0.950 . S
C687 C684 1.387 . S
C369 C108 2.537 . S
C374 C16 2.533 . S
C379 C315 2.550 . S
C384 N35 2.481 . S
C389 C62 2.625 . S
C394 C154 2.629 . S
C399 C361 2.550 . S
C404 N81 2.482 . S
C409 N219 2.481 . S
C414 C131 2.548 . S
C419 N265 2.481 . S
C424 C177 2.551 . S
C429 C200 2.623 . S
C434 C292 2.628 . S
C439 C338 2.537 . S
C444 C246 2.533 . S
C449 N173 1.706 . S
C454 C7 1.655 . S
C459 N288 1.751 . S
C464 N25 1.740 . S
C469 C53 1.694 . S
C474 N127 1.757 . S
C479 N71 1.740 . S
C484 N334 1.755 . S
C489 C85 2.044 . S
C494 C99 2.024 . S
C499 C122 2.016 . S
C504 N196 2.116 . S
C509 C145 2.059 . S
C514 C39 2.087 . S
C519 C168 2.019 1_655 S
C524 N242 2.121 . S
C529 C191 1.694 . S
C534 N357 1.759 . S
C539 N104 1.756 . S
C544 N209 1.739 . S
C549 N311 1.706 . S
C554 C237 1.655 . S
C559 N255 1.741 . S
C564 N150 1.749 . S
C569 C269 2.085 . S
C574 C283 2.057 . S
C579 C306 2.018 1_455 S
C584 N12 2.120 . S
C589 C329 2.025 . S
C594 C223 2.044 . S
C599 N58 2.117 . S
C604 C352 2.017 . S
C609 N2 0.879 . S
C614 N232 0.879 . S
C619 C260 1.073 . S
C624 C30 1.073 . S
C629 N48 0.887 . S
C634 N186 0.887 . S
C639 C214 1.068 . S
C644 C76 1.068 . S
C649 N324 0.514 1_554 S
C654 N94 0.513 1_554 S
C659 N347 0.520 . S
C664 N117 0.520 . S
C669 N278 0.531 . S
C674 N140 0.530 . S
C679 N301 0.516 . S
C684 N163 0.516 . S
