# Generated by pormake.
# Topology uog, (4)-cn, num edge types: 1
# Building blocks:
#     Node 0, Type 0, BuildingBlock: QUQFOY_clean_sbu_1, # of connection points: 4
#     Node 1, Type 0, BuildingBlock: QUQFOY_clean_sbu_1, # of connection points: 4
#     Node 2, Type 0, BuildingBlock: QUQFOY_clean_sbu_1, # of connection points: 4
#     Node 3, Type 0, BuildingBlock: QUQFOY_clean_sbu_1, # of connection points: 4
#     Node 4, Type 0, BuildingBlock: QUQFOY_clean_sbu_1, # of connection points: 4
#     Node 5, Type 0, BuildingBlock: QUQFOY_clean_sbu_1, # of connection points: 4
#     Edge 6, Type (0, 0), BuildingBlock: FUNLAD_clean_linker_1, # of connection points: 2
#     Edge 7, Type (0, 0), BuildingBlock: FUNLAD_clean_linker_1, # of connection points: 2
#     Edge 8, Type (0, 0), BuildingBlock: FUNLAD_clean_linker_1, # of connection points: 2
#     Edge 9, Type (0, 0), BuildingBlock: FUNLAD_clean_linker_1, # of connection points: 2
#     Edge 10, Type (0, 0), BuildingBlock: FUNLAD_clean_linker_1, # of connection points: 2
#     Edge 11, Type (0, 0), BuildingBlock: FUNLAD_clean_linker_1, # of connection points: 2
#     Edge 12, Type (0, 0), BuildingBlock: FUNLAD_clean_linker_1, # of connection points: 2
#     Edge 13, Type (0, 0), BuildingBlock: FUNLAD_clean_linker_1, # of connection points: 2
#     Edge 14, Type (0, 0), BuildingBlock: FUNLAD_clean_linker_1, # of connection points: 2
#     Edge 15, Type (0, 0), BuildingBlock: FUNLAD_clean_linker_1, # of connection points: 2
#     Edge 16, Type (0, 0), BuildingBlock: FUNLAD_clean_linker_1, # of connection points: 2
#     Edge 17, Type (0, 0), BuildingBlock: FUNLAD_clean_linker_1, # of connection points: 2
# Relax obj value: 0.092
# Max RMSD: 0.154
# Mean RMSD: 0.154
data_MOF--net-uog--node1-QUQFOY_clean_sbu_1--edge1-FUNLAD_clean_linker_1
_symmetry_space_group_name_H-M    P1
_symmetry_Int_Tables_number       1
_symmetry_cell_setting            triclinic
loop_
_symmetry_equiv_pos_as_xyz
'x, y, z'
_cell_length_a     30.261127
_cell_length_b     30.415136
_cell_length_c     45.906274
_cell_angle_alpha  90.117907
_cell_angle_beta   90.045824
_cell_angle_gamma 121.09577
loop_
_atom_site_label
_atom_site_type_symbol
_atom_site_fract_x
_atom_site_fract_y
_atom_site_fract_z
_atom_type_partial_charge
O0 O 0.61084 0.39492 0.17425 0.0
Cd1 Cd 0.65974 0.36717 0.17403 0.0
Cd2 Cd 0.57459 0.28351 0.15503 0.0
O3 O 0.53795 0.31999 0.17216 0.0
O4 O 0.71497 0.40886 0.2034 0.0
O5 O 0.655 0.32694 0.20934 0.0
C6 C 0.69305 0.36879 0.21986 0.0
C7 C 0.56147 0.20344 0.16818 0.0
C8 C 0.56191 0.36851 0.17571 0.0
C9 C 0.65981 0.34221 0.11216 0.0
O10 O 0.61168 0.31154 0.11591 0.0
O11 O 0.68938 0.36468 0.13381 0.0
O12 O 0.52863 0.20659 0.15163 0.0
O13 O 0.59976 0.24536 0.17839 0.0
O14 O 0.22722 0.60285 0.52162 0.0
Cd15 Cd 0.30446 0.65465 0.51848 0.0
Cd16 Cd 0.30479 0.57114 0.49874 0.0
O17 O 0.22903 0.53201 0.51418 0.0
O18 O 0.32053 0.70884 0.54854 0.0
O19 O 0.34722 0.65346 0.5512 0.0
C20 C 0.34294 0.68951 0.56314 0.0
C21 C 0.36933 0.55412 0.51135 0.0
C22 C 0.20427 0.5542 0.52055 0.0
C23 C 0.32773 0.6559 0.45584 0.0
O24 O 0.31675 0.60999 0.46004 0.0
O25 O 0.32932 0.68373 0.47703 0.0
O26 O 0.33275 0.5242 0.49365 0.0
O27 O 0.36757 0.59175 0.52299 0.0
O28 O 0.62725 0.24055 0.84453 0.0
Cd29 Cd 0.67045 0.31902 0.84208 0.0
Cd30 Cd 0.7407 0.29535 0.82248 0.0
O31 O 0.68943 0.22302 0.84029 0.0
O32 O 0.63694 0.34433 0.86996 0.0
O33 O 0.71325 0.35298 0.87738 0.0
C34 C 0.67588 0.35761 0.88695 0.0
C35 C 0.82421 0.35868 0.83679 0.0
C36 C 0.64229 0.20858 0.84521 0.0
C37 C 0.69639 0.33561 0.77918 0.0
O38 O 0.71764 0.30935 0.78335 0.0
O39 O 0.6803 0.35025 0.8006 0.0
O40 O 0.81724 0.32007 0.82121 0.0
O41 O 0.78404 0.35902 0.84558 0.0
O42 O 0.41836 0.63141 0.1824 0.0
Cd43 Cd 0.37832 0.66869 0.18453 0.0
Cd44 Cd 0.46543 0.7454 0.16194 0.0
O45 O 0.49505 0.70244 0.17954 0.0
O46 O 0.32839 0.64182 0.21827 0.0
O47 O 0.4021 0.71657 0.21831 0.0
C48 C 0.36174 0.68286 0.23208 0.0
C49 C 0.48733 0.82962 0.17269 0.0
C50 C 0.46733 0.65394 0.18311 0.0
C51 C 0.37518 0.69155 0.12225 0.0
O52 O 0.42413 0.71651 0.1242 0.0
O53 O 0.34749 0.67486 0.14511 0.0
O54 O 0.51732 0.82124 0.1566 0.0
O55 O 0.44713 0.79069 0.1837 0.0
O56 O 0.79316 0.40833 0.50868 0.0
Cd57 Cd 0.71424 0.36488 0.5077 0.0
Cd58 Cd 0.72615 0.45459 0.49155 0.0
O59 O 0.79932 0.48392 0.50954 0.0
O60 O 0.69361 0.30743 0.5361 0.0
O61 O 0.68119 0.37232 0.54329 0.0
C62 C 0.6796 0.33188 0.55314 0.0
C63 C 0.6637 0.47354 0.50574 0.0
C64 C 0.82003 0.45675 0.51197 0.0
C65 C 0.69182 0.37239 0.44618 0.0
O66 O 0.71455 0.42034 0.45134 0.0
O67 O 0.68052 0.3406 0.46692 0.0
O68 O 0.70254 0.50563 0.49007 0.0
O69 O 0.66196 0.43245 0.5144 0.0
O70 O 0.40081 0.78454 0.85339 0.0
Cd71 Cd 0.35808 0.70595 0.85136 0.0
Cd72 Cd 0.28933 0.72822 0.82815 0.0
O73 O 0.33907 0.80162 0.8453 0.0
O74 O 0.39052 0.68202 0.88082 0.0
O75 O 0.31375 0.67309 0.88639 0.0
C76 C 0.35094 0.66923 0.89709 0.0
C77 C 0.20523 0.66488 0.84107 0.0
C78 C 0.38573 0.81644 0.85199 0.0
C79 C 0.33716 0.68743 0.78775 0.0
O80 O 0.31496 0.7131 0.79037 0.0
O81 O 0.35204 0.67388 0.8102 0.0
O82 O 0.21291 0.7027 0.82462 0.0
O83 O 0.24498 0.66546 0.85155 0.0
H84 H 0.59073 0.15566 0.1853 0.0
C85 C 0.55873 0.15423 0.17363 0.0
H86 H 0.48989 0.10779 0.15029 0.0
H87 H 0.53271 0.93672 0.10976 0.0
H88 H 0.52953 0.97467 0.06415 0.0
H89 H 0.52581 0.05375 0.06339 0.0
H90 H 0.52433 0.09483 0.10826 0.0
C91 C 0.52104 0.10915 0.16284 0.0
C92 C 0.52482 0.06201 0.16382 0.0
C93 C 0.5271 0.03911 0.13732 0.0
C94 C 0.53087 0.99432 0.13774 0.0
C95 C 0.53107 0.97136 0.11087 0.0
C96 C 0.52913 0.99268 0.08443 0.0
C97 C 0.52693 0.03713 0.08401 0.0
C98 C 0.52593 0.06023 0.11002 0.0
H99 H 0.46513 0.88367 0.18853 0.0
C100 C 0.49503 0.88128 0.1768 0.0
H101 H 0.56312 0.92172 0.15211 0.0
H102 H 0.51447 0.09139 0.21871 0.0
H103 H 0.52371 0.05706 0.26437 0.0
H104 H 0.54096 0.98617 0.26499 0.0
H105 H 0.54754 0.94823 0.21991 0.0
C106 C 0.53402 0.92398 0.16477 0.0
C107 C 0.53371 0.97305 0.16468 0.0
C108 C 0.53344 0.99712 0.19118 0.0
C109 C 0.52703 0.04036 0.19078 0.0
C110 C 0.52227 0.06052 0.21765 0.0
C111 C 0.52704 0.04086 0.24406 0.0
C112 C 0.53649 1.00079 0.24441 0.0
C113 C 0.53972 0.97905 0.21837 0.0
H114 H 0.4466 0.5792 0.52888 0.0
C115 C 0.41471 0.54908 0.51641 0.0
H116 H 0.38872 0.48262 0.4908 0.0
H117 H 0.60338 0.52513 0.44782 0.0
H118 H 0.56272 0.52793 0.40305 0.0
H119 H 0.48026 0.52599 0.40387 0.0
H120 H 0.4376 0.52041 0.44944 0.0
C121 C 0.41983 0.51183 0.5041 0.0
C122 C 0.47039 0.5141 0.50419 0.0
C123 C 0.49562 0.5187 0.47732 0.0
C124 C 0.544 0.52138 0.47689 0.0
C125 C 0.56725 0.52414 0.44961 0.0
C126 C 0.54426 0.52565 0.42365 0.0
C127 C 0.4978 0.52444 0.42411 0.0
C128 C 0.47362 0.52105 0.45051 0.0
H129 H 0.58633 0.44893 0.52258 0.0
C130 C 0.61969 0.48033 0.51181 0.0
H131 H 0.64984 0.55159 0.49072 0.0
H132 H 0.43008 0.49885 0.55927 0.0
H133 H 0.4732 0.50141 0.60431 0.0
H134 H 0.56124 0.5158 0.60386 0.0
H135 H 0.60608 0.52631 0.55827 0.0
C136 C 0.61735 0.52086 0.50239 0.0
C137 C 0.56786 0.52067 0.50338 0.0
C138 C 0.54339 0.51767 0.53031 0.0
C139 C 0.49389 0.51263 0.53067 0.0
C140 C 0.46874 0.50555 0.55776 0.0
C141 C 0.49289 0.5065 0.5838 0.0
C142 C 0.54235 0.51435 0.58353 0.0
C143 C 0.56749 0.51992 0.55719 0.0
H144 H 0.87712 0.43619 0.85394 0.0
C145 C 0.87588 0.40421 0.84251 0.0
H146 H 0.91889 0.37904 0.81947 0.0
H147 H 0.09899 0.59469 0.7786 0.0
H148 H 0.06066 0.55152 0.73308 0.0
H149 H 0.97959 0.46745 0.73241 0.0
H150 H 0.93685 0.42565 0.77727 0.0
C151 C 0.92001 0.41002 0.83192 0.0
C152 C 0.96945 0.46118 0.83282 0.0
C153 C 0.99352 0.48591 0.80629 0.0
C154 C 0.03951 0.53531 0.80664 0.0
C155 C 0.06341 0.55794 0.77976 0.0
C156 C 0.04191 0.53348 0.75338 0.0
C157 C 0.99634 0.48611 0.753 0.0
C158 C 0.97227 0.46245 0.77902 0.0
H159 H 0.15154 0.58779 0.8583 0.0
C160 C 0.15339 0.61913 0.84591 0.0
H161 H 0.11197 0.64267 0.81999 0.0
H162 H 0.93888 0.42225 0.88777 0.0
H163 H 0.97388 0.46766 0.93332 0.0
H164 H 0.04684 0.55724 0.93371 0.0
H165 H 0.08622 0.60137 0.8886 0.0
C166 C 0.11007 0.61233 0.83339 0.0
C167 C 0.06092 0.56091 0.8335 0.0
C168 C 0.03616 0.53668 0.86001 0.0
C169 C 0.99169 0.48614 0.85971 0.0
C170 C 0.9707 0.46152 0.88663 0.0
C171 C 0.99073 0.487 0.91297 0.0
C172 C 0.03197 0.53733 0.91319 0.0
C173 C 0.05453 0.56207 0.88712 0.0
H174 H 0.1272 0.48272 0.52028 0.0
C175 C 0.14761 0.52387 0.52422 0.0
H176 H 0.1409 0.58858 0.53282 0.0
H177 H 0.92559 0.48697 0.4674 0.0
H178 H 0.9816 0.53034 0.42638 0.0
H179 H 0.07594 0.57018 0.4308 0.0
H180 H 0.11471 0.56625 0.47622 0.0
C181 C 0.1209 0.54727 0.52957 0.0
C182 C 0.0639 0.52028 0.52675 0.0
C183 C 0.04193 0.52384 0.50023 0.0
C184 C 0.98767 0.50189 0.49789 0.0
C185 C 0.96665 0.50425 0.47075 0.0
C186 C 0.99836 0.52879 0.44692 0.0
C187 C 0.05146 0.55115 0.44939 0.0
C188 C 0.0732 0.54872 0.47563 0.0
H189 H 0.89953 0.52324 0.51741 0.0
C190 C 0.87611 0.48156 0.51713 0.0
H191 H 0.87561 0.4119 0.52052 0.0
H192 H 0.09391 0.50642 0.5804 0.0
H193 H 0.03801 0.46336 0.62176 0.0
H194 H 0.94392 0.42643 0.61807 0.0
H195 H 0.90509 0.43227 0.57306 0.0
C196 C 0.89877 0.45357 0.51993 0.0
C197 C 0.95565 0.47756 0.52237 0.0
C198 C 0.9776 0.47341 0.54877 0.0
C199 C 0.03186 0.49484 0.55095 0.0
C200 C 0.05291 0.49076 0.57764 0.0
C201 C 0.02128 0.46617 0.60151 0.0
C202 C 0.96829 0.44533 0.59942 0.0
C203 C 0.94649 0.44883 0.57344 0.0
H204 H 0.46113 0.87905 0.86701 0.0
C205 C 0.42504 0.87098 0.85706 0.0
H206 H 0.38766 0.90316 0.83463 0.0
H207 H 0.59444 0.10013 0.90058 0.0
H208 H 0.54948 0.06302 0.94594 0.0
H209 H 0.46641 0.98068 0.94621 0.0
H210 H 0.42806 0.93468 0.90115 0.0
C211 C 0.42176 0.91037 0.84661 0.0
C212 C 0.4686 0.96319 0.84643 0.0
C213 C 0.48976 0.99046 0.87285 0.0
C214 C 0.53677 0.03892 0.87259 0.0
C215 C 0.558 0.06413 0.89943 0.0
C216 C 0.53276 0.04309 0.92564 0.0
C217 C 0.48607 0.99665 0.9258 0.0
C218 C 0.46463 0.97049 0.8998 0.0
H219 H 0.56493 0.14697 0.85791 0.0
C220 C 0.60252 0.15444 0.85084 0.0
H221 H 0.64398 0.12042 0.83601 0.0
H222 H 0.43941 0.92103 0.79191 0.0
H223 H 0.48339 0.95902 0.74653 0.0
H224 H 0.56322 0.04418 0.74591 0.0
H225 H 0.59986 0.09168 0.79069 0.0
C226 C 0.60796 0.11428 0.8449 0.0
C227 C 0.5618 0.06102 0.8458 0.0
C228 C 0.54063 0.03375 0.81939 0.0
C229 C 0.49408 0.9849 0.8197 0.0
C230 C 0.47428 0.95845 0.79298 0.0
C231 C 0.49916 0.97979 0.76673 0.0
C232 C 0.54413 0.02771 0.76639 0.0
C233 C 0.56476 0.05457 0.7923 0.0
H234 H 0.53385 0.64244 0.18588 0.0
C235 C 0.492 0.62306 0.18646 0.0
H236 H 0.42174 0.55164 0.18795 0.0
H237 H 0.51809 0.43092 0.13065 0.0
H238 H 0.47241 0.43813 0.08942 0.0
H239 H 0.43244 0.49105 0.0924 0.0
H240 H 0.43852 0.53757 0.13661 0.0
C241 C 0.46362 0.57149 0.18841 0.0
C242 C 0.48731 0.53915 0.18721 0.0
C243 C 0.48212 0.51094 0.16149 0.0
C244 C 0.50429 0.47959 0.15998 0.0
C245 C 0.50076 0.45405 0.13344 0.0
C246 C 0.47487 0.4581 0.10946 0.0
C247 C 0.45242 0.48793 0.11112 0.0
C248 C 0.45607 0.51431 0.1367 0.0
H249 H 0.49106 0.37262 0.17996 0.0
C250 C 0.53299 0.39506 0.18004 0.0
H251 H 0.5997 0.46914 0.18326 0.0
H252 H 0.50118 0.58543 0.24037 0.0
H253 H 0.54572 0.57723 0.2821 0.0
H254 H 0.58355 0.5223 0.2797 0.0
H255 H 0.57701 0.47516 0.2356 0.0
C256 C 0.5578 0.4466 0.18242 0.0
C257 C 0.53049 0.47549 0.18452 0.0
C258 C 0.5349 0.50306 0.2104 0.0
C259 C 0.51323 0.53487 0.21177 0.0
C260 C 0.5175 0.56127 0.23804 0.0
C261 C 0.54281 0.55676 0.26219 0.0
C262 C 0.56412 0.52584 0.26084 0.0
C263 C 0.56026 0.49915 0.23534 0.0
H264 H 0.64005 0.36998 0.92553 0.0
C265 C 0.67408 0.37012 0.91782 0.0
H266 H 0.74117 0.36946 0.92969 0.0
H267 H 0.67533 0.43106 0.05517 0.0
H268 H 0.70312 0.51364 0.03296 0.0
H269 H 0.72928 0.52936 0.98134 0.0
H270 H 0.72726 0.46227 0.95149 0.0
C271 C 0.70851 0.37208 0.93714 0.0
C272 C 0.69658 0.36468 0.96878 0.0
C273 C 0.69915 0.40459 0.98603 0.0
C274 C 0.68518 0.39584 0.01598 0.0
C275 C 0.68643 0.43584 0.03248 0.0
C276 C 0.7022 0.48342 0.01998 0.0
C277 C 0.71685 0.49225 0.99089 0.0
C278 C 0.71539 0.45342 0.974 0.0
H279 H 0.72234 0.37854 0.07937 0.0
C280 C 0.68094 0.35374 0.08231 0.0
H281 H 0.60829 0.31053 0.0616 0.0
H282 H 0.68848 0.28007 0.94191 0.0
H283 H 0.66233 0.19815 0.96434 0.0
H284 H 0.63975 0.18364 0.01648 0.0
H285 H 0.64307 0.25106 0.04648 0.0
C286 C 0.64966 0.3359 0.05892 0.0
C287 C 0.66949 0.3474 0.02862 0.0
C288 C 0.66822 0.30795 0.01152 0.0
C289 C 0.68181 0.31657 0.98157 0.0
C290 C 0.67917 0.276 0.96487 0.0
C291 C 0.66411 0.22866 0.97745 0.0
C292 C 0.65133 0.22046 1.00679 0.0
C293 C 0.65328 0.25947 0.02373 0.0
H294 H 0.39507 0.71241 0.27509 0.0
C295 C 0.35869 0.68879 0.26371 0.0
H296 H 0.27845 0.64039 0.26745 0.0
H297 H 0.27634 0.55886 0.39349 0.0
H298 H 0.22501 0.4813 0.36539 0.0
H299 H 0.21583 0.48496 0.31224 0.0
H300 H 0.25678 0.5661 0.28705 0.0
C301 C 0.31465 0.66382 0.27898 0.0
C302 C 0.3157 0.66214 0.3116 0.0
C303 C 0.29248 0.61392 0.32589 0.0
C304 C 0.29972 0.61164 0.35637 0.0
C305 C 0.27406 0.56302 0.37024 0.0
C306 C 0.24408 0.51803 0.3544 0.0
C307 C 0.2388 0.5201 0.32451 0.0
C308 C 0.26259 0.56725 0.31031 0.0
H309 H 0.31995 0.70172 0.42118 0.0
C310 C 0.33173 0.67417 0.42563 0.0
H311 H 0.35496 0.62514 0.40866 0.0
H312 H 0.35121 0.76058 0.29355 0.0
H313 H 0.40656 0.83864 0.32096 0.0
H314 H 0.43237 0.83445 0.3714 0.0
H315 H 0.40114 0.75253 0.39511 0.0
C316 C 0.34351 0.65278 0.40359 0.0
C317 C 0.33235 0.65731 0.37238 0.0
C318 C 0.35449 0.7056 0.35824 0.0
C319 C 0.34362 0.70799 0.32828 0.0
C320 C 0.36146 0.7567 0.31557 0.0
C321 C 0.39278 0.80173 0.33115 0.0
C322 C 0.40704 0.79936 0.3596 0.0
C323 C 0.38834 0.75199 0.37307 0.0
H324 H 0.67363 0.37256 0.74555 0.0
C325 C 0.68833 0.34707 0.74906 0.0
H326 H 0.71211 0.29967 0.72954 0.0
H327 H 0.57422 0.30575 0.62031 0.0
H328 H 0.50019 0.26201 0.6525 0.0
H329 H 0.51165 0.2498 0.70448 0.0
H330 H 0.59694 0.28162 0.72469 0.0
C331 C 0.69678 0.32466 0.72616 0.0
C332 C 0.68907 0.33468 0.69545 0.0
C333 C 0.63865 0.31523 0.68403 0.0
C334 C 0.63185 0.3212 0.65392 0.0
C335 C 0.58134 0.30183 0.64299 0.0
C336 C 0.53858 0.27665 0.6612 0.0
C337 C 0.54505 0.26984 0.69048 0.0
C338 C 0.59435 0.2886 0.70186 0.0
H339 H 0.66994 0.28462 0.59175 0.0
C340 C 0.66931 0.31814 0.58419 0.0
H341 H 0.66976 0.38544 0.59661 0.0
H342 H 0.79088 0.37779 0.71049 0.0
H343 H 0.86445 0.42072 0.67808 0.0
H344 H 0.85244 0.43045 0.62583 0.0
H345 H 0.76683 0.39724 0.60567 0.0
C346 C 0.66841 0.3507 0.60369 0.0
C347 C 0.67519 0.34549 0.63528 0.0
C348 C 0.7256 0.36565 0.64674 0.0
C349 C 0.73251 0.36007 0.67684 0.0
C350 C 0.78331 0.38048 0.68772 0.0
C351 C 0.82594 0.40541 0.66938 0.0
C352 C 0.81918 0.4109 0.63997 0.0
C353 C 0.76975 0.39149 0.62868 0.0
H354 H 0.38426 0.65559 0.93641 0.0
C355 C 0.35169 0.65772 0.92825 0.0
H356 H 0.2877 0.66446 0.93937 0.0
H357 H 0.33581 0.593 0.06646 0.0
H358 H 0.29557 0.50794 0.04492 0.0
H359 H 0.26984 0.49412 0.99314 0.0
H360 H 0.28471 0.56555 0.96246 0.0
C361 C 0.31852 0.65913 0.9472 0.0
C362 C 0.33 0.66601 0.97895 0.0
C363 C 0.32009 0.62384 0.99669 0.0
C364 C 0.33407 0.63173 0.02671 0.0
C365 C 0.32525 0.58915 0.04368 0.0
C366 C 0.30226 0.54011 0.03157 0.0
C367 C 0.28783 0.53233 1.0024 0.0
C368 C 0.29663 0.5736 0.98503 0.0
H369 H 0.30899 0.66067 0.09144 0.0
C370 C 0.35077 0.68018 0.09309 0.0
H371 H 0.42142 0.71229 0.07031 0.0
H372 H 0.35181 0.75485 0.95131 0.0
H373 H 0.39027 0.83956 0.97304 0.0
H374 H 0.41358 0.85302 0.02517 0.0
H375 H 0.39853 0.78174 0.05589 0.0
C376 C 0.37959 0.69212 0.06879 0.0
C377 C 0.35741 0.68177 0.0389 0.0
C378 C 0.36556 0.72358 0.02136 0.0
C379 C 0.35175 0.71572 0.99138 0.0
C380 C 0.36121 0.75847 0.97427 0.0
C381 C 0.38332 0.80737 0.98645 0.0
C382 C 0.3965 0.81496 0.01579 0.0
C383 C 0.3878 0.77373 0.03315 0.0
H384 H 0.65757 0.31283 0.41161 0.0
C385 C 0.68089 0.35387 0.41575 0.0
H386 H 0.7243 0.42791 0.39735 0.0
H387 H 0.7254 0.29235 0.28528 0.0
H388 H 0.77318 0.26664 0.31636 0.0
H389 H 0.78559 0.28923 0.36858 0.0
H390 H 0.74995 0.337 0.39015 0.0
C391 C 0.70141 0.3868 0.39332 0.0
C392 C 0.69186 0.36998 0.36234 0.0
C393 C 0.71365 0.34247 0.35011 0.0
C394 C 0.7076 0.33046 0.31984 0.0
C395 C 0.72928 0.30272 0.30811 0.0
C396 C 0.75679 0.2878 0.32568 0.0
C397 C 0.7637 0.30045 0.3551 0.0
C398 C 0.74271 0.32766 0.36726 0.0
H399 H 0.73838 0.40941 0.25896 0.0
C400 C 0.70677 0.37294 0.25097 0.0
H401 H 0.64335 0.30019 0.2626 0.0
H402 H 0.64399 0.42171 0.37897 0.0
H403 H 0.59707 0.44787 0.34767 0.0
H404 H 0.58727 0.42755 0.29514 0.0
H405 H 0.62433 0.38097 0.27363 0.0
C406 C 0.67617 0.33628 0.27005 0.0
C407 C 0.68102 0.347 0.30184 0.0
C408 C 0.65856 0.37376 0.31411 0.0
C409 C 0.66416 0.38542 0.34437 0.0
C410 C 0.64139 0.41227 0.35605 0.0
C411 C 0.61416 0.42735 0.33835 0.0
C412 C 0.60862 0.4159 0.30879 0.0
C413 C 0.6303 0.38928 0.29671 0.0
H414 H 0.36385 0.65098 0.75589 0.0
C415 C 0.34755 0.67534 0.75823 0.0
H416 H 0.32473 0.72192 0.73679 0.0
H417 H 0.45032 0.76552 0.62208 0.0
H418 H 0.50674 0.84444 0.64849 0.0
H419 H 0.49284 0.85242 0.70072 0.0
H420 H 0.42274 0.78138 0.72692 0.0
C421 C 0.33882 0.69568 0.73446 0.0
C422 C 0.35155 0.68768 0.70437 0.0
C423 C 0.3926 0.72953 0.68934 0.0
C424 C 0.40019 0.72523 0.65913 0.0
C425 C 0.44208 0.76728 0.64483 0.0
C426 C 0.47494 0.81264 0.65978 0.0
C427 C 0.46714 0.81712 0.68919 0.0
C428 C 0.42662 0.77614 0.70394 0.0
H429 H 0.34954 0.73218 0.60337 0.0
C430 C 0.35667 0.70355 0.59402 0.0
H431 H 0.37411 0.64601 0.60259 0.0
H432 H 0.27017 0.59954 0.72684 0.0
H433 H 0.21462 0.52043 0.70066 0.0
H434 H 0.22773 0.51277 0.64831 0.0
H435 H 0.29627 0.58415 0.62182 0.0
C436 C 0.3693 0.67634 0.61161 0.0
C437 C 0.36617 0.67934 0.6439 0.0
C438 C 0.32672 0.63652 0.65927 0.0
C439 C 0.31926 0.64078 0.68953 0.0
C440 C 0.27812 0.59824 0.70401 0.0
C441 C 0.24577 0.55258 0.68921 0.0
C442 C 0.25315 0.54827 0.65974 0.0
C443 C 0.29286 0.58963 0.64481 0.0
loop_
_geom_bond_atom_site_label_1
_geom_bond_atom_site_label_2
_geom_bond_distance
_geom_bond_site_symmetry_2
_ccdc_geom_bond_type
O0 Cd1 2.223 . S
O0 C8 1.315 . S
Cd1 O0 2.223 . S
Cd1 O4 2.297 . S
Cd1 O5 2.439 . S
Cd1 O11 2.240 . S
Cd2 O3 2.240 . S
Cd2 O10 2.223 . S
Cd2 O12 2.297 . S
Cd2 O13 2.439 . S
O3 Cd2 2.240 . S
O3 C8 1.279 . S
O4 Cd1 2.297 . S
O4 C6 1.247 . S
O5 Cd1 2.439 . S
O5 C6 1.208 . S
C6 O4 1.247 . S
C6 O5 1.208 . S
C7 O12 1.247 . S
C7 O13 1.208 . S
C8 O0 1.315 . S
C8 O3 1.279 . S
C9 O10 1.315 . S
C9 O11 1.279 . S
O10 Cd2 2.223 . S
O10 C9 1.315 . S
O11 Cd1 2.240 . S
O11 C9 1.279 . S
O12 Cd2 2.297 . S
O12 C7 1.247 . S
O13 Cd2 2.439 . S
O13 C7 1.208 . S
O14 Cd15 2.223 . S
O14 C22 1.315 . S
Cd15 O14 2.223 . S
Cd15 O18 2.297 . S
Cd15 O19 2.439 . S
Cd15 O25 2.240 . S
Cd16 O17 2.240 . S
Cd16 O24 2.223 . S
Cd16 O26 2.297 . S
Cd16 O27 2.439 . S
O17 Cd16 2.240 . S
O17 C22 1.279 . S
O18 Cd15 2.297 . S
O18 C20 1.247 . S
O19 Cd15 2.439 . S
O19 C20 1.208 . S
C20 O18 1.247 . S
C20 O19 1.208 . S
C21 O26 1.247 . S
C21 O27 1.208 . S
C22 O14 1.315 . S
C22 O17 1.279 . S
C23 O24 1.315 . S
C23 O25 1.279 . S
O24 Cd16 2.223 . S
O24 C23 1.315 . S
O25 Cd15 2.240 . S
O25 C23 1.279 . S
O26 Cd16 2.297 . S
O26 C21 1.247 . S
O27 Cd16 2.439 . S
O27 C21 1.208 . S
O28 Cd29 2.223 . S
O28 C36 1.315 . S
Cd29 O28 2.223 . S
Cd29 O32 2.297 . S
Cd29 O33 2.439 . S
Cd29 O39 2.240 . S
Cd30 O31 2.240 . S
Cd30 O38 2.223 . S
Cd30 O40 2.297 . S
Cd30 O41 2.439 . S
O31 Cd30 2.240 . S
O31 C36 1.279 . S
O32 Cd29 2.297 . S
O32 C34 1.247 . S
O33 Cd29 2.439 . S
O33 C34 1.208 . S
C34 O32 1.247 . S
C34 O33 1.208 . S
C35 O40 1.247 . S
C35 O41 1.208 . S
C36 O28 1.315 . S
C36 O31 1.279 . S
C37 O38 1.315 . S
C37 O39 1.279 . S
O38 Cd30 2.223 . S
O38 C37 1.315 . S
O39 Cd29 2.240 . S
O39 C37 1.279 . S
O40 Cd30 2.297 . S
O40 C35 1.247 . S
O41 Cd30 2.439 . S
O41 C35 1.208 . S
O42 Cd43 2.223 . S
O42 C50 1.315 . S
Cd43 O42 2.223 . S
Cd43 O46 2.297 . S
Cd43 O47 2.439 . S
Cd43 O53 2.240 . S
Cd44 O45 2.240 . S
Cd44 O52 2.223 . S
Cd44 O54 2.297 . S
Cd44 O55 2.439 . S
O45 Cd44 2.240 . S
O45 C50 1.279 . S
O46 Cd43 2.297 . S
O46 C48 1.247 . S
O47 Cd43 2.439 . S
O47 C48 1.208 . S
C48 O46 1.247 . S
C48 O47 1.208 . S
C49 O54 1.247 . S
C49 O55 1.208 . S
C50 O42 1.315 . S
C50 O45 1.279 . S
C51 O52 1.315 . S
C51 O53 1.279 . S
O52 Cd44 2.223 . S
O52 C51 1.315 . S
O53 Cd43 2.240 . S
O53 C51 1.279 . S
O54 Cd44 2.297 . S
O54 C49 1.247 . S
O55 Cd44 2.439 . S
O55 C49 1.208 . S
O56 Cd57 2.223 . S
O56 C64 1.315 . S
Cd57 O56 2.223 . S
Cd57 O60 2.297 . S
Cd57 O61 2.439 . S
Cd57 O67 2.240 . S
Cd58 O59 2.240 . S
Cd58 O66 2.223 . S
Cd58 O68 2.297 . S
Cd58 O69 2.439 . S
O59 Cd58 2.240 . S
O59 C64 1.279 . S
O60 Cd57 2.297 . S
O60 C62 1.247 . S
O61 Cd57 2.439 . S
O61 C62 1.208 . S
C62 O60 1.247 . S
C62 O61 1.208 . S
C63 O68 1.247 . S
C63 O69 1.208 . S
C64 O56 1.315 . S
C64 O59 1.279 . S
C65 O66 1.315 . S
C65 O67 1.279 . S
O66 Cd58 2.223 . S
O66 C65 1.315 . S
O67 Cd57 2.240 . S
O67 C65 1.279 . S
O68 Cd58 2.297 . S
O68 C63 1.247 . S
O69 Cd58 2.439 . S
O69 C63 1.208 . S
O70 Cd71 2.223 . S
O70 C78 1.315 . S
Cd71 O70 2.223 . S
Cd71 O74 2.297 . S
Cd71 O75 2.439 . S
Cd71 O81 2.240 . S
Cd72 O73 2.240 . S
Cd72 O80 2.223 . S
Cd72 O82 2.297 . S
Cd72 O83 2.439 . S
O73 Cd72 2.240 . S
O73 C78 1.279 . S
O74 Cd71 2.297 . S
O74 C76 1.247 . S
O75 Cd71 2.439 . S
O75 C76 1.208 . S
C76 O74 1.247 . S
C76 O75 1.208 . S
C77 O82 1.247 . S
C77 O83 1.208 . S
C78 O70 1.315 . S
C78 O73 1.279 . S
C79 O80 1.315 . S
C79 O81 1.279 . S
O80 Cd72 2.223 . S
O80 C79 1.315 . S
O81 Cd71 2.240 . S
O81 C79 1.279 . S
O82 Cd72 2.297 . S
O82 C77 1.247 . S
O83 Cd72 2.439 . S
O83 C77 1.208 . S
H84 C85 0.951 . S
C85 H84 0.951 . S
C85 C91 1.265 . S
H86 C91 0.950 . S
H87 C95 0.949 . S
H88 C96 0.950 . S
H89 C97 0.948 1_545 S
H90 C98 0.951 . S
C91 C85 1.265 . S
C91 H86 0.950 . S
C91 C92 1.478 . S
C92 C91 1.478 . S
C92 C93 1.397 . S
C92 C109 1.394 . S
C93 C92 1.397 . S
C93 C94 1.438 1_545 S
C93 C98 1.429 . S
C94 C93 1.438 1_565 S
C94 C95 1.428 . S
C94 C107 1.394 . S
C95 H87 0.949 . S
C95 C94 1.428 . S
C95 C96 1.345 . S
C96 H88 0.950 . S
C96 C95 1.345 . S
C96 C97 1.430 . S
C97 H89 0.948 1_565 S
C97 C96 1.430 . S
C97 C98 1.344 1_565 S
C98 H90 0.951 . S
C98 C93 1.429 . S
C98 C97 1.344 1_545 S
H99 C100 0.951 . S
C100 H99 0.951 . S
C100 C106 1.265 . S
H101 C106 0.950 . S
H102 C110 0.949 . S
H103 C111 0.950 . S
H104 C112 0.948 1_565 S
H105 C113 0.951 . S
C106 C100 1.265 . S
C106 H101 0.950 . S
C106 C107 1.478 . S
C107 C94 1.394 . S
C107 C106 1.478 . S
C107 C108 1.397 . S
C108 C107 1.397 . S
C108 C109 1.438 1_565 S
C108 C113 1.429 . S
C109 C92 1.394 . S
C109 C108 1.438 1_545 S
C109 C110 1.428 . S
C110 H102 0.949 . S
C110 C109 1.428 . S
C110 C111 1.345 . S
C111 H103 0.950 . S
C111 C110 1.345 . S
C111 C112 1.430 . S
C112 H104 0.948 1_545 S
C112 C111 1.430 . S
C112 C113 1.344 1_545 S
C113 H105 0.951 . S
C113 C108 1.429 . S
C113 C112 1.344 1_565 S
H114 C115 0.951 . S
C115 H114 0.951 . S
C115 C121 1.265 . S
H116 C121 0.950 . S
H117 C125 0.949 . S
H118 C126 0.950 . S
H119 C127 0.951 . S
H120 C128 0.951 . S
C121 C115 1.265 . S
C121 H116 0.950 . S
C121 C122 1.478 . S
C122 C121 1.478 . S
C122 C123 1.397 . S
C122 C139 1.394 . S
C123 C122 1.397 . S
C123 C124 1.438 . S
C123 C128 1.429 . S
C124 C123 1.438 . S
C124 C125 1.428 . S
C124 C137 1.394 . S
C125 H117 0.949 . S
C125 C124 1.428 . S
C125 C126 1.345 . S
C126 H118 0.950 . S
C126 C125 1.345 . S
C126 C127 1.424 . S
C127 H119 0.951 . S
C127 C126 1.424 . S
C127 C128 1.347 . S
C128 H120 0.951 . S
C128 C123 1.429 . S
C128 C127 1.347 . S
H129 C130 0.951 . S
C130 H129 0.951 . S
C130 C136 1.265 . S
H131 C136 0.950 . S
H132 C140 0.949 . S
H133 C141 0.950 . S
H134 C142 0.951 . S
H135 C143 0.951 . S
C136 C130 1.265 . S
C136 H131 0.950 . S
C136 C137 1.478 . S
C137 C124 1.394 . S
C137 C136 1.478 . S
C137 C138 1.397 . S
C138 C137 1.397 . S
C138 C139 1.438 . S
C138 C143 1.429 . S
C139 C122 1.394 . S
C139 C138 1.438 . S
C139 C140 1.428 . S
C140 H132 0.949 . S
C140 C139 1.428 . S
C140 C141 1.345 . S
C141 H133 0.950 . S
C141 C140 1.345 . S
C141 C142 1.424 . S
C142 H134 0.951 . S
C142 C141 1.424 . S
C142 C143 1.347 . S
C143 H135 0.951 . S
C143 C138 1.429 . S
C143 C142 1.347 . S
H144 C145 0.951 . S
C145 H144 0.951 . S
C145 C151 1.265 . S
H146 C151 0.950 . S
H147 C155 0.949 . S
H148 C156 0.950 . S
H149 C157 0.951 1_655 S
H150 C158 0.951 . S
C151 C145 1.265 . S
C151 H146 0.950 . S
C151 C152 1.478 . S
C152 C151 1.478 . S
C152 C153 1.397 . S
C152 C169 1.394 . S
C153 C152 1.397 . S
C153 C154 1.438 1_655 S
C153 C158 1.429 . S
C154 C153 1.438 1_455 S
C154 C155 1.428 . S
C154 C167 1.394 . S
C155 H147 0.949 . S
C155 C154 1.428 . S
C155 C156 1.345 . S
C156 H148 0.950 . S
C156 C155 1.345 . S
C156 C157 1.424 . S
C157 H149 0.951 1_455 S
C157 C156 1.424 . S
C157 C158 1.347 1_455 S
C158 H150 0.951 . S
C158 C153 1.429 . S
C158 C157 1.347 1_655 S
H159 C160 0.951 . S
C160 H159 0.951 . S
C160 C166 1.265 . S
H161 C166 0.950 . S
H162 C170 0.949 . S
H163 C171 0.950 . S
H164 C172 0.951 1_455 S
H165 C173 0.951 . S
C166 C160 1.265 . S
C166 H161 0.950 . S
C166 C167 1.478 . S
C167 C154 1.394 . S
C167 C166 1.478 . S
C167 C168 1.397 . S
C168 C167 1.397 . S
C168 C169 1.438 1_455 S
C168 C173 1.429 . S
C169 C152 1.394 . S
C169 C168 1.438 1_655 S
C169 C170 1.428 . S
C170 H162 0.949 . S
C170 C169 1.428 . S
C170 C171 1.345 . S
C171 H163 0.950 . S
C171 C170 1.345 . S
C171 C172 1.424 . S
C172 H164 0.951 1_655 S
C172 C171 1.424 . S
C172 C173 1.347 1_655 S
C173 H165 0.951 . S
C173 C168 1.429 . S
C173 C172 1.347 1_455 S
H174 C175 0.951 . S
C175 H174 0.951 . S
C175 C181 1.265 . S
H176 C181 0.950 . S
H177 C185 0.949 . S
H178 C186 0.950 . S
H179 C187 0.951 . S
H180 C188 0.951 . S
C181 C175 1.265 . S
C181 H176 0.950 . S
C181 C182 1.478 . S
C182 C181 1.478 . S
C182 C183 1.397 . S
C182 C199 1.394 . S
C183 C182 1.397 . S
C183 C184 1.438 1_455 S
C183 C188 1.429 . S
C184 C183 1.438 1_655 S
C184 C185 1.428 . S
C184 C197 1.394 . S
C185 H177 0.949 . S
C185 C184 1.428 . S
C185 C186 1.345 . S
C186 H178 0.950 . S
C186 C185 1.345 . S
C186 C187 1.424 1_655 S
C187 H179 0.951 . S
C187 C186 1.424 1_455 S
C187 C188 1.347 . S
C188 H180 0.951 . S
C188 C183 1.429 . S
C188 C187 1.347 . S
H189 C190 0.951 . S
C190 H189 0.951 . S
C190 C196 1.265 . S
H191 C196 0.950 . S
H192 C200 0.949 . S
H193 C201 0.950 . S
H194 C202 0.951 . S
H195 C203 0.951 . S
C196 C190 1.265 . S
C196 H191 0.950 . S
C196 C197 1.478 . S
C197 C184 1.394 . S
C197 C196 1.478 . S
C197 C198 1.397 . S
C198 C197 1.397 . S
C198 C199 1.438 1_655 S
C198 C203 1.429 . S
C199 C182 1.394 . S
C199 C198 1.438 1_455 S
C199 C200 1.428 . S
C200 H192 0.949 . S
C200 C199 1.428 . S
C200 C201 1.345 . S
C201 H193 0.950 . S
C201 C200 1.345 . S
C201 C202 1.424 1_455 S
C202 H194 0.951 . S
C202 C201 1.424 1_655 S
C202 C203 1.347 . S
C203 H195 0.951 . S
C203 C198 1.429 . S
C203 C202 1.347 . S
H204 C205 0.951 . S
C205 H204 0.951 . S
C205 C211 1.265 . S
H206 C211 0.950 . S
H207 C215 0.949 . S
H208 C216 0.950 . S
H209 C217 0.951 . S
H210 C218 0.951 . S
C211 C205 1.265 . S
C211 H206 0.950 . S
C211 C212 1.478 . S
C212 C211 1.478 . S
C212 C213 1.397 . S
C212 C229 1.394 . S
C213 C212 1.397 . S
C213 C214 1.438 1_565 S
C213 C218 1.429 . S
C214 C213 1.438 1_545 S
C214 C215 1.428 . S
C214 C227 1.394 . S
C215 H207 0.949 . S
C215 C214 1.428 . S
C215 C216 1.345 . S
C216 H208 0.950 . S
C216 C215 1.345 . S
C216 C217 1.424 1_545 S
C217 H209 0.951 . S
C217 C216 1.424 1_565 S
C217 C218 1.347 . S
C218 H210 0.951 . S
C218 C213 1.429 . S
C218 C217 1.347 . S
H219 C220 0.951 . S
C220 H219 0.951 . S
C220 C226 1.265 . S
H221 C226 0.950 . S
H222 C230 0.949 . S
H223 C231 0.950 . S
H224 C232 0.951 . S
H225 C233 0.951 . S
C226 C220 1.265 . S
C226 H221 0.950 . S
C226 C227 1.478 . S
C227 C214 1.394 . S
C227 C226 1.478 . S
C227 C228 1.397 . S
C228 C227 1.397 . S
C228 C229 1.438 1_545 S
C228 C233 1.429 . S
C229 C212 1.394 . S
C229 C228 1.438 1_565 S
C229 C230 1.428 . S
C230 H222 0.949 . S
C230 C229 1.428 . S
C230 C231 1.345 . S
C231 H223 0.950 . S
C231 C230 1.345 . S
C231 C232 1.424 1_565 S
C232 H224 0.951 . S
C232 C231 1.424 1_545 S
C232 C233 1.347 . S
C233 H225 0.951 . S
C233 C228 1.429 . S
C233 C232 1.347 . S
H234 C235 0.951 . S
C235 H234 0.951 . S
C235 C241 1.265 . S
H236 C241 0.950 . S
H237 C245 0.949 . S
H238 C246 0.950 . S
H239 C247 0.951 . S
H240 C248 0.951 . S
C241 C235 1.265 . S
C241 H236 0.950 . S
C241 C242 1.478 . S
C242 C241 1.478 . S
C242 C243 1.397 . S
C242 C259 1.394 . S
C243 C242 1.397 . S
C243 C244 1.438 . S
C243 C248 1.429 . S
C244 C243 1.438 . S
C244 C245 1.428 . S
C244 C257 1.394 . S
C245 H237 0.949 . S
C245 C244 1.428 . S
C245 C246 1.345 . S
C246 H238 0.950 . S
C246 C245 1.345 . S
C246 C247 1.424 . S
C247 H239 0.951 . S
C247 C246 1.424 . S
C247 C248 1.347 . S
C248 H240 0.951 . S
C248 C243 1.429 . S
C248 C247 1.347 . S
H249 C250 0.951 . S
C250 H249 0.951 . S
C250 C256 1.265 . S
H251 C256 0.950 . S
H252 C260 0.949 . S
H253 C261 0.950 . S
H254 C262 0.951 . S
H255 C263 0.951 . S
C256 C250 1.265 . S
C256 H251 0.950 . S
C256 C257 1.478 . S
C257 C244 1.394 . S
C257 C256 1.478 . S
C257 C258 1.397 . S
C258 C257 1.397 . S
C258 C259 1.438 . S
C258 C263 1.429 . S
C259 C242 1.394 . S
C259 C258 1.438 . S
C259 C260 1.428 . S
C260 H252 0.949 . S
C260 C259 1.428 . S
C260 C261 1.345 . S
C261 H253 0.950 . S
C261 C260 1.345 . S
C261 C262 1.424 . S
C262 H254 0.951 . S
C262 C261 1.424 . S
C262 C263 1.347 . S
C263 H255 0.951 . S
C263 C258 1.429 . S
C263 C262 1.347 . S
H264 C265 0.951 . S
C265 H264 0.951 . S
C265 C271 1.265 . S
H266 C271 0.950 . S
H267 C275 0.949 . S
H268 C276 0.950 . S
H269 C277 0.951 . S
H270 C278 0.951 . S
C271 C265 1.265 . S
C271 H266 0.950 . S
C271 C272 1.478 . S
C272 C271 1.478 . S
C272 C273 1.397 . S
C272 C289 1.394 . S
C273 C272 1.397 . S
C273 C274 1.438 1_556 S
C273 C278 1.429 . S
C274 C273 1.438 1_554 S
C274 C275 1.428 . S
C274 C287 1.394 . S
C275 H267 0.949 . S
C275 C274 1.428 . S
C275 C276 1.345 . S
C276 H268 0.950 . S
C276 C275 1.345 . S
C276 C277 1.424 1_554 S
C277 H269 0.951 . S
C277 C276 1.424 1_556 S
C277 C278 1.347 . S
C278 H270 0.951 . S
C278 C273 1.429 . S
C278 C277 1.347 . S
H279 C280 0.951 . S
C280 H279 0.951 . S
C280 C286 1.265 . S
H281 C286 0.950 . S
H282 C290 0.949 . S
H283 C291 0.950 . S
H284 C292 0.951 . S
H285 C293 0.951 . S
C286 C280 1.265 . S
C286 H281 0.950 . S
C286 C287 1.478 . S
C287 C274 1.394 . S
C287 C286 1.478 . S
C287 C288 1.397 . S
C288 C287 1.397 . S
C288 C289 1.438 1_554 S
C288 C293 1.429 . S
C289 C272 1.394 . S
C289 C288 1.438 1_556 S
C289 C290 1.428 . S
C290 H282 0.949 . S
C290 C289 1.428 . S
C290 C291 1.345 . S
C291 H283 0.950 . S
C291 C290 1.345 . S
C291 C292 1.424 1_556 S
C292 H284 0.951 . S
C292 C291 1.424 1_554 S
C292 C293 1.347 . S
C293 H285 0.951 . S
C293 C288 1.429 . S
C293 C292 1.347 . S
H294 C295 0.951 . S
C295 H294 0.951 . S
C295 C301 1.265 . S
H296 C301 0.950 . S
H297 C305 0.949 . S
H298 C306 0.950 . S
H299 C307 0.951 . S
H300 C308 0.951 . S
C301 C295 1.265 . S
C301 H296 0.950 . S
C301 C302 1.478 . S
C302 C301 1.478 . S
C302 C303 1.397 . S
C302 C319 1.394 . S
C303 C302 1.397 . S
C303 C304 1.438 . S
C303 C308 1.429 . S
C304 C303 1.438 . S
C304 C305 1.428 . S
C304 C317 1.394 . S
C305 H297 0.949 . S
C305 C304 1.428 . S
C305 C306 1.345 . S
C306 H298 0.950 . S
C306 C305 1.345 . S
C306 C307 1.424 . S
C307 H299 0.951 . S
C307 C306 1.424 . S
C307 C308 1.347 . S
C308 H300 0.951 . S
C308 C303 1.429 . S
C308 C307 1.347 . S
H309 C310 0.951 . S
C310 H309 0.951 . S
C310 C316 1.265 . S
H311 C316 0.950 . S
H312 C320 0.949 . S
H313 C321 0.950 . S
H314 C322 0.951 . S
H315 C323 0.951 . S
C316 C310 1.265 . S
C316 H311 0.950 . S
C316 C317 1.478 . S
C317 C304 1.394 . S
C317 C316 1.478 . S
C317 C318 1.397 . S
C318 C317 1.397 . S
C318 C319 1.438 . S
C318 C323 1.429 . S
C319 C302 1.394 . S
C319 C318 1.438 . S
C319 C320 1.428 . S
C320 H312 0.949 . S
C320 C319 1.428 . S
C320 C321 1.345 . S
C321 H313 0.950 . S
C321 C320 1.345 . S
C321 C322 1.424 . S
C322 H314 0.951 . S
C322 C321 1.424 . S
C322 C323 1.347 . S
C323 H315 0.951 . S
C323 C318 1.429 . S
C323 C322 1.347 . S
H324 C325 0.951 . S
C325 H324 0.951 . S
C325 C331 1.265 . S
H326 C331 0.950 . S
H327 C335 0.949 . S
H328 C336 0.950 . S
H329 C337 0.951 . S
H330 C338 0.951 . S
C331 C325 1.265 . S
C331 H326 0.950 . S
C331 C332 1.478 . S
C332 C331 1.478 . S
C332 C333 1.397 . S
C332 C349 1.394 . S
C333 C332 1.397 . S
C333 C334 1.438 . S
C333 C338 1.429 . S
C334 C333 1.438 . S
C334 C335 1.428 . S
C334 C347 1.394 . S
C335 H327 0.949 . S
C335 C334 1.428 . S
C335 C336 1.345 . S
C336 H328 0.950 . S
C336 C335 1.345 . S
C336 C337 1.424 . S
C337 H329 0.951 . S
C337 C336 1.424 . S
C337 C338 1.347 . S
C338 H330 0.951 . S
C338 C333 1.429 . S
C338 C337 1.347 . S
H339 C340 0.951 . S
C340 H339 0.951 . S
C340 C346 1.265 . S
H341 C346 0.950 . S
H342 C350 0.949 . S
H343 C351 0.950 . S
H344 C352 0.951 . S
H345 C353 0.951 . S
C346 C340 1.265 . S
C346 H341 0.950 . S
C346 C347 1.478 . S
C347 C334 1.394 . S
C347 C346 1.478 . S
C347 C348 1.397 . S
C348 C347 1.397 . S
C348 C349 1.438 . S
C348 C353 1.429 . S
C349 C332 1.394 . S
C349 C348 1.438 . S
C349 C350 1.428 . S
C350 H342 0.949 . S
C350 C349 1.428 . S
C350 C351 1.345 . S
C351 H343 0.950 . S
C351 C350 1.345 . S
C351 C352 1.424 . S
C352 H344 0.951 . S
C352 C351 1.424 . S
C352 C353 1.347 . S
C353 H345 0.951 . S
C353 C348 1.429 . S
C353 C352 1.347 . S
H354 C355 0.951 . S
C355 H354 0.951 . S
C355 C361 1.265 . S
H356 C361 0.950 . S
H357 C365 0.949 . S
H358 C366 0.950 . S
H359 C367 0.951 . S
H360 C368 0.951 . S
C361 C355 1.265 . S
C361 H356 0.950 . S
C361 C362 1.478 . S
C362 C361 1.478 . S
C362 C363 1.397 . S
C362 C379 1.394 . S
C363 C362 1.397 . S
C363 C364 1.438 1_556 S
C363 C368 1.429 . S
C364 C363 1.438 1_554 S
C364 C365 1.428 . S
C364 C377 1.394 . S
C365 H357 0.949 . S
C365 C364 1.428 . S
C365 C366 1.345 . S
C366 H358 0.950 . S
C366 C365 1.345 . S
C366 C367 1.424 1_554 S
C367 H359 0.951 . S
C367 C366 1.424 1_556 S
C367 C368 1.347 . S
C368 H360 0.951 . S
C368 C363 1.429 . S
C368 C367 1.347 . S
H369 C370 0.951 . S
C370 H369 0.951 . S
C370 C376 1.265 . S
H371 C376 0.950 . S
H372 C380 0.949 . S
H373 C381 0.950 . S
H374 C382 0.951 . S
H375 C383 0.951 . S
C376 C370 1.265 . S
C376 H371 0.950 . S
C376 C377 1.478 . S
C377 C364 1.394 . S
C377 C376 1.478 . S
C377 C378 1.397 . S
C378 C377 1.397 . S
C378 C379 1.438 1_554 S
C378 C383 1.429 . S
C379 C362 1.394 . S
C379 C378 1.438 1_556 S
C379 C380 1.428 . S
C380 H372 0.949 . S
C380 C379 1.428 . S
C380 C381 1.345 . S
C381 H373 0.950 . S
C381 C380 1.345 . S
C381 C382 1.424 1_556 S
C382 H374 0.951 . S
C382 C381 1.424 1_554 S
C382 C383 1.347 . S
C383 H375 0.951 . S
C383 C378 1.429 . S
C383 C382 1.347 . S
H384 C385 0.951 . S
C385 H384 0.951 . S
C385 C391 1.265 . S
H386 C391 0.950 . S
H387 C395 0.949 . S
H388 C396 0.950 . S
H389 C397 0.951 . S
H390 C398 0.951 . S
C391 C385 1.265 . S
C391 H386 0.950 . S
C391 C392 1.478 . S
C392 C391 1.478 . S
C392 C393 1.397 . S
C392 C409 1.394 . S
C393 C392 1.397 . S
C393 C394 1.438 . S
C393 C398 1.429 . S
C394 C393 1.438 . S
C394 C395 1.428 . S
C394 C407 1.394 . S
C395 H387 0.949 . S
C395 C394 1.428 . S
C395 C396 1.345 . S
C396 H388 0.950 . S
C396 C395 1.345 . S
C396 C397 1.424 . S
C397 H389 0.951 . S
C397 C396 1.424 . S
C397 C398 1.347 . S
C398 H390 0.951 . S
C398 C393 1.429 . S
C398 C397 1.347 . S
H399 C400 0.951 . S
C400 H399 0.951 . S
C400 C406 1.265 . S
H401 C406 0.950 . S
H402 C410 0.949 . S
H403 C411 0.950 . S
H404 C412 0.951 . S
H405 C413 0.951 . S
C406 C400 1.265 . S
C406 H401 0.950 . S
C406 C407 1.478 . S
C407 C394 1.394 . S
C407 C406 1.478 . S
C407 C408 1.397 . S
C408 C407 1.397 . S
C408 C409 1.438 . S
C408 C413 1.429 . S
C409 C392 1.394 . S
C409 C408 1.438 . S
C409 C410 1.428 . S
C410 H402 0.949 . S
C410 C409 1.428 . S
C410 C411 1.345 . S
C411 H403 0.950 . S
C411 C410 1.345 . S
C411 C412 1.424 . S
C412 H404 0.951 . S
C412 C411 1.424 . S
C412 C413 1.347 . S
C413 H405 0.951 . S
C413 C408 1.429 . S
C413 C412 1.347 . S
H414 C415 0.951 . S
C415 H414 0.951 . S
C415 C421 1.265 . S
H416 C421 0.950 . S
H417 C425 0.949 . S
H418 C426 0.950 . S
H419 C427 0.951 . S
H420 C428 0.951 . S
C421 C415 1.265 . S
C421 H416 0.950 . S
C421 C422 1.478 . S
C422 C421 1.478 . S
C422 C423 1.397 . S
C422 C439 1.394 . S
C423 C422 1.397 . S
C423 C424 1.438 . S
C423 C428 1.429 . S
C424 C423 1.438 . S
C424 C425 1.428 . S
C424 C437 1.394 . S
C425 H417 0.949 . S
C425 C424 1.428 . S
C425 C426 1.345 . S
C426 H418 0.950 . S
C426 C425 1.345 . S
C426 C427 1.424 . S
C427 H419 0.951 . S
C427 C426 1.424 . S
C427 C428 1.347 . S
C428 H420 0.951 . S
C428 C423 1.429 . S
C428 C427 1.347 . S
H429 C430 0.951 . S
C430 H429 0.951 . S
C430 C436 1.265 . S
H431 C436 0.950 . S
H432 C440 0.949 . S
H433 C441 0.950 . S
H434 C442 0.951 . S
H435 C443 0.951 . S
C436 C430 1.265 . S
C436 H431 0.950 . S
C436 C437 1.478 . S
C437 C424 1.394 . S
C437 C436 1.478 . S
C437 C438 1.397 . S
C438 C437 1.397 . S
C438 C439 1.438 . S
C438 C443 1.429 . S
C439 C422 1.394 . S
C439 C438 1.438 . S
C439 C440 1.428 . S
C440 H432 0.949 . S
C440 C439 1.428 . S
C440 C441 1.345 . S
C441 H433 0.950 . S
C441 C440 1.345 . S
C441 C442 1.424 . S
C442 H434 0.951 . S
C442 C441 1.424 . S
C442 C443 1.347 . S
C443 H435 0.951 . S
C443 C438 1.429 . S
C443 C442 1.347 . S
C85 C7 1.201 . S
C100 C49 1.200 . S
C115 C21 1.205 . S
C130 C63 1.190 . S
C145 C35 1.200 . S
C160 C77 1.200 . S
C175 C22 1.779 . S
C190 C64 1.784 . S
C205 C78 1.734 . S
C220 C36 1.734 . S
C235 C50 1.782 . S
C250 C8 1.781 . S
C265 C34 1.348 . S
C280 C9 1.328 . S
C295 C48 1.347 . S
C310 C23 1.282 . S
C325 C37 1.250 . S
C340 C62 1.345 . S
C355 C76 1.346 . S
C370 C51 1.289 . S
C385 C65 1.227 . S
C400 C6 1.344 . S
C415 C79 1.327 . S
C430 C20 1.348 . S
