# Generated by pormake.
# Topology snk, (6)-cn, num edge types: 1
# Building blocks:
#     Node 0, Type 0, BuildingBlock: BETFEN_clean_sbu_0, # of connection points: 6
#     Node 1, Type 0, BuildingBlock: BETFEN_clean_sbu_0, # of connection points: 6
#     Node 2, Type 0, BuildingBlock: BETFEN_clean_sbu_0, # of connection points: 6
#     Node 3, Type 0, BuildingBlock: BETFEN_clean_sbu_0, # of connection points: 6
#     Node 4, Type 0, BuildingBlock: BETFEN_clean_sbu_0, # of connection points: 6
#     Node 5, Type 0, BuildingBlock: BETFEN_clean_sbu_0, # of connection points: 6
#     Node 6, Type 0, BuildingBlock: BETFEN_clean_sbu_0, # of connection points: 6
#     Node 7, Type 0, BuildingBlock: BETFEN_clean_sbu_0, # of connection points: 6
#     Edge 8, Type (0, 0), BuildingBlock: EZIPEK_clean_linker_0, # of connection points: 2
#     Edge 9, Type (0, 0), BuildingBlock: EZIPEK_clean_linker_0, # of connection points: 2
#     Edge 10, Type (0, 0), BuildingBlock: EZIPEK_clean_linker_0, # of connection points: 2
#     Edge 11, Type (0, 0), BuildingBlock: EZIPEK_clean_linker_0, # of connection points: 2
#     Edge 12, Type (0, 0), BuildingBlock: EZIPEK_clean_linker_0, # of connection points: 2
#     Edge 13, Type (0, 0), BuildingBlock: EZIPEK_clean_linker_0, # of connection points: 2
#     Edge 14, Type (0, 0), BuildingBlock: EZIPEK_clean_linker_0, # of connection points: 2
#     Edge 15, Type (0, 0), BuildingBlock: EZIPEK_clean_linker_0, # of connection points: 2
#     Edge 16, Type (0, 0), BuildingBlock: EZIPEK_clean_linker_0, # of connection points: 2
#     Edge 17, Type (0, 0), BuildingBlock: EZIPEK_clean_linker_0, # of connection points: 2
#     Edge 18, Type (0, 0), BuildingBlock: EZIPEK_clean_linker_0, # of connection points: 2
#     Edge 19, Type (0, 0), BuildingBlock: EZIPEK_clean_linker_0, # of connection points: 2
#     Edge 20, Type (0, 0), BuildingBlock: EZIPEK_clean_linker_0, # of connection points: 2
#     Edge 21, Type (0, 0), BuildingBlock: EZIPEK_clean_linker_0, # of connection points: 2
#     Edge 22, Type (0, 0), BuildingBlock: EZIPEK_clean_linker_0, # of connection points: 2
#     Edge 23, Type (0, 0), BuildingBlock: EZIPEK_clean_linker_0, # of connection points: 2
#     Edge 24, Type (0, 0), BuildingBlock: EZIPEK_clean_linker_0, # of connection points: 2
#     Edge 25, Type (0, 0), BuildingBlock: EZIPEK_clean_linker_0, # of connection points: 2
#     Edge 26, Type (0, 0), BuildingBlock: EZIPEK_clean_linker_0, # of connection points: 2
#     Edge 27, Type (0, 0), BuildingBlock: EZIPEK_clean_linker_0, # of connection points: 2
#     Edge 28, Type (0, 0), BuildingBlock: EZIPEK_clean_linker_0, # of connection points: 2
#     Edge 29, Type (0, 0), BuildingBlock: EZIPEK_clean_linker_0, # of connection points: 2
#     Edge 30, Type (0, 0), BuildingBlock: EZIPEK_clean_linker_0, # of connection points: 2
#     Edge 31, Type (0, 0), BuildingBlock: EZIPEK_clean_linker_0, # of connection points: 2
# Relax obj value: 0.123
# Max RMSD: 0.194
# Mean RMSD: 0.152
data_MOF--net-snk--node1-BETFEN_clean_sbu_0--edge1-EZIPEK_clean_linker_0
_symmetry_space_group_name_H-M    P1
_symmetry_Int_Tables_number       1
_symmetry_cell_setting            triclinic
loop_
_symmetry_equiv_pos_as_xyz
'x, y, z'
_cell_length_a     26.937997
_cell_length_b     26.918256
_cell_length_c     21.227929
_cell_angle_alpha  97.280044
_cell_angle_beta   97.568516
_cell_angle_gamma 90.906151
loop_
_atom_site_label
_atom_site_type_symbol
_atom_site_fract_x
_atom_site_fract_y
_atom_site_fract_z
_atom_type_partial_charge
Pr0 Pr 0.98371 0.97788 0.46067 0.0
Pr1 Pr 0.01757 0.04601 0.59316 0.0
C2 C 0.95292 0.95052 0.33473 0.0
C3 C 0.96339 0.96568 0.27266 0.0
C4 C 0.0109 0.95964 0.25227 0.0
C5 C 0.01971 0.97269 0.19278 0.0
C6 C 0.9814 0.99235 0.1526 0.0
C7 C 0.93418 0.99907 0.17315 0.0
C8 C 0.92522 0.98568 0.23246 0.0
C9 C 0.04978 0.93237 0.54562 0.0
C10 C 0.08244 0.06015 0.47754 0.0
C11 C 0.046 0.07906 0.71837 0.0
C12 C 0.03626 0.06564 0.78154 0.0
C13 C 0.01343 0.1 0.82339 0.0
C14 C 0.00428 0.08811 0.88331 0.0
C15 C 0.01823 0.04178 0.90286 0.0
C16 C 0.0412 0.00741 0.86128 0.0
C17 C 0.04999 0.01909 0.80115 0.0
C18 C 0.95385 0.09001 0.5025 0.0
C19 C 0.92964 0.95391 0.58515 0.0
O20 O 0.9285 0.98186 0.37086 0.0
O21 O 0.98849 0.92823 0.36767 0.0
O22 O 0.05078 0.97845 0.5389 0.0
O23 O 0.01823 0.90725 0.5006 0.0
O24 O 0.08496 0.06465 0.54057 0.0
O25 O 0.0457 0.03407 0.43918 0.0
O26 O 0.07194 0.04794 0.68416 0.0
O27 O 0.00924 0.09842 0.68368 0.0
O28 O 0.95007 0.04531 0.51431 0.0
O29 O 0.98919 0.11514 0.5422 0.0
O30 O 0.92844 0.94318 0.52209 0.0
O31 O 0.95853 0.99036 0.61902 0.0
H32 H 0.0413 0.94457 0.282 0.0
H33 H 0.05642 0.96729 0.17792 0.0
H34 H 0.90414 0.01425 0.14293 0.0
H35 H 0.8883 0.99071 0.24679 0.0
H36 H 1.00266 0.13615 0.80972 0.0
H37 H 0.98649 0.11515 0.91463 0.0
H38 H 0.05219 0.97144 0.87537 0.0
H39 H 0.06759 0.99163 0.77019 0.0
Pr40 Pr 0.27869 0.75443 0.71777 0.0
Pr41 Pr 0.22348 0.76438 0.83561 0.0
C42 C 0.31871 0.72887 0.60865 0.0
C43 C 0.30452 0.73311 0.54025 0.0
C44 C 0.34097 0.72868 0.49859 0.0
C45 C 0.32836 0.73497 0.43406 0.0
C46 C 0.27908 0.74575 0.41044 0.0
C47 C 0.24248 0.7498 0.45205 0.0
C48 C 0.25514 0.74365 0.51661 0.0
C49 C 0.31792 0.8289 0.81648 0.0
C50 C 0.18583 0.8297 0.71549 0.0
C51 C 0.18461 0.79024 0.94537 0.0
C52 C 0.1991 0.78684 1.01419 0.0
C53 C 0.16341 0.77014 0.05002 0.0
C54 C 0.17682 0.76442 0.11457 0.0
C55 C 0.2261 0.77549 0.14426 0.0
C56 C 0.26178 0.7927 0.10881 0.0
C57 C 0.24846 0.7982 0.04412 0.0
C58 C 0.18658 0.68736 0.73978 0.0
C59 C 0.31607 0.68837 0.83661 0.0
O60 O 0.29144 0.6978 0.63356 0.0
O61 O 0.32976 0.7711 0.64599 0.0
O62 O 0.30343 0.78566 0.82326 0.0
O63 O 0.31415 0.83487 0.7563 0.0
O64 O 0.18891 0.82845 0.77802 0.0
O65 O 0.21152 0.79965 0.67916 0.0
O66 O 0.21081 0.82146 0.91926 0.0
O67 O 0.17323 0.74781 0.90853 0.0
O68 O 0.19899 0.73087 0.73067 0.0
O69 O 0.19001 0.68323 0.80041 0.0
O70 O 0.31299 0.68992 0.77421 0.0
O71 O 0.29097 0.71884 0.87342 0.0
H72 H 0.37929 0.72085 0.51614 0.0
H73 H 0.35703 0.73178 0.4026 0.0
H74 H 0.2043 0.75816 0.4346 0.0
H75 H 0.22657 0.74755 0.54821 0.0
H76 H 0.12526 0.76098 0.02782 0.0
H77 H 0.14889 0.75104 0.1413 0.0
H78 H 0.30001 0.8013 0.13106 0.0
H79 H 0.27682 0.8108 1.01743 0.0
Pr80 Pr 0.53247 0.98846 0.09805 0.0
Pr81 Pr 0.48107 0.02432 0.97021 0.0
C82 C 0.57795 0.98197 0.2173 0.0
C83 C 0.56397 0.98384 0.28226 0.0
C84 C 0.5174 0.96424 0.29232 0.0
C85 C 0.50433 0.96736 0.35426 0.0
C86 C 0.53743 0.99049 0.40671 0.0
C87 C 0.58387 0.01015 0.39674 0.0
C88 C 0.59709 0.00675 0.33484 0.0
C89 C 0.45402 0.92724 0.02931 0.0
C90 C 0.43839 0.06901 0.10195 0.0
C91 C 0.43655 0.02918 0.85 0.0
C92 C 0.45168 0.02195 0.78557 0.0
C93 C 0.50258 0.02325 0.77756 0.0
C94 C 0.51674 0.01702 0.7161 0.0
C95 C 0.48013 0.00928 0.66199 0.0
C96 C 0.42927 0.0073 0.67005 0.0
C97 C 0.41513 0.0136 0.73157 0.0
C98 C 0.56206 0.08495 0.03474 0.0
C99 C 0.57752 0.94672 0.96803 0.0
O100 O 0.57531 0.02408 0.19234 0.0
O101 O 0.5618 0.94273 0.17623 0.0
O102 O 0.45527 0.97431 0.0384 0.0
O103 O 0.49172 0.90964 0.06343 0.0
O104 O 0.4266 0.05975 0.03906 0.0
O105 O 0.47803 0.0502 0.13305 0.0
O106 O 0.4345 0.98891 0.87836 0.0
O107 O 0.45673 0.06828 0.88833 0.0
O108 O 0.55931 0.03778 0.02805 0.0
O109 O 0.522 0.1022 1.00511 0.0
O110 O 0.59002 0.96007 0.03014 0.0
O111 O 0.53585 0.9617 0.93656 0.0
H112 H 0.49105 0.94686 0.25232 0.0
H113 H 0.46823 0.95227 0.36129 0.0
H114 H 0.60969 0.02827 0.43681 0.0
H115 H 0.63302 0.02234 0.32793 0.0
H116 H 0.53124 0.02948 0.81883 0.0
H117 H 0.55614 0.01858 0.71065 0.0
H118 H 0.40062 1.0013 0.6287 0.0
H119 H 0.37571 0.01225 0.73699 0.0
Pr120 Pr 0.28511 0.27449 0.34372 0.0
Pr121 Pr 0.22128 0.22905 0.20805 0.0
C122 C 0.29955 0.31422 0.46816 0.0
C123 C 0.28985 0.29933 0.53073 0.0
C124 C 0.31145 0.25689 0.55435 0.0
C125 C 0.30179 0.24376 0.61358 0.0
C126 C 0.27023 0.27261 0.65027 0.0
C127 C 0.24831 0.3147 0.62656 0.0
C128 C 0.25809 0.32795 0.5675 0.0
C129 C 0.33374 0.20355 0.27116 0.0
C130 C 0.20358 0.1764 0.33671 0.0
C131 C 0.1976 0.18986 0.08395 0.0
C132 C 0.20945 0.20017 1.02019 0.0
C133 C 0.17069 0.21179 0.97371 0.0
C134 C 0.181 0.22282 0.91384 0.0
C135 C 0.23027 0.22201 0.89882 0.0
C136 C 0.26905 0.20974 0.94483 0.0
C137 C 0.25881 0.19907 1.00496 0.0
C138 C 0.17341 0.29932 0.2836 0.0
C139 C 0.30854 0.32284 0.21475 0.0
O140 O 0.26011 0.32293 0.4284 0.0
O141 O 0.33462 0.29127 0.43938 0.0
O142 O 0.28698 0.2031 0.27409 0.0
O143 O 0.35761 0.23713 0.31504 0.0
O144 O 0.1892 0.17601 0.27429 0.0
O145 O 0.24067 0.20581 0.36843 0.0
O146 O 0.23327 0.17274 0.12296 0.0
O147 O 0.16995 0.22233 0.11345 0.0
O148 O 0.21959 0.30048 0.27769 0.0
O149 O 0.14902 0.26467 0.24205 0.0
O150 O 0.31761 0.32777 0.27838 0.0
O151 O 0.27494 0.29018 0.18107 0.0
H152 H 0.33584 0.23379 0.52718 0.0
H153 H 0.31904 0.21112 0.63094 0.0
H154 H 0.22378 0.33743 0.65398 0.0
H155 H 0.2408 0.36071 0.55048 0.0
H156 H 0.13232 0.21264 0.98389 0.0
H157 H 0.15049 0.23211 0.87916 0.0
H158 H 0.30732 0.20884 0.93433 0.0
H159 H 0.2896 0.19021 0.0395 0.0
Pr160 Pr 0.79973 0.24578 0.19006 0.0
Pr161 Pr 0.74646 0.27824 0.31205 0.0
C162 C 0.82452 0.21936 0.07199 0.0
C163 C 0.8069 0.22774 1.00502 0.0
C164 C 0.82643 0.26861 0.97968 0.0
C165 C 0.81087 0.27637 0.91638 0.0
C166 C 0.77581 0.24326 0.87696 0.0
C167 C 0.75608 0.20242 0.90173 0.0
C168 C 0.77156 0.19464 0.96527 0.0
C169 C 0.85577 0.31172 0.28654 0.0
C170 C 0.71091 0.33082 0.18068 0.0
C171 C 0.71631 0.32133 0.42157 0.0
C172 C 0.72155 0.31104 0.48914 0.0
C173 C 0.68176 0.28807 0.51273 0.0
C174 C 0.68739 0.27625 0.57559 0.0
C175 C 0.73274 0.28762 0.61603 0.0
C176 C 0.77214 0.31148 0.59322 0.0
C177 C 0.76663 0.32318 0.53045 0.0
C178 C 0.70402 0.19452 0.23041 0.0
C179 C 0.82785 0.1886 0.3171 0.0
O180 O 0.79672 0.19037 0.09956 0.0
O181 O 0.84462 0.25827 0.11083 0.0
O182 O 0.80942 0.31342 0.26828 0.0
O183 O 0.87459 0.27483 0.25305 0.0
O184 O 0.70376 0.32767 0.24058 0.0
O185 O 0.74551 0.30578 0.15254 0.0
O186 O 0.75705 0.33559 0.40039 0.0
O187 O 0.68753 0.29026 0.37915 0.0
O188 O 0.72114 0.23387 0.21422 0.0
O189 O 0.70602 0.19817 0.29245 0.0
O190 O 0.82039 0.18129 0.25355 0.0
O191 O 0.81022 0.22764 0.35032 0.0
H192 H 0.85403 0.29458 1.00862 0.0
H193 H 0.82656 0.30798 0.89787 0.0
H194 H 0.72906 0.17644 0.87174 0.0
H195 H 0.75608 0.1626 0.98307 0.0
H196 H 0.64648 0.27865 0.48233 0.0
H197 H 0.6566 0.25787 0.59256 0.0
H198 H 0.80736 0.32057 0.62391 0.0
H199 H 0.79798 0.3412 0.51422 0.0
Pr200 Pr 0.79104 0.7688 0.84086 0.0
Pr201 Pr 0.72037 0.74296 0.71436 0.0
C202 C 0.81976 0.79531 0.96814 0.0
C203 C 0.80573 0.78387 0.03081 0.0
C204 C 0.82376 0.74169 0.05868 0.0
C205 C 0.81076 0.73206 0.1181 0.0
C206 C 0.77969 0.76448 0.15118 0.0
C207 C 0.76169 0.80654 0.12356 0.0
C208 C 0.77467 0.81622 0.0643 0.0
C209 C 0.83226 0.70294 0.7521 0.0
C210 C 0.6999 0.67948 0.83179 0.0
C211 C 0.68126 0.72378 0.5893 0.0
C212 C 0.69825 0.72778 0.52587 0.0
C213 C 0.71452 0.77416 0.51015 0.0
C214 C 0.7283 0.77807 0.44947 0.0
C215 C 0.72653 0.73573 0.40301 0.0
C216 C 0.71115 0.6892 0.41885 0.0
C217 C 0.69694 0.68533 0.4795 0.0
C218 C 0.68229 0.81018 0.80479 0.0
C219 C 0.81529 0.82834 0.7242 0.0
O220 O 0.78761 0.82001 0.93338 0.0
O221 O 0.84215 0.76114 0.9334 0.0
O222 O 0.78656 0.70085 0.76112 0.0
O223 O 0.85816 0.73782 0.79184 0.0
O224 O 0.68245 0.68847 0.7732 0.0
O225 O 0.74199 0.70135 0.86138 0.0
O226 O 0.70008 0.68874 0.62206 0.0
O227 O 0.67561 0.76579 0.62563 0.0
O228 O 0.72675 0.81096 0.7922 0.0
O229 O 0.65458 0.77594 0.76699 0.0
O230 O 0.82178 0.831 0.78735 0.0
O231 O 0.78406 0.7948 0.68794 0.0
H232 H 0.84796 0.71609 0.03467 0.0
H233 H 0.82515 0.6994 0.13848 0.0
H234 H 0.73779 0.83215 0.14816 0.0
H235 H 0.76037 0.84924 0.04474 0.0
H236 H 0.71622 0.80771 0.54451 0.0
H237 H 0.74015 0.81431 0.43859 0.0
H238 H 0.70961 0.65598 0.38394 0.0
H239 H 0.68458 0.64916 0.49004 0.0
Pr240 Pr 0.48374 0.47235 0.95519 0.0
Pr241 Pr 0.51435 0.53847 0.09275 0.0
C242 C 0.44344 0.43924 0.83378 0.0
C243 C 0.45459 0.44911 0.76949 0.0
C244 C 0.46014 0.40925 0.72154 0.0
C245 C 0.47051 0.41862 0.66083 0.0
C246 C 0.47548 0.46806 0.64702 0.0
C247 C 0.47001 0.50786 0.69482 0.0
C248 C 0.45967 0.49855 0.75529 0.0
C249 C 0.56992 0.44381 0.02952 0.0
C250 C 0.56975 0.5641 0.96726 0.0
C251 C 0.53776 0.56972 0.21961 0.0
C252 C 0.53233 0.55089 0.28108 0.0
C253 C 0.55175 0.57955 0.33931 0.0
C254 C 0.54375 0.564 0.39794 0.0
C255 C 0.51611 0.51951 0.39934 0.0
C256 C 0.49749 0.49031 0.34106 0.0
C257 C 0.50553 0.50587 0.28244 0.0
C258 C 0.44969 0.58354 1.00522 0.0
C259 C 0.42826 0.4432 0.07669 0.0
O260 O 0.426 0.47674 0.86909 0.0
O261 O 0.47566 0.41327 0.867 0.0
O262 O 0.53032 0.45866 0.05034 0.0
O263 O 0.56457 0.43986 0.96722 0.0
O264 O 0.57335 0.56871 0.03104 0.0
O265 O 0.53562 0.5342 0.93048 0.0
O266 O 0.56958 0.54736 0.18462 0.0
O267 O 0.49608 0.58041 0.18558 0.0
O268 O 0.44979 0.53766 1.0119 0.0
O269 O 0.48004 0.60903 0.05107 0.0
O270 O 0.4312 0.43231 1.01459 0.0
O271 O 0.45523 0.47986 0.11366 0.0
H272 H 0.45629 0.37086 0.73098 0.0
H273 H 0.47444 0.38736 0.62454 0.0
H274 H 0.47361 0.54624 0.68521 0.0
H275 H 0.45541 0.53019 0.79084 0.0
H276 H 0.57241 0.61445 0.33944 0.0
H277 H 0.55845 0.58709 0.44224 0.0
H278 H 0.47609 0.45589 0.34099 0.0
H279 H 0.49013 0.48314 0.23823 0.0
Pr280 Pr 0.02989 0.46833 0.59864 0.0
Pr281 Pr 0.97894 0.50752 0.46857 0.0
C282 C 0.07236 0.46528 0.71988 0.0
C283 C 0.05406 0.47225 0.78327 0.0
C284 C 0.02271 0.43616 0.80161 0.0
C285 C 1.0022 0.44527 0.85902 0.0
C286 C 0.00981 0.49199 0.89867 0.0
C287 C 0.04702 0.52474 0.88361 0.0
C288 C 0.06761 0.51572 0.82619 0.0
C289 C 0.95025 0.40899 0.53004 0.0
C290 C 0.93751 0.55182 0.60405 0.0
C291 C 0.93038 0.51295 0.35021 0.0
C292 C 0.94038 0.51021 0.28344 0.0
C293 C 0.90438 0.527 0.23773 0.0
C294 C 0.91311 0.52527 0.17407 0.0
C295 C 0.95798 0.5066 0.1552 0.0
C296 C 0.99408 0.48959 0.20082 0.0
C297 C 0.98536 0.49143 0.26474 0.0
C298 C 0.05904 0.56625 0.5357 0.0
C299 C 0.07322 0.42712 0.46464 0.0
O300 O 0.07432 0.50544 0.691 0.0
O301 O 0.05631 0.42494 0.68058 0.0
O302 O 0.95299 0.45643 0.53747 0.0
O303 O 0.98844 0.39134 0.56342 0.0
O304 O 0.93061 0.54976 0.54081 0.0
O305 O 0.97044 0.52403 0.63401 0.0
O306 O 0.9342 0.47141 0.37621 0.0
O307 O 0.94885 0.55235 0.38925 0.0
O308 O 0.05461 0.51926 0.53057 0.0
O309 O 0.02566 0.58368 0.49494 0.0
O310 O 0.08463 0.43522 0.52788 0.0
O311 O 0.03388 0.4464 0.43348 0.0
H312 H 0.01372 0.40071 0.77158 0.0
H313 H 0.98096 0.41463 0.87174 0.0
H314 H 0.06169 0.55734 0.91589 0.0
H315 H 0.09417 0.543 0.81528 0.0
H316 H 0.86952 0.54161 0.25136 0.0
H317 H 0.88493 0.53859 0.13943 0.0
H318 H 0.02892 0.47514 0.18699 0.0
H319 H 0.01363 0.47839 0.29951 0.0
C320 C 0.12812 0.14091 0.46641 0.0
C321 C 0.11898 0.08865 0.44734 0.0
C322 C 0.16518 0.09335 0.35522 0.0
C323 C 0.17557 0.14541 0.37526 0.0
N324 N 0.17458 0.21637 0.45894 0.0
N325 N 0.13948 0.01313 0.38373 0.0
C326 C 0.16007 0.16814 0.43392 0.0
C327 C 0.14046 0.06436 0.39445 0.0
N328 N 0.10306 0.16616 0.51205 0.0
N329 N 0.17947 0.07111 0.29921 0.0
H330 H 0.12387 0.99074 0.4132 0.0
H331 H 0.15855 0.99266 0.35008 0.0
H332 H 0.2026 0.08878 0.27268 0.0
H333 H 0.16659 0.03558 0.27741 0.0
H334 H 0.10273 0.20508 0.52102 0.0
H335 H 0.0785 0.14941 0.53737 0.0
H336 H 0.17319 0.23044 0.50672 0.0
H337 H 0.18884 0.24266 0.43368 0.0
C338 C 0.13623 0.92477 0.60722 0.0
C339 C 0.08481 0.90836 0.59275 0.0
C340 C 0.09876 0.84882 0.67202 0.0
C341 C 0.15027 0.8627 0.68286 0.0
N342 N 0.21935 0.91342 0.6635 0.0
N343 N 0.01935 0.84837 0.60495 0.0
C344 C 0.16918 0.90113 0.65183 0.0
C345 C 0.06676 0.86859 0.62324 0.0
N346 N 0.15431 0.96121 0.57608 0.0
N347 N 0.08 0.81725 0.70942 0.0
H348 H 0.99136 0.86454 0.57661 0.0
H349 H 0.00772 0.81408 0.61685 0.0
H350 H 0.10215 0.80185 0.74551 0.0
H351 H 0.0419 0.81 0.70912 0.0
H352 H 0.18832 0.9807 0.59098 0.0
H353 H 0.13574 0.97182 0.53398 0.0
H354 H 0.23774 0.9367 0.6379 0.0
H355 H 0.24348 0.89918 0.69899 0.0
C356 C 0.33487 0.88929 0.91624 0.0
C357 C 0.35359 0.85791 0.86682 0.0
C358 C 0.43821 0.86647 0.92655 0.0
C359 C 0.41946 0.89806 0.97665 0.0
N360 N 0.3487 0.92896 0.02636 0.0
N361 N 0.42316 0.8225 0.81831 0.0
C362 C 0.3674 0.90683 0.97323 0.0
C363 C 0.40529 0.84805 0.87017 0.0
N364 N 0.28634 0.90387 0.90735 0.0
N365 N 0.48686 0.85228 0.93356 0.0
H366 H 0.40018 0.80716 0.77684 0.0
H367 H 0.46099 0.81948 0.81371 0.0
H368 H 0.51269 0.86496 0.97295 0.0
H369 H 0.50122 0.82454 0.90296 0.0
H370 H 0.2714 0.93072 0.93862 0.0
H371 H 0.26212 0.8924 0.86526 0.0
H372 H 0.31062 0.93208 0.02948 0.0
H373 H 0.37122 0.93958 0.07005 0.0
C374 C 0.3608 0.09136 0.15197 0.0
C375 C 0.40916 0.10506 0.13959 0.0
C376 C 0.40452 0.18615 0.20504 0.0
C377 C 0.35922 0.16961 0.22511 0.0
N378 N 0.30272 0.0995 0.22967 0.0
N379 N 0.48055 0.16279 0.16172 0.0
C380 C 0.33925 0.12044 0.20148 0.0
C381 C 0.43214 0.15149 0.16872 0.0
N382 N 0.33579 0.05007 0.11759 0.0
N383 N 0.42025 0.23543 0.21724 0.0
H384 H 0.50096 0.14035 0.13157 0.0
H385 H 0.50148 0.19258 0.1894 0.0
H386 H 0.39964 0.2638 0.23806 0.0
H387 H 0.45041 0.24973 0.19829 0.0
H388 H 0.29843 0.04122 0.12052 0.0
H389 H 0.35086 0.02758 0.08169 0.0
H390 H 0.29 0.06234 0.21736 0.0
H391 H 0.29003 0.1165 0.27111 0.0
C392 C 0.9239 0.9024 0.67637 0.0
C393 C 0.89977 0.92283 0.62164 0.0
C394 C 0.81891 0.88904 0.64312 0.0
C395 C 0.84422 0.86299 0.69154 0.0
N396 N 0.9227 0.83769 0.74504 0.0
N397 N 0.82346 0.93405 0.55189 0.0
C398 C 0.89709 0.86811 0.70609 0.0
C399 C 0.84708 0.91522 0.60434 0.0
N400 N 0.97265 0.91513 0.70079 0.0
N401 N 0.76783 0.89141 0.63681 0.0
H402 H 0.841 0.95833 0.52659 0.0
H403 H 0.78682 0.92377 0.53166 0.0
H404 H 0.74609 0.87511 0.66637 0.0
H405 H 0.74728 0.91373 0.60696 0.0
H406 H 0.98846 0.90804 0.74618 0.0
H407 H 0.99733 0.93428 0.67803 0.0
H408 H 0.96157 0.83533 0.75065 0.0
H409 H 0.90544 0.81099 0.76684 0.0
C410 C 0.94287 0.13366 0.40264 0.0
C411 C 0.92112 0.11175 0.45083 0.0
C412 C 0.83711 0.12813 0.398 0.0
C413 C 0.85909 0.15411 0.35401 0.0
N414 N 0.93206 0.17875 0.30986 0.0
N415 N 0.84763 0.09305 0.49855 0.0
C416 C 0.91172 0.15523 0.35436 0.0
C417 C 0.86816 0.10964 0.44909 0.0
N418 N 0.9935 0.13354 0.40275 0.0
N419 N 0.78629 0.12026 0.3897 0.0
H420 H 0.8689 0.08045 0.5377 0.0
H421 H 0.80989 0.09573 0.50399 0.0
H422 H 0.76303 0.13264 0.35195 0.0
H423 H 0.76768 0.09748 0.41578 0.0
H424 H 0.01196 0.14177 0.36511 0.0
H425 H 0.01769 0.12399 0.44089 0.0
H426 H 0.97002 0.18722 0.31144 0.0
H427 H 0.9106 0.19073 0.27058 0.0
C428 C 0.6224 0.18783 0.16068 0.0
C429 C 0.66566 0.16383 0.18571 0.0
C430 C 0.64734 0.09292 0.10119 0.0
C431 C 0.60252 0.11585 0.07806 0.0
N432 N 0.56254 0.1948 0.06747 0.0
N433 N 0.71703 0.0918 0.18639 0.0
C434 C 0.59417 0.16618 0.10239 0.0
C435 C 0.67744 0.11572 0.15793 0.0
N436 N 0.60817 0.23128 0.19324 0.0
N437 N 0.66376 0.05244 0.06496 0.0
H438 H 0.73949 0.108 0.22798 0.0
H439 H 0.72495 0.05462 0.17242 0.0
H440 H 0.64668 0.04006 1.01851 0.0
H441 H 0.69766 0.03559 0.07652 0.0
H442 H 0.57462 0.24845 0.18051 0.0
H443 H 0.62757 0.24754 0.23698 0.0
H444 H 0.55647 0.23234 0.082 0.0
H445 H 0.54865 0.18391 1.01954 0.0
C446 C 0.6468 0.8948 0.83105 0.0
C447 C 0.66183 0.84822 0.85032 0.0
C448 C 0.62586 0.8679 0.95055 0.0
C449 C 0.61123 0.91491 0.9316 0.0
N450 N 0.62034 0.97876 0.86349 0.0
N451 N 0.67594 0.79503 0.93332 0.0
C452 C 0.62543 0.93005 0.8746 0.0
C453 C 0.65457 0.83632 0.9117 0.0
N454 N 0.6515 0.90475 0.7705 0.0
N455 N 0.61042 0.85202 1.00379 0.0
H456 H 0.6972 0.77162 0.9058 0.0
H457 H 0.67697 0.78677 0.98005 0.0
H458 H 0.59067 0.87382 0.03536 0.0
H459 H 0.61382 0.81546 1.01456 0.0
H460 H 0.63565 0.93538 0.75099 0.0
H461 H 0.6684 0.88046 0.738 0.0
H462 H 0.63403 0.99327 0.82573 0.0
H463 H 0.60701 0.00608 0.89592 0.0
C464 C 0.59075 0.60166 0.86861 0.0
C465 C 0.6045 0.593 0.93363 0.0
C466 C 0.68024 0.64512 0.93552 0.0
C467 C 0.67023 0.64647 0.86736 0.0
N468 N 0.62438 0.60243 0.76942 0.0
N469 N 0.67527 0.59078 1.01643 0.0
C470 C 0.62821 0.61741 0.83379 0.0
C471 C 0.65317 0.60978 0.96346 0.0
N472 N 0.54226 0.59722 0.83969 0.0
N473 N 0.71313 0.67777 0.97553 0.0
H474 H 0.66001 0.56037 0.0337 0.0
H475 H 0.71223 0.60006 0.03655 0.0
H476 H 0.73079 0.70866 0.96286 0.0
H477 H 0.7176 0.67808 0.02513 0.0
H478 H 0.53196 0.60614 0.79342 0.0
H479 H 0.51188 0.59196 0.86388 0.0
H480 H 0.59481 0.57918 0.74486 0.0
H481 H 0.65407 0.60609 0.74325 0.0
C482 C 0.64359 0.3349 0.08789 0.0
C483 C 0.67583 0.36008 0.14128 0.0
C484 C 0.64221 0.44061 0.11699 0.0
C485 C 0.60711 0.41512 0.06715 0.0
N486 N 0.56791 0.33727 1.01302 0.0
N487 N 0.70326 0.43617 0.21075 0.0
C488 C 0.60622 0.36206 0.0544 0.0
C489 C 0.67421 0.41273 0.1572 0.0
N490 N 0.64838 0.28491 0.06901 0.0
N491 N 0.64636 0.49162 0.12423 0.0
H492 H 0.72981 0.41776 0.23885 0.0
H493 H 0.69917 0.47328 0.22957 0.0
H494 H 0.62266 0.51295 0.0967 0.0
H495 H 0.67507 0.51258 0.15404 0.0
H496 H 0.63135 0.26656 0.02516 0.0
H497 H 0.67165 0.26203 0.09499 0.0
H498 H 0.562 0.29855 1.00727 0.0
H499 H 0.539 0.35542 0.98849 0.0
C500 C 0.93756 0.33412 0.44574 0.0
C501 C 0.91895 0.37889 0.47479 0.0
C502 C 0.85981 0.38282 0.37735 0.0
C503 C 0.88209 0.34028 0.3469 0.0
N504 N 0.9581 0.29323 0.34618 0.0
N505 N 0.85099 0.43543 0.47696 0.0
C506 C 0.92551 0.32079 0.37912 0.0
C507 C 0.87655 0.40028 0.44307 0.0
N508 N 0.96439 0.3026 0.48164 0.0
N509 N 0.82646 0.40946 0.34185 0.0
H510 H 0.86073 0.44581 0.52616 0.0
H511 H 0.81716 0.44966 0.45868 0.0
H512 H 0.81858 0.40162 0.29213 0.0
H513 H 0.81174 0.44303 0.35979 0.0
H514 H 0.97578 0.26788 0.46175 0.0
H515 H 0.96796 0.30724 0.53153 0.0
H516 H 0.99168 0.28118 0.3687 0.0
H517 H 0.95634 0.29001 0.29655 0.0
C518 C 0.89967 0.63974 0.74526 0.0
C519 C 0.85685 0.6617 0.71548 0.0
C520 C 0.86037 0.60268 0.6187 0.0
C521 C 0.90878 0.58806 0.64374 0.0
N522 N 0.97975 0.60671 0.72852 0.0
N523 N 0.80512 0.67208 0.61667 0.0
C524 C 0.93006 0.61025 0.70654 0.0
C525 C 0.83945 0.64541 0.65013 0.0
N526 N 0.91114 0.64598 0.81045 0.0
N527 N 0.83314 0.57512 0.56684 0.0
H528 H 0.79213 0.70576 0.63702 0.0
H529 H 0.79465 0.66376 0.56732 0.0
H530 H 0.84433 0.54058 0.54637 0.0
H531 H 0.79641 0.58337 0.55014 0.0
H532 H 0.93991 0.62697 0.834 0.0
H533 H 0.88827 0.66486 0.84092 0.0
H534 H 0.99641 0.6257 0.77226 0.0
H535 H 0.00596 0.5914 0.70052 0.0
C536 C 0.33746 0.40713 0.18866 0.0
C537 C 0.33796 0.3539 0.17797 0.0
C538 C 0.3988 0.35933 0.10182 0.0
C539 C 0.39502 0.41214 0.10832 0.0
N540 N 0.3521 0.48534 0.14736 0.0
N541 N 0.36051 0.27965 0.11109 0.0
C542 C 0.36202 0.43582 0.14901 0.0
C543 C 0.36553 0.33014 0.13011 0.0
N544 N 0.31291 0.43053 0.2359 0.0
N545 N 0.43649 0.33689 0.07259 0.0
H546 H 0.34028 0.25503 0.13277 0.0
H547 H 0.37449 0.26235 0.07059 0.0
H548 H 0.4634 0.35669 0.05386 0.0
H549 H 0.44444 0.29917 0.07329 0.0
H550 H 0.31672 0.46887 0.25134 0.0
H551 H 0.29094 0.41144 0.26244 0.0
H552 H 0.32463 0.50361 0.17084 0.0
H553 H 0.36761 0.50705 0.1171 0.0
C554 C 0.43473 0.64645 0.92658 0.0
C555 C 0.41583 0.60664 0.95625 0.0
C556 C 0.33193 0.61528 0.89707 0.0
C557 C 0.35125 0.65476 0.8683 0.0
N558 N 0.42183 0.70093 0.84366 0.0
N559 N 0.3462 0.55158 0.96765 0.0
C560 C 0.40291 0.66803 0.87927 0.0
C561 C 0.36453 0.59008 0.94016 0.0
N562 N 0.48283 0.66492 0.94446 0.0
N563 N 0.28167 0.60349 0.88497 0.0
H564 H 0.36449 0.53817 1.00801 0.0
H565 H 0.31239 0.5323 0.95044 0.0
H566 H 0.25774 0.61864 0.85012 0.0
H567 H 0.26303 0.58001 0.91007 0.0
H568 H 0.49565 0.69902 0.93334 0.0
H569 H 0.51025 0.64731 0.97192 0.0
H570 H 0.45996 0.7077 0.84348 0.0
H571 H 0.3996 0.71835 0.80952 0.0
C572 C 0.17476 0.61506 0.65233 0.0
C573 C 0.15382 0.65384 0.69089 0.0
C574 C 0.07191 0.63804 0.62578 0.0
C575 C 0.09203 0.59751 0.58796 0.0
N576 N 0.16204 0.5457 0.56659 0.0
N577 N 0.08151 0.69546 0.72443 0.0
C578 C 0.14327 0.58532 0.60196 0.0
C579 C 0.10219 0.6635 0.68035 0.0
N580 N 0.22512 0.60765 0.66306 0.0
N581 N 0.02392 0.65266 0.61027 0.0
H582 H 0.10237 0.71459 0.76544 0.0
H583 H 0.04312 0.69975 0.72388 0.0
H584 H 0.99705 0.63225 0.57716 0.0
H585 H 0.01076 0.68677 0.62921 0.0
H586 H 0.24451 0.58451 0.63238 0.0
H587 H 0.24841 0.62657 0.70211 0.0
H588 H 0.19649 0.53031 0.5795 0.0
H589 H 0.14269 0.52692 0.52444 0.0
C590 C 0.15791 0.38547 0.3387 0.0
C591 C 0.14966 0.33256 0.33215 0.0
C592 C 0.10092 0.34268 0.42295 0.0
C593 C 0.1051 0.39532 0.42534 0.0
N594 N 0.13315 0.4678 0.38229 0.0
N595 N 0.10431 0.26179 0.36069 0.0
C596 C 0.1327 0.417 0.38259 0.0
C597 C 0.11854 0.31144 0.37203 0.0
N598 N 0.1886 0.40586 0.30166 0.0
N599 N 0.08036 0.32227 0.46974 0.0
H600 H 0.11829 0.23586 0.32761 0.0
H601 H 0.07635 0.24627 0.38242 0.0
H602 H 0.0662 0.34375 0.50727 0.0
H603 H 0.08144 0.28431 0.47476 0.0
H604 H 0.20193 0.44294 0.31043 0.0
H605 H 0.20227 0.38545 0.26296 0.0
H606 H 0.14687 0.48576 0.34721 0.0
H607 H 0.11702 0.4922 0.41541 0.0
C608 C 0.97256 0.99113 0.97096 0.0
C609 C 0.00871 0.02921 0.96694 0.0
C610 C 0.02313 0.04651 0.08459 0.0
C611 C 0.99064 0.00525 0.08856 0.0
N612 N 0.94152 0.93246 0.0355 0.0
N613 N 0.07512 0.08707 1.01982 0.0
C614 C 0.96729 0.97592 0.03168 0.0
C615 C 0.03589 0.05526 1.02379 0.0
N616 N 0.94203 0.9706 0.91702 0.0
N617 N 0.04057 0.07833 0.1387 0.0
H618 H 0.086 0.09408 0.97632 0.0
H619 H 0.09969 0.103 0.05952 0.0
H620 H 0.03177 0.07346 0.18397 0.0
H621 H 0.06002 0.11196 0.13799 0.0
H622 H 0.91148 0.94662 0.91791 0.0
H623 H 0.94434 0.98099 0.87177 0.0
H624 H 0.92834 0.90674 0.99568 0.0
H625 H 0.9372 0.91973 0.07892 0.0
C626 C 0.2582 0.80264 0.32602 0.0
C627 C 0.2659 0.75345 0.34211 0.0
C628 C 0.25244 0.71958 0.22803 0.0
C629 C 0.24047 0.76811 0.21242 0.0
N630 N 0.22516 0.85478 0.24604 0.0
N631 N 0.26333 0.66414 0.31009 0.0
C632 C 0.24146 0.8094 0.26132 0.0
C633 C 0.26118 0.71161 0.29352 0.0
N634 N 0.26852 0.84301 0.37229 0.0
N635 N 0.25659 0.68139 0.18017 0.0
H636 H 0.26979 0.65681 0.35751 0.0
H637 H 0.25475 0.63199 0.27738 0.0
H638 H 0.24966 0.68561 0.13165 0.0
H639 H 0.27067 0.64664 0.18836 0.0
H640 H 0.26892 0.87994 0.36254 0.0
H641 H 0.28078 0.83957 0.4202 0.0
H642 H 0.21946 0.88481 0.28006 0.0
H643 H 0.21364 0.8614 0.19904 0.0
C644 C 0.4887 0.04516 0.5603 0.0
C645 C 0.49506 1.00438 0.59663 0.0
C646 C 0.53306 0.95604 0.51044 0.0
C647 C 0.5229 0.9952 0.47219 0.0
N648 N 0.48525 0.07409 0.45619 0.0
N649 N 0.51672 0.91855 0.60411 0.0
C650 C 0.49901 0.03895 0.49584 0.0
C651 C 0.51555 0.9591 0.57115 0.0
N652 N 0.47453 0.0904 0.58823 0.0
N653 N 0.56033 0.91642 0.48918 0.0
H654 H 0.50446 0.91949 0.64884 0.0
H655 H 0.52615 0.8829 0.58523 0.0
H656 H 0.57261 0.9123 0.44426 0.0
H657 H 0.57395 0.88953 0.51761 0.0
H658 H 0.47455 0.12307 0.56674 0.0
H659 H 0.4666 0.09642 0.63533 0.0
H660 H 0.46258 0.10387 0.46807 0.0
H661 H 0.49338 0.07154 0.4092 0.0
C662 C 0.22364 0.20188 0.77814 0.0
C663 C 0.24119 0.23453 0.83506 0.0
C664 C 0.28225 0.28907 0.77125 0.0
C665 C 0.26052 0.25914 0.71398 0.0
N666 N 0.2038 0.19154 0.66222 0.0
N667 N 0.27976 0.31391 0.88464 0.0
C668 C 0.22933 0.21673 0.71724 0.0
C669 C 0.26854 0.27943 0.83129 0.0
N670 N 0.20307 0.15585 0.78232 0.0
N671 N 0.31721 0.32585 0.7685 0.0
H672 H 0.26992 0.30865 0.92929 0.0
H673 H 0.29478 0.34962 0.88351 0.0
H674 H 0.32832 0.334 0.72558 0.0
H675 H 0.33842 0.34527 0.80896 0.0
H676 H 0.19435 0.12832 0.74309 0.0
H677 H 0.19881 0.14336 0.8259 0.0
H678 H 0.17623 0.16389 0.66182 0.0
H679 H 0.20705 0.20115 0.61683 0.0
C680 C 0.72603 0.28852 0.79475 0.0
C681 C 0.76086 0.25123 0.80914 0.0
C682 C 0.76983 0.23212 0.69518 0.0
C683 C 0.73986 0.27345 0.68202 0.0
N684 N 0.69307 0.34437 0.71935 0.0
N685 N 0.82016 0.19069 0.77506 0.0
C686 C 0.71861 0.30242 0.73177 0.0
C687 C 0.78373 0.22364 0.75982 0.0
N688 N 0.69947 0.30998 0.84115 0.0
N689 N 0.78406 0.20038 0.64566 0.0
H690 H 0.83079 0.18276 0.82169 0.0
H691 H 0.84243 0.17389 0.7424 0.0
H692 H 0.77457 0.20547 0.5977 0.0
H693 H 0.80144 0.16669 0.65155 0.0
H694 H 0.66982 0.33357 0.83222 0.0
H695 H 0.70428 0.30086 0.88786 0.0
H696 H 0.68155 0.37021 0.75485 0.0
H697 H 0.68645 0.35547 0.67375 0.0
C698 C 0.791 0.75237 0.33083 0.0
C699 C 0.74053 0.74059 0.33776 0.0
C700 C 0.71726 0.73811 0.22106 0.0
C701 C 0.76652 0.75505 0.21532 0.0
N702 N 0.84835 0.78593 0.26653 0.0
N703 N 0.65389 0.72963 0.29071 0.0
C704 C 0.80291 0.76417 0.27074 0.0
C705 C 0.70319 0.73525 0.2831 0.0
N706 N 0.82791 0.75078 0.38125 0.0
N707 N 0.68416 0.72365 0.16704 0.0
H708 H 0.64192 0.72779 0.33514 0.0
H709 H 0.62448 0.73107 0.25394 0.0
H710 H 0.69278 0.72595 0.12101 0.0
H711 H 0.64978 0.70555 0.16745 0.0
H712 H 0.86595 0.7538 0.37742 0.0
H713 H 0.82079 0.74179 0.42567 0.0
H714 H 0.87426 0.79884 0.30634 0.0
H715 H 0.85856 0.7951 0.22359 0.0
C716 C 0.53501 0.47589 0.56572 0.0
C717 C 0.48559 0.47861 0.5822 0.0
C718 C 0.45673 0.51035 0.48031 0.0
C719 C 0.50537 0.50439 0.46189 0.0
N720 N 0.5887 0.47356 0.48203 0.0
N721 N 0.39765 0.48994 0.551 0.0
C722 C 0.54394 0.48486 0.50324 0.0
C723 C 0.44592 0.49334 0.53816 0.0
N724 N 0.57373 0.46634 0.61056 0.0
N725 N 0.42134 0.5341 0.44375 0.0
H726 H 0.38834 0.47801 0.59297 0.0
H727 H 0.36654 0.49478 0.5179 0.0
H728 H 0.42767 0.54703 0.40112 0.0
H729 H 0.38714 0.54472 0.45815 0.0
H730 H 0.61128 0.46946 0.60423 0.0
H731 H 0.56859 0.45889 0.65636 0.0
H732 H 0.61642 0.45426 0.50691 0.0
H733 H 0.59659 0.47976 0.4368 0.0
C734 C 0.94815 0.46947 0.97475 0.0
C735 C 0.9838 0.50348 0.95856 0.0
C736 C 0.99173 0.54689 0.06831 0.0
C737 C 0.96671 0.50564 0.08737 0.0
N738 N 0.91936 0.42728 0.05787 0.0
N739 N 0.99909 0.59277 0.97944 0.0
C740 C 0.94412 0.46689 0.04029 0.0
C741 C 0.99488 0.54797 1.00222 0.0
N742 N 0.91261 0.44623 0.92819 0.0
N743 N 0.01249 0.58511 0.11293 0.0
H744 H 0.99116 0.59565 0.93057 0.0
H745 H 1.00264 0.6271 1.00877 0.0
H746 H 0.0097 0.58659 0.16169 0.0
H747 H 0.03537 0.61339 0.10162 0.0
H748 H 0.88283 0.42451 0.93788 0.0
H749 H 0.90914 0.45498 0.88129 0.0
H750 H 0.90656 0.39583 0.02554 0.0
H751 H 0.91507 0.42423 0.10538 0.0
loop_
_geom_bond_atom_site_label_1
_geom_bond_atom_site_label_2
_geom_bond_distance
_geom_bond_site_symmetry_2
_ccdc_geom_bond_type
Pr0 C2 2.880 1_655 S
Pr0 O20 2.562 . S
Pr0 O21 2.490 1_655 S
Pr0 O22 2.695 1_655 S
Pr0 O23 2.512 1_655 S
Pr0 O25 2.437 1_665 S
Pr0 O28 2.436 1_565 S
Pr0 O30 2.438 . S
Pr1 C11 2.880 1_455 S
Pr1 O22 2.436 1_545 S
Pr1 O24 2.438 . S
Pr1 O26 2.562 . S
Pr1 O27 2.490 1_455 S
Pr1 O28 2.695 1_455 S
Pr1 O29 2.512 1_455 S
Pr1 O31 2.437 1_445 S
C2 Pr0 2.880 1_455 S
C2 C3 1.491 . S
C2 O20 1.254 1_455 S
C2 O21 1.225 . S
C3 C2 1.491 . S
C3 C4 1.392 . S
C3 C8 1.356 . S
C4 C3 1.392 . S
C4 C5 1.368 . S
C4 H32 0.929 . S
C5 C4 1.368 . S
C5 C6 1.386 . S
C5 H33 0.929 . S
C6 C5 1.386 . S
C6 C7 1.373 . S
C7 C6 1.373 . S
C7 C8 1.409 . S
C7 H34 0.931 1_565 S
C8 C3 1.356 . S
C8 C7 1.409 . S
C8 H35 0.930 1_465 S
C9 O22 1.270 . S
C9 O23 1.248 . S
C10 O24 1.267 . S
C10 O25 1.278 . S
C11 Pr1 2.880 1_655 S
C11 C12 1.491 . S
C11 O26 1.254 1_655 S
C11 O27 1.225 . S
C12 C11 1.491 . S
C12 C13 1.392 . S
C12 C17 1.356 . S
C13 C12 1.392 . S
C13 C14 1.368 . S
C13 H36 0.929 . S
C14 C13 1.368 . S
C14 C15 1.386 . S
C14 H37 0.929 . S
C15 C14 1.386 . S
C15 C16 1.373 . S
C16 C15 1.373 . S
C16 C17 1.409 . S
C16 H38 0.931 1_545 S
C17 C12 1.356 . S
C17 C16 1.409 . S
C17 H39 0.930 1_645 S
C18 O28 1.270 . S
C18 O29 1.248 . S
C19 O30 1.267 . S
C19 O31 1.278 . S
O20 Pr0 2.562 . S
O20 C2 1.254 1_655 S
O21 Pr0 2.490 1_455 S
O21 C2 1.225 . S
O22 Pr0 2.695 1_455 S
O22 Pr1 2.436 1_565 S
O22 C9 1.270 . S
O23 Pr0 2.512 1_455 S
O23 C9 1.248 . S
O24 Pr1 2.438 . S
O24 C10 1.267 . S
O25 Pr0 2.437 1_445 S
O25 C10 1.278 . S
O26 Pr1 2.562 . S
O26 C11 1.254 1_455 S
O27 Pr1 2.490 1_655 S
O27 C11 1.225 . S
O28 Pr0 2.436 1_545 S
O28 Pr1 2.695 1_655 S
O28 C18 1.270 . S
O29 Pr1 2.512 1_655 S
O29 C18 1.248 . S
O30 Pr0 2.438 . S
O30 C19 1.267 . S
O31 Pr1 2.437 1_665 S
O31 C19 1.278 . S
H32 C4 0.929 . S
H33 C5 0.929 . S
H34 C7 0.931 1_545 S
H35 C8 0.930 1_645 S
H36 C13 0.929 . S
H37 C14 0.929 . S
H38 C16 0.931 1_565 S
H39 C17 0.930 1_465 S
Pr40 C42 2.880 . S
Pr40 O60 2.562 . S
Pr40 O61 2.490 . S
Pr40 O62 2.695 . S
Pr40 O63 2.512 . S
Pr40 O65 2.437 . S
Pr40 O68 2.436 . S
Pr40 O70 2.438 . S
Pr41 C51 2.880 . S
Pr41 O62 2.436 . S
Pr41 O64 2.438 . S
Pr41 O66 2.562 . S
Pr41 O67 2.490 . S
Pr41 O68 2.695 . S
Pr41 O69 2.512 . S
Pr41 O71 2.437 . S
C42 Pr40 2.880 . S
C42 C43 1.491 . S
C42 O60 1.254 . S
C42 O61 1.225 . S
C43 C42 1.491 . S
C43 C44 1.392 . S
C43 C48 1.356 . S
C44 C43 1.392 . S
C44 C45 1.368 . S
C44 H72 0.929 . S
C45 C44 1.368 . S
C45 C46 1.386 . S
C45 H73 0.929 . S
C46 C45 1.386 . S
C46 C47 1.373 . S
C47 C46 1.373 . S
C47 C48 1.409 . S
C47 H74 0.931 . S
C48 C43 1.356 . S
C48 C47 1.409 . S
C48 H75 0.930 . S
C49 O62 1.270 . S
C49 O63 1.248 . S
C50 O64 1.267 . S
C50 O65 1.278 . S
C51 Pr41 2.880 . S
C51 C52 1.491 1_556 S
C51 O66 1.254 . S
C51 O67 1.225 . S
C52 C51 1.491 1_554 S
C52 C53 1.392 . S
C52 C57 1.356 . S
C53 C52 1.392 . S
C53 C54 1.368 . S
C53 H76 0.929 1_554 S
C54 C53 1.368 . S
C54 C55 1.386 . S
C54 H77 0.929 . S
C55 C54 1.386 . S
C55 C56 1.373 . S
C56 C55 1.373 . S
C56 C57 1.409 . S
C56 H78 0.931 . S
C57 C52 1.356 . S
C57 C56 1.409 . S
C57 H79 0.930 . S
C58 O68 1.270 . S
C58 O69 1.248 . S
C59 O70 1.267 . S
C59 O71 1.278 . S
O60 Pr40 2.562 . S
O60 C42 1.254 . S
O61 Pr40 2.490 . S
O61 C42 1.225 . S
O62 Pr40 2.695 . S
O62 Pr41 2.436 . S
O62 C49 1.270 . S
O63 Pr40 2.512 . S
O63 C49 1.248 . S
O64 Pr41 2.438 . S
O64 C50 1.267 . S
O65 Pr40 2.437 . S
O65 C50 1.278 . S
O66 Pr41 2.562 . S
O66 C51 1.254 . S
O67 Pr41 2.490 . S
O67 C51 1.225 . S
O68 Pr40 2.436 . S
O68 Pr41 2.695 . S
O68 C58 1.270 . S
O69 Pr41 2.512 . S
O69 C58 1.248 . S
O70 Pr40 2.438 . S
O70 C59 1.267 . S
O71 Pr41 2.437 . S
O71 C59 1.278 . S
H72 C44 0.929 . S
H73 C45 0.929 . S
H74 C47 0.931 . S
H75 C48 0.930 . S
H76 C53 0.929 1_556 S
H77 C54 0.929 . S
H78 C56 0.931 . S
H79 C57 0.930 . S
Pr80 C82 2.880 . S
Pr80 O100 2.562 1_565 S
Pr80 O101 2.490 . S
Pr80 O102 2.695 1_554 S
Pr80 O103 2.512 . S
Pr80 O105 2.437 1_565 S
Pr80 O108 2.436 1_565 S
Pr80 O110 2.438 1_554 S
Pr81 C91 2.880 . S
Pr81 O102 2.436 1_545 S
Pr81 O104 2.438 1_556 S
Pr81 O106 2.562 1_545 S
Pr81 O107 2.490 . S
Pr81 O108 2.695 1_556 S
Pr81 O109 2.512 . S
Pr81 O111 2.437 1_545 S
C82 Pr80 2.880 . S
C82 C83 1.491 . S
C82 O100 1.254 1_565 S
C82 O101 1.225 . S
C83 C82 1.491 . S
C83 C84 1.392 . S
C83 C88 1.356 1_565 S
C84 C83 1.392 . S
C84 C85 1.368 . S
C84 H112 0.929 . S
C85 C84 1.368 . S
C85 C86 1.386 . S
C85 H113 0.929 . S
C86 C85 1.386 . S
C86 C87 1.373 1_565 S
C87 C86 1.373 1_545 S
C87 C88 1.409 . S
C87 H114 0.931 . S
C88 C83 1.356 1_545 S
C88 C87 1.409 . S
C88 H115 0.930 . S
C89 O102 1.270 . S
C89 O103 1.248 1_556 S
C90 O104 1.267 . S
C90 O105 1.278 . S
C91 Pr81 2.880 . S
C91 C92 1.491 . S
C91 O106 1.254 1_545 S
C91 O107 1.225 . S
C92 C91 1.491 . S
C92 C93 1.392 . S
C92 C97 1.356 1_545 S
C93 C92 1.392 . S
C93 C94 1.368 . S
C93 H116 0.929 . S
C94 C93 1.368 . S
C94 C95 1.386 . S
C94 H117 0.929 . S
C95 C94 1.386 . S
C95 C96 1.373 1_545 S
C96 C95 1.373 1_565 S
C96 C97 1.409 . S
C96 H118 0.931 . S
C97 C92 1.356 1_565 S
C97 C96 1.409 . S
C97 H119 0.930 . S
C98 O108 1.270 . S
C98 O109 1.248 1_554 S
C99 O110 1.267 . S
C99 O111 1.278 . S
O100 Pr80 2.562 1_545 S
O100 C82 1.254 1_545 S
O101 Pr80 2.490 . S
O101 C82 1.225 . S
O102 Pr80 2.695 1_556 S
O102 Pr81 2.436 1_565 S
O102 C89 1.270 . S
O103 Pr80 2.512 . S
O103 C89 1.248 1_554 S
O104 Pr81 2.438 1_554 S
O104 C90 1.267 . S
O105 Pr80 2.437 1_545 S
O105 C90 1.278 . S
O106 Pr81 2.562 1_565 S
O106 C91 1.254 1_565 S
O107 Pr81 2.490 . S
O107 C91 1.225 . S
O108 Pr80 2.436 1_545 S
O108 Pr81 2.695 1_554 S
O108 C98 1.270 . S
O109 Pr81 2.512 . S
O109 C98 1.248 1_556 S
O110 Pr80 2.438 1_556 S
O110 C99 1.267 . S
O111 Pr81 2.437 1_565 S
O111 C99 1.278 . S
H112 C84 0.929 . S
H113 C85 0.929 . S
H114 C87 0.931 . S
H115 C88 0.930 . S
H116 C93 0.929 . S
H117 C94 0.929 . S
H118 C96 0.931 . S
H119 C97 0.930 . S
Pr120 C122 2.880 . S
Pr120 O140 2.562 . S
Pr120 O141 2.490 . S
Pr120 O142 2.695 . S
Pr120 O143 2.512 . S
Pr120 O145 2.437 . S
Pr120 O148 2.436 . S
Pr120 O150 2.438 . S
Pr121 C131 2.880 . S
Pr121 O142 2.436 . S
Pr121 O144 2.438 . S
Pr121 O146 2.562 . S
Pr121 O147 2.490 . S
Pr121 O148 2.695 . S
Pr121 O149 2.512 . S
Pr121 O151 2.437 . S
C122 Pr120 2.880 . S
C122 C123 1.491 . S
C122 O140 1.254 . S
C122 O141 1.225 . S
C123 C122 1.491 . S
C123 C124 1.392 . S
C123 C128 1.356 . S
C124 C123 1.392 . S
C124 C125 1.368 . S
C124 H152 0.929 . S
C125 C124 1.368 . S
C125 C126 1.386 . S
C125 H153 0.929 . S
C126 C125 1.386 . S
C126 C127 1.373 . S
C127 C126 1.373 . S
C127 C128 1.409 . S
C127 H154 0.931 . S
C128 C123 1.356 . S
C128 C127 1.409 . S
C128 H155 0.930 . S
C129 O142 1.270 . S
C129 O143 1.248 . S
C130 O144 1.267 . S
C130 O145 1.278 . S
C131 Pr121 2.880 . S
C131 C132 1.491 1_554 S
C131 O146 1.254 . S
C131 O147 1.225 . S
C132 C131 1.491 1_556 S
C132 C133 1.392 . S
C132 C137 1.356 . S
C133 C132 1.392 . S
C133 C134 1.368 . S
C133 H156 0.929 . S
C134 C133 1.368 . S
C134 C135 1.386 . S
C134 H157 0.929 . S
C135 C134 1.386 . S
C135 C136 1.373 . S
C136 C135 1.373 . S
C136 C137 1.409 . S
C136 H158 0.931 . S
C137 C132 1.356 . S
C137 C136 1.409 . S
C137 H159 0.930 . S
C138 O148 1.270 . S
C138 O149 1.248 . S
C139 O150 1.267 . S
C139 O151 1.278 . S
O140 Pr120 2.562 . S
O140 C122 1.254 . S
O141 Pr120 2.490 . S
O141 C122 1.225 . S
O142 Pr120 2.695 . S
O142 Pr121 2.436 . S
O142 C129 1.270 . S
O143 Pr120 2.512 . S
O143 C129 1.248 . S
O144 Pr121 2.438 . S
O144 C130 1.267 . S
O145 Pr120 2.437 . S
O145 C130 1.278 . S
O146 Pr121 2.562 . S
O146 C131 1.254 . S
O147 Pr121 2.490 . S
O147 C131 1.225 . S
O148 Pr120 2.436 . S
O148 Pr121 2.695 . S
O148 C138 1.270 . S
O149 Pr121 2.512 . S
O149 C138 1.248 . S
O150 Pr120 2.438 . S
O150 C139 1.267 . S
O151 Pr121 2.437 . S
O151 C139 1.278 . S
H152 C124 0.929 . S
H153 C125 0.929 . S
H154 C127 0.931 . S
H155 C128 0.930 . S
H156 C133 0.929 . S
H157 C134 0.929 . S
H158 C136 0.931 . S
H159 C137 0.930 . S
Pr160 C162 2.880 . S
Pr160 O180 2.562 . S
Pr160 O181 2.490 . S
Pr160 O182 2.695 . S
Pr160 O183 2.512 . S
Pr160 O185 2.437 . S
Pr160 O188 2.436 . S
Pr160 O190 2.438 . S
Pr161 C171 2.880 . S
Pr161 O182 2.436 . S
Pr161 O184 2.438 . S
Pr161 O186 2.562 . S
Pr161 O187 2.490 . S
Pr161 O188 2.695 . S
Pr161 O189 2.512 . S
Pr161 O191 2.437 . S
C162 Pr160 2.880 . S
C162 C163 1.491 1_554 S
C162 O180 1.254 . S
C162 O181 1.225 . S
C163 C162 1.491 1_556 S
C163 C164 1.392 . S
C163 C168 1.356 . S
C164 C163 1.392 . S
C164 C165 1.368 . S
C164 H192 0.929 1_556 S
C165 C164 1.368 . S
C165 C166 1.386 . S
C165 H193 0.929 . S
C166 C165 1.386 . S
C166 C167 1.373 . S
C167 C166 1.373 . S
C167 C168 1.409 . S
C167 H194 0.931 . S
C168 C163 1.356 . S
C168 C167 1.409 . S
C168 H195 0.930 . S
C169 O182 1.270 . S
C169 O183 1.248 . S
C170 O184 1.267 . S
C170 O185 1.278 . S
C171 Pr161 2.880 . S
C171 C172 1.491 . S
C171 O186 1.254 . S
C171 O187 1.225 . S
C172 C171 1.491 . S
C172 C173 1.392 . S
C172 C177 1.356 . S
C173 C172 1.392 . S
C173 C174 1.368 . S
C173 H196 0.929 . S
C174 C173 1.368 . S
C174 C175 1.386 . S
C174 H197 0.929 . S
C175 C174 1.386 . S
C175 C176 1.373 . S
C176 C175 1.373 . S
C176 C177 1.409 . S
C176 H198 0.931 . S
C177 C172 1.356 . S
C177 C176 1.409 . S
C177 H199 0.930 . S
C178 O188 1.270 . S
C178 O189 1.248 . S
C179 O190 1.267 . S
C179 O191 1.278 . S
O180 Pr160 2.562 . S
O180 C162 1.254 . S
O181 Pr160 2.490 . S
O181 C162 1.225 . S
O182 Pr160 2.695 . S
O182 Pr161 2.436 . S
O182 C169 1.270 . S
O183 Pr160 2.512 . S
O183 C169 1.248 . S
O184 Pr161 2.438 . S
O184 C170 1.267 . S
O185 Pr160 2.437 . S
O185 C170 1.278 . S
O186 Pr161 2.562 . S
O186 C171 1.254 . S
O187 Pr161 2.490 . S
O187 C171 1.225 . S
O188 Pr160 2.436 . S
O188 Pr161 2.695 . S
O188 C178 1.270 . S
O189 Pr161 2.512 . S
O189 C178 1.248 . S
O190 Pr160 2.438 . S
O190 C179 1.267 . S
O191 Pr161 2.437 . S
O191 C179 1.278 . S
H192 C164 0.929 1_554 S
H193 C165 0.929 . S
H194 C167 0.931 . S
H195 C168 0.930 . S
H196 C173 0.929 . S
H197 C174 0.929 . S
H198 C176 0.931 . S
H199 C177 0.930 . S
Pr200 C202 2.880 . S
Pr200 O220 2.562 . S
Pr200 O221 2.490 . S
Pr200 O222 2.695 . S
Pr200 O223 2.512 . S
Pr200 O225 2.437 . S
Pr200 O228 2.436 . S
Pr200 O230 2.438 . S
Pr201 C211 2.880 . S
Pr201 O222 2.436 . S
Pr201 O224 2.438 . S
Pr201 O226 2.562 . S
Pr201 O227 2.490 . S
Pr201 O228 2.695 . S
Pr201 O229 2.512 . S
Pr201 O231 2.437 . S
C202 Pr200 2.880 . S
C202 C203 1.491 1_556 S
C202 O220 1.254 . S
C202 O221 1.225 . S
C203 C202 1.491 1_554 S
C203 C204 1.392 . S
C203 C208 1.356 . S
C204 C203 1.392 . S
C204 C205 1.368 . S
C204 H232 0.929 . S
C205 C204 1.368 . S
C205 C206 1.386 . S
C205 H233 0.929 . S
C206 C205 1.386 . S
C206 C207 1.373 . S
C207 C206 1.373 . S
C207 C208 1.409 . S
C207 H234 0.931 . S
C208 C203 1.356 . S
C208 C207 1.409 . S
C208 H235 0.930 . S
C209 O222 1.270 . S
C209 O223 1.248 . S
C210 O224 1.267 . S
C210 O225 1.278 . S
C211 Pr201 2.880 . S
C211 C212 1.491 . S
C211 O226 1.254 . S
C211 O227 1.225 . S
C212 C211 1.491 . S
C212 C213 1.392 . S
C212 C217 1.356 . S
C213 C212 1.392 . S
C213 C214 1.368 . S
C213 H236 0.929 . S
C214 C213 1.368 . S
C214 C215 1.386 . S
C214 H237 0.929 . S
C215 C214 1.386 . S
C215 C216 1.373 . S
C216 C215 1.373 . S
C216 C217 1.409 . S
C216 H238 0.931 . S
C217 C212 1.356 . S
C217 C216 1.409 . S
C217 H239 0.930 . S
C218 O228 1.270 . S
C218 O229 1.248 . S
C219 O230 1.267 . S
C219 O231 1.278 . S
O220 Pr200 2.562 . S
O220 C202 1.254 . S
O221 Pr200 2.490 . S
O221 C202 1.225 . S
O222 Pr200 2.695 . S
O222 Pr201 2.436 . S
O222 C209 1.270 . S
O223 Pr200 2.512 . S
O223 C209 1.248 . S
O224 Pr201 2.438 . S
O224 C210 1.267 . S
O225 Pr200 2.437 . S
O225 C210 1.278 . S
O226 Pr201 2.562 . S
O226 C211 1.254 . S
O227 Pr201 2.490 . S
O227 C211 1.225 . S
O228 Pr200 2.436 . S
O228 Pr201 2.695 . S
O228 C218 1.270 . S
O229 Pr201 2.512 . S
O229 C218 1.248 . S
O230 Pr200 2.438 . S
O230 C219 1.267 . S
O231 Pr201 2.437 . S
O231 C219 1.278 . S
H232 C204 0.929 . S
H233 C205 0.929 . S
H234 C207 0.931 . S
H235 C208 0.930 . S
H236 C213 0.929 . S
H237 C214 0.929 . S
H238 C216 0.931 . S
H239 C217 0.930 . S
Pr240 C242 2.880 . S
Pr240 O260 2.562 . S
Pr240 O261 2.490 . S
Pr240 O262 2.695 1_556 S
Pr240 O263 2.512 . S
Pr240 O265 2.437 . S
Pr240 O268 2.436 . S
Pr240 O270 2.438 . S
Pr241 C251 2.880 . S
Pr241 O262 2.436 . S
Pr241 O264 2.438 . S
Pr241 O266 2.562 . S
Pr241 O267 2.490 . S
Pr241 O268 2.695 1_554 S
Pr241 O269 2.512 . S
Pr241 O271 2.437 . S
C242 Pr240 2.880 . S
C242 C243 1.491 . S
C242 O260 1.254 . S
C242 O261 1.225 . S
C243 C242 1.491 . S
C243 C244 1.392 . S
C243 C248 1.356 . S
C244 C243 1.392 . S
C244 C245 1.368 . S
C244 H272 0.929 . S
C245 C244 1.368 . S
C245 C246 1.386 . S
C245 H273 0.929 . S
C246 C245 1.386 . S
C246 C247 1.373 . S
C247 C246 1.373 . S
C247 C248 1.409 . S
C247 H274 0.931 . S
C248 C243 1.356 . S
C248 C247 1.409 . S
C248 H275 0.930 . S
C249 O262 1.270 . S
C249 O263 1.248 1_554 S
C250 O264 1.267 1_556 S
C250 O265 1.278 . S
C251 Pr241 2.880 . S
C251 C252 1.491 . S
C251 O266 1.254 . S
C251 O267 1.225 . S
C252 C251 1.491 . S
C252 C253 1.392 . S
C252 C257 1.356 . S
C253 C252 1.392 . S
C253 C254 1.368 . S
C253 H276 0.929 . S
C254 C253 1.368 . S
C254 C255 1.386 . S
C254 H277 0.929 . S
C255 C254 1.386 . S
C255 C256 1.373 . S
C256 C255 1.373 . S
C256 C257 1.409 . S
C256 H278 0.931 . S
C257 C252 1.356 . S
C257 C256 1.409 . S
C257 H279 0.930 . S
C258 O268 1.270 . S
C258 O269 1.248 1_556 S
C259 O270 1.267 1_554 S
C259 O271 1.278 . S
O260 Pr240 2.562 . S
O260 C242 1.254 . S
O261 Pr240 2.490 . S
O261 C242 1.225 . S
O262 Pr240 2.695 1_554 S
O262 Pr241 2.436 . S
O262 C249 1.270 . S
O263 Pr240 2.512 . S
O263 C249 1.248 1_556 S
O264 Pr241 2.438 . S
O264 C250 1.267 1_554 S
O265 Pr240 2.437 . S
O265 C250 1.278 . S
O266 Pr241 2.562 . S
O266 C251 1.254 . S
O267 Pr241 2.490 . S
O267 C251 1.225 . S
O268 Pr240 2.436 . S
O268 Pr241 2.695 1_556 S
O268 C258 1.270 . S
O269 Pr241 2.512 . S
O269 C258 1.248 1_554 S
O270 Pr240 2.438 . S
O270 C259 1.267 1_556 S
O271 Pr241 2.437 . S
O271 C259 1.278 . S
H272 C244 0.929 . S
H273 C245 0.929 . S
H274 C247 0.931 . S
H275 C248 0.930 . S
H276 C253 0.929 . S
H277 C254 0.929 . S
H278 C256 0.931 . S
H279 C257 0.930 . S
Pr280 C282 2.880 1_455 S
Pr280 O300 2.562 . S
Pr280 O301 2.490 1_455 S
Pr280 O302 2.695 1_455 S
Pr280 O303 2.512 1_455 S
Pr280 O305 2.437 1_455 S
Pr280 O308 2.436 . S
Pr280 O310 2.438 . S
Pr281 C291 2.880 1_655 S
Pr281 O302 2.436 . S
Pr281 O304 2.438 . S
Pr281 O306 2.562 . S
Pr281 O307 2.490 1_655 S
Pr281 O308 2.695 1_655 S
Pr281 O309 2.512 1_655 S
Pr281 O311 2.437 1_655 S
C282 Pr280 2.880 1_655 S
C282 C283 1.491 . S
C282 O300 1.254 1_655 S
C282 O301 1.225 . S
C283 C282 1.491 . S
C283 C284 1.392 . S
C283 C288 1.356 . S
C284 C283 1.392 . S
C284 C285 1.368 . S
C284 H312 0.929 . S
C285 C284 1.368 . S
C285 C286 1.386 . S
C285 H313 0.929 . S
C286 C285 1.386 . S
C286 C287 1.373 . S
C287 C286 1.373 . S
C287 C288 1.409 . S
C287 H314 0.931 . S
C288 C283 1.356 . S
C288 C287 1.409 . S
C288 H315 0.930 1_655 S
C289 O302 1.270 . S
C289 O303 1.248 . S
C290 O304 1.267 . S
C290 O305 1.278 . S
C291 Pr281 2.880 1_455 S
C291 C292 1.491 . S
C291 O306 1.254 1_455 S
C291 O307 1.225 . S
C292 C291 1.491 . S
C292 C293 1.392 . S
C292 C297 1.356 . S
C293 C292 1.392 . S
C293 C294 1.368 . S
C293 H316 0.929 . S
C294 C293 1.368 . S
C294 C295 1.386 . S
C294 H317 0.929 . S
C295 C294 1.386 . S
C295 C296 1.373 . S
C296 C295 1.373 . S
C296 C297 1.409 . S
C296 H318 0.931 . S
C297 C292 1.356 . S
C297 C296 1.409 . S
C297 H319 0.930 1_455 S
C298 O308 1.270 . S
C298 O309 1.248 . S
C299 O310 1.267 . S
C299 O311 1.278 . S
O300 Pr280 2.562 . S
O300 C282 1.254 1_455 S
O301 Pr280 2.490 1_655 S
O301 C282 1.225 . S
O302 Pr280 2.695 1_655 S
O302 Pr281 2.436 . S
O302 C289 1.270 . S
O303 Pr280 2.512 1_655 S
O303 C289 1.248 . S
O304 Pr281 2.438 . S
O304 C290 1.267 . S
O305 Pr280 2.437 1_655 S
O305 C290 1.278 . S
O306 Pr281 2.562 . S
O306 C291 1.254 1_655 S
O307 Pr281 2.490 1_455 S
O307 C291 1.225 . S
O308 Pr280 2.436 . S
O308 Pr281 2.695 1_455 S
O308 C298 1.270 . S
O309 Pr281 2.512 1_455 S
O309 C298 1.248 . S
O310 Pr280 2.438 . S
O310 C299 1.267 . S
O311 Pr281 2.437 1_455 S
O311 C299 1.278 . S
H312 C284 0.929 . S
H313 C285 0.929 . S
H314 C287 0.931 . S
H315 C288 0.930 1_455 S
H316 C293 0.929 . S
H317 C294 0.929 . S
H318 C296 0.931 . S
H319 C297 0.930 1_655 S
C320 C321 1.363 . S
C320 C326 1.379 . S
C320 N328 1.356 . S
C321 C320 1.363 . S
C321 C327 1.363 . S
C322 C323 1.363 . S
C322 C327 1.379 . S
C322 N329 1.356 . S
C323 C322 1.363 . S
C323 C326 1.363 . S
N324 C326 1.356 . S
N324 H336 0.984 . S
N324 H337 0.985 . S
N325 C327 1.356 . S
N325 H330 0.984 . S
N325 H331 0.985 1_545 S
C326 C320 1.379 . S
C326 C323 1.363 . S
C326 N324 1.356 . S
C327 C321 1.363 . S
C327 C322 1.379 . S
C327 N325 1.356 . S
N328 C320 1.356 . S
N328 H334 0.984 . S
N328 H335 0.984 . S
N329 C322 1.356 . S
N329 H332 0.984 . S
N329 H333 0.985 . S
H330 N325 0.984 . S
H331 N325 0.985 1_565 S
H332 N329 0.984 . S
H333 N329 0.985 . S
H334 N328 0.984 . S
H335 N328 0.984 . S
H336 N324 0.984 . S
H337 N324 0.985 . S
C338 C339 1.363 . S
C338 C344 1.379 . S
C338 N346 1.356 . S
C339 C338 1.363 . S
C339 C345 1.363 . S
C340 C341 1.363 . S
C340 C345 1.379 . S
C340 N347 1.356 . S
C341 C340 1.363 . S
C341 C344 1.363 . S
N342 C344 1.356 . S
N342 H354 0.984 . S
N342 H355 0.985 . S
N343 C345 1.356 . S
N343 H348 0.984 . S
N343 H349 0.985 . S
C344 C338 1.379 . S
C344 C341 1.363 . S
C344 N342 1.356 . S
C345 C339 1.363 . S
C345 C340 1.379 . S
C345 N343 1.356 . S
N346 C338 1.356 . S
N346 H352 0.984 . S
N346 H353 0.984 . S
N347 C340 1.356 . S
N347 H350 0.984 . S
N347 H351 0.985 . S
H348 N343 0.984 . S
H349 N343 0.985 . S
H350 N347 0.984 . S
H351 N347 0.985 . S
H352 N346 0.984 . S
H353 N346 0.984 . S
H354 N342 0.984 . S
H355 N342 0.985 . S
C356 C357 1.363 . S
C356 C362 1.379 . S
C356 N364 1.356 . S
C357 C356 1.363 . S
C357 C363 1.363 . S
C358 C359 1.363 . S
C358 C363 1.379 . S
C358 N365 1.356 . S
C359 C358 1.363 . S
C359 C362 1.363 . S
N360 C362 1.356 . S
N360 H372 0.984 . S
N360 H373 0.985 . S
N361 C363 1.356 . S
N361 H366 0.984 . S
N361 H367 0.985 . S
C362 C356 1.379 . S
C362 C359 1.363 . S
C362 N360 1.356 . S
C363 C357 1.363 . S
C363 C358 1.379 . S
C363 N361 1.356 . S
N364 C356 1.356 . S
N364 H370 0.984 . S
N364 H371 0.984 . S
N365 C358 1.356 . S
N365 H368 0.984 . S
N365 H369 0.985 . S
H366 N361 0.984 . S
H367 N361 0.985 . S
H368 N365 0.984 . S
H369 N365 0.985 . S
H370 N364 0.984 . S
H371 N364 0.984 . S
H372 N360 0.984 . S
H373 N360 0.985 . S
C374 C375 1.363 . S
C374 C380 1.379 . S
C374 N382 1.356 . S
C375 C374 1.363 . S
C375 C381 1.363 . S
C376 C377 1.363 . S
C376 C381 1.379 . S
C376 N383 1.356 . S
C377 C376 1.363 . S
C377 C380 1.363 . S
N378 C380 1.356 . S
N378 H390 0.984 . S
N378 H391 0.985 . S
N379 C381 1.356 . S
N379 H384 0.984 . S
N379 H385 0.985 . S
C380 C374 1.379 . S
C380 C377 1.363 . S
C380 N378 1.356 . S
C381 C375 1.363 . S
C381 C376 1.379 . S
C381 N379 1.356 . S
N382 C374 1.356 . S
N382 H388 0.984 . S
N382 H389 0.984 . S
N383 C376 1.356 . S
N383 H386 0.984 . S
N383 H387 0.985 . S
H384 N379 0.984 . S
H385 N379 0.985 . S
H386 N383 0.984 . S
H387 N383 0.985 . S
H388 N382 0.984 . S
H389 N382 0.984 . S
H390 N378 0.984 . S
H391 N378 0.985 . S
C392 C393 1.363 . S
C392 C398 1.379 . S
C392 N400 1.356 . S
C393 C392 1.363 . S
C393 C399 1.363 . S
C394 C395 1.363 . S
C394 C399 1.379 . S
C394 N401 1.356 . S
C395 C394 1.363 . S
C395 C398 1.363 . S
N396 C398 1.356 . S
N396 H408 0.984 . S
N396 H409 0.985 . S
N397 C399 1.356 . S
N397 H402 0.984 . S
N397 H403 0.985 . S
C398 C392 1.379 . S
C398 C395 1.363 . S
C398 N396 1.356 . S
C399 C393 1.363 . S
C399 C394 1.379 . S
C399 N397 1.356 . S
N400 C392 1.356 . S
N400 H406 0.984 . S
N400 H407 0.984 . S
N401 C394 1.356 . S
N401 H404 0.984 . S
N401 H405 0.985 . S
H402 N397 0.984 . S
H403 N397 0.985 . S
H404 N401 0.984 . S
H405 N401 0.985 . S
H406 N400 0.984 . S
H407 N400 0.984 . S
H408 N396 0.984 . S
H409 N396 0.985 . S
C410 C411 1.363 . S
C410 C416 1.379 . S
C410 N418 1.356 . S
C411 C410 1.363 . S
C411 C417 1.363 . S
C412 C413 1.363 . S
C412 C417 1.379 . S
C412 N419 1.356 . S
C413 C412 1.363 . S
C413 C416 1.363 . S
N414 C416 1.356 . S
N414 H426 0.984 . S
N414 H427 0.985 . S
N415 C417 1.356 . S
N415 H420 0.984 . S
N415 H421 0.994 . S
C416 C410 1.379 . S
C416 C413 1.363 . S
C416 N414 1.356 . S
C417 C411 1.363 . S
C417 C412 1.379 . S
C417 N415 1.356 . S
N418 C410 1.356 . S
N418 H424 0.984 . S
N418 H425 0.984 . S
N419 C412 1.356 . S
N419 H422 0.984 . S
N419 H423 0.985 . S
H420 N415 0.984 . S
H421 N415 0.994 . S
H422 N419 0.984 . S
H423 N419 0.985 . S
H424 N418 0.984 . S
H425 N418 0.984 . S
H426 N414 0.984 . S
H427 N414 0.985 . S
C428 C429 1.363 . S
C428 C434 1.379 . S
C428 N436 1.356 . S
C429 C428 1.363 . S
C429 C435 1.363 . S
C430 C431 1.363 . S
C430 C435 1.379 . S
C430 N437 1.356 . S
C431 C430 1.363 . S
C431 C434 1.363 . S
N432 C434 1.356 . S
N432 H444 0.984 . S
N432 H445 0.985 . S
N433 C435 1.356 . S
N433 H438 0.984 . S
N433 H439 0.985 . S
C434 C428 1.379 . S
C434 C431 1.363 . S
C434 N432 1.356 . S
C435 C429 1.363 . S
C435 C430 1.379 . S
C435 N433 1.356 . S
N436 C428 1.356 . S
N436 H442 0.984 . S
N436 H443 0.984 . S
N437 C430 1.356 . S
N437 H440 0.984 . S
N437 H441 0.985 . S
H438 N433 0.984 . S
H439 N433 0.985 . S
H440 N437 0.984 . S
H441 N437 0.985 . S
H442 N436 0.984 . S
H443 N436 0.984 . S
H444 N432 0.984 . S
H445 N432 0.985 . S
C446 C447 1.363 . S
C446 C452 1.379 . S
C446 N454 1.356 . S
C447 C446 1.363 . S
C447 C453 1.363 . S
C448 C449 1.363 . S
C448 C453 1.379 . S
C448 N455 1.356 . S
C449 C448 1.363 . S
C449 C452 1.363 . S
N450 C452 1.356 . S
N450 H462 0.984 . S
N450 H463 0.985 . S
N451 C453 1.356 . S
N451 H456 0.984 . S
N451 H457 0.985 . S
C452 C446 1.379 . S
C452 C449 1.363 . S
C452 N450 1.356 . S
C453 C447 1.363 . S
C453 C448 1.379 . S
C453 N451 1.356 . S
N454 C446 1.356 . S
N454 H460 0.984 . S
N454 H461 0.984 . S
N455 C448 1.356 . S
N455 H458 0.984 . S
N455 H459 0.985 . S
H456 N451 0.984 . S
H457 N451 0.985 . S
H458 N455 0.984 . S
H459 N455 0.985 . S
H460 N454 0.984 . S
H461 N454 0.984 . S
H462 N450 0.984 . S
H463 N450 0.985 . S
C464 C465 1.363 . S
C464 C470 1.379 . S
C464 N472 1.356 . S
C465 C464 1.363 . S
C465 C471 1.363 . S
C466 C467 1.363 . S
C466 C471 1.379 . S
C466 N473 1.356 . S
C467 C466 1.363 . S
C467 C470 1.363 . S
N468 C470 1.356 . S
N468 H480 0.984 . S
N468 H481 0.985 . S
N469 C471 1.356 . S
N469 H474 0.984 1_556 S
N469 H475 0.985 1_556 S
C470 C464 1.379 . S
C470 C467 1.363 . S
C470 N468 1.356 . S
C471 C465 1.363 . S
C471 C466 1.379 . S
C471 N469 1.356 . S
N472 C464 1.356 . S
N472 H478 0.984 . S
N472 H479 0.984 . S
N473 C466 1.356 . S
N473 H476 0.984 . S
N473 H477 0.985 . S
H474 N469 0.984 1_554 S
H475 N469 0.985 1_554 S
H476 N473 0.984 . S
H477 N473 0.985 . S
H478 N472 0.984 . S
H479 N472 0.984 . S
H480 N468 0.984 . S
H481 N468 0.985 . S
C482 C483 1.363 . S
C482 C488 1.379 . S
C482 N490 1.356 . S
C483 C482 1.363 . S
C483 C489 1.363 . S
C484 C485 1.363 . S
C484 C489 1.379 . S
C484 N491 1.356 . S
C485 C484 1.363 . S
C485 C488 1.363 . S
N486 C488 1.356 1_556 S
N486 H498 0.984 . S
N486 H499 0.985 . S
N487 C489 1.356 . S
N487 H492 0.984 . S
N487 H493 0.985 . S
C488 C482 1.379 . S
C488 C485 1.363 . S
C488 N486 1.356 1_554 S
C489 C483 1.363 . S
C489 C484 1.379 . S
C489 N487 1.356 . S
N490 C482 1.356 . S
N490 H496 0.984 . S
N490 H497 0.984 . S
N491 C484 1.356 . S
N491 H494 0.984 . S
N491 H495 0.985 . S
H492 N487 0.984 . S
H493 N487 0.985 . S
H494 N491 0.984 . S
H495 N491 0.985 . S
H496 N490 0.984 . S
H497 N490 0.984 . S
H498 N486 0.984 . S
H499 N486 0.985 . S
C500 C501 1.363 . S
C500 C506 1.379 . S
C500 N508 1.356 . S
C501 C500 1.363 . S
C501 C507 1.363 . S
C502 C503 1.363 . S
C502 C507 1.379 . S
C502 N509 1.356 . S
C503 C502 1.363 . S
C503 C506 1.363 . S
N504 C506 1.356 . S
N504 H516 0.984 . S
N504 H517 0.985 . S
N505 C507 1.356 . S
N505 H510 0.984 . S
N505 H511 0.985 . S
C506 C500 1.379 . S
C506 C503 1.363 . S
C506 N504 1.356 . S
C507 C501 1.363 . S
C507 C502 1.379 . S
C507 N505 1.356 . S
N508 C500 1.356 . S
N508 H514 0.984 . S
N508 H515 0.984 . S
N509 C502 1.356 . S
N509 H512 0.984 . S
N509 H513 0.985 . S
H510 N505 0.984 . S
H511 N505 0.985 . S
H512 N509 0.984 . S
H513 N509 0.985 . S
H514 N508 0.984 . S
H515 N508 0.984 . S
H516 N504 0.984 . S
H517 N504 0.985 . S
C518 C519 1.363 . S
C518 C524 1.379 . S
C518 N526 1.356 . S
C519 C518 1.363 . S
C519 C525 1.363 . S
C520 C521 1.363 . S
C520 C525 1.379 . S
C520 N527 1.356 . S
C521 C520 1.363 . S
C521 C524 1.363 . S
N522 C524 1.356 . S
N522 H534 0.984 . S
N522 H535 0.985 . S
N523 C525 1.356 . S
N523 H528 0.984 . S
N523 H529 0.985 . S
C524 C518 1.379 . S
C524 C521 1.363 . S
C524 N522 1.356 . S
C525 C519 1.363 . S
C525 C520 1.379 . S
C525 N523 1.356 . S
N526 C518 1.356 . S
N526 H532 0.984 . S
N526 H533 0.984 . S
N527 C520 1.356 . S
N527 H530 0.984 . S
N527 H531 0.985 . S
H528 N523 0.984 . S
H529 N523 0.985 . S
H530 N527 0.984 . S
H531 N527 0.985 . S
H532 N526 0.984 . S
H533 N526 0.984 . S
H534 N522 0.984 . S
H535 N522 0.985 . S
C536 C537 1.363 . S
C536 C542 1.379 . S
C536 N544 1.356 . S
C537 C536 1.363 . S
C537 C543 1.363 . S
C538 C539 1.363 . S
C538 C543 1.379 . S
C538 N545 1.356 . S
C539 C538 1.363 . S
C539 C542 1.363 . S
N540 C542 1.356 . S
N540 H552 0.984 . S
N540 H553 0.985 . S
N541 C543 1.356 . S
N541 H546 0.984 . S
N541 H547 0.985 . S
C542 C536 1.379 . S
C542 C539 1.363 . S
C542 N540 1.356 . S
C543 C537 1.363 . S
C543 C538 1.379 . S
C543 N541 1.356 . S
N544 C536 1.356 . S
N544 H550 0.984 . S
N544 H551 0.984 . S
N545 C538 1.356 . S
N545 H548 0.984 . S
N545 H549 0.985 . S
H546 N541 0.984 . S
H547 N541 0.985 . S
H548 N545 0.984 . S
H549 N545 0.985 . S
H550 N544 0.984 . S
H551 N544 0.984 . S
H552 N540 0.984 . S
H553 N540 0.985 . S
C554 C555 1.363 . S
C554 C560 1.379 . S
C554 N562 1.356 . S
C555 C554 1.363 . S
C555 C561 1.363 . S
C556 C557 1.363 . S
C556 C561 1.379 . S
C556 N563 1.356 . S
C557 C556 1.363 . S
C557 C560 1.363 . S
N558 C560 1.356 . S
N558 H570 0.984 . S
N558 H571 0.985 . S
N559 C561 1.356 . S
N559 H564 0.984 . S
N559 H565 0.985 . S
C560 C554 1.379 . S
C560 C557 1.363 . S
C560 N558 1.356 . S
C561 C555 1.363 . S
C561 C556 1.379 . S
C561 N559 1.356 . S
N562 C554 1.356 . S
N562 H568 0.984 . S
N562 H569 0.984 . S
N563 C556 1.356 . S
N563 H566 0.984 . S
N563 H567 0.985 . S
H564 N559 0.984 . S
H565 N559 0.985 . S
H566 N563 0.984 . S
H567 N563 0.985 . S
H568 N562 0.984 . S
H569 N562 0.984 . S
H570 N558 0.984 . S
H571 N558 0.985 . S
C572 C573 1.363 . S
C572 C578 1.379 . S
C572 N580 1.356 . S
C573 C572 1.363 . S
C573 C579 1.363 . S
C574 C575 1.363 . S
C574 C579 1.379 . S
C574 N581 1.356 . S
C575 C574 1.363 . S
C575 C578 1.363 . S
N576 C578 1.356 . S
N576 H588 0.984 . S
N576 H589 0.985 . S
N577 C579 1.356 . S
N577 H582 0.984 . S
N577 H583 0.985 . S
C578 C572 1.379 . S
C578 C575 1.363 . S
C578 N576 1.356 . S
C579 C573 1.363 . S
C579 C574 1.379 . S
C579 N577 1.356 . S
N580 C572 1.356 . S
N580 H586 0.984 . S
N580 H587 0.984 . S
N581 C574 1.356 . S
N581 H584 0.984 . S
N581 H585 0.985 . S
H582 N577 0.984 . S
H583 N577 0.985 . S
H584 N581 0.984 . S
H585 N581 0.985 . S
H586 N580 0.984 . S
H587 N580 0.984 . S
H588 N576 0.984 . S
H589 N576 0.985 . S
C590 C591 1.363 . S
C590 C596 1.379 . S
C590 N598 1.356 . S
C591 C590 1.363 . S
C591 C597 1.363 . S
C592 C593 1.363 . S
C592 C597 1.379 . S
C592 N599 1.356 . S
C593 C592 1.363 . S
C593 C596 1.363 . S
N594 C596 1.356 . S
N594 H606 0.984 . S
N594 H607 0.985 . S
N595 C597 1.356 . S
N595 H600 0.984 . S
N595 H601 0.985 . S
C596 C590 1.379 . S
C596 C593 1.363 . S
C596 N594 1.356 . S
C597 C591 1.363 . S
C597 C592 1.379 . S
C597 N595 1.356 . S
N598 C590 1.356 . S
N598 H604 0.984 . S
N598 H605 0.984 . S
N599 C592 1.356 . S
N599 H602 0.984 . S
N599 H603 0.985 . S
H600 N595 0.984 . S
H601 N595 0.985 . S
H602 N599 0.984 . S
H603 N599 0.985 . S
H604 N598 0.984 . S
H605 N598 0.984 . S
H606 N594 0.984 . S
H607 N594 0.985 . S
C608 C609 1.363 1_565 S
C608 C614 1.379 . S
C608 N616 1.356 . S
C609 C608 1.363 1_545 S
C609 C615 1.363 1_656 S
C610 C611 1.363 1_545 S
C610 C615 1.379 . S
C610 N617 1.356 . S
C611 C610 1.363 1_565 S
C611 C614 1.363 1_454 S
N612 C614 1.356 . S
N612 H624 0.984 . S
N612 H625 0.985 1_656 S
N613 C615 1.356 . S
N613 H618 0.984 1_454 S
N613 H619 0.985 . S
C614 C608 1.379 . S
C614 C611 1.363 1_656 S
C614 N612 1.356 . S
C615 C609 1.363 1_454 S
C615 C610 1.379 . S
C615 N613 1.356 . S
N616 C608 1.356 . S
N616 H622 0.984 . S
N616 H623 0.984 . S
N617 C610 1.356 . S
N617 H620 0.984 . S
N617 H621 0.985 . S
H618 N613 0.984 1_656 S
H619 N613 0.985 . S
H620 N617 0.984 . S
H621 N617 0.985 . S
H622 N616 0.984 . S
H623 N616 0.984 . S
H624 N612 0.984 . S
H625 N612 0.985 1_454 S
C626 C627 1.363 . S
C626 C632 1.379 . S
C626 N634 1.356 . S
C627 C626 1.363 . S
C627 C633 1.363 . S
C628 C629 1.363 . S
C628 C633 1.379 . S
C628 N635 1.356 . S
C629 C628 1.363 . S
C629 C632 1.363 . S
N630 C632 1.356 . S
N630 H642 0.984 . S
N630 H643 0.985 . S
N631 C633 1.356 . S
N631 H636 0.984 . S
N631 H637 0.985 . S
C632 C626 1.379 . S
C632 C629 1.363 . S
C632 N630 1.356 . S
C633 C627 1.363 . S
C633 C628 1.379 . S
C633 N631 1.356 . S
N634 C626 1.356 . S
N634 H640 0.984 . S
N634 H641 0.984 . S
N635 C628 1.356 . S
N635 H638 0.984 . S
N635 H639 0.985 . S
H636 N631 0.984 . S
H637 N631 0.985 . S
H638 N635 0.984 . S
H639 N635 0.985 . S
H640 N634 0.984 . S
H641 N634 0.984 . S
H642 N630 0.984 . S
H643 N630 0.985 . S
C644 C645 1.363 . S
C644 C650 1.379 . S
C644 N652 1.356 . S
C645 C644 1.363 . S
C645 C651 1.363 1_545 S
C646 C647 1.363 . S
C646 C651 1.379 . S
C646 N653 1.356 . S
C647 C646 1.363 . S
C647 C650 1.363 1_565 S
N648 C650 1.356 . S
N648 H660 0.984 . S
N648 H661 0.985 . S
N649 C651 1.356 . S
N649 H654 0.984 . S
N649 H655 0.985 . S
C650 C644 1.379 . S
C650 C647 1.363 1_545 S
C650 N648 1.356 . S
C651 C645 1.363 1_565 S
C651 C646 1.379 . S
C651 N649 1.356 . S
N652 C644 1.356 . S
N652 H658 0.984 . S
N652 H659 0.984 . S
N653 C646 1.356 . S
N653 H656 0.984 . S
N653 H657 0.985 . S
H654 N649 0.984 . S
H655 N649 0.985 . S
H656 N653 0.984 . S
H657 N653 0.985 . S
H658 N652 0.984 . S
H659 N652 0.984 . S
H660 N648 0.984 . S
H661 N648 0.985 . S
C662 C663 1.363 . S
C662 C668 1.379 . S
C662 N670 1.356 . S
C663 C662 1.363 . S
C663 C669 1.363 . S
C664 C665 1.363 . S
C664 C669 1.379 . S
C664 N671 1.356 . S
C665 C664 1.363 . S
C665 C668 1.363 . S
N666 C668 1.356 . S
N666 H678 0.984 . S
N666 H679 0.985 . S
N667 C669 1.356 . S
N667 H672 0.984 . S
N667 H673 0.985 . S
C668 C662 1.379 . S
C668 C665 1.363 . S
C668 N666 1.356 . S
C669 C663 1.363 . S
C669 C664 1.379 . S
C669 N667 1.356 . S
N670 C662 1.356 . S
N670 H676 0.984 . S
N670 H677 0.984 . S
N671 C664 1.356 . S
N671 H674 0.984 . S
N671 H675 0.985 . S
H672 N667 0.984 . S
H673 N667 0.985 . S
H674 N671 0.984 . S
H675 N671 0.985 . S
H676 N670 0.984 . S
H677 N670 0.984 . S
H678 N666 0.984 . S
H679 N666 0.985 . S
C680 C681 1.363 . S
C680 C686 1.379 . S
C680 N688 1.356 . S
C681 C680 1.363 . S
C681 C687 1.363 . S
C682 C683 1.363 . S
C682 C687 1.379 . S
C682 N689 1.356 . S
C683 C682 1.363 . S
C683 C686 1.363 . S
N684 C686 1.356 . S
N684 H696 0.984 . S
N684 H697 0.985 . S
N685 C687 1.356 . S
N685 H690 0.984 . S
N685 H691 0.985 . S
C686 C680 1.379 . S
C686 C683 1.363 . S
C686 N684 1.356 . S
C687 C681 1.363 . S
C687 C682 1.379 . S
C687 N685 1.356 . S
N688 C680 1.356 . S
N688 H694 0.984 . S
N688 H695 0.984 . S
N689 C682 1.356 . S
N689 H692 0.984 . S
N689 H693 0.985 . S
H690 N685 0.984 . S
H691 N685 0.985 . S
H692 N689 0.984 . S
H693 N689 0.985 . S
H694 N688 0.984 . S
H695 N688 0.984 . S
H696 N684 0.984 . S
H697 N684 0.985 . S
C698 C699 1.363 . S
C698 C704 1.379 . S
C698 N706 1.356 . S
C699 C698 1.363 . S
C699 C705 1.363 . S
C700 C701 1.363 . S
C700 C705 1.379 . S
C700 N707 1.356 . S
C701 C700 1.363 . S
C701 C704 1.363 . S
N702 C704 1.356 . S
N702 H714 0.984 . S
N702 H715 0.985 . S
N703 C705 1.356 . S
N703 H708 0.984 . S
N703 H709 0.985 . S
C704 C698 1.379 . S
C704 C701 1.363 . S
C704 N702 1.356 . S
C705 C699 1.363 . S
C705 C700 1.379 . S
C705 N703 1.356 . S
N706 C698 1.356 . S
N706 H712 0.984 . S
N706 H713 0.984 . S
N707 C700 1.356 . S
N707 H710 0.984 . S
N707 H711 0.985 . S
H708 N703 0.984 . S
H709 N703 0.985 . S
H710 N707 0.984 . S
H711 N707 0.985 . S
H712 N706 0.984 . S
H713 N706 0.984 . S
H714 N702 0.984 . S
H715 N702 0.985 . S
C716 C717 1.363 . S
C716 C722 1.379 . S
C716 N724 1.356 . S
C717 C716 1.363 . S
C717 C723 1.363 . S
C718 C719 1.363 . S
C718 C723 1.379 . S
C718 N725 1.356 . S
C719 C718 1.363 . S
C719 C722 1.363 . S
N720 C722 1.356 . S
N720 H732 0.984 . S
N720 H733 0.985 . S
N721 C723 1.356 . S
N721 H726 0.984 . S
N721 H727 0.985 . S
C722 C716 1.379 . S
C722 C719 1.363 . S
C722 N720 1.356 . S
C723 C717 1.363 . S
C723 C718 1.379 . S
C723 N721 1.356 . S
N724 C716 1.356 . S
N724 H730 0.984 . S
N724 H731 0.984 . S
N725 C718 1.356 . S
N725 H728 0.984 . S
N725 H729 0.985 . S
H726 N721 0.984 . S
H727 N721 0.985 . S
H728 N725 0.984 . S
H729 N725 0.985 . S
H730 N724 0.984 . S
H731 N724 0.984 . S
H732 N720 0.984 . S
H733 N720 0.985 . S
C734 C735 1.363 . S
C734 C740 1.379 1_556 S
C734 N742 1.356 . S
C735 C734 1.363 . S
C735 C741 1.363 1_655 S
C736 C737 1.363 . S
C736 C741 1.379 1_554 S
C736 N743 1.356 . S
C737 C736 1.363 . S
C737 C740 1.363 1_455 S
N738 C740 1.356 . S
N738 H750 0.984 . S
N738 H751 0.985 1_655 S
N739 C741 1.356 . S
N739 H744 0.984 1_455 S
N739 H745 0.985 . S
C740 C734 1.379 1_554 S
C740 C737 1.363 1_655 S
C740 N738 1.356 . S
C741 C735 1.363 1_455 S
C741 C736 1.379 1_556 S
C741 N739 1.356 . S
N742 C734 1.356 . S
N742 H748 0.984 . S
N742 H749 0.984 . S
N743 C736 1.356 . S
N743 H746 0.984 . S
N743 H747 0.985 . S
H744 N739 0.984 1_655 S
H745 N739 0.985 . S
H746 N743 0.984 . S
H747 N743 0.985 . S
H748 N742 0.984 . S
H749 N742 0.984 . S
H750 N738 0.984 . S
H751 N738 0.985 1_455 S
C321 C10 1.973 . S
C323 C130 1.971 . S
C339 C9 1.551 . S
C341 C50 1.572 . S
C357 C49 1.055 . S
C359 C89 1.055 . S
C375 C90 1.572 . S
C377 C129 1.550 . S
C393 C19 1.973 . S
C395 C219 1.975 . S
C411 C18 1.551 . S
C413 C179 1.572 . S
C429 C178 1.055 . S
C431 C98 1.054 . S
C447 C218 1.551 . S
C449 C99 1.573 . S
C465 C250 1.973 . S
C467 C210 1.973 . S
C483 C170 1.572 . S
C485 C249 1.551 . S
C501 C289 1.055 . S
C503 C169 1.055 . S
C519 C209 1.551 . S
C521 C290 1.573 . S
C537 C139 1.973 . S
C539 C259 1.973 . S
C555 C258 1.551 . S
C557 C59 1.572 . S
C573 C58 1.055 . S
C575 C298 1.053 . S
C591 C138 1.551 . S
C593 C299 1.571 . S
C609 C15 1.924 . S
C611 C6 1.924 . S
C627 C46 1.506 . S
C629 C55 1.506 . S
C645 C95 1.506 . S
C647 C86 1.506 . S
C663 C135 1.924 . S
C665 C126 1.924 . S
C681 C166 1.506 . S
C683 C175 1.506 . S
C699 C215 1.924 . S
C701 C206 1.924 . S
C717 C246 1.924 . S
C719 C255 1.924 . S
C735 C286 1.506 . S
C737 C295 1.506 . S
