# Generated by pormake.
# Topology zfx, (5)-cn, num edge types: 1
# Building blocks:
#     Node 0, Type 0, BuildingBlock: XOMCOT_clean_sbu_0, # of connection points: 5
#     Node 1, Type 0, BuildingBlock: XOMCOT_clean_sbu_0, # of connection points: 5
#     Node 2, Type 0, BuildingBlock: XOMCOT_clean_sbu_0, # of connection points: 5
#     Node 3, Type 0, BuildingBlock: XOMCOT_clean_sbu_0, # of connection points: 5
#     Node 4, Type 0, BuildingBlock: XOMCOT_clean_sbu_0, # of connection points: 5
#     Node 5, Type 0, BuildingBlock: XOMCOT_clean_sbu_0, # of connection points: 5
#     Node 6, Type 0, BuildingBlock: XOMCOT_clean_sbu_0, # of connection points: 5
#     Node 7, Type 0, BuildingBlock: XOMCOT_clean_sbu_0, # of connection points: 5
#     Node 8, Type 0, BuildingBlock: XOMCOT_clean_sbu_0, # of connection points: 5
#     Node 9, Type 0, BuildingBlock: XOMCOT_clean_sbu_0, # of connection points: 5
#     Node 10, Type 0, BuildingBlock: XOMCOT_clean_sbu_0, # of connection points: 5
#     Node 11, Type 0, BuildingBlock: XOMCOT_clean_sbu_0, # of connection points: 5
#     Node 12, Type 0, BuildingBlock: XOMCOT_clean_sbu_0, # of connection points: 5
#     Node 13, Type 0, BuildingBlock: XOMCOT_clean_sbu_0, # of connection points: 5
#     Node 14, Type 0, BuildingBlock: XOMCOT_clean_sbu_0, # of connection points: 5
#     Node 15, Type 0, BuildingBlock: XOMCOT_clean_sbu_0, # of connection points: 5
#     Edge 16, Type (0, 0), BuildingBlock: XIVTED_clean_linker_0, # of connection points: 2
#     Edge 17, Type (0, 0), BuildingBlock: XIVTED_clean_linker_0, # of connection points: 2
#     Edge 18, Type (0, 0), BuildingBlock: XIVTED_clean_linker_0, # of connection points: 2
#     Edge 19, Type (0, 0), BuildingBlock: XIVTED_clean_linker_0, # of connection points: 2
#     Edge 20, Type (0, 0), BuildingBlock: XIVTED_clean_linker_0, # of connection points: 2
#     Edge 21, Type (0, 0), BuildingBlock: XIVTED_clean_linker_0, # of connection points: 2
#     Edge 22, Type (0, 0), BuildingBlock: XIVTED_clean_linker_0, # of connection points: 2
#     Edge 23, Type (0, 0), BuildingBlock: XIVTED_clean_linker_0, # of connection points: 2
#     Edge 24, Type (0, 0), BuildingBlock: XIVTED_clean_linker_0, # of connection points: 2
#     Edge 25, Type (0, 0), BuildingBlock: XIVTED_clean_linker_0, # of connection points: 2
#     Edge 26, Type (0, 0), BuildingBlock: XIVTED_clean_linker_0, # of connection points: 2
#     Edge 27, Type (0, 0), BuildingBlock: XIVTED_clean_linker_0, # of connection points: 2
#     Edge 28, Type (0, 0), BuildingBlock: XIVTED_clean_linker_0, # of connection points: 2
#     Edge 29, Type (0, 0), BuildingBlock: XIVTED_clean_linker_0, # of connection points: 2
#     Edge 30, Type (0, 0), BuildingBlock: XIVTED_clean_linker_0, # of connection points: 2
#     Edge 31, Type (0, 0), BuildingBlock: XIVTED_clean_linker_0, # of connection points: 2
#     Edge 32, Type (0, 0), BuildingBlock: XIVTED_clean_linker_0, # of connection points: 2
#     Edge 33, Type (0, 0), BuildingBlock: XIVTED_clean_linker_0, # of connection points: 2
#     Edge 34, Type (0, 0), BuildingBlock: XIVTED_clean_linker_0, # of connection points: 2
#     Edge 35, Type (0, 0), BuildingBlock: XIVTED_clean_linker_0, # of connection points: 2
#     Edge 36, Type (0, 0), BuildingBlock: XIVTED_clean_linker_0, # of connection points: 2
#     Edge 37, Type (0, 0), BuildingBlock: XIVTED_clean_linker_0, # of connection points: 2
#     Edge 38, Type (0, 0), BuildingBlock: XIVTED_clean_linker_0, # of connection points: 2
#     Edge 39, Type (0, 0), BuildingBlock: XIVTED_clean_linker_0, # of connection points: 2
#     Edge 40, Type (0, 0), BuildingBlock: XIVTED_clean_linker_0, # of connection points: 2
#     Edge 41, Type (0, 0), BuildingBlock: XIVTED_clean_linker_0, # of connection points: 2
#     Edge 42, Type (0, 0), BuildingBlock: XIVTED_clean_linker_0, # of connection points: 2
#     Edge 43, Type (0, 0), BuildingBlock: XIVTED_clean_linker_0, # of connection points: 2
#     Edge 44, Type (0, 0), BuildingBlock: XIVTED_clean_linker_0, # of connection points: 2
#     Edge 45, Type (0, 0), BuildingBlock: XIVTED_clean_linker_0, # of connection points: 2
#     Edge 46, Type (0, 0), BuildingBlock: XIVTED_clean_linker_0, # of connection points: 2
#     Edge 47, Type (0, 0), BuildingBlock: XIVTED_clean_linker_0, # of connection points: 2
#     Edge 48, Type (0, 0), BuildingBlock: XIVTED_clean_linker_0, # of connection points: 2
#     Edge 49, Type (0, 0), BuildingBlock: XIVTED_clean_linker_0, # of connection points: 2
#     Edge 50, Type (0, 0), BuildingBlock: XIVTED_clean_linker_0, # of connection points: 2
#     Edge 51, Type (0, 0), BuildingBlock: XIVTED_clean_linker_0, # of connection points: 2
#     Edge 52, Type (0, 0), BuildingBlock: XIVTED_clean_linker_0, # of connection points: 2
#     Edge 53, Type (0, 0), BuildingBlock: XIVTED_clean_linker_0, # of connection points: 2
#     Edge 54, Type (0, 0), BuildingBlock: XIVTED_clean_linker_0, # of connection points: 2
#     Edge 55, Type (0, 0), BuildingBlock: XIVTED_clean_linker_0, # of connection points: 2
# Relax obj value: 0.359
# Max RMSD: 0.229
# Mean RMSD: 0.229
data_MOF--net-zfx--node1-XOMCOT_clean_sbu_0--edge1-XIVTED_clean_linker_0
_symmetry_space_group_name_H-M    P1
_symmetry_Int_Tables_number       1
_symmetry_cell_setting            triclinic
loop_
_symmetry_equiv_pos_as_xyz
'x, y, z'
_cell_length_a     62.891969
_cell_length_b     62.877182
_cell_length_c     23.794551
_cell_angle_alpha  90.133231
_cell_angle_beta   90.058598
_cell_angle_gamma 89.707747
loop_
_atom_site_label
_atom_site_type_symbol
_atom_site_fract_x
_atom_site_fract_y
_atom_site_fract_z
_atom_type_partial_charge
Co0 Co 0.54239 0.15601 0.41701 0.0
C1 C 0.58433 0.16992 0.46387 0.0
C2 C 0.5865 0.14094 0.41693 0.0
C3 C 0.60661 0.14684 0.43132 0.0
N4 N 0.57231 0.15516 0.43775 0.0
N5 N 0.60531 0.16503 0.46072 0.0
H6 H 0.57798 0.18386 0.48474 0.0
H7 H 0.58279 0.12708 0.39219 0.0
C8 C 0.5618 0.15371 0.29785 0.0
O9 O 0.56573 0.13327 0.30191 0.0
N10 N 0.51325 0.15724 0.39205 0.0
C11 C 0.49688 0.14407 0.40234 0.0
C12 C 0.48103 0.14818 0.36331 0.0
C13 C 0.50692 0.16955 0.34915 0.0
N14 N 0.48766 0.164 0.32933 0.0
C15 C 0.54963 0.11473 0.45702 0.0
C16 C 0.53241 0.09071 0.37147 0.0
C17 C 0.54055 0.08033 0.41945 0.0
C18 C 0.54919 0.09279 0.46219 0.0
C19 C 0.53367 0.11314 0.36722 0.0
N20 N 0.54266 0.12485 0.40956 0.0
H21 H 0.55574 0.12379 0.49207 0.0
H22 H 0.527 0.12103 0.33087 0.0
H23 H 0.49715 0.13127 0.43266 0.0
H24 H 0.5169 0.1816 0.33069 0.0
O25 O 0.53291 0.15599 0.49431 0.0
O26 O 0.53905 0.18522 0.44644 0.0
O27 O 0.55222 0.16355 0.33766 0.0
C28 C 0.53243 0.17658 0.49308 0.0
H29 H 0.62111 0.13842 0.42057 0.0
H30 H 0.46661 0.1391 0.35766 0.0
H31 H 0.52514 0.08164 0.3379 0.0
H32 H 0.55502 0.08564 0.50068 0.0
Co33 Co 0.12187 0.26608 0.66727 0.0
C34 C 0.13567 0.30452 0.73072 0.0
C35 C 0.103 0.3062 0.70459 0.0
C36 C 0.10837 0.32529 0.7287 0.0
N37 N 0.12033 0.29347 0.70403 0.0
N38 N 0.12896 0.32427 0.74427 0.0
H39 H 0.1514 0.29845 0.73988 0.0
H40 H 0.08778 0.30226 0.6862 0.0
C41 C 0.11702 0.29941 0.57332 0.0
O42 O 0.12406 0.31464 0.60598 0.0
N43 N 0.12287 0.23865 0.62958 0.0
C44 C 0.11695 0.21934 0.64847 0.0
C45 C 0.11732 0.20516 0.60411 0.0
C46 C 0.1272 0.23575 0.57459 0.0
N47 N 0.12353 0.21561 0.55749 0.0
C48 C 0.16304 0.25098 0.69145 0.0
C49 C 0.18695 0.28464 0.6532 0.0
C50 C 0.19705 0.26872 0.68529 0.0
C51 C 0.18476 0.25147 0.70282 0.0
C52 C 0.16495 0.28333 0.6417 0.0
N53 N 0.15306 0.26711 0.66336 0.0
H54 H 0.15395 0.23786 0.70778 0.0
H55 H 0.15753 0.296 0.61858 0.0
H56 H 0.11177 0.21583 0.69069 0.0
H57 H 0.13233 0.24834 0.547 0.0
O58 O 0.11997 0.25298 0.74085 0.0
O59 O 0.09213 0.26094 0.68838 0.0
O60 O 0.11686 0.27997 0.59005 0.0
C61 C 0.09944 0.25343 0.73572 0.0
H62 H 0.09789 0.33879 0.73502 0.0
H63 H 0.11205 0.18881 0.60545 0.0
H64 H 0.19587 0.29813 0.63792 0.0
H65 H 0.19163 0.23878 0.72772 0.0
Co66 Co 0.03044 0.86625 0.89772 0.0
C67 C 1.00003 0.88816 0.96997 0.0
C68 C 0.98684 0.85915 0.93782 0.0
C69 C 0.97259 0.86809 0.97491 0.0
N70 N 1.00378 0.87209 0.9339 0.0
N71 N 0.98103 0.88626 0.99516 0.0
H72 H 1.01168 0.90001 0.98129 0.0
H73 H 0.9854 0.84391 0.91705 0.0
C74 C 0.99665 0.8675 0.80461 0.0
O75 O 0.98446 0.87962 0.83606 0.0
N76 N 0.0577 0.86044 0.86266 0.0
C77 C 0.07642 0.85673 0.88869 0.0
C78 C 0.09195 0.85385 0.8488 0.0
C79 C 0.06219 0.85989 0.8072 0.0
N80 N 0.08299 0.85579 0.79754 0.0
C81 C 0.05172 0.90452 0.92438 0.0
C82 C 0.02248 0.9327 0.88027 0.0
C83 C 0.03698 0.94017 0.92074 0.0
C84 C 0.05248 0.92591 0.94025 0.0
C85 C 0.02241 0.91106 0.86509 0.0
N86 N 0.03586 0.89691 0.89063 0.0
H87 H 0.06291 0.89372 0.94367 0.0
H88 H 1.01079 0.90584 0.83532 0.0
H89 H 0.07888 0.85627 0.93361 0.0
H90 H 0.05048 0.8621 0.77446 0.0
O91 O 0.04251 0.86262 0.97228 0.0
O92 O 0.02877 0.83653 0.92219 0.0
O93 O 0.01564 0.86275 0.82084 0.0
C94 C 0.03761 0.84265 0.96907 0.0
H95 H 0.95817 0.86074 0.99005 0.0
H96 H 0.10858 0.85068 0.85713 0.0
H97 H 1.01074 0.94328 0.86204 0.0
H98 H 0.06419 0.93074 0.97105 0.0
Co99 Co 0.41427 0.74322 0.1564 0.0
C100 C 0.39498 0.70892 0.22377 0.0
C101 C 0.42575 0.70014 0.19209 0.0
C102 C 0.4181 0.68364 0.22374 0.0
N103 N 0.41095 0.71568 0.19061 0.0
N104 N 0.39874 0.68917 0.24359 0.0
H105 H 0.38146 0.71865 0.23552 0.0
H106 H 0.44118 0.70093 0.17213 0.0
C107 C 0.41728 0.71086 0.05921 0.0
O108 O 0.40736 0.69638 0.08867 0.0
N109 N 0.41811 0.77114 0.12255 0.0
C110 C 0.42124 0.78987 0.14917 0.0
C111 C 0.42482 0.80543 0.10988 0.0
C112 C 0.41969 0.77573 0.06725 0.0
N113 N 0.42393 0.7965 0.05842 0.0
C114 C 0.37424 0.76285 0.17238 0.0
C115 C 0.34868 0.73013 0.13579 0.0
C116 C 0.33953 0.74654 0.16797 0.0
C117 C 0.35251 0.76352 0.18389 0.0
C118 C 0.3706 0.73029 0.12417 0.0
N119 N 0.38339 0.74591 0.14542 0.0
H120 H 0.38398 0.77532 0.18968 0.0
H121 H 0.37714 0.71702 0.10192 0.0
H122 H 0.42118 0.79227 0.19414 0.0
H123 H 0.41853 0.76408 0.03396 0.0
O124 O 0.41491 0.75536 0.23081 0.0
O125 O 0.44354 0.74438 0.18554 0.0
O126 O 0.42017 0.72964 0.07923 0.0
C127 C 0.43539 0.75289 0.23082 0.0
H128 H 0.42681 0.66937 0.23493 0.0
H129 H 0.42806 0.82199 0.11865 0.0
H130 H 0.33915 0.71686 0.12153 0.0
H131 H 0.3463 0.77656 0.20888 0.0
Co132 Co 0.52839 0.85523 0.59504 0.0
C133 C 0.56805 0.86752 0.53452 0.0
C134 C 0.56873 0.83555 0.56645 0.0
C135 C 0.58835 0.84009 0.5448 0.0
N136 N 0.55613 0.85284 0.56112 0.0
N137 N 0.58799 0.86022 0.52544 0.0
H138 H 0.56253 0.88325 0.52312 0.0
H139 H 0.56426 0.82095 0.58711 0.0
C140 C 0.5612 0.85539 0.69052 0.0
O141 O 0.57532 0.86427 0.65762 0.0
N142 N 0.50052 0.85685 0.62996 0.0
C143 C 0.48132 0.85843 0.60472 0.0
C144 C 0.46564 0.85606 0.64468 0.0
C145 C 0.49616 0.85368 0.68481 0.0
N146 N 0.47509 0.85314 0.6949 0.0
C147 C 0.51562 0.89546 0.55302 0.0
C148 C 0.54362 0.92167 0.60851 0.0
C149 C 0.53084 0.93041 0.56566 0.0
C150 C 0.51636 0.91693 0.53909 0.0
C151 C 0.54219 0.89983 0.62179 0.0
N152 N 0.52902 0.88665 0.59201 0.0
H153 H 0.50431 0.8859 0.53056 0.0
H154 H 0.55184 0.8939 0.65541 0.0
H155 H 0.47871 0.86033 0.56014 0.0
H156 H 0.50801 0.85059 0.71667 0.0
O157 O 0.51574 0.85098 0.52197 0.0
O158 O 0.52357 0.82475 0.57955 0.0
O159 O 0.54205 0.85248 0.67327 0.0
C160 C 0.51559 0.83076 0.5315 0.0
H161 H 0.60179 0.82929 0.54263 0.0
H162 H 0.44866 0.85599 0.6372 0.0
H163 H 0.55466 0.93158 0.63155 0.0
H164 H 0.50608 0.92266 0.50583 0.0
Co165 Co 0.42289 0.26552 0.85707 0.0
C166 C 0.40736 0.30149 0.78809 0.0
C167 C 0.43933 0.30629 0.81696 0.0
C168 C 0.43293 0.32398 0.78741 0.0
N169 N 0.42318 0.2923 0.81777 0.0
N170 N 0.41278 0.32096 0.76959 0.0
H171 H 0.39219 0.29418 0.77988 0.0
H172 H 0.45457 0.3039 0.8371 0.0
C173 C 0.42294 0.30025 0.94818 0.0
O174 O 0.41289 0.31345 0.91457 0.0
N175 N 0.42284 0.23885 0.89699 0.0
C176 C 0.41181 0.22097 0.88598 0.0
C177 C 0.41546 0.20659 0.92867 0.0
C178 C 0.43334 0.23496 0.9452 0.0
N179 N 0.42901 0.21549 0.96568 0.0
C180 C 0.3821 0.25449 0.81369 0.0
C181 C 0.35641 0.27867 0.88277 0.0
C182 C 0.34708 0.26781 0.83728 0.0
C183 C 0.36035 0.25538 0.80343 0.0
C184 C 0.37857 0.27704 0.89242 0.0
N185 N 0.39138 0.26559 0.85674 0.0
H186 H 0.39139 0.24507 0.78503 0.0
H187 H 0.38511 0.28516 0.92817 0.0
H188 H 0.40172 0.21842 0.8499 0.0
H189 H 0.44358 0.24638 0.9657 0.0
O190 O 0.42725 0.25059 0.78642 0.0
O191 O 0.45343 0.26153 0.84008 0.0
O192 O 0.42613 0.28088 0.93295 0.0
C193 C 0.44754 0.25183 0.79424 0.0
H194 H 0.44269 0.33765 0.77802 0.0
H195 H 0.4088 0.1908 0.93207 0.0
H196 H 0.34669 0.28821 0.91078 0.0
H197 H 0.35408 0.24678 0.76759 0.0
Co198 Co 0.01556 0.15878 0.12459 0.0
C199 C 0.97278 0.1732 0.08314 0.0
C200 C 0.97106 0.14614 0.13732 0.0
C201 C 0.95079 0.15183 0.12298 0.0
N202 N 0.98501 0.15932 0.11202 0.0
N203 N 0.95186 0.16882 0.08904 0.0
H204 H 0.97894 0.18586 0.05721 0.0
H205 H 0.97517 0.13275 0.16333 0.0
C206 C 1.00111 0.15395 0.24763 0.0
O207 O 0.99907 0.13327 0.24326 0.0
N208 N 0.04561 0.15872 0.14099 0.0
C209 C 0.06133 0.14628 0.1204 0.0
C210 C 0.07969 0.15031 0.15067 0.0
C211 C 0.05464 0.17056 0.18147 0.0
N212 N 0.07532 0.16569 0.18859 0.0
C213 C 1.00512 0.11846 0.08168 0.0
C214 C 0.02919 0.09301 0.15162 0.0
C215 C 0.01881 0.08368 0.10529 0.0
C216 C 1.00644 0.09678 0.07092 0.0
C217 C 0.02693 0.11505 0.16205 0.0
N218 N 0.01491 0.12755 0.12707 0.0
H219 H 0.99676 0.12824 0.05154 0.0
H220 H 0.03558 0.12215 0.19655 0.0
H221 H 0.05935 0.13444 0.08779 0.0
H222 H 0.04597 0.18182 0.20735 0.0
O223 O 0.0217 0.16054 0.04485 0.0
O224 O 0.01836 0.18843 0.10075 0.0
O225 O 1.00883 0.1647 0.20697 0.0
C226 C 0.02263 0.18103 0.05069 0.0
H227 H 0.93637 0.14382 0.13561 0.0
H228 H 0.09486 0.14227 0.14619 0.0
H229 H 0.03919 0.08346 0.17885 0.0
H230 H 0.99867 0.09051 0.03377 0.0
Co231 Co 0.11804 0.74593 0.35677 0.0
C232 C 0.12158 0.70081 0.31579 0.0
C233 C 0.09284 0.70742 0.36064 0.0
C234 C 0.0936 0.68602 0.34898 0.0
N235 N 0.11041 0.71675 0.33995 0.0
N236 N 0.11177 0.68184 0.32091 0.0
H237 H 0.1364 0.70277 0.2942 0.0
H238 H 0.0806 0.71556 0.38443 0.0
C239 C 0.12233 0.72122 0.46394 0.0
O240 O 0.13516 0.70829 0.43665 0.0
N241 N 0.12487 0.77504 0.37644 0.0
C242 C 0.12731 0.79207 0.34256 0.0
C243 C 0.12927 0.81009 0.37556 0.0
C244 C 0.12581 0.78287 0.42908 0.0
N245 N 0.12849 0.80407 0.42979 0.0
C246 C 0.15667 0.73708 0.29919 0.0
C247 C 0.18459 0.743 0.38729 0.0
C248 C 0.19267 0.73978 0.33294 0.0
C249 C 0.17842 0.73661 0.28895 0.0
C250 C 0.1624 0.7433 0.39592 0.0
N251 N 0.14865 0.73994 0.35213 0.0
H252 H 0.14624 0.73546 0.26348 0.0
H253 H 0.15638 0.74718 0.43719 0.0
H254 H 0.12691 0.79168 0.29715 0.0
H255 H 0.1235 0.77356 0.46664 0.0
O256 O 0.11405 0.75379 0.2789 0.0
O257 O 0.0885 0.75484 0.34214 0.0
O258 O 0.11534 0.73804 0.43961 0.0
C259 C 0.09437 0.75794 0.29022 0.0
H260 H 0.08158 0.67455 0.36013 0.0
H261 H 0.13063 0.82632 0.36099 0.0
H262 H 0.19523 0.74609 0.42214 0.0
H263 H 0.18408 0.73447 0.24628 0.0
Co264 Co 0.91977 0.78173 0.35993 0.0
C265 C 0.93296 0.82369 0.31141 0.0
C266 C 0.90578 0.82607 0.36515 0.0
C267 C 0.91112 0.84613 0.349 0.0
N268 N 0.91916 0.8118 0.34109 0.0
N269 N 0.9282 0.84467 0.31546 0.0
H270 H 0.94605 0.81727 0.28716 0.0
H271 H 0.89274 0.82234 0.39268 0.0
C272 C 0.91746 0.79929 0.4811 0.0
O273 O 0.89676 0.80179 0.47897 0.0
N274 N 0.92086 0.75237 0.38323 0.0
C275 C 0.90828 0.73586 0.3694 0.0
C276 C 0.91195 0.7196 0.40749 0.0
C277 C 0.93242 0.74573 0.42731 0.0
N278 N 0.9269 0.72613 0.44439 0.0
C279 C 0.87855 0.79043 0.32127 0.0
C280 C 0.85465 0.76974 0.40109 0.0
C281 C 0.84434 0.77894 0.35442 0.0
C282 C 0.85667 0.78951 0.31485 0.0
C283 C 0.87695 0.77166 0.40702 0.0
N284 N 0.88864 0.78221 0.3674 0.0
H285 H 0.88759 0.79749 0.28764 0.0
H286 H 0.88482 0.76406 0.44213 0.0
H287 H 0.89615 0.73625 0.33715 0.0
H288 H 0.94395 0.75562 0.44848 0.0
O289 O 0.91943 0.77283 0.28223 0.0
O290 O 0.94885 0.7784 0.33024 0.0
O291 O 0.92747 0.7911 0.43954 0.0
C292 C 0.94001 0.77215 0.28335 0.0
H293 H 0.9031 0.86071 0.36108 0.0
H294 H 0.90314 0.7049 0.41039 0.0
H295 H 0.84565 0.761 0.43206 0.0
H296 H 0.84953 0.79622 0.27734 0.0
Co297 Co 0.62797 0.26625 0.87915 0.0
C298 C 0.64973 0.23583 0.80684 0.0
C299 C 0.62066 0.2227 0.83825 0.0
C300 C 0.62953 0.20853 0.80079 0.0
N301 N 0.63368 0.23956 0.84284 0.0
N302 N 0.64775 0.21694 0.78101 0.0
H303 H 0.6616 0.24748 0.79586 0.0
H304 H 0.60537 0.22131 0.85868 0.0
C305 C 0.62868 0.23247 0.97223 0.0
O306 O 0.64069 0.22015 0.94085 0.0
N307 N 0.62234 0.29357 0.91427 0.0
C308 C 0.61869 0.31229 0.88824 0.0
C309 C 0.61579 0.32786 0.9281 0.0
C310 C 0.62177 0.29812 0.96973 0.0
N311 N 0.61768 0.31894 0.97934 0.0
C312 C 0.66641 0.28712 0.85362 0.0
C313 C 0.69439 0.25759 0.89752 0.0
C314 C 0.70179 0.27183 0.85659 0.0
C315 C 0.68771 0.28749 0.83729 0.0
C316 C 0.67273 0.25772 0.91266 0.0
N317 N 0.65868 0.27133 0.88721 0.0
H318 H 0.65575 0.29854 0.83478 0.0
H319 H 0.6674 0.24608 0.94213 0.0
H320 H 0.61824 0.31471 0.84332 0.0
H321 H 0.62391 0.28644 1.00252 0.0
O322 O 0.62474 0.2784 0.80456 0.0
O323 O 0.59831 0.26497 0.8535 0.0
O324 O 0.62407 0.25147 0.95591 0.0
C325 C 0.60469 0.27381 0.80698 0.0
H326 H 0.62209 0.19421 0.78499 0.0
H327 H 0.61262 0.34449 0.9198 0.0
H328 H 0.70487 0.24557 0.91494 0.0
H329 H 0.69285 0.29936 0.80737 0.0
Co330 Co 0.62588 0.76608 0.1494 0.0
C331 C 0.64035 0.80411 0.21479 0.0
C332 C 0.60859 0.80708 0.18228 0.0
C333 C 0.6138 0.82573 0.20853 0.0
N334 N 0.62543 0.79377 0.18455 0.0
N335 N 0.63381 0.82396 0.22847 0.0
H336 H 0.65545 0.79727 0.22717 0.0
H337 H 0.59368 0.8036 0.16157 0.0
C338 C 0.62217 0.79869 0.05341 0.0
O339 O 0.63115 0.81342 0.08433 0.0
N340 N 0.6254 0.73828 0.11306 0.0
C341 C 0.62072 0.71916 0.13546 0.0
C342 C 0.6193 0.70438 0.0928 0.0
C343 C 0.62712 0.73466 0.0573 0.0
N344 N 0.6231 0.71421 0.04353 0.0
C345 C 0.66667 0.74933 0.16987 0.0
C346 C 0.69103 0.78385 0.1407 0.0
C347 C 0.70039 0.76768 0.17343 0.0
C348 C 0.68803 0.74983 0.1855 0.0
C349 C 0.66942 0.78261 0.12535 0.0
N350 N 0.6571 0.76608 0.14316 0.0
H351 H 0.65737 0.73598 0.1838 0.0
H352 H 0.66265 0.79572 0.103 0.0
H353 H 0.61775 0.71609 0.17939 0.0
H354 H 0.63074 0.74688 0.02703 0.0
O355 O 0.62518 0.75339 0.22298 0.0
O356 O 0.59639 0.76192 0.17489 0.0
O357 O 0.62 0.77968 0.07226 0.0
C358 C 0.60462 0.75409 0.22089 0.0
H359 H 0.60334 0.83927 0.21449 0.0
H360 H 0.61457 0.68796 0.0976 0.0
H361 H 0.70006 0.79774 0.12885 0.0
H362 H 0.69424 0.73687 0.2106 0.0
Co363 Co 0.92175 0.26271 0.65486 0.0
C364 C 0.90196 0.23211 0.72957 0.0
C365 C 0.93074 0.21934 0.69444 0.0
C366 C 0.92317 0.20532 0.73382 0.0
N367 N 0.91711 0.23589 0.69108 0.0
N368 N 0.90518 0.21353 0.75613 0.0
H369 H 0.89004 0.24367 0.74189 0.0
H370 H 0.9457 0.21819 0.67224 0.0
C371 C 0.92201 0.22894 0.56149 0.0
O372 O 0.91037 0.21621 0.5922 0.0
N373 N 0.92646 0.29014 0.61982 0.0
C374 C 0.92969 0.30895 0.64592 0.0
C375 C 0.93286 0.32439 0.60614 0.0
C376 C 0.92763 0.29451 0.56441 0.0
N377 N 0.93163 0.31529 0.55492 0.0
C378 C 0.88312 0.28345 0.68124 0.0
C379 C 0.85524 0.25336 0.64062 0.0
C380 C 0.84781 0.26835 0.67998 0.0
C381 C 0.86186 0.28417 0.69777 0.0
C382 C 0.87689 0.25315 0.62519 0.0
N383 N 0.89087 0.26726 0.64859 0.0
H384 H 0.89373 0.29505 0.69909 0.0
H385 H 0.88231 0.2409 0.59731 0.0
H386 H 0.92983 0.31147 0.69084 0.0
H387 H 0.92616 0.28272 0.53157 0.0
O388 O 0.9252 0.27492 0.72926 0.0
O389 O 0.9516 0.26197 0.67835 0.0
O390 O 0.92561 0.2481 0.57798 0.0
C391 C 0.94536 0.27078 0.7252 0.0
H392 H 0.9315 0.1914 0.7493 0.0
H393 H 0.9359 0.34103 0.61446 0.0
H394 H 0.8448 0.2411 0.62468 0.0
H395 H 0.85672 0.29651 0.72664 0.0
Co396 Co 0.02839 0.66337 0.91761 0.0
C397 C 0.06547 0.64918 0.985 0.0
C398 C 0.06833 0.68165 0.95875 0.0
C399 C 0.08653 0.6759 0.98713 0.0
N400 N 0.05516 0.66482 0.95727 0.0
N401 N 0.08476 0.6554 1.00327 0.0
H402 H 0.05918 0.6335 0.99152 0.0
H403 H 0.06507 0.69692 0.93973 0.0
C404 C 0.06312 0.66364 0.82781 0.0
O405 O 0.07617 0.65352 0.86169 0.0
N406 N 1.00186 0.66221 0.87715 0.0
C407 C 0.98513 0.64919 0.88475 0.0
C408 C 0.97071 0.65262 0.8419 0.0
C409 C 0.99728 0.67355 0.83081 0.0
N410 N 0.97845 0.66795 0.80824 0.0
C411 C 0.02028 0.62231 0.96348 0.0
C412 C 0.04457 0.59783 0.89164 0.0
C413 C 0.03679 0.58853 0.94123 0.0
C414 C 0.02373 0.60095 0.97572 0.0
C415 C 0.04066 0.61957 0.88067 0.0
N416 N 0.02968 0.63194 0.91834 0.0
H417 H 1.01065 0.63117 0.99266 0.0
H418 H 0.04687 0.62623 0.84256 0.0
H419 H 0.98354 0.63778 0.91829 0.0
H420 H 1.0079 0.68519 0.81285 0.0
O421 O 0.0132 0.66745 0.98783 0.0
O422 O 0.02339 0.69379 0.9338 0.0
O423 O 0.04372 0.66686 0.84233 0.0
C424 C 0.01392 0.68776 0.97969 0.0
H425 H 0.09972 0.6863 0.99659 0.0
H426 H 0.95574 0.64449 0.83592 0.0
H427 H 0.0542 0.58864 0.86264 0.0
H428 H 0.0165 0.59433 0.01306 0.0
Co429 Co 0.50719 0.35645 0.41956 0.0
C430 C 0.46118 0.36001 0.45154 0.0
C431 C 0.47106 0.32796 0.43581 0.0
C432 C 0.4497 0.32802 0.44763 0.0
N433 N 0.47847 0.348 0.43936 0.0
N434 N 0.44343 0.34824 0.45759 0.0
H435 H 0.4612 0.37707 0.45432 0.0
H436 H 0.48045 0.31411 0.425 0.0
C437 C 0.48161 0.36019 0.31257 0.0
O438 O 0.46932 0.37399 0.33845 0.0
N439 N 0.53573 0.36419 0.39736 0.0
C440 C 0.55277 0.36842 0.43011 0.0
C441 C 0.57047 0.37051 0.39618 0.0
C442 C 0.54321 0.36418 0.34437 0.0
N443 N 0.5642 0.36803 0.34246 0.0
C444 C 0.49623 0.39402 0.47872 0.0
C445 C 0.50381 0.42327 0.39494 0.0
C446 C 0.50013 0.43064 0.45006 0.0
C447 C 0.49584 0.4156 0.4916 0.0
C448 C 0.50415 0.4012 0.38367 0.0
N449 N 0.50024 0.38682 0.42546 0.0
H450 H 0.49343 0.38293 0.51244 0.0
H451 H 0.50849 0.39572 0.34214 0.0
H452 H 0.55261 0.36922 0.47549 0.0
H453 H 0.53384 0.36041 0.30763 0.0
O454 O 0.51627 0.35301 0.49685 0.0
O455 O 0.51757 0.32732 0.43393 0.0
O456 O 0.4983 0.35306 0.33736 0.0
C457 C 0.52103 0.33345 0.48556 0.0
H458 H 0.43986 0.31403 0.45078 0.0
H459 H 0.58666 0.3732 0.4098 0.0
H460 H 0.50742 0.43437 0.3616 0.0
H461 H 0.4926 0.42046 0.53448 0.0
Co462 Co 0.03896 0.36238 0.10059 0.0
C463 C 0.08011 0.37445 0.04862 0.0
C464 C 0.08013 0.34231 0.07901 0.0
C465 C 0.09992 0.34672 0.05797 0.0
N466 N 0.06788 0.35986 0.07434 0.0
N467 N 0.09997 0.36698 0.03926 0.0
H468 H 0.07455 0.39001 0.03606 0.0
H469 H 0.07513 0.32746 0.09747 0.0
C470 C 0.06772 0.35902 0.20432 0.0
O471 O 0.08394 0.36654 0.17619 0.0
N472 N 1.00976 0.36436 0.12686 0.0
C473 C 0.99166 0.36264 0.09654 0.0
C474 C 0.9746 0.36208 0.13274 0.0
C475 C 1.00334 0.36518 0.18086 0.0
N476 N 0.98204 0.36365 0.18567 0.0
C477 C 0.02688 0.40302 0.06269 0.0
C478 C 0.05674 0.42775 0.11652 0.0
C479 C 0.04426 0.43697 0.07375 0.0
C480 C 0.02862 0.42439 0.04868 0.0
C481 C 0.05441 0.40597 0.12957 0.0
N482 N 0.04029 0.39361 0.10049 0.0
H483 H 0.01506 0.39379 0.04089 0.0
H484 H 0.06463 0.39916 0.16094 0.0
H485 H 0.99077 0.36113 0.05135 0.0
H486 H 0.01398 0.36568 0.21648 0.0
O487 O 0.02972 0.35904 0.0234 0.0
O488 O 0.03416 0.33233 0.08234 0.0
O489 O 0.04903 0.35863 0.18235 0.0
C490 C 0.02889 0.33873 0.03211 0.0
H491 H 0.11297 0.3355 0.05443 0.0
H492 H 0.95809 0.36001 0.12112 0.0
H493 H 0.06877 0.43698 0.13794 0.0
H494 H 0.01797 0.4309 0.01723 0.0
Co495 Co 0.51181 0.6589 0.59949 0.0
C496 C 0.46693 0.65532 0.55651 0.0
C497 C 0.47687 0.68747 0.56903 0.0
C498 C 0.45575 0.68761 0.55472 0.0
N499 N 0.48414 0.66722 0.56958 0.0
N500 N 0.44948 0.66737 0.54719 0.0
H501 H 0.46653 0.6382 0.55678 0.0
H502 H 0.48601 0.70137 0.58003 0.0
C503 C 0.4824 0.65612 0.69874 0.0
O504 O 0.47103 0.64235 0.67033 0.0
N505 N 0.53898 0.65194 0.63209 0.0
C506 C 0.55269 0.63592 0.62098 0.0
C507 C 0.56978 0.6376 0.65747 0.0
C508 C 0.54792 0.66324 0.67378 0.0
N509 N 0.56669 0.65492 0.69014 0.0
C510 C 0.50238 0.621 0.54059 0.0
C511 C 0.50447 0.59234 0.62801 0.0
C512 C 0.50106 0.58461 0.57304 0.0
C513 C 0.5001 0.59943 0.52939 0.0
C514 C 0.50654 0.61443 0.63763 0.0
N515 N 0.50501 0.62853 0.59407 0.0
H516 H 0.50173 0.63185 0.50553 0.0
H517 H 0.50996 0.6201 0.67959 0.0
H518 H 0.55035 0.62381 0.58923 0.0
H519 H 0.54053 0.67711 0.6926 0.0
O520 O 0.52488 0.66095 0.52639 0.0
O521 O 0.52225 0.68789 0.58548 0.0
O522 O 0.49978 0.66312 0.67804 0.0
C523 C 0.52858 0.68077 0.53674 0.0
H524 H 0.44591 0.70163 0.54932 0.0
H525 H 0.58341 0.62706 0.65959 0.0
H526 H 0.50568 0.58148 0.66311 0.0
H527 H 0.4982 0.59443 0.4861 0.0
H528 H 0.50562 0.05418 0.41395 0.0
H529 H 0.56705 0.95446 0.55221 0.0
H530 H 0.57281 0.05348 0.44944 0.0
H531 H 0.49887 0.958 0.53375 0.0
H532 H 0.56979 0.98997 0.51058 0.0
H533 H 0.50325 0.01754 0.44933 0.0
C534 C 0.51995 0.04613 0.42784 0.0
C535 C 0.53943 0.05689 0.42864 0.0
C536 C 0.55422 0.98298 0.51571 0.0
C537 C 0.53683 0.01516 0.47054 0.0
C538 C 0.55263 0.96275 0.54011 0.0
C539 C 0.53272 0.95302 0.54641 0.0
C540 C 0.53576 0.99367 0.49728 0.0
C541 C 0.51463 0.96459 0.52898 0.0
C542 C 0.51857 0.02531 0.44878 0.0
C543 C 0.55745 0.04579 0.44816 0.0
N544 N 0.51659 0.98415 0.50515 0.0
N545 N 0.5557 0.02567 0.46856 0.0
H546 H 0.32093 0.30334 0.83017 0.0
H547 H 0.22664 0.23666 0.68644 0.0
H548 H 0.32048 0.23518 0.8101 0.0
H549 H 0.2196 0.30331 0.7257 0.0
H550 H 0.26212 0.23711 0.72727 0.0
H551 H 0.2845 0.30479 0.79161 0.0
C552 C 0.31307 0.28867 0.81861 0.0
C553 C 0.32391 0.26912 0.82307 0.0
C554 C 0.25293 0.25171 0.72701 0.0
C555 C 0.28246 0.27069 0.77781 0.0
C556 C 0.23259 0.25147 0.70349 0.0
C557 C 0.2199 0.26993 0.70295 0.0
C558 C 0.26098 0.27057 0.75044 0.0
C559 C 0.2288 0.28872 0.72487 0.0
C560 C 0.29237 0.28953 0.79608 0.0
C561 C 0.31296 0.25066 0.80679 0.0
N562 N 0.24873 0.28855 0.74799 0.0
N563 N 0.29306 0.25193 0.78469 0.0
H564 H 0.98788 0.05516 0.0779 0.0
H565 H 0.06877 0.96766 0.95472 0.0
H566 H 0.05594 0.06071 0.09212 0.0
H567 H 1.00045 0.96213 0.94763 0.0
H568 H 0.06471 1.00129 1.00579 0.0
H569 H 0.99245 0.02036 0.03356 0.0
C570 C 1.00382 0.04887 0.07245 0.0
C571 C 0.02156 0.06091 0.08879 0.0
C572 C 0.05061 0.99274 0.99292 0.0
C573 C 0.02698 0.02102 0.03675 0.0
C574 C 0.0529 0.97349 0.96366 0.0
C575 C 0.03492 0.96188 0.9465 0.0
C576 C 0.03019 1.00059 1.00542 0.0
C577 C 0.0148 0.97054 0.95896 0.0
C578 C 1.00643 0.02902 0.04679 0.0
C579 C 0.04183 0.05192 0.08068 0.0
N580 N 0.01301 0.98924 0.98764 0.0
N581 N 0.044 0.03263 0.05475 0.0
H582 H 0.30973 0.77855 0.17448 0.0
H583 H 0.22342 0.70895 0.34072 0.0
H584 H 0.31876 0.71207 0.21236 0.0
H585 H 0.21315 0.77381 0.28957 0.0
H586 H 0.25938 0.71024 0.30006 0.0
H587 H 0.27494 0.77738 0.21993 0.0
C588 C 0.30434 0.76365 0.19208 0.0
C589 C 0.31725 0.74538 0.1894 0.0
C590 C 0.24938 0.72429 0.29836 0.0
C591 C 0.2773 0.74394 0.24227 0.0
C592 C 0.229 0.72361 0.32215 0.0
C593 C 0.21558 0.74144 0.31931 0.0
C594 C 0.25626 0.7429 0.2712 0.0
C595 C 0.22323 0.75988 0.29342 0.0
C596 C 0.28445 0.763 0.21815 0.0
C597 C 0.30928 0.72648 0.21269 0.0
N598 N 0.243 0.76012 0.27027 0.0
N599 N 0.28991 0.72629 0.23836 0.0
H600 H 0.8214 0.7423 0.34035 0.0
H601 H 0.71933 0.80376 0.21581 0.0
H602 H 0.81533 0.81055 0.33661 0.0
H603 H 0.73078 0.73657 0.19231 0.0
H604 H 0.75295 0.8063 0.26705 0.0
H605 H 0.78595 0.73941 0.29726 0.0
C606 C 0.81232 0.75664 0.33204 0.0
C607 C 0.82123 0.77668 0.34245 0.0
C608 C 0.74812 0.791 0.25058 0.0
C609 C 0.78097 0.77359 0.29171 0.0
C610 C 0.72899 0.78957 0.22061 0.0
C611 C 0.72202 0.76991 0.19939 0.0
C612 C 0.76048 0.77263 0.2599 0.0
C613 C 0.7352 0.75204 0.2084 0.0
C614 C 0.79224 0.75502 0.30665 0.0
C615 C 0.80898 0.79479 0.32955 0.0
N616 N 0.75366 0.75382 0.238 0.0
N617 N 0.7896 0.79283 0.30465 0.0
H618 H 0.83772 0.2711 0.79134 0.0
H619 H 0.71192 0.27311 0.74502 0.0
H620 H 0.80878 0.26217 0.62872 0.0
H621 H 0.74073 0.26527 0.90822 0.0
H622 H 0.7471 0.27067 0.70176 0.0
H623 H 0.8025 0.27046 0.83463 0.0
C624 C 0.82392 0.26906 0.76464 0.0
C625 C 0.82625 0.26693 0.7061 0.0
C626 C 0.74578 0.26942 0.74701 0.0
C627 C 0.78565 0.26614 0.75576 0.0
C628 C 0.72569 0.27098 0.77187 0.0
C629 C 0.72334 0.26966 0.83055 0.0
C630 C 0.76387 0.26674 0.7809 0.0
C631 C 0.74175 0.26641 0.86292 0.0
C632 C 0.8038 0.26856 0.78952 0.0
C633 C 0.80777 0.26389 0.67391 0.0
N634 N 0.76122 0.26527 0.83775 0.0
N635 N 0.78827 0.26381 0.69907 0.0
H636 H 0.04785 0.5746 0.04611 0.0
H637 H 0.04451 0.45098 0.96498 0.0
H638 H 0.03799 0.55173 0.87712 0.0
H639 H 0.05116 0.47379 0.13514 0.0
H640 H 0.04563 0.48757 0.93124 0.0
H641 H 0.05263 0.538 0.07793 0.0
C642 C 0.04673 0.56185 0.01555 0.0
C643 C 0.04215 0.56631 0.95885 0.0
C644 C 0.04696 0.48464 0.97594 0.0
C645 C 0.04779 0.52409 0.99531 0.0
C646 C 0.04625 0.46371 0.99539 0.0
C647 C 0.04739 0.45922 0.05325 0.0
C648 C 0.04885 0.50146 0.01444 0.0
C649 C 0.05018 0.47641 0.09028 0.0
C650 C 0.04954 0.54092 0.03383 0.0
C651 C 0.04145 0.54911 0.92114 0.0
N652 N 0.05061 0.49675 0.07031 0.0
N653 N 0.04402 0.52879 0.94013 0.0
H654 H 0.52128 0.44788 0.53947 0.0
H655 H 0.47454 0.56541 0.49662 0.0
H656 H 0.48203 0.46564 0.3984 0.0
H657 H 0.52379 0.55068 0.61698 0.0
H658 H 0.47506 0.52846 0.46504 0.0
H659 H 0.52091 0.48482 0.57171 0.0
C660 C 0.51261 0.4596 0.51513 0.0
C661 C 0.50154 0.45357 0.46623 0.0
C662 C 0.48574 0.53326 0.49841 0.0
C663 C 0.50095 0.4961 0.50338 0.0
C664 C 0.48548 0.55441 0.5166 0.0
C665 C 0.49936 0.56139 0.55925 0.0
C666 C 0.49985 0.51868 0.52317 0.0
C667 C 0.51273 0.54613 0.58426 0.0
C668 C 0.51243 0.48072 0.5336 0.0
C669 C 0.49083 0.46954 0.43612 0.0
N670 N 0.51271 0.52557 0.56572 0.0
N671 N 0.49066 0.49001 0.45541 0.0
H672 H 0.50903 0.17953 0.23938 0.0
H673 H 0.4085 0.18881 0.03691 0.0
H674 H 0.44607 0.16287 0.29618 0.0
H675 H 0.46754 0.22203 0.01217 0.0
H676 H 0.4222 0.17516 0.12686 0.0
H677 H 0.49424 0.1912 0.15102 0.0
C678 C 0.49199 0.1786 0.23386 0.0
C679 C 0.47872 0.17065 0.2763 0.0
C680 C 0.43209 0.18544 0.10161 0.0
C681 C 0.46166 0.18359 0.17321 0.0
C682 C 0.42438 0.19307 0.05024 0.0
C683 C 0.43693 0.20659 0.01726 0.0
C684 C 0.45257 0.19116 0.11938 0.0
C685 C 0.45727 0.21186 0.03659 0.0
C686 C 0.48357 0.18514 0.18281 0.0
C687 C 0.45686 0.169 0.26485 0.0
N688 N 0.46446 0.20409 0.08621 0.0
N689 N 0.44895 0.17548 0.21429 0.0
H690 H 0.07928 0.20632 0.22149 0.0
H691 H 0.12643 0.17477 0.51943 0.0
H692 H 0.10026 0.14265 0.25893 0.0
H693 H 0.11702 0.23943 0.46377 0.0
H694 H 0.11954 0.16247 0.42324 0.0
H695 H 0.096 0.21888 0.30799 0.0
C696 C 0.0878 0.19509 0.24772 0.0
C697 C 0.08843 0.1735 0.23345 0.0
C698 C 0.11934 0.17937 0.43209 0.0
C699 C 0.10716 0.18749 0.33329 0.0
C700 C 0.12315 0.18639 0.48705 0.0
C701 C 0.12218 0.20818 0.50011 0.0
C702 C 0.11432 0.19424 0.39006 0.0
C703 C 0.11815 0.22253 0.45612 0.0
C704 C 0.09732 0.2022 0.29711 0.0
C705 C 0.09962 0.15947 0.26856 0.0
N706 N 0.11415 0.21529 0.40344 0.0
N707 N 0.10826 0.16664 0.31753 0.0
H708 H 0.10619 0.84072 0.44336 0.0
H709 H 0.11915 0.83332 0.77661 0.0
H710 H 0.14736 0.79647 0.5291 0.0
H711 H 0.07038 0.87085 0.69535 0.0
H712 H 0.13464 0.82563 0.68531 0.0
H713 H 0.09816 0.85788 0.5339 0.0
C714 C 0.11398 0.83505 0.48111 0.0
C715 C 0.12728 0.81711 0.47926 0.0
C716 C 0.12064 0.8357 0.6874 0.0
C717 C 0.11805 0.83627 0.58236 0.0
C718 C 0.11181 0.84021 0.73974 0.0
C719 C 0.09321 0.85256 0.74391 0.0
C720 C 0.11083 0.84348 0.63855 0.0
C721 C 0.08441 0.86085 0.69419 0.0
C722 C 0.10926 0.84467 0.53272 0.0
C723 C 0.13683 0.81015 0.52918 0.0
N724 N 0.09319 0.85601 0.6435 0.0
N725 N 0.13188 0.8196 0.57876 0.0
H726 H 0.40929 0.78562 0.95477 0.0
H727 H 0.48858 0.86428 0.79851 0.0
H728 H 0.44978 0.83024 0.04114 0.0
H729 H 0.43943 0.82982 0.71142 0.0
H730 H 0.47408 0.85222 0.88805 0.0
H731 H 0.41967 0.80155 0.86511 0.0
C732 C 0.42031 0.79879 0.9549 0.0
C733 C 0.42874 0.80654 1.00558 0.0
C734 C 0.4663 0.84743 0.84945 0.0
C735 C 0.44064 0.82486 0.90329 0.0
C736 C 0.47463 0.85426 0.79839 0.0
C737 C 0.46525 0.84793 0.74762 0.0
C738 C 0.44859 0.8339 0.84981 0.0
C739 C 0.44704 0.83515 0.74969 0.0
C740 C 0.42612 0.80796 0.90377 0.0
C741 C 0.44272 0.82385 1.0033 0.0
N742 N 0.43943 0.82833 0.8 0.0
N743 N 0.44836 0.83229 0.95304 0.0
H744 H 0.59535 0.8691 0.75032 0.0
H745 H 0.59197 0.77851 0.98696 0.0
H746 H 0.54407 0.82393 0.75811 0.0
H747 H 0.63181 0.83412 0.99339 0.0
H748 H 0.57569 0.79231 0.8998 0.0
H749 H 0.60993 0.85443 0.83667 0.0
C750 C 0.58702 0.85616 0.77046 0.0
C751 C 0.56839 0.84781 0.74674 0.0
C752 C 0.58802 0.80141 0.92043 0.0
C753 C 0.58537 0.8305 0.84624 0.0
C754 C 0.59744 0.79346 0.96989 0.0
C755 C 0.61329 0.80517 0.99782 0.0
C756 C 0.5947 0.82105 0.89847 0.0
C757 C 0.61962 0.82452 0.9738 0.0
C758 C 0.59541 0.84772 0.81995 0.0
C759 C 0.55837 0.83098 0.7751 0.0
N760 N 0.61038 0.83176 0.92586 0.0
N761 N 0.56707 0.82275 0.82313 0.0
H762 H 0.0138 0.838 0.72932 0.0
H763 H 0.90229 0.82318 0.56894 0.0
H764 H 0.95703 0.87486 0.76202 0.0
H765 H 0.96047 0.7958 0.50475 0.0
H766 H 0.92239 0.83963 0.64488 0.0
H767 H 0.9952 0.82058 0.65036 0.0
C768 C 0.99758 0.8426 0.71976 0.0
C769 C 0.98705 0.85797 0.75281 0.0
C770 C 0.93084 0.83002 0.61432 0.0
C771 C 0.96558 0.83783 0.66315 0.0
C772 C 0.91929 0.82047 0.57089 0.0
C773 C 0.92961 0.80807 0.52993 0.0
C774 C 0.95301 0.82716 0.61761 0.0
C775 C 0.95179 0.80528 0.53515 0.0
C776 C 0.98694 0.83258 0.6748 0.0
C777 C 0.96594 0.86313 0.73829 0.0
N778 N 0.96273 0.81472 0.57807 0.0
N779 N 0.95598 0.85305 0.69516 0.0
H780 H 0.97801 0.13705 0.33435 0.0
H781 H 0.95097 0.24778 0.48874 0.0
H782 H 1.00118 0.19702 0.27207 0.0
H783 H 0.91874 0.18854 0.52009 0.0
H784 H 0.97125 0.23012 0.41307 0.0
H785 H 0.95886 0.15601 0.40824 0.0
C786 C 0.97929 0.15421 0.33642 0.0
C787 C 0.9913 0.16536 0.29651 0.0
C788 C 0.95963 0.22109 0.43645 0.0
C789 C 0.96901 0.18742 0.38164 0.0
C790 C 0.94796 0.23119 0.47951 0.0
C791 C 0.93303 0.21972 0.51121 0.0
C792 C 0.95652 0.19931 0.42533 0.0
C793 C 0.93001 0.19817 0.49724 0.0
C794 C 0.96817 0.16509 0.3786 0.0
C795 C 0.99215 0.18768 0.30174 0.0
N796 N 0.94167 0.18874 0.45594 0.0
N797 N 0.98116 0.19796 0.34334 0.0
H798 H 0.58703 0.13884 0.21244 0.0
H799 H 0.59876 0.24952 0.04664 0.0
H800 H 0.55659 0.19637 0.2712 0.0
H801 H 0.63669 0.19326 0.01637 0.0
H802 H 0.58166 0.23109 0.12611 0.0
H803 H 0.60309 0.15886 0.13617 0.0
C804 C 0.58358 0.15569 0.20925 0.0
C805 C 0.57041 0.16583 0.24882 0.0
C806 C 0.59382 0.2229 0.10208 0.0
C807 C 0.58907 0.18918 0.1606 0.0
C808 C 0.60366 0.23345 0.05683 0.0
C809 C 0.61924 0.22301 0.02428 0.0
C810 C 0.59948 0.20171 0.11463 0.0
C811 C 0.62478 0.20209 0.03964 0.0
C812 C 0.59289 0.1672 0.16559 0.0
C813 C 0.56666 0.18782 0.24194 0.0
N814 N 0.61489 0.19222 0.08307 0.0
N815 N 0.57593 0.19874 0.19881 0.0
H816 H 0.9813 0.70806 0.76966 0.0
H817 H 0.92788 0.68399 0.47184 0.0
H818 H 0.95495 0.64661 0.73065 0.0
H819 H 0.93862 0.74682 0.53935 0.0
H820 H 0.93903 0.66886 0.5628 0.0
H821 H 0.9676 0.72165 0.68094 0.0
C822 C 0.97259 0.69744 0.74226 0.0
C823 C 0.96928 0.67621 0.75735 0.0
C824 C 0.9389 0.68596 0.55732 0.0
C825 C 0.95348 0.69159 0.65539 0.0
C826 C 0.93255 0.69456 0.50557 0.0
C827 C 0.93279 0.71667 0.49736 0.0
C828 C 0.94551 0.69963 0.60075 0.0
C829 C 0.93887 0.72968 0.54265 0.0
C830 C 0.96466 0.7052 0.6917 0.0
C831 C 0.95766 0.66315 0.72061 0.0
N832 N 0.94507 0.72097 0.59198 0.0
N833 N 0.95028 0.67101 0.67093 0.0
H834 H 0.61401 0.73622 0.94792 0.0
H835 H 0.5897 0.63205 0.76583 0.0
H836 H 0.6242 0.67259 1.01087 0.0
H837 H 0.57326 0.69601 0.71701 0.0
H838 H 0.60784 0.64632 0.84937 0.0
H839 H 0.60482 0.72149 0.85696 0.0
C840 C 0.61469 0.71915 0.94266 0.0
C841 C 0.61979 0.70567 0.98777 0.0
C842 C 0.60045 0.65722 0.82 0.0
C843 C 0.60869 0.68856 0.88294 0.0
C844 C 0.59025 0.64909 0.77227 0.0
C845 C 0.57978 0.66289 0.73503 0.0
C846 C 0.60029 0.67928 0.83 0.0
C847 C 0.58081 0.68483 0.74529 0.0
C848 C 0.60923 0.7107 0.89048 0.0
C849 C 0.62001 0.6836 0.97778 0.0
N850 N 0.59074 0.69231 0.79187 0.0
N851 N 0.61436 0.67572 0.92659 0.0
H852 H 0.63324 0.30693 0.08144 0.0
H853 H 0.55586 0.38612 0.24292 0.0
H854 H 0.59433 0.35451 0.99996 0.0
H855 H 0.60085 0.34588 0.32881 0.0
H856 H 0.57303 0.37753 0.15367 0.0
H857 H 0.62447 0.32292 0.17243 0.0
C858 C 0.62295 0.32077 0.08257 0.0
C859 C 0.61431 0.3292 0.03286 0.0
C860 C 0.57948 0.37082 0.19197 0.0
C861 C 0.60439 0.34768 0.13676 0.0
C862 C 0.5697 0.3758 0.24278 0.0
C863 C 0.57697 0.3666 0.29276 0.0
C864 C 0.59639 0.35614 0.19102 0.0
C865 C 0.59493 0.35332 0.29091 0.0
C866 C 0.6181 0.33 0.13451 0.0
C867 C 0.60145 0.34746 0.03689 0.0
N868 N 0.60383 0.34814 0.24057 0.0
N869 N 0.59671 0.35591 0.08788 0.0
H870 H 0.95532 0.35048 0.53544 0.0
H871 H 0.94714 0.33918 0.20179 0.0
H872 H 0.9171 0.30305 0.45214 0.0
H873 H 0.99095 0.38075 0.28729 0.0
H874 H 0.93132 0.33002 0.2924 0.0
H875 H 0.96393 0.36574 0.44447 0.0
C876 C 0.94849 0.34341 0.49813 0.0
C877 C 0.93559 0.3253 0.50156 0.0
C878 C 0.94424 0.34133 0.29125 0.0
C879 C 0.94568 0.3426 0.39684 0.0
C880 C 0.95315 0.3467 0.23951 0.0
C881 C 0.97054 0.36057 0.23718 0.0
C882 C 0.95275 0.34996 0.34085 0.0
C883 C 0.97782 0.3697 0.28741 0.0
C884 C 0.95353 0.35208 0.44605 0.0
C885 C 0.92743 0.31674 0.45147 0.0
N886 N 0.96901 0.36411 0.33722 0.0
N887 N 0.93272 0.32539 0.40112 0.0
H888 H 0.04426 0.35962 0.30284 0.0
H889 H 0.12056 0.27938 0.47031 0.0
H890 H 0.10155 0.33397 0.22934 0.0
H891 H 0.09188 0.33366 0.55174 0.0
H892 H 0.10643 0.29218 0.37955 0.0
H893 H 0.05441 0.34318 0.39339 0.0
C894 C 0.0588 0.35038 0.30562 0.0
C895 C 0.07222 0.34838 0.25881 0.0
C896 C 0.10309 0.30112 0.41753 0.0
C897 C 0.08356 0.32913 0.36113 0.0
C898 C 0.11106 0.29378 0.46918 0.0
C899 C 0.10752 0.30556 0.51844 0.0
C900 C 0.09099 0.32002 0.41552 0.0
C901 C 0.09518 0.32422 0.5146 0.0
C902 C 0.06461 0.34107 0.35713 0.0
C903 C 0.0909 0.33617 0.26464 0.0
N904 N 0.08729 0.33082 0.46422 0.0
N905 N 0.09595 0.32694 0.31461 0.0
H906 H 0.41361 0.33814 0.99985 0.0
H907 H 0.49676 0.32494 0.25465 0.0
H908 H 0.45137 0.28132 0.0223 0.0
H909 H 0.45023 0.37538 0.24328 0.0
H910 H 0.48258 0.3097 0.16697 0.0
H911 H 0.42858 0.35262 0.08633 0.0
C912 C 0.42499 0.32859 0.02304 0.0
C913 C 0.43111 0.30837 1.00339 0.0
C914 C 0.47555 0.32414 0.18363 0.0
C915 C 0.44871 0.32517 0.10328 0.0
C916 C 0.48374 0.33295 0.23355 0.0
C917 C 0.47474 0.35155 0.25672 0.0
C918 C 0.45831 0.33405 0.15619 0.0
C919 C 0.45774 0.36105 0.22742 0.0
C920 C 0.43359 0.33694 0.07265 0.0
C921 C 0.44601 0.2969 0.03575 0.0
N922 N 0.45016 0.35225 0.17905 0.0
N923 N 0.45436 0.30548 0.0838 0.0
H924 H 0.40655 0.6762 0.99682 0.0
H925 H 0.49713 0.6898 0.76275 0.0
H926 H 0.44829 0.73044 0.99469 0.0
H927 H 0.44819 0.64197 0.75838 0.0
H928 H 0.4811 0.70444 0.84895 0.0
H929 H 0.42274 0.6634 0.91047 0.0
C930 C 0.41909 0.68554 0.97804 0.0
C931 C 0.42605 0.70445 1.00346 0.0
C932 C 0.47393 0.69073 0.82905 0.0
C933 C 0.44503 0.68958 0.90366 0.0
C934 C 0.48314 0.68227 0.78002 0.0
C935 C 0.47404 0.66456 0.75308 0.0
C936 C 0.45556 0.68135 0.85156 0.0
C937 C 0.45582 0.65561 0.77736 0.0
C938 C 0.42839 0.67816 0.92848 0.0
C939 C 0.44235 0.71582 0.97659 0.0
N940 N 0.44727 0.66406 0.82493 0.0
N941 N 0.4514 0.70814 0.92835 0.0
H942 H 0.1011 0.65423 0.77716 0.0
H943 H 0.08786 0.73711 0.52293 0.0
H944 H 0.04424 0.69187 0.75369 0.0
H945 H 0.13767 0.68984 0.53259 0.0
H946 H 0.0729 0.72322 0.6109 0.0
H947 H 0.11562 0.66908 0.69082 0.0
C948 C 0.09157 0.66556 0.75377 0.0
C949 C 0.07133 0.67171 0.77299 0.0
C950 C 0.08715 0.71597 0.59381 0.0
C951 C 0.08814 0.68912 0.67351 0.0
C952 C 0.09581 0.724 0.54378 0.0
C953 C 0.11411 0.71467 0.52011 0.0
C954 C 0.09695 0.69859 0.62077 0.0
C955 C 0.12355 0.69757 0.54896 0.0
C956 C 0.09993 0.67408 0.70429 0.0
C957 C 0.05985 0.68653 0.7405 0.0
N958 N 0.11491 0.69014 0.59749 0.0
N959 N 0.06844 0.69479 0.69261 0.0
H960 H 0.48806 0.26445 0.76127 0.0
H961 H 0.50888 0.16052 0.5783 0.0
H962 H 0.44076 0.21624 0.73293 0.0
H963 H 0.53304 0.2202 0.5169 0.0
H964 H 0.49023 0.17946 0.65284 0.0
H965 H 0.51063 0.24747 0.68821 0.0
C966 C 0.48253 0.25023 0.74021 0.0
C967 C 0.46249 0.24171 0.75334 0.0
C968 C 0.49972 0.18845 0.62337 0.0
C969 C 0.48821 0.22217 0.67081 0.0
C970 C 0.51051 0.17764 0.58071 0.0
C971 C 0.52258 0.18871 0.54071 0.0
C972 C 0.50113 0.21065 0.62746 0.0
C973 C 0.52388 0.21099 0.54653 0.0
C974 C 0.49531 0.24068 0.6983 0.0
C975 C 0.45603 0.22339 0.72424 0.0
N976 N 0.51332 0.22125 0.58921 0.0
N977 N 0.46886 0.21418 0.68507 0.0
H978 H 0.01848 0.17362 0.93794 0.0
H979 H 0.10791 0.2539 0.84782 0.0
H980 H 0.04419 0.21894 0.0556 0.0
H981 H 0.05974 0.23485 0.72929 0.0
H982 H 0.08661 0.239 0.9242 0.0
H983 H 0.03471 0.19356 0.86053 0.0
C984 C 0.02732 0.18794 0.94743 0.0
C985 C 0.02992 0.19465 1.0034 0.0
C986 C 0.08058 0.23823 0.8816 0.0
C987 C 0.04905 0.21722 0.91494 0.0
C988 C 0.09277 0.24665 0.83788 0.0
C989 C 0.08561 0.24561 0.782 0.0
C990 C 0.06127 0.2281 0.86949 0.0
C991 C 0.06582 0.23608 0.77175 0.0
C992 C 0.03655 0.19931 0.90319 0.0
C993 C 0.04161 0.21327 0.01314 0.0
N994 N 0.05449 0.22738 0.81493 0.0
N995 N 0.05105 0.22368 0.96953 0.0
H996 H 0.0431 0.79907 0.96785 0.0
H997 H 0.06395 0.78941 0.30024 0.0
H998 H 0.04198 0.85311 0.07971 0.0
H999 H 0.09414 0.74823 0.17897 0.0
H1000 H 0.04664 0.80876 0.22243 0.0
H1001 H 0.05299 0.77623 0.04787 0.0
C1002 C 0.0447 0.80608 1.00925 0.0
C1003 C 0.04196 0.82806 0.01696 0.0
C1004 C 0.05677 0.79524 0.21306 0.0
C1005 C 0.05289 0.80204 0.10867 0.0
C1006 C 0.06646 0.78409 0.25742 0.0
C1007 C 0.08048 0.7672 0.24599 0.0
C1008 C 0.06081 0.78916 0.15705 0.0
C1009 C 0.08348 0.7612 0.18958 0.0
C1010 C 0.05039 0.79307 0.05481 0.0
C1011 C 0.04421 0.83629 0.07167 0.0
N1012 N 0.07377 0.77213 0.14731 0.0
N1013 N 0.04951 0.82331 0.11531 0.0
H1014 H 0.42121 0.77756 0.3164 0.0
H1015 H 0.52432 0.78833 0.50483 0.0
H1016 H 0.47857 0.74761 0.25484 0.0
H1017 H 0.4826 0.84079 0.46453 0.0
H1018 H 0.50606 0.7667 0.43196 0.0
H1019 H 0.44153 0.79378 0.39188 0.0
C1020 C 0.43809 0.77417 0.31893 0.0
C1021 C 0.44819 0.76129 0.27862 0.0
C1022 C 0.50105 0.78296 0.43945 0.0
C1023 C 0.47161 0.77987 0.36628 0.0
C1024 C 0.51128 0.79521 0.48115 0.0
C1025 C 0.50492 0.81638 0.49081 0.0
C1026 C 0.48403 0.79188 0.40894 0.0
C1027 C 0.48809 0.82459 0.45859 0.0
C1028 C 0.44968 0.78352 0.36217 0.0
C1029 C 0.47018 0.75757 0.2847 0.0
N1030 N 0.47816 0.81233 0.41979 0.0
N1031 N 0.48124 0.76685 0.32782 0.0
H1032 H 0.63027 0.85697 0.54516 0.0
H1033 H 0.65911 0.8153 0.31795 0.0
H1034 H 0.58429 0.88602 0.43493 0.0
H1035 H 0.63106 0.8669 0.22468 0.0
H1036 H 0.66163 0.83816 0.39949 0.0
H1037 H 0.6574 0.86085 0.47249 0.0
C1038 C 0.62607 0.86466 0.50599 0.0
C1039 C 0.60482 0.86999 0.49433 0.0
C1040 C 0.65575 0.84505 0.36085 0.0
C1041 C 0.63524 0.87348 0.41063 0.0
C1042 C 0.65432 0.83179 0.31395 0.0
C1043 C 0.64364 0.83891 0.2659 0.0
C1044 C 0.64583 0.86522 0.35954 0.0
C1045 C 0.63828 0.86054 0.26243 0.0
C1046 C 0.6415 0.86677 0.46443 0.0
C1047 C 0.60034 0.88089 0.44455 0.0
N1048 N 0.63866 0.87278 0.3094 0.0
N1049 N 0.61529 0.88164 0.40356 0.0
H1050 H 0.90811 0.87935 0.27432 0.0
H1051 H 1.00675 0.89763 0.08112 0.0
H1052 H 0.96971 0.84941 0.28904 0.0
H1053 H 0.94132 0.89713 0.02709 0.0
H1054 H 0.99498 0.90091 0.17829 0.0
H1055 H 0.92301 0.9049 0.20823 0.0
C1056 C 0.92494 0.87857 0.26497 0.0
C1057 C 0.93765 0.8619 0.28551 0.0
C1058 C 0.98324 0.9011 0.14493 0.0
C1059 C 0.95464 0.89109 0.21093 0.0
C1060 C 0.98991 0.89928 0.08944 0.0
C1061 C 0.97484 0.8963 0.04662 0.0
C1062 C 0.96149 0.89985 0.15698 0.0
C1063 C 0.95329 0.89868 0.05955 0.0
C1064 C 0.93339 0.89322 0.22758 0.0
C1065 C 0.95931 0.86163 0.2724 0.0
N1066 N 0.94716 0.89977 0.11404 0.0
N1067 N 0.9671 0.87583 0.23501 0.0
H1068 H 0.89714 0.17415 0.79462 0.0
H1069 H 0.94708 0.20982 0.05756 0.0
H1070 H 0.8951 0.24041 0.84106 0.0
H1071 H 0.91715 0.14833 0.05006 0.0
H1072 H 0.92169 0.22293 0.98791 0.0
H1073 H 0.89613 0.16465 0.89398 0.0
C1074 C 0.89566 0.18662 0.82585 0.0
C1075 C 0.8969 0.20799 0.8101 0.0
C1076 C 0.9202 0.20674 1.00283 0.0
C1077 C 0.89647 0.19749 0.92311 0.0
C1078 C 0.93486 0.19926 0.04201 0.0
C1079 C 0.93454 0.17788 0.05802 0.0
C1080 C 0.9057 0.19249 0.97839 0.0
C1081 C 0.9181 0.16488 0.03804 0.0
C1082 C 0.89503 0.18128 0.88252 0.0
C1083 C 0.89459 0.2237 0.85167 0.0
N1084 N 0.90468 0.17221 0.99787 0.0
N1085 N 0.89527 0.21816 0.90662 0.0
H1086 H 0.60893 0.20697 0.48504 0.0
H1087 H 0.65879 0.17744 0.74808 0.0
H1088 H 0.64153 0.14667 0.49898 0.0
H1089 H 0.65878 0.24297 0.69569 0.0
H1090 H 0.66231 0.16653 0.65014 0.0
H1091 H 0.63457 0.22238 0.55025 0.0
C1092 C 0.62173 0.19712 0.50104 0.0
C1093 C 0.62264 0.17539 0.48852 0.0
C1094 C 0.66243 0.18335 0.66001 0.0
C1095 C 0.65189 0.19269 0.56296 0.0
C1096 C 0.66036 0.18949 0.71592 0.0
C1097 C 0.65768 0.21098 0.72928 0.0
C1098 C 0.66081 0.19887 0.61773 0.0
C1099 C 0.66025 0.22616 0.68672 0.0
C1100 C 0.63658 0.20594 0.53758 0.0
C1101 C 0.63996 0.16342 0.50854 0.0
N1102 N 0.66084 0.2198 0.63232 0.0
N1103 N 0.65357 0.17207 0.54621 0.0
H1104 H 0.02651 0.72825 0.01257 0.0
H1105 H 0.92349 0.74909 0.19755 0.0
H1106 H 0.97856 0.68079 0.04146 0.0
H1107 H 0.98353 0.77257 0.25911 0.0
H1108 H 0.94207 0.73054 0.12223 0.0
H1109 H 1.00983 0.75074 0.08625 0.0
C1110 C 0.01239 0.72268 0.03387 0.0
C1111 C 1.00385 0.70263 0.02073 0.0
C1112 C 0.95121 0.73987 0.15191 0.0
C1113 C 0.98468 0.72824 0.10394 0.0
C1114 C 0.94061 0.7506 0.195 0.0
C1115 C 0.95191 0.76243 0.23525 0.0
C1116 C 0.97339 0.74111 0.14768 0.0
C1117 C 0.97416 0.76358 0.22928 0.0
C1118 C 1.00303 0.73541 0.07613 0.0
C1119 C 0.9857 0.69609 0.05015 0.0
N1120 N 0.98422 0.75309 0.18617 0.0
N1121 N 0.97665 0.70888 0.08968 0.0
H1122 H 0.56243 0.76154 0.25142 0.0
H1123 H 0.56175 0.66792 0.4739 0.0
H1124 H 0.61842 0.72576 0.29799 0.0
H1125 H 0.5212 0.72234 0.50227 0.0
H1126 H 0.5793 0.68691 0.39789 0.0
H1127 H 0.54346 0.74561 0.33224 0.0
C1128 C 0.57068 0.75035 0.27835 0.0
C1129 C 0.59203 0.74494 0.26781 0.0
C1130 C 0.56666 0.69483 0.42085 0.0
C1131 C 0.57055 0.72668 0.35924 0.0
C1132 C 0.55666 0.684 0.4643 0.0
C1133 C 0.54018 0.69366 0.49479 0.0
C1134 C 0.55988 0.7154 0.40637 0.0
C1135 C 0.53409 0.71449 0.48024 0.0
C1136 C 0.55993 0.74143 0.32456 0.0
C1137 C 0.60201 0.73048 0.30433 0.0
N1138 N 0.54381 0.72466 0.43648 0.0
N1139 N 0.59118 0.72177 0.34775 0.0
H1140 H 0.55229 0.30268 0.47539 0.0
H1141 H 0.5613 0.28071 0.80741 0.0
H1142 H 0.51212 0.33387 0.5972 0.0
H1143 H 0.61545 0.27816 0.69662 0.0
H1144 H 0.53897 0.29177 0.72734 0.0
H1145 H 0.57144 0.28496 0.55302 0.0
C1146 C 0.54719 0.3054 0.51829 0.0
C1147 C 0.53062 0.31978 0.5299 0.0
C1148 C 0.55572 0.2886 0.72062 0.0
C1149 C 0.5523 0.29957 0.61864 0.0
C1150 C 0.56843 0.28222 0.76621 0.0
C1151 C 0.59031 0.27871 0.75886 0.0
C1152 C 0.56485 0.29104 0.66702 0.0
C1153 C 0.5987 0.28094 0.70439 0.0
C1154 C 0.55821 0.29545 0.56254 0.0
C1155 C 0.52487 0.32296 0.5864 0.0
N1156 N 0.586 0.28692 0.66069 0.0
N1157 N 0.53563 0.31297 0.62853 0.0
H1158 H 0.03482 0.34216 0.9194 0.0
H1159 H 0.93661 0.27232 0.8371 0.0
H1160 H 1.00359 0.30345 0.04327 0.0
H1161 H 0.98739 0.28255 0.71887 0.0
H1162 H 0.95968 0.28506 0.91303 0.0
H1163 H 0.01696 0.32204 0.84481 0.0
C1164 C 0.02443 0.32917 0.93082 0.0
C1165 C 0.02072 0.32439 0.98756 0.0
C1166 C 0.96588 0.28427 0.87063 0.0
C1167 C 0.99973 0.30173 0.90241 0.0
C1168 C 0.9527 0.27711 0.82722 0.0
C1169 C 0.96009 0.27645 0.77157 0.0
C1170 C 0.98644 0.29144 0.8582 0.0
C1171 C 0.98111 0.28274 0.7612 0.0
C1172 C 0.01427 0.31769 0.88824 0.0
C1173 C 1.00703 0.3075 1.00004 0.0
N1174 N 0.99343 0.29034 0.80395 0.0
N1175 N 0.9967 0.29703 0.95783 0.0
H1176 H 0.12652 0.36689 0.72999 0.0
H1177 H 0.09548 0.39776 0.9595 0.0
H1178 H 0.15784 0.31836 0.82739 0.0
H1179 H 0.14248 0.35873 0.04215 0.0
H1180 H 0.11884 0.40136 0.88023 0.0
H1181 H 0.1355 0.39304 0.80198 0.0
C1182 C 0.13557 0.36186 0.7664 0.0
C1183 C 0.14022 0.34029 0.77498 0.0
C1184 C 0.1246 0.39242 0.91589 0.0
C1185 C 0.14916 0.36956 0.85899 0.0
C1186 C 0.11104 0.39041 0.96179 0.0
C1187 C 0.11634 0.3764 1.00539 0.0
C1188 C 0.14302 0.37957 0.91306 0.0
C1189 C 0.13714 0.36831 1.0071 0.0
C1190 C 0.14061 0.37675 0.80774 0.0
C1191 C 0.15308 0.33471 0.82063 0.0
N1192 N 0.1495 0.36933 0.96052 0.0
N1193 N 0.1565 0.34915 0.86206 0.0
H1194 H 0.41638 0.36356 0.75393 0.0
H1195 H 0.43366 0.38693 0.50596 0.0
H1196 H 0.38179 0.30867 0.69625 0.0
H1197 H 0.40619 0.32602 0.46566 0.0
H1198 H 0.40805 0.39127 0.58044 0.0
H1199 H 0.40673 0.38203 0.66856 0.0
C1200 C 0.40643 0.35551 0.72352 0.0
C1201 C 0.40124 0.33403 0.7303 0.0
C1202 C 0.40753 0.37687 0.5556 0.0
C1203 C 0.39041 0.35482 0.63113 0.0
C1204 C 0.4222 0.37441 0.51216 0.0
C1205 C 0.42367 0.35494 0.48316 0.0
C1206 C 0.39507 0.35936 0.57125 0.0
C1207 C 0.40706 0.3404 0.49049 0.0
C1208 C 0.40072 0.36614 0.67441 0.0
C1209 C 0.38713 0.32487 0.6916 0.0
N1210 N 0.39393 0.34249 0.53534 0.0
N1211 N 0.38277 0.33508 0.64277 0.0
H1212 H 0.44102 0.63102 0.48917 0.0
H1213 H 0.39477 0.6468 0.2605 0.0
H1214 H 0.41123 0.68758 0.5558 0.0
H1215 H 0.37819 0.7077 0.33144 0.0
H1216 H 0.39098 0.63073 0.35294 0.0
H1217 H 0.41156 0.62649 0.42578 0.0
C1218 C 0.42795 0.64224 0.49159 0.0
C1219 C 0.42931 0.66056 0.52507 0.0
C1220 C 0.38797 0.64759 0.34867 0.0
C1221 C 0.39553 0.656 0.45045 0.0
C1222 C 0.38988 0.65669 0.29556 0.0
C1223 C 0.38818 0.67879 0.28932 0.0
C1224 C 0.38543 0.66101 0.39566 0.0
C1225 C 0.38065 0.69072 0.33495 0.0
C1226 C 0.4109 0.63969 0.45482 0.0
C1227 C 0.41148 0.674 0.5278 0.0
N1228 N 0.3803 0.68181 0.38677 0.0
N1229 N 0.39562 0.67186 0.48957 0.0
H1230 H 0.15072 0.67022 0.27879 0.0
H1231 H 0.12655 0.66319 0.02477 0.0
H1232 H 0.08651 0.6476 0.29829 0.0
H1233 H 0.0757 0.62023 0.06645 0.0
H1234 H 0.14475 0.65299 0.11009 0.0
H1235 H 0.15522 0.64643 0.19873 0.0
C1236 C 0.13758 0.66016 0.2667 0.0
C1237 C 0.11746 0.6625 0.29176 0.0
C1238 C 0.12997 0.64511 0.10012 0.0
C1239 C 0.12241 0.63566 0.19993 0.0
C1240 C 0.11936 0.65129 0.05134 0.0
C1241 C 0.09873 0.64396 0.04072 0.0
C1242 C 0.11949 0.63198 0.13903 0.0
C1243 C 0.09098 0.62739 0.0744 0.0
C1244 C 0.14021 0.64649 0.22095 0.0
C1245 C 0.10183 0.64756 0.27784 0.0
N1246 N 0.10103 0.62249 0.12312 0.0
N1247 N 0.10438 0.63525 0.23154 0.0
loop_
_geom_bond_atom_site_label_1
_geom_bond_atom_site_label_2
_geom_bond_distance
_geom_bond_site_symmetry_2
_ccdc_geom_bond_type
Co0 N4 2.148 . S
Co0 N10 2.128 . S
Co0 N20 2.194 . S
Co0 O25 2.351 . S
Co0 O26 2.155 . S
Co0 O27 2.096 . S
C1 N4 1.301 . S
C1 N5 1.328 . S
C1 H6 0.930 . S
C2 C3 1.333 . S
C2 N4 1.317 . S
C2 H7 0.930 . S
C3 C2 1.333 . S
C3 N5 1.350 . S
C3 H29 0.931 . S
N4 Co0 2.148 . S
N4 C1 1.301 . S
N4 C2 1.317 . S
N5 C1 1.328 . S
N5 C3 1.350 . S
H6 C1 0.930 . S
H7 C2 0.930 . S
C8 O9 1.224 . S
C8 O27 1.247 . S
O9 C8 1.224 . S
N10 Co0 2.128 . S
N10 C11 1.355 . S
N10 C13 1.311 . S
C11 N10 1.355 . S
C11 C12 1.363 . S
C11 H23 0.929 . S
C12 C11 1.363 . S
C12 N14 1.375 . S
C12 H30 0.931 . S
C13 N10 1.311 . S
C13 N14 1.347 . S
C13 H24 0.929 . S
N14 C12 1.375 . S
N14 C13 1.347 . S
C15 C18 1.365 . S
C15 N20 1.328 . S
C15 H21 0.929 . S
C16 C17 1.362 . S
C16 C19 1.378 . S
C16 H31 0.929 . S
C17 C16 1.362 . S
C17 C18 1.366 . S
C18 C15 1.365 . S
C18 C17 1.366 . S
C18 H32 0.930 . S
C19 C16 1.378 . S
C19 N20 1.315 . S
C19 H22 0.930 . S
N20 Co0 2.194 . S
N20 C15 1.328 . S
N20 C19 1.315 . S
H21 C15 0.929 . S
H22 C19 0.930 . S
H23 C11 0.929 . S
H24 C13 0.929 . S
O25 Co0 2.351 . S
O25 C28 1.244 . S
O26 Co0 2.155 . S
O26 C28 1.240 . S
O27 Co0 2.096 . S
O27 C8 1.247 . S
C28 O25 1.244 . S
C28 O26 1.240 . S
H29 C3 0.931 . S
H30 C12 0.931 . S
H31 C16 0.929 . S
H32 C18 0.930 . S
Co33 N37 2.148 . S
Co33 N43 2.128 . S
Co33 N53 2.194 . S
Co33 O58 2.351 . S
Co33 O59 2.155 . S
Co33 O60 2.096 . S
C34 N37 1.301 . S
C34 N38 1.328 . S
C34 H39 0.930 . S
C35 C36 1.333 . S
C35 N37 1.317 . S
C35 H40 0.930 . S
C36 C35 1.333 . S
C36 N38 1.350 . S
C36 H62 0.931 . S
N37 Co33 2.148 . S
N37 C34 1.301 . S
N37 C35 1.317 . S
N38 C34 1.328 . S
N38 C36 1.350 . S
H39 C34 0.930 . S
H40 C35 0.930 . S
C41 O42 1.224 . S
C41 O60 1.247 . S
O42 C41 1.224 . S
N43 Co33 2.128 . S
N43 C44 1.355 . S
N43 C46 1.311 . S
C44 N43 1.355 . S
C44 C45 1.363 . S
C44 H56 0.929 . S
C45 C44 1.363 . S
C45 N47 1.375 . S
C45 H63 0.931 . S
C46 N43 1.311 . S
C46 N47 1.347 . S
C46 H57 0.929 . S
N47 C45 1.375 . S
N47 C46 1.347 . S
C48 C51 1.365 . S
C48 N53 1.328 . S
C48 H54 0.929 . S
C49 C50 1.362 . S
C49 C52 1.378 . S
C49 H64 0.929 . S
C50 C49 1.362 . S
C50 C51 1.366 . S
C51 C48 1.365 . S
C51 C50 1.366 . S
C51 H65 0.930 . S
C52 C49 1.378 . S
C52 N53 1.315 . S
C52 H55 0.930 . S
N53 Co33 2.194 . S
N53 C48 1.328 . S
N53 C52 1.315 . S
H54 C48 0.929 . S
H55 C52 0.930 . S
H56 C44 0.929 . S
H57 C46 0.929 . S
O58 Co33 2.351 . S
O58 C61 1.244 . S
O59 Co33 2.155 . S
O59 C61 1.240 . S
O60 Co33 2.096 . S
O60 C41 1.247 . S
C61 O58 1.244 . S
C61 O59 1.240 . S
H62 C36 0.931 . S
H63 C45 0.931 . S
H64 C49 0.929 . S
H65 C51 0.930 . S
Co66 N70 2.148 1_455 S
Co66 N76 2.128 . S
Co66 N86 2.194 . S
Co66 O91 2.351 . S
Co66 O92 2.155 . S
Co66 O93 2.096 1_455 S
C67 N70 1.301 . S
C67 N71 1.328 1_556 S
C67 H72 0.930 1_556 S
C68 C69 1.333 . S
C68 N70 1.317 . S
C68 H73 0.930 . S
C69 C68 1.333 . S
C69 N71 1.350 1_556 S
C69 H95 0.931 . S
N70 Co66 2.148 1_655 S
N70 C67 1.301 . S
N70 C68 1.317 . S
N71 C67 1.328 1_554 S
N71 C69 1.350 1_554 S
H72 C67 0.930 1_554 S
H73 C68 0.930 . S
C74 O75 1.224 . S
C74 O93 1.247 . S
O75 C74 1.224 . S
N76 Co66 2.128 . S
N76 C77 1.355 . S
N76 C79 1.311 . S
C77 N76 1.355 . S
C77 C78 1.363 . S
C77 H89 0.929 . S
C78 C77 1.363 . S
C78 N80 1.375 . S
C78 H96 0.931 . S
C79 N76 1.311 . S
C79 N80 1.347 . S
C79 H90 0.929 . S
N80 C78 1.375 . S
N80 C79 1.347 . S
C81 C84 1.365 . S
C81 N86 1.328 . S
C81 H87 0.929 . S
C82 C83 1.362 1_655 S
C82 C85 1.378 . S
C82 H97 0.929 . S
C83 C82 1.362 1_455 S
C83 C84 1.366 . S
C84 C81 1.365 . S
C84 C83 1.366 . S
C84 H98 0.930 . S
C85 C82 1.378 . S
C85 N86 1.315 1_655 S
C85 H88 0.930 . S
N86 Co66 2.194 . S
N86 C81 1.328 . S
N86 C85 1.315 1_455 S
H87 C81 0.929 . S
H88 C85 0.930 . S
H89 C77 0.929 . S
H90 C79 0.929 . S
O91 Co66 2.351 . S
O91 C94 1.244 . S
O92 Co66 2.155 . S
O92 C94 1.240 . S
O93 Co66 2.096 1_655 S
O93 C74 1.247 . S
C94 O91 1.244 . S
C94 O92 1.240 . S
H95 C69 0.931 . S
H96 C78 0.931 . S
H97 C82 0.929 . S
H98 C84 0.930 . S
Co99 N103 2.148 . S
Co99 N109 2.128 . S
Co99 N119 2.194 . S
Co99 O124 2.351 . S
Co99 O125 2.155 . S
Co99 O126 2.096 . S
C100 N103 1.301 . S
C100 N104 1.328 . S
C100 H105 0.930 . S
C101 C102 1.333 . S
C101 N103 1.317 . S
C101 H106 0.930 . S
C102 C101 1.333 . S
C102 N104 1.350 . S
C102 H128 0.931 . S
N103 Co99 2.148 . S
N103 C100 1.301 . S
N103 C101 1.317 . S
N104 C100 1.328 . S
N104 C102 1.350 . S
H105 C100 0.930 . S
H106 C101 0.930 . S
C107 O108 1.224 . S
C107 O126 1.247 . S
O108 C107 1.224 . S
N109 Co99 2.128 . S
N109 C110 1.355 . S
N109 C112 1.311 . S
C110 N109 1.355 . S
C110 C111 1.363 . S
C110 H122 0.929 . S
C111 C110 1.363 . S
C111 N113 1.375 . S
C111 H129 0.931 . S
C112 N109 1.311 . S
C112 N113 1.347 . S
C112 H123 0.929 . S
N113 C111 1.375 . S
N113 C112 1.347 . S
C114 C117 1.365 . S
C114 N119 1.328 . S
C114 H120 0.929 . S
C115 C116 1.362 . S
C115 C118 1.378 . S
C115 H130 0.929 . S
C116 C115 1.362 . S
C116 C117 1.366 . S
C117 C114 1.365 . S
C117 C116 1.366 . S
C117 H131 0.930 . S
C118 C115 1.378 . S
C118 N119 1.315 . S
C118 H121 0.930 . S
N119 Co99 2.194 . S
N119 C114 1.328 . S
N119 C118 1.315 . S
H120 C114 0.929 . S
H121 C118 0.930 . S
H122 C110 0.929 . S
H123 C112 0.929 . S
O124 Co99 2.351 . S
O124 C127 1.244 . S
O125 Co99 2.155 . S
O125 C127 1.240 . S
O126 Co99 2.096 . S
O126 C107 1.247 . S
C127 O124 1.244 . S
C127 O125 1.240 . S
H128 C102 0.931 . S
H129 C111 0.931 . S
H130 C115 0.929 . S
H131 C117 0.930 . S
Co132 N136 2.148 . S
Co132 N142 2.128 . S
Co132 N152 2.194 . S
Co132 O157 2.351 . S
Co132 O158 2.155 . S
Co132 O159 2.096 . S
C133 N136 1.301 . S
C133 N137 1.328 . S
C133 H138 0.930 . S
C134 C135 1.333 . S
C134 N136 1.317 . S
C134 H139 0.930 . S
C135 C134 1.333 . S
C135 N137 1.350 . S
C135 H161 0.931 . S
N136 Co132 2.148 . S
N136 C133 1.301 . S
N136 C134 1.317 . S
N137 C133 1.328 . S
N137 C135 1.350 . S
H138 C133 0.930 . S
H139 C134 0.930 . S
C140 O141 1.224 . S
C140 O159 1.247 . S
O141 C140 1.224 . S
N142 Co132 2.128 . S
N142 C143 1.355 . S
N142 C145 1.311 . S
C143 N142 1.355 . S
C143 C144 1.363 . S
C143 H155 0.929 . S
C144 C143 1.363 . S
C144 N146 1.375 . S
C144 H162 0.931 . S
C145 N142 1.311 . S
C145 N146 1.347 . S
C145 H156 0.929 . S
N146 C144 1.375 . S
N146 C145 1.347 . S
C147 C150 1.365 . S
C147 N152 1.328 . S
C147 H153 0.929 . S
C148 C149 1.362 . S
C148 C151 1.378 . S
C148 H163 0.929 . S
C149 C148 1.362 . S
C149 C150 1.366 . S
C150 C147 1.365 . S
C150 C149 1.366 . S
C150 H164 0.930 . S
C151 C148 1.378 . S
C151 N152 1.315 . S
C151 H154 0.930 . S
N152 Co132 2.194 . S
N152 C147 1.328 . S
N152 C151 1.315 . S
H153 C147 0.929 . S
H154 C151 0.930 . S
H155 C143 0.929 . S
H156 C145 0.929 . S
O157 Co132 2.351 . S
O157 C160 1.244 . S
O158 Co132 2.155 . S
O158 C160 1.240 . S
O159 Co132 2.096 . S
O159 C140 1.247 . S
C160 O157 1.244 . S
C160 O158 1.240 . S
H161 C135 0.931 . S
H162 C144 0.931 . S
H163 C148 0.929 . S
H164 C150 0.930 . S
Co165 N169 2.148 . S
Co165 N175 2.128 . S
Co165 N185 2.194 . S
Co165 O190 2.351 . S
Co165 O191 2.155 . S
Co165 O192 2.096 . S
C166 N169 1.301 . S
C166 N170 1.328 . S
C166 H171 0.930 . S
C167 C168 1.333 . S
C167 N169 1.317 . S
C167 H172 0.930 . S
C168 C167 1.333 . S
C168 N170 1.350 . S
C168 H194 0.931 . S
N169 Co165 2.148 . S
N169 C166 1.301 . S
N169 C167 1.317 . S
N170 C166 1.328 . S
N170 C168 1.350 . S
H171 C166 0.930 . S
H172 C167 0.930 . S
C173 O174 1.224 . S
C173 O192 1.247 . S
O174 C173 1.224 . S
N175 Co165 2.128 . S
N175 C176 1.355 . S
N175 C178 1.311 . S
C176 N175 1.355 . S
C176 C177 1.363 . S
C176 H188 0.929 . S
C177 C176 1.363 . S
C177 N179 1.375 . S
C177 H195 0.931 . S
C178 N175 1.311 . S
C178 N179 1.347 . S
C178 H189 0.929 . S
N179 C177 1.375 . S
N179 C178 1.347 . S
C180 C183 1.365 . S
C180 N185 1.328 . S
C180 H186 0.929 . S
C181 C182 1.362 . S
C181 C184 1.378 . S
C181 H196 0.929 . S
C182 C181 1.362 . S
C182 C183 1.366 . S
C183 C180 1.365 . S
C183 C182 1.366 . S
C183 H197 0.930 . S
C184 C181 1.378 . S
C184 N185 1.315 . S
C184 H187 0.930 . S
N185 Co165 2.194 . S
N185 C180 1.328 . S
N185 C184 1.315 . S
H186 C180 0.929 . S
H187 C184 0.930 . S
H188 C176 0.929 . S
H189 C178 0.929 . S
O190 Co165 2.351 . S
O190 C193 1.244 . S
O191 Co165 2.155 . S
O191 C193 1.240 . S
O192 Co165 2.096 . S
O192 C173 1.247 . S
C193 O190 1.244 . S
C193 O191 1.240 . S
H194 C168 0.931 . S
H195 C177 0.931 . S
H196 C181 0.929 . S
H197 C183 0.930 . S
Co198 N202 2.148 1_455 S
Co198 N208 2.128 . S
Co198 N218 2.194 . S
Co198 O223 2.351 . S
Co198 O224 2.155 . S
Co198 O225 2.096 1_455 S
C199 N202 1.301 . S
C199 N203 1.328 1_554 S
C199 H204 0.930 1_554 S
C200 C201 1.333 . S
C200 N202 1.317 . S
C200 H205 0.930 . S
C201 C200 1.333 . S
C201 N203 1.350 1_554 S
C201 H227 0.931 . S
N202 Co198 2.148 1_655 S
N202 C199 1.301 . S
N202 C200 1.317 . S
N203 C199 1.328 1_556 S
N203 C201 1.350 1_556 S
H204 C199 0.930 1_556 S
H205 C200 0.930 . S
C206 O207 1.224 . S
C206 O225 1.247 . S
O207 C206 1.224 . S
N208 Co198 2.128 . S
N208 C209 1.355 . S
N208 C211 1.311 . S
C209 N208 1.355 . S
C209 C210 1.363 . S
C209 H221 0.929 . S
C210 C209 1.363 . S
C210 N212 1.375 . S
C210 H228 0.931 . S
C211 N208 1.311 . S
C211 N212 1.347 . S
C211 H222 0.929 . S
N212 C210 1.375 . S
N212 C211 1.347 . S
C213 C216 1.365 . S
C213 N218 1.328 . S
C213 H219 0.929 . S
C214 C215 1.362 1_655 S
C214 C217 1.378 . S
C214 H229 0.929 . S
C215 C214 1.362 1_455 S
C215 C216 1.366 . S
C216 C213 1.365 . S
C216 C215 1.366 . S
C216 H230 0.930 . S
C217 C214 1.378 . S
C217 N218 1.315 1_655 S
C217 H220 0.930 . S
N218 Co198 2.194 . S
N218 C213 1.328 . S
N218 C217 1.315 1_455 S
H219 C213 0.929 . S
H220 C217 0.930 . S
H221 C209 0.929 . S
H222 C211 0.929 . S
O223 Co198 2.351 . S
O223 C226 1.244 . S
O224 Co198 2.155 . S
O224 C226 1.240 . S
O225 Co198 2.096 1_655 S
O225 C206 1.247 . S
C226 O223 1.244 . S
C226 O224 1.240 . S
H227 C201 0.931 . S
H228 C210 0.931 . S
H229 C214 0.929 . S
H230 C216 0.930 . S
Co231 N235 2.148 . S
Co231 N241 2.128 . S
Co231 N251 2.194 . S
Co231 O256 2.351 . S
Co231 O257 2.155 . S
Co231 O258 2.096 . S
C232 N235 1.301 . S
C232 N236 1.328 . S
C232 H237 0.930 . S
C233 C234 1.333 . S
C233 N235 1.317 . S
C233 H238 0.930 . S
C234 C233 1.333 . S
C234 N236 1.350 . S
C234 H260 0.931 . S
N235 Co231 2.148 . S
N235 C232 1.301 . S
N235 C233 1.317 . S
N236 C232 1.328 . S
N236 C234 1.350 . S
H237 C232 0.930 . S
H238 C233 0.930 . S
C239 O240 1.224 . S
C239 O258 1.247 . S
O240 C239 1.224 . S
N241 Co231 2.128 . S
N241 C242 1.355 . S
N241 C244 1.311 . S
C242 N241 1.355 . S
C242 C243 1.363 . S
C242 H254 0.929 . S
C243 C242 1.363 . S
C243 N245 1.375 . S
C243 H261 0.931 . S
C244 N241 1.311 . S
C244 N245 1.347 . S
C244 H255 0.929 . S
N245 C243 1.375 . S
N245 C244 1.347 . S
C246 C249 1.365 . S
C246 N251 1.328 . S
C246 H252 0.929 . S
C247 C248 1.362 . S
C247 C250 1.378 . S
C247 H262 0.929 . S
C248 C247 1.362 . S
C248 C249 1.366 . S
C249 C246 1.365 . S
C249 C248 1.366 . S
C249 H263 0.930 . S
C250 C247 1.378 . S
C250 N251 1.315 . S
C250 H253 0.930 . S
N251 Co231 2.194 . S
N251 C246 1.328 . S
N251 C250 1.315 . S
H252 C246 0.929 . S
H253 C250 0.930 . S
H254 C242 0.929 . S
H255 C244 0.929 . S
O256 Co231 2.351 . S
O256 C259 1.244 . S
O257 Co231 2.155 . S
O257 C259 1.240 . S
O258 Co231 2.096 . S
O258 C239 1.247 . S
C259 O256 1.244 . S
C259 O257 1.240 . S
H260 C234 0.931 . S
H261 C243 0.931 . S
H262 C247 0.929 . S
H263 C249 0.930 . S
Co264 N268 2.148 . S
Co264 N274 2.128 . S
Co264 N284 2.194 . S
Co264 O289 2.351 . S
Co264 O290 2.155 . S
Co264 O291 2.096 . S
C265 N268 1.301 . S
C265 N269 1.328 . S
C265 H270 0.930 . S
C266 C267 1.333 . S
C266 N268 1.317 . S
C266 H271 0.930 . S
C267 C266 1.333 . S
C267 N269 1.350 . S
C267 H293 0.931 . S
N268 Co264 2.148 . S
N268 C265 1.301 . S
N268 C266 1.317 . S
N269 C265 1.328 . S
N269 C267 1.350 . S
H270 C265 0.930 . S
H271 C266 0.930 . S
C272 O273 1.224 . S
C272 O291 1.247 . S
O273 C272 1.224 . S
N274 Co264 2.128 . S
N274 C275 1.355 . S
N274 C277 1.311 . S
C275 N274 1.355 . S
C275 C276 1.363 . S
C275 H287 0.929 . S
C276 C275 1.363 . S
C276 N278 1.375 . S
C276 H294 0.931 . S
C277 N274 1.311 . S
C277 N278 1.347 . S
C277 H288 0.929 . S
N278 C276 1.375 . S
N278 C277 1.347 . S
C279 C282 1.365 . S
C279 N284 1.328 . S
C279 H285 0.929 . S
C280 C281 1.362 . S
C280 C283 1.378 . S
C280 H295 0.929 . S
C281 C280 1.362 . S
C281 C282 1.366 . S
C282 C279 1.365 . S
C282 C281 1.366 . S
C282 H296 0.930 . S
C283 C280 1.378 . S
C283 N284 1.315 . S
C283 H286 0.930 . S
N284 Co264 2.194 . S
N284 C279 1.328 . S
N284 C283 1.315 . S
H285 C279 0.929 . S
H286 C283 0.930 . S
H287 C275 0.929 . S
H288 C277 0.929 . S
O289 Co264 2.351 . S
O289 C292 1.244 . S
O290 Co264 2.155 . S
O290 C292 1.240 . S
O291 Co264 2.096 . S
O291 C272 1.247 . S
C292 O289 1.244 . S
C292 O290 1.240 . S
H293 C267 0.931 . S
H294 C276 0.931 . S
H295 C280 0.929 . S
H296 C282 0.930 . S
Co297 N301 2.148 . S
Co297 N307 2.128 . S
Co297 N317 2.194 . S
Co297 O322 2.351 . S
Co297 O323 2.155 . S
Co297 O324 2.096 . S
C298 N301 1.301 . S
C298 N302 1.328 . S
C298 H303 0.930 . S
C299 C300 1.333 . S
C299 N301 1.317 . S
C299 H304 0.930 . S
C300 C299 1.333 . S
C300 N302 1.350 . S
C300 H326 0.931 . S
N301 Co297 2.148 . S
N301 C298 1.301 . S
N301 C299 1.317 . S
N302 C298 1.328 . S
N302 C300 1.350 . S
H303 C298 0.930 . S
H304 C299 0.930 . S
C305 O306 1.224 . S
C305 O324 1.247 . S
O306 C305 1.224 . S
N307 Co297 2.128 . S
N307 C308 1.355 . S
N307 C310 1.311 . S
C308 N307 1.355 . S
C308 C309 1.363 . S
C308 H320 0.929 . S
C309 C308 1.363 . S
C309 N311 1.375 . S
C309 H327 0.931 . S
C310 N307 1.311 . S
C310 N311 1.347 . S
C310 H321 0.929 . S
N311 C309 1.375 . S
N311 C310 1.347 . S
C312 C315 1.365 . S
C312 N317 1.328 . S
C312 H318 0.929 . S
C313 C314 1.362 . S
C313 C316 1.378 . S
C313 H328 0.929 . S
C314 C313 1.362 . S
C314 C315 1.366 . S
C315 C312 1.365 . S
C315 C314 1.366 . S
C315 H329 0.930 . S
C316 C313 1.378 . S
C316 N317 1.315 . S
C316 H319 0.930 . S
N317 Co297 2.194 . S
N317 C312 1.328 . S
N317 C316 1.315 . S
H318 C312 0.929 . S
H319 C316 0.930 . S
H320 C308 0.929 . S
H321 C310 0.929 . S
O322 Co297 2.351 . S
O322 C325 1.244 . S
O323 Co297 2.155 . S
O323 C325 1.240 . S
O324 Co297 2.096 . S
O324 C305 1.247 . S
C325 O322 1.244 . S
C325 O323 1.240 . S
H326 C300 0.931 . S
H327 C309 0.931 . S
H328 C313 0.929 . S
H329 C315 0.930 . S
Co330 N334 2.148 . S
Co330 N340 2.128 . S
Co330 N350 2.194 . S
Co330 O355 2.351 . S
Co330 O356 2.155 . S
Co330 O357 2.096 . S
C331 N334 1.301 . S
C331 N335 1.328 . S
C331 H336 0.930 . S
C332 C333 1.333 . S
C332 N334 1.317 . S
C332 H337 0.930 . S
C333 C332 1.333 . S
C333 N335 1.350 . S
C333 H359 0.931 . S
N334 Co330 2.148 . S
N334 C331 1.301 . S
N334 C332 1.317 . S
N335 C331 1.328 . S
N335 C333 1.350 . S
H336 C331 0.930 . S
H337 C332 0.930 . S
C338 O339 1.224 . S
C338 O357 1.247 . S
O339 C338 1.224 . S
N340 Co330 2.128 . S
N340 C341 1.355 . S
N340 C343 1.311 . S
C341 N340 1.355 . S
C341 C342 1.363 . S
C341 H353 0.929 . S
C342 C341 1.363 . S
C342 N344 1.375 . S
C342 H360 0.931 . S
C343 N340 1.311 . S
C343 N344 1.347 . S
C343 H354 0.929 . S
N344 C342 1.375 . S
N344 C343 1.347 . S
C345 C348 1.365 . S
C345 N350 1.328 . S
C345 H351 0.929 . S
C346 C347 1.362 . S
C346 C349 1.378 . S
C346 H361 0.929 . S
C347 C346 1.362 . S
C347 C348 1.366 . S
C348 C345 1.365 . S
C348 C347 1.366 . S
C348 H362 0.930 . S
C349 C346 1.378 . S
C349 N350 1.315 . S
C349 H352 0.930 . S
N350 Co330 2.194 . S
N350 C345 1.328 . S
N350 C349 1.315 . S
H351 C345 0.929 . S
H352 C349 0.930 . S
H353 C341 0.929 . S
H354 C343 0.929 . S
O355 Co330 2.351 . S
O355 C358 1.244 . S
O356 Co330 2.155 . S
O356 C358 1.240 . S
O357 Co330 2.096 . S
O357 C338 1.247 . S
C358 O355 1.244 . S
C358 O356 1.240 . S
H359 C333 0.931 . S
H360 C342 0.931 . S
H361 C346 0.929 . S
H362 C348 0.930 . S
Co363 N367 2.148 . S
Co363 N373 2.128 . S
Co363 N383 2.194 . S
Co363 O388 2.351 . S
Co363 O389 2.155 . S
Co363 O390 2.096 . S
C364 N367 1.301 . S
C364 N368 1.328 . S
C364 H369 0.930 . S
C365 C366 1.333 . S
C365 N367 1.317 . S
C365 H370 0.930 . S
C366 C365 1.333 . S
C366 N368 1.350 . S
C366 H392 0.931 . S
N367 Co363 2.148 . S
N367 C364 1.301 . S
N367 C365 1.317 . S
N368 C364 1.328 . S
N368 C366 1.350 . S
H369 C364 0.930 . S
H370 C365 0.930 . S
C371 O372 1.224 . S
C371 O390 1.247 . S
O372 C371 1.224 . S
N373 Co363 2.128 . S
N373 C374 1.355 . S
N373 C376 1.311 . S
C374 N373 1.355 . S
C374 C375 1.363 . S
C374 H386 0.929 . S
C375 C374 1.363 . S
C375 N377 1.375 . S
C375 H393 0.931 . S
C376 N373 1.311 . S
C376 N377 1.347 . S
C376 H387 0.929 . S
N377 C375 1.375 . S
N377 C376 1.347 . S
C378 C381 1.365 . S
C378 N383 1.328 . S
C378 H384 0.929 . S
C379 C380 1.362 . S
C379 C382 1.378 . S
C379 H394 0.929 . S
C380 C379 1.362 . S
C380 C381 1.366 . S
C381 C378 1.365 . S
C381 C380 1.366 . S
C381 H395 0.930 . S
C382 C379 1.378 . S
C382 N383 1.315 . S
C382 H385 0.930 . S
N383 Co363 2.194 . S
N383 C378 1.328 . S
N383 C382 1.315 . S
H384 C378 0.929 . S
H385 C382 0.930 . S
H386 C374 0.929 . S
H387 C376 0.929 . S
O388 Co363 2.351 . S
O388 C391 1.244 . S
O389 Co363 2.155 . S
O389 C391 1.240 . S
O390 Co363 2.096 . S
O390 C371 1.247 . S
C391 O388 1.244 . S
C391 O389 1.240 . S
H392 C366 0.931 . S
H393 C375 0.931 . S
H394 C379 0.929 . S
H395 C381 0.930 . S
Co396 N400 2.148 . S
Co396 N406 2.128 1_455 S
Co396 N416 2.194 . S
Co396 O421 2.351 1_455 S
Co396 O422 2.155 1_455 S
Co396 O423 2.096 . S
C397 N400 1.301 . S
C397 N401 1.328 1_556 S
C397 H402 0.930 1_556 S
C398 C399 1.333 . S
C398 N400 1.317 . S
C398 H403 0.930 . S
C399 C398 1.333 . S
C399 N401 1.350 1_556 S
C399 H425 0.931 . S
N400 Co396 2.148 . S
N400 C397 1.301 . S
N400 C398 1.317 . S
N401 C397 1.328 1_554 S
N401 C399 1.350 1_554 S
H402 C397 0.930 1_554 S
H403 C398 0.930 . S
C404 O405 1.224 . S
C404 O423 1.247 . S
O405 C404 1.224 . S
N406 Co396 2.128 1_655 S
N406 C407 1.355 . S
N406 C409 1.311 . S
C407 N406 1.355 . S
C407 C408 1.363 . S
C407 H419 0.929 . S
C408 C407 1.363 . S
C408 N410 1.375 . S
C408 H426 0.931 . S
C409 N406 1.311 . S
C409 N410 1.347 . S
C409 H420 0.929 . S
N410 C408 1.375 . S
N410 C409 1.347 . S
C411 C414 1.365 . S
C411 N416 1.328 . S
C411 H417 0.937 . S
C412 C413 1.362 . S
C412 C415 1.378 . S
C412 H427 0.929 . S
C413 C412 1.362 . S
C413 C414 1.366 . S
C414 C411 1.365 . S
C414 C413 1.366 . S
C414 H428 0.916 1_455 S
C415 C412 1.378 . S
C415 N416 1.315 . S
C415 H418 0.930 . S
N416 Co396 2.194 . S
N416 C411 1.328 . S
N416 C415 1.315 . S
H417 C411 0.937 . S
H418 C415 0.930 . S
H419 C407 0.929 . S
H420 C409 0.929 . S
O421 Co396 2.351 1_655 S
O421 C424 1.244 . S
O422 Co396 2.155 1_655 S
O422 C424 1.240 . S
O423 Co396 2.096 . S
O423 C404 1.247 . S
C424 O421 1.244 . S
C424 O422 1.240 . S
H425 C399 0.931 . S
H426 C408 0.931 . S
H427 C412 0.929 . S
H428 C414 0.916 1_655 S
Co429 N433 2.148 . S
Co429 N439 2.128 . S
Co429 N449 2.194 . S
Co429 O454 2.351 . S
Co429 O455 2.155 . S
Co429 O456 2.096 . S
C430 N433 1.301 . S
C430 N434 1.328 . S
C430 H435 0.930 . S
C431 C432 1.333 . S
C431 N433 1.317 . S
C431 H436 0.930 . S
C432 C431 1.333 . S
C432 N434 1.350 . S
C432 H458 0.931 . S
N433 Co429 2.148 . S
N433 C430 1.301 . S
N433 C431 1.317 . S
N434 C430 1.328 . S
N434 C432 1.350 . S
H435 C430 0.930 . S
H436 C431 0.930 . S
C437 O438 1.224 . S
C437 O456 1.247 . S
O438 C437 1.224 . S
N439 Co429 2.128 . S
N439 C440 1.355 . S
N439 C442 1.311 . S
C440 N439 1.355 . S
C440 C441 1.363 . S
C440 H452 0.929 . S
C441 C440 1.363 . S
C441 N443 1.375 . S
C441 H459 0.931 . S
C442 N439 1.311 . S
C442 N443 1.347 . S
C442 H453 0.929 . S
N443 C441 1.375 . S
N443 C442 1.347 . S
C444 C447 1.365 . S
C444 N449 1.328 . S
C444 H450 0.929 . S
C445 C446 1.362 . S
C445 C448 1.378 . S
C445 H460 0.929 . S
C446 C445 1.362 . S
C446 C447 1.366 . S
C447 C444 1.365 . S
C447 C446 1.366 . S
C447 H461 0.930 . S
C448 C445 1.378 . S
C448 N449 1.315 . S
C448 H451 0.930 . S
N449 Co429 2.194 . S
N449 C444 1.328 . S
N449 C448 1.315 . S
H450 C444 0.929 . S
H451 C448 0.930 . S
H452 C440 0.929 . S
H453 C442 0.929 . S
O454 Co429 2.351 . S
O454 C457 1.244 . S
O455 Co429 2.155 . S
O455 C457 1.240 . S
O456 Co429 2.096 . S
O456 C437 1.247 . S
C457 O454 1.244 . S
C457 O455 1.240 . S
H458 C432 0.931 . S
H459 C441 0.931 . S
H460 C445 0.929 . S
H461 C447 0.930 . S
Co462 N466 2.148 . S
Co462 N472 2.128 1_455 S
Co462 N482 2.194 . S
Co462 O487 2.351 1_455 S
Co462 O488 2.155 1_455 S
Co462 O489 2.096 . S
C463 N466 1.301 . S
C463 N467 1.328 1_554 S
C463 H468 0.930 1_554 S
C464 C465 1.333 . S
C464 N466 1.317 . S
C464 H469 0.930 . S
C465 C464 1.333 . S
C465 N467 1.350 1_554 S
C465 H491 0.931 . S
N466 Co462 2.148 . S
N466 C463 1.301 . S
N466 C464 1.317 . S
N467 C463 1.328 1_556 S
N467 C465 1.350 1_556 S
H468 C463 0.930 1_556 S
H469 C464 0.930 . S
C470 O471 1.224 . S
C470 O489 1.247 . S
O471 C470 1.224 . S
N472 Co462 2.128 1_655 S
N472 C473 1.355 . S
N472 C475 1.311 . S
C473 N472 1.355 . S
C473 C474 1.363 . S
C473 H485 0.929 . S
C474 C473 1.363 . S
C474 N476 1.375 . S
C474 H492 0.931 . S
C475 N472 1.311 . S
C475 N476 1.347 . S
C475 H486 0.929 . S
N476 C474 1.375 . S
N476 C475 1.347 . S
C477 C480 1.365 . S
C477 N482 1.328 . S
C477 H483 0.937 . S
C478 C479 1.362 . S
C478 C481 1.378 . S
C478 H493 0.929 . S
C479 C478 1.362 . S
C479 C480 1.366 . S
C480 C477 1.365 . S
C480 C479 1.366 . S
C480 H494 0.916 1_455 S
C481 C478 1.378 . S
C481 N482 1.315 . S
C481 H484 0.930 . S
N482 Co462 2.194 . S
N482 C477 1.328 . S
N482 C481 1.315 . S
H483 C477 0.937 . S
H484 C481 0.930 . S
H485 C473 0.929 . S
H486 C475 0.929 . S
O487 Co462 2.351 1_655 S
O487 C490 1.244 . S
O488 Co462 2.155 1_655 S
O488 C490 1.240 . S
O489 Co462 2.096 . S
O489 C470 1.247 . S
C490 O487 1.244 . S
C490 O488 1.240 . S
H491 C465 0.931 . S
H492 C474 0.931 . S
H493 C478 0.929 . S
H494 C480 0.916 1_655 S
Co495 N499 2.148 . S
Co495 N505 2.128 . S
Co495 N515 2.194 . S
Co495 O520 2.351 . S
Co495 O521 2.155 . S
Co495 O522 2.096 . S
C496 N499 1.301 . S
C496 N500 1.328 . S
C496 H501 0.930 . S
C497 C498 1.333 . S
C497 N499 1.317 . S
C497 H502 0.930 . S
C498 C497 1.333 . S
C498 N500 1.350 . S
C498 H524 0.931 . S
N499 Co495 2.148 . S
N499 C496 1.301 . S
N499 C497 1.317 . S
N500 C496 1.328 . S
N500 C498 1.350 . S
H501 C496 0.930 . S
H502 C497 0.930 . S
C503 O504 1.224 . S
C503 O522 1.247 . S
O504 C503 1.224 . S
N505 Co495 2.128 . S
N505 C506 1.355 . S
N505 C508 1.311 . S
C506 N505 1.355 . S
C506 C507 1.363 . S
C506 H518 0.929 . S
C507 C506 1.363 . S
C507 N509 1.375 . S
C507 H525 0.931 . S
C508 N505 1.311 . S
C508 N509 1.347 . S
C508 H519 0.929 . S
N509 C507 1.375 . S
N509 C508 1.347 . S
C510 C513 1.365 . S
C510 N515 1.328 . S
C510 H516 0.929 . S
C511 C512 1.362 . S
C511 C514 1.378 . S
C511 H526 0.929 . S
C512 C511 1.362 . S
C512 C513 1.366 . S
C513 C510 1.365 . S
C513 C512 1.366 . S
C513 H527 0.930 . S
C514 C511 1.378 . S
C514 N515 1.315 . S
C514 H517 0.930 . S
N515 Co495 2.194 . S
N515 C510 1.328 . S
N515 C514 1.315 . S
H516 C510 0.929 . S
H517 C514 0.930 . S
H518 C506 0.929 . S
H519 C508 0.929 . S
O520 Co495 2.351 . S
O520 C523 1.244 . S
O521 Co495 2.155 . S
O521 C523 1.240 . S
O522 Co495 2.096 . S
O522 C503 1.247 . S
C523 O520 1.244 . S
C523 O521 1.240 . S
H524 C498 0.931 . S
H525 C507 0.931 . S
H526 C511 0.929 . S
H527 C513 0.930 . S
H528 C534 0.930 . S
H529 C538 0.930 . S
H530 C543 0.929 . S
H531 C541 0.929 . S
H532 C536 0.929 . S
H533 C542 0.929 . S
C534 H528 0.930 . S
C534 C535 1.367 . S
C534 C542 1.378 . S
C535 C534 1.367 . S
C535 C543 1.433 . S
C536 H532 0.929 . S
C536 C538 1.378 . S
C536 C540 1.350 . S
C537 C540 1.463 1_545 S
C537 C542 1.350 . S
C537 N545 1.427 . S
C538 H529 0.930 . S
C538 C536 1.378 . S
C538 C539 1.367 . S
C539 C538 1.367 . S
C539 C541 1.433 . S
C540 C536 1.350 . S
C540 C537 1.463 1_565 S
C540 N544 1.427 . S
C541 H531 0.929 . S
C541 C539 1.433 . S
C541 N544 1.384 . S
C542 H533 0.929 . S
C542 C534 1.378 . S
C542 C537 1.350 . S
C543 H530 0.929 . S
C543 C535 1.433 . S
C543 N545 1.384 . S
N544 C540 1.427 . S
N544 C541 1.384 . S
N545 C537 1.427 . S
N545 C543 1.384 . S
H546 C552 0.930 . S
H547 C556 0.930 . S
H548 C561 0.929 . S
H549 C559 0.929 . S
H550 C554 0.929 . S
H551 C560 0.929 . S
C552 H546 0.930 . S
C552 C553 1.367 . S
C552 C560 1.378 . S
C553 C552 1.367 . S
C553 C561 1.433 . S
C554 H550 0.929 . S
C554 C556 1.378 . S
C554 C558 1.350 . S
C555 C558 1.463 . S
C555 C560 1.350 . S
C555 N563 1.427 . S
C556 H547 0.930 . S
C556 C554 1.378 . S
C556 C557 1.367 . S
C557 C556 1.367 . S
C557 C559 1.433 . S
C558 C554 1.350 . S
C558 C555 1.463 . S
C558 N562 1.427 . S
C559 H549 0.929 . S
C559 C557 1.433 . S
C559 N562 1.384 . S
C560 H551 0.929 . S
C560 C552 1.378 . S
C560 C555 1.350 . S
C561 H548 0.929 . S
C561 C553 1.433 . S
C561 N563 1.384 . S
N562 C558 1.427 . S
N562 C559 1.384 . S
N563 C555 1.427 . S
N563 C561 1.384 . S
H564 C570 0.930 . S
H565 C574 0.930 . S
H566 C579 0.929 . S
H567 C577 0.929 . S
H568 C572 0.929 . S
H569 C578 0.929 . S
C570 H564 0.930 . S
C570 C571 1.367 1_655 S
C570 C578 1.378 . S
C571 C570 1.367 1_455 S
C571 C579 1.433 . S
C572 H568 0.929 . S
C572 C574 1.378 . S
C572 C576 1.350 . S
C573 C576 1.463 1_544 S
C573 C578 1.350 1_455 S
C573 N581 1.427 . S
C574 H565 0.930 . S
C574 C572 1.378 . S
C574 C575 1.367 . S
C575 C574 1.367 . S
C575 C577 1.433 1_455 S
C576 C572 1.350 . S
C576 C573 1.463 1_566 S
C576 N580 1.427 1_455 S
C577 H567 0.929 . S
C577 C575 1.433 1_655 S
C577 N580 1.384 . S
C578 H569 0.929 . S
C578 C570 1.378 . S
C578 C573 1.350 1_655 S
C579 H566 0.929 . S
C579 C571 1.433 . S
C579 N581 1.384 . S
N580 C576 1.427 1_655 S
N580 C577 1.384 . S
N581 C573 1.427 . S
N581 C579 1.384 . S
H582 C588 0.930 . S
H583 C592 0.930 . S
H584 C597 0.929 . S
H585 C595 0.929 . S
H586 C590 0.929 . S
H587 C596 0.929 . S
C588 H582 0.930 . S
C588 C589 1.367 . S
C588 C596 1.378 . S
C589 C588 1.367 . S
C589 C597 1.433 . S
C590 H586 0.929 . S
C590 C592 1.378 . S
C590 C594 1.350 . S
C591 C594 1.463 . S
C591 C596 1.350 . S
C591 N599 1.427 . S
C592 H583 0.930 . S
C592 C590 1.378 . S
C592 C593 1.367 . S
C593 C592 1.367 . S
C593 C595 1.433 . S
C594 C590 1.350 . S
C594 C591 1.463 . S
C594 N598 1.427 . S
C595 H585 0.929 . S
C595 C593 1.433 . S
C595 N598 1.384 . S
C596 H587 0.929 . S
C596 C588 1.378 . S
C596 C591 1.350 . S
C597 H584 0.929 . S
C597 C589 1.433 . S
C597 N599 1.384 . S
N598 C594 1.427 . S
N598 C595 1.384 . S
N599 C591 1.427 . S
N599 C597 1.384 . S
H600 C606 0.930 . S
H601 C610 0.930 . S
H602 C615 0.929 . S
H603 C613 0.929 . S
H604 C608 0.929 . S
H605 C614 0.929 . S
C606 H600 0.930 . S
C606 C607 1.367 . S
C606 C614 1.378 . S
C607 C606 1.367 . S
C607 C615 1.433 . S
C608 H604 0.929 . S
C608 C610 1.378 . S
C608 C612 1.350 . S
C609 C612 1.463 . S
C609 C614 1.350 . S
C609 N617 1.427 . S
C610 H601 0.930 . S
C610 C608 1.378 . S
C610 C611 1.367 . S
C611 C610 1.367 . S
C611 C613 1.433 . S
C612 C608 1.350 . S
C612 C609 1.463 . S
C612 N616 1.427 . S
C613 H603 0.929 . S
C613 C611 1.433 . S
C613 N616 1.384 . S
C614 H605 0.929 . S
C614 C606 1.378 . S
C614 C609 1.350 . S
C615 H602 0.929 . S
C615 C607 1.433 . S
C615 N617 1.384 . S
N616 C612 1.427 . S
N616 C613 1.384 . S
N617 C609 1.427 . S
N617 C615 1.384 . S
H618 C624 0.930 . S
H619 C628 0.930 . S
H620 C633 0.929 . S
H621 C631 0.929 . S
H622 C626 0.929 . S
H623 C632 0.929 . S
C624 H618 0.930 . S
C624 C625 1.367 . S
C624 C632 1.378 . S
C625 C624 1.367 . S
C625 C633 1.433 . S
C626 H622 0.929 . S
C626 C628 1.378 . S
C626 C630 1.350 . S
C627 C630 1.463 . S
C627 C632 1.350 . S
C627 N635 1.427 . S
C628 H619 0.930 . S
C628 C626 1.378 . S
C628 C629 1.367 . S
C629 C628 1.367 . S
C629 C631 1.433 . S
C630 C626 1.350 . S
C630 C627 1.463 . S
C630 N634 1.427 . S
C631 H621 0.929 . S
C631 C629 1.433 . S
C631 N634 1.384 . S
C632 H623 0.929 . S
C632 C624 1.378 . S
C632 C627 1.350 . S
C633 H620 0.929 . S
C633 C625 1.433 . S
C633 N635 1.384 . S
N634 C630 1.427 . S
N634 C631 1.384 . S
N635 C627 1.427 . S
N635 C633 1.384 . S
H636 C642 0.930 . S
H637 C646 0.930 . S
H638 C651 0.929 . S
H639 C649 0.929 . S
H640 C644 0.929 . S
H641 C650 0.929 . S
C642 H636 0.930 . S
C642 C643 1.367 . S
C642 C650 1.378 1_556 S
C643 C642 1.367 . S
C643 C651 1.433 . S
C644 H640 0.929 . S
C644 C646 1.378 1_556 S
C644 C648 1.350 1_556 S
C645 C648 1.463 1_556 S
C645 C650 1.350 1_556 S
C645 N653 1.427 . S
C646 H637 0.930 . S
C646 C644 1.378 1_554 S
C646 C647 1.367 . S
C647 C646 1.367 . S
C647 C649 1.433 . S
C648 C644 1.350 1_554 S
C648 C645 1.463 1_554 S
C648 N652 1.427 . S
C649 H639 0.929 . S
C649 C647 1.433 . S
C649 N652 1.384 . S
C650 H641 0.929 . S
C650 C642 1.378 1_554 S
C650 C645 1.350 1_554 S
C651 H638 0.929 . S
C651 C643 1.433 . S
C651 N653 1.384 . S
N652 C648 1.427 . S
N652 C649 1.384 . S
N653 C645 1.427 . S
N653 C651 1.384 . S
H654 C660 0.930 . S
H655 C664 0.930 . S
H656 C669 0.929 . S
H657 C667 0.929 . S
H658 C662 0.929 . S
H659 C668 0.929 . S
C660 H654 0.930 . S
C660 C661 1.367 . S
C660 C668 1.378 . S
C661 C660 1.367 . S
C661 C669 1.433 . S
C662 H658 0.929 . S
C662 C664 1.378 . S
C662 C666 1.350 . S
C663 C666 1.463 . S
C663 C668 1.350 . S
C663 N671 1.427 . S
C664 H655 0.930 . S
C664 C662 1.378 . S
C664 C665 1.367 . S
C665 C664 1.367 . S
C665 C667 1.433 . S
C666 C662 1.350 . S
C666 C663 1.463 . S
C666 N670 1.427 . S
C667 H657 0.929 . S
C667 C665 1.433 . S
C667 N670 1.384 . S
C668 H659 0.929 . S
C668 C660 1.378 . S
C668 C663 1.350 . S
C669 H656 0.929 . S
C669 C661 1.433 . S
C669 N671 1.384 . S
N670 C666 1.427 . S
N670 C667 1.384 . S
N671 C663 1.427 . S
N671 C669 1.384 . S
H672 C678 0.930 . S
H673 C682 0.930 . S
H674 C687 0.929 . S
H675 C685 0.929 . S
H676 C680 0.929 . S
H677 C686 0.929 . S
C678 H672 0.930 . S
C678 C679 1.367 . S
C678 C686 1.378 . S
C679 C678 1.367 . S
C679 C687 1.433 . S
C680 H676 0.929 . S
C680 C682 1.378 . S
C680 C684 1.350 . S
C681 C684 1.463 . S
C681 C686 1.350 . S
C681 N689 1.427 . S
C682 H673 0.930 . S
C682 C680 1.378 . S
C682 C683 1.367 . S
C683 C682 1.367 . S
C683 C685 1.433 . S
C684 C680 1.350 . S
C684 C681 1.463 . S
C684 N688 1.427 . S
C685 H675 0.929 . S
C685 C683 1.433 . S
C685 N688 1.384 . S
C686 H677 0.929 . S
C686 C678 1.378 . S
C686 C681 1.350 . S
C687 H674 0.929 . S
C687 C679 1.433 . S
C687 N689 1.384 . S
N688 C684 1.427 . S
N688 C685 1.384 . S
N689 C681 1.427 . S
N689 C687 1.384 . S
H690 C696 0.930 . S
H691 C700 0.930 . S
H692 C705 0.929 . S
H693 C703 0.929 . S
H694 C698 0.929 . S
H695 C704 0.929 . S
C696 H690 0.930 . S
C696 C697 1.367 . S
C696 C704 1.378 . S
C697 C696 1.367 . S
C697 C705 1.433 . S
C698 H694 0.929 . S
C698 C700 1.378 . S
C698 C702 1.350 . S
C699 C702 1.463 . S
C699 C704 1.350 . S
C699 N707 1.427 . S
C700 H691 0.930 . S
C700 C698 1.378 . S
C700 C701 1.367 . S
C701 C700 1.367 . S
C701 C703 1.433 . S
C702 C698 1.350 . S
C702 C699 1.463 . S
C702 N706 1.427 . S
C703 H693 0.929 . S
C703 C701 1.433 . S
C703 N706 1.384 . S
C704 H695 0.929 . S
C704 C696 1.378 . S
C704 C699 1.350 . S
C705 H692 0.929 . S
C705 C697 1.433 . S
C705 N707 1.384 . S
N706 C702 1.427 . S
N706 C703 1.384 . S
N707 C699 1.427 . S
N707 C705 1.384 . S
H708 C714 0.930 . S
H709 C718 0.930 . S
H710 C723 0.929 . S
H711 C721 0.929 . S
H712 C716 0.929 . S
H713 C722 0.929 . S
C714 H708 0.930 . S
C714 C715 1.367 . S
C714 C722 1.378 . S
C715 C714 1.367 . S
C715 C723 1.433 . S
C716 H712 0.929 . S
C716 C718 1.378 . S
C716 C720 1.350 . S
C717 C720 1.463 . S
C717 C722 1.350 . S
C717 N725 1.427 . S
C718 H709 0.930 . S
C718 C716 1.378 . S
C718 C719 1.367 . S
C719 C718 1.367 . S
C719 C721 1.433 . S
C720 C716 1.350 . S
C720 C717 1.463 . S
C720 N724 1.427 . S
C721 H711 0.929 . S
C721 C719 1.433 . S
C721 N724 1.384 . S
C722 H713 0.929 . S
C722 C714 1.378 . S
C722 C717 1.350 . S
C723 H710 0.929 . S
C723 C715 1.433 . S
C723 N725 1.384 . S
N724 C720 1.427 . S
N724 C721 1.384 . S
N725 C717 1.427 . S
N725 C723 1.384 . S
H726 C732 0.930 . S
H727 C736 0.930 . S
H728 C741 0.929 1_554 S
H729 C739 0.929 . S
H730 C734 0.929 . S
H731 C740 0.929 . S
C732 H726 0.930 . S
C732 C733 1.367 . S
C732 C740 1.378 . S
C733 C732 1.367 . S
C733 C741 1.433 . S
C734 H730 0.929 . S
C734 C736 1.378 . S
C734 C738 1.350 . S
C735 C738 1.463 . S
C735 C740 1.350 . S
C735 N743 1.427 . S
C736 H727 0.930 . S
C736 C734 1.378 . S
C736 C737 1.367 . S
C737 C736 1.367 . S
C737 C739 1.433 . S
C738 C734 1.350 . S
C738 C735 1.463 . S
C738 N742 1.427 . S
C739 H729 0.929 . S
C739 C737 1.433 . S
C739 N742 1.384 . S
C740 H731 0.929 . S
C740 C732 1.378 . S
C740 C735 1.350 . S
C741 H728 0.929 1_556 S
C741 C733 1.433 . S
C741 N743 1.384 . S
N742 C738 1.427 . S
N742 C739 1.384 . S
N743 C735 1.427 . S
N743 C741 1.384 . S
H744 C750 0.930 . S
H745 C754 0.930 1_554 S
H746 C759 0.929 . S
H747 C757 0.929 . S
H748 C752 0.929 . S
H749 C758 0.929 . S
C750 H744 0.930 . S
C750 C751 1.367 . S
C750 C758 1.378 . S
C751 C750 1.367 . S
C751 C759 1.433 . S
C752 H748 0.929 . S
C752 C754 1.378 . S
C752 C756 1.350 . S
C753 C756 1.463 . S
C753 C758 1.350 . S
C753 N761 1.427 . S
C754 H745 0.930 1_556 S
C754 C752 1.378 . S
C754 C755 1.367 . S
C755 C754 1.367 . S
C755 C757 1.433 . S
C756 C752 1.350 . S
C756 C753 1.463 . S
C756 N760 1.427 . S
C757 H747 0.929 . S
C757 C755 1.433 . S
C757 N760 1.384 . S
C758 H749 0.929 . S
C758 C750 1.378 . S
C758 C753 1.350 . S
C759 H746 0.929 . S
C759 C751 1.433 . S
C759 N761 1.384 . S
N760 C756 1.427 . S
N760 C757 1.384 . S
N761 C753 1.427 . S
N761 C759 1.384 . S
H762 C768 0.930 . S
H763 C772 0.930 . S
H764 C777 0.929 . S
H765 C775 0.929 . S
H766 C770 0.929 . S
H767 C776 0.929 . S
C768 H762 0.930 . S
C768 C769 1.367 . S
C768 C776 1.378 . S
C769 C768 1.367 . S
C769 C777 1.433 . S
C770 H766 0.929 . S
C770 C772 1.378 . S
C770 C774 1.350 . S
C771 C774 1.463 . S
C771 C776 1.350 . S
C771 N779 1.427 . S
C772 H763 0.930 . S
C772 C770 1.378 . S
C772 C773 1.367 . S
C773 C772 1.367 . S
C773 C775 1.433 . S
C774 C770 1.350 . S
C774 C771 1.463 . S
C774 N778 1.427 . S
C775 H765 0.929 . S
C775 C773 1.433 . S
C775 N778 1.384 . S
C776 H767 0.929 . S
C776 C768 1.378 . S
C776 C771 1.350 . S
C777 H764 0.929 . S
C777 C769 1.433 . S
C777 N779 1.384 . S
N778 C774 1.427 . S
N778 C775 1.384 . S
N779 C771 1.427 . S
N779 C777 1.384 . S
H780 C786 0.930 . S
H781 C790 0.930 . S
H782 C795 0.929 . S
H783 C793 0.929 . S
H784 C788 0.929 . S
H785 C794 0.929 . S
C786 H780 0.930 . S
C786 C787 1.367 . S
C786 C794 1.378 . S
C787 C786 1.367 . S
C787 C795 1.433 . S
C788 H784 0.929 . S
C788 C790 1.378 . S
C788 C792 1.350 . S
C789 C792 1.463 . S
C789 C794 1.350 . S
C789 N797 1.427 . S
C790 H781 0.930 . S
C790 C788 1.378 . S
C790 C791 1.367 . S
C791 C790 1.367 . S
C791 C793 1.433 . S
C792 C788 1.350 . S
C792 C789 1.463 . S
C792 N796 1.427 . S
C793 H783 0.929 . S
C793 C791 1.433 . S
C793 N796 1.384 . S
C794 H785 0.929 . S
C794 C786 1.378 . S
C794 C789 1.350 . S
C795 H782 0.929 . S
C795 C787 1.433 . S
C795 N797 1.384 . S
N796 C792 1.427 . S
N796 C793 1.384 . S
N797 C789 1.427 . S
N797 C795 1.384 . S
H798 C804 0.930 . S
H799 C808 0.930 . S
H800 C813 0.929 . S
H801 C811 0.929 1_556 S
H802 C806 0.929 . S
H803 C812 0.929 . S
C804 H798 0.930 . S
C804 C805 1.367 . S
C804 C812 1.378 . S
C805 C804 1.367 . S
C805 C813 1.433 . S
C806 H802 0.929 . S
C806 C808 1.378 . S
C806 C810 1.350 . S
C807 C810 1.463 . S
C807 C812 1.350 . S
C807 N815 1.427 . S
C808 H799 0.930 . S
C808 C806 1.378 . S
C808 C809 1.367 . S
C809 C808 1.367 . S
C809 C811 1.433 . S
C810 C806 1.350 . S
C810 C807 1.463 . S
C810 N814 1.427 . S
C811 H801 0.929 1_554 S
C811 C809 1.433 . S
C811 N814 1.384 . S
C812 H803 0.929 . S
C812 C804 1.378 . S
C812 C807 1.350 . S
C813 H800 0.929 . S
C813 C805 1.433 . S
C813 N815 1.384 . S
N814 C810 1.427 . S
N814 C811 1.384 . S
N815 C807 1.427 . S
N815 C813 1.384 . S
H816 C822 0.930 . S
H817 C826 0.930 . S
H818 C831 0.929 . S
H819 C829 0.929 . S
H820 C824 0.929 . S
H821 C830 0.929 . S
C822 H816 0.930 . S
C822 C823 1.367 . S
C822 C830 1.378 . S
C823 C822 1.367 . S
C823 C831 1.433 . S
C824 H820 0.929 . S
C824 C826 1.378 . S
C824 C828 1.350 . S
C825 C828 1.463 . S
C825 C830 1.350 . S
C825 N833 1.427 . S
C826 H817 0.930 . S
C826 C824 1.378 . S
C826 C827 1.367 . S
C827 C826 1.367 . S
C827 C829 1.433 . S
C828 C824 1.350 . S
C828 C825 1.463 . S
C828 N832 1.427 . S
C829 H819 0.929 . S
C829 C827 1.433 . S
C829 N832 1.384 . S
C830 H821 0.929 . S
C830 C822 1.378 . S
C830 C825 1.350 . S
C831 H818 0.929 . S
C831 C823 1.433 . S
C831 N833 1.384 . S
N832 C828 1.427 . S
N832 C829 1.384 . S
N833 C825 1.427 . S
N833 C831 1.384 . S
H834 C840 0.930 . S
H835 C844 0.930 . S
H836 C849 0.929 1_554 S
H837 C847 0.929 . S
H838 C842 0.929 . S
H839 C848 0.929 . S
C840 H834 0.930 . S
C840 C841 1.367 . S
C840 C848 1.378 . S
C841 C840 1.367 . S
C841 C849 1.433 . S
C842 H838 0.929 . S
C842 C844 1.378 . S
C842 C846 1.350 . S
C843 C846 1.463 . S
C843 C848 1.350 . S
C843 N851 1.427 . S
C844 H835 0.930 . S
C844 C842 1.378 . S
C844 C845 1.367 . S
C845 C844 1.367 . S
C845 C847 1.433 . S
C846 C842 1.350 . S
C846 C843 1.463 . S
C846 N850 1.427 . S
C847 H837 0.929 . S
C847 C845 1.433 . S
C847 N850 1.384 . S
C848 H839 0.929 . S
C848 C840 1.378 . S
C848 C843 1.350 . S
C849 H836 0.929 1_556 S
C849 C841 1.433 . S
C849 N851 1.384 . S
N850 C846 1.427 . S
N850 C847 1.384 . S
N851 C843 1.427 . S
N851 C849 1.384 . S
H852 C858 0.930 . S
H853 C862 0.930 . S
H854 C867 0.929 1_556 S
H855 C865 0.929 . S
H856 C860 0.929 . S
H857 C866 0.929 . S
C858 H852 0.930 . S
C858 C859 1.367 . S
C858 C866 1.378 . S
C859 C858 1.367 . S
C859 C867 1.433 . S
C860 H856 0.929 . S
C860 C862 1.378 . S
C860 C864 1.350 . S
C861 C864 1.463 . S
C861 C866 1.350 . S
C861 N869 1.427 . S
C862 H853 0.930 . S
C862 C860 1.378 . S
C862 C863 1.367 . S
C863 C862 1.367 . S
C863 C865 1.433 . S
C864 C860 1.350 . S
C864 C861 1.463 . S
C864 N868 1.427 . S
C865 H855 0.929 . S
C865 C863 1.433 . S
C865 N868 1.384 . S
C866 H857 0.929 . S
C866 C858 1.378 . S
C866 C861 1.350 . S
C867 H854 0.929 1_554 S
C867 C859 1.433 . S
C867 N869 1.384 . S
N868 C864 1.427 . S
N868 C865 1.384 . S
N869 C861 1.427 . S
N869 C867 1.384 . S
H870 C876 0.930 . S
H871 C880 0.930 . S
H872 C885 0.929 . S
H873 C883 0.929 . S
H874 C878 0.929 . S
H875 C884 0.929 . S
C876 H870 0.930 . S
C876 C877 1.367 . S
C876 C884 1.378 . S
C877 C876 1.367 . S
C877 C885 1.433 . S
C878 H874 0.929 . S
C878 C880 1.378 . S
C878 C882 1.350 . S
C879 C882 1.463 . S
C879 C884 1.350 . S
C879 N887 1.427 . S
C880 H871 0.930 . S
C880 C878 1.378 . S
C880 C881 1.367 . S
C881 C880 1.367 . S
C881 C883 1.433 . S
C882 C878 1.350 . S
C882 C879 1.463 . S
C882 N886 1.427 . S
C883 H873 0.929 . S
C883 C881 1.433 . S
C883 N886 1.384 . S
C884 H875 0.929 . S
C884 C876 1.378 . S
C884 C879 1.350 . S
C885 H872 0.929 . S
C885 C877 1.433 . S
C885 N887 1.384 . S
N886 C882 1.427 . S
N886 C883 1.384 . S
N887 C879 1.427 . S
N887 C885 1.384 . S
H888 C894 0.930 . S
H889 C898 0.930 . S
H890 C903 0.929 . S
H891 C901 0.929 . S
H892 C896 0.929 . S
H893 C902 0.929 . S
C894 H888 0.930 . S
C894 C895 1.367 . S
C894 C902 1.378 . S
C895 C894 1.367 . S
C895 C903 1.433 . S
C896 H892 0.929 . S
C896 C898 1.378 . S
C896 C900 1.350 . S
C897 C900 1.463 . S
C897 C902 1.350 . S
C897 N905 1.427 . S
C898 H889 0.930 . S
C898 C896 1.378 . S
C898 C899 1.367 . S
C899 C898 1.367 . S
C899 C901 1.433 . S
C900 C896 1.350 . S
C900 C897 1.463 . S
C900 N904 1.427 . S
C901 H891 0.929 . S
C901 C899 1.433 . S
C901 N904 1.384 . S
C902 H893 0.929 . S
C902 C894 1.378 . S
C902 C897 1.350 . S
C903 H890 0.929 . S
C903 C895 1.433 . S
C903 N905 1.384 . S
N904 C900 1.427 . S
N904 C901 1.384 . S
N905 C897 1.427 . S
N905 C903 1.384 . S
H906 C912 0.930 1_556 S
H907 C916 0.930 . S
H908 C921 0.929 . S
H909 C919 0.929 . S
H910 C914 0.929 . S
H911 C920 0.929 . S
C912 H906 0.930 1_554 S
C912 C913 1.367 . S
C912 C920 1.378 . S
C913 C912 1.367 . S
C913 C921 1.433 . S
C914 H910 0.929 . S
C914 C916 1.378 . S
C914 C918 1.350 . S
C915 C918 1.463 . S
C915 C920 1.350 . S
C915 N923 1.427 . S
C916 H907 0.930 . S
C916 C914 1.378 . S
C916 C917 1.367 . S
C917 C916 1.367 . S
C917 C919 1.433 . S
C918 C914 1.350 . S
C918 C915 1.463 . S
C918 N922 1.427 . S
C919 H909 0.929 . S
C919 C917 1.433 . S
C919 N922 1.384 . S
C920 H911 0.929 . S
C920 C912 1.378 . S
C920 C915 1.350 . S
C921 H908 0.929 . S
C921 C913 1.433 . S
C921 N923 1.384 . S
N922 C918 1.427 . S
N922 C919 1.384 . S
N923 C915 1.427 . S
N923 C921 1.384 . S
H924 C930 0.930 . S
H925 C934 0.930 . S
H926 C939 0.929 . S
H927 C937 0.929 . S
H928 C932 0.929 . S
H929 C938 0.929 . S
C930 H924 0.930 . S
C930 C931 1.367 . S
C930 C938 1.378 . S
C931 C930 1.367 . S
C931 C939 1.433 . S
C932 H928 0.929 . S
C932 C934 1.378 . S
C932 C936 1.350 . S
C933 C936 1.463 . S
C933 C938 1.350 . S
C933 N941 1.427 . S
C934 H925 0.930 . S
C934 C932 1.378 . S
C934 C935 1.367 . S
C935 C934 1.367 . S
C935 C937 1.433 . S
C936 C932 1.350 . S
C936 C933 1.463 . S
C936 N940 1.427 . S
C937 H927 0.929 . S
C937 C935 1.433 . S
C937 N940 1.384 . S
C938 H929 0.929 . S
C938 C930 1.378 . S
C938 C933 1.350 . S
C939 H926 0.929 . S
C939 C931 1.433 . S
C939 N941 1.384 . S
N940 C936 1.427 . S
N940 C937 1.384 . S
N941 C933 1.427 . S
N941 C939 1.384 . S
H942 C948 0.930 . S
H943 C952 0.930 . S
H944 C957 0.929 . S
H945 C955 0.929 . S
H946 C950 0.929 . S
H947 C956 0.929 . S
C948 H942 0.930 . S
C948 C949 1.367 . S
C948 C956 1.378 . S
C949 C948 1.367 . S
C949 C957 1.433 . S
C950 H946 0.929 . S
C950 C952 1.378 . S
C950 C954 1.350 . S
C951 C954 1.463 . S
C951 C956 1.350 . S
C951 N959 1.427 . S
C952 H943 0.930 . S
C952 C950 1.378 . S
C952 C953 1.367 . S
C953 C952 1.367 . S
C953 C955 1.433 . S
C954 C950 1.350 . S
C954 C951 1.463 . S
C954 N958 1.427 . S
C955 H945 0.929 . S
C955 C953 1.433 . S
C955 N958 1.384 . S
C956 H947 0.929 . S
C956 C948 1.378 . S
C956 C951 1.350 . S
C957 H944 0.929 . S
C957 C949 1.433 . S
C957 N959 1.384 . S
N958 C954 1.427 . S
N958 C955 1.384 . S
N959 C951 1.427 . S
N959 C957 1.384 . S
H960 C966 0.930 . S
H961 C970 0.930 . S
H962 C975 0.929 . S
H963 C973 0.929 . S
H964 C968 0.929 . S
H965 C974 0.929 . S
C966 H960 0.930 . S
C966 C967 1.367 . S
C966 C974 1.378 . S
C967 C966 1.367 . S
C967 C975 1.433 . S
C968 H964 0.929 . S
C968 C970 1.378 . S
C968 C972 1.350 . S
C969 C972 1.463 . S
C969 C974 1.350 . S
C969 N977 1.427 . S
C970 H961 0.930 . S
C970 C968 1.378 . S
C970 C971 1.367 . S
C971 C970 1.367 . S
C971 C973 1.433 . S
C972 C968 1.350 . S
C972 C969 1.463 . S
C972 N976 1.427 . S
C973 H963 0.929 . S
C973 C971 1.433 . S
C973 N976 1.384 . S
C974 H965 0.929 . S
C974 C966 1.378 . S
C974 C969 1.350 . S
C975 H962 0.929 . S
C975 C967 1.433 . S
C975 N977 1.384 . S
N976 C972 1.427 . S
N976 C973 1.384 . S
N977 C969 1.427 . S
N977 C975 1.384 . S
H978 C984 0.930 . S
H979 C988 0.930 . S
H980 C993 0.929 1_554 S
H981 C991 0.929 . S
H982 C986 0.929 . S
H983 C992 0.929 . S
C984 H978 0.930 . S
C984 C985 1.367 . S
C984 C992 1.378 . S
C985 C984 1.367 . S
C985 C993 1.433 . S
C986 H982 0.929 . S
C986 C988 1.378 . S
C986 C990 1.350 . S
C987 C990 1.463 . S
C987 C992 1.350 . S
C987 N995 1.427 . S
C988 H979 0.930 . S
C988 C986 1.378 . S
C988 C989 1.367 . S
C989 C988 1.367 . S
C989 C991 1.433 . S
C990 C986 1.350 . S
C990 C987 1.463 . S
C990 N994 1.427 . S
C991 H981 0.929 . S
C991 C989 1.433 . S
C991 N994 1.384 . S
C992 H983 0.929 . S
C992 C984 1.378 . S
C992 C987 1.350 . S
C993 H980 0.929 1_556 S
C993 C985 1.433 . S
C993 N995 1.384 . S
N994 C990 1.427 . S
N994 C991 1.384 . S
N995 C987 1.427 . S
N995 C993 1.384 . S
H996 C1002 0.930 1_556 S
H997 C1006 0.930 . S
H998 C1011 0.929 . S
H999 C1009 0.929 . S
H1000 C1004 0.929 . S
H1001 C1010 0.929 . S
C1002 H996 0.930 1_554 S
C1002 C1003 1.367 . S
C1002 C1010 1.378 . S
C1003 C1002 1.367 . S
C1003 C1011 1.433 . S
C1004 H1000 0.929 . S
C1004 C1006 1.378 . S
C1004 C1008 1.350 . S
C1005 C1008 1.463 . S
C1005 C1010 1.350 . S
C1005 N1013 1.427 . S
C1006 H997 0.930 . S
C1006 C1004 1.378 . S
C1006 C1007 1.367 . S
C1007 C1006 1.367 . S
C1007 C1009 1.433 . S
C1008 C1004 1.350 . S
C1008 C1005 1.463 . S
C1008 N1012 1.427 . S
C1009 H999 0.929 . S
C1009 C1007 1.433 . S
C1009 N1012 1.384 . S
C1010 H1001 0.929 . S
C1010 C1002 1.378 . S
C1010 C1005 1.350 . S
C1011 H998 0.929 . S
C1011 C1003 1.433 . S
C1011 N1013 1.384 . S
N1012 C1008 1.427 . S
N1012 C1009 1.384 . S
N1013 C1005 1.427 . S
N1013 C1011 1.384 . S
H1014 C1020 0.930 . S
H1015 C1024 0.930 . S
H1016 C1029 0.929 . S
H1017 C1027 0.929 . S
H1018 C1022 0.929 . S
H1019 C1028 0.929 . S
C1020 H1014 0.930 . S
C1020 C1021 1.367 . S
C1020 C1028 1.378 . S
C1021 C1020 1.367 . S
C1021 C1029 1.433 . S
C1022 H1018 0.929 . S
C1022 C1024 1.378 . S
C1022 C1026 1.350 . S
C1023 C1026 1.463 . S
C1023 C1028 1.350 . S
C1023 N1031 1.427 . S
C1024 H1015 0.930 . S
C1024 C1022 1.378 . S
C1024 C1025 1.367 . S
C1025 C1024 1.367 . S
C1025 C1027 1.433 . S
C1026 C1022 1.350 . S
C1026 C1023 1.463 . S
C1026 N1030 1.427 . S
C1027 H1017 0.929 . S
C1027 C1025 1.433 . S
C1027 N1030 1.384 . S
C1028 H1019 0.929 . S
C1028 C1020 1.378 . S
C1028 C1023 1.350 . S
C1029 H1016 0.929 . S
C1029 C1021 1.433 . S
C1029 N1031 1.384 . S
N1030 C1026 1.427 . S
N1030 C1027 1.384 . S
N1031 C1023 1.427 . S
N1031 C1029 1.384 . S
H1032 C1038 0.930 . S
H1033 C1042 0.930 . S
H1034 C1047 0.929 . S
H1035 C1045 0.929 . S
H1036 C1040 0.929 . S
H1037 C1046 0.929 . S
C1038 H1032 0.930 . S
C1038 C1039 1.367 . S
C1038 C1046 1.378 . S
C1039 C1038 1.367 . S
C1039 C1047 1.433 . S
C1040 H1036 0.929 . S
C1040 C1042 1.378 . S
C1040 C1044 1.350 . S
C1041 C1044 1.463 . S
C1041 C1046 1.350 . S
C1041 N1049 1.427 . S
C1042 H1033 0.930 . S
C1042 C1040 1.378 . S
C1042 C1043 1.367 . S
C1043 C1042 1.367 . S
C1043 C1045 1.433 . S
C1044 C1040 1.350 . S
C1044 C1041 1.463 . S
C1044 N1048 1.427 . S
C1045 H1035 0.929 . S
C1045 C1043 1.433 . S
C1045 N1048 1.384 . S
C1046 H1037 0.929 . S
C1046 C1038 1.378 . S
C1046 C1041 1.350 . S
C1047 H1034 0.929 . S
C1047 C1039 1.433 . S
C1047 N1049 1.384 . S
N1048 C1044 1.427 . S
N1048 C1045 1.384 . S
N1049 C1041 1.427 . S
N1049 C1047 1.384 . S
H1050 C1056 0.930 . S
H1051 C1060 0.930 . S
H1052 C1065 0.929 . S
H1053 C1063 0.929 . S
H1054 C1058 0.929 . S
H1055 C1064 0.929 . S
C1056 H1050 0.930 . S
C1056 C1057 1.367 . S
C1056 C1064 1.378 . S
C1057 C1056 1.367 . S
C1057 C1065 1.433 . S
C1058 H1054 0.929 . S
C1058 C1060 1.378 . S
C1058 C1062 1.350 . S
C1059 C1062 1.463 . S
C1059 C1064 1.350 . S
C1059 N1067 1.427 . S
C1060 H1051 0.930 . S
C1060 C1058 1.378 . S
C1060 C1061 1.367 . S
C1061 C1060 1.367 . S
C1061 C1063 1.433 . S
C1062 C1058 1.350 . S
C1062 C1059 1.463 . S
C1062 N1066 1.427 . S
C1063 H1053 0.929 . S
C1063 C1061 1.433 . S
C1063 N1066 1.384 . S
C1064 H1055 0.929 . S
C1064 C1056 1.378 . S
C1064 C1059 1.350 . S
C1065 H1052 0.929 . S
C1065 C1057 1.433 . S
C1065 N1067 1.384 . S
N1066 C1062 1.427 . S
N1066 C1063 1.384 . S
N1067 C1059 1.427 . S
N1067 C1065 1.384 . S
H1068 C1074 0.930 . S
H1069 C1078 0.930 1_554 S
H1070 C1083 0.929 . S
H1071 C1081 0.929 . S
H1072 C1076 0.929 . S
H1073 C1082 0.929 . S
C1074 H1068 0.930 . S
C1074 C1075 1.367 . S
C1074 C1082 1.378 . S
C1075 C1074 1.367 . S
C1075 C1083 1.433 . S
C1076 H1072 0.929 . S
C1076 C1078 1.378 . S
C1076 C1080 1.350 . S
C1077 C1080 1.463 . S
C1077 C1082 1.350 . S
C1077 N1085 1.427 . S
C1078 H1069 0.930 1_556 S
C1078 C1076 1.378 . S
C1078 C1079 1.367 . S
C1079 C1078 1.367 . S
C1079 C1081 1.433 . S
C1080 C1076 1.350 . S
C1080 C1077 1.463 . S
C1080 N1084 1.427 . S
C1081 H1071 0.929 . S
C1081 C1079 1.433 . S
C1081 N1084 1.384 . S
C1082 H1073 0.929 . S
C1082 C1074 1.378 . S
C1082 C1077 1.350 . S
C1083 H1070 0.929 . S
C1083 C1075 1.433 . S
C1083 N1085 1.384 . S
N1084 C1080 1.427 . S
N1084 C1081 1.384 . S
N1085 C1077 1.427 . S
N1085 C1083 1.384 . S
H1086 C1092 0.930 . S
H1087 C1096 0.930 . S
H1088 C1101 0.929 . S
H1089 C1099 0.929 . S
H1090 C1094 0.929 . S
H1091 C1100 0.929 . S
C1092 H1086 0.930 . S
C1092 C1093 1.367 . S
C1092 C1100 1.378 . S
C1093 C1092 1.367 . S
C1093 C1101 1.433 . S
C1094 H1090 0.929 . S
C1094 C1096 1.378 . S
C1094 C1098 1.350 . S
C1095 C1098 1.463 . S
C1095 C1100 1.350 . S
C1095 N1103 1.427 . S
C1096 H1087 0.930 . S
C1096 C1094 1.378 . S
C1096 C1097 1.367 . S
C1097 C1096 1.367 . S
C1097 C1099 1.433 . S
C1098 C1094 1.350 . S
C1098 C1095 1.463 . S
C1098 N1102 1.427 . S
C1099 H1089 0.929 . S
C1099 C1097 1.433 . S
C1099 N1102 1.384 . S
C1100 H1091 0.929 . S
C1100 C1092 1.378 . S
C1100 C1095 1.350 . S
C1101 H1088 0.929 . S
C1101 C1093 1.433 . S
C1101 N1103 1.384 . S
N1102 C1098 1.427 . S
N1102 C1099 1.384 . S
N1103 C1095 1.427 . S
N1103 C1101 1.384 . S
H1104 C1110 0.930 . S
H1105 C1114 0.930 . S
H1106 C1119 0.929 . S
H1107 C1117 0.929 . S
H1108 C1112 0.929 . S
H1109 C1118 0.929 . S
C1110 H1104 0.930 . S
C1110 C1111 1.367 . S
C1110 C1118 1.378 . S
C1111 C1110 1.367 . S
C1111 C1119 1.433 . S
C1112 H1108 0.929 . S
C1112 C1114 1.378 . S
C1112 C1116 1.350 . S
C1113 C1116 1.463 . S
C1113 C1118 1.350 . S
C1113 N1121 1.427 . S
C1114 H1105 0.930 . S
C1114 C1112 1.378 . S
C1114 C1115 1.367 . S
C1115 C1114 1.367 . S
C1115 C1117 1.433 . S
C1116 C1112 1.350 . S
C1116 C1113 1.463 . S
C1116 N1120 1.427 . S
C1117 H1107 0.929 . S
C1117 C1115 1.433 . S
C1117 N1120 1.384 . S
C1118 H1109 0.929 . S
C1118 C1110 1.378 . S
C1118 C1113 1.350 . S
C1119 H1106 0.929 . S
C1119 C1111 1.433 . S
C1119 N1121 1.384 . S
N1120 C1116 1.427 . S
N1120 C1117 1.384 . S
N1121 C1113 1.427 . S
N1121 C1119 1.384 . S
H1122 C1128 0.930 . S
H1123 C1132 0.930 . S
H1124 C1137 0.929 . S
H1125 C1135 0.929 . S
H1126 C1130 0.929 . S
H1127 C1136 0.929 . S
C1128 H1122 0.930 . S
C1128 C1129 1.367 . S
C1128 C1136 1.378 . S
C1129 C1128 1.367 . S
C1129 C1137 1.433 . S
C1130 H1126 0.929 . S
C1130 C1132 1.378 . S
C1130 C1134 1.350 . S
C1131 C1134 1.463 . S
C1131 C1136 1.350 . S
C1131 N1139 1.427 . S
C1132 H1123 0.930 . S
C1132 C1130 1.378 . S
C1132 C1133 1.367 . S
C1133 C1132 1.367 . S
C1133 C1135 1.433 . S
C1134 C1130 1.350 . S
C1134 C1131 1.463 . S
C1134 N1138 1.427 . S
C1135 H1125 0.929 . S
C1135 C1133 1.433 . S
C1135 N1138 1.384 . S
C1136 H1127 0.929 . S
C1136 C1128 1.378 . S
C1136 C1131 1.350 . S
C1137 H1124 0.929 . S
C1137 C1129 1.433 . S
C1137 N1139 1.384 . S
N1138 C1134 1.427 . S
N1138 C1135 1.384 . S
N1139 C1131 1.427 . S
N1139 C1137 1.384 . S
H1140 C1146 0.930 . S
H1141 C1150 0.930 . S
H1142 C1155 0.929 . S
H1143 C1153 0.929 . S
H1144 C1148 0.929 . S
H1145 C1154 0.929 . S
C1146 H1140 0.930 . S
C1146 C1147 1.367 . S
C1146 C1154 1.378 . S
C1147 C1146 1.367 . S
C1147 C1155 1.433 . S
C1148 H1144 0.929 . S
C1148 C1150 1.378 . S
C1148 C1152 1.350 . S
C1149 C1152 1.463 . S
C1149 C1154 1.350 . S
C1149 N1157 1.427 . S
C1150 H1141 0.930 . S
C1150 C1148 1.378 . S
C1150 C1151 1.367 . S
C1151 C1150 1.367 . S
C1151 C1153 1.433 . S
C1152 C1148 1.350 . S
C1152 C1149 1.463 . S
C1152 N1156 1.427 . S
C1153 H1143 0.929 . S
C1153 C1151 1.433 . S
C1153 N1156 1.384 . S
C1154 H1145 0.929 . S
C1154 C1146 1.378 . S
C1154 C1149 1.350 . S
C1155 H1142 0.929 . S
C1155 C1147 1.433 . S
C1155 N1157 1.384 . S
N1156 C1152 1.427 . S
N1156 C1153 1.384 . S
N1157 C1149 1.427 . S
N1157 C1155 1.384 . S
H1158 C1164 0.930 . S
H1159 C1168 0.930 . S
H1160 C1173 0.929 1_554 S
H1161 C1171 0.929 . S
H1162 C1166 0.929 . S
H1163 C1172 0.929 . S
C1164 H1158 0.930 . S
C1164 C1165 1.367 . S
C1164 C1172 1.378 . S
C1165 C1164 1.367 . S
C1165 C1173 1.433 . S
C1166 H1162 0.929 . S
C1166 C1168 1.378 . S
C1166 C1170 1.350 . S
C1167 C1170 1.463 . S
C1167 C1172 1.350 . S
C1167 N1175 1.427 . S
C1168 H1159 0.930 . S
C1168 C1166 1.378 . S
C1168 C1169 1.367 . S
C1169 C1168 1.367 . S
C1169 C1171 1.433 . S
C1170 C1166 1.350 . S
C1170 C1167 1.463 . S
C1170 N1174 1.427 . S
C1171 H1161 0.929 . S
C1171 C1169 1.433 . S
C1171 N1174 1.384 . S
C1172 H1163 0.929 . S
C1172 C1164 1.378 . S
C1172 C1167 1.350 . S
C1173 H1160 0.929 1_556 S
C1173 C1165 1.433 . S
C1173 N1175 1.384 . S
N1174 C1170 1.427 . S
N1174 C1171 1.384 . S
N1175 C1167 1.427 . S
N1175 C1173 1.384 . S
H1176 C1182 0.930 . S
H1177 C1186 0.930 . S
H1178 C1191 0.929 . S
H1179 C1189 0.929 . S
H1180 C1184 0.929 . S
H1181 C1190 0.929 . S
C1182 H1176 0.930 . S
C1182 C1183 1.367 . S
C1182 C1190 1.378 . S
C1183 C1182 1.367 . S
C1183 C1191 1.433 . S
C1184 H1180 0.929 . S
C1184 C1186 1.378 . S
C1184 C1188 1.350 . S
C1185 C1188 1.463 . S
C1185 C1190 1.350 . S
C1185 N1193 1.427 . S
C1186 H1177 0.930 . S
C1186 C1184 1.378 . S
C1186 C1187 1.367 . S
C1187 C1186 1.367 . S
C1187 C1189 1.433 . S
C1188 C1184 1.350 . S
C1188 C1185 1.463 . S
C1188 N1192 1.427 . S
C1189 H1179 0.929 . S
C1189 C1187 1.433 . S
C1189 N1192 1.384 . S
C1190 H1181 0.929 . S
C1190 C1182 1.378 . S
C1190 C1185 1.350 . S
C1191 H1178 0.929 . S
C1191 C1183 1.433 . S
C1191 N1193 1.384 . S
N1192 C1188 1.427 . S
N1192 C1189 1.384 . S
N1193 C1185 1.427 . S
N1193 C1191 1.384 . S
H1194 C1200 0.930 . S
H1195 C1204 0.930 . S
H1196 C1209 0.929 . S
H1197 C1207 0.929 . S
H1198 C1202 0.929 . S
H1199 C1208 0.929 . S
C1200 H1194 0.930 . S
C1200 C1201 1.367 . S
C1200 C1208 1.378 . S
C1201 C1200 1.367 . S
C1201 C1209 1.433 . S
C1202 H1198 0.929 . S
C1202 C1204 1.378 . S
C1202 C1206 1.350 . S
C1203 C1206 1.463 . S
C1203 C1208 1.350 . S
C1203 N1211 1.427 . S
C1204 H1195 0.930 . S
C1204 C1202 1.378 . S
C1204 C1205 1.367 . S
C1205 C1204 1.367 . S
C1205 C1207 1.433 . S
C1206 C1202 1.350 . S
C1206 C1203 1.463 . S
C1206 N1210 1.427 . S
C1207 H1197 0.929 . S
C1207 C1205 1.433 . S
C1207 N1210 1.384 . S
C1208 H1199 0.929 . S
C1208 C1200 1.378 . S
C1208 C1203 1.350 . S
C1209 H1196 0.929 . S
C1209 C1201 1.433 . S
C1209 N1211 1.384 . S
N1210 C1206 1.427 . S
N1210 C1207 1.384 . S
N1211 C1203 1.427 . S
N1211 C1209 1.384 . S
H1212 C1218 0.930 . S
H1213 C1222 0.930 . S
H1214 C1227 0.929 . S
H1215 C1225 0.929 . S
H1216 C1220 0.929 . S
H1217 C1226 0.929 . S
C1218 H1212 0.930 . S
C1218 C1219 1.367 . S
C1218 C1226 1.378 . S
C1219 C1218 1.367 . S
C1219 C1227 1.433 . S
C1220 H1216 0.929 . S
C1220 C1222 1.378 . S
C1220 C1224 1.350 . S
C1221 C1224 1.463 . S
C1221 C1226 1.350 . S
C1221 N1229 1.427 . S
C1222 H1213 0.930 . S
C1222 C1220 1.378 . S
C1222 C1223 1.367 . S
C1223 C1222 1.367 . S
C1223 C1225 1.433 . S
C1224 C1220 1.350 . S
C1224 C1221 1.463 . S
C1224 N1228 1.427 . S
C1225 H1215 0.929 . S
C1225 C1223 1.433 . S
C1225 N1228 1.384 . S
C1226 H1217 0.929 . S
C1226 C1218 1.378 . S
C1226 C1221 1.350 . S
C1227 H1214 0.929 . S
C1227 C1219 1.433 . S
C1227 N1229 1.384 . S
N1228 C1224 1.427 . S
N1228 C1225 1.384 . S
N1229 C1221 1.427 . S
N1229 C1227 1.384 . S
H1230 C1236 0.930 . S
H1231 C1240 0.930 . S
H1232 C1245 0.929 . S
H1233 C1243 0.929 . S
H1234 C1238 0.929 . S
H1235 C1244 0.929 . S
C1236 H1230 0.930 . S
C1236 C1237 1.367 . S
C1236 C1244 1.378 . S
C1237 C1236 1.367 . S
C1237 C1245 1.433 . S
C1238 H1234 0.929 . S
C1238 C1240 1.378 . S
C1238 C1242 1.350 . S
C1239 C1242 1.463 . S
C1239 C1244 1.350 . S
C1239 N1247 1.427 . S
C1240 H1231 0.930 . S
C1240 C1238 1.378 . S
C1240 C1241 1.367 . S
C1241 C1240 1.367 . S
C1241 C1243 1.433 . S
C1242 C1238 1.350 . S
C1242 C1239 1.463 . S
C1242 N1246 1.427 . S
C1243 H1233 0.929 . S
C1243 C1241 1.433 . S
C1243 N1246 1.384 . S
C1244 H1235 0.929 . S
C1244 C1236 1.378 . S
C1244 C1239 1.350 . S
C1245 H1232 0.929 . S
C1245 C1237 1.433 . S
C1245 N1247 1.384 . S
N1246 C1242 1.427 . S
N1246 C1243 1.384 . S
N1247 C1239 1.427 . S
N1247 C1245 1.384 . S
C535 C17 1.256 . S
C539 C149 1.254 . S
C553 C182 1.262 . S
C557 C50 1.263 . S
C571 C215 1.266 . S
C575 C83 1.267 . S
C589 C116 1.264 . S
C593 C248 1.262 . S
C607 C281 1.255 . S
C611 C347 1.254 . S
C625 C380 1.251 . S
C629 C314 1.251 . S
C643 C413 1.251 . S
C647 C479 1.251 . S
C661 C446 1.254 . S
C665 C512 1.253 . S
C679 N14 1.311 . S
C683 N179 1.314 1_554 S
C697 N212 1.299 . S
C701 N47 1.301 . S
C715 N245 1.299 . S
C719 N80 1.299 . S
C733 N113 1.317 1_556 S
C737 N146 1.317 . S
C751 C140 1.957 . S
C755 C338 1.957 1_556 S
C769 C74 1.953 . S
C773 C272 1.953 . S
C787 C206 1.955 . S
C791 C371 1.954 . S
C805 C8 1.954 . S
C809 C305 1.954 1_554 S
C823 N410 1.300 . S
C827 N278 1.303 . S
C841 N344 1.317 1_556 S
C845 N509 1.318 . S
C859 N311 1.318 1_554 S
C863 N443 1.318 . S
C877 N377 1.299 . S
C881 N476 1.299 . S
C895 C470 1.954 . S
C899 C41 1.954 . S
C913 C173 1.956 1_554 S
C917 C437 1.956 . S
C931 C107 1.956 1_556 S
C935 C503 1.955 . S
C949 C404 1.954 . S
C953 C239 1.954 . S
C967 C193 1.688 . S
C971 C28 1.689 . S
C985 C226 1.685 1_556 S
C989 C61 1.685 . S
C1003 C94 1.690 1_554 S
C1007 C259 1.690 . S
C1021 C127 1.689 . S
C1025 C160 1.689 . S
C1039 N137 0.646 . S
C1043 N335 0.628 . S
C1057 N269 0.656 . S
C1061 N71 0.641 . S
C1075 N368 0.621 . S
C1079 N203 0.611 . S
C1093 N5 0.613 . S
C1097 N302 0.627 . S
C1111 C424 1.688 1_554 S
C1115 C292 1.689 . S
C1129 C358 1.686 . S
C1133 C523 1.687 . S
C1147 C457 1.690 . S
C1151 C325 1.690 . S
C1165 C490 1.685 1_556 S
C1169 C391 1.685 . S
C1183 N38 0.644 . S
C1187 N467 0.625 . S
C1201 N170 0.654 . S
C1205 N434 0.637 . S
C1219 N500 0.617 . S
C1223 N104 0.633 . S
C1237 N236 0.624 . S
C1241 N401 0.643 . S
