# Generated by pormake.
# Topology crb, (4)-cn, num edge types: 1
# Building blocks:
#     Node 0, Type 0, BuildingBlock: CEKHIL_clean_sbu_0, # of connection points: 4
#     Node 1, Type 0, BuildingBlock: CEKHIL_clean_sbu_0, # of connection points: 4
#     Node 2, Type 0, BuildingBlock: CEKHIL_clean_sbu_0, # of connection points: 4
#     Node 3, Type 0, BuildingBlock: CEKHIL_clean_sbu_0, # of connection points: 4
#     Node 4, Type 0, BuildingBlock: CEKHIL_clean_sbu_0, # of connection points: 4
#     Node 5, Type 0, BuildingBlock: CEKHIL_clean_sbu_0, # of connection points: 4
#     Node 6, Type 0, BuildingBlock: CEKHIL_clean_sbu_0, # of connection points: 4
#     Node 7, Type 0, BuildingBlock: CEKHIL_clean_sbu_0, # of connection points: 4
#     Edge 8, Type (0, 0), BuildingBlock: AJUNOK_clean_linker_0, # of connection points: 2
#     Edge 9, Type (0, 0), BuildingBlock: AJUNOK_clean_linker_0, # of connection points: 2
#     Edge 10, Type (0, 0), BuildingBlock: AJUNOK_clean_linker_0, # of connection points: 2
#     Edge 11, Type (0, 0), BuildingBlock: AJUNOK_clean_linker_0, # of connection points: 2
#     Edge 12, Type (0, 0), BuildingBlock: AJUNOK_clean_linker_0, # of connection points: 2
#     Edge 13, Type (0, 0), BuildingBlock: AJUNOK_clean_linker_0, # of connection points: 2
#     Edge 14, Type (0, 0), BuildingBlock: AJUNOK_clean_linker_0, # of connection points: 2
#     Edge 15, Type (0, 0), BuildingBlock: AJUNOK_clean_linker_0, # of connection points: 2
#     Edge 16, Type (0, 0), BuildingBlock: AJUNOK_clean_linker_0, # of connection points: 2
#     Edge 17, Type (0, 0), BuildingBlock: AJUNOK_clean_linker_0, # of connection points: 2
#     Edge 18, Type (0, 0), BuildingBlock: AJUNOK_clean_linker_0, # of connection points: 2
#     Edge 19, Type (0, 0), BuildingBlock: AJUNOK_clean_linker_0, # of connection points: 2
#     Edge 20, Type (0, 0), BuildingBlock: AJUNOK_clean_linker_0, # of connection points: 2
#     Edge 21, Type (0, 0), BuildingBlock: AJUNOK_clean_linker_0, # of connection points: 2
#     Edge 22, Type (0, 0), BuildingBlock: AJUNOK_clean_linker_0, # of connection points: 2
#     Edge 23, Type (0, 0), BuildingBlock: AJUNOK_clean_linker_0, # of connection points: 2
# Relax obj value: 0.118
# Max RMSD: 0.159
# Mean RMSD: 0.159
data_MOF--net-crb--node1-CEKHIL_clean_sbu_0--edge1-AJUNOK_clean_linker_0
_symmetry_space_group_name_H-M    P1
_symmetry_Int_Tables_number       1
_symmetry_cell_setting            triclinic
loop_
_symmetry_equiv_pos_as_xyz
'x, y, z'
_cell_length_a     32.243236
_cell_length_b     31.072107
_cell_length_c     16.66119
_cell_angle_alpha  90.112893
_cell_angle_beta   90.089139
_cell_angle_gamma 90.001613
loop_
_atom_site_label
_atom_site_type_symbol
_atom_site_fract_x
_atom_site_fract_y
_atom_site_fract_z
_atom_type_partial_charge
Co0 Co 0.32982 0.33884 0.03711 0.0
O1 O 0.2734 0.33194 0.0772 0.0
O2 O 0.32772 0.29441 0.11765 0.0
C3 C 0.33135 0.41149 0.04533 0.0
O4 O 0.39268 0.33698 0.0212 0.0
Co5 Co 0.35688 0.38797 0.88488 0.0
O6 O 0.41372 0.38496 0.9295 0.0
C7 C 0.31684 0.30276 0.86807 0.0
C8 C 0.28876 0.30352 0.12629 0.0
C9 C 0.4214 0.35845 0.98564 0.0
O10 O 0.31797 0.29692 0.94504 0.0
O11 O 0.32881 0.33744 0.83401 0.0
O12 O 0.33748 0.38796 0.10867 0.0
O13 O 0.3223 0.39072 0.98039 0.0
Co14 Co 0.68433 0.3416 0.0372 0.0
O15 O 0.74062 0.33485 0.99639 0.0
O16 O 0.68635 0.29697 0.95659 0.0
C17 C 0.68237 0.41427 0.02885 0.0
O18 O 0.62152 0.33958 0.05435 0.0
Co19 Co 0.65834 0.39101 0.19032 0.0
O20 O 0.60098 0.38649 0.14882 0.0
C21 C 0.69804 0.30565 0.20608 0.0
C22 C 0.72527 0.30622 0.94755 0.0
C23 C 0.59296 0.36 0.09261 0.0
O24 O 0.69664 0.29984 0.12907 0.0
O25 O 0.68638 0.34039 0.24055 0.0
O26 O 0.67613 0.39052 0.96569 0.0
O27 O 0.69196 0.39372 0.0936 0.0
Co28 Co 0.68272 0.67471 0.03046 0.0
O29 O 0.73944 0.68052 0.07042 0.0
O30 O 0.68546 0.71721 0.11474 0.0
C31 C 0.68098 0.60181 0.03189 0.0
O32 O 0.61977 0.67741 0.01645 0.0
Co33 Co 0.65349 0.62963 0.87545 0.0
O34 O 0.59725 0.63125 0.92256 0.0
C35 C 0.69436 0.71454 0.86412 0.0
C36 C 0.72441 0.70781 0.12222 0.0
C37 C 0.59044 0.65669 0.9809 0.0
O38 O 0.69419 0.7187 0.94161 0.0
O39 O 0.68153 0.68079 0.82777 0.0
O40 O 0.67542 0.62374 0.09755 0.0
O41 O 0.6895 0.62422 0.96885 0.0
Co42 Co 0.32844 0.67187 0.04283 0.0
O43 O 0.27191 0.6775 1.00194 0.0
O44 O 0.326 0.71424 0.95853 0.0
C45 C 0.33044 0.59897 0.04146 0.0
O46 O 0.39135 0.67467 0.05832 0.0
Co47 Co 0.35645 0.62699 0.1989 0.0
O48 O 0.41334 0.63025 0.15535 0.0
C49 C 0.31542 0.71184 0.20889 0.0
C50 C 0.28707 0.70481 0.95054 0.0
C51 C 0.42052 0.65537 0.09687 0.0
O52 O 0.31642 0.716 0.13147 0.0
O53 O 0.32772 0.67806 0.24556 0.0
O54 O 0.33623 0.62076 0.97587 0.0
O55 O 0.3214 0.6215 0.10421 0.0
Co56 Co 0.82805 0.84132 0.53189 0.0
O57 O 0.77106 0.83643 0.57027 0.0
O58 O 0.82419 0.79895 0.61605 0.0
C59 C 0.83092 0.91419 0.53317 0.0
O60 O 0.89104 0.83764 0.51892 0.0
Co61 Co 0.85818 0.88552 0.37695 0.0
O62 O 0.91448 0.88221 0.42362 0.0
C63 C 0.81567 0.8015 0.36558 0.0
C64 C 0.78522 0.80863 0.62193 0.0
C65 C 0.92079 0.8571 0.48252 0.0
O66 O 0.81627 0.79734 0.443 0.0
O67 O 0.82892 0.83498 0.32925 0.0
O68 O 0.83582 0.89238 0.59905 0.0
O69 O 0.82224 0.89172 0.47009 0.0
Co70 Co 0.18318 0.83948 0.54297 0.0
O71 O 0.23984 0.83395 0.5034 0.0
O72 O 0.18614 0.79689 0.45864 0.0
C73 C 0.18109 0.91235 0.54161 0.0
O74 O 0.12021 0.8367 0.55786 0.0
Co75 Co 0.15537 0.88449 0.69927 0.0
O76 O 0.09851 0.88114 0.65538 0.0
C77 C 0.19642 0.79971 0.70893 0.0
C78 C 0.22517 0.80621 0.452 0.0
C79 C 0.09115 0.85604 0.59672 0.0
O80 O 0.19508 0.7955 0.63151 0.0
O81 O 0.18414 0.83347 0.74582 0.0
O82 O 0.17547 0.89043 0.47592 0.0
O83 O 0.19011 0.88994 0.60443 0.0
Co84 Co 0.18445 0.17237 0.53676 0.0
O85 O 0.24107 0.1784 0.57627 0.0
O86 O 0.18759 0.217 0.61733 0.0
C87 C 0.18181 0.09978 0.54497 0.0
O88 O 0.12154 0.17508 0.52045 0.0
Co89 Co 0.15738 0.12344 0.3836 0.0
O90 O 0.10027 0.12867 0.42556 0.0
C91 C 0.19857 0.208 0.36804 0.0
C92 C 0.22655 0.20748 0.62505 0.0
C93 C 0.09266 0.15508 0.48206 0.0
O94 O 0.19679 0.21399 0.44493 0.0
O95 O 0.18649 0.1734 0.33351 0.0
O96 O 0.17616 0.12353 0.60831 0.0
O97 O 0.19125 0.12028 0.48014 0.0
Co98 Co 0.82931 0.17438 0.53694 0.0
O99 O 0.77266 0.18058 0.49744 0.0
O100 O 0.82632 0.21875 0.45628 0.0
C101 C 0.83165 0.10171 0.52918 0.0
O102 O 0.89221 0.17701 0.55256 0.0
Co103 Co 0.85717 0.12606 0.68962 0.0
O104 O 0.91396 0.12992 0.64538 0.0
C105 C 0.81574 0.21054 0.70559 0.0
C106 C 0.78733 0.20945 0.44856 0.0
C107 C 0.92126 0.15623 0.58876 0.0
O108 O 0.81724 0.21632 0.62865 0.0
O109 O 0.82814 0.17611 0.74003 0.0
O110 O 0.83729 0.12521 0.46565 0.0
O111 O 0.82253 0.12251 0.59401 0.0
C112 C 0.33485 0.48218 0.97381 0.0
C113 C 0.33413 0.45914 0.04652 0.0
C114 C 0.33486 0.52733 0.9728 0.0
C115 C 0.33359 0.5513 0.04445 0.0
H116 H 0.33498 0.46524 0.91693 0.0
H117 H 0.33483 0.54351 0.91527 0.0
S118 S 0.33295 0.50644 0.25114 0.0
N119 N 0.33371 0.46373 0.19215 0.0
N120 N 0.33293 0.54838 0.19052 0.0
C121 C 0.33366 0.52864 0.11769 0.0
C122 C 0.33417 0.48265 0.11866 0.0
C123 C 0.4978 0.35482 0.95854 0.0
C124 C 0.46483 0.35397 1.01377 0.0
C125 C 0.53927 0.35449 0.98462 0.0
C126 C 0.54924 0.35468 0.0669 0.0
H127 H 0.49149 0.35624 0.89472 0.0
H128 H 0.56367 0.356 0.94007 0.0
S129 S 0.47447 0.35164 0.23566 0.0
N130 N 0.44503 0.35169 0.15444 0.0
N131 N 0.52286 0.35277 0.20332 0.0
C132 C 0.51661 0.35318 0.12264 0.0
C133 C 0.47444 0.35234 0.09611 0.0
C134 C 0.67865 0.48518 0.10022 0.0
C135 C 0.67909 0.4619 0.02759 0.0
C136 C 0.67803 0.53034 0.10102 0.0
C137 C 0.67838 0.55408 0.02924 0.0
H138 H 0.6792 0.46843 0.15716 0.0
H139 H 0.67831 0.54672 0.15848 0.0
S140 S 0.6779 0.50855 0.82275 0.0
N141 N 0.67824 0.46603 0.88193 0.0
N142 N 0.67783 0.55069 0.8832 0.0
C143 C 0.678 0.53118 0.95612 0.0
C144 C 0.67813 0.48518 0.95536 0.0
C145 C 0.47257 0.66004 0.9861 0.0
C146 C 0.46386 0.66039 0.06886 0.0
C147 C 0.51361 0.65967 0.95788 0.0
C148 C 0.54743 0.66097 1.01133 0.0
H149 H 0.4475 0.6582 0.94283 0.0
H150 H 0.51891 0.65792 0.89376 0.0
S151 S 0.5412 0.66487 0.23364 0.0
N152 N 0.49233 0.66337 0.20382 0.0
N153 N 0.56936 0.66428 0.15093 0.0
C154 C 0.53908 0.66311 0.09413 0.0
C155 C 0.49734 0.66235 0.12287 0.0
C156 C 0.83486 0.98586 0.60197 0.0
C157 C 0.83427 0.96187 0.53031 0.0
C158 C 0.83481 0.03103 0.60091 0.0
C159 C 0.83468 0.05405 0.52816 0.0
H160 H 0.83429 0.9697 0.6595 0.0
H161 H 0.83436 0.04798 0.65777 0.0
S162 S 0.8357 1.00664 0.32359 0.0
N163 N 0.83514 0.96473 0.38426 0.0
N164 N 0.83577 0.04938 0.38253 0.0
C165 C 0.8355 0.0305 0.45606 0.0
C166 C 0.83507 0.98451 0.45707 0.0
C167 C 0.0386 0.85119 0.48647 0.0
C168 C 0.04767 0.85115 0.56912 0.0
C169 C 0.99744 0.85216 0.45872 0.0
C170 C 0.96383 0.85184 0.51255 0.0
H171 H 0.06349 0.85241 0.44291 0.0
H172 H 0.99188 0.85372 0.39464 0.0
S173 S 0.97102 0.84892 0.7348 0.0
N174 N 0.01975 0.84931 0.70441 0.0
N175 N 0.94249 0.84962 0.6524 0.0
C176 C 0.97252 0.8499 0.59526 0.0
C177 C 0.0144 0.85 0.6235 0.0
C178 C 0.17761 0.02895 0.47359 0.0
C179 C 0.17849 0.05217 0.54624 0.0
C180 C 0.1772 0.98379 0.47271 0.0
C181 C 0.1782 0.96003 0.54444 0.0
H182 H 0.1777 0.04572 0.41666 0.0
H183 H 0.17716 0.96745 0.41522 0.0
S184 S 0.179 1.00544 0.75101 0.0
N185 N 0.1787 0.048 0.69191 0.0
N186 N 0.17868 0.96334 0.69049 0.0
C187 C 0.17822 0.98289 0.61761 0.0
C188 C 0.17814 0.02888 0.61846 0.0
C189 C 0.99769 0.16031 0.61606 0.0
C190 C 0.96464 0.16116 0.56076 0.0
C191 C 0.03914 0.16076 0.59009 0.0
C192 C 0.04902 0.16073 0.50784 0.0
H193 H 0.99145 0.15869 0.67986 0.0
H194 H 0.06359 0.15911 0.63467 0.0
S195 S 0.97408 0.16409 0.33892 0.0
N196 N 0.94472 0.16379 0.42006 0.0
N197 N 0.0225 0.16299 0.37139 0.0
C198 C 0.01633 0.16239 0.45205 0.0
C199 C 0.97418 0.16308 0.47848 0.0
C200 C 0.20038 0.25022 0.24037 0.0
C201 C 0.21861 0.24019 0.31508 0.0
C202 C 0.2225 0.2725 0.18068 0.0
C203 C 0.26418 0.28414 0.19245 0.0
H204 H 0.16919 0.23938 0.22693 0.0
H205 H 0.20756 0.27866 0.12357 0.0
S206 S 0.32542 0.2679 0.37903 0.0
N207 N 0.27983 0.24623 0.39915 0.0
N208 N 0.32194 0.28665 0.28653 0.0
C209 C 0.28226 0.2757 0.26793 0.0
C210 C 0.25934 0.25414 0.32939 0.0
C211 C 0.75925 0.26232 0.24959 0.0
C212 C 0.71725 0.27306 0.25938 0.0
C213 C 0.78137 0.24115 0.31077 0.0
C214 C 0.76212 0.22914 0.38337 0.0
H215 H 0.77581 0.27274 0.19652 0.0
H216 H 0.81408 0.23486 0.30169 0.0
S217 S 0.65186 0.24723 0.43593 0.0
N218 N 0.65679 0.26871 0.34578 0.0
N219 N 0.69788 0.22738 0.45909 0.0
C220 C 0.71958 0.23759 0.39194 0.0
C221 C 0.69731 0.26 0.33045 0.0
C222 C 0.81384 0.75786 0.23932 0.0
C223 C 0.79548 0.76878 0.31349 0.0
C224 C 0.79141 0.7362 0.17898 0.0
C225 C 0.74934 0.72594 0.18953 0.0
H226 H 0.84534 0.76783 0.22656 0.0
H227 H 0.80647 0.72961 0.12219 0.0
S228 S 0.68769 0.74421 0.37479 0.0
N229 N 0.73373 0.76462 0.39604 0.0
N230 N 0.69113 0.72514 0.28239 0.0
C231 C 0.73118 0.73489 0.26475 0.0
C232 C 0.75436 0.75594 0.32683 0.0
C233 C 0.23114 0.77463 0.31369 0.0
C234 C 0.25053 0.78754 0.38585 0.0
C235 C 0.25346 0.75409 0.25198 0.0
C236 C 0.29591 0.74501 0.26066 0.0
H237 H 0.19814 0.77952 0.30548 0.0
H238 H 0.23678 0.74262 0.19963 0.0
S239 S 0.36188 0.77405 0.43526 0.0
N240 N 0.31538 0.79212 0.45965 0.0
N241 N 0.35692 0.75216 0.34529 0.0
C242 C 0.31599 0.75926 0.33102 0.0
C243 C 0.29345 0.78091 0.39313 0.0
C244 C 0.1979 0.7556 0.83423 0.0
C245 C 0.21631 0.76658 0.76025 0.0
C246 C 0.22021 0.73362 0.89419 0.0
C247 C 0.26222 0.72313 0.88343 0.0
H248 H 0.16648 0.76578 0.84721 0.0
H249 H 0.20513 0.727 0.95089 0.0
S250 S 0.32393 0.74151 0.69843 0.0
N251 N 0.27801 0.76226 0.67756 0.0
N252 N 0.3204 0.72222 0.79053 0.0
C253 C 0.28041 0.73216 0.80835 0.0
C254 C 0.25734 0.7535 0.74665 0.0
C255 C 0.25546 0.25955 0.82468 0.0
C256 C 0.29741 0.27041 0.81434 0.0
C257 C 0.23305 0.23869 0.76338 0.0
C258 C 0.25194 0.22708 0.69014 0.0
H259 H 0.23916 0.26966 0.87833 0.0
H260 H 0.2004 0.23227 0.77292 0.0
S261 S 0.36188 0.24567 0.63581 0.0
N262 N 0.3574 0.26664 0.72661 0.0
N263 N 0.31577 0.22585 0.61309 0.0
C264 C 0.29442 0.23565 0.68094 0.0
C265 C 0.31698 0.25777 0.74255 0.0
C266 C 0.79157 0.27522 0.89312 0.0
C267 C 0.74985 0.2867 0.88138 0.0
C268 C 0.81376 0.25293 0.8334 0.0
C269 C 0.79558 0.24272 0.75867 0.0
H270 H 0.8065 0.28155 0.95022 0.0
H271 H 0.84499 0.24223 0.84683 0.0
S272 S 0.68867 0.26993 0.69478 0.0
N273 N 0.69208 0.28884 0.78733 0.0
N274 N 0.73433 0.24839 0.67462 0.0
C275 C 0.75479 0.25648 0.7444 0.0
C276 C 0.73179 0.27806 0.80591 0.0
C277 C 0.7559 0.75776 0.82207 0.0
C278 C 0.71378 0.74754 0.81193 0.0
C279 C 0.7784 0.77835 0.76079 0.0
C280 C 0.75948 0.79024 0.68764 0.0
H281 H 0.77229 0.74716 0.8753 0.0
H282 H 0.8112 0.78406 0.77011 0.0
S283 S 0.649 0.7738 0.63428 0.0
N284 N 0.65349 0.75269 0.72483 0.0
N285 N 0.69535 0.79277 0.61131 0.0
C286 C 0.71681 0.78256 0.67887 0.0
C287 C 0.69411 0.76082 0.74053 0.0
loop_
_geom_bond_atom_site_label_1
_geom_bond_atom_site_label_2
_geom_bond_distance
_geom_bond_site_symmetry_2
_ccdc_geom_bond_type
Co0 O1 2.216 . S
Co0 O2 2.091 . S
Co0 O4 2.004 . S
Co0 O10 2.021 1_554 S
Co0 O12 2.137 . S
Co0 O13 2.244 1_554 S
O1 Co0 2.216 . S
O1 C8 1.247 . S
O2 Co0 2.091 . S
O2 C8 1.261 . S
C3 O12 1.247 . S
C3 O13 1.272 1_554 S
O4 Co0 2.004 . S
O4 C9 1.259 1_554 S
Co5 O6 2.061 . S
Co5 O11 2.052 . S
Co5 O13 2.135 . S
O6 Co5 2.061 . S
O6 C9 1.235 . S
C7 O10 1.238 . S
C7 O11 1.241 . S
C8 O1 1.247 . S
C8 O2 1.261 . S
C9 O4 1.259 1_556 S
C9 O6 1.235 . S
O10 Co0 2.021 1_556 S
O10 C7 1.238 . S
O11 Co5 2.052 . S
O11 C7 1.241 . S
O12 Co0 2.137 . S
O12 C3 1.247 . S
O13 Co0 2.244 1_556 S
O13 C3 1.272 1_556 S
O13 Co5 2.135 . S
Co14 O15 2.216 . S
Co14 O16 2.091 . S
Co14 O18 2.004 . S
Co14 O24 2.021 1_556 S
Co14 O26 2.137 . S
Co14 O27 2.244 1_556 S
O15 Co14 2.216 . S
O15 C22 1.247 . S
O16 Co14 2.091 . S
O16 C22 1.261 . S
C17 O26 1.247 . S
C17 O27 1.272 1_556 S
O18 Co14 2.004 . S
O18 C23 1.259 1_556 S
Co19 O20 2.061 . S
Co19 O25 2.052 . S
Co19 O27 2.135 . S
O20 Co19 2.061 . S
O20 C23 1.235 . S
C21 O24 1.238 . S
C21 O25 1.241 . S
C22 O15 1.247 . S
C22 O16 1.261 . S
C23 O18 1.259 1_554 S
C23 O20 1.235 . S
O24 Co14 2.021 1_554 S
O24 C21 1.238 . S
O25 Co19 2.052 . S
O25 C21 1.241 . S
O26 Co14 2.137 . S
O26 C17 1.247 . S
O27 Co14 2.244 1_554 S
O27 C17 1.272 1_554 S
O27 Co19 2.135 . S
Co28 O29 2.216 . S
Co28 O30 2.091 . S
Co28 O32 2.004 . S
Co28 O38 2.021 1_554 S
Co28 O40 2.137 . S
Co28 O41 2.244 1_554 S
O29 Co28 2.216 . S
O29 C36 1.247 . S
O30 Co28 2.091 . S
O30 C36 1.261 . S
C31 O40 1.247 . S
C31 O41 1.272 1_554 S
O32 Co28 2.004 . S
O32 C37 1.259 1_554 S
Co33 O34 2.061 . S
Co33 O39 2.052 . S
Co33 O41 2.135 . S
O34 Co33 2.061 . S
O34 C37 1.235 . S
C35 O38 1.238 . S
C35 O39 1.241 . S
C36 O29 1.247 . S
C36 O30 1.261 . S
C37 O32 1.259 1_556 S
C37 O34 1.235 . S
O38 Co28 2.021 1_556 S
O38 C35 1.238 . S
O39 Co33 2.052 . S
O39 C35 1.241 . S
O40 Co28 2.137 . S
O40 C31 1.247 . S
O41 Co28 2.244 1_556 S
O41 C31 1.272 1_556 S
O41 Co33 2.135 . S
Co42 O43 2.216 . S
Co42 O44 2.091 . S
Co42 O46 2.004 . S
Co42 O52 2.021 1_556 S
Co42 O54 2.137 . S
Co42 O55 2.244 1_556 S
O43 Co42 2.216 . S
O43 C50 1.247 . S
O44 Co42 2.091 . S
O44 C50 1.261 . S
C45 O54 1.247 . S
C45 O55 1.272 1_556 S
O46 Co42 2.004 . S
O46 C51 1.259 1_556 S
Co47 O48 2.061 . S
Co47 O53 2.052 . S
Co47 O55 2.135 . S
O48 Co47 2.061 . S
O48 C51 1.235 . S
C49 O52 1.238 . S
C49 O53 1.241 . S
C50 O43 1.247 . S
C50 O44 1.261 . S
C51 O46 1.259 1_554 S
C51 O48 1.235 . S
O52 Co42 2.021 1_554 S
O52 C49 1.238 . S
O53 Co47 2.052 . S
O53 C49 1.241 . S
O54 Co42 2.137 . S
O54 C45 1.247 . S
O55 Co42 2.244 1_554 S
O55 C45 1.272 1_554 S
O55 Co47 2.135 . S
Co56 O57 2.216 . S
Co56 O58 2.091 . S
Co56 O60 2.004 . S
Co56 O66 2.021 . S
Co56 O68 2.137 . S
Co56 O69 2.244 . S
O57 Co56 2.216 . S
O57 C64 1.247 . S
O58 Co56 2.091 . S
O58 C64 1.261 . S
C59 O68 1.247 . S
C59 O69 1.272 . S
O60 Co56 2.004 . S
O60 C65 1.259 . S
Co61 O62 2.061 . S
Co61 O67 2.052 . S
Co61 O69 2.135 . S
O62 Co61 2.061 . S
O62 C65 1.235 . S
C63 O66 1.238 . S
C63 O67 1.241 . S
C64 O57 1.247 . S
C64 O58 1.261 . S
C65 O60 1.259 . S
C65 O62 1.235 . S
O66 Co56 2.021 . S
O66 C63 1.238 . S
O67 Co61 2.052 . S
O67 C63 1.241 . S
O68 Co56 2.137 . S
O68 C59 1.247 . S
O69 Co56 2.244 . S
O69 C59 1.272 . S
O69 Co61 2.135 . S
Co70 O71 2.216 . S
Co70 O72 2.091 . S
Co70 O74 2.004 . S
Co70 O80 2.021 . S
Co70 O82 2.137 . S
Co70 O83 2.244 . S
O71 Co70 2.216 . S
O71 C78 1.247 . S
O72 Co70 2.091 . S
O72 C78 1.261 . S
C73 O82 1.247 . S
C73 O83 1.272 . S
O74 Co70 2.004 . S
O74 C79 1.259 . S
Co75 O76 2.061 . S
Co75 O81 2.052 . S
Co75 O83 2.135 . S
O76 Co75 2.061 . S
O76 C79 1.235 . S
C77 O80 1.238 . S
C77 O81 1.241 . S
C78 O71 1.247 . S
C78 O72 1.261 . S
C79 O74 1.259 . S
C79 O76 1.235 . S
O80 Co70 2.021 . S
O80 C77 1.238 . S
O81 Co75 2.052 . S
O81 C77 1.241 . S
O82 Co70 2.137 . S
O82 C73 1.247 . S
O83 Co70 2.244 . S
O83 C73 1.272 . S
O83 Co75 2.135 . S
Co84 O85 2.216 . S
Co84 O86 2.091 . S
Co84 O88 2.004 . S
Co84 O94 2.021 . S
Co84 O96 2.137 . S
Co84 O97 2.244 . S
O85 Co84 2.216 . S
O85 C92 1.247 . S
O86 Co84 2.091 . S
O86 C92 1.261 . S
C87 O96 1.247 . S
C87 O97 1.272 . S
O88 Co84 2.004 . S
O88 C93 1.259 . S
Co89 O90 2.061 . S
Co89 O95 2.052 . S
Co89 O97 2.135 . S
O90 Co89 2.061 . S
O90 C93 1.235 . S
C91 O94 1.238 . S
C91 O95 1.241 . S
C92 O85 1.247 . S
C92 O86 1.261 . S
C93 O88 1.259 . S
C93 O90 1.235 . S
O94 Co84 2.021 . S
O94 C91 1.238 . S
O95 Co89 2.052 . S
O95 C91 1.241 . S
O96 Co84 2.137 . S
O96 C87 1.247 . S
O97 Co84 2.244 . S
O97 C87 1.272 . S
O97 Co89 2.135 . S
Co98 O99 2.216 . S
Co98 O100 2.091 . S
Co98 O102 2.004 . S
Co98 O108 2.021 . S
Co98 O110 2.137 . S
Co98 O111 2.244 . S
O99 Co98 2.216 . S
O99 C106 1.247 . S
O100 Co98 2.091 . S
O100 C106 1.261 . S
C101 O110 1.247 . S
C101 O111 1.272 . S
O102 Co98 2.004 . S
O102 C107 1.259 . S
Co103 O104 2.061 . S
Co103 O109 2.052 . S
Co103 O111 2.135 . S
O104 Co103 2.061 . S
O104 C107 1.235 . S
C105 O108 1.238 . S
C105 O109 1.241 . S
C106 O99 1.247 . S
C106 O100 1.261 . S
C107 O102 1.259 . S
C107 O104 1.235 . S
O108 Co98 2.021 . S
O108 C105 1.238 . S
O109 Co103 2.052 . S
O109 C105 1.241 . S
O110 Co98 2.137 . S
O110 C101 1.247 . S
O111 Co98 2.244 . S
O111 C101 1.272 . S
O111 Co103 2.135 . S
C112 C113 1.369 . S
C112 C114 1.419 1_554 S
C112 H116 0.930 1_554 S
C113 C112 1.369 . S
C113 C122 1.429 . S
C114 C112 1.419 1_556 S
C114 C115 1.363 1_556 S
C114 H117 0.929 . S
C115 C114 1.363 1_554 S
C115 C121 1.428 . S
H116 C112 0.930 1_556 S
H117 C114 0.929 . S
S118 N119 1.613 . S
S118 N120 1.610 . S
N119 S118 1.613 . S
N119 C122 1.350 . S
N120 S118 1.610 . S
N120 C121 1.351 . S
C121 C115 1.428 . S
C121 N120 1.351 . S
C121 C122 1.434 . S
C122 C113 1.429 . S
C122 N119 1.350 . S
C122 C121 1.434 . S
C123 C124 1.369 1_556 S
C123 C125 1.419 . S
C123 H127 0.930 . S
C124 C123 1.369 1_554 S
C124 C133 1.429 . S
C125 C123 1.419 . S
C125 C126 1.362 1_556 S
C125 H128 0.930 . S
C126 C125 1.362 1_554 S
C126 C132 1.428 . S
H127 C123 0.930 . S
H128 C125 0.930 . S
S129 N130 1.613 . S
S129 N131 1.610 . S
N130 S129 1.613 . S
N130 C133 1.350 . S
N131 S129 1.610 . S
N131 C132 1.351 . S
C132 C126 1.428 . S
C132 N131 1.351 . S
C132 C133 1.434 . S
C133 C124 1.429 . S
C133 N130 1.350 . S
C133 C132 1.434 . S
C134 C135 1.369 . S
C134 C136 1.419 . S
C134 H138 0.930 . S
C135 C134 1.369 . S
C135 C144 1.429 1_554 S
C136 C134 1.419 . S
C136 C137 1.363 . S
C136 H139 0.929 . S
C137 C136 1.363 . S
C137 C143 1.428 . S
H138 C134 0.930 . S
H139 C136 0.929 . S
S140 N141 1.613 . S
S140 N142 1.610 1_556 S
N141 S140 1.613 . S
N141 C144 1.350 . S
N142 S140 1.610 1_554 S
N142 C143 1.351 . S
C143 C137 1.428 . S
C143 N142 1.351 . S
C143 C144 1.434 1_554 S
C144 C135 1.429 1_556 S
C144 N141 1.350 . S
C144 C143 1.434 1_556 S
C145 C146 1.369 1_556 S
C145 C147 1.419 . S
C145 H149 0.930 . S
C146 C145 1.369 1_554 S
C146 C155 1.429 . S
C147 C145 1.419 . S
C147 C148 1.363 1_556 S
C147 H150 0.929 . S
C148 C147 1.363 1_554 S
C148 C154 1.428 . S
H149 C145 0.930 . S
H150 C147 0.929 . S
S151 N152 1.613 . S
S151 N153 1.610 . S
N152 S151 1.613 . S
N152 C155 1.350 . S
N153 S151 1.610 . S
N153 C154 1.351 . S
C154 C148 1.428 . S
C154 N153 1.351 . S
C154 C155 1.434 . S
C155 C146 1.429 . S
C155 N152 1.350 . S
C155 C154 1.434 . S
C156 C157 1.369 . S
C156 C158 1.419 1_565 S
C156 H160 0.930 . S
C157 C156 1.369 . S
C157 C166 1.429 . S
C158 C156 1.419 1_545 S
C158 C159 1.363 . S
C158 H161 0.929 . S
C159 C158 1.363 . S
C159 C165 1.428 . S
H160 C156 0.930 . S
H161 C158 0.929 . S
S162 N163 1.613 . S
S162 N164 1.610 1_565 S
N163 S162 1.613 . S
N163 C166 1.350 . S
N164 S162 1.610 1_545 S
N164 C165 1.351 . S
C165 C159 1.428 . S
C165 N164 1.351 . S
C165 C166 1.434 1_545 S
C166 C157 1.429 . S
C166 N163 1.350 . S
C166 C165 1.434 1_565 S
C167 C168 1.369 . S
C167 C169 1.419 1_455 S
C167 H171 0.930 . S
C168 C167 1.369 . S
C168 C177 1.429 . S
C169 C167 1.419 1_655 S
C169 C170 1.363 . S
C169 H172 0.929 . S
C170 C169 1.363 . S
C170 C176 1.428 . S
H171 C167 0.930 . S
H172 C169 0.929 . S
S173 N174 1.613 1_655 S
S173 N175 1.610 . S
N174 S173 1.613 1_455 S
N174 C177 1.350 . S
N175 S173 1.610 . S
N175 C176 1.351 . S
C176 C170 1.428 . S
C176 N175 1.351 . S
C176 C177 1.434 1_655 S
C177 C168 1.429 . S
C177 N174 1.350 . S
C177 C176 1.434 1_455 S
C178 C179 1.369 . S
C178 C180 1.419 1_545 S
C178 H182 0.930 . S
C179 C178 1.369 . S
C179 C188 1.429 . S
C180 C178 1.419 1_565 S
C180 C181 1.363 . S
C180 H183 0.929 . S
C181 C180 1.363 . S
C181 C187 1.428 . S
H182 C178 0.930 . S
H183 C180 0.929 . S
S184 N185 1.613 1_565 S
S184 N186 1.610 . S
N185 S184 1.613 1_545 S
N185 C188 1.350 . S
N186 S184 1.610 . S
N186 C187 1.351 . S
C187 C181 1.428 . S
C187 N186 1.351 . S
C187 C188 1.434 1_565 S
C188 C179 1.429 . S
C188 N185 1.350 . S
C188 C187 1.434 1_545 S
C189 C190 1.369 . S
C189 C191 1.419 1_655 S
C189 H193 0.930 . S
C190 C189 1.369 . S
C190 C199 1.429 . S
C191 C189 1.419 1_455 S
C191 C192 1.363 . S
C191 H194 0.929 . S
C192 C191 1.363 . S
C192 C198 1.428 . S
H193 C189 0.930 . S
H194 C191 0.929 . S
S195 N196 1.613 . S
S195 N197 1.610 1_655 S
N196 S195 1.613 . S
N196 C199 1.350 . S
N197 S195 1.610 1_455 S
N197 C198 1.351 . S
C198 C192 1.428 . S
C198 N197 1.351 . S
C198 C199 1.434 1_455 S
C199 C190 1.429 . S
C199 N196 1.350 . S
C199 C198 1.434 1_655 S
C200 C201 1.369 . S
C200 C202 1.419 . S
C200 H204 0.930 . S
C201 C200 1.369 . S
C201 C210 1.429 . S
C202 C200 1.419 . S
C202 C203 1.363 . S
C202 H205 0.929 . S
C203 C202 1.363 . S
C203 C209 1.428 . S
H204 C200 0.930 . S
H205 C202 0.929 . S
S206 N207 1.613 . S
S206 N208 1.610 . S
N207 S206 1.613 . S
N207 C210 1.350 . S
N208 S206 1.610 . S
N208 C209 1.351 . S
C209 C203 1.428 . S
C209 N208 1.351 . S
C209 C210 1.434 . S
C210 C201 1.429 . S
C210 N207 1.350 . S
C210 C209 1.434 . S
C211 C212 1.369 . S
C211 C213 1.419 . S
C211 H215 0.930 . S
C212 C211 1.369 . S
C212 C221 1.429 . S
C213 C211 1.419 . S
C213 C214 1.363 . S
C213 H216 0.929 . S
C214 C213 1.363 . S
C214 C220 1.428 . S
H215 C211 0.930 . S
H216 C213 0.929 . S
S217 N218 1.613 . S
S217 N219 1.610 . S
N218 S217 1.613 . S
N218 C221 1.350 . S
N219 S217 1.610 . S
N219 C220 1.351 . S
C220 C214 1.428 . S
C220 N219 1.351 . S
C220 C221 1.434 . S
C221 C212 1.429 . S
C221 N218 1.350 . S
C221 C220 1.434 . S
C222 C223 1.369 . S
C222 C224 1.419 . S
C222 H226 0.930 . S
C223 C222 1.369 . S
C223 C232 1.429 . S
C224 C222 1.419 . S
C224 C225 1.363 . S
C224 H227 0.929 . S
C225 C224 1.363 . S
C225 C231 1.428 . S
H226 C222 0.930 . S
H227 C224 0.929 . S
S228 N229 1.613 . S
S228 N230 1.610 . S
N229 S228 1.613 . S
N229 C232 1.350 . S
N230 S228 1.610 . S
N230 C231 1.351 . S
C231 C225 1.428 . S
C231 N230 1.351 . S
C231 C232 1.434 . S
C232 C223 1.429 . S
C232 N229 1.350 . S
C232 C231 1.434 . S
C233 C234 1.369 . S
C233 C235 1.419 . S
C233 H237 0.930 . S
C234 C233 1.369 . S
C234 C243 1.429 . S
C235 C233 1.419 . S
C235 C236 1.363 . S
C235 H238 0.929 . S
C236 C235 1.363 . S
C236 C242 1.428 . S
H237 C233 0.930 . S
H238 C235 0.929 . S
S239 N240 1.613 . S
S239 N241 1.610 . S
N240 S239 1.613 . S
N240 C243 1.350 . S
N241 S239 1.610 . S
N241 C242 1.351 . S
C242 C236 1.428 . S
C242 N241 1.351 . S
C242 C243 1.434 . S
C243 C234 1.429 . S
C243 N240 1.350 . S
C243 C242 1.434 . S
C244 C245 1.369 . S
C244 C246 1.419 . S
C244 H248 0.930 . S
C245 C244 1.369 . S
C245 C254 1.429 . S
C246 C244 1.419 . S
C246 C247 1.363 . S
C246 H249 0.929 . S
C247 C246 1.363 . S
C247 C253 1.428 . S
H248 C244 0.930 . S
H249 C246 0.929 . S
S250 N251 1.613 . S
S250 N252 1.610 . S
N251 S250 1.613 . S
N251 C254 1.350 . S
N252 S250 1.610 . S
N252 C253 1.351 . S
C253 C247 1.428 . S
C253 N252 1.351 . S
C253 C254 1.434 . S
C254 C245 1.429 . S
C254 N251 1.350 . S
C254 C253 1.434 . S
C255 C256 1.369 . S
C255 C257 1.419 . S
C255 H259 0.930 . S
C256 C255 1.369 . S
C256 C265 1.429 . S
C257 C255 1.419 . S
C257 C258 1.363 . S
C257 H260 0.929 . S
C258 C257 1.363 . S
C258 C264 1.428 . S
H259 C255 0.930 . S
H260 C257 0.929 . S
S261 N262 1.613 . S
S261 N263 1.610 . S
N262 S261 1.613 . S
N262 C265 1.350 . S
N263 S261 1.610 . S
N263 C264 1.351 . S
C264 C258 1.428 . S
C264 N263 1.351 . S
C264 C265 1.434 . S
C265 C256 1.429 . S
C265 N262 1.350 . S
C265 C264 1.434 . S
C266 C267 1.369 . S
C266 C268 1.419 . S
C266 H270 0.930 . S
C267 C266 1.369 . S
C267 C276 1.429 . S
C268 C266 1.419 . S
C268 C269 1.363 . S
C268 H271 0.929 . S
C269 C268 1.363 . S
C269 C275 1.428 . S
H270 C266 0.930 . S
H271 C268 0.929 . S
S272 N273 1.613 . S
S272 N274 1.610 . S
N273 S272 1.613 . S
N273 C276 1.350 . S
N274 S272 1.610 . S
N274 C275 1.351 . S
C275 C269 1.428 . S
C275 N274 1.351 . S
C275 C276 1.434 . S
C276 C267 1.429 . S
C276 N273 1.350 . S
C276 C275 1.434 . S
C277 C278 1.369 . S
C277 C279 1.419 . S
C277 H281 0.930 . S
C278 C277 1.369 . S
C278 C287 1.429 . S
C279 C277 1.419 . S
C279 C280 1.363 . S
C279 H282 0.929 . S
C280 C279 1.363 . S
C280 C286 1.428 . S
H281 C277 0.930 . S
H282 C279 0.929 . S
S283 N284 1.613 . S
S283 N285 1.610 . S
N284 S283 1.613 . S
N284 C287 1.350 . S
N285 S283 1.610 . S
N285 C286 1.351 . S
C286 C280 1.428 . S
C286 N285 1.351 . S
C286 C287 1.434 . S
C287 C278 1.429 . S
C287 N284 1.350 . S
C287 C286 1.434 . S
C113 C3 1.563 . S
C115 C45 1.563 1_554 S
C124 C9 1.573 1_554 S
C126 C23 1.575 . S
C135 C17 1.563 1_554 S
C137 C31 1.561 . S
C146 C51 1.575 . S
C148 C37 1.573 1_554 S
C157 C59 1.560 . S
C159 C101 1.564 . S
C168 C79 1.575 . S
C170 C65 1.574 . S
C179 C87 1.564 . S
C181 C73 1.561 . S
C190 C107 1.573 . S
C192 C93 1.575 . S
C201 C91 1.465 . S
C203 C8 1.499 . S
C212 C21 1.469 . S
C214 C106 1.502 . S
C223 C63 1.466 . S
C225 C36 1.499 . S
C234 C78 1.501 . S
C236 C49 1.471 . S
C245 C77 1.473 . S
C247 C50 1.500 . S
C256 C7 1.465 . S
C258 C92 1.500 . S
C267 C22 1.500 . S
C269 C105 1.466 . S
C278 C35 1.465 . S
C280 C64 1.500 . S
