# Generated by pormake.
# Topology mok, (4)-cn, num edge types: 1
# Building blocks:
#     Node 0, Type 0, BuildingBlock: GALJAG_clean_sbu_0, # of connection points: 4
#     Node 1, Type 0, BuildingBlock: GALJAG_clean_sbu_0, # of connection points: 4
#     Node 2, Type 0, BuildingBlock: GALJAG_clean_sbu_0, # of connection points: 4
#     Node 3, Type 0, BuildingBlock: GALJAG_clean_sbu_0, # of connection points: 4
#     Node 4, Type 0, BuildingBlock: GALJAG_clean_sbu_0, # of connection points: 4
#     Node 5, Type 0, BuildingBlock: GALJAG_clean_sbu_0, # of connection points: 4
#     Node 6, Type 0, BuildingBlock: GALJAG_clean_sbu_0, # of connection points: 4
#     Node 7, Type 0, BuildingBlock: GALJAG_clean_sbu_0, # of connection points: 4
#     Edge 8, Type (0, 0), BuildingBlock: FUNLAD_clean_linker_0, # of connection points: 2
#     Edge 9, Type (0, 0), BuildingBlock: FUNLAD_clean_linker_0, # of connection points: 2
#     Edge 10, Type (0, 0), BuildingBlock: FUNLAD_clean_linker_0, # of connection points: 2
#     Edge 11, Type (0, 0), BuildingBlock: FUNLAD_clean_linker_0, # of connection points: 2
#     Edge 12, Type (0, 0), BuildingBlock: FUNLAD_clean_linker_0, # of connection points: 2
#     Edge 13, Type (0, 0), BuildingBlock: FUNLAD_clean_linker_0, # of connection points: 2
#     Edge 14, Type (0, 0), BuildingBlock: FUNLAD_clean_linker_0, # of connection points: 2
#     Edge 15, Type (0, 0), BuildingBlock: FUNLAD_clean_linker_0, # of connection points: 2
#     Edge 16, Type (0, 0), BuildingBlock: FUNLAD_clean_linker_0, # of connection points: 2
#     Edge 17, Type (0, 0), BuildingBlock: FUNLAD_clean_linker_0, # of connection points: 2
#     Edge 18, Type (0, 0), BuildingBlock: FUNLAD_clean_linker_0, # of connection points: 2
#     Edge 19, Type (0, 0), BuildingBlock: FUNLAD_clean_linker_0, # of connection points: 2
#     Edge 20, Type (0, 0), BuildingBlock: FUNLAD_clean_linker_0, # of connection points: 2
#     Edge 21, Type (0, 0), BuildingBlock: FUNLAD_clean_linker_0, # of connection points: 2
#     Edge 22, Type (0, 0), BuildingBlock: FUNLAD_clean_linker_0, # of connection points: 2
#     Edge 23, Type (0, 0), BuildingBlock: FUNLAD_clean_linker_0, # of connection points: 2
# Relax obj value: 0.070
# Max RMSD: 0.103
# Mean RMSD: 0.103
data_MOF--net-mok--node1-GALJAG_clean_sbu_0--edge1-FUNLAD_clean_linker_0
_symmetry_space_group_name_H-M    P1
_symmetry_Int_Tables_number       1
_symmetry_cell_setting            triclinic
loop_
_symmetry_equiv_pos_as_xyz
'x, y, z'
_cell_length_a     63.951919
_cell_length_b     16.152853
_cell_length_c     33.236185
_cell_angle_alpha  89.992583
_cell_angle_beta   89.922423
_cell_angle_gamma 90.009965
loop_
_atom_site_label
_atom_site_type_symbol
_atom_site_fract_x
_atom_site_fract_y
_atom_site_fract_z
_atom_type_partial_charge
In0 In 0.61101 0.30829 0.01087 0.0
O1 O 0.60277 0.41098 0.96616 0.0
O2 O 0.62383 0.31632 0.94751 0.0
C3 C 0.59993 0.3706 0.08287 0.0
C4 C 0.57977 0.20172 -0.00454 0.0
C5 C 0.65146 0.27617 0.0255 0.0
O6 O 0.60343 0.41652 0.0528 0.0
O7 O 0.60195 0.29415 0.07634 0.0
O8 O 0.63851 0.21954 0.01711 0.0
O9 O 0.64387 0.34829 0.02694 0.0
C10 C 0.6141 0.3815 0.93847 0.0
O11 O 0.59784 0.17725 0.00515 0.0
O12 O 0.57768 0.27918 0.99338 0.0
In13 In 0.38505 0.68613 0.00275 0.0
O14 O 0.39895 0.81564 -0.00322 0.0
O15 O 0.41964 0.71265 0.0026 0.0
C16 C 0.34338 0.70418 0.00126 0.0
C17 C 0.38981 0.61497 0.93042 0.0
C18 C 0.38916 0.63713 0.07948 0.0
O19 O 0.35557 0.76595 0.00106 0.0
O20 O 0.3523 0.63456 0.00231 0.0
O21 O 0.39229 0.58808 0.05036 0.0
O22 O 0.3841 0.70982 0.0696 0.0
C23 C 0.41763 0.78995 -0.00142 0.0
O24 O 0.39272 0.57491 0.9627 0.0
O25 O 0.38468 0.68978 0.93506 0.0
In26 In 0.60572 0.65918 0.5091 0.0
O27 O 0.59923 0.55737 0.55536 0.0
O28 O 0.61209 0.67192 0.57549 0.0
C29 C 0.59906 0.59172 0.43643 0.0
C30 C 0.57173 0.75592 0.51485 0.0
C31 C 0.64667 0.69205 0.50105 0.0
O32 O 0.59977 0.54796 0.468 0.0
O33 O 0.60164 0.6683 0.4419 0.0
O34 O 0.63311 0.74896 0.50333 0.0
O35 O 0.63946 0.61933 0.50271 0.0
C36 C 0.60559 0.60063 0.58464 0.0
O37 O 0.58985 0.78589 0.5101 0.0
O38 O 0.57096 0.67799 0.51664 0.0
In39 In 0.38315 0.31221 0.5028 0.0
O40 O 0.39929 0.18623 0.50544 0.0
O41 O 0.41812 0.29527 0.50311 0.0
C42 C 0.34182 0.28142 0.50181 0.0
C43 C 0.38729 0.37802 0.57651 0.0
C44 C 0.38828 0.36869 0.42751 0.0
O45 O 0.35521 0.22379 0.50323 0.0
O46 O 0.34937 0.35356 0.50095 0.0
O47 O 0.38897 0.41664 0.45762 0.0
O48 O 0.38476 0.29368 0.43566 0.0
C49 C 0.41748 0.21724 0.50467 0.0
O50 O 0.38894 0.42167 0.54502 0.0
O51 O 0.38333 0.30253 0.57048 0.0
In52 In 0.11013 0.81889 0.02056 0.0
O53 O 0.09736 0.68737 0.01527 0.0
O54 O 0.07579 0.78795 0.01845 0.0
C55 C 0.1519 0.80468 0.02093 0.0
C56 C 0.10571 0.88883 0.94783 0.0
C57 C 0.10476 0.86753 0.09706 0.0
O58 O 0.14004 0.74211 0.01856 0.0
O59 O 0.14261 0.87345 0.02324 0.0
O60 O 0.10199 0.91663 0.06784 0.0
O61 O 0.11013 0.79505 0.08738 0.0
C62 C 0.07847 0.71077 0.01556 0.0
O63 O 0.10129 0.92782 0.9798 0.0
O64 O 0.11223 0.81592 0.953 0.0
In65 In 0.88469 0.18898 -0.00081 0.0
O66 O 0.8908 0.0809 0.95614 0.0
O67 O 0.88192 0.1976 0.93161 0.0
C68 C 0.89173 0.13092 0.07376 0.0
C69 C 0.91757 0.29104 0.99323 0.0
C70 C 0.84342 0.21776 0.00549 0.0
O71 O 0.89122 0.08332 0.04352 0.0
O72 O 0.88879 0.20643 0.06603 0.0
O73 O 0.8566 0.27592 0.00323 0.0
O74 O 0.85111 0.1459 0.00425 0.0
C75 C 0.887 0.1234 0.92499 0.0
O76 O 0.899 0.31779 -0.00473 0.0
O77 O 0.91939 0.21322 0.99411 0.0
In78 In 0.10737 0.19039 0.51987 0.0
O79 O 0.10127 0.08097 0.56186 0.0
O80 O 0.1104 0.19657 0.58742 0.0
C81 C 0.10098 0.13414 0.44484 0.0
C82 C 0.07318 0.28559 0.52605 0.0
C83 C 0.14865 0.22102 0.51622 0.0
O84 O 0.10144 0.08583 0.47482 0.0
O85 O 0.10387 0.20954 0.45297 0.0
O86 O 0.13534 0.27871 0.51905 0.0
O87 O 0.14105 0.14898 0.51508 0.0
C88 C 0.10522 0.12216 0.59336 0.0
O89 O 0.09127 0.31663 0.52245 0.0
O90 O 0.07258 0.20753 0.52664 0.0
In91 In 0.88006 0.81307 0.49808 0.0
O92 O 0.89759 0.69044 0.50332 0.0
O93 O 0.91523 0.80184 0.49703 0.0
C94 C 0.83915 0.77571 0.4998 0.0
C95 C 0.88308 0.88574 0.57052 0.0
C96 C 0.88295 0.86418 0.42139 0.0
O97 O 0.85311 0.72016 0.50047 0.0
O98 O 0.84595 0.849 0.49824 0.0
O99 O 0.88523 0.91367 0.45062 0.0
O100 O 0.87916 0.79019 0.43114 0.0
C101 C 0.91543 0.72413 0.50088 0.0
O102 O 0.88426 0.9271 0.53822 0.0
O103 O 0.88043 0.80894 0.56588 0.0
C104 C 0.80693 0.16434 0.01072 0.0
C105 C 0.82073 0.23192 0.00961 0.0
C106 C 0.78545 0.17685 0.01472 0.0
C107 C 0.77728 0.2575 0.0181 0.0
C108 C 0.79112 0.32503 0.01661 0.0
C109 C 0.81264 0.31245 0.01252 0.0
C110 C 0.75448 0.27399 0.02136 0.0
C111 C 0.74037 0.2174 0.03378 0.0
C112 C 0.71753 0.2335 0.0343 0.0
C113 C 0.70372 0.16681 0.02904 0.0
C114 C 0.68215 0.18018 0.02704 0.0
C115 C 0.67402 0.26054 0.03072 0.0
H116 H 0.71936 0.36603 0.0453 0.0
C117 C 0.68775 0.32682 0.03773 0.0
C118 C 0.70929 0.31351 0.03962 0.0
H119 H 0.6819 0.38935 0.04118 0.0
H120 H 0.81272 0.10151 0.00817 0.0
H121 H 0.7754 0.12304 0.01425 0.0
H122 H 0.78526 0.38783 0.01871 0.0
H123 H 0.82292 0.36574 0.01166 0.0
H124 H 0.74923 0.33533 0.01268 0.0
H125 H 0.74541 0.15575 0.0423 0.0
H126 H 0.70966 0.10444 0.02536 0.0
H127 H 0.67191 0.12784 0.02185 0.0
C128 C 0.18488 0.72177 0.01699 0.0
C129 C 0.17491 0.79878 0.02053 0.0
C130 C 0.2067 0.71695 0.01604 0.0
C131 C 0.21894 0.78936 0.01835 0.0
C132 C 0.20889 0.86603 0.02263 0.0
C133 C 0.18711 0.87082 0.02352 0.0
C134 C 0.24214 0.78754 0.01756 0.0
C135 C 0.25323 0.7262 0.00035 0.0
C136 C 0.27641 0.72344 0.00032 0.0
C137 C 0.28624 0.64607 -0.00238 0.0
C138 C 0.30799 0.64012 -0.00206 0.0
C139 C 0.32041 0.71166 0.00047 0.0
H140 H 0.28187 0.85635 0.00295 0.0
C141 C 0.31066 0.78941 0.0023 0.0
C142 C 0.28884 0.79538 0.00218 0.0
H143 H 0.31987 0.84559 0.00388 0.0
H144 H 0.17585 0.66518 0.01503 0.0
H145 H 0.2138 0.65632 0.01418 0.0
H146 H 0.21792 0.92262 0.02489 0.0
H147 H 0.17985 0.93111 0.02647 0.0
H148 H 0.25023 0.83938 0.03131 0.0
H149 H 0.24518 0.67435 0.98656 0.0
H150 H 0.27706 0.58981 -0.00423 0.0
H151 H 0.31506 0.57928 -0.00377 0.0
C152 C 0.80204 0.82268 0.50149 0.0
C153 C 0.81654 0.75743 0.5007 0.0
C154 C 0.78061 0.80658 0.50224 0.0
C155 C 0.77317 0.72457 0.5018 0.0
C156 C 0.78771 0.65935 0.50159 0.0
C157 C 0.8092 0.67554 0.50091 0.0
C158 C 0.75047 0.70469 0.50293 0.0
C159 C 0.73544 0.75763 0.49076 0.0
C160 C 0.71271 0.73879 0.49287 0.0
C161 C 0.69844 0.80486 0.49417 0.0
C162 C 0.67694 0.78997 0.49664 0.0
C163 C 0.66929 0.70854 0.4975 0.0
H164 H 0.71532 0.60452 0.49045 0.0
C165 C 0.68351 0.64239 0.49532 0.0
C166 C 0.70498 0.65722 0.49288 0.0
H167 H 0.67805 0.57889 0.49549 0.0
H168 H 0.80723 0.88652 0.50183 0.0
H169 H 0.77006 0.85877 0.50396 0.0
H170 H 0.78244 0.5956 0.50169 0.0
H171 H 0.82004 0.62401 0.50049 0.0
H172 H 0.7462 0.64391 0.51414 0.0
H173 H 0.73971 0.81834 0.47947 0.0
H174 H 0.70395 0.8683 0.49379 0.0
H175 H 0.66634 0.84219 0.49808 0.0
C176 C 0.18528 0.16815 0.5138 0.0
C177 C 0.17144 0.23562 0.51482 0.0
C178 C 0.20687 0.18085 0.51299 0.0
C179 C 0.21513 0.26165 0.51278 0.0
C180 C 0.20124 0.32905 0.51413 0.0
C181 C 0.17961 0.31626 0.51504 0.0
C182 C 0.23802 0.27831 0.51256 0.0
C183 C 0.25253 0.22296 0.50044 0.0
C184 C 0.27539 0.23979 0.5008 0.0
C185 C 0.28934 0.17263 0.50228 0.0
C186 C 0.31096 0.18578 0.50266 0.0
C187 C 0.31904 0.26651 0.50123 0.0
H188 H 0.27347 0.37399 0.49604 0.0
C189 C 0.30514 0.33368 0.49908 0.0
C190 C 0.28356 0.32058 0.4987 0.0
H191 H 0.31092 0.39664 0.49748 0.0
H192 H 0.17945 0.10518 0.51403 0.0
H193 H 0.21687 0.12693 0.51339 0.0
H194 H 0.20714 0.39194 0.51436 0.0
H195 H 0.16931 0.36946 0.51599 0.0
H196 H 0.24293 0.33907 0.52277 0.0
H197 H 0.24774 0.16202 0.49035 0.0
H198 H 0.28349 0.10971 0.50351 0.0
H199 H 0.32131 0.1328 0.50413 0.0
C200 C 0.59096 0.34813 0.15509 0.0
C201 C 0.59481 0.40309 0.12317 0.0
C202 C 0.58753 0.37791 0.19395 0.0
C203 C 0.58805 0.46349 0.20173 0.0
C204 C 0.59098 0.51847 0.16946 0.0
C205 C 0.59442 0.48862 0.13053 0.0
C206 C 0.58603 0.49769 0.24302 0.0
C207 C 0.59161 0.45536 0.27632 0.0
C208 C 0.5921 0.49216 0.31729 0.0
C209 C 0.59221 0.43925 0.35087 0.0
C210 C 0.59408 0.47128 0.38981 0.0
C211 C 0.59604 0.55692 0.39581 0.0
H212 H 0.59465 0.6211 0.29865 0.0
C213 C 0.59577 0.6099 0.36232 0.0
C214 C 0.59392 0.57804 0.32351 0.0
H215 H 0.59741 0.67624 0.36597 0.0
H216 H 0.59086 0.28183 0.15018 0.0
H217 H 0.5845 0.33357 0.21763 0.0
H218 H 0.59122 0.58473 0.17455 0.0
H219 H 0.59719 0.53243 0.10643 0.0
H220 H 0.5809 0.56148 0.2455 0.0
H221 H 0.59672 0.39153 0.27372 0.0
H222 H 0.59104 0.37282 0.34696 0.0
H223 H 0.5943 0.42897 0.4151 0.0
C224 C 0.39486 0.52947 0.1326 0.0
C225 C 0.39078 0.61199 0.12205 0.0
C226 C 0.3955 0.50581 0.17306 0.0
C227 C 0.39224 0.56467 0.2038 0.0
C228 C 0.38833 0.64718 0.193 0.0
C229 C 0.38765 0.67067 0.15264 0.0
C230 C 0.39164 0.5425 0.24723 0.0
C231 C 0.39949 0.47184 0.26245 0.0
C232 C 0.39714 0.44809 0.30533 0.0
C233 C 0.39627 0.36369 0.31498 0.0
C234 C 0.39335 0.33828 0.35469 0.0
C235 C 0.39158 0.39683 0.38576 0.0
H236 H 0.39705 0.57251 0.33039 0.0
C237 C 0.39303 0.48139 0.37642 0.0
C238 C 0.39578 0.50692 0.33653 0.0
H239 H 0.39193 0.52777 0.39987 0.0
H240 H 0.39717 0.48284 0.1096 0.0
H241 H 0.39797 0.44108 0.17973 0.0
H242 H 0.38563 0.69374 0.2159 0.0
H243 H 0.38445 0.73484 0.14545 0.0
H244 H 0.38399 0.58613 0.26728 0.0
H245 H 0.40701 0.42725 0.24281 0.0
H246 H 0.39746 0.31715 0.29161 0.0
H247 H 0.39249 0.27257 0.36101 0.0
C248 C 0.38831 0.62709 0.85581 0.0
C249 C 0.39162 0.57779 0.89003 0.0
C250 C 0.38907 0.59257 0.8174 0.0
C251 C 0.39334 0.5078 0.81229 0.0
C252 C 0.3967 0.45853 0.84654 0.0
C253 C 0.39596 0.49323 0.88509 0.0
C254 C 0.39302 0.46803 0.77199 0.0
C255 C 0.39676 0.50963 0.73749 0.0
C256 C 0.39484 0.47328 0.69647 0.0
C257 C 0.39538 0.52688 0.66311 0.0
C258 C 0.393 0.49634 0.62401 0.0
C259 C 0.39003 0.41138 0.61749 0.0
H260 H 0.39222 0.34338 0.71389 0.0
C261 C 0.38979 0.35749 0.65064 0.0
C262 C 0.39226 0.38782 0.68964 0.0
H263 H 0.38776 0.29145 0.64649 0.0
H264 H 0.38476 0.6924 0.85867 0.0
H265 H 0.38563 0.63226 0.79206 0.0
H266 H 0.39979 0.39288 0.84348 0.0
H267 H 0.39848 0.45371 0.91096 0.0
H268 H 0.38935 0.40261 0.77142 0.0
H269 H 0.40105 0.57457 0.73903 0.0
H270 H 0.39743 0.59291 0.66729 0.0
H271 H 0.39335 0.53928 0.59898 0.0
C272 C 0.59861 0.46302 0.88202 0.0
C273 C 0.61539 0.4177 0.89795 0.0
C274 C 0.59928 0.4909 0.84221 0.0
C275 C 0.61695 0.47524 0.81815 0.0
C276 C 0.63403 0.43296 0.83468 0.0
C277 C 0.63313 0.40324 0.87405 0.0
C278 C 0.61809 0.50328 0.77591 0.0
C279 C 0.60172 0.49776 0.75072 0.0
C280 C 0.60318 0.52331 0.70803 0.0
C281 C 0.59186 0.4799 0.67866 0.0
C282 C 0.59299 0.50346 0.6382 0.0
C283 C 0.6051 0.57206 0.62673 0.0
H284 H 0.62386 0.62771 0.7185 0.0
C285 C 0.61623 0.61595 0.65622 0.0
C286 C 0.61535 0.59172 0.69644 0.0
H287 H 0.6256 0.66942 0.64825 0.0
H288 H 0.58476 0.47479 0.89993 0.0
H289 H 0.58608 0.52498 0.83033 0.0
H290 H 0.64787 0.421 0.81675 0.0
H291 H 0.64632 0.36876 0.8858 0.0
H292 H 0.63324 0.52304 0.76454 0.0
H293 H 0.58724 0.46947 0.76102 0.0
H294 H 0.58226 0.42732 0.687 0.0
H295 H 0.58411 0.46905 0.61607 0.0
C296 C 0.09771 0.97436 0.15004 0.0
C297 C 0.10245 0.89234 0.13956 0.0
C298 C 0.09638 -0.00235 0.1905 0.0
C299 C 0.09964 0.93893 0.22128 0.0
C300 C 0.10424 0.85694 0.21056 0.0
C301 C 0.10558 0.83379 0.17022 0.0
C302 C 0.0996 0.96092 0.26472 0.0
C303 C 0.09076 0.02988 0.2798 0.0
C304 C 0.09253 0.05387 0.32275 0.0
C305 C 0.09227 0.13828 0.33252 0.0
C306 C 0.0949 0.16402 0.37224 0.0
C307 C 0.09752 0.10572 0.4032 0.0
H308 H 0.09416 0.92948 0.34769 0.0
C309 C 0.09706 0.02103 0.39378 0.0
C310 C 0.09458 0.99521 0.35389 0.0
H311 H 0.09882 0.97478 0.41713 0.0
H312 H 0.09538 0.02088 0.12699 0.0
H313 H 0.09341 0.06205 0.1972 0.0
H314 H 0.10696 0.81054 0.23351 0.0
H315 H 0.10929 0.77002 0.1631 0.0
H316 H 0.10761 0.91865 0.28489 0.0
H317 H 0.08285 0.07302 0.25997 0.0
H318 H 0.09052 0.18465 0.3092 0.0
H319 H 0.09499 0.22978 0.37864 0.0
C320 C 0.88927 0.97189 0.36844 0.0
C321 C 0.88465 0.8897 0.37886 0.0
C322 C 0.89081 0.99515 0.32799 0.0
C323 C 0.88785 0.93628 0.29718 0.0
C324 C 0.88306 0.85441 0.30781 0.0
C325 C 0.88157 0.83123 0.34814 0.0
C326 C 0.88862 0.95808 0.25375 0.0
C327 C 0.89867 0.02488 0.23913 0.0
C328 C 0.89798 0.04898 0.19606 0.0
C329 C 0.8996 0.13315 0.18629 0.0
C330 C 0.89789 0.1593 0.14644 0.0
C331 C 0.89484 0.10161 0.11537 0.0
H332 H 0.89499 0.92506 0.17108 0.0
C333 C 0.89407 0.01695 0.12479 0.0
C334 C 0.8956 0.99075 0.16482 0.0
H335 H 0.89191 0.97114 0.10136 0.0
H336 H 0.89156 0.01837 0.39151 0.0
H337 H 0.89383 0.05952 0.32123 0.0
H338 H 0.88051 0.80799 0.28479 0.0
H339 H 0.87792 0.76737 0.35522 0.0
H340 H 0.88038 0.91729 0.23321 0.0
H341 H 0.90686 0.0662 0.25944 0.0
H342 H 0.90166 0.17915 0.20968 0.0
H343 H 0.89873 0.22499 0.14005 0.0
C344 C 0.88334 0.87255 0.64523 0.0
C345 C 0.8844 0.92326 0.61094 0.0
C346 C 0.88406 0.90692 0.6837 0.0
C347 C 0.88601 0.99303 0.68878 0.0
C348 C 0.88698 0.04376 0.65446 0.0
C349 C 0.88629 0.00923 0.61586 0.0
C350 C 0.88591 0.03214 0.72926 0.0
C351 C 0.89206 0.99248 0.763 0.0
C352 C 0.89102 0.02855 0.80423 0.0
C353 C 0.89383 0.97568 0.83743 0.0
C354 C 0.89261 0.0061 0.87677 0.0
C355 C 0.88854 0.09021 0.88371 0.0
H356 H 0.88561 0.15724 0.78718 0.0
C357 C 0.886 0.14342 0.85066 0.0
C358 C 0.88732 0.11325 0.8114 0.0
H359 H 0.88308 0.20886 0.85507 0.0
H360 H 0.8817 0.80605 0.6424 0.0
H361 H 0.8825 0.86576 0.70919 0.0
H362 H 0.88825 0.11035 0.65751 0.0
H363 H 0.88705 0.04984 0.58997 0.0
H364 H 0.8805 0.0956 0.73063 0.0
H365 H 0.8979 0.92957 0.76069 0.0
H366 H 0.89682 0.91029 0.83296 0.0
H367 H 0.89472 0.96369 0.90168 0.0
C368 C 0.11022 0.87857 0.87363 0.0
C369 C 0.1037 0.92469 0.90718 0.0
C370 C 0.10878 0.91146 0.83497 0.0
C371 C 0.1005 0.99116 0.82885 0.0
C372 C 0.09406 0.03747 0.86248 0.0
C373 C 0.09559 0.00451 0.90132 0.0
C374 C 0.09954 0.02942 0.78821 0.0
C375 C 0.09969 0.9851 0.7538 0.0
C376 C 0.1006 0.02273 0.71301 0.0
C377 C 0.09499 0.9743 0.67959 0.0
C378 C 0.09647 0.00624 0.64058 0.0
C379 C 0.1037 0.08725 0.63428 0.0
H380 H 0.11323 0.14227 0.73111 0.0
C381 C 0.10942 0.13559 0.66761 0.0
C382 C 0.10801 0.10368 0.70652 0.0
H383 H 0.11522 0.1981 0.66365 0.0
H384 H 0.11675 0.81713 0.87721 0.0
H385 H 0.1147 0.87469 0.81028 0.0
H386 H 0.08787 0.09941 0.8587 0.0
H387 H 0.0905 0.04154 0.92668 0.0
H388 H 0.09836 0.09637 0.78696 0.0
H389 H 0.0988 0.91807 0.75517 0.0
H390 H 0.08946 0.91143 0.68364 0.0
H391 H 0.09197 0.96755 0.61542 0.0
C392 C 0.45615 0.8124 -0.0003 0.0
C393 C 0.43592 0.84526 -0.00398 0.0
C394 C 0.47362 0.86379 -0.00262 0.0
C395 C 0.47124 0.94937 0.99092 0.0
C396 C 0.45097 0.98225 0.98765 0.0
C397 C 0.43345 0.9307 0.99004 0.0
C398 C 0.48938 0.00662 0.98935 0.0
C399 C 0.50903 0.98228 0.98054 0.0
C400 C 0.5272 0.03924 0.9818 0.0
C401 C 0.54706 0.0069 0.9906 0.0
C402 C 0.56434 0.05934 0.99431 0.0
C403 C 0.56204 0.14503 0.98888 0.0
H404 H 0.51028 0.15158 0.96631 0.0
C405 C 0.54237 0.17699 0.97841 0.0
C406 C 0.52513 0.12468 0.97475 0.0
H407 H 0.5402 0.24273 0.97347 0.0
H408 H 0.45852 0.7468 0.00474 0.0
H409 H 0.48884 0.83604 0.00161 0.0
H410 H 0.44867 0.04806 0.98311 0.0
H411 H 0.41802 0.95772 0.98724 0.0
H412 H 0.48629 0.07116 -0.00378 0.0
H413 H 0.51228 0.91785 0.97378 0.0
H414 H 0.54911 0.94113 -0.00432 0.0
H415 H 0.57936 0.033 0.00215 0.0
C416 C 0.55382 0.89369 0.51433 0.0
C417 C 0.55271 0.8072 0.51762 0.0
C418 C 0.53562 0.94148 0.51611 0.0
C419 C 0.51595 0.90336 0.52098 0.0
C420 C 0.515 0.81707 0.52521 0.0
C421 C 0.53315 0.76941 0.52336 0.0
C422 C 0.49612 0.95101 0.52236 0.0
C423 C 0.49376 0.02579 0.50511 0.0
C424 C 0.47383 0.07271 0.50579 0.0
C425 C 0.47463 0.15909 0.50203 0.0
C426 C 0.45631 0.20582 0.50196 0.0
C427 C 0.43672 0.16698 0.50518 0.0
H428 H 0.45285 0.96691 0.5103 0.0
C429 C 0.4358 0.08044 0.50845 0.0
C430 C 0.45418 0.03358 0.50869 0.0
H431 H 0.42089 0.0489 0.51062 0.0
H432 H 0.56873 0.92447 0.51032 0.0
H433 H 0.53714 0.00804 0.51418 0.0
H434 H 0.5001 0.7862 0.52938 0.0
H435 H 0.53182 0.70282 0.52625 0.0
H436 H 0.48292 0.92198 0.53732 0.0
H437 H 0.50693 0.05503 0.49018 0.0
H438 H 0.48952 0.19068 0.49938 0.0
H439 H 0.45751 0.27247 0.4992 0.0
C440 C 0.04016 0.6838 0.01413 0.0
C441 C 0.06068 0.6531 0.01256 0.0
C442 C 0.02314 0.63028 0.01115 0.0
C443 C 0.02628 0.5447 0.00613 0.0
C444 C 0.04682 0.51389 0.00519 0.0
C445 C 0.06389 0.56761 0.00821 0.0
C446 C 0.00854 0.48578 0.00346 0.0
C447 C 0.98938 0.50772 0.99037 0.0
C448 C 0.97123 0.4505 0.98976 0.0
C449 C 0.95099 0.48408 0.99109 0.0
C450 C 0.93347 0.43243 0.99184 0.0
C451 C 0.9359 0.34612 0.99094 0.0
H452 H 0.98886 0.33559 0.98512 0.0
C453 C 0.9561 0.31244 0.98845 0.0
C454 C 0.9736 0.364 0.9877 0.0
H455 H 0.95843 0.24605 0.98721 0.0
H456 H 0.0372 0.74937 0.01794 0.0
H457 H 0.00762 0.65637 0.01366 0.0
H458 H 0.04966 0.44812 0.00184 0.0
H459 H 0.07956 0.54224 0.0071 0.0
H460 H 0.01154 0.42254 0.01281 0.0
H461 H 0.98649 0.57095 0.98082 0.0
H462 H 0.94871 0.55051 0.99228 0.0
H463 H 0.91807 0.46009 0.99353 0.0
C464 C 0.05454 0.42186 0.52305 0.0
C465 C 0.05395 0.3357 0.52836 0.0
C466 C 0.03604 0.468 0.52349 0.0
C467 C 0.01661 0.4285 0.52919 0.0
C468 C 0.01618 0.34279 0.53574 0.0
C469 C 0.03461 0.29675 0.53508 0.0
C470 C -0.00353 0.47406 0.52884 0.0
C471 C 0.99355 0.54523 0.50856 0.0
C472 C 0.97318 0.58905 0.507 0.0
C473 C 0.97314 0.67455 0.49974 0.0
C474 C 0.95436 0.71825 0.49781 0.0
C475 C 0.93517 0.67708 0.50264 0.0
H476 H 0.95324 0.48117 0.51549 0.0
C477 C 0.9351 0.59127 0.50919 0.0
C478 C 0.95392 0.54751 0.51128 0.0
H479 H 0.92052 0.55788 0.51264 0.0
H480 H 0.06926 0.45351 0.51817 0.0
H481 H 0.0371 0.53438 0.51972 0.0
H482 H 0.00147 0.31096 0.54061 0.0
H483 H 0.03367 0.23043 0.53956 0.0
H484 H 0.98347 0.44596 0.54483 0.0
H485 H 0.00654 0.57352 0.49262 0.0
H486 H 0.98772 0.70788 0.49591 0.0
H487 H 0.9549 0.78439 0.4925 0.0
loop_
_geom_bond_atom_site_label_1
_geom_bond_atom_site_label_2
_geom_bond_distance
_geom_bond_site_symmetry_2
_ccdc_geom_bond_type
In0 O1 2.294 1_554 S
In0 O2 2.326 1_554 S
In0 O6 2.266 . S
In0 O7 2.326 . S
In0 O8 2.266 . S
In0 O9 2.326 . S
In0 O11 2.294 . S
In0 O12 2.326 . S
O1 In0 2.294 1_556 S
O1 C10 1.240 . S
O2 In0 2.326 1_556 S
O2 C10 1.252 . S
C3 O6 1.252 . S
C3 O7 1.260 . S
C4 O11 1.240 . S
C4 O12 1.252 . S
C5 O8 1.252 . S
C5 O9 1.260 . S
O6 In0 2.266 . S
O6 C3 1.252 . S
O7 In0 2.326 . S
O7 C3 1.260 . S
O8 In0 2.266 . S
O8 C5 1.252 . S
O9 In0 2.326 . S
O9 C5 1.260 . S
C10 O1 1.240 . S
C10 O2 1.252 . S
O11 In0 2.294 . S
O11 C4 1.240 . S
O12 In0 2.326 . S
O12 C4 1.252 . S
In13 O14 2.294 . S
In13 O15 2.326 . S
In13 O19 2.266 . S
In13 O20 2.326 . S
In13 O21 2.266 . S
In13 O22 2.326 . S
In13 O24 2.294 1_554 S
In13 O25 2.326 1_554 S
O14 In13 2.294 . S
O14 C23 1.240 . S
O15 In13 2.326 . S
O15 C23 1.252 . S
C16 O19 1.252 . S
C16 O20 1.260 . S
C17 O24 1.240 . S
C17 O25 1.252 . S
C18 O21 1.252 . S
C18 O22 1.260 . S
O19 In13 2.266 . S
O19 C16 1.252 . S
O20 In13 2.326 . S
O20 C16 1.260 . S
O21 In13 2.266 . S
O21 C18 1.252 . S
O22 In13 2.326 . S
O22 C18 1.260 . S
C23 O14 1.240 . S
C23 O15 1.252 . S
O24 In13 2.294 1_556 S
O24 C17 1.240 . S
O25 In13 2.326 1_556 S
O25 C17 1.252 . S
In26 O27 2.294 . S
In26 O28 2.326 . S
In26 O32 2.266 . S
In26 O33 2.326 . S
In26 O34 2.266 . S
In26 O35 2.326 . S
In26 O37 2.294 . S
In26 O38 2.326 . S
O27 In26 2.294 . S
O27 C36 1.240 . S
O28 In26 2.326 . S
O28 C36 1.252 . S
C29 O32 1.252 . S
C29 O33 1.260 . S
C30 O37 1.240 . S
C30 O38 1.252 . S
C31 O34 1.252 . S
C31 O35 1.260 . S
O32 In26 2.266 . S
O32 C29 1.252 . S
O33 In26 2.326 . S
O33 C29 1.260 . S
O34 In26 2.266 . S
O34 C31 1.252 . S
O35 In26 2.326 . S
O35 C31 1.260 . S
C36 O27 1.240 . S
C36 O28 1.252 . S
O37 In26 2.294 . S
O37 C30 1.240 . S
O38 In26 2.326 . S
O38 C30 1.252 . S
In39 O40 2.294 . S
In39 O41 2.326 . S
In39 O45 2.266 . S
In39 O46 2.326 . S
In39 O47 2.266 . S
In39 O48 2.326 . S
In39 O50 2.294 . S
In39 O51 2.326 . S
O40 In39 2.294 . S
O40 C49 1.240 . S
O41 In39 2.326 . S
O41 C49 1.252 . S
C42 O45 1.252 . S
C42 O46 1.260 . S
C43 O50 1.240 . S
C43 O51 1.252 . S
C44 O47 1.252 . S
C44 O48 1.260 . S
O45 In39 2.266 . S
O45 C42 1.252 . S
O46 In39 2.326 . S
O46 C42 1.260 . S
O47 In39 2.266 . S
O47 C44 1.252 . S
O48 In39 2.326 . S
O48 C44 1.260 . S
C49 O40 1.240 . S
C49 O41 1.252 . S
O50 In39 2.294 . S
O50 C43 1.240 . S
O51 In39 2.326 . S
O51 C43 1.252 . S
In52 O53 2.294 . S
In52 O54 2.326 . S
In52 O58 2.266 . S
In52 O59 2.326 . S
In52 O60 2.266 . S
In52 O61 2.326 . S
In52 O63 2.294 1_554 S
In52 O64 2.326 1_554 S
O53 In52 2.294 . S
O53 C62 1.240 . S
O54 In52 2.326 . S
O54 C62 1.252 . S
C55 O58 1.252 . S
C55 O59 1.260 . S
C56 O63 1.240 . S
C56 O64 1.252 . S
C57 O60 1.252 . S
C57 O61 1.260 . S
O58 In52 2.266 . S
O58 C55 1.252 . S
O59 In52 2.326 . S
O59 C55 1.260 . S
O60 In52 2.266 . S
O60 C57 1.252 . S
O61 In52 2.326 . S
O61 C57 1.260 . S
C62 O53 1.240 . S
C62 O54 1.252 . S
O63 In52 2.294 1_556 S
O63 C56 1.240 . S
O64 In52 2.326 1_556 S
O64 C56 1.252 . S
In65 O66 2.294 1_554 S
In65 O67 2.326 1_554 S
In65 O71 2.266 . S
In65 O72 2.326 . S
In65 O73 2.266 . S
In65 O74 2.326 . S
In65 O76 2.294 . S
In65 O77 2.326 . S
O66 In65 2.294 1_556 S
O66 C75 1.240 . S
O67 In65 2.326 1_556 S
O67 C75 1.252 . S
C68 O71 1.252 . S
C68 O72 1.260 . S
C69 O76 1.240 . S
C69 O77 1.252 . S
C70 O73 1.252 . S
C70 O74 1.260 . S
O71 In65 2.266 . S
O71 C68 1.252 . S
O72 In65 2.326 . S
O72 C68 1.260 . S
O73 In65 2.266 . S
O73 C70 1.252 . S
O74 In65 2.326 . S
O74 C70 1.260 . S
C75 O66 1.240 . S
C75 O67 1.252 . S
O76 In65 2.294 . S
O76 C69 1.240 . S
O77 In65 2.326 . S
O77 C69 1.252 . S
In78 O79 2.294 . S
In78 O80 2.326 . S
In78 O84 2.266 . S
In78 O85 2.326 . S
In78 O86 2.266 . S
In78 O87 2.326 . S
In78 O89 2.294 . S
In78 O90 2.326 . S
O79 In78 2.294 . S
O79 C88 1.240 . S
O80 In78 2.326 . S
O80 C88 1.252 . S
C81 O84 1.252 . S
C81 O85 1.260 . S
C82 O89 1.240 . S
C82 O90 1.252 . S
C83 O86 1.252 . S
C83 O87 1.260 . S
O84 In78 2.266 . S
O84 C81 1.252 . S
O85 In78 2.326 . S
O85 C81 1.260 . S
O86 In78 2.266 . S
O86 C83 1.252 . S
O87 In78 2.326 . S
O87 C83 1.260 . S
C88 O79 1.240 . S
C88 O80 1.252 . S
O89 In78 2.294 . S
O89 C82 1.240 . S
O90 In78 2.326 . S
O90 C82 1.252 . S
In91 O92 2.294 . S
In91 O93 2.326 . S
In91 O97 2.266 . S
In91 O98 2.326 . S
In91 O99 2.266 . S
In91 O100 2.326 . S
In91 O102 2.294 . S
In91 O103 2.326 . S
O92 In91 2.294 . S
O92 C101 1.240 . S
O93 In91 2.326 . S
O93 C101 1.252 . S
C94 O97 1.252 . S
C94 O98 1.260 . S
C95 O102 1.240 . S
C95 O103 1.252 . S
C96 O99 1.252 . S
C96 O100 1.260 . S
O97 In91 2.266 . S
O97 C94 1.252 . S
O98 In91 2.326 . S
O98 C94 1.260 . S
O99 In91 2.266 . S
O99 C96 1.252 . S
O100 In91 2.326 . S
O100 C96 1.260 . S
C101 O92 1.240 . S
C101 O93 1.252 . S
O102 In91 2.294 . S
O102 C95 1.240 . S
O103 In91 2.326 . S
O103 C95 1.252 . S
C104 C105 1.386 . S
C104 C106 1.383 . S
C104 H120 0.951 1_554 S
C105 C104 1.386 . S
C105 C109 1.383 . S
C106 C104 1.383 . S
C106 C107 1.402 . S
C106 H121 0.951 1_554 S
C107 C106 1.402 . S
C107 C108 1.375 . S
C107 C110 1.481 . S
C108 C107 1.375 . S
C108 C109 1.367 . S
C108 H122 0.951 . S
C109 C105 1.383 . S
C109 C108 1.367 . S
C109 H123 0.950 . S
C110 C107 1.481 . S
C110 C111 1.297 . S
C110 H124 0.950 . S
C111 C110 1.297 . S
C111 C112 1.479 . S
C111 H125 0.950 . S
C112 C111 1.479 . S
C112 C113 1.396 . S
C112 C118 1.404 . S
C113 C112 1.396 . S
C113 C114 1.367 1_554 S
C113 H126 0.931 1_554 S
C114 C113 1.367 1_556 S
C114 C115 1.392 1_556 S
C114 H127 0.951 . S
C115 C114 1.392 1_554 S
C115 C117 1.384 . S
H116 C118 0.949 . S
C117 C115 1.384 . S
C117 C118 1.385 . S
C117 H119 0.950 . S
C118 C112 1.404 . S
C118 H116 0.949 . S
C118 C117 1.385 . S
H119 C117 0.950 . S
H120 C104 0.951 1_556 S
H121 C106 0.951 1_556 S
H122 C108 0.951 . S
H123 C109 0.950 . S
H124 C110 0.950 . S
H125 C111 0.950 . S
H126 C113 0.931 1_556 S
H127 C114 0.951 . S
C128 C129 1.386 . S
C128 C130 1.383 . S
C128 H144 0.951 . S
C129 C128 1.386 . S
C129 C133 1.383 1_554 S
C130 C128 1.383 . S
C130 C131 1.402 . S
C130 H145 0.951 . S
C131 C130 1.402 . S
C131 C132 1.375 1_554 S
C131 C134 1.481 . S
C132 C131 1.375 1_556 S
C132 C133 1.367 . S
C132 H146 0.951 . S
C133 C129 1.383 1_556 S
C133 C132 1.367 . S
C133 H147 0.950 . S
C134 C131 1.481 . S
C134 C135 1.297 . S
C134 H148 0.950 1_554 S
C135 C134 1.297 . S
C135 C136 1.479 . S
C135 H149 0.950 . S
C136 C135 1.479 . S
C136 C137 1.375 . S
C136 C142 1.404 1_554 S
C137 C136 1.375 . S
C137 C138 1.369 . S
C137 H150 0.950 . S
C138 C137 1.369 . S
C138 C139 1.392 . S
C138 H151 0.951 . S
C139 C138 1.392 . S
C139 C141 1.384 1_554 S
H140 C142 0.949 . S
C141 C139 1.384 1_556 S
C141 C142 1.385 . S
C141 H143 0.950 . S
C142 C136 1.404 1_556 S
C142 H140 0.949 . S
C142 C141 1.385 . S
H143 C141 0.950 . S
H144 C128 0.951 . S
H145 C130 0.951 . S
H146 C132 0.951 . S
H147 C133 0.950 . S
H148 C134 0.950 1_556 S
H149 C135 0.950 . S
H150 C137 0.950 . S
H151 C138 0.951 . S
C152 C153 1.386 . S
C152 C154 1.383 . S
C152 H168 0.951 . S
C153 C152 1.386 . S
C153 C157 1.383 . S
C154 C152 1.383 . S
C154 C155 1.402 . S
C154 H169 0.951 . S
C155 C154 1.402 . S
C155 C156 1.375 . S
C155 C158 1.481 . S
C156 C155 1.375 . S
C156 C157 1.367 . S
C156 H170 0.951 . S
C157 C153 1.383 . S
C157 C156 1.367 . S
C157 H171 0.950 . S
C158 C155 1.481 . S
C158 C159 1.297 . S
C158 H172 0.950 . S
C159 C158 1.297 . S
C159 C160 1.479 . S
C159 H173 0.950 . S
C160 C159 1.479 . S
C160 C161 1.375 . S
C160 C166 1.404 . S
C161 C160 1.375 . S
C161 C162 1.369 . S
C161 H174 0.950 . S
C162 C161 1.369 . S
C162 C163 1.392 . S
C162 H175 0.951 . S
C163 C162 1.392 . S
C163 C165 1.384 . S
H164 C166 0.949 . S
C165 C163 1.384 . S
C165 C166 1.385 . S
C165 H167 0.950 . S
C166 C160 1.404 . S
C166 H164 0.949 . S
C166 C165 1.385 . S
H167 C165 0.950 . S
H168 C152 0.951 . S
H169 C154 0.951 . S
H170 C156 0.951 . S
H171 C157 0.950 . S
H172 C158 0.950 . S
H173 C159 0.950 . S
H174 C161 0.950 . S
H175 C162 0.951 . S
C176 C177 1.386 . S
C176 C178 1.383 . S
C176 H192 0.951 . S
C177 C176 1.386 . S
C177 C181 1.383 . S
C178 C176 1.383 . S
C178 C179 1.402 . S
C178 H193 0.951 . S
C179 C178 1.402 . S
C179 C180 1.375 . S
C179 C182 1.481 . S
C180 C179 1.375 . S
C180 C181 1.367 . S
C180 H194 0.951 . S
C181 C177 1.383 . S
C181 C180 1.367 . S
C181 H195 0.950 . S
C182 C179 1.481 . S
C182 C183 1.297 . S
C182 H196 0.950 . S
C183 C182 1.297 . S
C183 C184 1.479 . S
C183 H197 0.950 . S
C184 C183 1.479 . S
C184 C185 1.375 . S
C184 C190 1.404 . S
C185 C184 1.375 . S
C185 C186 1.369 . S
C185 H198 0.950 . S
C186 C185 1.369 . S
C186 C187 1.392 . S
C186 H199 0.951 . S
C187 C186 1.392 . S
C187 C189 1.384 . S
H188 C190 0.949 . S
C189 C187 1.384 . S
C189 C190 1.385 . S
C189 H191 0.950 . S
C190 C184 1.404 . S
C190 H188 0.949 . S
C190 C189 1.385 . S
H191 C189 0.950 . S
H192 C176 0.951 . S
H193 C178 0.951 . S
H194 C180 0.951 . S
H195 C181 0.950 . S
H196 C182 0.950 . S
H197 C183 0.950 . S
H198 C185 0.950 . S
H199 C186 0.951 . S
C200 C201 1.386 . S
C200 C202 1.383 . S
C200 H216 0.951 . S
C201 C200 1.386 . S
C201 C205 1.383 . S
C202 C200 1.383 . S
C202 C203 1.402 . S
C202 H217 0.951 . S
C203 C202 1.402 . S
C203 C204 1.375 . S
C203 C206 1.481 . S
C204 C203 1.375 . S
C204 C205 1.367 . S
C204 H218 0.951 . S
C205 C201 1.383 . S
C205 C204 1.367 . S
C205 H219 0.950 . S
C206 C203 1.481 . S
C206 C207 1.297 . S
C206 H220 0.950 . S
C207 C206 1.297 . S
C207 C208 1.479 . S
C207 H221 0.950 . S
C208 C207 1.479 . S
C208 C209 1.375 . S
C208 C214 1.404 . S
C209 C208 1.375 . S
C209 C210 1.369 . S
C209 H222 0.950 . S
C210 C209 1.369 . S
C210 C211 1.392 . S
C210 H223 0.951 . S
C211 C210 1.392 . S
C211 C213 1.384 . S
H212 C214 0.949 . S
C213 C211 1.384 . S
C213 C214 1.385 . S
C213 H215 0.950 . S
C214 C208 1.404 . S
C214 H212 0.949 . S
C214 C213 1.385 . S
H215 C213 0.950 . S
H216 C200 0.951 . S
H217 C202 0.951 . S
H218 C204 0.951 . S
H219 C205 0.950 . S
H220 C206 0.950 . S
H221 C207 0.950 . S
H222 C209 0.950 . S
H223 C210 0.951 . S
C224 C225 1.386 . S
C224 C226 1.383 . S
C224 H240 0.951 . S
C225 C224 1.386 . S
C225 C229 1.383 . S
C226 C224 1.383 . S
C226 C227 1.402 . S
C226 H241 0.951 . S
C227 C226 1.402 . S
C227 C228 1.375 . S
C227 C230 1.481 . S
C228 C227 1.375 . S
C228 C229 1.367 . S
C228 H242 0.951 . S
C229 C225 1.383 . S
C229 C228 1.367 . S
C229 H243 0.950 . S
C230 C227 1.481 . S
C230 C231 1.297 . S
C230 H244 0.950 . S
C231 C230 1.297 . S
C231 C232 1.479 . S
C231 H245 0.950 . S
C232 C231 1.479 . S
C232 C233 1.375 . S
C232 C238 1.404 . S
C233 C232 1.375 . S
C233 C234 1.369 . S
C233 H246 0.950 . S
C234 C233 1.369 . S
C234 C235 1.392 . S
C234 H247 0.951 . S
C235 C234 1.392 . S
C235 C237 1.384 . S
H236 C238 0.949 . S
C237 C235 1.384 . S
C237 C238 1.385 . S
C237 H239 0.950 . S
C238 C232 1.404 . S
C238 H236 0.949 . S
C238 C237 1.385 . S
H239 C237 0.950 . S
H240 C224 0.951 . S
H241 C226 0.951 . S
H242 C228 0.951 . S
H243 C229 0.950 . S
H244 C230 0.950 . S
H245 C231 0.950 . S
H246 C233 0.950 . S
H247 C234 0.951 . S
C248 C249 1.386 . S
C248 C250 1.383 . S
C248 H264 0.951 . S
C249 C248 1.386 . S
C249 C253 1.383 . S
C250 C248 1.383 . S
C250 C251 1.402 . S
C250 H265 0.951 . S
C251 C250 1.402 . S
C251 C252 1.375 . S
C251 C254 1.481 . S
C252 C251 1.375 . S
C252 C253 1.367 . S
C252 H266 0.951 . S
C253 C249 1.383 . S
C253 C252 1.367 . S
C253 H267 0.950 . S
C254 C251 1.481 . S
C254 C255 1.297 . S
C254 H268 0.950 . S
C255 C254 1.297 . S
C255 C256 1.479 . S
C255 H269 0.950 . S
C256 C255 1.479 . S
C256 C257 1.375 . S
C256 C262 1.404 . S
C257 C256 1.375 . S
C257 C258 1.369 . S
C257 H270 0.950 . S
C258 C257 1.369 . S
C258 C259 1.392 . S
C258 H271 0.951 . S
C259 C258 1.392 . S
C259 C261 1.384 . S
H260 C262 0.949 . S
C261 C259 1.384 . S
C261 C262 1.385 . S
C261 H263 0.950 . S
C262 C256 1.404 . S
C262 H260 0.949 . S
C262 C261 1.385 . S
H263 C261 0.950 . S
H264 C248 0.951 . S
H265 C250 0.951 . S
H266 C252 0.951 . S
H267 C253 0.950 . S
H268 C254 0.950 . S
H269 C255 0.950 . S
H270 C257 0.950 . S
H271 C258 0.951 . S
C272 C273 1.386 . S
C272 C274 1.383 . S
C272 H288 0.951 . S
C273 C272 1.386 . S
C273 C277 1.383 . S
C274 C272 1.383 . S
C274 C275 1.402 . S
C274 H289 0.951 . S
C275 C274 1.402 . S
C275 C276 1.375 . S
C275 C278 1.481 . S
C276 C275 1.375 . S
C276 C277 1.367 . S
C276 H290 0.951 . S
C277 C273 1.383 . S
C277 C276 1.367 . S
C277 H291 0.950 . S
C278 C275 1.481 . S
C278 C279 1.297 . S
C278 H292 0.950 . S
C279 C278 1.297 . S
C279 C280 1.479 . S
C279 H293 0.950 . S
C280 C279 1.479 . S
C280 C281 1.375 . S
C280 C286 1.404 . S
C281 C280 1.375 . S
C281 C282 1.369 . S
C281 H294 0.950 . S
C282 C281 1.369 . S
C282 C283 1.392 . S
C282 H295 0.951 . S
C283 C282 1.392 . S
C283 C285 1.384 . S
H284 C286 0.949 . S
C285 C283 1.384 . S
C285 C286 1.385 . S
C285 H287 0.950 . S
C286 C280 1.404 . S
C286 H284 0.949 . S
C286 C285 1.385 . S
H287 C285 0.950 . S
H288 C272 0.951 . S
H289 C274 0.951 . S
H290 C276 0.951 . S
H291 C277 0.950 . S
H292 C278 0.950 . S
H293 C279 0.950 . S
H294 C281 0.950 . S
H295 C282 0.951 . S
C296 C297 1.386 . S
C296 C298 1.383 . S
C296 H312 0.951 1_565 S
C297 C296 1.386 . S
C297 C301 1.383 . S
C298 C296 1.383 . S
C298 C299 1.402 . S
C298 H313 0.951 1_565 S
C299 C298 1.402 . S
C299 C300 1.375 . S
C299 C302 1.481 . S
C300 C299 1.375 . S
C300 C301 1.367 . S
C300 H314 0.951 . S
C301 C297 1.383 . S
C301 C300 1.367 . S
C301 H315 0.950 . S
C302 C299 1.481 . S
C302 C303 1.297 . S
C302 H316 0.950 . S
C303 C302 1.297 . S
C303 C304 1.479 1_565 S
C303 H317 0.950 1_565 S
C304 C303 1.479 1_545 S
C304 C305 1.375 . S
C304 C310 1.404 1_545 S
C305 C304 1.375 . S
C305 C306 1.369 . S
C305 H318 0.950 . S
C306 C305 1.369 . S
C306 C307 1.392 . S
C306 H319 0.951 . S
C307 C306 1.392 . S
C307 C309 1.384 . S
H308 C310 0.949 . S
C309 C307 1.384 . S
C309 C310 1.385 1_545 S
C309 H311 0.950 1_545 S
C310 C304 1.404 1_565 S
C310 H308 0.949 . S
C310 C309 1.385 1_565 S
H311 C309 0.950 1_565 S
H312 C296 0.951 1_545 S
H313 C298 0.951 1_545 S
H314 C300 0.951 . S
H315 C301 0.950 . S
H316 C302 0.950 . S
H317 C303 0.950 1_545 S
H318 C305 0.950 . S
H319 C306 0.951 . S
C320 C321 1.386 . S
C320 C322 1.383 . S
C320 H336 0.951 1_565 S
C321 C320 1.386 . S
C321 C325 1.383 . S
C322 C320 1.383 . S
C322 C323 1.402 . S
C322 H337 0.951 1_565 S
C323 C322 1.402 . S
C323 C324 1.375 . S
C323 C326 1.481 . S
C324 C323 1.375 . S
C324 C325 1.367 . S
C324 H338 0.951 . S
C325 C321 1.383 . S
C325 C324 1.367 . S
C325 H339 0.950 . S
C326 C323 1.481 . S
C326 C327 1.297 1_565 S
C326 H340 0.950 . S
C327 C326 1.297 1_545 S
C327 C328 1.479 . S
C327 H341 0.950 . S
C328 C327 1.479 . S
C328 C329 1.375 . S
C328 C334 1.404 1_545 S
C329 C328 1.375 . S
C329 C330 1.369 . S
C329 H342 0.950 . S
C330 C329 1.369 . S
C330 C331 1.392 . S
C330 H343 0.951 . S
C331 C330 1.392 . S
C331 C333 1.384 . S
H332 C334 0.949 . S
C333 C331 1.384 . S
C333 C334 1.385 1_545 S
C333 H335 0.950 1_545 S
C334 C328 1.404 1_565 S
C334 H332 0.949 . S
C334 C333 1.385 1_565 S
H335 C333 0.950 1_565 S
H336 C320 0.951 1_545 S
H337 C322 0.951 1_545 S
H338 C324 0.951 . S
H339 C325 0.950 . S
H340 C326 0.950 . S
H341 C327 0.950 . S
H342 C329 0.950 . S
H343 C330 0.951 . S
C344 C345 1.386 . S
C344 C346 1.383 . S
C344 H360 0.951 . S
C345 C344 1.386 . S
C345 C349 1.383 . S
C346 C344 1.383 . S
C346 C347 1.402 . S
C346 H361 0.951 . S
C347 C346 1.402 . S
C347 C348 1.375 1_565 S
C347 C350 1.481 1_565 S
C348 C347 1.375 1_545 S
C348 C349 1.367 1_545 S
C348 H362 0.951 . S
C349 C345 1.383 . S
C349 C348 1.367 1_565 S
C349 H363 0.950 1_565 S
C350 C347 1.481 1_545 S
C350 C351 1.297 . S
C350 H364 0.950 . S
C351 C350 1.297 . S
C351 C352 1.479 . S
C351 H365 0.950 1_545 S
C352 C351 1.479 . S
C352 C353 1.375 . S
C352 C358 1.404 . S
C353 C352 1.375 . S
C353 C354 1.369 . S
C353 H366 0.950 1_545 S
C354 C353 1.369 . S
C354 C355 1.392 . S
C354 H367 0.951 1_545 S
C355 C354 1.392 . S
C355 C357 1.384 . S
H356 C358 0.949 . S
C357 C355 1.384 . S
C357 C358 1.385 . S
C357 H359 0.950 . S
C358 C352 1.404 . S
C358 H356 0.949 . S
C358 C357 1.385 . S
H359 C357 0.950 . S
H360 C344 0.951 . S
H361 C346 0.951 . S
H362 C348 0.951 . S
H363 C349 0.950 1_545 S
H364 C350 0.950 . S
H365 C351 0.950 1_565 S
H366 C353 0.950 1_565 S
H367 C354 0.951 1_565 S
C368 C369 1.386 . S
C368 C370 1.383 . S
C368 H384 0.951 . S
C369 C368 1.386 . S
C369 C373 1.383 . S
C370 C368 1.383 . S
C370 C371 1.402 . S
C370 H385 0.951 . S
C371 C370 1.402 . S
C371 C372 1.374 1_565 S
C371 C374 1.481 1_565 S
C372 C371 1.374 1_545 S
C372 C373 1.364 1_545 S
C372 H386 0.954 . S
C373 C369 1.383 . S
C373 C372 1.364 1_565 S
C373 H387 0.950 . S
C374 C371 1.481 1_545 S
C374 C375 1.297 . S
C374 H388 0.950 . S
C375 C374 1.297 . S
C375 C376 1.479 . S
C375 H389 0.950 . S
C376 C375 1.479 . S
C376 C377 1.375 . S
C376 C382 1.404 . S
C377 C376 1.375 . S
C377 C378 1.369 . S
C377 H390 0.950 . S
C378 C377 1.369 . S
C378 C379 1.392 . S
C378 H391 0.951 . S
C379 C378 1.392 . S
C379 C381 1.384 . S
H380 C382 0.949 . S
C381 C379 1.384 . S
C381 C382 1.385 . S
C381 H383 0.950 . S
C382 C376 1.404 . S
C382 H380 0.949 . S
C382 C381 1.385 . S
H383 C381 0.950 . S
H384 C368 0.951 . S
H385 C370 0.951 . S
H386 C372 0.954 . S
H387 C373 0.950 . S
H388 C374 0.950 . S
H389 C375 0.950 . S
H390 C377 0.950 . S
H391 C378 0.951 . S
C392 C393 1.386 . S
C392 C394 1.383 . S
C392 H408 0.951 . S
C393 C392 1.386 . S
C393 C397 1.383 1_554 S
C394 C392 1.383 . S
C394 C395 1.402 1_554 S
C394 H409 0.951 . S
C395 C394 1.402 1_556 S
C395 C396 1.375 . S
C395 C398 1.481 1_565 S
C396 C395 1.375 . S
C396 C397 1.367 . S
C396 H410 0.951 1_565 S
C397 C393 1.383 1_556 S
C397 C396 1.367 . S
C397 H411 0.950 . S
C398 C395 1.481 1_545 S
C398 C399 1.297 1_545 S
C398 H412 0.950 . S
C399 C398 1.297 1_565 S
C399 C400 1.479 1_565 S
C399 H413 0.950 . S
C400 C399 1.479 1_545 S
C400 C401 1.375 . S
C400 C406 1.404 . S
C401 C400 1.375 . S
C401 C402 1.369 1_556 S
C401 H414 0.951 1_545 S
C402 C401 1.369 1_554 S
C402 C403 1.392 1_554 S
C402 H415 0.951 . S
C403 C402 1.392 1_556 S
C403 C405 1.384 . S
H404 C406 0.949 . S
C405 C403 1.384 . S
C405 C406 1.385 . S
C405 H407 0.950 . S
C406 C400 1.404 . S
C406 H404 0.949 . S
C406 C405 1.385 . S
H407 C405 0.950 . S
H408 C392 0.951 . S
H409 C394 0.951 . S
H410 C396 0.951 1_545 S
H411 C397 0.950 . S
H412 C398 0.950 . S
H413 C399 0.950 . S
H414 C401 0.951 1_565 S
H415 C402 0.951 . S
C416 C417 1.386 . S
C416 C418 1.383 . S
C416 H432 0.951 . S
C417 C416 1.386 . S
C417 C421 1.383 . S
C418 C416 1.383 . S
C418 C419 1.402 . S
C418 H433 0.951 . S
C419 C418 1.402 . S
C419 C420 1.375 . S
C419 C422 1.481 . S
C420 C419 1.375 . S
C420 C421 1.367 . S
C420 H434 0.951 . S
C421 C417 1.383 . S
C421 C420 1.367 . S
C421 H435 0.950 . S
C422 C419 1.481 . S
C422 C423 1.297 1_565 S
C422 H436 0.950 . S
C423 C422 1.297 1_545 S
C423 C424 1.479 . S
C423 H437 0.950 . S
C424 C423 1.479 . S
C424 C425 1.375 . S
C424 C430 1.404 . S
C425 C424 1.375 . S
C425 C426 1.369 . S
C425 H438 0.950 . S
C426 C425 1.369 . S
C426 C427 1.392 . S
C426 H439 0.951 . S
C427 C426 1.392 . S
C427 C429 1.384 . S
H428 C430 0.949 . S
C429 C427 1.384 . S
C429 C430 1.385 . S
C429 H431 0.950 . S
C430 C424 1.404 . S
C430 H428 0.949 . S
C430 C429 1.385 . S
H431 C429 0.950 . S
H432 C416 0.951 . S
H433 C418 0.951 . S
H434 C420 0.951 . S
H435 C421 0.950 . S
H436 C422 0.950 . S
H437 C423 0.950 . S
H438 C425 0.950 . S
H439 C426 0.951 . S
C440 C441 1.386 1_556 S
C440 C442 1.383 . S
C440 H456 0.951 . S
C441 C440 1.386 1_554 S
C441 C445 1.383 . S
C442 C440 1.383 . S
C442 C443 1.402 . S
C442 H457 0.951 . S
C443 C442 1.402 . S
C443 C444 1.375 1_556 S
C443 C446 1.481 . S
C444 C443 1.375 1_554 S
C444 C445 1.367 . S
C444 H458 0.951 . S
C445 C441 1.383 . S
C445 C444 1.367 . S
C445 H459 0.950 . S
C446 C443 1.481 . S
C446 C447 1.297 1_455 S
C446 H460 0.950 1_556 S
C447 C446 1.297 1_655 S
C447 C448 1.479 . S
C447 H461 0.950 . S
C448 C447 1.479 . S
C448 C449 1.375 . S
C448 C454 1.404 . S
C449 C448 1.375 . S
C449 C450 1.369 . S
C449 H462 0.950 . S
C450 C449 1.369 . S
C450 C451 1.393 . S
C450 H463 0.951 . S
C451 C450 1.393 . S
C451 C453 1.384 1_556 S
H452 C454 0.949 . S
C453 C451 1.384 1_554 S
C453 C454 1.382 1_554 S
C453 H455 0.955 . S
C454 C448 1.404 . S
C454 H452 0.949 . S
C454 C453 1.382 1_556 S
H455 C453 0.955 . S
H456 C440 0.951 . S
H457 C442 0.951 . S
H458 C444 0.951 . S
H459 C445 0.950 . S
H460 C446 0.950 1_554 S
H461 C447 0.950 . S
H462 C449 0.950 . S
H463 C450 0.951 . S
C464 C465 1.386 . S
C464 C466 1.383 . S
C464 H480 0.951 . S
C465 C464 1.386 . S
C465 C469 1.383 . S
C466 C464 1.383 . S
C466 C467 1.402 . S
C466 H481 0.951 . S
C467 C466 1.402 . S
C467 C468 1.375 . S
C467 C470 1.501 . S
C468 C467 1.375 . S
C468 C469 1.367 . S
C468 H482 0.951 . S
C469 C465 1.383 . S
C469 C468 1.367 . S
C469 H483 0.950 . S
C470 C467 1.501 . S
C470 C471 1.284 1_455 S
C470 H484 0.943 1_455 S
C471 C470 1.284 1_655 S
C471 C472 1.479 . S
C471 H485 0.950 . S
C472 C471 1.479 . S
C472 C473 1.375 . S
C472 C478 1.404 . S
C473 C472 1.375 . S
C473 C474 1.369 . S
C473 H486 0.950 . S
C474 C473 1.369 . S
C474 C475 1.392 . S
C474 H487 0.951 . S
C475 C474 1.392 . S
C475 C477 1.384 . S
H476 C478 0.949 . S
C477 C475 1.384 . S
C477 C478 1.385 . S
C477 H479 0.950 . S
C478 C472 1.404 . S
C478 H476 0.949 . S
C478 C477 1.385 . S
H479 C477 0.950 . S
H480 C464 0.951 . S
H481 C466 0.951 . S
H482 C468 0.951 . S
H483 C469 0.950 . S
H484 C470 0.943 1_655 S
H485 C471 0.950 . S
H486 C473 0.950 . S
H487 C474 0.951 . S
C105 C70 1.515 . S
C115 C5 1.514 . S
C129 C55 1.508 . S
C139 C16 1.493 . S
C153 C94 1.517 . S
C163 C31 1.513 . S
C177 C83 1.514 . S
C187 C42 1.513 . S
C201 C3 1.407 . S
C211 C29 1.383 . S
C225 C18 1.390 . S
C235 C44 1.401 . S
C249 C17 1.447 . S
C259 C43 1.444 . S
C273 C10 1.437 . S
C283 C36 1.427 . S
C297 C57 1.390 . S
C307 C81 1.401 . S
C321 C96 1.390 . S
C331 C68 1.400 . S
C345 C95 1.445 . S
C355 C75 1.440 . S
C369 C56 1.441 . S
C379 C88 1.434 . S
C393 C23 1.511 . S
C403 C4 1.505 1_556 S
C417 C30 1.508 . S
C427 C49 1.503 . S
C441 C62 1.510 . S
C451 C69 1.505 1_556 S
C465 C82 1.512 . S
C475 C101 1.500 . S
