# Generated by pormake.
# Topology umk, (4)-cn, num edge types: 1
# Building blocks:
#     Node 0, Type 0, BuildingBlock: NAHDIM_clean_sbu_0, # of connection points: 4
#     Node 1, Type 0, BuildingBlock: NAHDIM_clean_sbu_0, # of connection points: 4
#     Node 2, Type 0, BuildingBlock: NAHDIM_clean_sbu_0, # of connection points: 4
#     Node 3, Type 0, BuildingBlock: NAHDIM_clean_sbu_0, # of connection points: 4
#     Node 4, Type 0, BuildingBlock: NAHDIM_clean_sbu_0, # of connection points: 4
#     Node 5, Type 0, BuildingBlock: NAHDIM_clean_sbu_0, # of connection points: 4
#     Node 6, Type 0, BuildingBlock: NAHDIM_clean_sbu_0, # of connection points: 4
#     Node 7, Type 0, BuildingBlock: NAHDIM_clean_sbu_0, # of connection points: 4
#     Node 8, Type 0, BuildingBlock: NAHDIM_clean_sbu_0, # of connection points: 4
#     Node 9, Type 0, BuildingBlock: NAHDIM_clean_sbu_0, # of connection points: 4
#     Node 10, Type 0, BuildingBlock: NAHDIM_clean_sbu_0, # of connection points: 4
#     Node 11, Type 0, BuildingBlock: NAHDIM_clean_sbu_0, # of connection points: 4
#     Node 12, Type 0, BuildingBlock: NAHDIM_clean_sbu_0, # of connection points: 4
#     Node 13, Type 0, BuildingBlock: NAHDIM_clean_sbu_0, # of connection points: 4
#     Node 14, Type 0, BuildingBlock: NAHDIM_clean_sbu_0, # of connection points: 4
#     Node 15, Type 0, BuildingBlock: NAHDIM_clean_sbu_0, # of connection points: 4
#     Node 16, Type 0, BuildingBlock: NAHDIM_clean_sbu_0, # of connection points: 4
#     Node 17, Type 0, BuildingBlock: NAHDIM_clean_sbu_0, # of connection points: 4
#     Node 18, Type 0, BuildingBlock: NAHDIM_clean_sbu_0, # of connection points: 4
#     Node 19, Type 0, BuildingBlock: NAHDIM_clean_sbu_0, # of connection points: 4
#     Node 20, Type 0, BuildingBlock: NAHDIM_clean_sbu_0, # of connection points: 4
#     Node 21, Type 0, BuildingBlock: NAHDIM_clean_sbu_0, # of connection points: 4
#     Node 22, Type 0, BuildingBlock: NAHDIM_clean_sbu_0, # of connection points: 4
#     Node 23, Type 0, BuildingBlock: NAHDIM_clean_sbu_0, # of connection points: 4
#     Edge 24, Type (0, 0), BuildingBlock: MIFKUJ_clean_linker_0, # of connection points: 2
#     Edge 25, Type (0, 0), BuildingBlock: MIFKUJ_clean_linker_0, # of connection points: 2
#     Edge 26, Type (0, 0), BuildingBlock: MIFKUJ_clean_linker_0, # of connection points: 2
#     Edge 27, Type (0, 0), BuildingBlock: MIFKUJ_clean_linker_0, # of connection points: 2
#     Edge 28, Type (0, 0), BuildingBlock: MIFKUJ_clean_linker_0, # of connection points: 2
#     Edge 29, Type (0, 0), BuildingBlock: MIFKUJ_clean_linker_0, # of connection points: 2
#     Edge 30, Type (0, 0), BuildingBlock: MIFKUJ_clean_linker_0, # of connection points: 2
#     Edge 31, Type (0, 0), BuildingBlock: MIFKUJ_clean_linker_0, # of connection points: 2
#     Edge 32, Type (0, 0), BuildingBlock: MIFKUJ_clean_linker_0, # of connection points: 2
#     Edge 33, Type (0, 0), BuildingBlock: MIFKUJ_clean_linker_0, # of connection points: 2
#     Edge 34, Type (0, 0), BuildingBlock: MIFKUJ_clean_linker_0, # of connection points: 2
#     Edge 35, Type (0, 0), BuildingBlock: MIFKUJ_clean_linker_0, # of connection points: 2
#     Edge 36, Type (0, 0), BuildingBlock: MIFKUJ_clean_linker_0, # of connection points: 2
#     Edge 37, Type (0, 0), BuildingBlock: MIFKUJ_clean_linker_0, # of connection points: 2
#     Edge 38, Type (0, 0), BuildingBlock: MIFKUJ_clean_linker_0, # of connection points: 2
#     Edge 39, Type (0, 0), BuildingBlock: MIFKUJ_clean_linker_0, # of connection points: 2
#     Edge 40, Type (0, 0), BuildingBlock: MIFKUJ_clean_linker_0, # of connection points: 2
#     Edge 41, Type (0, 0), BuildingBlock: MIFKUJ_clean_linker_0, # of connection points: 2
#     Edge 42, Type (0, 0), BuildingBlock: MIFKUJ_clean_linker_0, # of connection points: 2
#     Edge 43, Type (0, 0), BuildingBlock: MIFKUJ_clean_linker_0, # of connection points: 2
#     Edge 44, Type (0, 0), BuildingBlock: MIFKUJ_clean_linker_0, # of connection points: 2
#     Edge 45, Type (0, 0), BuildingBlock: MIFKUJ_clean_linker_0, # of connection points: 2
#     Edge 46, Type (0, 0), BuildingBlock: MIFKUJ_clean_linker_0, # of connection points: 2
#     Edge 47, Type (0, 0), BuildingBlock: MIFKUJ_clean_linker_0, # of connection points: 2
#     Edge 48, Type (0, 0), BuildingBlock: MIFKUJ_clean_linker_0, # of connection points: 2
#     Edge 49, Type (0, 0), BuildingBlock: MIFKUJ_clean_linker_0, # of connection points: 2
#     Edge 50, Type (0, 0), BuildingBlock: MIFKUJ_clean_linker_0, # of connection points: 2
#     Edge 51, Type (0, 0), BuildingBlock: MIFKUJ_clean_linker_0, # of connection points: 2
#     Edge 52, Type (0, 0), BuildingBlock: MIFKUJ_clean_linker_0, # of connection points: 2
#     Edge 53, Type (0, 0), BuildingBlock: MIFKUJ_clean_linker_0, # of connection points: 2
#     Edge 54, Type (0, 0), BuildingBlock: MIFKUJ_clean_linker_0, # of connection points: 2
#     Edge 55, Type (0, 0), BuildingBlock: MIFKUJ_clean_linker_0, # of connection points: 2
#     Edge 56, Type (0, 0), BuildingBlock: MIFKUJ_clean_linker_0, # of connection points: 2
#     Edge 57, Type (0, 0), BuildingBlock: MIFKUJ_clean_linker_0, # of connection points: 2
#     Edge 58, Type (0, 0), BuildingBlock: MIFKUJ_clean_linker_0, # of connection points: 2
#     Edge 59, Type (0, 0), BuildingBlock: MIFKUJ_clean_linker_0, # of connection points: 2
#     Edge 60, Type (0, 0), BuildingBlock: MIFKUJ_clean_linker_0, # of connection points: 2
#     Edge 61, Type (0, 0), BuildingBlock: MIFKUJ_clean_linker_0, # of connection points: 2
#     Edge 62, Type (0, 0), BuildingBlock: MIFKUJ_clean_linker_0, # of connection points: 2
#     Edge 63, Type (0, 0), BuildingBlock: MIFKUJ_clean_linker_0, # of connection points: 2
#     Edge 64, Type (0, 0), BuildingBlock: MIFKUJ_clean_linker_0, # of connection points: 2
#     Edge 65, Type (0, 0), BuildingBlock: MIFKUJ_clean_linker_0, # of connection points: 2
#     Edge 66, Type (0, 0), BuildingBlock: MIFKUJ_clean_linker_0, # of connection points: 2
#     Edge 67, Type (0, 0), BuildingBlock: MIFKUJ_clean_linker_0, # of connection points: 2
#     Edge 68, Type (0, 0), BuildingBlock: MIFKUJ_clean_linker_0, # of connection points: 2
#     Edge 69, Type (0, 0), BuildingBlock: MIFKUJ_clean_linker_0, # of connection points: 2
#     Edge 70, Type (0, 0), BuildingBlock: MIFKUJ_clean_linker_0, # of connection points: 2
#     Edge 71, Type (0, 0), BuildingBlock: MIFKUJ_clean_linker_0, # of connection points: 2
# Relax obj value: 0.111
# Max RMSD: 0.129
# Mean RMSD: 0.129
data_MOF--net-umk--node1-NAHDIM_clean_sbu_0--edge1-MIFKUJ_clean_linker_0
_symmetry_space_group_name_H-M    P1
_symmetry_Int_Tables_number       1
_symmetry_cell_setting            triclinic
loop_
_symmetry_equiv_pos_as_xyz
'x, y, z'
_cell_length_a     86.05996
_cell_length_b     86.040365
_cell_length_c     54.481552
_cell_angle_alpha  90.00749
_cell_angle_beta   90.010428
_cell_angle_gamma 119.98034
loop_
_atom_site_label
_atom_site_type_symbol
_atom_site_fract_x
_atom_site_fract_y
_atom_site_fract_z
_atom_type_partial_charge
C0 C 0.28914 0.44188 0.06541 0.0
O1 O 0.28782 0.43695 0.08849 0.0
O2 O 0.32413 0.45739 0.10924 0.0
Zn3 Zn 0.32686 0.455 0.07308 0.0
O4 O 0.34742 0.47788 0.06018 0.0
C5 C 0.32343 0.42023 0.07883 0.0
O6 O 0.31061 0.41787 0.0941 0.0
O7 O 0.30445 0.44974 0.05519 0.0
C8 C 0.36269 0.48453 0.07043 0.0
O9 O 0.36466 0.47626 0.08942 0.0
C10 C 0.32583 0.47165 0.11872 0.0
O11 O 0.32934 0.48533 0.10447 0.0
O12 O 0.33209 0.43507 0.06752 0.0
C13 C 0.83711 0.2974 0.56369 0.0
O14 O 0.83405 0.3087 0.57611 0.0
O15 O 0.87293 0.32506 0.61003 0.0
Zn16 Zn 0.87357 0.32382 0.57327 0.0
O17 O 0.87187 0.34449 0.55895 0.0
C18 C 0.90375 0.31766 0.57376 0.0
O19 O 0.8954 0.3072 0.59253 0.0
O20 O 0.85316 0.30092 0.56062 0.0
C21 C 0.8856 0.35835 0.55063 0.0
O22 O 0.9013 0.35931 0.55158 0.0
C23 C 0.8868 0.33694 0.62114 0.0
O24 O 0.90102 0.34791 0.60826 0.0
O25 O 0.89666 0.32556 0.56271 0.0
C26 C 0.54952 0.84957 0.06249 0.0
O27 O 0.54958 0.84978 0.0866 0.0
O28 O 0.54046 0.87593 0.10378 0.0
Zn29 Zn 0.5427 0.87931 0.06717 0.0
O30 O 0.52038 0.87788 0.05334 0.0
C31 C 0.5792 0.90806 0.06778 0.0
O32 O 0.58157 0.89643 0.08048 0.0
O33 O 0.54682 0.86078 0.05081 0.0
C34 C 0.5147 0.888 0.06138 0.0
O35 O 0.52359 0.89945 0.07904 0.0
C36 C 0.5256 0.86587 0.11443 0.0
O37 O 0.51099 0.85697 0.10116 0.0
O38 O 0.5636 0.90361 0.06002 0.0
C39 C 0.70026 0.55439 0.56017 0.0
O40 O 0.69925 0.55452 0.58422 0.0
O41 O 0.66355 0.5445 0.59863 0.0
Zn42 Zn 0.66379 0.54783 0.56217 0.0
O43 O 0.64297 0.52595 0.54738 0.0
C44 C 0.67119 0.58404 0.56643 0.0
O45 O 0.68377 0.58525 0.58131 0.0
O46 O 0.68685 0.5518 0.54732 0.0
C47 C 0.6272 0.52324 0.55072 0.0
O48 O 0.625 0.53493 0.56354 0.0
C49 C 0.66106 0.52998 0.60822 0.0
O50 O 0.65874 0.51669 0.5939 0.0
O51 O 0.6611 0.56925 0.55565 0.0
C52 C 0.15028 0.7029 0.06581 0.0
O53 O 0.14803 0.70188 0.08972 0.0
O54 O 0.13066 0.66497 0.10383 0.0
Zn55 Zn 0.12561 0.66477 0.06788 0.0
O56 O 0.12872 0.64575 0.051 0.0
C57 C 0.09347 0.66617 0.07745 0.0
O58 O 0.10353 0.67781 0.09427 0.0
O59 O 0.14204 0.68877 0.05289 0.0
C60 C 0.12053 0.63906 0.03096 0.0
O61 O 0.11053 0.64507 0.02138 0.0
C62 C 0.12467 0.65039 0.11573 0.0
O63 O 0.11555 0.63506 0.10403 0.0
O64 O 0.10017 0.65903 0.06386 0.0
C65 C 0.46551 0.1549 0.55144 0.0
O66 O 0.48062 0.1554 0.55688 0.0
O67 O 0.455 0.12602 0.6103 0.0
Zn68 Zn 0.4515 0.12085 0.57415 0.0
O69 O 0.47171 0.11832 0.56024 0.0
C70 C 0.41474 0.0929 0.58182 0.0
O71 O 0.41504 0.10369 0.59912 0.0
O72 O 0.45074 0.14107 0.55708 0.0
C73 C 0.47697 0.10831 0.56992 0.0
O74 O 0.46902 0.09926 0.58989 0.0
C75 C 0.47033 0.13529 0.62017 0.0
O76 O 0.48478 0.14185 0.60641 0.0
O77 O 0.42862 0.09772 0.56871 0.0
C78 C 0.54897 0.70352 0.93636 0.0
O79 O 0.55167 0.70326 0.91267 0.0
O80 O 0.53498 0.6659 0.89696 0.0
Zn81 Zn 0.5371 0.66552 0.93364 0.0
O82 O 0.51405 0.64609 0.94802 0.0
C83 C 0.57189 0.66793 0.93245 0.0
O84 O 0.57594 0.68108 0.91691 0.0
O85 O 0.54296 0.6891 0.94865 0.0
C86 C 0.51454 0.64093 0.96971 0.0
O87 O 0.52981 0.64877 0.98176 0.0
C88 C 0.53115 0.65174 0.88502 0.0
O89 O 0.52832 0.63734 0.89711 0.0
O90 O 0.55633 0.65976 0.94187 0.0
C91 C 0.84561 0.54841 0.44243 0.0
O92 O 0.85085 0.55403 0.41991 0.0
O93 O 0.86541 0.53298 0.39973 0.0
Zn94 Zn 0.86844 0.53319 0.43624 0.0
O95 O 0.8642 0.50913 0.44736 0.0
C96 C 0.90075 0.56809 0.44423 0.0
O97 O 0.89072 0.57508 0.43846 0.0
O98 O 0.8515 0.53929 0.45322 0.0
C99 C 0.87581 0.50494 0.44085 0.0
O100 O 0.88917 0.51604 0.42675 0.0
C101 C 0.85108 0.52143 0.38918 0.0
O102 O 0.83789 0.50922 0.4025 0.0
O103 O 0.89388 0.55115 0.4446 0.0
C104 C 0.29095 0.84312 0.9302 0.0
O105 O 0.28916 0.84367 0.90632 0.0
O106 O 0.32417 0.85623 0.88458 0.0
Zn107 Zn 0.3284 0.86576 0.91905 0.0
O108 O 0.34929 0.86525 0.93459 0.0
C109 C 0.34278 0.90114 0.89954 0.0
O110 O 0.34724 0.89407 0.88141 0.0
O111 O 0.3065 0.8516 0.93968 0.0
C112 C 0.35562 0.87421 0.95422 0.0
O113 O 0.34808 0.88296 0.96344 0.0
C114 C 0.3318 0.84849 0.87451 0.0
O115 O 0.34293 0.84547 0.88738 0.0
O116 O 0.33427 0.89141 0.91779 0.0
C117 C 0.46766 0.30805 0.4435 0.0
O118 O 0.48268 0.32218 0.43644 0.0
O119 O 0.45596 0.33283 0.39477 0.0
Zn120 Zn 0.45372 0.33091 0.4314 0.0
O121 O 0.47489 0.35259 0.44631 0.0
C122 C 0.41633 0.321 0.42981 0.0
O123 O 0.4155 0.31029 0.41204 0.0
O124 O 0.45319 0.30858 0.44282 0.0
C125 C 0.47362 0.36581 0.45427 0.0
O126 O 0.45811 0.36525 0.45301 0.0
C127 C 0.45462 0.34521 0.38398 0.0
O128 O 0.45188 0.35641 0.39715 0.0
O129 O 0.43107 0.33039 0.44107 0.0
C130 C 0.15021 0.44684 0.9288 0.0
O131 O 0.15281 0.45092 0.90537 0.0
O132 O 0.12362 0.45524 0.8869 0.0
Zn133 Zn 0.11978 0.45252 0.92339 0.0
O134 O 0.12256 0.47533 0.93743 0.0
C135 C 0.0886 0.41788 0.91811 0.0
O136 O 0.09879 0.41597 0.90182 0.0
O137 O 0.13714 0.44673 0.93979 0.0
C138 C 0.11296 0.4815 0.92902 0.0
O139 O 0.10139 0.47271 0.91144 0.0
C140 C 0.13488 0.47002 0.87702 0.0
O141 O 0.14473 0.48398 0.89102 0.0
O142 O 0.09483 0.43253 0.92989 0.0
C143 C 0.69483 0.1498 0.43331 0.0
O144 O 0.69816 0.13964 0.41876 0.0
O145 O 0.65723 0.12719 0.3853 0.0
Zn146 Zn 0.65794 0.12432 0.42177 0.0
O147 O 0.63525 0.12116 0.43683 0.0
C148 C 0.66605 0.09569 0.41391 0.0
O149 O 0.67281 0.10395 0.39302 0.0
O150 O 0.6787 0.14587 0.43692 0.0
C151 C 0.63002 0.11323 0.45739 0.0
O152 O 0.63963 0.10727 0.46834 0.0
C153 C 0.64387 0.11507 0.37364 0.0
O154 O 0.63105 0.10165 0.38595 0.0
O155 O 0.65952 0.10224 0.42888 0.0
C156 C 0.69087 0.52996 0.93511 0.0
O157 O 0.67852 0.51433 0.9266 0.0
O158 O 0.66619 0.53794 0.88261 0.0
Zn159 Zn 0.66542 0.53984 0.91934 0.0
O160 O 0.64442 0.51756 0.93309 0.0
C161 C 0.6537 0.56144 0.94529 0.0
O162 O 0.64627 0.54755 0.9601 0.0
O163 O 0.68823 0.54321 0.93413 0.0
C164 C 0.62905 0.51069 0.92308 0.0
O165 O 0.62698 0.51822 0.90333 0.0
C166 C 0.66222 0.52349 0.87135 0.0
O167 O 0.65746 0.50878 0.88397 0.0
O168 O 0.66273 0.5612 0.92701 0.0
C169 C 0.15927 0.70357 0.42944 0.0
O170 O 0.16308 0.69749 0.40956 0.0
O171 O 0.12948 0.66923 0.38979 0.0
Zn172 Zn 0.12655 0.66991 0.42632 0.0
O173 O 0.13089 0.65151 0.44271 0.0
C174 C 0.08898 0.64803 0.43399 0.0
O175 O 0.09302 0.63544 0.42968 0.0
O176 O 0.14414 0.69411 0.43971 0.0
C177 C 0.12662 0.64753 0.46509 0.0
O178 O 0.11988 0.65596 0.47734 0.0
C179 C 0.12594 0.65477 0.37889 0.0
O180 O 0.12041 0.64004 0.3918 0.0
O181 O 0.10137 0.66436 0.43349 0.0
C182 C 0.46142 0.15582 0.95671 0.0
O183 O 0.47768 0.15875 0.95232 0.0
O184 O 0.45863 0.13659 0.89158 0.0
Zn185 Zn 0.45378 0.12665 0.9258 0.0
O186 O 0.47517 0.12623 0.93976 0.0
C187 C 0.43113 0.09219 0.90496 0.0
O188 O 0.44135 0.10024 0.88589 0.0
O189 O 0.44811 0.14219 0.94717 0.0
C190 C 0.48319 0.11908 0.92914 0.0
O191 O 0.47764 0.11166 0.90746 0.0
C192 C 0.47396 0.14663 0.88213 0.0
O193 O 0.48843 0.15208 0.8956 0.0
O194 O 0.43345 0.10107 0.92463 0.0
C195 C 0.29287 0.4438 0.43442 0.0
O196 O 0.29146 0.44036 0.41078 0.0
O197 O 0.32734 0.45754 0.39031 0.0
Zn198 Zn 0.33031 0.45535 0.42644 0.0
O199 O 0.35096 0.47825 0.43914 0.0
C200 C 0.32666 0.42022 0.42228 0.0
O201 O 0.31301 0.41695 0.40809 0.0
O202 O 0.30807 0.45014 0.44478 0.0
C203 C 0.36684 0.48254 0.43296 0.0
O204 O 0.36931 0.47199 0.41801 0.0
C205 C 0.32906 0.47183 0.38091 0.0
O206 O 0.33285 0.48558 0.3952 0.0
O207 O 0.33571 0.43558 0.43216 0.0
C208 C 0.83815 0.31305 0.9458 0.0
O209 O 0.83685 0.32691 0.93849 0.0
O210 O 0.87365 0.33771 0.89639 0.0
Zn211 Zn 0.8747 0.33642 0.93312 0.0
O212 O 0.87497 0.35782 0.94853 0.0
C213 C 0.90134 0.32574 0.9311 0.0
O214 O 0.89027 0.31435 0.91476 0.0
O215 O 0.85332 0.31394 0.9451 0.0
C216 C 0.88953 0.37163 0.95494 0.0
O217 O 0.90482 0.37207 0.95111 0.0
C218 C 0.88783 0.34787 0.88438 0.0
O219 O 0.90286 0.35787 0.89637 0.0
O220 O 0.89711 0.33613 0.94207 0.0
C221 C 0.53816 0.84124 0.43003 0.0
O222 O 0.52649 0.83855 0.41267 0.0
O223 O 0.54111 0.87504 0.38892 0.0
Zn224 Zn 0.54484 0.87718 0.42563 0.0
O225 O 0.52408 0.87683 0.44297 0.0
C226 C 0.57987 0.9082 0.4183 0.0
O227 O 0.57953 0.8998 0.398 0.0
O228 O 0.54789 0.85698 0.43847 0.0
C229 C 0.51762 0.88648 0.43572 0.0
O230 O 0.5243 0.89648 0.41605 0.0
C231 C 0.52595 0.8672 0.37823 0.0
O232 O 0.51122 0.85964 0.39146 0.0
O233 O 0.56673 0.9008 0.43309 0.0
C234 C 0.46421 0.3075 0.06566 0.0
O235 O 0.47924 0.31908 0.07651 0.0
O236 O 0.46073 0.3379 0.10954 0.0
Zn237 Zn 0.4569 0.33582 0.07314 0.0
O238 O 0.47866 0.35528 0.05624 0.0
C239 C 0.42111 0.32942 0.07739 0.0
O240 O 0.42005 0.31767 0.09368 0.0
O241 O 0.45224 0.31174 0.06196 0.0
C242 C 0.47779 0.35894 0.03387 0.0
O243 O 0.46256 0.34968 0.022 0.0
C244 C 0.46117 0.35107 0.12074 0.0
O245 O 0.45964 0.36322 0.10804 0.0
O246 O 0.43566 0.33862 0.06566 0.0
C247 C 0.15072 0.44836 0.56348 0.0
O248 O 0.1486 0.44669 0.58739 0.0
O249 O 0.12624 0.46042 0.60299 0.0
Zn250 Zn 0.12334 0.45843 0.56636 0.0
O251 O 0.12626 0.48143 0.55287 0.0
C252 C 0.0922 0.42368 0.57012 0.0
O253 O 0.10209 0.42163 0.58676 0.0
O254 O 0.14141 0.45321 0.55097 0.0
C255 C 0.11778 0.48836 0.56281 0.0
O256 O 0.10728 0.48023 0.58163 0.0
C257 C 0.13811 0.47451 0.61367 0.0
O258 O 0.14917 0.48846 0.60042 0.0
O259 O 0.09863 0.43845 0.55859 0.0
C260 C 0.68595 0.15699 0.04646 0.0
O261 O 0.67159 0.15773 0.05271 0.0
O262 O 0.66249 0.12301 0.09886 0.0
Zn263 Zn 0.66376 0.12107 0.06228 0.0
O264 O 0.64209 0.11974 0.04611 0.0
C265 C 0.67416 0.09366 0.06368 0.0
O266 O 0.68684 0.10471 0.0787 0.0
O267 O 0.68598 0.14234 0.04915 0.0
C268 C 0.63214 0.1249 0.05627 0.0
O269 O 0.63599 0.13165 0.07853 0.0
C270 C 0.64963 0.11027 0.11046 0.0
O271 O 0.63754 0.09629 0.09816 0.0
O272 O 0.66349 0.09823 0.05441 0.0
C273 C 0.53627 0.68767 0.53593 0.0
O274 O 0.52996 0.67274 0.52323 0.0
O275 O 0.53632 0.6657 0.60932 0.0
Zn276 Zn 0.53891 0.66556 0.57276 0.0
O277 O 0.51735 0.6438 0.55847 0.0
C278 C 0.57624 0.67506 0.57516 0.0
O279 O 0.57761 0.68745 0.59053 0.0
O280 O 0.54111 0.68793 0.55804 0.0
C281 C 0.51916 0.63349 0.54347 0.0
O282 O 0.53536 0.63696 0.53744 0.0
C283 C 0.53289 0.65165 0.62124 0.0
O284 O 0.5308 0.6375 0.60918 0.0
O285 O 0.56116 0.66455 0.56538 0.0
C286 C 0.84472 0.53551 0.04493 0.0
O287 O 0.84928 0.52384 0.03739 0.0
O288 O 0.868 0.54224 0.11727 0.0
Zn289 Zn 0.87206 0.54332 0.08097 0.0
O290 O 0.87222 0.52102 0.07032 0.0
C291 C 0.90351 0.57867 0.08564 0.0
O292 O 0.89508 0.58016 0.1048 0.0
O293 O 0.85269 0.54539 0.06332 0.0
C294 C 0.8865 0.52011 0.07113 0.0
O295 O 0.90125 0.53378 0.07982 0.0
C296 C 0.85358 0.52989 0.12664 0.0
O297 O 0.84118 0.51785 0.11218 0.0
O298 O 0.89599 0.56445 0.07279 0.0
C299 C 0.29898 0.85259 0.55932 0.0
O300 O 0.29641 0.85598 0.582 0.0
O301 O 0.33314 0.87237 0.60475 0.0
Zn302 Zn 0.33567 0.87949 0.56921 0.0
O303 O 0.35811 0.88169 0.55443 0.0
C304 C 0.32725 0.90742 0.57946 0.0
O305 O 0.31603 0.89577 0.59542 0.0
O306 O 0.31462 0.86107 0.55016 0.0
C307 C 0.37215 0.88537 0.56655 0.0
O308 O 0.3725 0.88793 0.59036 0.0
C309 C 0.33514 0.85962 0.61282 0.0
O310 O 0.33925 0.85044 0.59749 0.0
O311 O 0.33682 0.90324 0.56632 0.0
H312 H 0.31686 0.44514 0.15257 0.0
H313 H 0.31542 0.44731 0.19703 0.0
H314 H 0.33 0.50293 0.19042 0.0
H315 H 0.33164 0.50094 0.14572 0.0
H316 H 0.34943 0.49791 0.22571 0.0
H317 H 0.28767 0.47236 0.205 0.0
H318 H 0.25911 0.45122 0.18492 0.0
H319 H 0.25791 0.40732 0.22405 0.0
H320 H 0.28662 0.42816 0.24411 0.0
H321 H 0.33411 0.50095 0.35416 0.0
H322 H 0.33166 0.50281 0.30961 0.0
H323 H 0.3173 0.44726 0.30263 0.0
H324 H 0.31954 0.44522 0.34702 0.0
H325 H 0.29624 0.4552 0.27418 0.0
H326 H 0.35953 0.48035 0.29092 0.0
H327 H 0.38831 0.50131 0.31071 0.0
H328 H 0.38648 0.54599 0.27874 0.0
H329 H 0.35755 0.52527 0.25902 0.0
C330 C 0.31968 0.45783 0.1605 0.0
C331 C 0.32436 0.47288 0.1456 0.0
C332 C 0.31876 0.45902 0.18594 0.0
C333 C 0.3224 0.47522 0.19699 0.0
C334 C 0.32707 0.49028 0.18221 0.0
C335 C 0.32796 0.4891 0.1567 0.0
C336 C 0.32195 0.47647 0.22407 0.0
C337 C 0.33768 0.48883 0.23631 0.0
C338 C 0.30671 0.46442 0.23787 0.0
C339 C 0.28938 0.45182 0.22593 0.0
C340 C 0.28139 0.45818 0.20919 0.0
C341 C 0.26516 0.44625 0.19783 0.0
C342 C 0.25672 0.42794 0.20317 0.0
C343 C 0.26447 0.42151 0.21992 0.0
C344 C 0.28071 0.43338 0.23132 0.0
C345 C 0.33036 0.48911 0.34315 0.0
C346 C 0.32711 0.47297 0.35411 0.0
C347 C 0.32901 0.49022 0.31771 0.0
C348 C 0.32444 0.47521 0.30283 0.0
C349 C 0.32083 0.45899 0.31379 0.0
C350 C 0.3222 0.45788 0.33917 0.0
C351 C 0.32381 0.47638 0.27576 0.0
C352 C 0.30789 0.46446 0.26355 0.0
C353 C 0.33887 0.48883 0.26199 0.0
C354 C 0.35628 0.50128 0.27375 0.0
C355 C 0.3652 0.49465 0.28828 0.0
C356 C 0.38155 0.50648 0.29945 0.0
C357 C 0.38919 0.52497 0.29605 0.0
C358 C 0.38053 0.53166 0.2814 0.0
C359 C 0.36416 0.51989 0.27022 0.0
H360 H 0.40185 0.53412 0.30472 0.0
H361 H 0.24415 0.41872 0.19435 0.0
H362 H 0.85861 0.31934 0.65278 0.0
H363 H 0.85903 0.32196 0.6975 0.0
H364 H 0.9157 0.36029 0.69541 0.0
H365 H 0.91544 0.35777 0.65067 0.0
H366 H 0.90665 0.33406 0.73092 0.0
H367 H 0.88726 0.37495 0.70449 0.0
H368 H 0.86822 0.38397 0.68185 0.0
H369 H 0.82183 0.34455 0.7209 0.0
H370 H 0.84057 0.33511 0.74354 0.0
H371 H 0.91632 0.36562 0.85331 0.0
H372 H 0.91618 0.36414 0.80852 0.0
H373 H 0.85896 0.32803 0.80925 0.0
H374 H 0.85895 0.32951 0.85406 0.0
H375 H 0.86844 0.35339 0.77426 0.0
H376 H 0.8872 0.31246 0.80092 0.0
H377 H 0.90554 0.30238 0.82309 0.0
H378 H 0.95226 0.34034 0.7832 0.0
H379 H 0.93429 0.35099 0.76124 0.0
C380 C 0.87117 0.32833 0.66182 0.0
C381 C 0.88699 0.33839 0.64818 0.0
C382 C 0.87136 0.32985 0.68736 0.0
C383 C 0.88737 0.34143 0.6997 0.0
C384 C 0.90322 0.35131 0.68619 0.0
C385 C 0.90302 0.34989 0.66063 0.0
C386 C 0.88759 0.34313 0.72675 0.0
C387 C 0.89852 0.33855 0.74042 0.0
C388 C 0.87658 0.34851 0.73906 0.0
C389 C 0.86529 0.3542 0.72553 0.0
C390 C 0.87297 0.3681 0.7081 0.0
C391 C 0.86224 0.37331 0.6953 0.0
C392 C 0.84382 0.3648 0.69989 0.0
C393 C 0.8361 0.35111 0.71734 0.0
C394 C 0.84677 0.34583 0.73018 0.0
C395 C 0.90369 0.35741 0.84396 0.0
C396 C 0.88766 0.34762 0.85725 0.0
C397 C 0.90365 0.35654 0.81836 0.0
C398 C 0.88759 0.34583 0.80559 0.0
C399 C 0.8715 0.33636 0.81877 0.0
C400 C 0.87154 0.33719 0.84437 0.0
C401 C 0.88756 0.34436 0.7785 0.0
C402 C 0.87664 0.34896 0.7648 0.0
C403 C 0.8985 0.33888 0.76617 0.0
C404 C 0.90942 0.33267 0.77962 0.0
C405 C 0.90142 0.31883 0.79708 0.0
C406 C 0.91175 0.31298 0.8096 0.0
C407 C 0.93006 0.32073 0.80459 0.0
C408 C 0.93808 0.33436 0.78708 0.0
C409 C 0.92783 0.34033 0.77464 0.0
H410 H 0.93802 0.31614 0.81424 0.0
H411 H 0.83553 0.36886 0.68996 0.0
H412 H 0.49595 0.85107 0.34922 0.0
H413 H 0.49467 0.85009 0.30434 0.0
H414 H 0.55246 0.8806 0.30111 0.0
H415 H 0.55388 0.88184 0.34585 0.0
H416 H 0.5375 0.89335 0.26941 0.0
H417 H 0.52992 0.83561 0.29084 0.0
H418 H 0.51566 0.80634 0.31192 0.0
H419 H 0.46566 0.79158 0.27625 0.0
H420 H 0.47958 0.82088 0.25519 0.0
H421 H 0.5536 0.88054 0.14671 0.0
H422 H 0.55223 0.87984 0.19144 0.0
H423 H 0.49447 0.84845 0.18838 0.0
H424 H 0.49572 0.84879 0.14348 0.0
H425 H 0.50761 0.83597 0.22321 0.0
H426 H 0.51532 0.89316 0.20063 0.0
H427 H 0.52947 0.9224 0.17948 0.0
H428 H 0.57892 0.93828 0.21742 0.0
H429 H 0.56513 0.90902 0.23856 0.0
C430 C 0.50839 0.85756 0.33896 0.0
C431 C 0.52502 0.8665 0.35111 0.0
C432 C 0.50763 0.85692 0.31332 0.0
C433 C 0.52348 0.86513 0.29941 0.0
C434 C 0.54007 0.87417 0.3115 0.0
C435 C 0.54085 0.87482 0.33709 0.0
C436 C 0.52287 0.86453 0.27222 0.0
C437 C 0.53114 0.8808 0.2593 0.0
C438 C 0.51411 0.84816 0.25908 0.0
C439 C 0.50574 0.83051 0.27165 0.0
C440 C 0.51585 0.82618 0.28764 0.0
C441 C 0.50783 0.80958 0.29956 0.0
C442 C 0.48975 0.79713 0.29548 0.0
C443 C 0.47966 0.80124 0.27942 0.0
C444 C 0.48761 0.81784 0.26748 0.0
C445 C 0.54058 0.87344 0.15551 0.0
C446 C 0.52475 0.86482 0.14153 0.0
C447 C 0.53983 0.87311 0.1811 0.0
C448 C 0.52323 0.86436 0.19324 0.0
C449 C 0.50742 0.85534 0.17937 0.0
C450 C 0.50816 0.85558 0.15372 0.0
C451 C 0.52247 0.8648 0.2204 0.0
C452 C 0.5139 0.84852 0.23332 0.0
C453 C 0.53092 0.88117 0.23358 0.0
C454 C 0.53923 0.89884 0.22102 0.0
C455 C 0.52924 0.90284 0.20434 0.0
C456 C 0.5372 0.91943 0.19237 0.0
C457 C 0.55509 0.93218 0.19706 0.0
C458 C 0.56506 0.92838 0.21379 0.0
C459 C 0.55718 0.91181 0.22579 0.0
H460 H 0.56123 0.94501 0.18777 0.0
H461 H 0.48357 0.78428 0.30473 0.0
H462 H 0.66708 0.55029 0.84 0.0
H463 H 0.66634 0.54948 0.79522 0.0
H464 H 0.65692 0.49532 0.79639 0.0
H465 H 0.65764 0.49598 0.84136 0.0
H466 H 0.68273 0.51736 0.7618 0.0
H467 H 0.6228 0.5009 0.78522 0.0
H468 H 0.59966 0.50413 0.80757 0.0
H469 H 0.61687 0.55481 0.77235 0.0
H470 H 0.6403 0.55201 0.75004 0.0
H471 H 0.65787 0.5016 0.63505 0.0
H472 H 0.65774 0.49897 0.6798 0.0
H473 H 0.66404 0.55174 0.68706 0.0
H474 H 0.66404 0.55444 0.64248 0.0
H475 H 0.63844 0.52793 0.71754 0.0
H476 H 0.69917 0.54544 0.69589 0.0
H477 H 0.72299 0.54305 0.67408 0.0
H478 H 0.70489 0.49121 0.70617 0.0
H479 H 0.68078 0.49318 0.72791 0.0
C480 C 0.6649 0.5382 0.83078 0.0
C481 C 0.66233 0.52315 0.84423 0.0
C482 C 0.66444 0.53776 0.80519 0.0
C483 C 0.6614 0.52228 0.79257 0.0
C484 C 0.65924 0.50737 0.80586 0.0
C485 C 0.65959 0.50776 0.83152 0.0
C486 C 0.66027 0.5217 0.76546 0.0
C487 C 0.67287 0.51936 0.75207 0.0
C488 C 0.6476 0.52466 0.75289 0.0
C489 C 0.63341 0.52631 0.76611 0.0
C490 C 0.62174 0.5128 0.78237 0.0
C491 C 0.60856 0.51454 0.79501 0.0
C492 C 0.60682 0.52968 0.79142 0.0
C493 C 0.61824 0.54309 0.77513 0.0
C494 C 0.63146 0.54142 0.76245 0.0
C495 C 0.65923 0.51264 0.64618 0.0
C496 C 0.66099 0.52824 0.63522 0.0
C497 C 0.65921 0.51114 0.67173 0.0
C498 C 0.661 0.52522 0.68671 0.0
C499 C 0.66262 0.54072 0.67581 0.0
C500 C 0.66268 0.54225 0.65032 0.0
C501 C 0.66106 0.52384 0.7138 0.0
C502 C 0.64823 0.52579 0.72722 0.0
C503 C 0.67356 0.52059 0.72636 0.0
C504 C 0.68803 0.51937 0.71329 0.0
C505 C 0.70016 0.53346 0.69812 0.0
C506 C 0.71374 0.5322 0.6858 0.0
C507 C 0.71542 0.51696 0.68867 0.0
C508 C 0.70355 0.50298 0.70392 0.0
C509 C 0.68993 0.50417 0.71625 0.0
H510 H 0.72594 0.51602 0.67914 0.0
H511 H 0.59661 0.53101 0.80124 0.0
H512 H 0.11706 0.62572 0.34955 0.0
H513 H 0.11859 0.6251 0.30481 0.0
H514 H 0.14007 0.68237 0.30245 0.0
H515 H 0.13829 0.68308 0.34714 0.0
H516 H 0.11384 0.66587 0.26989 0.0
H517 H 0.16673 0.66387 0.29201 0.0
H518 H 0.18424 0.65243 0.31338 0.0
H519 H 0.15311 0.60129 0.27815 0.0
H520 H 0.13524 0.61236 0.25681 0.0
H521 H 0.14005 0.67978 0.14565 0.0
H522 H 0.14185 0.6803 0.19039 0.0
H523 H 0.11615 0.62255 0.19162 0.0
H524 H 0.11434 0.62187 0.14674 0.0
H525 H 0.14476 0.63909 0.2245 0.0
H526 H 0.0917 0.6412 0.2029 0.0
H527 H 0.07457 0.65292 0.18116 0.0
H528 H 0.10651 0.70426 0.21554 0.0
H529 H 0.12403 0.69292 0.23721 0.0
C530 C 0.1222 0.6382 0.33953 0.0
C531 C 0.12753 0.65445 0.3519 0.0
C532 C 0.12315 0.63783 0.31396 0.0
C533 C 0.1296 0.65372 0.30031 0.0
C534 C 0.13504 0.66996 0.31263 0.0
C535 C 0.13405 0.67034 0.33818 0.0
C536 C 0.13004 0.65332 0.27313 0.0
C537 C 0.12084 0.66026 0.25998 0.0
C538 C 0.13878 0.64558 0.26022 0.0
C539 C 0.14953 0.63889 0.273 0.0
C540 C 0.16352 0.65014 0.28898 0.0
C541 C 0.17353 0.64373 0.30105 0.0
C542 C 0.16976 0.62613 0.29718 0.0
C543 C 0.156 0.61491 0.28116 0.0
C544 C 0.14593 0.62125 0.26905 0.0
C545 C 0.1349 0.66718 0.15538 0.0
C546 C 0.12692 0.65076 0.14266 0.0
C547 C 0.13591 0.66751 0.18095 0.0
C548 C 0.12894 0.65145 0.19426 0.0
C549 C 0.12157 0.63508 0.18162 0.0
C550 C 0.12049 0.63472 0.15601 0.0
C551 C 0.12868 0.65175 0.2214 0.0
C552 C 0.13784 0.64474 0.23449 0.0
C553 C 0.11993 0.65945 0.2343 0.0
C554 C 0.10929 0.66626 0.22149 0.0
C555 C 0.09517 0.65503 0.20568 0.0
C556 C 0.08537 0.6616 0.19339 0.0
C557 C 0.08948 0.67934 0.19692 0.0
C558 C 0.10336 0.69053 0.2128 0.0
C559 C 0.11322 0.68403 0.2251 0.0
H560 H 0.08189 0.6844 0.18738 0.0
H561 H 0.17753 0.62119 0.30654 0.0
H562 H 0.44679 0.13985 0.85049 0.0
H563 H 0.44804 0.14094 0.8058 0.0
H564 H 0.50512 0.16141 0.80828 0.0
H565 H 0.50406 0.16058 0.85325 0.0
H566 H 0.4949 0.17705 0.77112 0.0
H567 H 0.47833 0.11808 0.80069 0.0
H568 H 0.46051 0.09074 0.82532 0.0
H569 H 0.4127 0.08069 0.78719 0.0
H570 H 0.43018 0.10816 0.76263 0.0
H571 H 0.50086 0.15148 0.64811 0.0
H572 H 0.50299 0.15587 0.69261 0.0
H573 H 0.44537 0.1309 0.69714 0.0
H574 H 0.44309 0.12612 0.65286 0.0
H575 H 0.45747 0.11789 0.73113 0.0
H576 H 0.47316 0.17678 0.70245 0.0
H577 H 0.49027 0.20453 0.67835 0.0
H578 H 0.53886 0.21493 0.71456 0.0
H579 H 0.52207 0.1871 0.73865 0.0
C580 C 0.45968 0.14484 0.8416 0.0
C581 C 0.4753 0.14989 0.8554 0.0
C582 C 0.46035 0.14544 0.81605 0.0
C583 C 0.4766 0.15091 0.80379 0.0
C584 C 0.49243 0.15706 0.81746 0.0
C585 C 0.49179 0.15655 0.84312 0.0
C586 C 0.47671 0.14887 0.77685 0.0
C587 C 0.48693 0.1641 0.76232 0.0
C588 C 0.46605 0.13198 0.76548 0.0
C589 C 0.45556 0.11527 0.77995 0.0
C590 C 0.464 0.11011 0.79767 0.0
C591 C 0.45396 0.09458 0.81161 0.0
C592 C 0.43549 0.084 0.80785 0.0
C593 C 0.42702 0.08891 0.7901 0.0
C594 C 0.43698 0.10445 0.77615 0.0
C595 C 0.48865 0.14698 0.65858 0.0
C596 C 0.4718 0.13844 0.64696 0.0
C597 C 0.4899 0.14958 0.68399 0.0
C598 C 0.47435 0.14386 0.69817 0.0
C599 C 0.45754 0.1354 0.68657 0.0
C600 C 0.45627 0.13271 0.66123 0.0
C601 C 0.47544 0.14613 0.7252 0.0
C602 C 0.46549 0.13087 0.73983 0.0
C603 C 0.48628 0.16299 0.73659 0.0
C604 C 0.49639 0.17975 0.72216 0.0
C605 C 0.48752 0.1849 0.70513 0.0
C606 C 0.49715 0.20066 0.6915 0.0
C607 C 0.51565 0.21146 0.69487 0.0
C608 C 0.52454 0.20654 0.71194 0.0
C609 C 0.51497 0.19078 0.7256 0.0
H610 H 0.52308 0.22366 0.6843 0.0
H611 H 0.42774 0.07197 0.81863 0.0
H612 H 0.5398 0.67954 0.6519 0.0
H613 H 0.53886 0.67923 0.69675 0.0
H614 H 0.52276 0.62304 0.69676 0.0
H615 H 0.52358 0.62317 0.65188 0.0
H616 H 0.50309 0.63075 0.72915 0.0
H617 H 0.56488 0.65296 0.70966 0.0
H618 H 0.59377 0.6727 0.68928 0.0
H619 H 0.59665 0.7186 0.72488 0.0
H620 H 0.56762 0.69915 0.74519 0.0
H621 H 0.52198 0.62335 0.85428 0.0
H622 H 0.52152 0.62333 0.80944 0.0
H623 H 0.53821 0.67967 0.80947 0.0
H624 H 0.53884 0.67987 0.85437 0.0
H625 H 0.55744 0.67181 0.77699 0.0
H626 H 0.49538 0.64905 0.79679 0.0
H627 H 0.46652 0.62892 0.81698 0.0
H628 H 0.46434 0.58353 0.78079 0.0
H629 H 0.49332 0.60338 0.76064 0.0
C630 C 0.536 0.66709 0.66142 0.0
C631 C 0.53182 0.65139 0.64833 0.0
C632 C 0.53553 0.66696 0.68704 0.0
C633 C 0.53091 0.65115 0.70004 0.0
C634 C 0.52638 0.63537 0.68704 0.0
C635 C 0.52692 0.6355 0.66141 0.0
C636 C 0.53097 0.65114 0.72722 0.0
C637 C 0.51502 0.63956 0.73964 0.0
C638 C 0.54647 0.66288 0.74083 0.0
C639 C 0.56398 0.67461 0.72875 0.0
C640 C 0.5716 0.66728 0.71299 0.0
C641 C 0.58801 0.67841 0.70147 0.0
C642 C 0.59702 0.69689 0.70574 0.0
C643 C 0.58965 0.70428 0.72157 0.0
C644 C 0.57322 0.6932 0.7331 0.0
C645 C 0.52549 0.63574 0.84478 0.0
C646 C 0.53041 0.65161 0.85789 0.0
C647 C 0.52516 0.63568 0.81915 0.0
C648 C 0.52968 0.65146 0.80615 0.0
C649 C 0.53465 0.66734 0.81917 0.0
C650 C 0.53494 0.66741 0.84482 0.0
C651 C 0.52954 0.65147 0.77895 0.0
C652 C 0.54549 0.66303 0.76652 0.0
C653 C 0.51406 0.63965 0.76534 0.0
C654 C 0.49661 0.62769 0.7774 0.0
C655 C 0.48882 0.63476 0.7933 0.0
C656 C 0.47243 0.6234 0.8047 0.0
C657 C 0.46363 0.60495 0.80022 0.0
C658 C 0.47118 0.59782 0.78427 0.0
C659 C 0.48759 0.60912 0.77284 0.0
H660 H 0.45093 0.59618 0.80906 0.0
H661 H 0.60973 0.70549 0.69681 0.0
H662 H 0.82263 0.49853 0.36042 0.0
H663 H 0.82011 0.49936 0.31574 0.0
H664 H 0.87298 0.54606 0.31243 0.0
H665 H 0.87555 0.54547 0.35696 0.0
H666 H 0.8495 0.54983 0.28353 0.0
H667 H 0.86633 0.50479 0.29833 0.0
H668 H 0.86289 0.477 0.31655 0.0
H669 H 0.81144 0.4464 0.28193 0.0
H670 H 0.81448 0.47406 0.26375 0.0
H671 H 0.87692 0.55234 0.16129 0.0
H672 H 0.87325 0.55019 0.20575 0.0
H673 H 0.82098 0.50317 0.19758 0.0
H674 H 0.82465 0.50506 0.15292 0.0
H675 H 0.84033 0.49827 0.23221 0.0
H676 H 0.82481 0.54302 0.21406 0.0
H677 H 0.82843 0.57079 0.19556 0.0
H678 H 0.87714 0.60195 0.23624 0.0
H679 H 0.87396 0.57434 0.25473 0.0
C680 C 0.83371 0.50899 0.35018 0.0
C681 C 0.84933 0.52189 0.36223 0.0
C682 C 0.83226 0.50942 0.32466 0.0
C683 C 0.84642 0.52269 0.31078 0.0
C684 C 0.86189 0.53572 0.32281 0.0
C685 C 0.86336 0.5353 0.34826 0.0
C686 C 0.84534 0.52299 0.28366 0.0
C687 C 0.84762 0.53862 0.27227 0.0
C688 C 0.84236 0.50814 0.26906 0.0
C689 C 0.84054 0.49151 0.27992 0.0
C690 C 0.85422 0.49215 0.29477 0.0
C691 C 0.85235 0.47642 0.30506 0.0
C692 C 0.83693 0.45995 0.30047 0.0
C693 C 0.82336 0.45917 0.28551 0.0
C694 C 0.82515 0.47487 0.2752 0.0
C695 C 0.86459 0.54158 0.1689 0.0
C696 C 0.85106 0.52887 0.15356 0.0
C697 C 0.86248 0.54043 0.19433 0.0
C698 C 0.84674 0.52666 0.20496 0.0
C699 C 0.8332 0.51394 0.18973 0.0
C700 C 0.83531 0.51506 0.16423 0.0
C701 C 0.84483 0.52525 0.23202 0.0
C702 C 0.84197 0.50941 0.24342 0.0
C703 C 0.84727 0.53991 0.24664 0.0
C704 C 0.8492 0.55658 0.23565 0.0
C705 C 0.83637 0.55578 0.21893 0.0
C706 C 0.83833 0.5715 0.20847 0.0
C707 C 0.85303 0.58812 0.21469 0.0
C708 C 0.86577 0.58906 0.23143 0.0
C709 C 0.86388 0.57338 0.24193 0.0
H710 H 0.85452 0.60028 0.20657 0.0
H711 H 0.83551 0.44779 0.30844 0.0
H712 H 0.34718 0.84035 0.63848 0.0
H713 H 0.34589 0.83561 0.6829 0.0
H714 H 0.31765 0.86498 0.69135 0.0
H715 H 0.31948 0.87029 0.64721 0.0
H716 H 0.34284 0.87608 0.72354 0.0
H717 H 0.29681 0.81782 0.69657 0.0
H718 H 0.28412 0.78974 0.67273 0.0
H719 H 0.3218 0.77717 0.70582 0.0
H720 H 0.33488 0.80532 0.72964 0.0
H721 H 0.31052 0.85418 0.84305 0.0
H722 H 0.31018 0.85261 0.79838 0.0
H723 H 0.34809 0.83373 0.80042 0.0
H724 H 0.34855 0.83524 0.84539 0.0
H725 H 0.31977 0.81674 0.76356 0.0
H726 H 0.36472 0.87539 0.79173 0.0
H727 H 0.37538 0.90274 0.81678 0.0
H728 H 0.33749 0.914 0.78142 0.0
H729 H 0.32639 0.88653 0.75646 0.0
C730 C 0.34059 0.84568 0.64982 0.0
C731 C 0.33348 0.85574 0.63939 0.0
C732 C 0.33979 0.84289 0.6752 0.0
C733 C 0.33154 0.84981 0.69049 0.0
C734 C 0.32415 0.85957 0.67997 0.0
C735 C 0.32518 0.86257 0.65471 0.0
C736 C 0.33119 0.84762 0.71756 0.0
C737 C 0.33759 0.86306 0.7322 0.0
C738 C 0.3248 0.8307 0.72897 0.0
C739 C 0.31695 0.81377 0.71468 0.0
C740 C 0.30249 0.80914 0.69861 0.0
C741 C 0.2952 0.7932 0.68513 0.0
C742 C 0.30218 0.7817 0.6877 0.0
C743 C 0.31643 0.7861 0.70381 0.0
C744 C 0.32377 0.80204 0.71732 0.0
C745 C 0.31861 0.84943 0.8341 0.0
C746 C 0.32977 0.84507 0.84777 0.0
C747 C 0.31837 0.84854 0.80856 0.0
C748 C 0.32929 0.84329 0.79619 0.0
C749 C 0.33961 0.83785 0.80972 0.0
C750 C 0.33989 0.83878 0.83538 0.0
C751 C 0.33105 0.84512 0.76921 0.0
C752 C 0.32504 0.82971 0.75471 0.0
C753 C 0.33763 0.86203 0.75784 0.0
C754 C 0.34463 0.87882 0.77236 0.0
C755 C 0.35859 0.88364 0.7894 0.0
C756 C 0.36471 0.89917 0.80358 0.0
C757 C 0.35709 0.91008 0.80073 0.0
C758 C 0.34337 0.90553 0.78362 0.0
C759 C 0.33717 0.88999 0.76944 0.0
H760 H 0.36183 0.92208 0.81175 0.0
H761 H 0.29652 0.76936 0.67725 0.0
H762 H 0.45906 0.32358 0.35143 0.0
H763 H 0.46146 0.32645 0.30684 0.0
H764 H 0.45614 0.37367 0.31075 0.0
H765 H 0.45345 0.37074 0.35542 0.0
H766 H 0.43565 0.3516 0.2748 0.0
H767 H 0.49681 0.3774 0.3002 0.0
H768 H 0.52245 0.37868 0.32223 0.0
H769 H 0.5154 0.33244 0.28261 0.0
H770 H 0.48954 0.33073 0.26059 0.0
H771 H 0.46061 0.37639 0.15047 0.0
H772 H 0.46093 0.37714 0.19534 0.0
H773 H 0.46439 0.32884 0.19711 0.0
H774 H 0.46429 0.32807 0.15228 0.0
H775 H 0.48686 0.35348 0.23026 0.0
H776 H 0.4248 0.327 0.20638 0.0
H777 H 0.39927 0.3259 0.18426 0.0
H778 H 0.40827 0.37383 0.2211 0.0
H779 H 0.43404 0.37536 0.24319 0.0
C780 C 0.45843 0.3346 0.34284 0.0
C781 C 0.45612 0.34697 0.35698 0.0
C782 C 0.45988 0.33627 0.31734 0.0
C783 C 0.45923 0.35042 0.30551 0.0
C784 C 0.45673 0.36268 0.31954 0.0
C785 C 0.45523 0.361 0.34506 0.0
C786 C 0.46088 0.35222 0.27845 0.0
C787 C 0.44699 0.35231 0.26508 0.0
C788 C 0.47553 0.35282 0.26577 0.0
C789 C 0.49113 0.35385 0.2789 0.0
C790 C 0.50064 0.36742 0.29632 0.0
C791 C 0.51523 0.36824 0.30878 0.0
C792 C 0.52053 0.35563 0.30386 0.0
C793 C 0.51127 0.34219 0.28642 0.0
C794 C 0.49665 0.34131 0.27392 0.0
C795 C 0.46155 0.36598 0.16039 0.0
C796 C 0.46232 0.35211 0.14782 0.0
C797 C 0.46167 0.36641 0.18603 0.0
C798 C 0.46246 0.35292 0.19951 0.0
C799 C 0.46374 0.33935 0.18702 0.0
C800 C 0.46362 0.33891 0.1614 0.0
C801 C 0.46156 0.35269 0.22666 0.0
C802 C 0.47559 0.35289 0.24002 0.0
C803 C 0.44706 0.35239 0.23934 0.0
C804 C 0.43147 0.3514 0.22624 0.0
C805 C 0.42142 0.33738 0.20963 0.0
C806 C 0.40689 0.33667 0.19711 0.0
C807 C 0.40218 0.34981 0.20122 0.0
C808 C 0.41196 0.36367 0.21791 0.0
C809 C 0.42652 0.36446 0.23044 0.0
H810 H 0.39093 0.34924 0.19151 0.0
H811 H 0.53183 0.35628 0.31353 0.0
H812 H 0.11872 0.44725 0.64576 0.0
H813 H 0.11963 0.44843 0.69046 0.0
H814 H 0.16036 0.50437 0.68781 0.0
H815 H 0.15976 0.50325 0.64287 0.0
H816 H 0.16795 0.48643 0.72226 0.0
H817 H 0.11749 0.4926 0.70069 0.0
H818 H 0.08914 0.48477 0.67963 0.0
H819 H 0.063 0.43371 0.71612 0.0
H820 H 0.09128 0.44114 0.73713 0.0
H821 H 0.15695 0.49967 0.84964 0.0
H822 H 0.15883 0.50208 0.80485 0.0
H823 H 0.11852 0.44617 0.79862 0.0
H824 H 0.1164 0.44368 0.84325 0.0
H825 H 0.11153 0.46683 0.76864 0.0
H826 H 0.16261 0.46027 0.7885 0.0
H827 H 0.19106 0.46824 0.80938 0.0
H828 H 0.21605 0.52048 0.77623 0.0
H829 H 0.18766 0.5129 0.75539 0.0
C830 C 0.1279 0.45983 0.65463 0.0
C831 C 0.13909 0.4752 0.64076 0.0
C832 C 0.12835 0.46048 0.6802 0.0
C833 C 0.13985 0.47656 0.69244 0.0
C834 C 0.15134 0.49185 0.6787 0.0
C835 C 0.15095 0.49119 0.65304 0.0
C836 C 0.1397 0.4773 0.7196 0.0
C837 C 0.15568 0.48244 0.73243 0.0
C838 C 0.12363 0.47185 0.73282 0.0
C839 C 0.10655 0.46738 0.72034 0.0
C840 C 0.10573 0.47965 0.70409 0.0
C841 C 0.08967 0.47529 0.69218 0.0
C842 C 0.07429 0.45874 0.69649 0.0
C843 C 0.07493 0.44653 0.71278 0.0
C844 C 0.09097 0.45081 0.72472 0.0
C845 C 0.14854 0.48787 0.83873 0.0
C846 C 0.13653 0.47148 0.85 0.0
C847 C 0.14967 0.48927 0.81315 0.0
C848 C 0.13889 0.47427 0.79844 0.0
C849 C 0.12694 0.45791 0.80965 0.0
C850 C 0.12579 0.4565 0.83517 0.0
C851 C 0.1397 0.47562 0.77132 0.0
C852 C 0.12383 0.47094 0.75848 0.0
C853 C 0.15588 0.48154 0.75815 0.0
C854 C 0.17296 0.48609 0.77061 0.0
C855 C 0.17413 0.47351 0.78582 0.0
C856 C 0.19025 0.47794 0.79762 0.0
C857 C 0.20534 0.49487 0.79419 0.0
C858 C 0.20435 0.50739 0.7789 0.0
C859 C 0.18825 0.50302 0.76708 0.0
H860 H 0.21781 0.49828 0.80334 0.0
H861 H 0.06186 0.45539 0.68725 0.0
H862 H 0.66897 0.13987 0.34254 0.0
H863 H 0.66859 0.13947 0.29769 0.0
H864 H 0.61712 0.09082 0.29855 0.0
H865 H 0.6175 0.09097 0.3434 0.0
H866 H 0.63967 0.08812 0.26742 0.0
H867 H 0.62069 0.13089 0.28306 0.0
H868 H 0.62242 0.15794 0.30131 0.0
H869 H 0.67283 0.19099 0.26529 0.0
H870 H 0.67153 0.1641 0.24709 0.0
H871 H 0.62238 0.08679 0.14016 0.0
H872 H 0.62025 0.08819 0.18473 0.0
H873 H 0.67154 0.13704 0.18633 0.0
H874 H 0.6736 0.13595 0.14168 0.0
H875 H 0.64812 0.13945 0.21618 0.0
H876 H 0.66738 0.09655 0.20145 0.0
H877 H 0.66548 0.06954 0.1829 0.0
H878 H 0.61439 0.03665 0.21742 0.0
H879 H 0.61586 0.06356 0.23584 0.0
C880 C 0.6575 0.12915 0.3332 0.0
C881 C 0.64326 0.11545 0.34653 0.0
C882 C 0.65728 0.12899 0.30756 0.0
C883 C 0.64276 0.1152 0.29479 0.0
C884 C 0.62846 0.10159 0.30806 0.0
C885 C 0.62867 0.10173 0.33369 0.0
C886 C 0.64281 0.11459 0.2676 0.0
C887 C 0.64123 0.09923 0.2562 0.0
C888 C 0.64528 0.12926 0.25301 0.0
C889 C 0.64609 0.14546 0.2639 0.0
C890 C 0.63221 0.14391 0.27919 0.0
C891 C 0.63311 0.15922 0.28949 0.0
C892 C 0.64775 0.17617 0.28451 0.0
C893 C 0.66151 0.17785 0.26916 0.0
C894 C 0.66069 0.16258 0.25882 0.0
C895 C 0.63321 0.09785 0.14998 0.0
C896 C 0.64822 0.11121 0.1374 0.0
C897 C 0.63198 0.09861 0.17546 0.0
C898 C 0.64585 0.1126 0.18888 0.0
C899 C 0.6607 0.12612 0.17633 0.0
C900 C 0.66189 0.12544 0.15082 0.0
C901 C 0.64501 0.11301 0.21603 0.0
C902 C 0.64648 0.12832 0.22742 0.0
C903 C 0.64245 0.0983 0.23064 0.0
C904 C 0.64165 0.08209 0.21983 0.0
C905 C 0.65569 0.08357 0.20495 0.0
C906 C 0.65469 0.06827 0.19447 0.0
C907 C 0.6398 0.05137 0.19894 0.0
C908 C 0.6259 0.04975 0.21395 0.0
C909 C 0.62681 0.06502 0.22442 0.0
H910 H 0.63903 0.03953 0.19082 0.0
H911 H 0.64841 0.188 0.29251 0.0
H912 H 0.14652 0.43431 0.9757 0.0
H913 H 0.16798 0.42968 -0.00067 0.0
H914 H 0.20378 0.44657 0.93713 0.0
H915 H 0.18218 0.45084 0.91314 0.0
H916 H 0.203 0.41851 0.95972 0.0
H917 H 0.20991 0.47548 0.98413 0.0
H918 H 0.19966 0.49579 -0.00042 0.0
H919 H 0.18245 0.46589 0.06684 0.0
H920 H 0.19239 0.44525 0.05165 0.0
H921 H 0.28706 0.4482 0.01679 0.0
H922 H 0.26105 0.44493 0.9944 0.0
H923 H 0.22899 0.42571 0.06011 0.0
H924 H 0.25505 0.42904 0.08281 0.0
H925 H 0.22586 0.45228 0.03766 0.0
H926 H 0.22202 0.39699 0.01416 0.0
H927 H 0.2331 0.37745 0.99838 0.0
H928 H 0.24543 0.40487 0.92911 0.0
H929 H 0.23467 0.42476 0.94459 0.0
C930 C 0.15891 0.43695 0.96699 0.0
C931 C 0.16275 0.44311 0.94262 0.0
C932 C 0.17117 0.43432 0.98054 0.0
C933 C 0.18758 0.43806 0.9701 0.0
C934 C 0.19119 0.44364 0.94554 0.0
C935 C 0.17887 0.44614 0.93189 0.0
C936 C 0.20129 0.43682 0.98504 0.0
C937 C 0.20812 0.42599 0.97666 0.0
C938 C 0.20763 0.44627 0.00745 0.0
C939 C 0.20171 0.45871 0.01665 0.0
C940 C 0.20382 0.47316 0.00214 0.0
C941 C 0.19808 0.48474 0.01086 0.0
C942 C 0.19036 0.4821 0.03415 0.0
C943 C 0.1884 0.4679 0.04879 0.0
C944 C 0.19409 0.45626 0.04014 0.0
C945 C 0.27445 0.44315 0.02648 0.0
C946 C 0.27312 0.43893 0.0516 0.0
C947 C 0.25957 0.44118 0.0136 0.0
C948 C 0.24307 0.43492 0.02556 0.0
C949 C 0.24162 0.4305 0.05056 0.0
C950 C 0.2565 0.43239 0.06347 0.0
C951 C 0.22771 0.43411 0.01223 0.0
C952 C 0.2206 0.4446 0.02089 0.0
C953 C 0.22121 0.42444 0.99003 0.0
C954 C 0.22766 0.41247 0.98062 0.0
C955 C 0.22723 0.39896 0.99563 0.0
C956 C 0.23343 0.38779 0.98672 0.0
C957 C 0.24 0.38994 0.96277 0.0
C958 C 0.24035 0.40323 0.94766 0.0
C959 C 0.23418 0.41444 0.95648 0.0
H960 H 0.24479 0.38128 0.95591 0.0
H961 H 0.18593 0.49109 0.04087 0.0
H962 H 0.73078 0.16146 0.43111 0.0
H963 H 0.75491 0.1865 0.4536 0.0
H964 H 0.71636 0.19795 0.48725 0.0
H965 H 0.6922 0.17314 0.46466 0.0
H966 H 0.74582 0.22827 0.4719 0.0
H967 H 0.73311 0.17585 0.5189 0.0
H968 H 0.729 0.14564 0.5253 0.0
H969 H 0.7833 0.16448 0.50254 0.0
H970 H 0.78767 0.19476 0.49568 0.0
H971 H 0.8012 0.28579 0.56635 0.0
H972 H 0.77686 0.26036 0.54475 0.0
H973 H 0.81503 0.2478 0.51237 0.0
H974 H 0.83937 0.27295 0.53421 0.0
H975 H 0.78567 0.218 0.52715 0.0
H976 H 0.79856 0.2702 0.47984 0.0
H977 H 0.80298 0.30049 0.47313 0.0
H978 H 0.74877 0.28224 0.49581 0.0
H979 H 0.7441 0.25187 0.50298 0.0
C980 C 0.72744 0.16934 0.44323 0.0
C981 C 0.70957 0.16526 0.44619 0.0
C982 C 0.74123 0.18359 0.45613 0.0
C983 C 0.73737 0.19392 0.4723 0.0
C984 C 0.7196 0.19012 0.47489 0.0
C985 C 0.70582 0.1759 0.46201 0.0
C986 C 0.75182 0.20864 0.48669 0.0
C987 C 0.7544 0.226 0.48422 0.0
C988 C 0.76323 0.2057 0.50233 0.0
C989 C 0.76066 0.18752 0.50655 0.0
C990 C 0.74413 0.17352 0.51508 0.0
C991 C 0.74176 0.15639 0.51882 0.0
C992 C 0.75586 0.15313 0.51426 0.0
C993 C 0.77238 0.16702 0.50602 0.0
C994 C 0.77482 0.18417 0.50223 0.0
C995 C 0.8044 0.27755 0.55476 0.0
C996 C 0.82222 0.28145 0.55187 0.0
C997 C 0.79049 0.26308 0.54234 0.0
C998 C 0.79419 0.25237 0.52667 0.0
C999 C 0.8119 0.25593 0.52433 0.0
C1000 C 0.82579 0.27033 0.53679 0.0
C1001 C 0.77968 0.23764 0.51237 0.0
C1002 C 0.77709 0.22027 0.51484 0.0
C1003 C 0.76831 0.24059 0.49666 0.0
C1004 C 0.77104 0.25881 0.49218 0.0
C1005 C 0.78762 0.27267 0.48356 0.0
C1006 C 0.79016 0.28985 0.47965 0.0
C1007 C 0.77618 0.2933 0.4841 0.0
C1008 C 0.7596 0.27955 0.4924 0.0
C1009 C 0.75699 0.26235 0.49637 0.0
H1010 H 0.77818 0.30661 0.48107 0.0
H1011 H 0.754 0.13986 0.51717 0.0
H1012 H 0.55094 0.82081 0.08117 0.0
H1013 H 0.55399 0.79803 0.05838 0.0
H1014 H 0.55749 0.82548 0.99053 0.0
H1015 H 0.554 0.84805 0.01311 0.0
H1016 H 0.53498 0.79115 0.98564 0.0
H1017 H 0.59462 0.82619 0.01631 0.0
H1018 H 0.61822 0.84198 0.0474 0.0
H1019 H 0.60133 0.7923 0.08526 0.0
H1020 H 0.57746 0.77622 0.05457 0.0
H1021 H 0.55722 0.73551 0.91494 0.0
H1022 H 0.56045 0.76237 0.93522 0.0
H1023 H 0.5509 0.736 0.00546 0.0
H1024 H 0.54771 0.70917 0.98543 0.0
H1025 H 0.57852 0.77141 0.00689 0.0
H1026 H 0.51744 0.73723 0.97733 0.0
H1027 H 0.49413 0.72174 0.94577 0.0
H1028 H 0.5147 0.77082 0.90498 0.0
H1029 H 0.53829 0.78655 0.93616 0.0
C1030 C 0.55248 0.82206 0.06141 0.0
C1031 C 0.55218 0.83621 0.04894 0.0
C1032 C 0.55433 0.80908 0.04842 0.0
C1033 C 0.55618 0.81016 0.02276 0.0
C1034 C 0.55609 0.82439 0.01031 0.0
C1035 C 0.5541 0.83729 0.02326 0.0
C1036 C 0.55727 0.79595 0.00879 0.0
C1037 C 0.54474 0.78708 0.99 0.0
C1038 C 0.56979 0.79041 0.01475 0.0
C1039 C 0.58415 0.80002 0.03324 0.0
C1040 C 0.59585 0.81864 0.03137 0.0
C1041 C 0.60929 0.82765 0.0489 0.0
C1042 C 0.61125 0.81816 0.06832 0.0
C1043 C 0.59979 0.79963 0.07022 0.0
C1044 C 0.58631 0.79057 0.05274 0.0
C1045 C 0.55595 0.73548 0.93472 0.0
C1046 C 0.55206 0.72017 0.94856 0.0
C1047 C 0.55777 0.75081 0.94625 0.0
C1048 C 0.55575 0.75107 0.97179 0.0
C1049 C 0.5525 0.73605 0.98572 0.0
C1050 C 0.55059 0.7207 0.97422 0.0
C1051 C 0.55618 0.76664 0.98397 0.0
C1052 C 0.56895 0.77569 0.00241 0.0
C1053 C 0.54396 0.77244 0.97762 0.0
C1054 C 0.52974 0.76301 0.95893 0.0
C1055 C 0.51708 0.74468 0.96153 0.0
C1056 C 0.5038 0.73587 0.94373 0.0
C1057 C 0.50297 0.74528 0.92334 0.0
C1058 C 0.51538 0.76354 0.92075 0.0
C1059 C 0.5287 0.77242 0.93849 0.0
H1060 H 0.49268 0.73843 0.90958 0.0
H1061 H 0.62166 0.82515 0.08188 0.0
H1062 H 0.72801 0.55239 0.5812 0.0
H1063 H 0.75421 0.55448 0.56071 0.0
H1064 H 0.73594 0.56407 0.49158 0.0
H1065 H 0.70938 0.56136 0.51183 0.0
H1066 H 0.7455 0.54032 0.48543 0.0
H1067 H 0.77266 0.59788 0.52363 0.0
H1068 H 0.78034 0.61962 0.55738 0.0
H1069 H 0.80695 0.59586 0.59562 0.0
H1070 H 0.79921 0.57381 0.56224 0.0
H1071 H 0.82596 0.56208 0.42209 0.0
H1072 H 0.80277 0.56618 0.44197 0.0
H1073 H 0.81227 0.54698 0.51028 0.0
H1074 H 0.83544 0.54278 0.49058 0.0
H1075 H 0.80801 0.57752 0.51531 0.0
H1076 H 0.77865 0.51884 0.47708 0.0
H1077 H 0.77128 0.49794 0.44232 0.0
H1078 H 0.74914 0.52556 0.40279 0.0
H1079 H 0.75663 0.54679 0.4372 0.0
C1080 C 0.72964 0.55508 0.56167 0.0
C1081 C 0.71662 0.55667 0.5481 0.0
C1082 C 0.74469 0.55639 0.55 0.0
C1083 C 0.74718 0.55966 0.52464 0.0
C1084 C 0.73431 0.56153 0.51115 0.0
C1085 C 0.71914 0.56 0.52275 0.0
C1086 C 0.76265 0.56012 0.51196 0.0
C1087 C 0.75919 0.54873 0.49173 0.0
C1088 C 0.7805 0.57083 0.5204 0.0
C1089 C 0.78521 0.58409 0.54051 0.0
C1090 C 0.78003 0.5972 0.53932 0.0
C1091 C 0.78441 0.6096 0.55837 0.0
C1092 C 0.79409 0.60909 0.57866 0.0
C1093 C 0.79944 0.59622 0.5799 0.0
C1094 C 0.79507 0.58379 0.56091 0.0
C1095 C 0.82323 0.55887 0.44139 0.0
C1096 C 0.83242 0.55197 0.45473 0.0
C1097 C 0.80998 0.56121 0.45269 0.0
C1098 C 0.80577 0.55676 0.47751 0.0
C1099 C 0.81536 0.55049 0.4911 0.0
C1100 C 0.82851 0.54801 0.47978 0.0
C1101 C 0.79075 0.55774 0.489 0.0
C1102 C 0.7943 0.56932 0.50898 0.0
C1103 C 0.77299 0.54736 0.4802 0.0
C1104 C 0.76838 0.53452 0.45959 0.0
C1105 C 0.77235 0.52055 0.46089 0.0
C1106 C 0.76813 0.50862 0.44127 0.0
C1107 C 0.7598 0.51045 0.42033 0.0
C1108 C 0.75562 0.52418 0.419 0.0
C1109 C 0.75984 0.53615 0.43856 0.0
H1110 H 0.75654 0.5012 0.40516 0.0
H1111 H 0.79747 0.6187 0.59339 0.0
H1112 H 0.28891 0.84357 0.98016 0.0
H1113 H 0.26366 0.82341 0.00611 0.0
H1114 H 0.2325 0.79688 0.94161 0.0
H1115 H 0.25751 0.81739 0.91552 0.0
H1116 H 0.21176 0.79957 0.97536 0.0
H1117 H 0.25553 0.78012 0.97387 0.0
H1118 H 0.28557 0.78361 0.97914 0.0
H1119 H 0.28517 0.79594 0.05544 0.0
H1120 H 0.2552 0.79276 0.05053 0.0
H1121 H 0.15391 0.71081 0.01695 0.0
H1122 H 0.17642 0.73847 0.99725 0.0
H1123 H 0.198 0.76146 0.06815 0.0
H1124 H 0.17542 0.7338 0.0881 0.0
H1125 H 0.22353 0.76327 0.03535 0.0
H1126 H 0.17704 0.7781 0.03686 0.0
H1127 H 0.14655 0.77319 0.03043 0.0
H1128 H 0.15143 0.76788 0.95287 0.0
H1129 H 0.18187 0.7725 0.95885 0.0
C1130 C 0.27662 0.83355 0.9715 0.0
C1131 C 0.27525 0.8319 0.94581 0.0
C1132 C 0.26222 0.82203 0.98635 0.0
C1133 C 0.24633 0.80843 0.9758 0.0
C1134 C 0.24466 0.80726 0.95014 0.0
C1135 C 0.25899 0.81894 0.93525 0.0
C1136 C 0.23185 0.79474 0.99138 0.0
C1137 C 0.2143 0.79156 0.98838 0.0
C1138 C 0.23525 0.78456 0.00877 0.0
C1139 C 0.25323 0.78641 0.01177 0.0
C1140 C 0.26191 0.78371 0.99173 0.0
C1141 C 0.27891 0.78561 0.99465 0.0
C1142 C 0.2873 0.79005 0.01759 0.0
C1143 C 0.27868 0.79254 0.03767 0.0
C1144 C 0.26168 0.79068 0.03483 0.0
C1145 C 0.16332 0.72181 0.02838 0.0
C1146 C 0.16297 0.72011 0.05406 0.0
C1147 C 0.17608 0.73765 0.0171 0.0
C1148 C 0.18876 0.75201 0.03128 0.0
C1149 C 0.18825 0.75051 0.05694 0.0
C1150 C 0.17535 0.73473 0.06828 0.0
C1151 C 0.20342 0.76793 0.01907 0.0
C1152 C 0.22102 0.77149 0.02265 0.0
C1153 C 0.2 0.77827 0.00205 0.0
C1154 C 0.1817 0.77552 0.99834 0.0
C1155 C 0.17156 0.77574 0.01845 0.0
C1156 C 0.1543 0.77304 0.01488 0.0
C1157 C 0.14705 0.77019 0.99126 0.0
C1158 C 0.15706 0.77008 0.97115 0.0
C1159 C 0.17434 0.77277 0.97462 0.0
H1160 H 0.13368 0.7681 0.98854 0.0
H1161 H 0.30047 0.79151 0.01982 0.0
H1162 H 0.49475 0.18592 0.53605 0.0
H1163 H 0.49518 0.21162 0.51638 0.0
H1164 H 0.43739 0.18465 0.51964 0.0
H1165 H 0.4368 0.15872 0.53901 0.0
H1166 H 0.44971 0.20045 0.47565 0.0
H1167 H 0.46247 0.21737 0.5603 0.0
H1168 H 0.47844 0.22238 0.59966 0.0
H1169 H 0.52764 0.26127 0.56547 0.0
H1170 H 0.512 0.2563 0.5258 0.0
H1171 H 0.43872 0.27612 0.4571 0.0
H1172 H 0.43878 0.2498 0.47373 0.0
H1173 H 0.49645 0.27704 0.46765 0.0
H1174 H 0.49655 0.30353 0.45112 0.0
H1175 H 0.48457 0.26116 0.51242 0.0
H1176 H 0.47116 0.24455 0.42772 0.0
H1177 H 0.45471 0.23948 0.38877 0.0
H1178 H 0.40612 0.2 0.42362 0.0
H1179 H 0.42224 0.20502 0.46289 0.0
C1180 C 0.48211 0.18542 0.53257 0.0
C1181 C 0.46573 0.17032 0.5392 0.0
C1182 C 0.4824 0.20015 0.52139 0.0
C1183 C 0.46633 0.20011 0.51684 0.0
C1184 C 0.44994 0.18494 0.52304 0.0
C1185 C 0.44963 0.17017 0.53418 0.0
C1186 C 0.46664 0.21595 0.50572 0.0
C1187 C 0.45715 0.21369 0.48383 0.0
C1188 C 0.47666 0.23326 0.51617 0.0
C1189 C 0.4861 0.23633 0.54002 0.0
C1190 C 0.47672 0.22688 0.56113 0.0
C1191 C 0.48571 0.22973 0.5835 0.0
C1192 C 0.50405 0.2421 0.58505 0.0
C1193 C 0.51343 0.25168 0.56423 0.0
C1194 C 0.50451 0.24886 0.5418 0.0
C1195 C 0.45142 0.27651 0.45919 0.0
C1196 C 0.46764 0.29191 0.45279 0.0
C1197 C 0.45142 0.26143 0.46859 0.0
C1198 C 0.46761 0.26145 0.47171 0.0
C1199 C 0.48382 0.27678 0.46532 0.0
C1200 C 0.48384 0.29186 0.45583 0.0
C1201 C 0.46765 0.24566 0.48236 0.0
C1202 C 0.47719 0.24793 0.50419 0.0
C1203 C 0.4576 0.22836 0.47192 0.0
C1204 C 0.44788 0.22529 0.44831 0.0
C1205 C 0.45694 0.23489 0.42714 0.0
C1206 C 0.44768 0.23201 0.40499 0.0
C1207 C 0.42938 0.21946 0.40374 0.0
C1208 C 0.4203 0.20974 0.42462 0.0
C1209 C 0.42949 0.21258 0.44682 0.0
H1210 H 0.42223 0.21724 0.38657 0.0
H1211 H 0.51099 0.24429 0.60239 0.0
H1212 H 0.82167 0.51308 0.01007 0.0
H1213 H 0.79707 0.5147 0.99041 0.0
H1214 H 0.81052 0.56274 0.0314 0.0
H1215 H 0.83488 0.5609 0.05173 0.0
H1216 H 0.77593 0.54103 0.03255 0.0
H1217 H 0.81986 0.56412 0.96923 0.0
H1218 H 0.84257 0.56501 0.9408 0.0
H1219 H 0.80266 0.51616 0.90693 0.0
H1220 H 0.77974 0.51483 0.93539 0.0
H1221 H 0.7166 0.55854 0.96091 0.0
H1222 H 0.74415 0.56168 0.97872 0.0
H1223 H 0.73061 0.50951 0.95076 0.0
H1224 H 0.70302 0.50618 0.933 0.0
H1225 H 0.76659 0.53627 0.94237 0.0
H1226 H 0.72335 0.51301 0.00869 0.0
H1227 H 0.70113 0.5133 0.03698 0.0
H1228 H 0.74101 0.56469 0.06469 0.0
H1229 H 0.76341 0.56481 0.0363 0.0
C1230 C 0.81947 0.52405 0.01482 0.0
C1231 C 0.83022 0.53687 0.03244 0.0
C1232 C 0.80546 0.52502 0.00345 0.0
C1233 C 0.80212 0.539 0.00916 0.0
C1234 C 0.81288 0.55187 0.02668 0.0
C1235 C 0.8268 0.5508 0.03825 0.0
C1236 C 0.78691 0.53971 0.99755 0.0
C1237 C 0.77409 0.54034 0.0128 0.0
C1238 C 0.78436 0.53856 0.97179 0.0
C1239 C 0.7981 0.53931 0.9546 0.0
C1240 C 0.81595 0.55349 0.95585 0.0
C1241 C 0.82886 0.55409 0.9397 0.0
C1242 C 0.82407 0.54063 0.92211 0.0
C1243 C 0.80635 0.52657 0.92059 0.0
C1244 C 0.79339 0.5259 0.9367 0.0
C1245 C 0.71951 0.54775 0.95851 0.0
C1246 C 0.70762 0.53207 0.94564 0.0
C1247 C 0.73522 0.54956 0.96873 0.0
C1248 C 0.73931 0.53579 0.9661 0.0
C1249 C 0.72764 0.52028 0.95293 0.0
C1250 C 0.71187 0.51837 0.94291 0.0
C1251 C 0.75563 0.53735 0.97741 0.0
C1252 C 0.76862 0.53716 0.96209 0.0
C1253 C 0.75844 0.53912 0.00306 0.0
C1254 C 0.74499 0.53902 0.02018 0.0
C1255 C 0.72734 0.52445 0.02066 0.0
C1256 C 0.71472 0.52452 0.03675 0.0
C1257 C 0.71964 0.53903 0.05257 0.0
C1258 C 0.73721 0.55347 0.05239 0.0
C1259 C 0.74987 0.55348 0.03632 0.0
H1260 H 0.70985 0.53905 0.06502 0.0
H1261 H 0.83409 0.54112 0.90962 0.0
H1262 H 0.15688 0.71814 0.47286 0.0
H1263 H 0.18016 0.7452 0.49281 0.0
H1264 H 0.21556 0.7548 0.43147 0.0
H1265 H 0.19244 0.72752 0.41157 0.0
H1266 H 0.23209 0.75739 0.47358 0.0
H1267 H 0.19633 0.781 0.44145 0.0
H1268 H 0.1686 0.78203 0.43394 0.0
H1269 H 0.16214 0.78596 0.51143 0.0
H1270 H 0.18971 0.7847 0.51944 0.0
H1271 H 0.29988 0.84304 0.51179 0.0
H1272 H 0.27551 0.81925 0.48817 0.0
H1273 H 0.2399 0.80678 0.55 0.0
H1274 H 0.26419 0.83077 0.57376 0.0
H1275 H 0.22365 0.80643 0.50657 0.0
H1276 H 0.25861 0.78148 0.53856 0.0
H1277 H 0.28634 0.78046 0.54611 0.0
H1278 H 0.29415 0.779 0.46848 0.0
H1279 H 0.26658 0.78026 0.46046 0.0
C1280 C 0.16955 0.72609 0.46348 0.0
C1281 C 0.17285 0.72066 0.44066 0.0
C1282 C 0.18282 0.74162 0.47487 0.0
C1283 C 0.19954 0.7521 0.46352 0.0
C1284 C 0.20274 0.74689 0.44053 0.0
C1285 C 0.18951 0.73132 0.42917 0.0
C1286 C 0.21405 0.76787 0.47634 0.0
C1287 C 0.23034 0.76827 0.4804 0.0
C1288 C 0.21158 0.7818 0.48581 0.0
C1289 C 0.19501 0.7826 0.48105 0.0
C1290 C 0.18892 0.78194 0.45691 0.0
C1291 C 0.17325 0.78259 0.45255 0.0
C1292 C 0.1636 0.78401 0.4722 0.0
C1293 C 0.16962 0.78484 0.49624 0.0
C1294 C 0.18528 0.78418 0.50069 0.0
C1295 C 0.28686 0.83531 0.52037 0.0
C1296 C 0.284 0.83869 0.54473 0.0
C1297 C 0.27296 0.8217 0.50685 0.0
C1298 C 0.25599 0.81113 0.51747 0.0
C1299 C 0.25293 0.81479 0.54152 0.0
C1300 C 0.26683 0.82844 0.55508 0.0
C1301 C 0.24162 0.79591 0.50371 0.0
C1302 C 0.22538 0.79559 0.49956 0.0
C1303 C 0.24411 0.78202 0.49412 0.0
C1304 C 0.26063 0.78115 0.49891 0.0
C1305 C 0.26632 0.78108 0.5231 0.0
C1306 C 0.28199 0.78044 0.52746 0.0
C1307 C 0.29203 0.77972 0.50779 0.0
C1308 C 0.28638 0.77959 0.4837 0.0
C1309 C 0.27072 0.78025 0.47924 0.0
H1310 H 0.30416 0.77922 0.51121 0.0
H1311 H 0.15146 0.78452 0.46879 0.0
H1312 H 0.4306 0.1573 0.96319 0.0
H1313 H 0.42735 0.18026 0.98546 0.0
H1314 H 0.48324 0.20644 0.0058 0.0
H1315 H 0.48661 0.18363 0.98374 0.0
H1316 H 0.46138 0.20501 0.04409 0.0
H1317 H 0.4708 0.2214 0.95787 0.0
H1318 H 0.46359 0.21625 0.91375 0.0
H1319 H 0.41147 0.20955 0.92759 0.0
H1320 H 0.41829 0.21442 0.97187 0.0
H1321 H 0.48811 0.29543 0.06729 0.0
H1322 H 0.48379 0.26679 0.05241 0.0
H1323 H 0.42958 0.25098 0.03105 0.0
H1324 H 0.43393 0.2798 0.04544 0.0
H1325 H 0.44609 0.24428 0.99541 0.0
H1326 H 0.43798 0.23184 0.08098 0.0
H1327 H 0.44505 0.23702 0.12511 0.0
H1328 H 0.49383 0.23595 0.11331 0.0
H1329 H 0.48719 0.23102 0.06903 0.0
C1330 C 0.44214 0.16785 0.97262 0.0
C1331 C 0.4589 0.16876 0.97154 0.0
C1332 C 0.44027 0.18095 0.98528 0.0
C1333 C 0.4551 0.19509 0.99708 0.0
C1334 C 0.47164 0.19561 0.99682 0.0
C1335 C 0.47356 0.18262 0.98408 0.0
C1336 C 0.45381 0.20997 0.00855 0.0
C1337 C 0.4581 0.21367 0.0335 0.0
C1338 C 0.44904 0.2209 0.9948 0.0
C1339 C 0.44497 0.21805 0.96819 0.0
C1340 C 0.45775 0.21867 0.95153 0.0
C1341 C 0.45374 0.21584 0.92649 0.0
C1342 C 0.43706 0.21251 0.91788 0.0
C1343 C 0.42437 0.21208 0.93429 0.0
C1344 C 0.4283 0.21488 0.95935 0.0
C1345 C 0.47523 0.28583 0.05957 0.0
C1346 C 0.46137 0.28989 0.05751 0.0
C1347 C 0.47273 0.2694 0.05122 0.0
C1348 C 0.45627 0.25664 0.04092 0.0
C1349 C 0.44237 0.26061 0.039 0.0
C1350 C 0.44488 0.27708 0.04724 0.0
C1351 C 0.45399 0.2396 0.03096 0.0
C1352 C 0.44905 0.23549 0.00624 0.0
C1353 C 0.45809 0.22826 0.04498 0.0
C1354 C 0.46214 0.23118 0.07163 0.0
C1355 C 0.45028 0.23284 0.08775 0.0
C1356 C 0.4542 0.23571 0.11281 0.0
C1357 C 0.46989 0.23685 0.122 0.0
C1358 C 0.48168 0.23508 0.10616 0.0
C1359 C 0.47783 0.23222 0.08108 0.0
H1360 H 0.4729 0.23907 0.1414 0.0
H1361 H 0.43399 0.21033 0.89849 0.0
H1362 H 0.17736 0.44461 0.5849 0.0
H1363 H 0.2006 0.44094 0.56427 0.0
H1364 H 0.17767 0.44115 0.49396 0.0
H1365 H 0.15445 0.44491 0.51436 0.0
H1366 H 0.18776 0.41443 0.49873 0.0
H1367 H 0.21205 0.47805 0.51172 0.0
H1368 H 0.22025 0.50498 0.53669 0.0
H1369 H 0.25496 0.49393 0.58082 0.0
H1370 H 0.24675 0.46677 0.5563 0.0
H1371 H 0.26002 0.43627 0.41709 0.0
H1372 H 0.23486 0.434 0.44076 0.0
H1373 H 0.26493 0.44272 0.50774 0.0
H1374 H 0.2903 0.44548 0.48415 0.0
H1375 H 0.25093 0.46345 0.50681 0.0
H1376 H 0.22872 0.40114 0.4928 0.0
H1377 H 0.22055 0.37385 0.46872 0.0
H1378 H 0.18215 0.38143 0.42794 0.0
H1379 H 0.19027 0.40892 0.45156 0.0
C1380 C 0.17719 0.44374 0.56506 0.0
C1381 C 0.16417 0.44518 0.55123 0.0
C1382 C 0.19046 0.44167 0.55333 0.0
C1383 C 0.19085 0.44088 0.52763 0.0
C1384 C 0.17754 0.44171 0.51382 0.0
C1385 C 0.16437 0.44396 0.52551 0.0
C1386 C 0.20562 0.44008 0.51504 0.0
C1387 C 0.20158 0.42517 0.50028 0.0
C1388 C 0.22363 0.45392 0.51767 0.0
C1389 C 0.22862 0.47028 0.53236 0.0
C1390 C 0.2213 0.48128 0.52689 0.0
C1391 C 0.22598 0.4966 0.54093 0.0
C1392 C 0.23808 0.50113 0.56038 0.0
C1393 C 0.24556 0.49038 0.56578 0.0
C1394 C 0.24091 0.47503 0.55181 0.0
C1395 C 0.26121 0.43754 0.43688 0.0
C1396 C 0.27716 0.44113 0.44875 0.0
C1397 C 0.24678 0.43614 0.4504 0.0
C1398 C 0.24795 0.43803 0.47605 0.0
C1399 C 0.26374 0.44124 0.48796 0.0
C1400 C 0.27822 0.4428 0.47445 0.0
C1401 C 0.23316 0.43777 0.4903 0.0
C1402 C 0.23718 0.45255 0.50537 0.0
C1403 C 0.21516 0.42372 0.48807 0.0
C1404 C 0.21022 0.40719 0.47381 0.0
C1405 C 0.21864 0.39707 0.47856 0.0
C1406 C 0.21399 0.38155 0.46502 0.0
C1407 C 0.20087 0.37593 0.44677 0.0
C1408 C 0.19233 0.38581 0.44207 0.0
C1409 C 0.19693 0.40135 0.45555 0.0
H1410 H 0.19729 0.36391 0.43631 0.0
H1411 H 0.24169 0.51301 0.57122 0.0
H1412 H 0.836 0.28157 0.95994 0.0
H1413 H 0.80987 0.25486 0.97626 0.0
H1414 H 0.77827 0.28082 0.96918 0.0
H1415 H 0.80438 0.30768 0.95298 0.0
H1416 H 0.774 0.26474 0.0139 0.0
H1417 H 0.7727 0.24898 0.92904 0.0
H1418 H 0.78513 0.24458 0.89059 0.0
H1419 H 0.7947 0.20557 0.92602 0.0
H1420 H 0.78256 0.20992 0.9648 0.0
H1421 H 0.68852 0.1888 0.03342 0.0
H1422 H 0.71438 0.21507 0.01587 0.0
H1423 H 0.7449 0.18775 0.01874 0.0
H1424 H 0.7189 0.16119 0.03581 0.0
H1425 H 0.74984 0.20456 0.97606 0.0
H1426 H 0.75156 0.22025 0.06084 0.0
H1427 H 0.73954 0.22465 0.09966 0.0
H1428 H 0.72974 0.26377 0.06505 0.0
H1429 H 0.74149 0.25943 0.0259 0.0
C1430 C 0.82348 0.28159 0.96178 0.0
C1431 C 0.82225 0.29674 0.95516 0.0
C1432 C 0.80855 0.26629 0.97101 0.0
C1433 C 0.79212 0.26584 0.97372 0.0
C1434 C 0.79084 0.28093 0.96719 0.0
C1435 C 0.80576 0.29623 0.95788 0.0
C1436 C 0.77637 0.24975 0.98391 0.0
C1437 C 0.76854 0.25161 0.00546 0.0
C1438 C 0.76962 0.23258 0.97321 0.0
C1439 C 0.77688 0.22991 0.94989 0.0
C1440 C 0.7776 0.23957 0.92869 0.0
C1441 C 0.78456 0.23707 0.90682 0.0
C1442 C 0.79074 0.22484 0.90588 0.0
C1443 C 0.78993 0.21505 0.92679 0.0
C1444 C 0.78299 0.21752 0.94871 0.0
C1445 C 0.70074 0.18837 0.03038 0.0
C1446 C 0.7017 0.17294 0.0361 0.0
C1447 C 0.71553 0.20343 0.02043 0.0
C1448 C 0.73164 0.20345 0.01632 0.0
C1449 C 0.7326 0.18802 0.02181 0.0
C1450 C 0.71775 0.17288 0.03162 0.0
C1451 C 0.74742 0.21953 0.00607 0.0
C1452 C 0.75528 0.21767 0.98452 0.0
C1453 C 0.75427 0.2367 0.01684 0.0
C1454 C 0.74725 0.23939 0.04038 0.0
C1455 C 0.74672 0.22969 0.06145 0.0
C1456 C 0.73998 0.23219 0.08353 0.0
C1457 C 0.73384 0.24445 0.08481 0.0
C1458 C 0.73448 0.25427 0.06402 0.0
C1459 C 0.7412 0.25181 0.04189 0.0
H1460 H 0.72862 0.24636 0.10191 0.0
H1461 H 0.79613 0.22291 0.88893 0.0
H1462 H 0.52047 0.80645 0.41447 0.0
H1463 H 0.5213 0.78094 0.43256 0.0
H1464 H 0.55896 0.81577 0.48715 0.0
H1465 H 0.55847 0.84149 0.46886 0.0
H1466 H 0.56828 0.79232 0.47018 0.0
H1467 H 0.51505 0.78939 0.50153 0.0
H1468 H 0.48617 0.78887 0.49958 0.0
H1469 H 0.4636 0.74055 0.45671 0.0
H1470 H 0.49244 0.74092 0.45811 0.0
H1471 H 0.55394 0.722 0.55361 0.0
H1472 H 0.55543 0.74865 0.53512 0.0
H1473 H 0.52269 0.71653 0.47477 0.0
H1474 H 0.52121 0.68985 0.49298 0.0
H1475 H 0.5112 0.73895 0.49585 0.0
H1476 H 0.56534 0.74251 0.46503 0.0
H1477 H 0.5943 0.74332 0.46853 0.0
H1478 H 0.61516 0.7909 0.51274 0.0
H1479 H 0.58621 0.79023 0.5098 0.0
C1480 C 0.52899 0.80872 0.43027 0.0
C1481 C 0.53931 0.82597 0.44034 0.0
C1482 C 0.52939 0.79411 0.44064 0.0
C1483 C 0.53997 0.79643 0.46143 0.0
C1484 C 0.55066 0.8137 0.47115 0.0
C1485 C 0.55033 0.82836 0.46071 0.0
C1486 C 0.53963 0.78075 0.47318 0.0
C1487 C 0.55584 0.78075 0.4761 0.0
C1488 C 0.52335 0.76557 0.48061 0.0
C1489 C 0.50597 0.76529 0.47973 0.0
C1490 C 0.50398 0.77874 0.49152 0.0
C1491 C 0.48761 0.77845 0.49054 0.0
C1492 C 0.47308 0.76471 0.47797 0.0
C1493 C 0.47488 0.7512 0.46641 0.0
C1494 C 0.49123 0.75143 0.46731 0.0
C1495 C 0.54709 0.72062 0.53638 0.0
C1496 C 0.53745 0.70384 0.52474 0.0
C1497 C 0.54802 0.73585 0.52582 0.0
C1498 C 0.53924 0.73451 0.50356 0.0
C1499 C 0.52955 0.71779 0.49196 0.0
C1500 C 0.52878 0.7026 0.50235 0.0
C1501 C 0.53981 0.75049 0.4926 0.0
C1502 C 0.52364 0.75054 0.48992 0.0
C1503 C 0.55612 0.76576 0.48565 0.0
C1504 C 0.57354 0.7662 0.48741 0.0
C1505 C 0.57604 0.75305 0.47569 0.0
C1506 C 0.59247 0.7535 0.47753 0.0
C1507 C 0.60654 0.76712 0.49091 0.0
C1508 C 0.60423 0.78034 0.50242 0.0
C1509 C 0.58783 0.77994 0.50065 0.0
H1510 H 0.61925 0.76745 0.49231 0.0
H1511 H 0.46041 0.76451 0.47724 0.0
H1512 H 0.31016 0.38841 0.10362 0.0
H1513 H 0.32081 0.36685 0.10136 0.0
H1514 H 0.35914 0.39922 0.04584 0.0
H1515 H 0.34851 0.42069 0.04778 0.0
H1516 H 0.34374 0.36339 0.03578 0.0
H1517 H 0.37138 0.40334 0.10521 0.0
H1518 H 0.37115 0.41754 0.14444 0.0
H1519 H 0.34245 0.36573 0.17864 0.0
H1520 H 0.3423 0.35122 0.13948 0.0
H1521 H 0.41913 0.35261 0.04512 0.0
H1522 H 0.39635 0.36149 0.0434 0.0
H1523 H 0.36675 0.32396 0.10119 0.0
H1524 H 0.3897 0.31513 0.1033 0.0
H1525 H 0.37193 0.35645 0.1113 0.0
H1526 H 0.34958 0.31703 0.04308 0.0
H1527 H 0.35081 0.30335 0.00391 0.0
H1528 H 0.36997 0.35386 0.96726 0.0
H1529 H 0.36911 0.36793 0.00628 0.0
C1530 C 0.32071 0.39083 0.09072 0.0
C1531 C 0.32863 0.40636 0.07606 0.0
C1532 C 0.32678 0.37851 0.08948 0.0
C1533 C 0.34087 0.38155 0.07361 0.0
C1534 C 0.34823 0.39661 0.05819 0.0
C1535 C 0.34221 0.40893 0.05943 0.0
C1536 C 0.34895 0.36988 0.07416 0.0
C1537 C 0.34993 0.36185 0.05224 0.0
C1538 C 0.35654 0.36747 0.09585 0.0
C1539 C 0.35661 0.37619 0.11936 0.0
C1540 C 0.36488 0.39497 0.12104 0.0
C1541 C 0.36484 0.40308 0.14327 0.0
C1542 C 0.35673 0.39254 0.164 0.0
C1543 C 0.34868 0.37387 0.16255 0.0
C1544 C 0.34865 0.3657 0.14035 0.0
C1545 C 0.40765 0.34603 0.05724 0.0
C1546 C 0.40627 0.33324 0.07446 0.0
C1547 C 0.39455 0.35103 0.0561 0.0
C1548 C 0.37975 0.34326 0.07201 0.0
C1549 C 0.37803 0.33007 0.08869 0.0
C1550 C 0.39115 0.32503 0.08985 0.0
C1551 C 0.36717 0.35029 0.07273 0.0
C1552 C 0.36536 0.35752 0.09491 0.0
C1553 C 0.35887 0.35197 0.05126 0.0
C1554 C 0.35936 0.34356 0.02768 0.0
C1555 C 0.35418 0.32526 0.02671 0.0
C1556 C 0.35479 0.31743 0.00452 0.0
C1557 C 0.36049 0.32773 0.98312 0.0
C1558 C 0.36555 0.34589 0.98385 0.0
C1559 C 0.36498 0.3538 0.006 0.0
H1560 H 0.36095 0.32164 0.96596 0.0
H1561 H 0.35673 0.39883 0.18119 0.0
H1562 H 0.07255 0.39289 0.59657 0.0
H1563 H 0.04064 0.37107 0.59221 0.0
H1564 H 0.03746 0.4005 0.53012 0.0
H1565 H 0.06924 0.42258 0.5347 0.0
H1566 H 0.01205 0.3941 0.56186 0.0
H1567 H 0.03412 0.35887 0.52359 0.0
H1568 H 0.05232 0.34416 0.51992 0.0
H1569 H 0.02654 0.31221 0.58362 0.0
H1570 H 0.00835 0.32691 0.58789 0.0
H1571 H 0.92305 0.33552 0.53338 0.0
H1572 H 0.95537 0.34907 0.52766 0.0
H1573 H 0.95922 0.32528 0.59539 0.0
H1574 H 0.92675 0.31139 0.60113 0.0
H1575 H 0.9841 0.32779 0.55879 0.0
H1576 H 0.96406 0.36494 0.59857 0.0
H1577 H 0.94506 0.37883 0.60146 0.0
H1578 H 0.96731 0.40716 0.53403 0.0
H1579 H 0.98622 0.39316 0.53053 0.0
C1580 C 0.06511 0.39459 0.58179 0.0
C1581 C 0.07338 0.40953 0.56608 0.0
C1582 C 0.04689 0.38205 0.57924 0.0
C1583 C 0.03669 0.38409 0.56073 0.0
C1584 C 0.04508 0.39868 0.54454 0.0
C1585 C 0.06324 0.41128 0.54719 0.0
C1586 C 0.01701 0.37192 0.55951 0.0
C1587 C 0.006 0.37963 0.56071 0.0
C1588 C 0.00907 0.353 0.55871 0.0
C1589 C 0.01998 0.34412 0.55619 0.0
C1590 C 0.03243 0.34882 0.53694 0.0
C1591 C 0.04273 0.34046 0.53473 0.0
C1592 C 0.04062 0.32729 0.55156 0.0
C1593 C 0.02818 0.32242 0.57061 0.0
C1594 C 0.01785 0.33075 0.57292 0.0
C1595 C 0.93069 0.33281 0.54678 0.0
C1596 C 0.92244 0.32268 0.56795 0.0
C1597 C 0.94914 0.34052 0.54344 0.0
C1598 C 0.95966 0.33842 0.56134 0.0
C1599 C 0.95129 0.32706 0.58142 0.0
C1600 C 0.93276 0.31921 0.58471 0.0
C1601 C 0.97937 0.35006 0.56089 0.0
C1602 C 0.99029 0.34229 0.55963 0.0
C1603 C 0.98732 0.36896 0.56164 0.0
C1604 C 0.97643 0.37788 0.56417 0.0
C1605 C 0.96484 0.37407 0.58431 0.0
C1606 C 0.95408 0.38195 0.58605 0.0
C1607 C 0.95494 0.39383 0.56791 0.0
C1608 C 0.96664 0.39793 0.54805 0.0
C1609 C 0.97739 0.39003 0.54618 0.0
H1610 H 0.94657 0.39989 0.56925 0.0
H1611 H 0.04861 0.32083 0.54981 0.0
H1612 H 0.57882 0.93451 0.04075 0.0
H1613 H 0.60275 0.96549 0.03632 0.0
H1614 H 0.63766 0.95447 0.08071 0.0
H1615 H 0.61356 0.92329 0.08551 0.0
H1616 H 0.63752 0.98374 0.09637 0.0
H1617 H 0.64695 0.96398 0.02002 0.0
H1618 H 0.63907 0.9481 0.98033 0.0
H1619 H 0.61768 0.9809 0.95513 0.0
H1620 H 0.62518 0.99682 0.99479 0.0
H1621 H 0.69324 0.07836 0.08171 0.0
H1622 H 0.68532 0.04682 0.07846 0.0
H1623 H 0.63944 0.03593 0.03401 0.0
H1624 H 0.6475 0.06725 0.03653 0.0
H1625 H 0.65409 0.01721 0.01769 0.0
H1626 H 0.63786 0.0304 0.09896 0.0
H1627 H 0.64541 0.04565 0.13921 0.0
H1628 H 0.68016 0.02446 0.15485 0.0
H1629 H 0.67297 0.00927 0.11459 0.0
C1630 C 0.59163 0.93857 0.04936 0.0
C1631 C 0.59425 0.92645 0.06358 0.0
C1632 C 0.60538 0.95628 0.04664 0.0
C1633 C 0.62208 0.96224 0.05791 0.0
C1634 C 0.6249 0.9501 0.07173 0.0
C1635 C 0.61112 0.93231 0.07445 0.0
C1636 C 0.63582 0.98154 0.05694 0.0
C1637 C 0.64156 0.99101 0.07914 0.0
C1638 C 0.64108 0.99103 0.03448 0.0
C1639 C 0.6366 0.98157 0.01046 0.0
C1640 C 0.64047 0.96775 0.00608 0.0
C1641 C 0.63608 0.95874 0.98357 0.0
C1642 C 0.62787 0.96348 0.96523 0.0
C1643 C 0.62406 0.97726 0.96935 0.0
C1644 C 0.62841 0.9863 0.99183 0.0
C1645 C 0.68164 0.06928 0.07093 0.0
C1646 C 0.67087 0.07526 0.05964 0.0
C1647 C 0.67711 0.05126 0.06914 0.0
C1648 C 0.66162 0.03895 0.05632 0.0
C1649 C 0.65145 0.04515 0.04401 0.0
C1650 C 0.65603 0.0631 0.04559 0.0
C1651 C 0.65487 0.01938 0.0571 0.0
C1652 C 0.6505 0.00985 0.03487 0.0
C1653 C 0.65088 0.00982 0.07952 0.0
C1654 C 0.65507 0.01891 0.10369 0.0
C1655 C 0.6472 0.0291 0.11094 0.0
C1656 C 0.6514 0.03772 0.13375 0.0
C1657 C 0.66331 0.03607 0.14952 0.0
C1658 C 0.67099 0.02576 0.14258 0.0
C1659 C 0.66685 0.01716 0.11978 0.0
H1660 H 0.66659 0.04273 0.16716 0.0
H1661 H 0.62448 0.95649 0.94781 0.0
H1662 H 0.64673 0.58587 0.53657 0.0
H1663 H 0.63858 0.60918 0.53557 0.0
H1664 H 0.67935 0.63969 0.58947 0.0
H1665 H 0.6875 0.6162 0.59082 0.0
H1666 H 0.6477 0.63568 0.60263 0.0
H1667 H 0.68364 0.65579 0.53114 0.0
H1668 H 0.69549 0.65337 0.49101 0.0
H1669 H 0.64345 0.63338 0.45859 0.0
H1670 H 0.6312 0.63542 0.49859 0.0
H1671 H 0.60941 0.69218 0.59699 0.0
H1672 H 0.63329 0.68472 0.59279 0.0
H1673 H 0.60137 0.64385 0.53971 0.0
H1674 H 0.57769 0.65134 0.54346 0.0
H1675 H 0.63659 0.66109 0.52733 0.0
H1676 H 0.60014 0.63391 0.60064 0.0
H1677 H 0.58757 0.63531 0.64074 0.0
H1678 H 0.64075 0.66825 0.66936 0.0
H1679 H 0.65362 0.66722 0.62929 0.0
C1680 C 0.65417 0.59764 0.54796 0.0
C1681 C 0.66769 0.59913 0.56389 0.0
C1682 C 0.64958 0.61105 0.54723 0.0
C1683 C 0.65849 0.62628 0.56226 0.0
C1684 C 0.67238 0.62808 0.57765 0.0
C1685 C 0.67701 0.61465 0.57837 0.0
C1686 C 0.65191 0.63921 0.56354 0.0
C1687 C 0.64576 0.64169 0.58625 0.0
C1688 C 0.64918 0.64687 0.54215 0.0
C1689 C 0.65649 0.64571 0.51794 0.0
C1690 C 0.67469 0.65077 0.51549 0.0
C1691 C 0.68148 0.64948 0.49275 0.0
C1692 C 0.67023 0.64321 0.47227 0.0
C1693 C 0.65216 0.63825 0.47447 0.0
C1694 C 0.64529 0.6395 0.49718 0.0
C1695 C 0.60762 0.6818 0.58414 0.0
C1696 C 0.59156 0.67218 0.57081 0.0
C1697 C 0.62126 0.67756 0.58178 0.0
C1698 C 0.61899 0.6636 0.56615 0.0
C1699 C 0.6034 0.65469 0.55185 0.0
C1700 C 0.58982 0.65891 0.55417 0.0
C1701 C 0.63184 0.6569 0.56619 0.0
C1702 C 0.63911 0.65558 0.54376 0.0
C1703 C 0.63556 0.65023 0.58781 0.0
C1704 C 0.62783 0.65068 0.61193 0.0
C1705 C 0.60914 0.64154 0.61545 0.0
C1706 C 0.60196 0.64226 0.63817 0.0
C1707 C 0.61335 0.65191 0.65756 0.0
C1708 C 0.63195 0.66082 0.6543 0.0
C1709 C 0.63919 0.66017 0.6316 0.0
H1710 H 0.60778 0.65244 0.67514 0.0
H1711 H 0.67552 0.64222 0.45468 0.0
H1712 H 0.92383 0.58031 0.04629 0.0
H1713 H 0.95622 0.59921 0.04174 0.0
H1714 H 0.9587 0.62608 0.10969 0.0
H1715 H 0.92614 0.60731 0.11431 0.0
H1716 H 0.98328 0.6491 0.07339 0.0
H1717 H 0.96524 0.59225 0.11254 0.0
H1718 H 0.94748 0.55926 0.11555 0.0
H1719 H 0.97052 0.55436 0.04814 0.0
H1720 H 0.98821 0.58734 0.04453 0.0
H1721 H 0.07374 0.67575 0.10669 0.0
H1722 H 0.04142 0.66431 0.10481 0.0
H1723 H 0.03749 0.63252 0.04136 0.0
H1724 H 0.06967 0.64364 0.04331 0.0
H1725 H 0.01344 0.61274 0.07502 0.0
H1726 H 0.03261 0.66944 0.03638 0.0
H1727 H 0.04971 0.70237 0.03223 0.0
H1728 H 0.0248 0.7078 0.09743 0.0
H1729 H 0.00772 0.67489 0.10217 0.0
C1730 C 0.93118 0.59046 0.06006 0.0
C1731 C 0.92248 0.59211 0.0809 0.0
C1732 C 0.94968 0.60126 0.05739 0.0
C1733 C 0.95982 0.61378 0.0756 0.0
C1734 C 0.95106 0.61643 0.09549 0.0
C1735 C 0.93248 0.60565 0.09814 0.0
C1736 C 0.9796 0.62248 0.07526 0.0
C1737 C 0.98995 0.64123 0.07399 0.0
C1738 C 0.98817 0.6121 0.07567 0.0
C1739 C 0.97792 0.59226 0.07815 0.0
C1740 C 0.96644 0.58413 0.09829 0.0
C1741 C 0.95639 0.56544 0.10011 0.0
C1742 C 0.95783 0.55472 0.08201 0.0
C1743 C 0.9694 0.56268 0.06212 0.0
C1744 C 0.97945 0.58137 0.06019 0.0
C1745 C 0.06603 0.66648 0.09218 0.0
C1746 C 0.07425 0.66052 0.07524 0.0
C1747 C 0.04757 0.66002 0.09106 0.0
C1748 C 0.03707 0.64763 0.07286 0.0
C1749 C 0.04535 0.64205 0.05557 0.0
C1750 C 0.06375 0.64844 0.05671 0.0
C1751 C 0.01731 0.63947 0.07285 0.0
C1752 C 0.00688 0.62072 0.07427 0.0
C1753 C 0.00875 0.64989 0.07253 0.0
C1754 C 0.01902 0.66969 0.06976 0.0
C1755 C 0.03089 0.67765 0.04996 0.0
C1756 C 0.04056 0.69632 0.04748 0.0
C1757 C 0.03838 0.70717 0.0646 0.0
C1758 C 0.02649 0.69938 0.0842 0.0
C1759 C 0.0168 0.68072 0.08678 0.0
H1760 H 0.04588 0.72162 0.06264 0.0
H1761 H 0.95001 0.54025 0.08342 0.0
H1762 H 0.40978 0.06801 0.54714 0.0
H1763 H 0.38652 0.03658 0.54607 0.0
H1764 H 0.3613 0.04455 0.60953 0.0
H1765 H 0.38484 0.07617 0.61097 0.0
H1766 H 0.36681 0.01726 0.6163 0.0
H1767 H 0.3395 0.03345 0.55393 0.0
H1768 H 0.33751 0.04827 0.51631 0.0
H1769 H 0.3553 0.01831 0.47327 0.0
H1770 H 0.35767 0.00349 0.51065 0.0
H1771 H 0.31185 0.92226 0.60812 0.0
H1772 H 0.31841 0.95344 0.60773 0.0
H1773 H 0.35486 0.96491 0.54716 0.0
H1774 H 0.34827 0.93388 0.54721 0.0
H1775 H 0.33551 0.98204 0.54211 0.0
H1776 H 0.36999 0.97269 0.60596 0.0
H1777 H 0.37295 0.95839 0.64354 0.0
H1778 H 0.34171 0.97617 0.68359 0.0
H1779 H 0.33839 0.9904 0.64612 0.0
C1780 C 0.39913 0.0632 0.56065 0.0
C1781 C 0.39925 0.07456 0.57928 0.0
C1782 C 0.38572 0.04523 0.55988 0.0
C1783 C 0.37205 0.03824 0.57758 0.0
C1784 C 0.37169 0.0497 0.59563 0.0
C1785 C 0.38514 0.06775 0.59641 0.0
C1786 C 0.35962 0.0186 0.57877 0.0
C1787 C 0.35951 0.00958 0.60029 0.0
C1788 C 0.35026 0.00856 0.55781 0.0
C1789 C 0.34881 0.01739 0.53517 0.0
C1790 C 0.3431 0.03009 0.53647 0.0
C1791 C 0.34189 0.03849 0.51517 0.0
C1792 C 0.34629 0.03424 0.49242 0.0
C1793 C 0.35188 0.02157 0.49091 0.0
C1794 C 0.35313 0.01314 0.51215 0.0
C1795 C 0.32108 0.93137 0.59451 0.0
C1796 C 0.32972 0.92567 0.57789 0.0
C1797 C 0.3248 0.94916 0.59432 0.0
C1798 C 0.33724 0.9615 0.57757 0.0
C1799 C 0.34518 0.95559 0.56021 0.0
C1800 C 0.34149 0.93787 0.56039 0.0
C1801 C 0.34338 0.98089 0.57926 0.0
C1802 C 0.34232 0.9898 0.55831 0.0
C1803 C 0.35169 0.99087 0.60072 0.0
C1804 C 0.35374 0.98238 0.62321 0.0
C1805 C 0.36364 0.97342 0.62275 0.0
C1806 C 0.3654 0.96535 0.64402 0.0
C1807 C 0.35747 0.96631 0.66592 0.0
C1808 C 0.34781 0.9754 0.6666 0.0
C1809 C 0.34598 0.98346 0.64536 0.0
H1810 H 0.35885 0.96006 0.68238 0.0
H1811 H 0.34534 0.04076 0.47595 0.0
H1812 H 0.56749 0.64147 0.96408 0.0
H1813 H 0.58712 0.62895 0.96966 0.0
H1814 H 0.62493 0.66742 0.9183 0.0
H1815 H 0.60515 0.67994 0.91228 0.0
H1816 H 0.6169 0.63399 0.90707 0.0
H1817 H 0.63545 0.66992 0.97936 0.0
H1818 H 0.6316 0.68241 0.01811 0.0
H1819 H 0.6044 0.62969 0.04985 0.0
H1820 H 0.60786 0.61683 0.01118 0.0
H1821 H 0.67053 0.59407 0.92244 0.0
H1822 H 0.66233 0.61745 0.92401 0.0
H1823 H 0.62024 0.58585 0.97576 0.0
H1824 H 0.62872 0.56268 0.97486 0.0
H1825 H 0.63547 0.62058 0.98685 0.0
H1826 H 0.61208 0.58444 0.91338 0.0
H1827 H 0.61442 0.571 0.87455 0.0
H1828 H 0.64935 0.62351 0.84517 0.0
H1829 H 0.64739 0.63725 0.88398 0.0
C1830 C 0.58009 0.64746 0.95418 0.0
C1831 C 0.58471 0.66164 0.93761 0.0
C1832 C 0.59137 0.64036 0.95755 0.0
C1833 C 0.60758 0.64737 0.94459 0.0
C1834 C 0.6125 0.66187 0.92855 0.0
C1835 C 0.6012 0.669 0.92515 0.0
C1836 C 0.61841 0.63838 0.94614 0.0
C1837 C 0.62138 0.63146 0.92446 0.0
C1838 C 0.62385 0.63471 0.9689 0.0
C1839 C 0.62183 0.6424 0.99229 0.0
C1840 C 0.62854 0.66097 0.99454 0.0
C1841 C 0.62644 0.66812 0.01651 0.0
C1842 C 0.61774 0.65685 0.03642 0.0
C1843 C 0.61114 0.63841 0.03441 0.0
C1844 C 0.6132 0.63118 0.01248 0.0
C1845 C 0.65968 0.59221 0.9344 0.0
C1846 C 0.65011 0.57643 0.94829 0.0
C1847 C 0.655 0.60557 0.93525 0.0
C1848 C 0.64045 0.60323 0.94962 0.0
C1849 C 0.63149 0.58792 0.96449 0.0
C1850 C 0.63631 0.57465 0.96388 0.0
C1851 C 0.63362 0.61595 0.94784 0.0
C1852 C 0.63135 0.62349 0.96944 0.0
C1853 C 0.62866 0.6201 0.92502 0.0
C1854 C 0.62976 0.61185 0.90166 0.0
C1855 C 0.62036 0.59311 0.8987 0.0
C1856 C 0.6216 0.58544 0.87669 0.0
C1857 C 0.63208 0.59639 0.85744 0.0
C1858 C 0.64128 0.61504 0.86012 0.0
C1859 C 0.6401 0.62278 0.88211 0.0
H1860 H 0.63302 0.59043 0.84041 0.0
H1861 H 0.61612 0.66241 0.05341 0.0
H1862 H 0.9207 0.6049 0.44353 0.0
H1863 H 0.95333 0.62352 0.44791 0.0
H1864 H 0.95724 0.5759 0.45865 0.0
H1865 H 0.92486 0.55735 0.45487 0.0
H1866 H 0.97936 0.60168 0.48887 0.0
H1867 H 0.96423 0.5967 0.40197 0.0
H1868 H 0.9493 0.60055 0.36573 0.0
H1869 H 0.97587 0.65736 0.37868 0.0
H1870 H 0.99079 0.65378 0.4152 0.0
H1871 H 0.06078 0.61467 0.44294 0.0
H1872 H 0.02966 0.60629 0.45071 0.0
H1873 H 0.0435 0.66175 0.44487 0.0
H1874 H 0.07485 0.67032 0.43703 0.0
H1875 H 0.01357 0.63866 0.41735 0.0
H1876 H 0.03364 0.64325 0.49973 0.0
H1877 H 0.04904 0.6384 0.53453 0.0
H1878 H 0.01354 0.5815 0.52928 0.0
H1879 H -0.00192 0.58597 0.4942 0.0
C1880 C 0.92852 0.59844 0.44708 0.0
C1881 C 0.92021 0.57964 0.44863 0.0
C1882 C 0.94715 0.60909 0.44952 0.0
C1883 C 0.95772 0.60108 0.45333 0.0
C1884 C 0.94935 0.58238 0.45576 0.0
C1885 C 0.93081 0.57177 0.45346 0.0
C1886 C 0.97758 0.6118 0.45345 0.0
C1887 C 0.98686 0.60978 0.47325 0.0
C1888 C 0.98738 0.62281 0.43339 0.0
C1889 C 0.97843 0.62495 0.41146 0.0
C1890 C 0.96677 0.60999 0.39719 0.0
C1891 C 0.95833 0.61212 0.37659 0.0
C1892 C 0.96158 0.62918 0.36996 0.0
C1893 C 0.97332 0.64415 0.38388 0.0
C1894 C 0.98178 0.64208 0.40452 0.0
C1895 C 0.05726 0.62513 0.44341 0.0
C1896 C 0.07026 0.64316 0.43934 0.0
C1897 C 0.03949 0.62032 0.44801 0.0
C1898 C 0.03435 0.63344 0.44865 0.0
C1899 C 0.04726 0.65146 0.44459 0.0
C1900 C 0.06513 0.65632 0.44015 0.0
C1901 C 0.01526 0.62795 0.45234 0.0
C1902 C 0.00613 0.63097 0.43327 0.0
C1903 C 0.00559 0.61773 0.47298 0.0
C1904 C 0.01475 0.61495 0.49423 0.0
C1905 C 0.02918 0.62969 0.50589 0.0
C1906 C 0.03792 0.62701 0.52568 0.0
C1907 C 0.03229 0.60965 0.53409 0.0
C1908 C 0.01788 0.59494 0.52275 0.0
C1909 C 0.00911 0.59754 0.50293 0.0
H1910 H 0.03907 0.60761 0.54942 0.0
H1911 H 0.95504 0.63081 0.354 0.0
H1912 H 0.42418 0.06962 0.86622 0.0
H1913 H 0.4056 0.03705 0.86582 0.0
H1914 H 0.39073 0.03782 0.94125 0.0
H1915 H 0.4096 0.07054 0.94195 0.0
H1916 H 0.40164 0.0139 0.93431 0.0
H1917 H 0.36031 0.02772 0.89482 0.0
H1918 H 0.35062 0.04243 0.8645 0.0
H1919 H 0.36243 0.01663 0.80582 0.0
H1920 H 0.37242 0.00194 0.83578 0.0
H1921 H 0.33947 0.92076 0.9365 0.0
H1922 H 0.35121 0.95314 0.93742 0.0
H1923 H 0.37117 0.95764 0.86362 0.0
H1924 H 0.3594 0.92523 0.86245 0.0
H1925 H 0.35557 0.97866 0.87142 0.0
H1926 H 0.39912 0.96709 0.90969 0.0
H1927 H 0.4096 0.95254 0.93914 0.0
H1928 H 0.39446 0.97447 -0.00076 0.0
H1929 H 0.38363 0.98893 0.97012 0.0
C1930 C 0.41679 0.06292 0.88266 0.0
C1931 C 0.41841 0.07267 0.90415 0.0
C1932 C 0.4061 0.04428 0.88235 0.0
C1933 C 0.39666 0.03502 0.90344 0.0
C1934 C 0.39789 0.04474 0.92477 0.0
C1935 C 0.40863 0.06342 0.92511 0.0
C1936 C 0.3865 0.01515 0.9036 0.0
C1937 C 0.39129 0.00618 0.92088 0.0
C1938 C 0.37338 0.00513 0.88563 0.0
C1939 C 0.36723 0.01382 0.86756 0.0
C1940 C 0.36095 0.02527 0.87545 0.0
C1941 C 0.35539 0.03359 0.85832 0.0
C1942 C 0.35595 0.03049 0.83325 0.0
C1943 C 0.36202 0.01902 0.82525 0.0
C1944 C 0.3676 0.01067 0.8423 0.0
C1945 C 0.34621 0.9286 0.92037 0.0
C1946 C 0.34865 0.92047 0.89947 0.0
C1947 C 0.35293 0.94709 0.92096 0.0
C1948 C 0.36221 0.95775 0.90069 0.0
C1949 C 0.36406 0.94961 0.87945 0.0
C1950 C 0.3574 0.93111 0.87887 0.0
C1951 C 0.37076 0.97751 0.90206 0.0
C1952 C 0.36573 0.98641 0.88503 0.0
C1953 C 0.38375 0.9875 0.92017 0.0
C1954 C 0.39037 0.97892 0.93772 0.0
C1955 C 0.39788 0.96868 0.92918 0.0
C1956 C 0.40391 0.96047 0.94581 0.0
C1957 C 0.40264 0.96253 0.97104 0.0
C1958 C 0.3954 0.97285 0.97969 0.0
C1959 C 0.38932 0.98107 0.96313 0.0
H1960 H 0.40731 0.95616 0.98389 0.0
H1961 H 0.35164 0.03695 0.82002 0.0
H1962 H 0.31224 0.38694 0.40107 0.0
H1963 H 0.32328 0.36573 0.40439 0.0
H1964 H 0.36461 0.40165 0.45433 0.0
H1965 H 0.35387 0.42294 0.45093 0.0
H1966 H 0.37819 0.39125 0.41791 0.0
H1967 H 0.3287 0.36293 0.47444 0.0
H1968 H 0.29709 0.34921 0.48735 0.0
H1969 H 0.28184 0.30843 0.43225 0.0
H1970 H 0.31335 0.32206 0.41878 0.0
H1971 H 0.41409 0.3422 0.46512 0.0
H1972 H 0.39352 0.3539 0.46594 0.0
H1973 H 0.36467 0.32049 0.40426 0.0
H1974 H 0.38531 0.30864 0.40315 0.0
H1975 H 0.34309 0.32746 0.44373 0.0
H1976 H 0.39273 0.35647 0.38679 0.0
H1977 H 0.42462 0.36933 0.37585 0.0
H1978 H 0.43947 0.40873 0.43286 0.0
H1979 H 0.40764 0.39587 0.44443 0.0
C1980 C 0.32357 0.39023 0.41293 0.0
C1981 C 0.33225 0.40667 0.42561 0.0
C1982 C 0.32981 0.37807 0.41488 0.0
C1983 C 0.34474 0.38212 0.42965 0.0
C1984 C 0.3531 0.3983 0.44278 0.0
C1985 C 0.34692 0.41044 0.44082 0.0
C1986 C 0.35244 0.37012 0.43039 0.0
C1987 C 0.3705 0.37735 0.42373 0.0
C1988 C 0.34229 0.35184 0.43735 0.0
C1989 C 0.32335 0.34364 0.44541 0.0
C1990 C 0.31859 0.35114 0.46492 0.0
C1991 C 0.30069 0.34335 0.47238 0.0
C1992 C 0.28746 0.32799 0.46058 0.0
C1993 C 0.2921 0.32035 0.44134 0.0
C1994 C 0.30998 0.32809 0.4338 0.0
C1995 C 0.40311 0.33695 0.4521 0.0
C1996 C 0.40155 0.32477 0.43372 0.0
C1997 C 0.39131 0.34359 0.4527 0.0
C1998 C 0.37777 0.33817 0.435 0.0
C1999 C 0.37506 0.32476 0.41809 0.0
C2000 C 0.38693 0.3181 0.41742 0.0
C2001 C 0.36877 0.34879 0.4317 0.0
C2002 C 0.3506 0.34132 0.43773 0.0
C2003 C 0.37874 0.36689 0.42412 0.0
C2004 C 0.39783 0.37512 0.4166 0.0
C2005 C 0.4028 0.36782 0.39708 0.0
C2006 C 0.42087 0.3751 0.39076 0.0
C2007 C 0.43407 0.38981 0.40369 0.0
C2008 C 0.42923 0.39733 0.42288 0.0
C2009 C 0.41117 0.39005 0.42931 0.0
H2010 H 0.44806 0.39541 0.39881 0.0
H2011 H 0.27361 0.32198 0.46638 0.0
H2012 H 0.06525 0.41632 0.9532 0.0
H2013 H 0.03353 0.394 0.95725 0.0
H2014 H 0.03751 0.36488 0.8954 0.0
H2015 H 0.06936 0.38724 0.89113 0.0
H2016 H 0.00999 0.37182 0.89088 0.0
H2017 H 0.0308 0.34661 0.9514 0.0
H2018 H 0.04801 0.3466 0.98757 0.0
H2019 H 0.01932 0.36463 0.0329 0.0
H2020 H 0.0021 0.36501 0.99695 0.0
H2021 H 0.91747 0.31109 0.90369 0.0
H2022 H 0.9493 0.32007 0.90373 0.0
H2023 H 0.95848 0.35606 0.96417 0.0
H2024 H 0.92674 0.3471 0.96442 0.0
H2025 H 0.97941 0.34031 0.96761 0.0
H2026 H 0.96298 0.37068 0.90721 0.0
H2027 H 0.94616 0.37233 0.87165 0.0
H2028 H 0.96764 0.34662 0.82651 0.0
H2029 H 0.98418 0.34437 0.86201 0.0
C2030 C 0.05945 0.40507 0.94061 0.0
C2031 C 0.06979 0.40359 0.92175 0.0
C2032 C 0.04134 0.39225 0.94307 0.0
C2033 C 0.03323 0.37771 0.92676 0.0
C2034 C 0.04358 0.37597 0.90824 0.0
C2035 C 0.06175 0.38875 0.90584 0.0
C2036 C 0.01362 0.36533 0.92785 0.0
C2037 C 0.00331 0.36453 0.90743 0.0
C2038 C 0.00495 0.3562 0.94967 0.0
C2039 C 0.01522 0.35593 0.97141 0.0
C2040 C 0.02824 0.3507 0.96904 0.0
C2041 C 0.03799 0.35061 0.98952 0.0
C2042 C 0.03478 0.35564 0.01251 0.0
C2043 C 0.02179 0.36074 0.01508 0.0
C2044 C 0.01201 0.36086 0.99466 0.0
C2045 C 0.92618 0.32061 0.91736 0.0
C2046 C 0.91966 0.3286 0.93381 0.0
C2047 C 0.94435 0.32572 0.91733 0.0
C2048 C 0.95624 0.33891 0.93371 0.0
C2049 C 0.94951 0.34588 0.95135 0.0
C2050 C 0.93139 0.34081 0.95137 0.0
C2051 C 0.97587 0.34706 0.93078 0.0
C2052 C 0.98614 0.34719 0.95085 0.0
C2053 C 0.98457 0.35576 0.90872 0.0
C2054 C 0.97458 0.35709 0.88736 0.0
C2055 C 0.96392 0.36517 0.88978 0.0
C2056 C 0.95442 0.3662 0.86962 0.0
C2057 C 0.95568 0.35944 0.84685 0.0
C2058 C 0.96652 0.35171 0.84419 0.0
C2059 C 0.97594 0.35052 0.86433 0.0
H2060 H 0.94834 0.36029 0.83126 0.0
H2061 H 0.04234 0.35556 0.02834 0.0
H2062 H 0.60588 0.93064 0.3862 0.0
H2063 H 0.62614 0.96287 0.39089 0.0
H2064 H 0.60643 0.96047 0.46442 0.0
H2065 H 0.58586 0.92832 0.45968 0.0
H2066 H 0.60389 0.98471 0.43841 0.0
H2067 H 0.6502 0.97072 0.45323 0.0
H2068 H 0.66863 0.95667 0.44537 0.0
H2069 H 0.68649 0.98514 0.37711 0.0
H2070 H 0.66796 -0.00082 0.38438 0.0
H2071 H 0.65614 0.07684 0.45681 0.0
H2072 H 0.64742 0.04538 0.46269 0.0
H2073 H 0.66143 0.04232 0.38753 0.0
H2074 H 0.67056 0.07393 0.38162 0.0
H2075 H 0.66864 0.02112 0.41829 0.0
H2076 H 0.61951 0.03156 0.40092 0.0
H2077 H 0.60101 0.04567 0.40791 0.0
H2078 H 0.58814 0.02317 0.48042 0.0
H2079 H 0.60681 0.00916 0.47397 0.0
C2080 C 0.60611 0.9369 0.40355 0.0
C2081 C 0.59412 0.92698 0.42246 0.0
C2082 C 0.61779 0.95532 0.40626 0.0
C2083 C 0.61784 0.96408 0.42804 0.0
C2084 C 0.60659 0.95399 0.44744 0.0
C2085 C 0.59483 0.93561 0.44469 0.0
C2086 C 0.6279 0.98395 0.42946 0.0
C2087 C 0.61814 0.99263 0.43458 0.0
C2088 C 0.64639 0.9943 0.42372 0.0
C2089 C 0.65757 0.9859 0.41928 0.0
C2090 C 0.65794 0.97388 0.43645 0.0
C2091 C 0.66843 0.96594 0.43211 0.0
C2092 C 0.6787 0.96998 0.41073 0.0
C2093 C 0.67853 0.98201 0.39366 0.0
C2094 C 0.66805 0.98999 0.39789 0.0
C2095 C 0.65771 0.06958 0.44166 0.0
C2096 C 0.66372 0.07775 0.41861 0.0
C2097 C 0.65275 0.05162 0.44507 0.0
C2098 C 0.65346 0.04146 0.4254 0.0
C2099 C 0.66074 0.04993 0.40292 0.0
C2100 C 0.66587 0.06797 0.39955 0.0
C2101 C 0.64458 0.02169 0.42732 0.0
C2102 C 0.65447 0.01309 0.42259 0.0
C2103 C 0.62616 0.0113 0.43331 0.0
C2104 C 0.6147 0.01948 0.43706 0.0
C2105 C 0.61282 0.02972 0.41841 0.0
C2106 C 0.6023 0.03769 0.42226 0.0
C2107 C 0.59345 0.03536 0.44462 0.0
C2108 C 0.59504 0.025 0.46313 0.0
C2109 C 0.60558 0.01703 0.45938 0.0
H2110 H 0.58532 0.04155 0.44758 0.0
H2111 H 0.68681 0.96382 0.40741 0.0
H2112 H 0.51241 0.62407 0.01303 0.0
H2113 H 0.48616 0.59809 0.03056 0.0
H2114 H 0.45404 0.59741 0.96935 0.0
H2115 H 0.48028 0.62345 0.95159 0.0
H2116 H 0.43694 0.59247 0.01478 0.0
H2117 H 0.46813 0.56848 0.96956 0.0
H2118 H 0.49436 0.56587 0.95757 0.0
H2119 H 0.4993 0.55146 0.03143 0.0
H2120 H 0.47324 0.55424 0.04395 0.0
H2121 H 0.36324 0.50437 0.03089 0.0
H2122 H 0.38879 0.53165 0.01474 0.0
H2123 H 0.42238 0.52995 0.07226 0.0
H2124 H 0.39693 0.50248 0.08834 0.0
H2125 H 0.43876 0.5364 0.02873 0.0
H2126 H 0.40754 0.55999 0.07418 0.0
H2127 H 0.38153 0.56284 0.08664 0.0
H2128 H 0.37677 0.57822 0.01327 0.0
H2129 H 0.40261 0.57521 0.00028 0.0
C2130 C 0.49975 0.61847 0.00333 0.0
C2131 C 0.49844 0.62576 0.98085 0.0
C2132 C 0.48479 0.6036 0.01335 0.0
C2133 C 0.46824 0.59576 0.00111 0.0
C2134 C 0.46673 0.60328 0.97903 0.0
C2135 C 0.48173 0.6181 0.96889 0.0
C2136 C 0.45263 0.57944 0.01113 0.0
C2137 C 0.43721 0.58012 0.01756 0.0
C2138 C 0.45322 0.56351 0.01524 0.0
C2139 C 0.46885 0.56175 0.00774 0.0
C2140 C 0.4749 0.5649 0.98329 0.0
C2141 C 0.48972 0.56336 0.97639 0.0
C2142 C 0.49852 0.55855 0.99374 0.0
C2143 C 0.49249 0.55521 0.01802 0.0
C2144 C 0.47769 0.55675 0.02502 0.0
C2145 C 0.37604 0.50982 0.04017 0.0
C2146 C 0.37805 0.50126 0.06092 0.0
C2147 C 0.39062 0.52546 0.03097 0.0
C2148 C 0.40744 0.53293 0.04246 0.0
C2149 C 0.4095 0.52441 0.06314 0.0
C2150 C 0.39493 0.50874 0.07233 0.0
C2151 C 0.423 0.54938 0.03251 0.0
C2152 C 0.43844 0.54873 0.02603 0.0
C2153 C 0.42243 0.56534 0.02844 0.0
C2154 C 0.4069 0.5672 0.0362 0.0
C2155 C 0.40086 0.56384 0.06065 0.0
C2156 C 0.38616 0.56551 0.06782 0.0
C2157 C 0.37748 0.57066 0.05074 0.0
C2158 C 0.3835 0.5742 0.02647 0.0
C2159 C 0.39818 0.57253 0.0192 0.0
H2160 H 0.3661 0.57195 0.05633 0.0
H2161 H 0.50999 0.55736 0.98836 0.0
H2162 H 0.8561 0.36252 0.55037 0.0
H2163 H 0.85328 0.38682 0.53169 0.0
H2164 H 0.90811 0.41148 0.50661 0.0
H2165 H 0.91119 0.38754 0.52587 0.0
H2166 H 0.90178 0.43594 0.52474 0.0
H2167 H 0.8716 0.38723 0.46761 0.0
H2168 H 0.84959 0.3564 0.45492 0.0
H2169 H 0.80645 0.36442 0.47828 0.0
H2170 H 0.82824 0.39524 0.49142 0.0
H2171 H 0.90119 0.49503 0.43586 0.0
H2172 H 0.90133 0.46927 0.4544 0.0
H2173 H 0.84938 0.45208 0.48633 0.0
H2174 H 0.84911 0.47792 0.46786 0.0
H2175 H 0.85309 0.42378 0.46563 0.0
H2176 H 0.88385 0.473 0.52176 0.0
H2177 H 0.90623 0.50389 0.53371 0.0
H2178 H 0.94879 0.49474 0.51104 0.0
H2179 H 0.92663 0.46387 0.49861 0.0
C2180 C 0.86756 0.37312 0.54088 0.0
C2181 C 0.88385 0.37308 0.53952 0.0
C2182 C 0.8659 0.38695 0.5301 0.0
C2183 C 0.8804 0.40083 0.51742 0.0
C2184 C 0.89673 0.4009 0.51626 0.0
C2185 C 0.89846 0.38717 0.52724 0.0
C2186 C 0.87869 0.41544 0.50558 0.0
C2187 C 0.89126 0.43325 0.51159 0.0
C2188 C 0.86469 0.41195 0.48886 0.0
C2189 C 0.85156 0.39348 0.48073 0.0
C2190 C 0.85743 0.38238 0.4702 0.0
C2191 C 0.84499 0.36491 0.4629 0.0
C2192 C 0.82663 0.35843 0.46586 0.0
C2193 C 0.82068 0.36944 0.47603 0.0
C2194 C 0.83306 0.38692 0.48339 0.0
C2195 C 0.88971 0.48571 0.44665 0.0
C2196 C 0.87519 0.48859 0.45054 0.0
C2197 C 0.88984 0.47103 0.45727 0.0
C2198 C 0.87546 0.45892 0.47192 0.0
C2199 C 0.86062 0.46133 0.47511 0.0
C2200 C 0.86052 0.47611 0.46462 0.0
C2201 C 0.8763 0.44416 0.48461 0.0
C2202 C 0.86357 0.42638 0.47882 0.0
C2203 C 0.8902 0.44765 0.50142 0.0
C2204 C 0.90357 0.46618 0.50904 0.0
C2205 C 0.89797 0.47762 0.51914 0.0
C2206 C 0.91062 0.49512 0.52603 0.0
C2207 C 0.92892 0.50129 0.52308 0.0
C2208 C 0.93461 0.48995 0.51329 0.0
C2209 C 0.92201 0.47245 0.50634 0.0
H2210 H 0.93869 0.51484 0.52843 0.0
H2211 H 0.81703 0.3449 0.46023 0.0
H2212 H 0.37339 0.89371 0.99474 0.0
H2213 H 0.4001 0.89599 0.01394 0.0
H2214 H 0.40069 0.85956 0.96003 0.0
H2215 H 0.37385 0.85706 0.94079 0.0
H2216 H 0.40649 0.85164 0.00673 0.0
H2217 H 0.42897 0.90389 0.95482 0.0
H2218 H 0.43036 0.93151 0.93942 0.0
H2219 H 0.44526 0.95511 0.01115 0.0
H2220 H 0.44369 0.92751 0.02708 0.0
H2221 H 0.49428 0.86695 0.02342 0.0
H2222 H 0.46704 0.86483 0.00647 0.0
H2223 H 0.47035 0.90385 0.05908 0.0
H2224 H 0.49786 0.90632 0.07591 0.0
H2225 H 0.46218 0.91071 0.01452 0.0
H2226 H 0.44034 0.85943 0.06673 0.0
H2227 H 0.43814 0.83176 0.08342 0.0
H2228 H 0.42132 0.80636 0.01297 0.0
H2229 H 0.42367 0.83398 0.99575 0.0
C2230 C 0.37916 0.88613 0.98698 0.0
C2231 C 0.37153 0.87525 0.96618 0.0
C2232 C 0.39446 0.88751 0.99794 0.0
C2233 C 0.40247 0.8781 0.98824 0.0
C2234 C 0.39472 0.86696 0.96776 0.0
C2235 C 0.37942 0.86559 0.95676 0.0
C2236 C 0.41903 0.87996 -0.00066 0.0
C2237 C 0.41875 0.86451 0.00816 0.0
C2238 C 0.43481 0.89685 0.00185 0.0
C2239 C 0.43606 0.91357 0.99219 0.0
C2240 C 0.43243 0.91492 0.96735 0.0
C2241 C 0.43326 0.93058 0.95852 0.0
C2242 C 0.43787 0.94504 0.97431 0.0
C2243 C 0.44168 0.94389 0.99895 0.0
C2244 C 0.44084 0.92825 0.00788 0.0
C2245 C 0.48923 0.87509 0.03142 0.0
C2246 C 0.49821 0.88676 0.05109 0.0
C2247 C 0.47361 0.8738 0.02176 0.0
C2248 C 0.46653 0.884 0.03173 0.0
C2249 C 0.47557 0.89583 0.05116 0.0
C2250 C 0.49126 0.89718 0.06079 0.0
C2251 C 0.44973 0.88234 0.02174 0.0
C2252 C 0.44993 0.89783 0.01315 0.0
C2253 C 0.43382 0.8655 0.0196 0.0
C2254 C 0.43235 0.84884 0.02989 0.0
C2255 C 0.43631 0.84799 0.05474 0.0
C2256 C 0.43502 0.83231 0.0643 0.0
C2257 C 0.42964 0.81733 0.04925 0.0
C2258 C 0.4255 0.81799 0.0246 0.0
C2259 C 0.4268 0.83365 0.01494 0.0
H2260 H 0.42864 0.8052 0.05669 0.0
H2261 H 0.43851 0.95716 0.96744 0.0
H2262 H 0.47495 0.3952 0.47552 0.0
H2263 H 0.50124 0.42176 0.49181 0.0
H2264 H 0.53455 0.39937 0.47193 0.0
H2265 H 0.50823 0.37255 0.45608 0.0
H2266 H 0.54308 0.41391 0.51644 0.0
H2267 H 0.53406 0.43246 0.43739 0.0
H2268 H 0.5169 0.43686 0.40457 0.0
H2269 H 0.50747 0.47126 0.45181 0.0
H2270 H 0.52437 0.46686 0.48505 0.0
H2271 H 0.62679 0.49495 0.52718 0.0
H2272 H 0.60076 0.4681 0.51081 0.0
H2273 H 0.56617 0.48799 0.5349 0.0
H2274 H 0.59213 0.51493 0.55124 0.0
H2275 H 0.55866 0.47477 0.48783 0.0
H2276 H 0.56782 0.45583 0.56695 0.0
H2277 H 0.58525 0.45134 0.59929 0.0
H2278 H 0.59493 0.41768 0.55091 0.0
H2279 H 0.57776 0.42218 0.51814 0.0
C2280 C 0.48786 0.3959 0.47462 0.0
C2281 C 0.48951 0.38179 0.46441 0.0
C2282 C 0.50289 0.41114 0.48385 0.0
C2283 C 0.5199 0.41267 0.48276 0.0
C2284 C 0.52155 0.39849 0.47291 0.0
C2285 C 0.5065 0.38319 0.4638 0.0
C2286 C 0.53596 0.42904 0.49197 0.0
C2287 C 0.54663 0.4272 0.50992 0.0
C2288 C 0.5404 0.4464 0.4838 0.0
C2289 C 0.53034 0.44919 0.46379 0.0
C2290 C 0.52822 0.44086 0.44084 0.0
C2291 C 0.51855 0.44337 0.42215 0.0
C2292 C 0.51106 0.45429 0.42612 0.0
C2293 C 0.51327 0.46278 0.44877 0.0
C2294 C 0.5229 0.46029 0.46754 0.0
C2295 C 0.61366 0.49363 0.52899 0.0
C2296 C 0.61152 0.50705 0.54057 0.0
C2297 C 0.59879 0.47825 0.5197 0.0
C2298 C 0.58154 0.476 0.52185 0.0
C2299 C 0.57939 0.48947 0.5331 0.0
C2300 C 0.59423 0.50483 0.54249 0.0
C2301 C 0.56571 0.45962 0.51231 0.0
C2302 C 0.5551 0.46147 0.49429 0.0
C2303 C 0.56139 0.44227 0.52031 0.0
C2304 C 0.57166 0.43949 0.54001 0.0
C2305 C 0.57379 0.44759 0.56314 0.0
C2306 C 0.5836 0.44502 0.58156 0.0
C2307 C 0.59123 0.43427 0.57713 0.0
C2308 C 0.58903 0.42603 0.5543 0.0
C2309 C 0.57925 0.42857 0.5358 0.0
H2310 H 0.59881 0.43229 0.59142 0.0
H2311 H 0.50358 0.45622 0.41163 0.0
H2312 H 0.13585 0.50308 0.96485 0.0
H2313 H 0.13863 0.53077 0.98131 0.0
H2314 H 0.09706 0.52575 0.93214 0.0
H2315 H 0.09434 0.49815 0.91532 0.0
H2316 H 0.12503 0.55989 0.93358 0.0
H2317 H 0.0879 0.51434 0.99208 0.0
H2318 H 0.08033 0.48946 0.02093 0.0
H2319 H 0.1268 0.52355 0.06424 0.0
H2320 H 0.13479 0.54857 0.03546 0.0
H2321 H 0.10183 0.61939 0.99103 0.0
H2322 H 0.10233 0.5937 0.97296 0.0
H2323 H 0.14208 0.59923 0.02592 0.0
H2324 H 0.14135 0.62472 0.04449 0.0
H2325 H 0.1164 0.56539 0.02254 0.0
H2326 H 0.15307 0.61135 0.96521 0.0
H2327 H 0.16088 0.63631 0.93644 0.0
H2328 H 0.11589 0.60183 0.89099 0.0
H2329 H 0.10766 0.57671 0.91968 0.0
C2330 C 0.1273 0.50786 0.95751 0.0
C2331 C 0.1148 0.49836 0.93886 0.0
C2332 C 0.12888 0.52367 0.96699 0.0
C2333 C 0.11791 0.5302 0.95813 0.0
C2334 C 0.10564 0.52092 0.93924 0.0
C2335 C 0.10406 0.50512 0.92973 0.0
C2336 C 0.11911 0.54664 0.96868 0.0
C2337 C 0.12295 0.56104 0.95299 0.0
C2338 C 0.11687 0.54828 0.9941 0.0
C2339 C 0.11204 0.53327 0.01148 0.0
C2340 C 0.09658 0.51649 0.00765 0.0
C2341 C 0.0922 0.50237 0.02401 0.0
C2342 C 0.1031 0.50491 0.04437 0.0
C2343 C 0.11838 0.52159 0.04845 0.0
C2344 C 0.12284 0.53575 0.03213 0.0
C2345 C 0.11078 0.61524 0.99874 0.0
C2346 C 0.12155 0.6241 0.0192 0.0
C2347 C 0.11111 0.60059 0.98831 0.0
C2348 C 0.12239 0.59466 0.99791 0.0
C2349 C 0.13328 0.60359 0.0182 0.0
C2350 C 0.13288 0.61818 0.02875 0.0
C2351 C 0.12226 0.57868 0.98744 0.0
C2352 C 0.1186 0.56432 0.00315 0.0
C2353 C 0.12472 0.57712 0.96205 0.0
C2354 C 0.12966 0.59219 0.94472 0.0
C2355 C 0.14476 0.60913 0.94918 0.0
C2356 C 0.14928 0.6233 0.93287 0.0
C2357 C 0.13887 0.62067 0.91193 0.0
C2358 C 0.12394 0.60385 0.90723 0.0
C2359 C 0.11935 0.58963 0.9235 0.0
H2360 H 0.14239 0.63166 0.89933 0.0
H2361 H 0.09968 0.49396 0.05701 0.0
H2362 H 0.49421 0.12319 0.52688 0.0
H2363 H 0.51919 0.12149 0.5086 0.0
H2364 H 0.51886 0.08913 0.56928 0.0
H2365 H 0.4938 0.0908 0.58786 0.0
H2366 H 0.55283 0.11647 0.55782 0.0
H2367 H 0.50263 0.0695 0.51552 0.0
H2368 H 0.4745 0.05584 0.49171 0.0
H2369 H 0.50124 0.09284 0.43274 0.0
H2370 H 0.52948 0.10691 0.45634 0.0
H2371 H 0.61457 0.09592 0.50029 0.0
H2372 H 0.58768 0.09291 0.51997 0.0
H2373 H 0.58145 0.12272 0.46086 0.0
H2374 H 0.60814 0.12554 0.44084 0.0
H2375 H 0.54989 0.09419 0.47295 0.0
H2376 H 0.59925 0.14253 0.516 0.0
H2377 H 0.62743 0.15687 0.53972 0.0
H2378 H 0.60231 0.11794 0.59711 0.0
H2379 H 0.57403 0.10321 0.57355 0.0
C2380 C 0.49939 0.11566 0.53636 0.0
C2381 C 0.49199 0.10709 0.55881 0.0
C2382 C 0.51362 0.11464 0.52581 0.0
C2383 C 0.52072 0.10502 0.53746 0.0
C2384 C 0.5135 0.09657 0.55997 0.0
C2385 C 0.49917 0.0975 0.57051 0.0
C2386 C 0.53598 0.10422 0.52628 0.0
C2387 C 0.55211 0.1113 0.53943 0.0
C2388 C 0.5351 0.09782 0.5021 0.0
C2389 C 0.51814 0.08935 0.4878 0.0
C2390 C 0.50248 0.07482 0.49755 0.0
C2391 C 0.48652 0.06699 0.48408 0.0
C2392 C 0.48607 0.0735 0.46075 0.0
C2393 C 0.5016 0.08783 0.45082 0.0
C2394 C 0.5176 0.09572 0.46423 0.0
C2395 C 0.60747 0.10181 0.49145 0.0
C2396 C 0.61355 0.11106 0.46907 0.0
C2397 C 0.59213 0.10013 0.50276 0.0
C2398 C 0.5827 0.10778 0.49202 0.0
C2399 C 0.58855 0.11673 0.46947 0.0
C2400 C 0.60384 0.11837 0.4581 0.0
C2401 C 0.56683 0.10667 0.50436 0.0
C2402 C 0.55057 0.09922 0.49142 0.0
C2403 C 0.56762 0.1128 0.52869 0.0
C2404 C 0.58459 0.12165 0.54289 0.0
C2405 C 0.59978 0.13694 0.53358 0.0
C2406 C 0.61576 0.14515 0.54701 0.0
C2407 C 0.61668 0.13829 0.56987 0.0
C2408 C 0.60159 0.12322 0.57938 0.0
C2409 C 0.58558 0.11494 0.566 0.0
H2410 H 0.62906 0.14467 0.58025 0.0
H2411 H 0.4737 0.06741 0.45034 0.0
H2412 H 0.51146 0.37978 0.05272 0.0
H2413 H 0.53717 0.40499 0.03299 0.0
H2414 H 0.50553 0.39725 0.96791 0.0
H2415 H 0.47979 0.37178 0.98736 0.0
H2416 H 0.53856 0.40388 0.95614 0.0
H2417 H 0.51352 0.43049 0.00844 0.0
H2418 H 0.5022 0.43588 0.04721 0.0
H2419 H 0.55377 0.45494 0.08069 0.0
H2420 H 0.56534 0.44942 0.04219 0.0
H2421 H 0.59558 0.49015 0.90344 0.0
H2422 H 0.57005 0.4637 0.9216 0.0
H2423 H 0.60212 0.46836 0.98501 0.0
H2424 H 0.6277 0.49479 0.96703 0.0
H2425 H 0.56874 0.46335 0.99713 0.0
H2426 H 0.59362 0.43675 0.94403 0.0
H2427 H 0.60464 0.43169 0.90477 0.0
H2428 H 0.55287 0.41309 0.87217 0.0
H2429 H 0.5416 0.41829 0.91117 0.0
C2430 C 0.50996 0.38339 0.03418 0.0
C2431 C 0.49354 0.37384 0.02165 0.0
C2432 C 0.52466 0.39785 0.02296 0.0
C2433 C 0.52319 0.40316 0.99912 0.0
C2434 C 0.50694 0.3934 0.98635 0.0
C2435 C 0.49224 0.37888 0.99752 0.0
C2436 C 0.53854 0.41903 0.98764 0.0
C2437 C 0.54501 0.41694 0.96494 0.0
C2438 C 0.54714 0.43599 -0.00067 0.0
C2439 C 0.54024 0.43937 0.0225 0.0
C2440 C 0.52241 0.4357 0.02412 0.0
C2441 C 0.51595 0.4388 0.04604 0.0
C2442 C 0.52724 0.4457 0.06642 0.0
C2443 C 0.54503 0.44956 0.0649 0.0
C2444 C 0.55155 0.44647 0.04303 0.0
C2445 C 0.59721 0.48553 0.92123 0.0
C2446 C 0.61366 0.49455 0.93379 0.0
C2447 C 0.58264 0.47038 0.93152 0.0
C2448 C 0.58426 0.46404 0.95456 0.0
C2449 C 0.60062 0.47306 0.9672 0.0
C2450 C 0.61523 0.48811 0.95685 0.0
C2451 C 0.56878 0.44817 0.96574 0.0
C2452 C 0.56228 0.45028 0.98836 0.0
C2453 C 0.56009 0.43128 0.9539 0.0
C2454 C 0.56682 0.42809 0.93045 0.0
C2455 C 0.58463 0.43173 0.92843 0.0
C2456 C 0.59091 0.42881 0.90624 0.0
C2457 C 0.57948 0.42212 0.88597 0.0
C2458 C 0.56172 0.41829 0.88788 0.0
C2459 C 0.55537 0.42121 0.91003 0.0
H2460 H 0.58437 0.41986 0.8688 0.0
H2461 H 0.52222 0.44809 0.08337 0.0
H2462 H 0.1431 0.62987 0.44684 0.0
H2463 H 0.14325 0.60385 0.46446 0.0
H2464 H 0.11246 0.60495 0.52627 0.0
H2465 H 0.11268 0.6313 0.50909 0.0
H2466 H 0.13741 0.59761 0.5412 0.0
H2467 H 0.09249 0.5757 0.47809 0.0
H2468 H 0.08069 0.57414 0.43635 0.0
H2469 H 0.11788 0.55925 0.40758 0.0
H2470 H 0.13008 0.56098 0.44912 0.0
H2471 H 0.10309 0.50763 0.58141 0.0
H2472 H 0.10617 0.53559 0.56549 0.0
H2473 H 0.13998 0.53555 0.50707 0.0
H2474 H 0.13688 0.50751 0.52274 0.0
H2475 H 0.11413 0.54251 0.49047 0.0
H2476 H 0.15823 0.5636 0.55485 0.0
H2477 H 0.16915 0.56478 0.59704 0.0
H2478 H 0.13222 0.5806 0.62402 0.0
H2479 H 0.1209 0.57926 0.58201 0.0
C2480 C 0.13647 0.62466 0.46428 0.0
C2481 C 0.12777 0.63256 0.4765 0.0
C2482 C 0.13651 0.60974 0.47427 0.0
C2483 C 0.12758 0.60225 0.49646 0.0
C2484 C 0.11939 0.61047 0.50909 0.0
C2485 C 0.1195 0.62551 0.49922 0.0
C2486 C 0.12635 0.58556 0.50614 0.0
C2487 C 0.13214 0.58551 0.53021 0.0
C2488 C 0.11973 0.56985 0.49165 0.0
C2489 C 0.11231 0.56865 0.46668 0.0
C2490 C 0.09823 0.57222 0.46283 0.0
C2491 C 0.09146 0.57129 0.43922 0.0
C2492 C 0.09857 0.56665 0.41931 0.0
C2493 C 0.11241 0.56287 0.423 0.0
C2494 C 0.11925 0.56381 0.44658 0.0
C2495 C 0.11121 0.51357 0.5652 0.0
C2496 C 0.11975 0.50536 0.55335 0.0
C2497 C 0.11301 0.52959 0.5562 0.0
C2498 C 0.12344 0.53771 0.53525 0.0
C2499 C 0.1319 0.5295 0.5233 0.0
C2500 C 0.13014 0.51351 0.53231 0.0
C2501 C 0.12521 0.55458 0.52549 0.0
C2502 C 0.11947 0.55465 0.50142 0.0
C2503 C 0.13173 0.57024 0.54005 0.0
C2504 C 0.1386 0.57117 0.56531 0.0
C2505 C 0.15234 0.56719 0.5698 0.0
C2506 C 0.15862 0.56792 0.59368 0.0
C2507 C 0.15135 0.57272 0.61321 0.0
C2508 C 0.13782 0.57686 0.60888 0.0
C2509 C 0.13148 0.57614 0.58504 0.0
H2510 H 0.15623 0.57327 0.63168 0.0
H2511 H 0.09331 0.56594 0.40104 0.0
H2512 H 0.62137 0.11284 0.00948 0.0
H2513 H 0.59589 0.11102 0.98722 0.0
H2514 H 0.58234 0.13229 0.05019 0.0
H2515 H 0.60772 0.134 0.07274 0.0
H2516 H 0.55294 0.10382 0.03028 0.0
H2517 H 0.60325 0.15879 0.0017 0.0
H2518 H 0.63331 0.17774 0.98386 0.0
H2519 H 0.61659 0.14657 0.91759 0.0
H2520 H 0.58649 0.12726 0.93518 0.0
H2521 H 0.49579 0.13062 0.9754 0.0
H2522 H 0.52084 0.13033 0.9959 0.0
H2523 H 0.53037 0.10727 0.93134 0.0
H2524 H 0.50525 0.10754 0.91054 0.0
H2525 H 0.56151 0.13534 0.95085 0.0
H2526 H 0.51073 0.08106 0.97904 0.0
H2527 H 0.48066 0.06237 0.99696 0.0
H2528 H 0.49823 0.09246 0.06406 0.0
H2529 H 0.52835 0.11152 0.0464 0.0
C2530 C 0.61298 0.11712 0.01863 0.0
C2531 C 0.61661 0.12363 0.04286 0.0
C2532 C 0.59845 0.11613 0.00584 0.0
C2533 C 0.58735 0.1217 0.01698 0.0
C2534 C 0.59078 0.12795 0.04127 0.0
C2535 C 0.60532 0.12897 0.05408 0.0
C2536 C 0.57215 0.121 0.0033 0.0
C2537 C 0.55483 0.11088 0.01306 0.0
C2538 C 0.57461 0.12984 0.98051 0.0
C2539 C 0.59268 0.14146 0.96986 0.0
C2540 C 0.60603 0.15588 0.9834 0.0
C2541 C 0.62307 0.1667 0.97332 0.0
C2542 C 0.62687 0.16333 0.94964 0.0
C2543 C 0.61363 0.14915 0.93595 0.0
C2544 C 0.59658 0.13827 0.94596 0.0
C2545 C 0.50319 0.12547 0.96551 0.0
C2546 C 0.49849 0.11904 0.94135 0.0
C2547 C 0.51745 0.12526 0.97731 0.0
C2548 C 0.5273 0.1186 0.96522 0.0
C2549 C 0.52286 0.11241 0.94098 0.0
C2550 C 0.5085 0.11253 0.92917 0.0
C2551 C 0.54233 0.11829 0.97795 0.0
C2552 C 0.55962 0.12821 0.96801 0.0
C2553 C 0.53985 0.1093 0.00059 0.0
C2554 C 0.52176 0.09783 0.01131 0.0
C2555 C 0.50814 0.0838 0.99754 0.0
C2556 C 0.4911 0.07311 0.00767 0.0
C2557 C 0.48753 0.07625 0.03161 0.0
C2558 C 0.50101 0.09006 0.0455 0.0
C2559 C 0.51808 0.1008 0.03545 0.0
H2560 H 0.47432 0.06796 0.03942 0.0
H2561 H 0.64007 0.17173 0.94186 0.0
H2562 H 0.48385 0.62368 0.54954 0.0
H2563 H 0.45773 0.59851 0.53028 0.0
H2564 H 0.49234 0.58325 0.49307 0.0
H2565 H 0.51853 0.60853 0.51191 0.0
H2566 H 0.46753 0.58235 0.4624 0.0
H2567 H 0.46803 0.56023 0.5433 0.0
H2568 H 0.46848 0.56091 0.58855 0.0
H2569 H 0.41877 0.56126 0.58924 0.0
H2570 H 0.41815 0.56083 0.54396 0.0
H2571 H 0.40246 0.49419 0.42619 0.0
H2572 H 0.42799 0.52047 0.44446 0.0
H2573 H 0.3919 0.53408 0.481 0.0
H2574 H 0.36627 0.50764 0.46314 0.0
H2575 H 0.41707 0.53633 0.51184 0.0
H2576 H 0.41613 0.55763 0.43088 0.0
H2577 H 0.41562 0.55677 0.38563 0.0
H2578 H 0.46608 0.55793 0.38497 0.0
H2579 H 0.46677 0.55853 0.43025 0.0
C2580 C 0.48591 0.61494 0.53731 0.0
C2581 C 0.50327 0.61808 0.53231 0.0
C2582 C 0.47096 0.60054 0.52637 0.0
C2583 C 0.47309 0.58891 0.51043 0.0
C2584 C 0.4904 0.59206 0.50532 0.0
C2585 C 0.50535 0.60649 0.51618 0.0
C2586 C 0.45729 0.57352 0.49891 0.0
C2587 C 0.45659 0.57216 0.47321 0.0
C2588 C 0.44283 0.56049 0.51301 0.0
C2589 C 0.44314 0.56068 0.54024 0.0
C2590 C 0.45727 0.56059 0.5531 0.0
C2591 C 0.45754 0.56091 0.57875 0.0
C2592 C 0.44369 0.56118 0.59176 0.0
C2593 C 0.4295 0.56108 0.57914 0.0
C2594 C 0.42918 0.56078 0.55348 0.0
C2595 C 0.39994 0.50282 0.43801 0.0
C2596 C 0.38233 0.49883 0.44321 0.0
C2597 C 0.41456 0.51788 0.44836 0.0
C2598 C 0.41185 0.52933 0.4639 0.0
C2599 C 0.39429 0.52542 0.46905 0.0
C2600 C 0.37966 0.51033 0.45877 0.0
C2601 C 0.42733 0.54511 0.47533 0.0
C2602 C 0.42797 0.54654 0.50102 0.0
C2603 C 0.44174 0.55821 0.46121 0.0
C2604 C 0.44141 0.55796 0.43397 0.0
C2605 C 0.42705 0.55756 0.42109 0.0
C2606 C 0.42674 0.55715 0.39544 0.0
C2607 C 0.44079 0.55725 0.38244 0.0
C2608 C 0.4552 0.55783 0.39507 0.0
C2609 C 0.45556 0.55822 0.42073 0.0
H2610 H 0.44052 0.55693 0.36258 0.0
H2611 H 0.44393 0.56142 0.61163 0.0
H2612 H 0.91797 0.40221 0.97328 0.0
H2613 H 0.91734 0.42714 0.99386 0.0
H2614 H 0.8599 0.40044 0.98482 0.0
H2615 H 0.8604 0.37551 0.96404 0.0
H2616 H 0.87593 0.43583 0.97291 0.0
H2617 H 0.8776 0.40034 0.03978 0.0
H2618 H 0.88943 0.38414 0.06359 0.0
H2619 H 0.93957 0.43304 0.073 0.0
H2620 H 0.92812 0.4495 0.04893 0.0
H2621 H 0.85812 0.48916 0.05363 0.0
H2622 H 0.85876 0.46371 0.03488 0.0
H2623 H 0.91596 0.48988 0.04634 0.0
H2624 H 0.91541 0.51528 0.06558 0.0
H2625 H 0.90021 0.45477 0.05705 0.0
H2626 H 0.89878 0.49029 0.99014 0.0
H2627 H 0.88713 0.50663 0.96627 0.0
H2628 H 0.83688 0.45789 0.95666 0.0
H2629 H 0.84815 0.44129 0.98077 0.0
C2630 C 0.9052 0.40164 0.97563 0.0
C2631 C 0.88923 0.38685 0.96707 0.0
C2632 C 0.90486 0.41586 0.9875 0.0
C2633 C 0.88855 0.41553 0.99109 0.0
C2634 C 0.87262 0.40093 0.98227 0.0
C2635 C 0.87294 0.38668 0.97045 0.0
C2636 C 0.88811 0.43051 0.00388 0.0
C2637 C 0.88101 0.43983 0.99143 0.0
C2638 C 0.89516 0.43597 0.02781 0.0
C2639 C 0.90206 0.42611 0.04234 0.0
C2640 C 0.8912 0.40761 0.04675 0.0
C2641 C 0.89783 0.39839 0.06032 0.0
C2642 C 0.91526 0.40755 0.06974 0.0
C2643 C 0.92608 0.42596 0.06566 0.0
C2644 C 0.91952 0.43525 0.05207 0.0
C2645 C 0.87084 0.48948 0.05229 0.0
C2646 C 0.88674 0.50429 0.06096 0.0
C2647 C 0.87118 0.47495 0.04147 0.0
C2648 C 0.88745 0.47504 0.03885 0.0
C2649 C 0.90327 0.48957 0.04811 0.0
C2650 C 0.90293 0.50409 0.05906 0.0
C2651 C 0.88799 0.46009 0.0261 0.0
C2652 C 0.89513 0.45078 0.03854 0.0
C2653 C 0.88102 0.45466 0.00212 0.0
C2654 C 0.87425 0.46458 0.98746 0.0
C2655 C 0.8852 0.48308 0.98309 0.0
C2656 C 0.87867 0.49238 0.96949 0.0
C2657 C 0.86126 0.48331 0.96001 0.0
C2658 C 0.85035 0.4649 0.96404 0.0
C2659 C 0.85681 0.45554 0.97765 0.0
H2660 H 0.85623 0.49054 0.94949 0.0
H2661 H 0.92036 0.40038 0.08025 0.0
H2662 H 0.4947 0.89761 0.4198 0.0
H2663 H 0.47052 0.89793 0.44288 0.0
H2664 H 0.48381 0.87681 0.50633 0.0
H2665 H 0.50746 0.8757 0.48296 0.0
H2666 H 0.44977 0.86073 0.5025 0.0
H2667 H 0.49538 0.92243 0.50067 0.0
H2668 H 0.51784 0.95113 0.48218 0.0
H2669 H 0.47649 0.95313 0.4406 0.0
H2670 H 0.4538 0.92431 0.45861 0.0
H2671 H 0.40021 0.88348 0.58686 0.0
H2672 H 0.42562 0.88426 0.56535 0.0
H2673 H 0.40501 0.89072 0.4963 0.0
H2674 H 0.37945 0.88966 0.51753 0.0
H2675 H 0.44322 0.91484 0.50472 0.0
H2676 H 0.39796 0.85178 0.50768 0.0
H2677 H 0.37644 0.82385 0.5288 0.0
H2678 H 0.41916 0.82593 0.57204 0.0
H2679 H 0.44091 0.85403 0.5514 0.0
C2680 C 0.49246 0.89305 0.43868 0.0
C2681 C 0.50299 0.88668 0.4496 0.0
C2682 C 0.4787 0.89334 0.45192 0.0
C2683 C 0.47553 0.88772 0.47654 0.0
C2684 C 0.48599 0.88124 0.48739 0.0
C2685 C 0.49952 0.88063 0.47402 0.0
C2686 C 0.46111 0.88826 0.49084 0.0
C2687 C 0.44856 0.87268 0.50325 0.0
C2688 C 0.45932 0.90376 0.49167 0.0
C2689 C 0.47292 0.92112 0.48082 0.0
C2690 C 0.49109 0.92892 0.48745 0.0
C2691 C 0.50386 0.94522 0.47708 0.0
C2692 C 0.4986 0.95393 0.46018 0.0
C2693 C 0.48055 0.94637 0.45367 0.0
C2694 C 0.46772 0.93005 0.46397 0.0
C2695 C 0.40114 0.88514 0.56712 0.0
C2696 C 0.38782 0.88644 0.55386 0.0
C2697 C 0.41562 0.88554 0.55488 0.0
C2698 C 0.4171 0.88749 0.52928 0.0
C2699 C 0.40406 0.88922 0.51608 0.0
C2700 C 0.38945 0.88853 0.52823 0.0
C2701 C 0.43204 0.88737 0.51612 0.0
C2702 C 0.44462 0.90299 0.50397 0.0
C2703 C 0.43406 0.87205 0.5159 0.0
C2704 C 0.42102 0.85511 0.52819 0.0
C2705 C 0.40274 0.84637 0.52185 0.0
C2706 C 0.39051 0.83049 0.5337 0.0
C2707 C 0.39642 0.82315 0.5518 0.0
C2708 C 0.41459 0.83165 0.55804 0.0
C2709 C 0.42688 0.84754 0.54626 0.0
H2710 H 0.38693 0.81086 0.56096 0.0
H2711 H 0.5085 0.96655 0.45217 0.0
loop_
_geom_bond_atom_site_label_1
_geom_bond_atom_site_label_2
_geom_bond_distance
_geom_bond_site_symmetry_2
_ccdc_geom_bond_type
C0 O1 1.160 . S
C0 O7 1.185 . S
O1 C0 1.160 . S
O2 Zn3 1.899 . S
O2 C10 1.284 . S
Zn3 O2 1.899 . S
Zn3 O4 2.032 . S
Zn3 O7 2.086 . S
Zn3 O12 1.977 . S
O4 Zn3 2.032 . S
O4 C8 1.278 . S
C5 O6 1.203 . S
C5 O12 1.267 . S
O6 C5 1.203 . S
O7 C0 1.185 . S
O7 Zn3 2.086 . S
C8 O4 1.278 . S
C8 O9 1.211 . S
O9 C8 1.211 . S
C10 O2 1.284 . S
C10 O11 1.273 . S
O11 C10 1.273 . S
O12 Zn3 1.977 . S
O12 C5 1.267 . S
C13 O14 1.160 . S
C13 O20 1.185 . S
O14 C13 1.160 . S
O15 Zn16 1.899 . S
O15 C23 1.284 . S
Zn16 O15 1.899 . S
Zn16 O17 2.032 . S
Zn16 O20 2.086 . S
Zn16 O25 1.977 . S
O17 Zn16 2.032 . S
O17 C21 1.278 . S
C18 O19 1.203 . S
C18 O25 1.267 . S
O19 C18 1.203 . S
O20 C13 1.185 . S
O20 Zn16 2.086 . S
C21 O17 1.278 . S
C21 O22 1.211 . S
O22 C21 1.211 . S
C23 O15 1.284 . S
C23 O24 1.273 . S
O24 C23 1.273 . S
O25 Zn16 1.977 . S
O25 C18 1.267 . S
C26 O27 1.160 . S
C26 O33 1.185 . S
O27 C26 1.160 . S
O28 Zn29 1.899 . S
O28 C36 1.284 . S
Zn29 O28 1.899 . S
Zn29 O30 2.032 . S
Zn29 O33 2.086 . S
Zn29 O38 1.977 . S
O30 Zn29 2.032 . S
O30 C34 1.278 . S
C31 O32 1.203 . S
C31 O38 1.267 . S
O32 C31 1.203 . S
O33 C26 1.185 . S
O33 Zn29 2.086 . S
C34 O30 1.278 . S
C34 O35 1.211 . S
O35 C34 1.211 . S
C36 O28 1.284 . S
C36 O37 1.273 . S
O37 C36 1.273 . S
O38 Zn29 1.977 . S
O38 C31 1.267 . S
C39 O40 1.160 . S
C39 O46 1.185 . S
O40 C39 1.160 . S
O41 Zn42 1.899 . S
O41 C49 1.284 . S
Zn42 O41 1.899 . S
Zn42 O43 2.032 . S
Zn42 O46 2.086 . S
Zn42 O51 1.977 . S
O43 Zn42 2.032 . S
O43 C47 1.278 . S
C44 O45 1.203 . S
C44 O51 1.267 . S
O45 C44 1.203 . S
O46 C39 1.185 . S
O46 Zn42 2.086 . S
C47 O43 1.278 . S
C47 O48 1.211 . S
O48 C47 1.211 . S
C49 O41 1.284 . S
C49 O50 1.273 . S
O50 C49 1.273 . S
O51 Zn42 1.977 . S
O51 C44 1.267 . S
C52 O53 1.160 . S
C52 O59 1.185 . S
O53 C52 1.160 . S
O54 Zn55 1.899 . S
O54 C62 1.284 . S
Zn55 O54 1.899 . S
Zn55 O56 2.032 . S
Zn55 O59 2.086 . S
Zn55 O64 1.977 . S
O56 Zn55 2.032 . S
O56 C60 1.278 . S
C57 O58 1.203 . S
C57 O64 1.267 . S
O58 C57 1.203 . S
O59 C52 1.185 . S
O59 Zn55 2.086 . S
C60 O56 1.278 . S
C60 O61 1.211 . S
O61 C60 1.211 . S
C62 O54 1.284 . S
C62 O63 1.273 . S
O63 C62 1.273 . S
O64 Zn55 1.977 . S
O64 C57 1.267 . S
C65 O66 1.160 . S
C65 O72 1.185 . S
O66 C65 1.160 . S
O67 Zn68 1.899 . S
O67 C75 1.284 . S
Zn68 O67 1.899 . S
Zn68 O69 2.032 . S
Zn68 O72 2.086 . S
Zn68 O77 1.977 . S
O69 Zn68 2.032 . S
O69 C73 1.278 . S
C70 O71 1.203 . S
C70 O77 1.267 . S
O71 C70 1.203 . S
O72 C65 1.185 . S
O72 Zn68 2.086 . S
C73 O69 1.278 . S
C73 O74 1.211 . S
O74 C73 1.211 . S
C75 O67 1.284 . S
C75 O76 1.273 . S
O76 C75 1.273 . S
O77 Zn68 1.977 . S
O77 C70 1.267 . S
C78 O79 1.160 . S
C78 O85 1.185 . S
O79 C78 1.160 . S
O80 Zn81 1.899 . S
O80 C88 1.284 . S
Zn81 O80 1.899 . S
Zn81 O82 2.032 . S
Zn81 O85 2.086 . S
Zn81 O90 1.977 . S
O82 Zn81 2.032 . S
O82 C86 1.278 . S
C83 O84 1.203 . S
C83 O90 1.267 . S
O84 C83 1.203 . S
O85 C78 1.185 . S
O85 Zn81 2.086 . S
C86 O82 1.278 . S
C86 O87 1.211 . S
O87 C86 1.211 . S
C88 O80 1.284 . S
C88 O89 1.273 . S
O89 C88 1.273 . S
O90 Zn81 1.977 . S
O90 C83 1.267 . S
C91 O92 1.160 . S
C91 O98 1.185 . S
O92 C91 1.160 . S
O93 Zn94 1.899 . S
O93 C101 1.284 . S
Zn94 O93 1.899 . S
Zn94 O95 2.032 . S
Zn94 O98 2.086 . S
Zn94 O103 1.977 . S
O95 Zn94 2.032 . S
O95 C99 1.278 . S
C96 O97 1.203 . S
C96 O103 1.267 . S
O97 C96 1.203 . S
O98 C91 1.185 . S
O98 Zn94 2.086 . S
C99 O95 1.278 . S
C99 O100 1.211 . S
O100 C99 1.211 . S
C101 O93 1.284 . S
C101 O102 1.273 . S
O102 C101 1.273 . S
O103 Zn94 1.977 . S
O103 C96 1.267 . S
C104 O105 1.160 . S
C104 O111 1.185 . S
O105 C104 1.160 . S
O106 Zn107 1.899 . S
O106 C114 1.284 . S
Zn107 O106 1.899 . S
Zn107 O108 2.032 . S
Zn107 O111 2.086 . S
Zn107 O116 1.977 . S
O108 Zn107 2.032 . S
O108 C112 1.278 . S
C109 O110 1.203 . S
C109 O116 1.267 . S
O110 C109 1.203 . S
O111 C104 1.185 . S
O111 Zn107 2.086 . S
C112 O108 1.278 . S
C112 O113 1.211 . S
O113 C112 1.211 . S
C114 O106 1.284 . S
C114 O115 1.273 . S
O115 C114 1.273 . S
O116 Zn107 1.977 . S
O116 C109 1.267 . S
C117 O118 1.160 . S
C117 O124 1.185 . S
O118 C117 1.160 . S
O119 Zn120 1.899 . S
O119 C127 1.284 . S
Zn120 O119 1.899 . S
Zn120 O121 2.032 . S
Zn120 O124 2.086 . S
Zn120 O129 1.977 . S
O121 Zn120 2.032 . S
O121 C125 1.278 . S
C122 O123 1.203 . S
C122 O129 1.267 . S
O123 C122 1.203 . S
O124 C117 1.185 . S
O124 Zn120 2.086 . S
C125 O121 1.278 . S
C125 O126 1.211 . S
O126 C125 1.211 . S
C127 O119 1.284 . S
C127 O128 1.273 . S
O128 C127 1.273 . S
O129 Zn120 1.977 . S
O129 C122 1.267 . S
C130 O131 1.160 . S
C130 O137 1.185 . S
O131 C130 1.160 . S
O132 Zn133 1.899 . S
O132 C140 1.284 . S
Zn133 O132 1.899 . S
Zn133 O134 2.032 . S
Zn133 O137 2.086 . S
Zn133 O142 1.977 . S
O134 Zn133 2.032 . S
O134 C138 1.278 . S
C135 O136 1.203 . S
C135 O142 1.267 . S
O136 C135 1.203 . S
O137 C130 1.185 . S
O137 Zn133 2.086 . S
C138 O134 1.278 . S
C138 O139 1.211 . S
O139 C138 1.211 . S
C140 O132 1.284 . S
C140 O141 1.273 . S
O141 C140 1.273 . S
O142 Zn133 1.977 . S
O142 C135 1.267 . S
C143 O144 1.160 . S
C143 O150 1.185 . S
O144 C143 1.160 . S
O145 Zn146 1.899 . S
O145 C153 1.284 . S
Zn146 O145 1.899 . S
Zn146 O147 2.032 . S
Zn146 O150 2.086 . S
Zn146 O155 1.977 . S
O147 Zn146 2.032 . S
O147 C151 1.278 . S
C148 O149 1.203 . S
C148 O155 1.267 . S
O149 C148 1.203 . S
O150 C143 1.185 . S
O150 Zn146 2.086 . S
C151 O147 1.278 . S
C151 O152 1.211 . S
O152 C151 1.211 . S
C153 O145 1.284 . S
C153 O154 1.273 . S
O154 C153 1.273 . S
O155 Zn146 1.977 . S
O155 C148 1.267 . S
C156 O157 1.160 . S
C156 O163 1.185 . S
O157 C156 1.160 . S
O158 Zn159 1.899 . S
O158 C166 1.284 . S
Zn159 O158 1.899 . S
Zn159 O160 2.032 . S
Zn159 O163 2.086 . S
Zn159 O168 1.977 . S
O160 Zn159 2.032 . S
O160 C164 1.278 . S
C161 O162 1.203 . S
C161 O168 1.267 . S
O162 C161 1.203 . S
O163 C156 1.185 . S
O163 Zn159 2.086 . S
C164 O160 1.278 . S
C164 O165 1.211 . S
O165 C164 1.211 . S
C166 O158 1.284 . S
C166 O167 1.273 . S
O167 C166 1.273 . S
O168 Zn159 1.977 . S
O168 C161 1.267 . S
C169 O170 1.160 . S
C169 O176 1.185 . S
O170 C169 1.160 . S
O171 Zn172 1.899 . S
O171 C179 1.284 . S
Zn172 O171 1.899 . S
Zn172 O173 2.032 . S
Zn172 O176 2.086 . S
Zn172 O181 1.977 . S
O173 Zn172 2.032 . S
O173 C177 1.278 . S
C174 O175 1.203 . S
C174 O181 1.267 . S
O175 C174 1.203 . S
O176 C169 1.185 . S
O176 Zn172 2.086 . S
C177 O173 1.278 . S
C177 O178 1.211 . S
O178 C177 1.211 . S
C179 O171 1.284 . S
C179 O180 1.273 . S
O180 C179 1.273 . S
O181 Zn172 1.977 . S
O181 C174 1.267 . S
C182 O183 1.160 . S
C182 O189 1.185 . S
O183 C182 1.160 . S
O184 Zn185 1.899 . S
O184 C192 1.284 . S
Zn185 O184 1.899 . S
Zn185 O186 2.032 . S
Zn185 O189 2.086 . S
Zn185 O194 1.977 . S
O186 Zn185 2.032 . S
O186 C190 1.278 . S
C187 O188 1.203 . S
C187 O194 1.267 . S
O188 C187 1.203 . S
O189 C182 1.185 . S
O189 Zn185 2.086 . S
C190 O186 1.278 . S
C190 O191 1.211 . S
O191 C190 1.211 . S
C192 O184 1.284 . S
C192 O193 1.273 . S
O193 C192 1.273 . S
O194 Zn185 1.977 . S
O194 C187 1.267 . S
C195 O196 1.160 . S
C195 O202 1.185 . S
O196 C195 1.160 . S
O197 Zn198 1.899 . S
O197 C205 1.284 . S
Zn198 O197 1.899 . S
Zn198 O199 2.032 . S
Zn198 O202 2.086 . S
Zn198 O207 1.977 . S
O199 Zn198 2.032 . S
O199 C203 1.278 . S
C200 O201 1.203 . S
C200 O207 1.267 . S
O201 C200 1.203 . S
O202 C195 1.185 . S
O202 Zn198 2.086 . S
C203 O199 1.278 . S
C203 O204 1.211 . S
O204 C203 1.211 . S
C205 O197 1.284 . S
C205 O206 1.273 . S
O206 C205 1.273 . S
O207 Zn198 1.977 . S
O207 C200 1.267 . S
C208 O209 1.160 . S
C208 O215 1.185 . S
O209 C208 1.160 . S
O210 Zn211 1.899 . S
O210 C218 1.284 . S
Zn211 O210 1.899 . S
Zn211 O212 2.032 . S
Zn211 O215 2.086 . S
Zn211 O220 1.977 . S
O212 Zn211 2.032 . S
O212 C216 1.278 . S
C213 O214 1.203 . S
C213 O220 1.267 . S
O214 C213 1.203 . S
O215 C208 1.185 . S
O215 Zn211 2.086 . S
C216 O212 1.278 . S
C216 O217 1.211 . S
O217 C216 1.211 . S
C218 O210 1.284 . S
C218 O219 1.273 . S
O219 C218 1.273 . S
O220 Zn211 1.977 . S
O220 C213 1.267 . S
C221 O222 1.160 . S
C221 O228 1.185 . S
O222 C221 1.160 . S
O223 Zn224 1.899 . S
O223 C231 1.284 . S
Zn224 O223 1.899 . S
Zn224 O225 2.032 . S
Zn224 O228 2.086 . S
Zn224 O233 1.977 . S
O225 Zn224 2.032 . S
O225 C229 1.278 . S
C226 O227 1.203 . S
C226 O233 1.267 . S
O227 C226 1.203 . S
O228 C221 1.185 . S
O228 Zn224 2.086 . S
C229 O225 1.278 . S
C229 O230 1.211 . S
O230 C229 1.211 . S
C231 O223 1.284 . S
C231 O232 1.273 . S
O232 C231 1.273 . S
O233 Zn224 1.977 . S
O233 C226 1.267 . S
C234 O235 1.160 . S
C234 O241 1.185 . S
O235 C234 1.160 . S
O236 Zn237 1.899 . S
O236 C244 1.284 . S
Zn237 O236 1.899 . S
Zn237 O238 2.032 . S
Zn237 O241 2.086 . S
Zn237 O246 1.977 . S
O238 Zn237 2.032 . S
O238 C242 1.278 . S
C239 O240 1.203 . S
C239 O246 1.267 . S
O240 C239 1.203 . S
O241 C234 1.185 . S
O241 Zn237 2.086 . S
C242 O238 1.278 . S
C242 O243 1.211 . S
O243 C242 1.211 . S
C244 O236 1.284 . S
C244 O245 1.273 . S
O245 C244 1.273 . S
O246 Zn237 1.977 . S
O246 C239 1.267 . S
C247 O248 1.160 . S
C247 O254 1.185 . S
O248 C247 1.160 . S
O249 Zn250 1.899 . S
O249 C257 1.284 . S
Zn250 O249 1.899 . S
Zn250 O251 2.032 . S
Zn250 O254 2.086 . S
Zn250 O259 1.977 . S
O251 Zn250 2.032 . S
O251 C255 1.278 . S
C252 O253 1.203 . S
C252 O259 1.267 . S
O253 C252 1.203 . S
O254 C247 1.185 . S
O254 Zn250 2.086 . S
C255 O251 1.278 . S
C255 O256 1.211 . S
O256 C255 1.211 . S
C257 O249 1.284 . S
C257 O258 1.273 . S
O258 C257 1.273 . S
O259 Zn250 1.977 . S
O259 C252 1.267 . S
C260 O261 1.160 . S
C260 O267 1.185 . S
O261 C260 1.160 . S
O262 Zn263 1.899 . S
O262 C270 1.284 . S
Zn263 O262 1.899 . S
Zn263 O264 2.032 . S
Zn263 O267 2.086 . S
Zn263 O272 1.977 . S
O264 Zn263 2.032 . S
O264 C268 1.278 . S
C265 O266 1.203 . S
C265 O272 1.267 . S
O266 C265 1.203 . S
O267 C260 1.185 . S
O267 Zn263 2.086 . S
C268 O264 1.278 . S
C268 O269 1.211 . S
O269 C268 1.211 . S
C270 O262 1.284 . S
C270 O271 1.273 . S
O271 C270 1.273 . S
O272 Zn263 1.977 . S
O272 C265 1.267 . S
C273 O274 1.160 . S
C273 O280 1.185 . S
O274 C273 1.160 . S
O275 Zn276 1.899 . S
O275 C283 1.284 . S
Zn276 O275 1.899 . S
Zn276 O277 2.032 . S
Zn276 O280 2.086 . S
Zn276 O285 1.977 . S
O277 Zn276 2.032 . S
O277 C281 1.278 . S
C278 O279 1.203 . S
C278 O285 1.267 . S
O279 C278 1.203 . S
O280 C273 1.185 . S
O280 Zn276 2.086 . S
C281 O277 1.278 . S
C281 O282 1.211 . S
O282 C281 1.211 . S
C283 O275 1.284 . S
C283 O284 1.273 . S
O284 C283 1.273 . S
O285 Zn276 1.977 . S
O285 C278 1.267 . S
C286 O287 1.160 . S
C286 O293 1.185 . S
O287 C286 1.160 . S
O288 Zn289 1.899 . S
O288 C296 1.284 . S
Zn289 O288 1.899 . S
Zn289 O290 2.032 . S
Zn289 O293 2.086 . S
Zn289 O298 1.977 . S
O290 Zn289 2.032 . S
O290 C294 1.278 . S
C291 O292 1.203 . S
C291 O298 1.267 . S
O292 C291 1.203 . S
O293 C286 1.185 . S
O293 Zn289 2.086 . S
C294 O290 1.278 . S
C294 O295 1.211 . S
O295 C294 1.211 . S
C296 O288 1.284 . S
C296 O297 1.273 . S
O297 C296 1.273 . S
O298 Zn289 1.977 . S
O298 C291 1.267 . S
C299 O300 1.160 . S
C299 O306 1.185 . S
O300 C299 1.160 . S
O301 Zn302 1.899 . S
O301 C309 1.284 . S
Zn302 O301 1.899 . S
Zn302 O303 2.032 . S
Zn302 O306 2.086 . S
Zn302 O311 1.977 . S
O303 Zn302 2.032 . S
O303 C307 1.278 . S
C304 O305 1.203 . S
C304 O311 1.267 . S
O305 C304 1.203 . S
O306 C299 1.185 . S
O306 Zn302 2.086 . S
C307 O303 1.278 . S
C307 O308 1.211 . S
O308 C307 1.211 . S
C309 O301 1.284 . S
C309 O310 1.273 . S
O310 C309 1.273 . S
O311 Zn302 1.977 . S
O311 C304 1.267 . S
H312 C330 0.951 . S
H313 C332 0.951 . S
H314 C334 0.950 . S
H315 C335 0.950 . S
H316 C337 0.950 . S
H317 C340 0.950 . S
H318 C341 0.950 . S
H319 C343 0.950 . S
H320 C344 0.950 . S
H321 C345 0.951 . S
H322 C347 0.951 . S
H323 C349 0.950 . S
H324 C350 0.950 . S
H325 C352 0.950 . S
H326 C355 0.950 . S
H327 C356 0.950 . S
H328 C358 0.950 . S
H329 C359 0.950 . S
C330 H312 0.951 . S
C330 C331 1.366 . S
C330 C332 1.388 . S
C331 C330 1.366 . S
C331 C335 1.385 . S
C332 H313 0.951 . S
C332 C330 1.388 . S
C332 C333 1.366 . S
C333 C332 1.366 . S
C333 C334 1.414 . S
C333 C336 1.499 . S
C334 H314 0.950 . S
C334 C333 1.414 . S
C334 C335 1.374 . S
C335 H315 0.950 . S
C335 C331 1.385 . S
C335 C334 1.374 . S
C336 C333 1.499 . S
C336 C337 1.373 . S
C336 C338 1.389 . S
C337 H316 0.950 . S
C337 C336 1.373 . S
C337 C353 1.377 . S
C338 C336 1.389 . S
C338 C339 1.524 . S
C338 C352 1.377 . S
C339 C338 1.524 . S
C339 C340 1.397 . S
C339 C344 1.363 . S
C340 H317 0.950 . S
C340 C339 1.397 . S
C340 C341 1.334 . S
C341 H318 0.950 . S
C341 C340 1.334 . S
C341 C342 1.287 . S
C342 C341 1.287 . S
C342 C343 1.524 . S
C342 H361 0.913 . S
C343 H319 0.950 . S
C343 C342 1.524 . S
C343 C344 1.415 . S
C344 H320 0.950 . S
C344 C339 1.363 . S
C344 C343 1.415 . S
C345 H321 0.951 . S
C345 C346 1.366 . S
C345 C347 1.388 . S
C346 C345 1.366 . S
C346 C350 1.385 . S
C347 H322 0.951 . S
C347 C345 1.388 . S
C347 C348 1.366 . S
C348 C347 1.366 . S
C348 C349 1.414 . S
C348 C351 1.499 . S
C349 H323 0.950 . S
C349 C348 1.414 . S
C349 C350 1.374 . S
C350 H324 0.950 . S
C350 C346 1.385 . S
C350 C349 1.374 . S
C351 C348 1.499 . S
C351 C352 1.373 . S
C351 C353 1.389 . S
C352 H325 0.950 . S
C352 C338 1.377 . S
C352 C351 1.373 . S
C353 C337 1.377 . S
C353 C351 1.389 . S
C353 C354 1.524 . S
C354 C353 1.524 . S
C354 C355 1.397 . S
C354 C359 1.363 . S
C355 H326 0.950 . S
C355 C354 1.397 . S
C355 C356 1.334 . S
C356 H327 0.950 . S
C356 C355 1.334 . S
C356 C357 1.287 . S
C357 C356 1.287 . S
C357 C358 1.524 . S
C357 H360 0.999 . S
C358 H328 0.950 . S
C358 C357 1.524 . S
C358 C359 1.415 . S
C359 H329 0.950 . S
C359 C354 1.363 . S
C359 C358 1.415 . S
H360 C357 0.999 . S
H361 C342 0.913 . S
H362 C380 0.951 . S
H363 C382 0.951 . S
H364 C384 0.950 . S
H365 C385 0.950 . S
H366 C387 0.950 . S
H367 C390 0.950 . S
H368 C391 0.950 . S
H369 C393 0.950 . S
H370 C394 0.950 . S
H371 C395 0.951 . S
H372 C397 0.951 . S
H373 C399 0.950 . S
H374 C400 0.950 . S
H375 C402 0.950 . S
H376 C405 0.950 . S
H377 C406 0.950 . S
H378 C408 0.950 . S
H379 C409 0.950 . S
C380 H362 0.951 . S
C380 C381 1.366 . S
C380 C382 1.388 . S
C381 C380 1.366 . S
C381 C385 1.385 . S
C382 H363 0.951 . S
C382 C380 1.388 . S
C382 C383 1.366 . S
C383 C382 1.366 . S
C383 C384 1.414 . S
C383 C386 1.499 . S
C384 H364 0.950 . S
C384 C383 1.414 . S
C384 C385 1.374 . S
C385 H365 0.950 . S
C385 C381 1.385 . S
C385 C384 1.374 . S
C386 C383 1.499 . S
C386 C387 1.373 . S
C386 C388 1.389 . S
C387 H366 0.950 . S
C387 C386 1.373 . S
C387 C403 1.377 . S
C388 C386 1.389 . S
C388 C389 1.524 . S
C388 C402 1.377 . S
C389 C388 1.524 . S
C389 C390 1.397 . S
C389 C394 1.363 . S
C390 H367 0.950 . S
C390 C389 1.397 . S
C390 C391 1.334 . S
C391 H368 0.950 . S
C391 C390 1.334 . S
C391 C392 1.287 . S
C392 C391 1.287 . S
C392 C393 1.524 . S
C392 H411 0.913 . S
C393 H369 0.950 . S
C393 C392 1.524 . S
C393 C394 1.415 . S
C394 H370 0.950 . S
C394 C389 1.363 . S
C394 C393 1.415 . S
C395 H371 0.951 . S
C395 C396 1.366 . S
C395 C397 1.388 . S
C396 C395 1.366 . S
C396 C400 1.385 . S
C397 H372 0.951 . S
C397 C395 1.388 . S
C397 C398 1.366 . S
C398 C397 1.366 . S
C398 C399 1.414 . S
C398 C401 1.499 . S
C399 H373 0.950 . S
C399 C398 1.414 . S
C399 C400 1.374 . S
C400 H374 0.950 . S
C400 C396 1.385 . S
C400 C399 1.374 . S
C401 C398 1.499 . S
C401 C402 1.373 . S
C401 C403 1.389 . S
C402 H375 0.950 . S
C402 C388 1.377 . S
C402 C401 1.373 . S
C403 C387 1.377 . S
C403 C401 1.389 . S
C403 C404 1.524 . S
C404 C403 1.524 . S
C404 C405 1.397 . S
C404 C409 1.363 . S
C405 H376 0.950 . S
C405 C404 1.397 . S
C405 C406 1.334 . S
C406 H377 0.950 . S
C406 C405 1.334 . S
C406 C407 1.287 . S
C407 C406 1.287 . S
C407 C408 1.524 . S
C407 H410 0.999 . S
C408 H378 0.950 . S
C408 C407 1.524 . S
C408 C409 1.415 . S
C409 H379 0.950 . S
C409 C404 1.363 . S
C409 C408 1.415 . S
H410 C407 0.999 . S
H411 C392 0.913 . S
H412 C430 0.951 . S
H413 C432 0.951 . S
H414 C434 0.950 . S
H415 C435 0.950 . S
H416 C437 0.950 . S
H417 C440 0.950 . S
H418 C441 0.950 . S
H419 C443 0.950 . S
H420 C444 0.950 . S
H421 C445 0.951 . S
H422 C447 0.951 . S
H423 C449 0.950 . S
H424 C450 0.950 . S
H425 C452 0.950 . S
H426 C455 0.950 . S
H427 C456 0.950 . S
H428 C458 0.950 . S
H429 C459 0.950 . S
C430 H412 0.951 . S
C430 C431 1.366 . S
C430 C432 1.388 . S
C431 C430 1.366 . S
C431 C435 1.385 . S
C432 H413 0.951 . S
C432 C430 1.388 . S
C432 C433 1.366 . S
C433 C432 1.366 . S
C433 C434 1.414 . S
C433 C436 1.499 . S
C434 H414 0.950 . S
C434 C433 1.414 . S
C434 C435 1.374 . S
C435 H415 0.950 . S
C435 C431 1.385 . S
C435 C434 1.374 . S
C436 C433 1.499 . S
C436 C437 1.373 . S
C436 C438 1.389 . S
C437 H416 0.950 . S
C437 C436 1.373 . S
C437 C453 1.377 . S
C438 C436 1.389 . S
C438 C439 1.524 . S
C438 C452 1.377 . S
C439 C438 1.524 . S
C439 C440 1.397 . S
C439 C444 1.363 . S
C440 H417 0.950 . S
C440 C439 1.397 . S
C440 C441 1.334 . S
C441 H418 0.950 . S
C441 C440 1.334 . S
C441 C442 1.287 . S
C442 C441 1.287 . S
C442 C443 1.524 . S
C442 H461 0.913 . S
C443 H419 0.950 . S
C443 C442 1.524 . S
C443 C444 1.415 . S
C444 H420 0.950 . S
C444 C439 1.363 . S
C444 C443 1.415 . S
C445 H421 0.951 . S
C445 C446 1.366 . S
C445 C447 1.388 . S
C446 C445 1.366 . S
C446 C450 1.385 . S
C447 H422 0.951 . S
C447 C445 1.388 . S
C447 C448 1.366 . S
C448 C447 1.366 . S
C448 C449 1.414 . S
C448 C451 1.499 . S
C449 H423 0.950 . S
C449 C448 1.414 . S
C449 C450 1.374 . S
C450 H424 0.950 . S
C450 C446 1.385 . S
C450 C449 1.374 . S
C451 C448 1.499 . S
C451 C452 1.373 . S
C451 C453 1.389 . S
C452 H425 0.950 . S
C452 C438 1.377 . S
C452 C451 1.373 . S
C453 C437 1.377 . S
C453 C451 1.389 . S
C453 C454 1.524 . S
C454 C453 1.524 . S
C454 C455 1.397 . S
C454 C459 1.363 . S
C455 H426 0.950 . S
C455 C454 1.397 . S
C455 C456 1.334 . S
C456 H427 0.950 . S
C456 C455 1.334 . S
C456 C457 1.287 . S
C457 C456 1.287 . S
C457 C458 1.524 . S
C457 H460 0.999 . S
C458 H428 0.950 . S
C458 C457 1.524 . S
C458 C459 1.415 . S
C459 H429 0.950 . S
C459 C454 1.363 . S
C459 C458 1.415 . S
H460 C457 0.999 . S
H461 C442 0.913 . S
H462 C480 0.951 . S
H463 C482 0.951 . S
H464 C484 0.950 . S
H465 C485 0.950 . S
H466 C487 0.950 . S
H467 C490 0.950 . S
H468 C491 0.950 . S
H469 C493 0.950 . S
H470 C494 0.950 . S
H471 C495 0.951 . S
H472 C497 0.951 . S
H473 C499 0.950 . S
H474 C500 0.950 . S
H475 C502 0.950 . S
H476 C505 0.950 . S
H477 C506 0.950 . S
H478 C508 0.950 . S
H479 C509 0.950 . S
C480 H462 0.951 . S
C480 C481 1.366 . S
C480 C482 1.388 . S
C481 C480 1.366 . S
C481 C485 1.385 . S
C482 H463 0.951 . S
C482 C480 1.388 . S
C482 C483 1.366 . S
C483 C482 1.366 . S
C483 C484 1.414 . S
C483 C486 1.499 . S
C484 H464 0.950 . S
C484 C483 1.414 . S
C484 C485 1.374 . S
C485 H465 0.950 . S
C485 C481 1.385 . S
C485 C484 1.374 . S
C486 C483 1.499 . S
C486 C487 1.373 . S
C486 C488 1.389 . S
C487 H466 0.950 . S
C487 C486 1.373 . S
C487 C503 1.377 . S
C488 C486 1.389 . S
C488 C489 1.524 . S
C488 C502 1.377 . S
C489 C488 1.524 . S
C489 C490 1.397 . S
C489 C494 1.363 . S
C490 H467 0.950 . S
C490 C489 1.397 . S
C490 C491 1.334 . S
C491 H468 0.950 . S
C491 C490 1.334 . S
C491 C492 1.287 . S
C492 C491 1.287 . S
C492 C493 1.524 . S
C492 H511 0.913 . S
C493 H469 0.950 . S
C493 C492 1.524 . S
C493 C494 1.415 . S
C494 H470 0.950 . S
C494 C489 1.363 . S
C494 C493 1.415 . S
C495 H471 0.951 . S
C495 C496 1.366 . S
C495 C497 1.388 . S
C496 C495 1.366 . S
C496 C500 1.385 . S
C497 H472 0.951 . S
C497 C495 1.388 . S
C497 C498 1.366 . S
C498 C497 1.366 . S
C498 C499 1.414 . S
C498 C501 1.499 . S
C499 H473 0.950 . S
C499 C498 1.414 . S
C499 C500 1.374 . S
C500 H474 0.950 . S
C500 C496 1.385 . S
C500 C499 1.374 . S
C501 C498 1.499 . S
C501 C502 1.373 . S
C501 C503 1.389 . S
C502 H475 0.950 . S
C502 C488 1.377 . S
C502 C501 1.373 . S
C503 C487 1.377 . S
C503 C501 1.389 . S
C503 C504 1.524 . S
C504 C503 1.524 . S
C504 C505 1.397 . S
C504 C509 1.363 . S
C505 H476 0.950 . S
C505 C504 1.397 . S
C505 C506 1.334 . S
C506 H477 0.950 . S
C506 C505 1.334 . S
C506 C507 1.287 . S
C507 C506 1.287 . S
C507 C508 1.524 . S
C507 H510 0.999 . S
C508 H478 0.950 . S
C508 C507 1.524 . S
C508 C509 1.415 . S
C509 H479 0.950 . S
C509 C504 1.363 . S
C509 C508 1.415 . S
H510 C507 0.999 . S
H511 C492 0.913 . S
H512 C530 0.951 . S
H513 C532 0.951 . S
H514 C534 0.950 . S
H515 C535 0.950 . S
H516 C537 0.950 . S
H517 C540 0.950 . S
H518 C541 0.950 . S
H519 C543 0.950 . S
H520 C544 0.950 . S
H521 C545 0.951 . S
H522 C547 0.951 . S
H523 C549 0.950 . S
H524 C550 0.950 . S
H525 C552 0.950 . S
H526 C555 0.950 . S
H527 C556 0.950 . S
H528 C558 0.950 . S
H529 C559 0.950 . S
C530 H512 0.951 . S
C530 C531 1.366 . S
C530 C532 1.388 . S
C531 C530 1.366 . S
C531 C535 1.385 . S
C532 H513 0.951 . S
C532 C530 1.388 . S
C532 C533 1.366 . S
C533 C532 1.366 . S
C533 C534 1.414 . S
C533 C536 1.499 . S
C534 H514 0.950 . S
C534 C533 1.414 . S
C534 C535 1.374 . S
C535 H515 0.950 . S
C535 C531 1.385 . S
C535 C534 1.374 . S
C536 C533 1.499 . S
C536 C537 1.373 . S
C536 C538 1.389 . S
C537 H516 0.950 . S
C537 C536 1.373 . S
C537 C553 1.377 . S
C538 C536 1.389 . S
C538 C539 1.524 . S
C538 C552 1.377 . S
C539 C538 1.524 . S
C539 C540 1.397 . S
C539 C544 1.363 . S
C540 H517 0.950 . S
C540 C539 1.397 . S
C540 C541 1.334 . S
C541 H518 0.950 . S
C541 C540 1.334 . S
C541 C542 1.287 . S
C542 C541 1.287 . S
C542 C543 1.524 . S
C542 H561 0.913 . S
C543 H519 0.950 . S
C543 C542 1.524 . S
C543 C544 1.415 . S
C544 H520 0.950 . S
C544 C539 1.363 . S
C544 C543 1.415 . S
C545 H521 0.951 . S
C545 C546 1.366 . S
C545 C547 1.388 . S
C546 C545 1.366 . S
C546 C550 1.385 . S
C547 H522 0.951 . S
C547 C545 1.388 . S
C547 C548 1.366 . S
C548 C547 1.366 . S
C548 C549 1.414 . S
C548 C551 1.499 . S
C549 H523 0.950 . S
C549 C548 1.414 . S
C549 C550 1.374 . S
C550 H524 0.950 . S
C550 C546 1.385 . S
C550 C549 1.374 . S
C551 C548 1.499 . S
C551 C552 1.373 . S
C551 C553 1.389 . S
C552 H525 0.950 . S
C552 C538 1.377 . S
C552 C551 1.373 . S
C553 C537 1.377 . S
C553 C551 1.389 . S
C553 C554 1.524 . S
C554 C553 1.524 . S
C554 C555 1.397 . S
C554 C559 1.363 . S
C555 H526 0.950 . S
C555 C554 1.397 . S
C555 C556 1.334 . S
C556 H527 0.950 . S
C556 C555 1.334 . S
C556 C557 1.287 . S
C557 C556 1.287 . S
C557 C558 1.524 . S
C557 H560 0.999 . S
C558 H528 0.950 . S
C558 C557 1.524 . S
C558 C559 1.415 . S
C559 H529 0.950 . S
C559 C554 1.363 . S
C559 C558 1.415 . S
H560 C557 0.999 . S
H561 C542 0.913 . S
H562 C580 0.951 . S
H563 C582 0.951 . S
H564 C584 0.950 . S
H565 C585 0.950 . S
H566 C587 0.950 . S
H567 C590 0.950 . S
H568 C591 0.950 . S
H569 C593 0.950 . S
H570 C594 0.950 . S
H571 C595 0.951 . S
H572 C597 0.951 . S
H573 C599 0.950 . S
H574 C600 0.950 . S
H575 C602 0.950 . S
H576 C605 0.950 . S
H577 C606 0.950 . S
H578 C608 0.950 . S
H579 C609 0.950 . S
C580 H562 0.951 . S
C580 C581 1.366 . S
C580 C582 1.388 . S
C581 C580 1.366 . S
C581 C585 1.385 . S
C582 H563 0.951 . S
C582 C580 1.388 . S
C582 C583 1.366 . S
C583 C582 1.366 . S
C583 C584 1.414 . S
C583 C586 1.499 . S
C584 H564 0.950 . S
C584 C583 1.414 . S
C584 C585 1.374 . S
C585 H565 0.950 . S
C585 C581 1.385 . S
C585 C584 1.374 . S
C586 C583 1.499 . S
C586 C587 1.373 . S
C586 C588 1.389 . S
C587 H566 0.950 . S
C587 C586 1.373 . S
C587 C603 1.377 . S
C588 C586 1.389 . S
C588 C589 1.524 . S
C588 C602 1.377 . S
C589 C588 1.524 . S
C589 C590 1.397 . S
C589 C594 1.363 . S
C590 H567 0.950 . S
C590 C589 1.397 . S
C590 C591 1.334 . S
C591 H568 0.950 . S
C591 C590 1.334 . S
C591 C592 1.287 . S
C592 C591 1.287 . S
C592 C593 1.524 . S
C592 H611 0.913 . S
C593 H569 0.950 . S
C593 C592 1.524 . S
C593 C594 1.415 . S
C594 H570 0.950 . S
C594 C589 1.363 . S
C594 C593 1.415 . S
C595 H571 0.951 . S
C595 C596 1.366 . S
C595 C597 1.388 . S
C596 C595 1.366 . S
C596 C600 1.385 . S
C597 H572 0.951 . S
C597 C595 1.388 . S
C597 C598 1.366 . S
C598 C597 1.366 . S
C598 C599 1.414 . S
C598 C601 1.499 . S
C599 H573 0.950 . S
C599 C598 1.414 . S
C599 C600 1.374 . S
C600 H574 0.950 . S
C600 C596 1.385 . S
C600 C599 1.374 . S
C601 C598 1.499 . S
C601 C602 1.373 . S
C601 C603 1.389 . S
C602 H575 0.950 . S
C602 C588 1.377 . S
C602 C601 1.373 . S
C603 C587 1.377 . S
C603 C601 1.389 . S
C603 C604 1.524 . S
C604 C603 1.524 . S
C604 C605 1.397 . S
C604 C609 1.363 . S
C605 H576 0.950 . S
C605 C604 1.397 . S
C605 C606 1.334 . S
C606 H577 0.950 . S
C606 C605 1.334 . S
C606 C607 1.287 . S
C607 C606 1.287 . S
C607 C608 1.524 . S
C607 H610 0.999 . S
C608 H578 0.950 . S
C608 C607 1.524 . S
C608 C609 1.415 . S
C609 H579 0.950 . S
C609 C604 1.363 . S
C609 C608 1.415 . S
H610 C607 0.999 . S
H611 C592 0.913 . S
H612 C630 0.951 . S
H613 C632 0.951 . S
H614 C634 0.950 . S
H615 C635 0.950 . S
H616 C637 0.950 . S
H617 C640 0.950 . S
H618 C641 0.950 . S
H619 C643 0.950 . S
H620 C644 0.950 . S
H621 C645 0.951 . S
H622 C647 0.951 . S
H623 C649 0.950 . S
H624 C650 0.950 . S
H625 C652 0.950 . S
H626 C655 0.950 . S
H627 C656 0.950 . S
H628 C658 0.950 . S
H629 C659 0.950 . S
C630 H612 0.951 . S
C630 C631 1.366 . S
C630 C632 1.388 . S
C631 C630 1.366 . S
C631 C635 1.385 . S
C632 H613 0.951 . S
C632 C630 1.388 . S
C632 C633 1.366 . S
C633 C632 1.366 . S
C633 C634 1.414 . S
C633 C636 1.499 . S
C634 H614 0.950 . S
C634 C633 1.414 . S
C634 C635 1.374 . S
C635 H615 0.950 . S
C635 C631 1.385 . S
C635 C634 1.374 . S
C636 C633 1.499 . S
C636 C637 1.373 . S
C636 C638 1.389 . S
C637 H616 0.950 . S
C637 C636 1.373 . S
C637 C653 1.377 . S
C638 C636 1.389 . S
C638 C639 1.524 . S
C638 C652 1.377 . S
C639 C638 1.524 . S
C639 C640 1.397 . S
C639 C644 1.363 . S
C640 H617 0.950 . S
C640 C639 1.397 . S
C640 C641 1.334 . S
C641 H618 0.950 . S
C641 C640 1.334 . S
C641 C642 1.287 . S
C642 C641 1.287 . S
C642 C643 1.524 . S
C642 H661 0.913 . S
C643 H619 0.950 . S
C643 C642 1.524 . S
C643 C644 1.415 . S
C644 H620 0.950 . S
C644 C639 1.363 . S
C644 C643 1.415 . S
C645 H621 0.951 . S
C645 C646 1.366 . S
C645 C647 1.388 . S
C646 C645 1.366 . S
C646 C650 1.385 . S
C647 H622 0.951 . S
C647 C645 1.388 . S
C647 C648 1.366 . S
C648 C647 1.366 . S
C648 C649 1.414 . S
C648 C651 1.499 . S
C649 H623 0.950 . S
C649 C648 1.414 . S
C649 C650 1.374 . S
C650 H624 0.950 . S
C650 C646 1.385 . S
C650 C649 1.374 . S
C651 C648 1.499 . S
C651 C652 1.373 . S
C651 C653 1.389 . S
C652 H625 0.950 . S
C652 C638 1.377 . S
C652 C651 1.373 . S
C653 C637 1.377 . S
C653 C651 1.389 . S
C653 C654 1.524 . S
C654 C653 1.524 . S
C654 C655 1.397 . S
C654 C659 1.363 . S
C655 H626 0.950 . S
C655 C654 1.397 . S
C655 C656 1.334 . S
C656 H627 0.950 . S
C656 C655 1.334 . S
C656 C657 1.287 . S
C657 C656 1.287 . S
C657 C658 1.524 . S
C657 H660 0.999 . S
C658 H628 0.950 . S
C658 C657 1.524 . S
C658 C659 1.415 . S
C659 H629 0.950 . S
C659 C654 1.363 . S
C659 C658 1.415 . S
H660 C657 0.999 . S
H661 C642 0.913 . S
H662 C680 0.951 . S
H663 C682 0.951 . S
H664 C684 0.950 . S
H665 C685 0.950 . S
H666 C687 0.950 . S
H667 C690 0.950 . S
H668 C691 0.950 . S
H669 C693 0.950 . S
H670 C694 0.950 . S
H671 C695 0.951 . S
H672 C697 0.951 . S
H673 C699 0.950 . S
H674 C700 0.950 . S
H675 C702 0.950 . S
H676 C705 0.950 . S
H677 C706 0.950 . S
H678 C708 0.950 . S
H679 C709 0.950 . S
C680 H662 0.951 . S
C680 C681 1.366 . S
C680 C682 1.388 . S
C681 C680 1.366 . S
C681 C685 1.385 . S
C682 H663 0.951 . S
C682 C680 1.388 . S
C682 C683 1.366 . S
C683 C682 1.366 . S
C683 C684 1.414 . S
C683 C686 1.499 . S
C684 H664 0.950 . S
C684 C683 1.414 . S
C684 C685 1.374 . S
C685 H665 0.950 . S
C685 C681 1.385 . S
C685 C684 1.374 . S
C686 C683 1.499 . S
C686 C687 1.373 . S
C686 C688 1.389 . S
C687 H666 0.950 . S
C687 C686 1.373 . S
C687 C703 1.377 . S
C688 C686 1.389 . S
C688 C689 1.524 . S
C688 C702 1.377 . S
C689 C688 1.524 . S
C689 C690 1.397 . S
C689 C694 1.363 . S
C690 H667 0.950 . S
C690 C689 1.397 . S
C690 C691 1.334 . S
C691 H668 0.950 . S
C691 C690 1.334 . S
C691 C692 1.287 . S
C692 C691 1.287 . S
C692 C693 1.524 . S
C692 H711 0.913 . S
C693 H669 0.950 . S
C693 C692 1.524 . S
C693 C694 1.415 . S
C694 H670 0.950 . S
C694 C689 1.363 . S
C694 C693 1.415 . S
C695 H671 0.951 . S
C695 C696 1.366 . S
C695 C697 1.388 . S
C696 C695 1.366 . S
C696 C700 1.385 . S
C697 H672 0.951 . S
C697 C695 1.388 . S
C697 C698 1.366 . S
C698 C697 1.366 . S
C698 C699 1.414 . S
C698 C701 1.499 . S
C699 H673 0.950 . S
C699 C698 1.414 . S
C699 C700 1.374 . S
C700 H674 0.950 . S
C700 C696 1.385 . S
C700 C699 1.374 . S
C701 C698 1.499 . S
C701 C702 1.373 . S
C701 C703 1.389 . S
C702 H675 0.950 . S
C702 C688 1.377 . S
C702 C701 1.373 . S
C703 C687 1.377 . S
C703 C701 1.389 . S
C703 C704 1.524 . S
C704 C703 1.524 . S
C704 C705 1.397 . S
C704 C709 1.363 . S
C705 H676 0.950 . S
C705 C704 1.397 . S
C705 C706 1.334 . S
C706 H677 0.950 . S
C706 C705 1.334 . S
C706 C707 1.287 . S
C707 C706 1.287 . S
C707 C708 1.524 . S
C707 H710 0.999 . S
C708 H678 0.950 . S
C708 C707 1.524 . S
C708 C709 1.415 . S
C709 H679 0.950 . S
C709 C704 1.363 . S
C709 C708 1.415 . S
H710 C707 0.999 . S
H711 C692 0.913 . S
H712 C730 0.951 . S
H713 C732 0.951 . S
H714 C734 0.950 . S
H715 C735 0.950 . S
H716 C737 0.950 . S
H717 C740 0.950 . S
H718 C741 0.950 . S
H719 C743 0.950 . S
H720 C744 0.950 . S
H721 C745 0.951 . S
H722 C747 0.951 . S
H723 C749 0.950 . S
H724 C750 0.950 . S
H725 C752 0.950 . S
H726 C755 0.950 . S
H727 C756 0.950 . S
H728 C758 0.950 . S
H729 C759 0.950 . S
C730 H712 0.951 . S
C730 C731 1.366 . S
C730 C732 1.388 . S
C731 C730 1.366 . S
C731 C735 1.385 . S
C732 H713 0.951 . S
C732 C730 1.388 . S
C732 C733 1.366 . S
C733 C732 1.366 . S
C733 C734 1.414 . S
C733 C736 1.499 . S
C734 H714 0.950 . S
C734 C733 1.414 . S
C734 C735 1.374 . S
C735 H715 0.950 . S
C735 C731 1.385 . S
C735 C734 1.374 . S
C736 C733 1.499 . S
C736 C737 1.373 . S
C736 C738 1.389 . S
C737 H716 0.950 . S
C737 C736 1.373 . S
C737 C753 1.377 . S
C738 C736 1.389 . S
C738 C739 1.524 . S
C738 C752 1.377 . S
C739 C738 1.524 . S
C739 C740 1.397 . S
C739 C744 1.363 . S
C740 H717 0.950 . S
C740 C739 1.397 . S
C740 C741 1.334 . S
C741 H718 0.950 . S
C741 C740 1.334 . S
C741 C742 1.287 . S
C742 C741 1.287 . S
C742 C743 1.524 . S
C742 H761 0.913 . S
C743 H719 0.950 . S
C743 C742 1.524 . S
C743 C744 1.415 . S
C744 H720 0.950 . S
C744 C739 1.363 . S
C744 C743 1.415 . S
C745 H721 0.951 . S
C745 C746 1.366 . S
C745 C747 1.388 . S
C746 C745 1.366 . S
C746 C750 1.385 . S
C747 H722 0.951 . S
C747 C745 1.388 . S
C747 C748 1.366 . S
C748 C747 1.366 . S
C748 C749 1.414 . S
C748 C751 1.499 . S
C749 H723 0.950 . S
C749 C748 1.414 . S
C749 C750 1.374 . S
C750 H724 0.950 . S
C750 C746 1.385 . S
C750 C749 1.374 . S
C751 C748 1.499 . S
C751 C752 1.373 . S
C751 C753 1.389 . S
C752 H725 0.950 . S
C752 C738 1.377 . S
C752 C751 1.373 . S
C753 C737 1.377 . S
C753 C751 1.389 . S
C753 C754 1.524 . S
C754 C753 1.524 . S
C754 C755 1.397 . S
C754 C759 1.363 . S
C755 H726 0.950 . S
C755 C754 1.397 . S
C755 C756 1.334 . S
C756 H727 0.950 . S
C756 C755 1.334 . S
C756 C757 1.287 . S
C757 C756 1.287 . S
C757 C758 1.524 . S
C757 H760 0.999 . S
C758 H728 0.950 . S
C758 C757 1.524 . S
C758 C759 1.415 . S
C759 H729 0.950 . S
C759 C754 1.363 . S
C759 C758 1.415 . S
H760 C757 0.999 . S
H761 C742 0.913 . S
H762 C780 0.951 . S
H763 C782 0.951 . S
H764 C784 0.950 . S
H765 C785 0.950 . S
H766 C787 0.950 . S
H767 C790 0.950 . S
H768 C791 0.950 . S
H769 C793 0.950 . S
H770 C794 0.950 . S
H771 C795 0.951 . S
H772 C797 0.951 . S
H773 C799 0.950 . S
H774 C800 0.950 . S
H775 C802 0.950 . S
H776 C805 0.950 . S
H777 C806 0.950 . S
H778 C808 0.950 . S
H779 C809 0.950 . S
C780 H762 0.951 . S
C780 C781 1.366 . S
C780 C782 1.388 . S
C781 C780 1.366 . S
C781 C785 1.385 . S
C782 H763 0.951 . S
C782 C780 1.388 . S
C782 C783 1.366 . S
C783 C782 1.366 . S
C783 C784 1.414 . S
C783 C786 1.499 . S
C784 H764 0.950 . S
C784 C783 1.414 . S
C784 C785 1.374 . S
C785 H765 0.950 . S
C785 C781 1.385 . S
C785 C784 1.374 . S
C786 C783 1.499 . S
C786 C787 1.373 . S
C786 C788 1.389 . S
C787 H766 0.950 . S
C787 C786 1.373 . S
C787 C803 1.377 . S
C788 C786 1.389 . S
C788 C789 1.524 . S
C788 C802 1.377 . S
C789 C788 1.524 . S
C789 C790 1.397 . S
C789 C794 1.363 . S
C790 H767 0.950 . S
C790 C789 1.397 . S
C790 C791 1.334 . S
C791 H768 0.950 . S
C791 C790 1.334 . S
C791 C792 1.287 . S
C792 C791 1.287 . S
C792 C793 1.524 . S
C792 H811 0.913 . S
C793 H769 0.950 . S
C793 C792 1.524 . S
C793 C794 1.415 . S
C794 H770 0.950 . S
C794 C789 1.363 . S
C794 C793 1.415 . S
C795 H771 0.951 . S
C795 C796 1.366 . S
C795 C797 1.388 . S
C796 C795 1.366 . S
C796 C800 1.385 . S
C797 H772 0.951 . S
C797 C795 1.388 . S
C797 C798 1.366 . S
C798 C797 1.366 . S
C798 C799 1.414 . S
C798 C801 1.499 . S
C799 H773 0.950 . S
C799 C798 1.414 . S
C799 C800 1.374 . S
C800 H774 0.950 . S
C800 C796 1.385 . S
C800 C799 1.374 . S
C801 C798 1.499 . S
C801 C802 1.373 . S
C801 C803 1.389 . S
C802 H775 0.950 . S
C802 C788 1.377 . S
C802 C801 1.373 . S
C803 C787 1.377 . S
C803 C801 1.389 . S
C803 C804 1.524 . S
C804 C803 1.524 . S
C804 C805 1.397 . S
C804 C809 1.363 . S
C805 H776 0.950 . S
C805 C804 1.397 . S
C805 C806 1.334 . S
C806 H777 0.950 . S
C806 C805 1.334 . S
C806 C807 1.287 . S
C807 C806 1.287 . S
C807 C808 1.524 . S
C807 H810 0.999 . S
C808 H778 0.950 . S
C808 C807 1.524 . S
C808 C809 1.415 . S
C809 H779 0.950 . S
C809 C804 1.363 . S
C809 C808 1.415 . S
H810 C807 0.999 . S
H811 C792 0.913 . S
H812 C830 0.951 . S
H813 C832 0.951 . S
H814 C834 0.950 . S
H815 C835 0.950 . S
H816 C837 0.950 . S
H817 C840 0.950 . S
H818 C841 0.950 . S
H819 C843 0.950 . S
H820 C844 0.950 . S
H821 C845 0.951 . S
H822 C847 0.951 . S
H823 C849 0.950 . S
H824 C850 0.950 . S
H825 C852 0.950 . S
H826 C855 0.950 . S
H827 C856 0.950 . S
H828 C858 0.950 . S
H829 C859 0.950 . S
C830 H812 0.951 . S
C830 C831 1.366 . S
C830 C832 1.388 . S
C831 C830 1.366 . S
C831 C835 1.385 . S
C832 H813 0.951 . S
C832 C830 1.388 . S
C832 C833 1.366 . S
C833 C832 1.366 . S
C833 C834 1.414 . S
C833 C836 1.499 . S
C834 H814 0.950 . S
C834 C833 1.414 . S
C834 C835 1.374 . S
C835 H815 0.950 . S
C835 C831 1.385 . S
C835 C834 1.374 . S
C836 C833 1.499 . S
C836 C837 1.373 . S
C836 C838 1.389 . S
C837 H816 0.950 . S
C837 C836 1.373 . S
C837 C853 1.377 . S
C838 C836 1.389 . S
C838 C839 1.524 . S
C838 C852 1.377 . S
C839 C838 1.524 . S
C839 C840 1.397 . S
C839 C844 1.363 . S
C840 H817 0.950 . S
C840 C839 1.397 . S
C840 C841 1.334 . S
C841 H818 0.950 . S
C841 C840 1.334 . S
C841 C842 1.287 . S
C842 C841 1.287 . S
C842 C843 1.524 . S
C842 H861 0.913 . S
C843 H819 0.950 . S
C843 C842 1.524 . S
C843 C844 1.415 . S
C844 H820 0.950 . S
C844 C839 1.363 . S
C844 C843 1.415 . S
C845 H821 0.951 . S
C845 C846 1.366 . S
C845 C847 1.388 . S
C846 C845 1.366 . S
C846 C850 1.385 . S
C847 H822 0.951 . S
C847 C845 1.388 . S
C847 C848 1.366 . S
C848 C847 1.366 . S
C848 C849 1.414 . S
C848 C851 1.499 . S
C849 H823 0.950 . S
C849 C848 1.414 . S
C849 C850 1.374 . S
C850 H824 0.950 . S
C850 C846 1.385 . S
C850 C849 1.374 . S
C851 C848 1.499 . S
C851 C852 1.373 . S
C851 C853 1.389 . S
C852 H825 0.950 . S
C852 C838 1.377 . S
C852 C851 1.373 . S
C853 C837 1.377 . S
C853 C851 1.389 . S
C853 C854 1.524 . S
C854 C853 1.524 . S
C854 C855 1.397 . S
C854 C859 1.363 . S
C855 H826 0.950 . S
C855 C854 1.397 . S
C855 C856 1.334 . S
C856 H827 0.950 . S
C856 C855 1.334 . S
C856 C857 1.287 . S
C857 C856 1.287 . S
C857 C858 1.524 . S
C857 H860 0.999 . S
C858 H828 0.950 . S
C858 C857 1.524 . S
C858 C859 1.415 . S
C859 H829 0.950 . S
C859 C854 1.363 . S
C859 C858 1.415 . S
H860 C857 0.999 . S
H861 C842 0.913 . S
H862 C880 0.951 . S
H863 C882 0.951 . S
H864 C884 0.950 . S
H865 C885 0.950 . S
H866 C887 0.950 . S
H867 C890 0.950 . S
H868 C891 0.950 . S
H869 C893 0.950 . S
H870 C894 0.950 . S
H871 C895 0.951 . S
H872 C897 0.951 . S
H873 C899 0.950 . S
H874 C900 0.950 . S
H875 C902 0.950 . S
H876 C905 0.950 . S
H877 C906 0.950 . S
H878 C908 0.950 . S
H879 C909 0.950 . S
C880 H862 0.951 . S
C880 C881 1.366 . S
C880 C882 1.388 . S
C881 C880 1.366 . S
C881 C885 1.385 . S
C882 H863 0.951 . S
C882 C880 1.388 . S
C882 C883 1.366 . S
C883 C882 1.366 . S
C883 C884 1.414 . S
C883 C886 1.499 . S
C884 H864 0.950 . S
C884 C883 1.414 . S
C884 C885 1.374 . S
C885 H865 0.950 . S
C885 C881 1.385 . S
C885 C884 1.374 . S
C886 C883 1.499 . S
C886 C887 1.373 . S
C886 C888 1.389 . S
C887 H866 0.950 . S
C887 C886 1.373 . S
C887 C903 1.377 . S
C888 C886 1.389 . S
C888 C889 1.524 . S
C888 C902 1.377 . S
C889 C888 1.524 . S
C889 C890 1.397 . S
C889 C894 1.363 . S
C890 H867 0.950 . S
C890 C889 1.397 . S
C890 C891 1.334 . S
C891 H868 0.950 . S
C891 C890 1.334 . S
C891 C892 1.287 . S
C892 C891 1.287 . S
C892 C893 1.524 . S
C892 H911 0.913 . S
C893 H869 0.950 . S
C893 C892 1.524 . S
C893 C894 1.415 . S
C894 H870 0.950 . S
C894 C889 1.363 . S
C894 C893 1.415 . S
C895 H871 0.951 . S
C895 C896 1.366 . S
C895 C897 1.388 . S
C896 C895 1.366 . S
C896 C900 1.385 . S
C897 H872 0.951 . S
C897 C895 1.388 . S
C897 C898 1.366 . S
C898 C897 1.366 . S
C898 C899 1.414 . S
C898 C901 1.499 . S
C899 H873 0.950 . S
C899 C898 1.414 . S
C899 C900 1.374 . S
C900 H874 0.950 . S
C900 C896 1.385 . S
C900 C899 1.374 . S
C901 C898 1.499 . S
C901 C902 1.373 . S
C901 C903 1.389 . S
C902 H875 0.950 . S
C902 C888 1.377 . S
C902 C901 1.373 . S
C903 C887 1.377 . S
C903 C901 1.389 . S
C903 C904 1.524 . S
C904 C903 1.524 . S
C904 C905 1.397 . S
C904 C909 1.363 . S
C905 H876 0.950 . S
C905 C904 1.397 . S
C905 C906 1.334 . S
C906 H877 0.950 . S
C906 C905 1.334 . S
C906 C907 1.287 . S
C907 C906 1.287 . S
C907 C908 1.524 . S
C907 H910 0.999 . S
C908 H878 0.950 . S
C908 C907 1.524 . S
C908 C909 1.415 . S
C909 H879 0.950 . S
C909 C904 1.363 . S
C909 C908 1.415 . S
H910 C907 0.999 . S
H911 C892 0.913 . S
H912 C930 0.951 . S
H913 C932 0.951 1_554 S
H914 C934 0.950 . S
H915 C935 0.950 . S
H916 C937 0.950 . S
H917 C940 0.950 1_556 S
H918 C941 0.950 . S
H919 C943 0.950 . S
H920 C944 0.950 . S
H921 C945 0.951 . S
H922 C947 0.951 1_556 S
H923 C949 0.950 . S
H924 C950 0.950 . S
H925 C952 0.950 . S
H926 C955 0.950 1_554 S
H927 C956 0.950 . S
H928 C958 0.950 . S
H929 C959 0.950 . S
C930 H912 0.951 . S
C930 C931 1.366 . S
C930 C932 1.388 . S
C931 C930 1.366 . S
C931 C935 1.385 . S
C932 H913 0.951 1_556 S
C932 C930 1.388 . S
C932 C933 1.366 . S
C933 C932 1.366 . S
C933 C934 1.414 . S
C933 C936 1.499 . S
C934 H914 0.950 . S
C934 C933 1.414 . S
C934 C935 1.374 . S
C935 H915 0.950 . S
C935 C931 1.385 . S
C935 C934 1.374 . S
C936 C933 1.499 . S
C936 C937 1.373 . S
C936 C938 1.389 1_556 S
C937 H916 0.950 . S
C937 C936 1.373 . S
C937 C953 1.377 . S
C938 C936 1.389 1_554 S
C938 C939 1.524 . S
C938 C952 1.377 . S
C939 C938 1.524 . S
C939 C940 1.397 . S
C939 C944 1.363 . S
C940 H917 0.950 1_554 S
C940 C939 1.397 . S
C940 C941 1.334 . S
C941 H918 0.950 . S
C941 C940 1.334 . S
C941 C942 1.287 . S
C942 C941 1.287 . S
C942 C943 1.524 . S
C942 H961 0.913 . S
C943 H919 0.950 . S
C943 C942 1.524 . S
C943 C944 1.415 . S
C944 H920 0.950 . S
C944 C939 1.363 . S
C944 C943 1.415 . S
C945 H921 0.951 . S
C945 C946 1.366 . S
C945 C947 1.388 . S
C946 C945 1.366 . S
C946 C950 1.385 . S
C947 H922 0.951 1_554 S
C947 C945 1.388 . S
C947 C948 1.366 . S
C948 C947 1.366 . S
C948 C949 1.414 . S
C948 C951 1.499 . S
C949 H923 0.950 . S
C949 C948 1.414 . S
C949 C950 1.374 . S
C950 H924 0.950 . S
C950 C946 1.385 . S
C950 C949 1.374 . S
C951 C948 1.499 . S
C951 C952 1.373 . S
C951 C953 1.389 1_554 S
C952 H925 0.950 . S
C952 C938 1.377 . S
C952 C951 1.373 . S
C953 C937 1.377 . S
C953 C951 1.389 1_556 S
C953 C954 1.524 . S
C954 C953 1.524 . S
C954 C955 1.397 . S
C954 C959 1.363 . S
C955 H926 0.950 1_556 S
C955 C954 1.397 . S
C955 C956 1.334 . S
C956 H927 0.950 . S
C956 C955 1.334 . S
C956 C957 1.287 . S
C957 C956 1.287 . S
C957 C958 1.524 . S
C957 H960 0.999 . S
C958 H928 0.950 . S
C958 C957 1.524 . S
C958 C959 1.415 . S
C959 H929 0.950 . S
C959 C954 1.363 . S
C959 C958 1.415 . S
H960 C957 0.999 . S
H961 C942 0.913 . S
H962 C980 0.951 . S
H963 C982 0.951 . S
H964 C984 0.950 . S
H965 C985 0.950 . S
H966 C987 0.950 . S
H967 C990 0.950 . S
H968 C991 0.950 . S
H969 C993 0.950 . S
H970 C994 0.950 . S
H971 C995 0.951 . S
H972 C997 0.951 . S
H973 C999 0.950 . S
H974 C1000 0.950 . S
H975 C1002 0.950 . S
H976 C1005 0.950 . S
H977 C1006 0.950 . S
H978 C1008 0.950 . S
H979 C1009 0.950 . S
C980 H962 0.951 . S
C980 C981 1.366 . S
C980 C982 1.388 . S
C981 C980 1.366 . S
C981 C985 1.385 . S
C982 H963 0.951 . S
C982 C980 1.388 . S
C982 C983 1.366 . S
C983 C982 1.366 . S
C983 C984 1.414 . S
C983 C986 1.499 . S
C984 H964 0.950 . S
C984 C983 1.414 . S
C984 C985 1.374 . S
C985 H965 0.950 . S
C985 C981 1.385 . S
C985 C984 1.374 . S
C986 C983 1.499 . S
C986 C987 1.373 . S
C986 C988 1.389 . S
C987 H966 0.950 . S
C987 C986 1.373 . S
C987 C1003 1.377 . S
C988 C986 1.389 . S
C988 C989 1.524 . S
C988 C1002 1.377 . S
C989 C988 1.524 . S
C989 C990 1.397 . S
C989 C994 1.363 . S
C990 H967 0.950 . S
C990 C989 1.397 . S
C990 C991 1.334 . S
C991 H968 0.950 . S
C991 C990 1.334 . S
C991 C992 1.287 . S
C992 C991 1.287 . S
C992 C993 1.524 . S
C992 H1011 0.913 . S
C993 H969 0.950 . S
C993 C992 1.524 . S
C993 C994 1.415 . S
C994 H970 0.950 . S
C994 C989 1.363 . S
C994 C993 1.415 . S
C995 H971 0.951 . S
C995 C996 1.366 . S
C995 C997 1.388 . S
C996 C995 1.366 . S
C996 C1000 1.385 . S
C997 H972 0.951 . S
C997 C995 1.388 . S
C997 C998 1.366 . S
C998 C997 1.366 . S
C998 C999 1.414 . S
C998 C1001 1.499 . S
C999 H973 0.950 . S
C999 C998 1.414 . S
C999 C1000 1.374 . S
C1000 H974 0.950 . S
C1000 C996 1.385 . S
C1000 C999 1.374 . S
C1001 C998 1.499 . S
C1001 C1002 1.373 . S
C1001 C1003 1.389 . S
C1002 H975 0.950 . S
C1002 C988 1.377 . S
C1002 C1001 1.373 . S
C1003 C987 1.377 . S
C1003 C1001 1.389 . S
C1003 C1004 1.524 . S
C1004 C1003 1.524 . S
C1004 C1005 1.397 . S
C1004 C1009 1.363 . S
C1005 H976 0.950 . S
C1005 C1004 1.397 . S
C1005 C1006 1.334 . S
C1006 H977 0.950 . S
C1006 C1005 1.334 . S
C1006 C1007 1.287 . S
C1007 C1006 1.287 . S
C1007 C1008 1.524 . S
C1007 H1010 0.999 . S
C1008 H978 0.950 . S
C1008 C1007 1.524 . S
C1008 C1009 1.415 . S
C1009 H979 0.950 . S
C1009 C1004 1.363 . S
C1009 C1008 1.415 . S
H1010 C1007 0.999 . S
H1011 C992 0.913 . S
H1012 C1030 0.951 . S
H1013 C1032 0.951 . S
H1014 C1034 0.950 1_556 S
H1015 C1035 0.950 . S
H1016 C1037 0.950 . S
H1017 C1040 0.950 . S
H1018 C1041 0.950 . S
H1019 C1043 0.950 . S
H1020 C1044 0.950 . S
H1021 C1045 0.951 . S
H1022 C1047 0.951 . S
H1023 C1049 0.950 1_554 S
H1024 C1050 0.950 . S
H1025 C1052 0.950 . S
H1026 C1055 0.950 . S
H1027 C1056 0.950 . S
H1028 C1058 0.950 . S
H1029 C1059 0.950 . S
C1030 H1012 0.951 . S
C1030 C1031 1.366 . S
C1030 C1032 1.388 . S
C1031 C1030 1.366 . S
C1031 C1035 1.385 . S
C1032 H1013 0.951 . S
C1032 C1030 1.388 . S
C1032 C1033 1.366 . S
C1033 C1032 1.366 . S
C1033 C1034 1.414 . S
C1033 C1036 1.499 . S
C1034 H1014 0.950 1_554 S
C1034 C1033 1.414 . S
C1034 C1035 1.374 . S
C1035 H1015 0.950 . S
C1035 C1031 1.385 . S
C1035 C1034 1.374 . S
C1036 C1033 1.499 . S
C1036 C1037 1.373 1_554 S
C1036 C1038 1.389 . S
C1037 H1016 0.950 . S
C1037 C1036 1.373 1_556 S
C1037 C1053 1.377 . S
C1038 C1036 1.389 . S
C1038 C1039 1.524 . S
C1038 C1052 1.377 . S
C1039 C1038 1.524 . S
C1039 C1040 1.397 . S
C1039 C1044 1.363 . S
C1040 H1017 0.950 . S
C1040 C1039 1.397 . S
C1040 C1041 1.334 . S
C1041 H1018 0.950 . S
C1041 C1040 1.334 . S
C1041 C1042 1.287 . S
C1042 C1041 1.287 . S
C1042 C1043 1.524 . S
C1042 H1061 0.913 . S
C1043 H1019 0.950 . S
C1043 C1042 1.524 . S
C1043 C1044 1.415 . S
C1044 H1020 0.950 . S
C1044 C1039 1.363 . S
C1044 C1043 1.415 . S
C1045 H1021 0.951 . S
C1045 C1046 1.366 . S
C1045 C1047 1.388 . S
C1046 C1045 1.366 . S
C1046 C1050 1.385 . S
C1047 H1022 0.951 . S
C1047 C1045 1.388 . S
C1047 C1048 1.366 . S
C1048 C1047 1.366 . S
C1048 C1049 1.414 . S
C1048 C1051 1.499 . S
C1049 H1023 0.950 1_556 S
C1049 C1048 1.414 . S
C1049 C1050 1.374 . S
C1050 H1024 0.950 . S
C1050 C1046 1.385 . S
C1050 C1049 1.374 . S
C1051 C1048 1.499 . S
C1051 C1052 1.373 1_556 S
C1051 C1053 1.389 . S
C1052 H1025 0.950 . S
C1052 C1038 1.377 . S
C1052 C1051 1.373 1_554 S
C1053 C1037 1.377 . S
C1053 C1051 1.389 . S
C1053 C1054 1.524 . S
C1054 C1053 1.524 . S
C1054 C1055 1.397 . S
C1054 C1059 1.363 . S
C1055 H1026 0.950 . S
C1055 C1054 1.397 . S
C1055 C1056 1.334 . S
C1056 H1027 0.950 . S
C1056 C1055 1.334 . S
C1056 C1057 1.287 . S
C1057 C1056 1.287 . S
C1057 C1058 1.524 . S
C1057 H1060 0.999 . S
C1058 H1028 0.950 . S
C1058 C1057 1.524 . S
C1058 C1059 1.415 . S
C1059 H1029 0.950 . S
C1059 C1054 1.363 . S
C1059 C1058 1.415 . S
H1060 C1057 0.999 . S
H1061 C1042 0.913 . S
H1062 C1080 0.951 . S
H1063 C1082 0.951 . S
H1064 C1084 0.950 . S
H1065 C1085 0.950 . S
H1066 C1087 0.950 . S
H1067 C1090 0.950 . S
H1068 C1091 0.950 . S
H1069 C1093 0.950 . S
H1070 C1094 0.950 . S
H1071 C1095 0.951 . S
H1072 C1097 0.951 . S
H1073 C1099 0.950 . S
H1074 C1100 0.950 . S
H1075 C1102 0.950 . S
H1076 C1105 0.950 . S
H1077 C1106 0.950 . S
H1078 C1108 0.950 . S
H1079 C1109 0.950 . S
C1080 H1062 0.951 . S
C1080 C1081 1.366 . S
C1080 C1082 1.388 . S
C1081 C1080 1.366 . S
C1081 C1085 1.385 . S
C1082 H1063 0.951 . S
C1082 C1080 1.388 . S
C1082 C1083 1.366 . S
C1083 C1082 1.366 . S
C1083 C1084 1.414 . S
C1083 C1086 1.499 . S
C1084 H1064 0.950 . S
C1084 C1083 1.414 . S
C1084 C1085 1.374 . S
C1085 H1065 0.950 . S
C1085 C1081 1.385 . S
C1085 C1084 1.374 . S
C1086 C1083 1.499 . S
C1086 C1087 1.373 . S
C1086 C1088 1.389 . S
C1087 H1066 0.950 . S
C1087 C1086 1.373 . S
C1087 C1103 1.377 . S
C1088 C1086 1.389 . S
C1088 C1089 1.524 . S
C1088 C1102 1.377 . S
C1089 C1088 1.524 . S
C1089 C1090 1.397 . S
C1089 C1094 1.363 . S
C1090 H1067 0.950 . S
C1090 C1089 1.397 . S
C1090 C1091 1.334 . S
C1091 H1068 0.950 . S
C1091 C1090 1.334 . S
C1091 C1092 1.287 . S
C1092 C1091 1.287 . S
C1092 C1093 1.524 . S
C1092 H1111 0.913 . S
C1093 H1069 0.950 . S
C1093 C1092 1.524 . S
C1093 C1094 1.415 . S
C1094 H1070 0.950 . S
C1094 C1089 1.363 . S
C1094 C1093 1.415 . S
C1095 H1071 0.951 . S
C1095 C1096 1.366 . S
C1095 C1097 1.388 . S
C1096 C1095 1.366 . S
C1096 C1100 1.385 . S
C1097 H1072 0.951 . S
C1097 C1095 1.388 . S
C1097 C1098 1.366 . S
C1098 C1097 1.366 . S
C1098 C1099 1.414 . S
C1098 C1101 1.499 . S
C1099 H1073 0.950 . S
C1099 C1098 1.414 . S
C1099 C1100 1.374 . S
C1100 H1074 0.950 . S
C1100 C1096 1.385 . S
C1100 C1099 1.374 . S
C1101 C1098 1.499 . S
C1101 C1102 1.373 . S
C1101 C1103 1.389 . S
C1102 H1075 0.950 . S
C1102 C1088 1.377 . S
C1102 C1101 1.373 . S
C1103 C1087 1.377 . S
C1103 C1101 1.389 . S
C1103 C1104 1.524 . S
C1104 C1103 1.524 . S
C1104 C1105 1.397 . S
C1104 C1109 1.363 . S
C1105 H1076 0.950 . S
C1105 C1104 1.397 . S
C1105 C1106 1.334 . S
C1106 H1077 0.950 . S
C1106 C1105 1.334 . S
C1106 C1107 1.287 . S
C1107 C1106 1.287 . S
C1107 C1108 1.524 . S
C1107 H1110 0.999 . S
C1108 H1078 0.950 . S
C1108 C1107 1.524 . S
C1108 C1109 1.415 . S
C1109 H1079 0.950 . S
C1109 C1104 1.363 . S
C1109 C1108 1.415 . S
H1110 C1107 0.999 . S
H1111 C1092 0.913 . S
H1112 C1130 0.951 . S
H1113 C1132 0.951 1_554 S
H1114 C1134 0.950 . S
H1115 C1135 0.950 . S
H1116 C1137 0.950 . S
H1117 C1140 0.950 . S
H1118 C1141 0.950 . S
H1119 C1143 0.950 . S
H1120 C1144 0.950 . S
H1121 C1145 0.951 . S
H1122 C1147 0.951 1_556 S
H1123 C1149 0.950 . S
H1124 C1150 0.950 . S
H1125 C1152 0.950 . S
H1126 C1155 0.950 . S
H1127 C1156 0.950 . S
H1128 C1158 0.950 . S
H1129 C1159 0.950 . S
C1130 H1112 0.951 . S
C1130 C1131 1.366 . S
C1130 C1132 1.388 . S
C1131 C1130 1.366 . S
C1131 C1135 1.385 . S
C1132 H1113 0.951 1_556 S
C1132 C1130 1.388 . S
C1132 C1133 1.366 . S
C1133 C1132 1.366 . S
C1133 C1134 1.414 . S
C1133 C1136 1.499 . S
C1134 H1114 0.950 . S
C1134 C1133 1.414 . S
C1134 C1135 1.374 . S
C1135 H1115 0.950 . S
C1135 C1131 1.385 . S
C1135 C1134 1.374 . S
C1136 C1133 1.499 . S
C1136 C1137 1.373 . S
C1136 C1138 1.389 1_556 S
C1137 H1116 0.950 . S
C1137 C1136 1.373 . S
C1137 C1153 1.377 . S
C1138 C1136 1.389 1_554 S
C1138 C1139 1.524 . S
C1138 C1152 1.377 . S
C1139 C1138 1.524 . S
C1139 C1140 1.397 1_554 S
C1139 C1144 1.363 . S
C1140 H1117 0.950 . S
C1140 C1139 1.397 1_556 S
C1140 C1141 1.334 . S
C1141 H1118 0.950 . S
C1141 C1140 1.334 . S
C1141 C1142 1.287 1_556 S
C1142 C1141 1.287 1_554 S
C1142 C1143 1.524 . S
C1142 H1161 0.913 . S
C1143 H1119 0.950 . S
C1143 C1142 1.524 . S
C1143 C1144 1.415 . S
C1144 H1120 0.950 . S
C1144 C1139 1.363 . S
C1144 C1143 1.415 . S
C1145 H1121 0.951 . S
C1145 C1146 1.366 . S
C1145 C1147 1.388 . S
C1146 C1145 1.366 . S
C1146 C1150 1.385 . S
C1147 H1122 0.951 1_554 S
C1147 C1145 1.388 . S
C1147 C1148 1.366 . S
C1148 C1147 1.366 . S
C1148 C1149 1.414 . S
C1148 C1151 1.499 . S
C1149 H1123 0.950 . S
C1149 C1148 1.414 . S
C1149 C1150 1.374 . S
C1150 H1124 0.950 . S
C1150 C1146 1.385 . S
C1150 C1149 1.374 . S
C1151 C1148 1.499 . S
C1151 C1152 1.373 . S
C1151 C1153 1.389 1_554 S
C1152 H1125 0.950 . S
C1152 C1138 1.377 . S
C1152 C1151 1.373 . S
C1153 C1137 1.377 . S
C1153 C1151 1.389 1_556 S
C1153 C1154 1.524 . S
C1154 C1153 1.524 . S
C1154 C1155 1.397 1_556 S
C1154 C1159 1.363 . S
C1155 H1126 0.950 . S
C1155 C1154 1.397 1_554 S
C1155 C1156 1.334 . S
C1156 H1127 0.950 . S
C1156 C1155 1.334 . S
C1156 C1157 1.287 1_554 S
C1157 C1156 1.287 1_556 S
C1157 C1158 1.524 . S
C1157 H1160 0.999 . S
C1158 H1128 0.950 . S
C1158 C1157 1.524 . S
C1158 C1159 1.415 . S
C1159 H1129 0.950 . S
C1159 C1154 1.363 . S
C1159 C1158 1.415 . S
H1160 C1157 0.999 . S
H1161 C1142 0.913 . S
H1162 C1180 0.951 . S
H1163 C1182 0.951 . S
H1164 C1184 0.950 . S
H1165 C1185 0.950 . S
H1166 C1187 0.950 . S
H1167 C1190 0.950 . S
H1168 C1191 0.950 . S
H1169 C1193 0.950 . S
H1170 C1194 0.950 . S
H1171 C1195 0.951 . S
H1172 C1197 0.951 . S
H1173 C1199 0.950 . S
H1174 C1200 0.950 . S
H1175 C1202 0.950 . S
H1176 C1205 0.950 . S
H1177 C1206 0.950 . S
H1178 C1208 0.950 . S
H1179 C1209 0.950 . S
C1180 H1162 0.951 . S
C1180 C1181 1.366 . S
C1180 C1182 1.388 . S
C1181 C1180 1.366 . S
C1181 C1185 1.385 . S
C1182 H1163 0.951 . S
C1182 C1180 1.388 . S
C1182 C1183 1.366 . S
C1183 C1182 1.366 . S
C1183 C1184 1.414 . S
C1183 C1186 1.499 . S
C1184 H1164 0.950 . S
C1184 C1183 1.414 . S
C1184 C1185 1.374 . S
C1185 H1165 0.950 . S
C1185 C1181 1.385 . S
C1185 C1184 1.374 . S
C1186 C1183 1.499 . S
C1186 C1187 1.373 . S
C1186 C1188 1.389 . S
C1187 H1166 0.950 . S
C1187 C1186 1.373 . S
C1187 C1203 1.377 . S
C1188 C1186 1.389 . S
C1188 C1189 1.524 . S
C1188 C1202 1.377 . S
C1189 C1188 1.524 . S
C1189 C1190 1.397 . S
C1189 C1194 1.363 . S
C1190 H1167 0.950 . S
C1190 C1189 1.397 . S
C1190 C1191 1.334 . S
C1191 H1168 0.950 . S
C1191 C1190 1.334 . S
C1191 C1192 1.287 . S
C1192 C1191 1.287 . S
C1192 C1193 1.524 . S
C1192 H1211 0.913 . S
C1193 H1169 0.950 . S
C1193 C1192 1.524 . S
C1193 C1194 1.415 . S
C1194 H1170 0.950 . S
C1194 C1189 1.363 . S
C1194 C1193 1.415 . S
C1195 H1171 0.951 . S
C1195 C1196 1.366 . S
C1195 C1197 1.388 . S
C1196 C1195 1.366 . S
C1196 C1200 1.385 . S
C1197 H1172 0.951 . S
C1197 C1195 1.388 . S
C1197 C1198 1.366 . S
C1198 C1197 1.366 . S
C1198 C1199 1.414 . S
C1198 C1201 1.499 . S
C1199 H1173 0.950 . S
C1199 C1198 1.414 . S
C1199 C1200 1.374 . S
C1200 H1174 0.950 . S
C1200 C1196 1.385 . S
C1200 C1199 1.374 . S
C1201 C1198 1.499 . S
C1201 C1202 1.373 . S
C1201 C1203 1.389 . S
C1202 H1175 0.950 . S
C1202 C1188 1.377 . S
C1202 C1201 1.373 . S
C1203 C1187 1.377 . S
C1203 C1201 1.389 . S
C1203 C1204 1.524 . S
C1204 C1203 1.524 . S
C1204 C1205 1.397 . S
C1204 C1209 1.363 . S
C1205 H1176 0.950 . S
C1205 C1204 1.397 . S
C1205 C1206 1.334 . S
C1206 H1177 0.950 . S
C1206 C1205 1.334 . S
C1206 C1207 1.287 . S
C1207 C1206 1.287 . S
C1207 C1208 1.524 . S
C1207 H1210 0.999 . S
C1208 H1178 0.950 . S
C1208 C1207 1.524 . S
C1208 C1209 1.415 . S
C1209 H1179 0.950 . S
C1209 C1204 1.363 . S
C1209 C1208 1.415 . S
H1210 C1207 0.999 . S
H1211 C1192 0.913 . S
H1212 C1230 0.951 . S
H1213 C1232 0.951 1_556 S
H1214 C1234 0.950 . S
H1215 C1235 0.950 . S
H1216 C1237 0.950 . S
H1217 C1240 0.950 . S
H1218 C1241 0.950 . S
H1219 C1243 0.950 . S
H1220 C1244 0.950 . S
H1221 C1245 0.951 . S
H1222 C1247 0.951 1_554 S
H1223 C1249 0.950 . S
H1224 C1250 0.950 . S
H1225 C1252 0.950 . S
H1226 C1255 0.950 . S
H1227 C1256 0.950 . S
H1228 C1258 0.950 . S
H1229 C1259 0.950 . S
C1230 H1212 0.951 . S
C1230 C1231 1.366 . S
C1230 C1232 1.388 . S
C1231 C1230 1.366 . S
C1231 C1235 1.385 . S
C1232 H1213 0.951 1_554 S
C1232 C1230 1.388 . S
C1232 C1233 1.366 . S
C1233 C1232 1.366 . S
C1233 C1234 1.414 . S
C1233 C1236 1.499 . S
C1234 H1214 0.950 . S
C1234 C1233 1.414 . S
C1234 C1235 1.374 . S
C1235 H1215 0.950 . S
C1235 C1231 1.385 . S
C1235 C1234 1.374 . S
C1236 C1233 1.499 . S
C1236 C1237 1.373 . S
C1236 C1238 1.389 1_554 S
C1237 H1216 0.950 . S
C1237 C1236 1.373 . S
C1237 C1253 1.377 . S
C1238 C1236 1.389 1_556 S
C1238 C1239 1.524 . S
C1238 C1252 1.377 . S
C1239 C1238 1.524 . S
C1239 C1240 1.397 . S
C1239 C1244 1.363 . S
C1240 H1217 0.950 . S
C1240 C1239 1.397 . S
C1240 C1241 1.334 . S
C1241 H1218 0.950 . S
C1241 C1240 1.334 . S
C1241 C1242 1.287 . S
C1242 C1241 1.287 . S
C1242 C1243 1.524 . S
C1242 H1261 0.913 . S
C1243 H1219 0.950 . S
C1243 C1242 1.524 . S
C1243 C1244 1.415 . S
C1244 H1220 0.950 . S
C1244 C1239 1.363 . S
C1244 C1243 1.415 . S
C1245 H1221 0.951 . S
C1245 C1246 1.366 . S
C1245 C1247 1.388 . S
C1246 C1245 1.366 . S
C1246 C1250 1.385 . S
C1247 H1222 0.951 1_556 S
C1247 C1245 1.388 . S
C1247 C1248 1.366 . S
C1248 C1247 1.366 . S
C1248 C1249 1.414 . S
C1248 C1251 1.499 . S
C1249 H1223 0.950 . S
C1249 C1248 1.414 . S
C1249 C1250 1.374 . S
C1250 H1224 0.950 . S
C1250 C1246 1.385 . S
C1250 C1249 1.374 . S
C1251 C1248 1.499 . S
C1251 C1252 1.373 . S
C1251 C1253 1.389 1_556 S
C1252 H1225 0.950 . S
C1252 C1238 1.377 . S
C1252 C1251 1.373 . S
C1253 C1237 1.377 . S
C1253 C1251 1.389 1_554 S
C1253 C1254 1.524 . S
C1254 C1253 1.524 . S
C1254 C1255 1.397 . S
C1254 C1259 1.363 . S
C1255 H1226 0.950 . S
C1255 C1254 1.397 . S
C1255 C1256 1.334 . S
C1256 H1227 0.950 . S
C1256 C1255 1.334 . S
C1256 C1257 1.287 . S
C1257 C1256 1.287 . S
C1257 C1258 1.524 . S
C1257 H1260 0.999 . S
C1258 H1228 0.950 . S
C1258 C1257 1.524 . S
C1258 C1259 1.415 . S
C1259 H1229 0.950 . S
C1259 C1254 1.363 . S
C1259 C1258 1.415 . S
H1260 C1257 0.999 . S
H1261 C1242 0.913 . S
H1262 C1280 0.951 . S
H1263 C1282 0.951 . S
H1264 C1284 0.950 . S
H1265 C1285 0.950 . S
H1266 C1287 0.950 . S
H1267 C1290 0.950 . S
H1268 C1291 0.950 . S
H1269 C1293 0.950 . S
H1270 C1294 0.950 . S
H1271 C1295 0.951 . S
H1272 C1297 0.951 . S
H1273 C1299 0.950 . S
H1274 C1300 0.950 . S
H1275 C1302 0.950 . S
H1276 C1305 0.950 . S
H1277 C1306 0.950 . S
H1278 C1308 0.950 . S
H1279 C1309 0.950 . S
C1280 H1262 0.951 . S
C1280 C1281 1.366 . S
C1280 C1282 1.388 . S
C1281 C1280 1.366 . S
C1281 C1285 1.385 . S
C1282 H1263 0.951 . S
C1282 C1280 1.388 . S
C1282 C1283 1.366 . S
C1283 C1282 1.366 . S
C1283 C1284 1.414 . S
C1283 C1286 1.499 . S
C1284 H1264 0.950 . S
C1284 C1283 1.414 . S
C1284 C1285 1.374 . S
C1285 H1265 0.950 . S
C1285 C1281 1.385 . S
C1285 C1284 1.374 . S
C1286 C1283 1.499 . S
C1286 C1287 1.373 . S
C1286 C1288 1.389 . S
C1287 H1266 0.950 . S
C1287 C1286 1.373 . S
C1287 C1303 1.377 . S
C1288 C1286 1.389 . S
C1288 C1289 1.524 . S
C1288 C1302 1.377 . S
C1289 C1288 1.524 . S
C1289 C1290 1.397 . S
C1289 C1294 1.363 . S
C1290 H1267 0.950 . S
C1290 C1289 1.397 . S
C1290 C1291 1.334 . S
C1291 H1268 0.950 . S
C1291 C1290 1.334 . S
C1291 C1292 1.287 . S
C1292 C1291 1.287 . S
C1292 C1293 1.524 . S
C1292 H1311 0.913 . S
C1293 H1269 0.950 . S
C1293 C1292 1.524 . S
C1293 C1294 1.415 . S
C1294 H1270 0.950 . S
C1294 C1289 1.363 . S
C1294 C1293 1.415 . S
C1295 H1271 0.951 . S
C1295 C1296 1.366 . S
C1295 C1297 1.388 . S
C1296 C1295 1.366 . S
C1296 C1300 1.385 . S
C1297 H1272 0.951 . S
C1297 C1295 1.388 . S
C1297 C1298 1.366 . S
C1298 C1297 1.366 . S
C1298 C1299 1.414 . S
C1298 C1301 1.499 . S
C1299 H1273 0.950 . S
C1299 C1298 1.414 . S
C1299 C1300 1.374 . S
C1300 H1274 0.950 . S
C1300 C1296 1.385 . S
C1300 C1299 1.374 . S
C1301 C1298 1.499 . S
C1301 C1302 1.373 . S
C1301 C1303 1.389 . S
C1302 H1275 0.950 . S
C1302 C1288 1.377 . S
C1302 C1301 1.373 . S
C1303 C1287 1.377 . S
C1303 C1301 1.389 . S
C1303 C1304 1.524 . S
C1304 C1303 1.524 . S
C1304 C1305 1.397 . S
C1304 C1309 1.363 . S
C1305 H1276 0.950 . S
C1305 C1304 1.397 . S
C1305 C1306 1.334 . S
C1306 H1277 0.950 . S
C1306 C1305 1.334 . S
C1306 C1307 1.287 . S
C1307 C1306 1.287 . S
C1307 C1308 1.524 . S
C1307 H1310 0.999 . S
C1308 H1278 0.950 . S
C1308 C1307 1.524 . S
C1308 C1309 1.415 . S
C1309 H1279 0.950 . S
C1309 C1304 1.363 . S
C1309 C1308 1.415 . S
H1310 C1307 0.999 . S
H1311 C1292 0.913 . S
H1312 C1330 0.951 . S
H1313 C1332 0.951 . S
H1314 C1334 0.950 . S
H1315 C1335 0.950 . S
H1316 C1337 0.950 . S
H1317 C1340 0.950 . S
H1318 C1341 0.950 . S
H1319 C1343 0.950 . S
H1320 C1344 0.950 . S
H1321 C1345 0.951 . S
H1322 C1347 0.951 . S
H1323 C1349 0.950 . S
H1324 C1350 0.950 . S
H1325 C1352 0.950 . S
H1326 C1355 0.950 . S
H1327 C1356 0.950 . S
H1328 C1358 0.950 . S
H1329 C1359 0.950 . S
C1330 H1312 0.951 . S
C1330 C1331 1.366 . S
C1330 C1332 1.388 . S
C1331 C1330 1.366 . S
C1331 C1335 1.385 . S
C1332 H1313 0.951 . S
C1332 C1330 1.388 . S
C1332 C1333 1.366 . S
C1333 C1332 1.366 . S
C1333 C1334 1.414 . S
C1333 C1336 1.499 . S
C1334 H1314 0.950 . S
C1334 C1333 1.414 . S
C1334 C1335 1.374 . S
C1335 H1315 0.950 . S
C1335 C1331 1.385 . S
C1335 C1334 1.374 . S
C1336 C1333 1.499 . S
C1336 C1337 1.373 1_556 S
C1336 C1338 1.389 . S
C1337 H1316 0.950 . S
C1337 C1336 1.373 1_554 S
C1337 C1353 1.377 . S
C1338 C1336 1.389 . S
C1338 C1339 1.524 . S
C1338 C1352 1.377 . S
C1339 C1338 1.524 . S
C1339 C1340 1.397 . S
C1339 C1344 1.363 . S
C1340 H1317 0.950 . S
C1340 C1339 1.397 . S
C1340 C1341 1.334 . S
C1341 H1318 0.950 . S
C1341 C1340 1.334 . S
C1341 C1342 1.287 . S
C1342 C1341 1.287 . S
C1342 C1343 1.524 . S
C1342 H1361 0.913 . S
C1343 H1319 0.950 . S
C1343 C1342 1.524 . S
C1343 C1344 1.415 . S
C1344 H1320 0.950 . S
C1344 C1339 1.363 . S
C1344 C1343 1.415 . S
C1345 H1321 0.951 . S
C1345 C1346 1.366 . S
C1345 C1347 1.388 . S
C1346 C1345 1.366 . S
C1346 C1350 1.385 . S
C1347 H1322 0.951 . S
C1347 C1345 1.388 . S
C1347 C1348 1.366 . S
C1348 C1347 1.366 . S
C1348 C1349 1.414 . S
C1348 C1351 1.499 . S
C1349 H1323 0.950 . S
C1349 C1348 1.414 . S
C1349 C1350 1.374 . S
C1350 H1324 0.950 . S
C1350 C1346 1.385 . S
C1350 C1349 1.374 . S
C1351 C1348 1.499 . S
C1351 C1352 1.373 1_554 S
C1351 C1353 1.389 . S
C1352 H1325 0.950 . S
C1352 C1338 1.377 . S
C1352 C1351 1.373 1_556 S
C1353 C1337 1.377 . S
C1353 C1351 1.389 . S
C1353 C1354 1.524 . S
C1354 C1353 1.524 . S
C1354 C1355 1.397 . S
C1354 C1359 1.363 . S
C1355 H1326 0.950 . S
C1355 C1354 1.397 . S
C1355 C1356 1.334 . S
C1356 H1327 0.950 . S
C1356 C1355 1.334 . S
C1356 C1357 1.287 . S
C1357 C1356 1.287 . S
C1357 C1358 1.524 . S
C1357 H1360 0.999 . S
C1358 H1328 0.950 . S
C1358 C1357 1.524 . S
C1358 C1359 1.415 . S
C1359 H1329 0.950 . S
C1359 C1354 1.363 . S
C1359 C1358 1.415 . S
H1360 C1357 0.999 . S
H1361 C1342 0.913 . S
H1362 C1380 0.951 . S
H1363 C1382 0.951 . S
H1364 C1384 0.950 . S
H1365 C1385 0.950 . S
H1366 C1387 0.950 . S
H1367 C1390 0.950 . S
H1368 C1391 0.950 . S
H1369 C1393 0.950 . S
H1370 C1394 0.950 . S
H1371 C1395 0.951 . S
H1372 C1397 0.951 . S
H1373 C1399 0.950 . S
H1374 C1400 0.950 . S
H1375 C1402 0.950 . S
H1376 C1405 0.950 . S
H1377 C1406 0.950 . S
H1378 C1408 0.950 . S
H1379 C1409 0.950 . S
C1380 H1362 0.951 . S
C1380 C1381 1.366 . S
C1380 C1382 1.388 . S
C1381 C1380 1.366 . S
C1381 C1385 1.385 . S
C1382 H1363 0.951 . S
C1382 C1380 1.388 . S
C1382 C1383 1.366 . S
C1383 C1382 1.366 . S
C1383 C1384 1.414 . S
C1383 C1386 1.499 . S
C1384 H1364 0.950 . S
C1384 C1383 1.414 . S
C1384 C1385 1.374 . S
C1385 H1365 0.950 . S
C1385 C1381 1.385 . S
C1385 C1384 1.374 . S
C1386 C1383 1.499 . S
C1386 C1387 1.373 . S
C1386 C1388 1.389 . S
C1387 H1366 0.950 . S
C1387 C1386 1.373 . S
C1387 C1403 1.377 . S
C1388 C1386 1.389 . S
C1388 C1389 1.524 . S
C1388 C1402 1.377 . S
C1389 C1388 1.524 . S
C1389 C1390 1.397 . S
C1389 C1394 1.363 . S
C1390 H1367 0.950 . S
C1390 C1389 1.397 . S
C1390 C1391 1.334 . S
C1391 H1368 0.950 . S
C1391 C1390 1.334 . S
C1391 C1392 1.287 . S
C1392 C1391 1.287 . S
C1392 C1393 1.524 . S
C1392 H1411 0.913 . S
C1393 H1369 0.950 . S
C1393 C1392 1.524 . S
C1393 C1394 1.415 . S
C1394 H1370 0.950 . S
C1394 C1389 1.363 . S
C1394 C1393 1.415 . S
C1395 H1371 0.951 . S
C1395 C1396 1.366 . S
C1395 C1397 1.388 . S
C1396 C1395 1.366 . S
C1396 C1400 1.385 . S
C1397 H1372 0.951 . S
C1397 C1395 1.388 . S
C1397 C1398 1.366 . S
C1398 C1397 1.366 . S
C1398 C1399 1.414 . S
C1398 C1401 1.499 . S
C1399 H1373 0.950 . S
C1399 C1398 1.414 . S
C1399 C1400 1.374 . S
C1400 H1374 0.950 . S
C1400 C1396 1.385 . S
C1400 C1399 1.374 . S
C1401 C1398 1.499 . S
C1401 C1402 1.373 . S
C1401 C1403 1.389 . S
C1402 H1375 0.950 . S
C1402 C1388 1.377 . S
C1402 C1401 1.373 . S
C1403 C1387 1.377 . S
C1403 C1401 1.389 . S
C1403 C1404 1.524 . S
C1404 C1403 1.524 . S
C1404 C1405 1.397 . S
C1404 C1409 1.363 . S
C1405 H1376 0.950 . S
C1405 C1404 1.397 . S
C1405 C1406 1.334 . S
C1406 H1377 0.950 . S
C1406 C1405 1.334 . S
C1406 C1407 1.287 . S
C1407 C1406 1.287 . S
C1407 C1408 1.524 . S
C1407 H1410 0.999 . S
C1408 H1378 0.950 . S
C1408 C1407 1.524 . S
C1408 C1409 1.415 . S
C1409 H1379 0.950 . S
C1409 C1404 1.363 . S
C1409 C1408 1.415 . S
H1410 C1407 0.999 . S
H1411 C1392 0.913 . S
H1412 C1430 0.951 . S
H1413 C1432 0.951 . S
H1414 C1434 0.950 . S
H1415 C1435 0.950 . S
H1416 C1437 0.950 . S
H1417 C1440 0.950 . S
H1418 C1441 0.950 . S
H1419 C1443 0.950 . S
H1420 C1444 0.950 . S
H1421 C1445 0.951 . S
H1422 C1447 0.951 . S
H1423 C1449 0.950 . S
H1424 C1450 0.950 . S
H1425 C1452 0.950 . S
H1426 C1455 0.950 . S
H1427 C1456 0.950 . S
H1428 C1458 0.950 . S
H1429 C1459 0.950 . S
C1430 H1412 0.951 . S
C1430 C1431 1.366 . S
C1430 C1432 1.388 . S
C1431 C1430 1.366 . S
C1431 C1435 1.385 . S
C1432 H1413 0.951 . S
C1432 C1430 1.388 . S
C1432 C1433 1.366 . S
C1433 C1432 1.366 . S
C1433 C1434 1.414 . S
C1433 C1436 1.499 . S
C1434 H1414 0.950 . S
C1434 C1433 1.414 . S
C1434 C1435 1.374 . S
C1435 H1415 0.950 . S
C1435 C1431 1.385 . S
C1435 C1434 1.374 . S
C1436 C1433 1.499 . S
C1436 C1437 1.373 1_556 S
C1436 C1438 1.389 . S
C1437 H1416 0.950 . S
C1437 C1436 1.373 1_554 S
C1437 C1453 1.377 . S
C1438 C1436 1.389 . S
C1438 C1439 1.524 . S
C1438 C1452 1.377 . S
C1439 C1438 1.524 . S
C1439 C1440 1.397 . S
C1439 C1444 1.363 . S
C1440 H1417 0.950 . S
C1440 C1439 1.397 . S
C1440 C1441 1.334 . S
C1441 H1418 0.950 . S
C1441 C1440 1.334 . S
C1441 C1442 1.287 . S
C1442 C1441 1.287 . S
C1442 C1443 1.524 . S
C1442 H1461 0.913 . S
C1443 H1419 0.950 . S
C1443 C1442 1.524 . S
C1443 C1444 1.415 . S
C1444 H1420 0.950 . S
C1444 C1439 1.363 . S
C1444 C1443 1.415 . S
C1445 H1421 0.951 . S
C1445 C1446 1.366 . S
C1445 C1447 1.388 . S
C1446 C1445 1.366 . S
C1446 C1450 1.385 . S
C1447 H1422 0.951 . S
C1447 C1445 1.388 . S
C1447 C1448 1.366 . S
C1448 C1447 1.366 . S
C1448 C1449 1.414 . S
C1448 C1451 1.499 . S
C1449 H1423 0.950 . S
C1449 C1448 1.414 . S
C1449 C1450 1.374 . S
C1450 H1424 0.950 . S
C1450 C1446 1.385 . S
C1450 C1449 1.374 . S
C1451 C1448 1.499 . S
C1451 C1452 1.373 1_554 S
C1451 C1453 1.389 . S
C1452 H1425 0.950 . S
C1452 C1438 1.377 . S
C1452 C1451 1.373 1_556 S
C1453 C1437 1.377 . S
C1453 C1451 1.389 . S
C1453 C1454 1.524 . S
C1454 C1453 1.524 . S
C1454 C1455 1.397 . S
C1454 C1459 1.363 . S
C1455 H1426 0.950 . S
C1455 C1454 1.397 . S
C1455 C1456 1.334 . S
C1456 H1427 0.950 . S
C1456 C1455 1.334 . S
C1456 C1457 1.287 . S
C1457 C1456 1.287 . S
C1457 C1458 1.524 . S
C1457 H1460 0.999 . S
C1458 H1428 0.950 . S
C1458 C1457 1.524 . S
C1458 C1459 1.415 . S
C1459 H1429 0.950 . S
C1459 C1454 1.363 . S
C1459 C1458 1.415 . S
H1460 C1457 0.999 . S
H1461 C1442 0.913 . S
H1462 C1480 0.951 . S
H1463 C1482 0.951 . S
H1464 C1484 0.950 . S
H1465 C1485 0.950 . S
H1466 C1487 0.950 . S
H1467 C1490 0.950 . S
H1468 C1491 0.950 . S
H1469 C1493 0.950 . S
H1470 C1494 0.950 . S
H1471 C1495 0.951 . S
H1472 C1497 0.951 . S
H1473 C1499 0.950 . S
H1474 C1500 0.950 . S
H1475 C1502 0.950 . S
H1476 C1505 0.950 . S
H1477 C1506 0.950 . S
H1478 C1508 0.950 . S
H1479 C1509 0.950 . S
C1480 H1462 0.951 . S
C1480 C1481 1.366 . S
C1480 C1482 1.388 . S
C1481 C1480 1.366 . S
C1481 C1485 1.385 . S
C1482 H1463 0.951 . S
C1482 C1480 1.388 . S
C1482 C1483 1.366 . S
C1483 C1482 1.366 . S
C1483 C1484 1.414 . S
C1483 C1486 1.499 . S
C1484 H1464 0.950 . S
C1484 C1483 1.414 . S
C1484 C1485 1.374 . S
C1485 H1465 0.950 . S
C1485 C1481 1.385 . S
C1485 C1484 1.374 . S
C1486 C1483 1.499 . S
C1486 C1487 1.373 . S
C1486 C1488 1.389 . S
C1487 H1466 0.950 . S
C1487 C1486 1.373 . S
C1487 C1503 1.377 . S
C1488 C1486 1.389 . S
C1488 C1489 1.524 . S
C1488 C1502 1.377 . S
C1489 C1488 1.524 . S
C1489 C1490 1.397 . S
C1489 C1494 1.363 . S
C1490 H1467 0.950 . S
C1490 C1489 1.397 . S
C1490 C1491 1.334 . S
C1491 H1468 0.950 . S
C1491 C1490 1.334 . S
C1491 C1492 1.287 . S
C1492 C1491 1.287 . S
C1492 C1493 1.524 . S
C1492 H1511 0.913 . S
C1493 H1469 0.950 . S
C1493 C1492 1.524 . S
C1493 C1494 1.415 . S
C1494 H1470 0.950 . S
C1494 C1489 1.363 . S
C1494 C1493 1.415 . S
C1495 H1471 0.951 . S
C1495 C1496 1.366 . S
C1495 C1497 1.388 . S
C1496 C1495 1.366 . S
C1496 C1500 1.385 . S
C1497 H1472 0.951 . S
C1497 C1495 1.388 . S
C1497 C1498 1.366 . S
C1498 C1497 1.366 . S
C1498 C1499 1.414 . S
C1498 C1501 1.499 . S
C1499 H1473 0.950 . S
C1499 C1498 1.414 . S
C1499 C1500 1.374 . S
C1500 H1474 0.950 . S
C1500 C1496 1.385 . S
C1500 C1499 1.374 . S
C1501 C1498 1.499 . S
C1501 C1502 1.373 . S
C1501 C1503 1.389 . S
C1502 H1475 0.950 . S
C1502 C1488 1.377 . S
C1502 C1501 1.373 . S
C1503 C1487 1.377 . S
C1503 C1501 1.389 . S
C1503 C1504 1.524 . S
C1504 C1503 1.524 . S
C1504 C1505 1.397 . S
C1504 C1509 1.363 . S
C1505 H1476 0.950 . S
C1505 C1504 1.397 . S
C1505 C1506 1.334 . S
C1506 H1477 0.950 . S
C1506 C1505 1.334 . S
C1506 C1507 1.287 . S
C1507 C1506 1.287 . S
C1507 C1508 1.524 . S
C1507 H1510 0.999 . S
C1508 H1478 0.950 . S
C1508 C1507 1.524 . S
C1508 C1509 1.415 . S
C1509 H1479 0.950 . S
C1509 C1504 1.363 . S
C1509 C1508 1.415 . S
H1510 C1507 0.999 . S
H1511 C1492 0.913 . S
H1512 C1530 0.951 . S
H1513 C1532 0.951 . S
H1514 C1534 0.950 . S
H1515 C1535 0.950 . S
H1516 C1537 0.950 . S
H1517 C1540 0.950 . S
H1518 C1541 0.950 . S
H1519 C1543 0.950 . S
H1520 C1544 0.950 . S
H1521 C1545 0.951 . S
H1522 C1547 0.951 . S
H1523 C1549 0.950 . S
H1524 C1550 0.950 . S
H1525 C1552 0.950 . S
H1526 C1555 0.950 . S
H1527 C1556 0.950 . S
H1528 C1558 0.950 . S
H1529 C1559 0.954 . S
C1530 H1512 0.951 . S
C1530 C1531 1.366 . S
C1530 C1532 1.388 . S
C1531 C1530 1.366 . S
C1531 C1535 1.385 . S
C1532 H1513 0.951 . S
C1532 C1530 1.388 . S
C1532 C1533 1.366 . S
C1533 C1532 1.366 . S
C1533 C1534 1.414 . S
C1533 C1536 1.499 . S
C1534 H1514 0.950 . S
C1534 C1533 1.414 . S
C1534 C1535 1.374 . S
C1535 H1515 0.950 . S
C1535 C1531 1.385 . S
C1535 C1534 1.374 . S
C1536 C1533 1.499 . S
C1536 C1537 1.373 . S
C1536 C1538 1.389 . S
C1537 H1516 0.950 . S
C1537 C1536 1.373 . S
C1537 C1553 1.377 . S
C1538 C1536 1.389 . S
C1538 C1539 1.524 . S
C1538 C1552 1.377 . S
C1539 C1538 1.524 . S
C1539 C1540 1.397 . S
C1539 C1544 1.363 . S
C1540 H1517 0.950 . S
C1540 C1539 1.397 . S
C1540 C1541 1.334 . S
C1541 H1518 0.950 . S
C1541 C1540 1.334 . S
C1541 C1542 1.287 . S
C1542 C1541 1.287 . S
C1542 C1543 1.524 . S
C1542 H1561 0.913 . S
C1543 H1519 0.950 . S
C1543 C1542 1.524 . S
C1543 C1544 1.415 . S
C1544 H1520 0.950 . S
C1544 C1539 1.363 . S
C1544 C1543 1.415 . S
C1545 H1521 0.951 . S
C1545 C1546 1.366 . S
C1545 C1547 1.388 . S
C1546 C1545 1.366 . S
C1546 C1550 1.385 . S
C1547 H1522 0.951 . S
C1547 C1545 1.388 . S
C1547 C1548 1.366 . S
C1548 C1547 1.366 . S
C1548 C1549 1.414 . S
C1548 C1551 1.499 . S
C1549 H1523 0.950 . S
C1549 C1548 1.414 . S
C1549 C1550 1.374 . S
C1550 H1524 0.950 . S
C1550 C1546 1.385 . S
C1550 C1549 1.374 . S
C1551 C1548 1.499 . S
C1551 C1552 1.373 . S
C1551 C1553 1.389 . S
C1552 H1525 0.950 . S
C1552 C1538 1.377 . S
C1552 C1551 1.373 . S
C1553 C1537 1.377 . S
C1553 C1551 1.389 . S
C1553 C1554 1.524 . S
C1554 C1553 1.524 . S
C1554 C1555 1.397 . S
C1554 C1559 1.344 1_554 S
C1555 H1526 0.950 . S
C1555 C1554 1.397 . S
C1555 C1556 1.334 . S
C1556 H1527 0.950 . S
C1556 C1555 1.334 . S
C1556 C1557 1.287 1_554 S
C1557 C1556 1.287 1_556 S
C1557 C1558 1.524 . S
C1557 H1560 0.999 . S
C1558 H1528 0.950 . S
C1558 C1557 1.524 . S
C1558 C1559 1.430 . S
C1559 H1529 0.954 . S
C1559 C1554 1.344 1_556 S
C1559 C1558 1.430 . S
H1560 C1557 0.999 . S
H1561 C1542 0.913 . S
H1562 C1580 0.951 . S
H1563 C1582 0.951 . S
H1564 C1584 0.950 . S
H1565 C1585 0.950 . S
H1566 C1587 0.950 . S
H1567 C1590 0.950 . S
H1568 C1591 0.950 . S
H1569 C1593 0.950 . S
H1570 C1594 0.950 . S
H1571 C1595 0.951 . S
H1572 C1597 0.951 . S
H1573 C1599 0.950 . S
H1574 C1600 0.950 . S
H1575 C1602 0.950 . S
H1576 C1605 0.950 . S
H1577 C1606 0.950 . S
H1578 C1608 0.950 . S
H1579 C1609 0.950 . S
C1580 H1562 0.951 . S
C1580 C1581 1.366 . S
C1580 C1582 1.388 . S
C1581 C1580 1.366 . S
C1581 C1585 1.385 . S
C1582 H1563 0.951 . S
C1582 C1580 1.388 . S
C1582 C1583 1.366 . S
C1583 C1582 1.366 . S
C1583 C1584 1.414 . S
C1583 C1586 1.499 . S
C1584 H1564 0.950 . S
C1584 C1583 1.414 . S
C1584 C1585 1.374 . S
C1585 H1565 0.950 . S
C1585 C1581 1.385 . S
C1585 C1584 1.374 . S
C1586 C1583 1.499 . S
C1586 C1587 1.373 . S
C1586 C1588 1.389 . S
C1587 H1566 0.950 . S
C1587 C1586 1.373 . S
C1587 C1603 1.377 1_455 S
C1588 C1586 1.389 . S
C1588 C1589 1.524 . S
C1588 C1602 1.377 1_455 S
C1589 C1588 1.524 . S
C1589 C1590 1.397 . S
C1589 C1594 1.363 . S
C1590 H1567 0.950 . S
C1590 C1589 1.397 . S
C1590 C1591 1.334 . S
C1591 H1568 0.950 . S
C1591 C1590 1.334 . S
C1591 C1592 1.287 . S
C1592 C1591 1.287 . S
C1592 C1593 1.524 . S
C1592 H1611 0.913 . S
C1593 H1569 0.950 . S
C1593 C1592 1.524 . S
C1593 C1594 1.415 . S
C1594 H1570 0.950 . S
C1594 C1589 1.363 . S
C1594 C1593 1.415 . S
C1595 H1571 0.951 . S
C1595 C1596 1.366 . S
C1595 C1597 1.388 . S
C1596 C1595 1.366 . S
C1596 C1600 1.385 . S
C1597 H1572 0.951 . S
C1597 C1595 1.388 . S
C1597 C1598 1.366 . S
C1598 C1597 1.366 . S
C1598 C1599 1.414 . S
C1598 C1601 1.499 . S
C1599 H1573 0.950 . S
C1599 C1598 1.414 . S
C1599 C1600 1.374 . S
C1600 H1574 0.950 . S
C1600 C1596 1.385 . S
C1600 C1599 1.374 . S
C1601 C1598 1.499 . S
C1601 C1602 1.373 . S
C1601 C1603 1.389 . S
C1602 H1575 0.950 . S
C1602 C1588 1.377 1_655 S
C1602 C1601 1.373 . S
C1603 C1587 1.377 1_655 S
C1603 C1601 1.389 . S
C1603 C1604 1.524 . S
C1604 C1603 1.524 . S
C1604 C1605 1.397 . S
C1604 C1609 1.363 . S
C1605 H1576 0.950 . S
C1605 C1604 1.397 . S
C1605 C1606 1.334 . S
C1606 H1577 0.950 . S
C1606 C1605 1.334 . S
C1606 C1607 1.287 . S
C1607 C1606 1.287 . S
C1607 C1608 1.524 . S
C1607 H1610 0.999 . S
C1608 H1578 0.950 . S
C1608 C1607 1.524 . S
C1608 C1609 1.415 . S
C1609 H1579 0.950 . S
C1609 C1604 1.363 . S
C1609 C1608 1.415 . S
H1610 C1607 0.999 . S
H1611 C1592 0.913 . S
H1612 C1630 0.951 . S
H1613 C1632 0.951 . S
H1614 C1634 0.950 . S
H1615 C1635 0.950 . S
H1616 C1637 0.950 . S
H1617 C1640 0.950 . S
H1618 C1641 0.950 . S
H1619 C1643 0.950 . S
H1620 C1644 0.950 . S
H1621 C1645 0.951 . S
H1622 C1647 0.951 . S
H1623 C1649 0.950 . S
H1624 C1650 0.950 . S
H1625 C1652 0.950 . S
H1626 C1655 0.950 . S
H1627 C1656 0.950 . S
H1628 C1658 0.950 . S
H1629 C1659 0.950 . S
C1630 H1612 0.951 . S
C1630 C1631 1.366 . S
C1630 C1632 1.388 . S
C1631 C1630 1.366 . S
C1631 C1635 1.385 . S
C1632 H1613 0.951 . S
C1632 C1630 1.388 . S
C1632 C1633 1.366 . S
C1633 C1632 1.366 . S
C1633 C1634 1.414 . S
C1633 C1636 1.499 . S
C1634 H1614 0.950 . S
C1634 C1633 1.414 . S
C1634 C1635 1.374 . S
C1635 H1615 0.950 . S
C1635 C1631 1.385 . S
C1635 C1634 1.374 . S
C1636 C1633 1.499 . S
C1636 C1637 1.373 . S
C1636 C1638 1.389 . S
C1637 H1616 0.950 . S
C1637 C1636 1.373 . S
C1637 C1653 1.377 1_565 S
C1638 C1636 1.389 . S
C1638 C1639 1.524 . S
C1638 C1652 1.377 1_565 S
C1639 C1638 1.524 . S
C1639 C1640 1.397 . S
C1639 C1644 1.363 . S
C1640 H1617 0.950 . S
C1640 C1639 1.397 . S
C1640 C1641 1.334 1_554 S
C1641 H1618 0.950 . S
C1641 C1640 1.334 1_556 S
C1641 C1642 1.287 . S
C1642 C1641 1.287 . S
C1642 C1643 1.524 . S
C1642 H1661 0.913 . S
C1643 H1619 0.950 . S
C1643 C1642 1.524 . S
C1643 C1644 1.415 1_556 S
C1644 H1620 0.950 . S
C1644 C1639 1.363 . S
C1644 C1643 1.415 1_554 S
C1645 H1621 0.951 . S
C1645 C1646 1.366 . S
C1645 C1647 1.388 . S
C1646 C1645 1.366 . S
C1646 C1650 1.385 . S
C1647 H1622 0.951 . S
C1647 C1645 1.388 . S
C1647 C1648 1.366 . S
C1648 C1647 1.366 . S
C1648 C1649 1.414 . S
C1648 C1651 1.499 . S
C1649 H1623 0.950 . S
C1649 C1648 1.414 . S
C1649 C1650 1.374 . S
C1650 H1624 0.950 . S
C1650 C1646 1.385 . S
C1650 C1649 1.374 . S
C1651 C1648 1.499 . S
C1651 C1652 1.373 . S
C1651 C1653 1.389 . S
C1652 H1625 0.950 . S
C1652 C1638 1.377 1_545 S
C1652 C1651 1.373 . S
C1653 C1637 1.377 1_545 S
C1653 C1651 1.389 . S
C1653 C1654 1.524 . S
C1654 C1653 1.524 . S
C1654 C1655 1.397 . S
C1654 C1659 1.363 . S
C1655 H1626 0.950 . S
C1655 C1654 1.397 . S
C1655 C1656 1.334 . S
C1656 H1627 0.950 . S
C1656 C1655 1.334 . S
C1656 C1657 1.287 . S
C1657 C1656 1.287 . S
C1657 C1658 1.524 . S
C1657 H1660 0.999 . S
C1658 H1628 0.950 . S
C1658 C1657 1.524 . S
C1658 C1659 1.415 . S
C1659 H1629 0.950 . S
C1659 C1654 1.363 . S
C1659 C1658 1.415 . S
H1660 C1657 0.999 . S
H1661 C1642 0.913 . S
H1662 C1680 0.951 . S
H1663 C1682 0.951 . S
H1664 C1684 0.950 . S
H1665 C1685 0.950 . S
H1666 C1687 0.950 . S
H1667 C1690 0.950 . S
H1668 C1691 0.950 . S
H1669 C1693 0.950 . S
H1670 C1694 0.950 . S
H1671 C1695 0.951 . S
H1672 C1697 0.951 . S
H1673 C1699 0.950 . S
H1674 C1700 0.950 . S
H1675 C1702 0.950 . S
H1676 C1705 0.950 . S
H1677 C1706 0.950 . S
H1678 C1708 0.950 . S
H1679 C1709 0.950 . S
C1680 H1662 0.951 . S
C1680 C1681 1.366 . S
C1680 C1682 1.388 . S
C1681 C1680 1.366 . S
C1681 C1685 1.385 . S
C1682 H1663 0.951 . S
C1682 C1680 1.388 . S
C1682 C1683 1.366 . S
C1683 C1682 1.366 . S
C1683 C1684 1.414 . S
C1683 C1686 1.499 . S
C1684 H1664 0.950 . S
C1684 C1683 1.414 . S
C1684 C1685 1.374 . S
C1685 H1665 0.950 . S
C1685 C1681 1.385 . S
C1685 C1684 1.374 . S
C1686 C1683 1.499 . S
C1686 C1687 1.373 . S
C1686 C1688 1.389 . S
C1687 H1666 0.950 . S
C1687 C1686 1.373 . S
C1687 C1703 1.377 . S
C1688 C1686 1.389 . S
C1688 C1689 1.524 . S
C1688 C1702 1.377 . S
C1689 C1688 1.524 . S
C1689 C1690 1.397 . S
C1689 C1694 1.363 . S
C1690 H1667 0.950 . S
C1690 C1689 1.397 . S
C1690 C1691 1.334 . S
C1691 H1668 0.950 . S
C1691 C1690 1.334 . S
C1691 C1692 1.287 . S
C1692 C1691 1.287 . S
C1692 C1693 1.524 . S
C1692 H1711 0.913 . S
C1693 H1669 0.950 . S
C1693 C1692 1.524 . S
C1693 C1694 1.415 . S
C1694 H1670 0.950 . S
C1694 C1689 1.363 . S
C1694 C1693 1.415 . S
C1695 H1671 0.951 . S
C1695 C1696 1.366 . S
C1695 C1697 1.388 . S
C1696 C1695 1.366 . S
C1696 C1700 1.385 . S
C1697 H1672 0.951 . S
C1697 C1695 1.388 . S
C1697 C1698 1.366 . S
C1698 C1697 1.366 . S
C1698 C1699 1.414 . S
C1698 C1701 1.499 . S
C1699 H1673 0.950 . S
C1699 C1698 1.414 . S
C1699 C1700 1.374 . S
C1700 H1674 0.950 . S
C1700 C1696 1.385 . S
C1700 C1699 1.374 . S
C1701 C1698 1.499 . S
C1701 C1702 1.373 . S
C1701 C1703 1.389 . S
C1702 H1675 0.950 . S
C1702 C1688 1.377 . S
C1702 C1701 1.373 . S
C1703 C1687 1.377 . S
C1703 C1701 1.389 . S
C1703 C1704 1.524 . S
C1704 C1703 1.524 . S
C1704 C1705 1.397 . S
C1704 C1709 1.363 . S
C1705 H1676 0.950 . S
C1705 C1704 1.397 . S
C1705 C1706 1.334 . S
C1706 H1677 0.950 . S
C1706 C1705 1.334 . S
C1706 C1707 1.287 . S
C1707 C1706 1.287 . S
C1707 C1708 1.524 . S
C1707 H1710 0.999 . S
C1708 H1678 0.950 . S
C1708 C1707 1.524 . S
C1708 C1709 1.415 . S
C1709 H1679 0.950 . S
C1709 C1704 1.363 . S
C1709 C1708 1.415 . S
H1710 C1707 0.999 . S
H1711 C1692 0.913 . S
H1712 C1730 0.951 . S
H1713 C1732 0.951 . S
H1714 C1734 0.950 . S
H1715 C1735 0.950 . S
H1716 C1737 0.950 . S
H1717 C1740 0.950 . S
H1718 C1741 0.950 . S
H1719 C1743 0.950 . S
H1720 C1744 0.950 . S
H1721 C1745 0.951 . S
H1722 C1747 0.951 . S
H1723 C1749 0.950 . S
H1724 C1750 0.950 . S
H1725 C1752 0.950 . S
H1726 C1755 0.950 . S
H1727 C1756 0.950 1_556 S
H1728 C1758 0.950 . S
H1729 C1759 0.950 . S
C1730 H1712 0.951 . S
C1730 C1731 1.366 . S
C1730 C1732 1.388 . S
C1731 C1730 1.366 . S
C1731 C1735 1.385 . S
C1732 H1713 0.951 . S
C1732 C1730 1.388 . S
C1732 C1733 1.366 . S
C1733 C1732 1.366 . S
C1733 C1734 1.414 . S
C1733 C1736 1.499 . S
C1734 H1714 0.950 . S
C1734 C1733 1.414 . S
C1734 C1735 1.374 . S
C1735 H1715 0.950 . S
C1735 C1731 1.385 . S
C1735 C1734 1.374 . S
C1736 C1733 1.499 . S
C1736 C1737 1.373 . S
C1736 C1738 1.389 . S
C1737 H1716 0.950 . S
C1737 C1736 1.373 . S
C1737 C1753 1.377 1_655 S
C1738 C1736 1.389 . S
C1738 C1739 1.524 . S
C1738 C1752 1.377 1_655 S
C1739 C1738 1.524 . S
C1739 C1740 1.397 . S
C1739 C1744 1.363 . S
C1740 H1717 0.950 . S
C1740 C1739 1.397 . S
C1740 C1741 1.334 . S
C1741 H1718 0.950 . S
C1741 C1740 1.334 . S
C1741 C1742 1.287 . S
C1742 C1741 1.287 . S
C1742 C1743 1.524 . S
C1742 H1761 0.913 . S
C1743 H1719 0.950 . S
C1743 C1742 1.524 . S
C1743 C1744 1.415 . S
C1744 H1720 0.950 . S
C1744 C1739 1.363 . S
C1744 C1743 1.415 . S
C1745 H1721 0.951 . S
C1745 C1746 1.366 . S
C1745 C1747 1.388 . S
C1746 C1745 1.366 . S
C1746 C1750 1.385 . S
C1747 H1722 0.951 . S
C1747 C1745 1.388 . S
C1747 C1748 1.366 . S
C1748 C1747 1.366 . S
C1748 C1749 1.414 . S
C1748 C1751 1.499 . S
C1749 H1723 0.950 . S
C1749 C1748 1.414 . S
C1749 C1750 1.374 . S
C1750 H1724 0.950 . S
C1750 C1746 1.385 . S
C1750 C1749 1.374 . S
C1751 C1748 1.499 . S
C1751 C1752 1.373 . S
C1751 C1753 1.389 . S
C1752 H1725 0.950 . S
C1752 C1738 1.377 1_455 S
C1752 C1751 1.373 . S
C1753 C1737 1.377 1_455 S
C1753 C1751 1.389 . S
C1753 C1754 1.524 . S
C1754 C1753 1.524 . S
C1754 C1755 1.397 . S
C1754 C1759 1.363 . S
C1755 H1726 0.950 . S
C1755 C1754 1.397 . S
C1755 C1756 1.334 . S
C1756 H1727 0.950 1_554 S
C1756 C1755 1.334 . S
C1756 C1757 1.287 . S
C1757 C1756 1.287 . S
C1757 C1758 1.524 . S
C1757 H1760 0.999 . S
C1758 H1728 0.950 . S
C1758 C1757 1.524 . S
C1758 C1759 1.415 . S
C1759 H1729 0.950 . S
C1759 C1754 1.363 . S
C1759 C1758 1.415 . S
H1760 C1757 0.999 . S
H1761 C1742 0.913 . S
H1762 C1780 0.951 . S
H1763 C1782 0.951 . S
H1764 C1784 0.950 . S
H1765 C1785 0.950 . S
H1766 C1787 0.950 . S
H1767 C1790 0.950 . S
H1768 C1791 0.950 . S
H1769 C1793 0.950 . S
H1770 C1794 0.950 . S
H1771 C1795 0.951 . S
H1772 C1797 0.951 . S
H1773 C1799 0.950 . S
H1774 C1800 0.950 . S
H1775 C1802 0.950 . S
H1776 C1805 0.950 . S
H1777 C1806 0.950 . S
H1778 C1808 0.950 . S
H1779 C1809 0.950 . S
C1780 H1762 0.951 . S
C1780 C1781 1.366 . S
C1780 C1782 1.388 . S
C1781 C1780 1.366 . S
C1781 C1785 1.385 . S
C1782 H1763 0.951 . S
C1782 C1780 1.388 . S
C1782 C1783 1.366 . S
C1783 C1782 1.366 . S
C1783 C1784 1.414 . S
C1783 C1786 1.499 . S
C1784 H1764 0.950 . S
C1784 C1783 1.414 . S
C1784 C1785 1.374 . S
C1785 H1765 0.950 . S
C1785 C1781 1.385 . S
C1785 C1784 1.374 . S
C1786 C1783 1.499 . S
C1786 C1787 1.373 . S
C1786 C1788 1.389 . S
C1787 H1766 0.950 . S
C1787 C1786 1.373 . S
C1787 C1803 1.377 1_545 S
C1788 C1786 1.389 . S
C1788 C1789 1.524 . S
C1788 C1802 1.377 1_545 S
C1789 C1788 1.524 . S
C1789 C1790 1.397 . S
C1789 C1794 1.363 . S
C1790 H1767 0.950 . S
C1790 C1789 1.397 . S
C1790 C1791 1.334 . S
C1791 H1768 0.950 . S
C1791 C1790 1.334 . S
C1791 C1792 1.287 . S
C1792 C1791 1.287 . S
C1792 C1793 1.524 . S
C1792 H1811 0.913 . S
C1793 H1769 0.950 . S
C1793 C1792 1.524 . S
C1793 C1794 1.415 . S
C1794 H1770 0.950 . S
C1794 C1789 1.363 . S
C1794 C1793 1.415 . S
C1795 H1771 0.951 . S
C1795 C1796 1.366 . S
C1795 C1797 1.388 . S
C1796 C1795 1.366 . S
C1796 C1800 1.385 . S
C1797 H1772 0.951 . S
C1797 C1795 1.388 . S
C1797 C1798 1.366 . S
C1798 C1797 1.366 . S
C1798 C1799 1.414 . S
C1798 C1801 1.499 . S
C1799 H1773 0.950 . S
C1799 C1798 1.414 . S
C1799 C1800 1.374 . S
C1800 H1774 0.950 . S
C1800 C1796 1.385 . S
C1800 C1799 1.374 . S
C1801 C1798 1.499 . S
C1801 C1802 1.373 . S
C1801 C1803 1.389 . S
C1802 H1775 0.950 . S
C1802 C1788 1.377 1_565 S
C1802 C1801 1.373 . S
C1803 C1787 1.377 1_565 S
C1803 C1801 1.389 . S
C1803 C1804 1.524 . S
C1804 C1803 1.524 . S
C1804 C1805 1.397 . S
C1804 C1809 1.363 . S
C1805 H1776 0.950 . S
C1805 C1804 1.397 . S
C1805 C1806 1.334 . S
C1806 H1777 0.950 . S
C1806 C1805 1.334 . S
C1806 C1807 1.287 . S
C1807 C1806 1.287 . S
C1807 C1808 1.524 . S
C1807 H1810 0.999 . S
C1808 H1778 0.950 . S
C1808 C1807 1.524 . S
C1808 C1809 1.415 . S
C1809 H1779 0.950 . S
C1809 C1804 1.363 . S
C1809 C1808 1.415 . S
H1810 C1807 0.999 . S
H1811 C1792 0.913 . S
H1812 C1830 0.951 . S
H1813 C1832 0.951 . S
H1814 C1834 0.950 . S
H1815 C1835 0.950 . S
H1816 C1837 0.950 . S
H1817 C1840 0.950 . S
H1818 C1841 0.950 . S
H1819 C1843 0.950 . S
H1820 C1844 0.950 . S
H1821 C1845 0.951 . S
H1822 C1847 0.951 . S
H1823 C1849 0.950 . S
H1824 C1850 0.950 . S
H1825 C1852 0.950 . S
H1826 C1855 0.950 . S
H1827 C1856 0.950 . S
H1828 C1858 0.950 . S
H1829 C1859 0.950 . S
C1830 H1812 0.951 . S
C1830 C1831 1.366 . S
C1830 C1832 1.388 . S
C1831 C1830 1.366 . S
C1831 C1835 1.385 . S
C1832 H1813 0.951 . S
C1832 C1830 1.388 . S
C1832 C1833 1.366 . S
C1833 C1832 1.366 . S
C1833 C1834 1.414 . S
C1833 C1836 1.499 . S
C1834 H1814 0.950 . S
C1834 C1833 1.414 . S
C1834 C1835 1.374 . S
C1835 H1815 0.950 . S
C1835 C1831 1.385 . S
C1835 C1834 1.374 . S
C1836 C1833 1.499 . S
C1836 C1837 1.373 . S
C1836 C1838 1.389 . S
C1837 H1816 0.950 . S
C1837 C1836 1.373 . S
C1837 C1853 1.377 . S
C1838 C1836 1.389 . S
C1838 C1839 1.524 . S
C1838 C1852 1.377 . S
C1839 C1838 1.524 . S
C1839 C1840 1.397 . S
C1839 C1844 1.363 . S
C1840 H1817 0.950 . S
C1840 C1839 1.397 . S
C1840 C1841 1.334 1_556 S
C1841 H1818 0.950 . S
C1841 C1840 1.334 1_554 S
C1841 C1842 1.287 . S
C1842 C1841 1.287 . S
C1842 C1843 1.524 . S
C1842 H1861 0.913 . S
C1843 H1819 0.950 . S
C1843 C1842 1.524 . S
C1843 C1844 1.415 1_554 S
C1844 H1820 0.950 . S
C1844 C1839 1.363 . S
C1844 C1843 1.415 1_556 S
C1845 H1821 0.951 . S
C1845 C1846 1.366 . S
C1845 C1847 1.388 . S
C1846 C1845 1.366 . S
C1846 C1850 1.385 . S
C1847 H1822 0.951 . S
C1847 C1845 1.388 . S
C1847 C1848 1.366 . S
C1848 C1847 1.366 . S
C1848 C1849 1.414 . S
C1848 C1851 1.499 . S
C1849 H1823 0.950 . S
C1849 C1848 1.414 . S
C1849 C1850 1.374 . S
C1850 H1824 0.950 . S
C1850 C1846 1.385 . S
C1850 C1849 1.374 . S
C1851 C1848 1.499 . S
C1851 C1852 1.373 . S
C1851 C1853 1.389 . S
C1852 H1825 0.950 . S
C1852 C1838 1.377 . S
C1852 C1851 1.373 . S
C1853 C1837 1.377 . S
C1853 C1851 1.389 . S
C1853 C1854 1.524 . S
C1854 C1853 1.524 . S
C1854 C1855 1.397 . S
C1854 C1859 1.363 . S
C1855 H1826 0.950 . S
C1855 C1854 1.397 . S
C1855 C1856 1.334 . S
C1856 H1827 0.950 . S
C1856 C1855 1.334 . S
C1856 C1857 1.287 . S
C1857 C1856 1.287 . S
C1857 C1858 1.524 . S
C1857 H1860 0.999 . S
C1858 H1828 0.950 . S
C1858 C1857 1.524 . S
C1858 C1859 1.415 . S
C1859 H1829 0.950 . S
C1859 C1854 1.363 . S
C1859 C1858 1.415 . S
H1860 C1857 0.999 . S
H1861 C1842 0.913 . S
H1862 C1880 0.951 . S
H1863 C1882 0.951 . S
H1864 C1884 0.950 . S
H1865 C1885 0.950 . S
H1866 C1887 0.950 . S
H1867 C1890 0.950 . S
H1868 C1891 0.950 . S
H1869 C1893 0.950 . S
H1870 C1894 0.950 . S
H1871 C1895 0.951 . S
H1872 C1897 0.951 . S
H1873 C1899 0.950 . S
H1874 C1900 0.950 . S
H1875 C1902 0.950 . S
H1876 C1905 0.950 . S
H1877 C1906 0.950 . S
H1878 C1908 0.950 . S
H1879 C1909 0.950 . S
C1880 H1862 0.951 . S
C1880 C1881 1.366 . S
C1880 C1882 1.388 . S
C1881 C1880 1.366 . S
C1881 C1885 1.385 . S
C1882 H1863 0.951 . S
C1882 C1880 1.388 . S
C1882 C1883 1.366 . S
C1883 C1882 1.366 . S
C1883 C1884 1.414 . S
C1883 C1886 1.499 . S
C1884 H1864 0.950 . S
C1884 C1883 1.414 . S
C1884 C1885 1.374 . S
C1885 H1865 0.950 . S
C1885 C1881 1.385 . S
C1885 C1884 1.374 . S
C1886 C1883 1.499 . S
C1886 C1887 1.373 . S
C1886 C1888 1.389 . S
C1887 H1866 0.950 . S
C1887 C1886 1.373 . S
C1887 C1903 1.377 1_655 S
C1888 C1886 1.389 . S
C1888 C1889 1.524 . S
C1888 C1902 1.377 1_655 S
C1889 C1888 1.524 . S
C1889 C1890 1.397 . S
C1889 C1894 1.363 . S
C1890 H1867 0.950 . S
C1890 C1889 1.397 . S
C1890 C1891 1.334 . S
C1891 H1868 0.950 . S
C1891 C1890 1.334 . S
C1891 C1892 1.287 . S
C1892 C1891 1.287 . S
C1892 C1893 1.524 . S
C1892 H1911 0.913 . S
C1893 H1869 0.950 . S
C1893 C1892 1.524 . S
C1893 C1894 1.415 . S
C1894 H1870 0.950 . S
C1894 C1889 1.363 . S
C1894 C1893 1.415 . S
C1895 H1871 0.951 . S
C1895 C1896 1.366 . S
C1895 C1897 1.388 . S
C1896 C1895 1.366 . S
C1896 C1900 1.385 . S
C1897 H1872 0.951 . S
C1897 C1895 1.388 . S
C1897 C1898 1.366 . S
C1898 C1897 1.366 . S
C1898 C1899 1.414 . S
C1898 C1901 1.499 . S
C1899 H1873 0.950 . S
C1899 C1898 1.414 . S
C1899 C1900 1.374 . S
C1900 H1874 0.950 . S
C1900 C1896 1.385 . S
C1900 C1899 1.374 . S
C1901 C1898 1.499 . S
C1901 C1902 1.373 . S
C1901 C1903 1.389 . S
C1902 H1875 0.950 . S
C1902 C1888 1.377 1_455 S
C1902 C1901 1.373 . S
C1903 C1887 1.377 1_455 S
C1903 C1901 1.389 . S
C1903 C1904 1.524 . S
C1904 C1903 1.524 . S
C1904 C1905 1.397 . S
C1904 C1909 1.363 . S
C1905 H1876 0.950 . S
C1905 C1904 1.397 . S
C1905 C1906 1.334 . S
C1906 H1877 0.950 . S
C1906 C1905 1.334 . S
C1906 C1907 1.287 . S
C1907 C1906 1.287 . S
C1907 C1908 1.524 . S
C1907 H1910 0.999 . S
C1908 H1878 0.950 . S
C1908 C1907 1.524 . S
C1908 C1909 1.415 . S
C1909 H1879 0.950 . S
C1909 C1904 1.363 . S
C1909 C1908 1.415 . S
H1910 C1907 0.999 . S
H1911 C1892 0.913 . S
H1912 C1930 0.951 . S
H1913 C1932 0.951 . S
H1914 C1934 0.950 . S
H1915 C1935 0.950 . S
H1916 C1937 0.950 . S
H1917 C1940 0.950 . S
H1918 C1941 0.950 . S
H1919 C1943 0.950 . S
H1920 C1944 0.950 . S
H1921 C1945 0.951 . S
H1922 C1947 0.951 . S
H1923 C1949 0.950 . S
H1924 C1950 0.950 . S
H1925 C1952 0.950 . S
H1926 C1955 0.950 . S
H1927 C1956 0.950 . S
H1928 C1958 0.950 . S
H1929 C1959 0.950 . S
C1930 H1912 0.951 . S
C1930 C1931 1.366 . S
C1930 C1932 1.388 . S
C1931 C1930 1.366 . S
C1931 C1935 1.385 . S
C1932 H1913 0.951 . S
C1932 C1930 1.388 . S
C1932 C1933 1.366 . S
C1933 C1932 1.366 . S
C1933 C1934 1.414 . S
C1933 C1936 1.499 . S
C1934 H1914 0.950 . S
C1934 C1933 1.414 . S
C1934 C1935 1.374 . S
C1935 H1915 0.950 . S
C1935 C1931 1.385 . S
C1935 C1934 1.374 . S
C1936 C1933 1.499 . S
C1936 C1937 1.373 . S
C1936 C1938 1.389 . S
C1937 H1916 0.950 . S
C1937 C1936 1.373 . S
C1937 C1953 1.377 1_545 S
C1938 C1936 1.389 . S
C1938 C1939 1.524 . S
C1938 C1952 1.377 1_545 S
C1939 C1938 1.524 . S
C1939 C1940 1.397 . S
C1939 C1944 1.363 . S
C1940 H1917 0.950 . S
C1940 C1939 1.397 . S
C1940 C1941 1.334 . S
C1941 H1918 0.950 . S
C1941 C1940 1.334 . S
C1941 C1942 1.287 . S
C1942 C1941 1.287 . S
C1942 C1943 1.524 . S
C1942 H1961 0.913 . S
C1943 H1919 0.950 . S
C1943 C1942 1.524 . S
C1943 C1944 1.415 . S
C1944 H1920 0.950 . S
C1944 C1939 1.363 . S
C1944 C1943 1.415 . S
C1945 H1921 0.951 . S
C1945 C1946 1.366 . S
C1945 C1947 1.388 . S
C1946 C1945 1.366 . S
C1946 C1950 1.385 . S
C1947 H1922 0.951 . S
C1947 C1945 1.388 . S
C1947 C1948 1.366 . S
C1948 C1947 1.366 . S
C1948 C1949 1.414 . S
C1948 C1951 1.499 . S
C1949 H1923 0.950 . S
C1949 C1948 1.414 . S
C1949 C1950 1.374 . S
C1950 H1924 0.950 . S
C1950 C1946 1.385 . S
C1950 C1949 1.374 . S
C1951 C1948 1.499 . S
C1951 C1952 1.373 . S
C1951 C1953 1.389 . S
C1952 H1925 0.950 . S
C1952 C1938 1.377 1_565 S
C1952 C1951 1.373 . S
C1953 C1937 1.377 1_565 S
C1953 C1951 1.389 . S
C1953 C1954 1.524 . S
C1954 C1953 1.524 . S
C1954 C1955 1.397 . S
C1954 C1959 1.363 1_556 S
C1955 H1926 0.950 . S
C1955 C1954 1.397 . S
C1955 C1956 1.334 . S
C1956 H1927 0.950 . S
C1956 C1955 1.334 . S
C1956 C1957 1.287 1_556 S
C1957 C1956 1.287 1_554 S
C1957 C1958 1.524 . S
C1957 H1960 0.999 . S
C1958 H1928 0.950 . S
C1958 C1957 1.524 . S
C1958 C1959 1.415 . S
C1959 H1929 0.950 . S
C1959 C1954 1.363 1_554 S
C1959 C1958 1.415 . S
H1960 C1957 0.999 . S
H1961 C1942 0.913 . S
H1962 C1980 0.951 . S
H1963 C1982 0.951 . S
H1964 C1984 0.950 . S
H1965 C1985 0.950 . S
H1966 C1987 0.950 . S
H1967 C1990 0.950 . S
H1968 C1991 0.950 . S
H1969 C1993 0.950 . S
H1970 C1994 0.950 . S
H1971 C1995 0.951 . S
H1972 C1997 0.951 . S
H1973 C1999 0.950 . S
H1974 C2000 0.950 . S
H1975 C2002 0.950 . S
H1976 C2005 0.950 . S
H1977 C2006 0.950 . S
H1978 C2008 0.950 . S
H1979 C2009 0.950 . S
C1980 H1962 0.951 . S
C1980 C1981 1.366 . S
C1980 C1982 1.388 . S
C1981 C1980 1.366 . S
C1981 C1985 1.385 . S
C1982 H1963 0.951 . S
C1982 C1980 1.388 . S
C1982 C1983 1.366 . S
C1983 C1982 1.366 . S
C1983 C1984 1.414 . S
C1983 C1986 1.499 . S
C1984 H1964 0.950 . S
C1984 C1983 1.414 . S
C1984 C1985 1.374 . S
C1985 H1965 0.950 . S
C1985 C1981 1.385 . S
C1985 C1984 1.374 . S
C1986 C1983 1.499 . S
C1986 C1987 1.373 . S
C1986 C1988 1.389 . S
C1987 H1966 0.950 . S
C1987 C1986 1.373 . S
C1987 C2003 1.377 . S
C1988 C1986 1.389 . S
C1988 C1989 1.524 . S
C1988 C2002 1.377 . S
C1989 C1988 1.524 . S
C1989 C1990 1.397 . S
C1989 C1994 1.363 . S
C1990 H1967 0.950 . S
C1990 C1989 1.397 . S
C1990 C1991 1.334 . S
C1991 H1968 0.950 . S
C1991 C1990 1.334 . S
C1991 C1992 1.287 . S
C1992 C1991 1.287 . S
C1992 C1993 1.524 . S
C1992 H2011 0.913 . S
C1993 H1969 0.950 . S
C1993 C1992 1.524 . S
C1993 C1994 1.415 . S
C1994 H1970 0.950 . S
C1994 C1989 1.363 . S
C1994 C1993 1.415 . S
C1995 H1971 0.951 . S
C1995 C1996 1.366 . S
C1995 C1997 1.388 . S
C1996 C1995 1.366 . S
C1996 C2000 1.385 . S
C1997 H1972 0.951 . S
C1997 C1995 1.388 . S
C1997 C1998 1.366 . S
C1998 C1997 1.366 . S
C1998 C1999 1.414 . S
C1998 C2001 1.499 . S
C1999 H1973 0.950 . S
C1999 C1998 1.414 . S
C1999 C2000 1.374 . S
C2000 H1974 0.950 . S
C2000 C1996 1.385 . S
C2000 C1999 1.374 . S
C2001 C1998 1.499 . S
C2001 C2002 1.373 . S
C2001 C2003 1.389 . S
C2002 H1975 0.950 . S
C2002 C1988 1.377 . S
C2002 C2001 1.373 . S
C2003 C1987 1.377 . S
C2003 C2001 1.389 . S
C2003 C2004 1.524 . S
C2004 C2003 1.524 . S
C2004 C2005 1.397 . S
C2004 C2009 1.363 . S
C2005 H1976 0.950 . S
C2005 C2004 1.397 . S
C2005 C2006 1.334 . S
C2006 H1977 0.950 . S
C2006 C2005 1.334 . S
C2006 C2007 1.287 . S
C2007 C2006 1.287 . S
C2007 C2008 1.524 . S
C2007 H2010 0.999 . S
C2008 H1978 0.950 . S
C2008 C2007 1.524 . S
C2008 C2009 1.415 . S
C2009 H1979 0.950 . S
C2009 C2004 1.363 . S
C2009 C2008 1.415 . S
H2010 C2007 0.999 . S
H2011 C1992 0.913 . S
H2012 C2030 0.951 . S
H2013 C2032 0.951 . S
H2014 C2034 0.950 . S
H2015 C2035 0.950 . S
H2016 C2037 0.950 . S
H2017 C2040 0.950 . S
H2018 C2041 0.950 . S
H2019 C2043 0.950 . S
H2020 C2044 0.950 . S
H2021 C2045 0.951 . S
H2022 C2047 0.951 . S
H2023 C2049 0.950 . S
H2024 C2050 0.950 . S
H2025 C2052 0.950 . S
H2026 C2055 0.950 . S
H2027 C2056 0.950 . S
H2028 C2058 0.950 . S
H2029 C2059 0.950 . S
C2030 H2012 0.951 . S
C2030 C2031 1.366 . S
C2030 C2032 1.388 . S
C2031 C2030 1.366 . S
C2031 C2035 1.385 . S
C2032 H2013 0.951 . S
C2032 C2030 1.388 . S
C2032 C2033 1.366 . S
C2033 C2032 1.366 . S
C2033 C2034 1.414 . S
C2033 C2036 1.499 . S
C2034 H2014 0.950 . S
C2034 C2033 1.414 . S
C2034 C2035 1.374 . S
C2035 H2015 0.950 . S
C2035 C2031 1.385 . S
C2035 C2034 1.374 . S
C2036 C2033 1.499 . S
C2036 C2037 1.373 . S
C2036 C2038 1.389 . S
C2037 H2016 0.950 . S
C2037 C2036 1.373 . S
C2037 C2053 1.377 1_455 S
C2038 C2036 1.389 . S
C2038 C2039 1.524 . S
C2038 C2052 1.377 1_455 S
C2039 C2038 1.524 . S
C2039 C2040 1.397 . S
C2039 C2044 1.363 . S
C2040 H2017 0.950 . S
C2040 C2039 1.397 . S
C2040 C2041 1.334 1_556 S
C2041 H2018 0.950 . S
C2041 C2040 1.334 1_554 S
C2041 C2042 1.287 . S
C2042 C2041 1.287 . S
C2042 C2043 1.524 . S
C2042 H2061 0.913 . S
C2043 H2019 0.950 . S
C2043 C2042 1.524 . S
C2043 C2044 1.415 1_554 S
C2044 H2020 0.950 . S
C2044 C2039 1.363 . S
C2044 C2043 1.415 1_556 S
C2045 H2021 0.951 . S
C2045 C2046 1.366 . S
C2045 C2047 1.388 . S
C2046 C2045 1.366 . S
C2046 C2050 1.385 . S
C2047 H2022 0.951 . S
C2047 C2045 1.388 . S
C2047 C2048 1.366 . S
C2048 C2047 1.366 . S
C2048 C2049 1.414 . S
C2048 C2051 1.499 . S
C2049 H2023 0.950 . S
C2049 C2048 1.414 . S
C2049 C2050 1.374 . S
C2050 H2024 0.950 . S
C2050 C2046 1.385 . S
C2050 C2049 1.374 . S
C2051 C2048 1.499 . S
C2051 C2052 1.373 . S
C2051 C2053 1.389 . S
C2052 H2025 0.950 . S
C2052 C2038 1.377 1_655 S
C2052 C2051 1.373 . S
C2053 C2037 1.377 1_655 S
C2053 C2051 1.389 . S
C2053 C2054 1.524 . S
C2054 C2053 1.524 . S
C2054 C2055 1.397 . S
C2054 C2059 1.363 . S
C2055 H2026 0.950 . S
C2055 C2054 1.397 . S
C2055 C2056 1.334 . S
C2056 H2027 0.950 . S
C2056 C2055 1.334 . S
C2056 C2057 1.287 . S
C2057 C2056 1.287 . S
C2057 C2058 1.524 . S
C2057 H2060 0.999 . S
C2058 H2028 0.950 . S
C2058 C2057 1.524 . S
C2058 C2059 1.415 . S
C2059 H2029 0.950 . S
C2059 C2054 1.363 . S
C2059 C2058 1.415 . S
H2060 C2057 0.999 . S
H2061 C2042 0.913 . S
H2062 C2080 0.951 . S
H2063 C2082 0.951 . S
H2064 C2084 0.950 . S
H2065 C2085 0.950 . S
H2066 C2087 0.950 . S
H2067 C2090 0.950 . S
H2068 C2091 0.950 . S
H2069 C2093 0.950 . S
H2070 C2094 0.950 . S
H2071 C2095 0.951 . S
H2072 C2097 0.951 . S
H2073 C2099 0.950 . S
H2074 C2100 0.950 . S
H2075 C2102 0.950 . S
H2076 C2105 0.950 . S
H2077 C2106 0.950 . S
H2078 C2108 0.950 . S
H2079 C2109 0.950 . S
C2080 H2062 0.951 . S
C2080 C2081 1.366 . S
C2080 C2082 1.388 . S
C2081 C2080 1.366 . S
C2081 C2085 1.385 . S
C2082 H2063 0.951 . S
C2082 C2080 1.388 . S
C2082 C2083 1.366 . S
C2083 C2082 1.366 . S
C2083 C2084 1.414 . S
C2083 C2086 1.499 . S
C2084 H2064 0.950 . S
C2084 C2083 1.414 . S
C2084 C2085 1.374 . S
C2085 H2065 0.950 . S
C2085 C2081 1.385 . S
C2085 C2084 1.374 . S
C2086 C2083 1.499 . S
C2086 C2087 1.373 . S
C2086 C2088 1.389 . S
C2087 H2066 0.950 . S
C2087 C2086 1.373 . S
C2087 C2103 1.377 1_565 S
C2088 C2086 1.389 . S
C2088 C2089 1.524 . S
C2088 C2102 1.377 1_565 S
C2089 C2088 1.524 . S
C2089 C2090 1.397 . S
C2089 C2094 1.363 . S
C2090 H2067 0.950 . S
C2090 C2089 1.397 . S
C2090 C2091 1.334 . S
C2091 H2068 0.950 . S
C2091 C2090 1.334 . S
C2091 C2092 1.287 . S
C2092 C2091 1.287 . S
C2092 C2093 1.524 . S
C2092 H2111 0.913 . S
C2093 H2069 0.950 . S
C2093 C2092 1.524 . S
C2093 C2094 1.415 . S
C2094 H2070 0.950 . S
C2094 C2089 1.363 . S
C2094 C2093 1.415 . S
C2095 H2071 0.951 . S
C2095 C2096 1.366 . S
C2095 C2097 1.388 . S
C2096 C2095 1.366 . S
C2096 C2100 1.385 . S
C2097 H2072 0.951 . S
C2097 C2095 1.388 . S
C2097 C2098 1.366 . S
C2098 C2097 1.366 . S
C2098 C2099 1.414 . S
C2098 C2101 1.499 . S
C2099 H2073 0.950 . S
C2099 C2098 1.414 . S
C2099 C2100 1.374 . S
C2100 H2074 0.950 . S
C2100 C2096 1.385 . S
C2100 C2099 1.374 . S
C2101 C2098 1.499 . S
C2101 C2102 1.373 . S
C2101 C2103 1.389 . S
C2102 H2075 0.950 . S
C2102 C2088 1.377 1_545 S
C2102 C2101 1.373 . S
C2103 C2087 1.377 1_545 S
C2103 C2101 1.389 . S
C2103 C2104 1.524 . S
C2104 C2103 1.524 . S
C2104 C2105 1.397 . S
C2104 C2109 1.363 . S
C2105 H2076 0.950 . S
C2105 C2104 1.397 . S
C2105 C2106 1.334 . S
C2106 H2077 0.950 . S
C2106 C2105 1.334 . S
C2106 C2107 1.287 . S
C2107 C2106 1.287 . S
C2107 C2108 1.524 . S
C2107 H2110 0.999 . S
C2108 H2078 0.950 . S
C2108 C2107 1.524 . S
C2108 C2109 1.415 . S
C2109 H2079 0.950 . S
C2109 C2104 1.363 . S
C2109 C2108 1.415 . S
H2110 C2107 0.999 . S
H2111 C2092 0.913 . S
H2112 C2130 0.951 . S
H2113 C2132 0.951 . S
H2114 C2134 0.950 . S
H2115 C2135 0.950 . S
H2116 C2137 0.950 . S
H2117 C2140 0.950 . S
H2118 C2141 0.950 . S
H2119 C2143 0.950 . S
H2120 C2144 0.950 . S
H2121 C2145 0.951 . S
H2122 C2147 0.951 . S
H2123 C2149 0.950 . S
H2124 C2150 0.950 . S
H2125 C2152 0.950 . S
H2126 C2155 0.950 . S
H2127 C2156 0.950 . S
H2128 C2158 0.950 . S
H2129 C2159 0.950 . S
C2130 H2112 0.951 . S
C2130 C2131 1.366 . S
C2130 C2132 1.388 . S
C2131 C2130 1.366 . S
C2131 C2135 1.385 . S
C2132 H2113 0.951 . S
C2132 C2130 1.388 . S
C2132 C2133 1.366 . S
C2133 C2132 1.366 . S
C2133 C2134 1.414 . S
C2133 C2136 1.499 . S
C2134 H2114 0.950 . S
C2134 C2133 1.414 . S
C2134 C2135 1.374 . S
C2135 H2115 0.950 . S
C2135 C2131 1.385 . S
C2135 C2134 1.374 . S
C2136 C2133 1.499 . S
C2136 C2137 1.373 1_556 S
C2136 C2138 1.389 . S
C2137 H2116 0.950 . S
C2137 C2136 1.373 1_554 S
C2137 C2153 1.377 . S
C2138 C2136 1.389 . S
C2138 C2139 1.524 . S
C2138 C2152 1.377 . S
C2139 C2138 1.524 . S
C2139 C2140 1.397 . S
C2139 C2144 1.363 . S
C2140 H2117 0.950 . S
C2140 C2139 1.397 . S
C2140 C2141 1.334 . S
C2141 H2118 0.950 . S
C2141 C2140 1.334 . S
C2141 C2142 1.287 . S
C2142 C2141 1.287 . S
C2142 C2143 1.524 . S
C2142 H2161 0.913 . S
C2143 H2119 0.950 . S
C2143 C2142 1.524 . S
C2143 C2144 1.415 . S
C2144 H2120 0.950 . S
C2144 C2139 1.363 . S
C2144 C2143 1.415 . S
C2145 H2121 0.951 . S
C2145 C2146 1.366 . S
C2145 C2147 1.388 . S
C2146 C2145 1.366 . S
C2146 C2150 1.385 . S
C2147 H2122 0.951 . S
C2147 C2145 1.388 . S
C2147 C2148 1.366 . S
C2148 C2147 1.366 . S
C2148 C2149 1.414 . S
C2148 C2151 1.499 . S
C2149 H2123 0.950 . S
C2149 C2148 1.414 . S
C2149 C2150 1.374 . S
C2150 H2124 0.950 . S
C2150 C2146 1.385 . S
C2150 C2149 1.374 . S
C2151 C2148 1.499 . S
C2151 C2152 1.373 1_554 S
C2151 C2153 1.389 . S
C2152 H2125 0.950 . S
C2152 C2138 1.377 . S
C2152 C2151 1.373 1_556 S
C2153 C2137 1.377 . S
C2153 C2151 1.389 . S
C2153 C2154 1.524 . S
C2154 C2153 1.524 . S
C2154 C2155 1.397 . S
C2154 C2159 1.363 . S
C2155 H2126 0.950 . S
C2155 C2154 1.397 . S
C2155 C2156 1.334 . S
C2156 H2127 0.950 . S
C2156 C2155 1.334 . S
C2156 C2157 1.287 . S
C2157 C2156 1.287 . S
C2157 C2158 1.524 . S
C2157 H2160 0.999 . S
C2158 H2128 0.950 . S
C2158 C2157 1.524 . S
C2158 C2159 1.415 . S
C2159 H2129 0.950 . S
C2159 C2154 1.363 . S
C2159 C2158 1.415 . S
H2160 C2157 0.999 . S
H2161 C2142 0.913 . S
H2162 C2180 0.951 . S
H2163 C2182 0.951 . S
H2164 C2184 0.950 . S
H2165 C2185 0.950 . S
H2166 C2187 0.950 . S
H2167 C2190 0.950 . S
H2168 C2191 0.950 . S
H2169 C2193 0.950 . S
H2170 C2194 0.950 . S
H2171 C2195 0.951 . S
H2172 C2197 0.951 . S
H2173 C2199 0.950 . S
H2174 C2200 0.950 . S
H2175 C2202 0.950 . S
H2176 C2205 0.950 . S
H2177 C2206 0.950 . S
H2178 C2208 0.950 . S
H2179 C2209 0.950 . S
C2180 H2162 0.951 . S
C2180 C2181 1.366 . S
C2180 C2182 1.388 . S
C2181 C2180 1.366 . S
C2181 C2185 1.385 . S
C2182 H2163 0.951 . S
C2182 C2180 1.388 . S
C2182 C2183 1.366 . S
C2183 C2182 1.366 . S
C2183 C2184 1.414 . S
C2183 C2186 1.499 . S
C2184 H2164 0.950 . S
C2184 C2183 1.414 . S
C2184 C2185 1.374 . S
C2185 H2165 0.950 . S
C2185 C2181 1.385 . S
C2185 C2184 1.374 . S
C2186 C2183 1.499 . S
C2186 C2187 1.373 . S
C2186 C2188 1.389 . S
C2187 H2166 0.950 . S
C2187 C2186 1.373 . S
C2187 C2203 1.377 . S
C2188 C2186 1.389 . S
C2188 C2189 1.524 . S
C2188 C2202 1.377 . S
C2189 C2188 1.524 . S
C2189 C2190 1.397 . S
C2189 C2194 1.363 . S
C2190 H2167 0.950 . S
C2190 C2189 1.397 . S
C2190 C2191 1.334 . S
C2191 H2168 0.950 . S
C2191 C2190 1.334 . S
C2191 C2192 1.287 . S
C2192 C2191 1.287 . S
C2192 C2193 1.524 . S
C2192 H2211 0.913 . S
C2193 H2169 0.950 . S
C2193 C2192 1.524 . S
C2193 C2194 1.415 . S
C2194 H2170 0.950 . S
C2194 C2189 1.363 . S
C2194 C2193 1.415 . S
C2195 H2171 0.951 . S
C2195 C2196 1.366 . S
C2195 C2197 1.388 . S
C2196 C2195 1.366 . S
C2196 C2200 1.385 . S
C2197 H2172 0.951 . S
C2197 C2195 1.388 . S
C2197 C2198 1.366 . S
C2198 C2197 1.366 . S
C2198 C2199 1.414 . S
C2198 C2201 1.499 . S
C2199 H2173 0.950 . S
C2199 C2198 1.414 . S
C2199 C2200 1.374 . S
C2200 H2174 0.950 . S
C2200 C2196 1.385 . S
C2200 C2199 1.374 . S
C2201 C2198 1.499 . S
C2201 C2202 1.373 . S
C2201 C2203 1.389 . S
C2202 H2175 0.950 . S
C2202 C2188 1.377 . S
C2202 C2201 1.373 . S
C2203 C2187 1.377 . S
C2203 C2201 1.389 . S
C2203 C2204 1.524 . S
C2204 C2203 1.524 . S
C2204 C2205 1.397 . S
C2204 C2209 1.363 . S
C2205 H2176 0.950 . S
C2205 C2204 1.397 . S
C2205 C2206 1.334 . S
C2206 H2177 0.950 . S
C2206 C2205 1.334 . S
C2206 C2207 1.287 . S
C2207 C2206 1.287 . S
C2207 C2208 1.524 . S
C2207 H2210 0.999 . S
C2208 H2178 0.950 . S
C2208 C2207 1.524 . S
C2208 C2209 1.415 . S
C2209 H2179 0.950 . S
C2209 C2204 1.363 . S
C2209 C2208 1.415 . S
H2210 C2207 0.999 . S
H2211 C2192 0.913 . S
H2212 C2230 0.951 . S
H2213 C2232 0.951 . S
H2214 C2234 0.950 . S
H2215 C2235 0.950 . S
H2216 C2237 0.950 . S
H2217 C2240 0.950 . S
H2218 C2241 0.950 . S
H2219 C2243 0.950 . S
H2220 C2244 0.950 . S
H2221 C2245 0.951 . S
H2222 C2247 0.951 . S
H2223 C2249 0.950 . S
H2224 C2250 0.950 . S
H2225 C2252 0.950 . S
H2226 C2255 0.950 . S
H2227 C2256 0.950 . S
H2228 C2258 0.950 . S
H2229 C2259 0.950 . S
C2230 H2212 0.951 . S
C2230 C2231 1.366 . S
C2230 C2232 1.388 . S
C2231 C2230 1.366 . S
C2231 C2235 1.385 . S
C2232 H2213 0.951 . S
C2232 C2230 1.388 . S
C2232 C2233 1.366 . S
C2233 C2232 1.366 . S
C2233 C2234 1.414 . S
C2233 C2236 1.499 . S
C2234 H2214 0.950 . S
C2234 C2233 1.414 . S
C2234 C2235 1.374 . S
C2235 H2215 0.950 . S
C2235 C2231 1.385 . S
C2235 C2234 1.374 . S
C2236 C2233 1.499 . S
C2236 C2237 1.373 1_556 S
C2236 C2238 1.389 . S
C2237 H2216 0.950 . S
C2237 C2236 1.373 1_554 S
C2237 C2253 1.377 . S
C2238 C2236 1.389 . S
C2238 C2239 1.524 . S
C2238 C2252 1.377 . S
C2239 C2238 1.524 . S
C2239 C2240 1.397 . S
C2239 C2244 1.363 . S
C2240 H2217 0.950 . S
C2240 C2239 1.397 . S
C2240 C2241 1.334 . S
C2241 H2218 0.950 . S
C2241 C2240 1.334 . S
C2241 C2242 1.287 . S
C2242 C2241 1.287 . S
C2242 C2243 1.524 . S
C2242 H2261 0.913 . S
C2243 H2219 0.950 . S
C2243 C2242 1.524 . S
C2243 C2244 1.415 . S
C2244 H2220 0.950 . S
C2244 C2239 1.363 . S
C2244 C2243 1.415 . S
C2245 H2221 0.951 . S
C2245 C2246 1.366 . S
C2245 C2247 1.388 . S
C2246 C2245 1.366 . S
C2246 C2250 1.385 . S
C2247 H2222 0.951 . S
C2247 C2245 1.388 . S
C2247 C2248 1.366 . S
C2248 C2247 1.366 . S
C2248 C2249 1.414 . S
C2248 C2251 1.499 . S
C2249 H2223 0.950 . S
C2249 C2248 1.414 . S
C2249 C2250 1.374 . S
C2250 H2224 0.950 . S
C2250 C2246 1.385 . S
C2250 C2249 1.374 . S
C2251 C2248 1.499 . S
C2251 C2252 1.373 1_554 S
C2251 C2253 1.389 . S
C2252 H2225 0.950 . S
C2252 C2238 1.377 . S
C2252 C2251 1.373 1_556 S
C2253 C2237 1.377 . S
C2253 C2251 1.389 . S
C2253 C2254 1.524 . S
C2254 C2253 1.524 . S
C2254 C2255 1.397 . S
C2254 C2259 1.363 . S
C2255 H2226 0.950 . S
C2255 C2254 1.397 . S
C2255 C2256 1.334 . S
C2256 H2227 0.950 . S
C2256 C2255 1.334 . S
C2256 C2257 1.287 . S
C2257 C2256 1.287 . S
C2257 C2258 1.524 . S
C2257 H2260 0.999 . S
C2258 H2228 0.950 . S
C2258 C2257 1.524 . S
C2258 C2259 1.415 . S
C2259 H2229 0.950 . S
C2259 C2254 1.363 . S
C2259 C2258 1.415 . S
H2260 C2257 0.999 . S
H2261 C2242 0.913 . S
H2262 C2280 0.951 . S
H2263 C2282 0.951 . S
H2264 C2284 0.950 . S
H2265 C2285 0.950 . S
H2266 C2287 0.950 . S
H2267 C2290 0.950 . S
H2268 C2291 0.950 . S
H2269 C2293 0.950 . S
H2270 C2294 0.950 . S
H2271 C2295 0.951 . S
H2272 C2297 0.951 . S
H2273 C2299 0.950 . S
H2274 C2300 0.950 . S
H2275 C2302 0.950 . S
H2276 C2305 0.950 . S
H2277 C2306 0.950 . S
H2278 C2308 0.950 . S
H2279 C2309 0.950 . S
C2280 H2262 0.951 . S
C2280 C2281 1.366 . S
C2280 C2282 1.388 . S
C2281 C2280 1.366 . S
C2281 C2285 1.385 . S
C2282 H2263 0.951 . S
C2282 C2280 1.388 . S
C2282 C2283 1.366 . S
C2283 C2282 1.366 . S
C2283 C2284 1.414 . S
C2283 C2286 1.499 . S
C2284 H2264 0.950 . S
C2284 C2283 1.414 . S
C2284 C2285 1.374 . S
C2285 H2265 0.950 . S
C2285 C2281 1.385 . S
C2285 C2284 1.374 . S
C2286 C2283 1.499 . S
C2286 C2287 1.373 . S
C2286 C2288 1.389 . S
C2287 H2266 0.950 . S
C2287 C2286 1.373 . S
C2287 C2303 1.377 . S
C2288 C2286 1.389 . S
C2288 C2289 1.524 . S
C2288 C2302 1.377 . S
C2289 C2288 1.524 . S
C2289 C2290 1.397 . S
C2289 C2294 1.363 . S
C2290 H2267 0.950 . S
C2290 C2289 1.397 . S
C2290 C2291 1.334 . S
C2291 H2268 0.950 . S
C2291 C2290 1.334 . S
C2291 C2292 1.287 . S
C2292 C2291 1.287 . S
C2292 C2293 1.524 . S
C2292 H2311 0.913 . S
C2293 H2269 0.950 . S
C2293 C2292 1.524 . S
C2293 C2294 1.415 . S
C2294 H2270 0.950 . S
C2294 C2289 1.363 . S
C2294 C2293 1.415 . S
C2295 H2271 0.951 . S
C2295 C2296 1.366 . S
C2295 C2297 1.388 . S
C2296 C2295 1.366 . S
C2296 C2300 1.385 . S
C2297 H2272 0.951 . S
C2297 C2295 1.388 . S
C2297 C2298 1.366 . S
C2298 C2297 1.366 . S
C2298 C2299 1.414 . S
C2298 C2301 1.499 . S
C2299 H2273 0.950 . S
C2299 C2298 1.414 . S
C2299 C2300 1.374 . S
C2300 H2274 0.950 . S
C2300 C2296 1.385 . S
C2300 C2299 1.374 . S
C2301 C2298 1.499 . S
C2301 C2302 1.373 . S
C2301 C2303 1.389 . S
C2302 H2275 0.950 . S
C2302 C2288 1.377 . S
C2302 C2301 1.373 . S
C2303 C2287 1.377 . S
C2303 C2301 1.389 . S
C2303 C2304 1.524 . S
C2304 C2303 1.524 . S
C2304 C2305 1.397 . S
C2304 C2309 1.363 . S
C2305 H2276 0.950 . S
C2305 C2304 1.397 . S
C2305 C2306 1.334 . S
C2306 H2277 0.950 . S
C2306 C2305 1.334 . S
C2306 C2307 1.287 . S
C2307 C2306 1.287 . S
C2307 C2308 1.524 . S
C2307 H2310 0.999 . S
C2308 H2278 0.950 . S
C2308 C2307 1.524 . S
C2308 C2309 1.415 . S
C2309 H2279 0.950 . S
C2309 C2304 1.363 . S
C2309 C2308 1.415 . S
H2310 C2307 0.999 . S
H2311 C2292 0.913 . S
H2312 C2330 0.951 . S
H2313 C2332 0.951 . S
H2314 C2334 0.950 . S
H2315 C2335 0.950 . S
H2316 C2337 0.950 . S
H2317 C2340 0.950 . S
H2318 C2341 0.950 . S
H2319 C2343 0.950 . S
H2320 C2344 0.950 . S
H2321 C2345 0.951 . S
H2322 C2347 0.951 . S
H2323 C2349 0.950 . S
H2324 C2350 0.950 . S
H2325 C2352 0.950 . S
H2326 C2355 0.950 . S
H2327 C2356 0.950 . S
H2328 C2358 0.950 . S
H2329 C2359 0.950 . S
C2330 H2312 0.951 . S
C2330 C2331 1.366 . S
C2330 C2332 1.388 . S
C2331 C2330 1.366 . S
C2331 C2335 1.385 . S
C2332 H2313 0.951 . S
C2332 C2330 1.388 . S
C2332 C2333 1.366 . S
C2333 C2332 1.366 . S
C2333 C2334 1.414 . S
C2333 C2336 1.499 . S
C2334 H2314 0.950 . S
C2334 C2333 1.414 . S
C2334 C2335 1.374 . S
C2335 H2315 0.950 . S
C2335 C2331 1.385 . S
C2335 C2334 1.374 . S
C2336 C2333 1.499 . S
C2336 C2337 1.373 . S
C2336 C2338 1.389 1_556 S
C2337 H2316 0.950 . S
C2337 C2336 1.373 . S
C2337 C2353 1.377 . S
C2338 C2336 1.389 1_554 S
C2338 C2339 1.524 . S
C2338 C2352 1.377 . S
C2339 C2338 1.524 . S
C2339 C2340 1.397 . S
C2339 C2344 1.363 . S
C2340 H2317 0.950 . S
C2340 C2339 1.397 . S
C2340 C2341 1.334 . S
C2341 H2318 0.950 . S
C2341 C2340 1.334 . S
C2341 C2342 1.287 . S
C2342 C2341 1.287 . S
C2342 C2343 1.524 . S
C2342 H2361 0.913 . S
C2343 H2319 0.950 . S
C2343 C2342 1.524 . S
C2343 C2344 1.415 . S
C2344 H2320 0.950 . S
C2344 C2339 1.363 . S
C2344 C2343 1.415 . S
C2345 H2321 0.951 . S
C2345 C2346 1.366 . S
C2345 C2347 1.388 . S
C2346 C2345 1.366 . S
C2346 C2350 1.385 . S
C2347 H2322 0.951 . S
C2347 C2345 1.388 . S
C2347 C2348 1.366 . S
C2348 C2347 1.366 . S
C2348 C2349 1.414 . S
C2348 C2351 1.499 . S
C2349 H2323 0.950 . S
C2349 C2348 1.414 . S
C2349 C2350 1.374 . S
C2350 H2324 0.950 . S
C2350 C2346 1.385 . S
C2350 C2349 1.374 . S
C2351 C2348 1.499 . S
C2351 C2352 1.373 . S
C2351 C2353 1.389 1_554 S
C2352 H2325 0.950 . S
C2352 C2338 1.377 . S
C2352 C2351 1.373 . S
C2353 C2337 1.377 . S
C2353 C2351 1.389 1_556 S
C2353 C2354 1.524 . S
C2354 C2353 1.524 . S
C2354 C2355 1.397 . S
C2354 C2359 1.363 . S
C2355 H2326 0.950 . S
C2355 C2354 1.397 . S
C2355 C2356 1.334 . S
C2356 H2327 0.950 . S
C2356 C2355 1.334 . S
C2356 C2357 1.287 . S
C2357 C2356 1.287 . S
C2357 C2358 1.524 . S
C2357 H2360 0.999 . S
C2358 H2328 0.950 . S
C2358 C2357 1.524 . S
C2358 C2359 1.415 . S
C2359 H2329 0.950 . S
C2359 C2354 1.363 . S
C2359 C2358 1.415 . S
H2360 C2357 0.999 . S
H2361 C2342 0.913 . S
H2362 C2380 0.951 . S
H2363 C2382 0.951 . S
H2364 C2384 0.950 . S
H2365 C2385 0.950 . S
H2366 C2387 0.950 . S
H2367 C2390 0.950 . S
H2368 C2391 0.950 . S
H2369 C2393 0.950 . S
H2370 C2394 0.950 . S
H2371 C2395 0.951 . S
H2372 C2397 0.951 . S
H2373 C2399 0.950 . S
H2374 C2400 0.950 . S
H2375 C2402 0.950 . S
H2376 C2405 0.950 . S
H2377 C2406 0.950 . S
H2378 C2408 0.950 . S
H2379 C2409 0.950 . S
C2380 H2362 0.951 . S
C2380 C2381 1.366 . S
C2380 C2382 1.388 . S
C2381 C2380 1.366 . S
C2381 C2385 1.385 . S
C2382 H2363 0.951 . S
C2382 C2380 1.388 . S
C2382 C2383 1.366 . S
C2383 C2382 1.366 . S
C2383 C2384 1.414 . S
C2383 C2386 1.499 . S
C2384 H2364 0.950 . S
C2384 C2383 1.414 . S
C2384 C2385 1.374 . S
C2385 H2365 0.950 . S
C2385 C2381 1.385 . S
C2385 C2384 1.374 . S
C2386 C2383 1.499 . S
C2386 C2387 1.373 . S
C2386 C2388 1.389 . S
C2387 H2366 0.950 . S
C2387 C2386 1.373 . S
C2387 C2403 1.377 . S
C2388 C2386 1.389 . S
C2388 C2389 1.524 . S
C2388 C2402 1.377 . S
C2389 C2388 1.524 . S
C2389 C2390 1.397 . S
C2389 C2394 1.363 . S
C2390 H2367 0.950 . S
C2390 C2389 1.397 . S
C2390 C2391 1.334 . S
C2391 H2368 0.950 . S
C2391 C2390 1.334 . S
C2391 C2392 1.287 . S
C2392 C2391 1.287 . S
C2392 C2393 1.524 . S
C2392 H2411 0.913 . S
C2393 H2369 0.950 . S
C2393 C2392 1.524 . S
C2393 C2394 1.415 . S
C2394 H2370 0.950 . S
C2394 C2389 1.363 . S
C2394 C2393 1.415 . S
C2395 H2371 0.951 . S
C2395 C2396 1.366 . S
C2395 C2397 1.388 . S
C2396 C2395 1.366 . S
C2396 C2400 1.385 . S
C2397 H2372 0.951 . S
C2397 C2395 1.388 . S
C2397 C2398 1.366 . S
C2398 C2397 1.366 . S
C2398 C2399 1.414 . S
C2398 C2401 1.499 . S
C2399 H2373 0.950 . S
C2399 C2398 1.414 . S
C2399 C2400 1.374 . S
C2400 H2374 0.950 . S
C2400 C2396 1.385 . S
C2400 C2399 1.374 . S
C2401 C2398 1.499 . S
C2401 C2402 1.373 . S
C2401 C2403 1.389 . S
C2402 H2375 0.950 . S
C2402 C2388 1.377 . S
C2402 C2401 1.373 . S
C2403 C2387 1.377 . S
C2403 C2401 1.389 . S
C2403 C2404 1.524 . S
C2404 C2403 1.524 . S
C2404 C2405 1.397 . S
C2404 C2409 1.363 . S
C2405 H2376 0.950 . S
C2405 C2404 1.397 . S
C2405 C2406 1.334 . S
C2406 H2377 0.950 . S
C2406 C2405 1.334 . S
C2406 C2407 1.287 . S
C2407 C2406 1.287 . S
C2407 C2408 1.524 . S
C2407 H2410 0.999 . S
C2408 H2378 0.950 . S
C2408 C2407 1.524 . S
C2408 C2409 1.415 . S
C2409 H2379 0.950 . S
C2409 C2404 1.363 . S
C2409 C2408 1.415 . S
H2410 C2407 0.999 . S
H2411 C2392 0.913 . S
H2412 C2430 0.951 . S
H2413 C2432 0.951 . S
H2414 C2434 0.950 1_556 S
H2415 C2435 0.950 . S
H2416 C2437 0.950 . S
H2417 C2440 0.950 . S
H2418 C2441 0.950 . S
H2419 C2443 0.950 . S
H2420 C2444 0.950 . S
H2421 C2445 0.951 . S
H2422 C2447 0.951 . S
H2423 C2449 0.950 1_554 S
H2424 C2450 0.950 . S
H2425 C2452 0.950 . S
H2426 C2455 0.950 . S
H2427 C2456 0.950 . S
H2428 C2458 0.950 . S
H2429 C2459 0.950 . S
C2430 H2412 0.951 . S
C2430 C2431 1.366 . S
C2430 C2432 1.388 . S
C2431 C2430 1.366 . S
C2431 C2435 1.385 . S
C2432 H2413 0.951 . S
C2432 C2430 1.388 . S
C2432 C2433 1.366 . S
C2433 C2432 1.366 . S
C2433 C2434 1.414 . S
C2433 C2436 1.499 . S
C2434 H2414 0.950 1_554 S
C2434 C2433 1.414 . S
C2434 C2435 1.374 . S
C2435 H2415 0.950 . S
C2435 C2431 1.385 . S
C2435 C2434 1.374 . S
C2436 C2433 1.499 . S
C2436 C2437 1.373 1_554 S
C2436 C2438 1.389 . S
C2437 H2416 0.950 . S
C2437 C2436 1.373 1_556 S
C2437 C2453 1.377 . S
C2438 C2436 1.389 . S
C2438 C2439 1.524 . S
C2438 C2452 1.377 . S
C2439 C2438 1.524 . S
C2439 C2440 1.397 . S
C2439 C2444 1.363 . S
C2440 H2417 0.950 . S
C2440 C2439 1.397 . S
C2440 C2441 1.334 . S
C2441 H2418 0.950 . S
C2441 C2440 1.334 . S
C2441 C2442 1.287 . S
C2442 C2441 1.287 . S
C2442 C2443 1.524 . S
C2442 H2461 0.913 . S
C2443 H2419 0.950 . S
C2443 C2442 1.524 . S
C2443 C2444 1.415 . S
C2444 H2420 0.950 . S
C2444 C2439 1.363 . S
C2444 C2443 1.415 . S
C2445 H2421 0.951 . S
C2445 C2446 1.366 . S
C2445 C2447 1.388 . S
C2446 C2445 1.366 . S
C2446 C2450 1.385 . S
C2447 H2422 0.951 . S
C2447 C2445 1.388 . S
C2447 C2448 1.366 . S
C2448 C2447 1.366 . S
C2448 C2449 1.414 . S
C2448 C2451 1.499 . S
C2449 H2423 0.950 1_556 S
C2449 C2448 1.414 . S
C2449 C2450 1.374 . S
C2450 H2424 0.950 . S
C2450 C2446 1.385 . S
C2450 C2449 1.374 . S
C2451 C2448 1.499 . S
C2451 C2452 1.373 1_556 S
C2451 C2453 1.389 . S
C2452 H2425 0.950 . S
C2452 C2438 1.377 . S
C2452 C2451 1.373 1_554 S
C2453 C2437 1.377 . S
C2453 C2451 1.389 . S
C2453 C2454 1.524 . S
C2454 C2453 1.524 . S
C2454 C2455 1.397 . S
C2454 C2459 1.363 . S
C2455 H2426 0.950 . S
C2455 C2454 1.397 . S
C2455 C2456 1.334 . S
C2456 H2427 0.950 . S
C2456 C2455 1.334 . S
C2456 C2457 1.287 . S
C2457 C2456 1.287 . S
C2457 C2458 1.524 . S
C2457 H2460 0.999 . S
C2458 H2428 0.950 . S
C2458 C2457 1.524 . S
C2458 C2459 1.415 . S
C2459 H2429 0.950 . S
C2459 C2454 1.363 . S
C2459 C2458 1.415 . S
H2460 C2457 0.999 . S
H2461 C2442 0.913 . S
H2462 C2480 0.951 . S
H2463 C2482 0.951 . S
H2464 C2484 0.950 . S
H2465 C2485 0.950 . S
H2466 C2487 0.950 . S
H2467 C2490 0.950 . S
H2468 C2491 0.950 . S
H2469 C2493 0.950 . S
H2470 C2494 0.950 . S
H2471 C2495 0.951 . S
H2472 C2497 0.951 . S
H2473 C2499 0.950 . S
H2474 C2500 0.950 . S
H2475 C2502 0.950 . S
H2476 C2505 0.950 . S
H2477 C2506 0.950 . S
H2478 C2508 0.950 . S
H2479 C2509 0.950 . S
C2480 H2462 0.951 . S
C2480 C2481 1.366 . S
C2480 C2482 1.388 . S
C2481 C2480 1.366 . S
C2481 C2485 1.385 . S
C2482 H2463 0.951 . S
C2482 C2480 1.388 . S
C2482 C2483 1.366 . S
C2483 C2482 1.366 . S
C2483 C2484 1.414 . S
C2483 C2486 1.499 . S
C2484 H2464 0.950 . S
C2484 C2483 1.414 . S
C2484 C2485 1.374 . S
C2485 H2465 0.950 . S
C2485 C2481 1.385 . S
C2485 C2484 1.374 . S
C2486 C2483 1.499 . S
C2486 C2487 1.373 . S
C2486 C2488 1.389 . S
C2487 H2466 0.950 . S
C2487 C2486 1.373 . S
C2487 C2503 1.377 . S
C2488 C2486 1.389 . S
C2488 C2489 1.524 . S
C2488 C2502 1.377 . S
C2489 C2488 1.524 . S
C2489 C2490 1.397 . S
C2489 C2494 1.363 . S
C2490 H2467 0.950 . S
C2490 C2489 1.397 . S
C2490 C2491 1.334 . S
C2491 H2468 0.950 . S
C2491 C2490 1.334 . S
C2491 C2492 1.287 . S
C2492 C2491 1.287 . S
C2492 C2493 1.524 . S
C2492 H2511 0.913 . S
C2493 H2469 0.950 . S
C2493 C2492 1.524 . S
C2493 C2494 1.415 . S
C2494 H2470 0.950 . S
C2494 C2489 1.363 . S
C2494 C2493 1.415 . S
C2495 H2471 0.951 . S
C2495 C2496 1.366 . S
C2495 C2497 1.388 . S
C2496 C2495 1.366 . S
C2496 C2500 1.385 . S
C2497 H2472 0.951 . S
C2497 C2495 1.388 . S
C2497 C2498 1.366 . S
C2498 C2497 1.366 . S
C2498 C2499 1.414 . S
C2498 C2501 1.499 . S
C2499 H2473 0.950 . S
C2499 C2498 1.414 . S
C2499 C2500 1.374 . S
C2500 H2474 0.950 . S
C2500 C2496 1.385 . S
C2500 C2499 1.374 . S
C2501 C2498 1.499 . S
C2501 C2502 1.373 . S
C2501 C2503 1.389 . S
C2502 H2475 0.950 . S
C2502 C2488 1.377 . S
C2502 C2501 1.373 . S
C2503 C2487 1.377 . S
C2503 C2501 1.389 . S
C2503 C2504 1.524 . S
C2504 C2503 1.524 . S
C2504 C2505 1.397 . S
C2504 C2509 1.363 . S
C2505 H2476 0.950 . S
C2505 C2504 1.397 . S
C2505 C2506 1.334 . S
C2506 H2477 0.950 . S
C2506 C2505 1.334 . S
C2506 C2507 1.287 . S
C2507 C2506 1.287 . S
C2507 C2508 1.524 . S
C2507 H2510 0.999 . S
C2508 H2478 0.950 . S
C2508 C2507 1.524 . S
C2508 C2509 1.415 . S
C2509 H2479 0.950 . S
C2509 C2504 1.363 . S
C2509 C2508 1.415 . S
H2510 C2507 0.999 . S
H2511 C2492 0.913 . S
H2512 C2530 0.951 . S
H2513 C2532 0.951 1_556 S
H2514 C2534 0.950 . S
H2515 C2535 0.950 . S
H2516 C2537 0.950 . S
H2517 C2540 0.950 . S
H2518 C2541 0.950 . S
H2519 C2543 0.950 . S
H2520 C2544 0.950 . S
H2521 C2545 0.951 . S
H2522 C2547 0.951 1_554 S
H2523 C2549 0.950 . S
H2524 C2550 0.950 . S
H2525 C2552 0.950 . S
H2526 C2555 0.950 . S
H2527 C2556 0.950 . S
H2528 C2558 0.950 . S
H2529 C2559 0.950 . S
C2530 H2512 0.951 . S
C2530 C2531 1.366 . S
C2530 C2532 1.388 . S
C2531 C2530 1.366 . S
C2531 C2535 1.385 . S
C2532 H2513 0.951 1_554 S
C2532 C2530 1.388 . S
C2532 C2533 1.366 . S
C2533 C2532 1.366 . S
C2533 C2534 1.414 . S
C2533 C2536 1.499 . S
C2534 H2514 0.950 . S
C2534 C2533 1.414 . S
C2534 C2535 1.374 . S
C2535 H2515 0.950 . S
C2535 C2531 1.385 . S
C2535 C2534 1.374 . S
C2536 C2533 1.499 . S
C2536 C2537 1.373 . S
C2536 C2538 1.389 1_554 S
C2537 H2516 0.950 . S
C2537 C2536 1.373 . S
C2537 C2553 1.377 . S
C2538 C2536 1.389 1_556 S
C2538 C2539 1.524 . S
C2538 C2552 1.377 . S
C2539 C2538 1.524 . S
C2539 C2540 1.397 1_556 S
C2539 C2544 1.363 . S
C2540 H2517 0.950 . S
C2540 C2539 1.397 1_554 S
C2540 C2541 1.334 . S
C2541 H2518 0.950 . S
C2541 C2540 1.334 . S
C2541 C2542 1.287 . S
C2542 C2541 1.287 . S
C2542 C2543 1.524 1_554 S
C2542 H2561 0.913 . S
C2543 H2519 0.950 . S
C2543 C2542 1.524 1_556 S
C2543 C2544 1.415 . S
C2544 H2520 0.950 . S
C2544 C2539 1.363 . S
C2544 C2543 1.415 . S
C2545 H2521 0.951 . S
C2545 C2546 1.366 . S
C2545 C2547 1.388 . S
C2546 C2545 1.366 . S
C2546 C2550 1.385 . S
C2547 H2522 0.951 1_556 S
C2547 C2545 1.388 . S
C2547 C2548 1.366 . S
C2548 C2547 1.366 . S
C2548 C2549 1.414 . S
C2548 C2551 1.499 . S
C2549 H2523 0.950 . S
C2549 C2548 1.414 . S
C2549 C2550 1.374 . S
C2550 H2524 0.950 . S
C2550 C2546 1.385 . S
C2550 C2549 1.374 . S
C2551 C2548 1.499 . S
C2551 C2552 1.373 . S
C2551 C2553 1.389 1_556 S
C2552 H2525 0.950 . S
C2552 C2538 1.377 . S
C2552 C2551 1.373 . S
C2553 C2537 1.377 . S
C2553 C2551 1.389 1_554 S
C2553 C2554 1.524 . S
C2554 C2553 1.524 . S
C2554 C2555 1.397 1_554 S
C2554 C2559 1.363 . S
C2555 H2526 0.950 . S
C2555 C2554 1.397 1_556 S
C2555 C2556 1.334 . S
C2556 H2527 0.950 . S
C2556 C2555 1.334 . S
C2556 C2557 1.287 . S
C2557 C2556 1.287 . S
C2557 C2558 1.524 1_556 S
C2557 H2560 0.999 . S
C2558 H2528 0.950 . S
C2558 C2557 1.524 1_554 S
C2558 C2559 1.415 . S
C2559 H2529 0.950 . S
C2559 C2554 1.363 . S
C2559 C2558 1.415 . S
H2560 C2557 0.999 . S
H2561 C2542 0.913 . S
H2562 C2580 0.951 . S
H2563 C2582 0.951 . S
H2564 C2584 0.950 . S
H2565 C2585 0.950 . S
H2566 C2587 0.950 . S
H2567 C2590 0.950 . S
H2568 C2591 0.950 . S
H2569 C2593 0.950 . S
H2570 C2594 0.950 . S
H2571 C2595 0.951 . S
H2572 C2597 0.951 . S
H2573 C2599 0.950 . S
H2574 C2600 0.950 . S
H2575 C2602 0.950 . S
H2576 C2605 0.950 . S
H2577 C2606 0.950 . S
H2578 C2608 0.950 . S
H2579 C2609 0.950 . S
C2580 H2562 0.951 . S
C2580 C2581 1.366 . S
C2580 C2582 1.388 . S
C2581 C2580 1.366 . S
C2581 C2585 1.385 . S
C2582 H2563 0.951 . S
C2582 C2580 1.388 . S
C2582 C2583 1.366 . S
C2583 C2582 1.366 . S
C2583 C2584 1.414 . S
C2583 C2586 1.499 . S
C2584 H2564 0.950 . S
C2584 C2583 1.414 . S
C2584 C2585 1.374 . S
C2585 H2565 0.950 . S
C2585 C2581 1.385 . S
C2585 C2584 1.374 . S
C2586 C2583 1.499 . S
C2586 C2587 1.373 . S
C2586 C2588 1.389 . S
C2587 H2566 0.950 . S
C2587 C2586 1.373 . S
C2587 C2603 1.377 . S
C2588 C2586 1.389 . S
C2588 C2589 1.524 . S
C2588 C2602 1.377 . S
C2589 C2588 1.524 . S
C2589 C2590 1.397 . S
C2589 C2594 1.363 . S
C2590 H2567 0.950 . S
C2590 C2589 1.397 . S
C2590 C2591 1.334 . S
C2591 H2568 0.950 . S
C2591 C2590 1.334 . S
C2591 C2592 1.287 . S
C2592 C2591 1.287 . S
C2592 C2593 1.524 . S
C2592 H2611 0.913 . S
C2593 H2569 0.950 . S
C2593 C2592 1.524 . S
C2593 C2594 1.415 . S
C2594 H2570 0.950 . S
C2594 C2589 1.363 . S
C2594 C2593 1.415 . S
C2595 H2571 0.951 . S
C2595 C2596 1.366 . S
C2595 C2597 1.388 . S
C2596 C2595 1.366 . S
C2596 C2600 1.385 . S
C2597 H2572 0.951 . S
C2597 C2595 1.388 . S
C2597 C2598 1.366 . S
C2598 C2597 1.366 . S
C2598 C2599 1.414 . S
C2598 C2601 1.499 . S
C2599 H2573 0.950 . S
C2599 C2598 1.414 . S
C2599 C2600 1.374 . S
C2600 H2574 0.950 . S
C2600 C2596 1.385 . S
C2600 C2599 1.374 . S
C2601 C2598 1.499 . S
C2601 C2602 1.373 . S
C2601 C2603 1.389 . S
C2602 H2575 0.950 . S
C2602 C2588 1.377 . S
C2602 C2601 1.373 . S
C2603 C2587 1.377 . S
C2603 C2601 1.389 . S
C2603 C2604 1.524 . S
C2604 C2603 1.524 . S
C2604 C2605 1.397 . S
C2604 C2609 1.363 . S
C2605 H2576 0.950 . S
C2605 C2604 1.397 . S
C2605 C2606 1.334 . S
C2606 H2577 0.950 . S
C2606 C2605 1.334 . S
C2606 C2607 1.287 . S
C2607 C2606 1.287 . S
C2607 C2608 1.524 . S
C2607 H2610 0.999 . S
C2608 H2578 0.950 . S
C2608 C2607 1.524 . S
C2608 C2609 1.415 . S
C2609 H2579 0.950 . S
C2609 C2604 1.363 . S
C2609 C2608 1.415 . S
H2610 C2607 0.999 . S
H2611 C2592 0.913 . S
H2612 C2630 0.951 . S
H2613 C2632 0.951 . S
H2614 C2634 0.950 . S
H2615 C2635 0.950 . S
H2616 C2637 0.950 . S
H2617 C2640 0.950 . S
H2618 C2641 0.950 . S
H2619 C2643 0.950 . S
H2620 C2644 0.950 . S
H2621 C2645 0.951 . S
H2622 C2647 0.951 . S
H2623 C2649 0.950 . S
H2624 C2650 0.950 . S
H2625 C2652 0.950 . S
H2626 C2655 0.950 . S
H2627 C2656 0.950 . S
H2628 C2658 0.950 . S
H2629 C2659 0.950 . S
C2630 H2612 0.951 . S
C2630 C2631 1.366 . S
C2630 C2632 1.388 . S
C2631 C2630 1.366 . S
C2631 C2635 1.385 . S
C2632 H2613 0.951 . S
C2632 C2630 1.388 . S
C2632 C2633 1.366 . S
C2633 C2632 1.366 . S
C2633 C2634 1.414 . S
C2633 C2636 1.499 . S
C2634 H2614 0.950 . S
C2634 C2633 1.414 . S
C2634 C2635 1.374 . S
C2635 H2615 0.950 . S
C2635 C2631 1.385 . S
C2635 C2634 1.374 . S
C2636 C2633 1.499 . S
C2636 C2637 1.373 . S
C2636 C2638 1.389 1_556 S
C2637 H2616 0.950 . S
C2637 C2636 1.373 . S
C2637 C2653 1.377 . S
C2638 C2636 1.389 1_554 S
C2638 C2639 1.524 . S
C2638 C2652 1.377 . S
C2639 C2638 1.524 . S
C2639 C2640 1.397 . S
C2639 C2644 1.363 . S
C2640 H2617 0.950 . S
C2640 C2639 1.397 . S
C2640 C2641 1.334 . S
C2641 H2618 0.950 . S
C2641 C2640 1.334 . S
C2641 C2642 1.287 . S
C2642 C2641 1.287 . S
C2642 C2643 1.524 . S
C2642 H2661 0.913 . S
C2643 H2619 0.950 . S
C2643 C2642 1.524 . S
C2643 C2644 1.415 . S
C2644 H2620 0.950 . S
C2644 C2639 1.363 . S
C2644 C2643 1.415 . S
C2645 H2621 0.951 . S
C2645 C2646 1.366 . S
C2645 C2647 1.388 . S
C2646 C2645 1.366 . S
C2646 C2650 1.385 . S
C2647 H2622 0.951 . S
C2647 C2645 1.388 . S
C2647 C2648 1.366 . S
C2648 C2647 1.366 . S
C2648 C2649 1.414 . S
C2648 C2651 1.499 . S
C2649 H2623 0.950 . S
C2649 C2648 1.414 . S
C2649 C2650 1.374 . S
C2650 H2624 0.950 . S
C2650 C2646 1.385 . S
C2650 C2649 1.374 . S
C2651 C2648 1.499 . S
C2651 C2652 1.373 . S
C2651 C2653 1.389 1_554 S
C2652 H2625 0.950 . S
C2652 C2638 1.377 . S
C2652 C2651 1.373 . S
C2653 C2637 1.377 . S
C2653 C2651 1.389 1_556 S
C2653 C2654 1.524 . S
C2654 C2653 1.524 . S
C2654 C2655 1.397 . S
C2654 C2659 1.363 . S
C2655 H2626 0.950 . S
C2655 C2654 1.397 . S
C2655 C2656 1.334 . S
C2656 H2627 0.950 . S
C2656 C2655 1.334 . S
C2656 C2657 1.287 . S
C2657 C2656 1.287 . S
C2657 C2658 1.524 . S
C2657 H2660 0.999 . S
C2658 H2628 0.950 . S
C2658 C2657 1.524 . S
C2658 C2659 1.415 . S
C2659 H2629 0.950 . S
C2659 C2654 1.363 . S
C2659 C2658 1.415 . S
H2660 C2657 0.999 . S
H2661 C2642 0.913 . S
H2662 C2680 0.951 . S
H2663 C2682 0.951 . S
H2664 C2684 0.950 . S
H2665 C2685 0.950 . S
H2666 C2687 0.950 . S
H2667 C2690 0.950 . S
H2668 C2691 0.950 . S
H2669 C2693 0.950 . S
H2670 C2694 0.950 . S
H2671 C2695 0.951 . S
H2672 C2697 0.951 . S
H2673 C2699 0.950 . S
H2674 C2700 0.950 . S
H2675 C2702 0.950 . S
H2676 C2705 0.950 . S
H2677 C2706 0.950 . S
H2678 C2708 0.950 . S
H2679 C2709 0.950 . S
C2680 H2662 0.951 . S
C2680 C2681 1.366 . S
C2680 C2682 1.388 . S
C2681 C2680 1.366 . S
C2681 C2685 1.385 . S
C2682 H2663 0.951 . S
C2682 C2680 1.388 . S
C2682 C2683 1.366 . S
C2683 C2682 1.366 . S
C2683 C2684 1.414 . S
C2683 C2686 1.499 . S
C2684 H2664 0.950 . S
C2684 C2683 1.414 . S
C2684 C2685 1.374 . S
C2685 H2665 0.950 . S
C2685 C2681 1.385 . S
C2685 C2684 1.374 . S
C2686 C2683 1.499 . S
C2686 C2687 1.373 . S
C2686 C2688 1.389 . S
C2687 H2666 0.950 . S
C2687 C2686 1.373 . S
C2687 C2703 1.377 . S
C2688 C2686 1.389 . S
C2688 C2689 1.524 . S
C2688 C2702 1.377 . S
C2689 C2688 1.524 . S
C2689 C2690 1.397 . S
C2689 C2694 1.363 . S
C2690 H2667 0.950 . S
C2690 C2689 1.397 . S
C2690 C2691 1.334 . S
C2691 H2668 0.950 . S
C2691 C2690 1.334 . S
C2691 C2692 1.287 . S
C2692 C2691 1.287 . S
C2692 C2693 1.524 . S
C2692 H2711 0.913 . S
C2693 H2669 0.950 . S
C2693 C2692 1.524 . S
C2693 C2694 1.415 . S
C2694 H2670 0.950 . S
C2694 C2689 1.363 . S
C2694 C2693 1.415 . S
C2695 H2671 0.951 . S
C2695 C2696 1.366 . S
C2695 C2697 1.388 . S
C2696 C2695 1.366 . S
C2696 C2700 1.385 . S
C2697 H2672 0.951 . S
C2697 C2695 1.388 . S
C2697 C2698 1.366 . S
C2698 C2697 1.366 . S
C2698 C2699 1.414 . S
C2698 C2701 1.499 . S
C2699 H2673 0.950 . S
C2699 C2698 1.414 . S
C2699 C2700 1.374 . S
C2700 H2674 0.950 . S
C2700 C2696 1.385 . S
C2700 C2699 1.374 . S
C2701 C2698 1.499 . S
C2701 C2702 1.373 . S
C2701 C2703 1.389 . S
C2702 H2675 0.950 . S
C2702 C2688 1.377 . S
C2702 C2701 1.373 . S
C2703 C2687 1.377 . S
C2703 C2701 1.389 . S
C2703 C2704 1.524 . S
C2704 C2703 1.524 . S
C2704 C2705 1.397 . S
C2704 C2709 1.363 . S
C2705 H2676 0.950 . S
C2705 C2704 1.397 . S
C2705 C2706 1.334 . S
C2706 H2677 0.950 . S
C2706 C2705 1.334 . S
C2706 C2707 1.287 . S
C2707 C2706 1.287 . S
C2707 C2708 1.524 . S
C2707 H2710 0.999 . S
C2708 H2678 0.950 . S
C2708 C2707 1.524 . S
C2708 C2709 1.415 . S
C2709 H2679 0.950 . S
C2709 C2704 1.363 . S
C2709 C2708 1.415 . S
H2710 C2707 0.999 . S
H2711 C2692 0.913 . S
C331 C10 1.440 . S
C346 C205 1.440 . S
C381 C23 1.440 . S
C396 C218 1.440 . S
C431 C231 1.440 . S
C446 C36 1.440 . S
C481 C166 1.440 . S
C496 C49 1.440 . S
C531 C179 1.440 . S
C546 C62 1.440 . S
C581 C192 1.440 . S
C596 C75 1.440 . S
C631 C283 1.440 . S
C646 C88 1.440 . S
C681 C101 1.440 . S
C696 C296 1.440 . S
C731 C309 1.440 . S
C746 C114 1.440 . S
C781 C127 1.440 . S
C796 C244 1.440 . S
C831 C257 1.440 . S
C846 C140 1.440 . S
C881 C153 1.440 . S
C896 C270 1.440 . S
C931 C130 0.994 . S
C946 C0 0.993 . S
C981 C143 0.993 . S
C996 C13 0.994 . S
C1031 C26 0.994 . S
C1046 C78 0.994 . S
C1081 C39 0.994 . S
C1096 C91 0.994 . S
C1131 C104 0.994 . S
C1146 C52 0.994 . S
C1181 C65 0.995 . S
C1196 C117 0.994 . S
C1231 C286 0.993 . S
C1246 C156 0.993 . S
C1281 C169 0.994 . S
C1296 C299 0.994 . S
C1331 C182 0.995 . S
C1346 C234 0.994 . S
C1381 C247 0.994 . S
C1396 C195 0.993 . S
C1431 C208 0.994 . S
C1446 C260 0.994 . S
C1481 C221 0.994 . S
C1496 C273 0.993 . S
C1531 C5 1.099 . S
C1546 C239 1.097 . S
C1581 C252 1.097 . S
C1596 C18 1.099 . S
C1631 C31 1.097 . S
C1646 C265 1.099 . S
C1681 C44 1.097 . S
C1696 C278 1.099 . S
C1731 C291 1.099 . S
C1746 C57 1.097 . S
C1781 C70 1.097 . S
C1796 C304 1.099 . S
C1831 C83 1.098 . S
C1846 C161 1.099 . S
C1881 C96 1.099 . S
C1896 C174 1.098 . S
C1931 C187 1.098 . S
C1946 C109 1.098 . S
C1981 C200 1.097 . S
C1996 C122 1.099 . S
C2031 C135 1.097 . S
C2046 C213 1.099 . S
C2081 C226 1.098 . S
C2096 C148 1.098 . S
C2131 C86 1.503 . S
C2146 C8 1.503 . S
C2181 C21 1.503 . S
C2196 C99 1.503 . S
C2231 C112 1.503 . S
C2246 C34 1.502 . S
C2281 C125 1.503 . S
C2296 C47 1.503 . S
C2331 C138 1.503 . S
C2346 C60 1.503 . S
C2381 C73 1.503 . S
C2396 C151 1.503 . S
C2431 C242 1.503 . S
C2446 C164 1.502 . S
C2481 C177 1.503 . S
C2496 C255 1.503 . S
C2531 C268 1.502 . S
C2546 C190 1.504 . S
C2581 C281 1.503 . S
C2596 C203 1.503 . S
C2631 C216 1.503 . S
C2646 C294 1.503 . S
C2681 C229 1.504 . S
C2696 C307 1.502 . S
