# Generated by pormake.
# Topology uob, (4)-cn, num edge types: 1
# Building blocks:
#     Node 0, Type 0, BuildingBlock: QUQFOY_clean_sbu_3, # of connection points: 4
#     Node 1, Type 0, BuildingBlock: QUQFOY_clean_sbu_3, # of connection points: 4
#     Node 2, Type 0, BuildingBlock: QUQFOY_clean_sbu_3, # of connection points: 4
#     Node 3, Type 0, BuildingBlock: QUQFOY_clean_sbu_3, # of connection points: 4
#     Node 4, Type 0, BuildingBlock: QUQFOY_clean_sbu_3, # of connection points: 4
#     Node 5, Type 0, BuildingBlock: QUQFOY_clean_sbu_3, # of connection points: 4
#     Node 6, Type 0, BuildingBlock: QUQFOY_clean_sbu_3, # of connection points: 4
#     Node 7, Type 0, BuildingBlock: QUQFOY_clean_sbu_3, # of connection points: 4
#     Node 8, Type 0, BuildingBlock: QUQFOY_clean_sbu_3, # of connection points: 4
#     Node 9, Type 0, BuildingBlock: QUQFOY_clean_sbu_3, # of connection points: 4
#     Node 10, Type 0, BuildingBlock: QUQFOY_clean_sbu_3, # of connection points: 4
#     Node 11, Type 0, BuildingBlock: QUQFOY_clean_sbu_3, # of connection points: 4
#     Node 12, Type 0, BuildingBlock: QUQFOY_clean_sbu_3, # of connection points: 4
#     Node 13, Type 0, BuildingBlock: QUQFOY_clean_sbu_3, # of connection points: 4
#     Node 14, Type 0, BuildingBlock: QUQFOY_clean_sbu_3, # of connection points: 4
#     Node 15, Type 0, BuildingBlock: QUQFOY_clean_sbu_3, # of connection points: 4
#     Edge 16, Type (0, 0), BuildingBlock: XUDNAN_clean_linker_2, # of connection points: 2
#     Edge 17, Type (0, 0), BuildingBlock: XUDNAN_clean_linker_2, # of connection points: 2
#     Edge 18, Type (0, 0), BuildingBlock: XUDNAN_clean_linker_2, # of connection points: 2
#     Edge 19, Type (0, 0), BuildingBlock: XUDNAN_clean_linker_2, # of connection points: 2
#     Edge 20, Type (0, 0), BuildingBlock: XUDNAN_clean_linker_2, # of connection points: 2
#     Edge 21, Type (0, 0), BuildingBlock: XUDNAN_clean_linker_2, # of connection points: 2
#     Edge 22, Type (0, 0), BuildingBlock: XUDNAN_clean_linker_2, # of connection points: 2
#     Edge 23, Type (0, 0), BuildingBlock: XUDNAN_clean_linker_2, # of connection points: 2
#     Edge 24, Type (0, 0), BuildingBlock: XUDNAN_clean_linker_2, # of connection points: 2
#     Edge 25, Type (0, 0), BuildingBlock: XUDNAN_clean_linker_2, # of connection points: 2
#     Edge 26, Type (0, 0), BuildingBlock: XUDNAN_clean_linker_2, # of connection points: 2
#     Edge 27, Type (0, 0), BuildingBlock: XUDNAN_clean_linker_2, # of connection points: 2
#     Edge 28, Type (0, 0), BuildingBlock: XUDNAN_clean_linker_2, # of connection points: 2
#     Edge 29, Type (0, 0), BuildingBlock: XUDNAN_clean_linker_2, # of connection points: 2
#     Edge 30, Type (0, 0), BuildingBlock: XUDNAN_clean_linker_2, # of connection points: 2
#     Edge 31, Type (0, 0), BuildingBlock: XUDNAN_clean_linker_2, # of connection points: 2
#     Edge 32, Type (0, 0), BuildingBlock: XUDNAN_clean_linker_2, # of connection points: 2
#     Edge 33, Type (0, 0), BuildingBlock: XUDNAN_clean_linker_2, # of connection points: 2
#     Edge 34, Type (0, 0), BuildingBlock: XUDNAN_clean_linker_2, # of connection points: 2
#     Edge 35, Type (0, 0), BuildingBlock: XUDNAN_clean_linker_2, # of connection points: 2
#     Edge 36, Type (0, 0), BuildingBlock: XUDNAN_clean_linker_2, # of connection points: 2
#     Edge 37, Type (0, 0), BuildingBlock: XUDNAN_clean_linker_2, # of connection points: 2
#     Edge 38, Type (0, 0), BuildingBlock: XUDNAN_clean_linker_2, # of connection points: 2
#     Edge 39, Type (0, 0), BuildingBlock: XUDNAN_clean_linker_2, # of connection points: 2
#     Edge 40, Type (0, 0), BuildingBlock: XUDNAN_clean_linker_2, # of connection points: 2
#     Edge 41, Type (0, 0), BuildingBlock: XUDNAN_clean_linker_2, # of connection points: 2
#     Edge 42, Type (0, 0), BuildingBlock: XUDNAN_clean_linker_2, # of connection points: 2
#     Edge 43, Type (0, 0), BuildingBlock: XUDNAN_clean_linker_2, # of connection points: 2
#     Edge 44, Type (0, 0), BuildingBlock: XUDNAN_clean_linker_2, # of connection points: 2
#     Edge 45, Type (0, 0), BuildingBlock: XUDNAN_clean_linker_2, # of connection points: 2
#     Edge 46, Type (0, 0), BuildingBlock: XUDNAN_clean_linker_2, # of connection points: 2
#     Edge 47, Type (0, 0), BuildingBlock: XUDNAN_clean_linker_2, # of connection points: 2
# Relax obj value: 0.169
# Max RMSD: 0.202
# Mean RMSD: 0.202
data_MOF--net-uob--node1-QUQFOY_clean_sbu_3--edge1-XUDNAN_clean_linker_2
_symmetry_space_group_name_H-M    P1
_symmetry_Int_Tables_number       1
_symmetry_cell_setting            triclinic
loop_
_symmetry_equiv_pos_as_xyz
'x, y, z'
_cell_length_a     54.84435
_cell_length_b     54.908853
_cell_length_c     27.300271
_cell_angle_alpha  89.878376
_cell_angle_beta   90.032558
_cell_angle_gamma 89.978027
loop_
_atom_site_label
_atom_site_type_symbol
_atom_site_fract_x
_atom_site_fract_y
_atom_site_fract_z
_atom_type_partial_charge
C0 C 0.13521 0.10387 0.14973 0.0
O1 O 0.12039 0.1175 0.17251 0.0
Cd2 Cd 0.09946 0.10908 0.24535 0.0
O3 O 0.14184 0.08333 0.16746 0.0
Cd4 Cd 0.13493 0.06011 0.24556 0.0
C5 C 0.07581 0.05209 0.21349 0.0
O6 O 0.13027 0.09491 0.29713 0.0
O7 O 0.11555 0.06152 0.32603 0.0
O8 O 0.17796 0.05904 0.26239 0.0
C9 C 0.12051 0.08382 0.33254 0.0
O10 O 0.07386 0.07474 0.22277 0.0
C11 C 0.17932 0.03685 0.275 0.0
O12 O 0.09631 0.04109 0.21705 0.0
O13 O 0.16023 0.02401 0.26882 0.0
C14 C 0.93485 0.61263 0.41783 0.0
O15 O 0.92374 0.5948 0.43744 0.0
Cd16 Cd 0.9277 0.57839 0.51687 0.0
O17 O 0.95147 0.62422 0.44096 0.0
Cd18 Cd 0.96997 0.6222 0.52508 0.0
C19 C 0.98892 0.56295 0.51435 0.0
O20 O 0.93052 0.61521 0.55958 0.0
O21 O 0.9599 0.61465 0.61178 0.0
O22 O 0.96879 0.66627 0.52529 0.0
C23 C 0.9372 0.61386 0.60361 0.0
O24 O 0.96642 0.55739 0.51662 0.0
C25 C 0.98871 0.66944 0.54806 0.0
O26 O 0.99574 0.58522 0.51446 0.0
O27 O 0.00177 0.65062 0.55514 0.0
C28 C 0.3506 0.40266 0.67157 0.0
O29 O 0.36329 0.38641 0.69271 0.0
Cd30 Cd 0.38491 0.38995 0.76705 0.0
O31 O 0.34629 0.423 0.69247 0.0
Cd32 Cd 0.35518 0.44169 0.77389 0.0
C33 C 0.4148 0.44491 0.74282 0.0
O34 O 0.3578 0.40577 0.82467 0.0
O35 O 0.37704 0.43754 0.85046 0.0
O36 O 0.31379 0.44534 0.80118 0.0
C37 C 0.3701 0.41584 0.85818 0.0
O38 O 0.41434 0.42196 0.74999 0.0
C39 C 0.31388 0.46804 0.80944 0.0
O40 O 0.39537 0.45771 0.74649 0.0
O41 O 0.33285 0.47983 0.79666 0.0
C42 C 0.60742 0.89996 -0.0144 0.0
O43 O 0.61883 0.91081 0.01961 0.0
Cd44 Cd 0.6023 0.91605 0.09865 0.0
O45 O 0.58647 0.89045 -0.00681 0.0
Cd46 Cd 0.55712 0.88492 0.06228 0.0
C47 C 0.54938 0.94547 0.06239 0.0
O48 O 0.58952 0.87583 0.11868 0.0
O49 O 0.55413 0.88201 0.15118 0.0
O50 O 0.55252 0.84349 0.03525 0.0
C51 C 0.57549 0.87341 0.15508 0.0
O52 O 0.57078 0.94567 0.08035 0.0
C53 C 0.53147 0.84054 0.05369 0.0
O54 O 0.53887 0.92549 0.05161 0.0
O55 O 0.52011 0.85974 0.06608 0.0
C56 C 0.11987 0.40965 0.11349 0.0
O57 O 0.10659 0.39647 0.08628 0.0
Cd58 Cd 0.09573 0.40539 0.00518 0.0
O59 O 0.12856 0.42991 0.09828 0.0
Cd60 Cd 0.12691 0.45447 0.02041 0.0
C61 C 0.06542 0.45966 0.02753 0.0
O62 O 0.1332 0.41867 0.97146 0.0
O63 O 0.1209 0.45024 0.93192 0.0
O64 O 0.16987 0.4619 0.03415 0.0
C65 C 0.12966 0.4289 0.93071 0.0
O66 O 0.06578 0.43722 0.01603 0.0
C67 C 0.17093 0.48213 0.01175 0.0
O68 O 0.08523 0.47153 0.03355 0.0
O69 O 0.15065 0.49159 -0.00049 0.0
C70 C 0.61116 0.627 0.30507 0.0
O71 O 0.61696 0.61459 0.26774 0.0
Cd72 Cd 0.59138 0.61165 0.19748 0.0
O73 O 0.59144 0.63937 0.30562 0.0
Cd74 Cd 0.5568 0.64811 0.24967 0.0
C75 C 0.53991 0.59014 0.25618 0.0
O76 O 0.57876 0.65126 0.1735 0.0
O77 O 0.54091 0.64072 0.16809 0.0
O78 O 0.56098 0.69106 0.26376 0.0
C79 C 0.55986 0.64894 0.1473 0.0
O80 O 0.55672 0.58724 0.22454 0.0
C81 C 0.53849 0.69611 0.25951 0.0
O82 O 0.53653 0.61063 0.27703 0.0
O83 O 0.52377 0.6782 0.25993 0.0
C84 C 0.38047 0.0735 0.6265 0.0
O85 O 0.39841 0.0832 0.6046 0.0
Cd86 Cd 0.41167 0.07689 0.52408 0.0
O87 O 0.36739 0.05735 0.60535 0.0
Cd88 Cd 0.36802 0.03855 0.52124 0.0
C89 C 0.42545 0.01573 0.52819 0.0
O90 O 0.37422 0.0771 0.48152 0.0
O91 O 0.38232 0.04573 0.43728 0.0
O92 O 0.32435 0.04279 0.51215 0.0
C93 C 0.37839 0.06843 0.4397 0.0
O94 O 0.43216 0.03774 0.52256 0.0
C95 C 0.32038 0.02208 0.49336 0.0
O96 O 0.40289 0.01039 0.53256 0.0
O97 O 0.33821 0.00729 0.4928 0.0
C98 C 0.90751 0.86499 0.87507 0.0
O99 O 0.89657 0.88209 0.85275 0.0
Cd100 Cd 0.90928 0.90266 0.78066 0.0
O101 O 0.92697 0.8557 0.85751 0.0
Cd102 Cd 0.95178 0.86123 0.78149 0.0
C103 C 0.96855 0.91809 0.81406 0.0
O104 O 0.92136 0.87386 0.72193 0.0
O105 O 0.9587 0.88471 0.70846 0.0
O106 O 0.94837 0.82026 0.75098 0.0
C107 C 0.93683 0.88378 0.6937 0.0
O108 O 0.94671 0.9237 0.80267 0.0
C109 C 0.97098 0.81551 0.74922 0.0
O110 O 0.97571 0.8959 0.81352 0.0
O111 O 0.98536 0.83151 0.76667 0.0
C112 C 0.6217 0.59657 0.64173 0.0
O113 O 0.6029 0.60869 0.6534 0.0
Cd114 Cd 0.57864 0.60566 0.72426 0.0
O115 O 0.63017 0.58012 0.67015 0.0
Cd116 Cd 0.61854 0.56634 0.75454 0.0
C117 C 0.56289 0.54483 0.72348 0.0
O118 O 0.60746 0.60573 0.78794 0.0
O119 O 0.59327 0.57432 0.82603 0.0
O120 O 0.659 0.57124 0.7884 0.0
C121 C 0.59701 0.5971 0.82533 0.0
O122 O 0.55668 0.56717 0.72234 0.0
C123 C 0.66129 0.54993 0.8057 0.0
O124 O 0.58511 0.53871 0.73039 0.0
O125 O 0.64439 0.53488 0.79568 0.0
C126 C 0.38684 0.13288 0.95853 0.0
O127 O 0.37719 0.12097 -0.00667 0.0
Cd128 Cd 0.39507 0.11376 0.07076 0.0
O129 O 0.40682 0.14445 0.9649 0.0
Cd130 Cd 0.43463 0.15242 0.03579 0.0
C131 C 0.45213 0.09413 0.03197 0.0
O132 O 0.4063 0.15185 0.10345 0.0
O133 O 0.44333 0.14121 0.11933 0.0
O134 O 0.43327 0.19611 0.0352 0.0
C135 C 0.42254 0.1474 0.13517 0.0
O136 O 0.43169 0.08989 0.05255 0.0
C137 C 0.45585 0.19913 0.04354 0.0
O138 O 0.45792 0.11563 0.01847 0.0
O139 O 0.46953 0.18061 0.0384 0.0
C140 C 0.88098 0.88998 0.2133 0.0
O141 O 0.89565 0.8825 0.24599 0.0
Cd142 Cd 0.9099 0.90684 0.312 0.0
O143 O 0.87073 0.91078 0.21721 0.0
Cd144 Cd 0.86841 0.94436 0.27859 0.0
C145 C 0.92577 0.95936 0.24748 0.0
O146 O 0.87613 0.92298 0.35425 0.0
O147 O 0.88459 0.96147 0.35363 0.0
O148 O 0.82617 0.93728 0.29326 0.0
C149 C 0.88185 0.94197 0.37796 0.0
O150 O 0.93119 0.94049 0.27249 0.0
C151 C 0.81913 0.95923 0.29045 0.0
O152 O 0.9035 0.9653 0.24019 0.0
O153 O 0.83463 0.97483 0.2754 0.0
C154 C 0.11833 0.34987 0.44662 0.0
O155 O 0.13346 0.35655 0.47913 0.0
Cd156 Cd 0.12466 0.36841 0.56053 0.0
O157 O 0.09604 0.34569 0.45751 0.0
Cd158 Cd 0.07031 0.34526 0.53305 0.0
C159 C 0.076 0.40681 0.53021 0.0
O160 O 0.10085 0.33759 0.5953 0.0
O161 O 0.06795 0.3557 0.61786 0.0
O162 O 0.05621 0.30342 0.52629 0.0
C163 C 0.08842 0.3468 0.62963 0.0
O164 O 0.09753 0.40306 0.5463 0.0
C165 C 0.03441 0.30798 0.53913 0.0
O166 O 0.06186 0.38905 0.51956 0.0
O167 O 0.02842 0.33032 0.54187 0.0
C168 C 0.63258 0.89083 0.63445 0.0
O169 O 0.62075 0.87247 0.61903 0.0
Cd170 Cd 0.60772 0.86221 0.53879 0.0
O171 O 0.63972 0.90759 0.60526 0.0
Cd172 Cd 0.63678 0.91579 0.51587 0.0
C173 C 0.57386 0.91475 0.52006 0.0
O174 O 0.64244 0.87322 0.49413 0.0
O175 O 0.6367 0.89803 0.43455 0.0
O176 O 0.67806 0.93183 0.51612 0.0
C177 C 0.64076 0.87644 0.44852 0.0
O178 O 0.57546 0.89171 0.52467 0.0
C179 C 0.67382 0.94944 0.48703 0.0
O180 O 0.59299 0.92805 0.51819 0.0
O181 O 0.65166 0.95307 0.47548 0.0
C182 C 0.11182 0.12754 0.81075 0.0
O183 O 0.12196 0.1171 0.77473 0.0
Cd184 Cd 0.10007 0.10344 0.7062 0.0
O185 O 0.08915 0.13306 0.80952 0.0
Cd186 Cd 0.05425 0.13105 0.75002 0.0
C187 C 0.05477 0.07082 0.76796 0.0
O188 O 0.07863 0.13835 0.67895 0.0
O189 O 0.04482 0.11946 0.66582 0.0
O190 O 0.04613 0.17401 0.76279 0.0
C191 C 0.06262 0.13148 0.64874 0.0
O192 O 0.07413 0.07196 0.74227 0.0
C193 C 0.02369 0.17298 0.75172 0.0
O194 O 0.04288 0.09006 0.77871 0.0
O195 O 0.01453 0.1518 0.74838 0.0
C196 C 0.87829 0.61777 0.08308 0.0
O197 O 0.89052 0.62702 0.0482 0.0
Cd198 Cd 0.89544 0.61001 0.96882 0.0
O199 O 0.86513 0.59885 0.07635 0.0
Cd200 Cd 0.85313 0.57121 0.00804 0.0
C201 C 0.91247 0.55224 0.00842 0.0
O202 O 0.85568 0.60048 0.9427 0.0
O203 O 0.85393 0.56278 0.92097 0.0
O204 O 0.80983 0.57617 0.02158 0.0
C205 C 0.85404 0.585 0.9086 0.0
O206 O 0.91739 0.57259 -0.01185 0.0
C207 C 0.80442 0.55386 0.01571 0.0
O208 O 0.89066 0.54694 0.02115 0.0
O209 O 0.82214 0.5389 0.01411 0.0
C210 C 0.38845 0.39173 0.3326 0.0
O211 O 0.38152 0.40419 0.29598 0.0
Cd212 Cd 0.40387 0.40783 0.22224 0.0
O213 O 0.40868 0.38018 0.33173 0.0
Cd214 Cd 0.44245 0.37445 0.27148 0.0
C215 C 0.45599 0.43346 0.27001 0.0
O216 O 0.41607 0.36762 0.20263 0.0
O217 O 0.45229 0.37969 0.1846 0.0
O218 O 0.44421 0.33187 0.29276 0.0
C219 C 0.4326 0.36979 0.17076 0.0
O220 O 0.43802 0.43476 0.24057 0.0
C221 C 0.46631 0.3289 0.28023 0.0
O222 O 0.46113 0.41368 0.29226 0.0
O223 O 0.47873 0.34816 0.27356 0.0
H224 H 0.29077 0.05636 0.45444 0.0
H225 H 0.29983 0.97812 0.46549 0.0
H226 H 0.26445 0.97239 0.40957 0.0
H227 H 0.22524 0.05884 0.44583 0.0
H228 H 0.22592 0.08323 0.40158 0.0
H229 H 0.25011 0.0803 0.44577 0.0
H230 H 0.28168 0.07929 0.37508 0.0
H231 H 0.25756 0.08179 0.33063 0.0
H232 H 0.27874 0.05673 0.32757 0.0
H233 H 0.2268 0.97632 0.35147 0.0
H234 H 0.19297 0.98934 0.29657 0.0
H235 H 0.21348 0.06474 0.3192 0.0
C236 C 0.28503 0.03795 0.44617 0.0
C237 C 0.29768 0.01765 0.46524 0.0
C238 C 0.29009 0.99391 0.45191 0.0
C239 C 0.27011 0.99053 0.42004 0.0
C240 C 0.25835 0.0111 0.40106 0.0
C241 C 0.26578 0.03432 0.4136 0.0
C242 C 0.25157 0.05359 0.38626 0.0
C243 C 0.23737 0.06994 0.42199 0.0
C244 C 0.26839 0.06873 0.35292 0.0
C245 C 0.23466 0.03773 0.35661 0.0
C246 C 0.23849 0.01325 0.3657 0.0
C247 C 0.22391 0.99544 0.34378 0.0
C248 C 0.20481 0.00296 0.3125 0.0
C249 C 0.20084 0.02802 0.30282 0.0
C250 C 0.2163 0.04541 0.3248 0.0
H251 H 0.94519 0.7881 0.68507 0.0
H252 H 0.0166 0.79395 0.75227 0.0
H253 H 0.03063 0.75835 0.70368 0.0
H254 H 0.94178 0.7235 0.67966 0.0
H255 H 0.92649 0.72345 0.62121 0.0
H256 H 0.92276 0.74884 0.66206 0.0
H257 H 0.93735 0.7781 0.59334 0.0
H258 H 0.9415 0.75271 0.5525 0.0
H259 H 0.96655 0.77306 0.56477 0.0
H260 H 0.03551 0.72007 0.64927 0.0
H261 H 0.0308 0.68403 0.59534 0.0
H262 H 0.95712 0.70698 0.56052 0.0
C263 C 0.96375 0.78184 0.69005 0.0
C264 C 0.97973 0.79359 0.72296 0.0
C265 C 0.00401 0.78507 0.72752 0.0
C266 C 0.01212 0.76494 0.69994 0.0
C267 C 0.99585 0.75393 0.66738 0.0
C268 C 0.9722 0.76228 0.6623 0.0
C269 C 0.95816 0.74776 0.62476 0.0
C270 C 0.936 0.73514 0.64834 0.0
C271 C 0.95045 0.76387 0.58127 0.0
C272 C 0.9774 0.72956 0.60982 0.0
C273 C 0.99904 0.73321 0.63473 0.0
C274 C 0.01875 0.71734 0.62907 0.0
C275 C 0.01598 0.69698 0.59819 0.0
C276 C 0.99375 0.69288 0.573 0.0
C277 C 0.97456 0.70982 0.57821 0.0
H278 H 0.29491 0.44793 0.89036 0.0
H279 H 0.28926 0.51185 0.79794 0.0
H280 H 0.2544 0.52656 0.84849 0.0
H281 H 0.23376 0.43705 0.90674 0.0
H282 H 0.23646 0.4274 0.96966 0.0
H283 H 0.26186 0.42395 0.9288 0.0
H284 H 0.28898 0.44883 -0.01161 0.0
H285 H 0.26348 0.45256 0.02931 0.0
H286 H 0.27954 0.47892 0.00671 0.0
H287 H 0.21599 0.53024 0.90319 0.0
H288 H 0.17984 0.5232 0.9558 0.0
H289 H 0.21449 0.45878 0.01605 0.0
C290 C 0.28651 0.4652 0.88109 0.0
C291 C 0.29445 0.47869 0.84012 0.0
C292 C 0.28332 0.5013 0.82929 0.0
C293 C 0.2636 0.50974 0.85787 0.0
C294 C 0.25593 0.49568 0.89785 0.0
C295 C 0.26746 0.47407 0.90976 0.0
C296 C 0.25551 0.46158 0.95282 0.0
C297 C 0.24635 0.43601 0.93862 0.0
C298 C 0.27292 0.46042 -0.00308 0.0
C299 C 0.23463 0.47887 0.96227 0.0
C300 C 0.23508 0.49855 0.93054 0.0
C301 C 0.21586 0.51525 0.92899 0.0
C302 C 0.19542 0.51118 0.95922 0.0
C303 C 0.19441 0.49062 -0.00933 0.0
C304 C 0.21482 0.475 -0.00657 0.0
H305 H 0.56376 0.80744 0.08659 0.0
H306 H 0.4862 0.82225 0.07963 0.0
H307 H 0.47861 0.78749 0.13625 0.0
H308 H 0.56228 0.74195 0.09881 0.0
H309 H 0.58717 0.742 0.14194 0.0
H310 H 0.58511 0.76554 0.0962 0.0
H311 H 0.58655 0.7983 0.16522 0.0
H312 H 0.58819 0.77459 0.21076 0.0
H313 H 0.5643 0.79705 0.21373 0.0
H314 H 0.48066 0.75004 0.19494 0.0
H315 H 0.49196 0.7147 0.24719 0.0
H316 H 0.56843 0.73082 0.223 0.0
C317 C 0.54503 0.80292 0.09535 0.0
C318 C 0.52546 0.81704 0.07734 0.0
C319 C 0.50138 0.8112 0.09194 0.0
C320 C 0.49698 0.79169 0.12447 0.0
C321 C 0.51694 0.77879 0.14309 0.0
C322 C 0.54048 0.78437 0.12898 0.0
C323 C 0.55911 0.7695 0.15664 0.0
C324 C 0.5743 0.75381 0.1213 0.0
C325 C 0.57551 0.78584 0.18843 0.0
C326 C 0.54247 0.75412 0.18795 0.0
C327 C 0.51818 0.75945 0.17966 0.0
C328 C 0.49965 0.74603 0.20216 0.0
C329 C 0.50621 0.72614 0.23218 0.0
C330 C 0.53108 0.72022 0.24003 0.0
C331 C 0.54925 0.73511 0.21896 0.0
H332 H 0.68842 0.5823 0.85709 0.0
H333 H 0.6791 0.50481 0.83338 0.0
H334 H 0.71223 0.49646 0.8933 0.0
H335 H 0.75229 0.58296 0.86786 0.0
H336 H 0.75257 0.60594 0.91489 0.0
H337 H 0.72793 0.60493 0.87151 0.0
H338 H 0.69705 0.60229 0.94332 0.0
H339 H 0.72173 0.60284 -0.01308 0.0
H340 H 0.69999 0.57823 -0.01203 0.0
H341 H 0.7493 0.49751 0.95135 0.0
H342 H 0.78616 0.50775 -0.00039 0.0
H343 H 0.76764 0.58438 -0.01069 0.0
C344 C 0.69335 0.56352 0.86428 0.0
C345 C 0.68142 0.54419 0.8401 0.0
C346 C 0.68814 0.51989 0.85127 0.0
C347 C 0.70683 0.51502 0.88542 0.0
C348 C 0.71814 0.53462 0.90881 0.0
C349 C 0.71144 0.55838 0.89877 0.0
C350 C 0.72643 0.57638 0.9278 0.0
C351 C 0.74065 0.59354 0.89347 0.0
C352 C 0.71033 0.59078 0.96363 0.0
C353 C 0.74326 0.55917 0.95481 0.0
C354 C 0.73825 0.53512 0.94369 0.0
C355 C 0.75303 0.51625 0.96099 0.0
C356 C 0.77387 0.52222 -0.01133 0.0
C357 C 0.77965 0.54684 -0.00102 0.0
C358 C 0.76351 0.56534 0.98326 0.0
H359 H 0.43768 0.28958 0.26368 0.0
H360 H 0.51104 0.31671 0.24079 0.0
H361 H 0.51794 0.28463 0.17867 0.0
H362 H 0.44862 0.22376 0.23541 0.0
H363 H 0.41969 0.22189 0.20432 0.0
H364 H 0.42343 0.24238 0.25524 0.0
H365 H 0.40854 0.2779 0.20006 0.0
H366 H 0.40574 0.25787 0.1484 0.0
H367 H 0.42464 0.28464 0.1441 0.0
H368 H 0.51455 0.25148 0.11122 0.0
H369 H 0.50134 0.22105 0.04903 0.0
H370 H 0.42854 0.22213 0.11063 0.0
C371 C 0.45564 0.28817 0.24745 0.0
C372 C 0.47389 0.30556 0.25762 0.0
C373 C 0.49688 0.30336 0.23424 0.0
C374 C 0.50088 0.28531 0.19853 0.0
C375 C 0.48166 0.26975 0.18647 0.0
C376 C 0.45957 0.27096 0.21081 0.0
C377 C 0.44063 0.25483 0.18725 0.0
C378 C 0.43263 0.23451 0.22265 0.0
C379 C 0.41861 0.26971 0.16888 0.0
C380 C 0.45522 0.24476 0.14511 0.0
C381 C 0.47902 0.25294 0.14558 0.0
C382 C 0.49587 0.24513 0.1105 0.0
C383 C 0.48822 0.2281 0.07501 0.0
C384 C 0.46375 0.21989 0.07399 0.0
C385 C 0.44715 0.2287 0.10921 0.0
H386 H 0.80568 0.94444 0.37951 0.0
H387 H 0.78185 0.98979 0.2587 0.0
H388 H 0.74279 0.99781 0.30266 0.0
H389 H 0.75167 0.9159 0.4038 0.0
H390 H 0.75539 0.91548 0.46941 0.0
H391 H 0.78175 0.91618 0.43049 0.0
H392 H 0.79694 0.95511 0.47461 0.0
H393 H 0.77043 0.95462 0.5136 0.0
H394 H 0.77735 0.98142 0.478 0.0
H395 H 0.70417 0.9955 0.35661 0.0
H396 H 0.67089 0.98346 0.41287 0.0
H397 H 0.72243 0.94171 0.49945 0.0
C398 C 0.79233 0.95631 0.3625 0.0
C399 C 0.79644 0.96629 0.31563 0.0
C400 C 0.77885 0.98197 0.29464 0.0
C401 C 0.75675 0.98663 0.31946 0.0
C402 C 0.75309 0.97604 0.36561 0.0
C403 C 0.7707 0.9615 0.38704 0.0
C404 C 0.76232 0.95108 0.43542 0.0
C405 C 0.7628 0.92301 0.43468 0.0
C406 C 0.77767 0.96117 0.47792 0.0
C407 C 0.73661 0.96083 0.43702 0.0
C408 C 0.73158 0.9755 0.39695 0.0
C409 C 0.70813 0.9845 0.38857 0.0
C410 C 0.68933 0.97762 0.42087 0.0
C411 C 0.69407 0.96178 0.46087 0.0
C412 C 0.71823 0.95417 0.46981 0.0
H413 H 0.03857 0.25881 0.52731 0.0
H414 H 0.99827 0.3138 0.607 0.0
H415 H 0.98442 0.2826 0.66583 0.0
H416 H 0.9944 0.20567 0.55491 0.0
H417 H 0.01989 0.18505 0.55962 0.0
H418 H 0.02101 0.21029 0.5173 0.0
H419 H 0.06141 0.22428 0.55722 0.0
H420 H 0.06006 0.19979 0.60063 0.0
H421 H 0.06214 0.23073 0.62198 0.0
H422 H 0.98477 0.24806 0.72781 0.0
H423 H 0.9948 0.21203 0.77967 0.0
H424 H 0.03227 0.17928 0.65699 0.0
C425 C 0.02576 0.26402 0.55558 0.0
C426 C 0.01942 0.28869 0.56235 0.0
C427 C 0.00309 0.29495 0.60054 0.0
C428 C 0.99522 0.27732 0.63443 0.0
C429 C 0.00324 0.25339 0.62878 0.0
C430 C 0.01748 0.24658 0.5892 0.0
C431 C 0.02599 0.22047 0.59413 0.0
C432 C 0.01463 0.20442 0.55412 0.0
C433 C 0.05405 0.21876 0.59347 0.0
C434 C 0.01578 0.2142 0.64404 0.0
C435 C 0.00246 0.23323 0.66353 0.0
C436 C 0.9943 0.23268 0.71217 0.0
C437 C 1.00006 0.21226 0.74145 0.0
C438 C 0.01367 0.19282 0.72161 0.0
C439 C 0.02111 0.19368 0.67225 0.0
H440 H 0.06325 0.00528 0.2387 0.0
H441 H 0.0368 0.06969 0.16344 0.0
H442 H 0.99611 0.05098 0.15573 0.0
H443 H 0.02447 0.95969 0.17179 0.0
H444 H 0.01962 0.9421 0.22673 0.0
H445 H 0.04768 0.95869 0.21854 0.0
H446 H 0.04039 0.98073 0.30109 0.0
H447 H 0.01224 0.96447 0.30926 0.0
H448 H 0.01237 0.99729 0.31034 0.0
H449 H 0.957 0.02782 0.16601 0.0
H450 H 0.92287 0.00131 0.19198 0.0
H451 H 0.97467 0.95231 0.26137 0.0
C452 C 0.04913 0.01499 0.21896 0.0
C453 C 0.05322 0.03877 0.20113 0.0
C454 C 0.03405 0.05134 0.17707 0.0
C455 C 0.01088 0.04087 0.17244 0.0
C456 C 0.0071 0.01777 0.19207 0.0
C457 C 0.02574 0.00486 0.21451 0.0
C458 C 0.01624 0.98148 0.23697 0.0
C459 C 0.02768 0.95917 0.212 0.0
C460 C 0.02056 0.98099 0.2927 0.0
C461 C 0.98935 0.98365 0.2249 0.0
C462 C 0.98445 0.00454 0.19851 0.0
C463 C 0.96066 0.01116 0.18597 0.0
C464 C 0.94137 0.99605 0.20101 0.0
C465 C 0.946 0.97466 0.22853 0.0
C466 C 0.97041 0.96838 0.23995 0.0
H467 H 0.97943 0.51445 0.50288 0.0
H468 H 0.03902 0.56559 0.52249 0.0
H469 H 0.06814 0.5311 0.52471 0.0
H470 H 0.00101 0.46941 0.5837 0.0
H471 H 0.9908 0.44414 0.54697 0.0
H472 H 0.97505 0.47285 0.54373 0.0
H473 H 0.98167 0.47419 0.44976 0.0
H474 H 0.99739 0.4454 0.45267 0.0
H475 H 0.0121 0.47147 0.42547 0.0
H476 H 0.09017 0.49074 0.53006 0.0
H477 H 0.10377 0.44808 0.53607 0.0
H478 H 0.02945 0.42356 0.512 0.0
C479 C 0.99863 0.51855 0.50723 0.0
C480 C 0.00694 0.54281 0.51258 0.0
C481 C 0.03222 0.54721 0.51816 0.0
C482 C 0.04887 0.52773 0.51949 0.0
C483 C 0.03993 0.50404 0.5148 0.0
C484 C 0.0154 0.49943 0.50845 0.0
C485 C 0.01026 0.47236 0.50572 0.0
C486 C 0.99328 0.46422 0.54753 0.0
C487 C 0.99974 0.46545 0.45541 0.0
C488 C 0.03572 0.46231 0.51238 0.0
C489 C 0.05258 0.48088 0.5174 0.0
C490 C 0.07715 0.47609 0.52575 0.0
C491 C 0.08466 0.45174 0.52923 0.0
C492 C 0.06768 0.43237 0.52437 0.0
C493 C 0.04292 0.43787 0.51544 0.0
H494 H 0.42675 0.49391 0.74 0.0
H495 H 0.45733 0.42152 0.7213 0.0
H496 H 0.49802 0.43928 0.70969 0.0
H497 H 0.46667 0.52453 0.65025 0.0
H498 H 0.46933 0.55169 0.68681 0.0
H499 H 0.44205 0.53347 0.69008 0.0
H500 H 0.44737 0.52964 0.78413 0.0
H501 H 0.47467 0.54775 0.78111 0.0
H502 H 0.47558 0.51788 0.80854 0.0
H503 H 0.53607 0.46432 0.70679 0.0
H504 H 0.56854 0.49553 0.7099 0.0
H505 H 0.51349 0.55162 0.72855 0.0
C506 C 0.44192 0.48184 0.73264 0.0
C507 C 0.43872 0.4563 0.73163 0.0
C508 C 0.45919 0.44115 0.72242 0.0
C509 C 0.48246 0.45104 0.71564 0.0
C510 C 0.48509 0.47618 0.71781 0.0
C511 C 0.4654 0.49143 0.7257 0.0
C512 C 0.4735 0.51778 0.72828 0.0
C513 C 0.46222 0.53275 0.68635 0.0
C514 C 0.46742 0.5289 0.7785 0.0
C515 C 0.50079 0.51482 0.72153 0.0
C516 C 0.5071 0.49069 0.71542 0.0
C517 C 0.53135 0.48335 0.71092 0.0
C518 C 0.54968 0.50117 0.71286 0.0
C519 C 0.54362 0.52604 0.71907 0.0
C520 C 0.51878 0.53282 0.72306 0.0
H521 H 0.50072 0.958 0.06579 0.0
H522 H 0.5727 0.98614 0.03191 0.0
H523 H 0.55496 0.02631 0.0131 0.0
H524 H 0.4665 0.99383 0.97469 0.0
H525 H 0.44121 0.99917 0.01545 0.0
H526 H 0.45907 0.97175 0.02133 0.0
H527 H 0.46755 0.98187 0.11246 0.0
H528 H 0.44971 0.00925 0.10685 0.0
H529 H 0.48079 0.01089 0.12807 0.0
H530 H 0.53015 0.06373 0.00141 0.0
H531 H 0.49996 0.09702 0.00346 0.0
H532 H 0.44418 0.04546 0.04846 0.0
C533 C 0.5126 0.97257 0.05369 0.0
C534 C 0.53802 0.96902 0.05007 0.0
C535 C 0.55315 0.98856 0.03509 0.0
C536 C 0.54326 0.01139 0.02398 0.0
C537 C 0.5182 0.01446 0.02847 0.0
C538 C 0.50304 0.99571 0.04332 0.0
C539 C 0.47704 0.00456 0.04909 0.0
C540 C 0.45995 0.99155 0.01298 0.0
C541 C 0.46827 0.00146 0.10228 0.0
C542 C 0.4801 0.0312 0.03577 0.0
C543 C 0.50391 0.03642 0.02326 0.0
C544 C 0.51138 0.05989 0.01089 0.0
C545 C 0.4941 0.07868 0.01211 0.0
C546 C 0.46971 0.0739 0.02618 0.0
C547 C 0.46266 0.04974 0.03747 0.0
H548 H 0.0514 0.5072 0.00886 0.0
H549 H 0.02468 0.43751 0.06137 0.0
H550 H 0.98307 0.45416 0.06625 0.0
H551 H 0.00957 0.54583 0.08145 0.0
H552 H 0.00548 0.56746 0.03236 0.0
H553 H 0.03373 0.5509 0.03784 0.0
H554 H 0.02875 0.53542 0.94879 0.0
H555 H 1.00042 0.55175 0.9432 0.0
H556 H 0.00132 0.51945 0.93172 0.0
H557 H 0.9439 0.47723 0.06072 0.0
H558 H 0.90978 0.50562 0.0451 0.0
H559 H 0.9614 0.56001 -0.00606 0.0
C560 C 0.03686 0.49569 0.02242 0.0
C561 C 0.04129 0.47112 0.03499 0.0
C562 C 0.02169 0.4564 0.0515 0.0
C563 C 0.99798 0.46568 0.05454 0.0
C564 C 0.99403 0.48975 0.04073 0.0
C565 C 0.01288 0.50462 0.02509 0.0
C566 C 0.00327 0.52933 0.00945 0.0
C567 C 0.01363 0.54958 0.04224 0.0
C568 C 0.00877 0.53426 0.95506 0.0
C569 C 0.97617 0.52581 0.01808 0.0
C570 C 0.97125 0.50293 0.03655 0.0
C571 C 0.94751 0.49529 0.04652 0.0
C572 C 0.92822 0.51151 0.03743 0.0
C573 C 0.9328 0.53504 0.01821 0.0
C574 C 0.95718 0.54216 0.00859 0.0
H575 H 0.47139 0.46589 0.20192 0.0
H576 H 0.47214 0.45117 0.3579 0.0
H577 H 0.49179 0.49125 0.37257 0.0
H578 H 0.53087 0.49482 0.19886 0.0
H579 H 0.52197 0.51612 0.15181 0.0
H580 H 0.50778 0.4866 0.15488 0.0
H581 H 0.46535 0.50732 0.15896 0.0
H582 H 0.47943 0.53692 0.15683 0.0
H583 H 0.45922 0.52921 0.20653 0.0
H584 H 0.50871 0.53463 0.36947 0.0
H585 H 0.52821 0.57408 0.34813 0.0
H586 H 0.51925 0.5579 0.19391 0.0
C587 C 0.47589 0.47107 0.23911 0.0
C588 C 0.47026 0.45569 0.27889 0.0
C589 C 0.47653 0.46279 0.32704 0.0
C590 C 0.48745 0.48555 0.33566 0.0
C591 C 0.49233 0.50059 0.29556 0.0
C592 C 0.48729 0.49333 0.24816 0.0
C593 C 0.49535 0.51217 0.21114 0.0
C594 C 0.51518 0.50181 0.17719 0.0
C595 C 0.47353 0.52198 0.18164 0.0
C596 C 0.50552 0.53136 0.24502 0.0
C597 C 0.50324 0.52464 0.29365 0.0
C598 C 0.51079 0.53995 0.33151 0.0
C599 C 0.52161 0.56234 0.31916 0.0
C600 C 0.52514 0.56881 0.2695 0.0
C601 C 0.51675 0.55325 0.23217 0.0
H602 H 0.47502 0.02181 0.52456 0.0
H603 H 0.41898 0.96603 0.53194 0.0
H604 H 0.45092 0.93424 0.52923 0.0
H605 H 0.51451 0.99088 0.44103 0.0
H606 H 0.54212 0.0012 0.47018 0.0
H607 H 0.51492 0.01952 0.47321 0.0
H608 H 0.51746 0.01966 0.56799 0.0
H609 H 0.54475 0.00146 0.56527 0.0
H610 H 0.51899 0.99111 0.60061 0.0
H611 H 0.48893 0.90873 0.52453 0.0
H612 H 0.53007 0.89097 0.52144 0.0
H613 H 0.56147 0.9636 0.51752 0.0
C614 C 0.46935 0.00291 0.52573 0.0
C615 C 0.44439 0.99642 0.52842 0.0
C616 C 0.43792 0.97147 0.52996 0.0
C617 C 0.45595 0.9533 0.52832 0.0
C618 C 0.48033 0.9604 0.52524 0.0
C619 C 0.48705 0.98461 0.52421 0.0
C620 C 0.51451 0.98744 0.52111 0.0
C621 C 0.52194 0.00054 0.47355 0.0
C622 C 0.52451 0.0007 0.56645 0.0
C623 C 0.52226 0.96098 0.52051 0.0
C624 C 0.50224 0.94571 0.52279 0.0
C625 C 0.50472 0.92051 0.52282 0.0
C626 C 0.52826 0.91063 0.521 0.0
C627 C 0.54916 0.92586 0.51926 0.0
C628 C 0.54598 0.95142 0.51869 0.0
H629 H 0.00835 0.05636 0.79316 0.0
H630 H 0.0828 0.03036 0.78069 0.0
H631 H 0.0694 0.98901 0.80325 0.0
H632 H 0.9893 0.01531 0.89523 0.0
H633 H 0.95942 0.01078 0.86929 0.0
H634 H 0.97527 0.03913 0.85945 0.0
H635 H 0.97076 0.0338 0.76554 0.0
H636 H 0.95486 0.00557 0.77514 0.0
H637 H 0.98173 0.00626 0.73718 0.0
H638 H 0.04759 0.94971 0.81875 0.0
H639 H 0.01856 0.91531 0.82101 0.0
H640 H 0.95831 0.96664 0.82253 0.0
C641 C 0.02188 0.04208 0.7964 0.0
C642 C 0.04662 0.04662 0.78547 0.0
C643 C 0.06372 0.02731 0.78888 0.0
C644 C 0.05633 0.00377 0.80202 0.0
C645 C 0.03175 0.99974 0.81165 0.0
C646 C 0.01475 0.01834 0.80895 0.0
C647 C 0.98915 0.00864 0.81605 0.0
C648 C 0.97761 0.01909 0.8628 0.0
C649 C 0.9732 0.01387 0.77078 0.0
C650 C 0.99439 0.98167 0.82156 0.0
C651 C 0.01909 0.97693 0.81986 0.0
C652 C 0.0282 0.9532 0.82087 0.0
C653 C 0.01157 0.93375 0.82227 0.0
C654 C 0.98614 0.9382 0.82207 0.0
C655 C 0.97762 0.96254 0.82312 0.0
H656 H 0.04797 0.09932 0.57939 0.0
H657 H 0.08973 0.16539 0.60152 0.0
H658 H 0.10394 0.16371 0.5159 0.0
H659 H 0.09233 0.06939 0.52127 0.0
H660 H 0.0736 0.053 0.47823 0.0
H661 H 0.06093 0.06271 0.53559 0.0
H662 H 0.02659 0.0861 0.49027 0.0
H663 H 0.03887 0.07605 0.43248 0.0
H664 H 0.03439 0.10808 0.44371 0.0
H665 H 0.11899 0.15135 0.4347 0.0
H666 H 0.13433 0.12888 0.36282 0.0
H667 H 0.08516 0.06919 0.39615 0.0
C668 C 0.05926 0.11394 0.56541 0.0
C669 C 0.06755 0.13267 0.59627 0.0
C670 C 0.08305 0.15107 0.57782 0.0
C671 C 0.0911 0.15032 0.52932 0.0
C672 C 0.08356 0.13093 0.50025 0.0
C673 C 0.0679 0.1131 0.51748 0.0
C674 C 0.06581 0.09216 0.4819 0.0
C675 C 0.07365 0.06791 0.50569 0.0
C676 C 0.03987 0.09052 0.46083 0.0
C677 C 0.08379 0.10037 0.44345 0.0
C678 C 0.09326 0.12309 0.45396 0.0
C679 C 0.1114 0.13376 0.42548 0.0
C680 C 0.12009 0.12083 0.38507 0.0
C681 C 0.11093 0.09735 0.37441 0.0
C682 C 0.09245 0.08712 0.40369 0.0
H683 H 0.94043 0.62917 0.69788 0.0
H684 H 0.89407 0.58987 0.59644 0.0
H685 H 0.86438 0.58228 0.66282 0.0
H686 H 0.93189 0.59209 0.79952 0.0
H687 H 0.9312 0.61647 0.84361 0.0
H688 H 0.94767 0.62025 0.78721 0.0
H689 H 0.92259 0.6592 0.76807 0.0
H690 H 0.90589 0.6554 0.82443 0.0
H691 H 0.88976 0.65764 0.76705 0.0
H692 H 0.84346 0.57381 0.7418 0.0
H693 H 0.83117 0.56734 0.82813 0.0
H694 H 0.88852 0.6161 0.87583 0.0
C695 C 0.92392 0.61914 0.68977 0.0
C696 C 0.91945 0.60988 0.64263 0.0
C697 C 0.89765 0.59705 0.63268 0.0
C698 C 0.88071 0.59275 0.66994 0.0
C699 C 0.88566 0.60204 0.71628 0.0
C700 C 0.90654 0.61527 0.72616 0.0
C701 C 0.9079 0.62254 0.77938 0.0
C702 C 0.93102 0.61221 0.80385 0.0
C703 C 0.90644 0.65035 0.78504 0.0
C704 C 0.88511 0.61032 0.79835 0.0
C705 C 0.87249 0.59863 0.76136 0.0
C706 C 0.85266 0.58349 0.77094 0.0
C707 C 0.84586 0.57988 0.81979 0.0
C708 C 0.85863 0.59172 0.85782 0.0
C709 C 0.87801 0.60758 0.84697 0.0
H710 H 0.44883 0.39777 0.09586 0.0
H711 H 0.40163 0.3369 0.13064 0.0
H712 H 0.38514 0.33775 0.04641 0.0
H713 H 0.40624 0.43038 0.03951 0.0
H714 H 0.42509 0.44377 -0.00743 0.0
H715 H 0.43854 0.43415 0.04934 0.0
H716 H 0.46886 0.40633 0.00287 0.0
H717 H 0.45582 0.41625 0.94554 0.0
H718 H 0.45745 0.38423 0.95985 0.0
H719 H 0.36867 0.34985 0.9654 0.0
H720 H 0.35311 0.37257 0.89361 0.0
H721 H 0.40924 0.42723 0.91467 0.0
C722 C 0.43586 0.38395 0.08487 0.0
C723 C 0.4266 0.36711 0.11895 0.0
C724 C 0.40895 0.34982 0.10444 0.0
C725 C 0.39963 0.35009 0.05675 0.0
C726 C 0.40817 0.36782 0.02449 0.0
C727 C 0.42602 0.38436 0.03783 0.0
C728 C 0.42904 0.40413 -0.00025 0.0
C729 C 0.42443 0.42959 0.02162 0.0
C730 C 0.45429 0.40263 0.97556 0.0
C731 C 0.40916 0.39693 0.96444 0.0
C732 C 0.39782 0.37556 0.97848 0.0
C733 C 0.37771 0.36633 0.95343 0.0
C734 C 0.36891 0.3794 0.91303 0.0
C735 C 0.37995 0.40162 0.89908 0.0
C736 C 0.40046 0.41027 0.92472 0.0
H737 H 0.66437 0.86579 0.36584 0.0
H738 H 0.60254 0.8455 0.45457 0.0
H739 H 0.58186 0.82908 0.38215 0.0
H740 H 0.63914 0.89173 0.28438 0.0
H741 H 0.65463 0.88205 0.22951 0.0
H742 H 0.66985 0.87992 0.28709 0.0
H743 H 0.67711 0.83382 0.27534 0.0
H744 H 0.66255 0.83582 0.21618 0.0
H745 H 0.65188 0.81408 0.26082 0.0
H746 H 0.56181 0.83454 0.30406 0.0
H747 H 0.54742 0.85237 0.22624 0.0
H748 H 0.62211 0.86659 0.18366 0.0
C749 C 0.64736 0.85601 0.37004 0.0
C750 C 0.635 0.85662 0.41502 0.0
C751 C 0.61242 0.84466 0.4203 0.0
C752 C 0.6005 0.83536 0.37913 0.0
C753 C 0.61181 0.8377 0.33359 0.0
C754 C 0.63542 0.84656 0.32904 0.0
C755 C 0.64159 0.85196 0.27606 0.0
C756 C 0.65184 0.87795 0.26895 0.0
C757 C 0.65932 0.83277 0.25591 0.0
C758 C 0.61667 0.84909 0.25328 0.0
C759 C 0.59993 0.8399 0.28646 0.0
C760 C 0.5749 0.84061 0.27703 0.0
C761 C 0.56683 0.85117 0.2332 0.0
C762 C 0.58378 0.86083 0.19946 0.0
C763 C 0.60892 0.85889 0.2088 0.0
H764 H 0.08206 0.39065 0.67124 0.0
H765 H 0.12194 0.32286 0.68658 0.0
H766 H 0.141 0.33845 0.763 0.0
H767 H 0.131 0.43027 0.71695 0.0
H768 H 0.10961 0.45045 0.74629 0.0
H769 H 0.10095 0.4344 0.69145 0.0
H770 H 0.06349 0.41624 0.73657 0.0
H771 H 0.07196 0.43223 0.79133 0.0
H772 H 0.06799 0.39965 0.79293 0.0
H773 H 0.15128 0.35992 0.84207 0.0
H774 H 0.15324 0.38578 0.916 0.0
H775 H 0.10834 0.44014 0.84381 0.0
C776 C 0.09485 0.37908 0.69065 0.0
C777 C 0.10033 0.35546 0.6741 0.0
C778 C 0.1175 0.34097 0.69944 0.0
C779 C 0.12843 0.34972 0.74245 0.0
C780 C 0.12235 0.37312 0.75817 0.0
C781 C 0.10619 0.38767 0.73257 0.0
C782 C 0.10187 0.41173 0.75756 0.0
C783 C 0.11144 0.43296 0.72619 0.0
C784 C 0.07473 0.41514 0.77037 0.0
C785 C 0.11723 0.40809 0.80271 0.0
C786 C 0.1291 0.38583 0.80233 0.0
C787 C 0.14251 0.37758 0.84236 0.0
C788 C 0.14342 0.3923 0.88413 0.0
C789 C 0.13101 0.41492 0.88519 0.0
C790 C 0.11832 0.42311 0.84357 0.0
H791 H 0.53811 0.61915 0.08194 0.0
H792 H 0.58658 0.68109 0.09414 0.0
H793 H 0.59434 0.67952 0.005 0.0
H794 H 0.57529 0.58656 0.01219 0.0
H795 H 0.55255 0.57202 0.97458 0.0
H796 H 0.54468 0.58237 0.03479 0.0
H797 H 0.50968 0.60865 -0.00118 0.0
H798 H 0.51731 0.59814 0.93818 0.0
H799 H 0.51615 0.63033 0.95087 0.0
H800 H 0.60246 0.66699 0.91991 0.0
H801 H 0.61303 0.6427 0.84698 0.0
H802 H 0.56182 0.58687 0.8923 0.0
C803 C 0.54949 0.63299 0.06526 0.0
C804 C 0.56153 0.65044 0.09406 0.0
C805 C 0.57713 0.66772 0.07202 0.0
C806 C 0.58143 0.66708 0.02155 0.0
C807 C 0.57008 0.64894 -0.00586 0.0
C808 C 0.55443 0.63214 0.01526 0.0
C809 C 0.54839 0.61169 0.98036 0.0
C810 C 0.55568 0.58672 0.00176 0.0
C811 C 0.52127 0.61225 0.96621 0.0
C812 C 0.56431 0.61875 0.93756 0.0
C813 C 0.5759 0.64077 0.9454 0.0
C814 C 0.59313 0.64999 0.91283 0.0
C815 C 0.59909 0.63606 0.87171 0.0
C816 C 0.58826 0.61297 0.86453 0.0
C817 C 0.57026 0.60453 0.89712 0.0
H818 H 0.4106 0.06174 0.36534 0.0
H819 H 0.35638 0.11176 0.42218 0.0
H820 H 0.364 0.13972 0.35266 0.0
H821 H 0.45278 0.10888 0.32367 0.0
H822 H 0.46194 0.09178 0.27049 0.0
H823 H 0.45252 0.07606 0.3253 0.0
H824 H 0.41978 0.05249 0.27576 0.0
H825 H 0.42925 0.06797 0.22085 0.0
H826 H 0.39782 0.06928 0.23992 0.0
H827 H 0.37468 0.15983 0.27319 0.0
H828 H 0.38946 0.17182 0.19078 0.0
H829 H 0.43928 0.11048 0.19125 0.0
C830 C 0.40036 0.07857 0.36298 0.0
C831 C 0.38279 0.08468 0.39834 0.0
C832 C 0.3699 0.10694 0.39496 0.0
C833 C 0.37414 0.12288 0.35588 0.0
C834 C 0.3917 0.1164 0.32152 0.0
C835 C 0.40479 0.09493 0.32501 0.0
C836 C 0.42254 0.09217 0.28322 0.0
C837 C 0.44901 0.09224 0.3018 0.0
C838 C 0.417 0.06912 0.25317 0.0
C839 C 0.41678 0.11505 0.2548 0.0
C840 C 0.39894 0.12881 0.27738 0.0
C841 C 0.38904 0.14955 0.25558 0.0
C842 C 0.39743 0.15618 0.209 0.0
C843 C 0.41567 0.14223 0.18567 0.0
C844 C 0.42578 0.12178 0.2092 0.0
H845 H 0.90016 0.87335 0.63016 0.0
H846 H 0.9564 0.92646 0.66235 0.0
H847 H 0.94417 0.95045 0.58976 0.0
H848 H 0.91066 0.87237 0.50482 0.0
H849 H 0.87921 0.86848 0.48725 0.0
H850 H 0.8895 0.85774 0.54597 0.0
H851 H 0.85622 0.88365 0.58873 0.0
H852 H 0.84586 0.89455 0.52996 0.0
H853 H 0.8546 0.91592 0.57682 0.0
H854 H 0.92797 0.96702 0.51159 0.0
H855 H 0.91196 0.97276 0.42777 0.0
H856 H 0.86828 0.90734 0.44366 0.0
C857 C 0.90949 0.8903 0.62228 0.0
C858 C 0.92901 0.89828 0.65156 0.0
C859 C 0.94137 0.92014 0.63996 0.0
C860 C 0.93442 0.93397 0.59923 0.0
C861 C 0.91526 0.92548 0.57051 0.0
C862 C 0.90311 0.90403 0.58117 0.0
C863 C 0.88527 0.89741 0.54116 0.0
C864 C 0.89155 0.87254 0.51846 0.0
C865 C 0.85892 0.89792 0.56033 0.0
C866 C 0.8899 0.91805 0.50568 0.0
C867 C 0.90673 0.93441 0.52392 0.0
C868 C 0.91462 0.95447 0.49697 0.0
C869 C 0.90546 0.95758 0.44953 0.0
C870 C 0.88907 0.94038 0.42953 0.0
C871 C 0.88086 0.92069 0.45827 0.0
H872 H 0.09871 0.1526 0.89303 0.0
H873 H 0.15572 0.10673 0.83299 0.0
H874 H 0.17366 0.10219 0.91498 0.0
H875 H 0.13824 0.18062 -0.00447 0.0
H876 H 0.11242 0.18043 0.03635 0.0
H877 H 0.10796 0.18538 0.97163 0.0
H878 H 0.07733 0.14947 0.96953 0.0
H879 H 0.08185 0.14422 0.03369 0.0
H880 H 0.08695 0.11986 -0.00926 0.0
H881 H 0.17827 0.09325 0.00374 0.0
H882 H 0.17156 0.08464 0.09173 0.0
H883 H 0.11371 0.13856 0.09391 0.0
C884 C 0.11554 0.14246 0.89686 0.0
C885 C 0.12569 0.12994 0.85679 0.0
C886 C 0.1476 0.11658 0.86318 0.0
C887 C 0.15802 0.11392 0.90968 0.0
C888 C 0.14671 0.12528 0.9491 0.0
C889 C 0.12633 0.13989 0.94295 0.0
C890 C 0.11584 0.14758 -0.00835 0.0
C891 C 0.11881 0.17514 -0.00077 0.0
C892 C 0.08893 0.13979 -0.00334 0.0
C893 C 0.13221 0.13337 0.02589 0.0
C894 C 0.15019 0.12092 0.00089 0.0
C895 C 0.16491 0.10362 0.02409 0.0
C896 C 0.16088 0.0987 0.07392 0.0
C897 C 0.14232 0.11112 0.09972 0.0
C898 C 0.12847 0.12919 0.07555 0.0
H899 H 0.89961 0.59179 0.36168 0.0
H900 H 0.9524 0.65073 0.36184 0.0
H901 H 0.93855 0.66286 0.2789 0.0
H902 H 0.90803 0.57426 0.24144 0.0
H903 H 0.87647 0.56677 0.2308 0.0
H904 H 0.8888 0.56497 0.29166 0.0
H905 H 0.85501 0.59429 0.32234 0.0
H906 H 0.84277 0.59643 0.26119 0.0
H907 H 0.85138 0.62366 0.29364 0.0
H908 H 0.92123 0.66592 0.19339 0.0
H909 H 0.90502 0.65766 0.11085 0.0
H910 H 0.86342 0.59685 0.16886 0.0
C911 C 0.90819 0.60747 0.34473 0.0
C912 C 0.92712 0.62034 0.36831 0.0
C913 C 0.93788 0.6406 0.34447 0.0
C914 C 0.92997 0.64771 0.29759 0.0
C915 C 0.91119 0.63453 0.27554 0.0
C916 C 0.90051 0.61479 0.29843 0.0
C917 C 0.88217 0.60228 0.26577 0.0
C918 C 0.88932 0.5755 0.25688 0.0
C919 C 0.8563 0.6043 0.28701 0.0
C920 C 0.88481 0.61745 0.21994 0.0
C921 C 0.90125 0.63628 0.22652 0.0
C922 C 0.9081 0.65147 0.18804 0.0
C923 C 0.89875 0.64661 0.14127 0.0
C924 C 0.88294 0.62655 0.13337 0.0
C925 C 0.87516 0.6125 0.17372 0.0
H926 H 0.3675 0.36697 0.61195 0.0
H927 H 0.32164 0.43138 0.6126 0.0
H928 H 0.31991 0.43019 0.52218 0.0
H929 H 0.40434 0.3863 0.52444 0.0
H930 H 0.40989 0.35738 0.49537 0.0
H931 H 0.40156 0.35837 0.55885 0.0
H932 H 0.36481 0.32989 0.54246 0.0
H933 H 0.37326 0.32842 0.47871 0.0
H934 H 0.34293 0.3378 0.49574 0.0
H935 H 0.32968 0.4268 0.43337 0.0
H936 H 0.35087 0.42259 0.35433 0.0
H937 H 0.3928 0.3621 0.41285 0.0
C938 C 0.35619 0.38025 0.59335 0.0
C939 C 0.34454 0.39918 0.61935 0.0
C940 C 0.33053 0.41659 0.59343 0.0
C941 C 0.32939 0.41599 0.54208 0.0
C942 C 0.34232 0.39786 0.51747 0.0
C943 C 0.35534 0.38019 0.54238 0.0
C944 C 0.37118 0.36539 0.50818 0.0
C945 C 0.39833 0.36699 0.52258 0.0
C946 C 0.36252 0.3388 0.50615 0.0
C947 C 0.36618 0.37841 0.46048 0.0
C948 C 0.3489 0.39654 0.46624 0.0
C949 C 0.34284 0.41234 0.4282 0.0
C950 C 0.35507 0.40985 0.38348 0.0
C951 C 0.37354 0.39203 0.37756 0.0
C952 C 0.37869 0.3758 0.41626 0.0
H953 H 0.61155 0.86366 0.70619 0.0
H954 H 0.66134 0.92407 0.68302 0.0
H955 H 0.664 0.93001 0.77272 0.0
H956 H 0.57774 0.89101 0.79626 0.0
H957 H 0.57249 0.86371 0.83148 0.0
H958 H 0.57771 0.86169 0.76664 0.0
H959 H 0.61375 0.83201 0.78162 0.0
H960 H 0.60854 0.83379 0.8467 0.0
H961 H 0.63819 0.84084 0.82201 0.0
H962 H 0.65825 0.93138 0.86414 0.0
H963 H 0.64306 0.92968 0.94918 0.0
H964 H 0.59554 0.86954 0.91031 0.0
C965 C 0.62352 0.8778 0.71982 0.0
C966 C 0.63639 0.89331 0.68767 0.0
C967 C 0.65141 0.91191 0.70708 0.0
C968 C 0.6531 0.91533 0.7579 0.0
C969 C 0.63968 0.89999 0.78846 0.0
C970 C 0.62519 0.8816 0.77005 0.0
C971 C 0.61062 0.86918 0.80985 0.0
C972 C 0.58302 0.87156 0.80048 0.0
C973 C 0.61824 0.84237 0.81537 0.0
C974 C 0.61852 0.884 0.85351 0.0
C975 C 0.6357 0.90132 0.8407 0.0
C976 C 0.645 0.91774 0.87467 0.0
C977 C 0.63625 0.91662 0.92283 0.0
C978 C 0.61809 0.89949 0.93615 0.0
C979 C 0.60941 0.88282 0.90112 0.0
H980 H 0.08976 0.34438 0.36485 0.0
H981 H 0.16351 0.36158 0.41134 0.0
H982 H 0.17292 0.37664 0.32864 0.0
H983 H 0.10656 0.32692 0.23492 0.0
H984 H 0.07878 0.34017 0.2117 0.0
H985 H 0.07935 0.3267 0.27196 0.0
H986 H 0.0631 0.36718 0.30802 0.0
H987 H 0.06316 0.38104 0.24832 0.0
H988 H 0.07991 0.39494 0.29772 0.0
H989 H 0.17165 0.39766 0.24714 0.0
H990 H 0.16194 0.41588 0.16623 0.0
H991 H 0.09005 0.38312 0.17186 0.0
C992 C 0.10817 0.35038 0.35719 0.0
C993 C 0.12578 0.35197 0.39476 0.0
C994 C 0.14963 0.36023 0.38326 0.0
C995 C 0.15518 0.36891 0.33636 0.0
C996 C 0.13689 0.36868 0.3011 0.0
C997 C 0.1141 0.35891 0.31042 0.0
C998 C 0.09721 0.36228 0.26714 0.0
C999 C 0.09006 0.33754 0.24512 0.0
C1000 C 0.07452 0.37725 0.28118 0.0
C1001 C 0.11372 0.37639 0.23307 0.0
C1002 C 0.13653 0.37997 0.25324 0.0
C1003 C 0.15409 0.39442 0.2303 0.0
C1004 C 0.14835 0.40493 0.18481 0.0
C1005 C 0.12539 0.40065 0.16295 0.0
C1006 C 0.10791 0.3863 0.18755 0.0
H1007 H 0.61578 0.6371 0.58682 0.0
H1008 H 0.65138 0.56661 0.58687 0.0
H1009 H 0.66191 0.57226 0.4994 0.0
H1010 H 0.5856 0.62974 0.48452 0.0
H1011 H 0.58748 0.6606 0.46212 0.0
H1012 H 0.58972 0.65473 0.5265 0.0
H1013 H 0.63142 0.6769 0.52949 0.0
H1014 H 0.62924 0.68302 0.46471 0.0
H1015 H 0.65561 0.66755 0.48899 0.0
H1016 H 0.66 0.58128 0.40965 0.0
H1017 H 0.64452 0.59152 0.32737 0.0
H1018 H 0.60888 0.65556 0.3863 0.0
C1019 C 0.62655 0.62319 0.56892 0.0
C1020 C 0.63271 0.60139 0.59339 0.0
C1021 C 0.64666 0.58354 0.56879 0.0
C1022 C 0.65278 0.58667 0.51918 0.0
C1023 C 0.64515 0.60789 0.49529 0.0
C1024 C 0.63257 0.626 0.51972 0.0
C1025 C 0.62265 0.64501 0.48489 0.0
C1026 C 0.59473 0.64763 0.4898 0.0
C1027 C 0.63551 0.66957 0.49247 0.0
C1028 C 0.62977 0.63378 0.43659 0.0
C1029 C 0.64356 0.61289 0.44321 0.0
C1030 C 0.64977 0.59792 0.404 0.0
C1031 C 0.64086 0.60388 0.35734 0.0
C1032 C 0.62543 0.62433 0.35062 0.0
C1033 C 0.62078 0.63995 0.39038 0.0
H1034 H 0.40655 0.10593 0.68031 0.0
H1035 H 0.34119 0.06135 0.68506 0.0
H1036 H 0.33196 0.07758 0.76768 0.0
H1037 H 0.42428 0.09664 0.80037 0.0
H1038 H 0.43596 0.12702 0.80892 0.0
H1039 H 0.43542 0.11388 0.74875 0.0
H1040 H 0.41039 0.15085 0.71722 0.0
H1041 H 0.41056 0.16393 0.77773 0.0
H1042 H 0.38204 0.15861 0.74671 0.0
H1043 H 0.33198 0.09631 0.85195 0.0
H1044 H 0.34327 0.11205 0.93329 0.0
H1045 H 0.40863 0.14433 0.87147 0.0
C1046 C 0.39008 0.09968 0.69825 0.0
C1047 C 0.37453 0.08238 0.67614 0.0
C1048 C 0.35337 0.07458 0.70133 0.0
C1049 C 0.34788 0.08388 0.74798 0.0
C1050 C 0.36364 0.10105 0.76846 0.0
C1051 C 0.38436 0.10875 0.74436 0.0
C1052 C 0.39957 0.12564 0.77554 0.0
C1053 C 0.42531 0.11516 0.7839 0.0
C1054 C 0.40069 0.15128 0.75294 0.0
C1055 C 0.38469 0.12554 0.82202 0.0
C1056 C 0.36375 0.11171 0.81691 0.0
C1057 C 0.34815 0.1074 0.85616 0.0
C1058 C 0.35474 0.11646 0.90223 0.0
C1059 C 0.37689 0.12941 0.90874 0.0
C1060 C 0.39143 0.13485 0.8676 0.0
H1061 H 0.85671 0.90314 0.12973 0.0
H1062 H 0.9014 0.8457 0.19215 0.0
H1063 H 0.90612 0.82749 0.11046 0.0
H1064 H 0.82885 0.86457 0.02624 0.0
H1065 H 0.83013 0.89032 -0.01473 0.0
H1066 H 0.8247 0.89495 0.04973 0.0
H1067 H 0.86147 0.92451 0.0532 0.0
H1068 H 0.86717 0.91983 -0.01073 0.0
H1069 H 0.89102 0.91407 0.03327 0.0
H1070 H 0.91465 0.82172 0.0218 0.0
H1071 H 0.92402 0.82773 0.9341 0.0
H1072 H 0.87267 0.88783 0.92909 0.0
C1073 C 0.86659 0.88615 0.12658 0.0
C1074 C 0.87872 0.87593 0.16732 0.0
C1075 C 0.89189 0.85391 0.16149 0.0
C1076 C 0.89462 0.84333 0.11517 0.0
C1077 C 0.88367 0.8547 0.07517 0.0
C1078 C 0.86944 0.87536 0.08057 0.0
C1079 C 0.86249 0.88601 0.03137 0.0
C1080 C 0.8349 0.88382 0.02264 0.0
C1081 C 0.87107 0.91265 0.02653 0.0
C1082 C 0.87656 0.86927 -0.00229 0.0
C1083 C 0.88824 0.85098 0.02347 0.0
C1084 C 0.90497 0.83544 0.00096 0.0
C1085 C 0.91029 0.83906 0.95117 0.0
C1086 C 0.89897 0.85813 0.92461 0.0
C1087 C 0.88129 0.87277 0.94802 0.0
loop_
_geom_bond_atom_site_label_1
_geom_bond_atom_site_label_2
_geom_bond_distance
_geom_bond_site_symmetry_2
_ccdc_geom_bond_type
C0 O1 1.306 . S
C0 O3 1.160 . S
O1 C0 1.306 . S
O1 Cd2 2.228 . S
Cd2 O1 2.228 . S
Cd2 O6 2.273 . S
Cd2 O10 2.277 . S
O3 C0 1.160 . S
O3 Cd4 2.203 . S
Cd4 O3 2.203 . S
Cd4 O6 2.411 . S
Cd4 O7 2.333 . S
Cd4 O8 2.352 . S
Cd4 O12 2.277 . S
Cd4 O13 2.356 . S
C5 O10 1.209 . S
C5 O12 1.226 . S
O6 Cd2 2.273 . S
O6 Cd4 2.411 . S
O6 C9 1.320 . S
O7 Cd4 2.333 . S
O7 C9 1.214 . S
O8 Cd4 2.352 . S
O8 C11 1.258 . S
C9 O6 1.320 . S
C9 O7 1.214 . S
O10 Cd2 2.277 . S
O10 C5 1.209 . S
C11 O8 1.258 . S
C11 O13 1.282 . S
O12 Cd4 2.277 . S
O12 C5 1.226 . S
O13 Cd4 2.356 . S
O13 C11 1.282 . S
C14 O15 1.306 . S
C14 O17 1.160 . S
O15 C14 1.306 . S
O15 Cd16 2.228 . S
Cd16 O15 2.228 . S
Cd16 O20 2.273 . S
Cd16 O24 2.277 . S
O17 C14 1.160 . S
O17 Cd18 2.203 . S
Cd18 O17 2.203 . S
Cd18 O20 2.411 . S
Cd18 O21 2.333 . S
Cd18 O22 2.352 . S
Cd18 O26 2.277 . S
Cd18 O27 2.356 . S
C19 O24 1.209 . S
C19 O26 1.226 . S
O20 Cd16 2.273 . S
O20 Cd18 2.411 . S
O20 C23 1.320 . S
O21 Cd18 2.333 . S
O21 C23 1.214 . S
O22 Cd18 2.352 . S
O22 C25 1.258 . S
C23 O20 1.320 . S
C23 O21 1.214 . S
O24 Cd16 2.277 . S
O24 C19 1.209 . S
C25 O22 1.258 . S
C25 O27 1.282 . S
O26 Cd18 2.277 . S
O26 C19 1.226 . S
O27 Cd18 2.356 . S
O27 C25 1.282 . S
C28 O29 1.306 . S
C28 O31 1.160 . S
O29 C28 1.306 . S
O29 Cd30 2.228 . S
Cd30 O29 2.228 . S
Cd30 O34 2.273 . S
Cd30 O38 2.277 . S
O31 C28 1.160 . S
O31 Cd32 2.203 . S
Cd32 O31 2.203 . S
Cd32 O34 2.411 . S
Cd32 O35 2.333 . S
Cd32 O36 2.352 . S
Cd32 O40 2.277 . S
Cd32 O41 2.356 . S
C33 O38 1.209 . S
C33 O40 1.226 . S
O34 Cd30 2.273 . S
O34 Cd32 2.411 . S
O34 C37 1.320 . S
O35 Cd32 2.333 . S
O35 C37 1.214 . S
O36 Cd32 2.352 . S
O36 C39 1.258 . S
C37 O34 1.320 . S
C37 O35 1.214 . S
O38 Cd30 2.277 . S
O38 C33 1.209 . S
C39 O36 1.258 . S
C39 O41 1.282 . S
O40 Cd32 2.277 . S
O40 C33 1.226 . S
O41 Cd32 2.356 . S
O41 C39 1.282 . S
C42 O43 1.306 . S
C42 O45 1.160 . S
O43 C42 1.306 . S
O43 Cd44 2.228 1_556 S
Cd44 O43 2.228 1_554 S
Cd44 O48 2.273 . S
Cd44 O52 2.277 . S
O45 C42 1.160 . S
O45 Cd46 2.203 1_556 S
Cd46 O45 2.203 1_554 S
Cd46 O48 2.411 . S
Cd46 O49 2.333 . S
Cd46 O50 2.352 . S
Cd46 O54 2.277 . S
Cd46 O55 2.356 . S
C47 O52 1.209 . S
C47 O54 1.226 . S
O48 Cd44 2.273 . S
O48 Cd46 2.411 . S
O48 C51 1.320 . S
O49 Cd46 2.333 . S
O49 C51 1.214 . S
O50 Cd46 2.352 . S
O50 C53 1.258 . S
C51 O48 1.320 . S
C51 O49 1.214 . S
O52 Cd44 2.277 . S
O52 C47 1.209 . S
C53 O50 1.258 . S
C53 O55 1.282 . S
O54 Cd46 2.277 . S
O54 C47 1.226 . S
O55 Cd46 2.356 . S
O55 C53 1.282 . S
C56 O57 1.306 . S
C56 O59 1.160 . S
O57 C56 1.306 . S
O57 Cd58 2.228 . S
Cd58 O57 2.228 . S
Cd58 O62 2.273 1_554 S
Cd58 O66 2.277 . S
O59 C56 1.160 . S
O59 Cd60 2.203 . S
Cd60 O59 2.203 . S
Cd60 O62 2.411 1_554 S
Cd60 O63 2.333 1_554 S
Cd60 O64 2.352 . S
Cd60 O68 2.277 . S
Cd60 O69 2.356 1_554 S
C61 O66 1.209 . S
C61 O68 1.226 . S
O62 Cd58 2.273 1_556 S
O62 Cd60 2.411 1_556 S
O62 C65 1.320 . S
O63 Cd60 2.333 1_556 S
O63 C65 1.214 . S
O64 Cd60 2.352 . S
O64 C67 1.257 1_554 S
C65 O62 1.320 . S
C65 O63 1.214 . S
O66 Cd58 2.277 . S
O66 C61 1.209 . S
C67 O64 1.257 1_556 S
C67 O69 1.282 . S
O68 Cd60 2.277 . S
O68 C61 1.226 . S
O69 Cd60 2.356 1_556 S
O69 C67 1.282 . S
C70 O71 1.306 . S
C70 O73 1.160 . S
O71 C70 1.306 . S
O71 Cd72 2.228 . S
Cd72 O71 2.228 . S
Cd72 O76 2.273 . S
Cd72 O80 2.277 . S
O73 C70 1.160 . S
O73 Cd74 2.203 . S
Cd74 O73 2.203 . S
Cd74 O76 2.411 . S
Cd74 O77 2.333 . S
Cd74 O78 2.352 . S
Cd74 O82 2.277 . S
Cd74 O83 2.356 . S
C75 O80 1.209 . S
C75 O82 1.226 . S
O76 Cd72 2.273 . S
O76 Cd74 2.411 . S
O76 C79 1.320 . S
O77 Cd74 2.333 . S
O77 C79 1.214 . S
O78 Cd74 2.352 . S
O78 C81 1.258 . S
C79 O76 1.320 . S
C79 O77 1.214 . S
O80 Cd72 2.277 . S
O80 C75 1.209 . S
C81 O78 1.258 . S
C81 O83 1.282 . S
O82 Cd74 2.277 . S
O82 C75 1.226 . S
O83 Cd74 2.356 . S
O83 C81 1.282 . S
C84 O85 1.306 . S
C84 O87 1.160 . S
O85 C84 1.306 . S
O85 Cd86 2.228 . S
Cd86 O85 2.228 . S
Cd86 O90 2.273 . S
Cd86 O94 2.277 . S
O87 C84 1.160 . S
O87 Cd88 2.203 . S
Cd88 O87 2.203 . S
Cd88 O90 2.411 . S
Cd88 O91 2.333 . S
Cd88 O92 2.352 . S
Cd88 O96 2.277 . S
Cd88 O97 2.356 . S
C89 O94 1.209 . S
C89 O96 1.226 . S
O90 Cd86 2.273 . S
O90 Cd88 2.411 . S
O90 C93 1.320 . S
O91 Cd88 2.333 . S
O91 C93 1.214 . S
O92 Cd88 2.352 . S
O92 C95 1.258 . S
C93 O90 1.320 . S
C93 O91 1.214 . S
O94 Cd86 2.277 . S
O94 C89 1.209 . S
C95 O92 1.258 . S
C95 O97 1.282 . S
O96 Cd88 2.277 . S
O96 C89 1.226 . S
O97 Cd88 2.356 . S
O97 C95 1.282 . S
C98 O99 1.306 . S
C98 O101 1.160 . S
O99 C98 1.306 . S
O99 Cd100 2.228 . S
Cd100 O99 2.228 . S
Cd100 O104 2.273 . S
Cd100 O108 2.277 . S
O101 C98 1.160 . S
O101 Cd102 2.203 . S
Cd102 O101 2.203 . S
Cd102 O104 2.411 . S
Cd102 O105 2.333 . S
Cd102 O106 2.352 . S
Cd102 O110 2.277 . S
Cd102 O111 2.356 . S
C103 O108 1.209 . S
C103 O110 1.226 . S
O104 Cd100 2.273 . S
O104 Cd102 2.411 . S
O104 C107 1.320 . S
O105 Cd102 2.333 . S
O105 C107 1.214 . S
O106 Cd102 2.352 . S
O106 C109 1.258 . S
C107 O104 1.320 . S
C107 O105 1.214 . S
O108 Cd100 2.277 . S
O108 C103 1.209 . S
C109 O106 1.258 . S
C109 O111 1.282 . S
O110 Cd102 2.277 . S
O110 C103 1.226 . S
O111 Cd102 2.356 . S
O111 C109 1.282 . S
C112 O113 1.306 . S
C112 O115 1.160 . S
O113 C112 1.306 . S
O113 Cd114 2.228 . S
Cd114 O113 2.228 . S
Cd114 O118 2.273 . S
Cd114 O122 2.277 . S
O115 C112 1.160 . S
O115 Cd116 2.203 . S
Cd116 O115 2.203 . S
Cd116 O118 2.411 . S
Cd116 O119 2.333 . S
Cd116 O120 2.352 . S
Cd116 O124 2.277 . S
Cd116 O125 2.356 . S
C117 O122 1.209 . S
C117 O124 1.226 . S
O118 Cd114 2.273 . S
O118 Cd116 2.411 . S
O118 C121 1.320 . S
O119 Cd116 2.333 . S
O119 C121 1.214 . S
O120 Cd116 2.352 . S
O120 C123 1.258 . S
C121 O118 1.320 . S
C121 O119 1.214 . S
O122 Cd114 2.277 . S
O122 C117 1.209 . S
C123 O120 1.258 . S
C123 O125 1.282 . S
O124 Cd116 2.277 . S
O124 C117 1.226 . S
O125 Cd116 2.356 . S
O125 C123 1.282 . S
C126 O127 1.306 . S
C126 O129 1.160 . S
O127 C126 1.306 . S
O127 Cd128 2.228 1_556 S
Cd128 O127 2.228 1_554 S
Cd128 O132 2.273 . S
Cd128 O136 2.277 . S
O129 C126 1.160 . S
O129 Cd130 2.203 1_556 S
Cd130 O129 2.203 1_554 S
Cd130 O132 2.411 . S
Cd130 O133 2.333 . S
Cd130 O134 2.352 . S
Cd130 O138 2.277 . S
Cd130 O139 2.356 . S
C131 O136 1.209 . S
C131 O138 1.226 . S
O132 Cd128 2.273 . S
O132 Cd130 2.411 . S
O132 C135 1.320 . S
O133 Cd130 2.333 . S
O133 C135 1.214 . S
O134 Cd130 2.352 . S
O134 C137 1.258 . S
C135 O132 1.320 . S
C135 O133 1.214 . S
O136 Cd128 2.277 . S
O136 C131 1.209 . S
C137 O134 1.258 . S
C137 O139 1.282 . S
O138 Cd130 2.277 . S
O138 C131 1.226 . S
O139 Cd130 2.356 . S
O139 C137 1.282 . S
C140 O141 1.306 . S
C140 O143 1.160 . S
O141 C140 1.306 . S
O141 Cd142 2.228 . S
Cd142 O141 2.228 . S
Cd142 O146 2.273 . S
Cd142 O150 2.277 . S
O143 C140 1.160 . S
O143 Cd144 2.203 . S
Cd144 O143 2.203 . S
Cd144 O146 2.411 . S
Cd144 O147 2.333 . S
Cd144 O148 2.352 . S
Cd144 O152 2.277 . S
Cd144 O153 2.356 . S
C145 O150 1.209 . S
C145 O152 1.226 . S
O146 Cd142 2.273 . S
O146 Cd144 2.411 . S
O146 C149 1.320 . S
O147 Cd144 2.333 . S
O147 C149 1.214 . S
O148 Cd144 2.352 . S
O148 C151 1.258 . S
C149 O146 1.320 . S
C149 O147 1.214 . S
O150 Cd142 2.277 . S
O150 C145 1.209 . S
C151 O148 1.258 . S
C151 O153 1.282 . S
O152 Cd144 2.277 . S
O152 C145 1.226 . S
O153 Cd144 2.356 . S
O153 C151 1.282 . S
C154 O155 1.306 . S
C154 O157 1.160 . S
O155 C154 1.306 . S
O155 Cd156 2.228 . S
Cd156 O155 2.228 . S
Cd156 O160 2.273 . S
Cd156 O164 2.277 . S
O157 C154 1.160 . S
O157 Cd158 2.203 . S
Cd158 O157 2.203 . S
Cd158 O160 2.411 . S
Cd158 O161 2.333 . S
Cd158 O162 2.352 . S
Cd158 O166 2.277 . S
Cd158 O167 2.356 . S
C159 O164 1.209 . S
C159 O166 1.226 . S
O160 Cd156 2.273 . S
O160 Cd158 2.411 . S
O160 C163 1.320 . S
O161 Cd158 2.333 . S
O161 C163 1.214 . S
O162 Cd158 2.352 . S
O162 C165 1.258 . S
C163 O160 1.320 . S
C163 O161 1.214 . S
O164 Cd156 2.277 . S
O164 C159 1.209 . S
C165 O162 1.258 . S
C165 O167 1.282 . S
O166 Cd158 2.277 . S
O166 C159 1.226 . S
O167 Cd158 2.356 . S
O167 C165 1.282 . S
C168 O169 1.306 . S
C168 O171 1.160 . S
O169 C168 1.306 . S
O169 Cd170 2.228 . S
Cd170 O169 2.228 . S
Cd170 O174 2.273 . S
Cd170 O178 2.277 . S
O171 C168 1.160 . S
O171 Cd172 2.203 . S
Cd172 O171 2.203 . S
Cd172 O174 2.411 . S
Cd172 O175 2.333 . S
Cd172 O176 2.352 . S
Cd172 O180 2.277 . S
Cd172 O181 2.356 . S
C173 O178 1.209 . S
C173 O180 1.226 . S
O174 Cd170 2.273 . S
O174 Cd172 2.411 . S
O174 C177 1.320 . S
O175 Cd172 2.333 . S
O175 C177 1.214 . S
O176 Cd172 2.352 . S
O176 C179 1.258 . S
C177 O174 1.320 . S
C177 O175 1.214 . S
O178 Cd170 2.277 . S
O178 C173 1.209 . S
C179 O176 1.258 . S
C179 O181 1.282 . S
O180 Cd172 2.277 . S
O180 C173 1.226 . S
O181 Cd172 2.356 . S
O181 C179 1.282 . S
C182 O183 1.306 . S
C182 O185 1.160 . S
O183 C182 1.306 . S
O183 Cd184 2.228 . S
Cd184 O183 2.228 . S
Cd184 O188 2.273 . S
Cd184 O192 2.277 . S
O185 C182 1.160 . S
O185 Cd186 2.203 . S
Cd186 O185 2.203 . S
Cd186 O188 2.411 . S
Cd186 O189 2.333 . S
Cd186 O190 2.352 . S
Cd186 O194 2.277 . S
Cd186 O195 2.356 . S
C187 O192 1.209 . S
C187 O194 1.226 . S
O188 Cd184 2.273 . S
O188 Cd186 2.411 . S
O188 C191 1.320 . S
O189 Cd186 2.333 . S
O189 C191 1.214 . S
O190 Cd186 2.352 . S
O190 C193 1.258 . S
C191 O188 1.320 . S
C191 O189 1.214 . S
O192 Cd184 2.277 . S
O192 C187 1.209 . S
C193 O190 1.258 . S
C193 O195 1.282 . S
O194 Cd186 2.277 . S
O194 C187 1.226 . S
O195 Cd186 2.356 . S
O195 C193 1.282 . S
C196 O197 1.306 . S
C196 O199 1.160 . S
O197 C196 1.306 . S
O197 Cd198 2.228 . S
Cd198 O197 2.228 . S
Cd198 O202 2.273 1_554 S
Cd198 O206 2.277 . S
O199 C196 1.160 . S
O199 Cd200 2.203 . S
Cd200 O199 2.203 . S
Cd200 O202 2.411 1_554 S
Cd200 O203 2.333 1_554 S
Cd200 O204 2.352 . S
Cd200 O208 2.277 . S
Cd200 O209 2.356 1_554 S
C201 O206 1.209 . S
C201 O208 1.226 . S
O202 Cd198 2.273 1_556 S
O202 Cd200 2.411 1_556 S
O202 C205 1.320 . S
O203 Cd200 2.333 1_556 S
O203 C205 1.214 . S
O204 Cd200 2.352 . S
O204 C207 1.257 1_554 S
C205 O202 1.320 . S
C205 O203 1.214 . S
O206 Cd198 2.277 . S
O206 C201 1.209 . S
C207 O204 1.257 1_556 S
C207 O209 1.282 . S
O208 Cd200 2.277 . S
O208 C201 1.226 . S
O209 Cd200 2.356 1_556 S
O209 C207 1.282 . S
C210 O211 1.306 . S
C210 O213 1.160 . S
O211 C210 1.306 . S
O211 Cd212 2.228 . S
Cd212 O211 2.228 . S
Cd212 O216 2.273 . S
Cd212 O220 2.277 . S
O213 C210 1.160 . S
O213 Cd214 2.203 . S
Cd214 O213 2.203 . S
Cd214 O216 2.411 . S
Cd214 O217 2.333 . S
Cd214 O218 2.352 . S
Cd214 O222 2.277 . S
Cd214 O223 2.356 . S
C215 O220 1.209 . S
C215 O222 1.226 . S
O216 Cd212 2.273 . S
O216 Cd214 2.411 . S
O216 C219 1.320 . S
O217 Cd214 2.333 . S
O217 C219 1.214 . S
O218 Cd214 2.352 . S
O218 C221 1.258 . S
C219 O216 1.320 . S
C219 O217 1.214 . S
O220 Cd212 2.277 . S
O220 C215 1.209 . S
C221 O218 1.258 . S
C221 O223 1.282 . S
O222 Cd214 2.277 . S
O222 C215 1.226 . S
O223 Cd214 2.356 . S
O223 C221 1.282 . S
H224 C236 0.930 . S
H225 C238 0.930 . S
H226 C239 0.930 . S
H227 C243 0.959 . S
H228 C243 0.959 . S
H229 C243 0.961 . S
H230 C244 0.960 . S
H231 C244 0.961 . S
H232 C244 0.959 . S
H233 C247 0.929 . S
H234 C248 0.931 . S
H235 C250 0.930 . S
C236 H224 0.930 . S
C236 C237 1.399 . S
C236 C241 1.399 . S
C237 C236 1.399 . S
C237 C238 1.376 . S
C238 H225 0.930 . S
C238 C237 1.376 . S
C238 C239 1.388 . S
C239 H226 0.930 . S
C239 C238 1.388 . S
C239 C240 1.390 . S
C240 C239 1.390 . S
C240 C241 1.394 . S
C240 C246 1.465 . S
C241 C236 1.399 . S
C241 C240 1.394 . S
C241 C242 1.516 . S
C242 C241 1.516 . S
C242 C243 1.502 . S
C242 C244 1.561 . S
C242 C245 1.526 . S
C243 H227 0.959 . S
C243 H228 0.959 . S
C243 H229 0.961 . S
C243 C242 1.502 . S
C244 H230 0.960 . S
C244 H231 0.961 . S
C244 H232 0.959 . S
C244 C242 1.561 . S
C245 C242 1.526 . S
C245 C246 1.396 . S
C245 C250 1.390 . S
C246 C240 1.465 . S
C246 C245 1.396 . S
C246 C247 1.399 . S
C247 H233 0.929 . S
C247 C246 1.399 . S
C247 C248 1.385 . S
C248 H234 0.931 . S
C248 C247 1.385 . S
C248 C249 1.389 . S
C249 C248 1.389 . S
C249 C250 1.387 . S
C250 H235 0.930 . S
C250 C245 1.390 . S
C250 C249 1.387 . S
H251 C263 0.930 . S
H252 C265 0.930 . S
H253 C266 0.930 . S
H254 C270 0.959 . S
H255 C270 0.959 . S
H256 C270 0.961 . S
H257 C271 0.960 . S
H258 C271 0.961 . S
H259 C271 0.959 . S
H260 C274 0.929 . S
H261 C275 0.931 . S
H262 C277 0.930 . S
C263 H251 0.930 . S
C263 C264 1.399 . S
C263 C268 1.399 . S
C264 C263 1.399 . S
C264 C265 1.376 . S
C265 H252 0.930 . S
C265 C264 1.376 . S
C265 C266 1.388 . S
C266 H253 0.930 . S
C266 C265 1.388 . S
C266 C267 1.390 . S
C267 C266 1.390 . S
C267 C268 1.394 . S
C267 C273 1.465 . S
C268 C263 1.399 . S
C268 C267 1.394 . S
C268 C269 1.516 . S
C269 C268 1.516 . S
C269 C270 1.502 . S
C269 C271 1.561 . S
C269 C272 1.526 . S
C270 H254 0.959 . S
C270 H255 0.959 . S
C270 H256 0.961 . S
C270 C269 1.502 . S
C271 H257 0.960 . S
C271 H258 0.961 . S
C271 H259 0.959 . S
C271 C269 1.561 . S
C272 C269 1.526 . S
C272 C273 1.396 . S
C272 C277 1.390 . S
C273 C267 1.465 . S
C273 C272 1.396 . S
C273 C274 1.399 . S
C274 H260 0.929 . S
C274 C273 1.399 . S
C274 C275 1.385 . S
C275 H261 0.931 . S
C275 C274 1.385 . S
C275 C276 1.389 . S
C276 C275 1.389 . S
C276 C277 1.387 . S
C277 H262 0.930 . S
C277 C272 1.390 . S
C277 C276 1.387 . S
H278 C290 0.930 . S
H279 C292 0.930 . S
H280 C293 0.930 . S
H281 C297 0.959 . S
H282 C297 0.959 . S
H283 C297 0.961 . S
H284 C298 0.960 . S
H285 C298 0.961 . S
H286 C298 0.959 . S
H287 C301 0.929 . S
H288 C302 0.931 . S
H289 C304 0.930 . S
C290 H278 0.930 . S
C290 C291 1.399 . S
C290 C295 1.399 . S
C291 C290 1.399 . S
C291 C292 1.376 . S
C292 H279 0.930 . S
C292 C291 1.376 . S
C292 C293 1.388 . S
C293 H280 0.930 . S
C293 C292 1.388 . S
C293 C294 1.390 . S
C294 C293 1.390 . S
C294 C295 1.394 . S
C294 C300 1.465 . S
C295 C290 1.399 . S
C295 C294 1.394 . S
C295 C296 1.516 . S
C296 C295 1.516 . S
C296 C297 1.502 . S
C296 C298 1.561 . S
C296 C299 1.526 . S
C297 H281 0.959 . S
C297 H282 0.959 . S
C297 H283 0.961 . S
C297 C296 1.502 . S
C298 H284 0.960 . S
C298 H285 0.961 . S
C298 H286 0.959 . S
C298 C296 1.561 . S
C299 C296 1.526 . S
C299 C300 1.396 . S
C299 C304 1.390 . S
C300 C294 1.465 . S
C300 C299 1.396 . S
C300 C301 1.399 . S
C301 H287 0.929 . S
C301 C300 1.399 . S
C301 C302 1.385 . S
C302 H288 0.931 . S
C302 C301 1.385 . S
C302 C303 1.389 . S
C303 C302 1.389 . S
C303 C304 1.387 . S
C304 H289 0.930 . S
C304 C299 1.390 . S
C304 C303 1.387 . S
H305 C317 0.930 . S
H306 C319 0.930 . S
H307 C320 0.930 . S
H308 C324 0.959 . S
H309 C324 0.959 . S
H310 C324 0.961 . S
H311 C325 0.960 . S
H312 C325 0.961 . S
H313 C325 0.959 . S
H314 C328 0.929 . S
H315 C329 0.931 . S
H316 C331 0.930 . S
C317 H305 0.930 . S
C317 C318 1.399 . S
C317 C322 1.399 . S
C318 C317 1.399 . S
C318 C319 1.376 . S
C319 H306 0.930 . S
C319 C318 1.376 . S
C319 C320 1.388 . S
C320 H307 0.930 . S
C320 C319 1.388 . S
C320 C321 1.390 . S
C321 C320 1.390 . S
C321 C322 1.394 . S
C321 C327 1.465 . S
C322 C317 1.399 . S
C322 C321 1.394 . S
C322 C323 1.516 . S
C323 C322 1.516 . S
C323 C324 1.502 . S
C323 C325 1.561 . S
C323 C326 1.526 . S
C324 H308 0.959 . S
C324 H309 0.959 . S
C324 H310 0.961 . S
C324 C323 1.502 . S
C325 H311 0.960 . S
C325 H312 0.961 . S
C325 H313 0.959 . S
C325 C323 1.561 . S
C326 C323 1.526 . S
C326 C327 1.396 . S
C326 C331 1.390 . S
C327 C321 1.465 . S
C327 C326 1.396 . S
C327 C328 1.399 . S
C328 H314 0.929 . S
C328 C327 1.399 . S
C328 C329 1.385 . S
C329 H315 0.931 . S
C329 C328 1.385 . S
C329 C330 1.389 . S
C330 C329 1.389 . S
C330 C331 1.387 . S
C331 H316 0.930 . S
C331 C326 1.390 . S
C331 C330 1.387 . S
H332 C344 0.930 . S
H333 C346 0.930 . S
H334 C347 0.930 . S
H335 C351 0.959 . S
H336 C351 0.959 . S
H337 C351 0.961 . S
H338 C352 0.960 . S
H339 C352 0.961 . S
H340 C352 0.959 . S
H341 C355 0.929 . S
H342 C356 0.931 1_554 S
H343 C358 0.930 . S
C344 H332 0.930 . S
C344 C345 1.399 . S
C344 C349 1.399 . S
C345 C344 1.399 . S
C345 C346 1.376 . S
C346 H333 0.930 . S
C346 C345 1.376 . S
C346 C347 1.388 . S
C347 H334 0.930 . S
C347 C346 1.388 . S
C347 C348 1.390 . S
C348 C347 1.390 . S
C348 C349 1.394 . S
C348 C354 1.465 . S
C349 C344 1.399 . S
C349 C348 1.394 . S
C349 C350 1.516 . S
C350 C349 1.516 . S
C350 C351 1.502 . S
C350 C352 1.561 . S
C350 C353 1.526 . S
C351 H335 0.959 . S
C351 H336 0.959 . S
C351 H337 0.961 . S
C351 C350 1.502 . S
C352 H338 0.960 . S
C352 H339 0.961 . S
C352 H340 0.959 . S
C352 C350 1.561 . S
C353 C350 1.526 . S
C353 C354 1.396 . S
C353 C358 1.390 . S
C354 C348 1.465 . S
C354 C353 1.396 . S
C354 C355 1.399 . S
C355 H341 0.929 . S
C355 C354 1.399 . S
C355 C356 1.385 . S
C356 H342 0.931 1_556 S
C356 C355 1.385 . S
C356 C357 1.389 . S
C357 C356 1.389 . S
C357 C358 1.387 . S
C358 H343 0.930 . S
C358 C353 1.390 . S
C358 C357 1.387 . S
H359 C371 0.930 . S
H360 C373 0.930 . S
H361 C374 0.930 . S
H362 C378 0.959 . S
H363 C378 0.959 . S
H364 C378 0.961 . S
H365 C379 0.960 . S
H366 C379 0.961 . S
H367 C379 0.959 . S
H368 C382 0.929 . S
H369 C383 0.931 . S
H370 C385 0.930 . S
C371 H359 0.930 . S
C371 C372 1.399 . S
C371 C376 1.399 . S
C372 C371 1.399 . S
C372 C373 1.376 . S
C373 H360 0.930 . S
C373 C372 1.376 . S
C373 C374 1.388 . S
C374 H361 0.930 . S
C374 C373 1.388 . S
C374 C375 1.390 . S
C375 C374 1.390 . S
C375 C376 1.394 . S
C375 C381 1.465 . S
C376 C371 1.399 . S
C376 C375 1.394 . S
C376 C377 1.516 . S
C377 C376 1.516 . S
C377 C378 1.502 . S
C377 C379 1.561 . S
C377 C380 1.526 . S
C378 H362 0.959 . S
C378 H363 0.959 . S
C378 H364 0.961 . S
C378 C377 1.502 . S
C379 H365 0.960 . S
C379 H366 0.961 . S
C379 H367 0.959 . S
C379 C377 1.561 . S
C380 C377 1.526 . S
C380 C381 1.396 . S
C380 C385 1.390 . S
C381 C375 1.465 . S
C381 C380 1.396 . S
C381 C382 1.399 . S
C382 H368 0.929 . S
C382 C381 1.399 . S
C382 C383 1.385 . S
C383 H369 0.931 . S
C383 C382 1.385 . S
C383 C384 1.389 . S
C384 C383 1.389 . S
C384 C385 1.387 . S
C385 H370 0.930 . S
C385 C380 1.390 . S
C385 C384 1.387 . S
H386 C398 0.930 . S
H387 C400 0.930 . S
H388 C401 0.930 . S
H389 C405 0.959 . S
H390 C405 0.959 . S
H391 C405 0.961 . S
H392 C406 0.960 . S
H393 C406 0.961 . S
H394 C406 0.959 . S
H395 C409 0.929 . S
H396 C410 0.931 . S
H397 C412 0.930 . S
C398 H386 0.930 . S
C398 C399 1.399 . S
C398 C403 1.399 . S
C399 C398 1.399 . S
C399 C400 1.376 . S
C400 H387 0.930 . S
C400 C399 1.376 . S
C400 C401 1.388 . S
C401 H388 0.930 . S
C401 C400 1.388 . S
C401 C402 1.390 . S
C402 C401 1.390 . S
C402 C403 1.394 . S
C402 C408 1.465 . S
C403 C398 1.399 . S
C403 C402 1.394 . S
C403 C404 1.516 . S
C404 C403 1.516 . S
C404 C405 1.502 . S
C404 C406 1.561 . S
C404 C407 1.526 . S
C405 H389 0.959 . S
C405 H390 0.959 . S
C405 H391 0.961 . S
C405 C404 1.502 . S
C406 H392 0.960 . S
C406 H393 0.961 . S
C406 H394 0.959 . S
C406 C404 1.561 . S
C407 C404 1.526 . S
C407 C408 1.396 . S
C407 C412 1.390 . S
C408 C402 1.465 . S
C408 C407 1.396 . S
C408 C409 1.399 . S
C409 H395 0.929 . S
C409 C408 1.399 . S
C409 C410 1.385 . S
C410 H396 0.931 . S
C410 C409 1.385 . S
C410 C411 1.389 . S
C411 C410 1.389 . S
C411 C412 1.387 . S
C412 H397 0.930 . S
C412 C407 1.390 . S
C412 C411 1.387 . S
H413 C425 0.930 . S
H414 C427 0.930 . S
H415 C428 0.930 . S
H416 C432 0.959 . S
H417 C432 0.959 . S
H418 C432 0.961 . S
H419 C433 0.960 . S
H420 C433 0.961 . S
H421 C433 0.959 . S
H422 C436 0.929 . S
H423 C437 0.931 . S
H424 C439 0.930 . S
C425 H413 0.930 . S
C425 C426 1.399 . S
C425 C430 1.399 . S
C426 C425 1.399 . S
C426 C427 1.376 . S
C427 H414 0.930 . S
C427 C426 1.376 . S
C427 C428 1.388 . S
C428 H415 0.930 . S
C428 C427 1.388 . S
C428 C429 1.390 . S
C429 C428 1.390 . S
C429 C430 1.394 . S
C429 C435 1.465 . S
C430 C425 1.399 . S
C430 C429 1.394 . S
C430 C431 1.516 . S
C431 C430 1.516 . S
C431 C432 1.502 . S
C431 C433 1.561 . S
C431 C434 1.526 . S
C432 H416 0.959 . S
C432 H417 0.959 . S
C432 H418 0.961 . S
C432 C431 1.502 . S
C433 H419 0.960 . S
C433 H420 0.961 . S
C433 H421 0.959 . S
C433 C431 1.561 . S
C434 C431 1.526 . S
C434 C435 1.396 . S
C434 C439 1.390 . S
C435 C429 1.465 . S
C435 C434 1.396 . S
C435 C436 1.399 . S
C436 H422 0.929 . S
C436 C435 1.399 . S
C436 C437 1.385 . S
C437 H423 0.931 . S
C437 C436 1.385 . S
C437 C438 1.389 . S
C438 C437 1.389 . S
C438 C439 1.387 . S
C439 H424 0.930 . S
C439 C434 1.390 . S
C439 C438 1.387 . S
H440 C452 0.930 . S
H441 C454 0.930 . S
H442 C455 0.930 . S
H443 C459 0.959 . S
H444 C459 0.934 1_655 S
H445 C459 0.961 . S
H446 C460 0.960 1_455 S
H447 C460 0.961 . S
H448 C460 0.959 . S
H449 C463 0.929 1_545 S
H450 C464 0.931 . S
H451 C466 0.930 . S
C452 H440 0.930 . S
C452 C453 1.399 . S
C452 C457 1.399 . S
C453 C452 1.399 . S
C453 C454 1.376 . S
C454 H441 0.930 . S
C454 C453 1.376 . S
C454 C455 1.388 . S
C455 H442 0.930 . S
C455 C454 1.388 . S
C455 C456 1.390 . S
C456 C455 1.390 . S
C456 C457 1.394 . S
C456 C462 1.463 1_445 S
C457 C452 1.399 . S
C457 C456 1.394 . S
C457 C458 1.516 1_545 S
C458 C457 1.516 1_565 S
C458 C459 1.502 . S
C458 C460 1.561 1_465 S
C458 C461 1.526 1_455 S
C459 H443 0.959 . S
C459 H444 0.934 1_455 S
C459 H445 0.961 . S
C459 C458 1.502 . S
C460 H446 0.960 1_655 S
C460 H447 0.961 . S
C460 H448 0.959 . S
C460 C458 1.561 1_645 S
C461 C458 1.526 1_655 S
C461 C462 1.398 . S
C461 C466 1.390 . S
C462 C456 1.463 1_665 S
C462 C461 1.398 . S
C462 C463 1.399 . S
C463 H449 0.929 1_565 S
C463 C462 1.399 . S
C463 C464 1.385 . S
C464 H450 0.931 . S
C464 C463 1.385 . S
C464 C465 1.389 . S
C465 C464 1.389 . S
C465 C466 1.387 . S
C466 H451 0.930 . S
C466 C461 1.390 . S
C466 C465 1.387 . S
H467 C479 0.930 . S
H468 C481 0.930 . S
H469 C482 0.930 . S
H470 C486 0.959 . S
H471 C486 0.959 . S
H472 C486 0.961 . S
H473 C487 0.960 1_655 S
H474 C487 0.961 . S
H475 C487 0.959 . S
H476 C490 0.929 . S
H477 C491 0.931 . S
H478 C493 0.930 . S
C479 H467 0.930 . S
C479 C480 1.399 . S
C479 C484 1.399 . S
C480 C479 1.399 . S
C480 C481 1.376 . S
C481 H468 0.930 . S
C481 C480 1.376 . S
C481 C482 1.388 1_655 S
C482 H469 0.930 . S
C482 C481 1.388 1_455 S
C482 C483 1.390 . S
C483 C482 1.390 . S
C483 C484 1.394 1_455 S
C483 C489 1.465 . S
C484 C479 1.399 . S
C484 C483 1.394 1_655 S
C484 C485 1.516 . S
C485 C484 1.516 . S
C485 C486 1.502 . S
C485 C487 1.561 1_655 S
C485 C488 1.526 1_655 S
C486 H470 0.959 . S
C486 H471 0.959 . S
C486 H472 0.961 . S
C486 C485 1.502 . S
C487 H473 0.960 1_455 S
C487 H474 0.961 . S
C487 H475 0.959 . S
C487 C485 1.561 1_455 S
C488 C485 1.526 1_455 S
C488 C489 1.396 . S
C488 C493 1.390 . S
C489 C483 1.465 . S
C489 C488 1.396 . S
C489 C490 1.399 . S
C490 H476 0.929 . S
C490 C489 1.399 . S
C490 C491 1.385 . S
C491 H477 0.931 . S
C491 C490 1.385 . S
C491 C492 1.389 . S
C492 C491 1.389 . S
C492 C493 1.387 . S
C493 H478 0.930 . S
C493 C488 1.390 . S
C493 C492 1.387 . S
H494 C506 0.930 . S
H495 C508 0.930 . S
H496 C509 0.930 . S
H497 C513 0.959 . S
H498 C513 0.959 . S
H499 C513 0.961 . S
H500 C514 0.960 . S
H501 C514 0.961 . S
H502 C514 0.959 . S
H503 C517 0.929 . S
H504 C518 0.931 . S
H505 C520 0.930 . S
C506 H494 0.930 . S
C506 C507 1.399 . S
C506 C511 1.399 . S
C507 C506 1.399 . S
C507 C508 1.376 . S
C508 H495 0.930 . S
C508 C507 1.376 . S
C508 C509 1.388 . S
C509 H496 0.930 . S
C509 C508 1.388 . S
C509 C510 1.390 . S
C510 C509 1.390 . S
C510 C511 1.394 . S
C510 C516 1.465 . S
C511 C506 1.399 . S
C511 C510 1.394 . S
C511 C512 1.516 . S
C512 C511 1.516 . S
C512 C513 1.502 . S
C512 C514 1.561 . S
C512 C515 1.526 . S
C513 H497 0.959 . S
C513 H498 0.959 . S
C513 H499 0.961 . S
C513 C512 1.502 . S
C514 H500 0.960 . S
C514 H501 0.961 . S
C514 H502 0.959 . S
C514 C512 1.561 . S
C515 C512 1.526 . S
C515 C516 1.396 . S
C515 C520 1.390 . S
C516 C510 1.465 . S
C516 C515 1.396 . S
C516 C517 1.399 . S
C517 H503 0.929 . S
C517 C516 1.399 . S
C517 C518 1.385 . S
C518 H504 0.931 . S
C518 C517 1.385 . S
C518 C519 1.389 . S
C519 C518 1.389 . S
C519 C520 1.387 . S
C520 H505 0.930 . S
C520 C515 1.390 . S
C520 C519 1.387 . S
H521 C533 0.930 . S
H522 C535 0.930 1_556 S
H523 C536 0.930 1_556 S
H524 C540 0.959 . S
H525 C540 0.959 . S
H526 C540 0.961 . S
H527 C541 0.935 1_565 S
H528 C541 0.979 . S
H529 C541 0.973 . S
H530 C544 0.929 1_556 S
H531 C545 0.931 1_556 S
H532 C547 0.930 . S
C533 H521 0.930 . S
C533 C534 1.399 . S
C533 C538 1.399 . S
C534 C533 1.399 . S
C534 C535 1.376 . S
C535 H522 0.930 1_554 S
C535 C534 1.376 . S
C535 C536 1.388 . S
C536 H523 0.930 1_554 S
C536 C535 1.388 . S
C536 C537 1.390 . S
C537 C536 1.390 . S
C537 C538 1.394 . S
C537 C543 1.465 1_565 S
C538 C533 1.399 . S
C538 C537 1.394 . S
C538 C539 1.516 . S
C539 C538 1.516 . S
C539 C540 1.502 . S
C539 C541 1.555 1_565 S
C539 C542 1.526 1_565 S
C540 H524 0.959 . S
C540 H525 0.959 . S
C540 H526 0.961 . S
C540 C539 1.502 . S
C541 H527 0.935 1_545 S
C541 H528 0.979 . S
C541 H529 0.973 . S
C541 C539 1.555 1_545 S
C542 C539 1.526 1_545 S
C542 C543 1.396 . S
C542 C547 1.390 . S
C543 C537 1.465 1_545 S
C543 C542 1.396 . S
C543 C544 1.399 . S
C544 H530 0.929 1_554 S
C544 C543 1.399 . S
C544 C545 1.385 . S
C545 H531 0.931 1_554 S
C545 C544 1.385 . S
C545 C546 1.389 . S
C546 C545 1.389 . S
C546 C547 1.387 . S
C547 H532 0.930 . S
C547 C542 1.390 . S
C547 C546 1.387 . S
H548 C560 0.930 . S
H549 C562 0.930 . S
H550 C563 0.930 . S
H551 C567 0.959 . S
H552 C567 0.959 1_655 S
H553 C567 0.961 . S
H554 C568 0.960 1_455 S
H555 C568 0.961 . S
H556 C568 0.959 . S
H557 C571 0.929 . S
H558 C572 0.931 . S
H559 C574 0.930 . S
C560 H548 0.930 . S
C560 C561 1.399 1_556 S
C560 C565 1.399 . S
C561 C560 1.399 1_554 S
C561 C562 1.376 . S
C562 H549 0.930 . S
C562 C561 1.376 . S
C562 C563 1.388 . S
C563 H550 0.930 . S
C563 C562 1.388 . S
C563 C564 1.390 . S
C564 C563 1.390 . S
C564 C565 1.394 1_554 S
C564 C570 1.465 1_455 S
C565 C560 1.399 . S
C565 C564 1.394 1_556 S
C565 C566 1.527 . S
C566 C565 1.527 . S
C566 C567 1.507 . S
C566 C568 1.556 1_455 S
C566 C569 1.514 1_455 S
C567 H551 0.959 . S
C567 H552 0.959 1_455 S
C567 H553 0.961 . S
C567 C566 1.507 . S
C568 H554 0.960 1_655 S
C568 H555 0.961 . S
C568 H556 0.959 . S
C568 C566 1.556 1_655 S
C569 C566 1.514 1_655 S
C569 C570 1.396 1_556 S
C569 C574 1.390 . S
C570 C564 1.465 1_655 S
C570 C569 1.396 1_554 S
C570 C571 1.399 . S
C571 H557 0.929 . S
C571 C570 1.399 . S
C571 C572 1.385 . S
C572 H558 0.931 . S
C572 C571 1.385 . S
C572 C573 1.389 . S
C573 C572 1.389 . S
C573 C574 1.387 1_554 S
C574 H559 0.930 . S
C574 C569 1.390 . S
C574 C573 1.387 1_556 S
H575 C587 0.930 . S
H576 C589 0.930 . S
H577 C590 0.930 . S
H578 C594 0.959 . S
H579 C594 0.959 . S
H580 C594 0.961 . S
H581 C595 0.960 . S
H582 C595 0.961 . S
H583 C595 0.959 . S
H584 C598 0.929 . S
H585 C599 0.931 . S
H586 C601 0.930 . S
C587 H575 0.930 . S
C587 C588 1.399 . S
C587 C592 1.399 . S
C588 C587 1.399 . S
C588 C589 1.376 . S
C589 H576 0.930 . S
C589 C588 1.376 . S
C589 C590 1.388 . S
C590 H577 0.930 . S
C590 C589 1.388 . S
C590 C591 1.390 . S
C591 C590 1.390 . S
C591 C592 1.394 . S
C591 C597 1.465 . S
C592 C587 1.399 . S
C592 C591 1.394 . S
C592 C593 1.516 . S
C593 C592 1.516 . S
C593 C594 1.502 . S
C593 C595 1.561 . S
C593 C596 1.526 . S
C594 H578 0.959 . S
C594 H579 0.959 . S
C594 H580 0.961 . S
C594 C593 1.502 . S
C595 H581 0.960 . S
C595 H582 0.961 . S
C595 H583 0.959 . S
C595 C593 1.561 . S
C596 C593 1.526 . S
C596 C597 1.396 . S
C596 C601 1.390 . S
C597 C591 1.465 . S
C597 C596 1.396 . S
C597 C598 1.399 . S
C598 H584 0.929 . S
C598 C597 1.399 . S
C598 C599 1.385 . S
C599 H585 0.931 . S
C599 C598 1.385 . S
C599 C600 1.389 . S
C600 C599 1.389 . S
C600 C601 1.387 . S
C601 H586 0.930 . S
C601 C596 1.390 . S
C601 C600 1.387 . S
H602 C614 0.930 . S
H603 C616 0.930 . S
H604 C617 0.930 . S
H605 C621 0.959 . S
H606 C621 0.959 . S
H607 C621 0.961 . S
H608 C622 0.962 1_545 S
H609 C622 0.960 . S
H610 C622 0.956 . S
H611 C625 0.929 . S
H612 C626 0.931 . S
H613 C628 0.930 . S
C614 H602 0.930 . S
C614 C615 1.399 . S
C614 C619 1.399 . S
C615 C614 1.399 . S
C615 C616 1.376 . S
C616 H603 0.930 . S
C616 C615 1.376 . S
C616 C617 1.388 1_545 S
C617 H604 0.930 . S
C617 C616 1.388 1_565 S
C617 C618 1.390 . S
C618 C617 1.390 . S
C618 C619 1.394 1_565 S
C618 C624 1.465 . S
C619 C614 1.399 . S
C619 C618 1.394 1_545 S
C619 C620 1.516 . S
C620 C619 1.516 . S
C620 C621 1.502 . S
C620 C622 1.562 1_545 S
C620 C623 1.526 1_545 S
C621 H605 0.959 . S
C621 H606 0.959 . S
C621 H607 0.961 . S
C621 C620 1.502 . S
C622 H608 0.962 1_565 S
C622 H609 0.960 . S
C622 H610 0.956 . S
C622 C620 1.562 1_565 S
C623 C620 1.526 1_565 S
C623 C624 1.396 . S
C623 C628 1.390 . S
C624 C618 1.465 . S
C624 C623 1.396 . S
C624 C625 1.399 . S
C625 H611 0.929 . S
C625 C624 1.399 . S
C625 C626 1.385 . S
C626 H612 0.931 . S
C626 C625 1.385 . S
C626 C627 1.389 . S
C627 C626 1.389 . S
C627 C628 1.387 . S
C628 H613 0.930 . S
C628 C623 1.390 . S
C628 C627 1.387 . S
H629 C641 0.930 . S
H630 C643 0.930 . S
H631 C644 0.930 . S
H632 C648 0.959 . S
H633 C648 0.959 . S
H634 C648 0.961 . S
H635 C649 0.960 1_545 S
H636 C649 0.961 1_655 S
H637 C649 0.959 . S
H638 C652 0.929 . S
H639 C653 0.931 . S
H640 C655 0.930 . S
C641 H629 0.930 . S
C641 C642 1.399 . S
C641 C646 1.399 . S
C642 C641 1.399 . S
C642 C643 1.376 . S
C643 H630 0.930 . S
C643 C642 1.376 . S
C643 C644 1.388 . S
C644 H631 0.930 . S
C644 C643 1.388 . S
C644 C645 1.390 . S
C645 C644 1.390 . S
C645 C646 1.394 . S
C645 C651 1.465 1_545 S
C646 C641 1.399 . S
C646 C645 1.394 . S
C646 C647 1.516 1_455 S
C647 C646 1.516 1_655 S
C647 C648 1.502 . S
C647 C649 1.561 1_645 S
C647 C650 1.526 1_545 S
C648 H632 0.959 . S
C648 H633 0.959 . S
C648 H634 0.961 . S
C648 C647 1.502 . S
C649 H635 0.960 1_565 S
C649 H636 0.961 1_455 S
C649 H637 0.959 . S
C649 C647 1.561 1_465 S
C650 C647 1.526 1_565 S
C650 C651 1.396 1_655 S
C650 C655 1.390 . S
C651 C645 1.465 1_565 S
C651 C650 1.396 1_455 S
C651 C652 1.399 . S
C652 H638 0.929 . S
C652 C651 1.399 . S
C652 C653 1.385 1_455 S
C653 H639 0.931 . S
C653 C652 1.385 1_655 S
C653 C654 1.389 . S
C654 C653 1.389 . S
C654 C655 1.387 . S
C655 H640 0.930 . S
C655 C650 1.390 . S
C655 C654 1.387 . S
H656 C668 0.930 . S
H657 C670 0.930 . S
H658 C671 0.930 . S
H659 C675 0.959 . S
H660 C675 0.959 . S
H661 C675 0.961 . S
H662 C676 0.960 . S
H663 C676 0.961 . S
H664 C676 0.959 . S
H665 C679 0.929 . S
H666 C680 0.931 . S
H667 C682 0.930 . S
C668 H656 0.930 . S
C668 C669 1.399 . S
C668 C673 1.399 . S
C669 C668 1.399 . S
C669 C670 1.376 . S
C670 H657 0.930 . S
C670 C669 1.376 . S
C670 C671 1.388 . S
C671 H658 0.930 . S
C671 C670 1.388 . S
C671 C672 1.390 . S
C672 C671 1.390 . S
C672 C673 1.394 . S
C672 C678 1.465 . S
C673 C668 1.399 . S
C673 C672 1.394 . S
C673 C674 1.516 . S
C674 C673 1.516 . S
C674 C675 1.502 . S
C674 C676 1.561 . S
C674 C677 1.526 . S
C675 H659 0.959 . S
C675 H660 0.959 . S
C675 H661 0.961 . S
C675 C674 1.502 . S
C676 H662 0.960 . S
C676 H663 0.961 . S
C676 H664 0.959 . S
C676 C674 1.561 . S
C677 C674 1.526 . S
C677 C678 1.396 . S
C677 C682 1.390 . S
C678 C672 1.465 . S
C678 C677 1.396 . S
C678 C679 1.399 . S
C679 H665 0.929 . S
C679 C678 1.399 . S
C679 C680 1.385 . S
C680 H666 0.931 . S
C680 C679 1.385 . S
C680 C681 1.389 . S
C681 C680 1.389 . S
C681 C682 1.387 . S
C682 H667 0.930 . S
C682 C677 1.390 . S
C682 C681 1.387 . S
H683 C695 0.930 . S
H684 C697 0.930 . S
H685 C698 0.930 . S
H686 C702 0.959 . S
H687 C702 0.959 . S
H688 C702 0.961 . S
H689 C703 0.960 . S
H690 C703 0.961 . S
H691 C703 0.959 . S
H692 C706 0.929 . S
H693 C707 0.931 . S
H694 C709 0.930 . S
C695 H683 0.930 . S
C695 C696 1.399 . S
C695 C700 1.399 . S
C696 C695 1.399 . S
C696 C697 1.376 . S
C697 H684 0.930 . S
C697 C696 1.376 . S
C697 C698 1.388 . S
C698 H685 0.930 . S
C698 C697 1.388 . S
C698 C699 1.390 . S
C699 C698 1.390 . S
C699 C700 1.394 . S
C699 C705 1.465 . S
C700 C695 1.399 . S
C700 C699 1.394 . S
C700 C701 1.516 . S
C701 C700 1.516 . S
C701 C702 1.502 . S
C701 C703 1.561 . S
C701 C704 1.526 . S
C702 H686 0.959 . S
C702 H687 0.959 . S
C702 H688 0.961 . S
C702 C701 1.502 . S
C703 H689 0.960 . S
C703 H690 0.961 . S
C703 H691 0.959 . S
C703 C701 1.561 . S
C704 C701 1.526 . S
C704 C705 1.396 . S
C704 C709 1.390 . S
C705 C699 1.465 . S
C705 C704 1.396 . S
C705 C706 1.399 . S
C706 H692 0.929 . S
C706 C705 1.399 . S
C706 C707 1.385 . S
C707 H693 0.931 . S
C707 C706 1.385 . S
C707 C708 1.389 . S
C708 C707 1.389 . S
C708 C709 1.387 . S
C709 H694 0.930 . S
C709 C704 1.390 . S
C709 C708 1.387 . S
H710 C722 0.930 . S
H711 C724 0.930 . S
H712 C725 0.930 . S
H713 C729 0.959 . S
H714 C729 0.959 . S
H715 C729 0.961 . S
H716 C730 0.960 . S
H717 C730 0.961 . S
H718 C730 0.959 . S
H719 C733 0.929 . S
H720 C734 0.931 . S
H721 C736 0.930 . S
C722 H710 0.930 . S
C722 C723 1.399 . S
C722 C727 1.399 . S
C723 C722 1.399 . S
C723 C724 1.376 . S
C724 H711 0.930 . S
C724 C723 1.376 . S
C724 C725 1.388 . S
C725 H712 0.930 . S
C725 C724 1.388 . S
C725 C726 1.390 . S
C726 C725 1.390 . S
C726 C727 1.394 . S
C726 C732 1.465 . S
C727 C722 1.399 . S
C727 C726 1.394 . S
C727 C728 1.516 . S
C728 C727 1.516 . S
C728 C729 1.502 . S
C728 C730 1.561 . S
C728 C731 1.526 1_554 S
C729 H713 0.959 . S
C729 H714 0.959 . S
C729 H715 0.961 . S
C729 C728 1.502 . S
C730 H716 0.960 . S
C730 H717 0.961 . S
C730 H718 0.959 . S
C730 C728 1.561 . S
C731 C728 1.526 1_556 S
C731 C732 1.396 1_556 S
C731 C736 1.390 . S
C732 C726 1.465 . S
C732 C731 1.396 1_554 S
C732 C733 1.399 1_554 S
C733 H719 0.929 . S
C733 C732 1.399 1_556 S
C733 C734 1.385 . S
C734 H720 0.931 . S
C734 C733 1.385 . S
C734 C735 1.389 . S
C735 C734 1.389 . S
C735 C736 1.387 . S
C736 H721 0.930 . S
C736 C731 1.390 . S
C736 C735 1.387 . S
H737 C749 0.930 . S
H738 C751 0.930 . S
H739 C752 0.930 . S
H740 C756 0.959 . S
H741 C756 0.959 . S
H742 C756 0.961 . S
H743 C757 0.960 . S
H744 C757 0.961 . S
H745 C757 0.959 . S
H746 C760 0.929 . S
H747 C761 0.931 . S
H748 C763 0.930 . S
C749 H737 0.930 . S
C749 C750 1.399 . S
C749 C754 1.399 . S
C750 C749 1.399 . S
C750 C751 1.376 . S
C751 H738 0.930 . S
C751 C750 1.376 . S
C751 C752 1.388 . S
C752 H739 0.930 . S
C752 C751 1.388 . S
C752 C753 1.390 . S
C753 C752 1.390 . S
C753 C754 1.394 . S
C753 C759 1.465 . S
C754 C749 1.399 . S
C754 C753 1.394 . S
C754 C755 1.516 . S
C755 C754 1.516 . S
C755 C756 1.502 . S
C755 C757 1.561 . S
C755 C758 1.526 . S
C756 H740 0.959 . S
C756 H741 0.959 . S
C756 H742 0.961 . S
C756 C755 1.502 . S
C757 H743 0.960 . S
C757 H744 0.961 . S
C757 H745 0.959 . S
C757 C755 1.561 . S
C758 C755 1.526 . S
C758 C759 1.396 . S
C758 C763 1.390 . S
C759 C753 1.465 . S
C759 C758 1.396 . S
C759 C760 1.399 . S
C760 H746 0.929 . S
C760 C759 1.399 . S
C760 C761 1.385 . S
C761 H747 0.931 . S
C761 C760 1.385 . S
C761 C762 1.389 . S
C762 C761 1.389 . S
C762 C763 1.387 . S
C763 H748 0.930 . S
C763 C758 1.390 . S
C763 C762 1.387 . S
H764 C776 0.930 . S
H765 C778 0.930 . S
H766 C779 0.930 . S
H767 C783 0.959 . S
H768 C783 0.959 . S
H769 C783 0.961 . S
H770 C784 0.960 . S
H771 C784 0.961 . S
H772 C784 0.959 . S
H773 C787 0.929 . S
H774 C788 0.931 . S
H775 C790 0.930 . S
C776 H764 0.930 . S
C776 C777 1.399 . S
C776 C781 1.399 . S
C777 C776 1.399 . S
C777 C778 1.376 . S
C778 H765 0.930 . S
C778 C777 1.376 . S
C778 C779 1.388 . S
C779 H766 0.930 . S
C779 C778 1.388 . S
C779 C780 1.390 . S
C780 C779 1.390 . S
C780 C781 1.394 . S
C780 C786 1.465 . S
C781 C776 1.399 . S
C781 C780 1.394 . S
C781 C782 1.516 . S
C782 C781 1.516 . S
C782 C783 1.502 . S
C782 C784 1.561 . S
C782 C785 1.526 . S
C783 H767 0.959 . S
C783 H768 0.959 . S
C783 H769 0.961 . S
C783 C782 1.502 . S
C784 H770 0.960 . S
C784 H771 0.961 . S
C784 H772 0.959 . S
C784 C782 1.561 . S
C785 C782 1.526 . S
C785 C786 1.396 . S
C785 C790 1.390 . S
C786 C780 1.465 . S
C786 C785 1.396 . S
C786 C787 1.399 . S
C787 H773 0.929 . S
C787 C786 1.399 . S
C787 C788 1.385 . S
C788 H774 0.931 . S
C788 C787 1.385 . S
C788 C789 1.389 . S
C789 C788 1.389 . S
C789 C790 1.387 . S
C790 H775 0.930 . S
C790 C785 1.390 . S
C790 C789 1.387 . S
H791 C803 0.930 . S
H792 C805 0.930 . S
H793 C806 0.930 . S
H794 C810 0.959 . S
H795 C810 0.959 . S
H796 C810 0.961 . S
H797 C811 0.960 . S
H798 C811 0.961 . S
H799 C811 0.959 . S
H800 C814 0.929 . S
H801 C815 0.931 . S
H802 C817 0.930 . S
C803 H791 0.930 . S
C803 C804 1.399 . S
C803 C808 1.399 . S
C804 C803 1.399 . S
C804 C805 1.376 . S
C805 H792 0.930 . S
C805 C804 1.376 . S
C805 C806 1.388 . S
C806 H793 0.930 . S
C806 C805 1.388 . S
C806 C807 1.390 . S
C807 C806 1.390 . S
C807 C808 1.394 . S
C807 C813 1.465 . S
C808 C803 1.399 . S
C808 C807 1.394 . S
C808 C809 1.516 . S
C809 C808 1.516 . S
C809 C810 1.502 . S
C809 C811 1.561 . S
C809 C812 1.526 1_554 S
C810 H794 0.959 . S
C810 H795 0.959 . S
C810 H796 0.961 . S
C810 C809 1.502 . S
C811 H797 0.960 . S
C811 H798 0.961 . S
C811 H799 0.959 . S
C811 C809 1.561 . S
C812 C809 1.526 1_556 S
C812 C813 1.396 1_556 S
C812 C817 1.390 . S
C813 C807 1.465 . S
C813 C812 1.396 1_554 S
C813 C814 1.399 1_554 S
C814 H800 0.929 . S
C814 C813 1.399 1_556 S
C814 C815 1.385 . S
C815 H801 0.931 . S
C815 C814 1.385 . S
C815 C816 1.389 . S
C816 C815 1.389 . S
C816 C817 1.387 . S
C817 H802 0.930 . S
C817 C812 1.390 . S
C817 C816 1.387 . S
H818 C830 0.930 . S
H819 C832 0.930 . S
H820 C833 0.930 . S
H821 C837 0.959 . S
H822 C837 0.959 . S
H823 C837 0.961 . S
H824 C838 0.960 . S
H825 C838 0.961 . S
H826 C838 0.959 . S
H827 C841 0.929 . S
H828 C842 0.931 . S
H829 C844 0.930 . S
C830 H818 0.930 . S
C830 C831 1.399 . S
C830 C835 1.399 . S
C831 C830 1.399 . S
C831 C832 1.376 . S
C832 H819 0.930 . S
C832 C831 1.376 . S
C832 C833 1.388 . S
C833 H820 0.930 . S
C833 C832 1.388 . S
C833 C834 1.390 . S
C834 C833 1.390 . S
C834 C835 1.394 . S
C834 C840 1.465 . S
C835 C830 1.399 . S
C835 C834 1.394 . S
C835 C836 1.516 . S
C836 C835 1.516 . S
C836 C837 1.502 . S
C836 C838 1.561 . S
C836 C839 1.526 . S
C837 H821 0.959 . S
C837 H822 0.959 . S
C837 H823 0.961 . S
C837 C836 1.502 . S
C838 H824 0.960 . S
C838 H825 0.961 . S
C838 H826 0.959 . S
C838 C836 1.561 . S
C839 C836 1.526 . S
C839 C840 1.396 . S
C839 C844 1.390 . S
C840 C834 1.465 . S
C840 C839 1.396 . S
C840 C841 1.399 . S
C841 H827 0.929 . S
C841 C840 1.399 . S
C841 C842 1.385 . S
C842 H828 0.931 . S
C842 C841 1.385 . S
C842 C843 1.389 . S
C843 C842 1.389 . S
C843 C844 1.387 . S
C844 H829 0.930 . S
C844 C839 1.390 . S
C844 C843 1.387 . S
H845 C857 0.930 . S
H846 C859 0.930 . S
H847 C860 0.930 . S
H848 C864 0.959 . S
H849 C864 0.959 . S
H850 C864 0.961 . S
H851 C865 0.960 . S
H852 C865 0.961 . S
H853 C865 0.959 . S
H854 C868 0.929 . S
H855 C869 0.931 . S
H856 C871 0.930 . S
C857 H845 0.930 . S
C857 C858 1.399 . S
C857 C862 1.399 . S
C858 C857 1.399 . S
C858 C859 1.376 . S
C859 H846 0.930 . S
C859 C858 1.376 . S
C859 C860 1.388 . S
C860 H847 0.930 . S
C860 C859 1.388 . S
C860 C861 1.390 . S
C861 C860 1.390 . S
C861 C862 1.394 . S
C861 C867 1.465 . S
C862 C857 1.399 . S
C862 C861 1.394 . S
C862 C863 1.516 . S
C863 C862 1.516 . S
C863 C864 1.502 . S
C863 C865 1.561 . S
C863 C866 1.526 . S
C864 H848 0.959 . S
C864 H849 0.959 . S
C864 H850 0.961 . S
C864 C863 1.502 . S
C865 H851 0.960 . S
C865 H852 0.961 . S
C865 H853 0.959 . S
C865 C863 1.561 . S
C866 C863 1.526 . S
C866 C867 1.396 . S
C866 C871 1.390 . S
C867 C861 1.465 . S
C867 C866 1.396 . S
C867 C868 1.399 . S
C868 H854 0.929 . S
C868 C867 1.399 . S
C868 C869 1.385 . S
C869 H855 0.931 . S
C869 C868 1.385 . S
C869 C870 1.389 . S
C870 C869 1.389 . S
C870 C871 1.387 . S
C871 H856 0.930 . S
C871 C866 1.390 . S
C871 C870 1.387 . S
H872 C884 0.930 . S
H873 C886 0.930 . S
H874 C887 0.930 . S
H875 C891 0.959 . S
H876 C891 0.959 . S
H877 C891 0.961 . S
H878 C892 0.960 . S
H879 C892 0.961 . S
H880 C892 0.959 . S
H881 C895 0.929 . S
H882 C896 0.931 . S
H883 C898 0.930 . S
C884 H872 0.930 . S
C884 C885 1.399 . S
C884 C889 1.399 . S
C885 C884 1.399 . S
C885 C886 1.376 . S
C886 H873 0.930 . S
C886 C885 1.376 . S
C886 C887 1.388 . S
C887 H874 0.930 . S
C887 C886 1.388 . S
C887 C888 1.390 1_556 S
C888 C887 1.390 1_554 S
C888 C889 1.394 1_554 S
C888 C894 1.465 . S
C889 C884 1.399 . S
C889 C888 1.394 1_556 S
C889 C890 1.516 1_556 S
C890 C889 1.516 1_554 S
C890 C891 1.502 . S
C890 C892 1.561 . S
C890 C893 1.526 . S
C891 H875 0.959 . S
C891 H876 0.959 . S
C891 H877 0.961 . S
C891 C890 1.502 . S
C892 H878 0.960 . S
C892 H879 0.961 . S
C892 H880 0.959 . S
C892 C890 1.561 . S
C893 C890 1.526 . S
C893 C894 1.396 . S
C893 C898 1.390 . S
C894 C888 1.465 . S
C894 C893 1.396 . S
C894 C895 1.399 . S
C895 H881 0.929 . S
C895 C894 1.399 . S
C895 C896 1.385 . S
C896 H882 0.931 . S
C896 C895 1.385 . S
C896 C897 1.389 . S
C897 C896 1.389 . S
C897 C898 1.387 . S
C898 H883 0.930 . S
C898 C893 1.390 . S
C898 C897 1.387 . S
H899 C911 0.930 . S
H900 C913 0.930 . S
H901 C914 0.930 . S
H902 C918 0.959 . S
H903 C918 0.959 . S
H904 C918 0.961 . S
H905 C919 0.960 . S
H906 C919 0.961 . S
H907 C919 0.959 . S
H908 C922 0.929 . S
H909 C923 0.931 . S
H910 C925 0.930 . S
C911 H899 0.930 . S
C911 C912 1.399 . S
C911 C916 1.399 . S
C912 C911 1.399 . S
C912 C913 1.376 . S
C913 H900 0.930 . S
C913 C912 1.376 . S
C913 C914 1.388 . S
C914 H901 0.930 . S
C914 C913 1.388 . S
C914 C915 1.390 . S
C915 C914 1.390 . S
C915 C916 1.394 . S
C915 C921 1.465 . S
C916 C911 1.399 . S
C916 C915 1.394 . S
C916 C917 1.516 . S
C917 C916 1.516 . S
C917 C918 1.502 . S
C917 C919 1.561 . S
C917 C920 1.526 . S
C918 H902 0.959 . S
C918 H903 0.959 . S
C918 H904 0.961 . S
C918 C917 1.502 . S
C919 H905 0.960 . S
C919 H906 0.961 . S
C919 H907 0.959 . S
C919 C917 1.561 . S
C920 C917 1.526 . S
C920 C921 1.396 . S
C920 C925 1.390 . S
C921 C915 1.465 . S
C921 C920 1.396 . S
C921 C922 1.399 . S
C922 H908 0.929 . S
C922 C921 1.399 . S
C922 C923 1.385 . S
C923 H909 0.931 . S
C923 C922 1.385 . S
C923 C924 1.389 . S
C924 C923 1.389 . S
C924 C925 1.387 . S
C925 H910 0.930 . S
C925 C920 1.390 . S
C925 C924 1.387 . S
H926 C938 0.930 . S
H927 C940 0.930 . S
H928 C941 0.930 . S
H929 C945 0.959 . S
H930 C945 0.959 . S
H931 C945 0.961 . S
H932 C946 0.960 . S
H933 C946 0.961 . S
H934 C946 0.959 . S
H935 C949 0.929 . S
H936 C950 0.931 . S
H937 C952 0.930 . S
C938 H926 0.930 . S
C938 C939 1.399 . S
C938 C943 1.399 . S
C939 C938 1.399 . S
C939 C940 1.376 . S
C940 H927 0.930 . S
C940 C939 1.376 . S
C940 C941 1.388 . S
C941 H928 0.930 . S
C941 C940 1.388 . S
C941 C942 1.390 . S
C942 C941 1.390 . S
C942 C943 1.394 . S
C942 C948 1.465 . S
C943 C938 1.399 . S
C943 C942 1.394 . S
C943 C944 1.516 . S
C944 C943 1.516 . S
C944 C945 1.502 . S
C944 C946 1.561 . S
C944 C947 1.526 . S
C945 H929 0.959 . S
C945 H930 0.959 . S
C945 H931 0.961 . S
C945 C944 1.502 . S
C946 H932 0.960 . S
C946 H933 0.961 . S
C946 H934 0.959 . S
C946 C944 1.561 . S
C947 C944 1.526 . S
C947 C948 1.396 . S
C947 C952 1.390 . S
C948 C942 1.465 . S
C948 C947 1.396 . S
C948 C949 1.399 . S
C949 H935 0.929 . S
C949 C948 1.399 . S
C949 C950 1.385 . S
C950 H936 0.931 . S
C950 C949 1.385 . S
C950 C951 1.389 . S
C951 C950 1.389 . S
C951 C952 1.387 . S
C952 H937 0.930 . S
C952 C947 1.390 . S
C952 C951 1.387 . S
H953 C965 0.930 . S
H954 C967 0.930 . S
H955 C968 0.930 . S
H956 C972 0.959 . S
H957 C972 0.959 . S
H958 C972 0.961 . S
H959 C973 0.960 . S
H960 C973 0.961 . S
H961 C973 0.959 . S
H962 C976 0.929 . S
H963 C977 0.931 . S
H964 C979 0.930 . S
C965 H953 0.930 . S
C965 C966 1.399 . S
C965 C970 1.399 . S
C966 C965 1.399 . S
C966 C967 1.376 . S
C967 H954 0.930 . S
C967 C966 1.376 . S
C967 C968 1.388 . S
C968 H955 0.930 . S
C968 C967 1.388 . S
C968 C969 1.390 . S
C969 C968 1.390 . S
C969 C970 1.394 . S
C969 C975 1.465 . S
C970 C965 1.399 . S
C970 C969 1.394 . S
C970 C971 1.516 . S
C971 C970 1.516 . S
C971 C972 1.502 . S
C971 C973 1.561 . S
C971 C974 1.526 . S
C972 H956 0.959 . S
C972 H957 0.959 . S
C972 H958 0.961 . S
C972 C971 1.502 . S
C973 H959 0.960 . S
C973 H960 0.961 . S
C973 H961 0.959 . S
C973 C971 1.561 . S
C974 C971 1.526 . S
C974 C975 1.396 . S
C974 C979 1.390 . S
C975 C969 1.465 . S
C975 C974 1.396 . S
C975 C976 1.399 . S
C976 H962 0.929 . S
C976 C975 1.399 . S
C976 C977 1.385 . S
C977 H963 0.931 . S
C977 C976 1.385 . S
C977 C978 1.389 . S
C978 C977 1.389 . S
C978 C979 1.387 . S
C979 H964 0.930 . S
C979 C974 1.390 . S
C979 C978 1.387 . S
H980 C992 0.930 . S
H981 C994 0.930 . S
H982 C995 0.930 . S
H983 C999 0.959 . S
H984 C999 0.959 . S
H985 C999 0.961 . S
H986 C1000 0.960 . S
H987 C1000 0.961 . S
H988 C1000 0.959 . S
H989 C1003 0.929 . S
H990 C1004 0.931 . S
H991 C1006 0.930 . S
C992 H980 0.930 . S
C992 C993 1.399 . S
C992 C997 1.399 . S
C993 C992 1.399 . S
C993 C994 1.376 . S
C994 H981 0.930 . S
C994 C993 1.376 . S
C994 C995 1.388 . S
C995 H982 0.930 . S
C995 C994 1.388 . S
C995 C996 1.390 . S
C996 C995 1.390 . S
C996 C997 1.394 . S
C996 C1002 1.465 . S
C997 C992 1.399 . S
C997 C996 1.394 . S
C997 C998 1.516 . S
C998 C997 1.516 . S
C998 C999 1.502 . S
C998 C1000 1.561 . S
C998 C1001 1.526 . S
C999 H983 0.959 . S
C999 H984 0.959 . S
C999 H985 0.961 . S
C999 C998 1.502 . S
C1000 H986 0.960 . S
C1000 H987 0.961 . S
C1000 H988 0.959 . S
C1000 C998 1.561 . S
C1001 C998 1.526 . S
C1001 C1002 1.396 . S
C1001 C1006 1.390 . S
C1002 C996 1.465 . S
C1002 C1001 1.396 . S
C1002 C1003 1.399 . S
C1003 H989 0.929 . S
C1003 C1002 1.399 . S
C1003 C1004 1.385 . S
C1004 H990 0.931 . S
C1004 C1003 1.385 . S
C1004 C1005 1.389 . S
C1005 C1004 1.389 . S
C1005 C1006 1.387 . S
C1006 H991 0.930 . S
C1006 C1001 1.390 . S
C1006 C1005 1.387 . S
H1007 C1019 0.930 . S
H1008 C1021 0.930 . S
H1009 C1022 0.930 . S
H1010 C1026 0.959 . S
H1011 C1026 0.959 . S
H1012 C1026 0.961 . S
H1013 C1027 0.960 . S
H1014 C1027 0.961 . S
H1015 C1027 0.959 . S
H1016 C1030 0.929 . S
H1017 C1031 0.931 . S
H1018 C1033 0.930 . S
C1019 H1007 0.930 . S
C1019 C1020 1.399 . S
C1019 C1024 1.399 . S
C1020 C1019 1.399 . S
C1020 C1021 1.376 . S
C1021 H1008 0.930 . S
C1021 C1020 1.376 . S
C1021 C1022 1.388 . S
C1022 H1009 0.930 . S
C1022 C1021 1.388 . S
C1022 C1023 1.390 . S
C1023 C1022 1.390 . S
C1023 C1024 1.394 . S
C1023 C1029 1.465 . S
C1024 C1019 1.399 . S
C1024 C1023 1.394 . S
C1024 C1025 1.516 . S
C1025 C1024 1.516 . S
C1025 C1026 1.502 . S
C1025 C1027 1.561 . S
C1025 C1028 1.526 . S
C1026 H1010 0.959 . S
C1026 H1011 0.959 . S
C1026 H1012 0.961 . S
C1026 C1025 1.502 . S
C1027 H1013 0.960 . S
C1027 H1014 0.961 . S
C1027 H1015 0.959 . S
C1027 C1025 1.561 . S
C1028 C1025 1.526 . S
C1028 C1029 1.396 . S
C1028 C1033 1.390 . S
C1029 C1023 1.465 . S
C1029 C1028 1.396 . S
C1029 C1030 1.399 . S
C1030 H1016 0.929 . S
C1030 C1029 1.399 . S
C1030 C1031 1.385 . S
C1031 H1017 0.931 . S
C1031 C1030 1.385 . S
C1031 C1032 1.389 . S
C1032 C1031 1.389 . S
C1032 C1033 1.387 . S
C1033 H1018 0.930 . S
C1033 C1028 1.390 . S
C1033 C1032 1.387 . S
H1034 C1046 0.930 . S
H1035 C1048 0.930 . S
H1036 C1049 0.930 . S
H1037 C1053 0.959 . S
H1038 C1053 0.959 . S
H1039 C1053 0.961 . S
H1040 C1054 0.960 . S
H1041 C1054 0.961 . S
H1042 C1054 0.959 . S
H1043 C1057 0.929 . S
H1044 C1058 0.931 . S
H1045 C1060 0.930 . S
C1046 H1034 0.930 . S
C1046 C1047 1.399 . S
C1046 C1051 1.399 . S
C1047 C1046 1.399 . S
C1047 C1048 1.376 . S
C1048 H1035 0.930 . S
C1048 C1047 1.376 . S
C1048 C1049 1.388 . S
C1049 H1036 0.930 . S
C1049 C1048 1.388 . S
C1049 C1050 1.390 . S
C1050 C1049 1.390 . S
C1050 C1051 1.394 . S
C1050 C1056 1.465 . S
C1051 C1046 1.399 . S
C1051 C1050 1.394 . S
C1051 C1052 1.516 . S
C1052 C1051 1.516 . S
C1052 C1053 1.502 . S
C1052 C1054 1.561 . S
C1052 C1055 1.526 . S
C1053 H1037 0.959 . S
C1053 H1038 0.959 . S
C1053 H1039 0.961 . S
C1053 C1052 1.502 . S
C1054 H1040 0.960 . S
C1054 H1041 0.961 . S
C1054 H1042 0.959 . S
C1054 C1052 1.561 . S
C1055 C1052 1.526 . S
C1055 C1056 1.396 . S
C1055 C1060 1.390 . S
C1056 C1050 1.465 . S
C1056 C1055 1.396 . S
C1056 C1057 1.399 . S
C1057 H1043 0.929 . S
C1057 C1056 1.399 . S
C1057 C1058 1.385 . S
C1058 H1044 0.931 . S
C1058 C1057 1.385 . S
C1058 C1059 1.389 . S
C1059 C1058 1.389 . S
C1059 C1060 1.387 . S
C1060 H1045 0.930 . S
C1060 C1055 1.390 . S
C1060 C1059 1.387 . S
H1061 C1073 0.930 . S
H1062 C1075 0.930 . S
H1063 C1076 0.930 . S
H1064 C1080 0.959 . S
H1065 C1080 0.959 1_556 S
H1066 C1080 0.961 . S
H1067 C1081 0.960 . S
H1068 C1081 0.961 1_556 S
H1069 C1081 0.959 . S
H1070 C1084 0.928 1_554 S
H1071 C1085 0.931 . S
H1072 C1087 0.930 . S
C1073 H1061 0.930 . S
C1073 C1074 1.399 . S
C1073 C1078 1.399 . S
C1074 C1073 1.399 . S
C1074 C1075 1.376 . S
C1075 H1062 0.930 . S
C1075 C1074 1.376 . S
C1075 C1076 1.388 . S
C1076 H1063 0.930 . S
C1076 C1075 1.388 . S
C1076 C1077 1.390 . S
C1077 C1076 1.390 . S
C1077 C1078 1.394 . S
C1077 C1083 1.465 . S
C1078 C1073 1.399 . S
C1078 C1077 1.394 . S
C1078 C1079 1.516 . S
C1079 C1078 1.516 . S
C1079 C1080 1.502 . S
C1079 C1081 1.561 . S
C1079 C1082 1.526 1_554 S
C1080 H1064 0.959 . S
C1080 H1065 0.959 1_554 S
C1080 H1066 0.961 . S
C1080 C1079 1.502 . S
C1081 H1067 0.960 . S
C1081 H1068 0.961 1_554 S
C1081 H1069 0.959 . S
C1081 C1079 1.561 . S
C1082 C1079 1.526 1_556 S
C1082 C1083 1.396 1_556 S
C1082 C1087 1.390 . S
C1083 C1077 1.465 . S
C1083 C1082 1.396 1_554 S
C1083 C1084 1.399 1_554 S
C1084 H1070 0.928 1_556 S
C1084 C1083 1.399 1_556 S
C1084 C1085 1.385 . S
C1085 H1071 0.931 . S
C1085 C1084 1.385 . S
C1085 C1086 1.389 . S
C1086 C1085 1.389 . S
C1086 C1087 1.387 . S
C1087 H1072 0.930 . S
C1087 C1082 1.390 . S
C1087 C1086 1.387 . S
C237 C95 1.457 . S
C249 C11 1.488 . S
C264 C109 1.506 . S
C276 C25 1.443 . S
C291 C39 1.463 . S
C303 C67 1.482 . S
C318 C53 1.445 . S
C330 C81 1.506 . S
C345 C123 1.448 . S
C357 C207 1.498 . S
C372 C221 1.445 . S
C384 C137 1.506 . S
C399 C151 1.478 . S
C411 C179 1.478 . S
C426 C165 1.462 . S
C438 C193 1.492 . S
C453 C5 1.403 . S
C465 C145 1.432 . S
C480 C19 1.436 . S
C492 C159 1.400 . S
C507 C33 1.402 . S
C519 C117 1.433 . S
C534 C47 1.398 . S
C546 C131 1.438 . S
C561 C61 1.407 . S
C573 C201 1.429 . S
C588 C215 1.402 . S
C600 C75 1.433 . S
C615 C89 1.438 . S
C627 C173 1.398 . S
C642 C187 1.400 . S
C654 C103 1.435 . S
C669 C191 0.402 . S
C681 C9 0.609 . S
C696 C23 0.631 . S
C708 C205 0.363 . S
C723 C219 0.361 . S
C735 C37 0.629 . S
C750 C177 0.596 . S
C762 C51 0.408 . S
C777 C163 0.364 . S
C789 C65 0.628 . S
C804 C79 0.592 . S
C816 C121 0.434 . S
C831 C93 0.526 . S
C843 C135 0.512 . S
C858 C107 0.382 . S
C870 C149 0.611 . S
C885 C182 1.471 . S
C897 C0 1.473 . S
C912 C14 1.516 . S
C924 C196 1.515 . S
C939 C28 1.482 . S
C951 C210 1.477 . S
C966 C168 1.492 . S
C978 C42 1.485 . S
C993 C154 1.471 . S
C1005 C56 1.473 . S
C1020 C112 1.495 . S
C1032 C70 1.488 . S
C1047 C84 1.496 . S
C1059 C126 1.489 . S
C1074 C140 1.479 . S
C1086 C98 1.487 . S
