# Generated by pormake.
# Topology zfs, (5)-cn, num edge types: 1
# Building blocks:
#     Node 0, Type 0, BuildingBlock: BEQFEK_clean_sbu_0, # of connection points: 5
#     Node 1, Type 0, BuildingBlock: BEQFEK_clean_sbu_0, # of connection points: 5
#     Node 2, Type 0, BuildingBlock: BEQFEK_clean_sbu_0, # of connection points: 5
#     Node 3, Type 0, BuildingBlock: BEQFEK_clean_sbu_0, # of connection points: 5
#     Node 4, Type 0, BuildingBlock: BEQFEK_clean_sbu_0, # of connection points: 5
#     Node 5, Type 0, BuildingBlock: BEQFEK_clean_sbu_0, # of connection points: 5
#     Node 6, Type 0, BuildingBlock: BEQFEK_clean_sbu_0, # of connection points: 5
#     Node 7, Type 0, BuildingBlock: BEQFEK_clean_sbu_0, # of connection points: 5
#     Edge 8, Type (0, 0), BuildingBlock: XIVTED_clean_linker_0, # of connection points: 2
#     Edge 9, Type (0, 0), BuildingBlock: XIVTED_clean_linker_0, # of connection points: 2
#     Edge 10, Type (0, 0), BuildingBlock: XIVTED_clean_linker_0, # of connection points: 2
#     Edge 11, Type (0, 0), BuildingBlock: XIVTED_clean_linker_0, # of connection points: 2
#     Edge 12, Type (0, 0), BuildingBlock: XIVTED_clean_linker_0, # of connection points: 2
#     Edge 13, Type (0, 0), BuildingBlock: XIVTED_clean_linker_0, # of connection points: 2
#     Edge 14, Type (0, 0), BuildingBlock: XIVTED_clean_linker_0, # of connection points: 2
#     Edge 15, Type (0, 0), BuildingBlock: XIVTED_clean_linker_0, # of connection points: 2
#     Edge 16, Type (0, 0), BuildingBlock: XIVTED_clean_linker_0, # of connection points: 2
#     Edge 17, Type (0, 0), BuildingBlock: XIVTED_clean_linker_0, # of connection points: 2
#     Edge 18, Type (0, 0), BuildingBlock: XIVTED_clean_linker_0, # of connection points: 2
#     Edge 19, Type (0, 0), BuildingBlock: XIVTED_clean_linker_0, # of connection points: 2
#     Edge 20, Type (0, 0), BuildingBlock: XIVTED_clean_linker_0, # of connection points: 2
#     Edge 21, Type (0, 0), BuildingBlock: XIVTED_clean_linker_0, # of connection points: 2
#     Edge 22, Type (0, 0), BuildingBlock: XIVTED_clean_linker_0, # of connection points: 2
#     Edge 23, Type (0, 0), BuildingBlock: XIVTED_clean_linker_0, # of connection points: 2
#     Edge 24, Type (0, 0), BuildingBlock: XIVTED_clean_linker_0, # of connection points: 2
#     Edge 25, Type (0, 0), BuildingBlock: XIVTED_clean_linker_0, # of connection points: 2
#     Edge 26, Type (0, 0), BuildingBlock: XIVTED_clean_linker_0, # of connection points: 2
#     Edge 27, Type (0, 0), BuildingBlock: XIVTED_clean_linker_0, # of connection points: 2
# Relax obj value: 0.292
# Max RMSD: 0.156
# Mean RMSD: 0.156
data_MOF--net-zfs--node1-BEQFEK_clean_sbu_0--edge1-XIVTED_clean_linker_0
_symmetry_space_group_name_H-M    P1
_symmetry_Int_Tables_number       1
_symmetry_cell_setting            triclinic
loop_
_symmetry_equiv_pos_as_xyz
'x, y, z'
_cell_length_a     32.759319
_cell_length_b     32.732329
_cell_length_c     42.236926
_cell_angle_alpha  89.969302
_cell_angle_beta   89.999326
_cell_angle_gamma 89.962906
loop_
_atom_site_label
_atom_site_type_symbol
_atom_site_fract_x
_atom_site_fract_y
_atom_site_fract_z
_atom_type_partial_charge
Co0 Co 0.05209 0.26871 0.25156 0.0
Co1 Co 0.98473 0.27715 0.20055 0.0
C2 C 0.02374 0.35031 0.23292 0.0
O3 O 0.04766 0.32853 0.2495 0.0
O4 O 0.9985 0.33413 0.2138 0.0
C5 C 0.12909 0.27408 0.2854 0.0
O6 O 0.13977 0.30325 0.26571 0.0
C7 C 0.96946 0.30341 0.13715 0.0
C8 C 0.9114 0.27363 0.12425 0.0
C9 C 0.94317 0.29684 0.11185 0.0
N10 N 0.95433 0.28442 0.16275 0.0
N11 N 0.91908 0.26748 0.15523 0.0
C12 C 0.01103 0.3226 0.13652 0.0
H13 H 0.02833 0.31554 0.15836 0.0
H14 H 0.02871 0.31179 0.11574 0.0
H15 H 0.00773 0.35626 0.1349 0.0
C16 C 0.094 0.22342 0.19905 0.0
N17 N 0.06241 0.24471 0.21133 0.0
N18 N 0.03255 0.24583 0.19053 0.0
C19 C 0.04382 0.2243 0.16467 0.0
C20 C 0.08338 0.21008 0.16885 0.0
C21 C 0.13387 0.21732 0.21567 0.0
H22 H 0.14728 0.24755 0.22117 0.0
H23 H 0.15599 0.19993 0.2011 0.0
H24 H 0.12858 0.20112 0.23838 0.0
O25 O 0.0014 0.2457 0.27035 0.0
O26 O 0.95217 0.24918 0.23431 0.0
H27 H 0.02404 0.18301 0.12802 0.0
H28 H 0.01942 0.23612 0.11853 0.0
C29 C 0.016 0.21343 0.13783 0.0
H30 H 0.98384 0.21282 0.14587 0.0
H31 H 0.90161 0.24977 0.17066 0.0
O32 O 0.09512 0.25591 0.28216 0.0
C33 C 0.96462 0.23919 0.2619 0.0
Co34 Co 0.7342 0.06013 0.504 0.0
Co35 Co 0.72848 0.98991 0.45474 0.0
C36 C 0.65414 0.0276 0.48723 0.0
O37 O 0.67481 0.05474 0.50144 0.0
O38 O 0.67143 1.00073 0.47003 0.0
C39 C 0.72319 0.12178 0.55188 0.0
O40 O 0.68741 0.10485 0.55685 0.0
C41 C 0.70115 0.97552 0.39167 0.0
C42 C 0.74043 0.92567 0.37427 0.0
C43 C 0.71288 0.95528 0.36432 0.0
N44 N 0.7221 0.96005 0.41624 0.0
N45 N 0.74461 0.9293 0.40595 0.0
C46 C 0.67184 0.01053 0.39451 0.0
H47 H 0.64989 0.00432 0.41384 0.0
H48 H 0.68875 0.03883 0.40053 0.0
H49 H 0.65407 0.01514 0.37245 0.0
C50 C 0.77622 0.10186 0.4508 0.0
N51 N 0.75662 0.06963 0.46365 0.0
N52 N 0.75734 0.03891 0.4437 0.0
C53 C 0.77921 0.05011 0.41798 0.0
C54 C 0.79108 0.09063 0.42123 0.0
C55 C 0.77995 0.14265 0.46649 0.0
H56 H 0.80505 0.14141 0.4841 0.0
H57 H 0.75124 0.15011 0.47916 0.0
H58 H 0.78666 0.16705 0.449 0.0
O59 O 0.75925 0.01033 0.52389 0.0
O60 O 0.75882 0.95995 0.48848 0.0
H61 H 0.79752 0.99017 0.40298 0.0
H62 H 0.82381 0.03135 0.38333 0.0
C63 C 0.79398 0.02126 0.39302 0.0
H64 H 0.77184 0.02057 0.37329 0.0
H65 H 0.76541 0.91322 0.41993 0.0
O66 O 0.74695 0.10702 0.53106 0.0
C67 C 0.76785 0.97363 0.51595 0.0
Co68 Co 0.94701 0.73475 0.75452 0.0
Co69 Co 0.01548 0.72832 0.70427 0.0
C70 C 0.97697 0.6542 0.73661 0.0
O71 O 0.9502 0.67519 0.75099 0.0
O72 O 0.00403 0.67129 0.7195 0.0
C73 C 0.87052 0.72869 0.78879 0.0
O74 O 0.8601 0.69919 0.76935 0.0
C75 C 0.02752 0.70142 0.64069 0.0
C76 C 0.07922 0.73823 0.62332 0.0
C77 C 0.04828 0.71224 0.61336 0.0
N78 N 0.04404 0.72145 0.66528 0.0
N79 N 0.07582 0.74246 0.655 0.0
C80 C 0.99113 0.67389 0.64351 0.0
H81 H 0.99579 0.65211 0.66323 0.0
H82 H 0.96357 0.69233 0.64889 0.0
H83 H 0.98615 0.65588 0.62162 0.0
C84 C 0.90529 0.78123 0.70285 0.0
N85 N 0.93672 0.75951 0.71492 0.0
N86 N 0.96692 0.75908 0.69444 0.0
C87 C 0.95612 0.78189 0.66911 0.0
C88 C 0.91645 0.79587 0.67315 0.0
C89 C 0.86524 0.78687 0.71928 0.0
H90 H 0.85238 0.75651 0.72517 0.0
H91 H 0.84293 0.80361 0.70441 0.0
H92 H 0.87014 0.80364 0.74178 0.0
O93 O 0.9983 0.75716 0.77344 0.0
O94 O 0.04775 0.75728 0.73741 0.0
H95 H 0.97567 0.82523 0.63372 0.0
H96 H 0.98376 0.77265 0.6239 0.0
C97 C 0.98473 0.79505 0.64346 0.0
H98 H 0.01624 0.79728 0.65277 0.0
H99 H 0.09303 0.76222 0.66905 0.0
O100 O 0.90419 0.74731 0.78523 0.0
C101 C 0.03491 0.76536 0.76527 0.0
Co102 Co 0.27025 0.94839 0.00441 0.0
Co103 Co 0.27558 0.01472 0.95202 0.0
C104 C 0.35019 0.98038 0.98647 0.0
O105 O 0.32958 0.9551 0.00266 0.0
O106 O 0.33289 0.00466 0.96711 0.0
C107 C 0.2782 0.87263 0.03904 0.0
O108 O 0.30741 0.86275 0.01916 0.0
C109 C 0.30089 0.02173 0.88758 0.0
C110 C 0.26675 0.07448 0.86879 0.0
C111 C 0.29102 0.04171 0.85972 0.0
N112 N 0.28212 0.0406 0.91179 0.0
N113 N 0.26261 0.07288 0.90059 0.0
C114 C 0.3259 0.98358 0.89105 0.0
H115 H 0.3055 0.95698 0.89468 0.0
H116 H 0.3452 0.97821 0.86987 0.0
H117 H 0.34607 0.98594 0.9119 0.0
C118 C 0.22625 0.9031 0.95296 0.0
N119 N 0.24701 0.93547 0.9646 0.0
N120 N 0.24593 0.96536 0.94383 0.0
C121 C 0.22292 0.95359 0.91895 0.0
C122 C 0.21073 0.91344 0.92333 0.0
C123 C 0.22184 0.86318 0.96985 0.0
H124 H 0.20611 0.86819 0.99279 0.0
H125 H 0.25257 0.85065 0.97491 0.0
H126 H 0.20467 0.84051 0.95566 0.0
O127 O 0.24503 0.99931 0.02122 0.0
O128 O 0.24563 0.04801 0.98448 0.0
H129 H 0.20581 0.01353 0.90281 0.0
H130 H 0.1763 0.9724 0.886 0.0
C131 C 0.20726 0.98179 0.89381 0.0
H132 H 0.22755 0.98047 0.87295 0.0
H133 H 0.24407 0.09195 0.91421 0.0
O134 O 0.25892 0.90603 0.03581 0.0
C135 C 0.23647 0.03558 0.01231 0.0
Co136 Co 0.05794 0.73464 0.2452 0.0
Co137 Co 0.9894 0.72784 0.29599 0.0
C138 C 0.02619 0.65395 0.26217 0.0
O139 O 0.05158 0.67504 0.24642 0.0
O140 O 1.00116 0.67081 0.28118 0.0
C141 C 0.12026 0.7243 0.19744 0.0
O142 O 0.10432 0.68809 0.19237 0.0
C143 C 0.97784 0.70265 0.36006 0.0
C144 C 0.92487 0.73824 0.3767 0.0
C145 C 0.95656 0.71345 0.38714 0.0
N146 N 0.9608 0.7215 0.33508 0.0
N147 N 0.92836 0.74185 0.34496 0.0
C148 C 0.01543 0.67662 0.35798 0.0
H149 H 0.01349 0.65617 0.33728 0.0
H150 H 0.04267 0.69632 0.35488 0.0
H151 H 0.01926 0.65746 0.37945 0.0
C152 C 0.10011 0.77782 0.29796 0.0
N153 N 0.06825 0.75699 0.28569 0.0
N154 N 0.03781 0.75771 0.30589 0.0
C155 C 0.04869 0.7807 0.33106 0.0
C156 C 0.08883 0.79336 0.32732 0.0
C157 C 0.14043 0.78262 0.28179 0.0
H158 H 0.13809 0.80755 0.26406 0.0
H159 H 0.14855 0.754 0.26922 0.0
H160 H 0.16486 0.79031 0.29897 0.0
O161 O 0.00784 0.75979 0.22635 0.0
O162 O 0.95817 0.7574 0.26235 0.0
H163 H 0.9883 0.79745 0.34616 0.0
H164 H 0.02872 0.82667 0.36418 0.0
C165 C 0.01969 0.79584 0.35579 0.0
H166 H 0.02033 0.77503 0.37641 0.0
H167 H 0.91059 0.7607 0.33055 0.0
O168 O 0.10449 0.74788 0.21794 0.0
C169 C 0.97115 0.7673 0.23483 0.0
Co170 Co 0.26967 0.05989 0.49529 0.0
Co171 Co 0.2753 0.98935 0.54427 0.0
C172 C 0.3497 0.02682 0.51185 0.0
O173 O 0.32922 0.05429 0.49776 0.0
O174 O 0.33223 1.00004 0.52901 0.0
C175 C 0.28 0.12103 0.44688 0.0
O176 O 0.3154 0.10352 0.44145 0.0
C177 C 0.30156 0.9735 0.60761 0.0
C178 C 0.26558 0.91995 0.62256 0.0
C179 C 0.29135 0.95028 0.63386 0.0
N180 N 0.28159 0.95872 0.58233 0.0
N181 N 0.26094 0.92597 0.59115 0.0
C182 C 0.32845 0.01053 0.6066 0.0
H183 H 0.30939 0.03837 0.60414 0.0
H184 H 0.34753 0.01298 0.62821 0.0
H185 H 0.34898 0.00894 0.58585 0.0
C186 C 0.22741 0.10111 0.54884 0.0
N187 N 0.24708 0.06906 0.53575 0.0
N188 N 0.24641 0.03811 0.55552 0.0
C189 C 0.2245 0.04891 0.58129 0.0
C190 C 0.21258 0.08948 0.57836 0.0
C191 C 0.22369 0.14212 0.53347 0.0
H192 H 0.19835 0.14129 0.51605 0.0
H193 H 0.25226 0.14956 0.5206 0.0
H194 H 0.21734 0.16633 0.55118 0.0
O195 O 0.24474 0.01018 0.47507 0.0
O196 O 0.24513 0.95981 0.51051 0.0
H197 H 0.20729 0.9885 0.59613 0.0
H198 H 0.17983 0.02919 0.61554 0.0
C199 C 0.20999 0.01967 0.60609 0.0
H200 H 0.23185 0.01934 0.62601 0.0
H201 H 0.24144 0.90958 0.57632 0.0
O202 O 0.25673 0.10693 0.4683 0.0
C203 C 0.23621 0.97347 0.48303 0.0
Co204 Co 0.94966 0.26955 0.74647 0.0
Co205 Co 0.01726 0.27544 0.79735 0.0
C206 C 0.97928 0.3498 0.76461 0.0
O207 O 0.95236 0.32906 0.75024 0.0
O208 O 0.00617 0.33241 0.78171 0.0
C209 C 0.87345 0.2754 0.71232 0.0
O210 O 0.8626 0.30366 0.73272 0.0
C211 C 0.02299 0.30166 0.86154 0.0
C212 C 0.07872 0.27273 0.88033 0.0
C213 C 0.04442 0.29484 0.88924 0.0
N214 N 0.0428 0.28356 0.83749 0.0
N215 N 0.07673 0.26709 0.84866 0.0
C216 C 0.98263 0.32295 0.85832 0.0
H217 H 0.95785 0.30003 0.85646 0.0
H218 H 0.97652 0.34293 0.87901 0.0
H219 H 0.98207 0.34182 0.83662 0.0
C220 C 0.90758 0.22193 0.79758 0.0
N221 N 0.93875 0.24422 0.78572 0.0
N222 N 0.96923 0.24376 0.8059 0.0
C223 C 0.95922 0.21949 0.83055 0.0
C224 C 0.91944 0.20584 0.82671 0.0
C225 C 0.86725 0.21694 0.78144 0.0
H226 H 0.85414 0.2475 0.77658 0.0
H227 H 0.84528 0.19942 0.79605 0.0
H228 H 0.87181 0.20128 0.75842 0.0
O229 O 0.00187 0.24746 0.72846 0.0
O230 O 0.05089 0.24676 0.76494 0.0
H231 H 0.98111 0.17279 0.86229 0.0
H232 H 0.98777 0.22405 0.87592 0.0
C233 C 0.98896 0.20432 0.85476 0.0
H234 H 0.02038 0.20458 0.84503 0.0
H235 H 0.09704 0.24978 0.83516 0.0
O236 O 0.90752 0.25725 0.71512 0.0
C237 C 0.03839 0.23906 0.7369 0.0
Co238 Co 0.7344 0.94744 0.99683 0.0
Co239 Co 0.72813 0.01652 0.04728 0.0
C240 C 0.65413 0.98113 0.01271 0.0
O241 O 0.67501 0.95527 0.99723 0.0
O242 O 0.67108 0.00584 0.03192 0.0
C243 C 0.72339 0.883 0.95065 0.0
O244 O 0.68608 0.8969 0.94692 0.0
C245 C 0.70247 0.0283 0.11121 0.0
C246 C 0.73891 0.08042 0.12826 0.0
C247 C 0.7135 0.0491 0.13845 0.0
N248 N 0.72175 0.04521 0.08637 0.0
N249 N 0.74261 0.07718 0.09651 0.0
C250 C 0.67579 0.99122 0.10884 0.0
H251 H 0.69498 0.96359 0.10572 0.0
H252 H 0.65643 0.98761 0.13021 0.0
H253 H 0.65556 0.99374 0.08804 0.0
C254 C 0.77542 0.90452 0.05025 0.0
N255 N 0.75557 0.93682 0.03763 0.0
N256 N 0.7568 0.96745 0.05764 0.0
C257 C 0.77924 0.95623 0.08304 0.0
C258 C 0.79087 0.91569 0.07967 0.0
C259 C 0.77952 0.86394 0.03432 0.0
H260 H 0.80492 0.86545 0.01698 0.0
H261 H 0.75104 0.85653 0.02135 0.0
H262 H 0.78612 0.83941 0.05172 0.0
O263 O 0.76108 0.99685 0.97819 0.0
O264 O 0.75897 0.04702 0.01379 0.0
H265 H 0.79728 0.01647 0.09769 0.0
H266 H 0.8258 0.97556 0.11584 0.0
C267 C 0.79511 0.98518 0.10753 0.0
H268 H 0.7745 0.98516 0.12824 0.0
H269 H 0.7619 0.09469 0.08228 0.0
O270 O 0.74754 0.90058 0.96981 0.0
C271 C 0.76922 0.03349 0.98649 0.0
H272 H 0.0015 0.59595 0.30482 0.0
H273 H 0.00717 0.40818 0.188 0.0
H274 H 0.04912 0.60991 0.21016 0.0
H275 H 0.04198 0.39424 0.28594 0.0
H276 H 0.00826 0.48277 0.19485 0.0
H277 H 0.00174 0.52161 0.2976 0.0
C278 C 0.0119 0.58342 0.28253 0.0
C279 C 0.02558 0.6091 0.25812 0.0
C280 C 0.01569 0.46323 0.21474 0.0
C281 C 0.02498 0.52446 0.24957 0.0
C282 C 0.01492 0.42084 0.21092 0.0
C283 C 0.02462 0.39516 0.23644 0.0
C284 C 0.02501 0.47984 0.24449 0.0
C285 C 0.03459 0.41304 0.26563 0.0
C286 C 0.01214 0.54109 0.2785 0.0
C287 C 0.03865 0.59116 0.22966 0.0
N288 N 0.03407 0.45434 0.26898 0.0
N289 N 0.03765 0.5499 0.22602 0.0
H290 H 0.60496 0.09152 0.50372 0.0
H291 H 0.4016 0.9621 0.52052 0.0
H292 H 0.60108 0.96379 0.47852 0.0
H293 H 0.4 0.08984 0.49511 0.0
H294 H 0.47603 0.96174 0.51396 0.0
H295 H 0.53062 0.09113 0.50947 0.0
C296 C 0.58848 0.06336 0.49948 0.0
C297 C 0.60921 0.02761 0.4906 0.0
C298 C 0.45925 0.98976 0.50979 0.0
C299 C 0.52435 0.02695 0.49755 0.0
C300 C 0.4169 0.99007 0.51367 0.0
C301 C 0.3946 0.02605 0.50829 0.0
C302 C 0.47946 0.02588 0.5012 0.0
C303 C 0.41597 0.06139 0.49934 0.0
C304 C 0.5461 0.06325 0.50263 0.0
C305 C 0.58627 0.99205 0.48527 0.0
N306 N 0.45726 0.06051 0.49634 0.0
N307 N 0.54503 0.9925 0.4891 0.0
H308 H 0.91285 0.60518 0.75301 0.0
H309 H 0.04337 0.40241 0.77313 0.0
H310 H 0.04072 0.6009 0.7286 0.0
H311 H 0.91569 0.39955 0.74805 0.0
H312 H 0.04314 0.47679 0.76573 0.0
H313 H 0.91342 0.53087 0.75991 0.0
C314 C 0.94105 0.58862 0.74914 0.0
C315 C 0.9768 0.60922 0.74018 0.0
C316 C 0.01525 0.45976 0.76185 0.0
C317 C 0.97771 0.52445 0.74851 0.0
C318 C 0.01527 0.41744 0.76623 0.0
C319 C 0.97951 0.39478 0.76112 0.0
C320 C 0.97901 0.47961 0.75301 0.0
C321 C 0.94399 0.4158 0.75207 0.0
C322 C 0.94128 0.54626 0.75298 0.0
C323 C 0.01244 0.58618 0.73537 0.0
N324 N 0.94455 0.45708 0.74853 0.0
N325 N 0.01211 0.54502 0.73989 0.0
H326 H 0.39396 0.96193 0.03953 0.0
H327 H 0.61081 0.9599 0.95997 0.0
H328 H 0.40825 0.00196 0.9428 0.0
H329 H 0.59567 0.00533 0.05514 0.0
H330 H 0.53639 0.96152 0.95314 0.0
H331 H 0.46837 0.96394 0.04596 0.0
C332 C 0.41276 0.97098 0.01963 0.0
C333 C 0.39498 0.98177 0.99057 0.0
C334 C 0.54954 0.97117 0.97544 0.0
C335 C 0.47975 0.98334 0.99766 0.0
C336 C 0.59184 0.97008 0.97944 0.0
C337 C 0.60939 0.98244 0.0082 0.0
C338 C 0.52465 0.98356 0.00068 0.0
C339 C 0.58342 0.99559 0.0326 0.0
C340 C 0.45506 0.97231 0.02339 0.0
C341 C 0.42073 0.99351 0.9656 0.0
N342 N 0.54225 0.99531 0.02844 0.0
N343 N 0.46195 0.99349 0.96959 0.0
H344 H 0.31248 0.14893 0.39086 0.0
H345 H 0.10463 0.25276 0.34398 0.0
H346 H 0.21314 0.16878 0.45629 0.0
H347 H 0.21271 0.26871 0.28703 0.0
H348 H 0.14643 0.22566 0.38663 0.0
H349 H 0.28008 0.19662 0.35375 0.0
C350 C 0.28426 0.1638 0.39763 0.0
C351 C 0.26494 0.15418 0.42635 0.0
C352 C 0.1613 0.23552 0.36504 0.0
C353 C 0.22791 0.20836 0.38421 0.0
C354 C 0.13738 0.2508 0.34066 0.0
C355 C 0.15537 0.26245 0.31201 0.0
C356 C 0.20349 0.23084 0.36049 0.0
C357 C 0.19788 0.25986 0.3089 0.0
C358 C 0.26585 0.19102 0.37649 0.0
C359 C 0.22865 0.17457 0.4341 0.0
N360 N 0.22061 0.24349 0.33273 0.0
N361 N 0.21106 0.20022 0.41297 0.0
H362 H 0.69031 0.15021 0.60757 0.0
H363 H 0.89736 0.25641 0.65313 0.0
H364 H 0.78954 0.16992 0.54204 0.0
H365 H 0.78996 0.26916 0.71132 0.0
H366 H 0.85535 0.22969 0.61051 0.0
H367 H 0.72223 0.19866 0.64426 0.0
C368 C 0.7184 0.16522 0.60068 0.0
C369 C 0.73787 0.15533 0.5721 0.0
C370 C 0.84065 0.23878 0.63236 0.0
C371 C 0.77434 0.21039 0.61372 0.0
C372 C 0.8647 0.25386 0.65672 0.0
C373 C 0.84698 0.26443 0.6857 0.0
C374 C 0.79864 0.23317 0.63729 0.0
C375 C 0.80457 0.26113 0.68918 0.0
C376 C 0.73654 0.19287 0.62158 0.0
C377 C 0.77396 0.1759 0.56416 0.0
N378 N 0.78175 0.24493 0.66537 0.0
N379 N 0.79128 0.20199 0.58505 0.0
H380 H 0.79225 0.83856 0.9605 0.0
H381 H 0.78671 0.7284 0.792 0.0
H382 H 0.68994 0.85008 0.89665 0.0
H383 H 0.89517 0.75538 0.84601 0.0
H384 H 0.74499 0.75634 0.83552 0.0
H385 H 0.82348 0.78992 0.92446 0.0
C386 C 0.77614 0.83057 0.93899 0.0
C387 C 0.73894 0.84914 0.93114 0.0
C388 C 0.7779 0.75551 0.83787 0.0
C389 C 0.77476 0.79365 0.88962 0.0
C390 C 0.80157 0.73955 0.81321 0.0
C391 C 0.84427 0.7403 0.81543 0.0
C392 C 0.79735 0.77138 0.86484 0.0
C393 C 0.8623 0.75495 0.84323 0.0
C394 C 0.794 0.80275 0.91843 0.0
C395 C 0.719 0.83687 0.9033 0.0
N396 N 0.83876 0.77004 0.86677 0.0
N397 N 0.73754 0.81028 0.88315 0.0
H398 H 0.27558 0.78883 0.03977 0.0
H399 H 0.16831 0.79011 0.20939 0.0
H400 H 0.25487 0.89544 0.09756 0.0
H401 H 0.15062 0.69266 0.14191 0.0
H402 H 0.21824 0.82084 0.17416 0.0
H403 H 0.24674 0.74605 0.08231 0.0
C404 C 0.26573 0.803 0.06165 0.0
C405 C 0.26694 0.84555 0.06524 0.0
C406 C 0.20377 0.79251 0.16715 0.0
C407 C 0.23475 0.79743 0.1135 0.0
C408 C 0.17519 0.77496 0.18724 0.0
C409 C 0.15456 0.73934 0.17817 0.0
C410 C 0.21157 0.77459 0.13761 0.0
C411 C 0.16544 0.72052 0.14953 0.0
C412 C 0.24923 0.77874 0.08573 0.0
C413 C 0.25383 0.86273 0.0938 0.0
N414 N 0.19284 0.73879 0.1299 0.0
N415 N 0.23811 0.83862 0.11678 0.0
H416 H 0.91892 0.24829 0.06306 0.0
H417 H 0.08358 0.32532 0.94153 0.0
H418 H 0.98673 0.35863 0.08218 0.0
H419 H 0.96908 0.27352 0.91103 0.0
H420 H 0.05555 0.33086 0.99562 0.0
H421 H 0.94225 0.25096 0.00824 0.0
C422 C 0.93851 0.27324 0.05579 0.0
C423 C 0.95211 0.30242 0.0777 0.0
C424 C 0.03667 0.31865 0.97683 0.0
C425 C 0.97961 0.30497 0.01519 0.0
C426 C 0.05265 0.3153 0.94619 0.0
C427 C 0.0285 0.29936 0.92177 0.0
C428 C 0.99685 0.30478 0.98296 0.0
C429 C 0.98869 0.28644 0.92895 0.0
C430 C 0.95198 0.27456 0.02454 0.0
C431 C 0.97723 0.33421 0.06669 0.0
N432 N 0.97425 0.2891 0.95892 0.0
N433 N 0.99088 0.33424 0.03629 0.0
H434 H 0.71724 0.97036 0.16098 0.0
H435 H 0.71247 0.03428 0.34218 0.0
H436 H 0.70336 0.09526 0.19188 0.0
H437 H 0.70575 0.90903 0.31073 0.0
H438 H 0.70849 0.05703 0.28769 0.0
H439 H 0.71263 0.94764 0.21537 0.0
C440 C 0.71211 0.99312 0.17906 0.0
C441 C 0.7092 0.03487 0.1716 0.0
C442 C 0.70722 0.02459 0.29263 0.0
C443 C 0.70569 0.00877 0.23461 0.0
C444 C 0.70896 0.01142 0.32393 0.0
C445 C 0.70795 0.96952 0.33124 0.0
C446 C 0.70529 0.99572 0.26822 0.0
C447 C 0.70593 0.94159 0.30618 0.0
C448 C 0.70997 0.97998 0.21033 0.0
C449 C 0.70509 0.06278 0.19654 0.0
N450 N 0.70468 0.95518 0.27574 0.0
N451 N 0.70343 0.04923 0.22698 0.0
H452 H 0.96958 0.71489 0.59083 0.0
H453 H 0.03484 0.71855 0.4102 0.0
H454 H 0.09467 0.70286 0.5601 0.0
H455 H 0.90994 0.70246 0.44021 0.0
H456 H 0.05698 0.71381 0.46471 0.0
H457 H 0.94722 0.71107 0.53624 0.0
C458 C 0.99243 0.71023 0.57273 0.0
C459 C 0.03416 0.70766 0.58026 0.0
C460 C 0.02478 0.71067 0.45944 0.0
C461 C 0.00849 0.70525 0.51716 0.0
C462 C 0.01199 0.71289 0.4281 0.0
C463 C 0.97042 0.70935 0.42036 0.0
C464 C 0.99581 0.70576 0.4835 0.0
C465 C 0.9423 0.70467 0.4451 0.0
C466 C 0.97951 0.70858 0.54138 0.0
C467 C 0.06221 0.70428 0.55537 0.0
N468 N 0.95551 0.703 0.47562 0.0
N469 N 0.04888 0.7032 0.52488 0.0
H470 H 0.30566 0.89923 0.68376 0.0
H471 H 0.28191 0.96271 0.8394 0.0
H472 H 0.28735 0.02641 0.6609 0.0
H473 H 0.30674 0.08446 0.80536 0.0
H474 H 0.28596 0.93714 0.78603 0.0
H475 H 0.31057 0.91772 0.73967 0.0
C476 C 0.30278 0.93102 0.69055 0.0
C477 C 0.29682 0.96126 0.66756 0.0
C478 C 0.29191 0.96921 0.79 0.0
C479 C 0.30046 0.98282 0.73158 0.0
C480 C 0.28954 0.98403 0.82079 0.0
C481 C 0.29538 0.02575 0.82711 0.0
C482 C 0.3 0.99631 0.76505 0.0
C483 C 0.30275 0.05199 0.80157 0.0
C484 C 0.30513 0.94164 0.72254 0.0
C485 C 0.2931 0.00204 0.67756 0.0
N486 N 0.30485 0.03683 0.77161 0.0
N487 N 0.29494 0.01155 0.70875 0.0
H488 H 0.09779 0.22786 0.10671 0.0
H489 H 0.22069 0.02038 0.07467 0.0
H490 H 0.12384 0.13781 0.17836 0.0
H491 H 0.20416 0.11296 0.00292 0.0
H492 H 0.18521 0.06351 0.11247 0.0
H493 H 0.13607 0.18691 0.06812 0.0
C494 C 0.11175 0.19948 0.11429 0.0
C495 C 0.10799 0.18629 0.14579 0.0
C496 C 0.18933 0.07458 0.08852 0.0
C497 C 0.15169 0.13923 0.10184 0.0
C498 C 0.20963 0.04986 0.06675 0.0
C499 C 0.21546 0.06288 0.03534 0.0
C500 C 0.17434 0.11283 0.07905 0.0
C501 C 0.20043 0.10159 0.02681 0.0
C502 C 0.13366 0.1762 0.09231 0.0
C503 C 0.12661 0.1494 0.15444 0.0
N504 N 0.18044 0.12514 0.04851 0.0
N505 N 0.14754 0.12715 0.1326 0.0
H506 H 0.88762 0.20738 0.25174 0.0
H507 H 0.85845 0.13786 0.43278 0.0
H508 H 0.9777 0.22587 0.32496 0.0
H509 H 0.77849 0.0989 0.35762 0.0
H510 H 0.89893 0.17622 0.39413 0.0
H511 H 0.84372 0.17304 0.29065 0.0
C512 C 0.89811 0.20441 0.27595 0.0
C513 C 0.93655 0.21943 0.28497 0.0
C514 C 0.87246 0.1594 0.38604 0.0
C515 C 0.88643 0.18033 0.32962 0.0
C516 C 0.84922 0.13775 0.40816 0.0
C517 C 0.8151 0.11531 0.39836 0.0
C518 C 0.86141 0.15875 0.35385 0.0
C519 C 0.80481 0.11564 0.36608 0.0
C520 C 0.87309 0.18472 0.29814 0.0
C521 C 0.94849 0.21462 0.31675 0.0
N522 N 0.82783 0.13702 0.34497 0.0
N523 N 0.92359 0.19559 0.33782 0.0
H524 H 0.78435 0.99001 0.57828 0.0
H525 H 0.90397 0.7805 0.61054 0.0
H526 H 0.79885 0.89597 0.50752 0.0
H527 H 0.87521 0.8677 0.6836 0.0
H528 H 0.86705 0.82281 0.57213 0.0
H529 H 0.81882 0.94629 0.61666 0.0
C530 C 0.79477 0.96015 0.57072 0.0
C531 C 0.78863 0.94679 0.53945 0.0
C532 C 0.86853 0.83262 0.59658 0.0
C533 C 0.82842 0.89634 0.58362 0.0
C534 C 0.88965 0.80853 0.61847 0.0
C535 C 0.89231 0.82053 0.6503 0.0
C536 C 0.85019 0.86927 0.60649 0.0
C537 C 0.87331 0.85707 0.65938 0.0
C538 C 0.81442 0.93512 0.59277 0.0
C539 C 0.80281 0.90764 0.53129 0.0
N540 N 0.85318 0.88022 0.63758 0.0
N541 N 0.82213 0.8839 0.55318 0.0
H542 H 0.01987 0.77842 0.82817 0.0
H543 H 0.2268 0.90123 0.86089 0.0
H544 H 0.11234 0.79699 0.75676 0.0
H545 H 0.1404 0.86975 0.93382 0.0
H546 H 0.18558 0.86354 0.82231 0.0
H547 H 0.06364 0.81185 0.86686 0.0
C548 C 0.04943 0.78948 0.82054 0.0
C549 C 0.06228 0.7849 0.78897 0.0
C550 C 0.17574 0.86453 0.84677 0.0
C551 C 0.11282 0.82355 0.83356 0.0
C552 C 0.19921 0.88608 0.86877 0.0
C553 C 0.18709 0.88826 0.90059 0.0
C554 C 0.13957 0.8453 0.85659 0.0
C555 C 0.15114 0.86821 0.90961 0.0
C556 C 0.0745 0.80855 0.84278 0.0
C557 C 0.10108 0.7998 0.78076 0.0
N558 N 0.12855 0.84772 0.8877 0.0
N559 N 0.12487 0.8186 0.80286 0.0
H560 H 0.09776 0.78122 0.3907 0.0
H561 H 0.22155 0.9885 0.42014 0.0
H562 H 0.1343 0.86221 0.3154 0.0
H563 H 0.20415 0.89661 0.49225 0.0
H564 H 0.18767 0.94399 0.38193 0.0
H565 H 0.13452 0.82418 0.42861 0.0
C566 C 0.11367 0.80806 0.38218 0.0
C567 C 0.11309 0.8182 0.34991 0.0
C568 C 0.19134 0.9335 0.40608 0.0
C569 C 0.15515 0.86766 0.39313 0.0
C570 C 0.2106 0.95898 0.42801 0.0
C571 C 0.21574 0.94641 0.4596 0.0
C572 C 0.17669 0.89516 0.41573 0.0
C573 C 0.20096 0.90767 0.46822 0.0
C574 C 0.13475 0.8325 0.40379 0.0
C575 C 0.13439 0.85311 0.34004 0.0
N576 N 0.182 0.88355 0.44647 0.0
N577 N 0.15437 0.87672 0.36159 0.0
H578 H 0.22599 0.09614 0.64192 0.0
H579 H 0.02523 0.2294 0.67344 0.0
H580 H 0.14554 0.13798 0.56795 0.0
H581 H 0.11417 0.20382 0.74624 0.0
H582 H 0.06868 0.19522 0.63493 0.0
H583 H 0.18534 0.13416 0.68074 0.0
C584 C 0.19975 0.11342 0.63388 0.0
C585 C 0.18908 0.11397 0.6017 0.0
C586 C 0.07887 0.19716 0.65928 0.0
C587 C 0.14241 0.15757 0.64594 0.0
C588 C 0.05397 0.21665 0.68141 0.0
C589 C 0.0659 0.21947 0.71331 0.0
C590 C 0.11605 0.17989 0.66894 0.0
C591 C 0.10368 0.20245 0.72197 0.0
C592 C 0.17668 0.13525 0.65602 0.0
C593 C 0.15507 0.1371 0.59248 0.0
N594 N 0.12729 0.18319 0.69995 0.0
N595 N 0.13284 0.15779 0.6145 0.0
H596 H 0.87681 0.13504 0.81572 0.0
H597 H 0.80092 0.11078 0.99574 0.0
H598 H 0.90874 0.21974 0.88972 0.0
H599 H 0.78646 0.01762 0.92429 0.0
H600 H 0.83649 0.15349 0.95676 0.0
H601 H 0.83915 0.09398 0.85457 0.0
C602 C 0.8755 0.14515 0.84011 0.0
C603 C 0.89555 0.18093 0.84952 0.0
C604 C 0.82551 0.12368 0.94967 0.0
C605 C 0.85304 0.13399 0.89425 0.0
C606 C 0.80512 0.09929 0.97192 0.0
C607 C 0.79068 0.0604 0.96343 0.0
C608 C 0.83126 0.10925 0.91861 0.0
C609 C 0.79712 0.04724 0.93211 0.0
C610 C 0.85428 0.12161 0.86234 0.0
C611 C 0.89368 0.19226 0.88155 0.0
N612 N 0.81679 0.07156 0.91093 0.0
N613 N 0.87274 0.16897 0.90275 0.0
H614 H 0.98483 0.78151 0.17187 0.0
H615 H 0.779 0.90774 0.14324 0.0
H616 H 0.89429 0.79951 0.24484 0.0
H617 H 0.85858 0.86863 0.06786 0.0
H618 H 0.82157 0.87043 0.18124 0.0
H619 H 0.94 0.81543 0.13406 0.0
C620 C 0.9555 0.7926 0.18003 0.0
C621 C 0.94346 0.78764 0.21175 0.0
C622 C 0.82961 0.86975 0.15638 0.0
C623 C 0.89174 0.82682 0.16822 0.0
C624 C 0.80542 0.89113 0.13472 0.0
C625 C 0.8153 0.89114 0.10238 0.0
C626 C 0.86425 0.84853 0.14569 0.0
C627 C 0.84965 0.869 0.09253 0.0
C628 C 0.92982 0.8119 0.1583 0.0
C629 C 0.90491 0.80258 0.22069 0.0
N630 N 0.87302 0.84879 0.11411 0.0
N631 N 0.88054 0.82166 0.19909 0.0
loop_
_geom_bond_atom_site_label_1
_geom_bond_atom_site_label_2
_geom_bond_distance
_geom_bond_site_symmetry_2
_ccdc_geom_bond_type
Co0 O3 1.970 . S
Co0 N17 1.989 . S
Co0 O25 1.967 . S
Co0 O32 1.920 . S
Co1 O4 1.966 . S
Co1 N10 2.022 . S
Co1 N18 1.993 . S
Co1 O26 1.941 . S
C2 O3 1.258 . S
C2 O4 1.263 . S
O3 Co0 1.970 . S
O3 C2 1.258 . S
O4 Co1 1.966 . S
O4 C2 1.263 . S
C5 O6 1.235 . S
C5 O32 1.289 . S
O6 C5 1.235 . S
C7 C9 1.400 . S
C7 N10 1.351 . S
C7 C12 1.501 . S
C8 C9 1.387 . S
C8 N11 1.341 . S
C9 C7 1.400 . S
C9 C8 1.387 . S
N10 Co1 2.022 . S
N10 C7 1.351 . S
N10 N11 1.365 . S
N11 C8 1.341 . S
N11 N10 1.365 . S
N11 H31 0.862 . S
C12 C7 1.501 . S
C12 H13 0.961 . S
C12 H14 0.961 . S
C12 H15 0.960 . S
H13 C12 0.961 . S
H14 C12 0.961 . S
H15 C12 0.960 . S
C16 N17 1.342 . S
C16 C20 1.401 . S
C16 C21 1.499 . S
N17 Co0 1.989 . S
N17 C16 1.342 . S
N17 N18 1.388 . S
N18 Co1 1.993 . S
N18 N17 1.388 . S
N18 C19 1.346 . S
C19 N18 1.346 . S
C19 C20 1.396 . S
C19 C29 1.510 . S
C20 C16 1.401 . S
C20 C19 1.396 . S
C21 C16 1.499 . S
C21 H22 0.959 . S
C21 H23 0.960 . S
C21 H24 0.961 . S
H22 C21 0.959 . S
H23 C21 0.960 . S
H24 C21 0.961 . S
O25 Co0 1.967 . S
O25 C33 1.258 . S
O26 Co1 1.941 . S
O26 C33 1.266 . S
H27 C29 0.959 . S
H28 C29 0.961 . S
C29 C19 1.510 . S
C29 H27 0.959 . S
C29 H28 0.961 . S
C29 H30 0.960 . S
H30 C29 0.960 . S
H31 N11 0.862 . S
O32 Co0 1.920 . S
O32 C5 1.289 . S
C33 O25 1.258 . S
C33 O26 1.266 . S
Co34 O37 1.970 . S
Co34 N51 1.989 . S
Co34 O59 1.967 . S
Co34 O66 1.920 . S
Co35 O38 1.966 . S
Co35 N44 2.022 . S
Co35 N52 1.993 . S
Co35 O60 1.941 . S
C36 O37 1.258 . S
C36 O38 1.263 . S
O37 Co34 1.970 . S
O37 C36 1.258 . S
O38 Co35 1.966 . S
O38 C36 1.263 . S
C39 O40 1.235 . S
C39 O66 1.289 . S
O40 C39 1.235 . S
C41 C43 1.400 . S
C41 N44 1.351 . S
C41 C46 1.501 . S
C42 C43 1.387 . S
C42 N45 1.341 . S
C43 C41 1.400 . S
C43 C42 1.387 . S
N44 Co35 2.022 . S
N44 C41 1.351 . S
N44 N45 1.365 . S
N45 C42 1.341 . S
N45 N44 1.365 . S
N45 H65 0.862 . S
C46 C41 1.501 . S
C46 H47 0.961 . S
C46 H48 0.961 . S
C46 H49 0.960 . S
H47 C46 0.961 . S
H48 C46 0.961 . S
H49 C46 0.960 . S
C50 N51 1.342 . S
C50 C54 1.401 . S
C50 C55 1.499 . S
N51 Co34 1.989 . S
N51 C50 1.342 . S
N51 N52 1.388 . S
N52 Co35 1.993 . S
N52 N51 1.388 . S
N52 C53 1.346 . S
C53 N52 1.346 . S
C53 C54 1.396 . S
C53 C63 1.510 . S
C54 C50 1.401 . S
C54 C53 1.396 . S
C55 C50 1.499 . S
C55 H56 0.959 . S
C55 H57 0.960 . S
C55 H58 0.961 . S
H56 C55 0.959 . S
H57 C55 0.960 . S
H58 C55 0.961 . S
O59 Co34 1.967 . S
O59 C67 1.258 . S
O60 Co35 1.941 . S
O60 C67 1.266 . S
H61 C63 0.959 . S
H62 C63 0.961 . S
C63 C53 1.510 . S
C63 H61 0.959 . S
C63 H62 0.961 . S
C63 H64 0.960 . S
H64 C63 0.960 . S
H65 N45 0.862 . S
O66 Co34 1.920 . S
O66 C39 1.289 . S
C67 O59 1.258 . S
C67 O60 1.266 . S
Co68 O71 1.970 . S
Co68 N85 1.989 . S
Co68 O93 1.967 . S
Co68 O100 1.920 . S
Co69 O72 1.966 . S
Co69 N78 2.022 . S
Co69 N86 1.993 . S
Co69 O94 1.941 . S
C70 O71 1.258 . S
C70 O72 1.263 . S
O71 Co68 1.970 . S
O71 C70 1.258 . S
O72 Co69 1.966 . S
O72 C70 1.263 . S
C73 O74 1.235 . S
C73 O100 1.289 . S
O74 C73 1.235 . S
C75 C77 1.400 . S
C75 N78 1.351 . S
C75 C80 1.501 . S
C76 C77 1.387 . S
C76 N79 1.341 . S
C77 C75 1.400 . S
C77 C76 1.387 . S
N78 Co69 2.022 . S
N78 C75 1.351 . S
N78 N79 1.365 . S
N79 C76 1.341 . S
N79 N78 1.365 . S
N79 H99 0.862 . S
C80 C75 1.501 . S
C80 H81 0.961 . S
C80 H82 0.961 . S
C80 H83 0.960 . S
H81 C80 0.961 . S
H82 C80 0.961 . S
H83 C80 0.960 . S
C84 N85 1.342 . S
C84 C88 1.401 . S
C84 C89 1.499 . S
N85 Co68 1.989 . S
N85 C84 1.342 . S
N85 N86 1.388 . S
N86 Co69 1.993 . S
N86 N85 1.388 . S
N86 C87 1.346 . S
C87 N86 1.346 . S
C87 C88 1.396 . S
C87 C97 1.510 . S
C88 C84 1.401 . S
C88 C87 1.396 . S
C89 C84 1.499 . S
C89 H90 0.959 . S
C89 H91 0.960 . S
C89 H92 0.961 . S
H90 C89 0.959 . S
H91 C89 0.960 . S
H92 C89 0.961 . S
O93 Co68 1.967 . S
O93 C101 1.258 . S
O94 Co69 1.941 . S
O94 C101 1.266 . S
H95 C97 0.959 . S
H96 C97 0.961 . S
C97 C87 1.510 . S
C97 H95 0.959 . S
C97 H96 0.961 . S
C97 H98 0.960 . S
H98 C97 0.960 . S
H99 N79 0.862 . S
O100 Co68 1.920 . S
O100 C73 1.289 . S
C101 O93 1.258 . S
C101 O94 1.266 . S
Co102 O105 1.970 . S
Co102 N119 1.989 . S
Co102 O127 1.967 1_556 S
Co102 O134 1.920 1_556 S
Co103 O106 1.966 . S
Co103 N112 2.022 . S
Co103 N120 1.993 . S
Co103 O128 1.941 . S
C104 O105 1.258 . S
C104 O106 1.263 . S
O105 Co102 1.970 . S
O105 C104 1.258 . S
O106 Co103 1.966 . S
O106 C104 1.263 . S
C107 O108 1.235 . S
C107 O134 1.289 . S
O108 C107 1.235 . S
C109 C111 1.400 . S
C109 N112 1.351 . S
C109 C114 1.501 . S
C110 C111 1.387 . S
C110 N113 1.341 . S
C111 C109 1.400 . S
C111 C110 1.387 . S
N112 Co103 2.022 . S
N112 C109 1.351 . S
N112 N113 1.365 . S
N113 C110 1.341 . S
N113 N112 1.365 . S
N113 H133 0.862 . S
C114 C109 1.501 . S
C114 H115 0.961 . S
C114 H116 0.961 . S
C114 H117 0.960 . S
H115 C114 0.961 . S
H116 C114 0.961 . S
H117 C114 0.960 . S
C118 N119 1.342 . S
C118 C122 1.401 . S
C118 C123 1.499 . S
N119 Co102 1.989 . S
N119 C118 1.342 . S
N119 N120 1.388 . S
N120 Co103 1.993 . S
N120 N119 1.388 . S
N120 C121 1.346 . S
C121 N120 1.346 . S
C121 C122 1.396 . S
C121 C131 1.510 . S
C122 C118 1.401 . S
C122 C121 1.396 . S
C123 C118 1.499 . S
C123 H124 0.959 . S
C123 H125 0.960 . S
C123 H126 0.961 . S
H124 C123 0.959 . S
H125 C123 0.960 . S
H126 C123 0.961 . S
O127 Co102 1.967 1_554 S
O127 C135 1.258 1_554 S
O128 Co103 1.941 . S
O128 C135 1.266 . S
H129 C131 0.959 . S
H130 C131 0.961 . S
C131 C121 1.510 . S
C131 H129 0.959 . S
C131 H130 0.961 . S
C131 H132 0.960 . S
H132 C131 0.960 . S
H133 N113 0.862 . S
O134 Co102 1.920 1_554 S
O134 C107 1.289 . S
C135 O127 1.258 1_556 S
C135 O128 1.266 . S
Co136 O139 1.970 . S
Co136 N153 1.989 . S
Co136 O161 1.967 . S
Co136 O168 1.920 . S
Co137 O140 1.966 . S
Co137 N146 2.022 . S
Co137 N154 1.993 . S
Co137 O162 1.941 . S
C138 O139 1.258 . S
C138 O140 1.263 . S
O139 Co136 1.970 . S
O139 C138 1.258 . S
O140 Co137 1.966 . S
O140 C138 1.263 . S
C141 O142 1.235 . S
C141 O168 1.289 . S
O142 C141 1.235 . S
C143 C145 1.400 . S
C143 N146 1.351 . S
C143 C148 1.501 . S
C144 C145 1.387 . S
C144 N147 1.341 . S
C145 C143 1.400 . S
C145 C144 1.387 . S
N146 Co137 2.022 . S
N146 C143 1.351 . S
N146 N147 1.365 . S
N147 C144 1.341 . S
N147 N146 1.365 . S
N147 H167 0.862 . S
C148 C143 1.501 . S
C148 H149 0.961 . S
C148 H150 0.961 . S
C148 H151 0.960 . S
H149 C148 0.961 . S
H150 C148 0.961 . S
H151 C148 0.960 . S
C152 N153 1.342 . S
C152 C156 1.401 . S
C152 C157 1.499 . S
N153 Co136 1.989 . S
N153 C152 1.342 . S
N153 N154 1.388 . S
N154 Co137 1.993 . S
N154 N153 1.388 . S
N154 C155 1.346 . S
C155 N154 1.346 . S
C155 C156 1.396 . S
C155 C165 1.510 . S
C156 C152 1.401 . S
C156 C155 1.396 . S
C157 C152 1.499 . S
C157 H158 0.959 . S
C157 H159 0.960 . S
C157 H160 0.961 . S
H158 C157 0.959 . S
H159 C157 0.960 . S
H160 C157 0.961 . S
O161 Co136 1.967 . S
O161 C169 1.258 . S
O162 Co137 1.941 . S
O162 C169 1.266 . S
H163 C165 0.959 . S
H164 C165 0.961 . S
C165 C155 1.510 . S
C165 H163 0.959 . S
C165 H164 0.961 . S
C165 H166 0.960 . S
H166 C165 0.960 . S
H167 N147 0.862 . S
O168 Co136 1.920 . S
O168 C141 1.289 . S
C169 O161 1.258 . S
C169 O162 1.266 . S
Co170 O173 1.970 . S
Co170 N187 1.989 . S
Co170 O195 1.967 . S
Co170 O202 1.920 . S
Co171 O174 1.966 . S
Co171 N180 2.022 . S
Co171 N188 1.993 . S
Co171 O196 1.941 . S
C172 O173 1.258 . S
C172 O174 1.263 . S
O173 Co170 1.970 . S
O173 C172 1.258 . S
O174 Co171 1.966 . S
O174 C172 1.263 . S
C175 O176 1.235 . S
C175 O202 1.289 . S
O176 C175 1.235 . S
C177 C179 1.400 . S
C177 N180 1.351 . S
C177 C182 1.501 . S
C178 C179 1.387 . S
C178 N181 1.341 . S
C179 C177 1.400 . S
C179 C178 1.387 . S
N180 Co171 2.022 . S
N180 C177 1.351 . S
N180 N181 1.365 . S
N181 C178 1.341 . S
N181 N180 1.365 . S
N181 H201 0.862 . S
C182 C177 1.501 . S
C182 H183 0.961 . S
C182 H184 0.961 . S
C182 H185 0.960 . S
H183 C182 0.961 . S
H184 C182 0.961 . S
H185 C182 0.960 . S
C186 N187 1.342 . S
C186 C190 1.401 . S
C186 C191 1.499 . S
N187 Co170 1.989 . S
N187 C186 1.342 . S
N187 N188 1.388 . S
N188 Co171 1.993 . S
N188 N187 1.388 . S
N188 C189 1.346 . S
C189 N188 1.346 . S
C189 C190 1.396 . S
C189 C199 1.510 . S
C190 C186 1.401 . S
C190 C189 1.396 . S
C191 C186 1.499 . S
C191 H192 0.959 . S
C191 H193 0.960 . S
C191 H194 0.961 . S
H192 C191 0.959 . S
H193 C191 0.960 . S
H194 C191 0.961 . S
O195 Co170 1.967 . S
O195 C203 1.258 . S
O196 Co171 1.941 . S
O196 C203 1.266 . S
H197 C199 0.959 . S
H198 C199 0.961 . S
C199 C189 1.510 . S
C199 H197 0.959 . S
C199 H198 0.961 . S
C199 H200 0.960 . S
H200 C199 0.960 . S
H201 N181 0.862 . S
O202 Co170 1.920 . S
O202 C175 1.289 . S
C203 O195 1.258 . S
C203 O196 1.266 . S
Co204 O207 1.970 . S
Co204 N221 1.989 . S
Co204 O229 1.967 . S
Co204 O236 1.920 . S
Co205 O208 1.966 . S
Co205 N214 2.022 . S
Co205 N222 1.993 . S
Co205 O230 1.941 . S
C206 O207 1.258 . S
C206 O208 1.263 . S
O207 Co204 1.970 . S
O207 C206 1.258 . S
O208 Co205 1.966 . S
O208 C206 1.263 . S
C209 O210 1.235 . S
C209 O236 1.289 . S
O210 C209 1.235 . S
C211 C213 1.400 . S
C211 N214 1.351 . S
C211 C216 1.501 . S
C212 C213 1.387 . S
C212 N215 1.341 . S
C213 C211 1.400 . S
C213 C212 1.387 . S
N214 Co205 2.022 . S
N214 C211 1.351 . S
N214 N215 1.365 . S
N215 C212 1.341 . S
N215 N214 1.365 . S
N215 H235 0.862 . S
C216 C211 1.501 . S
C216 H217 0.961 . S
C216 H218 0.961 . S
C216 H219 0.960 . S
H217 C216 0.961 . S
H218 C216 0.961 . S
H219 C216 0.960 . S
C220 N221 1.342 . S
C220 C224 1.401 . S
C220 C225 1.499 . S
N221 Co204 1.989 . S
N221 C220 1.342 . S
N221 N222 1.388 . S
N222 Co205 1.993 . S
N222 N221 1.388 . S
N222 C223 1.346 . S
C223 N222 1.346 . S
C223 C224 1.396 . S
C223 C233 1.510 . S
C224 C220 1.401 . S
C224 C223 1.396 . S
C225 C220 1.499 . S
C225 H226 0.959 . S
C225 H227 0.960 . S
C225 H228 0.961 . S
H226 C225 0.959 . S
H227 C225 0.960 . S
H228 C225 0.961 . S
O229 Co204 1.967 . S
O229 C237 1.258 . S
O230 Co205 1.941 . S
O230 C237 1.266 . S
H231 C233 0.959 . S
H232 C233 0.961 . S
C233 C223 1.510 . S
C233 H231 0.959 . S
C233 H232 0.961 . S
C233 H234 0.960 . S
H234 C233 0.960 . S
H235 N215 0.862 . S
O236 Co204 1.920 . S
O236 C209 1.289 . S
C237 O229 1.258 . S
C237 O230 1.266 . S
Co238 O241 1.970 . S
Co238 N255 1.989 . S
Co238 O263 1.967 1_554 S
Co238 O270 1.920 1_554 S
Co239 O242 1.966 . S
Co239 N248 2.022 . S
Co239 N256 1.993 . S
Co239 O264 1.941 . S
C240 O241 1.258 . S
C240 O242 1.263 . S
O241 Co238 1.970 . S
O241 C240 1.258 . S
O242 Co239 1.966 . S
O242 C240 1.263 . S
C243 O244 1.235 . S
C243 O270 1.289 . S
O244 C243 1.235 . S
C245 C247 1.400 . S
C245 N248 1.351 . S
C245 C250 1.501 . S
C246 C247 1.387 . S
C246 N249 1.341 . S
C247 C245 1.400 . S
C247 C246 1.387 . S
N248 Co239 2.022 . S
N248 C245 1.351 . S
N248 N249 1.365 . S
N249 C246 1.341 . S
N249 N248 1.365 . S
N249 H269 0.862 . S
C250 C245 1.501 . S
C250 H251 0.961 . S
C250 H252 0.961 . S
C250 H253 0.960 . S
H251 C250 0.961 . S
H252 C250 0.961 . S
H253 C250 0.960 . S
C254 N255 1.342 . S
C254 C258 1.401 . S
C254 C259 1.499 . S
N255 Co238 1.989 . S
N255 C254 1.342 . S
N255 N256 1.388 . S
N256 Co239 1.993 . S
N256 N255 1.388 . S
N256 C257 1.346 . S
C257 N256 1.346 . S
C257 C258 1.396 . S
C257 C267 1.510 . S
C258 C254 1.401 . S
C258 C257 1.396 . S
C259 C254 1.499 . S
C259 H260 0.959 . S
C259 H261 0.960 . S
C259 H262 0.961 . S
H260 C259 0.959 . S
H261 C259 0.960 . S
H262 C259 0.961 . S
O263 Co238 1.967 1_556 S
O263 C271 1.258 1_556 S
O264 Co239 1.941 . S
O264 C271 1.266 . S
H265 C267 0.959 . S
H266 C267 0.961 . S
C267 C257 1.510 . S
C267 H265 0.959 . S
C267 H266 0.961 . S
C267 H268 0.960 . S
H268 C267 0.960 . S
H269 N249 0.862 . S
O270 Co238 1.920 1_556 S
O270 C243 1.289 . S
C271 O263 1.258 1_554 S
C271 O264 1.266 . S
H272 C278 0.930 . S
H273 C282 0.930 . S
H274 C287 0.929 . S
H275 C285 0.929 . S
H276 C280 0.929 . S
H277 C286 0.929 . S
C278 H272 0.930 . S
C278 C279 1.367 . S
C278 C286 1.378 . S
C279 C278 1.367 . S
C279 C287 1.433 . S
C280 H276 0.929 . S
C280 C282 1.378 . S
C280 C284 1.350 . S
C281 C284 1.463 . S
C281 C286 1.350 . S
C281 N289 1.427 . S
C282 H273 0.930 . S
C282 C280 1.378 . S
C282 C283 1.367 . S
C283 C282 1.367 . S
C283 C285 1.433 . S
C284 C280 1.350 . S
C284 C281 1.463 . S
C284 N288 1.427 . S
C285 H275 0.929 . S
C285 C283 1.433 . S
C285 N288 1.384 . S
C286 H277 0.929 . S
C286 C278 1.378 . S
C286 C281 1.350 . S
C287 H274 0.929 . S
C287 C279 1.433 . S
C287 N289 1.384 . S
N288 C284 1.427 . S
N288 C285 1.384 . S
N289 C281 1.427 . S
N289 C287 1.384 . S
H290 C296 0.930 . S
H291 C300 0.930 . S
H292 C305 0.929 . S
H293 C303 0.929 . S
H294 C298 0.929 . S
H295 C304 0.929 . S
C296 H290 0.930 . S
C296 C297 1.367 . S
C296 C304 1.378 . S
C297 C296 1.367 . S
C297 C305 1.433 . S
C298 H294 0.929 . S
C298 C300 1.378 . S
C298 C302 1.350 . S
C299 C302 1.463 . S
C299 C304 1.350 . S
C299 N307 1.427 . S
C300 H291 0.930 . S
C300 C298 1.378 . S
C300 C301 1.367 . S
C301 C300 1.367 . S
C301 C303 1.433 . S
C302 C298 1.350 . S
C302 C299 1.463 . S
C302 N306 1.427 . S
C303 H293 0.929 . S
C303 C301 1.433 . S
C303 N306 1.384 . S
C304 H295 0.929 . S
C304 C296 1.378 . S
C304 C299 1.350 . S
C305 H292 0.929 . S
C305 C297 1.433 . S
C305 N307 1.384 . S
N306 C302 1.427 . S
N306 C303 1.384 . S
N307 C299 1.427 . S
N307 C305 1.384 . S
H308 C314 0.930 . S
H309 C318 0.930 . S
H310 C323 0.929 . S
H311 C321 0.929 . S
H312 C316 0.929 . S
H313 C322 0.929 . S
C314 H308 0.930 . S
C314 C315 1.367 . S
C314 C322 1.378 . S
C315 C314 1.367 . S
C315 C323 1.433 . S
C316 H312 0.929 . S
C316 C318 1.378 . S
C316 C320 1.350 . S
C317 C320 1.463 . S
C317 C322 1.350 . S
C317 N325 1.427 . S
C318 H309 0.930 . S
C318 C316 1.378 . S
C318 C319 1.367 . S
C319 C318 1.367 . S
C319 C321 1.433 . S
C320 C316 1.350 . S
C320 C317 1.463 . S
C320 N324 1.427 . S
C321 H311 0.929 . S
C321 C319 1.433 . S
C321 N324 1.384 . S
C322 H313 0.929 . S
C322 C314 1.378 . S
C322 C317 1.350 . S
C323 H310 0.929 . S
C323 C315 1.433 . S
C323 N325 1.384 . S
N324 C320 1.427 . S
N324 C321 1.384 . S
N325 C317 1.427 . S
N325 C323 1.384 . S
H326 C332 0.930 . S
H327 C336 0.930 . S
H328 C341 0.929 . S
H329 C339 0.929 . S
H330 C334 0.929 . S
H331 C340 0.929 . S
C332 H326 0.930 . S
C332 C333 1.367 1_554 S
C332 C340 1.378 . S
C333 C332 1.367 1_556 S
C333 C341 1.433 . S
C334 H330 0.929 . S
C334 C336 1.378 . S
C334 C338 1.350 1_556 S
C335 C338 1.463 1_556 S
C335 C340 1.350 1_556 S
C335 N343 1.427 . S
C336 H327 0.930 . S
C336 C334 1.378 . S
C336 C337 1.367 1_556 S
C337 C336 1.367 1_554 S
C337 C339 1.433 . S
C338 C334 1.350 1_554 S
C338 C335 1.463 1_554 S
C338 N342 1.427 . S
C339 H329 0.929 . S
C339 C337 1.433 . S
C339 N342 1.384 . S
C340 H331 0.929 . S
C340 C332 1.378 . S
C340 C335 1.350 1_554 S
C341 H328 0.929 . S
C341 C333 1.433 . S
C341 N343 1.384 . S
N342 C338 1.427 . S
N342 C339 1.384 . S
N343 C335 1.427 . S
N343 C341 1.384 . S
H344 C350 0.930 . S
H345 C354 0.930 . S
H346 C359 0.929 . S
H347 C357 0.929 . S
H348 C352 0.929 . S
H349 C358 0.929 . S
C350 H344 0.930 . S
C350 C351 1.367 . S
C350 C358 1.378 . S
C351 C350 1.367 . S
C351 C359 1.433 . S
C352 H348 0.929 . S
C352 C354 1.378 . S
C352 C356 1.350 . S
C353 C356 1.463 . S
C353 C358 1.350 . S
C353 N361 1.427 . S
C354 H345 0.930 . S
C354 C352 1.378 . S
C354 C355 1.367 . S
C355 C354 1.367 . S
C355 C357 1.433 . S
C356 C352 1.350 . S
C356 C353 1.463 . S
C356 N360 1.427 . S
C357 H347 0.929 . S
C357 C355 1.433 . S
C357 N360 1.384 . S
C358 H349 0.929 . S
C358 C350 1.378 . S
C358 C353 1.350 . S
C359 H346 0.929 . S
C359 C351 1.433 . S
C359 N361 1.384 . S
N360 C356 1.427 . S
N360 C357 1.384 . S
N361 C353 1.427 . S
N361 C359 1.384 . S
H362 C368 0.930 . S
H363 C372 0.930 . S
H364 C377 0.929 . S
H365 C375 0.929 . S
H366 C370 0.929 . S
H367 C376 0.929 . S
C368 H362 0.930 . S
C368 C369 1.367 . S
C368 C376 1.378 . S
C369 C368 1.367 . S
C369 C377 1.433 . S
C370 H366 0.929 . S
C370 C372 1.378 . S
C370 C374 1.350 . S
C371 C374 1.463 . S
C371 C376 1.350 . S
C371 N379 1.427 . S
C372 H363 0.930 . S
C372 C370 1.378 . S
C372 C373 1.367 . S
C373 C372 1.367 . S
C373 C375 1.433 . S
C374 C370 1.350 . S
C374 C371 1.463 . S
C374 N378 1.427 . S
C375 H365 0.929 . S
C375 C373 1.433 . S
C375 N378 1.384 . S
C376 H367 0.929 . S
C376 C368 1.378 . S
C376 C371 1.350 . S
C377 H364 0.929 . S
C377 C369 1.433 . S
C377 N379 1.384 . S
N378 C374 1.427 . S
N378 C375 1.384 . S
N379 C371 1.427 . S
N379 C377 1.384 . S
H380 C386 0.930 . S
H381 C390 0.930 . S
H382 C395 0.929 . S
H383 C393 0.929 . S
H384 C388 0.929 . S
H385 C394 0.929 . S
C386 H380 0.930 . S
C386 C387 1.367 . S
C386 C394 1.378 . S
C387 C386 1.367 . S
C387 C395 1.433 . S
C388 H384 0.929 . S
C388 C390 1.378 . S
C388 C392 1.350 . S
C389 C392 1.463 . S
C389 C394 1.350 . S
C389 N397 1.427 . S
C390 H381 0.930 . S
C390 C388 1.378 . S
C390 C391 1.367 . S
C391 C390 1.367 . S
C391 C393 1.433 . S
C392 C388 1.350 . S
C392 C389 1.463 . S
C392 N396 1.427 . S
C393 H383 0.929 . S
C393 C391 1.433 . S
C393 N396 1.384 . S
C394 H385 0.929 . S
C394 C386 1.378 . S
C394 C389 1.350 . S
C395 H382 0.929 . S
C395 C387 1.433 . S
C395 N397 1.384 . S
N396 C392 1.427 . S
N396 C393 1.384 . S
N397 C389 1.427 . S
N397 C395 1.384 . S
H398 C404 0.930 . S
H399 C408 0.930 . S
H400 C413 0.929 . S
H401 C411 0.929 . S
H402 C406 0.929 . S
H403 C412 0.929 . S
C404 H398 0.930 . S
C404 C405 1.367 . S
C404 C412 1.378 . S
C405 C404 1.367 . S
C405 C413 1.433 . S
C406 H402 0.929 . S
C406 C408 1.378 . S
C406 C410 1.350 . S
C407 C410 1.463 . S
C407 C412 1.350 . S
C407 N415 1.427 . S
C408 H399 0.930 . S
C408 C406 1.378 . S
C408 C409 1.367 . S
C409 C408 1.367 . S
C409 C411 1.433 . S
C410 C406 1.350 . S
C410 C407 1.463 . S
C410 N414 1.427 . S
C411 H401 0.929 . S
C411 C409 1.433 . S
C411 N414 1.384 . S
C412 H403 0.929 . S
C412 C404 1.378 . S
C412 C407 1.350 . S
C413 H400 0.929 . S
C413 C405 1.433 . S
C413 N415 1.384 . S
N414 C410 1.427 . S
N414 C411 1.384 . S
N415 C407 1.427 . S
N415 C413 1.384 . S
H416 C422 0.930 . S
H417 C426 0.930 . S
H418 C431 0.929 . S
H419 C429 0.929 . S
H420 C424 0.929 1_455 S
H421 C430 0.929 1_655 S
C422 H416 0.930 . S
C422 C423 1.367 . S
C422 C430 1.378 . S
C423 C422 1.367 . S
C423 C431 1.433 . S
C424 H420 0.929 1_655 S
C424 C426 1.378 . S
C424 C428 1.350 . S
C425 C428 1.463 1_454 S
C425 C430 1.350 . S
C425 N433 1.427 . S
C426 H417 0.930 . S
C426 C424 1.378 . S
C426 C427 1.367 . S
C427 C426 1.367 . S
C427 C429 1.433 . S
C428 C424 1.350 . S
C428 C425 1.463 1_656 S
C428 N432 1.427 . S
C429 H419 0.929 . S
C429 C427 1.433 . S
C429 N432 1.384 . S
C430 H421 0.929 1_455 S
C430 C422 1.378 . S
C430 C425 1.350 . S
C431 H418 0.929 . S
C431 C423 1.433 . S
C431 N433 1.384 . S
N432 C428 1.427 . S
N432 C429 1.384 . S
N433 C425 1.427 . S
N433 C431 1.384 . S
H434 C440 0.930 . S
H435 C444 0.930 . S
H436 C449 0.929 1_545 S
H437 C447 0.929 1_565 S
H438 C442 0.929 . S
H439 C448 0.929 . S
C440 H434 0.930 . S
C440 C441 1.367 . S
C440 C448 1.378 . S
C441 C440 1.367 . S
C441 C449 1.433 . S
C442 H438 0.929 . S
C442 C444 1.378 . S
C442 C446 1.350 . S
C443 C446 1.463 1_565 S
C443 C448 1.350 . S
C443 N451 1.427 1_565 S
C444 H435 0.930 . S
C444 C442 1.378 . S
C444 C445 1.367 . S
C445 C444 1.367 . S
C445 C447 1.433 . S
C446 C442 1.350 . S
C446 C443 1.463 1_545 S
C446 N450 1.427 1_545 S
C447 H437 0.929 1_545 S
C447 C445 1.433 . S
C447 N450 1.384 1_545 S
C448 H439 0.929 . S
C448 C440 1.378 . S
C448 C443 1.350 . S
C449 H436 0.929 1_565 S
C449 C441 1.433 . S
C449 N451 1.384 1_565 S
N450 C446 1.427 1_565 S
N450 C447 1.384 1_565 S
N451 C443 1.427 1_545 S
N451 C449 1.384 1_545 S
H452 C458 0.930 . S
H453 C462 0.930 . S
H454 C467 0.929 1_455 S
H455 C465 0.929 1_655 S
H456 C460 0.929 . S
H457 C466 0.929 . S
C458 H452 0.930 . S
C458 C459 1.367 . S
C458 C466 1.378 . S
C459 C458 1.367 . S
C459 C467 1.433 . S
C460 H456 0.929 . S
C460 C462 1.378 . S
C460 C464 1.350 . S
C461 C464 1.463 1_655 S
C461 C466 1.350 . S
C461 N469 1.427 1_655 S
C462 H453 0.930 . S
C462 C460 1.378 . S
C462 C463 1.367 . S
C463 C462 1.367 . S
C463 C465 1.433 . S
C464 C460 1.350 . S
C464 C461 1.463 1_455 S
C464 N468 1.427 1_455 S
C465 H455 0.929 1_455 S
C465 C463 1.433 . S
C465 N468 1.384 1_455 S
C466 H457 0.929 . S
C466 C458 1.378 . S
C466 C461 1.350 . S
C467 H454 0.929 1_655 S
C467 C459 1.433 . S
C467 N469 1.384 1_655 S
N468 C464 1.427 1_655 S
N468 C465 1.384 1_655 S
N469 C461 1.427 1_455 S
N469 C467 1.384 1_455 S
H470 C476 0.930 . S
H471 C480 0.930 . S
H472 C485 0.929 . S
H473 C483 0.929 . S
H474 C478 0.929 . S
H475 C484 0.929 . S
C476 H470 0.930 . S
C476 C477 1.367 . S
C476 C484 1.378 . S
C477 C476 1.367 . S
C477 C485 1.433 . S
C478 H474 0.929 . S
C478 C480 1.378 . S
C478 C482 1.350 . S
C479 C482 1.463 1_545 S
C479 C484 1.350 . S
C479 N487 1.427 . S
C480 H471 0.930 . S
C480 C478 1.378 . S
C480 C481 1.367 . S
C481 C480 1.367 . S
C481 C483 1.433 . S
C482 C478 1.350 . S
C482 C479 1.463 1_565 S
C482 N486 1.427 . S
C483 H473 0.929 . S
C483 C481 1.433 . S
C483 N486 1.384 . S
C484 H475 0.929 . S
C484 C476 1.378 . S
C484 C479 1.350 . S
C485 H472 0.929 . S
C485 C477 1.433 . S
C485 N487 1.384 . S
N486 C482 1.427 . S
N486 C483 1.384 . S
N487 C479 1.427 . S
N487 C485 1.384 . S
H488 C494 0.930 . S
H489 C498 0.930 1_565 S
H490 C503 0.929 . S
H491 C501 0.929 1_556 S
H492 C496 0.929 . S
H493 C502 0.929 . S
C494 H488 0.930 . S
C494 C495 1.367 . S
C494 C502 1.378 . S
C495 C494 1.367 . S
C495 C503 1.433 . S
C496 H492 0.929 . S
C496 C498 1.378 . S
C496 C500 1.350 . S
C497 C500 1.463 . S
C497 C502 1.350 . S
C497 N505 1.427 . S
C498 H489 0.930 1_545 S
C498 C496 1.378 . S
C498 C499 1.367 . S
C499 C498 1.367 . S
C499 C501 1.433 . S
C500 C496 1.350 . S
C500 C497 1.463 . S
C500 N504 1.427 . S
C501 H491 0.929 1_554 S
C501 C499 1.433 . S
C501 N504 1.384 . S
C502 H493 0.929 . S
C502 C494 1.378 . S
C502 C497 1.350 . S
C503 H490 0.929 . S
C503 C495 1.433 . S
C503 N505 1.384 . S
N504 C500 1.427 . S
N504 C501 1.384 . S
N505 C497 1.427 . S
N505 C503 1.384 . S
H506 C512 0.930 . S
H507 C516 0.930 . S
H508 C521 0.929 1_455 S
H509 C519 0.929 . S
H510 C514 0.929 . S
H511 C520 0.929 . S
C512 H506 0.930 . S
C512 C513 1.367 . S
C512 C520 1.378 . S
C513 C512 1.367 . S
C513 C521 1.433 . S
C514 H510 0.929 . S
C514 C516 1.378 . S
C514 C518 1.350 . S
C515 C518 1.463 . S
C515 C520 1.350 . S
C515 N523 1.427 . S
C516 H507 0.930 . S
C516 C514 1.378 . S
C516 C517 1.367 . S
C517 C516 1.367 . S
C517 C519 1.433 . S
C518 C514 1.350 . S
C518 C515 1.463 . S
C518 N522 1.427 . S
C519 H509 0.929 . S
C519 C517 1.433 . S
C519 N522 1.384 . S
C520 H511 0.929 . S
C520 C512 1.378 . S
C520 C515 1.350 . S
C521 H508 0.929 1_655 S
C521 C513 1.433 . S
C521 N523 1.384 . S
N522 C518 1.427 . S
N522 C519 1.384 . S
N523 C515 1.427 . S
N523 C521 1.384 . S
H524 C530 0.930 1_545 S
H525 C534 0.930 . S
H526 C539 0.929 . S
H527 C537 0.929 . S
H528 C532 0.929 . S
H529 C538 0.929 . S
C530 H524 0.930 1_565 S
C530 C531 1.367 . S
C530 C538 1.378 . S
C531 C530 1.367 . S
C531 C539 1.433 . S
C532 H528 0.929 . S
C532 C534 1.378 . S
C532 C536 1.350 . S
C533 C536 1.463 . S
C533 C538 1.350 . S
C533 N541 1.427 . S
C534 H525 0.930 . S
C534 C532 1.378 . S
C534 C535 1.367 . S
C535 C534 1.367 . S
C535 C537 1.433 . S
C536 C532 1.350 . S
C536 C533 1.463 . S
C536 N540 1.427 . S
C537 H527 0.929 . S
C537 C535 1.433 . S
C537 N540 1.384 . S
C538 H529 0.929 . S
C538 C530 1.378 . S
C538 C533 1.350 . S
C539 H526 0.929 . S
C539 C531 1.433 . S
C539 N541 1.384 . S
N540 C536 1.427 . S
N540 C537 1.384 . S
N541 C533 1.427 . S
N541 C539 1.384 . S
H542 C548 0.930 1_655 S
H543 C552 0.930 . S
H544 C557 0.929 . S
H545 C555 0.929 . S
H546 C550 0.929 . S
H547 C556 0.929 . S
C548 H542 0.930 1_455 S
C548 C549 1.367 . S
C548 C556 1.378 . S
C549 C548 1.367 . S
C549 C557 1.433 . S
C550 H546 0.929 . S
C550 C552 1.378 . S
C550 C554 1.350 . S
C551 C554 1.463 . S
C551 C556 1.350 . S
C551 N559 1.427 . S
C552 H543 0.930 . S
C552 C550 1.378 . S
C552 C553 1.367 . S
C553 C552 1.367 . S
C553 C555 1.433 . S
C554 C550 1.350 . S
C554 C551 1.463 . S
C554 N558 1.427 . S
C555 H545 0.929 . S
C555 C553 1.433 . S
C555 N558 1.384 . S
C556 H547 0.929 . S
C556 C548 1.378 . S
C556 C551 1.350 . S
C557 H544 0.929 . S
C557 C549 1.433 . S
C557 N559 1.384 . S
N558 C554 1.427 . S
N558 C555 1.384 . S
N559 C551 1.427 . S
N559 C557 1.384 . S
H560 C566 0.930 . S
H561 C570 0.930 1_545 S
H562 C575 0.929 . S
H563 C573 0.929 . S
H564 C568 0.929 . S
H565 C574 0.929 . S
C566 H560 0.930 . S
C566 C567 1.367 . S
C566 C574 1.378 . S
C567 C566 1.367 . S
C567 C575 1.433 . S
C568 H564 0.929 . S
C568 C570 1.378 . S
C568 C572 1.350 . S
C569 C572 1.463 . S
C569 C574 1.350 . S
C569 N577 1.427 . S
C570 H561 0.930 1_565 S
C570 C568 1.378 . S
C570 C571 1.367 . S
C571 C570 1.367 . S
C571 C573 1.433 . S
C572 C568 1.350 . S
C572 C569 1.463 . S
C572 N576 1.427 . S
C573 H563 0.929 . S
C573 C571 1.433 . S
C573 N576 1.384 . S
C574 H565 0.929 . S
C574 C566 1.378 . S
C574 C569 1.350 . S
C575 H562 0.929 . S
C575 C567 1.433 . S
C575 N577 1.384 . S
N576 C572 1.427 . S
N576 C573 1.384 . S
N577 C569 1.427 . S
N577 C575 1.384 . S
H578 C584 0.930 . S
H579 C588 0.930 1_655 S
H580 C593 0.929 . S
H581 C591 0.929 . S
H582 C586 0.929 . S
H583 C592 0.929 . S
C584 H578 0.930 . S
C584 C585 1.367 . S
C584 C592 1.378 . S
C585 C584 1.367 . S
C585 C593 1.433 . S
C586 H582 0.929 . S
C586 C588 1.378 . S
C586 C590 1.350 . S
C587 C590 1.463 . S
C587 C592 1.350 . S
C587 N595 1.427 . S
C588 H579 0.930 1_455 S
C588 C586 1.378 . S
C588 C589 1.367 . S
C589 C588 1.367 . S
C589 C591 1.433 . S
C590 C586 1.350 . S
C590 C587 1.463 . S
C590 N594 1.427 . S
C591 H581 0.929 . S
C591 C589 1.433 . S
C591 N594 1.384 . S
C592 H583 0.929 . S
C592 C584 1.378 . S
C592 C587 1.350 . S
C593 H580 0.929 . S
C593 C585 1.433 . S
C593 N595 1.384 . S
N594 C590 1.427 . S
N594 C591 1.384 . S
N595 C587 1.427 . S
N595 C593 1.384 . S
H596 C602 0.930 . S
H597 C606 0.930 1_554 S
H598 C611 0.929 . S
H599 C609 0.929 1_565 S
H600 C604 0.929 . S
H601 C610 0.929 . S
C602 H596 0.930 . S
C602 C603 1.367 . S
C602 C610 1.378 . S
C603 C602 1.367 . S
C603 C611 1.433 . S
C604 H600 0.929 . S
C604 C606 1.378 . S
C604 C608 1.350 . S
C605 C608 1.463 . S
C605 C610 1.350 . S
C605 N613 1.427 . S
C606 H597 0.930 1_556 S
C606 C604 1.378 . S
C606 C607 1.367 . S
C607 C606 1.367 . S
C607 C609 1.433 . S
C608 C604 1.350 . S
C608 C605 1.463 . S
C608 N612 1.427 . S
C609 H599 0.929 1_545 S
C609 C607 1.433 . S
C609 N612 1.384 . S
C610 H601 0.929 . S
C610 C602 1.378 . S
C610 C605 1.350 . S
C611 H598 0.929 . S
C611 C603 1.433 . S
C611 N613 1.384 . S
N612 C608 1.427 . S
N612 C609 1.384 . S
N613 C605 1.427 . S
N613 C611 1.384 . S
H614 C620 0.930 . S
H615 C624 0.930 . S
H616 C629 0.929 . S
H617 C627 0.929 . S
H618 C622 0.929 . S
H619 C628 0.929 . S
C620 H614 0.930 . S
C620 C621 1.367 . S
C620 C628 1.378 . S
C621 C620 1.367 . S
C621 C629 1.433 . S
C622 H618 0.929 . S
C622 C624 1.378 . S
C622 C626 1.350 . S
C623 C626 1.463 . S
C623 C628 1.350 . S
C623 N631 1.427 . S
C624 H615 0.930 . S
C624 C622 1.378 . S
C624 C625 1.367 . S
C625 C624 1.367 . S
C625 C627 1.433 . S
C626 C622 1.350 . S
C626 C623 1.463 . S
C626 N630 1.427 . S
C627 H617 0.929 . S
C627 C625 1.433 . S
C627 N630 1.384 . S
C628 H619 0.929 . S
C628 C620 1.378 . S
C628 C623 1.350 . S
C629 H616 0.929 . S
C629 C621 1.433 . S
C629 N631 1.384 . S
N630 C626 1.427 . S
N630 C627 1.384 . S
N631 C623 1.427 . S
N631 C629 1.384 . S
C279 C138 1.075 . S
C283 C2 1.075 . S
C297 C36 1.073 . S
C301 C172 1.073 . S
C315 C70 1.073 . S
C319 C206 1.072 . S
C333 C104 1.071 . S
C337 C240 1.072 . S
C351 C175 0.728 . S
C355 C5 0.726 . S
C369 C39 0.727 . S
C373 C209 0.726 . S
C387 C243 0.728 . S
C391 C73 0.730 . S
C405 C107 0.731 . S
C409 C141 0.729 . S
C423 C9 0.760 . S
C427 C213 0.788 . S
C441 C247 0.778 . S
C445 C43 0.796 . S
C459 C77 0.795 . S
C463 C145 0.779 . S
C477 C179 0.792 . S
C481 C111 0.763 . S
C495 C20 2.382 . S
C499 C135 2.386 1_544 S
C513 C33 2.388 1_655 S
C517 C54 2.383 . S
C531 C67 2.386 1_565 S
C535 C88 2.382 . S
C549 C101 2.386 1_455 S
C553 C122 2.383 . S
C567 C156 2.382 . S
C571 C203 2.386 1_565 S
C585 C190 2.383 . S
C589 C237 2.386 1_455 S
C603 C224 2.385 . S
C607 C271 2.388 1_546 S
C621 C169 2.387 1_655 S
C625 C258 2.384 . S
