# Generated by pormake.
# Topology uov, (4)-cn, num edge types: 1
# Building blocks:
#     Node 0, Type 0, BuildingBlock: GALJAG_clean_sbu_0, # of connection points: 4
#     Node 1, Type 0, BuildingBlock: GALJAG_clean_sbu_0, # of connection points: 4
#     Node 2, Type 0, BuildingBlock: GALJAG_clean_sbu_0, # of connection points: 4
#     Node 3, Type 0, BuildingBlock: GALJAG_clean_sbu_0, # of connection points: 4
#     Node 4, Type 0, BuildingBlock: GALJAG_clean_sbu_0, # of connection points: 4
#     Node 5, Type 0, BuildingBlock: GALJAG_clean_sbu_0, # of connection points: 4
#     Node 6, Type 0, BuildingBlock: GALJAG_clean_sbu_0, # of connection points: 4
#     Node 7, Type 0, BuildingBlock: GALJAG_clean_sbu_0, # of connection points: 4
#     Edge 8, Type (0, 0), BuildingBlock: OJICUG_clean_linker_0, # of connection points: 2
#     Edge 9, Type (0, 0), BuildingBlock: OJICUG_clean_linker_0, # of connection points: 2
#     Edge 10, Type (0, 0), BuildingBlock: OJICUG_clean_linker_0, # of connection points: 2
#     Edge 11, Type (0, 0), BuildingBlock: OJICUG_clean_linker_0, # of connection points: 2
#     Edge 12, Type (0, 0), BuildingBlock: OJICUG_clean_linker_0, # of connection points: 2
#     Edge 13, Type (0, 0), BuildingBlock: OJICUG_clean_linker_0, # of connection points: 2
#     Edge 14, Type (0, 0), BuildingBlock: OJICUG_clean_linker_0, # of connection points: 2
#     Edge 15, Type (0, 0), BuildingBlock: OJICUG_clean_linker_0, # of connection points: 2
#     Edge 16, Type (0, 0), BuildingBlock: OJICUG_clean_linker_0, # of connection points: 2
#     Edge 17, Type (0, 0), BuildingBlock: OJICUG_clean_linker_0, # of connection points: 2
#     Edge 18, Type (0, 0), BuildingBlock: OJICUG_clean_linker_0, # of connection points: 2
#     Edge 19, Type (0, 0), BuildingBlock: OJICUG_clean_linker_0, # of connection points: 2
#     Edge 20, Type (0, 0), BuildingBlock: OJICUG_clean_linker_0, # of connection points: 2
#     Edge 21, Type (0, 0), BuildingBlock: OJICUG_clean_linker_0, # of connection points: 2
#     Edge 22, Type (0, 0), BuildingBlock: OJICUG_clean_linker_0, # of connection points: 2
#     Edge 23, Type (0, 0), BuildingBlock: OJICUG_clean_linker_0, # of connection points: 2
# Relax obj value: 0.177
# Max RMSD: 0.147
# Mean RMSD: 0.147
data_MOF--net-uov--node1-GALJAG_clean_sbu_0--edge1-OJICUG_clean_linker_0
_symmetry_space_group_name_H-M    P1
_symmetry_Int_Tables_number       1
_symmetry_cell_setting            triclinic
loop_
_symmetry_equiv_pos_as_xyz
'x, y, z'
_cell_length_a     21.155437
_cell_length_b     21.134341
_cell_length_c     33.430143
_cell_angle_alpha  90.073638
_cell_angle_beta   90.00945
_cell_angle_gamma 89.747853
loop_
_atom_site_label
_atom_site_type_symbol
_atom_site_fract_x
_atom_site_fract_y
_atom_site_fract_z
_atom_type_partial_charge
In0 In 0.05001 0.24233 0.61377 0.0
O1 O 0.08371 0.34409 0.62281 0.0
O2 O 0.98688 0.32306 0.63332 0.0
C3 C 0.12234 0.24638 0.54725 0.0
C4 C 0.08704 0.18603 0.68294 0.0
C5 C 0.95727 0.17245 0.58047 0.0
O6 O 0.14521 0.23484 0.58144 0.0
O7 O 0.06427 0.25971 0.54733 0.0
O8 O 0.00924 0.14879 0.59151 0.0
O9 O 0.95031 0.23004 0.58921 0.0
C10 C 0.0295 0.36451 0.63226 0.0
O11 O 0.03922 0.22162 0.68074 0.0
O12 O 0.11577 0.17819 0.65028 0.0
In13 In 0.23036 0.98968 0.38803 0.0
O14 O 0.32906 0.96 0.40555 0.0
O15 O 0.31937 0.01418 0.35206 0.0
C16 C 0.16709 0.93269 0.44813 0.0
C17 C 0.17834 0.93672 0.3221 0.0
C18 C 0.22164 0.10735 0.41889 0.0
O19 O 0.22046 0.91316 0.4364 0.0
O20 O 0.1452 0.97868 0.42859 0.0
O21 O 0.18718 0.08973 0.39 0.0
O22 O 0.26224 0.06719 0.42975 0.0
C23 C 0.35607 0.98729 0.37669 0.0
O24 O 0.16977 -0.0057 0.33097 0.0
O25 O 0.21403 0.90688 0.34577 0.0
In26 In 0.93487 0.7487 0.61196 0.0
O27 O 0.91211 0.64459 0.61798 0.0
O28 O 0.00534 0.67343 0.63301 0.0
C29 C 0.85612 0.75234 0.54839 0.0
C30 C 0.89429 0.79623 0.68286 0.0
C31 C 0.02269 0.81908 0.57489 0.0
O32 O 0.84224 0.77663 0.58177 0.0
O33 O 0.90834 0.72352 0.54769 0.0
O34 O 0.96918 0.84079 0.58474 0.0
O35 O 0.03361 0.76322 0.58646 0.0
C36 C 0.9665 0.62858 0.62972 0.0
O37 O 0.9458 0.81314 0.66722 0.0
O38 O 0.8641 0.75583 0.66291 0.0
In39 In 0.75209 0.00954 0.38991 0.0
O40 O 0.65393 0.04304 0.40599 0.0
O41 O 0.66318 0.98676 0.35329 0.0
C42 C 0.81405 0.06365 0.4517 0.0
C43 C 0.80887 0.06007 0.32488 0.0
C44 C 0.75699 0.89176 0.4205 0.0
O45 O 0.7625 0.08569 0.43858 0.0
O46 O 0.83516 0.01682 0.43256 0.0
O47 O 0.79254 0.90848 0.39197 0.0
O48 O 0.71701 0.93285 0.43096 0.0
C49 C 0.62672 0.01555 0.37724 0.0
O50 O 0.81459 0.00226 0.33386 0.0
O51 O 0.77358 0.09153 0.34799 0.0
In52 In 0.98999 0.22977 0.12593 0.0
O53 O -0.00548 0.17 0.1833 0.0
O54 O 0.90722 0.21408 0.16813 0.0
C55 C 0.10788 0.22066 0.09568 0.0
C56 C 0.98718 0.35576 0.13679 0.0
C57 C 0.93282 0.16581 0.06603 0.0
O58 O 0.08979 0.18613 0.12436 0.0
O59 O 0.06805 0.2615 0.08469 0.0
O60 O 0.91354 0.21945 0.07753 0.0
O61 O 0.97879 0.14405 0.08562 0.0
C62 C 0.937 0.17875 0.19204 0.0
O63 O 0.96061 0.32836 0.10776 0.0
O64 O 0.01367 0.31933 0.16176 0.0
In65 In 0.24084 0.049 0.9008 0.0
O66 O 0.34261 0.08184 0.89122 0.0
O67 O 0.32104 0.98483 0.88152 0.0
C68 C 0.24636 0.12105 0.96747 0.0
C69 C 0.18477 0.08678 0.83172 0.0
C70 C 0.16933 0.95777 0.93431 0.0
O71 O 0.2343 0.14409 0.93342 0.0
O72 O 0.2595 0.06287 0.96718 0.0
O73 O 0.14688 0.01056 0.92379 0.0
O74 O 0.22642 0.94928 0.92493 0.0
C75 C 0.36267 0.0273 0.88212 0.0
O76 O 0.21798 0.03727 0.83412 0.0
O77 O 0.17916 0.11676 0.86414 0.0
In78 In 0.0061 0.75263 0.12462 0.0
O79 O 0.03925 0.65459 0.10773 0.0
O80 O 0.98458 0.66323 0.16108 0.0
C81 C 0.05963 0.81481 0.06276 0.0
C82 C 0.05746 0.80891 0.18969 0.0
C83 C 0.88771 0.75751 0.09498 0.0
O84 O 0.08151 0.76303 0.07565 0.0
O85 O 0.01311 0.83601 0.08209 0.0
O86 O 0.90526 0.79358 0.12309 0.0
O87 O 0.92834 0.71711 0.08446 0.0
C88 C 0.01273 0.62702 0.13666 0.0
O89 O -0.00039 0.81475 0.18097 0.0
O90 O 0.08855 0.77371 0.16631 0.0
In91 In 0.74641 0.93286 0.9029 0.0
O92 O 0.80999 0.94518 0.84751 0.0
O93 O 0.75718 0.86062 0.85289 0.0
C94 C 0.81746 0.02011 0.94019 0.0
C95 C 0.62643 0.96388 0.88432 0.0
C96 C 0.74832 0.8552 0.96699 0.0
O97 O 0.83853 0.96617 0.93062 0.0
O98 O 0.76191 0.03167 0.92832 0.0
O99 O 0.77251 0.84024 0.93377 0.0
O100 O 0.72045 0.90799 0.96726 0.0
C101 C 0.79586 0.89225 0.83254 0.0
O102 O 0.64263 0.90934 0.89569 0.0
O103 O 0.67103 0.0031 0.88172 0.0
C104 C 0.93632 0.51622 0.63964 0.0
C105 C 0.98391 0.56185 0.63603 0.0
H106 H 0.91373 0.41797 0.64212 0.0
C107 C 0.04749 0.54243 0.63527 0.0
H108 H 0.88695 0.52999 0.64061 0.0
C109 C 0.06293 0.47799 0.63568 0.0
C110 C 0.01498 0.43229 0.6374 0.0
H111 H 0.08506 0.57681 0.63248 0.0
H112 H 0.11209 0.46397 0.63331 0.0
C113 C 0.95172 0.45208 0.6406 0.0
C114 C 0.52465 0.00388 0.33929 0.0
C115 C 0.55737 0.01011 0.37567 0.0
H116 H 0.43389 0.99333 0.3109 0.0
C117 C 0.52352 0.0084 0.41172 0.0
H118 H 0.54996 0.00487 0.31113 0.0
C119 C 0.45836 -0.00047 0.41163 0.0
C120 C 0.42527 0.99414 0.37544 0.0
H121 H 0.54767 0.01245 0.4402 0.0
H122 H 0.43364 -0.00203 0.44 0.0
C123 C 0.45864 -0.0028 0.33915 0.0
C124 C -0.00221 0.45842 0.10196 0.0
C125 C 0.99331 0.42512 0.1381 0.0
H126 H 0.00932 0.54804 0.07352 0.0
C127 C -0.00352 0.45847 0.17444 0.0
H128 H -0.0039 0.43374 0.07354 0.0
C129 C 0.00246 0.52462 0.17441 0.0
C130 C 0.00783 0.55754 0.13808 0.0
H131 H 0.99327 0.43359 0.20267 0.0
H132 H 0.00362 0.54986 0.20262 0.0
C133 C 0.00594 0.52374 0.10196 0.0
C134 C 0.44992 0.94902 0.87403 0.0
C135 C 0.43028 0.01244 0.87681 0.0
H136 H 0.52766 0.88407 0.87424 0.0
C137 C 0.47603 0.06039 0.87796 0.0
H138 H 0.41574 0.91103 0.87295 0.0
C139 C 0.54038 0.04486 0.87828 0.0
C140 C 0.5597 0.98118 0.87795 0.0
H141 H 0.46213 0.10968 0.87998 0.0
H142 H 0.57478 0.08249 0.88065 0.0
C143 C 0.51399 0.93353 0.87485 0.0
C144 C 0.14695 0.19203 0.44142 0.0
C145 C 0.2058 0.16165 0.44494 0.0
H146 H 0.07441 0.24447 0.47146 0.0
C147 C 0.243 0.17334 0.47904 0.0
H148 H 0.11738 0.18422 0.41543 0.0
C149 C 0.21823 0.20734 0.51132 0.0
C150 C 0.15608 0.23059 0.50983 0.0
H151 H 0.28898 0.15118 0.4824 0.0
H152 H 0.24567 0.21049 0.5386 0.0
C153 C 0.12229 0.22643 0.47365 0.0
C154 C 0.15515 0.85059 0.50166 0.0
C155 C 0.13302 0.90552 0.48256 0.0
H156 H 0.13777 0.78034 0.54647 0.0
C157 C 0.07754 0.93484 0.49664 0.0
H158 H 0.19804 0.82734 0.49163 0.0
C159 C 0.04361 0.90854 0.52826 0.0
C160 C 0.06423 0.85217 0.54633 0.0
H161 H 0.05967 0.97768 0.48283 0.0
H162 H -4e-05 0.93119 0.53753 0.0
C163 C 0.1209 0.824 0.53321 0.0
C164 C 0.73596 0.82966 0.48208 0.0
C165 C 0.77154 0.83768 0.44691 0.0
H166 H 0.73528 0.79566 0.54234 0.0
C167 C 0.82841 0.80389 0.44247 0.0
H168 H 0.69152 0.85448 0.48622 0.0
C169 C 0.85306 0.76936 0.47461 0.0
C170 C 0.8214 0.76888 0.5116 0.0
H171 H 0.8567 0.80892 0.41566 0.0
H172 H 0.89971 0.74852 0.47166 0.0
C173 C 0.76098 0.79602 0.51431 0.0
C174 C 0.89952 0.05678 0.50297 0.0
C175 C 0.84693 0.08907 0.48716 0.0
H176 H 0.97473 0.05708 0.54573 0.0
C177 C 0.82665 0.14544 0.50542 0.0
H178 H 0.91577 0.01271 0.48985 0.0
C179 C 0.86038 0.17077 0.53763 0.0
C180 C 0.91467 0.13988 0.55226 0.0
H181 H 0.7859 0.17094 0.49409 0.0
H182 H 0.84536 0.21576 0.55004 0.0
C183 C 0.93292 0.08182 0.53528 0.0
C184 C 0.82357 0.11906 0.98127 0.0
C185 C 0.85095 0.0617 0.96861 0.0
H186 H 0.82796 0.19713 0.02223 0.0
C187 C 0.90699 0.04069 0.9869 0.0
H188 H 0.78019 0.13626 0.96782 0.0
C189 C 0.93376 0.07502 0.01825 0.0
C190 C 0.90524 0.13126 0.03185 0.0
H191 H 0.92903 -0.00349 0.97797 0.0
H192 H 0.97633 0.05687 0.03224 0.0
C193 C 0.85061 0.15367 0.01256 0.0
C194 C 0.22645 0.12067 0.04105 0.0
C195 C 0.23109 0.15473 1.00502 0.0
H196 H 0.18385 0.11566 0.09909 0.0
C197 C 0.20856 0.21721 1.00375 0.0
H198 H 0.24394 0.07253 0.04308 0.0
C199 C 0.17465 0.24208 0.03601 0.0
C200 C 0.16234 0.20463 0.06988 0.0
H201 H 0.21215 0.24487 0.97658 0.0
H202 H 0.15299 0.28833 0.03277 0.0
C203 C 0.19214 0.14543 0.07328 0.0
C204 C 0.14039 0.82639 0.00847 0.0
C205 C 0.08509 0.84787 0.02742 0.0
H206 H 0.21005 0.844 0.9634 0.0
C207 C 0.05403 0.90179 0.01241 0.0
H208 H 0.16493 0.78462 0.01916 0.0
C209 C 0.07927 0.93522 0.98021 0.0
C210 C 0.13629 0.91561 0.96251 0.0
H211 H 0.01082 0.91904 0.02609 0.0
H212 H 0.05557 0.97801 0.97038 0.0
C213 C 0.16588 0.86009 0.97636 0.0
C214 C 0.79035 0.76003 1.00184 0.0
C215 C 0.76429 0.82102 1.00406 0.0
H216 H 0.84814 0.69041 0.03034 0.0
C217 C 0.76567 0.85365 0.04075 0.0
H218 H 0.78922 0.73358 0.97407 0.0
C219 C 0.80025 0.82932 0.07297 0.0
C220 C 0.83319 0.77185 0.06889 0.0
H221 H 0.74563 0.90074 0.04332 0.0
H222 H 0.80613 0.85831 0.09944 0.0
C223 C 0.82403 0.73534 0.03417 0.0
C224 C 0.15478 0.10936 0.7209 0.0
C225 C 0.10926 0.15799 0.72097 0.0
H226 H 0.2136 0.04795 0.75597 0.0
C227 C 0.08685 0.18117 0.75776 0.0
H228 H 0.17276 0.09045 0.69298 0.0
C229 C 0.11089 0.15752 0.79378 0.0
C230 C 0.15699 0.10945 0.79372 0.0
H231 H 0.05186 0.21872 0.75874 0.0
H232 H 0.09368 0.17718 0.82169 0.0
C233 C 0.17802 0.08494 0.75694 0.0
C234 C 0.1443 0.81847 0.23988 0.0
C235 C 0.08743 0.84174 0.22384 0.0
H236 H 0.21708 0.82998 0.2838 0.0
C237 C 0.06096 0.89738 0.23989 0.0
H238 H 0.16581 0.77574 0.22807 0.0
C239 C 0.09127 0.92944 0.2712 0.0
C240 C 0.1477 0.90548 0.28759 0.0
H241 H 0.01738 0.91662 0.22787 0.0
H242 H 0.06998 0.97225 0.28304 0.0
C243 C 0.17367 0.84954 0.27174 0.0
C244 C 0.89737 0.87488 0.73937 0.0
C245 C 0.87041 0.82125 0.72135 0.0
H246 H 0.89436 0.94016 0.78867 0.0
C247 C 0.81919 0.79154 0.74019 0.0
H248 H 0.9368 0.89881 0.72543 0.0
C249 C 0.79548 0.81466 0.77633 0.0
C250 C 0.82187 0.86855 0.79426 0.0
H251 H 0.79747 0.75006 0.7271 0.0
H252 H 0.75603 0.79046 0.79007 0.0
C253 C 0.87299 0.89862 0.77543 0.0
C254 C 0.89739 0.06265 0.27483 0.0
C255 C 0.84186 0.08954 0.29067 0.0
H256 H 0.97222 0.07081 0.23171 0.0
C257 C 0.8188 0.1463 0.27433 0.0
H258 H 0.91647 0.01914 0.28709 0.0
C259 C 0.84994 0.17513 0.24236 0.0
C260 C 0.90574 0.14872 0.2267 0.0
H261 H 0.77617 0.16813 0.28598 0.0
H262 H 0.83053 0.21845 0.23006 0.0
C263 C 0.92952 0.09243 0.24341 0.0
loop_
_geom_bond_atom_site_label_1
_geom_bond_atom_site_label_2
_geom_bond_distance
_geom_bond_site_symmetry_2
_ccdc_geom_bond_type
In0 O1 2.294 . S
In0 O2 2.326 . S
In0 O6 2.266 . S
In0 O7 2.326 . S
In0 O8 2.266 1_455 S
In0 O9 2.326 . S
In0 O11 2.294 . S
In0 O12 2.326 . S
O1 In0 2.294 . S
O1 C10 1.240 . S
O2 In0 2.326 . S
O2 C10 1.252 . S
C3 O6 1.252 . S
C3 O7 1.260 . S
C4 O11 1.240 . S
C4 O12 1.252 . S
C5 O8 1.252 . S
C5 O9 1.260 1_655 S
O6 In0 2.266 . S
O6 C3 1.252 . S
O7 In0 2.326 . S
O7 C3 1.260 . S
O8 In0 2.266 1_655 S
O8 C5 1.252 . S
O9 In0 2.326 . S
O9 C5 1.260 1_455 S
C10 O1 1.240 . S
C10 O2 1.252 . S
O11 In0 2.294 . S
O11 C4 1.240 . S
O12 In0 2.326 . S
O12 C4 1.252 . S
In13 O14 2.294 . S
In13 O15 2.326 . S
In13 O19 2.266 . S
In13 O20 2.326 . S
In13 O21 2.266 1_565 S
In13 O22 2.326 . S
In13 O24 2.294 . S
In13 O25 2.326 . S
O14 In13 2.294 . S
O14 C23 1.240 . S
O15 In13 2.326 . S
O15 C23 1.252 . S
C16 O19 1.252 . S
C16 O20 1.260 . S
C17 O24 1.240 . S
C17 O25 1.252 . S
C18 O21 1.252 . S
C18 O22 1.260 1_545 S
O19 In13 2.266 . S
O19 C16 1.252 . S
O20 In13 2.326 . S
O20 C16 1.260 . S
O21 In13 2.266 1_545 S
O21 C18 1.252 . S
O22 In13 2.326 . S
O22 C18 1.260 1_565 S
C23 O14 1.240 . S
C23 O15 1.252 . S
O24 In13 2.294 . S
O24 C17 1.240 . S
O25 In13 2.326 . S
O25 C17 1.252 . S
In26 O27 2.294 . S
In26 O28 2.326 . S
In26 O32 2.266 . S
In26 O33 2.326 . S
In26 O34 2.266 1_655 S
In26 O35 2.326 . S
In26 O37 2.294 . S
In26 O38 2.326 . S
O27 In26 2.294 . S
O27 C36 1.240 . S
O28 In26 2.326 . S
O28 C36 1.252 . S
C29 O32 1.252 . S
C29 O33 1.260 . S
C30 O37 1.240 . S
C30 O38 1.252 . S
C31 O34 1.252 . S
C31 O35 1.260 1_455 S
O32 In26 2.266 . S
O32 C29 1.252 . S
O33 In26 2.326 . S
O33 C29 1.260 . S
O34 In26 2.266 1_455 S
O34 C31 1.252 . S
O35 In26 2.326 . S
O35 C31 1.260 1_655 S
C36 O27 1.240 . S
C36 O28 1.252 . S
O37 In26 2.294 . S
O37 C30 1.240 . S
O38 In26 2.326 . S
O38 C30 1.252 . S
In39 O40 2.294 . S
In39 O41 2.326 . S
In39 O45 2.266 . S
In39 O46 2.326 . S
In39 O47 2.266 1_545 S
In39 O48 2.326 . S
In39 O50 2.294 . S
In39 O51 2.326 . S
O40 In39 2.294 . S
O40 C49 1.240 . S
O41 In39 2.326 . S
O41 C49 1.252 . S
C42 O45 1.252 . S
C42 O46 1.260 . S
C43 O50 1.240 . S
C43 O51 1.252 . S
C44 O47 1.252 . S
C44 O48 1.260 1_565 S
O45 In39 2.266 . S
O45 C42 1.252 . S
O46 In39 2.326 . S
O46 C42 1.260 . S
O47 In39 2.266 1_565 S
O47 C44 1.252 . S
O48 In39 2.326 . S
O48 C44 1.260 1_545 S
C49 O40 1.240 . S
C49 O41 1.252 . S
O50 In39 2.294 . S
O50 C43 1.240 . S
O51 In39 2.326 . S
O51 C43 1.252 . S
In52 O53 2.294 . S
In52 O54 2.326 . S
In52 O58 2.266 1_655 S
In52 O59 2.326 . S
In52 O60 2.266 . S
In52 O61 2.326 . S
In52 O63 2.294 . S
In52 O64 2.326 . S
O53 In52 2.294 . S
O53 C62 1.240 . S
O54 In52 2.326 . S
O54 C62 1.252 . S
C55 O58 1.252 . S
C55 O59 1.260 1_455 S
C56 O63 1.240 . S
C56 O64 1.252 . S
C57 O60 1.252 . S
C57 O61 1.260 . S
O58 In52 2.266 1_455 S
O58 C55 1.252 . S
O59 In52 2.326 . S
O59 C55 1.260 1_655 S
O60 In52 2.266 . S
O60 C57 1.252 . S
O61 In52 2.326 . S
O61 C57 1.260 . S
C62 O53 1.240 . S
C62 O54 1.252 . S
O63 In52 2.294 . S
O63 C56 1.240 . S
O64 In52 2.326 . S
O64 C56 1.252 . S
In65 O66 2.294 . S
In65 O67 2.326 . S
In65 O71 2.266 . S
In65 O72 2.326 . S
In65 O73 2.266 1_545 S
In65 O74 2.326 . S
In65 O76 2.294 . S
In65 O77 2.326 . S
O66 In65 2.294 . S
O66 C75 1.240 . S
O67 In65 2.326 . S
O67 C75 1.252 . S
C68 O71 1.252 . S
C68 O72 1.260 . S
C69 O76 1.240 . S
C69 O77 1.252 . S
C70 O73 1.252 . S
C70 O74 1.260 1_565 S
O71 In65 2.266 . S
O71 C68 1.252 . S
O72 In65 2.326 . S
O72 C68 1.260 . S
O73 In65 2.266 1_565 S
O73 C70 1.252 . S
O74 In65 2.326 . S
O74 C70 1.260 1_545 S
C75 O66 1.240 . S
C75 O67 1.252 . S
O76 In65 2.294 . S
O76 C69 1.240 . S
O77 In65 2.326 . S
O77 C69 1.252 . S
In78 O79 2.294 . S
In78 O80 2.326 . S
In78 O84 2.266 . S
In78 O85 2.326 . S
In78 O86 2.266 1_455 S
In78 O87 2.326 . S
In78 O89 2.294 . S
In78 O90 2.326 . S
O79 In78 2.294 . S
O79 C88 1.240 . S
O80 In78 2.326 . S
O80 C88 1.252 . S
C81 O84 1.252 . S
C81 O85 1.260 . S
C82 O89 1.240 . S
C82 O90 1.252 . S
C83 O86 1.252 . S
C83 O87 1.260 1_655 S
O84 In78 2.266 . S
O84 C81 1.252 . S
O85 In78 2.326 . S
O85 C81 1.260 . S
O86 In78 2.266 1_655 S
O86 C83 1.252 . S
O87 In78 2.326 . S
O87 C83 1.260 1_455 S
C88 O79 1.240 . S
C88 O80 1.252 . S
O89 In78 2.294 . S
O89 C82 1.240 . S
O90 In78 2.326 . S
O90 C82 1.252 . S
In91 O92 2.294 . S
In91 O93 2.326 . S
In91 O97 2.266 1_565 S
In91 O98 2.326 . S
In91 O99 2.266 . S
In91 O100 2.326 . S
In91 O102 2.294 . S
In91 O103 2.326 . S
O92 In91 2.294 . S
O92 C101 1.240 . S
O93 In91 2.326 . S
O93 C101 1.252 . S
C94 O97 1.252 . S
C94 O98 1.260 1_545 S
C95 O102 1.240 . S
C95 O103 1.252 . S
C96 O99 1.252 . S
C96 O100 1.260 . S
O97 In91 2.266 1_545 S
O97 C94 1.252 . S
O98 In91 2.326 . S
O98 C94 1.260 1_565 S
O99 In91 2.266 . S
O99 C96 1.252 . S
O100 In91 2.326 . S
O100 C96 1.260 . S
C101 O92 1.240 . S
C101 O93 1.252 . S
O102 In91 2.294 . S
O102 C95 1.240 . S
O103 In91 2.326 . S
O103 C95 1.252 . S
C104 C105 1.387 . S
C104 H108 0.950 . S
C104 C113 1.390 1_655 S
C105 C104 1.387 . S
C105 C107 1.387 . S
H106 C113 0.950 . S
C107 C105 1.387 . S
C107 C109 1.390 1_655 S
C107 H111 0.950 . S
H108 C104 0.950 . S
C109 C107 1.390 1_455 S
C109 C110 1.387 . S
C109 H112 0.950 . S
C110 C109 1.387 . S
C110 C113 1.387 . S
H111 C107 0.950 . S
H112 C109 0.950 . S
C113 C104 1.390 1_455 S
C113 H106 0.950 . S
C113 C110 1.387 . S
C114 C115 1.387 . S
C114 H118 0.950 . S
C114 C123 1.390 1_545 S
C115 C114 1.387 . S
C115 C117 1.387 . S
H116 C123 0.950 . S
C117 C115 1.387 . S
C117 C119 1.390 1_545 S
C117 H121 0.950 . S
H118 C114 0.950 . S
C119 C117 1.390 1_565 S
C119 C120 1.387 . S
C119 H122 0.950 . S
C120 C119 1.387 . S
C120 C123 1.387 . S
H121 C117 0.950 . S
H122 C119 0.950 . S
C123 C114 1.390 1_565 S
C123 H116 0.950 . S
C123 C120 1.387 . S
C124 C125 1.387 . S
C124 H128 0.950 . S
C124 C133 1.390 1_655 S
C125 C124 1.387 . S
C125 C127 1.387 . S
H126 C133 0.950 . S
C127 C125 1.387 . S
C127 C129 1.390 1_655 S
C127 H131 0.950 . S
H128 C124 0.950 . S
C129 C127 1.390 1_455 S
C129 C130 1.387 . S
C129 H132 0.950 . S
C130 C129 1.387 . S
C130 C133 1.387 . S
H131 C127 0.950 . S
H132 C129 0.950 . S
C133 C124 1.390 1_455 S
C133 H126 0.950 . S
C133 C130 1.387 . S
C134 C135 1.387 . S
C134 H138 0.950 . S
C134 C143 1.390 1_545 S
C135 C134 1.387 . S
C135 C137 1.387 . S
H136 C143 0.950 . S
C137 C135 1.387 . S
C137 C139 1.390 1_545 S
C137 H141 0.950 . S
H138 C134 0.950 . S
C139 C137 1.390 1_565 S
C139 C140 1.387 . S
C139 H142 0.950 . S
C140 C139 1.387 . S
C140 C143 1.387 . S
H141 C137 0.950 . S
H142 C139 0.950 . S
C143 C134 1.390 1_565 S
C143 H136 0.950 . S
C143 C140 1.387 . S
C144 C145 1.387 . S
C144 H148 0.950 . S
C144 C153 1.390 . S
C145 C144 1.387 . S
C145 C147 1.387 . S
H146 C153 0.950 . S
C147 C145 1.387 . S
C147 C149 1.390 . S
C147 H151 0.950 . S
H148 C144 0.950 . S
C149 C147 1.390 . S
C149 C150 1.387 . S
C149 H152 0.950 . S
C150 C149 1.387 . S
C150 C153 1.387 . S
H151 C147 0.950 . S
H152 C149 0.950 . S
C153 C144 1.390 . S
C153 H146 0.950 . S
C153 C150 1.387 . S
C154 C155 1.387 . S
C154 H158 0.950 . S
C154 C163 1.390 . S
C155 C154 1.387 . S
C155 C157 1.387 . S
H156 C163 0.950 . S
C157 C155 1.387 . S
C157 C159 1.390 . S
C157 H161 0.950 . S
H158 C154 0.950 . S
C159 C157 1.390 . S
C159 C160 1.387 . S
C159 H162 0.950 . S
C160 C159 1.387 . S
C160 C163 1.387 . S
H161 C157 0.950 . S
H162 C159 0.950 . S
C163 C154 1.390 . S
C163 H156 0.950 . S
C163 C160 1.387 . S
C164 C165 1.387 . S
C164 H168 0.950 . S
C164 C173 1.390 . S
C165 C164 1.387 . S
C165 C167 1.387 . S
H166 C173 0.950 . S
C167 C165 1.387 . S
C167 C169 1.390 . S
C167 H171 0.950 . S
H168 C164 0.950 . S
C169 C167 1.390 . S
C169 C170 1.387 . S
C169 H172 0.950 . S
C170 C169 1.387 . S
C170 C173 1.387 . S
H171 C167 0.950 . S
H172 C169 0.950 . S
C173 C164 1.390 . S
C173 H166 0.950 . S
C173 C170 1.387 . S
C174 C175 1.387 . S
C174 H178 0.950 . S
C174 C183 1.390 . S
C175 C174 1.387 . S
C175 C177 1.387 . S
H176 C183 0.950 . S
C177 C175 1.387 . S
C177 C179 1.390 . S
C177 H181 0.950 . S
H178 C174 0.950 . S
C179 C177 1.390 . S
C179 C180 1.387 . S
C179 H182 0.950 . S
C180 C179 1.387 . S
C180 C183 1.387 . S
H181 C177 0.950 . S
H182 C179 0.950 . S
C183 C174 1.390 . S
C183 H176 0.950 . S
C183 C180 1.387 . S
C184 C185 1.387 . S
C184 H188 0.950 . S
C184 C193 1.390 1_556 S
C185 C184 1.387 . S
C185 C187 1.387 . S
H186 C193 0.950 . S
C187 C185 1.387 . S
C187 C189 1.390 1_556 S
C187 H191 0.950 . S
H188 C184 0.950 . S
C189 C187 1.390 1_554 S
C189 C190 1.387 . S
C189 H192 0.950 . S
C190 C189 1.387 . S
C190 C193 1.387 . S
H191 C187 0.950 . S
H192 C189 0.950 . S
C193 C184 1.390 1_554 S
C193 H186 0.950 . S
C193 C190 1.387 . S
C194 C195 1.387 . S
C194 H198 0.950 . S
C194 C203 1.390 1_556 S
C195 C194 1.387 . S
C195 C197 1.387 . S
H196 C203 0.950 . S
C197 C195 1.387 . S
C197 C199 1.390 1_556 S
C197 H201 0.950 . S
H198 C194 0.950 . S
C199 C197 1.390 1_554 S
C199 C200 1.387 . S
C199 H202 0.950 . S
C200 C199 1.387 . S
C200 C203 1.387 . S
H201 C197 0.950 . S
H202 C199 0.950 . S
C203 C194 1.390 1_554 S
C203 H196 0.950 . S
C203 C200 1.387 . S
C204 C205 1.387 . S
C204 H208 0.950 . S
C204 C213 1.390 1_554 S
C205 C204 1.387 . S
C205 C207 1.387 . S
H206 C213 0.950 . S
C207 C205 1.387 . S
C207 C209 1.390 1_554 S
C207 H211 0.950 . S
H208 C204 0.950 . S
C209 C207 1.390 1_556 S
C209 C210 1.387 . S
C209 H212 0.950 . S
C210 C209 1.387 . S
C210 C213 1.387 . S
H211 C207 0.950 . S
H212 C209 0.950 . S
C213 C204 1.390 1_556 S
C213 H206 0.950 . S
C213 C210 1.387 . S
C214 C215 1.387 . S
C214 H218 0.950 . S
C214 C223 1.390 1_556 S
C215 C214 1.387 . S
C215 C217 1.387 . S
H216 C223 0.950 . S
C217 C215 1.387 . S
C217 C219 1.390 1_556 S
C217 H221 0.950 . S
H218 C214 0.950 . S
C219 C217 1.390 1_554 S
C219 C220 1.387 . S
C219 H222 0.950 . S
C220 C219 1.387 . S
C220 C223 1.387 . S
H221 C217 0.950 . S
H222 C219 0.950 . S
C223 C214 1.390 1_554 S
C223 H216 0.950 . S
C223 C220 1.387 . S
C224 C225 1.387 . S
C224 H228 0.950 . S
C224 C233 1.390 . S
C225 C224 1.387 . S
C225 C227 1.387 . S
H226 C233 0.950 . S
C227 C225 1.387 . S
C227 C229 1.390 . S
C227 H231 0.950 . S
H228 C224 0.950 . S
C229 C227 1.390 . S
C229 C230 1.387 . S
C229 H232 0.950 . S
C230 C229 1.387 . S
C230 C233 1.387 . S
H231 C227 0.950 . S
H232 C229 0.950 . S
C233 C224 1.390 . S
C233 H226 0.950 . S
C233 C230 1.387 . S
C234 C235 1.387 . S
C234 H238 0.950 . S
C234 C243 1.390 . S
C235 C234 1.387 . S
C235 C237 1.387 . S
H236 C243 0.950 . S
C237 C235 1.387 . S
C237 C239 1.390 . S
C237 H241 0.950 . S
H238 C234 0.950 . S
C239 C237 1.390 . S
C239 C240 1.387 . S
C239 H242 0.950 . S
C240 C239 1.387 . S
C240 C243 1.387 . S
H241 C237 0.950 . S
H242 C239 0.950 . S
C243 C234 1.390 . S
C243 H236 0.950 . S
C243 C240 1.387 . S
C244 C245 1.387 . S
C244 H248 0.950 . S
C244 C253 1.390 . S
C245 C244 1.387 . S
C245 C247 1.387 . S
H246 C253 0.950 . S
C247 C245 1.387 . S
C247 C249 1.390 . S
C247 H251 0.950 . S
H248 C244 0.950 . S
C249 C247 1.390 . S
C249 C250 1.387 . S
C249 H252 0.950 . S
C250 C249 1.387 . S
C250 C253 1.387 . S
H251 C247 0.950 . S
H252 C249 0.950 . S
C253 C244 1.390 . S
C253 H246 0.950 . S
C253 C250 1.387 . S
C254 C255 1.387 . S
C254 H258 0.950 . S
C254 C263 1.390 . S
C255 C254 1.387 . S
C255 C257 1.387 . S
H256 C263 0.950 . S
C257 C255 1.387 . S
C257 C259 1.390 . S
C257 H261 0.950 . S
H258 C254 0.950 . S
C259 C257 1.390 . S
C259 C260 1.387 . S
C259 H262 0.950 . S
C260 C259 1.387 . S
C260 C263 1.387 . S
H261 C257 0.950 . S
H262 C259 0.950 . S
C263 C254 1.390 . S
C263 H256 0.950 . S
C263 C260 1.387 . S
C105 C36 1.646 . S
C110 C10 1.646 . S
C115 C49 1.648 . S
C120 C23 1.648 . S
C125 C56 1.646 . S
C130 C88 1.646 . S
C135 C75 1.646 . S
C140 C95 1.646 . S
C145 C18 1.273 . S
C150 C3 1.243 . S
C155 C16 1.243 . S
C160 C31 1.273 . S
C165 C44 1.272 . S
C170 C29 1.244 . S
C175 C42 1.244 . S
C180 C5 1.272 . S
C185 C94 1.274 . S
C190 C57 1.244 . S
C195 C68 1.242 . S
C200 C55 1.273 . S
C205 C81 1.243 . S
C210 C70 1.273 . S
C215 C96 1.243 . S
C220 C83 1.272 . S
C225 C4 1.694 . S
C230 C69 1.694 . S
C235 C82 1.695 . S
C240 C17 1.695 . S
C245 C30 1.695 . S
C250 C101 1.695 . S
C255 C43 1.694 . S
C260 C62 1.694 . S
