# Generated by pormake.
# Topology wkj, (6)-cn, num edge types: 1
# Building blocks:
#     Node 0, Type 0, BuildingBlock: BETDEL_clean_sbu_0, # of connection points: 6
#     Node 1, Type 0, BuildingBlock: BETDEL_clean_sbu_0, # of connection points: 6
#     Node 2, Type 0, BuildingBlock: BETDEL_clean_sbu_0, # of connection points: 6
#     Node 3, Type 0, BuildingBlock: BETDEL_clean_sbu_0, # of connection points: 6
#     Node 4, Type 0, BuildingBlock: BETDEL_clean_sbu_0, # of connection points: 6
#     Node 5, Type 0, BuildingBlock: BETDEL_clean_sbu_0, # of connection points: 6
#     Node 6, Type 0, BuildingBlock: BETDEL_clean_sbu_0, # of connection points: 6
#     Node 7, Type 0, BuildingBlock: BETDEL_clean_sbu_0, # of connection points: 6
#     Node 8, Type 0, BuildingBlock: BETDEL_clean_sbu_0, # of connection points: 6
#     Node 9, Type 0, BuildingBlock: BETDEL_clean_sbu_0, # of connection points: 6
#     Node 10, Type 0, BuildingBlock: BETDEL_clean_sbu_0, # of connection points: 6
#     Node 11, Type 0, BuildingBlock: BETDEL_clean_sbu_0, # of connection points: 6
#     Edge 12, Type (0, 0), BuildingBlock: UVAHIK_clean_linker_0, # of connection points: 2
#     Edge 13, Type (0, 0), BuildingBlock: UVAHIK_clean_linker_0, # of connection points: 2
#     Edge 14, Type (0, 0), BuildingBlock: UVAHIK_clean_linker_0, # of connection points: 2
#     Edge 15, Type (0, 0), BuildingBlock: UVAHIK_clean_linker_0, # of connection points: 2
#     Edge 16, Type (0, 0), BuildingBlock: UVAHIK_clean_linker_0, # of connection points: 2
#     Edge 17, Type (0, 0), BuildingBlock: UVAHIK_clean_linker_0, # of connection points: 2
#     Edge 18, Type (0, 0), BuildingBlock: UVAHIK_clean_linker_0, # of connection points: 2
#     Edge 19, Type (0, 0), BuildingBlock: UVAHIK_clean_linker_0, # of connection points: 2
#     Edge 20, Type (0, 0), BuildingBlock: UVAHIK_clean_linker_0, # of connection points: 2
#     Edge 21, Type (0, 0), BuildingBlock: UVAHIK_clean_linker_0, # of connection points: 2
#     Edge 22, Type (0, 0), BuildingBlock: UVAHIK_clean_linker_0, # of connection points: 2
#     Edge 23, Type (0, 0), BuildingBlock: UVAHIK_clean_linker_0, # of connection points: 2
#     Edge 24, Type (0, 0), BuildingBlock: UVAHIK_clean_linker_0, # of connection points: 2
#     Edge 25, Type (0, 0), BuildingBlock: UVAHIK_clean_linker_0, # of connection points: 2
#     Edge 26, Type (0, 0), BuildingBlock: UVAHIK_clean_linker_0, # of connection points: 2
#     Edge 27, Type (0, 0), BuildingBlock: UVAHIK_clean_linker_0, # of connection points: 2
#     Edge 28, Type (0, 0), BuildingBlock: UVAHIK_clean_linker_0, # of connection points: 2
#     Edge 29, Type (0, 0), BuildingBlock: UVAHIK_clean_linker_0, # of connection points: 2
#     Edge 30, Type (0, 0), BuildingBlock: UVAHIK_clean_linker_0, # of connection points: 2
#     Edge 31, Type (0, 0), BuildingBlock: UVAHIK_clean_linker_0, # of connection points: 2
#     Edge 32, Type (0, 0), BuildingBlock: UVAHIK_clean_linker_0, # of connection points: 2
#     Edge 33, Type (0, 0), BuildingBlock: UVAHIK_clean_linker_0, # of connection points: 2
#     Edge 34, Type (0, 0), BuildingBlock: UVAHIK_clean_linker_0, # of connection points: 2
#     Edge 35, Type (0, 0), BuildingBlock: UVAHIK_clean_linker_0, # of connection points: 2
#     Edge 36, Type (0, 0), BuildingBlock: UVAHIK_clean_linker_0, # of connection points: 2
#     Edge 37, Type (0, 0), BuildingBlock: UVAHIK_clean_linker_0, # of connection points: 2
#     Edge 38, Type (0, 0), BuildingBlock: UVAHIK_clean_linker_0, # of connection points: 2
#     Edge 39, Type (0, 0), BuildingBlock: UVAHIK_clean_linker_0, # of connection points: 2
#     Edge 40, Type (0, 0), BuildingBlock: UVAHIK_clean_linker_0, # of connection points: 2
#     Edge 41, Type (0, 0), BuildingBlock: UVAHIK_clean_linker_0, # of connection points: 2
#     Edge 42, Type (0, 0), BuildingBlock: UVAHIK_clean_linker_0, # of connection points: 2
#     Edge 43, Type (0, 0), BuildingBlock: UVAHIK_clean_linker_0, # of connection points: 2
#     Edge 44, Type (0, 0), BuildingBlock: UVAHIK_clean_linker_0, # of connection points: 2
#     Edge 45, Type (0, 0), BuildingBlock: UVAHIK_clean_linker_0, # of connection points: 2
#     Edge 46, Type (0, 0), BuildingBlock: UVAHIK_clean_linker_0, # of connection points: 2
#     Edge 47, Type (0, 0), BuildingBlock: UVAHIK_clean_linker_0, # of connection points: 2
# Relax obj value: 0.352
# Max RMSD: 0.192
# Mean RMSD: 0.192
data_MOF--net-wkj--node1-BETDEL_clean_sbu_0--edge1-UVAHIK_clean_linker_0
_symmetry_space_group_name_H-M    P1
_symmetry_Int_Tables_number       1
_symmetry_cell_setting            triclinic
loop_
_symmetry_equiv_pos_as_xyz
'x, y, z'
_cell_length_a     61.346145
_cell_length_b     60.849981
_cell_length_c     34.991331
_cell_angle_alpha  90.084543
_cell_angle_beta   89.902934
_cell_angle_gamma 119.71591
loop_
_atom_site_label
_atom_site_type_symbol
_atom_site_fract_x
_atom_site_fract_y
_atom_site_fract_z
_atom_type_partial_charge
Dy0 Dy 0.42762 0.07214 0.29431 0.0
C1 C 0.52215 0.11835 0.21374 0.0
C2 C 0.3848 0.04472 0.33591 0.0
Dy3 Dy 0.47907 0.08978 0.25394 0.0
O4 O 0.39603 0.06906 0.3308 0.0
O5 O 0.39632 0.03533 0.31642 0.0
O6 O 0.43406 0.11156 0.29432 0.0
O7 O 0.4495 0.09976 0.25043 0.0
C8 C 0.44921 0.11856 0.2652 0.0
C9 C 0.45716 0.0442 0.28886 0.0
O10 O 0.49318 0.10821 0.31193 0.0
O11 O 0.4551 0.08619 0.34418 0.0
O12 O 0.51231 0.09423 0.22042 0.0
O13 O 0.50896 0.12695 0.23046 0.0
O14 O 0.47257 0.04952 0.26014 0.0
O15 O 0.45733 0.06397 0.29846 0.0
O16 O 0.41522 0.05138 0.23688 0.0
O17 O 0.45322 0.07321 0.20413 0.0
C18 C 0.47993 0.10172 0.34429 0.0
C19 C 0.42891 0.05648 0.20494 0.0
Dy20 Dy 0.36249 0.45008 0.63099 0.0
C21 C 0.38887 0.54023 0.54089 0.0
C22 C 0.35626 0.40984 0.67359 0.0
Dy23 Dy 0.38407 0.50192 0.58695 0.0
O24 O 0.33837 0.41426 0.66376 0.0
O25 O 0.37741 0.42696 0.65896 0.0
O26 O 0.32497 0.4478 0.63403 0.0
O27 O 0.34911 0.46601 0.58754 0.0
C28 C 0.32889 0.46147 0.60357 0.0
C29 C 0.41826 0.49347 0.62271 0.0
O30 O 0.37853 0.51442 0.64635 0.0
O31 O 0.37111 0.478 0.67933 0.0
O32 O 0.40709 0.53651 0.55146 0.0
O33 O 0.36812 0.52373 0.55743 0.0
O34 O 0.4235 0.50798 0.59274 0.0
O35 O 0.39595 0.48614 0.63124 0.0
O36 O 0.37265 0.43951 0.57394 0.0
O37 O 0.38053 0.47545 0.53932 0.0
C38 C 0.37568 0.50188 0.67917 0.0
C39 C 0.37776 0.45239 0.54123 0.0
Dy40 Dy 0.9103 0.38163 0.95954 0.0
C41 C 0.8363 0.39962 0.88401 0.0
C42 C 0.94696 0.3823 1.00419 0.0
Dy43 Dy 0.87441 0.39872 0.9224 0.0
O44 O 0.92756 0.36201 0.99117 0.0
O45 O 0.94703 0.40227 0.99081 0.0
O46 O 0.88279 0.34091 0.95056 0.0
O47 O 0.88291 0.36825 0.9133 0.0
C48 C 0.87102 0.34525 0.92328 0.0
C49 C 0.91081 0.43261 0.96852 0.0
O50 O 0.85321 0.38194 0.97782 0.0
O51 O 0.88368 0.37605 1.00828 0.0
O52 O 0.85854 0.41901 0.88928 0.0
O53 O 0.83467 0.37978 0.90077 0.0
O54 O 0.9011 0.43954 0.9412 0.0
O55 O 0.89905 0.40911 0.97014 0.0
O56 O 0.93181 0.4 0.9048 0.0
O57 O 0.90046 0.40395 0.87314 0.0
C58 C 0.86198 0.37614 1.00885 0.0
C59 C 0.92292 0.40553 0.87362 0.0
Dy60 Dy 0.54498 0.91609 0.28656 0.0
C61 C 0.45575 0.87078 0.19478 0.0
C62 C 0.58294 0.93619 0.33909 0.0
Dy63 Dy 0.49408 0.89794 0.24441 0.0
O64 O 0.56745 0.91226 0.33403 0.0
O65 O 0.57834 0.94922 0.31422 0.0
O66 O 0.55128 0.88868 0.25262 0.0
O67 O 0.5144 0.87986 0.26738 0.0
C68 C 0.52742 0.87275 0.2486 0.0
C69 C 0.51248 0.94251 0.28063 0.0
O70 O 0.47738 0.88379 0.30193 0.0
O71 O 0.51555 0.90284 0.33429 0.0
O72 O 0.46443 0.89453 0.20318 0.0
O73 O 0.46767 0.86184 0.21415 0.0
O74 O 0.48867 0.92821 0.27293 0.0
O75 O 0.52468 0.93349 0.26469 0.0
O76 O 0.55962 0.93644 0.22977 0.0
O77 O 0.52203 0.91404 0.19636 0.0
C78 C 0.49052 0.89048 0.33407 0.0
C79 C 0.54648 0.93052 0.19727 0.0
Dy80 Dy 0.62429 0.5499 0.6311 0.0
C81 C 0.60003 0.45995 0.54604 0.0
C82 C 0.63489 0.58887 0.68028 0.0
Dy83 Dy 0.60359 0.49685 0.59413 0.0
O84 O 0.64997 0.58039 0.6718 0.0
O85 O 0.61427 0.5766 0.66082 0.0
O86 O 0.65952 0.56327 0.59706 0.0
O87 O 0.63967 0.52551 0.61635 0.0
C88 C 0.65797 0.54117 0.5965 0.0
C89 C 0.56977 0.50437 0.63068 0.0
O90 O 0.60834 0.48604 0.65359 0.0
O91 O 0.61416 0.52329 0.68184 0.0
O92 O 0.5811 0.46095 0.5609 0.0
O93 O 0.62093 0.47878 0.55842 0.0
O94 O 0.56729 0.48198 0.62592 0.0
O95 O 0.58818 0.52038 0.61126 0.0
O96 O 0.61474 0.55951 0.57345 0.0
O97 O 0.60628 0.52172 0.54397 0.0
C98 C 0.60971 0.49955 0.68437 0.0
C99 C 0.60946 0.54502 0.54241 0.0
Dy100 Dy 0.07815 0.60564 0.95595 0.0
C101 C 0.15718 0.60589 0.86714 0.0
C102 C 0.04634 0.60817 1.00847 0.0
Dy103 Dy 0.11909 0.59708 0.91606 0.0
O104 O 0.06881 0.62624 1.00063 0.0
O105 O 0.04077 0.58889 0.9864 0.0
O106 O 0.09281 0.64177 0.92242 0.0
O107 O 0.1173 0.62891 0.94025 0.0
C108 C 0.11561 0.64554 0.92131 0.0
C109 C 0.08363 0.55708 0.95247 0.0
O110 O 0.1349 0.60444 0.97594 0.0
O111 O 0.09869 0.60008 1.00483 0.0
O112 O 0.14065 0.58372 0.87998 0.0
O113 O 0.15313 0.62317 0.88175 0.0
O114 O 0.10602 0.56022 0.94657 0.0
O115 O 0.08108 0.57365 0.93442 0.0
O116 O 0.05815 0.5912 0.90029 0.0
O117 O 0.09224 0.59303 0.86753 0.0
C118 C 0.12116 0.6019 1.00694 0.0
C119 C 0.06889 0.58949 0.86822 0.0
Dy120 Dy 0.90743 0.5195 0.43207 0.0
C121 C 0.83291 0.43633 0.52119 0.0
C122 C 0.93791 0.55444 0.37923 0.0
Dy123 Dy 0.86902 0.46909 0.47237 0.0
O124 O 0.91491 0.54849 0.38666 0.0
O125 O 0.94468 0.54199 0.40189 0.0
O126 O 0.89228 0.5399 0.46723 0.0
O127 O 0.86854 0.50215 0.45044 0.0
C128 C 0.86998 0.52018 0.47003 0.0
C129 C 0.90486 0.46691 0.4327 0.0
O130 O 0.85208 0.46006 0.41337 0.0
O131 O 0.88659 0.49326 0.3832 0.0
O132 O 0.85265 0.43513 0.51078 0.0
O133 O 0.83269 0.45524 0.50432 0.0
O134 O 0.88297 0.44703 0.43876 0.0
O135 O 0.90682 0.4854 0.45189 0.0
O136 O 0.92848 0.52574 0.48692 0.0
O137 O 0.89533 0.49311 0.52049 0.0
C138 C 0.86469 0.47186 0.3819 0.0
C139 C 0.91838 0.51332 0.51924 0.0
Dy140 Dy 0.35903 0.91787 0.74736 0.0
C141 C 0.38137 0.84847 0.82916 0.0
C142 C 0.35496 0.9539 0.70673 0.0
Dy143 Dy 0.37758 0.88459 0.78837 0.0
O144 O 0.33628 0.93221 0.71709 0.0
O145 O 0.37581 0.95627 0.72 0.0
O146 O 0.32027 0.88476 0.74371 0.0
O147 O 0.34364 0.88759 0.78968 0.0
C148 C 0.32296 0.87351 0.77336 0.0
C149 C 0.4136 0.92695 0.75447 0.0
O150 O 0.37124 0.86768 0.72837 0.0
O151 O 0.36521 0.89805 0.69695 0.0
O152 O 0.39979 0.87088 0.82122 0.0
O153 O 0.36087 0.84537 0.81325 0.0
O154 O 0.41767 0.9168 0.78442 0.0
O155 O 0.39126 0.91304 0.74492 0.0
O156 O 0.37047 0.93753 0.80521 0.0
O157 O 0.37497 0.90671 0.83802 0.0
C158 C 0.36859 0.878 0.6962 0.0
C159 C 0.37422 0.92816 0.83743 0.0
Dy160 Dy 0.43041 0.35824 0.08906 0.0
C161 C 0.51918 0.40102 0.18244 0.0
C162 C 0.39261 0.34267 0.0365 0.0
Dy163 Dy 0.48075 0.38909 0.13277 0.0
O164 O 0.40612 0.33202 0.04252 0.0
O165 O 0.39912 0.36127 0.06035 0.0
O166 O 0.42215 0.32369 0.12169 0.0
O167 O 0.4598 0.35076 0.10901 0.0
C168 C 0.44568 0.33039 0.12668 0.0
C169 C 0.464 0.41666 0.09633 0.0
O170 O 0.49805 0.39174 0.07573 0.0
O171 O 0.46038 0.37332 0.04209 0.0
O172 O 0.50965 0.41543 0.17477 0.0
O173 O 0.50795 0.38032 0.16252 0.0
O174 O 0.48762 0.42526 0.10419 0.0
O175 O 0.45115 0.39554 0.1121 0.0
O176 O 0.41591 0.36436 0.14582 0.0
O177 O 0.45254 0.37659 0.1805 0.0
C178 C 0.48538 0.38567 0.04318 0.0
C179 C 0.42847 0.37005 0.17884 0.0
Dy180 Dy 0.07479 0.4624 0.42612 0.0
C181 C 0.1517 0.55223 0.50238 0.0
C182 C 0.03756 0.42711 0.38144 0.0
Dy183 Dy 0.11189 0.51525 0.46376 0.0
O184 O 0.05619 0.42514 0.39532 0.0
O185 O 0.03856 0.44772 0.39398 0.0
O186 O 0.10272 0.44937 0.43314 0.0
O187 O 0.10238 0.47602 0.47157 0.0
C188 C 0.11433 0.46513 0.46092 0.0
C189 C 0.07562 0.51369 0.41858 0.0
O190 O 0.13245 0.51922 0.40763 0.0
O191 O 0.1014 0.483 0.3774 0.0
O192 O 0.13202 0.55348 0.49176 0.0
O193 O 0.14981 0.531 0.49106 0.0
O194 O 0.08564 0.5301 0.44628 0.0
O195 O 0.08691 0.50146 0.41633 0.0
O196 O 0.0539 0.45971 0.48141 0.0
O197 O 0.08505 0.49556 0.51261 0.0
C198 C 0.1233 0.50455 0.37668 0.0
C199 C 0.06271 0.47452 0.51228 0.0
Dy200 Dy 0.62371 0.07994 0.74977 0.0
C201 C 0.5978 0.14174 0.84192 0.0
C202 C 0.63382 0.05248 0.69807 0.0
Dy203 Dy 0.60208 0.11062 0.78992 0.0
O204 O 0.64582 0.07695 0.70084 0.0
O205 O 0.61671 0.04284 0.72449 0.0
O206 O 0.65969 0.10237 0.78162 0.0
O207 O 0.63829 0.11935 0.76614 0.0
C208 C 0.65725 0.12235 0.78448 0.0
C209 C 0.56863 0.06917 0.75319 0.0
O210 O 0.60582 0.12684 0.73083 0.0
O211 O 0.61118 0.09555 0.70115 0.0
O212 O 0.5791 0.12226 0.82581 0.0
O213 O 0.61885 0.14478 0.82831 0.0
O214 O 0.56542 0.08854 0.75917 0.0
O215 O 0.58758 0.07208 0.77152 0.0
O216 O 0.6154 0.0601 0.80661 0.0
O217 O 0.60596 0.088 0.83845 0.0
C218 C 0.60667 0.11479 0.6995 0.0
C219 C 0.60995 0.06837 0.83846 0.0
Dy220 Dy 0.55215 0.63466 0.08787 0.0
C221 C 0.45627 0.58977 0.16597 0.0
C222 C 0.59467 0.64722 0.04701 0.0
Dy223 Dy 0.49907 0.60276 0.12552 0.0
O224 O 0.58114 0.62588 0.06467 0.0
O225 O 0.58565 0.66221 0.05357 0.0
O226 O 0.54879 0.66935 0.0879 0.0
O227 O 0.5302 0.64161 0.13046 0.0
C228 C 0.53256 0.66166 0.11568 0.0
C229 C 0.51928 0.5774 0.09058 0.0
O230 O 0.48677 0.60875 0.06719 0.0
O231 O 0.52546 0.62385 0.03692 0.0
O232 O 0.46497 0.57463 0.15815 0.0
O233 O 0.47035 0.61161 0.14991 0.0
O234 O 0.50294 0.56743 0.11818 0.0
O235 O 0.52082 0.59792 0.0819 0.0
O236 O 0.56264 0.62502 0.1459 0.0
O237 O 0.52374 0.60889 0.17587 0.0
C238 C 0.50079 0.61558 0.03558 0.0
C239 C 0.54786 0.6156 0.17667 0.0
C240 C 0.46164 0.16394 0.27003 0.0
C241 C 0.46019 0.14394 0.24808 0.0
C242 C 0.46888 0.18735 0.25331 0.0
C243 C 0.46208 0.21157 0.16352 0.0
H244 H 0.49933 0.27677 0.21391 0.0
C245 C 0.47873 0.31813 0.13832 0.0
C246 C 0.45355 0.31241 0.14016 0.0
C247 C 0.48532 0.29992 0.14859 0.0
C248 C 0.48923 0.25877 0.19921 0.0
H249 H 0.46659 0.13299 0.19207 0.0
H250 H 0.47872 0.17402 0.16232 0.0
H251 H 0.50286 0.2406 0.23709 0.0
H252 H 0.41567 0.28342 0.15474 0.0
H253 H 0.4271 0.25164 0.17161 0.0
H254 H 0.44719 0.22929 0.12731 0.0
C255 C 0.47436 0.17153 0.19256 0.0
C256 C 0.49117 0.23811 0.21248 0.0
C257 C 0.46745 0.14813 0.20952 0.0
C258 C 0.43521 0.28838 0.1529 0.0
C259 C 0.4417 0.27015 0.16239 0.0
C260 C 0.45988 0.23208 0.15067 0.0
C261 C 0.47452 0.19115 0.21414 0.0
C262 C 0.47699 0.21413 0.19547 0.0
C263 C 0.46672 0.27563 0.15994 0.0
C264 C 0.47282 0.25561 0.16915 0.0
H265 H 0.45632 0.16122 0.29993 0.0
H266 H 0.46855 0.20197 0.27058 0.0
H267 H 0.45075 0.1933 0.15009 0.0
H268 H 0.49319 0.33639 0.12814 0.0
H269 H 0.50476 0.30451 0.1466 0.0
C270 C 0.2921 0.46775 0.61206 0.0
C271 C 0.31095 0.4686 0.5883 0.0
C272 C 0.27396 0.47287 0.59727 0.0
C273 C 0.23944 0.46455 0.51135 0.0
H274 H 0.21845 0.50936 0.55643 0.0
C275 C 0.1558 0.46897 0.44885 0.0
C276 C 0.13938 0.47124 0.4743 0.0
C277 C 0.17912 0.47317 0.46126 0.0
C278 C 0.22387 0.49653 0.54374 0.0
H279 H 0.32622 0.47605 0.53086 0.0
H280 H 0.29391 0.48429 0.50464 0.0
H281 H 0.25536 0.50876 0.58153 0.0
H282 H 0.1344 0.48037 0.53225 0.0
H283 H 0.17468 0.48629 0.55491 0.0
H284 H 0.20742 0.45092 0.47534 0.0
C285 C 0.29341 0.47996 0.53476 0.0
C286 C 0.24511 0.49639 0.55794 0.0
C287 C 0.31183 0.47528 0.54972 0.0
C288 C 0.14685 0.47846 0.51221 0.0
C289 C 0.17001 0.48204 0.52499 0.0
C290 C 0.21799 0.46428 0.49771 0.0
C291 C 0.27416 0.47847 0.55835 0.0
C292 C 0.25299 0.48033 0.54186 0.0
C293 C 0.18627 0.47895 0.49977 0.0
C294 C 0.20982 0.48022 0.51371 0.0
H295 H 0.29115 0.46276 0.64196 0.0
H296 H 0.25917 0.47139 0.61589 0.0
H297 H 0.24491 0.45165 0.49898 0.0
H298 H 0.15059 0.46389 0.41923 0.0
H299 H 0.19138 0.4715 0.4406 0.0
C300 C 0.83851 0.30014 0.91788 0.0
C301 C 0.84855 0.32502 0.90443 0.0
C302 C 0.81753 0.28041 0.90058 0.0
C303 C 0.76044 0.26207 0.85168 0.0
H304 H 0.7675 0.20553 0.81596 0.0
C305 C 0.67768 0.16953 0.78883 0.0
C306 C 0.67733 0.14694 0.79839 0.0
C307 C 0.69816 0.19292 0.799 0.0
C308 C 0.7651 0.22102 0.82612 0.0
H309 H 0.84464 0.34884 0.86217 0.0
H310 H 0.80683 0.314 0.83255 0.0
H311 H 0.80436 0.24407 0.83754 0.0
H312 H 0.69721 0.13086 0.8277 0.0
H313 H 0.73248 0.17145 0.84653 0.0
H314 H 0.72093 0.23854 0.84213 0.0
C315 C 0.81554 0.31004 0.85646 0.0
C316 C 0.78626 0.24315 0.83804 0.0
C317 C 0.837 0.32987 0.87343 0.0
C318 C 0.69719 0.14803 0.81959 0.0
C319 C 0.71749 0.17131 0.83005 0.0
C320 C 0.7391 0.23971 0.84013 0.0
C321 C 0.80589 0.28514 0.86975 0.0
C322 C 0.78403 0.26362 0.85166 0.0
C323 C 0.71854 0.19407 0.8191 0.0
C324 C 0.74115 0.2187 0.82815 0.0
H325 H 0.84696 0.29581 0.94176 0.0
H326 H 0.81027 0.26136 0.91143 0.0
H327 H 0.75835 0.27764 0.86238 0.0
H328 H 0.66253 0.16915 0.77243 0.0
H329 H 0.69839 0.21006 0.79007 0.0
C330 C 0.50905 0.67181 0.16541 0.0
C331 C 0.52138 0.67668 0.12999 0.0
C332 C 0.50045 0.68787 0.17914 0.0
C333 C 0.49009 0.74113 0.14871 0.0
H334 H 0.50918 0.76457 0.25285 0.0
C335 C 0.53224 0.84284 0.20592 0.0
C336 C 0.51782 0.84715 0.23284 0.0
C337 C 0.52483 0.81831 0.19363 0.0
C338 C 0.50324 0.7578 0.22398 0.0
H339 H 0.53362 0.70142 0.08061 0.0
H340 H 0.51945 0.72946 0.10455 0.0
H341 H 0.51001 0.72678 0.23115 0.0
H342 H 0.48409 0.82948 0.26754 0.0
H343 H 0.47156 0.78611 0.2468 0.0
H344 H 0.48562 0.77365 0.14088 0.0
C345 C 0.51577 0.71317 0.12168 0.0
C346 C 0.50361 0.73613 0.21152 0.0
C347 C 0.52423 0.69722 0.10808 0.0
C348 C 0.49545 0.82658 0.24659 0.0
C349 C 0.48832 0.80189 0.2349 0.0
C350 C 0.49013 0.76299 0.16102 0.0
C351 C 0.50406 0.70898 0.15758 0.0
C352 C 0.49806 0.72815 0.17325 0.0
C353 C 0.50314 0.79766 0.20861 0.0
C354 C 0.49745 0.77187 0.19836 0.0
H355 H 0.50669 0.65611 0.1829 0.0
H356 H 0.49138 0.68401 0.20683 0.0
H357 H 0.4851 0.73517 0.11932 0.0
H358 H 0.54953 0.8584 0.1949 0.0
H359 H 0.53654 0.81535 0.17343 0.0
C360 C 0.68017 0.51616 0.59486 0.0
C361 C 0.67793 0.53672 0.58177 0.0
C362 C 0.70047 0.51331 0.58342 0.0
C363 C 0.76453 0.55036 0.54171 0.0
H364 H 0.7582 0.48409 0.53032 0.0
C365 C 0.85119 0.53975 0.51177 0.0
C366 C 0.84806 0.52049 0.48654 0.0
C367 C 0.83029 0.5407 0.52569 0.0
C368 C 0.7603 0.50278 0.53296 0.0
H369 H 0.69418 0.5697 0.54512 0.0
H370 H 0.72894 0.56416 0.52362 0.0
H371 H 0.72148 0.48746 0.54658 0.0
H372 H 0.82084 0.48701 0.45618 0.0
H373 H 0.78451 0.48913 0.47907 0.0
H374 H 0.80298 0.56569 0.526 0.0
C375 C 0.71573 0.55075 0.54392 0.0
C376 C 0.73924 0.50471 0.54289 0.0
C377 C 0.69569 0.55382 0.55591 0.0
C378 C 0.82374 0.50198 0.47586 0.0
C379 C 0.80289 0.50313 0.48924 0.0
C380 C 0.78547 0.54842 0.53117 0.0
C381 C 0.71871 0.53075 0.55813 0.0
C382 C 0.74105 0.52854 0.54734 0.0
C383 C 0.80586 0.52263 0.51409 0.0
C384 C 0.78367 0.52461 0.52661 0.0
H385 H 0.66672 0.50275 0.61496 0.0
H386 H 0.70222 0.49785 0.59537 0.0
H387 H 0.76687 0.56906 0.54561 0.0
H388 H 0.86978 0.55412 0.52064 0.0
H389 H 0.83334 0.55567 0.54544 0.0
C390 C 0.28011 0.83626 0.76853 0.0
C391 C 0.30284 0.84932 0.78849 0.0
C392 C 0.2606 0.81359 0.78268 0.0
C393 C 0.23798 0.7754 0.87158 0.0
H394 H 0.19295 0.72355 0.80092 0.0
C395 C 0.16166 0.675 0.91747 0.0
C396 C 0.13733 0.66795 0.9049 0.0
C397 C 0.18236 0.69664 0.90296 0.0
C398 C 0.20536 0.73795 0.82088 0.0
H399 H 0.32298 0.8492 0.83917 0.0
H400 H 0.28947 0.80878 0.86297 0.0
H401 H 0.22903 0.76177 0.77628 0.0
H402 H 0.11541 0.67752 0.86702 0.0
H403 H 0.1519 0.71525 0.84073 0.0
H404 H 0.2145 0.75093 0.91615 0.0
C405 C 0.2864 0.81628 0.83676 0.0
C406 C 0.22597 0.75992 0.80687 0.0
C407 C 0.30579 0.83926 0.82288 0.0
C408 C 0.13402 0.68265 0.87715 0.0
C409 C 0.15481 0.70408 0.86207 0.0
C410 C 0.21763 0.7532 0.88558 0.0
C411 C 0.26347 0.80318 0.8169 0.0
C412 C 0.24238 0.77912 0.832 0.0
C413 C 0.1791 0.71134 0.87516 0.0
C414 C 0.20102 0.73445 0.86031 0.0
H415 H 0.27723 0.8437 0.74208 0.0
H416 H 0.2431 0.8045 0.767 0.0
H417 H 0.24987 0.78986 0.89183 0.0
H418 H 0.16467 0.66398 0.93896 0.0
H419 H 0.20094 0.70183 0.91329 0.0
C420 C 0.61701 0.16865 0.89963 0.0
C421 C 0.59559 0.15342 0.87761 0.0
C422 C 0.61457 0.17454 0.9375 0.0
C423 C 0.60196 0.16139 1.02139 0.0
H424 H 0.5471 0.16965 0.05959 0.0
C425 C 0.55151 0.11977 0.16322 0.0
C426 C 0.54072 0.13194 0.18337 0.0
C427 C 0.56446 0.13 0.1291 0.0
C428 C 0.56286 0.16784 0.04959 0.0
H429 H 0.55496 0.13419 0.87663 0.0
H430 H 0.55065 0.14444 0.94247 0.0
H431 H 0.55743 0.17555 0.99174 0.0
H432 H 0.53653 0.16527 0.18535 0.0
H433 H 0.55934 0.18328 0.12581 0.0
H434 H 0.60688 0.1529 0.07905 0.0
C435 C 0.56935 0.15195 0.93072 0.0
C436 C 0.5686 0.17098 1.0106 0.0
C437 C 0.57179 0.14599 0.89297 0.0
C438 C 0.54468 0.15548 0.17034 0.0
C439 C 0.55754 0.16568 0.13611 0.0
C440 C 0.59619 0.15821 0.06037 0.0
C441 C 0.59067 0.16542 0.95391 0.0
C442 C 0.58768 0.16698 0.99586 0.0
C443 C 0.56679 0.15259 0.1144 0.0
C444 C 0.57604 0.16058 0.07472 0.0
H445 H 0.6356 0.17466 0.88844 0.0
H446 H 0.63136 0.18527 0.95445 0.0
H447 H 0.61666 0.15797 1.01101 0.0
H448 H 0.54868 0.10157 0.17259 0.0
H449 H 0.57114 0.1193 0.113 0.0
C450 C 0.4357 0.60562 0.21141 0.0
C451 C 0.43841 0.58547 0.19729 0.0
C452 C 0.42369 0.6034 0.24642 0.0
C453 C 0.38565 0.55776 0.32332 0.0
H454 H 0.42634 0.61399 0.39078 0.0
C455 C 0.41363 0.5707 0.48953 0.0
C456 C 0.39018 0.55453 0.50609 0.0
C457 C 0.41527 0.57894 0.45185 0.0
C458 C 0.41463 0.5982 0.3723 0.0
H459 H 0.4291 0.54665 0.20715 0.0
H460 H 0.40822 0.54273 0.26805 0.0
H461 H 0.43537 0.61788 0.32256 0.0
H462 H 0.34995 0.53586 0.49739 0.0
H463 H 0.35278 0.55042 0.43145 0.0
H464 H 0.36595 0.53752 0.37344 0.0
C465 C 0.41518 0.56022 0.25221 0.0
C466 C 0.41963 0.60051 0.33305 0.0
C467 C 0.42722 0.56246 0.21729 0.0
C468 C 0.3683 0.54841 0.48536 0.0
C469 C 0.36993 0.55652 0.44747 0.0
C470 C 0.38063 0.55546 0.36259 0.0
C471 C 0.4141 0.58098 0.26793 0.0
C472 C 0.40574 0.58002 0.30822 0.0
C473 C 0.39346 0.57106 0.42981 0.0
C474 C 0.39561 0.57536 0.38772 0.0
H475 H 0.44418 0.62361 0.1966 0.0
H476 H 0.42284 0.61961 0.25738 0.0
H477 H 0.37436 0.54173 0.30497 0.0
H478 H 0.4308 0.57564 0.50482 0.0
H479 H 0.43371 0.58994 0.43919 0.0
C480 C 0.82442 0.42094 0.8346 0.0
C481 C 0.81862 0.39888 0.85495 0.0
C482 C 0.81197 0.41956 0.80062 0.0
C483 C 0.78291 0.37395 0.72283 0.0
H484 H 0.78616 0.433 0.67551 0.0
C485 C 0.79791 0.42718 0.5666 0.0
C486 C 0.81651 0.42198 0.55334 0.0
C487 C 0.78603 0.41746 0.60169 0.0
C488 C 0.78441 0.41594 0.68803 0.0
H489 H 0.79345 0.35841 0.85828 0.0
H490 H 0.77106 0.35599 0.79931 0.0
H491 H 0.78516 0.42965 0.74457 0.0
H492 H 0.83586 0.40105 0.56449 0.0
H493 H 0.81596 0.38479 0.62572 0.0
H494 H 0.78227 0.36029 0.6663 0.0
C495 C 0.78573 0.37431 0.80895 0.0
C496 C 0.78422 0.41421 0.72785 0.0
C497 C 0.79838 0.37571 0.84292 0.0
C498 C 0.82162 0.40539 0.57411 0.0
C499 C 0.80996 0.39588 0.60922 0.0
C500 C 0.78262 0.37545 0.68302 0.0
C501 C 0.79327 0.39605 0.78635 0.0
C502 C 0.78521 0.39403 0.74571 0.0
C503 C 0.79273 0.40258 0.62423 0.0
C504 C 0.78509 0.39726 0.66514 0.0
H505 H 0.8399 0.43908 0.84333 0.0
H506 H 0.81859 0.43674 0.78411 0.0
H507 H 0.7835 0.35798 0.7353 0.0
H508 H 0.79351 0.43982 0.5509 0.0
H509 H 0.7725 0.42261 0.61194 0.0
C510 C 0.40559 0.83907 0.8766 0.0
C511 C 0.38223 0.83352 0.86159 0.0
C512 C 0.40733 0.83147 0.91354 0.0
C513 C 0.40707 0.81214 0.99319 0.0
H514 H 0.37158 0.83454 0.0604 0.0
C515 C 0.43386 0.83326 0.15182 0.0
C516 C 0.43836 0.85732 0.16309 0.0
C517 C 0.42074 0.8222 0.1181 0.0
C518 C 0.38148 0.82801 0.04209 0.0
H519 H 0.34209 0.8135 0.87162 0.0
H520 H 0.34508 0.80008 0.93635 0.0
H521 H 0.36065 0.82754 0.99291 0.0
H522 H 0.43153 0.88807 0.14936 0.0
H523 H 0.40873 0.86892 0.09054 0.0
H524 H 0.4291 0.81437 0.04189 0.0
C525 C 0.36209 0.81054 0.91973 0.0
C526 C 0.375 0.82366 1.00345 0.0
C527 C 0.36036 0.818 0.88254 0.0
C528 C 0.42828 0.86948 0.14134 0.0
C529 C 0.4151 0.85841 0.10773 0.0
C530 C 0.41353 0.81646 0.03186 0.0
C531 C 0.38571 0.8183 0.93628 0.0
C532 C 0.38841 0.81667 0.97824 0.0
C533 C 0.41178 0.83496 0.09515 0.0
C534 C 0.40148 0.82544 0.0564 0.0
H535 H 0.42274 0.85102 0.86099 0.0
H536 H 0.42583 0.83791 0.92535 0.0
H537 H 0.41757 0.8065 0.97459 0.0
H538 H 0.44141 0.82345 0.16815 0.0
H539 H 0.41826 0.80401 0.1094 0.0
C540 C 0.54192 0.3863 0.22512 0.0
C541 C 0.53701 0.40553 0.21361 0.0
C542 C 0.55562 0.38906 0.25842 0.0
C543 C 0.596 0.43555 0.33196 0.0
H544 H 0.56027 0.37989 0.40267 0.0
C545 C 0.5743 0.42674 0.4985 0.0
C546 C 0.59804 0.44443 0.51249 0.0
C547 C 0.57179 0.41677 0.46179 0.0
C548 C 0.57066 0.39548 0.38316 0.0
H549 H 0.54373 0.44323 0.22627 0.0
H550 H 0.5676 0.44811 0.2843 0.0
H551 H 0.54795 0.37457 0.33559 0.0
H552 H 0.638 0.46372 0.5009 0.0
H553 H 0.63364 0.44618 0.43664 0.0
H554 H 0.61753 0.45705 0.37992 0.0
C555 C 0.56107 0.43096 0.26766 0.0
C556 C 0.56375 0.39238 0.34464 0.0
C557 C 0.54726 0.42813 0.23455 0.0
C558 C 0.61945 0.45018 0.49066 0.0
C559 C 0.61694 0.44028 0.45381 0.0
C560 C 0.60293 0.43864 0.37042 0.0
C561 C 0.56479 0.41117 0.28056 0.0
C562 C 0.57567 0.41273 0.31899 0.0
C563 C 0.593 0.42437 0.43837 0.0
C564 C 0.58964 0.41897 0.39674 0.0
H565 H 0.53423 0.36868 0.20937 0.0
H566 H 0.55837 0.37359 0.26749 0.0
H567 H 0.60575 0.45146 0.31274 0.0
H568 H 0.5575 0.42195 0.51483 0.0
H569 H 0.55305 0.40471 0.45076 0.0
C570 C 0.17527 0.58977 0.81798 0.0
C571 C 0.17366 0.61006 0.83405 0.0
C572 C 0.18582 0.59211 0.78174 0.0
C573 C 0.18545 0.62164 0.69433 0.0
H574 H 0.22339 0.59142 0.65403 0.0
C575 C 0.17268 0.59284 0.53849 0.0
C576 C 0.16933 0.56865 0.53186 0.0
C577 C 0.18433 0.60591 0.57199 0.0
C578 C 0.21265 0.59985 0.6647 0.0
H579 H 0.18383 0.64939 0.82672 0.0
H580 H 0.20181 0.65328 0.76303 0.0
H581 H 0.22371 0.59904 0.72268 0.0
H582 H 0.17717 0.53988 0.55309 0.0
H583 H 0.19589 0.56165 0.61235 0.0
H584 H 0.17222 0.62035 0.6379 0.0
C585 C 0.195 0.63564 0.77845 0.0
C586 C 0.21307 0.60441 0.70401 0.0
C587 C 0.18473 0.6334 0.81487 0.0
C588 C 0.17957 0.55858 0.55758 0.0
C589 C 0.19049 0.57125 0.59163 0.0
C590 C 0.18456 0.6166 0.65533 0.0
C591 C 0.19465 0.61469 0.76092 0.0
C592 C 0.19886 0.61467 0.71925 0.0
C593 C 0.19193 0.59458 0.60018 0.0
C594 C 0.19743 0.6048 0.64003 0.0
H595 H 0.16692 0.57161 0.83228 0.0
H596 H 0.18514 0.5756 0.76878 0.0
H597 H 0.17402 0.62924 0.70534 0.0
H598 H 0.16519 0.6011 0.51872 0.0
H599 H 0.18598 0.62427 0.57667 0.0
C600 C 0.37159 0.92773 0.90935 0.0
C601 C 0.3769 0.94135 0.87487 0.0
C602 C 0.37465 0.93972 0.94484 0.0
C603 C 0.38615 0.00108 0.99071 0.0
H604 H 0.40274 0.97348 0.07859 0.0
C605 C 0.42676 0.05621 0.13328 0.0
C606 C 0.41752 0.04325 0.1681 0.0
C607 C 0.41919 0.04353 0.09811 0.0
C608 C 0.39782 0.9813 0.05449 0.0
H609 H 0.3897 0.9786 0.85116 0.0
H610 H 0.39616 -0.00016 0.91283 0.0
H611 H 0.3961 0.95283 1.01676 0.0
H612 H 0.39272 0.00658 0.19289 0.0
H613 H 0.37982 0.98416 0.13126 0.0
H614 H 0.38923 0.03031 0.02867 0.0
C615 C 0.38883 0.9796 0.91269 0.0
C616 C 0.39386 0.96935 1.01869 0.0
C617 C 0.38526 0.96743 0.87703 0.0
C618 C 0.39997 0.01722 0.16668 0.0
C619 C 0.39279 0.00434 0.13135 0.0
C620 C 0.39059 0.01328 0.02641 0.0
C621 C 0.38368 0.96599 0.94742 0.0
C622 C 0.38789 0.97894 0.98598 0.0
C623 C 0.40253 0.01729 0.09655 0.0
C624 C 0.39648 0.00357 0.05886 0.0
H625 H 0.36479 0.90756 0.90901 0.0
H626 H 0.36966 0.92813 0.97027 0.0
H627 H 0.38114 0.00903 0.96694 0.0
H628 H 0.4404 0.07624 0.13324 0.0
H629 H 0.42723 0.05414 0.0721 0.0
C630 C 0.42509 0.36746 0.25046 0.0
C631 C 0.41678 0.37196 0.21535 0.0
C632 C 0.41774 0.37324 0.28536 0.0
C633 C 0.39971 0.4173 0.32695 0.0
H634 H 0.38019 0.37365 0.41582 0.0
C635 C 0.37516 0.44897 0.46947 0.0
C636 C 0.37968 0.44066 0.50456 0.0
C637 C 0.37767 0.43899 0.43462 0.0
C638 C 0.386 0.38638 0.39164 0.0
H639 H 0.39379 0.38579 0.18976 0.0
H640 H 0.38128 0.39637 0.2508 0.0
H641 H 0.38749 0.35878 0.3549 0.0
H642 H 0.3904 0.41504 0.53007 0.0
H643 H 0.39594 0.39839 0.46942 0.0
H644 H 0.39958 0.4454 0.36342 0.0
C645 C 0.39333 0.38807 0.2512 0.0
C646 C 0.39 0.37767 0.35644 0.0
C647 C 0.40027 0.38175 0.21619 0.0
C648 C 0.38662 0.42182 0.50369 0.0
C649 C 0.38966 0.41215 0.46863 0.0
C650 C 0.3962 0.4262 0.36222 0.0
C651 C 0.40229 0.38425 0.28628 0.0
C652 C 0.39686 0.39298 0.32353 0.0
C653 C 0.38538 0.42066 0.4333 0.0
C654 C 0.38918 0.41092 0.39537 0.0
H655 H 0.43794 0.36009 0.25094 0.0
H656 H 0.42515 0.37015 0.31163 0.0
H657 H 0.40544 0.42983 0.30248 0.0
H658 H 0.36943 0.46318 0.46885 0.0
H659 H 0.37335 0.44569 0.40867 0.0
C660 C 0.02175 0.45017 0.54943 0.0
C661 C 0.04788 0.46685 0.54894 0.0
C662 C 0.00819 0.44346 0.58414 0.0
C663 C 0.01502 0.43821 0.68867 0.0
H664 H 0.95412 0.44205 0.69814 0.0
C665 C 0.96373 0.42155 0.83621 0.0
C666 C 0.93768 0.41239 0.83689 0.0
C667 C 0.97723 0.42824 0.80143 0.0
C668 C 0.97078 0.44027 0.69621 0.0
H669 H 0.08007 0.48902 0.58535 0.0
H670 H 0.05667 0.47681 0.64539 0.0
H671 H 0.97647 0.45222 0.63744 0.0
H672 H 0.90548 0.4025 0.80068 0.0
H673 H 0.92834 0.41282 0.74081 0.0
H674 H 0.00914 0.42546 0.74675 0.0
C675 C 0.04657 0.46912 0.61893 0.0
C676 C 0.98374 0.44633 0.66109 0.0
C677 C 0.06 0.47626 0.5843 0.0
C678 C 0.92555 0.40978 0.80164 0.0
C679 C 0.93889 0.41598 0.76694 0.0
C680 C 0.00182 0.43166 0.72361 0.0
C681 C 0.02042 0.45272 0.61949 0.0
C682 C 0.00614 0.44552 0.65677 0.0
C683 C 0.96508 0.42557 0.76595 0.0
C684 C 0.97941 0.43262 0.72827 0.0
H685 H 0.01169 0.44252 0.52294 0.0
H686 H 0.98811 0.43069 0.58336 0.0
H687 H 0.03208 0.43713 0.68645 0.0
H688 H 0.97383 0.42398 0.86266 0.0
H689 H -0.00267 0.43589 0.80268 0.0
C690 C 0.58093 0.96696 0.15928 0.0
C691 C 0.55818 0.94384 0.16046 0.0
C692 C 0.58969 0.98057 0.12473 0.0
C693 C 0.57986 0.97398 1.01793 0.0
H694 H 0.60881 0.0468 1.02046 0.0
C695 C 0.61134 0.0341 0.8781 0.0
C696 C 0.60717 0.05483 0.87558 0.0
C697 C 0.60795 0.02114 0.91286 0.0
C698 C 0.6006 0.02644 1.01903 0.0
H699 H 0.52741 0.91665 0.12534 0.0
H700 H 0.54234 0.94006 0.06625 0.0
H701 H 0.59844 0.0231 0.08016 0.0
H702 H 0.59622 0.07806 0.90852 0.0
H703 H 0.58994 0.05542 0.96831 0.0
H704 H 0.58107 0.97713 0.9569 0.0
C705 C 0.55372 0.94782 0.09161 0.0
C706 C 0.59496 0.01281 0.05353 0.0
C707 C 0.545 0.93436 0.1259 0.0
C708 C 0.59974 0.06229 0.90905 0.0
C709 C 0.59629 0.04932 0.9437 0.0
C710 C 0.58544 0.98758 0.98348 0.0
C711 C 0.57603 0.97133 0.09036 0.0
C712 C 0.58414 0.98627 0.05361 0.0
C713 C 0.60022 0.02843 0.94629 0.0
C714 C 0.59561 0.01404 0.98333 0.0
H715 H 0.59157 0.97497 0.18522 0.0
H716 H 0.60711 -0.00157 0.12505 0.0
H717 H 0.57196 0.95366 1.01647 0.0
H718 H 0.61716 0.02778 0.85314 0.0
H719 H 0.61157 0.00545 0.9135 0.0
C720 C 0.61068 0.57929 0.49896 0.0
C721 C 0.606 0.55436 0.50432 0.0
C722 C 0.60675 0.58736 0.46308 0.0
C723 C 0.57042 0.56173 0.37309 0.0
H724 H 0.61513 0.62794 0.33034 0.0
C725 C 0.54063 0.59973 0.24447 0.0
C726 C 0.55757 0.61146 0.21394 0.0
C727 C 0.54831 0.59411 0.27897 0.0
C728 C 0.60253 0.60932 0.34174 0.0
H729 H 0.59376 0.51861 0.47512 0.0
H730 H 0.58688 0.53251 0.41354 0.0
H731 H 0.62509 0.61582 0.39212 0.0
H732 H 0.59646 0.62695 0.1971 0.0
H733 H 0.61005 0.61734 0.25809 0.0
H734 H 0.54779 0.55516 0.32322 0.0
C735 C 0.59343 0.54588 0.437 0.0
C736 C 0.60811 0.60244 0.37741 0.0
C737 C 0.59753 0.53792 0.47256 0.0
C738 C 0.58281 0.61793 0.21972 0.0
C739 C 0.59062 0.61247 0.25479 0.0
C740 C 0.56474 0.56868 0.33785 0.0
C741 C 0.59777 0.57066 0.43161 0.0
C742 C 0.59212 0.57849 0.39366 0.0
C743 C 0.57332 0.60008 0.28472 0.0
C744 C 0.58058 0.59261 0.32159 0.0
H745 H 0.61724 0.59258 0.52253 0.0
H746 H 0.61018 0.60654 0.46026 0.0
H747 H 0.55747 0.54324 0.38456 0.0
H748 H 0.52105 0.59441 0.24176 0.0
H749 H 0.53448 0.58501 0.30136 0.0
C750 C 0.02748 0.57126 0.83323 0.0
C751 C 0.05381 0.5823 0.83202 0.0
C752 C 0.01312 0.56386 0.79955 0.0
C753 C 0.01627 0.57574 0.69542 0.0
H754 H 0.95593 0.51014 0.69081 0.0
C755 C 0.95989 0.53819 0.55363 0.0
C756 C 0.93376 0.52176 0.55515 0.0
C757 C 0.97452 0.54552 0.58706 0.0
C758 C 0.97243 0.52875 0.69153 0.0
H759 H 0.08554 0.59442 0.79373 0.0
H760 H 0.06054 0.58205 0.73497 0.0
H761 H 0.98105 0.52314 0.74894 0.0
H762 H 0.90262 0.50058 0.59379 0.0
H763 H 0.92773 0.514 0.65192 0.0
H764 H 0.00745 0.58186 0.63865 0.0
C765 C 0.05099 0.57897 0.76216 0.0
C766 C 0.98698 0.53614 0.72505 0.0
C767 C 0.06535 0.58598 0.79594 0.0
C768 C 0.92268 0.51312 0.59129 0.0
C769 C 0.93726 0.52073 0.62482 0.0
C770 C 0.00152 0.56853 0.66208 0.0
C771 C 0.02463 0.56764 0.76346 0.0
C772 C 0.00916 0.55973 0.72751 0.0
C773 C 0.96352 0.53697 0.6234 0.0
C774 C 0.9793 0.54484 0.65938 0.0
H775 H 0.01782 0.56801 0.86034 0.0
H776 H -0.00707 0.55542 0.80176 0.0
H777 H 0.03303 0.59417 0.69634 0.0
H778 H 0.96924 0.54511 0.52641 0.0
H779 H -0.0054 0.55758 0.58413 0.0
C780 C 0.45445 0.00341 0.30916 0.0
C781 C 0.44951 0.02315 0.31619 0.0
C782 C 0.45366 0.98797 0.33932 0.0
C783 C 0.45902 0.96314 0.41087 0.0
H784 H 0.52383 0.02292 0.42545 0.0
C785 C 0.53265 0.95833 0.34453 0.0
C786 C 0.52167 0.96159 0.31133 0.0
C787 C 0.53042 0.96832 0.37937 0.0
C788 C 0.50573 0.00579 0.42438 0.0
H789 H 0.43569 0.03943 0.35869 0.0
H790 H 0.4371 0.01444 0.41158 0.0
H791 H 0.48666 0.02699 0.42181 0.0
H792 H 0.506 0.98307 0.28606 0.0
H793 H 0.50583 0.00378 0.34532 0.0
H794 H 0.47865 0.94248 0.40967 0.0
C795 C 0.44078 0.0103 0.38293 0.0
C796 C 0.48422 0.00809 0.42181 0.0
C797 C 0.44053 0.02496 0.35255 0.0
C798 C 0.51399 0.9797 0.31147 0.0
C799 C 0.51392 0.99151 0.34554 0.0
C800 C 0.48043 0.96082 0.41539 0.0
C801 C 0.44912 0.99294 0.37705 0.0
C802 C 0.46175 0.9874 0.40842 0.0
C803 C 0.51921 0.98349 0.38035 0.0
C804 C 0.50417 0.98283 0.4137 0.0
H805 H 0.46088 0.00122 0.2813 0.0
H806 H 0.45988 0.97442 0.33386 0.0
H807 H 0.44166 0.94668 0.40214 0.0
H808 H 0.54035 0.94592 0.34489 0.0
H809 H 0.535 0.96213 0.40566 0.0
C810 C 0.46045 0.52041 0.65197 0.0
C811 C 0.43623 0.49948 0.65421 0.0
C812 C 0.47546 0.52906 0.68459 0.0
C813 C 0.48598 0.50317 0.76948 0.0
H814 H 0.54514 0.56881 0.75934 0.0
C815 C 0.55421 0.49558 0.69776 0.0
C816 C 0.56095 0.51117 0.66541 0.0
C817 C 0.54818 0.50306 0.732 0.0
C818 C 0.52872 0.55037 0.76337 0.0
H819 H 0.4088 0.47109 0.69234 0.0
H820 H 0.43479 0.48633 0.74911 0.0
H821 H 0.5041 0.564 0.7459 0.0
H822 H 0.56663 0.54664 0.64304 0.0
H823 H 0.55369 0.55877 0.70062 0.0
H824 H 0.51042 0.48921 0.78341 0.0
C825 C 0.44223 0.49614 0.72233 0.0
C826 C 0.50516 0.54767 0.75572 0.0
C827 C 0.42745 0.48723 0.6896 0.0
C828 C 0.56148 0.53432 0.66772 0.0
C829 C 0.55447 0.54142 0.70143 0.0
C830 C 0.50962 0.50613 0.77674 0.0
C831 C 0.4665 0.51709 0.72027 0.0
C832 C 0.48434 0.52318 0.75238 0.0
C833 C 0.54669 0.52542 0.73391 0.0
C834 C 0.53094 0.52841 0.76408 0.0
H835 H 0.46762 0.53044 0.62527 0.0
H836 H 0.49442 0.54469 0.68144 0.0
H837 H 0.47 0.48421 0.77045 0.0
H838 H 0.55378 0.4776 0.69674 0.0
H839 H 0.54333 0.49048 0.75624 0.0
C840 C 0.9244 0.43552 0.03616 0.0
C841 C 0.92465 0.44792 1.00205 0.0
C842 C 0.9387 0.44897 0.06748 0.0
C843 C 0.98565 0.51377 0.1001 0.0
H844 H 0.02941 0.48522 0.08996 0.0
C845 C 0.04487 0.54179 0.9898 0.0
C846 C 0.06883 0.54473 0.98672 0.0
C847 C 0.03226 0.53504 0.02443 0.0
C848 C 0.01761 0.49349 0.09543 0.0
H849 H 0.93843 0.48443 0.97525 0.0
H850 H 0.96485 0.50823 0.02941 0.0
H851 H 0.98467 0.45755 0.09033 0.0
H852 H 0.09813 0.54151 1.01653 0.0
H853 H 0.075 0.52795 0.07743 0.0
H854 H 0.01906 0.54983 0.10061 0.0
C855 C 0.9529 0.48795 0.03229 0.0
C856 C 0.99167 0.47753 0.09514 0.0
C857 C 0.93818 0.47438 1.00092 0.0
C858 C 0.07953 0.53934 1.01837 0.0
C859 C 0.06667 0.5322 0.0533 0.0
C860 C 0.01167 0.52957 0.10132 0.0
C861 C 0.95411 0.47521 0.06528 0.0
C862 C 0.97585 0.48805 0.09136 0.0
C863 C 0.04315 0.53062 0.0568 0.0
C864 C 0.02712 0.51954 0.09079 0.0
H865 H 0.91393 0.41521 0.03857 0.0
H866 H 0.93916 0.43864 0.09238 0.0
H867 H 0.97371 0.52219 0.09934 0.0
H868 H 0.03605 0.54525 0.9655 0.0
H869 H 0.01355 0.53264 0.02548 0.0
C870 C 0.063 0.50487 0.35027 0.0
C871 C 0.06232 0.51615 0.38512 0.0
C872 C 0.04925 0.50499 0.31885 0.0
C873 C 0.00329 0.52424 0.28674 0.0
H874 H 0.95867 0.45192 0.29307 0.0
C875 C 0.94309 0.49208 0.39496 0.0
C876 C 0.91951 0.4705 0.39783 0.0
C877 C 0.95565 0.49864 0.36029 0.0
C878 C 0.97075 0.47206 0.28863 0.0
H879 H 0.04837 0.53838 0.41324 0.0
H880 H 0.02287 0.53742 0.35882 0.0
H881 H 0.00331 0.4684 0.29418 0.0
H882 H 0.89075 0.43791 0.3674 0.0
H883 H 0.91381 0.44873 0.30637 0.0
H884 H 0.97016 0.52738 0.28533 0.0
C885 C 0.03475 0.52904 0.35549 0.0
C886 C -0.00337 0.48168 0.2898 0.0
C887 C 0.04894 0.52922 0.38698 0.0
C888 C 0.90905 0.45474 0.36574 0.0
C889 C 0.92187 0.46117 0.33075 0.0
C890 C 0.97734 0.51435 0.2844 0.0
C891 C 0.03397 0.51594 0.32165 0.0
C892 C 0.01264 0.50787 0.29497 0.0
C893 C 0.94514 0.48347 0.3276 0.0
C894 C 0.96148 0.48877 0.29384 0.0
H895 H 0.07341 0.49501 0.34725 0.0
H896 H 0.04908 0.49482 0.29329 0.0
H897 H 0.01539 0.54455 0.28862 0.0
H898 H 0.95172 0.50413 0.41956 0.0
H899 H 0.97413 0.51527 0.35957 0.0
C900 C 0.42474 0.94303 0.68806 0.0
C901 C 0.43242 0.93898 0.72399 0.0
C902 C 0.44061 0.94965 0.65647 0.0
C903 C 0.50473 0.96212 0.62742 0.0
H904 H 0.5101 0.02551 0.59732 0.0
C905 C 0.56242 0.03242 0.71412 0.0
C906 C 0.55989 0.05387 0.71818 0.0
C907 C 0.55571 0.01877 0.68001 0.0
C908 C 0.50926 0.00794 0.60512 0.0
H909 H 0.46287 0.93893 0.75507 0.0
H910 H 0.49151 0.95266 0.70092 0.0
H911 H 0.46955 0.99013 0.61023 0.0
H912 H 0.55014 0.07918 0.68907 0.0
H913 H 0.53956 0.05647 0.62927 0.0
H914 H 0.54471 0.98096 0.62418 0.0
C915 C 0.47264 0.94932 0.69644 0.0
C916 C 0.48557 0.98727 0.61214 0.0
C917 C 0.45655 0.94223 0.7279 0.0
C918 C 0.55161 0.06221 0.68701 0.0
C919 C 0.54562 0.04907 0.65245 0.0
C920 C 0.52833 0.98302 0.62004 0.0
C921 C 0.46487 0.9531 0.66027 0.0
C922 C 0.48376 0.96563 0.62959 0.0
C923 C 0.546 0.02614 0.64892 0.0
C924 C 0.53049 0.00717 0.61877 0.0
H925 H 0.40617 0.94056 0.68405 0.0
H926 H 0.43405 0.95254 0.62925 0.0
H927 H 0.5036 0.94474 0.63739 0.0
H928 H 0.56897 0.02578 0.73778 0.0
H929 H 0.55678 0.00158 0.67953 0.0
C930 C 0.53562 0.57441 0.02677 0.0
C931 C 0.52648 0.56368 0.06308 0.0
C932 C 0.53546 0.55947 0.99645 0.0
C933 C 0.4921 0.51318 0.95789 0.0
H934 H 0.4999 0.45438 0.96866 0.0
C935 C 0.46282 0.45285 0.0668 0.0
C936 C 0.4555 0.42717 0.06563 0.0
C937 C 0.46314 0.46537 0.03332 0.0
C938 C 0.49752 0.47061 0.96333 0.0
H939 H 0.51483 0.5304 0.09797 0.0
H940 H 0.51616 0.50456 0.04552 0.0
H941 H 0.53609 0.4961 0.9766 0.0
H942 H 0.43801 0.39365 0.02995 0.0
H943 H 0.44363 0.41635 0.97054 0.0
H944 H 0.45266 0.48749 0.95442 0.0
C945 C 0.52234 0.52431 0.04007 0.0
C946 C 0.51845 0.49463 0.96805 0.0
C947 C 0.52136 0.53896 0.07013 0.0
C948 C 0.44533 0.41364 0.03154 0.0
C949 C 0.44772 0.42652 0.99739 0.0
C950 C 0.47105 0.48907 0.95519 0.0
C951 C 0.52716 0.53382 1.00238 0.0
C952 C 0.51492 0.51565 0.97089 0.0
C953 C 0.45841 0.45282 0.99784 0.0
C954 C 0.47343 0.46806 0.96514 0.0
H955 H 0.54061 0.59372 1.02058 0.0
H956 H 0.53931 0.56726 0.96781 0.0
H957 H 0.48907 0.52929 0.95829 0.0
H958 H 0.47023 0.46367 0.09285 0.0
H959 H 0.47084 0.48566 0.03457 0.0
C960 C 0.37577 0.98834 0.65876 0.0
C961 C 0.35359 0.96935 0.67544 0.0
C962 C 0.37508 -0.00158 0.62326 0.0
C963 C 0.33504 0.00323 0.5488 0.0
H964 H 0.38163 -0.00266 0.48019 0.0
C965 C 0.36326 0.04575 0.39583 0.0
C966 C 0.36871 0.03186 0.36915 0.0
C967 C 0.35541 0.03638 0.4328 0.0
C968 C 0.36831 -0.00118 0.49886 0.0
H969 H 0.31309 0.94769 0.67007 0.0
H970 H 0.31188 0.96549 0.60801 0.0
H971 H 0.38164 0.98804 0.54768 0.0
H972 H 0.36747 0.99615 0.35857 0.0
H973 H 0.35357 0.97973 0.42289 0.0
H974 H 0.32194 0.01428 0.49944 0.0
C975 C 0.32977 0.9725 0.62228 0.0
C976 C 0.3686 0.9939 0.53764 0.0
C977 C 0.33048 0.96231 0.65776 0.0
C978 C 0.36353 0.00733 0.37862 0.0
C979 C 0.35577 -0.00199 0.41553 0.0
C980 C 0.33497 0.00851 0.50981 0.0
C981 C 0.35218 0.98975 0.60392 0.0
C982 C 0.35207 0.99612 0.56307 0.0
C983 C 0.35298 0.01303 0.44352 0.0
C984 C 0.35155 0.0062 0.48447 0.0
H985 H 0.39383 0.99417 0.67182 0.0
H986 H 0.3926 0.01202 0.60997 0.0
H987 H 0.32204 0.00498 0.56782 0.0
H988 H 0.36708 0.06473 0.38924 0.0
H989 H 0.35336 0.04834 0.45378 0.0
C990 C 0.37456 0.32032 0.97491 0.0
C991 C 0.3779 0.33907 1.00144 0.0
C992 C 0.36557 0.3203 0.9382 0.0
C993 C 0.36859 0.33895 0.85709 0.0
H994 H 0.32332 0.36426 0.83345 0.0
C995 C 0.37565 0.39299 0.71902 0.0
C996 C 0.35402 0.39202 0.70393 0.0
C997 C 0.37429 0.37987 0.75249 0.0
C998 C 0.33566 0.3567 0.83931 0.0
H999 H 0.3731 0.37156 1.01135 0.0
H1000 H 0.35774 0.3718 0.94737 0.0
H1001 H 0.32641 0.35257 0.89885 0.0
H1002 H 0.31375 0.37525 0.71029 0.0
H1003 H 0.31123 0.35182 0.76834 0.0
H1004 H 0.37798 0.34326 0.79761 0.0
C1005 C 0.36167 0.35685 0.9548 0.0
C1006 C 0.33766 0.3503 0.87699 0.0
C1007 C 0.37054 0.35677 0.99153 0.0
C1008 C 0.33074 0.37638 0.72144 0.0
C1009 C 0.32935 0.36315 0.75486 0.0
C1010 C 0.3665 0.34524 0.81938 0.0
C1011 C 0.35988 0.33913 0.92725 0.0
C1012 C 0.35469 0.34205 0.88655 0.0
C1013 C 0.35123 0.3654 0.7715 0.0
C1014 C 0.35057 0.35491 0.8102 0.0
H1015 H 0.38006 0.30641 0.98187 0.0
H1016 H 0.36396 0.30609 0.91795 0.0
H1017 H 0.38206 0.33287 0.86333 0.0
H1018 H 0.39386 0.40501 0.7062 0.0
H1019 H 0.39159 0.38231 0.76461 0.0
C1020 C 0.95315 0.36026 0.05942 0.0
C1021 C 0.96119 0.38259 0.03829 0.0
C1022 C 0.96211 0.36123 0.09641 0.0
C1023 C 0.96707 0.37642 0.18133 0.0
H1024 H 0.03687 0.41092 0.2126 0.0
C1025 C 0.00518 0.41854 0.33171 0.0
C1026 C 0.02323 0.41333 0.34729 0.0
C1027 C -0.00413 0.41025 0.29488 0.0
C1028 C 0.01731 0.40104 0.20418 0.0
H1029 H 0.98615 0.42319 0.03806 0.0
H1030 H 0.00254 0.42474 0.1024 0.0
H1031 H 0.02633 0.40593 0.14437 0.0
H1032 H 0.04471 0.39431 0.33754 0.0
H1033 H 0.02873 0.38025 0.2729 0.0
H1034 H 0.95805 0.37261 0.24113 0.0
C1035 C 0.98909 0.40657 0.09042 0.0
C1036 C 0.01133 0.39832 0.16528 0.0
C1037 C 0.97979 0.40567 0.05363 0.0
C1038 C 0.03069 0.39846 0.32634 0.0
C1039 C 0.02174 0.39059 0.28928 0.0
C1040 C 0.97305 0.37964 0.22021 0.0
C1041 C 0.97961 0.38448 0.1126 0.0
C1042 C 0.98616 0.38605 0.15356 0.0
C1043 C 0.00479 0.39702 0.27289 0.0
C1044 C -0.00178 0.39203 0.23194 0.0
H1045 H 0.93873 0.34222 0.04839 0.0
H1046 H 0.95469 0.34394 0.11293 0.0
H1047 H 0.94751 0.36713 0.17292 0.0
H1048 H -0.00072 0.43016 0.34713 0.0
H1049 H 0.98287 0.41552 0.28274 0.0
C1050 C 0.62189 0.01192 0.66393 0.0
C1051 C 0.6359 0.03842 0.66524 0.0
C1052 C 0.62125 -0.00105 0.6305 0.0
C1053 C 0.65022 0.008 0.53274 0.0
H1054 H 0.58482 0.95146 0.50759 0.0
C1055 C 0.61152 0.97307 0.37995 0.0
C1056 C 0.59782 0.94679 0.3742 0.0
C1057 C 0.62105 0.98293 0.41615 0.0
C1058 C 0.60331 0.96698 0.51443 0.0
H1059 H 0.66081 0.07216 0.63327 0.0
H1060 H 0.65897 0.04987 0.57475 0.0
H1061 H 0.5918 0.97078 0.5704 0.0
H1062 H 0.58467 0.91023 0.40098 0.0
H1063 H 0.60097 0.92748 0.46427 0.0
H1064 H 0.66095 0.00497 0.47535 0.0
C1065 C 0.64903 0.0388 0.59955 0.0
C1066 C 0.60741 0.97803 0.55061 0.0
C1067 C 0.64999 0.05167 0.63313 0.0
C1068 C 0.59519 0.93058 0.40458 0.0
C1069 C 0.60438 0.94041 0.44083 0.0
C1070 C 0.64593 -0.0028 0.49624 0.0
C1071 C 0.63423 0.01227 0.59744 0.0
C1072 C 0.63082 -0.00106 0.56019 0.0
C1073 C 0.61672 0.96663 0.44721 0.0
C1074 C 0.62235 0.97676 0.48667 0.0
H1075 H 0.61088 0.00126 0.68837 0.0
H1076 H 0.6101 0.97851 0.63039 0.0
H1077 H 0.66865 0.0237 0.53918 0.0
H1078 H 0.61371 0.98596 0.35703 0.0
H1079 H 0.63039 0.00323 0.4204 0.0
C1080 C 0.6207 0.6718 0.99122 0.0
C1081 C 0.61147 0.65035 1.01475 0.0
C1082 C 0.63087 0.67196 0.95534 0.0
C1083 C 0.65137 0.63618 0.8919 0.0
H1084 H 0.62163 0.657 0.81213 0.0
C1085 C 0.61801 0.60749 0.7274 0.0
C1086 C 0.6383 0.60533 0.71332 0.0
C1087 C 0.61977 0.61906 0.76269 0.0
C1088 C 0.63014 0.65115 0.83403 0.0
H1089 H 0.6074 0.61305 1.02066 0.0
H1090 H 0.62497 0.6132 0.95824 0.0
H1091 H 0.61715 0.66581 0.87869 0.0
H1092 H 0.67683 0.61493 0.72367 0.0
H1093 H 0.68015 0.63568 0.78488 0.0
H1094 H 0.66304 0.62016 0.84743 0.0
C1095 C 0.6246 0.63003 0.96734 0.0
C1096 C 0.62787 0.6565 0.87222 0.0
C1097 C 0.61449 0.62991 1.00319 0.0
C1098 C 0.66087 0.61629 0.73396 0.0
C1099 C 0.66269 0.62798 0.76915 0.0
C1100 C 0.6536 0.63079 0.85372 0.0
C1101 C 0.63197 0.65064 0.94235 0.0
C1102 C 0.63791 0.64851 0.90171 0.0
C1103 C 0.64191 0.62881 0.78451 0.0
C1104 C 0.64246 0.63765 0.82438 0.0
H1105 H 0.61863 0.68784 0.99947 0.0
H1106 H 0.63682 0.68831 0.93708 0.0
H1107 H 0.65956 0.63 0.91385 0.0
H1108 H 0.60032 0.59904 0.71217 0.0
H1109 H 0.60328 0.61908 0.77377 0.0
C1110 C 0.00997 0.58567 0.05323 0.0
C1111 C 0.03215 0.60769 0.04291 0.0
C1112 C -0.00098 0.58387 0.08908 0.0
C1113 C 0.01739 0.61032 0.18636 0.0
H1114 H 0.94581 0.57206 0.20553 0.0
C1115 C 0.94024 0.57682 0.31844 0.0
C1116 C 0.95167 0.5682 0.34459 0.0
C1117 C 0.95086 0.58565 0.28243 0.0
C1118 C 0.96586 0.58313 0.20074 0.0
H1119 H 0.05948 0.64561 0.06092 0.0
H1120 H 0.04035 0.64256 0.12324 0.0
H1121 H 0.9612 0.58 0.13998 0.0
H1122 H 0.9839 0.56341 0.35453 0.0
H1123 H 0.00264 0.57904 0.29177 0.0
H1124 H 0.02204 0.61352 0.24713 0.0
C1125 C 0.03159 0.6265 0.10406 0.0
C1126 C 0.97469 0.5874 0.16308 0.0
C1127 C 0.04242 0.62834 0.06819 0.0
C1128 C 0.97473 0.57004 0.33498 0.0
C1129 C 0.98546 0.57903 0.29898 0.0
C1130 C 0.00856 0.60608 0.22403 0.0
C1131 C 0.01019 0.60397 0.11544 0.0
C1132 C 0.00058 0.60085 0.15538 0.0
C1133 C 0.97319 0.58611 0.27177 0.0
C1134 C 0.98268 0.59222 0.23174 0.0
H1135 H 0.00171 0.56941 0.03436 0.0
H1136 H 0.98256 0.56624 0.09685 0.0
H1137 H 0.03747 0.62046 0.1816 0.0
H1138 H 0.92247 0.57572 0.32515 0.0
H1139 H 0.94121 0.59152 0.26256 0.0
C1140 C 0.48119 0.09315 0.41446 0.0
C1141 C 0.49342 0.10761 0.38182 0.0
C1142 C 0.49427 0.09632 0.44874 0.0
C1143 C 0.5507 0.14014 0.50425 0.0
H1144 H 0.54134 0.07891 0.55319 0.0
C1145 C 0.58765 0.13533 0.65804 0.0
C1146 C 0.59852 0.11976 0.66159 0.0
C1147 C 0.57623 0.1362 0.62353 0.0
C1148 C 0.54423 0.09623 0.53991 0.0
H1149 H 0.5291 0.13739 0.36053 0.0
H1150 H 0.55178 0.14342 0.42086 0.0
H1151 H 0.51849 0.076 0.49458 0.0
H1152 H 0.60674 0.0938 0.63037 0.0
H1153 H 0.58677 0.09514 0.57124 0.0
H1154 H 0.57635 0.1603 0.55006 0.0
C1155 C 0.53201 0.12946 0.41964 0.0
C1156 C 0.53096 0.09454 0.5064 0.0
C1157 C 0.519 0.12597 0.385 0.0
C1158 C 0.59859 0.10602 0.62913 0.0
C1159 C 0.58692 0.1066 0.59507 0.0
C1160 C 0.56369 0.14181 0.53827 0.0
C1161 C 0.51992 0.11433 0.4518 0.0
C1162 C 0.53406 0.11645 0.48791 0.0
C1163 C 0.5751 0.12126 0.59194 0.0
C1164 C 0.5608 0.11986 0.55638 0.0
H1165 H 0.4616 0.07867 0.41327 0.0
H1166 H 0.48426 0.08449 0.47292 0.0
H1167 H 0.55345 0.15739 0.49094 0.0
H1168 H 0.58704 0.14606 0.68232 0.0
H1169 H 0.5673 0.14771 0.62214 0.0
C1170 C 0.38415 0.50269 0.74959 0.0
C1171 C 0.38399 0.51586 0.71651 0.0
C1172 C 0.39618 0.51554 0.78312 0.0
C1173 C 0.41941 0.57417 0.83881 0.0
H1174 H 0.46532 0.55442 0.88213 0.0
C1175 C 0.46258 0.60197 0.99319 0.0
C1176 C 0.48807 0.60899 0.99731 0.0
C1177 C 0.45015 0.59301 0.95796 0.0
C1178 C 0.45269 0.56031 0.87042 0.0
H1179 H 0.39566 0.5533 0.69421 0.0
H1180 H 0.41592 0.57577 0.7537 0.0
H1181 H 0.44279 0.53454 0.82325 0.0
H1182 H 0.52037 0.61225 0.96672 0.0
H1183 H 0.49873 0.59646 0.90603 0.0
H1184 H 0.42905 0.59965 0.88663 0.0
C1185 C 0.40688 0.55532 0.75306 0.0
C1186 C 0.43961 0.54875 0.83671 0.0
C1187 C 0.39513 0.54241 0.71898 0.0
C1188 C 0.50082 0.60726 0.96489 0.0
C1189 C 0.48832 0.59795 0.92998 0.0
C1190 C 0.43221 0.58546 0.87304 0.0
C1191 C 0.40816 0.54205 0.78523 0.0
C1192 C 0.42271 0.55541 0.82044 0.0
C1193 C 0.46272 0.59038 0.92603 0.0
C1194 C 0.44907 0.5787 0.88934 0.0
H1195 H 0.37586 0.4823 0.7493 0.0
H1196 H 0.39643 0.50465 0.8074 0.0
H1197 H 0.40648 0.5797 0.82718 0.0
H1198 H 0.45206 0.60289 1.01742 0.0
H1199 H 0.4304 0.58725 0.95613 0.0
C1200 C 0.83593 0.38736 0.05217 0.0
C1201 C 0.85172 0.3769 0.04732 0.0
C1202 C 0.8315 0.39398 0.08873 0.0
C1203 C 0.83988 0.38768 0.19392 0.0
H1204 H 0.84458 0.4535 0.19954 0.0
C1205 C 0.83853 0.43377 0.33974 0.0
C1206 C 0.85631 0.45962 0.34359 0.0
C1207 C 0.83375 0.4218 0.30381 0.0
C1208 C 0.84327 0.43509 0.19862 0.0
H1209 H 0.87381 0.36371 0.07789 0.0
H1210 H 0.86616 0.37516 0.14098 0.0
H1211 H 0.84353 0.43495 0.13744 0.0
H1212 H 0.88243 0.49318 0.31201 0.0
H1213 H 0.8742 0.47255 0.25023 0.0
H1214 H 0.84072 0.38839 0.25522 0.0
C1215 C 0.85705 0.37823 0.11674 0.0
C1216 C 0.84232 0.42424 0.16282 0.0
C1217 C 0.86149 0.37165 0.0803 0.0
C1218 C 0.86848 0.47329 0.31037 0.0
C1219 C 0.86367 0.46142 0.27465 0.0
C1220 C 0.84081 0.39855 0.22978 0.0
C1221 C 0.84266 0.39026 0.12147 0.0
C1222 C 0.84103 0.40054 0.15983 0.0
C1223 C 0.84651 0.43541 0.27078 0.0
C1224 C 0.84298 0.42264 0.23269 0.0
H1225 H 0.82815 0.39183 0.0276 0.0
H1226 H 0.81991 0.40274 0.09116 0.0
H1227 H 0.83859 0.36929 0.19296 0.0
H1228 H 0.82896 0.42255 0.36464 0.0
H1229 H 0.82023 0.4018 0.30199 0.0
C1230 C 0.45238 0.8825 0.37242 0.0
C1231 C 0.47687 0.88603 0.37132 0.0
C1232 C 0.44016 0.88034 0.40738 0.0
C1233 C 0.43774 0.86248 0.50854 0.0
H1234 H 0.40646 0.9035 0.52538 0.0
C1235 C 0.39579 0.86613 0.65708 0.0
C1236 C 0.37648 0.87224 0.65877 0.0
C1237 C 0.40729 0.86641 0.62208 0.0
C1238 C 0.41454 0.89141 0.52119 0.0
H1239 H 0.50753 0.88987 0.40672 0.0
H1240 H 0.48581 0.88512 0.46766 0.0
H1241 H 0.42765 0.90661 0.46509 0.0
H1242 H 0.35354 0.88243 0.62446 0.0
H1243 H 0.37218 0.88129 0.56354 0.0
H1244 H 0.42412 0.84663 0.56394 0.0
C1245 C 0.47616 0.88422 0.44131 0.0
C1246 C 0.42693 0.8934 0.48645 0.0
C1247 C 0.48862 0.88695 0.40632 0.0
C1248 C 0.36823 0.87746 0.62427 0.0
C1249 C 0.37935 0.87725 0.58922 0.0
C1250 C 0.42495 0.86013 0.54308 0.0
C1251 C 0.45184 0.88112 0.44235 0.0
C1252 C 0.43874 0.879 0.47961 0.0
C1253 C 0.39961 0.87245 0.58748 0.0
C1254 C 0.41308 0.87456 0.55015 0.0
H1255 H 0.4428 0.88205 0.34621 0.0
H1256 H 0.42143 0.87789 0.40704 0.0
H1257 H 0.44644 0.85093 0.50416 0.0
H1258 H 0.40313 0.86267 0.68311 0.0
H1259 H 0.42297 0.86295 0.62262 0.0
C1260 C 0.58637 0.46035 0.72519 0.0
C1261 C 0.60185 0.48677 0.72251 0.0
C1262 C 0.57475 0.44884 0.75993 0.0
C1263 C 0.55933 0.46506 0.8573 0.0
H1264 H 0.53806 0.39478 0.87865 0.0
C1265 C 0.52312 0.41776 1.00632 0.0
C1266 C 0.49962 0.39539 1.00656 0.0
C1267 C 0.53564 0.42846 0.97183 0.0
C1268 C 0.5438 0.41441 0.87301 0.0
H1269 H 0.61828 0.52152 0.75535 0.0
H1270 H 0.59968 0.50158 0.81596 0.0
H1271 H 0.56105 0.41419 0.81992 0.0
H1272 H 0.47108 0.36672 0.97028 0.0
H1273 H 0.49359 0.3848 0.91011 0.0
H1274 H 0.54286 0.46529 0.91149 0.0
C1275 C 0.59533 0.4896 0.79102 0.0
C1276 C 0.55692 0.42563 0.83904 0.0
C1277 C 0.60648 0.50114 0.75613 0.0
C1278 C 0.48923 0.3838 0.97126 0.0
C1279 C 0.50211 0.39416 0.93677 0.0
C1280 C 0.54674 0.45398 0.89161 0.0
C1281 C 0.57864 0.46329 0.79349 0.0
C1282 C 0.56493 0.45121 0.83037 0.0
C1283 C 0.52535 0.4168 0.93659 0.0
C1284 C 0.53872 0.42849 0.89988 0.0
H1285 H 0.58195 0.44864 0.69989 0.0
H1286 H 0.5619 0.42866 0.75984 0.0
H1287 H 0.56429 0.48448 0.85182 0.0
H1288 H 0.53154 0.42749 0.0328 0.0
H1289 H 0.55349 0.44589 0.97273 0.0
C1290 C 0.14865 0.5414 0.33221 0.0
C1291 C 0.13336 0.51515 0.33797 0.0
C1292 C 0.15226 0.55184 0.29529 0.0
C1293 C 0.11759 0.53805 0.20505 0.0
H1294 H 0.17839 0.59312 0.16167 0.0
C1295 C 0.11383 0.59502 0.07748 0.0
C1296 C 0.12879 0.59736 0.04542 0.0
C1297 C 0.11757 0.58647 0.11256 0.0
C1298 C 0.16131 0.57765 0.17337 0.0
H1299 H 0.1117 0.47926 0.30862 0.0
H1300 H 0.11801 0.49736 0.24492 0.0
H1301 H 0.18 0.57484 0.22365 0.0
H1302 H 0.16046 0.59367 0.02632 0.0
H1303 H 0.16745 0.57928 0.08847 0.0
H1304 H 0.09874 0.54107 0.15558 0.0
C1305 C 0.1269 0.50995 0.2689 0.0
C1306 C 0.1622 0.5673 0.20894 0.0
C1307 C 0.12347 0.49955 0.30555 0.0
C1308 C 0.14865 0.59226 0.05029 0.0
C1309 C 0.15261 0.58393 0.08587 0.0
C1310 C 0.11665 0.54861 0.17002 0.0
C1311 C 0.14054 0.53629 0.26337 0.0
C1312 C 0.14031 0.54731 0.22519 0.0
C1313 C 0.13661 0.58025 0.1171 0.0
C1314 C 0.13842 0.56862 0.15374 0.0
H1315 H 0.15643 0.55407 0.35638 0.0
H1316 H 0.16288 0.5722 0.29207 0.0
H1317 H 0.10031 0.52292 0.21682 0.0
H1318 H 0.09841 0.59884 0.07526 0.0
H1319 H 0.10514 0.58422 0.13611 0.0
loop_
_geom_bond_atom_site_label_1
_geom_bond_atom_site_label_2
_geom_bond_distance
_geom_bond_site_symmetry_2
_ccdc_geom_bond_type
Dy0 O4 2.398 . S
Dy0 O5 2.491 . S
Dy0 O6 2.403 . S
Dy0 O7 2.664 . S
Dy0 O11 2.326 . S
Dy0 O15 2.310 . S
Dy0 O16 2.351 . S
C1 O12 1.185 . S
C1 O13 1.355 . S
C2 O4 1.185 . S
C2 O5 1.355 . S
Dy3 O7 2.310 . S
Dy3 O10 2.351 . S
Dy3 O12 2.398 . S
Dy3 O13 2.491 . S
Dy3 O14 2.403 . S
Dy3 O15 2.664 . S
Dy3 O17 2.326 . S
O4 Dy0 2.398 . S
O4 C2 1.185 . S
O5 Dy0 2.491 . S
O5 C2 1.355 . S
O6 Dy0 2.403 . S
O6 C8 1.254 . S
O7 Dy0 2.664 . S
O7 Dy3 2.310 . S
O7 C8 1.268 . S
C8 O6 1.254 . S
C8 O7 1.268 . S
C9 O14 1.254 . S
C9 O15 1.268 . S
O10 Dy3 2.351 . S
O10 C18 1.249 . S
O11 Dy0 2.326 . S
O11 C18 1.267 . S
O12 C1 1.185 . S
O12 Dy3 2.398 . S
O13 C1 1.355 . S
O13 Dy3 2.491 . S
O14 Dy3 2.403 . S
O14 C9 1.254 . S
O15 Dy0 2.310 . S
O15 Dy3 2.664 . S
O15 C9 1.268 . S
O16 Dy0 2.351 . S
O16 C19 1.249 . S
O17 Dy3 2.326 . S
O17 C19 1.267 . S
C18 O10 1.249 . S
C18 O11 1.267 . S
C19 O16 1.249 . S
C19 O17 1.267 . S
Dy20 O24 2.398 . S
Dy20 O25 2.491 . S
Dy20 O26 2.403 . S
Dy20 O27 2.664 . S
Dy20 O31 2.326 . S
Dy20 O35 2.310 . S
Dy20 O36 2.351 . S
C21 O32 1.185 . S
C21 O33 1.355 . S
C22 O24 1.185 . S
C22 O25 1.355 . S
Dy23 O27 2.310 . S
Dy23 O30 2.351 . S
Dy23 O32 2.398 . S
Dy23 O33 2.491 . S
Dy23 O34 2.403 . S
Dy23 O35 2.664 . S
Dy23 O37 2.326 . S
O24 Dy20 2.398 . S
O24 C22 1.185 . S
O25 Dy20 2.491 . S
O25 C22 1.355 . S
O26 Dy20 2.403 . S
O26 C28 1.254 . S
O27 Dy20 2.664 . S
O27 Dy23 2.310 . S
O27 C28 1.268 . S
C28 O26 1.254 . S
C28 O27 1.268 . S
C29 O34 1.254 . S
C29 O35 1.268 . S
O30 Dy23 2.351 . S
O30 C38 1.249 . S
O31 Dy20 2.326 . S
O31 C38 1.267 . S
O32 C21 1.185 . S
O32 Dy23 2.398 . S
O33 C21 1.355 . S
O33 Dy23 2.491 . S
O34 Dy23 2.403 . S
O34 C29 1.254 . S
O35 Dy20 2.310 . S
O35 Dy23 2.664 . S
O35 C29 1.268 . S
O36 Dy20 2.351 . S
O36 C39 1.249 . S
O37 Dy23 2.326 . S
O37 C39 1.267 . S
C38 O30 1.249 . S
C38 O31 1.267 . S
C39 O36 1.249 . S
C39 O37 1.267 . S
Dy40 O44 2.398 . S
Dy40 O45 2.518 . S
Dy40 O46 2.403 . S
Dy40 O47 2.664 . S
Dy40 O51 2.326 . S
Dy40 O55 2.310 . S
Dy40 O56 2.351 . S
C41 O52 1.185 . S
C41 O53 1.355 . S
C42 O44 1.185 1_554 S
C42 O45 1.343 1_554 S
Dy43 O47 2.310 . S
Dy43 O50 2.351 . S
Dy43 O52 2.398 . S
Dy43 O53 2.491 . S
Dy43 O54 2.403 . S
Dy43 O55 2.664 . S
Dy43 O57 2.326 . S
O44 Dy40 2.398 . S
O44 C42 1.185 1_556 S
O45 Dy40 2.518 . S
O45 C42 1.343 1_556 S
O46 Dy40 2.403 . S
O46 C48 1.254 . S
O47 Dy40 2.664 . S
O47 Dy43 2.310 . S
O47 C48 1.268 . S
C48 O46 1.254 . S
C48 O47 1.268 . S
C49 O54 1.254 . S
C49 O55 1.268 . S
O50 Dy43 2.351 . S
O50 C58 1.249 . S
O51 Dy40 2.326 . S
O51 C58 1.267 . S
O52 C41 1.185 . S
O52 Dy43 2.398 . S
O53 C41 1.355 . S
O53 Dy43 2.491 . S
O54 Dy43 2.403 . S
O54 C49 1.254 . S
O55 Dy40 2.310 . S
O55 Dy43 2.664 . S
O55 C49 1.268 . S
O56 Dy40 2.351 . S
O56 C59 1.249 . S
O57 Dy43 2.326 . S
O57 C59 1.267 . S
C58 O50 1.249 . S
C58 O51 1.267 . S
C59 O56 1.249 . S
C59 O57 1.267 . S
Dy60 O64 2.398 . S
Dy60 O65 2.491 . S
Dy60 O66 2.403 . S
Dy60 O67 2.664 . S
Dy60 O71 2.326 . S
Dy60 O75 2.310 . S
Dy60 O76 2.351 . S
C61 O72 1.185 . S
C61 O73 1.355 . S
C62 O64 1.185 . S
C62 O65 1.355 . S
Dy63 O67 2.310 . S
Dy63 O70 2.351 . S
Dy63 O72 2.398 . S
Dy63 O73 2.491 . S
Dy63 O74 2.403 . S
Dy63 O75 2.664 . S
Dy63 O77 2.326 . S
O64 Dy60 2.398 . S
O64 C62 1.185 . S
O65 Dy60 2.491 . S
O65 C62 1.355 . S
O66 Dy60 2.403 . S
O66 C68 1.254 . S
O67 Dy60 2.664 . S
O67 Dy63 2.310 . S
O67 C68 1.268 . S
C68 O66 1.254 . S
C68 O67 1.268 . S
C69 O74 1.254 . S
C69 O75 1.268 . S
O70 Dy63 2.351 . S
O70 C78 1.249 . S
O71 Dy60 2.326 . S
O71 C78 1.267 . S
O72 C61 1.185 . S
O72 Dy63 2.398 . S
O73 C61 1.355 . S
O73 Dy63 2.491 . S
O74 Dy63 2.403 . S
O74 C69 1.254 . S
O75 Dy60 2.310 . S
O75 Dy63 2.664 . S
O75 C69 1.268 . S
O76 Dy60 2.351 . S
O76 C79 1.249 . S
O77 Dy63 2.326 . S
O77 C79 1.267 . S
C78 O70 1.249 . S
C78 O71 1.267 . S
C79 O76 1.249 . S
C79 O77 1.267 . S
Dy80 O84 2.398 . S
Dy80 O85 2.491 . S
Dy80 O86 2.403 . S
Dy80 O87 2.664 . S
Dy80 O91 2.326 . S
Dy80 O95 2.310 . S
Dy80 O96 2.351 . S
C81 O92 1.185 . S
C81 O93 1.355 . S
C82 O84 1.185 . S
C82 O85 1.355 . S
Dy83 O87 2.310 . S
Dy83 O90 2.351 . S
Dy83 O92 2.398 . S
Dy83 O93 2.491 . S
Dy83 O94 2.403 . S
Dy83 O95 2.664 . S
Dy83 O97 2.326 . S
O84 Dy80 2.398 . S
O84 C82 1.185 . S
O85 Dy80 2.491 . S
O85 C82 1.355 . S
O86 Dy80 2.403 . S
O86 C88 1.254 . S
O87 Dy80 2.664 . S
O87 Dy83 2.310 . S
O87 C88 1.268 . S
C88 O86 1.254 . S
C88 O87 1.268 . S
C89 O94 1.254 . S
C89 O95 1.268 . S
O90 Dy83 2.351 . S
O90 C98 1.249 . S
O91 Dy80 2.326 . S
O91 C98 1.267 . S
O92 C81 1.185 . S
O92 Dy83 2.398 . S
O93 C81 1.355 . S
O93 Dy83 2.491 . S
O94 Dy83 2.403 . S
O94 C89 1.254 . S
O95 Dy80 2.310 . S
O95 Dy83 2.664 . S
O95 C89 1.268 . S
O96 Dy80 2.351 . S
O96 C99 1.249 . S
O97 Dy83 2.326 . S
O97 C99 1.267 . S
C98 O90 1.249 . S
C98 O91 1.267 . S
C99 O96 1.249 . S
C99 O97 1.267 . S
Dy100 O104 2.398 . S
Dy100 O105 2.518 . S
Dy100 O106 2.403 . S
Dy100 O107 2.664 . S
Dy100 O111 2.326 . S
Dy100 O115 2.310 . S
Dy100 O116 2.351 . S
C101 O112 1.185 . S
C101 O113 1.355 . S
C102 O104 1.185 1_554 S
C102 O105 1.343 1_554 S
Dy103 O107 2.310 . S
Dy103 O110 2.351 . S
Dy103 O112 2.398 . S
Dy103 O113 2.491 . S
Dy103 O114 2.403 . S
Dy103 O115 2.664 . S
Dy103 O117 2.326 . S
O104 Dy100 2.398 . S
O104 C102 1.185 1_556 S
O105 Dy100 2.518 . S
O105 C102 1.343 1_556 S
O106 Dy100 2.403 . S
O106 C108 1.254 . S
O107 Dy100 2.664 . S
O107 Dy103 2.310 . S
O107 C108 1.268 . S
C108 O106 1.254 . S
C108 O107 1.268 . S
C109 O114 1.254 . S
C109 O115 1.268 . S
O110 Dy103 2.351 . S
O110 C118 1.249 . S
O111 Dy100 2.326 . S
O111 C118 1.267 . S
O112 C101 1.185 . S
O112 Dy103 2.398 . S
O113 C101 1.355 . S
O113 Dy103 2.491 . S
O114 Dy103 2.403 . S
O114 C109 1.254 . S
O115 Dy100 2.310 . S
O115 Dy103 2.664 . S
O115 C109 1.268 . S
O116 Dy100 2.351 . S
O116 C119 1.249 . S
O117 Dy103 2.326 . S
O117 C119 1.267 . S
C118 O110 1.249 . S
C118 O111 1.267 . S
C119 O116 1.249 . S
C119 O117 1.267 . S
Dy120 O124 2.398 . S
Dy120 O125 2.491 . S
Dy120 O126 2.403 . S
Dy120 O127 2.664 . S
Dy120 O131 2.326 . S
Dy120 O135 2.310 . S
Dy120 O136 2.351 . S
C121 O132 1.185 . S
C121 O133 1.355 . S
C122 O124 1.185 . S
C122 O125 1.355 . S
Dy123 O127 2.310 . S
Dy123 O130 2.351 . S
Dy123 O132 2.398 . S
Dy123 O133 2.491 . S
Dy123 O134 2.403 . S
Dy123 O135 2.664 . S
Dy123 O137 2.326 . S
O124 Dy120 2.398 . S
O124 C122 1.185 . S
O125 Dy120 2.491 . S
O125 C122 1.355 . S
O126 Dy120 2.403 . S
O126 C128 1.254 . S
O127 Dy120 2.664 . S
O127 Dy123 2.310 . S
O127 C128 1.268 . S
C128 O126 1.254 . S
C128 O127 1.268 . S
C129 O134 1.254 . S
C129 O135 1.268 . S
O130 Dy123 2.351 . S
O130 C138 1.249 . S
O131 Dy120 2.326 . S
O131 C138 1.267 . S
O132 C121 1.185 . S
O132 Dy123 2.398 . S
O133 C121 1.355 . S
O133 Dy123 2.491 . S
O134 Dy123 2.403 . S
O134 C129 1.254 . S
O135 Dy120 2.310 . S
O135 Dy123 2.664 . S
O135 C129 1.268 . S
O136 Dy120 2.351 . S
O136 C139 1.249 . S
O137 Dy123 2.326 . S
O137 C139 1.267 . S
C138 O130 1.249 . S
C138 O131 1.267 . S
C139 O136 1.249 . S
C139 O137 1.267 . S
Dy140 O144 2.398 . S
Dy140 O145 2.491 . S
Dy140 O146 2.403 . S
Dy140 O147 2.664 . S
Dy140 O151 2.326 . S
Dy140 O155 2.310 . S
Dy140 O156 2.351 . S
C141 O152 1.185 . S
C141 O153 1.355 . S
C142 O144 1.185 . S
C142 O145 1.355 . S
Dy143 O147 2.310 . S
Dy143 O150 2.351 . S
Dy143 O152 2.398 . S
Dy143 O153 2.491 . S
Dy143 O154 2.403 . S
Dy143 O155 2.664 . S
Dy143 O157 2.326 . S
O144 Dy140 2.398 . S
O144 C142 1.185 . S
O145 Dy140 2.491 . S
O145 C142 1.355 . S
O146 Dy140 2.403 . S
O146 C148 1.254 . S
O147 Dy140 2.664 . S
O147 Dy143 2.310 . S
O147 C148 1.268 . S
C148 O146 1.254 . S
C148 O147 1.268 . S
C149 O154 1.254 . S
C149 O155 1.268 . S
O150 Dy143 2.351 . S
O150 C158 1.249 . S
O151 Dy140 2.326 . S
O151 C158 1.267 . S
O152 C141 1.185 . S
O152 Dy143 2.398 . S
O153 C141 1.355 . S
O153 Dy143 2.491 . S
O154 Dy143 2.403 . S
O154 C149 1.254 . S
O155 Dy140 2.310 . S
O155 Dy143 2.664 . S
O155 C149 1.268 . S
O156 Dy140 2.351 . S
O156 C159 1.249 . S
O157 Dy143 2.326 . S
O157 C159 1.267 . S
C158 O150 1.249 . S
C158 O151 1.267 . S
C159 O156 1.249 . S
C159 O157 1.267 . S
Dy160 O164 2.398 . S
Dy160 O165 2.518 . S
Dy160 O166 2.403 . S
Dy160 O167 2.664 . S
Dy160 O171 2.326 . S
Dy160 O175 2.310 . S
Dy160 O176 2.351 . S
C161 O172 1.185 . S
C161 O173 1.355 . S
C162 O164 1.185 1_556 S
C162 O165 1.343 1_556 S
Dy163 O167 2.310 . S
Dy163 O170 2.351 . S
Dy163 O172 2.398 . S
Dy163 O173 2.491 . S
Dy163 O174 2.403 . S
Dy163 O175 2.664 . S
Dy163 O177 2.326 . S
O164 Dy160 2.398 . S
O164 C162 1.185 1_554 S
O165 Dy160 2.518 . S
O165 C162 1.343 1_554 S
O166 Dy160 2.403 . S
O166 C168 1.254 . S
O167 Dy160 2.664 . S
O167 Dy163 2.310 . S
O167 C168 1.268 . S
C168 O166 1.254 . S
C168 O167 1.268 . S
C169 O174 1.254 . S
C169 O175 1.268 . S
O170 Dy163 2.351 . S
O170 C178 1.249 . S
O171 Dy160 2.326 . S
O171 C178 1.267 . S
O172 C161 1.185 . S
O172 Dy163 2.398 . S
O173 C161 1.355 . S
O173 Dy163 2.491 . S
O174 Dy163 2.403 . S
O174 C169 1.254 . S
O175 Dy160 2.310 . S
O175 Dy163 2.664 . S
O175 C169 1.268 . S
O176 Dy160 2.351 . S
O176 C179 1.249 . S
O177 Dy163 2.326 . S
O177 C179 1.267 . S
C178 O170 1.249 . S
C178 O171 1.267 . S
C179 O176 1.249 . S
C179 O177 1.267 . S
Dy180 O184 2.398 . S
Dy180 O185 2.491 . S
Dy180 O186 2.403 . S
Dy180 O187 2.664 . S
Dy180 O191 2.326 . S
Dy180 O195 2.310 . S
Dy180 O196 2.351 . S
C181 O192 1.185 . S
C181 O193 1.355 . S
C182 O184 1.185 . S
C182 O185 1.355 . S
Dy183 O187 2.310 . S
Dy183 O190 2.351 . S
Dy183 O192 2.398 . S
Dy183 O193 2.491 . S
Dy183 O194 2.403 . S
Dy183 O195 2.664 . S
Dy183 O197 2.326 . S
O184 Dy180 2.398 . S
O184 C182 1.185 . S
O185 Dy180 2.491 . S
O185 C182 1.355 . S
O186 Dy180 2.403 . S
O186 C188 1.254 . S
O187 Dy180 2.664 . S
O187 Dy183 2.310 . S
O187 C188 1.268 . S
C188 O186 1.254 . S
C188 O187 1.268 . S
C189 O194 1.254 . S
C189 O195 1.268 . S
O190 Dy183 2.351 . S
O190 C198 1.249 . S
O191 Dy180 2.326 . S
O191 C198 1.267 . S
O192 C181 1.185 . S
O192 Dy183 2.398 . S
O193 C181 1.355 . S
O193 Dy183 2.491 . S
O194 Dy183 2.403 . S
O194 C189 1.254 . S
O195 Dy180 2.310 . S
O195 Dy183 2.664 . S
O195 C189 1.268 . S
O196 Dy180 2.351 . S
O196 C199 1.249 . S
O197 Dy183 2.326 . S
O197 C199 1.267 . S
C198 O190 1.249 . S
C198 O191 1.267 . S
C199 O196 1.249 . S
C199 O197 1.267 . S
Dy200 O204 2.398 . S
Dy200 O205 2.491 . S
Dy200 O206 2.403 . S
Dy200 O207 2.664 . S
Dy200 O211 2.326 . S
Dy200 O215 2.310 . S
Dy200 O216 2.351 . S
C201 O212 1.185 . S
C201 O213 1.355 . S
C202 O204 1.185 . S
C202 O205 1.355 . S
Dy203 O207 2.310 . S
Dy203 O210 2.351 . S
Dy203 O212 2.398 . S
Dy203 O213 2.491 . S
Dy203 O214 2.403 . S
Dy203 O215 2.664 . S
Dy203 O217 2.326 . S
O204 Dy200 2.398 . S
O204 C202 1.185 . S
O205 Dy200 2.491 . S
O205 C202 1.355 . S
O206 Dy200 2.403 . S
O206 C208 1.254 . S
O207 Dy200 2.664 . S
O207 Dy203 2.310 . S
O207 C208 1.268 . S
C208 O206 1.254 . S
C208 O207 1.268 . S
C209 O214 1.254 . S
C209 O215 1.268 . S
O210 Dy203 2.351 . S
O210 C218 1.249 . S
O211 Dy200 2.326 . S
O211 C218 1.267 . S
O212 C201 1.185 . S
O212 Dy203 2.398 . S
O213 C201 1.355 . S
O213 Dy203 2.491 . S
O214 Dy203 2.403 . S
O214 C209 1.254 . S
O215 Dy200 2.310 . S
O215 Dy203 2.664 . S
O215 C209 1.268 . S
O216 Dy200 2.351 . S
O216 C219 1.249 . S
O217 Dy203 2.326 . S
O217 C219 1.267 . S
C218 O210 1.249 . S
C218 O211 1.267 . S
C219 O216 1.249 . S
C219 O217 1.267 . S
Dy220 O224 2.398 . S
Dy220 O225 2.518 . S
Dy220 O226 2.403 . S
Dy220 O227 2.664 . S
Dy220 O231 2.326 . S
Dy220 O235 2.310 . S
Dy220 O236 2.351 . S
C221 O232 1.185 . S
C221 O233 1.355 . S
C222 O224 1.185 1_556 S
C222 O225 1.343 1_556 S
Dy223 O227 2.310 . S
Dy223 O230 2.351 . S
Dy223 O232 2.398 . S
Dy223 O233 2.491 . S
Dy223 O234 2.403 . S
Dy223 O235 2.664 . S
Dy223 O237 2.326 . S
O224 Dy220 2.398 . S
O224 C222 1.185 1_554 S
O225 Dy220 2.518 . S
O225 C222 1.343 1_554 S
O226 Dy220 2.403 . S
O226 C228 1.254 . S
O227 Dy220 2.664 . S
O227 Dy223 2.310 . S
O227 C228 1.268 . S
C228 O226 1.254 . S
C228 O227 1.268 . S
C229 O234 1.254 . S
C229 O235 1.268 . S
O230 Dy223 2.351 . S
O230 C238 1.249 . S
O231 Dy220 2.326 . S
O231 C238 1.267 . S
O232 C221 1.185 . S
O232 Dy223 2.398 . S
O233 C221 1.355 . S
O233 Dy223 2.491 . S
O234 Dy223 2.403 . S
O234 C229 1.254 . S
O235 Dy220 2.310 . S
O235 Dy223 2.664 . S
O235 C229 1.268 . S
O236 Dy220 2.351 . S
O236 C239 1.249 . S
O237 Dy223 2.326 . S
O237 C239 1.267 . S
C238 O230 1.249 . S
C238 O231 1.267 . S
C239 O236 1.249 . S
C239 O237 1.267 . S
C240 C241 1.349 . S
C240 C242 1.327 . S
C240 H265 0.950 . S
C241 C240 1.349 . S
C241 C257 1.349 . S
C242 C240 1.327 . S
C242 C261 1.429 . S
C242 H266 0.950 . S
C243 C260 1.574 . S
C243 C262 1.368 . S
C243 H267 0.949 . S
H244 C248 0.949 . S
C245 C246 1.349 . S
C245 C247 1.327 . S
C245 H268 0.950 . S
C246 C245 1.349 . S
C246 C258 1.349 . S
C247 C245 1.327 . S
C247 C263 1.429 . S
C247 H269 0.950 . S
C248 H244 0.949 . S
C248 C256 1.574 . S
C248 C264 1.368 . S
H249 C257 0.950 . S
H250 C255 0.950 . S
H251 C256 0.949 . S
H252 C258 0.950 . S
H253 C259 0.950 . S
H254 C260 0.949 . S
C255 H250 0.950 . S
C255 C257 1.327 . S
C255 C261 1.429 . S
C256 C248 1.574 . S
C256 H251 0.949 . S
C256 C262 1.368 . S
C257 C241 1.349 . S
C257 H249 0.950 . S
C257 C255 1.327 . S
C258 C246 1.349 . S
C258 H252 0.950 . S
C258 C259 1.327 . S
C259 H253 0.950 . S
C259 C258 1.327 . S
C259 C263 1.429 . S
C260 C243 1.574 . S
C260 H254 0.949 . S
C260 C264 1.368 . S
C261 C242 1.429 . S
C261 C255 1.429 . S
C261 C262 1.523 . S
C262 C243 1.368 . S
C262 C256 1.368 . S
C262 C261 1.523 . S
C263 C247 1.429 . S
C263 C259 1.429 . S
C263 C264 1.523 . S
C264 C248 1.368 . S
C264 C260 1.368 . S
C264 C263 1.523 . S
H265 C240 0.950 . S
H266 C242 0.950 . S
H267 C243 0.949 . S
H268 C245 0.950 . S
H269 C247 0.950 . S
C270 C271 1.349 . S
C270 C272 1.327 . S
C270 H295 0.950 . S
C271 C270 1.349 . S
C271 C287 1.349 . S
C272 C270 1.327 . S
C272 C291 1.429 . S
C272 H296 0.950 . S
C273 C290 1.574 . S
C273 C292 1.368 . S
C273 H297 0.949 . S
H274 C278 0.949 . S
C275 C276 1.349 . S
C275 C277 1.327 . S
C275 H298 0.950 . S
C276 C275 1.349 . S
C276 C288 1.349 . S
C277 C275 1.327 . S
C277 C293 1.429 . S
C277 H299 0.950 . S
C278 H274 0.949 . S
C278 C286 1.574 . S
C278 C294 1.368 . S
H279 C287 0.950 . S
H280 C285 0.950 . S
H281 C286 0.949 . S
H282 C288 0.950 . S
H283 C289 0.950 . S
H284 C290 0.949 . S
C285 H280 0.950 . S
C285 C287 1.327 . S
C285 C291 1.429 . S
C286 C278 1.574 . S
C286 H281 0.949 . S
C286 C292 1.368 . S
C287 C271 1.349 . S
C287 H279 0.950 . S
C287 C285 1.327 . S
C288 C276 1.349 . S
C288 H282 0.950 . S
C288 C289 1.327 . S
C289 H283 0.950 . S
C289 C288 1.327 . S
C289 C293 1.429 . S
C290 C273 1.574 . S
C290 H284 0.949 . S
C290 C294 1.368 . S
C291 C272 1.429 . S
C291 C285 1.429 . S
C291 C292 1.523 . S
C292 C273 1.368 . S
C292 C286 1.368 . S
C292 C291 1.523 . S
C293 C277 1.429 . S
C293 C289 1.429 . S
C293 C294 1.523 . S
C294 C278 1.368 . S
C294 C290 1.368 . S
C294 C293 1.523 . S
H295 C270 0.950 . S
H296 C272 0.950 . S
H297 C273 0.949 . S
H298 C275 0.950 . S
H299 C277 0.950 . S
C300 C301 1.349 . S
C300 C302 1.327 . S
C300 H325 0.950 . S
C301 C300 1.349 . S
C301 C317 1.349 . S
C302 C300 1.327 . S
C302 C321 1.429 . S
C302 H326 0.950 . S
C303 C320 1.574 . S
C303 C322 1.368 . S
C303 H327 0.949 . S
H304 C308 0.949 . S
C305 C306 1.349 . S
C305 C307 1.327 . S
C305 H328 0.950 . S
C306 C305 1.349 . S
C306 C318 1.349 . S
C307 C305 1.327 . S
C307 C323 1.429 . S
C307 H329 0.950 . S
C308 H304 0.949 . S
C308 C316 1.574 . S
C308 C324 1.368 . S
H309 C317 0.950 . S
H310 C315 0.950 . S
H311 C316 0.949 . S
H312 C318 0.950 . S
H313 C319 0.950 . S
H314 C320 0.949 . S
C315 H310 0.950 . S
C315 C317 1.327 . S
C315 C321 1.429 . S
C316 C308 1.574 . S
C316 H311 0.949 . S
C316 C322 1.368 . S
C317 C301 1.349 . S
C317 H309 0.950 . S
C317 C315 1.327 . S
C318 C306 1.349 . S
C318 H312 0.950 . S
C318 C319 1.327 . S
C319 H313 0.950 . S
C319 C318 1.327 . S
C319 C323 1.429 . S
C320 C303 1.574 . S
C320 H314 0.949 . S
C320 C324 1.368 . S
C321 C302 1.429 . S
C321 C315 1.429 . S
C321 C322 1.523 . S
C322 C303 1.368 . S
C322 C316 1.368 . S
C322 C321 1.523 . S
C323 C307 1.429 . S
C323 C319 1.429 . S
C323 C324 1.523 . S
C324 C308 1.368 . S
C324 C320 1.368 . S
C324 C323 1.523 . S
H325 C300 0.950 . S
H326 C302 0.950 . S
H327 C303 0.949 . S
H328 C305 0.950 . S
H329 C307 0.950 . S
C330 C331 1.349 . S
C330 C332 1.327 . S
C330 H355 0.950 . S
C331 C330 1.349 . S
C331 C347 1.349 . S
C332 C330 1.327 . S
C332 C351 1.429 . S
C332 H356 0.950 . S
C333 C350 1.574 . S
C333 C352 1.368 . S
C333 H357 0.949 . S
H334 C338 0.949 . S
C335 C336 1.349 . S
C335 C337 1.327 . S
C335 H358 0.950 . S
C336 C335 1.349 . S
C336 C348 1.349 . S
C337 C335 1.327 . S
C337 C353 1.429 . S
C337 H359 0.950 . S
C338 H334 0.949 . S
C338 C346 1.574 . S
C338 C354 1.368 . S
H339 C347 0.950 . S
H340 C345 0.950 . S
H341 C346 0.949 . S
H342 C348 0.950 . S
H343 C349 0.950 . S
H344 C350 0.949 . S
C345 H340 0.950 . S
C345 C347 1.327 . S
C345 C351 1.429 . S
C346 C338 1.574 . S
C346 H341 0.949 . S
C346 C352 1.368 . S
C347 C331 1.349 . S
C347 H339 0.950 . S
C347 C345 1.327 . S
C348 C336 1.349 . S
C348 H342 0.950 . S
C348 C349 1.327 . S
C349 H343 0.950 . S
C349 C348 1.327 . S
C349 C353 1.429 . S
C350 C333 1.574 . S
C350 H344 0.949 . S
C350 C354 1.368 . S
C351 C332 1.429 . S
C351 C345 1.429 . S
C351 C352 1.523 . S
C352 C333 1.368 . S
C352 C346 1.368 . S
C352 C351 1.523 . S
C353 C337 1.429 . S
C353 C349 1.429 . S
C353 C354 1.523 . S
C354 C338 1.368 . S
C354 C350 1.368 . S
C354 C353 1.523 . S
H355 C330 0.950 . S
H356 C332 0.950 . S
H357 C333 0.949 . S
H358 C335 0.950 . S
H359 C337 0.950 . S
C360 C361 1.349 . S
C360 C362 1.327 . S
C360 H385 0.950 . S
C361 C360 1.349 . S
C361 C377 1.349 . S
C362 C360 1.327 . S
C362 C381 1.429 . S
C362 H386 0.950 . S
C363 C380 1.574 . S
C363 C382 1.368 . S
C363 H387 0.949 . S
H364 C368 0.949 . S
C365 C366 1.349 . S
C365 C367 1.327 . S
C365 H388 0.950 . S
C366 C365 1.349 . S
C366 C378 1.349 . S
C367 C365 1.327 . S
C367 C383 1.429 . S
C367 H389 0.950 . S
C368 H364 0.949 . S
C368 C376 1.574 . S
C368 C384 1.368 . S
H369 C377 0.950 . S
H370 C375 0.950 . S
H371 C376 0.949 . S
H372 C378 0.950 . S
H373 C379 0.950 . S
H374 C380 0.949 . S
C375 H370 0.950 . S
C375 C377 1.327 . S
C375 C381 1.429 . S
C376 C368 1.574 . S
C376 H371 0.949 . S
C376 C382 1.368 . S
C377 C361 1.349 . S
C377 H369 0.950 . S
C377 C375 1.327 . S
C378 C366 1.349 . S
C378 H372 0.950 . S
C378 C379 1.327 . S
C379 H373 0.950 . S
C379 C378 1.327 . S
C379 C383 1.429 . S
C380 C363 1.574 . S
C380 H374 0.949 . S
C380 C384 1.368 . S
C381 C362 1.429 . S
C381 C375 1.429 . S
C381 C382 1.523 . S
C382 C363 1.368 . S
C382 C376 1.368 . S
C382 C381 1.523 . S
C383 C367 1.429 . S
C383 C379 1.429 . S
C383 C384 1.523 . S
C384 C368 1.368 . S
C384 C380 1.368 . S
C384 C383 1.523 . S
H385 C360 0.950 . S
H386 C362 0.950 . S
H387 C363 0.949 . S
H388 C365 0.950 . S
H389 C367 0.950 . S
C390 C391 1.349 . S
C390 C392 1.327 . S
C390 H415 0.950 . S
C391 C390 1.349 . S
C391 C407 1.349 . S
C392 C390 1.327 . S
C392 C411 1.429 . S
C392 H416 0.950 . S
C393 C410 1.574 . S
C393 C412 1.368 . S
C393 H417 0.949 . S
H394 C398 0.949 . S
C395 C396 1.349 . S
C395 C397 1.327 . S
C395 H418 0.950 . S
C396 C395 1.349 . S
C396 C408 1.349 . S
C397 C395 1.327 . S
C397 C413 1.429 . S
C397 H419 0.950 . S
C398 H394 0.949 . S
C398 C406 1.574 . S
C398 C414 1.368 . S
H399 C407 0.950 . S
H400 C405 0.950 . S
H401 C406 0.949 . S
H402 C408 0.950 . S
H403 C409 0.950 . S
H404 C410 0.949 . S
C405 H400 0.950 . S
C405 C407 1.327 . S
C405 C411 1.429 . S
C406 C398 1.574 . S
C406 H401 0.949 . S
C406 C412 1.368 . S
C407 C391 1.349 . S
C407 H399 0.950 . S
C407 C405 1.327 . S
C408 C396 1.349 . S
C408 H402 0.950 . S
C408 C409 1.327 . S
C409 H403 0.950 . S
C409 C408 1.327 . S
C409 C413 1.429 . S
C410 C393 1.574 . S
C410 H404 0.949 . S
C410 C414 1.368 . S
C411 C392 1.429 . S
C411 C405 1.429 . S
C411 C412 1.523 . S
C412 C393 1.368 . S
C412 C406 1.368 . S
C412 C411 1.523 . S
C413 C397 1.429 . S
C413 C409 1.429 . S
C413 C414 1.523 . S
C414 C398 1.368 . S
C414 C410 1.368 . S
C414 C413 1.523 . S
H415 C390 0.950 . S
H416 C392 0.950 . S
H417 C393 0.949 . S
H418 C395 0.950 . S
H419 C397 0.950 . S
C420 C421 1.349 . S
C420 C422 1.327 . S
C420 H445 0.950 . S
C421 C420 1.349 . S
C421 C437 1.349 . S
C422 C420 1.327 . S
C422 C441 1.429 . S
C422 H446 0.950 . S
C423 C440 1.574 1_556 S
C423 C442 1.368 . S
C423 H447 0.949 . S
H424 C428 0.949 . S
C425 C426 1.349 . S
C425 C427 1.327 . S
C425 H448 0.950 . S
C426 C425 1.349 . S
C426 C438 1.349 . S
C427 C425 1.327 . S
C427 C443 1.429 . S
C427 H449 0.950 . S
C428 H424 0.949 . S
C428 C436 1.574 1_554 S
C428 C444 1.368 . S
H429 C437 0.950 . S
H430 C435 0.950 . S
H431 C436 0.949 . S
H432 C438 0.950 . S
H433 C439 0.950 . S
H434 C440 0.949 . S
C435 H430 0.950 . S
C435 C437 1.327 . S
C435 C441 1.429 . S
C436 C428 1.574 1_556 S
C436 H431 0.949 . S
C436 C442 1.368 . S
C437 C421 1.349 . S
C437 H429 0.950 . S
C437 C435 1.327 . S
C438 C426 1.349 . S
C438 H432 0.950 . S
C438 C439 1.327 . S
C439 H433 0.950 . S
C439 C438 1.327 . S
C439 C443 1.429 . S
C440 C423 1.574 1_554 S
C440 H434 0.949 . S
C440 C444 1.368 . S
C441 C422 1.429 . S
C441 C435 1.429 . S
C441 C442 1.523 . S
C442 C423 1.368 . S
C442 C436 1.368 . S
C442 C441 1.523 . S
C443 C427 1.429 . S
C443 C439 1.429 . S
C443 C444 1.523 . S
C444 C428 1.368 . S
C444 C440 1.368 . S
C444 C443 1.523 . S
H445 C420 0.950 . S
H446 C422 0.950 . S
H447 C423 0.949 . S
H448 C425 0.950 . S
H449 C427 0.950 . S
C450 C451 1.349 . S
C450 C452 1.327 . S
C450 H475 0.950 . S
C451 C450 1.349 . S
C451 C467 1.349 . S
C452 C450 1.327 . S
C452 C471 1.429 . S
C452 H476 0.950 . S
C453 C470 1.574 . S
C453 C472 1.368 . S
C453 H477 0.949 . S
H454 C458 0.949 . S
C455 C456 1.349 . S
C455 C457 1.327 . S
C455 H478 0.950 . S
C456 C455 1.349 . S
C456 C468 1.349 . S
C457 C455 1.327 . S
C457 C473 1.429 . S
C457 H479 0.950 . S
C458 H454 0.949 . S
C458 C466 1.574 . S
C458 C474 1.368 . S
H459 C467 0.950 . S
H460 C465 0.950 . S
H461 C466 0.949 . S
H462 C468 0.950 . S
H463 C469 0.950 . S
H464 C470 0.949 . S
C465 H460 0.950 . S
C465 C467 1.327 . S
C465 C471 1.429 . S
C466 C458 1.574 . S
C466 H461 0.949 . S
C466 C472 1.368 . S
C467 C451 1.349 . S
C467 H459 0.950 . S
C467 C465 1.327 . S
C468 C456 1.349 . S
C468 H462 0.950 . S
C468 C469 1.327 . S
C469 H463 0.950 . S
C469 C468 1.327 . S
C469 C473 1.429 . S
C470 C453 1.574 . S
C470 H464 0.949 . S
C470 C474 1.368 . S
C471 C452 1.429 . S
C471 C465 1.429 . S
C471 C472 1.523 . S
C472 C453 1.368 . S
C472 C466 1.368 . S
C472 C471 1.523 . S
C473 C457 1.429 . S
C473 C469 1.429 . S
C473 C474 1.523 . S
C474 C458 1.368 . S
C474 C470 1.368 . S
C474 C473 1.523 . S
H475 C450 0.950 . S
H476 C452 0.950 . S
H477 C453 0.949 . S
H478 C455 0.950 . S
H479 C457 0.950 . S
C480 C481 1.349 . S
C480 C482 1.327 . S
C480 H505 0.950 . S
C481 C480 1.349 . S
C481 C497 1.349 . S
C482 C480 1.327 . S
C482 C501 1.429 . S
C482 H506 0.950 . S
C483 C500 1.574 . S
C483 C502 1.368 . S
C483 H507 0.949 . S
H484 C488 0.949 . S
C485 C486 1.349 . S
C485 C487 1.327 . S
C485 H508 0.950 . S
C486 C485 1.349 . S
C486 C498 1.349 . S
C487 C485 1.327 . S
C487 C503 1.429 . S
C487 H509 0.950 . S
C488 H484 0.949 . S
C488 C496 1.574 . S
C488 C504 1.368 . S
H489 C497 0.950 . S
H490 C495 0.950 . S
H491 C496 0.949 . S
H492 C498 0.950 . S
H493 C499 0.950 . S
H494 C500 0.949 . S
C495 H490 0.950 . S
C495 C497 1.327 . S
C495 C501 1.429 . S
C496 C488 1.574 . S
C496 H491 0.949 . S
C496 C502 1.368 . S
C497 C481 1.349 . S
C497 H489 0.950 . S
C497 C495 1.327 . S
C498 C486 1.349 . S
C498 H492 0.950 . S
C498 C499 1.327 . S
C499 H493 0.950 . S
C499 C498 1.327 . S
C499 C503 1.429 . S
C500 C483 1.574 . S
C500 H494 0.949 . S
C500 C504 1.368 . S
C501 C482 1.429 . S
C501 C495 1.429 . S
C501 C502 1.523 . S
C502 C483 1.368 . S
C502 C496 1.368 . S
C502 C501 1.523 . S
C503 C487 1.429 . S
C503 C499 1.429 . S
C503 C504 1.523 . S
C504 C488 1.368 . S
C504 C500 1.368 . S
C504 C503 1.523 . S
H505 C480 0.950 . S
H506 C482 0.950 . S
H507 C483 0.949 . S
H508 C485 0.950 . S
H509 C487 0.950 . S
C510 C511 1.349 . S
C510 C512 1.327 . S
C510 H535 0.950 . S
C511 C510 1.349 . S
C511 C527 1.349 . S
C512 C510 1.327 . S
C512 C531 1.429 . S
C512 H536 0.950 . S
C513 C530 1.574 1_556 S
C513 C532 1.368 . S
C513 H537 0.949 . S
H514 C518 0.949 . S
C515 C516 1.349 . S
C515 C517 1.327 . S
C515 H538 0.950 . S
C516 C515 1.349 . S
C516 C528 1.349 . S
C517 C515 1.327 . S
C517 C533 1.429 . S
C517 H539 0.950 . S
C518 H514 0.949 . S
C518 C526 1.574 1_554 S
C518 C534 1.368 . S
H519 C527 0.950 . S
H520 C525 0.950 . S
H521 C526 0.949 . S
H522 C528 0.950 . S
H523 C529 0.950 . S
H524 C530 0.949 . S
C525 H520 0.950 . S
C525 C527 1.327 . S
C525 C531 1.429 . S
C526 C518 1.574 1_556 S
C526 H521 0.949 . S
C526 C532 1.368 . S
C527 C511 1.349 . S
C527 H519 0.950 . S
C527 C525 1.327 . S
C528 C516 1.349 . S
C528 H522 0.950 . S
C528 C529 1.327 . S
C529 H523 0.950 . S
C529 C528 1.327 . S
C529 C533 1.429 . S
C530 C513 1.574 1_554 S
C530 H524 0.949 . S
C530 C534 1.368 . S
C531 C512 1.429 . S
C531 C525 1.429 . S
C531 C532 1.523 . S
C532 C513 1.368 . S
C532 C526 1.368 . S
C532 C531 1.523 . S
C533 C517 1.429 . S
C533 C529 1.429 . S
C533 C534 1.523 . S
C534 C518 1.368 . S
C534 C530 1.368 . S
C534 C533 1.523 . S
H535 C510 0.950 . S
H536 C512 0.950 . S
H537 C513 0.949 . S
H538 C515 0.950 . S
H539 C517 0.950 . S
C540 C541 1.349 . S
C540 C542 1.327 . S
C540 H565 0.950 . S
C541 C540 1.349 . S
C541 C557 1.349 . S
C542 C540 1.327 . S
C542 C561 1.429 . S
C542 H566 0.950 . S
C543 C560 1.574 . S
C543 C562 1.368 . S
C543 H567 0.949 . S
H544 C548 0.949 . S
C545 C546 1.349 . S
C545 C547 1.327 . S
C545 H568 0.950 . S
C546 C545 1.349 . S
C546 C558 1.349 . S
C547 C545 1.327 . S
C547 C563 1.429 . S
C547 H569 0.950 . S
C548 H544 0.949 . S
C548 C556 1.574 . S
C548 C564 1.368 . S
H549 C557 0.950 . S
H550 C555 0.950 . S
H551 C556 0.949 . S
H552 C558 0.950 . S
H553 C559 0.950 . S
H554 C560 0.949 . S
C555 H550 0.950 . S
C555 C557 1.327 . S
C555 C561 1.429 . S
C556 C548 1.574 . S
C556 H551 0.949 . S
C556 C562 1.368 . S
C557 C541 1.349 . S
C557 H549 0.950 . S
C557 C555 1.327 . S
C558 C546 1.349 . S
C558 H552 0.950 . S
C558 C559 1.327 . S
C559 H553 0.950 . S
C559 C558 1.327 . S
C559 C563 1.429 . S
C560 C543 1.574 . S
C560 H554 0.949 . S
C560 C564 1.368 . S
C561 C542 1.429 . S
C561 C555 1.429 . S
C561 C562 1.523 . S
C562 C543 1.368 . S
C562 C556 1.368 . S
C562 C561 1.523 . S
C563 C547 1.429 . S
C563 C559 1.429 . S
C563 C564 1.523 . S
C564 C548 1.368 . S
C564 C560 1.368 . S
C564 C563 1.523 . S
H565 C540 0.950 . S
H566 C542 0.950 . S
H567 C543 0.949 . S
H568 C545 0.950 . S
H569 C547 0.950 . S
C570 C571 1.349 . S
C570 C572 1.327 . S
C570 H595 0.950 . S
C571 C570 1.349 . S
C571 C587 1.349 . S
C572 C570 1.327 . S
C572 C591 1.429 . S
C572 H596 0.950 . S
C573 C590 1.574 . S
C573 C592 1.368 . S
C573 H597 0.949 . S
H574 C578 0.949 . S
C575 C576 1.349 . S
C575 C577 1.327 . S
C575 H598 0.950 . S
C576 C575 1.349 . S
C576 C588 1.349 . S
C577 C575 1.327 . S
C577 C593 1.429 . S
C577 H599 0.950 . S
C578 H574 0.949 . S
C578 C586 1.574 . S
C578 C594 1.368 . S
H579 C587 0.950 . S
H580 C585 0.950 . S
H581 C586 0.949 . S
H582 C588 0.950 . S
H583 C589 0.950 . S
H584 C590 0.949 . S
C585 H580 0.950 . S
C585 C587 1.327 . S
C585 C591 1.429 . S
C586 C578 1.574 . S
C586 H581 0.949 . S
C586 C592 1.368 . S
C587 C571 1.349 . S
C587 H579 0.950 . S
C587 C585 1.327 . S
C588 C576 1.349 . S
C588 H582 0.950 . S
C588 C589 1.327 . S
C589 H583 0.950 . S
C589 C588 1.327 . S
C589 C593 1.429 . S
C590 C573 1.574 . S
C590 H584 0.949 . S
C590 C594 1.368 . S
C591 C572 1.429 . S
C591 C585 1.429 . S
C591 C592 1.523 . S
C592 C573 1.368 . S
C592 C586 1.368 . S
C592 C591 1.523 . S
C593 C577 1.429 . S
C593 C589 1.429 . S
C593 C594 1.523 . S
C594 C578 1.368 . S
C594 C590 1.368 . S
C594 C593 1.523 . S
H595 C570 0.950 . S
H596 C572 0.950 . S
H597 C573 0.949 . S
H598 C575 0.950 . S
H599 C577 0.950 . S
C600 C601 1.349 . S
C600 C602 1.327 . S
C600 H625 0.950 . S
C601 C600 1.349 . S
C601 C617 1.349 . S
C602 C600 1.327 . S
C602 C621 1.429 . S
C602 H626 0.950 . S
C603 C620 1.574 1_556 S
C603 C622 1.368 1_545 S
C603 H627 0.949 . S
H604 C608 0.949 . S
C605 C606 1.349 . S
C605 C607 1.327 . S
C605 H628 0.950 . S
C606 C605 1.349 . S
C606 C618 1.349 . S
C607 C605 1.327 . S
C607 C623 1.429 . S
C607 H629 0.950 . S
C608 H604 0.949 . S
C608 C616 1.574 1_554 S
C608 C624 1.368 1_565 S
H609 C617 0.950 . S
H610 C615 0.929 1_545 S
H611 C616 0.949 . S
H612 C618 0.950 . S
H613 C619 0.929 1_565 S
H614 C620 0.949 . S
C615 H610 0.929 1_565 S
C615 C617 1.327 . S
C615 C621 1.429 . S
C616 C608 1.574 1_556 S
C616 H611 0.949 . S
C616 C622 1.368 . S
C617 C601 1.349 . S
C617 H609 0.950 . S
C617 C615 1.327 . S
C618 C606 1.349 . S
C618 H612 0.950 . S
C618 C619 1.327 . S
C619 H613 0.929 1_545 S
C619 C618 1.327 . S
C619 C623 1.429 . S
C620 C603 1.574 1_554 S
C620 H614 0.949 . S
C620 C624 1.368 . S
C621 C602 1.429 . S
C621 C615 1.429 . S
C621 C622 1.523 . S
C622 C603 1.368 1_565 S
C622 C616 1.368 . S
C622 C621 1.523 . S
C623 C607 1.429 . S
C623 C619 1.429 . S
C623 C624 1.523 . S
C624 C608 1.368 1_545 S
C624 C620 1.368 . S
C624 C623 1.523 . S
H625 C600 0.950 . S
H626 C602 0.950 . S
H627 C603 0.949 . S
H628 C605 0.950 . S
H629 C607 0.950 . S
C630 C631 1.349 . S
C630 C632 1.327 . S
C630 H655 0.950 . S
C631 C630 1.349 . S
C631 C647 1.349 . S
C632 C630 1.327 . S
C632 C651 1.429 . S
C632 H656 0.950 . S
C633 C650 1.574 . S
C633 C652 1.368 . S
C633 H657 0.949 . S
H634 C638 0.949 . S
C635 C636 1.349 . S
C635 C637 1.327 . S
C635 H658 0.950 . S
C636 C635 1.349 . S
C636 C648 1.349 . S
C637 C635 1.327 . S
C637 C653 1.429 . S
C637 H659 0.950 . S
C638 H634 0.949 . S
C638 C646 1.574 . S
C638 C654 1.368 . S
H639 C647 0.950 . S
H640 C645 0.950 . S
H641 C646 0.949 . S
H642 C648 0.950 . S
H643 C649 0.950 . S
H644 C650 0.949 . S
C645 H640 0.950 . S
C645 C647 1.327 . S
C645 C651 1.429 . S
C646 C638 1.574 . S
C646 H641 0.949 . S
C646 C652 1.368 . S
C647 C631 1.349 . S
C647 H639 0.950 . S
C647 C645 1.327 . S
C648 C636 1.349 . S
C648 H642 0.950 . S
C648 C649 1.327 . S
C649 H643 0.950 . S
C649 C648 1.327 . S
C649 C653 1.429 . S
C650 C633 1.574 . S
C650 H644 0.949 . S
C650 C654 1.368 . S
C651 C632 1.429 . S
C651 C645 1.429 . S
C651 C652 1.523 . S
C652 C633 1.368 . S
C652 C646 1.368 . S
C652 C651 1.523 . S
C653 C637 1.429 . S
C653 C649 1.429 . S
C653 C654 1.523 . S
C654 C638 1.368 . S
C654 C650 1.368 . S
C654 C653 1.523 . S
H655 C630 0.950 . S
H656 C632 0.950 . S
H657 C633 0.949 . S
H658 C635 0.950 . S
H659 C637 0.950 . S
C660 C661 1.349 . S
C660 C662 1.327 . S
C660 H685 0.950 . S
C661 C660 1.349 . S
C661 C677 1.349 . S
C662 C660 1.327 . S
C662 C681 1.429 . S
C662 H686 0.950 . S
C663 C680 1.574 . S
C663 C682 1.368 . S
C663 H687 0.949 . S
H664 C668 0.949 . S
C665 C666 1.349 . S
C665 C667 1.327 . S
C665 H688 0.950 . S
C666 C665 1.349 . S
C666 C678 1.349 . S
C667 C665 1.327 . S
C667 C683 1.429 . S
C667 H689 0.950 . S
C668 H664 0.949 . S
C668 C676 1.574 . S
C668 C684 1.368 . S
H669 C677 0.950 . S
H670 C675 0.950 . S
H671 C676 0.949 . S
H672 C678 0.950 . S
H673 C679 0.950 . S
H674 C680 0.949 . S
C675 H670 0.950 . S
C675 C677 1.327 . S
C675 C681 1.429 . S
C676 C668 1.574 . S
C676 H671 0.949 . S
C676 C682 1.368 1_655 S
C677 C661 1.349 . S
C677 H669 0.950 . S
C677 C675 1.327 . S
C678 C666 1.349 . S
C678 H672 0.950 . S
C678 C679 1.327 . S
C679 H673 0.950 . S
C679 C678 1.327 . S
C679 C683 1.429 . S
C680 C663 1.574 . S
C680 H674 0.949 . S
C680 C684 1.368 1_455 S
C681 C662 1.429 . S
C681 C675 1.429 . S
C681 C682 1.523 . S
C682 C663 1.368 . S
C682 C676 1.368 1_455 S
C682 C681 1.523 . S
C683 C667 1.429 . S
C683 C679 1.429 . S
C683 C684 1.523 . S
C684 C668 1.368 . S
C684 C680 1.368 1_655 S
C684 C683 1.523 . S
H685 C660 0.950 . S
H686 C662 0.950 . S
H687 C663 0.949 . S
H688 C665 0.950 . S
H689 C667 0.950 . S
C690 C691 1.349 . S
C690 C692 1.327 . S
C690 H715 0.950 . S
C691 C690 1.349 . S
C691 C707 1.349 . S
C692 C690 1.327 . S
C692 C711 1.429 . S
C692 H716 0.952 . S
C693 C710 1.574 1_554 S
C693 C712 1.368 . S
C693 H717 0.949 . S
H694 C698 0.949 . S
C695 C696 1.349 . S
C695 C697 1.327 . S
C695 H718 0.950 . S
C696 C695 1.349 . S
C696 C708 1.349 . S
C697 C695 1.327 . S
C697 C713 1.429 . S
C697 H719 0.952 . S
C698 H694 0.949 . S
C698 C706 1.574 1_556 S
C698 C714 1.368 . S
H699 C707 0.950 . S
H700 C705 0.950 . S
H701 C706 0.949 . S
H702 C708 0.950 . S
H703 C709 0.950 . S
H704 C710 0.949 . S
C705 H700 0.950 . S
C705 C707 1.327 . S
C705 C711 1.429 . S
C706 C698 1.574 1_554 S
C706 H701 0.949 . S
C706 C712 1.368 1_545 S
C707 C691 1.349 . S
C707 H699 0.950 . S
C707 C705 1.327 . S
C708 C696 1.349 . S
C708 H702 0.950 . S
C708 C709 1.327 . S
C709 H703 0.950 . S
C709 C708 1.327 . S
C709 C713 1.429 . S
C710 C693 1.574 1_556 S
C710 H704 0.949 . S
C710 C714 1.368 1_565 S
C711 C692 1.429 . S
C711 C705 1.429 . S
C711 C712 1.523 . S
C712 C693 1.368 . S
C712 C706 1.368 1_565 S
C712 C711 1.523 . S
C713 C697 1.429 . S
C713 C709 1.429 . S
C713 C714 1.523 . S
C714 C698 1.368 . S
C714 C710 1.368 1_545 S
C714 C713 1.523 . S
H715 C690 0.950 . S
H716 C692 0.952 . S
H717 C693 0.949 . S
H718 C695 0.950 . S
H719 C697 0.952 . S
C720 C721 1.349 . S
C720 C722 1.327 . S
C720 H745 0.950 . S
C721 C720 1.349 . S
C721 C737 1.349 . S
C722 C720 1.327 . S
C722 C741 1.429 . S
C722 H746 0.950 . S
C723 C740 1.574 . S
C723 C742 1.368 . S
C723 H747 0.949 . S
H724 C728 0.949 . S
C725 C726 1.349 . S
C725 C727 1.327 . S
C725 H748 0.950 . S
C726 C725 1.349 . S
C726 C738 1.349 . S
C727 C725 1.327 . S
C727 C743 1.429 . S
C727 H749 0.950 . S
C728 H724 0.949 . S
C728 C736 1.574 . S
C728 C744 1.368 . S
H729 C737 0.950 . S
H730 C735 0.950 . S
H731 C736 0.949 . S
H732 C738 0.950 . S
H733 C739 0.950 . S
H734 C740 0.949 . S
C735 H730 0.950 . S
C735 C737 1.327 . S
C735 C741 1.429 . S
C736 C728 1.574 . S
C736 H731 0.949 . S
C736 C742 1.368 . S
C737 C721 1.349 . S
C737 H729 0.950 . S
C737 C735 1.327 . S
C738 C726 1.349 . S
C738 H732 0.950 . S
C738 C739 1.327 . S
C739 H733 0.950 . S
C739 C738 1.327 . S
C739 C743 1.429 . S
C740 C723 1.574 . S
C740 H734 0.949 . S
C740 C744 1.368 . S
C741 C722 1.429 . S
C741 C735 1.429 . S
C741 C742 1.523 . S
C742 C723 1.368 . S
C742 C736 1.368 . S
C742 C741 1.523 . S
C743 C727 1.429 . S
C743 C739 1.429 . S
C743 C744 1.523 . S
C744 C728 1.368 . S
C744 C740 1.368 . S
C744 C743 1.523 . S
H745 C720 0.950 . S
H746 C722 0.950 . S
H747 C723 0.949 . S
H748 C725 0.950 . S
H749 C727 0.950 . S
C750 C751 1.349 . S
C750 C752 1.327 . S
C750 H775 0.950 . S
C751 C750 1.349 . S
C751 C767 1.349 . S
C752 C750 1.327 . S
C752 C771 1.429 . S
C752 H776 0.950 . S
C753 C770 1.574 . S
C753 C772 1.368 . S
C753 H777 0.949 . S
H754 C758 0.949 . S
C755 C756 1.349 . S
C755 C757 1.327 . S
C755 H778 0.950 . S
C756 C755 1.349 . S
C756 C768 1.349 . S
C757 C755 1.327 . S
C757 C773 1.429 . S
C757 H779 0.950 . S
C758 H754 0.949 . S
C758 C766 1.574 . S
C758 C774 1.368 . S
H759 C767 0.950 . S
H760 C765 0.950 . S
H761 C766 0.949 . S
H762 C768 0.950 . S
H763 C769 0.950 . S
H764 C770 0.949 . S
C765 H760 0.950 . S
C765 C767 1.327 . S
C765 C771 1.429 . S
C766 C758 1.574 . S
C766 H761 0.949 . S
C766 C772 1.368 1_655 S
C767 C751 1.349 . S
C767 H759 0.950 . S
C767 C765 1.327 . S
C768 C756 1.349 . S
C768 H762 0.950 . S
C768 C769 1.327 . S
C769 H763 0.950 . S
C769 C768 1.327 . S
C769 C773 1.429 . S
C770 C753 1.574 . S
C770 H764 0.949 . S
C770 C774 1.368 1_455 S
C771 C752 1.429 . S
C771 C765 1.429 . S
C771 C772 1.523 . S
C772 C753 1.368 . S
C772 C766 1.368 1_455 S
C772 C771 1.523 . S
C773 C757 1.429 . S
C773 C769 1.429 . S
C773 C774 1.523 . S
C774 C758 1.368 . S
C774 C770 1.368 1_655 S
C774 C773 1.523 . S
H775 C750 0.950 . S
H776 C752 0.950 . S
H777 C753 0.949 . S
H778 C755 0.950 . S
H779 C757 0.950 . S
C780 C781 1.349 . S
C780 C782 1.327 . S
C780 H805 0.950 . S
C781 C780 1.349 . S
C781 C797 1.349 . S
C782 C780 1.327 . S
C782 C801 1.429 . S
C782 H806 0.950 . S
C783 C800 1.574 . S
C783 C802 1.368 1_565 S
C783 H807 0.949 . S
H784 C788 0.949 . S
C785 C786 1.349 . S
C785 C787 1.327 . S
C785 H808 0.950 . S
C786 C785 1.349 . S
C786 C798 1.349 . S
C787 C785 1.327 . S
C787 C803 1.429 . S
C787 H809 0.950 . S
C788 H784 0.949 . S
C788 C796 1.574 . S
C788 C804 1.368 1_545 S
H789 C797 0.950 . S
H790 C795 0.950 . S
H791 C796 0.949 . S
H792 C798 0.950 . S
H793 C799 0.950 . S
H794 C800 0.949 . S
C795 H790 0.950 . S
C795 C797 1.327 . S
C795 C801 1.429 . S
C796 C788 1.574 . S
C796 H791 0.949 . S
C796 C802 1.368 . S
C797 C781 1.349 . S
C797 H789 0.950 . S
C797 C795 1.327 . S
C798 C786 1.349 . S
C798 H792 0.950 . S
C798 C799 1.327 . S
C799 H793 0.950 . S
C799 C798 1.327 . S
C799 C803 1.429 . S
C800 C783 1.574 . S
C800 H794 0.949 . S
C800 C804 1.368 . S
C801 C782 1.429 . S
C801 C795 1.429 . S
C801 C802 1.523 . S
C802 C783 1.368 1_545 S
C802 C796 1.368 . S
C802 C801 1.523 . S
C803 C787 1.429 . S
C803 C799 1.429 . S
C803 C804 1.523 . S
C804 C788 1.368 1_565 S
C804 C800 1.368 . S
C804 C803 1.523 . S
H805 C780 0.950 . S
H806 C782 0.950 . S
H807 C783 0.949 . S
H808 C785 0.950 . S
H809 C787 0.950 . S
C810 C811 1.349 . S
C810 C812 1.327 . S
C810 H835 0.950 . S
C811 C810 1.349 . S
C811 C827 1.349 . S
C812 C810 1.327 . S
C812 C831 1.429 . S
C812 H836 0.950 . S
C813 C830 1.574 . S
C813 C832 1.368 . S
C813 H837 0.949 . S
H814 C818 0.949 . S
C815 C816 1.349 . S
C815 C817 1.327 . S
C815 H838 0.950 . S
C816 C815 1.349 . S
C816 C828 1.349 . S
C817 C815 1.327 . S
C817 C833 1.429 . S
C817 H839 0.950 . S
C818 H814 0.949 . S
C818 C826 1.574 . S
C818 C834 1.368 . S
H819 C827 0.950 . S
H820 C825 0.950 . S
H821 C826 0.949 . S
H822 C828 0.950 . S
H823 C829 0.950 . S
H824 C830 0.949 . S
C825 H820 0.950 . S
C825 C827 1.327 . S
C825 C831 1.429 . S
C826 C818 1.574 . S
C826 H821 0.949 . S
C826 C832 1.368 . S
C827 C811 1.349 . S
C827 H819 0.950 . S
C827 C825 1.327 . S
C828 C816 1.349 . S
C828 H822 0.950 . S
C828 C829 1.327 . S
C829 H823 0.950 . S
C829 C828 1.327 . S
C829 C833 1.429 . S
C830 C813 1.574 . S
C830 H824 0.949 . S
C830 C834 1.368 . S
C831 C812 1.429 . S
C831 C825 1.429 . S
C831 C832 1.523 . S
C832 C813 1.368 . S
C832 C826 1.368 . S
C832 C831 1.523 . S
C833 C817 1.429 . S
C833 C829 1.429 . S
C833 C834 1.523 . S
C834 C818 1.368 . S
C834 C830 1.368 . S
C834 C833 1.523 . S
H835 C810 0.950 . S
H836 C812 0.950 . S
H837 C813 0.949 . S
H838 C815 0.950 . S
H839 C817 0.950 . S
C840 C841 1.349 . S
C840 C842 1.327 . S
C840 H865 0.950 . S
C841 C840 1.349 . S
C841 C857 1.349 . S
C842 C840 1.327 . S
C842 C861 1.429 . S
C842 H866 0.950 . S
C843 C860 1.574 . S
C843 C862 1.368 . S
C843 H867 0.949 . S
H844 C848 0.949 . S
C845 C846 1.349 . S
C845 C847 1.327 . S
C845 H868 0.950 . S
C846 C845 1.349 . S
C846 C858 1.349 . S
C847 C845 1.327 . S
C847 C863 1.429 . S
C847 H869 0.950 . S
C848 H844 0.949 . S
C848 C856 1.574 . S
C848 C864 1.368 . S
H849 C857 0.950 . S
H850 C855 0.950 . S
H851 C856 0.949 . S
H852 C858 0.950 . S
H853 C859 0.950 . S
H854 C860 0.949 . S
C855 H850 0.950 . S
C855 C857 1.327 . S
C855 C861 1.429 . S
C856 C848 1.574 . S
C856 H851 0.949 . S
C856 C862 1.368 1_455 S
C857 C841 1.349 . S
C857 H849 0.950 . S
C857 C855 1.327 . S
C858 C846 1.349 . S
C858 H852 0.950 . S
C858 C859 1.327 . S
C859 H853 0.950 . S
C859 C858 1.327 . S
C859 C863 1.429 . S
C860 C843 1.574 . S
C860 H854 0.949 . S
C860 C864 1.368 1_655 S
C861 C842 1.429 . S
C861 C855 1.429 . S
C861 C862 1.523 . S
C862 C843 1.368 . S
C862 C856 1.368 1_655 S
C862 C861 1.523 . S
C863 C847 1.429 . S
C863 C859 1.429 . S
C863 C864 1.523 . S
C864 C848 1.368 . S
C864 C860 1.368 1_455 S
C864 C863 1.523 . S
H865 C840 0.950 . S
H866 C842 0.950 . S
H867 C843 0.949 . S
H868 C845 0.950 . S
H869 C847 0.950 . S
C870 C871 1.349 . S
C870 C872 1.327 . S
C870 H895 0.950 . S
C871 C870 1.349 . S
C871 C887 1.349 . S
C872 C870 1.327 . S
C872 C891 1.429 . S
C872 H896 0.950 . S
C873 C890 1.574 . S
C873 C892 1.368 . S
C873 H897 0.949 . S
H874 C878 0.949 . S
C875 C876 1.349 . S
C875 C877 1.327 . S
C875 H898 0.950 . S
C876 C875 1.349 . S
C876 C888 1.349 . S
C877 C875 1.327 . S
C877 C893 1.429 . S
C877 H899 0.950 . S
C878 H874 0.949 . S
C878 C886 1.574 . S
C878 C894 1.368 . S
H879 C887 0.950 . S
H880 C885 0.950 . S
H881 C886 0.949 . S
H882 C888 0.950 . S
H883 C889 0.950 . S
H884 C890 0.949 . S
C885 H880 0.950 . S
C885 C887 1.327 . S
C885 C891 1.429 . S
C886 C878 1.574 . S
C886 H881 0.949 . S
C886 C892 1.368 1_655 S
C887 C871 1.349 . S
C887 H879 0.950 . S
C887 C885 1.327 . S
C888 C876 1.349 . S
C888 H882 0.950 . S
C888 C889 1.327 . S
C889 H883 0.950 . S
C889 C888 1.327 . S
C889 C893 1.429 . S
C890 C873 1.574 . S
C890 H884 0.949 . S
C890 C894 1.368 1_455 S
C891 C872 1.429 . S
C891 C885 1.429 . S
C891 C892 1.523 . S
C892 C873 1.368 . S
C892 C886 1.368 1_455 S
C892 C891 1.523 . S
C893 C877 1.429 . S
C893 C889 1.429 . S
C893 C894 1.523 . S
C894 C878 1.368 . S
C894 C890 1.368 1_655 S
C894 C893 1.523 . S
H895 C870 0.950 . S
H896 C872 0.950 . S
H897 C873 0.949 . S
H898 C875 0.950 . S
H899 C877 0.950 . S
C900 C901 1.349 . S
C900 C902 1.327 . S
C900 H925 0.950 . S
C901 C900 1.349 . S
C901 C917 1.349 . S
C902 C900 1.327 . S
C902 C921 1.429 . S
C902 H926 0.950 . S
C903 C920 1.574 . S
C903 C922 1.368 . S
C903 H927 0.949 . S
H904 C908 0.949 . S
C905 C906 1.349 . S
C905 C907 1.327 . S
C905 H928 0.950 . S
C906 C905 1.349 . S
C906 C918 1.349 . S
C907 C905 1.327 . S
C907 C923 1.429 . S
C907 H929 0.950 . S
C908 H904 0.949 . S
C908 C916 1.574 . S
C908 C924 1.368 . S
H909 C917 0.950 . S
H910 C915 0.950 . S
H911 C916 0.949 . S
H912 C918 0.950 . S
H913 C919 0.950 . S
H914 C920 0.949 . S
C915 H910 0.950 . S
C915 C917 1.327 . S
C915 C921 1.429 . S
C916 C908 1.574 . S
C916 H911 0.949 . S
C916 C922 1.368 1_545 S
C917 C901 1.349 . S
C917 H909 0.950 . S
C917 C915 1.327 . S
C918 C906 1.349 . S
C918 H912 0.950 . S
C918 C919 1.327 . S
C919 H913 0.950 . S
C919 C918 1.327 . S
C919 C923 1.429 . S
C920 C903 1.574 . S
C920 H914 0.949 . S
C920 C924 1.368 1_565 S
C921 C902 1.429 . S
C921 C915 1.429 . S
C921 C922 1.523 . S
C922 C903 1.368 . S
C922 C916 1.368 1_565 S
C922 C921 1.523 . S
C923 C907 1.429 . S
C923 C919 1.429 . S
C923 C924 1.523 . S
C924 C908 1.368 . S
C924 C920 1.368 1_545 S
C924 C923 1.523 . S
H925 C900 0.950 . S
H926 C902 0.950 . S
H927 C903 0.949 . S
H928 C905 0.950 . S
H929 C907 0.950 . S
C930 C931 1.349 . S
C930 C932 1.327 . S
C930 H955 0.950 . S
C931 C930 1.349 . S
C931 C947 1.349 . S
C932 C930 1.327 . S
C932 C951 1.429 . S
C932 H956 0.950 . S
C933 C950 1.574 . S
C933 C952 1.368 . S
C933 H957 0.949 . S
H934 C938 0.949 . S
C935 C936 1.349 . S
C935 C937 1.327 . S
C935 H958 0.950 . S
C936 C935 1.349 . S
C936 C948 1.349 . S
C937 C935 1.327 . S
C937 C953 1.429 . S
C937 H959 0.950 . S
C938 H934 0.949 . S
C938 C946 1.574 . S
C938 C954 1.368 . S
H939 C947 0.950 . S
H940 C945 0.950 . S
H941 C946 0.949 . S
H942 C948 0.950 . S
H943 C949 0.950 . S
H944 C950 0.949 . S
C945 H940 0.950 . S
C945 C947 1.327 . S
C945 C951 1.429 . S
C946 C938 1.574 . S
C946 H941 0.949 . S
C946 C952 1.368 . S
C947 C931 1.349 . S
C947 H939 0.950 . S
C947 C945 1.327 . S
C948 C936 1.349 . S
C948 H942 0.950 . S
C948 C949 1.327 . S
C949 H943 0.950 . S
C949 C948 1.327 . S
C949 C953 1.429 . S
C950 C933 1.574 . S
C950 H944 0.949 . S
C950 C954 1.368 . S
C951 C932 1.429 . S
C951 C945 1.429 . S
C951 C952 1.523 . S
C952 C933 1.368 . S
C952 C946 1.368 . S
C952 C951 1.523 . S
C953 C937 1.429 . S
C953 C949 1.429 . S
C953 C954 1.523 . S
C954 C938 1.368 . S
C954 C950 1.368 . S
C954 C953 1.523 . S
H955 C930 0.950 . S
H956 C932 0.950 . S
H957 C933 0.949 . S
H958 C935 0.950 . S
H959 C937 0.950 . S
C960 C961 1.349 . S
C960 C962 1.327 . S
C960 H985 0.950 . S
C961 C960 1.349 . S
C961 C977 1.349 . S
C962 C960 1.327 . S
C962 C981 1.429 . S
C962 H986 0.984 . S
C963 C980 1.574 . S
C963 C982 1.368 . S
C963 H987 0.949 . S
H964 C968 0.949 . S
C965 C966 1.349 . S
C965 C967 1.327 . S
C965 H988 0.950 . S
C966 C965 1.349 . S
C966 C978 1.349 . S
C967 C965 1.327 . S
C967 C983 1.429 . S
C967 H989 0.983 . S
C968 H964 0.949 . S
C968 C976 1.574 . S
C968 C984 1.368 . S
H969 C977 0.950 . S
H970 C975 0.950 . S
H971 C976 0.949 . S
H972 C978 0.950 . S
H973 C979 0.950 . S
H974 C980 0.949 . S
C975 H970 0.950 . S
C975 C977 1.327 . S
C975 C981 1.429 . S
C976 C968 1.574 . S
C976 H971 0.949 . S
C976 C982 1.368 1_545 S
C977 C961 1.349 . S
C977 H969 0.950 . S
C977 C975 1.327 . S
C978 C966 1.349 . S
C978 H972 0.950 . S
C978 C979 1.327 . S
C979 H973 0.950 . S
C979 C978 1.327 . S
C979 C983 1.429 . S
C980 C963 1.574 . S
C980 H974 0.949 . S
C980 C984 1.368 1_565 S
C981 C962 1.429 . S
C981 C975 1.429 . S
C981 C982 1.523 . S
C982 C963 1.368 . S
C982 C976 1.368 1_565 S
C982 C981 1.523 . S
C983 C967 1.429 . S
C983 C979 1.429 . S
C983 C984 1.523 . S
C984 C968 1.368 . S
C984 C980 1.368 1_545 S
C984 C983 1.523 . S
H985 C960 0.950 . S
H986 C962 0.984 . S
H987 C963 0.949 . S
H988 C965 0.950 . S
H989 C967 0.983 . S
C990 C991 1.349 . S
C990 C992 1.327 . S
C990 H1015 0.950 . S
C991 C990 1.349 . S
C991 C1007 1.349 . S
C992 C990 1.327 . S
C992 C1011 1.429 . S
C992 H1016 0.950 . S
C993 C1010 1.574 . S
C993 C1012 1.368 . S
C993 H1017 0.949 . S
H994 C998 0.949 . S
C995 C996 1.349 . S
C995 C997 1.327 . S
C995 H1018 0.950 . S
C996 C995 1.349 . S
C996 C1008 1.349 . S
C997 C995 1.327 . S
C997 C1013 1.429 . S
C997 H1019 0.950 . S
C998 H994 0.949 . S
C998 C1006 1.574 . S
C998 C1014 1.368 . S
H999 C1007 0.950 . S
H1000 C1005 0.950 . S
H1001 C1006 0.949 . S
H1002 C1008 0.950 . S
H1003 C1009 0.950 . S
H1004 C1010 0.949 . S
C1005 H1000 0.950 . S
C1005 C1007 1.327 . S
C1005 C1011 1.429 . S
C1006 C998 1.574 . S
C1006 H1001 0.949 . S
C1006 C1012 1.368 . S
C1007 C991 1.349 . S
C1007 H999 0.950 . S
C1007 C1005 1.327 . S
C1008 C996 1.349 . S
C1008 H1002 0.950 . S
C1008 C1009 1.327 . S
C1009 H1003 0.950 . S
C1009 C1008 1.327 . S
C1009 C1013 1.429 . S
C1010 C993 1.574 . S
C1010 H1004 0.949 . S
C1010 C1014 1.368 . S
C1011 C992 1.429 . S
C1011 C1005 1.429 . S
C1011 C1012 1.523 . S
C1012 C993 1.368 . S
C1012 C1006 1.368 . S
C1012 C1011 1.523 . S
C1013 C997 1.429 . S
C1013 C1009 1.429 . S
C1013 C1014 1.523 . S
C1014 C998 1.368 . S
C1014 C1010 1.368 . S
C1014 C1013 1.523 . S
H1015 C990 0.950 . S
H1016 C992 0.950 . S
H1017 C993 0.949 . S
H1018 C995 0.950 . S
H1019 C997 0.950 . S
C1020 C1021 1.349 . S
C1020 C1022 1.327 . S
C1020 H1045 0.950 . S
C1021 C1020 1.349 . S
C1021 C1037 1.349 . S
C1022 C1020 1.327 . S
C1022 C1041 1.429 . S
C1022 H1046 0.950 . S
C1023 C1040 1.574 1_655 S
C1023 C1042 1.368 . S
C1023 H1047 0.949 . S
H1024 C1028 0.949 . S
C1025 C1026 1.349 . S
C1025 C1027 1.327 . S
C1025 H1048 0.950 . S
C1026 C1025 1.349 . S
C1026 C1038 1.349 . S
C1027 C1025 1.327 . S
C1027 C1043 1.429 . S
C1027 H1049 0.950 . S
C1028 H1024 0.949 . S
C1028 C1036 1.574 1_455 S
C1028 C1044 1.368 . S
H1029 C1037 0.950 . S
H1030 C1035 0.950 . S
H1031 C1036 0.949 . S
H1032 C1038 0.950 . S
H1033 C1039 0.950 . S
H1034 C1040 0.949 . S
C1035 H1030 0.950 . S
C1035 C1037 1.327 . S
C1035 C1041 1.429 . S
C1036 C1028 1.574 1_655 S
C1036 H1031 0.949 . S
C1036 C1042 1.368 . S
C1037 C1021 1.349 . S
C1037 H1029 0.950 . S
C1037 C1035 1.327 . S
C1038 C1026 1.349 . S
C1038 H1032 0.950 . S
C1038 C1039 1.327 . S
C1039 H1033 0.950 . S
C1039 C1038 1.327 . S
C1039 C1043 1.429 . S
C1040 C1023 1.574 1_455 S
C1040 H1034 0.949 . S
C1040 C1044 1.368 . S
C1041 C1022 1.429 . S
C1041 C1035 1.429 . S
C1041 C1042 1.523 . S
C1042 C1023 1.368 . S
C1042 C1036 1.368 . S
C1042 C1041 1.523 . S
C1043 C1027 1.429 . S
C1043 C1039 1.429 . S
C1043 C1044 1.523 . S
C1044 C1028 1.368 . S
C1044 C1040 1.368 . S
C1044 C1043 1.523 . S
H1045 C1020 0.950 . S
H1046 C1022 0.950 . S
H1047 C1023 0.949 . S
H1048 C1025 0.950 . S
H1049 C1027 0.950 . S
C1050 C1051 1.349 . S
C1050 C1052 1.327 . S
C1050 H1075 0.950 . S
C1051 C1050 1.349 . S
C1051 C1067 1.349 . S
C1052 C1050 1.327 . S
C1052 C1071 1.429 . S
C1052 H1076 0.960 . S
C1053 C1070 1.574 . S
C1053 C1072 1.368 . S
C1053 H1077 0.949 . S
H1054 C1058 0.949 . S
C1055 C1056 1.349 . S
C1055 C1057 1.327 . S
C1055 H1078 0.950 . S
C1056 C1055 1.349 . S
C1056 C1068 1.349 . S
C1057 C1055 1.327 . S
C1057 C1073 1.429 . S
C1057 H1079 0.960 . S
C1058 H1054 0.949 . S
C1058 C1066 1.574 . S
C1058 C1074 1.368 . S
H1059 C1067 0.950 . S
H1060 C1065 0.950 . S
H1061 C1066 0.949 . S
H1062 C1068 0.950 . S
H1063 C1069 0.950 . S
H1064 C1070 0.949 . S
C1065 H1060 0.950 . S
C1065 C1067 1.327 . S
C1065 C1071 1.429 . S
C1066 C1058 1.574 . S
C1066 H1061 0.949 . S
C1066 C1072 1.368 1_565 S
C1067 C1051 1.349 . S
C1067 H1059 0.950 . S
C1067 C1065 1.327 . S
C1068 C1056 1.349 . S
C1068 H1062 0.950 . S
C1068 C1069 1.327 . S
C1069 H1063 0.950 . S
C1069 C1068 1.327 . S
C1069 C1073 1.429 . S
C1070 C1053 1.574 . S
C1070 H1064 0.949 . S
C1070 C1074 1.368 1_545 S
C1071 C1052 1.429 . S
C1071 C1065 1.429 . S
C1071 C1072 1.523 . S
C1072 C1053 1.368 . S
C1072 C1066 1.368 1_545 S
C1072 C1071 1.523 . S
C1073 C1057 1.429 . S
C1073 C1069 1.429 . S
C1073 C1074 1.523 . S
C1074 C1058 1.368 . S
C1074 C1070 1.368 1_565 S
C1074 C1073 1.523 . S
H1075 C1050 0.950 . S
H1076 C1052 0.960 . S
H1077 C1053 0.949 . S
H1078 C1055 0.950 . S
H1079 C1057 0.960 . S
C1080 C1081 1.349 . S
C1080 C1082 1.327 . S
C1080 H1105 0.950 . S
C1081 C1080 1.349 . S
C1081 C1097 1.349 . S
C1082 C1080 1.327 . S
C1082 C1101 1.429 . S
C1082 H1106 0.950 . S
C1083 C1100 1.574 . S
C1083 C1102 1.368 . S
C1083 H1107 0.949 . S
H1084 C1088 0.949 . S
C1085 C1086 1.349 . S
C1085 C1087 1.327 . S
C1085 H1108 0.950 . S
C1086 C1085 1.349 . S
C1086 C1098 1.349 . S
C1087 C1085 1.327 . S
C1087 C1103 1.429 . S
C1087 H1109 0.950 . S
C1088 H1084 0.949 . S
C1088 C1096 1.574 . S
C1088 C1104 1.368 . S
H1089 C1097 0.950 . S
H1090 C1095 0.950 . S
H1091 C1096 0.949 . S
H1092 C1098 0.950 . S
H1093 C1099 0.950 . S
H1094 C1100 0.949 . S
C1095 H1090 0.950 . S
C1095 C1097 1.327 . S
C1095 C1101 1.429 . S
C1096 C1088 1.574 . S
C1096 H1091 0.949 . S
C1096 C1102 1.368 . S
C1097 C1081 1.349 . S
C1097 H1089 0.950 . S
C1097 C1095 1.327 . S
C1098 C1086 1.349 . S
C1098 H1092 0.950 . S
C1098 C1099 1.327 . S
C1099 H1093 0.950 . S
C1099 C1098 1.327 . S
C1099 C1103 1.429 . S
C1100 C1083 1.574 . S
C1100 H1094 0.949 . S
C1100 C1104 1.368 . S
C1101 C1082 1.429 . S
C1101 C1095 1.429 . S
C1101 C1102 1.523 . S
C1102 C1083 1.368 . S
C1102 C1096 1.368 . S
C1102 C1101 1.523 . S
C1103 C1087 1.429 . S
C1103 C1099 1.429 . S
C1103 C1104 1.523 . S
C1104 C1088 1.368 . S
C1104 C1100 1.368 . S
C1104 C1103 1.523 . S
H1105 C1080 0.950 . S
H1106 C1082 0.950 . S
H1107 C1083 0.949 . S
H1108 C1085 0.950 . S
H1109 C1087 0.950 . S
C1110 C1111 1.349 . S
C1110 C1112 1.327 . S
C1110 H1135 0.950 . S
C1111 C1110 1.349 . S
C1111 C1127 1.349 . S
C1112 C1110 1.327 . S
C1112 C1131 1.429 . S
C1112 H1136 0.950 . S
C1113 C1130 1.574 1_455 S
C1113 C1132 1.368 . S
C1113 H1137 0.949 . S
H1114 C1118 0.949 . S
C1115 C1116 1.349 . S
C1115 C1117 1.327 . S
C1115 H1138 0.950 . S
C1116 C1115 1.349 . S
C1116 C1128 1.349 . S
C1117 C1115 1.327 . S
C1117 C1133 1.429 . S
C1117 H1139 0.950 . S
C1118 H1114 0.949 . S
C1118 C1126 1.574 1_655 S
C1118 C1134 1.368 . S
H1119 C1127 0.950 . S
H1120 C1125 0.950 . S
H1121 C1126 0.949 . S
H1122 C1128 0.950 . S
H1123 C1129 0.950 . S
H1124 C1130 0.949 . S
C1125 H1120 0.950 . S
C1125 C1127 1.327 . S
C1125 C1131 1.429 . S
C1126 C1118 1.574 1_455 S
C1126 H1121 0.949 . S
C1126 C1132 1.368 . S
C1127 C1111 1.349 . S
C1127 H1119 0.950 . S
C1127 C1125 1.327 . S
C1128 C1116 1.349 . S
C1128 H1122 0.950 . S
C1128 C1129 1.327 . S
C1129 H1123 0.950 . S
C1129 C1128 1.327 . S
C1129 C1133 1.429 . S
C1130 C1113 1.574 1_655 S
C1130 H1124 0.949 . S
C1130 C1134 1.368 . S
C1131 C1112 1.429 . S
C1131 C1125 1.429 . S
C1131 C1132 1.523 . S
C1132 C1113 1.368 . S
C1132 C1126 1.368 . S
C1132 C1131 1.523 . S
C1133 C1117 1.429 . S
C1133 C1129 1.429 . S
C1133 C1134 1.523 . S
C1134 C1118 1.368 . S
C1134 C1130 1.368 . S
C1134 C1133 1.523 . S
H1135 C1110 0.950 . S
H1136 C1112 0.950 . S
H1137 C1113 0.949 . S
H1138 C1115 0.950 . S
H1139 C1117 0.950 . S
C1140 C1141 1.349 . S
C1140 C1142 1.327 . S
C1140 H1165 0.950 . S
C1141 C1140 1.349 . S
C1141 C1157 1.349 . S
C1142 C1140 1.327 . S
C1142 C1161 1.429 . S
C1142 H1166 0.950 . S
C1143 C1160 1.574 . S
C1143 C1162 1.368 . S
C1143 H1167 0.949 . S
H1144 C1148 0.949 . S
C1145 C1146 1.349 . S
C1145 C1147 1.327 . S
C1145 H1168 0.950 . S
C1146 C1145 1.349 . S
C1146 C1158 1.349 . S
C1147 C1145 1.327 . S
C1147 C1163 1.429 . S
C1147 H1169 0.950 . S
C1148 H1144 0.949 . S
C1148 C1156 1.574 . S
C1148 C1164 1.368 . S
H1149 C1157 0.950 . S
H1150 C1155 0.950 . S
H1151 C1156 0.949 . S
H1152 C1158 0.950 . S
H1153 C1159 0.950 . S
H1154 C1160 0.949 . S
C1155 H1150 0.950 . S
C1155 C1157 1.327 . S
C1155 C1161 1.429 . S
C1156 C1148 1.574 . S
C1156 H1151 0.949 . S
C1156 C1162 1.368 . S
C1157 C1141 1.349 . S
C1157 H1149 0.950 . S
C1157 C1155 1.327 . S
C1158 C1146 1.349 . S
C1158 H1152 0.950 . S
C1158 C1159 1.327 . S
C1159 H1153 0.950 . S
C1159 C1158 1.327 . S
C1159 C1163 1.429 . S
C1160 C1143 1.574 . S
C1160 H1154 0.949 . S
C1160 C1164 1.368 . S
C1161 C1142 1.429 . S
C1161 C1155 1.429 . S
C1161 C1162 1.523 . S
C1162 C1143 1.368 . S
C1162 C1156 1.368 . S
C1162 C1161 1.523 . S
C1163 C1147 1.429 . S
C1163 C1159 1.429 . S
C1163 C1164 1.523 . S
C1164 C1148 1.368 . S
C1164 C1160 1.368 . S
C1164 C1163 1.523 . S
H1165 C1140 0.950 . S
H1166 C1142 0.950 . S
H1167 C1143 0.949 . S
H1168 C1145 0.950 . S
H1169 C1147 0.950 . S
C1170 C1171 1.349 . S
C1170 C1172 1.327 . S
C1170 H1195 0.950 . S
C1171 C1170 1.349 . S
C1171 C1187 1.349 . S
C1172 C1170 1.327 . S
C1172 C1191 1.429 . S
C1172 H1196 0.950 . S
C1173 C1190 1.574 . S
C1173 C1192 1.368 . S
C1173 H1197 0.949 . S
H1174 C1178 0.949 . S
C1175 C1176 1.349 . S
C1175 C1177 1.327 . S
C1175 H1198 0.950 . S
C1176 C1175 1.349 . S
C1176 C1188 1.349 . S
C1177 C1175 1.327 . S
C1177 C1193 1.429 . S
C1177 H1199 0.950 . S
C1178 H1174 0.949 . S
C1178 C1186 1.574 . S
C1178 C1194 1.368 . S
H1179 C1187 0.950 . S
H1180 C1185 0.950 . S
H1181 C1186 0.949 . S
H1182 C1188 0.950 . S
H1183 C1189 0.950 . S
H1184 C1190 0.949 . S
C1185 H1180 0.950 . S
C1185 C1187 1.327 . S
C1185 C1191 1.429 . S
C1186 C1178 1.574 . S
C1186 H1181 0.949 . S
C1186 C1192 1.368 . S
C1187 C1171 1.349 . S
C1187 H1179 0.950 . S
C1187 C1185 1.327 . S
C1188 C1176 1.349 . S
C1188 H1182 0.950 . S
C1188 C1189 1.327 . S
C1189 H1183 0.950 . S
C1189 C1188 1.327 . S
C1189 C1193 1.429 . S
C1190 C1173 1.574 . S
C1190 H1184 0.949 . S
C1190 C1194 1.368 . S
C1191 C1172 1.429 . S
C1191 C1185 1.429 . S
C1191 C1192 1.523 . S
C1192 C1173 1.368 . S
C1192 C1186 1.368 . S
C1192 C1191 1.523 . S
C1193 C1177 1.429 . S
C1193 C1189 1.429 . S
C1193 C1194 1.523 . S
C1194 C1178 1.368 . S
C1194 C1190 1.368 . S
C1194 C1193 1.523 . S
H1195 C1170 0.950 . S
H1196 C1172 0.950 . S
H1197 C1173 0.949 . S
H1198 C1175 0.950 . S
H1199 C1177 0.950 . S
C1200 C1201 1.349 . S
C1200 C1202 1.327 . S
C1200 H1225 0.950 . S
C1201 C1200 1.349 . S
C1201 C1217 1.349 . S
C1202 C1200 1.327 . S
C1202 C1221 1.429 . S
C1202 H1226 0.950 . S
C1203 C1220 1.574 . S
C1203 C1222 1.368 . S
C1203 H1227 0.949 . S
H1204 C1208 0.949 . S
C1205 C1206 1.349 . S
C1205 C1207 1.327 . S
C1205 H1228 0.950 . S
C1206 C1205 1.349 . S
C1206 C1218 1.349 . S
C1207 C1205 1.327 . S
C1207 C1223 1.429 . S
C1207 H1229 0.950 . S
C1208 H1204 0.949 . S
C1208 C1216 1.574 . S
C1208 C1224 1.368 . S
H1209 C1217 0.950 . S
H1210 C1215 0.950 . S
H1211 C1216 0.949 . S
H1212 C1218 0.950 . S
H1213 C1219 0.950 . S
H1214 C1220 0.949 . S
C1215 H1210 0.950 . S
C1215 C1217 1.327 . S
C1215 C1221 1.429 . S
C1216 C1208 1.574 . S
C1216 H1211 0.949 . S
C1216 C1222 1.368 . S
C1217 C1201 1.349 . S
C1217 H1209 0.950 . S
C1217 C1215 1.327 . S
C1218 C1206 1.349 . S
C1218 H1212 0.950 . S
C1218 C1219 1.327 . S
C1219 H1213 0.950 . S
C1219 C1218 1.327 . S
C1219 C1223 1.429 . S
C1220 C1203 1.574 . S
C1220 H1214 0.949 . S
C1220 C1224 1.368 . S
C1221 C1202 1.429 . S
C1221 C1215 1.429 . S
C1221 C1222 1.523 . S
C1222 C1203 1.368 . S
C1222 C1216 1.368 . S
C1222 C1221 1.523 . S
C1223 C1207 1.429 . S
C1223 C1219 1.429 . S
C1223 C1224 1.523 . S
C1224 C1208 1.368 . S
C1224 C1220 1.368 . S
C1224 C1223 1.523 . S
H1225 C1200 0.950 . S
H1226 C1202 0.950 . S
H1227 C1203 0.949 . S
H1228 C1205 0.950 . S
H1229 C1207 0.950 . S
C1230 C1231 1.349 . S
C1230 C1232 1.327 . S
C1230 H1255 0.950 . S
C1231 C1230 1.349 . S
C1231 C1247 1.349 . S
C1232 C1230 1.327 . S
C1232 C1251 1.429 . S
C1232 H1256 0.950 . S
C1233 C1250 1.574 . S
C1233 C1252 1.368 . S
C1233 H1257 0.949 . S
H1234 C1238 0.949 . S
C1235 C1236 1.349 . S
C1235 C1237 1.327 . S
C1235 H1258 0.950 . S
C1236 C1235 1.349 . S
C1236 C1248 1.349 . S
C1237 C1235 1.327 . S
C1237 C1253 1.429 . S
C1237 H1259 0.950 . S
C1238 H1234 0.949 . S
C1238 C1246 1.574 . S
C1238 C1254 1.368 . S
H1239 C1247 0.950 . S
H1240 C1245 0.950 . S
H1241 C1246 0.949 . S
H1242 C1248 0.950 . S
H1243 C1249 0.950 . S
H1244 C1250 0.949 . S
C1245 H1240 0.950 . S
C1245 C1247 1.327 . S
C1245 C1251 1.429 . S
C1246 C1238 1.574 . S
C1246 H1241 0.949 . S
C1246 C1252 1.368 . S
C1247 C1231 1.349 . S
C1247 H1239 0.950 . S
C1247 C1245 1.327 . S
C1248 C1236 1.349 . S
C1248 H1242 0.950 . S
C1248 C1249 1.327 . S
C1249 H1243 0.950 . S
C1249 C1248 1.327 . S
C1249 C1253 1.429 . S
C1250 C1233 1.574 . S
C1250 H1244 0.949 . S
C1250 C1254 1.368 . S
C1251 C1232 1.429 . S
C1251 C1245 1.429 . S
C1251 C1252 1.523 . S
C1252 C1233 1.368 . S
C1252 C1246 1.368 . S
C1252 C1251 1.523 . S
C1253 C1237 1.429 . S
C1253 C1249 1.429 . S
C1253 C1254 1.523 . S
C1254 C1238 1.368 . S
C1254 C1250 1.368 . S
C1254 C1253 1.523 . S
H1255 C1230 0.950 . S
H1256 C1232 0.950 . S
H1257 C1233 0.949 . S
H1258 C1235 0.950 . S
H1259 C1237 0.950 . S
C1260 C1261 1.349 . S
C1260 C1262 1.327 . S
C1260 H1285 0.950 . S
C1261 C1260 1.349 . S
C1261 C1277 1.349 . S
C1262 C1260 1.327 . S
C1262 C1281 1.429 . S
C1262 H1286 0.950 . S
C1263 C1280 1.574 . S
C1263 C1282 1.368 . S
C1263 H1287 0.949 . S
H1264 C1268 0.949 . S
C1265 C1266 1.349 . S
C1265 C1267 1.327 . S
C1265 H1288 0.950 . S
C1266 C1265 1.349 . S
C1266 C1278 1.349 . S
C1267 C1265 1.327 . S
C1267 C1283 1.429 . S
C1267 H1289 0.950 . S
C1268 H1264 0.949 . S
C1268 C1276 1.574 . S
C1268 C1284 1.368 . S
H1269 C1277 0.950 . S
H1270 C1275 0.950 . S
H1271 C1276 0.949 . S
H1272 C1278 0.950 . S
H1273 C1279 0.950 . S
H1274 C1280 0.949 . S
C1275 H1270 0.950 . S
C1275 C1277 1.327 . S
C1275 C1281 1.429 . S
C1276 C1268 1.574 . S
C1276 H1271 0.949 . S
C1276 C1282 1.368 . S
C1277 C1261 1.349 . S
C1277 H1269 0.950 . S
C1277 C1275 1.327 . S
C1278 C1266 1.349 . S
C1278 H1272 0.950 . S
C1278 C1279 1.327 . S
C1279 H1273 0.950 . S
C1279 C1278 1.327 . S
C1279 C1283 1.429 . S
C1280 C1263 1.574 . S
C1280 H1274 0.949 . S
C1280 C1284 1.368 . S
C1281 C1262 1.429 . S
C1281 C1275 1.429 . S
C1281 C1282 1.523 . S
C1282 C1263 1.368 . S
C1282 C1276 1.368 . S
C1282 C1281 1.523 . S
C1283 C1267 1.429 . S
C1283 C1279 1.429 . S
C1283 C1284 1.523 . S
C1284 C1268 1.368 . S
C1284 C1280 1.368 . S
C1284 C1283 1.523 . S
H1285 C1260 0.950 . S
H1286 C1262 0.950 . S
H1287 C1263 0.949 . S
H1288 C1265 0.950 . S
H1289 C1267 0.950 . S
C1290 C1291 1.349 . S
C1290 C1292 1.327 . S
C1290 H1315 0.950 . S
C1291 C1290 1.349 . S
C1291 C1307 1.349 . S
C1292 C1290 1.327 . S
C1292 C1311 1.429 . S
C1292 H1316 0.950 . S
C1293 C1310 1.574 . S
C1293 C1312 1.368 . S
C1293 H1317 0.949 . S
H1294 C1298 0.949 . S
C1295 C1296 1.349 . S
C1295 C1297 1.327 . S
C1295 H1318 0.950 . S
C1296 C1295 1.349 . S
C1296 C1308 1.349 . S
C1297 C1295 1.327 . S
C1297 C1313 1.429 . S
C1297 H1319 0.950 . S
C1298 H1294 0.949 . S
C1298 C1306 1.574 . S
C1298 C1314 1.368 . S
H1299 C1307 0.950 . S
H1300 C1305 0.950 . S
H1301 C1306 0.949 . S
H1302 C1308 0.950 . S
H1303 C1309 0.950 . S
H1304 C1310 0.949 . S
C1305 H1300 0.950 . S
C1305 C1307 1.327 . S
C1305 C1311 1.429 . S
C1306 C1298 1.574 . S
C1306 H1301 0.949 . S
C1306 C1312 1.368 . S
C1307 C1291 1.349 . S
C1307 H1299 0.950 . S
C1307 C1305 1.327 . S
C1308 C1296 1.349 . S
C1308 H1302 0.950 . S
C1308 C1309 1.327 . S
C1309 H1303 0.950 . S
C1309 C1308 1.327 . S
C1309 C1313 1.429 . S
C1310 C1293 1.574 . S
C1310 H1304 0.949 . S
C1310 C1314 1.368 . S
C1311 C1292 1.429 . S
C1311 C1305 1.429 . S
C1311 C1312 1.523 . S
C1312 C1293 1.368 . S
C1312 C1306 1.368 . S
C1312 C1311 1.523 . S
C1313 C1297 1.429 . S
C1313 C1309 1.429 . S
C1313 C1314 1.523 . S
C1314 C1298 1.368 . S
C1314 C1310 1.368 . S
C1314 C1313 1.523 . S
H1315 C1290 0.950 . S
H1316 C1292 0.950 . S
H1317 C1293 0.949 . S
H1318 C1295 0.950 . S
H1319 C1297 0.950 . S
C241 C8 1.134 . S
C246 C168 1.134 . S
C271 C28 1.134 . S
C276 C188 1.134 . S
C301 C48 1.134 . S
C306 C208 1.134 . S
C331 C228 1.134 . S
C336 C68 1.134 . S
C361 C88 1.134 . S
C366 C128 1.134 . S
C391 C148 1.134 . S
C396 C108 1.134 . S
C421 C201 0.541 . S
C426 C1 0.541 . S
C451 C221 0.541 . S
C456 C21 0.541 . S
C481 C41 0.541 . S
C486 C121 0.541 . S
C511 C141 0.541 . S
C516 C61 0.541 . S
C541 C161 0.541 . S
C546 C81 0.541 . S
C571 C101 0.541 . S
C576 C181 0.541 . S
C601 C159 2.058 . S
C606 C19 2.058 . S
C631 C179 2.058 . S
C636 C39 2.058 . S
C661 C199 2.058 . S
C666 C59 2.058 . S
C691 C79 2.058 . S
C696 C219 2.058 . S
C721 C99 2.058 . S
C726 C239 2.058 . S
C751 C119 2.058 . S
C756 C139 2.058 . S
C781 C9 1.429 . S
C786 C69 1.429 . S
C811 C29 1.429 . S
C816 C89 1.429 . S
C841 C49 1.429 . S
C846 C109 1.429 . S
C871 C189 1.429 . S
C876 C129 1.429 . S
C901 C149 1.429 . S
C906 C209 1.429 . S
C931 C229 1.429 . S
C936 C169 1.429 . S
C961 C142 0.891 . S
C966 C2 0.891 . S
C991 C162 0.891 . S
C996 C22 0.891 . S
C1021 C42 0.891 . S
C1026 C182 0.891 . S
C1051 C202 0.891 . S
C1056 C62 0.891 . S
C1081 C222 0.891 . S
C1086 C82 0.891 . S
C1111 C102 0.891 . S
C1116 C122 0.891 . S
C1141 C18 2.543 . S
C1146 C218 2.543 . S
C1171 C38 2.543 . S
C1176 C238 2.543 1_556 S
C1201 C58 2.543 1_554 S
C1206 C138 2.543 . S
C1231 C78 2.543 . S
C1236 C158 2.543 . S
C1261 C98 2.543 . S
C1266 C178 2.543 1_556 S
C1291 C198 2.543 . S
C1296 C118 2.543 1_554 S
