# Generated by pormake.
# Topology umn, (4)-cn, num edge types: 1
# Building blocks:
#     Node 0, Type 0, BuildingBlock: GALJAG_clean_sbu_0, # of connection points: 4
#     Node 1, Type 0, BuildingBlock: GALJAG_clean_sbu_0, # of connection points: 4
#     Node 2, Type 0, BuildingBlock: GALJAG_clean_sbu_0, # of connection points: 4
#     Node 3, Type 0, BuildingBlock: GALJAG_clean_sbu_0, # of connection points: 4
#     Node 4, Type 0, BuildingBlock: GALJAG_clean_sbu_0, # of connection points: 4
#     Node 5, Type 0, BuildingBlock: GALJAG_clean_sbu_0, # of connection points: 4
#     Node 6, Type 0, BuildingBlock: GALJAG_clean_sbu_0, # of connection points: 4
#     Node 7, Type 0, BuildingBlock: GALJAG_clean_sbu_0, # of connection points: 4
#     Node 8, Type 0, BuildingBlock: GALJAG_clean_sbu_0, # of connection points: 4
#     Node 9, Type 0, BuildingBlock: GALJAG_clean_sbu_0, # of connection points: 4
#     Node 10, Type 0, BuildingBlock: GALJAG_clean_sbu_0, # of connection points: 4
#     Node 11, Type 0, BuildingBlock: GALJAG_clean_sbu_0, # of connection points: 4
#     Node 12, Type 0, BuildingBlock: GALJAG_clean_sbu_0, # of connection points: 4
#     Node 13, Type 0, BuildingBlock: GALJAG_clean_sbu_0, # of connection points: 4
#     Node 14, Type 0, BuildingBlock: GALJAG_clean_sbu_0, # of connection points: 4
#     Node 15, Type 0, BuildingBlock: GALJAG_clean_sbu_0, # of connection points: 4
#     Node 16, Type 0, BuildingBlock: GALJAG_clean_sbu_0, # of connection points: 4
#     Node 17, Type 0, BuildingBlock: GALJAG_clean_sbu_0, # of connection points: 4
#     Node 18, Type 0, BuildingBlock: GALJAG_clean_sbu_0, # of connection points: 4
#     Node 19, Type 0, BuildingBlock: GALJAG_clean_sbu_0, # of connection points: 4
#     Node 20, Type 0, BuildingBlock: GALJAG_clean_sbu_0, # of connection points: 4
#     Node 21, Type 0, BuildingBlock: GALJAG_clean_sbu_0, # of connection points: 4
#     Node 22, Type 0, BuildingBlock: GALJAG_clean_sbu_0, # of connection points: 4
#     Node 23, Type 0, BuildingBlock: GALJAG_clean_sbu_0, # of connection points: 4
#     Node 24, Type 0, BuildingBlock: GALJAG_clean_sbu_0, # of connection points: 4
#     Node 25, Type 0, BuildingBlock: GALJAG_clean_sbu_0, # of connection points: 4
#     Node 26, Type 0, BuildingBlock: GALJAG_clean_sbu_0, # of connection points: 4
#     Node 27, Type 0, BuildingBlock: GALJAG_clean_sbu_0, # of connection points: 4
#     Node 28, Type 0, BuildingBlock: GALJAG_clean_sbu_0, # of connection points: 4
#     Node 29, Type 0, BuildingBlock: GALJAG_clean_sbu_0, # of connection points: 4
#     Node 30, Type 0, BuildingBlock: GALJAG_clean_sbu_0, # of connection points: 4
#     Node 31, Type 0, BuildingBlock: GALJAG_clean_sbu_0, # of connection points: 4
#     Node 32, Type 0, BuildingBlock: GALJAG_clean_sbu_0, # of connection points: 4
#     Node 33, Type 0, BuildingBlock: GALJAG_clean_sbu_0, # of connection points: 4
#     Node 34, Type 0, BuildingBlock: GALJAG_clean_sbu_0, # of connection points: 4
#     Node 35, Type 0, BuildingBlock: GALJAG_clean_sbu_0, # of connection points: 4
#     Edge 36, Type (0, 0), BuildingBlock: XIVTED_clean_linker_0, # of connection points: 2
#     Edge 37, Type (0, 0), BuildingBlock: XIVTED_clean_linker_0, # of connection points: 2
#     Edge 38, Type (0, 0), BuildingBlock: XIVTED_clean_linker_0, # of connection points: 2
#     Edge 39, Type (0, 0), BuildingBlock: XIVTED_clean_linker_0, # of connection points: 2
#     Edge 40, Type (0, 0), BuildingBlock: XIVTED_clean_linker_0, # of connection points: 2
#     Edge 41, Type (0, 0), BuildingBlock: XIVTED_clean_linker_0, # of connection points: 2
#     Edge 42, Type (0, 0), BuildingBlock: XIVTED_clean_linker_0, # of connection points: 2
#     Edge 43, Type (0, 0), BuildingBlock: XIVTED_clean_linker_0, # of connection points: 2
#     Edge 44, Type (0, 0), BuildingBlock: XIVTED_clean_linker_0, # of connection points: 2
#     Edge 45, Type (0, 0), BuildingBlock: XIVTED_clean_linker_0, # of connection points: 2
#     Edge 46, Type (0, 0), BuildingBlock: XIVTED_clean_linker_0, # of connection points: 2
#     Edge 47, Type (0, 0), BuildingBlock: XIVTED_clean_linker_0, # of connection points: 2
#     Edge 48, Type (0, 0), BuildingBlock: XIVTED_clean_linker_0, # of connection points: 2
#     Edge 49, Type (0, 0), BuildingBlock: XIVTED_clean_linker_0, # of connection points: 2
#     Edge 50, Type (0, 0), BuildingBlock: XIVTED_clean_linker_0, # of connection points: 2
#     Edge 51, Type (0, 0), BuildingBlock: XIVTED_clean_linker_0, # of connection points: 2
#     Edge 52, Type (0, 0), BuildingBlock: XIVTED_clean_linker_0, # of connection points: 2
#     Edge 53, Type (0, 0), BuildingBlock: XIVTED_clean_linker_0, # of connection points: 2
#     Edge 54, Type (0, 0), BuildingBlock: XIVTED_clean_linker_0, # of connection points: 2
#     Edge 55, Type (0, 0), BuildingBlock: XIVTED_clean_linker_0, # of connection points: 2
#     Edge 56, Type (0, 0), BuildingBlock: XIVTED_clean_linker_0, # of connection points: 2
#     Edge 57, Type (0, 0), BuildingBlock: XIVTED_clean_linker_0, # of connection points: 2
#     Edge 58, Type (0, 0), BuildingBlock: XIVTED_clean_linker_0, # of connection points: 2
#     Edge 59, Type (0, 0), BuildingBlock: XIVTED_clean_linker_0, # of connection points: 2
#     Edge 60, Type (0, 0), BuildingBlock: XIVTED_clean_linker_0, # of connection points: 2
#     Edge 61, Type (0, 0), BuildingBlock: XIVTED_clean_linker_0, # of connection points: 2
#     Edge 62, Type (0, 0), BuildingBlock: XIVTED_clean_linker_0, # of connection points: 2
#     Edge 63, Type (0, 0), BuildingBlock: XIVTED_clean_linker_0, # of connection points: 2
#     Edge 64, Type (0, 0), BuildingBlock: XIVTED_clean_linker_0, # of connection points: 2
#     Edge 65, Type (0, 0), BuildingBlock: XIVTED_clean_linker_0, # of connection points: 2
#     Edge 66, Type (0, 0), BuildingBlock: XIVTED_clean_linker_0, # of connection points: 2
#     Edge 67, Type (0, 0), BuildingBlock: XIVTED_clean_linker_0, # of connection points: 2
#     Edge 68, Type (0, 0), BuildingBlock: XIVTED_clean_linker_0, # of connection points: 2
#     Edge 69, Type (0, 0), BuildingBlock: XIVTED_clean_linker_0, # of connection points: 2
#     Edge 70, Type (0, 0), BuildingBlock: XIVTED_clean_linker_0, # of connection points: 2
#     Edge 71, Type (0, 0), BuildingBlock: XIVTED_clean_linker_0, # of connection points: 2
#     Edge 72, Type (0, 0), BuildingBlock: XIVTED_clean_linker_0, # of connection points: 2
#     Edge 73, Type (0, 0), BuildingBlock: XIVTED_clean_linker_0, # of connection points: 2
#     Edge 74, Type (0, 0), BuildingBlock: XIVTED_clean_linker_0, # of connection points: 2
#     Edge 75, Type (0, 0), BuildingBlock: XIVTED_clean_linker_0, # of connection points: 2
#     Edge 76, Type (0, 0), BuildingBlock: XIVTED_clean_linker_0, # of connection points: 2
#     Edge 77, Type (0, 0), BuildingBlock: XIVTED_clean_linker_0, # of connection points: 2
#     Edge 78, Type (0, 0), BuildingBlock: XIVTED_clean_linker_0, # of connection points: 2
#     Edge 79, Type (0, 0), BuildingBlock: XIVTED_clean_linker_0, # of connection points: 2
#     Edge 80, Type (0, 0), BuildingBlock: XIVTED_clean_linker_0, # of connection points: 2
#     Edge 81, Type (0, 0), BuildingBlock: XIVTED_clean_linker_0, # of connection points: 2
#     Edge 82, Type (0, 0), BuildingBlock: XIVTED_clean_linker_0, # of connection points: 2
#     Edge 83, Type (0, 0), BuildingBlock: XIVTED_clean_linker_0, # of connection points: 2
#     Edge 84, Type (0, 0), BuildingBlock: XIVTED_clean_linker_0, # of connection points: 2
#     Edge 85, Type (0, 0), BuildingBlock: XIVTED_clean_linker_0, # of connection points: 2
#     Edge 86, Type (0, 0), BuildingBlock: XIVTED_clean_linker_0, # of connection points: 2
#     Edge 87, Type (0, 0), BuildingBlock: XIVTED_clean_linker_0, # of connection points: 2
#     Edge 88, Type (0, 0), BuildingBlock: XIVTED_clean_linker_0, # of connection points: 2
#     Edge 89, Type (0, 0), BuildingBlock: XIVTED_clean_linker_0, # of connection points: 2
#     Edge 90, Type (0, 0), BuildingBlock: XIVTED_clean_linker_0, # of connection points: 2
#     Edge 91, Type (0, 0), BuildingBlock: XIVTED_clean_linker_0, # of connection points: 2
#     Edge 92, Type (0, 0), BuildingBlock: XIVTED_clean_linker_0, # of connection points: 2
#     Edge 93, Type (0, 0), BuildingBlock: XIVTED_clean_linker_0, # of connection points: 2
#     Edge 94, Type (0, 0), BuildingBlock: XIVTED_clean_linker_0, # of connection points: 2
#     Edge 95, Type (0, 0), BuildingBlock: XIVTED_clean_linker_0, # of connection points: 2
#     Edge 96, Type (0, 0), BuildingBlock: XIVTED_clean_linker_0, # of connection points: 2
#     Edge 97, Type (0, 0), BuildingBlock: XIVTED_clean_linker_0, # of connection points: 2
#     Edge 98, Type (0, 0), BuildingBlock: XIVTED_clean_linker_0, # of connection points: 2
#     Edge 99, Type (0, 0), BuildingBlock: XIVTED_clean_linker_0, # of connection points: 2
#     Edge 100, Type (0, 0), BuildingBlock: XIVTED_clean_linker_0, # of connection points: 2
#     Edge 101, Type (0, 0), BuildingBlock: XIVTED_clean_linker_0, # of connection points: 2
#     Edge 102, Type (0, 0), BuildingBlock: XIVTED_clean_linker_0, # of connection points: 2
#     Edge 103, Type (0, 0), BuildingBlock: XIVTED_clean_linker_0, # of connection points: 2
#     Edge 104, Type (0, 0), BuildingBlock: XIVTED_clean_linker_0, # of connection points: 2
#     Edge 105, Type (0, 0), BuildingBlock: XIVTED_clean_linker_0, # of connection points: 2
#     Edge 106, Type (0, 0), BuildingBlock: XIVTED_clean_linker_0, # of connection points: 2
#     Edge 107, Type (0, 0), BuildingBlock: XIVTED_clean_linker_0, # of connection points: 2
# Relax obj value: 0.191
# Max RMSD: 0.184
# Mean RMSD: 0.184
data_MOF--net-umn--node1-GALJAG_clean_sbu_0--edge1-XIVTED_clean_linker_0
_symmetry_space_group_name_H-M    P1
_symmetry_Int_Tables_number       1
_symmetry_cell_setting            triclinic
loop_
_symmetry_equiv_pos_as_xyz
'x, y, z'
_cell_length_a     84.516571
_cell_length_b     84.542657
_cell_length_c     36.604771
_cell_angle_alpha  90.001067
_cell_angle_beta   90.03556
_cell_angle_gamma 119.97256
loop_
_atom_site_label
_atom_site_type_symbol
_atom_site_fract_x
_atom_site_fract_y
_atom_site_fract_z
_atom_type_partial_charge
In0 In 0.35839 0.09605 0.23075 0.0
O1 O 0.36605 0.10367 0.29146 0.0
O2 O 0.33803 0.08995 0.27524 0.0
C3 C 0.38645 0.10388 0.18558 0.0
C4 C 0.34879 0.11974 0.2067 0.0
C5 C 0.34274 0.05978 0.22938 0.0
O6 O 0.38864 0.10529 0.22001 0.0
O7 O 0.37051 0.09915 0.17476 0.0
O8 O 0.33511 0.06795 0.21534 0.0
O9 O 0.35845 0.06998 0.24251 0.0
C10 C 0.34941 0.09663 0.30098 0.0
O11 O 0.3402 0.10302 0.19781 0.0
O12 O 0.3626 0.12457 0.22702 0.0
In13 In 0.88949 0.25839 0.22119 0.0
O14 O 0.88115 0.25853 0.28135 0.0
O15 O 0.89563 0.24475 0.26685 0.0
C16 C 0.88171 0.27767 0.17327 0.0
C17 C 0.86571 0.22477 0.19906 0.0
C18 C 0.92574 0.27918 0.22117 0.0
O19 O 0.88005 0.27901 0.20746 0.0
O20 O 0.8868 0.26651 0.16408 0.0
O21 O 0.91776 0.2634 0.20703 0.0
O22 O 0.91534 0.28462 0.23363 0.0
C23 C 0.88838 0.24922 0.29184 0.0
O24 O 0.88245 0.23258 0.19037 0.0
O25 O 0.86096 0.23422 0.21805 0.0
In26 In 0.72219 0.62428 0.2304 0.0
O27 O 0.74707 0.64346 0.19763 0.0
O28 O 0.74664 0.62059 0.22412 0.0
C29 C 0.69989 0.63791 0.23338 0.0
C30 C 0.73433 0.63514 0.29865 0.0
C31 C 0.70173 0.59581 0.18628 0.0
O32 O 0.71333 0.64431 0.21161 0.0
O33 O 0.69749 0.62438 0.25223 0.0
O34 O 0.70159 0.59375 0.22069 0.0
O35 O 0.71238 0.61179 0.17503 0.0
C36 C 0.7554 0.63485 0.20489 0.0
O37 O 0.72502 0.61822 0.29072 0.0
O38 O 0.73748 0.64591 0.27225 0.0
In39 In 0.09273 0.36021 0.2946 0.0
O40 O 0.10096 0.36768 0.23404 0.0
O41 O 0.08604 0.33968 0.25025 0.0
C42 C 0.10101 0.38807 0.34065 0.0
C43 C 0.11607 0.35008 0.31828 0.0
C44 C 0.05653 0.34533 0.29506 0.0
O45 O 0.10241 0.39051 0.30628 0.0
O46 O 0.09598 0.372 0.35094 0.0
O47 O 0.06433 0.33744 0.30958 0.0
O48 O 0.06707 0.36098 0.28198 0.0
C49 C 0.09337 0.35097 0.22458 0.0
O50 O 0.09934 0.34162 0.32716 0.0
O51 O 0.12106 0.36399 0.29824 0.0
In52 In 0.61964 0.72693 0.28777 0.0
O53 O 0.61333 0.72949 0.22747 0.0
O54 O 0.6411 0.74189 0.2455 0.0
C55 C 0.59124 0.7067 0.33217 0.0
C56 C 0.6306 0.76026 0.31307 0.0
C57 C 0.63321 0.70455 0.28519 0.0
O58 O 0.58912 0.70634 0.29775 0.0
O59 O 0.60722 0.71747 0.34328 0.0
O60 O 0.6397 0.71811 0.3067 0.0
O61 O 0.61963 0.70208 0.26641 0.0
C62 C 0.63022 0.73864 0.21923 0.0
O63 O 0.63907 0.75179 0.32022 0.0
O64 O 0.61626 0.7516 0.29397 0.0
In65 In 0.2552 0.89145 0.29076 0.0
O66 O 0.25516 0.88387 0.23002 0.0
O67 O 0.24107 0.89778 0.24627 0.0
C68 C 0.27583 0.88366 0.33496 0.0
C69 C 0.22196 0.86753 0.31465 0.0
C70 C 0.2756 0.92774 0.29305 0.0
O71 O 0.27655 0.88256 0.30046 0.0
O72 O 0.26442 0.888 0.34638 0.0
O73 O 0.2598 0.91939 0.30706 0.0
O74 O 0.28118 0.91769 0.27942 0.0
C75 C 0.24565 0.89102 0.22052 0.0
O76 O 0.23001 0.88419 0.32393 0.0
O77 O 0.23099 0.86288 0.29409 0.0
In78 In 0.62006 0.88948 0.79006 0.0
O79 O 0.61287 0.88096 0.72953 0.0
O80 O 0.64079 0.89548 0.74652 0.0
C81 C 0.5919 0.88172 0.83479 0.0
C82 C 0.6299 0.86622 0.81533 0.0
C83 C 0.63521 0.92569 0.78982 0.0
O84 O 0.5898 0.88034 0.80034 0.0
O85 O 0.60778 0.88638 0.84585 0.0
O86 O 0.64289 0.91785 0.80508 0.0
O87 O 0.61967 0.9152 0.77622 0.0
C88 C 0.62962 0.88815 0.72062 0.0
O89 O 0.63836 0.88299 0.82386 0.0
O90 O 0.61607 0.86113 0.79495 0.0
In91 In 0.09101 0.72648 0.79282 0.0
O92 O 0.09843 0.7517 0.82586 0.0
O93 O 0.11966 0.75056 0.79595 0.0
C94 C 0.05477 0.70594 0.79491 0.0
C95 C 0.09114 0.73629 0.72289 0.0
C96 C 0.09863 0.70594 0.8376 0.0
O97 O 0.06304 0.72168 0.80923 0.0
O98 O 0.06488 0.70048 0.78108 0.0
O99 O 0.09973 0.70503 0.80312 0.0
O100 O 0.0944 0.71749 0.84865 0.0
C101 C 0.11508 0.75967 0.81648 0.0
O102 O 0.0984 0.72679 0.73183 0.0
O103 O 0.08443 0.7407 0.74902 0.0
In104 In 0.25675 0.3604 0.79013 0.0
O105 O 0.25632 0.36768 0.72932 0.0
O106 O 0.24276 0.33974 0.74599 0.0
C107 C 0.27671 0.3886 0.83525 0.0
C108 C 0.22332 0.35072 0.81323 0.0
C109 C 0.27774 0.34516 0.79207 0.0
O110 O 0.27761 0.39069 0.8008 0.0
O111 O 0.26551 0.37268 0.84613 0.0
O112 O 0.26202 0.33753 0.80648 0.0
O113 O 0.28297 0.36068 0.7782 0.0
C114 C 0.24697 0.35096 0.7201 0.0
O115 O 0.2314 0.34213 0.82257 0.0
O116 O 0.23244 0.36456 0.79313 0.0
In117 In 0.88673 0.62385 0.73131 0.0
O118 O 0.87987 0.64203 0.69807 0.0
O119 O 0.85831 0.61989 0.72773 0.0
C120 C 0.92294 0.63914 0.72965 0.0
C121 C 0.88643 0.6335 0.80121 0.0
C122 C 0.8788 0.59561 0.68656 0.0
O123 O 0.91486 0.6468 0.71529 0.0
O124 O 0.91266 0.62358 0.74328 0.0
O125 O 0.87774 0.59362 0.72104 0.0
O126 O 0.88315 0.6114 0.67549 0.0
C127 C 0.86319 0.63363 0.70722 0.0
O128 O 0.87888 0.61675 0.79213 0.0
O129 O 0.89354 0.64464 0.77525 0.0
In130 In 0.36066 0.26002 0.72779 0.0
O131 O 0.36776 0.25926 0.78863 0.0
O132 O 0.33987 0.24577 0.77149 0.0
C133 C 0.38879 0.27992 0.68261 0.0
C134 C 0.35096 0.2267 0.70407 0.0
C135 C 0.3454 0.28099 0.72646 0.0
O136 O 0.39093 0.28098 0.71706 0.0
O137 O 0.37287 0.26864 0.67181 0.0
O138 O 0.33777 0.26532 0.71185 0.0
O139 O 0.36096 0.28622 0.74014 0.0
C140 C 0.351 0.24984 0.79753 0.0
O141 O 0.34247 0.23488 0.69479 0.0
O142 O 0.36474 0.23566 0.72448 0.0
In143 In 0.72228 0.09394 0.73043 0.0
O144 O 0.74783 0.10171 0.69814 0.0
O145 O 0.74633 0.12263 0.72845 0.0
C146 C 0.70179 0.05773 0.72649 0.0
C147 C 0.73154 0.09346 0.80055 0.0
C148 C 0.70209 0.10215 0.68589 0.0
O149 O 0.71765 0.06618 0.71281 0.0
O150 O 0.69618 0.06765 0.74065 0.0
O151 O 0.70098 0.10289 0.72039 0.0
O152 O 0.71362 0.09793 0.6747 0.0
C153 C 0.75565 0.11828 0.70801 0.0
O154 O 0.72222 0.10091 0.79154 0.0
O155 O 0.73603 0.08683 0.7744 0.0
In156 In 0.02926 0.4311 0.5671 0.0
O157 O 0.00902 0.43648 0.53743 0.0
O158 O 0.03165 0.45897 0.56389 0.0
C159 C 0.00471 0.39605 0.55317 0.0
C160 C 0.02735 0.42986 0.64116 0.0
C161 C 0.05926 0.43998 0.52606 0.0
O162 O 0.0001 0.40722 0.56474 0.0
O163 O 0.02153 0.40284 0.54689 0.0
O164 O 0.05884 0.4368 0.55993 0.0
O165 O 0.04518 0.4397 0.51405 0.0
C166 C 0.0171 0.45326 0.54553 0.0
O167 O 0.0285 0.41802 0.62231 0.0
O168 O 0.02948 0.44348 0.62309 0.0
In169 In 0.55461 0.59253 0.55926 0.0
O170 O 0.54799 0.56755 0.52609 0.0
O171 O 0.52637 0.56772 0.55637 0.0
C172 C 0.59083 0.61348 0.55622 0.0
C173 C 0.5547 0.58292 0.6293 0.0
C174 C 0.54582 0.61242 0.51503 0.0
O175 O 0.5826 0.59773 0.54201 0.0
O176 O 0.58068 0.61881 0.57039 0.0
O177 O 0.54524 0.61356 0.54955 0.0
O178 O 0.55017 0.60101 0.50369 0.0
C179 C 0.53137 0.55903 0.53566 0.0
O180 O 0.5469 0.59188 0.62017 0.0
O181 O 0.56188 0.57897 0.60334 0.0
In182 In 0.39144 0.95718 0.56488 0.0
O183 O 0.39145 0.94919 0.62529 0.0
O184 O 0.4077 0.97704 0.60885 0.0
C185 C 0.37032 0.92977 0.51912 0.0
C186 C 0.42414 0.96617 0.53843 0.0
C187 C 0.37156 0.97363 0.56765 0.0
O188 O 0.37019 0.92709 0.5533 0.0
O189 O 0.38126 0.94586 0.50879 0.0
O190 O 0.38697 0.98097 0.55206 0.0
O191 O 0.36601 0.95781 0.58017 0.0
C192 C 0.40235 0.96565 0.63461 0.0
O193 O 0.41622 0.97514 0.53098 0.0
O194 O 0.4152 0.95223 0.55844 0.0
In195 In 0.75865 0.69432 0.62328 0.0
O196 O 0.76679 0.70138 0.56256 0.0
O197 O 0.75255 0.67352 0.57981 0.0
C198 C 0.76659 0.72235 0.66855 0.0
C199 C 0.78198 0.68448 0.64823 0.0
C200 C 0.72247 0.67944 0.62315 0.0
O201 O 0.76812 0.72462 0.63415 0.0
O202 O 0.76167 0.70637 0.67928 0.0
O203 O 0.73022 0.67161 0.63819 0.0
O204 O 0.73305 0.69499 0.60973 0.0
C205 C 0.75963 0.68462 0.55376 0.0
O206 O 0.76522 0.676 0.6568 0.0
O207 O 0.78702 0.69831 0.6279 0.0
In208 In 0.29055 0.0608 0.62681 0.0
O209 O 0.31146 0.07387 0.58266 0.0
O210 O 0.2836 0.06133 0.56583 0.0
C211 C 0.2614 0.04051 0.6695 0.0
C212 C 0.30028 0.09428 0.64988 0.0
C213 C 0.30593 0.03999 0.63196 0.0
O214 O 0.26018 0.03953 0.63491 0.0
O215 O 0.27691 0.05206 0.68172 0.0
O216 O 0.31349 0.05597 0.64511 0.0
O217 O 0.29046 0.03447 0.6176 0.0
C218 C 0.30035 0.07004 0.55669 0.0
O219 O 0.3085 0.08596 0.66009 0.0
O220 O 0.28676 0.08539 0.62887 0.0
In221 In 0.91908 0.22814 0.62105 0.0
O222 O 0.89388 0.22095 0.65408 0.0
O223 O 0.89592 0.19928 0.62817 0.0
C224 C 0.93853 0.26433 0.61548 0.0
C225 C 0.90838 0.22503 0.55102 0.0
C226 C 0.94098 0.22336 0.66766 0.0
O227 O 0.92356 0.25652 0.63283 0.0
O228 O 0.94386 0.25388 0.60294 0.0
O229 O 0.9409 0.22018 0.63372 0.0
O230 O 0.92984 0.22837 0.67744 0.0
C231 C 0.88652 0.20402 0.64738 0.0
O232 O 0.91884 0.21909 0.56141 0.0
O233 O 0.90324 0.23171 0.57599 0.0
In234 In 0.28888 0.22464 0.11953 0.0
O235 O 0.30809 0.21873 0.15173 0.0
O236 O 0.28498 0.19641 0.1255 0.0
C237 C 0.30256 0.26057 0.11664 0.0
C238 C 0.29939 0.2234 0.051 0.0
C239 C 0.26071 0.21658 0.16451 0.0
O240 O 0.30912 0.25351 0.13804 0.0
O241 O 0.28884 0.24945 0.09818 0.0
O242 O 0.2584 0.21469 0.13013 0.0
O243 O 0.2768 0.22199 0.17527 0.0
C244 C 0.2993 0.20179 0.14455 0.0
O245 O 0.28251 0.21592 0.05919 0.0
O246 O 0.3103 0.23084 0.07731 0.0
In247 In 0.7572 0.05902 0.12566 0.0
O248 O 0.76419 0.05897 0.06458 0.0
O249 O 0.75018 0.07284 0.08172 0.0
C250 C 0.76544 0.03896 0.17043 0.0
C251 C 0.78148 0.09241 0.1481 0.0
C252 C 0.72097 0.0383 0.12866 0.0
O253 O 0.76648 0.03802 0.13594 0.0
O254 O 0.76087 0.05025 0.18151 0.0
O255 O 0.72924 0.05417 0.14243 0.0
O256 O 0.73108 0.0328 0.11498 0.0
C257 C 0.75679 0.06833 0.05558 0.0
O258 O 0.76492 0.08455 0.15801 0.0
O259 O 0.78585 0.0831 0.12768 0.0
In260 In 0.9209 0.69375 0.12602 0.0
O261 O 0.89589 0.67574 0.15941 0.0
O262 O 0.89641 0.69772 0.12921 0.0
C263 C 0.94165 0.67826 0.12879 0.0
C264 C 0.91117 0.68398 0.05604 0.0
C265 C 0.94142 0.72222 0.17015 0.0
O266 O 0.92586 0.67073 0.1428 0.0
O267 O 0.94707 0.6938 0.11485 0.0
O268 O 0.94221 0.72401 0.13563 0.0
O269 O 0.92996 0.70651 0.18157 0.0
C270 C 0.88758 0.68407 0.14995 0.0
O271 O 0.92031 0.70075 0.06506 0.0
O272 O 0.90709 0.67288 0.0821 0.0
In273 In 0.55301 0.95823 0.06165 0.0
O274 O 0.54468 0.95081 0.12215 0.0
O275 O 0.55878 0.97877 0.10556 0.0
C276 C 0.54521 0.93004 0.0169 0.0
C277 C 0.52959 0.96793 0.0365 0.0
C278 C 0.58928 0.97369 0.06173 0.0
O279 O 0.54385 0.92797 0.05134 0.0
O280 O 0.54992 0.94593 1.00584 0.0
O281 O 0.58129 0.98126 0.04658 0.0
O282 O 0.5789 0.95812 0.07523 0.0
C283 C 0.55169 0.9675 0.13134 0.0
O284 O 0.54635 0.97645 0.02797 0.0
O285 O 0.52459 0.95413 0.0569 0.0
In286 In 0.02096 0.58953 0.06295 0.0
O287 O 0.00253 0.56522 0.02812 0.0
O288 O 0.02463 0.565 0.05647 0.0
C289 C 0.00571 0.61053 0.06324 0.0
C290 C 0.01179 0.57873 0.13268 0.0
C291 C 0.04935 0.6102 0.01876 0.0
O292 O -0.00199 0.59497 0.04821 0.0
O293 O 0.02129 0.61563 0.07663 0.0
O294 O 0.0513 0.61072 0.05323 0.0
O295 O 0.03351 0.59907 1.00742 0.0
C296 C 0.01089 0.5567 0.03568 0.0
O297 O 0.02846 0.58808 0.12322 0.0
O298 O 0.00046 0.5749 0.10712 0.0
In299 In 0.39091 0.43033 0.06547 0.0
O300 O 0.39375 0.43972 0.12545 0.0
O301 O 0.40694 0.42509 0.10744 0.0
C302 C 0.36984 0.43742 0.02111 0.0
C303 C 0.42381 0.45311 0.03879 0.0
C304 C 0.36922 0.39435 0.06992 0.0
O305 O 0.36984 0.43966 0.05544 0.0
O306 O 0.38063 0.43221 0.01005 0.0
O307 O 0.38247 0.4014 0.0477 0.0
O308 O 0.3667 0.40547 0.08852 0.0
C309 C 0.40356 0.43267 0.1336 0.0
O310 O 0.41573 0.43609 0.03246 0.0
O311 O 0.41495 0.45861 0.05774 0.0
In312 In 0.69163 0.76227 0.89623 0.0
O313 O 0.67345 0.76908 0.86284 0.0
O314 O 0.69558 0.79067 0.89256 0.0
C315 C 0.67608 0.72602 0.89417 0.0
C316 C 0.68192 0.7629 0.96593 0.0
C317 C 0.72006 0.77032 0.85194 0.0
O318 O 0.6687 0.73427 0.8794 0.0
O319 O 0.69152 0.73615 0.90852 0.0
O320 O 0.72186 0.77106 0.88646 0.0
O321 O 0.70436 0.76621 0.84064 0.0
C322 C 0.68182 0.78575 0.87203 0.0
O323 O 0.69868 0.77034 0.95702 0.0
O324 O 0.67081 0.75565 0.93993 0.0
In325 In 0.22149 0.92537 0.8943 0.0
O326 O 0.21439 0.90009 0.86153 0.0
O327 O 0.19312 0.90086 0.89195 0.0
C328 C 0.25764 0.94648 0.89045 0.0
C329 C 0.22198 0.91618 0.96444 0.0
C330 C 0.21291 0.94555 0.85059 0.0
O331 O 0.24948 0.9306 0.87678 0.0
O332 O 0.24746 0.95176 0.9046 0.0
O333 O 0.21222 0.94645 0.88514 0.0
O334 O 0.21717 0.93412 0.83891 0.0
C335 C 0.19781 0.89186 0.87139 0.0
O336 O 0.22921 0.91225 0.93854 0.0
O337 O 0.21397 0.92491 0.95518 0.0
In338 In 0.05983 0.29781 0.89678 0.0
O339 O 0.08463 0.31538 0.86248 0.0
O340 O 0.08287 0.29193 0.88902 0.0
C341 C 0.04093 0.31511 0.90298 0.0
C342 C 0.07157 0.30599 0.96612 0.0
C343 C 0.03732 0.27091 0.85124 0.0
O344 O 0.05556 0.32179 0.88456 0.0
O345 O 0.0356 0.29947 0.91626 0.0
O346 O 0.03756 0.26805 0.88526 0.0
O347 O 0.04859 0.2869 0.84089 0.0
C348 C 0.09207 0.30589 0.86922 0.0
O349 O 0.06072 0.28954 0.95659 0.0
O350 O 0.07653 0.31754 0.94066 0.0
In351 In 0.42519 0.02924 0.95601 0.0
O352 O 0.43328 0.03524 0.89506 0.0
O353 O 0.41693 0.00769 0.91335 0.0
C354 C 0.43352 0.05782 0.99993 0.0
C355 C 0.44863 0.0193 0.97972 0.0
C356 C 0.3891 0.01462 0.95763 0.0
O357 O 0.43444 0.05958 0.96539 0.0
O358 O 0.42911 0.04207 0.01143 0.0
O359 O 0.39697 0.00699 0.97304 0.0
O360 O 0.39955 0.02993 0.94312 0.0
C361 C 0.42468 0.01833 0.88691 0.0
O362 O 0.43204 0.01113 0.98955 0.0
O363 O 0.45347 0.03291 0.95885 0.0
In364 In 0.95116 0.39204 0.94504 0.0
O365 O 0.97095 0.41765 0.97523 0.0
O366 O 0.94835 0.4173 0.94821 0.0
C367 C 0.97618 0.38239 0.96097 0.0
C368 C 0.95344 0.39272 0.87104 0.0
C369 C 0.9209 0.3701 0.98472 0.0
O370 O 0.95946 0.37242 0.96817 0.0
O371 O 0.98046 0.39771 0.94736 0.0
O372 O 0.9342 0.38458 0.99679 0.0
O373 O 0.92217 0.36708 0.9513 0.0
C374 C 0.96272 0.42619 0.96704 0.0
O375 O 0.95324 0.38026 0.89019 0.0
O376 O 0.9502 0.40358 0.88873 0.0
In377 In 0.58904 0.55765 0.95453 0.0
O378 O 0.5886 0.54996 0.89368 0.0
O379 O 0.57515 0.56446 0.91038 0.0
C380 C 0.60898 0.54947 0.99986 0.0
C381 C 0.55561 0.5342 0.97809 0.0
C382 C 0.61015 0.59384 0.95638 0.0
O383 O 0.60989 0.54819 0.96543 0.0
O384 O 0.59776 0.5542 0.0106 0.0
O385 O 0.59438 0.58584 0.97054 0.0
O386 O 0.61538 0.58349 0.9428 0.0
C387 C 0.57936 0.55747 0.88446 0.0
O388 O 0.56386 0.55089 0.98716 0.0
O389 O 0.56453 0.52926 0.95791 0.0
In390 In 0.95486 0.55614 0.45885 0.0
O391 O 0.97359 0.55042 0.49307 0.0
O392 O 0.95145 0.52803 0.46502 0.0
C393 C 0.96995 0.59235 0.45785 0.0
C394 C 0.96375 0.55442 0.38897 0.0
C395 C 0.9268 0.54849 0.50397 0.0
O396 O 0.97781 0.58462 0.47279 0.0
O397 O 0.95427 0.58176 0.44499 0.0
O398 O 0.92456 0.54685 0.46958 0.0
O399 O 0.94277 0.55335 0.51479 0.0
C400 C 0.96534 0.53356 0.48541 0.0
O401 O 0.94711 0.54714 0.39865 0.0
O402 O 0.97517 0.56192 0.41439 0.0
In403 In 0.42767 0.39354 0.45391 0.0
O404 O 0.43291 0.41826 0.48676 0.0
O405 O 0.45563 0.41813 0.46083 0.0
C406 C 0.39173 0.37116 0.4505 0.0
C407 C 0.42945 0.40591 0.38573 0.0
C408 C 0.43595 0.37331 0.49814 0.0
O409 O 0.39871 0.38452 0.47249 0.0
O410 O 0.40292 0.36887 0.43162 0.0
O411 O 0.43765 0.37296 0.46371 0.0
O412 O 0.43066 0.38401 0.50933 0.0
C413 C 0.44989 0.42674 0.47991 0.0
O414 O 0.43702 0.39659 0.39387 0.0
O415 O 0.42157 0.40891 0.41187 0.0
In416 In 0.58948 0.02825 0.45407 0.0
O417 O 0.56444 0.00867 0.48597 0.0
O418 O 0.56498 0.03182 0.46053 0.0
C419 C 0.61195 0.01481 0.45063 0.0
C420 C 0.5776 0.01796 0.38554 0.0
C421 C 0.60965 0.05642 0.49903 0.0
O422 O 0.59845 0.00822 0.47229 0.0
O423 O 0.61431 0.02842 0.43212 0.0
O424 O 0.6099 0.05873 0.46469 0.0
O425 O 0.59904 0.04034 0.50981 0.0
C426 C 0.55612 0.01733 0.47907 0.0
O427 O 0.58681 0.0348 0.39403 0.0
O428 O 0.57445 0.00696 0.41154 0.0
In429 In 0.22245 0.29067 0.39629 0.0
O430 O 0.21379 0.28396 0.45659 0.0
O431 O 0.2289 0.31184 0.43923 0.0
C432 C 0.21418 0.2626 0.35081 0.0
C433 C 0.19969 0.30144 0.37233 0.0
C434 C 0.25841 0.30431 0.39852 0.0
O435 O 0.21246 0.26023 0.38518 0.0
O436 O 0.21949 0.27869 0.34029 0.0
O437 O 0.25126 0.31093 0.37751 0.0
O438 O 0.24736 0.29056 0.41693 0.0
C439 C 0.2214 0.30079 0.46527 0.0
O440 O 0.21659 0.31012 0.36489 0.0
O441 O 0.19428 0.28702 0.39103 0.0
In442 In 0.69203 0.92526 0.39947 0.0
O443 O 0.69825 0.92223 0.45954 0.0
O444 O 0.6705 0.90992 0.44138 0.0
C445 C 0.72046 0.9458 0.35541 0.0
C446 C 0.6812 0.89214 0.37312 0.0
C447 C 0.6786 0.94773 0.40332 0.0
O448 O 0.72258 0.94579 0.38978 0.0
O449 O 0.70445 0.93524 0.34416 0.0
O450 O 0.67209 0.93437 0.3813 0.0
O451 O 0.69212 0.94995 0.422 0.0
C452 C 0.68135 0.91298 0.46763 0.0
O453 O 0.67266 0.90059 0.36642 0.0
O454 O 0.69553 0.90073 0.39229 0.0
In455 In 0.05693 0.76027 0.39626 0.0
O456 O 0.05744 0.76749 0.45742 0.0
O457 O 0.07072 0.75296 0.43986 0.0
C458 C 0.03635 0.76848 0.35281 0.0
C459 C 0.09022 0.78426 0.37279 0.0
C460 C 0.03628 0.72407 0.3924 0.0
O461 O 0.03555 0.76922 0.38738 0.0
O462 O 0.04783 0.76433 0.34101 0.0
O463 O 0.05207 0.73247 0.37837 0.0
O464 O 0.03083 0.73404 0.40692 0.0
C465 C 0.0666 0.75984 0.46614 0.0
O466 O 0.0821 0.76769 0.36294 0.0
O467 O 0.08122 0.78881 0.3937 0.0
H468 H 0.26281 0.95162 0.29766 0.0
H469 H 0.35787 0.03885 0.24578 0.0
H470 H 0.31156 0.94881 0.27626 0.0
H471 H 0.30604 0.03591 0.227 0.0
H472 H 0.34169 0.00669 0.26357 0.0
H473 H 0.27929 0.98396 0.28043 0.0
C474 C 0.27706 0.95791 0.28994 0.0
C475 C 0.28589 0.94763 0.28829 0.0
C476 C 0.33387 0.01305 0.25524 0.0
C477 C 0.30463 0.9843 0.2683 0.0
C478 C 0.34307 0.03134 0.24497 0.0
C479 C 0.33323 0.03994 0.23484 0.0
C480 C 0.31472 0.00343 0.25595 0.0
C481 C 0.3141 0.02968 0.23438 0.0
C482 C 0.28637 0.97625 0.27973 0.0
C483 C 0.30428 0.9563 0.27777 0.0
N484 N 0.30542 0.01195 0.2452 0.0
N485 N 0.31307 0.97417 0.26814 0.0
H486 H 0.03614 0.3609 0.27701 0.0
H487 H 0.9498 0.26658 0.21859 0.0
H488 H 0.03226 0.30877 0.29692 0.0
H489 H 0.94638 0.315 0.23991 0.0
H490 H 0.9817 0.28287 0.23875 0.0
H491 H 0.00425 0.34505 0.25705 0.0
C492 C 0.02847 0.34611 0.27765 0.0
C493 C 0.03674 0.33608 0.28867 0.0
C494 C 0.97396 0.28993 0.2388 0.0
C495 C 0.00059 0.31796 0.26504 0.0
C496 C 0.95587 0.28073 0.22692 0.0
C497 C 0.94552 0.28951 0.22766 0.0
C498 C 0.98173 0.30804 0.25101 0.0
C499 C 0.95394 0.30777 0.23902 0.0
C500 C 0.01034 0.3371 0.26614 0.0
C501 C 0.0263 0.31697 0.28886 0.0
N502 N 0.97159 0.31646 0.25029 0.0
N503 N 0.00877 0.30849 0.27677 0.0
H504 H 0.69315 0.6588 0.18579 0.0
H505 H 0.65437 0.69813 0.33268 0.0
H506 H 0.68212 0.63712 0.29542 0.0
H507 H 0.63211 0.68642 0.22348 0.0
H508 H 0.66999 0.68078 0.31967 0.0
H509 H 0.67579 0.67439 0.19889 0.0
C510 C 0.68702 0.6573 0.21247 0.0
C511 C 0.68888 0.64664 0.23952 0.0
C512 C 0.66157 0.68199 0.29877 0.0
C513 C 0.66969 0.66462 0.2548 0.0
C514 C 0.65274 0.69185 0.30612 0.0
C515 C 0.64192 0.69352 0.27916 0.0
C516 C 0.65993 0.67435 0.26396 0.0
C517 C 0.64023 0.68524 0.24507 0.0
C518 C 0.67715 0.66611 0.21987 0.0
C519 C 0.68079 0.64511 0.27376 0.0
N520 N 0.64935 0.67616 0.23822 0.0
N521 N 0.6717 0.65421 0.28064 0.0
H522 H 0.61976 0.94607 0.771 0.0
H523 H 0.71467 0.03396 0.72145 0.0
H524 H 0.67176 0.94999 0.79327 0.0
H525 H 0.66569 0.03645 0.74208 0.0
H526 H 0.69822 0.00155 0.73804 0.0
H527 H 0.63572 0.97818 0.75273 0.0
C528 C 0.63454 0.95378 0.77244 0.0
C529 C 0.6445 0.94548 0.78375 0.0
C530 C 0.69108 0.0092 0.73868 0.0
C531 C 0.66277 0.9819 0.76209 0.0
C532 C 0.70037 0.02759 0.72883 0.0
C533 C 0.69148 0.0378 0.73051 0.0
C534 C 0.67277 0.00104 0.74976 0.0
C535 C 0.67302 0.029 0.74057 0.0
C536 C 0.64361 0.97204 0.7619 0.0
C537 C 0.6636 0.95598 0.78499 0.0
N538 N 0.66424 0.01108 0.74987 0.0
N539 N 0.67217 0.97367 0.77389 0.0
H540 H 0.03083 0.71863 0.79957 0.0
H541 H 0.94369 0.62384 0.74632 0.0
H542 H 0.03381 0.67003 0.77758 0.0
H543 H 0.94698 0.67575 0.72689 0.0
H544 H 0.97583 0.63991 0.76445 0.0
H545 H -0.00144 0.70219 0.78176 0.0
C546 C 0.02459 0.70442 0.79161 0.0
C547 C 0.0349 0.69562 0.78995 0.0
C548 C 0.96955 0.64776 0.75588 0.0
C549 C -0.00169 0.67694 0.76929 0.0
C550 C 0.95128 0.63863 0.74542 0.0
C551 C 0.94278 0.64854 0.73505 0.0
C552 C 0.97923 0.66691 0.75657 0.0
C553 C 0.95313 0.66765 0.73446 0.0
C554 C 0.00629 0.69514 0.78105 0.0
C555 C 0.02629 0.67728 0.77911 0.0
N556 N 0.97083 0.67626 0.74551 0.0
N557 N 0.00845 0.66851 0.76915 0.0
H558 H 0.36057 0.31693 0.74403 0.0
H559 H 0.26547 0.30864 0.79696 0.0
H560 H 0.30878 0.26839 0.72328 0.0
H561 H 0.31367 0.36042 0.7744 0.0
H562 H 0.28218 0.29308 0.77919 0.0
H563 H 0.34434 0.33286 0.76227 0.0
C564 C 0.34578 0.30972 0.74287 0.0
C565 C 0.33595 0.29138 0.73208 0.0
C566 C 0.28909 0.30785 0.77836 0.0
C567 C 0.3174 0.30927 0.75372 0.0
C568 C 0.27966 0.31672 0.78888 0.0
C569 C 0.28826 0.3358 0.78705 0.0
C570 C 0.30725 0.3182 0.76646 0.0
C571 C 0.30657 0.34567 0.77606 0.0
C572 C 0.33656 0.31877 0.75339 0.0
C573 C 0.31683 0.28259 0.73118 0.0
N574 N 0.3155 0.33674 0.76615 0.0
N575 N 0.30813 0.29158 0.7423 0.0
H576 H 0.97007 0.37744 0.58081 0.0
H577 H 0.97051 0.28329 0.5788 0.0
H578 H 0.01151 0.36965 0.52881 0.0
H579 H 0.92797 0.28953 0.63012 0.0
H580 H 0.9848 0.31472 0.55785 0.0
H581 H 0.9528 0.34475 0.59441 0.0
C582 C 0.97532 0.36877 0.57153 0.0
C583 C -0.00769 0.37622 0.55401 0.0
C584 C 0.97235 0.30928 0.57373 0.0
C585 C 0.9729 0.33907 0.57005 0.0
C586 C 0.96426 0.29136 0.58595 0.0
C587 C 0.94809 0.28386 0.60636 0.0
C588 C 0.96426 0.31984 0.58202 0.0
C589 C 0.94052 0.29488 0.61465 0.0
C590 C 0.96555 0.35017 0.57959 0.0
C591 C -0.00147 0.36446 0.54265 0.0
N592 N 0.94869 0.31238 0.60241 0.0
N593 N 0.98891 0.34648 0.55124 0.0
H594 H 0.61481 0.60091 0.55054 0.0
H595 H 0.70223 0.69515 0.60507 0.0
H596 H 0.61182 0.64938 0.57407 0.0
H597 H 0.69806 0.64293 0.62553 0.0
H598 H 0.67017 0.67941 0.58616 0.0
H599 H 0.64707 0.61724 0.56831 0.0
C600 C 0.62104 0.61508 0.55881 0.0
C601 C 0.61072 0.62385 0.56095 0.0
C602 C 0.67625 0.67142 0.5951 0.0
C603 C 0.64732 0.64242 0.58155 0.0
C604 C 0.69447 0.68037 0.606 0.0
C605 C 0.70269 0.67027 0.61695 0.0
C606 C 0.66636 0.65228 0.59453 0.0
C607 C 0.69213 0.65118 0.61753 0.0
C608 C 0.63934 0.62429 0.56933 0.0
C609 C 0.61935 0.64215 0.57216 0.0
N610 N 0.67451 0.64275 0.60605 0.0
N611 N 0.6372 0.65086 0.58209 0.0
H612 H 0.2906 0.00358 0.61963 0.0
H613 H 0.38462 0.01037 0.56409 0.0
H614 H 0.34259 0.05265 0.63507 0.0
H615 H 0.3362 0.95914 0.58895 0.0
H616 H 0.36873 0.02651 0.58357 0.0
H617 H 0.30658 0.98713 0.6039 0.0
C618 C 0.30539 0.0108 0.62022 0.0
C619 C 0.31534 0.02945 0.62861 0.0
C620 C 0.36161 0.01174 0.58465 0.0
C621 C 0.33364 0.01092 0.6098 0.0
C622 C 0.37057 0.00254 0.57316 0.0
C623 C 0.36164 0.98344 0.57486 0.0
C624 C 0.34357 0.0017 0.5974 0.0
C625 C 0.34353 0.9739 0.58722 0.0
C626 C 0.31449 0.00144 0.61114 0.0
C627 C 0.33446 0.03822 0.62893 0.0
N628 N 0.33506 0.98314 0.59796 0.0
N629 N 0.34304 0.02892 0.61914 0.0
H630 H 0.35202 0.37756 0.13257 0.0
H631 H 0.30117 0.27751 0.05499 0.0
H632 H 0.36228 0.36657 0.02261 0.0
H633 H 0.32395 0.28824 0.16375 0.0
H634 H 0.31722 0.31039 0.04298 0.0
H635 H 0.33525 0.34468 0.14481 0.0
C636 C 0.35056 0.36819 0.11092 0.0
C637 C 0.35844 0.37464 0.07651 0.0
C638 C 0.3186 0.30549 0.06947 0.0
C639 C 0.33925 0.33735 0.09024 0.0
C640 C 0.30939 0.28683 0.07646 0.0
C641 C 0.31128 0.28029 0.11044 0.0
C642 C 0.32935 0.31761 0.09697 0.0
C643 C 0.32223 0.29284 0.13723 0.0
C644 C 0.34115 0.34954 0.11804 0.0
C645 C 0.35638 0.36203 0.04948 0.0
N646 N 0.33078 0.31102 0.13002 0.0
N647 N 0.34678 0.34386 0.05682 0.0
H648 H 0.61349 0.01024 0.05685 0.0
H649 H 0.69991 0.00209 0.11394 0.0
H650 H 0.60983 0.95861 0.08178 0.0
H651 H 0.69714 0.05118 0.13064 0.0
H652 H 0.66771 0.98606 0.09617 0.0
H653 H 0.6456 0.02594 0.07577 0.0
C654 C 0.61954 0.00222 0.06574 0.0
C655 C 0.60909 0.98314 0.06781 0.0
C656 C 0.67411 0.00029 0.1041 0.0
C657 C 0.64551 0.00091 0.08971 0.0
C658 C 0.69241 0.0094 0.11435 0.0
C659 C 0.70109 0.02793 0.1238 0.0
C660 C 0.66457 0.0099 0.10266 0.0
C661 C 0.69086 0.03684 0.12378 0.0
C662 C 0.63775 0.01117 0.07691 0.0
C663 C 0.61747 0.97336 0.07986 0.0
N664 N 0.67313 0.02777 0.11289 0.0
N665 N 0.63523 0.98237 0.09036 0.0
H666 H 0.97779 0.69331 0.11331 0.0
H667 H 0.96922 0.59845 0.05827 0.0
H668 H 0.92881 0.64162 0.13183 0.0
H669 H 0.02104 0.6462 0.08306 0.0
H670 H 0.95371 0.61509 0.0768 0.0
H671 H -0.00625 0.67701 0.09593 0.0
C672 C 0.97049 0.67852 0.11419 0.0
C673 C 0.95201 0.66874 0.12403 0.0
C674 C 0.96848 0.62191 0.07801 0.0
C675 C 0.96995 0.65011 0.10336 0.0
C676 C 0.97732 0.61252 0.06707 0.0
C677 C -0.00361 0.62102 0.06921 0.0
C678 C 0.97885 0.63994 0.09065 0.0
C679 C 0.00628 0.63919 0.0811 0.0
C680 C 0.97956 0.66925 0.10417 0.0
C681 C 0.94311 0.64962 0.12463 0.0
N682 N -0.00262 0.64808 0.09138 0.0
N683 N 0.95213 0.64088 0.11396 0.0
H684 H 0.6463 0.61442 0.94038 0.0
H685 H 0.63956 0.70208 0.88764 0.0
H686 H 0.59782 0.61808 0.95922 0.0
H687 H 0.69086 0.70501 0.91284 0.0
H688 H 0.62355 0.66972 0.90465 0.0
H689 H 0.66269 0.64669 0.92315 0.0
C690 C 0.6392 0.62211 0.94132 0.0
C691 C 0.62074 0.61369 0.95129 0.0
C692 C 0.63832 0.67747 0.90624 0.0
C693 C 0.63917 0.65027 0.9308 0.0
C694 C 0.64745 0.69582 0.89616 0.0
C695 C 0.66651 0.70613 0.89893 0.0
C696 C 0.6484 0.66943 0.91863 0.0
C697 C 0.67612 0.69748 0.91044 0.0
C698 C 0.64851 0.64046 0.93139 0.0
C699 C 0.6121 0.62416 0.95195 0.0
N700 N 0.66694 0.67958 0.91989 0.0
N701 N 0.62136 0.64192 0.9414 0.0
H702 H 0.36859 0.02978 0.93765 0.0
H703 H 0.28195 0.93424 0.88642 0.0
H704 H 0.36494 0.97812 0.96209 0.0
H705 H 0.27831 0.9827 0.90556 0.0
H706 H 0.31422 0.95119 0.90413 0.0
H707 H 0.33662 0.01349 0.91818 0.0
C708 C 0.36095 0.01502 0.93939 0.0
C709 C 0.3693 0.00523 0.95159 0.0
C710 C 0.30634 0.9581 0.90417 0.0
C711 C 0.33309 0.9866 0.9285 0.0
C712 C 0.28805 0.94853 0.89367 0.0
C713 C 0.27755 0.95713 0.8947 0.0
C714 C 0.31412 0.97639 0.91524 0.0
C715 C 0.28599 0.9756 0.90459 0.0
C716 C 0.34279 0.00575 0.92814 0.0
C717 C 0.35891 0.98614 0.95314 0.0
N718 N 0.30383 0.98464 0.91457 0.0
N719 N 0.34134 0.9774 0.9413 0.0
H720 H 0.01015 0.30344 0.9433 0.0
H721 H 0.01041 0.39774 0.93152 0.0
H722 H 0.05133 0.35049 0.88516 0.0
H723 H 0.97016 0.35024 0.98994 0.0
H724 H 0.02762 0.38208 0.91969 0.0
H725 H -0.00341 0.32134 0.96383 0.0
C726 C 0.01625 0.31753 0.93459 0.0
C727 C 0.03181 0.32549 0.91231 0.0
C728 C 0.01517 0.3752 0.93556 0.0
C729 C 0.01647 0.34617 0.93612 0.0
C730 C 0.00543 0.38419 0.9426 0.0
C731 C 0.98875 0.37514 0.96134 0.0
C732 C 0.00808 0.3571 0.94734 0.0
C733 C 0.98288 0.35761 0.97505 0.0
C734 C 0.00858 0.3278 0.94657 0.0
C735 C 0.03923 0.34383 0.90209 0.0
N736 N -0.00756 0.34907 0.96738 0.0
N737 N 0.03146 0.35359 0.91408 0.0
H738 H 0.04901 0.7002 0.38667 0.0
H739 H 0.95437 0.61262 0.43905 0.0
H740 H 0.00025 0.70291 0.40869 0.0
H741 H 0.00651 0.61664 0.46006 0.0
H742 H 0.97022 0.64462 0.41996 0.0
H743 H 0.03257 0.66783 0.40352 0.0
C744 C 0.03475 0.69388 0.39439 0.0
C745 C 0.02593 0.70415 0.39643 0.0
C746 C 0.97816 0.63852 0.42904 0.0
C747 C 0.00724 0.66744 0.41597 0.0
C748 C 0.96915 0.62033 0.44003 0.0
C749 C 0.97919 0.61209 0.45124 0.0
C750 C -0.00269 0.64837 0.42866 0.0
C751 C -0.0017 0.62259 0.45188 0.0
C752 C 0.02548 0.67552 0.40439 0.0
C753 C 0.00753 0.69542 0.40692 0.0
N754 N 0.00679 0.6402 0.44035 0.0
N755 N -0.00124 0.67752 0.41637 0.0
H756 H 0.28592 0.32588 0.35131 0.0
H757 H 0.36407 0.36407 0.49818 0.0
H758 H 0.27555 0.30287 0.45981 0.0
H759 H 0.37482 0.35369 0.38813 0.0
H760 H 0.33112 0.34666 0.48497 0.0
H761 H 0.3189 0.34153 0.36429 0.0
C762 C 0.29062 0.32409 0.37771 0.0
C763 C 0.27816 0.31305 0.40448 0.0
C764 C 0.34079 0.34818 0.46392 0.0
C765 C 0.31535 0.33109 0.41965 0.0
C766 C 0.35946 0.35807 0.47137 0.0
C767 C 0.37201 0.36013 0.44424 0.0
C768 C 0.33485 0.34089 0.42885 0.0
C769 C 0.36548 0.35221 0.40985 0.0
C770 C 0.30931 0.33294 0.38504 0.0
C771 C 0.28481 0.31116 0.43836 0.0
N772 N 0.34729 0.34309 0.40292 0.0
N773 N 0.303 0.3203 0.44521 0.0
H774 H 0.67973 0.9655 0.46564 0.0
H775 H 0.63012 0.01623 0.38873 0.0
H776 H 0.65788 0.9549 0.3561 0.0
H777 H 0.61869 -0.00627 0.49768 0.0
H778 H 0.6471 0.00033 0.37647 0.0
H779 H 0.66395 0.9826 0.47796 0.0
C780 C 0.67177 0.96697 0.44407 0.0
C781 C 0.67005 0.95887 0.40978 0.0
C782 C 0.64092 -0.00102 0.40305 0.0
C783 C 0.65232 0.97844 0.42361 0.0
C784 C 0.63139 0.00811 0.41019 0.0
C785 C 0.62307 0.00623 0.44429 0.0
C786 C 0.6425 0.98835 0.43053 0.0
C787 C 0.62491 -0.00457 0.47106 0.0
C788 C 0.66272 0.97658 0.45124 0.0
C789 C 0.65946 0.96097 0.38288 0.0
N790 N 0.63461 0.98695 0.46371 0.0
N791 N 0.65106 0.97073 0.39027 0.0
H792 H 0.28046 0.06319 0.49299 0.0
H793 H 0.36956 0.10622 0.36476 0.0
H794 H 0.33566 0.08874 0.53414 0.0
H795 H 0.31448 0.08325 0.32403 0.0
H796 H 0.35754 0.10097 0.42738 0.0
H797 H 0.29269 0.07128 0.4307 0.0
C798 C 0.29511 0.07055 0.48894 0.0
C799 C 0.30703 0.07523 0.51876 0.0
C800 C 0.34811 0.09719 0.40468 0.0
C801 C 0.32115 0.08449 0.44779 0.0
C802 C 0.355 0.10023 0.36899 0.0
C803 C 0.34303 0.09511 0.33916 0.0
C804 C 0.32913 0.08892 0.41046 0.0
C805 C 0.32424 0.08735 0.34619 0.0
C806 C 0.30211 0.07517 0.45343 0.0
C807 C 0.32593 0.08479 0.51196 0.0
N808 N 0.31788 0.08442 0.381 0.0
N809 N 0.33239 0.08903 0.47728 0.0
H810 H 0.91966 0.21508 0.48877 0.0
H811 H 0.87513 0.25718 0.35401 0.0
H812 H 0.88605 0.23708 0.52554 0.0
H813 H 0.90368 0.22973 0.31712 0.0
H814 H 0.87839 0.24943 0.41723 0.0
H815 H 0.91326 0.21958 0.42537 0.0
C816 C 0.9108 0.22066 0.48351 0.0
C817 C 0.90345 0.22576 0.51246 0.0
C818 C 0.88385 0.24503 0.39521 0.0
C819 C 0.89622 0.23116 0.44019 0.0
C820 C 0.88198 0.24947 0.35917 0.0
C821 C 0.88919 0.24417 0.33027 0.0
C822 C 0.89306 0.23531 0.40229 0.0
C823 C 0.89795 0.23417 0.33852 0.0
C824 C 0.90718 0.22329 0.44736 0.0
C825 C 0.89209 0.233 0.50408 0.0
N826 N 0.89971 0.23016 0.37366 0.0
N827 N 0.88893 0.23559 0.46882 0.0
H828 H 0.74688 0.64951 0.53279 0.0
H829 H 0.75493 0.67073 0.31882 0.0
H830 H 0.76958 0.70393 0.48884 0.0
H831 H 0.7275 0.61623 0.36359 0.0
H832 H 0.76307 0.68316 0.38039 0.0
H833 H 0.7425 0.6374 0.47104 0.0
C834 C 0.75107 0.65897 0.51009 0.0
C835 C 0.75853 0.6778 0.51603 0.0
C836 C 0.75536 0.66849 0.37684 0.0
C837 C 0.75344 0.66388 0.44486 0.0
C838 C 0.75071 0.66133 0.34164 0.0
C839 C 0.74041 0.64236 0.33602 0.0
C840 C 0.74971 0.65664 0.40688 0.0
C841 C 0.73541 0.63091 0.36665 0.0
C842 C 0.74852 0.65199 0.47476 0.0
C843 C 0.76376 0.68934 0.48551 0.0
N844 N 0.74004 0.63824 0.4008 0.0
N845 N 0.76102 0.68218 0.45119 0.0
H846 H 0.07756 0.31577 0.20161 0.0
H847 H 0.09546 0.34036 0.98943 0.0
H848 H 0.10634 0.37107 0.16097 0.0
H849 H 0.06024 0.28575 0.0297 0.0
H850 H 0.1024 0.35145 0.05208 0.0
H851 H 0.0739 0.30444 0.13931 0.0
C852 C 0.08321 0.32559 0.17954 0.0
C853 C 0.09222 0.34446 0.18657 0.0
C854 C 0.09325 0.33703 0.04732 0.0
C855 C 0.08801 0.33143 0.11478 0.0
C856 C 0.08929 0.33063 0.0115 0.0
C857 C 0.07715 0.31206 1.00427 0.0
C858 C 0.08504 0.32481 0.07636 0.0
C859 C 0.06965 0.30015 0.034 0.0
C860 C 0.08107 0.31905 0.1439 0.0
C861 C 0.09928 0.35644 0.15682 0.0
N862 N 0.07365 0.30675 0.06878 0.0
N863 N 0.09697 0.34971 0.12217 0.0
H864 H 0.611 0.73119 0.15459 0.0
H865 H 0.70148 0.77426 0.03045 0.0
H866 H 0.66573 0.75897 0.19843 0.0
H867 H 0.64667 0.74892 0.98721 0.0
H868 H 0.68881 0.77014 0.09242 0.0
H869 H 0.62388 0.73895 0.09278 0.0
C870 C 0.62568 0.73905 0.15123 0.0
C871 C 0.63728 0.74435 0.18167 0.0
C872 C 0.67959 0.76559 0.06929 0.0
C873 C 0.65216 0.75317 0.11121 0.0
C874 C 0.68684 0.76797 0.03397 0.0
C875 C 0.67514 0.76185 1.00366 0.0
C876 C 0.66052 0.757 0.0742 0.0
C877 C 0.65624 0.75377 0.00977 0.0
C878 C 0.63306 0.74345 0.11598 0.0
C879 C 0.65624 0.75451 0.17573 0.0
N880 N 0.64954 0.75151 0.04423 0.0
N881 N 0.66307 0.75848 0.14128 0.0
H882 H 0.25576 0.88094 0.15683 0.0
H883 H 0.20933 0.92352 0.02808 0.0
H884 H 0.22434 0.90469 0.19741 0.0
H885 H 0.23851 0.89742 0.98726 0.0
H886 H 0.21383 0.91586 0.09053 0.0
H887 H 0.24868 0.88584 0.09418 0.0
C888 C 0.24728 0.88704 0.15257 0.0
C889 C 0.2407 0.89246 0.18235 0.0
C890 C 0.21917 0.91175 0.06784 0.0
C891 C 0.23263 0.89824 0.111 0.0
C892 C 0.21658 0.91612 0.03224 0.0
C893 C 0.22359 0.91116 1.00246 0.0
C894 C 0.22886 0.90241 0.0736 0.0
C895 C 0.2329 0.90157 1.0094 0.0
C896 C 0.24326 0.88988 0.11686 0.0
C897 C 0.22978 0.90035 0.17527 0.0
N898 N 0.23532 0.89758 0.04415 0.0
N899 N 0.22618 0.90307 0.14043 0.0
H900 H 0.61004 0.87713 0.65611 0.0
H901 H 0.70051 0.91986 0.53221 0.0
H902 H 0.66476 0.90131 0.69943 0.0
H903 H 0.64581 0.8926 0.4882 0.0
H904 H 0.68758 0.91173 0.59392 0.0
H905 H 0.62268 0.88121 0.59413 0.0
C906 C 0.62465 0.88314 0.6526 0.0
C907 C 0.63634 0.88898 0.68293 0.0
C908 C 0.67842 0.90742 0.5707 0.0
C909 C 0.65093 0.8938 0.61239 0.0
C910 C 0.68582 0.91203 0.53551 0.0
C911 C 0.67425 0.90699 0.50506 0.0
C912 C 0.65931 0.89776 0.57541 0.0
C913 C 0.65527 0.89687 0.51091 0.0
C914 C 0.63189 0.8855 0.61728 0.0
C915 C 0.65521 0.8967 0.67684 0.0
N916 N 0.64842 0.8927 0.54532 0.0
N917 N 0.66189 0.89897 0.64238 0.0
H918 H 0.08653 0.74434 0.48766 0.0
H919 H 0.07725 0.75761 0.70114 0.0
H920 H 0.05855 0.77122 0.53076 0.0
H921 H 0.10114 0.72673 0.65829 0.0
H922 H 0.07248 0.76471 0.6391 0.0
H923 H 0.094 0.73983 0.5496 0.0
C924 C 0.082 0.74939 0.5102 0.0
C925 C 0.07181 0.75814 0.50397 0.0
C926 C 0.07882 0.75644 0.64314 0.0
C927 C 0.08037 0.75292 0.57532 0.0
C928 C 0.0816 0.75238 0.67863 0.0
C929 C 0.08956 0.74146 0.68497 0.0
C930 C 0.08402 0.74957 0.61349 0.0
C931 C 0.09495 0.73516 0.65467 0.0
C932 C 0.08628 0.74677 0.54563 0.0
C933 C 0.0664 0.7644 0.53429 0.0
N934 N 0.09201 0.73925 0.6202 0.0
N935 N 0.0707 0.76162 0.5687 0.0
H936 H 0.20954 0.28116 0.5294 0.0
H937 H 0.25569 0.37085 0.65602 0.0
H938 H 0.23647 0.33615 0.48709 0.0
H939 H 0.22608 0.31581 0.69783 0.0
H940 H 0.24775 0.35854 0.59368 0.0
H941 H 0.21432 0.29363 0.59156 0.0
C942 C 0.21631 0.29581 0.53317 0.0
C943 C 0.22267 0.3076 0.50305 0.0
C944 C 0.24292 0.34918 0.61657 0.0
C945 C 0.22833 0.32202 0.57391 0.0
C946 C 0.24744 0.35623 0.6521 0.0
C947 C 0.24163 0.34437 0.68213 0.0
C948 C 0.23255 0.33015 0.61115 0.0
C949 C 0.23096 0.3255 0.6755 0.0
C950 C 0.21908 0.30296 0.56862 0.0
C951 C 0.23139 0.32652 0.50951 0.0
N952 N 0.22686 0.319 0.64084 0.0
N953 N 0.23405 0.33312 0.54415 0.0
H954 H 0.91967 0.70366 0.99174 0.0
H955 H 0.87513 0.61377 0.86546 0.0
H956 H 0.89098 0.64868 0.03405 0.0
H957 H 0.90125 0.66876 0.82322 0.0
H958 H 0.87981 0.62624 0.92769 0.0
H959 H 0.91211 0.69117 0.92952 0.0
C960 C 0.9117 0.68901 0.98796 0.0
C961 C 0.90602 0.67723 0.0181 0.0
C962 C 0.88442 0.63556 0.90473 0.0
C963 C 0.8974 0.6628 0.94721 0.0
C964 C 0.88171 0.62842 0.86926 0.0
C965 C 0.88786 0.64022 0.83913 0.0
C966 C 0.89337 0.65461 0.91002 0.0
C967 C 0.89635 0.65912 0.84562 0.0
C968 C 0.9074 0.68186 0.95249 0.0
C969 C 0.89572 0.65832 0.01163 0.0
N970 N 0.89892 0.66571 0.88024 0.0
N971 N 0.89183 0.65171 0.977 0.0
H972 H 0.28014 0.21176 0.98637 0.0
H973 H 0.37057 0.25833 0.86208 0.0
H974 H 0.33488 0.23827 0.03016 0.0
H975 H 0.31576 0.22868 0.81893 0.0
H976 H 0.35792 0.25008 0.92411 0.0
H977 H 0.29299 0.21667 0.92456 0.0
C978 C 0.29482 0.21845 0.983 0.0
C979 C 0.30643 0.22467 0.01343 0.0
C980 C 0.34869 0.2453 0.90099 0.0
C981 C 0.32127 0.2305 0.94296 0.0
C982 C 0.35593 0.25 0.86564 0.0
C983 C 0.34423 0.24428 0.83532 0.0
C984 C 0.32963 0.23486 0.90594 0.0
C985 C 0.32533 0.2335 0.84149 0.0
C986 C 0.30218 0.2213 0.94775 0.0
C987 C 0.32538 0.23331 1.00748 0.0
N988 N 0.31864 0.22924 0.87598 0.0
N989 N 0.3322 0.23605 0.97302 0.0
H990 H 0.72271 0.10437 0.86481 0.0
H991 H 0.76758 0.05938 0.99131 0.0
H992 H 0.75166 0.07828 0.82266 0.0
H993 H 0.74174 0.08857 0.03347 0.0
H994 H 0.76256 0.06682 0.92904 0.0
H995 H 0.73019 0.0994 0.92708 0.0
C996 C 0.73071 0.09771 0.86864 0.0
C997 C 0.73651 0.0917 0.83853 0.0
C998 C 0.75808 0.07166 0.95199 0.0
C999 C 0.74504 0.08586 0.90946 0.0
C1000 C 0.76097 0.06742 0.98748 0.0
C1001 C 0.75504 0.0733 0.0176 0.0
C1002 C 0.74914 0.08179 0.94667 0.0
C1003 C 0.74651 0.08369 0.01107 0.0
C1004 C 0.73497 0.09484 0.90414 0.0
C1005 C 0.74684 0.08311 0.84506 0.0
N1006 N 0.74376 0.08752 0.97642 0.0
N1007 N 0.75069 0.08039 0.87971 0.0
H1008 H 0.01863 0.39989 0.6833 0.0
H1009 H 0.96158 0.4225 0.8284 0.0
H1010 H 0.01668 0.44992 0.68253 0.0
H1011 H 0.96481 0.37316 0.83025 0.0
H1012 H 0.98085 0.43235 0.77378 0.0
H1013 H -0.00058 0.39018 0.73787 0.0
C1014 C 0.01448 0.40902 0.69506 0.0
C1015 C 0.01933 0.42577 0.67832 0.0
C1016 C 0.9772 0.41929 0.78592 0.0
C1017 C -0.00314 0.4145 0.74036 0.0
C1018 C 0.966 0.41355 0.81687 0.0
C1019 C 0.96152 0.39695 0.83392 0.0
C1020 C 0.98402 0.40838 0.77191 0.0
C1021 C 0.96786 0.38603 0.81798 0.0
C1022 C 0.00333 0.40337 0.72602 0.0
C1023 C 0.01337 0.43694 0.69461 0.0
N1024 N 0.97886 0.39199 0.78808 0.0
N1025 N 0.00234 0.43104 0.72451 0.0
H1026 H 0.58839 0.54665 0.82031 0.0
H1027 H 0.5429 0.59089 0.69342 0.0
H1028 H 0.55869 0.572 0.86216 0.0
H1029 H 0.57024 0.56314 0.65148 0.0
H1030 H 0.54758 0.58315 0.75569 0.0
H1031 H 0.58092 0.55154 0.75796 0.0
C1032 C 0.58021 0.5531 0.8164 0.0
C1033 C 0.57423 0.55898 0.84645 0.0
C1034 C 0.55247 0.57869 0.73279 0.0
C1035 C 0.56571 0.56473 0.77543 0.0
C1036 C 0.54977 0.5831 0.69729 0.0
C1037 C 0.55624 0.57773 0.66725 0.0
C1038 C 0.56173 0.56889 0.73818 0.0
C1039 C 0.56507 0.56764 0.67383 0.0
C1040 C 0.57597 0.55593 0.78085 0.0
C1041 C 0.56368 0.56731 0.83981 0.0
N1042 N 0.56762 0.56363 0.70848 0.0
N1043 N 0.55984 0.57 0.80513 0.0
H1044 H 0.4415 0.03655 0.82323 0.0
H1045 H 0.38787 0.94673 0.69869 0.0
H1046 H 0.40406 0.98299 0.86577 0.0
H1047 H 0.42855 -0.00073 0.65707 0.0
H1048 H 0.39457 0.95946 0.76075 0.0
H1049 H 0.43765 0.02304 0.76211 0.0
C1050 C 0.43252 0.022 0.81973 0.0
C1051 C 0.42309 0.01092 0.84959 0.0
C1052 C 0.40215 0.96815 0.73802 0.0
C1053 C 0.41855 -0.00464 0.78002 0.0
C1054 C 0.39838 0.96083 0.70267 0.0
C1055 C 0.40758 0.97196 0.67271 0.0
C1056 C 0.41518 0.98671 0.74333 0.0
C1057 C 0.42101 0.99021 0.67938 0.0
C1058 C 0.43034 0.01426 0.78491 0.0
C1059 C 0.41164 0.99209 0.84355 0.0
N1060 N 0.4243 -0.00297 0.71385 0.0
N1061 N 0.40965 0.98495 0.80954 0.0
H1062 H 0.5412 0.94764 0.19547 0.0
H1063 H 0.58426 0.03744 0.32146 0.0
H1064 H 0.56468 0.0025 0.15341 0.0
H1065 H 0.55743 0.98253 0.36415 0.0
H1066 H 0.57589 0.02484 0.2595 0.0
H1067 H 0.54565 0.95998 0.25778 0.0
C1068 C 0.54712 0.96222 0.19933 0.0
C1069 C 0.55266 0.97404 0.16925 0.0
C1070 C 0.57173 0.01556 0.28249 0.0
C1071 C 0.55792 0.98829 0.24018 0.0
C1072 C 0.5765 0.02278 0.31783 0.0
C1073 C 0.57163 0.01105 0.34797 0.0
C1074 C 0.56211 -0.00351 0.27735 0.0
C1075 C 0.56156 0.99211 0.34169 0.0
C1076 C 0.5497 0.96929 0.23484 0.0
C1077 C 0.5603 0.99286 0.17579 0.0
N1078 N 0.55725 0.98544 0.30716 0.0
N1079 N 0.56279 -0.00062 0.21044 0.0
H1080 H 0.94338 0.54283 0.32549 0.0
H1081 H 0.03206 0.58687 0.19617 0.0
H1082 H -0.00127 0.56833 0.36578 0.0
H1083 H 0.9767 0.55809 0.15567 0.0
H1084 H 0.02014 0.57905 0.25874 0.0
H1085 H 0.95523 0.54706 0.26282 0.0
C1086 C 0.95797 0.54915 0.32117 0.0
C1087 C 0.97006 0.5553 0.35087 0.0
C1088 C 0.01062 0.57436 0.23609 0.0
C1089 C 0.98376 0.56033 0.27948 0.0
C1090 C 0.01744 0.5788 0.20042 0.0
C1091 C 0.00538 0.57321 0.17069 0.0
C1092 C -0.0084 0.56431 0.24199 0.0
C1093 C 0.98653 0.56278 0.17777 0.0
C1094 C 0.96476 0.55161 0.28545 0.0
C1095 C 0.98888 0.56345 0.34371 0.0
N1096 N 0.98024 0.55877 0.21259 0.0
N1097 N -0.00487 0.56581 0.30886 0.0
H1098 H 0.39557 0.44387 0.19836 0.0
H1099 H 0.44182 0.39917 0.32106 0.0
H1100 H 0.42565 0.41943 0.154 0.0
H1101 H 0.41496 0.42693 0.36545 0.0
H1102 H 0.43759 0.40799 0.25947 0.0
H1103 H 0.40408 0.43941 0.26006 0.0
C1104 C 0.4041 0.43776 0.20158 0.0
C1105 C 0.4098 0.43193 0.17103 0.0
C1106 C 0.43275 0.41226 0.28276 0.0
C1107 C 0.41947 0.42662 0.24133 0.0
C1108 C 0.4352 0.40724 0.31788 0.0
C1109 C 0.42865 0.41221 0.34839 0.0
C1110 C 0.42363 0.42225 0.27822 0.0
C1111 C 0.42014 0.42268 0.3427 0.0
C1112 C 0.40893 0.43516 0.23676 0.0
C1113 C 0.42083 0.42404 0.17677 0.0
N1114 N 0.41778 0.42723 0.30838 0.0
N1115 N 0.42518 0.42151 0.21115 0.0
H1116 H 0.2837 0.16541 0.13001 0.0
H1117 H 0.36406 0.1559 0.22387 0.0
H1118 H 0.33015 0.21006 0.1832 0.0
H1119 H 0.31874 0.11217 0.1662 0.0
H1120 H 0.35185 0.176 0.20965 0.0
H1121 H 0.29602 0.14549 0.14449 0.0
C1122 C 0.29644 0.17098 0.14496 0.0
C1123 C 0.30594 0.18938 0.15542 0.0
C1124 C 0.34462 0.16203 0.2 0.0
C1125 C 0.3202 0.16675 0.17182 0.0
C1126 C 0.35161 0.15058 0.208 0.0
C1127 C 0.34237 0.13237 0.19617 0.0
C1128 C 0.32827 0.15517 0.18013 0.0
C1129 C 0.32628 0.12613 0.17581 0.0
C1130 C 0.30351 0.15963 0.15309 0.0
C1131 C 0.3224 0.19593 0.17466 0.0
N1132 N 0.31971 0.13751 0.16852 0.0
N1133 N 0.32904 0.18461 0.18218 0.0
H1134 H 0.81738 0.11259 0.12868 0.0
H1135 H 0.82967 0.2046 0.21714 0.0
H1136 H 0.77493 0.11579 0.18799 0.0
H1137 H 0.87277 0.20121 0.16097 0.0
H1138 H 0.80922 0.17213 0.2057 0.0
H1139 H 0.83797 0.14505 0.14033 0.0
C1140 C 0.81245 0.12011 0.14439 0.0
C1141 C 0.79445 0.11154 0.15739 0.0
C1142 C 0.82314 0.17849 0.19578 0.0
C1143 C 0.81781 0.14864 0.1705 0.0
C1144 C 0.83478 0.19703 0.20217 0.0
C1145 C 0.85291 0.20556 0.18997 0.0
C1146 C 0.82969 0.16842 0.17708 0.0
C1147 C 0.85887 0.19513 0.17081 0.0
C1148 C 0.82417 0.13864 0.15092 0.0
C1149 C 0.78872 0.12189 0.1775 0.0
N1150 N 0.84728 0.17707 0.16502 0.0
N1151 N 0.80036 0.13993 0.18334 0.0
H1152 H 0.77759 0.66555 0.16555 0.0
H1153 H 0.8655 0.65441 0.19163 0.0
H1154 H 0.77677 0.62005 0.22086 0.0
H1155 H 0.8661 0.69843 0.13071 0.0
H1156 H 0.83309 0.64215 0.20412 0.0
H1157 H 0.81007 0.67804 0.15275 0.0
C1158 C 0.78422 0.65812 0.17473 0.0
C1159 C 0.77453 0.64176 0.19429 0.0
C1160 C 0.84031 0.65452 0.18811 0.0
C1161 C 0.81162 0.65602 0.18014 0.0
C1162 C 0.85882 0.66157 0.18112 0.0
C1163 C 0.86845 0.67744 0.1601 0.0
C1164 C 0.83137 0.66342 0.17397 0.0
C1165 C 0.85915 0.68615 0.14707 0.0
C1166 C 0.80276 0.66528 0.16755 0.0
C1167 C 0.78376 0.63271 0.20567 0.0
N1168 N 0.84108 0.67899 0.15414 0.0
N1169 N 0.80183 0.64 0.19853 0.0
H1170 H 0.10831 0.31987 0.35844 0.0
H1171 H 0.20801 0.33238 0.3341 0.0
H1172 H 0.15209 0.36495 0.30049 0.0
H1173 H 0.16348 0.28633 0.38837 0.0
H1174 H 0.18782 0.34467 0.32167 0.0
H1175 H 0.12862 0.30777 0.37099 0.0
C1176 C 0.12225 0.32728 0.34858 0.0
C1177 C 0.12855 0.34341 0.32839 0.0
C1178 C 0.18244 0.33185 0.33618 0.0
C1179 C 0.1518 0.32959 0.34233 0.0
C1180 C 0.19394 0.3248 0.34316 0.0
C1181 C 0.18738 0.30833 0.36227 0.0
C1182 C 0.16429 0.32235 0.34851 0.0
C1183 C 0.16908 0.29908 0.37351 0.0
C1184 C 0.13381 0.32034 0.35562 0.0
C1185 C 0.1467 0.35246 0.31619 0.0
N1186 N 0.15817 0.30625 0.36655 0.0
N1187 N 0.1577 0.34539 0.32328 0.0
H1188 H 0.65021 0.8703 0.33429 0.0
H1189 H 0.66161 0.78218 0.35173 0.0
H1190 H 0.69605 0.87058 0.38701 0.0
H1191 H 0.6159 0.7819 0.29838 0.0
H1192 H 0.67432 0.81456 0.36543 0.0
H1193 H 0.63756 0.83796 0.32018 0.0
C1194 C 0.65767 0.86358 0.34264 0.0
C1195 C 0.67418 0.87308 0.36185 0.0
C1196 C 0.66148 0.80741 0.35082 0.0
C1197 C 0.65974 0.83611 0.34617 0.0
C1198 C 0.65419 0.78892 0.34313 0.0
C1199 C 0.63769 0.77939 0.3239 0.0
C1200 C 0.65221 0.81641 0.33915 0.0
C1201 C 0.62866 0.78876 0.3133 0.0
C1202 C 0.65042 0.84511 0.33472 0.0
C1203 C 0.68328 0.86373 0.37213 0.0
N1204 N 0.63607 0.80679 0.32099 0.0
N1205 N 0.6759 0.84572 0.36425 0.0
H1206 H 0.1111 0.82006 0.39244 0.0
H1207 H 0.20117 0.83163 0.29574 0.0
H1208 H 0.11278 0.77736 0.33093 0.0
H1209 H 0.19938 0.87455 0.35619 0.0
H1210 H 0.16885 0.81135 0.30917 0.0
H1211 H 0.14344 0.84033 0.37919 0.0
C1212 C 0.11826 0.815 0.37592 0.0
C1213 C 0.1093 0.79703 0.36275 0.0
C1214 C 0.17553 0.82519 0.3196 0.0
C1215 C 0.14627 0.82003 0.34778 0.0
C1216 C 0.19399 0.83673 0.31207 0.0
C1217 C 0.20291 0.85477 0.32488 0.0
C1218 C 0.16596 0.83176 0.34005 0.0
C1219 C 0.19299 0.86072 0.34581 0.0
C1220 C 0.13673 0.82655 0.36849 0.0
C1221 C 0.1192 0.79114 0.34158 0.0
N1222 N 0.17501 0.84924 0.35267 0.0
N1223 N 0.13719 0.80261 0.33483 0.0
H1224 H 0.61522 0.83022 0.7978 0.0
H1225 H 0.69626 0.8216 0.89087 0.0
H1226 H 0.66006 0.8742 0.85599 0.0
H1227 H 0.65183 0.77799 0.83111 0.0
H1228 H 0.6833 0.84119 0.87822 0.0
H1229 H 0.62813 0.81065 0.81086 0.0
C1230 C 0.62771 0.8357 0.8136 0.0
C1231 C 0.63662 0.85383 0.82582 0.0
C1232 C 0.67642 0.82736 0.86776 0.0
C1233 C 0.65156 0.83164 0.84052 0.0
C1234 C 0.68386 0.81621 0.87483 0.0
C1235 C 0.67508 0.79818 0.86201 0.0
C1236 C 0.66009 0.82037 0.84779 0.0
C1237 C 0.65903 0.79183 0.84148 0.0
C1238 C 0.63512 0.82456 0.8209 0.0
C1239 C 0.65277 0.86028 0.84608 0.0
N1240 N 0.652 0.80291 0.8351 0.0
N1241 N 0.65977 0.84919 0.8527 0.0
H1242 H 0.15095 0.78043 0.79713 0.0
H1243 H 0.1621 0.87087 0.89127 0.0
H1244 H 0.10818 0.78234 0.85792 0.0
H1245 H 0.20499 0.86917 0.83052 0.0
H1246 H 0.14207 0.8384 0.87902 0.0
H1247 H 0.17118 0.81285 0.80989 0.0
C1248 C 0.14587 0.78766 0.81341 0.0
C1249 C 0.12788 0.77875 0.82647 0.0
C1250 C 0.15584 0.84513 0.86826 0.0
C1251 C 0.15083 0.81579 0.84085 0.0
C1252 C 0.16725 0.86367 0.87512 0.0
C1253 C 0.1852 0.87267 0.86186 0.0
C1254 C 0.16246 0.83554 0.84803 0.0
C1255 C 0.19121 0.86272 0.8412 0.0
C1256 C 0.15739 0.80616 0.82056 0.0
C1257 C 0.12197 0.78872 0.84733 0.0
N1258 N 0.17987 0.84465 0.83499 0.0
N1259 N 0.13341 0.80674 0.85378 0.0
H1260 H 0.11474 0.33553 0.82796 0.0
H1261 H 0.20039 0.3206 0.85315 0.0
H1262 H 0.11213 0.28955 0.88483 0.0
H1263 H 0.20264 0.36597 0.79449 0.0
H1264 H 0.168 0.30896 0.8651 0.0
H1265 H 0.14683 0.34653 0.81419 0.0
C1266 C 0.1209 0.32766 0.83725 0.0
C1267 C 0.11083 0.31164 0.85762 0.0
C1268 C 0.17559 0.32149 0.84968 0.0
C1269 C 0.14753 0.32423 0.84236 0.0
C1270 C 0.19408 0.32817 0.843 0.0
C1271 C 0.20417 0.34427 0.82285 0.0
C1272 C 0.16715 0.33099 0.83608 0.0
C1273 C 0.19534 0.35352 0.81021 0.0
C1274 C 0.13923 0.33398 0.82952 0.0
C1275 C 0.11944 0.30198 0.86905 0.0
N1276 N 0.17731 0.34672 0.81699 0.0
N1277 N 0.13735 0.30848 0.8614 0.0
H1278 H 0.82728 0.61902 0.72572 0.0
H1279 H 0.81802 0.69928 0.63083 0.0
H1280 H 0.87084 0.66351 0.66612 0.0
H1281 H 0.77413 0.65442 0.68904 0.0
H1282 H 0.83778 0.68665 0.64448 0.0
H1283 H 0.80749 0.63169 0.71238 0.0
C1284 C 0.83262 0.63138 0.70959 0.0
C1285 C 0.85069 0.64026 0.69699 0.0
C1286 C 0.82385 0.67959 0.65439 0.0
C1287 C 0.82826 0.6549 0.68196 0.0
C1288 C 0.8126 0.68684 0.64673 0.0
C1289 C 0.79444 0.67786 0.65882 0.0
C1290 C 0.81686 0.66324 0.67422 0.0
C1291 C 0.78807 0.66177 0.67923 0.0
C1292 C 0.82136 0.63865 0.70211 0.0
C1293 C 0.85697 0.65625 0.67633 0.0
N1294 N 0.79927 0.65494 0.6862 0.0
N1295 N 0.84577 0.6631 0.66954 0.0
H1296 H 0.3657 0.20561 0.72334 0.0
H1297 H 0.28586 0.11549 0.62943 0.0
H1298 H 0.32109 0.2042 0.66305 0.0
H1299 H 0.32993 0.11673 0.69146 0.0
H1300 H 0.2985 0.14801 0.64161 0.0
H1301 H 0.35311 0.17313 0.71092 0.0
C1302 C 0.35333 0.19848 0.70724 0.0
C1303 C 0.3444 0.20755 0.69421 0.0
C1304 C 0.30538 0.14116 0.65268 0.0
C1305 C 0.32983 0.17042 0.68021 0.0
C1306 C 0.29813 0.1226 0.64586 0.0
C1307 C 0.30689 0.11346 0.65947 0.0
C1308 C 0.32151 0.15063 0.67319 0.0
C1309 C 0.32275 0.12329 0.68048 0.0
C1310 C 0.34611 0.17993 0.70029 0.0
C1311 C 0.3284 0.19769 0.67359 0.0
N1312 N 0.3296 0.14138 0.68661 0.0
N1313 N 0.32159 0.17961 0.66731 0.0
H1314 H 0.86705 0.16748 0.63315 0.0
H1315 H 0.77569 0.1543 0.72663 0.0
H1316 H 0.86322 0.21092 0.68677 0.0
H1317 H 0.77898 0.11175 0.66792 0.0
H1318 H 0.80793 0.17517 0.7134 0.0
H1319 H 0.83505 0.14652 0.64784 0.0
C1320 C 0.8595 0.17256 0.64828 0.0
C1321 C 0.86774 0.19094 0.65872 0.0
C1322 C 0.80159 0.16128 0.70333 0.0
C1323 C 0.83113 0.16713 0.67532 0.0
C1324 C 0.78319 0.1494 0.71076 0.0
C1325 C 0.7747 0.13131 0.6983 0.0
C1326 C 0.81154 0.15499 0.68338 0.0
C1327 C 0.78502 0.12561 0.67798 0.0
C1328 C 0.84121 0.16062 0.65652 0.0
C1329 C 0.85735 0.19684 0.67819 0.0
N1330 N 0.80293 0.13742 0.67121 0.0
N1331 N 0.83954 0.18496 0.68578 0.0
H1332 H 0.98599 0.44391 0.50718 0.0
H1333 H -0.00462 0.54245 0.52721 0.0
H1334 H 0.0308 0.48923 0.56265 0.0
H1335 H 0.95118 0.49738 0.46996 0.0
H1336 H 0.00804 0.52286 0.54235 0.0
H1337 H 0.97275 0.46317 0.49416 0.0
C1338 C -0.00692 0.45796 0.51646 0.0
C1339 C 0.00952 0.46503 0.53596 0.0
C1340 C -0.00447 0.51722 0.5266 0.0
C1341 C -0.0056 0.48709 0.52142 0.0
C1342 C 0.98827 0.52838 0.51807 0.0
C1343 C 0.97225 0.5215 0.49724 0.0
C1344 C 0.9867 0.49909 0.51415 0.0
C1345 C 0.96358 0.5032 0.48606 0.0
C1346 C 0.98549 0.46893 0.50912 0.0
C1347 C 0.01811 0.48327 0.54746 0.0
N1348 N 0.97096 0.49264 0.49454 0.0
N1349 N 0.01043 0.49369 0.54004 0.0
H1350 H 0.5394 0.53722 0.49413 0.0
H1351 H 0.44087 0.44861 0.51907 0.0
H1352 H 0.49561 0.53718 0.55486 0.0
H1353 H 0.48608 0.4484 0.4647 0.0
H1354 H 0.46052 0.48111 0.53221 0.0
H1355 H 0.51962 0.50477 0.48156 0.0
C1356 C 0.52556 0.53039 0.5046 0.0
C1357 C 0.5191 0.53985 0.52557 0.0
C1358 C 0.46616 0.47393 0.51755 0.0
C1359 C 0.49646 0.50272 0.51161 0.0
C1360 C 0.45498 0.45539 0.51017 0.0
C1361 C 0.46189 0.44586 0.49076 0.0
C1362 C 0.48433 0.48296 0.5053 0.0
C1363 C 0.48022 0.45526 0.47976 0.0
C1364 C 0.5143 0.51185 0.49757 0.0
C1365 C 0.5011 0.53036 0.53854 0.0
N1366 N 0.49079 0.47332 0.48707 0.0
N1367 N 0.49039 0.51227 0.53141 0.0
H1368 H 0.53506 0.03269 0.46503 0.0
H1369 H 0.44488 0.95044 0.55341 0.0
H1370 H 0.53349 0.98581 0.51568 0.0
H1371 H 0.44653 -0.00352 0.49871 0.0
H1372 H 0.47725 0.96288 0.5394 0.0
H1373 H 0.50261 0.0197 0.47801 0.0
C1374 C 0.5279 0.01971 0.47913 0.0
C1375 C 0.53693 0.0103 0.48934 0.0
C1376 C 0.4705 0.97021 0.53031 0.0
C1377 C 0.49979 -0.00474 0.50396 0.0
C1378 C 0.45203 0.96308 0.53817 0.0
C1379 C 0.44307 0.97248 0.52725 0.0
C1380 C 0.48004 0.98687 0.51153 0.0
C1381 C 0.45294 0.98881 0.50766 0.0
C1382 C 0.50935 0.01226 0.48639 0.0
C1383 C 0.52701 -0.00648 0.50742 0.0
N1384 N 0.47092 -0.00447 0.50056 0.0
N1385 N 0.50892 0.9865 0.51411 0.0
H1386 H 0.48435 0.03355 0.96009 0.0
H1387 H 0.49355 0.95309 0.05405 0.0
H1388 H 0.44102 0.98942 0.02086 0.0
H1389 H 0.53735 -0.00209 0.99556 0.0
H1390 H 0.4738 0.96577 0.04071 0.0
H1391 H 0.50399 0.02065 0.97258 0.0
C1392 C 0.47903 0.02122 0.97631 0.0
C1393 C 0.46107 0.01252 0.98951 0.0
C1394 C 0.48771 0.9728 0.03067 0.0
C1395 C 0.48334 -0.0024 1.00355 0.0
C1396 C 0.49895 0.96552 0.03814 0.0
C1397 C 0.51709 0.9745 0.02592 0.0
C1398 C 0.49469 0.98917 0.0109 0.0
C1399 C 0.52343 0.99057 1.00549 0.0
C1400 C 0.49021 0.01382 0.98329 0.0
C1401 C 0.45481 -0.00344 0.01023 0.0
N1402 N 0.51224 -0.00256 0.99872 0.0
N1403 N 0.46593 0.98957 0.01654 0.0
H1404 H 0.98129 0.53571 0.99266 0.0
H1405 H -0.0067 0.44789 1.00675 0.0
H1406 H 0.02558 0.53504 0.0501 0.0
H1407 H 0.94847 0.44809 0.95061 0.0
H1408 H 0.00562 0.48003 0.02197 0.0
H1409 H 0.96954 0.50387 0.97525 0.0
C1410 C 0.9886 0.52888 1.0014 0.0
C1411 C 0.0044 0.53796 0.0229 0.0
C1412 C -0.00692 0.47306 1.00635 0.0
C1413 C -0.00901 0.50158 1.00335 0.0
C1414 C 0.98602 0.45471 0.99774 0.0
C1415 C 0.96984 0.44536 0.97747 0.0
C1416 C 0.98389 0.48212 0.99457 0.0
C1417 C 0.96097 0.45482 0.96638 0.0
C1418 C 0.98187 0.51071 0.99154 0.0
C1419 C 0.01334 0.52851 0.03351 0.0
N1420 N 0.96813 0.47272 0.97507 0.0
N1421 N 0.00647 0.51079 0.02372 0.0
H1422 H 0.44459 0.48963 0.05203 0.0
H1423 H 0.53448 0.4981 0.96068 0.0
H1424 H 0.44625 0.44455 1.00048 0.0
H1425 H 0.53314 0.5421 0.01776 0.0
H1426 H 0.50204 0.4783 0.97405 0.0
H1427 H 0.47685 0.50936 0.03758 0.0
C1428 C 0.45173 0.48393 0.0374 0.0
C1429 C 0.44279 0.46545 0.02746 0.0
C1430 C 0.50886 0.49227 0.98375 0.0
C1431 C 0.4797 0.48786 0.01115 0.0
C1432 C 0.52737 0.50354 0.97624 0.0
C1433 C 0.53646 0.52173 0.98816 0.0
C1434 C 0.49941 0.49929 1.00322 0.0
C1435 C 0.52664 0.52813 1.00811 0.0
C1436 C 0.47016 0.49517 0.02931 0.0
C1437 C 0.45266 0.45874 1.00863 0.0
N1438 N 0.50861 0.51693 0.01492 0.0
N1439 N 0.47064 0.46995 1.00117 0.0
H1440 H 0.42734 0.08618 0.98593 0.0
H1441 H 0.4157 0.09899 0.19894 0.0
H1442 H 0.44147 0.06086 0.07244 0.0
H1443 H 0.3883 0.1107 0.11268 0.0
H1444 H 0.43361 0.09372 0.15269 0.0
H1445 H 0.42161 0.10389 0.0319 0.0
C1446 C 0.42978 0.08477 0.01448 0.0
C1447 C 0.43464 0.07189 0.02549 0.0
C1448 C 0.42396 0.09785 0.14397 0.0
C1449 C 0.42798 0.09188 0.07809 0.0
C1450 C 0.41384 0.10097 0.17036 0.0
C1451 C 0.40036 0.10504 0.15954 0.0
C1452 C 0.42062 0.09894 0.10664 0.0
C1453 C 0.39842 0.10734 0.12213 0.0
C1454 C 0.42637 0.09476 0.04072 0.0
C1455 C 0.4375 0.0705 0.06287 0.0
N1456 N 0.40826 0.10406 0.09702 0.0
N1457 N 0.43391 0.08018 0.08784 0.0
H1458 H 0.87546 0.271 0.1006 0.0
H1459 H 0.91355 0.37517 0.0549 0.0
H1460 H 0.88449 0.31127 0.18262 0.0
H1461 H 0.8983 0.33344 0.97278 0.0
H1462 H 0.8979 0.35147 0.10099 0.0
H1463 H 0.87868 0.29265 0.05315 0.0
C1464 C 0.8778 0.28434 0.10864 0.0
C1465 C 0.87992 0.28943 0.14559 0.0
C1466 C 0.89761 0.34746 0.07279 0.0
C1467 C 0.884 0.31451 0.09122 0.0
C1468 C 0.90648 0.361 0.04639 0.0
C1469 C 0.90742 0.35626 0.01 0.0
C1470 C 0.88981 0.32901 0.06286 0.0
C1471 C 0.89798 0.33771 1.00052 0.0
C1472 C 0.87965 0.29672 0.08148 0.0
C1473 C 0.88281 0.30681 0.15445 0.0
N1474 N 0.88989 0.32475 0.02692 0.0
N1475 N 0.88511 0.31887 0.12741 0.0
H1476 H 0.64315 0.55439 0.98689 0.0
H1477 H 0.66733 0.56714 0.20016 0.0
H1478 H 0.60387 0.54254 0.07274 0.0
H1479 H 0.70672 0.593 0.11384 0.0
H1480 H 0.64398 0.54934 0.154 0.0
H1481 H 0.66627 0.55972 0.03339 0.0
C1482 C 0.63926 0.55238 0.01544 0.0
C1483 C 0.62167 0.54826 0.02606 0.0
C1484 C 0.65785 0.55861 0.14527 0.0
C1485 C 0.64796 0.55444 0.07926 0.0
C1486 C 0.67119 0.56864 0.17161 0.0
C1487 C 0.68888 0.58168 0.16069 0.0
C1488 C 0.66235 0.56159 0.10792 0.0
C1489 C 0.69315 0.58321 0.12333 0.0
C1490 C 0.65247 0.55555 0.04197 0.0
C1491 C 0.61736 0.54593 0.06344 0.0
N1492 N 0.67994 0.57347 0.09827 0.0
N1493 N 0.63046 0.54926 0.0887 0.0
H1494 H 0.10851 0.38935 0.41307 0.0
H1495 H 0.06524 0.45119 0.45507 0.0
H1496 H 0.09684 0.41795 0.32938 0.0
H1497 H 0.08389 0.42843 0.53872 0.0
H1498 H 0.08171 0.44394 0.40941 0.0
H1499 H 0.1047 0.40788 0.45947 0.0
C1500 C 0.1055 0.39983 0.40443 0.0
C1501 C 0.10278 0.40199 0.36736 0.0
C1502 C 0.08257 0.44088 0.43782 0.0
C1503 C 0.09796 0.42304 0.42051 0.0
C1504 C 0.0732 0.44508 0.46397 0.0
C1505 C 0.07301 0.44019 0.5007 0.0
C1506 C 0.09158 0.43145 0.44836 0.0
C1507 C 0.08361 0.43237 0.51069 0.0
C1508 C 0.1033 0.41041 0.43098 0.0
C1509 C 0.09902 0.41582 0.35768 0.0
N1510 N 0.09216 0.4279 0.48456 0.0
N1511 N 0.09635 0.42558 0.38416 0.0
H1512 H 0.53722 0.60683 0.44284 0.0
H1513 H 0.58823 0.71214 0.40428 0.0
H1514 H 0.55177 0.64696 0.52807 0.0
H1515 H 0.56313 0.67191 0.31911 0.0
H1516 H 0.5707 0.68876 0.44978 0.0
H1517 H 0.54203 0.62998 0.39748 0.0
C1518 C 0.54103 0.62046 0.45206 0.0
C1519 C 0.54431 0.62506 0.48922 0.0
C1520 C 0.56865 0.68506 0.42114 0.0
C1521 C 0.55028 0.65179 0.43729 0.0
C1522 C 0.57864 0.69843 0.39512 0.0
C1523 C 0.57723 0.69389 0.35793 0.0
C1524 C 0.55747 0.66687 0.41 0.0
C1525 C 0.56461 0.67596 0.34752 0.0
C1526 C 0.54379 0.63369 0.42611 0.0
C1527 C 0.54913 0.64286 0.49969 0.0
N1528 N 0.5555 0.66299 0.37351 0.0
N1529 N 0.55236 0.6557 0.47377 0.0
H1530 H 0.33619 0.90062 0.5328 0.0
H1531 H 0.31015 0.88942 0.32034 0.0
H1532 H 0.37458 0.92852 0.44583 0.0
H1533 H 0.27145 0.87647 0.40783 0.0
H1534 H 0.33381 0.89505 0.36576 0.0
H1535 H 0.31257 0.88315 0.48687 0.0
C1536 C 0.33977 0.90268 0.5041 0.0
C1537 C 0.35726 0.91616 0.49301 0.0
C1538 C 0.32002 0.89058 0.37492 0.0
C1539 C 0.33043 0.8964 0.44054 0.0
C1540 C 0.30651 0.88724 0.34901 0.0
C1541 C 0.28891 0.88271 0.36043 0.0
C1542 C 0.31581 0.88921 0.41239 0.0
C1543 C 0.28493 0.88017 0.39794 0.0
C1544 C 0.32628 0.89282 0.47792 0.0
C1545 C 0.36117 0.91839 0.45548 0.0
N1546 N 0.29831 0.88366 0.42259 0.0
N1547 N 0.34783 0.90877 0.43059 0.0
H1548 H 0.58919 0.87383 0.90724 0.0
H1549 H 0.53737 0.92742 0.94442 0.0
H1550 H 0.56364 0.88817 0.82153 0.0
H1551 H 0.55116 0.90147 0.0302 0.0
H1552 H 0.54263 0.90931 0.89926 0.0
H1553 H 0.57146 0.8796 0.95246 0.0
C1554 C 0.57949 0.87778 0.89791 0.0
C1555 C 0.578 0.88072 0.86064 0.0
C1556 C 0.54413 0.90723 0.92795 0.0
C1557 C 0.55797 0.88782 0.91236 0.0
C1558 C 0.54111 0.91757 0.95378 0.0
C1559 C 0.54403 0.91606 0.99105 0.0
C1560 C 0.55054 0.89558 0.93939 0.0
C1561 C 0.54879 0.90306 1.00171 0.0
C1562 C 0.56937 0.8811 0.92376 0.0
C1563 C 0.5652 0.88577 0.85001 0.0
N1564 N 0.55229 0.89359 0.97593 0.0
N1565 N 0.55597 0.88956 0.87582 0.0
H1566 H 0.05232 0.60526 0.94631 0.0
H1567 H 0.10621 0.71086 0.91026 0.0
H1568 H 0.07771 0.64477 0.03265 0.0
H1569 H 0.09188 0.67115 0.82425 0.0
H1570 H 0.10007 0.6872 0.95534 0.0
H1571 H 0.07052 0.6288 0.90153 0.0
C1572 C 0.06207 0.61884 0.95588 0.0
C1573 C 0.0634 0.62314 0.9932 0.0
C1574 C 0.09865 0.68368 0.92661 0.0
C1575 C 0.08398 0.65033 0.94195 0.0
C1576 C 0.10218 0.69721 0.90083 0.0
C1577 C 0.09936 0.6929 0.86349 0.0
C1578 C 0.09185 0.66558 0.91507 0.0
C1579 C 0.09419 0.67504 0.85277 0.0
C1580 C 0.07246 0.63229 0.93027 0.0
C1581 C 0.07627 0.6409 1.00413 0.0
N1582 N 0.09021 0.66193 0.8785 0.0
N1583 N 0.08579 0.65396 0.97855 0.0
H1584 H 0.3106 0.41818 0.82194 0.0
H1585 H 0.33519 0.43099 0.03504 0.0
H1586 H 0.27169 0.39041 0.90819 0.0
H1587 H 0.37456 0.44486 0.94854 0.0
H1588 H 0.3116 0.42468 0.98893 0.0
H1589 H 0.33363 0.43645 0.86817 0.0
C1590 C 0.30676 0.4163 0.85051 0.0
C1591 C 0.28932 0.40261 0.86133 0.0
C1592 C 0.32551 0.42953 0.98014 0.0
C1593 C 0.31552 0.42329 0.91423 0.0
C1594 C 0.33898 0.43327 1.00645 0.0
C1595 C 0.35676 0.43824 0.99548 0.0
C1596 C 0.32995 0.43094 0.94278 0.0
C1597 C 0.36093 0.44084 0.95807 0.0
C1598 C 0.31993 0.42663 0.8769 0.0
C1599 C 0.28508 0.40067 0.89874 0.0
N1600 N 0.3476 0.43697 0.93305 0.0
N1601 N 0.29813 0.41072 0.92386 0.0
H1602 H 0.87083 0.59281 0.61408 0.0
H1603 H 0.92446 0.54096 0.57655 0.0
H1604 H 0.88551 0.56752 0.69971 0.0
H1605 H 0.89824 0.5545 0.49092 0.0
H1606 H 0.90659 0.54647 0.62185 0.0
H1607 H 0.87666 0.57512 0.56882 0.0
C1608 C 0.87488 0.58318 0.62339 0.0
C1609 C 0.87787 0.58175 0.66066 0.0
C1610 C 0.90439 0.54786 0.59316 0.0
C1611 C 0.88503 0.56176 0.60888 0.0
C1612 C 0.9146 0.54469 0.56726 0.0
C1613 C 0.91294 0.54745 0.52997 0.0
C1614 C 0.89272 0.55426 0.5818 0.0
C1615 C 0.89993 0.55223 0.51941 0.0
C1616 C 0.87823 0.57308 0.59751 0.0
C1617 C 0.88305 0.56904 0.67124 0.0
N1618 N 0.89059 0.55588 0.54526 0.0
N1619 N 0.88686 0.55982 0.64541 0.0
H1620 H 0.39112 0.27403 0.61034 0.0
H1621 H 0.44494 0.37908 0.56998 0.0
H1622 H 0.41755 0.31446 0.69474 0.0
H1623 H 0.42934 0.33853 0.48534 0.0
H1624 H 0.43956 0.35592 0.6157 0.0
H1625 H 0.40909 0.29696 0.56439 0.0
C1626 C 0.40105 0.28768 0.61924 0.0
C1627 C 0.40271 0.29243 0.65635 0.0
C1628 C 0.4377 0.3521 0.58712 0.0
C1629 C 0.42306 0.31892 0.60376 0.0
C1630 C 0.44081 0.36535 0.56098 0.0
C1631 C 0.4374 0.36064 0.52389 0.0
C1632 C 0.4307 0.33388 0.57622 0.0
C1633 C 0.43212 0.3427 0.51367 0.0
C1634 C 0.41131 0.30079 0.59296 0.0
C1635 C 0.41582 0.31026 0.6664 0.0
N1636 N 0.42852 0.32985 0.5398 0.0
N1637 N 0.42521 0.32297 0.64018 0.0
H1638 H 0.64387 0.08551 0.48586 0.0
H1639 H 0.66769 0.09654 0.69922 0.0
H1640 H 0.60445 0.05851 0.57165 0.0
H1641 H 0.70726 0.10989 0.61329 0.0
H1642 H 0.64455 0.09135 0.6529 0.0
H1643 H 0.66705 0.10315 0.53241 0.0
C1644 C 0.63997 0.08372 0.51439 0.0
C1645 C 0.62233 0.0704 0.52502 0.0
C1646 C 0.65841 0.09581 0.64428 0.0
C1647 C 0.64866 0.09032 0.57823 0.0
C1648 C 0.67163 0.09889 0.67072 0.0
C1649 C 0.68932 0.10339 0.65999 0.0
C1650 C 0.663 0.09737 0.60698 0.0
C1651 C 0.69369 0.10619 0.62266 0.0
C1652 C 0.6532 0.09367 0.54095 0.0
C1653 C 0.61799 0.06851 0.56237 0.0
N1654 N 0.68058 0.10292 0.59748 0.0
N1655 N 0.6311 0.07817 0.58764 0.0
H1656 H 0.77431 0.72456 0.74104 0.0
H1657 H 0.72328 0.77892 0.77977 0.0
H1658 H 0.76085 0.75113 0.65598 0.0
H1659 H 0.74786 0.76316 0.86501 0.0
H1660 H 0.74096 0.77315 0.73439 0.0
H1661 H 0.76907 0.74249 0.78667 0.0
C1662 C 0.77065 0.73451 0.73194 0.0
C1663 C 0.76782 0.73625 0.69472 0.0
C1664 C 0.74285 0.77133 0.76303 0.0
C1665 C 0.76134 0.75653 0.74693 0.0
C1666 C 0.73276 0.77465 0.78898 0.0
C1667 C 0.73398 0.77132 0.82615 0.0
C1668 C 0.75395 0.76423 0.77421 0.0
C1669 C 0.7465 0.76587 0.83661 0.0
C1670 C 0.76764 0.74475 0.75804 0.0
C1671 C 0.76316 0.74937 0.68441 0.0
N1672 N 0.75571 0.76211 0.81069 0.0
N1673 N 0.75967 0.75874 0.71045 0.0
H1674 H 0.23283 0.00634 0.65387 0.0
H1675 H 0.21841 0.97974 0.8656 0.0
H1676 H 0.25784 0.04476 0.74216 0.0
H1677 H 0.20577 0.94129 0.77767 0.0
H1678 H 0.22426 0.00352 0.82046 0.0
H1679 H 0.2144 0.98259 0.69866 0.0
C1680 C 0.23405 0.0099 0.68256 0.0
C1681 C 0.24705 0.02744 0.69441 0.0
C1682 C 0.2198 0.98976 0.81112 0.0
C1683 C 0.2262 0.00041 0.74569 0.0
C1684 C 0.21633 0.97617 0.83689 0.0
C1685 C 0.21186 0.95862 0.82528 0.0
C1686 C 0.21867 0.98568 0.7736 0.0
C1687 C 0.20944 0.95474 0.78773 0.0
C1688 C 0.22363 -0.00367 0.70814 0.0
C1689 C 0.24814 0.03132 0.73194 0.0
N1690 N 0.2131 0.96821 0.76321 0.0
N1691 N 0.23805 0.01786 0.75626 0.0
H1692 H 0.97505 0.22821 0.65385 0.0
H1693 H 0.00276 0.24276 0.86588 0.0
H1694 H 0.93742 0.21938 0.74143 0.0
H1695 H 0.04077 0.26937 0.77772 0.0
H1696 H 0.97859 0.22562 0.82068 0.0
H1697 H -0.00105 0.23475 0.69939 0.0
C1698 C 0.9717 0.22717 0.68263 0.0
C1699 C 0.95433 0.22345 0.69394 0.0
C1700 C -0.00768 0.23495 0.81132 0.0
C1701 C 0.98147 0.23091 0.74599 0.0
C1702 C 0.00612 0.24461 0.83707 0.0
C1703 C 0.0237 0.2576 0.82545 0.0
C1704 C -0.00374 0.23818 0.7738 0.0
C1705 C 0.02732 0.2596 0.78778 0.0
C1706 C 0.98535 0.23102 0.70858 0.0
C1707 C 0.95072 0.2224 0.73158 0.0
N1708 N 0.0137 0.25012 0.76331 0.0
N1709 N 0.9642 0.22625 0.75625 0.0
H1710 H 0.25813 0.20789 0.23642 0.0
H1711 H 0.20578 0.26038 0.27873 0.0
H1712 H 0.23213 0.2227 0.15251 0.0
H1713 H 0.22008 0.23386 0.36243 0.0
H1714 H 0.21092 0.2427 0.23234 0.0
H1715 H 0.24029 0.21291 0.28262 0.0
C1716 C 0.24829 0.21178 0.22769 0.0
C1717 C 0.24671 0.21506 0.19066 0.0
C1718 C 0.21254 0.24038 0.26084 0.0
C1719 C 0.22656 0.22133 0.24353 0.0
C1720 C 0.20958 0.25047 0.28737 0.0
C1721 C 0.21269 0.24869 0.32442 0.0
C1722 C 0.21909 0.22872 0.27132 0.0
C1723 C 0.21754 0.23564 0.33415 0.0
C1724 C 0.23811 0.21467 0.2541 0.0
C1725 C 0.23375 0.22003 0.18079 0.0
N1726 N 0.221 0.22644 0.30768 0.0
N1727 N 0.22446 0.22342 0.20716 0.0
H1728 H 0.76089 0.00499 0.15677 0.0
H1729 H 0.74896 0.98022 0.36964 0.0
H1730 H 0.77246 0.04389 0.24333 0.0
H1731 H 0.72329 0.94101 0.2829 0.0
H1732 H 0.76649 0.00377 0.32372 0.0
H1733 H 0.75603 0.98186 0.20279 0.0
C1734 C 0.76292 0.0088 0.18536 0.0
C1735 C 0.76682 0.02628 0.19634 0.0
C1736 C 0.75734 0.9899 0.31483 0.0
C1737 C 0.76119 -4e-05 0.249 0.0
C1738 C 0.74747 0.97645 0.34104 0.0
C1739 C 0.73454 0.95874 0.32994 0.0
C1740 C 0.75431 0.9855 0.27744 0.0
C1741 C 0.73299 0.95459 0.29252 0.0
C1742 C 0.76003 -0.00442 0.21163 0.0
C1743 C 0.76922 0.03048 0.23377 0.0
N1744 N 0.74257 0.9679 0.26759 0.0
N1745 N 0.76615 0.01737 0.25877 0.0
H1746 H 0.00207 0.76282 0.36781 0.0
H1747 H 0.97581 0.75071 0.15561 0.0
H1748 H 0.04064 0.77585 0.28001 0.0
H1749 H 0.93714 0.72487 0.24311 0.0
H1750 H -0.00042 0.76834 0.20107 0.0
H1751 H 0.97838 0.75734 0.32263 0.0
C1752 C 0.00568 0.76504 0.33913 0.0
C1753 C 0.02325 0.76955 0.32756 0.0
C1754 C 0.98578 0.7591 0.21025 0.0
C1755 C -0.00372 0.76319 0.27583 0.0
C1756 C 0.9722 0.74915 0.1843 0.0
C1757 C 0.95457 0.73616 0.19568 0.0
C1758 C 0.98162 0.75608 0.24772 0.0
C1759 C 0.95064 0.73459 0.23322 0.0
C1760 C -0.00787 0.7618 0.31334 0.0
C1761 C 0.02717 0.77216 0.29003 0.0
N1762 N 0.9641 0.74424 0.2579 0.0
N1763 N 0.01376 0.76873 0.2655 0.0
loop_
_geom_bond_atom_site_label_1
_geom_bond_atom_site_label_2
_geom_bond_distance
_geom_bond_site_symmetry_2
_ccdc_geom_bond_type
In0 O1 2.294 . S
In0 O2 2.326 . S
In0 O6 2.266 . S
In0 O7 2.326 . S
In0 O8 2.266 . S
In0 O9 2.326 . S
In0 O11 2.294 . S
In0 O12 2.326 . S
O1 In0 2.294 . S
O1 C10 1.240 . S
O2 In0 2.326 . S
O2 C10 1.252 . S
C3 O6 1.252 . S
C3 O7 1.260 . S
C4 O11 1.240 . S
C4 O12 1.252 . S
C5 O8 1.252 . S
C5 O9 1.260 . S
O6 In0 2.266 . S
O6 C3 1.252 . S
O7 In0 2.326 . S
O7 C3 1.260 . S
O8 In0 2.266 . S
O8 C5 1.252 . S
O9 In0 2.326 . S
O9 C5 1.260 . S
C10 O1 1.240 . S
C10 O2 1.252 . S
O11 In0 2.294 . S
O11 C4 1.240 . S
O12 In0 2.326 . S
O12 C4 1.252 . S
In13 O14 2.294 . S
In13 O15 2.326 . S
In13 O19 2.266 . S
In13 O20 2.326 . S
In13 O21 2.266 . S
In13 O22 2.326 . S
In13 O24 2.294 . S
In13 O25 2.326 . S
O14 In13 2.294 . S
O14 C23 1.240 . S
O15 In13 2.326 . S
O15 C23 1.252 . S
C16 O19 1.252 . S
C16 O20 1.260 . S
C17 O24 1.240 . S
C17 O25 1.252 . S
C18 O21 1.252 . S
C18 O22 1.260 . S
O19 In13 2.266 . S
O19 C16 1.252 . S
O20 In13 2.326 . S
O20 C16 1.260 . S
O21 In13 2.266 . S
O21 C18 1.252 . S
O22 In13 2.326 . S
O22 C18 1.260 . S
C23 O14 1.240 . S
C23 O15 1.252 . S
O24 In13 2.294 . S
O24 C17 1.240 . S
O25 In13 2.326 . S
O25 C17 1.252 . S
In26 O27 2.294 . S
In26 O28 2.326 . S
In26 O32 2.266 . S
In26 O33 2.326 . S
In26 O34 2.266 . S
In26 O35 2.326 . S
In26 O37 2.294 . S
In26 O38 2.326 . S
O27 In26 2.294 . S
O27 C36 1.240 . S
O28 In26 2.326 . S
O28 C36 1.252 . S
C29 O32 1.252 . S
C29 O33 1.260 . S
C30 O37 1.240 . S
C30 O38 1.252 . S
C31 O34 1.252 . S
C31 O35 1.260 . S
O32 In26 2.266 . S
O32 C29 1.252 . S
O33 In26 2.326 . S
O33 C29 1.260 . S
O34 In26 2.266 . S
O34 C31 1.252 . S
O35 In26 2.326 . S
O35 C31 1.260 . S
C36 O27 1.240 . S
C36 O28 1.252 . S
O37 In26 2.294 . S
O37 C30 1.240 . S
O38 In26 2.326 . S
O38 C30 1.252 . S
In39 O40 2.294 . S
In39 O41 2.326 . S
In39 O45 2.266 . S
In39 O46 2.326 . S
In39 O47 2.266 . S
In39 O48 2.326 . S
In39 O50 2.294 . S
In39 O51 2.326 . S
O40 In39 2.294 . S
O40 C49 1.240 . S
O41 In39 2.326 . S
O41 C49 1.252 . S
C42 O45 1.252 . S
C42 O46 1.260 . S
C43 O50 1.240 . S
C43 O51 1.252 . S
C44 O47 1.252 . S
C44 O48 1.260 . S
O45 In39 2.266 . S
O45 C42 1.252 . S
O46 In39 2.326 . S
O46 C42 1.260 . S
O47 In39 2.266 . S
O47 C44 1.252 . S
O48 In39 2.326 . S
O48 C44 1.260 . S
C49 O40 1.240 . S
C49 O41 1.252 . S
O50 In39 2.294 . S
O50 C43 1.240 . S
O51 In39 2.326 . S
O51 C43 1.252 . S
In52 O53 2.294 . S
In52 O54 2.326 . S
In52 O58 2.266 . S
In52 O59 2.326 . S
In52 O60 2.266 . S
In52 O61 2.326 . S
In52 O63 2.294 . S
In52 O64 2.326 . S
O53 In52 2.294 . S
O53 C62 1.240 . S
O54 In52 2.326 . S
O54 C62 1.252 . S
C55 O58 1.252 . S
C55 O59 1.260 . S
C56 O63 1.240 . S
C56 O64 1.252 . S
C57 O60 1.252 . S
C57 O61 1.260 . S
O58 In52 2.266 . S
O58 C55 1.252 . S
O59 In52 2.326 . S
O59 C55 1.260 . S
O60 In52 2.266 . S
O60 C57 1.252 . S
O61 In52 2.326 . S
O61 C57 1.260 . S
C62 O53 1.240 . S
C62 O54 1.252 . S
O63 In52 2.294 . S
O63 C56 1.240 . S
O64 In52 2.326 . S
O64 C56 1.252 . S
In65 O66 2.294 . S
In65 O67 2.326 . S
In65 O71 2.266 . S
In65 O72 2.326 . S
In65 O73 2.266 . S
In65 O74 2.326 . S
In65 O76 2.294 . S
In65 O77 2.326 . S
O66 In65 2.294 . S
O66 C75 1.240 . S
O67 In65 2.326 . S
O67 C75 1.252 . S
C68 O71 1.252 . S
C68 O72 1.260 . S
C69 O76 1.240 . S
C69 O77 1.252 . S
C70 O73 1.252 . S
C70 O74 1.260 . S
O71 In65 2.266 . S
O71 C68 1.252 . S
O72 In65 2.326 . S
O72 C68 1.260 . S
O73 In65 2.266 . S
O73 C70 1.252 . S
O74 In65 2.326 . S
O74 C70 1.260 . S
C75 O66 1.240 . S
C75 O67 1.252 . S
O76 In65 2.294 . S
O76 C69 1.240 . S
O77 In65 2.326 . S
O77 C69 1.252 . S
In78 O79 2.294 . S
In78 O80 2.326 . S
In78 O84 2.266 . S
In78 O85 2.326 . S
In78 O86 2.266 . S
In78 O87 2.326 . S
In78 O89 2.294 . S
In78 O90 2.326 . S
O79 In78 2.294 . S
O79 C88 1.240 . S
O80 In78 2.326 . S
O80 C88 1.252 . S
C81 O84 1.252 . S
C81 O85 1.260 . S
C82 O89 1.240 . S
C82 O90 1.252 . S
C83 O86 1.252 . S
C83 O87 1.260 . S
O84 In78 2.266 . S
O84 C81 1.252 . S
O85 In78 2.326 . S
O85 C81 1.260 . S
O86 In78 2.266 . S
O86 C83 1.252 . S
O87 In78 2.326 . S
O87 C83 1.260 . S
C88 O79 1.240 . S
C88 O80 1.252 . S
O89 In78 2.294 . S
O89 C82 1.240 . S
O90 In78 2.326 . S
O90 C82 1.252 . S
In91 O92 2.294 . S
In91 O93 2.326 . S
In91 O97 2.266 . S
In91 O98 2.326 . S
In91 O99 2.266 . S
In91 O100 2.326 . S
In91 O102 2.294 . S
In91 O103 2.326 . S
O92 In91 2.294 . S
O92 C101 1.240 . S
O93 In91 2.326 . S
O93 C101 1.252 . S
C94 O97 1.252 . S
C94 O98 1.260 . S
C95 O102 1.240 . S
C95 O103 1.252 . S
C96 O99 1.252 . S
C96 O100 1.260 . S
O97 In91 2.266 . S
O97 C94 1.252 . S
O98 In91 2.326 . S
O98 C94 1.260 . S
O99 In91 2.266 . S
O99 C96 1.252 . S
O100 In91 2.326 . S
O100 C96 1.260 . S
C101 O92 1.240 . S
C101 O93 1.252 . S
O102 In91 2.294 . S
O102 C95 1.240 . S
O103 In91 2.326 . S
O103 C95 1.252 . S
In104 O105 2.294 . S
In104 O106 2.326 . S
In104 O110 2.266 . S
In104 O111 2.326 . S
In104 O112 2.266 . S
In104 O113 2.326 . S
In104 O115 2.294 . S
In104 O116 2.326 . S
O105 In104 2.294 . S
O105 C114 1.240 . S
O106 In104 2.326 . S
O106 C114 1.252 . S
C107 O110 1.252 . S
C107 O111 1.260 . S
C108 O115 1.240 . S
C108 O116 1.252 . S
C109 O112 1.252 . S
C109 O113 1.260 . S
O110 In104 2.266 . S
O110 C107 1.252 . S
O111 In104 2.326 . S
O111 C107 1.260 . S
O112 In104 2.266 . S
O112 C109 1.252 . S
O113 In104 2.326 . S
O113 C109 1.260 . S
C114 O105 1.240 . S
C114 O106 1.252 . S
O115 In104 2.294 . S
O115 C108 1.240 . S
O116 In104 2.326 . S
O116 C108 1.252 . S
In117 O118 2.294 . S
In117 O119 2.326 . S
In117 O123 2.266 . S
In117 O124 2.326 . S
In117 O125 2.266 . S
In117 O126 2.326 . S
In117 O128 2.294 . S
In117 O129 2.326 . S
O118 In117 2.294 . S
O118 C127 1.240 . S
O119 In117 2.326 . S
O119 C127 1.252 . S
C120 O123 1.252 . S
C120 O124 1.260 . S
C121 O128 1.240 . S
C121 O129 1.252 . S
C122 O125 1.252 . S
C122 O126 1.260 . S
O123 In117 2.266 . S
O123 C120 1.252 . S
O124 In117 2.326 . S
O124 C120 1.260 . S
O125 In117 2.266 . S
O125 C122 1.252 . S
O126 In117 2.326 . S
O126 C122 1.260 . S
C127 O118 1.240 . S
C127 O119 1.252 . S
O128 In117 2.294 . S
O128 C121 1.240 . S
O129 In117 2.326 . S
O129 C121 1.252 . S
In130 O131 2.294 . S
In130 O132 2.326 . S
In130 O136 2.266 . S
In130 O137 2.326 . S
In130 O138 2.266 . S
In130 O139 2.326 . S
In130 O141 2.294 . S
In130 O142 2.326 . S
O131 In130 2.294 . S
O131 C140 1.240 . S
O132 In130 2.326 . S
O132 C140 1.252 . S
C133 O136 1.252 . S
C133 O137 1.260 . S
C134 O141 1.240 . S
C134 O142 1.252 . S
C135 O138 1.252 . S
C135 O139 1.260 . S
O136 In130 2.266 . S
O136 C133 1.252 . S
O137 In130 2.326 . S
O137 C133 1.260 . S
O138 In130 2.266 . S
O138 C135 1.252 . S
O139 In130 2.326 . S
O139 C135 1.260 . S
C140 O131 1.240 . S
C140 O132 1.252 . S
O141 In130 2.294 . S
O141 C134 1.240 . S
O142 In130 2.326 . S
O142 C134 1.252 . S
In143 O144 2.294 . S
In143 O145 2.326 . S
In143 O149 2.266 . S
In143 O150 2.326 . S
In143 O151 2.266 . S
In143 O152 2.326 . S
In143 O154 2.294 . S
In143 O155 2.326 . S
O144 In143 2.294 . S
O144 C153 1.240 . S
O145 In143 2.326 . S
O145 C153 1.252 . S
C146 O149 1.252 . S
C146 O150 1.260 . S
C147 O154 1.240 . S
C147 O155 1.252 . S
C148 O151 1.252 . S
C148 O152 1.260 . S
O149 In143 2.266 . S
O149 C146 1.252 . S
O150 In143 2.326 . S
O150 C146 1.260 . S
O151 In143 2.266 . S
O151 C148 1.252 . S
O152 In143 2.326 . S
O152 C148 1.260 . S
C153 O144 1.240 . S
C153 O145 1.252 . S
O154 In143 2.294 . S
O154 C147 1.240 . S
O155 In143 2.326 . S
O155 C147 1.252 . S
In156 O157 2.294 . S
In156 O158 2.326 . S
In156 O162 2.266 . S
In156 O163 2.326 . S
In156 O164 2.266 . S
In156 O165 2.326 . S
In156 O167 2.294 . S
In156 O168 2.326 . S
O157 In156 2.294 . S
O157 C166 1.240 . S
O158 In156 2.326 . S
O158 C166 1.252 . S
C159 O162 1.252 . S
C159 O163 1.260 . S
C160 O167 1.240 . S
C160 O168 1.252 . S
C161 O164 1.252 . S
C161 O165 1.260 . S
O162 In156 2.266 . S
O162 C159 1.252 . S
O163 In156 2.326 . S
O163 C159 1.260 . S
O164 In156 2.266 . S
O164 C161 1.252 . S
O165 In156 2.326 . S
O165 C161 1.260 . S
C166 O157 1.240 . S
C166 O158 1.252 . S
O167 In156 2.294 . S
O167 C160 1.240 . S
O168 In156 2.326 . S
O168 C160 1.252 . S
In169 O170 2.294 . S
In169 O171 2.326 . S
In169 O175 2.266 . S
In169 O176 2.326 . S
In169 O177 2.266 . S
In169 O178 2.326 . S
In169 O180 2.294 . S
In169 O181 2.326 . S
O170 In169 2.294 . S
O170 C179 1.240 . S
O171 In169 2.326 . S
O171 C179 1.252 . S
C172 O175 1.252 . S
C172 O176 1.260 . S
C173 O180 1.240 . S
C173 O181 1.252 . S
C174 O177 1.252 . S
C174 O178 1.260 . S
O175 In169 2.266 . S
O175 C172 1.252 . S
O176 In169 2.326 . S
O176 C172 1.260 . S
O177 In169 2.266 . S
O177 C174 1.252 . S
O178 In169 2.326 . S
O178 C174 1.260 . S
C179 O170 1.240 . S
C179 O171 1.252 . S
O180 In169 2.294 . S
O180 C173 1.240 . S
O181 In169 2.326 . S
O181 C173 1.252 . S
In182 O183 2.294 . S
In182 O184 2.326 . S
In182 O188 2.266 . S
In182 O189 2.326 . S
In182 O190 2.266 . S
In182 O191 2.326 . S
In182 O193 2.294 . S
In182 O194 2.326 . S
O183 In182 2.294 . S
O183 C192 1.240 . S
O184 In182 2.326 . S
O184 C192 1.252 . S
C185 O188 1.252 . S
C185 O189 1.260 . S
C186 O193 1.240 . S
C186 O194 1.252 . S
C187 O190 1.252 . S
C187 O191 1.260 . S
O188 In182 2.266 . S
O188 C185 1.252 . S
O189 In182 2.326 . S
O189 C185 1.260 . S
O190 In182 2.266 . S
O190 C187 1.252 . S
O191 In182 2.326 . S
O191 C187 1.260 . S
C192 O183 1.240 . S
C192 O184 1.252 . S
O193 In182 2.294 . S
O193 C186 1.240 . S
O194 In182 2.326 . S
O194 C186 1.252 . S
In195 O196 2.294 . S
In195 O197 2.326 . S
In195 O201 2.266 . S
In195 O202 2.326 . S
In195 O203 2.266 . S
In195 O204 2.326 . S
In195 O206 2.294 . S
In195 O207 2.326 . S
O196 In195 2.294 . S
O196 C205 1.240 . S
O197 In195 2.326 . S
O197 C205 1.252 . S
C198 O201 1.252 . S
C198 O202 1.260 . S
C199 O206 1.240 . S
C199 O207 1.252 . S
C200 O203 1.252 . S
C200 O204 1.260 . S
O201 In195 2.266 . S
O201 C198 1.252 . S
O202 In195 2.326 . S
O202 C198 1.260 . S
O203 In195 2.266 . S
O203 C200 1.252 . S
O204 In195 2.326 . S
O204 C200 1.260 . S
C205 O196 1.240 . S
C205 O197 1.252 . S
O206 In195 2.294 . S
O206 C199 1.240 . S
O207 In195 2.326 . S
O207 C199 1.252 . S
In208 O209 2.294 . S
In208 O210 2.326 . S
In208 O214 2.266 . S
In208 O215 2.326 . S
In208 O216 2.266 . S
In208 O217 2.326 . S
In208 O219 2.294 . S
In208 O220 2.326 . S
O209 In208 2.294 . S
O209 C218 1.240 . S
O210 In208 2.326 . S
O210 C218 1.252 . S
C211 O214 1.252 . S
C211 O215 1.260 . S
C212 O219 1.240 . S
C212 O220 1.252 . S
C213 O216 1.252 . S
C213 O217 1.260 . S
O214 In208 2.266 . S
O214 C211 1.252 . S
O215 In208 2.326 . S
O215 C211 1.260 . S
O216 In208 2.266 . S
O216 C213 1.252 . S
O217 In208 2.326 . S
O217 C213 1.260 . S
C218 O209 1.240 . S
C218 O210 1.252 . S
O219 In208 2.294 . S
O219 C212 1.240 . S
O220 In208 2.326 . S
O220 C212 1.252 . S
In221 O222 2.294 . S
In221 O223 2.326 . S
In221 O227 2.266 . S
In221 O228 2.326 . S
In221 O229 2.266 . S
In221 O230 2.326 . S
In221 O232 2.294 . S
In221 O233 2.326 . S
O222 In221 2.294 . S
O222 C231 1.240 . S
O223 In221 2.326 . S
O223 C231 1.252 . S
C224 O227 1.252 . S
C224 O228 1.260 . S
C225 O232 1.240 . S
C225 O233 1.252 . S
C226 O229 1.252 . S
C226 O230 1.260 . S
O227 In221 2.266 . S
O227 C224 1.252 . S
O228 In221 2.326 . S
O228 C224 1.260 . S
O229 In221 2.266 . S
O229 C226 1.252 . S
O230 In221 2.326 . S
O230 C226 1.260 . S
C231 O222 1.240 . S
C231 O223 1.252 . S
O232 In221 2.294 . S
O232 C225 1.240 . S
O233 In221 2.326 . S
O233 C225 1.252 . S
In234 O235 2.294 . S
In234 O236 2.326 . S
In234 O240 2.266 . S
In234 O241 2.326 . S
In234 O242 2.266 . S
In234 O243 2.326 . S
In234 O245 2.294 . S
In234 O246 2.326 . S
O235 In234 2.294 . S
O235 C244 1.240 . S
O236 In234 2.326 . S
O236 C244 1.252 . S
C237 O240 1.252 . S
C237 O241 1.260 . S
C238 O245 1.240 . S
C238 O246 1.252 . S
C239 O242 1.252 . S
C239 O243 1.260 . S
O240 In234 2.266 . S
O240 C237 1.252 . S
O241 In234 2.326 . S
O241 C237 1.260 . S
O242 In234 2.266 . S
O242 C239 1.252 . S
O243 In234 2.326 . S
O243 C239 1.260 . S
C244 O235 1.240 . S
C244 O236 1.252 . S
O245 In234 2.294 . S
O245 C238 1.240 . S
O246 In234 2.326 . S
O246 C238 1.252 . S
In247 O248 2.294 . S
In247 O249 2.326 . S
In247 O253 2.266 . S
In247 O254 2.326 . S
In247 O255 2.266 . S
In247 O256 2.326 . S
In247 O258 2.294 . S
In247 O259 2.326 . S
O248 In247 2.294 . S
O248 C257 1.240 . S
O249 In247 2.326 . S
O249 C257 1.252 . S
C250 O253 1.252 . S
C250 O254 1.260 . S
C251 O258 1.240 . S
C251 O259 1.252 . S
C252 O255 1.252 . S
C252 O256 1.260 . S
O253 In247 2.266 . S
O253 C250 1.252 . S
O254 In247 2.326 . S
O254 C250 1.260 . S
O255 In247 2.266 . S
O255 C252 1.252 . S
O256 In247 2.326 . S
O256 C252 1.260 . S
C257 O248 1.240 . S
C257 O249 1.252 . S
O258 In247 2.294 . S
O258 C251 1.240 . S
O259 In247 2.326 . S
O259 C251 1.252 . S
In260 O261 2.294 . S
In260 O262 2.326 . S
In260 O266 2.266 . S
In260 O267 2.326 . S
In260 O268 2.266 . S
In260 O269 2.326 . S
In260 O271 2.294 . S
In260 O272 2.326 . S
O261 In260 2.294 . S
O261 C270 1.240 . S
O262 In260 2.326 . S
O262 C270 1.252 . S
C263 O266 1.252 . S
C263 O267 1.260 . S
C264 O271 1.240 . S
C264 O272 1.252 . S
C265 O268 1.252 . S
C265 O269 1.260 . S
O266 In260 2.266 . S
O266 C263 1.252 . S
O267 In260 2.326 . S
O267 C263 1.260 . S
O268 In260 2.266 . S
O268 C265 1.252 . S
O269 In260 2.326 . S
O269 C265 1.260 . S
C270 O261 1.240 . S
C270 O262 1.252 . S
O271 In260 2.294 . S
O271 C264 1.240 . S
O272 In260 2.326 . S
O272 C264 1.252 . S
In273 O274 2.294 . S
In273 O275 2.326 . S
In273 O279 2.266 . S
In273 O280 2.326 . S
In273 O281 2.266 . S
In273 O282 2.326 . S
In273 O284 2.294 . S
In273 O285 2.326 . S
O274 In273 2.294 . S
O274 C283 1.240 . S
O275 In273 2.326 . S
O275 C283 1.252 . S
C276 O279 1.252 . S
C276 O280 1.260 . S
C277 O284 1.240 . S
C277 O285 1.252 . S
C278 O281 1.252 . S
C278 O282 1.260 . S
O279 In273 2.266 . S
O279 C276 1.252 . S
O280 In273 2.326 . S
O280 C276 1.260 . S
O281 In273 2.266 . S
O281 C278 1.252 . S
O282 In273 2.326 . S
O282 C278 1.260 . S
C283 O274 1.240 . S
C283 O275 1.252 . S
O284 In273 2.294 . S
O284 C277 1.240 . S
O285 In273 2.326 . S
O285 C277 1.252 . S
In286 O287 2.294 . S
In286 O288 2.326 . S
In286 O292 2.266 . S
In286 O293 2.326 . S
In286 O294 2.266 . S
In286 O295 2.326 . S
In286 O297 2.294 . S
In286 O298 2.326 . S
O287 In286 2.294 . S
O287 C296 1.240 . S
O288 In286 2.326 . S
O288 C296 1.252 . S
C289 O292 1.252 . S
C289 O293 1.260 . S
C290 O297 1.240 . S
C290 O298 1.252 . S
C291 O294 1.252 . S
C291 O295 1.260 . S
O292 In286 2.266 . S
O292 C289 1.252 . S
O293 In286 2.326 . S
O293 C289 1.260 . S
O294 In286 2.266 . S
O294 C291 1.252 . S
O295 In286 2.326 . S
O295 C291 1.260 . S
C296 O287 1.240 . S
C296 O288 1.252 . S
O297 In286 2.294 . S
O297 C290 1.240 . S
O298 In286 2.326 . S
O298 C290 1.252 . S
In299 O300 2.294 . S
In299 O301 2.326 . S
In299 O305 2.266 . S
In299 O306 2.326 . S
In299 O307 2.266 . S
In299 O308 2.326 . S
In299 O310 2.294 . S
In299 O311 2.326 . S
O300 In299 2.294 . S
O300 C309 1.240 . S
O301 In299 2.326 . S
O301 C309 1.252 . S
C302 O305 1.252 . S
C302 O306 1.260 . S
C303 O310 1.240 . S
C303 O311 1.252 . S
C304 O307 1.252 . S
C304 O308 1.260 . S
O305 In299 2.266 . S
O305 C302 1.252 . S
O306 In299 2.326 . S
O306 C302 1.260 . S
O307 In299 2.266 . S
O307 C304 1.252 . S
O308 In299 2.326 . S
O308 C304 1.260 . S
C309 O300 1.240 . S
C309 O301 1.252 . S
O310 In299 2.294 . S
O310 C303 1.240 . S
O311 In299 2.326 . S
O311 C303 1.252 . S
In312 O313 2.294 . S
In312 O314 2.326 . S
In312 O318 2.266 . S
In312 O319 2.326 . S
In312 O320 2.266 . S
In312 O321 2.326 . S
In312 O323 2.294 . S
In312 O324 2.326 . S
O313 In312 2.294 . S
O313 C322 1.240 . S
O314 In312 2.326 . S
O314 C322 1.252 . S
C315 O318 1.252 . S
C315 O319 1.260 . S
C316 O323 1.240 . S
C316 O324 1.252 . S
C317 O320 1.252 . S
C317 O321 1.260 . S
O318 In312 2.266 . S
O318 C315 1.252 . S
O319 In312 2.326 . S
O319 C315 1.260 . S
O320 In312 2.266 . S
O320 C317 1.252 . S
O321 In312 2.326 . S
O321 C317 1.260 . S
C322 O313 1.240 . S
C322 O314 1.252 . S
O323 In312 2.294 . S
O323 C316 1.240 . S
O324 In312 2.326 . S
O324 C316 1.252 . S
In325 O326 2.294 . S
In325 O327 2.326 . S
In325 O331 2.266 . S
In325 O332 2.326 . S
In325 O333 2.266 . S
In325 O334 2.326 . S
In325 O336 2.294 . S
In325 O337 2.326 . S
O326 In325 2.294 . S
O326 C335 1.240 . S
O327 In325 2.326 . S
O327 C335 1.252 . S
C328 O331 1.252 . S
C328 O332 1.260 . S
C329 O336 1.240 . S
C329 O337 1.252 . S
C330 O333 1.252 . S
C330 O334 1.260 . S
O331 In325 2.266 . S
O331 C328 1.252 . S
O332 In325 2.326 . S
O332 C328 1.260 . S
O333 In325 2.266 . S
O333 C330 1.252 . S
O334 In325 2.326 . S
O334 C330 1.260 . S
C335 O326 1.240 . S
C335 O327 1.252 . S
O336 In325 2.294 . S
O336 C329 1.240 . S
O337 In325 2.326 . S
O337 C329 1.252 . S
In338 O339 2.294 . S
In338 O340 2.326 . S
In338 O344 2.266 . S
In338 O345 2.326 . S
In338 O346 2.266 . S
In338 O347 2.326 . S
In338 O349 2.294 . S
In338 O350 2.326 . S
O339 In338 2.294 . S
O339 C348 1.240 . S
O340 In338 2.326 . S
O340 C348 1.252 . S
C341 O344 1.252 . S
C341 O345 1.260 . S
C342 O349 1.240 . S
C342 O350 1.252 . S
C343 O346 1.252 . S
C343 O347 1.260 . S
O344 In338 2.266 . S
O344 C341 1.252 . S
O345 In338 2.326 . S
O345 C341 1.260 . S
O346 In338 2.266 . S
O346 C343 1.252 . S
O347 In338 2.326 . S
O347 C343 1.260 . S
C348 O339 1.240 . S
C348 O340 1.252 . S
O349 In338 2.294 . S
O349 C342 1.240 . S
O350 In338 2.326 . S
O350 C342 1.252 . S
In351 O352 2.294 . S
In351 O353 2.326 . S
In351 O357 2.266 . S
In351 O358 2.326 . S
In351 O359 2.266 . S
In351 O360 2.326 . S
In351 O362 2.294 . S
In351 O363 2.326 . S
O352 In351 2.294 . S
O352 C361 1.240 . S
O353 In351 2.326 . S
O353 C361 1.252 . S
C354 O357 1.252 . S
C354 O358 1.260 . S
C355 O362 1.240 . S
C355 O363 1.252 . S
C356 O359 1.252 . S
C356 O360 1.260 . S
O357 In351 2.266 . S
O357 C354 1.252 . S
O358 In351 2.326 . S
O358 C354 1.260 . S
O359 In351 2.266 . S
O359 C356 1.252 . S
O360 In351 2.326 . S
O360 C356 1.260 . S
C361 O352 1.240 . S
C361 O353 1.252 . S
O362 In351 2.294 . S
O362 C355 1.240 . S
O363 In351 2.326 . S
O363 C355 1.252 . S
In364 O365 2.294 . S
In364 O366 2.326 . S
In364 O370 2.266 . S
In364 O371 2.326 . S
In364 O372 2.266 . S
In364 O373 2.326 . S
In364 O375 2.294 . S
In364 O376 2.326 . S
O365 In364 2.294 . S
O365 C374 1.240 . S
O366 In364 2.326 . S
O366 C374 1.252 . S
C367 O370 1.252 . S
C367 O371 1.260 . S
C368 O375 1.240 . S
C368 O376 1.252 . S
C369 O372 1.252 . S
C369 O373 1.260 . S
O370 In364 2.266 . S
O370 C367 1.252 . S
O371 In364 2.326 . S
O371 C367 1.260 . S
O372 In364 2.266 . S
O372 C369 1.252 . S
O373 In364 2.326 . S
O373 C369 1.260 . S
C374 O365 1.240 . S
C374 O366 1.252 . S
O375 In364 2.294 . S
O375 C368 1.240 . S
O376 In364 2.326 . S
O376 C368 1.252 . S
In377 O378 2.294 . S
In377 O379 2.326 . S
In377 O383 2.266 . S
In377 O384 2.326 . S
In377 O385 2.266 . S
In377 O386 2.326 . S
In377 O388 2.294 . S
In377 O389 2.326 . S
O378 In377 2.294 . S
O378 C387 1.240 . S
O379 In377 2.326 . S
O379 C387 1.252 . S
C380 O383 1.252 . S
C380 O384 1.260 . S
C381 O388 1.240 . S
C381 O389 1.252 . S
C382 O385 1.252 . S
C382 O386 1.260 . S
O383 In377 2.266 . S
O383 C380 1.252 . S
O384 In377 2.326 . S
O384 C380 1.260 . S
O385 In377 2.266 . S
O385 C382 1.252 . S
O386 In377 2.326 . S
O386 C382 1.260 . S
C387 O378 1.240 . S
C387 O379 1.252 . S
O388 In377 2.294 . S
O388 C381 1.240 . S
O389 In377 2.326 . S
O389 C381 1.252 . S
In390 O391 2.294 . S
In390 O392 2.326 . S
In390 O396 2.266 . S
In390 O397 2.326 . S
In390 O398 2.266 . S
In390 O399 2.326 . S
In390 O401 2.294 . S
In390 O402 2.326 . S
O391 In390 2.294 . S
O391 C400 1.240 . S
O392 In390 2.326 . S
O392 C400 1.252 . S
C393 O396 1.252 . S
C393 O397 1.260 . S
C394 O401 1.240 . S
C394 O402 1.252 . S
C395 O398 1.252 . S
C395 O399 1.260 . S
O396 In390 2.266 . S
O396 C393 1.252 . S
O397 In390 2.326 . S
O397 C393 1.260 . S
O398 In390 2.266 . S
O398 C395 1.252 . S
O399 In390 2.326 . S
O399 C395 1.260 . S
C400 O391 1.240 . S
C400 O392 1.252 . S
O401 In390 2.294 . S
O401 C394 1.240 . S
O402 In390 2.326 . S
O402 C394 1.252 . S
In403 O404 2.294 . S
In403 O405 2.326 . S
In403 O409 2.266 . S
In403 O410 2.326 . S
In403 O411 2.266 . S
In403 O412 2.326 . S
In403 O414 2.294 . S
In403 O415 2.326 . S
O404 In403 2.294 . S
O404 C413 1.240 . S
O405 In403 2.326 . S
O405 C413 1.252 . S
C406 O409 1.252 . S
C406 O410 1.260 . S
C407 O414 1.240 . S
C407 O415 1.252 . S
C408 O411 1.252 . S
C408 O412 1.260 . S
O409 In403 2.266 . S
O409 C406 1.252 . S
O410 In403 2.326 . S
O410 C406 1.260 . S
O411 In403 2.266 . S
O411 C408 1.252 . S
O412 In403 2.326 . S
O412 C408 1.260 . S
C413 O404 1.240 . S
C413 O405 1.252 . S
O414 In403 2.294 . S
O414 C407 1.240 . S
O415 In403 2.326 . S
O415 C407 1.252 . S
In416 O417 2.294 . S
In416 O418 2.326 . S
In416 O422 2.266 . S
In416 O423 2.326 . S
In416 O424 2.266 . S
In416 O425 2.326 . S
In416 O427 2.294 . S
In416 O428 2.326 . S
O417 In416 2.294 . S
O417 C426 1.240 . S
O418 In416 2.326 . S
O418 C426 1.252 . S
C419 O422 1.252 . S
C419 O423 1.260 . S
C420 O427 1.240 . S
C420 O428 1.252 . S
C421 O424 1.252 . S
C421 O425 1.260 . S
O422 In416 2.266 . S
O422 C419 1.252 . S
O423 In416 2.326 . S
O423 C419 1.260 . S
O424 In416 2.266 . S
O424 C421 1.252 . S
O425 In416 2.326 . S
O425 C421 1.260 . S
C426 O417 1.240 . S
C426 O418 1.252 . S
O427 In416 2.294 . S
O427 C420 1.240 . S
O428 In416 2.326 . S
O428 C420 1.252 . S
In429 O430 2.294 . S
In429 O431 2.326 . S
In429 O435 2.266 . S
In429 O436 2.326 . S
In429 O437 2.266 . S
In429 O438 2.326 . S
In429 O440 2.294 . S
In429 O441 2.326 . S
O430 In429 2.294 . S
O430 C439 1.240 . S
O431 In429 2.326 . S
O431 C439 1.252 . S
C432 O435 1.252 . S
C432 O436 1.260 . S
C433 O440 1.240 . S
C433 O441 1.252 . S
C434 O437 1.252 . S
C434 O438 1.260 . S
O435 In429 2.266 . S
O435 C432 1.252 . S
O436 In429 2.326 . S
O436 C432 1.260 . S
O437 In429 2.266 . S
O437 C434 1.252 . S
O438 In429 2.326 . S
O438 C434 1.260 . S
C439 O430 1.240 . S
C439 O431 1.252 . S
O440 In429 2.294 . S
O440 C433 1.240 . S
O441 In429 2.326 . S
O441 C433 1.252 . S
In442 O443 2.294 . S
In442 O444 2.326 . S
In442 O448 2.266 . S
In442 O449 2.326 . S
In442 O450 2.266 . S
In442 O451 2.326 . S
In442 O453 2.294 . S
In442 O454 2.326 . S
O443 In442 2.294 . S
O443 C452 1.240 . S
O444 In442 2.326 . S
O444 C452 1.252 . S
C445 O448 1.252 . S
C445 O449 1.260 . S
C446 O453 1.240 . S
C446 O454 1.252 . S
C447 O450 1.252 . S
C447 O451 1.260 . S
O448 In442 2.266 . S
O448 C445 1.252 . S
O449 In442 2.326 . S
O449 C445 1.260 . S
O450 In442 2.266 . S
O450 C447 1.252 . S
O451 In442 2.326 . S
O451 C447 1.260 . S
C452 O443 1.240 . S
C452 O444 1.252 . S
O453 In442 2.294 . S
O453 C446 1.240 . S
O454 In442 2.326 . S
O454 C446 1.252 . S
In455 O456 2.294 . S
In455 O457 2.326 . S
In455 O461 2.266 . S
In455 O462 2.326 . S
In455 O463 2.266 . S
In455 O464 2.326 . S
In455 O466 2.294 . S
In455 O467 2.326 . S
O456 In455 2.294 . S
O456 C465 1.240 . S
O457 In455 2.326 . S
O457 C465 1.252 . S
C458 O461 1.252 . S
C458 O462 1.260 . S
C459 O466 1.240 . S
C459 O467 1.252 . S
C460 O463 1.252 . S
C460 O464 1.260 . S
O461 In455 2.266 . S
O461 C458 1.252 . S
O462 In455 2.326 . S
O462 C458 1.260 . S
O463 In455 2.266 . S
O463 C460 1.252 . S
O464 In455 2.326 . S
O464 C460 1.260 . S
C465 O456 1.240 . S
C465 O457 1.252 . S
O466 In455 2.294 . S
O466 C459 1.240 . S
O467 In455 2.326 . S
O467 C459 1.252 . S
H468 C474 0.930 . S
H469 C478 0.930 . S
H470 C483 0.929 . S
H471 C481 0.929 . S
H472 C476 0.929 . S
H473 C482 0.929 . S
C474 H468 0.930 . S
C474 C475 1.367 . S
C474 C482 1.378 . S
C475 C474 1.367 . S
C475 C483 1.433 . S
C476 H472 0.929 . S
C476 C478 1.378 . S
C476 C480 1.350 . S
C477 C480 1.463 1_565 S
C477 C482 1.350 . S
C477 N485 1.427 . S
C478 H469 0.930 . S
C478 C476 1.378 . S
C478 C479 1.367 . S
C479 C478 1.367 . S
C479 C481 1.433 . S
C480 C476 1.350 . S
C480 C477 1.463 1_545 S
C480 N484 1.427 . S
C481 H471 0.929 . S
C481 C479 1.433 . S
C481 N484 1.384 . S
C482 H473 0.929 . S
C482 C474 1.378 . S
C482 C477 1.350 . S
C483 H470 0.929 . S
C483 C475 1.433 . S
C483 N485 1.384 . S
N484 C480 1.427 . S
N484 C481 1.384 . S
N485 C477 1.427 . S
N485 C483 1.384 . S
H486 C492 0.930 . S
H487 C496 0.930 . S
H488 C501 0.929 . S
H489 C499 0.929 . S
H490 C494 0.929 . S
H491 C500 0.929 . S
C492 H486 0.930 . S
C492 C493 1.367 . S
C492 C500 1.378 . S
C493 C492 1.367 . S
C493 C501 1.433 . S
C494 H490 0.929 . S
C494 C496 1.378 . S
C494 C498 1.350 . S
C495 C498 1.463 1_455 S
C495 C500 1.350 . S
C495 N503 1.427 . S
C496 H487 0.930 . S
C496 C494 1.378 . S
C496 C497 1.367 . S
C497 C496 1.367 . S
C497 C499 1.433 . S
C498 C494 1.350 . S
C498 C495 1.463 1_655 S
C498 N502 1.427 . S
C499 H489 0.929 . S
C499 C497 1.433 . S
C499 N502 1.384 . S
C500 H491 0.929 . S
C500 C492 1.378 . S
C500 C495 1.350 . S
C501 H488 0.929 . S
C501 C493 1.433 . S
C501 N503 1.384 . S
N502 C498 1.427 . S
N502 C499 1.384 . S
N503 C495 1.427 . S
N503 C501 1.384 . S
H504 C510 0.930 . S
H505 C514 0.930 . S
H506 C519 0.929 . S
H507 C517 0.929 . S
H508 C512 0.929 . S
H509 C518 0.929 . S
C510 H504 0.930 . S
C510 C511 1.367 . S
C510 C518 1.378 . S
C511 C510 1.367 . S
C511 C519 1.433 . S
C512 H508 0.929 . S
C512 C514 1.378 . S
C512 C516 1.350 . S
C513 C516 1.463 . S
C513 C518 1.350 . S
C513 N521 1.427 . S
C514 H505 0.930 . S
C514 C512 1.378 . S
C514 C515 1.367 . S
C515 C514 1.367 . S
C515 C517 1.433 . S
C516 C512 1.350 . S
C516 C513 1.463 . S
C516 N520 1.427 . S
C517 H507 0.929 . S
C517 C515 1.433 . S
C517 N520 1.384 . S
C518 H509 0.929 . S
C518 C510 1.378 . S
C518 C513 1.350 . S
C519 H506 0.929 . S
C519 C511 1.433 . S
C519 N521 1.384 . S
N520 C516 1.427 . S
N520 C517 1.384 . S
N521 C513 1.427 . S
N521 C519 1.384 . S
H522 C528 0.930 . S
H523 C532 0.930 . S
H524 C537 0.929 . S
H525 C535 0.929 . S
H526 C530 0.929 . S
H527 C536 0.929 . S
C528 H522 0.930 . S
C528 C529 1.367 . S
C528 C536 1.378 . S
C529 C528 1.367 . S
C529 C537 1.433 . S
C530 H526 0.929 . S
C530 C532 1.378 . S
C530 C534 1.350 . S
C531 C534 1.463 1_565 S
C531 C536 1.350 . S
C531 N539 1.427 . S
C532 H523 0.930 . S
C532 C530 1.378 . S
C532 C533 1.367 . S
C533 C532 1.367 . S
C533 C535 1.433 . S
C534 C530 1.350 . S
C534 C531 1.463 1_545 S
C534 N538 1.427 . S
C535 H525 0.929 . S
C535 C533 1.433 . S
C535 N538 1.384 . S
C536 H527 0.929 . S
C536 C528 1.378 . S
C536 C531 1.350 . S
C537 H524 0.929 . S
C537 C529 1.433 . S
C537 N539 1.384 . S
N538 C534 1.427 . S
N538 C535 1.384 . S
N539 C531 1.427 . S
N539 C537 1.384 . S
H540 C546 0.930 . S
H541 C550 0.930 . S
H542 C555 0.929 . S
H543 C553 0.929 . S
H544 C548 0.929 . S
H545 C554 0.929 . S
C546 H540 0.930 . S
C546 C547 1.367 . S
C546 C554 1.378 . S
C547 C546 1.367 . S
C547 C555 1.433 . S
C548 H544 0.929 . S
C548 C550 1.378 . S
C548 C552 1.350 . S
C549 C552 1.463 1_455 S
C549 C554 1.350 . S
C549 N557 1.427 . S
C550 H541 0.930 . S
C550 C548 1.378 . S
C550 C551 1.367 . S
C551 C550 1.367 . S
C551 C553 1.433 . S
C552 C548 1.350 . S
C552 C549 1.463 1_655 S
C552 N556 1.427 . S
C553 H543 0.929 . S
C553 C551 1.433 . S
C553 N556 1.384 . S
C554 H545 0.929 . S
C554 C546 1.378 . S
C554 C549 1.350 . S
C555 H542 0.929 . S
C555 C547 1.433 . S
C555 N557 1.384 . S
N556 C552 1.427 . S
N556 C553 1.384 . S
N557 C549 1.427 . S
N557 C555 1.384 . S
H558 C564 0.930 . S
H559 C568 0.930 . S
H560 C573 0.929 . S
H561 C571 0.929 . S
H562 C566 0.929 . S
H563 C572 0.929 . S
C564 H558 0.930 . S
C564 C565 1.367 . S
C564 C572 1.378 . S
C565 C564 1.367 . S
C565 C573 1.433 . S
C566 H562 0.929 . S
C566 C568 1.378 . S
C566 C570 1.350 . S
C567 C570 1.463 . S
C567 C572 1.350 . S
C567 N575 1.427 . S
C568 H559 0.930 . S
C568 C566 1.378 . S
C568 C569 1.367 . S
C569 C568 1.367 . S
C569 C571 1.433 . S
C570 C566 1.350 . S
C570 C567 1.463 . S
C570 N574 1.427 . S
C571 H561 0.929 . S
C571 C569 1.433 . S
C571 N574 1.384 . S
C572 H563 0.929 . S
C572 C564 1.378 . S
C572 C567 1.350 . S
C573 H560 0.929 . S
C573 C565 1.433 . S
C573 N575 1.384 . S
N574 C570 1.427 . S
N574 C571 1.384 . S
N575 C567 1.427 . S
N575 C573 1.384 . S
H576 C582 0.930 . S
H577 C586 0.930 . S
H578 C591 0.929 . S
H579 C589 0.929 . S
H580 C584 0.929 . S
H581 C590 0.929 . S
C582 H576 0.930 . S
C582 C583 1.367 1_655 S
C582 C590 1.378 . S
C583 C582 1.367 1_455 S
C583 C591 1.433 . S
C584 H580 0.929 . S
C584 C586 1.378 . S
C584 C588 1.350 . S
C585 C588 1.463 . S
C585 C590 1.350 . S
C585 N593 1.427 . S
C586 H577 0.930 . S
C586 C584 1.378 . S
C586 C587 1.367 . S
C587 C586 1.367 . S
C587 C589 1.433 . S
C588 C584 1.350 . S
C588 C585 1.463 . S
C588 N592 1.427 . S
C589 H579 0.929 . S
C589 C587 1.433 . S
C589 N592 1.384 . S
C590 H581 0.929 . S
C590 C582 1.378 . S
C590 C585 1.350 . S
C591 H578 0.929 . S
C591 C583 1.433 . S
C591 N593 1.384 1_455 S
N592 C588 1.427 . S
N592 C589 1.384 . S
N593 C585 1.427 . S
N593 C591 1.384 1_655 S
H594 C600 0.930 . S
H595 C604 0.930 . S
H596 C609 0.929 . S
H597 C607 0.929 . S
H598 C602 0.929 . S
H599 C608 0.929 . S
C600 H594 0.930 . S
C600 C601 1.367 . S
C600 C608 1.378 . S
C601 C600 1.367 . S
C601 C609 1.433 . S
C602 H598 0.929 . S
C602 C604 1.378 . S
C602 C606 1.350 . S
C603 C606 1.463 . S
C603 C608 1.350 . S
C603 N611 1.427 . S
C604 H595 0.930 . S
C604 C602 1.378 . S
C604 C605 1.367 . S
C605 C604 1.367 . S
C605 C607 1.433 . S
C606 C602 1.350 . S
C606 C603 1.463 . S
C606 N610 1.427 . S
C607 H597 0.929 . S
C607 C605 1.433 . S
C607 N610 1.384 . S
C608 H599 0.929 . S
C608 C600 1.378 . S
C608 C603 1.350 . S
C609 H596 0.929 . S
C609 C601 1.433 . S
C609 N611 1.384 . S
N610 C606 1.427 . S
N610 C607 1.384 . S
N611 C603 1.427 . S
N611 C609 1.384 . S
H612 C618 0.930 . S
H613 C622 0.930 . S
H614 C627 0.929 . S
H615 C625 0.929 . S
H616 C620 0.929 . S
H617 C626 0.929 . S
C618 H612 0.930 . S
C618 C619 1.367 . S
C618 C626 1.378 . S
C619 C618 1.367 . S
C619 C627 1.433 . S
C620 H616 0.929 . S
C620 C622 1.378 . S
C620 C624 1.350 . S
C621 C624 1.463 . S
C621 C626 1.350 . S
C621 N629 1.427 . S
C622 H613 0.930 . S
C622 C620 1.378 . S
C622 C623 1.367 1_545 S
C623 C622 1.367 1_565 S
C623 C625 1.433 . S
C624 C620 1.350 . S
C624 C621 1.463 . S
C624 N628 1.427 1_545 S
C625 H615 0.929 . S
C625 C623 1.433 . S
C625 N628 1.384 . S
C626 H617 0.929 . S
C626 C618 1.378 . S
C626 C621 1.350 . S
C627 H614 0.929 . S
C627 C619 1.433 . S
C627 N629 1.384 . S
N628 C624 1.427 1_565 S
N628 C625 1.384 . S
N629 C621 1.427 . S
N629 C627 1.384 . S
H630 C636 0.930 . S
H631 C640 0.930 . S
H632 C645 0.929 . S
H633 C643 0.929 . S
H634 C638 0.929 . S
H635 C644 0.929 . S
C636 H630 0.930 . S
C636 C637 1.367 . S
C636 C644 1.378 . S
C637 C636 1.367 . S
C637 C645 1.433 . S
C638 H634 0.929 . S
C638 C640 1.378 . S
C638 C642 1.350 . S
C639 C642 1.463 . S
C639 C644 1.350 . S
C639 N647 1.427 . S
C640 H631 0.930 . S
C640 C638 1.378 . S
C640 C641 1.367 . S
C641 C640 1.367 . S
C641 C643 1.433 . S
C642 C638 1.350 . S
C642 C639 1.463 . S
C642 N646 1.427 . S
C643 H633 0.929 . S
C643 C641 1.433 . S
C643 N646 1.384 . S
C644 H635 0.929 . S
C644 C636 1.378 . S
C644 C639 1.350 . S
C645 H632 0.929 . S
C645 C637 1.433 . S
C645 N647 1.384 . S
N646 C642 1.427 . S
N646 C643 1.384 . S
N647 C639 1.427 . S
N647 C645 1.384 . S
H648 C654 0.930 . S
H649 C658 0.930 . S
H650 C663 0.929 . S
H651 C661 0.929 . S
H652 C656 0.929 . S
H653 C662 0.929 . S
C654 H648 0.930 . S
C654 C655 1.367 1_545 S
C654 C662 1.378 . S
C655 C654 1.367 1_565 S
C655 C663 1.433 . S
C656 H652 0.929 . S
C656 C658 1.378 . S
C656 C660 1.350 . S
C657 C660 1.463 . S
C657 C662 1.350 . S
C657 N665 1.427 1_545 S
C658 H649 0.930 . S
C658 C656 1.378 . S
C658 C659 1.367 . S
C659 C658 1.367 . S
C659 C661 1.433 . S
C660 C656 1.350 . S
C660 C657 1.463 . S
C660 N664 1.427 . S
C661 H651 0.929 . S
C661 C659 1.433 . S
C661 N664 1.384 . S
C662 H653 0.929 . S
C662 C654 1.378 . S
C662 C657 1.350 . S
C663 H650 0.929 . S
C663 C655 1.433 . S
C663 N665 1.384 . S
N664 C660 1.427 . S
N664 C661 1.384 . S
N665 C657 1.427 1_565 S
N665 C663 1.384 . S
H666 C672 0.930 . S
H667 C676 0.930 . S
H668 C681 0.929 . S
H669 C679 0.929 . S
H670 C674 0.929 . S
H671 C680 0.929 . S
C672 H666 0.930 . S
C672 C673 1.367 . S
C672 C680 1.378 . S
C673 C672 1.367 . S
C673 C681 1.433 . S
C674 H670 0.929 . S
C674 C676 1.378 . S
C674 C678 1.350 . S
C675 C678 1.463 . S
C675 C680 1.350 . S
C675 N683 1.427 . S
C676 H667 0.930 . S
C676 C674 1.378 . S
C676 C677 1.367 1_655 S
C677 C676 1.367 1_455 S
C677 C679 1.433 . S
C678 C674 1.350 . S
C678 C675 1.463 . S
C678 N682 1.452 . S
C679 H669 0.929 . S
C679 C677 1.433 . S
C679 N682 1.347 1_455 S
C680 H671 0.929 . S
C680 C672 1.378 . S
C680 C675 1.350 . S
C681 H668 0.929 . S
C681 C673 1.433 . S
C681 N683 1.384 . S
N682 C678 1.452 . S
N682 C679 1.347 1_655 S
N683 C675 1.427 . S
N683 C681 1.384 . S
H684 C690 0.930 . S
H685 C694 0.930 . S
H686 C699 0.929 . S
H687 C697 0.929 . S
H688 C692 0.929 . S
H689 C698 0.929 . S
C690 H684 0.930 . S
C690 C691 1.367 . S
C690 C698 1.378 . S
C691 C690 1.367 . S
C691 C699 1.433 . S
C692 H688 0.929 . S
C692 C694 1.378 . S
C692 C696 1.350 . S
C693 C696 1.463 . S
C693 C698 1.350 . S
C693 N701 1.427 . S
C694 H685 0.930 . S
C694 C692 1.378 . S
C694 C695 1.367 . S
C695 C694 1.367 . S
C695 C697 1.433 . S
C696 C692 1.350 . S
C696 C693 1.463 . S
C696 N700 1.427 . S
C697 H687 0.929 . S
C697 C695 1.433 . S
C697 N700 1.384 . S
C698 H689 0.929 . S
C698 C690 1.378 . S
C698 C693 1.350 . S
C699 H686 0.929 . S
C699 C691 1.433 . S
C699 N701 1.384 . S
N700 C696 1.427 . S
N700 C697 1.384 . S
N701 C693 1.427 . S
N701 C699 1.384 . S
H702 C708 0.930 . S
H703 C712 0.930 . S
H704 C717 0.929 . S
H705 C715 0.929 . S
H706 C710 0.929 . S
H707 C716 0.929 . S
C708 H702 0.930 . S
C708 C709 1.367 . S
C708 C716 1.378 . S
C709 C708 1.367 . S
C709 C717 1.433 1_545 S
C710 H706 0.929 . S
C710 C712 1.378 . S
C710 C714 1.350 . S
C711 C714 1.463 . S
C711 C716 1.350 1_565 S
C711 N719 1.427 . S
C712 H703 0.930 . S
C712 C710 1.378 . S
C712 C713 1.367 . S
C713 C712 1.367 . S
C713 C715 1.433 . S
C714 C710 1.350 . S
C714 C711 1.463 . S
C714 N718 1.427 . S
C715 H705 0.929 . S
C715 C713 1.433 . S
C715 N718 1.384 . S
C716 H707 0.929 . S
C716 C708 1.378 . S
C716 C711 1.350 1_545 S
C717 H704 0.929 . S
C717 C709 1.433 1_565 S
C717 N719 1.384 . S
N718 C714 1.427 . S
N718 C715 1.384 . S
N719 C711 1.427 . S
N719 C717 1.384 . S
H720 C726 0.930 . S
H721 C730 0.930 . S
H722 C735 0.929 . S
H723 C733 0.929 . S
H724 C728 0.929 . S
H725 C734 0.929 . S
C726 H720 0.930 . S
C726 C727 1.367 . S
C726 C734 1.378 . S
C727 C726 1.367 . S
C727 C735 1.433 . S
C728 H724 0.929 . S
C728 C730 1.378 . S
C728 C732 1.350 . S
C729 C732 1.463 . S
C729 C734 1.350 . S
C729 N737 1.427 . S
C730 H721 0.930 . S
C730 C728 1.378 . S
C730 C731 1.367 1_455 S
C731 C730 1.367 1_655 S
C731 C733 1.433 . S
C732 C728 1.350 . S
C732 C729 1.463 . S
C732 N736 1.427 . S
C733 H723 0.929 . S
C733 C731 1.433 . S
C733 N736 1.384 1_655 S
C734 H725 0.929 . S
C734 C726 1.378 . S
C734 C729 1.350 . S
C735 H722 0.929 . S
C735 C727 1.433 . S
C735 N737 1.384 . S
N736 C732 1.427 . S
N736 C733 1.384 1_455 S
N737 C729 1.427 . S
N737 C735 1.384 . S
H738 C744 0.930 . S
H739 C748 0.930 . S
H740 C753 0.929 . S
H741 C751 0.929 . S
H742 C746 0.927 . S
H743 C752 0.929 . S
C744 H738 0.930 . S
C744 C745 1.367 . S
C744 C752 1.378 . S
C745 C744 1.367 . S
C745 C753 1.433 . S
C746 H742 0.927 . S
C746 C748 1.378 . S
C746 C750 1.352 1_655 S
C747 C750 1.463 . S
C747 C752 1.350 . S
C747 N755 1.427 . S
C748 H739 0.930 . S
C748 C746 1.378 . S
C748 C749 1.367 . S
C749 C748 1.367 . S
C749 C751 1.433 1_655 S
C750 C746 1.352 1_455 S
C750 C747 1.463 . S
C750 N754 1.427 . S
C751 H741 0.929 . S
C751 C749 1.433 1_455 S
C751 N754 1.384 . S
C752 H743 0.929 . S
C752 C744 1.378 . S
C752 C747 1.350 . S
C753 H740 0.929 . S
C753 C745 1.433 . S
C753 N755 1.384 . S
N754 C750 1.427 . S
N754 C751 1.384 . S
N755 C747 1.427 . S
N755 C753 1.384 . S
H756 C762 0.930 . S
H757 C766 0.930 . S
H758 C771 0.929 . S
H759 C769 0.929 . S
H760 C764 0.929 . S
H761 C770 0.929 . S
C762 H756 0.930 . S
C762 C763 1.367 . S
C762 C770 1.378 . S
C763 C762 1.367 . S
C763 C771 1.433 . S
C764 H760 0.929 . S
C764 C766 1.378 . S
C764 C768 1.350 . S
C765 C768 1.463 . S
C765 C770 1.350 . S
C765 N773 1.427 . S
C766 H757 0.930 . S
C766 C764 1.378 . S
C766 C767 1.367 . S
C767 C766 1.367 . S
C767 C769 1.433 . S
C768 C764 1.350 . S
C768 C765 1.463 . S
C768 N772 1.427 . S
C769 H759 0.929 . S
C769 C767 1.433 . S
C769 N772 1.384 . S
C770 H761 0.929 . S
C770 C762 1.378 . S
C770 C765 1.350 . S
C771 H758 0.929 . S
C771 C763 1.433 . S
C771 N773 1.384 . S
N772 C768 1.427 . S
N772 C769 1.384 . S
N773 C765 1.427 . S
N773 C771 1.384 . S
H774 C780 0.930 . S
H775 C784 0.930 . S
H776 C789 0.929 . S
H777 C787 0.929 . S
H778 C782 0.929 . S
H779 C788 0.929 . S
C780 H774 0.930 . S
C780 C781 1.367 . S
C780 C788 1.378 . S
C781 C780 1.367 . S
C781 C789 1.433 . S
C782 H778 0.929 . S
C782 C784 1.378 1_565 S
C782 C786 1.350 . S
C783 C786 1.463 . S
C783 C788 1.350 . S
C783 N791 1.427 . S
C784 H775 0.930 . S
C784 C782 1.378 1_545 S
C784 C785 1.367 . S
C785 C784 1.367 . S
C785 C787 1.433 1_545 S
C786 C782 1.350 . S
C786 C783 1.463 . S
C786 N790 1.427 . S
C787 H777 0.929 . S
C787 C785 1.433 1_565 S
C787 N790 1.384 . S
C788 H779 0.929 . S
C788 C780 1.378 . S
C788 C783 1.350 . S
C789 H776 0.929 . S
C789 C781 1.433 . S
C789 N791 1.384 . S
N790 C786 1.427 . S
N790 C787 1.384 . S
N791 C783 1.427 . S
N791 C789 1.384 . S
H792 C798 0.930 . S
H793 C802 0.930 . S
H794 C807 0.929 . S
H795 C805 0.929 . S
H796 C800 0.929 . S
H797 C806 0.929 . S
C798 H792 0.930 . S
C798 C799 1.367 . S
C798 C806 1.378 . S
C799 C798 1.367 . S
C799 C807 1.433 . S
C800 H796 0.929 . S
C800 C802 1.378 . S
C800 C804 1.350 . S
C801 C804 1.463 . S
C801 C806 1.350 . S
C801 N809 1.427 . S
C802 H793 0.930 . S
C802 C800 1.378 . S
C802 C803 1.367 . S
C803 C802 1.367 . S
C803 C805 1.433 . S
C804 C800 1.350 . S
C804 C801 1.463 . S
C804 N808 1.427 . S
C805 H795 0.929 . S
C805 C803 1.433 . S
C805 N808 1.384 . S
C806 H797 0.929 . S
C806 C798 1.378 . S
C806 C801 1.350 . S
C807 H794 0.929 . S
C807 C799 1.433 . S
C807 N809 1.384 . S
N808 C804 1.427 . S
N808 C805 1.384 . S
N809 C801 1.427 . S
N809 C807 1.384 . S
H810 C816 0.930 . S
H811 C820 0.930 . S
H812 C825 0.929 . S
H813 C823 0.929 . S
H814 C818 0.929 . S
H815 C824 0.929 . S
C816 H810 0.930 . S
C816 C817 1.367 . S
C816 C824 1.378 . S
C817 C816 1.367 . S
C817 C825 1.433 . S
C818 H814 0.929 . S
C818 C820 1.378 . S
C818 C822 1.350 . S
C819 C822 1.463 . S
C819 C824 1.350 . S
C819 N827 1.427 . S
C820 H811 0.930 . S
C820 C818 1.378 . S
C820 C821 1.367 . S
C821 C820 1.367 . S
C821 C823 1.433 . S
C822 C818 1.350 . S
C822 C819 1.463 . S
C822 N826 1.427 . S
C823 H813 0.929 . S
C823 C821 1.433 . S
C823 N826 1.384 . S
C824 H815 0.929 . S
C824 C816 1.378 . S
C824 C819 1.350 . S
C825 H812 0.929 . S
C825 C817 1.433 . S
C825 N827 1.384 . S
N826 C822 1.427 . S
N826 C823 1.384 . S
N827 C819 1.427 . S
N827 C825 1.384 . S
H828 C834 0.930 . S
H829 C838 0.930 . S
H830 C843 0.929 . S
H831 C841 0.929 . S
H832 C836 0.929 . S
H833 C842 0.929 . S
C834 H828 0.930 . S
C834 C835 1.367 . S
C834 C842 1.378 . S
C835 C834 1.367 . S
C835 C843 1.433 . S
C836 H832 0.929 . S
C836 C838 1.378 . S
C836 C840 1.350 . S
C837 C840 1.463 . S
C837 C842 1.350 . S
C837 N845 1.427 . S
C838 H829 0.930 . S
C838 C836 1.378 . S
C838 C839 1.367 . S
C839 C838 1.367 . S
C839 C841 1.433 . S
C840 C836 1.350 . S
C840 C837 1.463 . S
C840 N844 1.427 . S
C841 H831 0.929 . S
C841 C839 1.433 . S
C841 N844 1.384 . S
C842 H833 0.929 . S
C842 C834 1.378 . S
C842 C837 1.350 . S
C843 H830 0.929 . S
C843 C835 1.433 . S
C843 N845 1.384 . S
N844 C840 1.427 . S
N844 C841 1.384 . S
N845 C837 1.427 . S
N845 C843 1.384 . S
H846 C852 0.930 . S
H847 C856 0.930 1_556 S
H848 C861 0.929 . S
H849 C859 0.929 . S
H850 C854 0.929 . S
H851 C860 0.929 . S
C852 H846 0.930 . S
C852 C853 1.367 . S
C852 C860 1.378 . S
C853 C852 1.367 . S
C853 C861 1.433 . S
C854 H850 0.929 . S
C854 C856 1.378 . S
C854 C858 1.350 . S
C855 C858 1.463 . S
C855 C860 1.350 . S
C855 N863 1.427 . S
C856 H847 0.930 1_554 S
C856 C854 1.378 . S
C856 C857 1.367 . S
C857 C856 1.367 . S
C857 C859 1.433 . S
C858 C854 1.350 . S
C858 C855 1.463 . S
C858 N862 1.427 . S
C859 H849 0.929 . S
C859 C857 1.433 . S
C859 N862 1.384 . S
C860 H851 0.929 . S
C860 C852 1.378 . S
C860 C855 1.350 . S
C861 H848 0.929 . S
C861 C853 1.433 . S
C861 N863 1.384 . S
N862 C858 1.427 . S
N862 C859 1.384 . S
N863 C855 1.427 . S
N863 C861 1.384 . S
H864 C870 0.930 . S
H865 C874 0.930 . S
H866 C879 0.929 . S
H867 C877 0.937 . S
H868 C872 0.929 . S
H869 C878 0.929 . S
C870 H864 0.930 . S
C870 C871 1.367 . S
C870 C878 1.378 . S
C871 C870 1.367 . S
C871 C879 1.433 . S
C872 H868 0.929 . S
C872 C874 1.378 . S
C872 C876 1.350 . S
C873 C876 1.463 . S
C873 C878 1.350 . S
C873 N881 1.427 . S
C874 H865 0.930 . S
C874 C872 1.378 . S
C874 C875 1.367 . S
C875 C874 1.367 . S
C875 C877 1.433 . S
C876 C872 1.350 . S
C876 C873 1.463 . S
C876 N880 1.427 . S
C877 H867 0.937 . S
C877 C875 1.433 . S
C877 N880 1.384 . S
C878 H869 0.929 . S
C878 C870 1.378 . S
C878 C873 1.350 . S
C879 H866 0.929 . S
C879 C871 1.433 . S
C879 N881 1.384 . S
N880 C876 1.427 . S
N880 C877 1.384 . S
N881 C873 1.427 . S
N881 C879 1.384 . S
H882 C888 0.930 . S
H883 C892 0.930 . S
H884 C897 0.929 . S
H885 C895 0.929 . S
H886 C890 0.929 . S
H887 C896 0.929 . S
C888 H882 0.930 . S
C888 C889 1.367 . S
C888 C896 1.378 . S
C889 C888 1.367 . S
C889 C897 1.433 . S
C890 H886 0.929 . S
C890 C892 1.378 . S
C890 C894 1.350 . S
C891 C894 1.463 . S
C891 C896 1.350 . S
C891 N899 1.427 . S
C892 H883 0.930 . S
C892 C890 1.378 . S
C892 C893 1.367 . S
C893 C892 1.367 . S
C893 C895 1.433 . S
C894 C890 1.350 . S
C894 C891 1.463 . S
C894 N898 1.427 . S
C895 H885 0.929 . S
C895 C893 1.433 . S
C895 N898 1.384 . S
C896 H887 0.929 . S
C896 C888 1.378 . S
C896 C891 1.350 . S
C897 H884 0.929 . S
C897 C889 1.433 . S
C897 N899 1.384 . S
N898 C894 1.427 . S
N898 C895 1.384 . S
N899 C891 1.427 . S
N899 C897 1.384 . S
H900 C906 0.930 . S
H901 C910 0.930 . S
H902 C915 0.929 . S
H903 C913 0.929 . S
H904 C908 0.929 . S
H905 C914 0.929 . S
C906 H900 0.930 . S
C906 C907 1.367 . S
C906 C914 1.378 . S
C907 C906 1.367 . S
C907 C915 1.433 . S
C908 H904 0.929 . S
C908 C910 1.378 . S
C908 C912 1.350 . S
C909 C912 1.463 . S
C909 C914 1.350 . S
C909 N917 1.427 . S
C910 H901 0.930 . S
C910 C908 1.378 . S
C910 C911 1.367 . S
C911 C910 1.367 . S
C911 C913 1.433 . S
C912 C908 1.350 . S
C912 C909 1.463 . S
C912 N916 1.427 . S
C913 H903 0.929 . S
C913 C911 1.433 . S
C913 N916 1.384 . S
C914 H905 0.929 . S
C914 C906 1.378 . S
C914 C909 1.350 . S
C915 H902 0.929 . S
C915 C907 1.433 . S
C915 N917 1.384 . S
N916 C912 1.427 . S
N916 C913 1.384 . S
N917 C909 1.427 . S
N917 C915 1.384 . S
H918 C924 0.930 . S
H919 C928 0.930 . S
H920 C933 0.929 . S
H921 C931 0.929 . S
H922 C926 0.929 . S
H923 C932 0.929 . S
C924 H918 0.930 . S
C924 C925 1.367 . S
C924 C932 1.378 . S
C925 C924 1.367 . S
C925 C933 1.433 . S
C926 H922 0.929 . S
C926 C928 1.378 . S
C926 C930 1.350 . S
C927 C930 1.463 . S
C927 C932 1.350 . S
C927 N935 1.427 . S
C928 H919 0.930 . S
C928 C926 1.378 . S
C928 C929 1.367 . S
C929 C928 1.367 . S
C929 C931 1.433 . S
C930 C926 1.350 . S
C930 C927 1.463 . S
C930 N934 1.427 . S
C931 H921 0.929 . S
C931 C929 1.433 . S
C931 N934 1.384 . S
C932 H923 0.929 . S
C932 C924 1.378 . S
C932 C927 1.350 . S
C933 H920 0.929 . S
C933 C925 1.433 . S
C933 N935 1.384 . S
N934 C930 1.427 . S
N934 C931 1.384 . S
N935 C927 1.427 . S
N935 C933 1.384 . S
H936 C942 0.930 . S
H937 C946 0.930 . S
H938 C951 0.929 . S
H939 C949 0.929 . S
H940 C944 0.929 . S
H941 C950 0.929 . S
C942 H936 0.930 . S
C942 C943 1.367 . S
C942 C950 1.378 . S
C943 C942 1.367 . S
C943 C951 1.433 . S
C944 H940 0.929 . S
C944 C946 1.378 . S
C944 C948 1.350 . S
C945 C948 1.463 . S
C945 C950 1.350 . S
C945 N953 1.427 . S
C946 H937 0.930 . S
C946 C944 1.378 . S
C946 C947 1.367 . S
C947 C946 1.367 . S
C947 C949 1.433 . S
C948 C944 1.350 . S
C948 C945 1.463 . S
C948 N952 1.427 . S
C949 H939 0.929 . S
C949 C947 1.433 . S
C949 N952 1.384 . S
C950 H941 0.929 . S
C950 C942 1.378 . S
C950 C945 1.350 . S
C951 H938 0.929 . S
C951 C943 1.433 . S
C951 N953 1.384 . S
N952 C948 1.427 . S
N952 C949 1.384 . S
N953 C945 1.427 . S
N953 C951 1.384 . S
H954 C960 0.930 . S
H955 C964 0.930 . S
H956 C969 0.929 1_554 S
H957 C967 0.929 . S
H958 C962 0.929 . S
H959 C968 0.929 . S
C960 H954 0.930 . S
C960 C961 1.367 . S
C960 C968 1.378 . S
C961 C960 1.367 . S
C961 C969 1.433 . S
C962 H958 0.929 . S
C962 C964 1.378 . S
C962 C966 1.350 . S
C963 C966 1.463 . S
C963 C968 1.350 . S
C963 N971 1.427 . S
C964 H955 0.930 . S
C964 C962 1.378 . S
C964 C965 1.367 . S
C965 C964 1.367 . S
C965 C967 1.433 . S
C966 C962 1.350 . S
C966 C963 1.463 . S
C966 N970 1.427 . S
C967 H957 0.929 . S
C967 C965 1.433 . S
C967 N970 1.384 . S
C968 H959 0.929 . S
C968 C960 1.378 . S
C968 C963 1.350 . S
C969 H956 0.929 1_556 S
C969 C961 1.433 . S
C969 N971 1.384 . S
N970 C966 1.427 . S
N970 C967 1.384 . S
N971 C963 1.427 . S
N971 C969 1.384 . S
H972 C978 0.930 . S
H973 C982 0.930 . S
H974 C987 0.929 . S
H975 C985 0.929 . S
H976 C980 0.929 . S
H977 C986 0.929 . S
C978 H972 0.930 . S
C978 C979 1.367 . S
C978 C986 1.378 . S
C979 C978 1.367 . S
C979 C987 1.433 . S
C980 H976 0.929 . S
C980 C982 1.378 . S
C980 C984 1.350 . S
C981 C984 1.463 . S
C981 C986 1.350 . S
C981 N989 1.427 . S
C982 H973 0.930 . S
C982 C980 1.378 . S
C982 C983 1.367 . S
C983 C982 1.367 . S
C983 C985 1.433 . S
C984 C980 1.350 . S
C984 C981 1.463 . S
C984 N988 1.427 . S
C985 H975 0.929 . S
C985 C983 1.433 . S
C985 N988 1.384 . S
C986 H977 0.929 . S
C986 C978 1.378 . S
C986 C981 1.350 . S
C987 H974 0.929 . S
C987 C979 1.433 . S
C987 N989 1.384 . S
N988 C984 1.427 . S
N988 C985 1.384 . S
N989 C981 1.427 . S
N989 C987 1.384 . S
H990 C996 0.930 . S
H991 C1000 0.930 . S
H992 C1005 0.929 . S
H993 C1003 0.929 1_554 S
H994 C998 0.929 . S
H995 C1004 0.929 . S
C996 H990 0.930 . S
C996 C997 1.367 . S
C996 C1004 1.378 . S
C997 C996 1.367 . S
C997 C1005 1.433 . S
C998 H994 0.929 . S
C998 C1000 1.378 . S
C998 C1002 1.350 . S
C999 C1002 1.463 . S
C999 C1004 1.350 . S
C999 N1007 1.427 . S
C1000 H991 0.930 . S
C1000 C998 1.378 . S
C1000 C1001 1.367 . S
C1001 C1000 1.367 . S
C1001 C1003 1.433 . S
C1002 C998 1.350 . S
C1002 C999 1.463 . S
C1002 N1006 1.427 . S
C1003 H993 0.929 1_556 S
C1003 C1001 1.433 . S
C1003 N1006 1.384 . S
C1004 H995 0.929 . S
C1004 C996 1.378 . S
C1004 C999 1.350 . S
C1005 H992 0.929 . S
C1005 C997 1.433 . S
C1005 N1007 1.384 . S
N1006 C1002 1.427 . S
N1006 C1003 1.384 . S
N1007 C999 1.427 . S
N1007 C1005 1.384 . S
H1008 C1014 0.930 . S
H1009 C1018 0.930 . S
H1010 C1023 0.929 . S
H1011 C1021 0.929 . S
H1012 C1016 0.929 . S
H1013 C1022 0.929 . S
C1014 H1008 0.930 . S
C1014 C1015 1.367 . S
C1014 C1022 1.378 . S
C1015 C1014 1.367 . S
C1015 C1023 1.433 . S
C1016 H1012 0.929 . S
C1016 C1018 1.378 . S
C1016 C1020 1.350 . S
C1017 C1020 1.463 1_455 S
C1017 C1022 1.350 . S
C1017 N1025 1.427 . S
C1018 H1009 0.930 . S
C1018 C1016 1.378 . S
C1018 C1019 1.367 . S
C1019 C1018 1.367 . S
C1019 C1021 1.433 . S
C1020 C1016 1.350 . S
C1020 C1017 1.463 1_655 S
C1020 N1024 1.427 . S
C1021 H1011 0.929 . S
C1021 C1019 1.433 . S
C1021 N1024 1.384 . S
C1022 H1013 0.929 . S
C1022 C1014 1.378 . S
C1022 C1017 1.350 . S
C1023 H1010 0.929 . S
C1023 C1015 1.433 . S
C1023 N1025 1.384 . S
N1024 C1020 1.427 . S
N1024 C1021 1.384 . S
N1025 C1017 1.427 . S
N1025 C1023 1.384 . S
H1026 C1032 0.930 . S
H1027 C1036 0.930 . S
H1028 C1041 0.929 . S
H1029 C1039 0.929 . S
H1030 C1034 0.929 . S
H1031 C1040 0.929 . S
C1032 H1026 0.930 . S
C1032 C1033 1.367 . S
C1032 C1040 1.378 . S
C1033 C1032 1.367 . S
C1033 C1041 1.433 . S
C1034 H1030 0.929 . S
C1034 C1036 1.378 . S
C1034 C1038 1.350 . S
C1035 C1038 1.463 . S
C1035 C1040 1.350 . S
C1035 N1043 1.427 . S
C1036 H1027 0.930 . S
C1036 C1034 1.378 . S
C1036 C1037 1.367 . S
C1037 C1036 1.367 . S
C1037 C1039 1.433 . S
C1038 C1034 1.350 . S
C1038 C1035 1.463 . S
C1038 N1042 1.427 . S
C1039 H1029 0.929 . S
C1039 C1037 1.433 . S
C1039 N1042 1.384 . S
C1040 H1031 0.929 . S
C1040 C1032 1.378 . S
C1040 C1035 1.350 . S
C1041 H1028 0.929 . S
C1041 C1033 1.433 . S
C1041 N1043 1.384 . S
N1042 C1038 1.427 . S
N1042 C1039 1.384 . S
N1043 C1035 1.427 . S
N1043 C1041 1.384 . S
H1044 C1050 0.930 . S
H1045 C1054 0.930 . S
H1046 C1059 0.929 . S
H1047 C1057 0.929 . S
H1048 C1052 0.929 . S
H1049 C1058 0.929 . S
C1050 H1044 0.930 . S
C1050 C1051 1.367 . S
C1050 C1058 1.378 . S
C1051 C1050 1.367 . S
C1051 C1059 1.433 . S
C1052 H1048 0.929 . S
C1052 C1054 1.378 . S
C1052 C1056 1.350 . S
C1053 C1056 1.463 1_545 S
C1053 C1058 1.350 . S
C1053 N1061 1.427 . S
C1054 H1045 0.930 . S
C1054 C1052 1.378 . S
C1054 C1055 1.367 . S
C1055 C1054 1.367 . S
C1055 C1057 1.433 . S
C1056 C1052 1.350 . S
C1056 C1053 1.463 1_565 S
C1056 N1060 1.427 . S
C1057 H1047 0.929 . S
C1057 C1055 1.433 . S
C1057 N1060 1.384 . S
C1058 H1049 0.929 . S
C1058 C1050 1.378 . S
C1058 C1053 1.350 . S
C1059 H1046 0.929 . S
C1059 C1051 1.433 . S
C1059 N1061 1.384 . S
N1060 C1056 1.427 . S
N1060 C1057 1.384 . S
N1061 C1053 1.427 . S
N1061 C1059 1.384 . S
H1062 C1068 0.930 . S
H1063 C1072 0.930 . S
H1064 C1077 0.929 . S
H1065 C1075 0.929 . S
H1066 C1070 0.929 . S
H1067 C1076 0.929 . S
C1068 H1062 0.930 . S
C1068 C1069 1.367 . S
C1068 C1076 1.378 . S
C1069 C1068 1.367 . S
C1069 C1077 1.433 . S
C1070 H1066 0.929 . S
C1070 C1072 1.378 . S
C1070 C1074 1.350 . S
C1071 C1074 1.463 1_565 S
C1071 C1076 1.350 . S
C1071 N1079 1.452 . S
C1072 H1063 0.930 . S
C1072 C1070 1.378 . S
C1072 C1073 1.367 . S
C1073 C1072 1.367 . S
C1073 C1075 1.433 . S
C1074 C1070 1.350 . S
C1074 C1071 1.463 1_545 S
C1074 N1078 1.452 . S
C1075 H1065 0.929 . S
C1075 C1073 1.433 . S
C1075 N1078 1.406 . S
C1076 H1067 0.929 . S
C1076 C1068 1.378 . S
C1076 C1071 1.350 . S
C1077 H1064 0.929 . S
C1077 C1069 1.433 . S
C1077 N1079 1.406 . S
N1078 C1074 1.452 . S
N1078 C1075 1.406 . S
N1079 C1071 1.452 . S
N1079 C1077 1.406 . S
H1080 C1086 0.930 . S
H1081 C1090 0.930 . S
H1082 C1095 0.929 . S
H1083 C1093 0.929 . S
H1084 C1088 0.929 . S
H1085 C1094 0.929 . S
C1086 H1080 0.930 . S
C1086 C1087 1.367 . S
C1086 C1094 1.378 . S
C1087 C1086 1.367 . S
C1087 C1095 1.433 . S
C1088 H1084 0.929 . S
C1088 C1090 1.378 . S
C1088 C1092 1.350 . S
C1089 C1092 1.463 1_655 S
C1089 C1094 1.350 . S
C1089 N1097 1.427 1_655 S
C1090 H1081 0.930 . S
C1090 C1088 1.378 . S
C1090 C1091 1.367 . S
C1091 C1090 1.367 . S
C1091 C1093 1.433 . S
C1092 C1088 1.350 . S
C1092 C1089 1.463 1_455 S
C1092 N1096 1.427 1_455 S
C1093 H1083 0.929 . S
C1093 C1091 1.433 . S
C1093 N1096 1.384 1_455 S
C1094 H1085 0.929 . S
C1094 C1086 1.378 . S
C1094 C1089 1.350 . S
C1095 H1082 0.929 . S
C1095 C1087 1.433 . S
C1095 N1097 1.384 1_655 S
N1096 C1092 1.427 1_655 S
N1096 C1093 1.384 1_655 S
N1097 C1089 1.427 1_455 S
N1097 C1095 1.384 1_455 S
H1098 C1104 0.930 . S
H1099 C1108 0.930 . S
H1100 C1113 0.929 . S
H1101 C1111 0.929 . S
H1102 C1106 0.929 . S
H1103 C1112 0.929 . S
C1104 H1098 0.930 . S
C1104 C1105 1.367 . S
C1104 C1112 1.378 . S
C1105 C1104 1.367 . S
C1105 C1113 1.433 . S
C1106 H1102 0.929 . S
C1106 C1108 1.378 . S
C1106 C1110 1.350 . S
C1107 C1110 1.463 . S
C1107 C1112 1.350 . S
C1107 N1115 1.427 . S
C1108 H1099 0.930 . S
C1108 C1106 1.378 . S
C1108 C1109 1.367 . S
C1109 C1108 1.367 . S
C1109 C1111 1.433 . S
C1110 C1106 1.350 . S
C1110 C1107 1.463 . S
C1110 N1114 1.427 . S
C1111 H1101 0.929 . S
C1111 C1109 1.433 . S
C1111 N1114 1.384 . S
C1112 H1103 0.929 . S
C1112 C1104 1.378 . S
C1112 C1107 1.350 . S
C1113 H1100 0.929 . S
C1113 C1105 1.433 . S
C1113 N1115 1.384 . S
N1114 C1110 1.427 . S
N1114 C1111 1.384 . S
N1115 C1107 1.427 . S
N1115 C1113 1.384 . S
H1116 C1122 0.930 . S
H1117 C1126 0.930 . S
H1118 C1131 0.929 . S
H1119 C1129 0.929 . S
H1120 C1124 0.929 . S
H1121 C1130 0.929 . S
C1122 H1116 0.930 . S
C1122 C1123 1.367 . S
C1122 C1130 1.378 . S
C1123 C1122 1.367 . S
C1123 C1131 1.433 . S
C1124 H1120 0.929 . S
C1124 C1126 1.378 . S
C1124 C1128 1.350 . S
C1125 C1128 1.463 . S
C1125 C1130 1.350 . S
C1125 N1133 1.427 . S
C1126 H1117 0.930 . S
C1126 C1124 1.378 . S
C1126 C1127 1.367 . S
C1127 C1126 1.367 . S
C1127 C1129 1.433 . S
C1128 C1124 1.350 . S
C1128 C1125 1.463 . S
C1128 N1132 1.427 . S
C1129 H1119 0.929 . S
C1129 C1127 1.433 . S
C1129 N1132 1.384 . S
C1130 H1121 0.929 . S
C1130 C1122 1.378 . S
C1130 C1125 1.350 . S
C1131 H1118 0.929 . S
C1131 C1123 1.433 . S
C1131 N1133 1.384 . S
N1132 C1128 1.427 . S
N1132 C1129 1.384 . S
N1133 C1125 1.427 . S
N1133 C1131 1.384 . S
H1134 C1140 0.930 . S
H1135 C1144 0.930 . S
H1136 C1149 0.929 . S
H1137 C1147 0.929 . S
H1138 C1142 0.929 . S
H1139 C1148 0.929 . S
C1140 H1134 0.930 . S
C1140 C1141 1.367 . S
C1140 C1148 1.378 . S
C1141 C1140 1.367 . S
C1141 C1149 1.433 . S
C1142 H1138 0.929 . S
C1142 C1144 1.378 . S
C1142 C1146 1.350 . S
C1143 C1146 1.463 . S
C1143 C1148 1.350 . S
C1143 N1151 1.427 . S
C1144 H1135 0.930 . S
C1144 C1142 1.378 . S
C1144 C1145 1.367 . S
C1145 C1144 1.367 . S
C1145 C1147 1.433 . S
C1146 C1142 1.350 . S
C1146 C1143 1.463 . S
C1146 N1150 1.427 . S
C1147 H1137 0.929 . S
C1147 C1145 1.433 . S
C1147 N1150 1.384 . S
C1148 H1139 0.929 . S
C1148 C1140 1.378 . S
C1148 C1143 1.350 . S
C1149 H1136 0.929 . S
C1149 C1141 1.433 . S
C1149 N1151 1.384 . S
N1150 C1146 1.427 . S
N1150 C1147 1.384 . S
N1151 C1143 1.427 . S
N1151 C1149 1.384 . S
H1152 C1158 0.930 . S
H1153 C1162 0.930 . S
H1154 C1167 0.929 . S
H1155 C1165 0.929 . S
H1156 C1160 0.929 . S
H1157 C1166 0.929 . S
C1158 H1152 0.930 . S
C1158 C1159 1.367 . S
C1158 C1166 1.378 . S
C1159 C1158 1.367 . S
C1159 C1167 1.433 . S
C1160 H1156 0.929 . S
C1160 C1162 1.378 . S
C1160 C1164 1.350 . S
C1161 C1164 1.463 . S
C1161 C1166 1.350 . S
C1161 N1169 1.427 . S
C1162 H1153 0.930 . S
C1162 C1160 1.378 . S
C1162 C1163 1.367 . S
C1163 C1162 1.367 . S
C1163 C1165 1.433 . S
C1164 C1160 1.350 . S
C1164 C1161 1.463 . S
C1164 N1168 1.427 . S
C1165 H1155 0.929 . S
C1165 C1163 1.433 . S
C1165 N1168 1.384 . S
C1166 H1157 0.929 . S
C1166 C1158 1.378 . S
C1166 C1161 1.350 . S
C1167 H1154 0.929 . S
C1167 C1159 1.433 . S
C1167 N1169 1.384 . S
N1168 C1164 1.427 . S
N1168 C1165 1.384 . S
N1169 C1161 1.427 . S
N1169 C1167 1.384 . S
H1170 C1176 0.930 . S
H1171 C1180 0.930 . S
H1172 C1185 0.929 . S
H1173 C1183 0.929 . S
H1174 C1178 0.929 . S
H1175 C1184 0.929 . S
C1176 H1170 0.930 . S
C1176 C1177 1.367 . S
C1176 C1184 1.378 . S
C1177 C1176 1.367 . S
C1177 C1185 1.433 . S
C1178 H1174 0.929 . S
C1178 C1180 1.378 . S
C1178 C1182 1.350 . S
C1179 C1182 1.463 . S
C1179 C1184 1.350 . S
C1179 N1187 1.427 . S
C1180 H1171 0.930 . S
C1180 C1178 1.378 . S
C1180 C1181 1.367 . S
C1181 C1180 1.367 . S
C1181 C1183 1.433 . S
C1182 C1178 1.350 . S
C1182 C1179 1.463 . S
C1182 N1186 1.427 . S
C1183 H1173 0.929 . S
C1183 C1181 1.433 . S
C1183 N1186 1.384 . S
C1184 H1175 0.929 . S
C1184 C1176 1.378 . S
C1184 C1179 1.350 . S
C1185 H1172 0.929 . S
C1185 C1177 1.433 . S
C1185 N1187 1.384 . S
N1186 C1182 1.427 . S
N1186 C1183 1.384 . S
N1187 C1179 1.427 . S
N1187 C1185 1.384 . S
H1188 C1194 0.930 . S
H1189 C1198 0.930 . S
H1190 C1203 0.929 . S
H1191 C1201 0.929 . S
H1192 C1196 0.929 . S
H1193 C1202 0.929 . S
C1194 H1188 0.930 . S
C1194 C1195 1.367 . S
C1194 C1202 1.378 . S
C1195 C1194 1.367 . S
C1195 C1203 1.433 . S
C1196 H1192 0.929 . S
C1196 C1198 1.378 . S
C1196 C1200 1.350 . S
C1197 C1200 1.463 . S
C1197 C1202 1.350 . S
C1197 N1205 1.427 . S
C1198 H1189 0.930 . S
C1198 C1196 1.378 . S
C1198 C1199 1.367 . S
C1199 C1198 1.367 . S
C1199 C1201 1.433 . S
C1200 C1196 1.350 . S
C1200 C1197 1.463 . S
C1200 N1204 1.427 . S
C1201 H1191 0.929 . S
C1201 C1199 1.433 . S
C1201 N1204 1.384 . S
C1202 H1193 0.929 . S
C1202 C1194 1.378 . S
C1202 C1197 1.350 . S
C1203 H1190 0.929 . S
C1203 C1195 1.433 . S
C1203 N1205 1.384 . S
N1204 C1200 1.427 . S
N1204 C1201 1.384 . S
N1205 C1197 1.427 . S
N1205 C1203 1.384 . S
H1206 C1212 0.930 . S
H1207 C1216 0.930 . S
H1208 C1221 0.929 . S
H1209 C1219 0.929 . S
H1210 C1214 0.929 . S
H1211 C1220 0.929 . S
C1212 H1206 0.930 . S
C1212 C1213 1.367 . S
C1212 C1220 1.378 . S
C1213 C1212 1.367 . S
C1213 C1221 1.433 . S
C1214 H1210 0.929 . S
C1214 C1216 1.378 . S
C1214 C1218 1.350 . S
C1215 C1218 1.463 . S
C1215 C1220 1.350 . S
C1215 N1223 1.427 . S
C1216 H1207 0.930 . S
C1216 C1214 1.378 . S
C1216 C1217 1.367 . S
C1217 C1216 1.367 . S
C1217 C1219 1.433 . S
C1218 C1214 1.350 . S
C1218 C1215 1.463 . S
C1218 N1222 1.427 . S
C1219 H1209 0.929 . S
C1219 C1217 1.433 . S
C1219 N1222 1.384 . S
C1220 H1211 0.929 . S
C1220 C1212 1.378 . S
C1220 C1215 1.350 . S
C1221 H1208 0.929 . S
C1221 C1213 1.433 . S
C1221 N1223 1.384 . S
N1222 C1218 1.427 . S
N1222 C1219 1.384 . S
N1223 C1215 1.427 . S
N1223 C1221 1.384 . S
H1224 C1230 0.930 . S
H1225 C1234 0.930 . S
H1226 C1239 0.929 . S
H1227 C1237 0.929 . S
H1228 C1232 0.929 . S
H1229 C1238 0.929 . S
C1230 H1224 0.930 . S
C1230 C1231 1.367 . S
C1230 C1238 1.378 . S
C1231 C1230 1.367 . S
C1231 C1239 1.433 . S
C1232 H1228 0.929 . S
C1232 C1234 1.378 . S
C1232 C1236 1.350 . S
C1233 C1236 1.463 . S
C1233 C1238 1.350 . S
C1233 N1241 1.427 . S
C1234 H1225 0.930 . S
C1234 C1232 1.378 . S
C1234 C1235 1.367 . S
C1235 C1234 1.367 . S
C1235 C1237 1.433 . S
C1236 C1232 1.350 . S
C1236 C1233 1.463 . S
C1236 N1240 1.427 . S
C1237 H1227 0.929 . S
C1237 C1235 1.433 . S
C1237 N1240 1.384 . S
C1238 H1229 0.929 . S
C1238 C1230 1.378 . S
C1238 C1233 1.350 . S
C1239 H1226 0.929 . S
C1239 C1231 1.433 . S
C1239 N1241 1.384 . S
N1240 C1236 1.427 . S
N1240 C1237 1.384 . S
N1241 C1233 1.427 . S
N1241 C1239 1.384 . S
H1242 C1248 0.930 . S
H1243 C1252 0.930 . S
H1244 C1257 0.929 . S
H1245 C1255 0.929 . S
H1246 C1250 0.929 . S
H1247 C1256 0.929 . S
C1248 H1242 0.930 . S
C1248 C1249 1.367 . S
C1248 C1256 1.378 . S
C1249 C1248 1.367 . S
C1249 C1257 1.433 . S
C1250 H1246 0.929 . S
C1250 C1252 1.378 . S
C1250 C1254 1.350 . S
C1251 C1254 1.463 . S
C1251 C1256 1.350 . S
C1251 N1259 1.427 . S
C1252 H1243 0.930 . S
C1252 C1250 1.378 . S
C1252 C1253 1.367 . S
C1253 C1252 1.367 . S
C1253 C1255 1.433 . S
C1254 C1250 1.350 . S
C1254 C1251 1.463 . S
C1254 N1258 1.427 . S
C1255 H1245 0.929 . S
C1255 C1253 1.433 . S
C1255 N1258 1.384 . S
C1256 H1247 0.929 . S
C1256 C1248 1.378 . S
C1256 C1251 1.350 . S
C1257 H1244 0.929 . S
C1257 C1249 1.433 . S
C1257 N1259 1.384 . S
N1258 C1254 1.427 . S
N1258 C1255 1.384 . S
N1259 C1251 1.427 . S
N1259 C1257 1.384 . S
H1260 C1266 0.930 . S
H1261 C1270 0.930 . S
H1262 C1275 0.929 . S
H1263 C1273 0.929 . S
H1264 C1268 0.929 . S
H1265 C1274 0.929 . S
C1266 H1260 0.930 . S
C1266 C1267 1.367 . S
C1266 C1274 1.378 . S
C1267 C1266 1.367 . S
C1267 C1275 1.433 . S
C1268 H1264 0.929 . S
C1268 C1270 1.378 . S
C1268 C1272 1.350 . S
C1269 C1272 1.463 . S
C1269 C1274 1.350 . S
C1269 N1277 1.427 . S
C1270 H1261 0.930 . S
C1270 C1268 1.378 . S
C1270 C1271 1.367 . S
C1271 C1270 1.367 . S
C1271 C1273 1.433 . S
C1272 C1268 1.350 . S
C1272 C1269 1.463 . S
C1272 N1276 1.427 . S
C1273 H1263 0.929 . S
C1273 C1271 1.433 . S
C1273 N1276 1.384 . S
C1274 H1265 0.929 . S
C1274 C1266 1.378 . S
C1274 C1269 1.350 . S
C1275 H1262 0.929 . S
C1275 C1267 1.433 . S
C1275 N1277 1.384 . S
N1276 C1272 1.427 . S
N1276 C1273 1.384 . S
N1277 C1269 1.427 . S
N1277 C1275 1.384 . S
H1278 C1284 0.930 . S
H1279 C1288 0.930 . S
H1280 C1293 0.929 . S
H1281 C1291 0.929 . S
H1282 C1286 0.929 . S
H1283 C1292 0.929 . S
C1284 H1278 0.930 . S
C1284 C1285 1.367 . S
C1284 C1292 1.378 . S
C1285 C1284 1.367 . S
C1285 C1293 1.433 . S
C1286 H1282 0.929 . S
C1286 C1288 1.378 . S
C1286 C1290 1.350 . S
C1287 C1290 1.463 . S
C1287 C1292 1.350 . S
C1287 N1295 1.427 . S
C1288 H1279 0.930 . S
C1288 C1286 1.378 . S
C1288 C1289 1.367 . S
C1289 C1288 1.367 . S
C1289 C1291 1.433 . S
C1290 C1286 1.350 . S
C1290 C1287 1.463 . S
C1290 N1294 1.427 . S
C1291 H1281 0.929 . S
C1291 C1289 1.433 . S
C1291 N1294 1.384 . S
C1292 H1283 0.929 . S
C1292 C1284 1.378 . S
C1292 C1287 1.350 . S
C1293 H1280 0.929 . S
C1293 C1285 1.433 . S
C1293 N1295 1.384 . S
N1294 C1290 1.427 . S
N1294 C1291 1.384 . S
N1295 C1287 1.427 . S
N1295 C1293 1.384 . S
H1296 C1302 0.930 . S
H1297 C1306 0.930 . S
H1298 C1311 0.929 . S
H1299 C1309 0.929 . S
H1300 C1304 0.929 . S
H1301 C1310 0.929 . S
C1302 H1296 0.930 . S
C1302 C1303 1.367 . S
C1302 C1310 1.378 . S
C1303 C1302 1.367 . S
C1303 C1311 1.433 . S
C1304 H1300 0.929 . S
C1304 C1306 1.378 . S
C1304 C1308 1.350 . S
C1305 C1308 1.463 . S
C1305 C1310 1.350 . S
C1305 N1313 1.427 . S
C1306 H1297 0.930 . S
C1306 C1304 1.378 . S
C1306 C1307 1.367 . S
C1307 C1306 1.367 . S
C1307 C1309 1.433 . S
C1308 C1304 1.350 . S
C1308 C1305 1.463 . S
C1308 N1312 1.427 . S
C1309 H1299 0.929 . S
C1309 C1307 1.433 . S
C1309 N1312 1.384 . S
C1310 H1301 0.929 . S
C1310 C1302 1.378 . S
C1310 C1305 1.350 . S
C1311 H1298 0.929 . S
C1311 C1303 1.433 . S
C1311 N1313 1.384 . S
N1312 C1308 1.427 . S
N1312 C1309 1.384 . S
N1313 C1305 1.427 . S
N1313 C1311 1.384 . S
H1314 C1320 0.930 . S
H1315 C1324 0.930 . S
H1316 C1329 0.929 . S
H1317 C1327 0.929 . S
H1318 C1322 0.929 . S
H1319 C1328 0.929 . S
C1320 H1314 0.930 . S
C1320 C1321 1.367 . S
C1320 C1328 1.378 . S
C1321 C1320 1.367 . S
C1321 C1329 1.433 . S
C1322 H1318 0.929 . S
C1322 C1324 1.378 . S
C1322 C1326 1.350 . S
C1323 C1326 1.463 . S
C1323 C1328 1.350 . S
C1323 N1331 1.427 . S
C1324 H1315 0.930 . S
C1324 C1322 1.378 . S
C1324 C1325 1.367 . S
C1325 C1324 1.367 . S
C1325 C1327 1.433 . S
C1326 C1322 1.350 . S
C1326 C1323 1.463 . S
C1326 N1330 1.427 . S
C1327 H1317 0.929 . S
C1327 C1325 1.433 . S
C1327 N1330 1.384 . S
C1328 H1319 0.929 . S
C1328 C1320 1.378 . S
C1328 C1323 1.350 . S
C1329 H1316 0.929 . S
C1329 C1321 1.433 . S
C1329 N1331 1.384 . S
N1330 C1326 1.427 . S
N1330 C1327 1.384 . S
N1331 C1323 1.427 . S
N1331 C1329 1.384 . S
H1332 C1338 0.930 1_655 S
H1333 C1342 0.930 1_455 S
H1334 C1347 0.929 . S
H1335 C1345 0.929 . S
H1336 C1340 0.929 . S
H1337 C1346 0.929 . S
C1338 H1332 0.930 1_455 S
C1338 C1339 1.367 . S
C1338 C1346 1.378 1_455 S
C1339 C1338 1.367 . S
C1339 C1347 1.433 . S
C1340 H1336 0.929 . S
C1340 C1342 1.378 1_455 S
C1340 C1344 1.350 1_455 S
C1341 C1344 1.463 1_455 S
C1341 C1346 1.350 1_455 S
C1341 N1349 1.427 . S
C1342 H1333 0.930 1_655 S
C1342 C1340 1.378 1_655 S
C1342 C1343 1.367 . S
C1343 C1342 1.367 . S
C1343 C1345 1.433 . S
C1344 C1340 1.350 1_655 S
C1344 C1341 1.463 1_655 S
C1344 N1348 1.427 . S
C1345 H1335 0.929 . S
C1345 C1343 1.433 . S
C1345 N1348 1.384 . S
C1346 H1337 0.929 . S
C1346 C1338 1.378 1_655 S
C1346 C1341 1.350 1_655 S
C1347 H1334 0.929 . S
C1347 C1339 1.433 . S
C1347 N1349 1.384 . S
N1348 C1344 1.427 . S
N1348 C1345 1.384 . S
N1349 C1341 1.427 . S
N1349 C1347 1.384 . S
H1350 C1356 0.930 . S
H1351 C1360 0.930 . S
H1352 C1365 0.929 . S
H1353 C1363 0.929 . S
H1354 C1358 0.929 . S
H1355 C1364 0.929 . S
C1356 H1350 0.930 . S
C1356 C1357 1.367 . S
C1356 C1364 1.378 . S
C1357 C1356 1.367 . S
C1357 C1365 1.433 . S
C1358 H1354 0.929 . S
C1358 C1360 1.378 . S
C1358 C1362 1.350 . S
C1359 C1362 1.463 . S
C1359 C1364 1.350 . S
C1359 N1367 1.427 . S
C1360 H1351 0.930 . S
C1360 C1358 1.378 . S
C1360 C1361 1.367 . S
C1361 C1360 1.367 . S
C1361 C1363 1.433 . S
C1362 C1358 1.350 . S
C1362 C1359 1.463 . S
C1362 N1366 1.427 . S
C1363 H1353 0.929 . S
C1363 C1361 1.433 . S
C1363 N1366 1.384 . S
C1364 H1355 0.929 . S
C1364 C1356 1.378 . S
C1364 C1359 1.350 . S
C1365 H1352 0.929 . S
C1365 C1357 1.433 . S
C1365 N1367 1.384 . S
N1366 C1362 1.427 . S
N1366 C1363 1.384 . S
N1367 C1359 1.427 . S
N1367 C1365 1.384 . S
H1368 C1374 0.930 . S
H1369 C1378 0.930 . S
H1370 C1383 0.929 . S
H1371 C1381 0.929 . S
H1372 C1376 0.929 . S
H1373 C1382 0.929 . S
C1374 H1368 0.930 . S
C1374 C1375 1.367 . S
C1374 C1382 1.378 . S
C1375 C1374 1.367 . S
C1375 C1383 1.433 1_545 S
C1376 H1372 0.929 . S
C1376 C1378 1.378 . S
C1376 C1380 1.350 . S
C1377 C1380 1.463 1_545 S
C1377 C1382 1.350 . S
C1377 N1385 1.427 1_545 S
C1378 H1369 0.930 . S
C1378 C1376 1.378 . S
C1378 C1379 1.367 . S
C1379 C1378 1.367 . S
C1379 C1381 1.433 1_565 S
C1380 C1376 1.350 . S
C1380 C1377 1.463 1_565 S
C1380 N1384 1.427 1_565 S
C1381 H1371 0.929 . S
C1381 C1379 1.433 1_545 S
C1381 N1384 1.384 . S
C1382 H1373 0.929 . S
C1382 C1374 1.378 . S
C1382 C1377 1.350 . S
C1383 H1370 0.929 . S
C1383 C1375 1.433 1_565 S
C1383 N1385 1.384 . S
N1384 C1380 1.427 1_545 S
N1384 C1381 1.384 . S
N1385 C1377 1.427 1_565 S
N1385 C1383 1.384 . S
H1386 C1392 0.930 . S
H1387 C1396 0.930 . S
H1388 C1401 0.945 . S
H1389 C1399 0.945 . S
H1390 C1394 0.894 1_545 S
H1391 C1400 0.894 1_565 S
C1392 H1386 0.930 . S
C1392 C1393 1.367 . S
C1392 C1400 1.412 . S
C1393 C1392 1.367 . S
C1393 C1401 1.407 1_556 S
C1394 H1390 0.894 1_565 S
C1394 C1396 1.412 . S
C1394 C1398 1.352 . S
C1395 C1398 1.463 1_546 S
C1395 C1400 1.352 . S
C1395 N1403 1.427 1_556 S
C1396 H1387 0.930 . S
C1396 C1394 1.412 . S
C1396 C1397 1.367 . S
C1397 C1396 1.367 . S
C1397 C1399 1.407 1_554 S
C1398 C1394 1.352 . S
C1398 C1395 1.463 1_564 S
C1398 N1402 1.427 1_554 S
C1399 H1389 0.945 . S
C1399 C1397 1.407 1_556 S
C1399 N1402 1.394 . S
C1400 H1391 0.894 1_545 S
C1400 C1392 1.412 . S
C1400 C1395 1.352 . S
C1401 H1388 0.945 . S
C1401 C1393 1.407 1_554 S
C1401 N1403 1.394 . S
N1402 C1398 1.427 1_556 S
N1402 C1399 1.394 . S
N1403 C1395 1.427 1_554 S
N1403 C1401 1.394 . S
H1404 C1410 0.936 . S
H1405 C1414 0.936 . S
H1406 C1419 0.929 . S
H1407 C1417 0.929 . S
H1408 C1412 0.929 . S
H1409 C1418 0.929 . S
C1410 H1404 0.936 . S
C1410 C1411 1.357 1_556 S
C1410 C1418 1.382 . S
C1411 C1410 1.357 1_554 S
C1411 C1419 1.433 . S
C1412 H1408 0.929 . S
C1412 C1414 1.382 . S
C1412 C1416 1.350 1_554 S
C1413 C1416 1.463 1_454 S
C1413 C1418 1.350 1_554 S
C1413 N1421 1.427 . S
C1414 H1405 0.936 . S
C1414 C1412 1.382 . S
C1414 C1415 1.357 1_554 S
C1415 C1414 1.357 1_556 S
C1415 C1417 1.433 . S
C1416 C1412 1.350 1_556 S
C1416 C1413 1.463 1_656 S
C1416 N1420 1.427 . S
C1417 H1407 0.929 . S
C1417 C1415 1.433 . S
C1417 N1420 1.384 . S
C1418 H1409 0.929 . S
C1418 C1410 1.382 . S
C1418 C1413 1.350 1_556 S
C1419 H1406 0.929 . S
C1419 C1411 1.433 . S
C1419 N1421 1.384 . S
N1420 C1416 1.427 . S
N1420 C1417 1.384 . S
N1421 C1413 1.427 . S
N1421 C1419 1.384 . S
H1422 C1428 0.930 . S
H1423 C1432 0.930 . S
H1424 C1437 0.929 . S
H1425 C1435 0.929 . S
H1426 C1430 0.929 . S
H1427 C1436 0.929 . S
C1428 H1422 0.930 . S
C1428 C1429 1.367 . S
C1428 C1436 1.378 . S
C1429 C1428 1.367 . S
C1429 C1437 1.433 1_554 S
C1430 H1426 0.929 . S
C1430 C1432 1.378 . S
C1430 C1434 1.350 . S
C1431 C1434 1.463 1_554 S
C1431 C1436 1.350 . S
C1431 N1439 1.427 1_554 S
C1432 H1423 0.930 . S
C1432 C1430 1.378 . S
C1432 C1433 1.367 . S
C1433 C1432 1.367 . S
C1433 C1435 1.433 1_556 S
C1434 C1430 1.350 . S
C1434 C1431 1.463 1_556 S
C1434 N1438 1.427 1_556 S
C1435 H1425 0.929 . S
C1435 C1433 1.433 1_554 S
C1435 N1438 1.384 . S
C1436 H1427 0.929 . S
C1436 C1428 1.378 . S
C1436 C1431 1.350 . S
C1437 H1424 0.929 . S
C1437 C1429 1.433 1_556 S
C1437 N1439 1.384 . S
N1438 C1434 1.427 1_554 S
N1438 C1435 1.384 . S
N1439 C1431 1.427 1_556 S
N1439 C1437 1.384 . S
H1440 C1446 0.930 1_556 S
H1441 C1450 0.930 . S
H1442 C1455 0.929 . S
H1443 C1453 0.929 . S
H1444 C1448 0.929 . S
H1445 C1454 0.929 . S
C1446 H1440 0.930 1_554 S
C1446 C1447 1.367 . S
C1446 C1454 1.378 . S
C1447 C1446 1.367 . S
C1447 C1455 1.433 . S
C1448 H1444 0.929 . S
C1448 C1450 1.378 . S
C1448 C1452 1.350 . S
C1449 C1452 1.463 . S
C1449 C1454 1.350 . S
C1449 N1457 1.427 . S
C1450 H1441 0.930 . S
C1450 C1448 1.378 . S
C1450 C1451 1.367 . S
C1451 C1450 1.367 . S
C1451 C1453 1.433 . S
C1452 C1448 1.350 . S
C1452 C1449 1.463 . S
C1452 N1456 1.427 . S
C1453 H1443 0.929 . S
C1453 C1451 1.433 . S
C1453 N1456 1.384 . S
C1454 H1445 0.929 . S
C1454 C1446 1.378 . S
C1454 C1449 1.350 . S
C1455 H1442 0.929 . S
C1455 C1447 1.433 . S
C1455 N1457 1.384 . S
N1456 C1452 1.427 . S
N1456 C1453 1.384 . S
N1457 C1449 1.427 . S
N1457 C1455 1.384 . S
H1458 C1464 0.930 . S
H1459 C1468 0.930 . S
H1460 C1473 0.929 . S
H1461 C1471 0.929 . S
H1462 C1466 0.929 . S
H1463 C1472 0.929 . S
C1464 H1458 0.930 . S
C1464 C1465 1.367 . S
C1464 C1472 1.378 . S
C1465 C1464 1.367 . S
C1465 C1473 1.433 . S
C1466 H1462 0.929 . S
C1466 C1468 1.378 . S
C1466 C1470 1.350 . S
C1467 C1470 1.463 . S
C1467 C1472 1.350 . S
C1467 N1475 1.427 . S
C1468 H1459 0.930 . S
C1468 C1466 1.378 . S
C1468 C1469 1.367 . S
C1469 C1468 1.367 . S
C1469 C1471 1.433 . S
C1470 C1466 1.350 . S
C1470 C1467 1.463 . S
C1470 N1474 1.427 . S
C1471 H1461 0.929 . S
C1471 C1469 1.433 . S
C1471 N1474 1.384 . S
C1472 H1463 0.929 . S
C1472 C1464 1.378 . S
C1472 C1467 1.350 . S
C1473 H1460 0.929 . S
C1473 C1465 1.433 . S
C1473 N1475 1.384 . S
N1474 C1470 1.427 . S
N1474 C1471 1.384 . S
N1475 C1467 1.427 . S
N1475 C1473 1.384 . S
H1476 C1482 0.930 1_556 S
H1477 C1486 0.930 . S
H1478 C1491 0.929 . S
H1479 C1489 0.929 . S
H1480 C1484 0.929 . S
H1481 C1490 0.929 . S
C1482 H1476 0.930 1_554 S
C1482 C1483 1.367 . S
C1482 C1490 1.378 . S
C1483 C1482 1.367 . S
C1483 C1491 1.433 . S
C1484 H1480 0.929 . S
C1484 C1486 1.378 . S
C1484 C1488 1.350 . S
C1485 C1488 1.463 . S
C1485 C1490 1.350 . S
C1485 N1493 1.427 . S
C1486 H1477 0.930 . S
C1486 C1484 1.378 . S
C1486 C1487 1.367 . S
C1487 C1486 1.367 . S
C1487 C1489 1.433 . S
C1488 C1484 1.350 . S
C1488 C1485 1.463 . S
C1488 N1492 1.427 . S
C1489 H1479 0.929 . S
C1489 C1487 1.433 . S
C1489 N1492 1.384 . S
C1490 H1481 0.929 . S
C1490 C1482 1.378 . S
C1490 C1485 1.350 . S
C1491 H1478 0.929 . S
C1491 C1483 1.433 . S
C1491 N1493 1.384 . S
N1492 C1488 1.427 . S
N1492 C1489 1.384 . S
N1493 C1485 1.427 . S
N1493 C1491 1.384 . S
H1494 C1500 0.930 . S
H1495 C1504 0.930 . S
H1496 C1509 0.929 . S
H1497 C1507 0.929 . S
H1498 C1502 0.929 . S
H1499 C1508 0.929 . S
C1500 H1494 0.930 . S
C1500 C1501 1.367 . S
C1500 C1508 1.378 . S
C1501 C1500 1.367 . S
C1501 C1509 1.433 . S
C1502 H1498 0.929 . S
C1502 C1504 1.378 . S
C1502 C1506 1.350 . S
C1503 C1506 1.463 . S
C1503 C1508 1.350 . S
C1503 N1511 1.427 . S
C1504 H1495 0.930 . S
C1504 C1502 1.378 . S
C1504 C1505 1.367 . S
C1505 C1504 1.367 . S
C1505 C1507 1.433 . S
C1506 C1502 1.350 . S
C1506 C1503 1.463 . S
C1506 N1510 1.427 . S
C1507 H1497 0.929 . S
C1507 C1505 1.433 . S
C1507 N1510 1.384 . S
C1508 H1499 0.929 . S
C1508 C1500 1.378 . S
C1508 C1503 1.350 . S
C1509 H1496 0.929 . S
C1509 C1501 1.433 . S
C1509 N1511 1.384 . S
N1510 C1506 1.427 . S
N1510 C1507 1.384 . S
N1511 C1503 1.427 . S
N1511 C1509 1.384 . S
H1512 C1518 0.930 . S
H1513 C1522 0.930 . S
H1514 C1527 0.929 . S
H1515 C1525 0.929 . S
H1516 C1520 0.929 . S
H1517 C1526 0.929 . S
C1518 H1512 0.930 . S
C1518 C1519 1.367 . S
C1518 C1526 1.378 . S
C1519 C1518 1.367 . S
C1519 C1527 1.433 . S
C1520 H1516 0.929 . S
C1520 C1522 1.378 . S
C1520 C1524 1.350 . S
C1521 C1524 1.463 . S
C1521 C1526 1.350 . S
C1521 N1529 1.427 . S
C1522 H1513 0.930 . S
C1522 C1520 1.378 . S
C1522 C1523 1.367 . S
C1523 C1522 1.367 . S
C1523 C1525 1.433 . S
C1524 C1520 1.350 . S
C1524 C1521 1.463 . S
C1524 N1528 1.427 . S
C1525 H1515 0.929 . S
C1525 C1523 1.433 . S
C1525 N1528 1.384 . S
C1526 H1517 0.929 . S
C1526 C1518 1.378 . S
C1526 C1521 1.350 . S
C1527 H1514 0.929 . S
C1527 C1519 1.433 . S
C1527 N1529 1.384 . S
N1528 C1524 1.427 . S
N1528 C1525 1.384 . S
N1529 C1521 1.427 . S
N1529 C1527 1.384 . S
H1530 C1536 0.930 . S
H1531 C1540 0.930 . S
H1532 C1545 0.929 . S
H1533 C1543 0.929 . S
H1534 C1538 0.929 . S
H1535 C1544 0.929 . S
C1536 H1530 0.930 . S
C1536 C1537 1.367 . S
C1536 C1544 1.378 . S
C1537 C1536 1.367 . S
C1537 C1545 1.433 . S
C1538 H1534 0.929 . S
C1538 C1540 1.378 . S
C1538 C1542 1.350 . S
C1539 C1542 1.463 . S
C1539 C1544 1.350 . S
C1539 N1547 1.427 . S
C1540 H1531 0.930 . S
C1540 C1538 1.378 . S
C1540 C1541 1.367 . S
C1541 C1540 1.367 . S
C1541 C1543 1.433 . S
C1542 C1538 1.350 . S
C1542 C1539 1.463 . S
C1542 N1546 1.427 . S
C1543 H1533 0.929 . S
C1543 C1541 1.433 . S
C1543 N1546 1.384 . S
C1544 H1535 0.929 . S
C1544 C1536 1.378 . S
C1544 C1539 1.350 . S
C1545 H1532 0.929 . S
C1545 C1537 1.433 . S
C1545 N1547 1.384 . S
N1546 C1542 1.427 . S
N1546 C1543 1.384 . S
N1547 C1539 1.427 . S
N1547 C1545 1.384 . S
H1548 C1554 0.930 . S
H1549 C1558 0.930 . S
H1550 C1563 0.929 . S
H1551 C1561 0.929 1_554 S
H1552 C1556 0.929 . S
H1553 C1562 0.929 . S
C1554 H1548 0.930 . S
C1554 C1555 1.367 . S
C1554 C1562 1.378 . S
C1555 C1554 1.367 . S
C1555 C1563 1.433 . S
C1556 H1552 0.929 . S
C1556 C1558 1.378 . S
C1556 C1560 1.350 . S
C1557 C1560 1.463 . S
C1557 C1562 1.350 . S
C1557 N1565 1.427 . S
C1558 H1549 0.930 . S
C1558 C1556 1.378 . S
C1558 C1559 1.367 . S
C1559 C1558 1.367 . S
C1559 C1561 1.433 . S
C1560 C1556 1.350 . S
C1560 C1557 1.463 . S
C1560 N1564 1.427 . S
C1561 H1551 0.929 1_556 S
C1561 C1559 1.433 . S
C1561 N1564 1.384 . S
C1562 H1553 0.929 . S
C1562 C1554 1.378 . S
C1562 C1557 1.350 . S
C1563 H1550 0.929 . S
C1563 C1555 1.433 . S
C1563 N1565 1.384 . S
N1564 C1560 1.427 . S
N1564 C1561 1.384 . S
N1565 C1557 1.427 . S
N1565 C1563 1.384 . S
H1566 C1572 0.930 . S
H1567 C1576 0.930 . S
H1568 C1581 0.929 . S
H1569 C1579 0.929 . S
H1570 C1574 0.929 . S
H1571 C1580 0.929 . S
C1572 H1566 0.930 . S
C1572 C1573 1.367 . S
C1572 C1580 1.378 . S
C1573 C1572 1.367 . S
C1573 C1581 1.433 . S
C1574 H1570 0.929 . S
C1574 C1576 1.378 . S
C1574 C1578 1.350 . S
C1575 C1578 1.463 . S
C1575 C1580 1.350 . S
C1575 N1583 1.427 . S
C1576 H1567 0.930 . S
C1576 C1574 1.378 . S
C1576 C1577 1.367 . S
C1577 C1576 1.367 . S
C1577 C1579 1.433 . S
C1578 C1574 1.350 . S
C1578 C1575 1.463 . S
C1578 N1582 1.427 . S
C1579 H1569 0.929 . S
C1579 C1577 1.433 . S
C1579 N1582 1.384 . S
C1580 H1571 0.929 . S
C1580 C1572 1.378 . S
C1580 C1575 1.350 . S
C1581 H1568 0.929 . S
C1581 C1573 1.433 . S
C1581 N1583 1.384 . S
N1582 C1578 1.427 . S
N1582 C1579 1.384 . S
N1583 C1575 1.427 . S
N1583 C1581 1.384 . S
H1584 C1590 0.930 . S
H1585 C1594 0.930 1_554 S
H1586 C1599 0.929 . S
H1587 C1597 0.929 . S
H1588 C1592 0.929 . S
H1589 C1598 0.929 . S
C1590 H1584 0.930 . S
C1590 C1591 1.367 . S
C1590 C1598 1.378 . S
C1591 C1590 1.367 . S
C1591 C1599 1.433 . S
C1592 H1588 0.929 . S
C1592 C1594 1.378 . S
C1592 C1596 1.350 . S
C1593 C1596 1.463 . S
C1593 C1598 1.350 . S
C1593 N1601 1.427 . S
C1594 H1585 0.930 1_556 S
C1594 C1592 1.378 . S
C1594 C1595 1.367 . S
C1595 C1594 1.367 . S
C1595 C1597 1.433 . S
C1596 C1592 1.350 . S
C1596 C1593 1.463 . S
C1596 N1600 1.427 . S
C1597 H1587 0.929 . S
C1597 C1595 1.433 . S
C1597 N1600 1.384 . S
C1598 H1589 0.929 . S
C1598 C1590 1.378 . S
C1598 C1593 1.350 . S
C1599 H1586 0.929 . S
C1599 C1591 1.433 . S
C1599 N1601 1.384 . S
N1600 C1596 1.427 . S
N1600 C1597 1.384 . S
N1601 C1593 1.427 . S
N1601 C1599 1.384 . S
H1602 C1608 0.930 . S
H1603 C1612 0.930 . S
H1604 C1617 0.929 . S
H1605 C1615 0.929 . S
H1606 C1610 0.929 . S
H1607 C1616 0.929 . S
C1608 H1602 0.930 . S
C1608 C1609 1.367 . S
C1608 C1616 1.378 . S
C1609 C1608 1.367 . S
C1609 C1617 1.433 . S
C1610 H1606 0.929 . S
C1610 C1612 1.378 . S
C1610 C1614 1.350 . S
C1611 C1614 1.463 . S
C1611 C1616 1.350 . S
C1611 N1619 1.427 . S
C1612 H1603 0.930 . S
C1612 C1610 1.378 . S
C1612 C1613 1.367 . S
C1613 C1612 1.367 . S
C1613 C1615 1.433 . S
C1614 C1610 1.350 . S
C1614 C1611 1.463 . S
C1614 N1618 1.427 . S
C1615 H1605 0.929 . S
C1615 C1613 1.433 . S
C1615 N1618 1.384 . S
C1616 H1607 0.929 . S
C1616 C1608 1.378 . S
C1616 C1611 1.350 . S
C1617 H1604 0.929 . S
C1617 C1609 1.433 . S
C1617 N1619 1.384 . S
N1618 C1614 1.427 . S
N1618 C1615 1.384 . S
N1619 C1611 1.427 . S
N1619 C1617 1.384 . S
H1620 C1626 0.930 . S
H1621 C1630 0.930 . S
H1622 C1635 0.929 . S
H1623 C1633 0.929 . S
H1624 C1628 0.929 . S
H1625 C1634 0.929 . S
C1626 H1620 0.930 . S
C1626 C1627 1.367 . S
C1626 C1634 1.378 . S
C1627 C1626 1.367 . S
C1627 C1635 1.433 . S
C1628 H1624 0.929 . S
C1628 C1630 1.378 . S
C1628 C1632 1.350 . S
C1629 C1632 1.463 . S
C1629 C1634 1.350 . S
C1629 N1637 1.427 . S
C1630 H1621 0.930 . S
C1630 C1628 1.378 . S
C1630 C1631 1.367 . S
C1631 C1630 1.367 . S
C1631 C1633 1.433 . S
C1632 C1628 1.350 . S
C1632 C1629 1.463 . S
C1632 N1636 1.427 . S
C1633 H1623 0.929 . S
C1633 C1631 1.433 . S
C1633 N1636 1.384 . S
C1634 H1625 0.929 . S
C1634 C1626 1.378 . S
C1634 C1629 1.350 . S
C1635 H1622 0.929 . S
C1635 C1627 1.433 . S
C1635 N1637 1.384 . S
N1636 C1632 1.427 . S
N1636 C1633 1.384 . S
N1637 C1629 1.427 . S
N1637 C1635 1.384 . S
H1638 C1644 0.930 . S
H1639 C1648 0.930 . S
H1640 C1653 0.929 . S
H1641 C1651 0.929 . S
H1642 C1646 0.929 . S
H1643 C1652 0.929 . S
C1644 H1638 0.930 . S
C1644 C1645 1.367 . S
C1644 C1652 1.378 . S
C1645 C1644 1.367 . S
C1645 C1653 1.433 . S
C1646 H1642 0.929 . S
C1646 C1648 1.378 . S
C1646 C1650 1.350 . S
C1647 C1650 1.463 . S
C1647 C1652 1.350 . S
C1647 N1655 1.427 . S
C1648 H1639 0.930 . S
C1648 C1646 1.378 . S
C1648 C1649 1.367 . S
C1649 C1648 1.367 . S
C1649 C1651 1.433 . S
C1650 C1646 1.350 . S
C1650 C1647 1.463 . S
C1650 N1654 1.427 . S
C1651 H1641 0.929 . S
C1651 C1649 1.433 . S
C1651 N1654 1.384 . S
C1652 H1643 0.929 . S
C1652 C1644 1.378 . S
C1652 C1647 1.350 . S
C1653 H1640 0.929 . S
C1653 C1645 1.433 . S
C1653 N1655 1.384 . S
N1654 C1650 1.427 . S
N1654 C1651 1.384 . S
N1655 C1647 1.427 . S
N1655 C1653 1.384 . S
H1656 C1662 0.930 . S
H1657 C1666 0.930 . S
H1658 C1671 0.929 . S
H1659 C1669 0.929 . S
H1660 C1664 0.929 . S
H1661 C1670 0.929 . S
C1662 H1656 0.930 . S
C1662 C1663 1.367 . S
C1662 C1670 1.378 . S
C1663 C1662 1.367 . S
C1663 C1671 1.433 . S
C1664 H1660 0.929 . S
C1664 C1666 1.378 . S
C1664 C1668 1.350 . S
C1665 C1668 1.463 . S
C1665 C1670 1.350 . S
C1665 N1673 1.427 . S
C1666 H1657 0.930 . S
C1666 C1664 1.378 . S
C1666 C1667 1.367 . S
C1667 C1666 1.367 . S
C1667 C1669 1.433 . S
C1668 C1664 1.350 . S
C1668 C1665 1.463 . S
C1668 N1672 1.427 . S
C1669 H1659 0.929 . S
C1669 C1667 1.433 . S
C1669 N1672 1.384 . S
C1670 H1661 0.929 . S
C1670 C1662 1.378 . S
C1670 C1665 1.350 . S
C1671 H1658 0.929 . S
C1671 C1663 1.433 . S
C1671 N1673 1.384 . S
N1672 C1668 1.427 . S
N1672 C1669 1.384 . S
N1673 C1665 1.427 . S
N1673 C1671 1.384 . S
H1674 C1680 0.930 . S
H1675 C1684 0.930 . S
H1676 C1689 0.929 . S
H1677 C1687 0.929 . S
H1678 C1682 0.947 . S
H1679 C1688 0.947 . S
C1680 H1674 0.930 . S
C1680 C1681 1.367 . S
C1680 C1688 1.368 1_545 S
C1681 C1680 1.367 . S
C1681 C1689 1.433 . S
C1682 H1678 0.947 . S
C1682 C1684 1.368 1_545 S
C1682 C1686 1.342 1_545 S
C1683 C1686 1.463 1_545 S
C1683 C1688 1.342 1_545 S
C1683 N1691 1.427 . S
C1684 H1675 0.930 . S
C1684 C1682 1.368 1_565 S
C1684 C1685 1.367 . S
C1685 C1684 1.367 . S
C1685 C1687 1.433 . S
C1686 C1682 1.342 1_565 S
C1686 C1683 1.463 1_565 S
C1686 N1690 1.427 . S
C1687 H1677 0.929 . S
C1687 C1685 1.433 . S
C1687 N1690 1.384 . S
C1688 H1679 0.947 . S
C1688 C1680 1.368 1_565 S
C1688 C1683 1.342 1_565 S
C1689 H1676 0.929 . S
C1689 C1681 1.433 . S
C1689 N1691 1.384 . S
N1690 C1686 1.427 . S
N1690 C1687 1.384 . S
N1691 C1683 1.427 . S
N1691 C1689 1.384 . S
H1692 C1698 0.930 . S
H1693 C1702 0.930 . S
H1694 C1707 0.929 . S
H1695 C1705 0.929 . S
H1696 C1700 0.921 . S
H1697 C1706 0.921 . S
C1698 H1692 0.930 . S
C1698 C1699 1.367 . S
C1698 C1706 1.382 1_655 S
C1699 C1698 1.367 . S
C1699 C1707 1.433 . S
C1700 H1696 0.921 . S
C1700 C1702 1.382 1_655 S
C1700 C1704 1.353 1_655 S
C1701 C1704 1.463 1_655 S
C1701 C1706 1.353 1_655 S
C1701 N1709 1.427 . S
C1702 H1693 0.930 . S
C1702 C1700 1.382 1_455 S
C1702 C1703 1.367 . S
C1703 C1702 1.367 . S
C1703 C1705 1.433 . S
C1704 C1700 1.353 1_455 S
C1704 C1701 1.463 1_455 S
C1704 N1708 1.427 . S
C1705 H1695 0.929 . S
C1705 C1703 1.433 . S
C1705 N1708 1.384 . S
C1706 H1697 0.921 . S
C1706 C1698 1.382 1_455 S
C1706 C1701 1.353 1_455 S
C1707 H1694 0.929 . S
C1707 C1699 1.433 . S
C1707 N1709 1.384 . S
N1708 C1704 1.427 . S
N1708 C1705 1.384 . S
N1709 C1701 1.427 . S
N1709 C1707 1.384 . S
H1710 C1716 0.930 . S
H1711 C1720 0.930 . S
H1712 C1725 0.929 . S
H1713 C1723 0.929 . S
H1714 C1718 0.929 . S
H1715 C1724 0.929 . S
C1716 H1710 0.930 . S
C1716 C1717 1.367 . S
C1716 C1724 1.378 . S
C1717 C1716 1.367 . S
C1717 C1725 1.433 . S
C1718 H1714 0.929 . S
C1718 C1720 1.378 . S
C1718 C1722 1.350 . S
C1719 C1722 1.463 . S
C1719 C1724 1.350 . S
C1719 N1727 1.427 . S
C1720 H1711 0.930 . S
C1720 C1718 1.378 . S
C1720 C1721 1.367 . S
C1721 C1720 1.367 . S
C1721 C1723 1.433 . S
C1722 C1718 1.350 . S
C1722 C1719 1.463 . S
C1722 N1726 1.427 . S
C1723 H1713 0.929 . S
C1723 C1721 1.433 . S
C1723 N1726 1.384 . S
C1724 H1715 0.929 . S
C1724 C1716 1.378 . S
C1724 C1719 1.350 . S
C1725 H1712 0.929 . S
C1725 C1717 1.433 . S
C1725 N1727 1.384 . S
N1726 C1722 1.427 . S
N1726 C1723 1.384 . S
N1727 C1719 1.427 . S
N1727 C1725 1.384 . S
H1728 C1734 0.930 . S
H1729 C1738 0.930 . S
H1730 C1743 0.929 . S
H1731 C1741 0.929 . S
H1732 C1736 0.929 1_545 S
H1733 C1742 0.929 1_565 S
C1734 H1728 0.930 . S
C1734 C1735 1.367 . S
C1734 C1742 1.378 . S
C1735 C1734 1.367 . S
C1735 C1743 1.433 . S
C1736 H1732 0.929 1_565 S
C1736 C1738 1.378 . S
C1736 C1740 1.350 . S
C1737 C1740 1.463 1_545 S
C1737 C1742 1.350 . S
C1737 N1745 1.427 . S
C1738 H1729 0.930 . S
C1738 C1736 1.378 . S
C1738 C1739 1.367 . S
C1739 C1738 1.367 . S
C1739 C1741 1.433 . S
C1740 C1736 1.350 . S
C1740 C1737 1.463 1_565 S
C1740 N1744 1.427 . S
C1741 H1731 0.929 . S
C1741 C1739 1.433 . S
C1741 N1744 1.384 . S
C1742 H1733 0.929 1_545 S
C1742 C1734 1.378 . S
C1742 C1737 1.350 . S
C1743 H1730 0.929 . S
C1743 C1735 1.433 . S
C1743 N1745 1.384 . S
N1744 C1740 1.427 . S
N1744 C1741 1.384 . S
N1745 C1737 1.427 . S
N1745 C1743 1.384 . S
H1746 C1752 0.930 . S
H1747 C1756 0.930 . S
H1748 C1761 0.929 . S
H1749 C1759 0.929 . S
H1750 C1754 0.928 . S
H1751 C1760 0.928 . S
C1752 H1746 0.930 . S
C1752 C1753 1.367 . S
C1752 C1760 1.378 1_455 S
C1753 C1752 1.367 . S
C1753 C1761 1.433 . S
C1754 H1750 0.928 . S
C1754 C1756 1.378 1_455 S
C1754 C1758 1.350 1_455 S
C1755 C1758 1.463 1_455 S
C1755 C1760 1.350 1_455 S
C1755 N1763 1.427 . S
C1756 H1747 0.930 . S
C1756 C1754 1.378 1_655 S
C1756 C1757 1.367 . S
C1757 C1756 1.367 . S
C1757 C1759 1.433 . S
C1758 C1754 1.350 1_655 S
C1758 C1755 1.463 1_655 S
C1758 N1762 1.427 . S
C1759 H1749 0.929 . S
C1759 C1757 1.433 . S
C1759 N1762 1.384 . S
C1760 H1751 0.928 . S
C1760 C1752 1.378 1_655 S
C1760 C1755 1.350 1_655 S
C1761 H1748 0.929 . S
C1761 C1753 1.433 . S
C1761 N1763 1.384 . S
N1762 C1758 1.427 . S
N1762 C1759 1.384 . S
N1763 C1755 1.427 . S
N1763 C1761 1.384 . S
C475 C70 1.121 . S
C479 C5 1.120 . S
C493 C44 1.122 . S
C497 C18 1.124 . S
C511 C29 1.126 . S
C515 C57 1.126 . S
C529 C83 1.119 . S
C533 C146 1.120 . S
C547 C94 1.121 . S
C551 C120 1.120 . S
C565 C135 1.121 . S
C569 C109 1.122 . S
C583 C159 1.120 . S
C587 C224 1.119 . S
C601 C172 1.123 . S
C605 C200 1.122 . S
C619 C213 1.125 . S
C623 C187 1.125 . S
C637 C304 1.119 . S
C641 C237 1.119 . S
C655 C278 1.125 . S
C659 C252 1.124 . S
C673 C263 1.119 . S
C677 C289 1.120 . S
C691 C382 1.122 . S
C695 C315 1.123 . S
C709 C356 1.121 . S
C713 C328 1.123 . S
C727 C341 1.119 . S
C731 C367 1.119 . S
C745 C460 1.125 . S
C749 C393 1.124 . S
C763 C434 1.125 . S
C767 C406 1.126 . S
C781 C447 1.119 . S
C785 C419 1.119 . S
C799 C218 1.471 . S
C803 C10 1.464 . S
C817 C225 1.473 . S
C821 C23 1.478 . S
C835 C205 1.460 . S
C839 C30 1.463 . S
C853 C49 1.462 . S
C857 C342 1.460 1_554 S
C871 C62 1.476 . S
C875 C316 1.469 1_554 S
C889 C75 1.466 . S
C893 C329 1.473 1_554 S
C907 C88 1.479 . S
C911 C452 1.475 . S
C925 C465 1.460 . S
C929 C95 1.462 . S
C943 C439 1.478 . S
C947 C114 1.478 . S
C961 C264 1.478 1_556 S
C965 C121 1.474 . S
C979 C238 1.466 1_556 S
C983 C140 1.473 . S
C997 C147 1.478 . S
C1001 C257 1.479 1_556 S
C1015 C160 1.466 . S
C1019 C368 1.473 . S
C1033 C387 1.464 . S
C1037 C173 1.471 . S
C1051 C361 1.473 . S
C1055 C192 1.466 . S
C1069 C283 1.474 . S
C1073 C420 1.478 . S
C1087 C394 1.479 . S
C1091 C290 1.475 . S
C1105 C309 1.479 . S
C1109 C407 1.476 . S
C1123 C244 1.664 . S
C1127 C4 1.664 . S
C1141 C251 1.664 . S
C1145 C17 1.664 . S
C1159 C36 1.661 . S
C1163 C270 1.661 . S
C1177 C43 1.661 . S
C1181 C433 1.661 . S
C1195 C446 1.659 . S
C1199 C56 1.659 . S
C1213 C459 1.663 . S
C1217 C69 1.663 . S
C1231 C82 1.662 . S
C1235 C322 1.662 . S
C1249 C101 1.663 . S
C1253 C335 1.663 . S
C1267 C348 1.660 . S
C1271 C108 1.660 . S
C1285 C127 1.663 . S
C1289 C199 1.663 . S
C1303 C134 1.664 . S
C1307 C212 1.664 . S
C1321 C231 1.664 . S
C1325 C153 1.664 . S
C1339 C166 1.659 . S
C1343 C400 1.659 . S
C1357 C179 1.659 . S
C1361 C413 1.659 . S
C1375 C426 1.664 . S
C1379 C186 1.664 . S
C1393 C355 1.662 . S
C1397 C277 1.662 . S
C1411 C296 1.660 . S
C1415 C374 1.660 . S
C1429 C303 1.663 . S
C1433 C381 1.663 . S
C1447 C354 1.618 1_554 S
C1451 C3 1.612 . S
C1465 C16 1.609 . S
C1469 C369 1.619 1_554 S
C1483 C380 1.619 1_554 S
C1487 C31 1.612 . S
C1501 C42 1.611 . S
C1505 C161 1.614 . S
C1519 C174 1.616 . S
C1523 C55 1.610 . S
C1537 C185 1.618 . S
C1541 C68 1.614 . S
C1555 C81 1.617 . S
C1559 C276 1.609 1_556 S
C1573 C291 1.619 1_556 S
C1577 C96 1.609 . S
C1591 C107 1.612 . S
C1595 C302 1.619 1_556 S
C1609 C122 1.619 . S
C1613 C395 1.609 . S
C1627 C133 1.609 . S
C1631 C408 1.619 . S
C1645 C421 1.618 . S
C1649 C148 1.614 . S
C1663 C198 1.609 . S
C1667 C317 1.617 . S
C1681 C211 1.614 . S
C1685 C330 1.618 . S
C1699 C226 1.618 . S
C1703 C343 1.614 . S
C1717 C239 1.614 . S
C1721 C432 1.611 . S
C1735 C250 1.620 . S
C1739 C445 1.611 . S
C1753 C458 1.614 . S
C1757 C265 1.618 . S
