# Generated by pormake.
# Topology gsi, (4)-cn, num edge types: 1
# Building blocks:
#     Node 0, Type 0, BuildingBlock: AZAVOO_clean_sbu_0, # of connection points: 4
#     Node 1, Type 0, BuildingBlock: AZAVOO_clean_sbu_0, # of connection points: 4
#     Node 2, Type 0, BuildingBlock: AZAVOO_clean_sbu_0, # of connection points: 4
#     Node 3, Type 0, BuildingBlock: AZAVOO_clean_sbu_0, # of connection points: 4
#     Node 4, Type 0, BuildingBlock: AZAVOO_clean_sbu_0, # of connection points: 4
#     Node 5, Type 0, BuildingBlock: AZAVOO_clean_sbu_0, # of connection points: 4
#     Node 6, Type 0, BuildingBlock: AZAVOO_clean_sbu_0, # of connection points: 4
#     Node 7, Type 0, BuildingBlock: AZAVOO_clean_sbu_0, # of connection points: 4
#     Node 8, Type 0, BuildingBlock: AZAVOO_clean_sbu_0, # of connection points: 4
#     Node 9, Type 0, BuildingBlock: AZAVOO_clean_sbu_0, # of connection points: 4
#     Node 10, Type 0, BuildingBlock: AZAVOO_clean_sbu_0, # of connection points: 4
#     Node 11, Type 0, BuildingBlock: AZAVOO_clean_sbu_0, # of connection points: 4
#     Node 12, Type 0, BuildingBlock: AZAVOO_clean_sbu_0, # of connection points: 4
#     Node 13, Type 0, BuildingBlock: AZAVOO_clean_sbu_0, # of connection points: 4
#     Node 14, Type 0, BuildingBlock: AZAVOO_clean_sbu_0, # of connection points: 4
#     Node 15, Type 0, BuildingBlock: AZAVOO_clean_sbu_0, # of connection points: 4
#     Edge 16, Type (0, 0), BuildingBlock: XUDNAN_clean_linker_2, # of connection points: 2
#     Edge 17, Type (0, 0), BuildingBlock: XUDNAN_clean_linker_2, # of connection points: 2
#     Edge 18, Type (0, 0), BuildingBlock: XUDNAN_clean_linker_2, # of connection points: 2
#     Edge 19, Type (0, 0), BuildingBlock: XUDNAN_clean_linker_2, # of connection points: 2
#     Edge 20, Type (0, 0), BuildingBlock: XUDNAN_clean_linker_2, # of connection points: 2
#     Edge 21, Type (0, 0), BuildingBlock: XUDNAN_clean_linker_2, # of connection points: 2
#     Edge 22, Type (0, 0), BuildingBlock: XUDNAN_clean_linker_2, # of connection points: 2
#     Edge 23, Type (0, 0), BuildingBlock: XUDNAN_clean_linker_2, # of connection points: 2
#     Edge 24, Type (0, 0), BuildingBlock: XUDNAN_clean_linker_2, # of connection points: 2
#     Edge 25, Type (0, 0), BuildingBlock: XUDNAN_clean_linker_2, # of connection points: 2
#     Edge 26, Type (0, 0), BuildingBlock: XUDNAN_clean_linker_2, # of connection points: 2
#     Edge 27, Type (0, 0), BuildingBlock: XUDNAN_clean_linker_2, # of connection points: 2
#     Edge 28, Type (0, 0), BuildingBlock: XUDNAN_clean_linker_2, # of connection points: 2
#     Edge 29, Type (0, 0), BuildingBlock: XUDNAN_clean_linker_2, # of connection points: 2
#     Edge 30, Type (0, 0), BuildingBlock: XUDNAN_clean_linker_2, # of connection points: 2
#     Edge 31, Type (0, 0), BuildingBlock: XUDNAN_clean_linker_2, # of connection points: 2
#     Edge 32, Type (0, 0), BuildingBlock: XUDNAN_clean_linker_2, # of connection points: 2
#     Edge 33, Type (0, 0), BuildingBlock: XUDNAN_clean_linker_2, # of connection points: 2
#     Edge 34, Type (0, 0), BuildingBlock: XUDNAN_clean_linker_2, # of connection points: 2
#     Edge 35, Type (0, 0), BuildingBlock: XUDNAN_clean_linker_2, # of connection points: 2
#     Edge 36, Type (0, 0), BuildingBlock: XUDNAN_clean_linker_2, # of connection points: 2
#     Edge 37, Type (0, 0), BuildingBlock: XUDNAN_clean_linker_2, # of connection points: 2
#     Edge 38, Type (0, 0), BuildingBlock: XUDNAN_clean_linker_2, # of connection points: 2
#     Edge 39, Type (0, 0), BuildingBlock: XUDNAN_clean_linker_2, # of connection points: 2
#     Edge 40, Type (0, 0), BuildingBlock: XUDNAN_clean_linker_2, # of connection points: 2
#     Edge 41, Type (0, 0), BuildingBlock: XUDNAN_clean_linker_2, # of connection points: 2
#     Edge 42, Type (0, 0), BuildingBlock: XUDNAN_clean_linker_2, # of connection points: 2
#     Edge 43, Type (0, 0), BuildingBlock: XUDNAN_clean_linker_2, # of connection points: 2
#     Edge 44, Type (0, 0), BuildingBlock: XUDNAN_clean_linker_2, # of connection points: 2
#     Edge 45, Type (0, 0), BuildingBlock: XUDNAN_clean_linker_2, # of connection points: 2
#     Edge 46, Type (0, 0), BuildingBlock: XUDNAN_clean_linker_2, # of connection points: 2
#     Edge 47, Type (0, 0), BuildingBlock: XUDNAN_clean_linker_2, # of connection points: 2
# Relax obj value: 0.018
# Max RMSD: 0.029
# Mean RMSD: 0.026
data_MOF--net-gsi--node1-AZAVOO_clean_sbu_0--edge1-XUDNAN_clean_linker_2
_symmetry_space_group_name_H-M    P1
_symmetry_Int_Tables_number       1
_symmetry_cell_setting            triclinic
loop_
_symmetry_equiv_pos_as_xyz
'x, y, z'
_cell_length_a     43.445666
_cell_length_b     43.061316
_cell_length_c     41.90905
_cell_angle_alpha  90.000083
_cell_angle_beta   90.056549
_cell_angle_gamma 90.018145
loop_
_atom_site_label
_atom_site_type_symbol
_atom_site_fract_x
_atom_site_fract_y
_atom_site_fract_z
_atom_type_partial_charge
Mg0 Mg 0.14886 0.14394 0.15314 0.0
O1 O 0.17761 0.17408 0.18717 0.0
O2 O 0.22409 0.15261 0.19281 0.0
Mg3 Mg 0.22443 0.10765 0.16365 0.0
C4 C 0.20476 0.17412 0.19892 0.0
C5 C 0.08605 0.18028 0.15132 0.0
O6 O 0.07524 0.15289 0.15939 0.0
O7 O 0.17688 0.16088 0.11093 0.0
O8 O 0.22166 0.13602 0.11707 0.0
O9 O 0.13095 0.11558 0.19347 0.0
O10 O 0.17376 0.10503 0.16704 0.0
C11 C 0.20393 0.15413 0.10134 0.0
C12 C 0.15516 0.09837 0.18996 0.0
O13 O 0.11483 0.18363 0.14708 0.0
Mg14 Mg 0.85778 0.36209 0.14584 0.0
O15 O 0.82241 0.33475 0.17664 0.0
O16 O 0.77893 0.36233 0.17253 0.0
Mg17 Mg 0.78508 0.40489 0.14127 0.0
C18 C 0.79396 0.33911 0.18333 0.0
C19 C 0.9193 0.3344 0.13927 0.0
O20 O 0.92104 0.36424 0.13286 0.0
O21 O 0.83549 0.34407 0.10023 0.0
O22 O 0.79239 0.37245 0.09849 0.0
O23 O 0.87158 0.39161 0.18717 0.0
O24 O 0.83386 0.40318 0.15394 0.0
C25 C 0.81038 0.35202 0.08667 0.0
C26 C 0.84938 0.41006 0.17915 0.0
O27 O 0.89315 0.32309 0.14637 0.0
Mg28 Mg 0.13965 0.86127 0.35235 0.0
O29 O 0.17624 0.83437 0.32266 0.0
O30 O 0.21916 0.86296 0.32646 0.0
Mg31 Mg 0.21143 0.90605 0.35666 0.0
C32 C 0.20467 0.83918 0.31611 0.0
C33 C 0.08774 0.82147 0.37681 0.0
O34 O 0.09154 0.84341 0.39826 0.0
O35 O 0.16213 0.84505 0.39857 0.0
O36 O 0.20457 0.87445 0.4002 0.0
O37 O 0.12568 0.8897 0.31004 0.0
O38 O 0.16293 0.90239 0.3435 0.0
C39 C 0.18686 0.85388 0.41227 0.0
C40 C 0.14778 0.90839 0.31787 0.0
O41 O 0.10589 0.8207 0.35304 0.0
Mg42 Mg 0.85237 0.63903 0.35381 0.0
O43 O 0.82743 0.67217 0.31878 0.0
O44 O 0.7816 0.65104 0.30763 0.0
Mg45 Mg 0.77698 0.60524 0.33439 0.0
C46 C 0.80137 0.67277 0.30448 0.0
C47 C 0.9111 0.6814 0.34801 0.0
O48 O 0.91378 0.66603 0.32108 0.0
O49 O 0.82122 0.65505 0.39423 0.0
O50 O 0.7762 0.63299 0.3812 0.0
O51 O 0.87272 0.61166 0.31372 0.0
O52 O 0.82737 0.60205 0.33545 0.0
C53 C 0.79285 0.64958 0.39966 0.0
C54 C 0.84749 0.59567 0.31395 0.0
O55 O 0.8881 0.67608 0.36595 0.0
Mg56 Mg 0.34433 0.86159 0.65391 0.0
O57 O 0.3243 0.83275 0.69499 0.0
O58 O 0.28263 0.85704 0.71356 0.0
Mg59 Mg 0.2775 0.90255 0.68589 0.0
C60 C 0.30132 0.83419 0.71388 0.0
C61 C 0.39293 0.81148 0.66146 0.0
O62 O 0.38935 0.82241 0.69049 0.0
O63 O 0.3052 0.84633 0.62203 0.0
O64 O 0.26536 0.8738 0.64081 0.0
O65 O 0.37436 0.88785 0.68614 0.0
O66 O 0.32705 0.90267 0.67374 0.0
C67 C 0.27701 0.85459 0.6209 0.0
C68 C 0.35221 0.90767 0.68934 0.0
O69 O 0.37545 0.82149 0.63939 0.0
Mg70 Mg 0.86211 0.83983 0.86158 0.0
O71 O 0.81995 0.8219 0.83358 0.0
O72 O 0.77874 0.84816 0.85068 0.0
Mg73 Mg 0.79436 0.8832 0.88823 0.0
C74 C 0.79104 0.82748 0.83297 0.0
C75 C 0.92325 0.81873 0.8326 0.0
O76 O 0.93182 0.83963 0.85367 0.0
O77 O 0.86351 0.88412 0.83153 0.0
O78 O 0.82198 0.90909 0.8499 0.0
O79 O 0.8518 0.80507 0.89959 0.0
O80 O 0.83374 0.85307 0.89892 0.0
C81 C 0.84549 0.90758 0.83166 0.0
C82 C 0.83391 0.82594 0.91181 0.0
O83 O 0.89466 0.8141 0.82828 0.0
Mg84 Mg 0.14123 0.64369 0.86208 0.0
O85 O 0.18334 0.66816 0.84069 0.0
O86 O 0.2249 0.63915 0.85039 0.0
Mg87 Mg 0.20921 0.59574 0.87742 0.0
C88 C 0.21228 0.66339 0.83868 0.0
C89 C 0.0868 0.66813 0.81882 0.0
O90 O 0.08307 0.63826 0.81377 0.0
O91 O 0.14084 0.60834 0.8213 0.0
O92 O 0.18232 0.57969 0.83313 0.0
O93 O 0.15059 0.6668 0.90903 0.0
O94 O 0.16849 0.62062 0.8951 0.0
C95 C 0.15897 0.58566 0.81558 0.0
C96 C 0.16713 0.64266 0.91572 0.0
O97 O 0.10911 0.67726 0.83611 0.0
Mg98 Mg 0.85805 0.13503 0.63169 0.0
O99 O 0.82437 0.16862 0.65507 0.0
O100 O 0.77739 0.14777 0.65717 0.0
Mg101 Mg 0.78145 0.09987 0.63331 0.0
C102 C 0.79599 0.17009 0.66262 0.0
C103 C 0.90056 0.19258 0.64304 0.0
O104 O 0.87936 0.20529 0.62488 0.0
O105 O 0.85918 0.10379 0.67564 0.0
O106 O 0.81246 0.08197 0.67382 0.0
O107 O 0.84574 0.15489 0.58392 0.0
O108 O 0.8226 0.11447 0.60605 0.0
C109 C 0.83907 0.08492 0.68652 0.0
C110 C 0.82465 0.13366 0.58265 0.0
O111 O 0.89817 0.16404 0.65035 0.0
Mg112 Mg 0.14461 0.34691 0.63014 0.0
O113 O 0.18399 0.32817 0.66202 0.0
O114 O 0.22655 0.35449 0.64871 0.0
Mg115 Mg 0.21468 0.39006 0.61043 0.0
C116 C 0.2128 0.33372 0.66514 0.0
C117 C 0.08069 0.32696 0.64967 0.0
O118 O 0.07639 0.34828 0.62767 0.0
O119 O 0.14098 0.39079 0.66068 0.0
O120 O 0.18431 0.41543 0.64687 0.0
O121 O 0.15767 0.31222 0.59319 0.0
O122 O 0.17657 0.35985 0.59594 0.0
C123 C 0.15932 0.41389 0.66284 0.0
C124 C 0.17717 0.33269 0.58306 0.0
O125 O 0.10803 0.32143 0.65888 0.0
Mg126 Mg 0.64755 0.1364 0.3526 0.0
O127 O 0.67923 0.1672 0.323 0.0
O128 O 0.72609 0.14726 0.31679 0.0
Mg129 Mg 0.72335 0.10004 0.34234 0.0
C130 C 0.70653 0.16886 0.31207 0.0
C131 C 0.61164 0.19699 0.3413 0.0
O132 O 0.63811 0.207 0.35242 0.0
O133 O 0.64029 0.10417 0.30973 0.0
O134 O 0.68734 0.08317 0.30617 0.0
O135 O 0.66657 0.15669 0.39803 0.0
O136 O 0.68548 0.1154 0.37371 0.0
C137 C 0.6595 0.08566 0.29659 0.0
C138 C 0.68694 0.13477 0.39696 0.0
O139 O 0.60716 0.1679 0.33882 0.0
Mg140 Mg 0.63361 0.64208 0.65065 0.0
O141 O 0.66028 0.67243 0.68628 0.0
O142 O 0.70414 0.64768 0.69771 0.0
Mg143 Mg 0.70408 0.60092 0.67162 0.0
C144 C 0.6862 0.67101 0.70065 0.0
C145 C 0.58567 0.69347 0.66048 0.0
O146 O 0.59126 0.68457 0.68991 0.0
O147 O 0.66721 0.6554 0.61225 0.0
O148 O 0.70908 0.62733 0.62348 0.0
O149 O 0.60879 0.61855 0.68915 0.0
O150 O 0.6532 0.60187 0.6699 0.0
C151 C 0.69444 0.64647 0.60569 0.0
C152 C 0.63102 0.59858 0.69016 0.0
O153 O 0.6014 0.68176 0.63796 0.0
Mg154 Mg 0.65339 0.35507 0.84195 0.0
O155 O 0.68059 0.33318 0.79991 0.0
O156 O 0.71789 0.3674 0.78891 0.0
Mg157 Mg 0.71542 0.40932 0.8217 0.0
C158 C 0.70411 0.34169 0.78371 0.0
C159 C 0.60759 0.30192 0.83022 0.0
O160 O 0.60883 0.31528 0.80207 0.0
O161 O 0.69199 0.34195 0.87577 0.0
O162 O 0.72849 0.37671 0.86339 0.0
O163 O 0.62222 0.38088 0.80962 0.0
O164 O 0.66638 0.39949 0.82743 0.0
C165 C 0.71862 0.3538 0.87991 0.0
C166 C 0.64224 0.40311 0.80998 0.0
O167 O 0.6262 0.31081 0.85179 0.0
Mg168 Mg 0.36023 0.14427 0.85235 0.0
O169 O 0.33515 0.17563 0.81607 0.0
O170 O 0.29258 0.15096 0.80007 0.0
Mg171 Mg 0.2902 0.10443 0.82587 0.0
C172 C 0.3105 0.17444 0.79942 0.0
C173 C 0.40895 0.19444 0.84255 0.0
O174 O 0.40147 0.18636 0.81333 0.0
O175 O 0.32507 0.15745 0.88994 0.0
O176 O 0.28329 0.13189 0.87271 0.0
O177 O 0.38587 0.12075 0.81426 0.0
O178 O 0.34059 0.10461 0.8316 0.0
C179 C 0.29684 0.1497 0.89271 0.0
C180 C 0.36326 0.10133 0.81201 0.0
O181 O 0.39369 0.18307 0.86568 0.0
Mg182 Mg 0.37172 0.34024 0.37502 0.0
O183 O 0.33143 0.32018 0.34535 0.0
O184 O 0.28909 0.34569 0.36073 0.0
Mg185 Mg 0.30154 0.3816 0.39861 0.0
C186 C 0.30243 0.32518 0.3436 0.0
C187 C 0.43205 0.33033 0.33775 0.0
O188 O 0.43366 0.35994 0.3451 0.0
O189 O 0.37214 0.38399 0.34365 0.0
O190 O 0.32952 0.40766 0.36101 0.0
O191 O 0.36107 0.30614 0.41399 0.0
O192 O 0.34156 0.35337 0.41064 0.0
C193 C 0.35333 0.40682 0.34317 0.0
C194 C 0.34221 0.3269 0.42475 0.0
O195 O 0.40775 0.31537 0.34476 0.0
Mg196 Mg 0.3465 0.63488 0.14256 0.0
O197 O 0.31843 0.66789 0.17392 0.0
O198 O 0.27151 0.64844 0.18223 0.0
Mg199 Mg 0.2699 0.6017 0.15608 0.0
C200 C 0.2916 0.66974 0.18616 0.0
C201 C 0.39288 0.69035 0.14839 0.0
O202 O 0.37012 0.70457 0.13379 0.0
O203 O 0.35379 0.60167 0.18434 0.0
O204 O 0.30653 0.58175 0.18993 0.0
O205 O 0.3269 0.65706 0.09826 0.0
O206 O 0.30637 0.61696 0.12314 0.0
C207 C 0.33489 0.58324 0.19798 0.0
C208 C 0.30491 0.63685 0.10036 0.0
O209 O 0.39014 0.66172 0.15519 0.0
Mg210 Mg 0.64166 0.83918 0.12376 0.0
O211 O 0.68078 0.82147 0.15646 0.0
O212 O 0.72334 0.84783 0.1434 0.0
Mg213 Mg 0.71174 0.88228 0.10374 0.0
C214 C 0.70947 0.8273 0.16006 0.0
C215 C 0.57762 0.81941 0.14409 0.0
O216 O 0.57289 0.84088 0.12234 0.0
O217 O 0.63731 0.88372 0.15343 0.0
O218 O 0.68012 0.90842 0.13822 0.0
O219 O 0.65551 0.80422 0.08701 0.0
O220 O 0.67368 0.85207 0.08959 0.0
C221 C 0.65516 0.90732 0.1543 0.0
C222 C 0.67451 0.82503 0.0766 0.0
O223 O 0.60514 0.81374 0.15264 0.0
H224 H 0.26162 0.18447 0.22613 0.0
H225 H 0.16917 0.22254 0.21998 0.0
H226 H 0.18456 0.26554 0.25538 0.0
H227 H 0.27443 0.2026 0.30857 0.0
H228 H 0.31442 0.21242 0.30318 0.0
H229 H 0.29632 0.18471 0.27701 0.0
H230 H 0.3125 0.21762 0.22804 0.0
H231 H 0.33061 0.24546 0.25408 0.0
H232 H 0.30163 0.25798 0.2261 0.0
H233 H 0.20945 0.30381 0.29204 0.0
H234 H 0.24223 0.33517 0.32749 0.0
H235 H 0.31893 0.27283 0.30958 0.0
C236 C 0.24456 0.20183 0.23217 0.0
C237 C 0.21412 0.20002 0.2202 0.0
C238 C 0.19261 0.22333 0.22875 0.0
C239 C 0.20113 0.24789 0.24886 0.0
C240 C 0.23127 0.24893 0.26019 0.0
C241 C 0.25268 0.22658 0.25215 0.0
C242 C 0.28353 0.23311 0.26774 0.0
C243 C 0.2927 0.20664 0.29048 0.0
C244 C 0.30854 0.23889 0.24248 0.0
C245 C 0.27604 0.26256 0.28594 0.0
C246 C 0.24575 0.27123 0.28121 0.0
C247 C 0.23323 0.29731 0.29586 0.0
C248 C 0.25209 0.31496 0.31603 0.0
C249 C 0.28325 0.30656 0.32138 0.0
C250 C 0.29531 0.28003 0.30589 0.0
H251 H 0.81416 0.28293 0.20866 0.0
H252 H 0.73508 0.34475 0.20475 0.0
H253 H 0.70541 0.30822 0.23722 0.0
H254 H 0.77126 0.21176 0.20324 0.0
H255 H 0.79519 0.19064 0.2309 0.0
H256 H 0.81129 0.22192 0.20776 0.0
H257 H 0.8295 0.24902 0.25962 0.0
H258 H 0.81353 0.21777 0.28293 0.0
H259 H 0.80197 0.25726 0.29064 0.0
H260 H 0.68328 0.26551 0.26824 0.0
H261 H 0.66994 0.21848 0.29803 0.0
H262 H 0.76264 0.18301 0.28387 0.0
C263 C 0.79068 0.28883 0.21479 0.0
C264 C 0.77708 0.31682 0.20395 0.0
C265 C 0.74618 0.32354 0.21252 0.0
C266 C 0.72901 0.30292 0.23105 0.0
C267 C 0.74292 0.27557 0.24106 0.0
C268 C 0.77302 0.26838 0.23345 0.0
C269 C 0.78195 0.23703 0.24732 0.0
C270 C 0.79042 0.21398 0.22071 0.0
C271 C 0.8083 0.24049 0.27157 0.0
C272 C 0.75207 0.22786 0.26363 0.0
C273 C 0.72999 0.25057 0.25959 0.0
C274 C 0.7004 0.24759 0.2718 0.0
C275 C 0.69308 0.22068 0.28878 0.0
C276 C 0.71525 0.19696 0.29364 0.0
C277 C 0.74519 0.20069 0.28076 0.0
H278 H 0.23657 0.68344 0.21606 0.0
H279 H 0.32859 0.71957 0.1992 0.0
H280 H 0.31576 0.76635 0.2301 0.0
H281 H 0.19698 0.7568 0.20991 0.0
H282 H 0.16987 0.7482 0.24121 0.0
H283 H 0.18603 0.71716 0.21779 0.0
H284 H 0.20527 0.69026 0.26937 0.0
H285 H 0.18913 0.72119 0.29296 0.0
H286 H 0.22933 0.71153 0.2968 0.0
H287 H 0.29368 0.80892 0.26237 0.0
H288 H 0.2637 0.84528 0.29489 0.0
H289 H 0.18532 0.78252 0.29156 0.0
C290 C 0.25405 0.70115 0.21888 0.0
C291 C 0.28364 0.69769 0.20513 0.0
C292 C 0.30579 0.72153 0.20943 0.0
C293 C 0.29873 0.74826 0.22695 0.0
C294 C 0.26943 0.75093 0.24007 0.0
C295 C 0.2474 0.7281 0.23634 0.0
C296 C 0.21768 0.73696 0.25308 0.0
C297 C 0.19107 0.73996 0.22906 0.0
C298 C 0.20991 0.71359 0.27963 0.0
C299 C 0.22655 0.76832 0.2668 0.0
C300 C 0.25652 0.7758 0.2589 0.0
C301 C 0.27018 0.80336 0.26875 0.0
C302 C 0.25285 0.82388 0.28729 0.0
C303 C 0.22202 0.81688 0.29594 0.0
C304 C 0.20874 0.78865 0.28538 0.0
H305 H 0.74637 0.68395 0.2744 0.0
H306 H 0.83784 0.72258 0.28801 0.0
H307 H 0.82376 0.76716 0.2538 0.0
H308 H 0.73784 0.7053 0.19261 0.0
H309 H 0.69745 0.71416 0.19616 0.0
H310 H 0.71469 0.68569 0.22206 0.0
H311 H 0.69533 0.7162 0.27144 0.0
H312 H 0.67811 0.74483 0.24567 0.0
H313 H 0.70535 0.75661 0.2758 0.0
H314 H 0.79988 0.8069 0.21702 0.0
H315 H 0.76834 0.83868 0.18056 0.0
H316 H 0.69228 0.77415 0.19192 0.0
C317 C 0.76355 0.70172 0.27028 0.0
C318 C 0.79329 0.69965 0.28393 0.0
C319 C 0.81492 0.72358 0.27787 0.0
C320 C 0.80712 0.74902 0.25849 0.0
C321 C 0.77758 0.75026 0.24548 0.0
C322 C 0.75614 0.72725 0.25117 0.0
C323 C 0.72606 0.73388 0.23418 0.0
C324 C 0.71859 0.70823 0.20981 0.0
C325 C 0.69966 0.73814 0.25821 0.0
C326 C 0.73394 0.76416 0.2178 0.0
C327 C 0.76376 0.77323 0.22464 0.0
C328 C 0.77647 0.80008 0.21162 0.0
C329 C 0.75833 0.81796 0.19089 0.0
C330 C 0.72773 0.80902 0.18337 0.0
C331 C 0.71544 0.78183 0.19733 0.0
H332 H 0.24761 0.82093 0.7454 0.0
H333 H 0.34041 0.78666 0.73003 0.0
H334 H 0.32847 0.74031 0.76247 0.0
H335 H 0.23851 0.79258 0.82713 0.0
H336 H 0.19867 0.7824 0.82116 0.0
H337 H 0.2154 0.81401 0.79897 0.0
H338 H 0.19869 0.78777 0.74606 0.0
H339 H 0.18209 0.75602 0.76805 0.0
H340 H 0.21068 0.74849 0.73789 0.0
H341 H 0.30563 0.69657 0.79463 0.0
H342 H 0.27352 0.65846 0.82334 0.0
H343 H 0.19527 0.7209 0.81628 0.0
C344 C 0.26563 0.80398 0.74929 0.0
C345 C 0.29504 0.80758 0.73533 0.0
C346 C 0.31774 0.78449 0.74054 0.0
C347 C 0.3112 0.75809 0.75897 0.0
C348 C 0.28182 0.75507 0.77194 0.0
C349 C 0.25941 0.77739 0.76734 0.0
C350 C 0.22919 0.76782 0.7824 0.0
C351 C 0.21991 0.79056 0.809 0.0
C352 C 0.20367 0.76484 0.75709 0.0
C353 C 0.23798 0.73645 0.79589 0.0
C354 C 0.2685 0.72963 0.78986 0.0
C355 C 0.28173 0.70173 0.79962 0.0
C356 C 0.26327 0.68021 0.81591 0.0
C357 C 0.2318 0.68659 0.82209 0.0
C358 C 0.21919 0.71521 0.81195 0.0
H359 H 0.74322 0.68087 0.72722 0.0
H360 H 0.65212 0.72167 0.71889 0.0
H361 H 0.66936 0.76654 0.75094 0.0
H362 H 0.75796 0.70472 0.80798 0.0
H363 H 0.79817 0.71251 0.80103 0.0
H364 H 0.77853 0.68354 0.77763 0.0
H365 H 0.795 0.71182 0.72579 0.0
H366 H 0.81455 0.74097 0.74903 0.0
H367 H 0.78549 0.75225 0.72059 0.0
H368 H 0.69633 0.80665 0.78443 0.0
H369 H 0.73104 0.83919 0.81689 0.0
H370 H 0.80489 0.77275 0.80224 0.0
C371 C 0.72679 0.69913 0.73221 0.0
C372 C 0.69625 0.69763 0.72056 0.0
C373 C 0.67563 0.72223 0.72751 0.0
C374 C 0.6852 0.74784 0.74569 0.0
C375 C 0.7155 0.74861 0.75662 0.0
C376 C 0.736 0.72494 0.75012 0.0
C377 C 0.76734 0.7315 0.76452 0.0
C378 C 0.776 0.70659 0.78926 0.0
C379 C 0.79204 0.73431 0.73842 0.0
C380 C 0.76124 0.76254 0.78027 0.0
C381 C 0.73118 0.77197 0.77546 0.0
C382 C 0.71994 0.79955 0.78827 0.0
C383 C 0.73986 0.81788 0.8067 0.0
C384 C 0.77077 0.80864 0.81206 0.0
C385 C 0.78153 0.78066 0.79837 0.0
H386 H 0.69089 0.27964 0.77232 0.0
H387 H 0.74866 0.356 0.74044 0.0
H388 H 0.77626 0.32065 0.70461 0.0
H389 H 0.74879 0.22296 0.77406 0.0
H390 H 0.72543 0.19154 0.75913 0.0
H391 H 0.70776 0.2231 0.78051 0.0
H392 H 0.67118 0.23338 0.73285 0.0
H393 H 0.68853 0.20162 0.7114 0.0
H394 H 0.68712 0.23973 0.69368 0.0
H395 H 0.8015 0.27714 0.67697 0.0
H396 H 0.82022 0.22774 0.65475 0.0
H397 H 0.74555 0.17874 0.70175 0.0
C398 C 0.7089 0.28903 0.75731 0.0
C399 C 0.7176 0.32067 0.7594 0.0
C400 C 0.74157 0.33191 0.73952 0.0
C401 C 0.75744 0.31201 0.71898 0.0
C402 C 0.74897 0.2809 0.7182 0.0
C403 C 0.72502 0.26942 0.7364 0.0
C404 C 0.72155 0.23462 0.73161 0.0
C405 C 0.72617 0.21703 0.76321 0.0
C406 C 0.69023 0.22689 0.71648 0.0
C407 C 0.74777 0.22841 0.70854 0.0
C408 C 0.76322 0.25553 0.70124 0.0
C409 C 0.78934 0.25577 0.68205 0.0
C410 C 0.79991 0.22754 0.66973 0.0
C411 C 0.78427 0.19942 0.67639 0.0
C412 C 0.75772 0.19994 0.69593 0.0
H413 H 0.19766 0.27765 0.69253 0.0
H414 H 0.27059 0.34648 0.68751 0.0
H415 H 0.30337 0.31352 0.72156 0.0
H416 H 0.21103 0.25412 0.77476 0.0
H417 H 0.20292 0.21379 0.76685 0.0
H418 H 0.18465 0.24356 0.74334 0.0
H419 H 0.20567 0.21806 0.69176 0.0
H420 H 0.22421 0.18836 0.71512 0.0
H421 H 0.24647 0.21154 0.68775 0.0
H422 H 0.32881 0.27256 0.75521 0.0
H423 H 0.34473 0.22661 0.78641 0.0
H424 H 0.25569 0.18411 0.76834 0.0
C425 C 0.22036 0.28599 0.69892 0.0
C426 C 0.23147 0.31473 0.6874 0.0
C427 C 0.26153 0.32455 0.69599 0.0
C428 C 0.28036 0.30601 0.71535 0.0
C429 C 0.26889 0.27762 0.72587 0.0
C430 C 0.23959 0.26765 0.71803 0.0
C431 C 0.23319 0.23575 0.73169 0.0
C432 C 0.20636 0.23689 0.75558 0.0
C433 C 0.22703 0.21203 0.70498 0.0
C434 C 0.26349 0.22934 0.74834 0.0
C435 C 0.28374 0.25381 0.74481 0.0
C436 C 0.31313 0.25324 0.75817 0.0
C437 C 0.32198 0.22701 0.77582 0.0
C438 C 0.30155 0.20164 0.7798 0.0
C439 C 0.27198 0.20296 0.76566 0.0
H440 H 0.10782 0.94694 0.28734 0.0
H441 H 0.20498 0.93114 0.30447 0.0
H442 H 0.21764 0.97867 0.27413 0.0
H443 H 0.11465 0.97812 0.20749 0.0
H444 H 0.08481 0.00663 0.21327 0.0
H445 H 0.08372 0.97062 0.23508 0.0
H446 H 0.08129 0.0013 0.28824 0.0
H447 H 0.08266 0.0374 0.2666 0.0
H448 H 0.11079 0.02946 0.29717 0.0
H449 H 0.21959 0.02737 0.24115 0.0
H450 H 0.21062 0.07483 0.20931 0.0
H451 H 0.11206 0.06069 0.21673 0.0
C452 C 0.13175 0.95337 0.28433 0.0
C453 C 0.15549 0.93552 0.29813 0.0
C454 C 0.18651 0.94477 0.2943 0.0
C455 C 0.19389 0.97161 0.27701 0.0
C456 C 0.16992 0.98907 0.26414 0.0
C457 C 0.13947 0.98043 0.26771 0.0
C458 C 0.11802 0.00387 0.25253 0.0
C459 C 0.0992 0.98891 0.22548 0.0
C460 C 0.09695 0.01889 0.27764 0.0
C461 C 0.14119 0.02694 0.23968 0.0
C462 C 0.171 0.01785 0.24638 0.0
C463 C 0.19635 0.03484 0.23589 0.0
C464 C 0.19106 0.06168 0.21777 0.0
C465 C 0.16069 0.07142 0.21078 0.0
C466 C 0.13551 0.054 0.22223 0.0
H467 H 0.88878 0.44214 0.21761 0.0
H468 H 0.79467 0.44168 0.18293 0.0
H469 H 0.78421 0.48992 0.2127 0.0
H470 H 0.87285 0.47173 0.2963 0.0
H471 H 0.90702 0.49545 0.29768 0.0
H472 H 0.90667 0.46036 0.27431 0.0
H473 H 0.9227 0.49183 0.22428 0.0
H474 H 0.92286 0.52706 0.24744 0.0
H475 H 0.89965 0.52448 0.21186 0.0
H476 H 0.78368 0.53744 0.24745 0.0
H477 H 0.79368 0.58183 0.28343 0.0
H478 H 0.88888 0.55309 0.29278 0.0
C479 C 0.86589 0.45205 0.21651 0.0
C480 C 0.84248 0.43811 0.19804 0.0
C481 C 0.81298 0.452 0.19678 0.0
C482 C 0.8068 0.47938 0.21368 0.0
C483 C 0.83051 0.49274 0.23137 0.0
C484 C 0.85951 0.47964 0.23278 0.0
C485 C 0.88114 0.49903 0.25293 0.0
C486 C 0.89258 0.48054 0.28203 0.0
C487 C 0.90818 0.51133 0.23292 0.0
C488 C 0.85972 0.52501 0.26277 0.0
C489 C 0.83055 0.52081 0.2503 0.0
C490 C 0.80646 0.54108 0.25721 0.0
C491 C 0.8123 0.56611 0.27773 0.0
C492 C 0.84202 0.57078 0.29065 0.0
C493 C 0.86608 0.55023 0.28271 0.0
H494 H 0.3173 0.15325 0.954 0.0
H495 H 0.23686 0.16793 0.89469 0.0
H496 H 0.20604 0.17997 0.94272 0.0
H497 H 0.27941 0.11148 0.01125 0.0
H498 H 0.30105 0.12581 0.04489 0.0
H499 H 0.31826 0.12527 0.00594 0.0
H500 H 0.32944 0.18426 0.01014 0.0
H501 H 0.31222 0.18497 0.04927 0.0
H502 H 0.29838 0.21076 0.01857 0.0
H503 H 0.18287 0.18467 0.99695 0.0
H504 H 0.16767 0.1762 0.05293 0.0
H505 H 0.2625 0.15474 0.07712 0.0
C506 C 0.29345 0.16007 0.95116 0.0
C507 C 0.27945 0.16027 0.92079 0.0
C508 C 0.24794 0.16799 0.91786 0.0
C509 C 0.23037 0.17505 0.94494 0.0
C510 C 0.24464 0.17394 0.97473 0.0
C511 C 0.27544 0.16643 0.97802 0.0
C512 C 0.2841 0.16222 0.01276 0.0
C513 C 0.29641 0.12924 0.01906 0.0
C514 C 0.30741 0.18704 0.0233 0.0
C515 C 0.25311 0.1673 0.02839 0.0
C516 C 0.23088 0.17499 0.00615 0.0
C517 C 0.20015 0.17904 0.01465 0.0
C518 C 0.19174 0.17421 0.04655 0.0
C519 C 0.21389 0.16474 0.0694 0.0
C520 C 0.24507 0.16208 0.06024 0.0
H521 H 0.75341 0.34069 0.06251 0.0
H522 H 0.85039 0.33751 0.03871 0.0
H523 H 0.83706 0.32869 0.98204 0.0
H524 H 0.72779 0.28149 -0.00017 0.0
H525 H 0.69258 0.30265 0.99314 0.0
H526 H 0.70989 0.3022 0.03226 0.0
H527 H 0.71039 0.36237 0.03252 0.0
H528 H 0.69351 0.36306 0.99343 0.0
H529 H 0.72942 0.38284 0.0006 0.0
H530 H 0.81333 0.33359 0.92779 0.0
H531 H 0.78085 0.34502 0.88064 0.0
H532 H 0.69926 0.34013 0.93971 0.0
C533 C 0.77178 0.33696 0.04549 0.0
C534 C 0.80287 0.33972 0.05479 0.0
C535 C 0.82642 0.33508 0.03201 0.0
C536 C 0.81904 0.33013 -0.0002 0.0
C537 C 0.78806 0.32896 0.99109 0.0
C538 C 0.76479 0.33134 0.01346 0.0
C539 C 0.73341 0.33208 0.99776 0.0
C540 C 0.71483 0.30286 0.00625 0.0
C541 C 0.71568 0.36186 0.0066 0.0
C542 C 0.7427 0.33196 0.963 0.0
C543 C 0.77432 0.3299 0.95958 0.0
C544 C 0.78852 0.334 0.93004 0.0
C545 C 0.76999 0.34065 0.90346 0.0
C546 C 0.73765 0.34271 0.90662 0.0
C547 C 0.72387 0.33753 0.93657 0.0
H548 H 0.29672 0.84342 0.56063 0.0
H549 H 0.2147 0.8446 0.61938 0.0
H550 H 0.18277 0.83411 0.57159 0.0
H551 H 0.26632 0.88701 0.5012 0.0
H552 H 0.28586 0.86795 0.46873 0.0
H553 H 0.30257 0.86769 0.50791 0.0
H554 H 0.30465 0.80753 0.50683 0.0
H555 H 0.28793 0.80761 0.46743 0.0
H556 H 0.27002 0.78573 0.49904 0.0
H557 H 0.15953 0.82991 0.51672 0.0
H558 H 0.14664 0.83861 0.45988 0.0
H559 H 0.24382 0.84462 0.43739 0.0
C560 C 0.27215 0.84026 0.5636 0.0
C561 C 0.25814 0.84419 0.59366 0.0
C562 C 0.22582 0.84129 0.59651 0.0
C563 C 0.20758 0.83514 0.56956 0.0
C564 C 0.22205 0.83226 0.53999 0.0
C565 C 0.25365 0.83493 0.53689 0.0
C566 C 0.26322 0.83611 0.50223 0.0
C567 C 0.28048 0.86649 0.49459 0.0
C568 C 0.2826 0.80753 0.49337 0.0
C569 C 0.23203 0.83509 0.48627 0.0
C570 C 0.2086 0.83176 0.50832 0.0
C571 C 0.1777 0.8321 0.49922 0.0
C572 C 0.17059 0.83696 0.46691 0.0
C573 C 0.19429 0.84226 0.44443 0.0
C574 C 0.22531 0.84046 0.45416 0.0
H575 H 0.75179 0.63244 0.58158 0.0
H576 H 0.66851 0.68456 0.56088 0.0
H577 H 0.6888 0.69768 0.50786 0.0
H578 H 0.80546 0.68456 0.53561 0.0
H579 H 0.82816 0.65204 0.52223 0.0
H580 H 0.80933 0.65065 0.56053 0.0
H581 H 0.78215 0.59948 0.54423 0.0
H582 H 0.80078 0.60073 0.50599 0.0
H583 H 0.7594 0.5985 0.50823 0.0
H584 H 0.71308 0.69713 0.45449 0.0
H585 H 0.74178 0.68526 0.405 0.0
H586 H 0.81101 0.63682 0.46024 0.0
C587 C 0.73814 0.64726 0.56623 0.0
C588 C 0.7085 0.65737 0.57549 0.0
C589 C 0.69128 0.67647 0.55447 0.0
C590 C 0.70265 0.6842 0.52427 0.0
C591 C 0.73152 0.67314 0.51554 0.0
C592 C 0.74928 0.65545 0.53602 0.0
C593 C 0.77842 0.64439 0.51975 0.0
C594 C 0.80704 0.65878 0.53547 0.0
C595 C 0.78026 0.60867 0.51953 0.0
C596 C 0.77345 0.65728 0.48651 0.0
C597 C 0.74635 0.67405 0.4847 0.0
C598 C 0.73483 0.68495 0.45573 0.0
C599 C 0.75116 0.6781 0.42781 0.0
C600 C 0.77883 0.66095 0.42922 0.0
C601 C 0.79047 0.65102 0.45892 0.0
H602 H 0.92536 0.27163 0.15181 0.0
H603 H 0.97737 0.35397 0.12561 0.0
H604 H 0.02508 0.32332 0.12539 0.0
H605 H 0.98219 0.23934 0.20445 0.0
H606 H 0.97523 0.19968 0.19273 0.0
H607 H 0.94467 0.22783 0.19033 0.0
H608 H 0.93707 0.21491 0.13045 0.0
H609 H 0.9676 0.18668 0.13267 0.0
H610 H 0.9694 0.21752 0.10365 0.0
H611 H 0.06725 0.28466 0.12864 0.0
H612 H 0.10166 0.23964 0.13492 0.0
H613 H 0.02306 0.18176 0.15888 0.0
C614 C 0.94678 0.28315 0.14593 0.0
C615 C 0.94756 0.31523 0.13872 0.0
C616 C 0.97609 0.32945 0.1312 0.0
C617 C 0.00339 0.31225 0.13099 0.0
C618 C 0.00187 0.28079 0.13829 0.0
C619 C 0.97438 0.26627 0.14557 0.0
C620 C 0.97942 0.23212 0.15272 0.0
C621 C 0.96981 0.2243 0.1871 0.0
C622 C 0.96236 0.2116 0.12842 0.0
C623 C 0.01403 0.22989 0.14852 0.0
C624 C 0.02643 0.25827 0.14014 0.0
C625 C 0.05785 0.26226 0.13512 0.0
C626 C 0.07721 0.23652 0.13876 0.0
C627 C 0.06511 0.20713 0.14737 0.0
C628 C 0.03304 0.20388 0.15225 0.0
H629 H 0.96318 0.69852 0.31513 0.0
H630 H 0.91397 0.71428 0.40384 0.0
H631 H 0.95495 0.75003 0.42148 0.0
H632 H 0.03975 0.69991 0.34863 0.0
H633 H 0.05644 0.71991 0.31506 0.0
H634 H 0.02346 0.69515 0.30936 0.0
H635 H 0.99362 0.74079 0.28349 0.0
H636 H 0.02657 0.76561 0.28893 0.0
H637 H 0.98974 0.77684 0.30499 0.0
H638 H 0.00079 0.78415 0.42948 0.0
H639 H 0.04756 0.81633 0.42648 0.0
H640 H 0.0673 0.77876 0.33251 0.0
C641 C 0.96099 0.70947 0.33827 0.0
C642 C 0.93533 0.70353 0.35812 0.0
C643 C 0.93336 0.71844 0.3882 0.0
C644 C 0.95657 0.73873 0.39848 0.0
C645 C 0.98161 0.74389 0.37844 0.0
C646 C 0.98394 0.72984 0.34892 0.0
C647 C 0.01302 0.73989 0.33178 0.0
C648 C 0.03443 0.71205 0.32587 0.0
C649 C 0.00526 0.75679 0.30045 0.0
C650 C 0.02655 0.76194 0.35623 0.0
C651 C 0.00811 0.76375 0.38302 0.0
C652 C 0.01545 0.78291 0.40866 0.0
C653 C 0.04211 0.8011 0.4067 0.0
C654 C 0.06115 0.80009 0.37927 0.0
C655 C 0.05335 0.77992 0.35388 0.0
H656 H 0.54705 0.72099 0.70341 0.0
H657 H 0.56244 0.70947 0.60174 0.0
H658 H 0.5138 0.73722 0.59059 0.0
H659 H 0.46654 0.7086 0.70218 0.0
H660 H 0.45822 0.73732 0.73225 0.0
H661 H 0.49485 0.71778 0.73221 0.0
H662 H 0.52319 0.77074 0.73002 0.0
H663 H 0.48665 0.79046 0.73056 0.0
H664 H 0.5137 0.79805 0.69892 0.0
H665 H 0.46201 0.76441 0.59089 0.0
H666 H 0.41378 0.79276 0.60256 0.0
H667 H 0.4331 0.78582 0.70398 0.0
C668 C 0.54043 0.72457 0.67876 0.0
C669 C 0.55854 0.71303 0.65346 0.0
C670 C 0.54897 0.71819 0.62154 0.0
C671 C 0.52131 0.73378 0.61497 0.0
C672 C 0.50361 0.74414 0.64056 0.0
C673 C 0.513 0.74005 0.67179 0.0
C674 C 0.48988 0.75326 0.69505 0.0
C675 C 0.47659 0.72771 0.71669 0.0
C676 C 0.50421 0.7797 0.71479 0.0
C677 C 0.46591 0.76535 0.67204 0.0
C678 C 0.4741 0.75979 0.64072 0.0
C679 C 0.45541 0.76897 0.61534 0.0
C680 C 0.428 0.7849 0.6222 0.0
C681 C 0.41968 0.79152 0.65417 0.0
C682 C 0.43876 0.78113 0.67928 0.0
H683 H 0.80044 0.05462 0.72728 0.0
H684 H 0.89689 0.0647 0.70267 0.0
H685 H 0.90985 0.02115 0.73877 0.0
H686 H 0.81319 0.03347 0.81195 0.0
H687 H 0.78126 0.00673 0.81178 0.0
H688 H 0.78048 0.04054 0.78645 0.0
H689 H 0.77125 0.00511 0.73735 0.0
H690 H 0.77253 0.9712 0.76238 0.0
H691 H 0.79817 0.97438 0.72875 0.0
H692 H 0.91094 0.97182 0.77224 0.0
H693 H 0.90091 0.9255 0.8058 0.0
H694 H 0.8041 0.94995 0.80963 0.0
C695 C 0.82438 0.04813 0.73001 0.0
C696 C 0.84766 0.06301 0.71219 0.0
C697 C 0.87872 0.05381 0.71635 0.0
C698 C 0.88627 0.02897 0.73663 0.0
C699 C 0.86255 0.01403 0.75296 0.0
C700 C 0.83232 0.02376 0.75039 0.0
C701 C 0.81094 0.00344 0.76971 0.0
C702 C 0.79557 0.02216 0.79657 0.0
C703 C 0.78681 0.9876 0.74826 0.0
C704 C 0.83369 0.9802 0.78287 0.0
C705 C 0.86335 0.98652 0.77292 0.0
C706 C 0.88788 0.96698 0.78064 0.0
C707 C 0.88195 0.94063 0.79947 0.0
C708 C 0.8518 0.93431 0.81052 0.0
C709 C 0.82749 0.95441 0.80196 0.0
H710 H 0.2001 0.55223 0.78079 0.0
H711 H 0.10236 0.56971 0.7915 0.0
H712 H 0.09112 0.52786 0.75254 0.0
H713 H 0.19742 0.53537 0.69488 0.0
H714 H 0.22698 0.50616 0.69797 0.0
H715 H 0.22677 0.53858 0.72514 0.0
H716 H 0.22656 0.50036 0.77294 0.0
H717 H 0.22633 0.46785 0.74597 0.0
H718 H 0.19662 0.47148 0.77573 0.0
H719 H 0.09103 0.47972 0.71674 0.0
H720 H 0.10229 0.43453 0.6819 0.0
H721 H 0.20008 0.45171 0.69304 0.0
C722 C 0.17633 0.54757 0.77458 0.0
C723 C 0.15207 0.56406 0.78915 0.0
C724 C 0.12128 0.55743 0.78037 0.0
C725 C 0.11469 0.53361 0.75844 0.0
C726 C 0.13921 0.51717 0.74516 0.0
C727 C 0.16943 0.52438 0.75243 0.0
C728 C 0.1917 0.50333 0.73516 0.0
C729 C 0.2119 0.52198 0.7119 0.0
C730 C 0.21145 0.48466 0.75887 0.0
C731 C 0.16936 0.48262 0.71754 0.0
C732 C 0.13916 0.49069 0.72371 0.0
C733 C 0.1146 0.47355 0.71134 0.0
C734 C 0.12118 0.44784 0.69179 0.0
C735 C 0.15202 0.43989 0.68456 0.0
C736 C 0.17626 0.45755 0.69773 0.0
H737 H 0.7091 0.86628 0.04316 0.0
H738 H 0.69275 0.76756 0.05507 0.0
H739 H 0.73331 0.75636 0.01512 0.0
H740 H 0.72132 0.86446 0.95913 0.0
H741 H 0.75065 0.89405 0.95999 0.0
H742 H 0.7209 0.89377 0.98985 0.0
H743 H 0.76236 0.89246 0.03441 0.0
H744 H 0.79226 0.89269 0.00467 0.0
H745 H 0.79106 0.86223 0.03416 0.0
H746 H 0.77646 0.75657 0.97378 0.0
H747 H 0.81588 0.76822 0.93276 0.0
H748 H 0.80237 0.86682 0.94879 0.0
C749 C 0.71413 0.84226 0.03758 0.0
C750 C 0.698 0.81776 0.05234 0.0
C751 C 0.7049 0.78667 0.04397 0.0
C752 C 0.72795 0.78011 0.02144 0.0
C753 C 0.74361 0.80493 0.0075 0.0
C754 C 0.73679 0.83537 0.01517 0.0
C755 C 0.75623 0.85799 0.99644 0.0
C756 C 0.73607 0.87878 0.97509 0.0
C757 C 0.77669 0.87748 0.01875 0.0
C758 C 0.7751 0.83558 0.97688 0.0
C759 C 0.76775 0.80506 0.98365 0.0
C760 C 0.78235 0.78039 0.96829 0.0
C761 C 0.80475 0.78721 0.94514 0.0
C762 C 0.812 0.81841 0.93753 0.0
C763 C 0.79713 0.84274 0.9539 0.0
H764 H 0.20703 0.68338 0.94508 0.0
H765 H 0.16313 0.59345 0.95474 0.0
H766 H 0.19023 0.58496 0.00577 0.0
H767 H 0.28008 0.65767 0.97234 0.0
H768 H 0.28988 0.69306 0.99297 0.0
H769 H 0.26418 0.69419 0.95926 0.0
H770 H 0.22287 0.72144 0.9939 0.0
H771 H 0.24847 0.72036 0.02776 0.0
H772 H 0.21055 0.7036 0.03065 0.0
H773 H 0.22252 0.58501 0.05383 0.0
H774 H 0.26263 0.59081 0.09462 0.0
H775 H 0.28966 0.67919 0.05316 0.0
C776 C 0.20282 0.66226 0.95841 0.0
C777 C 0.18275 0.63919 0.94655 0.0
C778 C 0.17833 0.61137 0.9638 0.0
C779 C 0.19347 0.60644 0.99279 0.0
C780 C 0.21335 0.62938 0.00386 0.0
C781 C 0.21847 0.65658 0.98715 0.0
C782 C 0.24342 0.67587 0.00305 0.0
C783 C 0.27103 0.68045 0.98057 0.0
C784 C 0.23055 0.70717 0.01452 0.0
C785 C 0.25165 0.65503 0.03101 0.0
C786 C 0.2335 0.62868 0.0312 0.0
C787 C 0.23683 0.60558 0.0541 0.0
C788 C 0.25968 0.60918 0.07726 0.0
C789 C 0.27925 0.63552 0.0772 0.0
C790 C 0.27496 0.65889 0.05389 0.0
H791 H 0.71066 0.17826 0.43906 0.0
H792 H 0.71524 0.08096 0.41217 0.0
H793 H 0.75096 0.07092 0.45647 0.0
H794 H 0.79255 0.18417 0.46083 0.0
H795 H 0.78556 0.21035 0.4936 0.0
H796 H 0.76021 0.21038 0.45953 0.0
H797 H 0.71363 0.20082 0.4968 0.0
H798 H 0.73885 0.20055 0.53094 0.0
H799 H 0.71396 0.16787 0.52334 0.0
H800 H 0.7815 0.06982 0.50581 0.0
H801 H 0.81229 0.07917 0.55431 0.0
H802 H 0.79361 0.1779 0.5474 0.0
C803 C 0.71942 0.15496 0.44246 0.0
C804 C 0.71011 0.13035 0.42229 0.0
C805 C 0.72216 0.10018 0.42725 0.0
C806 C 0.74237 0.09418 0.45243 0.0
C807 C 0.75083 0.11872 0.4721 0.0
C808 C 0.74038 0.14864 0.46715 0.0
C809 C 0.75401 0.17075 0.49164 0.0
C810 C 0.77429 0.19537 0.47543 0.0
C811 C 0.72859 0.18588 0.51187 0.0
C812 C 0.77319 0.14835 0.51135 0.0
C813 C 0.77055 0.11842 0.49976 0.0
C814 C 0.78426 0.09319 0.51485 0.0
C815 C 0.80152 0.0987 0.54241 0.0
C816 C 0.80544 0.1292 0.55418 0.0
C817 C 0.79125 0.15443 0.53843 0.0
H818 H 0.21397 0.37258 0.55026 0.0
H819 H 0.19475 0.27452 0.56327 0.0
H820 H 0.23669 0.26154 0.52554 0.0
H821 H 0.22984 0.36873 0.46692 0.0
H822 H 0.2598 0.39764 0.4686 0.0
H823 H 0.22876 0.39865 0.49699 0.0
H824 H 0.26821 0.39727 0.54347 0.0
H825 H 0.29939 0.39613 0.51521 0.0
H826 H 0.29612 0.36634 0.54523 0.0
H827 H 0.28162 0.25983 0.48625 0.0
H828 H 0.32273 0.26981 0.44646 0.0
H829 H 0.31093 0.36895 0.46018 0.0
C830 C 0.21864 0.34835 0.54535 0.0
C831 C 0.2013 0.32454 0.5598 0.0
C832 C 0.2078 0.29313 0.55237 0.0
C833 C 0.23164 0.28554 0.53112 0.0
C834 C 0.24854 0.30968 0.51751 0.0
C835 C 0.2421 0.34044 0.52421 0.0
C836 C 0.26289 0.36218 0.50598 0.0
C837 C 0.2442 0.38301 0.48327 0.0
C838 C 0.28283 0.38162 0.52884 0.0
C839 C 0.28204 0.33891 0.48782 0.0
C840 C 0.27371 0.30871 0.49484 0.0
C841 C 0.28831 0.2834 0.48057 0.0
C842 C 0.31167 0.28925 0.45815 0.0
C843 C 0.31981 0.32012 0.45018 0.0
C844 C 0.30501 0.34509 0.46559 0.0
H845 H 0.08135 0.72926 0.83585 0.0
H846 H 0.03717 0.65699 0.78003 0.0
H847 H 0.99305 0.6918 0.77012 0.0
H848 H 0.01739 0.75224 0.8757 0.0
H849 H 0.02619 0.79314 0.87662 0.0
H850 H 0.0568 0.76526 0.87385 0.0
H851 H 0.07665 0.7918 0.82232 0.0
H852 H 0.04609 0.82 0.82503 0.0
H853 H 0.05079 0.7974 0.78916 0.0
H854 H 0.95054 0.73106 0.77347 0.0
H855 H 0.91327 0.77117 0.79015 0.0
H856 H 0.98522 0.81766 0.84391 0.0
C857 C 0.06288 0.72106 0.82067 0.0
C858 C 0.06279 0.69043 0.8086 0.0
C859 C 0.03782 0.6804 0.78943 0.0
C860 C 0.01269 0.70007 0.78356 0.0
C861 C 0.01299 0.72977 0.7968 0.0
C862 C 0.03759 0.74032 0.81474 0.0
C863 C 0.03085 0.77174 0.82935 0.0
C864 C 0.03292 0.77049 0.86604 0.0
C865 C 0.05238 0.79671 0.81563 0.0
C866 C 0.99807 0.77653 0.81816 0.0
C867 C 0.98836 0.75239 0.79888 0.0
C868 C 0.95807 0.75039 0.78801 0.0
C869 C 0.93703 0.77327 0.79767 0.0
C870 C 0.94633 0.79764 0.81826 0.0
C871 C 0.97746 0.7996 0.82782 0.0
H872 H 0.02085 0.33052 0.62997 0.0
H873 H 0.08226 0.27674 0.69019 0.0
H874 H 0.0406 0.23873 0.69964 0.0
H875 H 0.94875 0.31436 0.67496 0.0
H876 H 0.9264 0.31216 0.63877 0.0
H877 H 0.95955 0.33727 0.64075 0.0
H878 H 0.98237 0.31007 0.59094 0.0
H879 H 0.94953 0.28473 0.58897 0.0
H880 H 0.98772 0.26855 0.59135 0.0
H881 H 0.99434 0.20335 0.69685 0.0
H882 H 0.947 0.17436 0.68336 0.0
H883 H 0.9162 0.25161 0.62495 0.0
C884 C 0.02538 0.3112 0.64583 0.0
C885 C 0.05482 0.30667 0.65942 0.0
C886 C 0.05985 0.28081 0.67965 0.0
C887 C 0.03631 0.25909 0.68517 0.0
C888 C 0.00785 0.26375 0.6705 0.0
C889 C 0.00223 0.28937 0.65151 0.0
C890 C 0.97058 0.28783 0.63645 0.0
C891 C 0.95011 0.31449 0.64846 0.0
C892 C 0.9727 0.28778 0.59977 0.0
C893 C 0.95962 0.25683 0.64903 0.0
C894 C 0.98126 0.24342 0.66891 0.0
C895 C 0.97704 0.21386 0.68173 0.0
C896 C 0.95011 0.19753 0.67383 0.0
C897 C 0.92782 0.21074 0.65317 0.0
C898 C 0.93259 0.24097 0.64107 0.0
H899 H 0.54887 0.18889 0.34094 0.0
H900 H 0.6206 0.25646 0.32181 0.0
H901 H 0.58117 0.29616 0.31051 0.0
H902 H 0.49121 0.21899 0.28205 0.0
H903 H 0.45947 0.21195 0.30875 0.0
H904 H 0.49301 0.18733 0.31014 0.0
H905 H 0.4994 0.19912 0.37042 0.0
H906 H 0.46593 0.22362 0.36922 0.0
H907 H 0.50203 0.23891 0.38352 0.0
H908 H 0.535 0.32982 0.30729 0.0
H909 H 0.48524 0.35606 0.31549 0.0
H910 H 0.44281 0.2674 0.33777 0.0
C911 C 0.55617 0.21184 0.33354 0.0
C912 C 0.58772 0.21961 0.332 0.0
C913 C 0.59651 0.25006 0.32311 0.0
C914 C 0.5743 0.27269 0.31641 0.0
C915 C 0.54336 0.26455 0.31877 0.0
C916 C 0.53422 0.23489 0.32718 0.0
C917 C 0.4996 0.23324 0.33154 0.0
C918 C 0.48496 0.21159 0.30663 0.0
C919 C 0.49127 0.22314 0.3657 0.0
C920 C 0.49092 0.26683 0.32543 0.0
C921 C 0.51646 0.28431 0.31745 0.0
C922 C 0.51473 0.31632 0.31304 0.0
C923 C 0.48635 0.33104 0.31781 0.0
C924 C 0.4601 0.3138 0.32714 0.0
C925 C 0.46232 0.28115 0.33009 0.0
H926 H 0.67679 0.55725 0.70848 0.0
H927 H 0.57968 0.57856 0.72014 0.0
H928 H 0.57285 0.53118 0.75181 0.0
H929 H 0.66939 0.47543 0.7014 0.0
H930 H 0.70297 0.46602 0.72476 0.0
H931 H 0.70119 0.50228 0.70341 0.0
H932 H 0.71134 0.53246 0.75584 0.0
H933 H 0.71345 0.49626 0.77732 0.0
H934 H 0.68679 0.52591 0.78984 0.0
H935 H 0.57461 0.47986 0.77704 0.0
H936 H 0.58668 0.42972 0.80238 0.0
H937 H 0.68335 0.44226 0.77974 0.0
C938 C 0.65423 0.55205 0.71804 0.0
C939 C 0.62876 0.57158 0.71173 0.0
C940 C 0.59958 0.56408 0.72472 0.0
C941 C 0.59537 0.53711 0.74264 0.0
C942 C 0.62067 0.51808 0.74795 0.0
C943 C 0.64969 0.52537 0.73673 0.0
C944 C 0.67288 0.5008 0.74664 0.0
C945 C 0.68746 0.48522 0.7173 0.0
C946 C 0.69758 0.51469 0.76873 0.0
C947 C 0.65211 0.47842 0.76454 0.0
C948 C 0.62204 0.48883 0.76454 0.0
C949 C 0.59813 0.47163 0.77773 0.0
C950 C 0.60517 0.44312 0.79184 0.0
C951 C 0.6359 0.43239 0.79318 0.0
C952 C 0.65973 0.45025 0.77939 0.0
H953 H 0.31794 0.05884 0.79557 0.0
H954 H 0.41306 0.08455 0.77727 0.0
H955 H 0.41938 0.03833 0.74376 0.0
H956 H 0.32916 0.97782 0.80044 0.0
H957 H 0.29447 0.96707 0.77956 0.0
H958 H 0.29615 0.00317 0.80121 0.0
H959 H 0.281 0.03339 0.75014 0.0
H960 H 0.27892 0.99734 0.72838 0.0
H961 H 0.3033 0.0283 0.71426 0.0
H962 H 0.41793 0.98761 0.71779 0.0
H963 H 0.40659 0.93719 0.69306 0.0
H964 H 0.31122 0.94454 0.72305 0.0
C965 C 0.3399 0.05495 0.78409 0.0
C966 C 0.36503 0.0753 0.78916 0.0
C967 C 0.39344 0.06939 0.77376 0.0
C968 C 0.39735 0.04312 0.75471 0.0
C969 C 0.37248 0.02319 0.75079 0.0
C970 C 0.3441 0.02895 0.76437 0.0
C971 C 0.32134 0.00343 0.75593 0.0
C972 C 0.30959 0.9869 0.78609 0.0
C973 C 0.29455 0.0164 0.73598 0.0
C974 C 0.34171 0.98221 0.73617 0.0
C975 C 0.37118 0.99411 0.73395 0.0
C976 C 0.39485 0.97821 0.71884 0.0
C977 C 0.38821 0.94948 0.70511 0.0
C978 C 0.35804 0.93712 0.70608 0.0
C979 C 0.3344 0.95371 0.72174 0.0
H980 H 0.44518 0.22269 0.79794 0.0
H981 H 0.4384 0.20504 0.89968 0.0
H982 H 0.4898 0.2286 0.90753 0.0
H983 H 0.52442 0.20503 0.7898 0.0
H984 H 0.53192 0.23524 0.76107 0.0
H985 H 0.49417 0.21815 0.76359 0.0
H986 H 0.46995 0.27249 0.77245 0.0
H987 H 0.50755 0.2898 0.76936 0.0
H988 H 0.48424 0.29684 0.80416 0.0
H989 H 0.54325 0.2522 0.90361 0.0
H990 H 0.59167 0.27885 0.88912 0.0
H991 H 0.56271 0.28061 0.78995 0.0
C992 C 0.45429 0.22406 0.82197 0.0
C993 C 0.43775 0.21199 0.8482 0.0
C994 C 0.45057 0.21426 0.87922 0.0
C995 C 0.47984 0.22742 0.88389 0.0
C996 C 0.49587 0.23827 0.85732 0.0
C997 C 0.48333 0.2371 0.82703 0.0
C998 C 0.50508 0.25046 0.80242 0.0
C999 C 0.51444 0.22574 0.77778 0.0
C1000 C 0.49086 0.2791 0.78615 0.0
C1001 C 0.53192 0.25931 0.82354 0.0
C1002 C 0.52632 0.25194 0.8551 0.0
C1003 C 0.54782 0.25815 0.87897 0.0
C1004 C 0.57535 0.27313 0.87047 0.0
C1005 C 0.58103 0.28185 0.83839 0.0
C1006 C 0.55918 0.27421 0.81466 0.0
H1007 H 0.30118 0.55423 0.24379 0.0
H1008 H 0.39371 0.56075 0.20558 0.0
H1009 H 0.40993 0.51714 0.24032 0.0
H1010 H 0.32374 0.53377 0.32591 0.0
H1011 H 0.29126 0.50811 0.3305 0.0
H1012 H 0.28837 0.54156 0.30485 0.0
H1013 H 0.27205 0.50581 0.25799 0.0
H1014 H 0.27531 0.47225 0.2833 0.0
H1015 H 0.29669 0.47404 0.24651 0.0
H1016 H 0.4139 0.46835 0.27527 0.0
H1017 H 0.40644 0.42288 0.31082 0.0
H1018 H 0.31154 0.45071 0.3259 0.0
C1019 C 0.32502 0.54691 0.24312 0.0
C1020 C 0.34618 0.56082 0.22199 0.0
C1021 C 0.37717 0.55056 0.22182 0.0
C1022 C 0.38654 0.52572 0.24134 0.0
C1023 C 0.36473 0.51182 0.26115 0.0
C1024 C 0.33475 0.52251 0.26254 0.0
C1025 C 0.31534 0.50324 0.28488 0.0
C1026 C 0.30402 0.52284 0.31322 0.0
C1027 C 0.28827 0.48794 0.2671 0.0
C1028 C 0.3388 0.47947 0.29532 0.0
C1029 C 0.36719 0.48461 0.28149 0.0
C1030 C 0.39187 0.46442 0.28659 0.0
C1031 C 0.38739 0.43858 0.30664 0.0
C1032 C 0.3585 0.43335 0.32136 0.0
C1033 C 0.33406 0.45418 0.31543 0.0
H1034 H 0.69447 0.06106 0.24941 0.0
H1035 H 0.602 0.06016 0.28816 0.0
H1036 H 0.5888 0.01585 0.2529 0.0
H1037 H 0.6732 0.03809 0.16659 0.0
H1038 H 0.70771 0.01522 0.16249 0.0
H1039 H 0.70779 0.04932 0.18741 0.0
H1040 H 0.72715 0.01602 0.23491 0.0
H1041 H 0.72661 0.98178 0.2104 0.0
H1042 H 0.7052 0.98256 0.24721 0.0
H1043 H 0.58881 0.96636 0.21871 0.0
H1044 H 0.60041 0.92035 0.1852 0.0
H1045 H 0.69266 0.95585 0.16928 0.0
C1046 C 0.67117 0.0521 0.24987 0.0
C1047 C 0.64923 0.06399 0.27142 0.0
C1048 C 0.61904 0.05158 0.2715 0.0
C1049 C 0.61142 0.02631 0.2517 0.0
C1050 C 0.63412 0.01424 0.23167 0.0
C1051 C 0.66319 0.02726 0.2302 0.0
C1052 C 0.68414 0.00924 0.20824 0.0
C1053 C 0.69377 0.02915 0.17947 0.0
C1054 C 0.71242 0.99666 0.22628 0.0
C1055 C 0.66275 0.98335 0.19836 0.0
C1056 C 0.63393 0.98651 0.21189 0.0
C1057 C 0.61114 0.96402 0.20754 0.0
C1058 C 0.61798 0.93787 0.18866 0.0
C1059 C 0.64737 0.93453 0.17441 0.0
C1060 C 0.66982 0.95776 0.17941 0.0
H1061 H 0.51698 0.82435 0.12739 0.0
H1062 H 0.58016 0.76833 0.18334 0.0
H1063 H 0.53825 0.731 0.19437 0.0
H1064 H 0.44746 0.80952 0.17636 0.0
H1065 H 0.42288 0.80839 0.1417 0.0
H1066 H 0.45683 0.83246 0.14172 0.0
H1067 H 0.47572 0.8051 0.09026 0.0
H1068 H 0.44206 0.78078 0.09023 0.0
H1069 H 0.47981 0.76343 0.08992 0.0
H1070 H 0.49101 0.69687 0.19397 0.0
H1071 H 0.44175 0.66981 0.18412 0.0
H1072 H 0.40967 0.74862 0.12873 0.0
C1073 C 0.52191 0.80463 0.14258 0.0
C1074 C 0.55187 0.79931 0.15456 0.0
C1075 C 0.55736 0.77299 0.17403 0.0
C1076 C 0.5337 0.75164 0.18041 0.0
C1077 C 0.50465 0.75713 0.16739 0.0
C1078 C 0.49861 0.78318 0.14917 0.0
C1079 C 0.46606 0.78276 0.13623 0.0
C1080 C 0.4472 0.80989 0.14982 0.0
C1081 C 0.46593 0.78302 0.09949 0.0
C1082 C 0.45496 0.75195 0.14921 0.0
C1083 C 0.47745 0.7376 0.16732 0.0
C1084 C 0.47308 0.7081 0.18023 0.0
C1085 C 0.44507 0.69286 0.17439 0.0
C1086 C 0.42178 0.70713 0.15575 0.0
C1087 C 0.42683 0.73721 0.14336 0.0
loop_
_geom_bond_atom_site_label_1
_geom_bond_atom_site_label_2
_geom_bond_distance
_geom_bond_site_symmetry_2
_ccdc_geom_bond_type
Mg0 O1 2.028 . S
Mg0 O7 1.986 . S
Mg0 O9 2.114 . S
Mg0 O10 2.251 . S
Mg0 O13 2.010 . S
O1 Mg0 2.028 . S
O1 C4 1.250 . S
O2 Mg3 2.028 . S
O2 C4 1.248 . S
Mg3 O2 2.028 . S
Mg3 O8 2.032 . S
Mg3 O10 2.079 . S
C4 O1 1.250 . S
C4 O2 1.248 . S
C5 O6 1.264 . S
C5 O13 1.249 . S
O6 C5 1.264 . S
O7 Mg0 1.986 . S
O7 C11 1.246 . S
O8 Mg3 2.032 . S
O8 C11 1.259 . S
O9 Mg0 2.114 . S
O9 C12 1.252 . S
O10 Mg0 2.251 . S
O10 Mg3 2.079 . S
O10 C12 1.273 . S
C11 O7 1.246 . S
C11 O8 1.259 . S
C12 O9 1.252 . S
C12 O10 1.273 . S
O13 Mg0 2.010 . S
O13 C5 1.249 . S
Mg14 O15 2.028 . S
Mg14 O21 1.986 . S
Mg14 O23 2.114 . S
Mg14 O24 2.251 . S
Mg14 O27 2.010 . S
O15 Mg14 2.028 . S
O15 C18 1.250 . S
O16 Mg17 2.028 . S
O16 C18 1.248 . S
Mg17 O16 2.028 . S
Mg17 O22 2.032 . S
Mg17 O24 2.079 . S
C18 O15 1.250 . S
C18 O16 1.248 . S
C19 O20 1.264 . S
C19 O27 1.249 . S
O20 C19 1.264 . S
O21 Mg14 1.986 . S
O21 C25 1.246 . S
O22 Mg17 2.032 . S
O22 C25 1.259 . S
O23 Mg14 2.114 . S
O23 C26 1.252 . S
O24 Mg14 2.251 . S
O24 Mg17 2.079 . S
O24 C26 1.273 . S
C25 O21 1.246 . S
C25 O22 1.259 . S
C26 O23 1.252 . S
C26 O24 1.273 . S
O27 Mg14 2.010 . S
O27 C19 1.249 . S
Mg28 O29 2.028 . S
Mg28 O35 1.986 . S
Mg28 O37 2.114 . S
Mg28 O38 2.251 . S
Mg28 O41 2.010 . S
O29 Mg28 2.028 . S
O29 C32 1.250 . S
O30 Mg31 2.028 . S
O30 C32 1.248 . S
Mg31 O30 2.028 . S
Mg31 O36 2.032 . S
Mg31 O38 2.079 . S
C32 O29 1.250 . S
C32 O30 1.248 . S
C33 O34 1.264 . S
C33 O41 1.249 . S
O34 C33 1.264 . S
O35 Mg28 1.986 . S
O35 C39 1.246 . S
O36 Mg31 2.032 . S
O36 C39 1.259 . S
O37 Mg28 2.114 . S
O37 C40 1.252 . S
O38 Mg28 2.251 . S
O38 Mg31 2.079 . S
O38 C40 1.273 . S
C39 O35 1.246 . S
C39 O36 1.259 . S
C40 O37 1.252 . S
C40 O38 1.273 . S
O41 Mg28 2.010 . S
O41 C33 1.249 . S
Mg42 O43 2.028 . S
Mg42 O49 1.986 . S
Mg42 O51 2.114 . S
Mg42 O52 2.251 . S
Mg42 O55 2.010 . S
O43 Mg42 2.028 . S
O43 C46 1.250 . S
O44 Mg45 2.028 . S
O44 C46 1.248 . S
Mg45 O44 2.028 . S
Mg45 O50 2.032 . S
Mg45 O52 2.079 . S
C46 O43 1.250 . S
C46 O44 1.248 . S
C47 O48 1.264 . S
C47 O55 1.249 . S
O48 C47 1.264 . S
O49 Mg42 1.986 . S
O49 C53 1.246 . S
O50 Mg45 2.032 . S
O50 C53 1.259 . S
O51 Mg42 2.114 . S
O51 C54 1.252 . S
O52 Mg42 2.251 . S
O52 Mg45 2.079 . S
O52 C54 1.273 . S
C53 O49 1.246 . S
C53 O50 1.259 . S
C54 O51 1.252 . S
C54 O52 1.273 . S
O55 Mg42 2.010 . S
O55 C47 1.249 . S
Mg56 O57 2.028 . S
Mg56 O63 1.986 . S
Mg56 O65 2.114 . S
Mg56 O66 2.251 . S
Mg56 O69 2.010 . S
O57 Mg56 2.028 . S
O57 C60 1.250 . S
O58 Mg59 2.028 . S
O58 C60 1.248 . S
Mg59 O58 2.028 . S
Mg59 O64 2.032 . S
Mg59 O66 2.079 . S
C60 O57 1.250 . S
C60 O58 1.248 . S
C61 O62 1.264 . S
C61 O69 1.249 . S
O62 C61 1.264 . S
O63 Mg56 1.986 . S
O63 C67 1.246 . S
O64 Mg59 2.032 . S
O64 C67 1.259 . S
O65 Mg56 2.114 . S
O65 C68 1.252 . S
O66 Mg56 2.251 . S
O66 Mg59 2.079 . S
O66 C68 1.273 . S
C67 O63 1.246 . S
C67 O64 1.259 . S
C68 O65 1.252 . S
C68 O66 1.273 . S
O69 Mg56 2.010 . S
O69 C61 1.249 . S
Mg70 O71 2.028 . S
Mg70 O77 1.986 . S
Mg70 O79 2.114 . S
Mg70 O80 2.251 . S
Mg70 O83 2.010 . S
O71 Mg70 2.028 . S
O71 C74 1.250 . S
O72 Mg73 2.028 . S
O72 C74 1.248 . S
Mg73 O72 2.028 . S
Mg73 O78 2.032 . S
Mg73 O80 2.079 . S
C74 O71 1.250 . S
C74 O72 1.248 . S
C75 O76 1.264 . S
C75 O83 1.249 . S
O76 C75 1.264 . S
O77 Mg70 1.986 . S
O77 C81 1.246 . S
O78 Mg73 2.032 . S
O78 C81 1.259 . S
O79 Mg70 2.114 . S
O79 C82 1.252 . S
O80 Mg70 2.251 . S
O80 Mg73 2.079 . S
O80 C82 1.273 . S
C81 O77 1.246 . S
C81 O78 1.259 . S
C82 O79 1.252 . S
C82 O80 1.273 . S
O83 Mg70 2.010 . S
O83 C75 1.249 . S
Mg84 O85 2.028 . S
Mg84 O91 1.986 . S
Mg84 O93 2.114 . S
Mg84 O94 2.251 . S
Mg84 O97 2.010 . S
O85 Mg84 2.028 . S
O85 C88 1.250 . S
O86 Mg87 2.028 . S
O86 C88 1.248 . S
Mg87 O86 2.028 . S
Mg87 O92 2.032 . S
Mg87 O94 2.079 . S
C88 O85 1.250 . S
C88 O86 1.248 . S
C89 O90 1.264 . S
C89 O97 1.249 . S
O90 C89 1.264 . S
O91 Mg84 1.986 . S
O91 C95 1.246 . S
O92 Mg87 2.032 . S
O92 C95 1.259 . S
O93 Mg84 2.114 . S
O93 C96 1.252 . S
O94 Mg84 2.251 . S
O94 Mg87 2.079 . S
O94 C96 1.273 . S
C95 O91 1.246 . S
C95 O92 1.259 . S
C96 O93 1.252 . S
C96 O94 1.273 . S
O97 Mg84 2.010 . S
O97 C89 1.249 . S
Mg98 O99 2.028 . S
Mg98 O105 1.986 . S
Mg98 O107 2.114 . S
Mg98 O108 2.251 . S
Mg98 O111 2.010 . S
O99 Mg98 2.028 . S
O99 C102 1.250 . S
O100 Mg101 2.028 . S
O100 C102 1.248 . S
Mg101 O100 2.028 . S
Mg101 O106 2.032 . S
Mg101 O108 2.079 . S
C102 O99 1.250 . S
C102 O100 1.248 . S
C103 O104 1.264 . S
C103 O111 1.249 . S
O104 C103 1.264 . S
O105 Mg98 1.986 . S
O105 C109 1.246 . S
O106 Mg101 2.032 . S
O106 C109 1.259 . S
O107 Mg98 2.114 . S
O107 C110 1.252 . S
O108 Mg98 2.251 . S
O108 Mg101 2.079 . S
O108 C110 1.273 . S
C109 O105 1.246 . S
C109 O106 1.259 . S
C110 O107 1.252 . S
C110 O108 1.273 . S
O111 Mg98 2.010 . S
O111 C103 1.249 . S
Mg112 O113 2.028 . S
Mg112 O119 1.986 . S
Mg112 O121 2.114 . S
Mg112 O122 2.251 . S
Mg112 O125 2.010 . S
O113 Mg112 2.028 . S
O113 C116 1.250 . S
O114 Mg115 2.028 . S
O114 C116 1.248 . S
Mg115 O114 2.028 . S
Mg115 O120 2.032 . S
Mg115 O122 2.079 . S
C116 O113 1.250 . S
C116 O114 1.248 . S
C117 O118 1.264 . S
C117 O125 1.249 . S
O118 C117 1.264 . S
O119 Mg112 1.986 . S
O119 C123 1.246 . S
O120 Mg115 2.032 . S
O120 C123 1.259 . S
O121 Mg112 2.114 . S
O121 C124 1.252 . S
O122 Mg112 2.251 . S
O122 Mg115 2.079 . S
O122 C124 1.273 . S
C123 O119 1.246 . S
C123 O120 1.259 . S
C124 O121 1.252 . S
C124 O122 1.273 . S
O125 Mg112 2.010 . S
O125 C117 1.249 . S
Mg126 O127 2.028 . S
Mg126 O133 1.986 . S
Mg126 O135 2.114 . S
Mg126 O136 2.251 . S
Mg126 O139 2.010 . S
O127 Mg126 2.028 . S
O127 C130 1.250 . S
O128 Mg129 2.028 . S
O128 C130 1.248 . S
Mg129 O128 2.028 . S
Mg129 O134 2.032 . S
Mg129 O136 2.079 . S
C130 O127 1.250 . S
C130 O128 1.248 . S
C131 O132 1.264 . S
C131 O139 1.249 . S
O132 C131 1.264 . S
O133 Mg126 1.986 . S
O133 C137 1.246 . S
O134 Mg129 2.032 . S
O134 C137 1.259 . S
O135 Mg126 2.114 . S
O135 C138 1.252 . S
O136 Mg126 2.251 . S
O136 Mg129 2.079 . S
O136 C138 1.273 . S
C137 O133 1.246 . S
C137 O134 1.259 . S
C138 O135 1.252 . S
C138 O136 1.273 . S
O139 Mg126 2.010 . S
O139 C131 1.249 . S
Mg140 O141 2.028 . S
Mg140 O147 1.986 . S
Mg140 O149 2.114 . S
Mg140 O150 2.251 . S
Mg140 O153 2.010 . S
O141 Mg140 2.028 . S
O141 C144 1.250 . S
O142 Mg143 2.028 . S
O142 C144 1.248 . S
Mg143 O142 2.028 . S
Mg143 O148 2.032 . S
Mg143 O150 2.079 . S
C144 O141 1.250 . S
C144 O142 1.248 . S
C145 O146 1.264 . S
C145 O153 1.249 . S
O146 C145 1.264 . S
O147 Mg140 1.986 . S
O147 C151 1.246 . S
O148 Mg143 2.032 . S
O148 C151 1.259 . S
O149 Mg140 2.114 . S
O149 C152 1.252 . S
O150 Mg140 2.251 . S
O150 Mg143 2.079 . S
O150 C152 1.273 . S
C151 O147 1.246 . S
C151 O148 1.259 . S
C152 O149 1.252 . S
C152 O150 1.273 . S
O153 Mg140 2.010 . S
O153 C145 1.249 . S
Mg154 O155 2.028 . S
Mg154 O161 1.986 . S
Mg154 O163 2.114 . S
Mg154 O164 2.251 . S
Mg154 O167 2.010 . S
O155 Mg154 2.028 . S
O155 C158 1.250 . S
O156 Mg157 2.028 . S
O156 C158 1.248 . S
Mg157 O156 2.028 . S
Mg157 O162 2.032 . S
Mg157 O164 2.079 . S
C158 O155 1.250 . S
C158 O156 1.248 . S
C159 O160 1.264 . S
C159 O167 1.249 . S
O160 C159 1.264 . S
O161 Mg154 1.986 . S
O161 C165 1.246 . S
O162 Mg157 2.032 . S
O162 C165 1.259 . S
O163 Mg154 2.114 . S
O163 C166 1.252 . S
O164 Mg154 2.251 . S
O164 Mg157 2.079 . S
O164 C166 1.273 . S
C165 O161 1.246 . S
C165 O162 1.259 . S
C166 O163 1.252 . S
C166 O164 1.273 . S
O167 Mg154 2.010 . S
O167 C159 1.249 . S
Mg168 O169 2.028 . S
Mg168 O175 1.986 . S
Mg168 O177 2.114 . S
Mg168 O178 2.251 . S
Mg168 O181 2.010 . S
O169 Mg168 2.028 . S
O169 C172 1.250 . S
O170 Mg171 2.028 . S
O170 C172 1.248 . S
Mg171 O170 2.028 . S
Mg171 O176 2.032 . S
Mg171 O178 2.079 . S
C172 O169 1.250 . S
C172 O170 1.248 . S
C173 O174 1.264 . S
C173 O181 1.249 . S
O174 C173 1.264 . S
O175 Mg168 1.986 . S
O175 C179 1.246 . S
O176 Mg171 2.032 . S
O176 C179 1.259 . S
O177 Mg168 2.114 . S
O177 C180 1.252 . S
O178 Mg168 2.251 . S
O178 Mg171 2.079 . S
O178 C180 1.273 . S
C179 O175 1.246 . S
C179 O176 1.259 . S
C180 O177 1.252 . S
C180 O178 1.273 . S
O181 Mg168 2.010 . S
O181 C173 1.249 . S
Mg182 O183 2.028 . S
Mg182 O189 1.986 . S
Mg182 O191 2.114 . S
Mg182 O192 2.251 . S
Mg182 O195 2.010 . S
O183 Mg182 2.028 . S
O183 C186 1.250 . S
O184 Mg185 2.028 . S
O184 C186 1.248 . S
Mg185 O184 2.028 . S
Mg185 O190 2.032 . S
Mg185 O192 2.079 . S
C186 O183 1.250 . S
C186 O184 1.248 . S
C187 O188 1.264 . S
C187 O195 1.249 . S
O188 C187 1.264 . S
O189 Mg182 1.986 . S
O189 C193 1.246 . S
O190 Mg185 2.032 . S
O190 C193 1.259 . S
O191 Mg182 2.114 . S
O191 C194 1.252 . S
O192 Mg182 2.251 . S
O192 Mg185 2.079 . S
O192 C194 1.273 . S
C193 O189 1.246 . S
C193 O190 1.259 . S
C194 O191 1.252 . S
C194 O192 1.273 . S
O195 Mg182 2.010 . S
O195 C187 1.249 . S
Mg196 O197 2.028 . S
Mg196 O203 1.986 . S
Mg196 O205 2.114 . S
Mg196 O206 2.251 . S
Mg196 O209 2.010 . S
O197 Mg196 2.028 . S
O197 C200 1.250 . S
O198 Mg199 2.028 . S
O198 C200 1.248 . S
Mg199 O198 2.028 . S
Mg199 O204 2.032 . S
Mg199 O206 2.079 . S
C200 O197 1.250 . S
C200 O198 1.248 . S
C201 O202 1.264 . S
C201 O209 1.249 . S
O202 C201 1.264 . S
O203 Mg196 1.986 . S
O203 C207 1.246 . S
O204 Mg199 2.032 . S
O204 C207 1.259 . S
O205 Mg196 2.114 . S
O205 C208 1.252 . S
O206 Mg196 2.251 . S
O206 Mg199 2.079 . S
O206 C208 1.273 . S
C207 O203 1.246 . S
C207 O204 1.259 . S
C208 O205 1.252 . S
C208 O206 1.273 . S
O209 Mg196 2.010 . S
O209 C201 1.249 . S
Mg210 O211 2.028 . S
Mg210 O217 1.986 . S
Mg210 O219 2.114 . S
Mg210 O220 2.251 . S
Mg210 O223 2.010 . S
O211 Mg210 2.028 . S
O211 C214 1.250 . S
O212 Mg213 2.028 . S
O212 C214 1.248 . S
Mg213 O212 2.028 . S
Mg213 O218 2.032 . S
Mg213 O220 2.079 . S
C214 O211 1.250 . S
C214 O212 1.248 . S
C215 O216 1.264 . S
C215 O223 1.249 . S
O216 C215 1.264 . S
O217 Mg210 1.986 . S
O217 C221 1.246 . S
O218 Mg213 2.032 . S
O218 C221 1.259 . S
O219 Mg210 2.114 . S
O219 C222 1.252 . S
O220 Mg210 2.251 . S
O220 Mg213 2.079 . S
O220 C222 1.273 . S
C221 O217 1.246 . S
C221 O218 1.259 . S
C222 O219 1.252 . S
C222 O220 1.273 . S
O223 Mg210 2.010 . S
O223 C215 1.249 . S
H224 C236 0.930 . S
H225 C238 0.930 . S
H226 C239 0.930 . S
H227 C243 0.959 . S
H228 C243 0.959 . S
H229 C243 0.961 . S
H230 C244 0.960 . S
H231 C244 0.961 . S
H232 C244 0.959 . S
H233 C247 0.929 . S
H234 C248 0.931 . S
H235 C250 0.930 . S
C236 H224 0.930 . S
C236 C237 1.399 . S
C236 C241 1.399 . S
C237 C236 1.399 . S
C237 C238 1.376 . S
C238 H225 0.930 . S
C238 C237 1.376 . S
C238 C239 1.388 . S
C239 H226 0.930 . S
C239 C238 1.388 . S
C239 C240 1.390 . S
C240 C239 1.390 . S
C240 C241 1.394 . S
C240 C246 1.465 . S
C241 C236 1.399 . S
C241 C240 1.394 . S
C241 C242 1.516 . S
C242 C241 1.516 . S
C242 C243 1.502 . S
C242 C244 1.561 . S
C242 C245 1.526 . S
C243 H227 0.959 . S
C243 H228 0.959 . S
C243 H229 0.961 . S
C243 C242 1.502 . S
C244 H230 0.960 . S
C244 H231 0.961 . S
C244 H232 0.959 . S
C244 C242 1.561 . S
C245 C242 1.526 . S
C245 C246 1.396 . S
C245 C250 1.390 . S
C246 C240 1.465 . S
C246 C245 1.396 . S
C246 C247 1.399 . S
C247 H233 0.929 . S
C247 C246 1.399 . S
C247 C248 1.385 . S
C248 H234 0.931 . S
C248 C247 1.385 . S
C248 C249 1.389 . S
C249 C248 1.389 . S
C249 C250 1.387 . S
C250 H235 0.930 . S
C250 C245 1.390 . S
C250 C249 1.387 . S
H251 C263 0.930 . S
H252 C265 0.930 . S
H253 C266 0.930 . S
H254 C270 0.959 . S
H255 C270 0.959 . S
H256 C270 0.961 . S
H257 C271 0.960 . S
H258 C271 0.961 . S
H259 C271 0.959 . S
H260 C274 0.929 . S
H261 C275 0.931 . S
H262 C277 0.930 . S
C263 H251 0.930 . S
C263 C264 1.399 . S
C263 C268 1.399 . S
C264 C263 1.399 . S
C264 C265 1.376 . S
C265 H252 0.930 . S
C265 C264 1.376 . S
C265 C266 1.388 . S
C266 H253 0.930 . S
C266 C265 1.388 . S
C266 C267 1.390 . S
C267 C266 1.390 . S
C267 C268 1.394 . S
C267 C273 1.465 . S
C268 C263 1.399 . S
C268 C267 1.394 . S
C268 C269 1.516 . S
C269 C268 1.516 . S
C269 C270 1.502 . S
C269 C271 1.561 . S
C269 C272 1.526 . S
C270 H254 0.959 . S
C270 H255 0.959 . S
C270 H256 0.961 . S
C270 C269 1.502 . S
C271 H257 0.960 . S
C271 H258 0.961 . S
C271 H259 0.959 . S
C271 C269 1.561 . S
C272 C269 1.526 . S
C272 C273 1.396 . S
C272 C277 1.390 . S
C273 C267 1.465 . S
C273 C272 1.396 . S
C273 C274 1.399 . S
C274 H260 0.929 . S
C274 C273 1.399 . S
C274 C275 1.385 . S
C275 H261 0.931 . S
C275 C274 1.385 . S
C275 C276 1.389 . S
C276 C275 1.389 . S
C276 C277 1.387 . S
C277 H262 0.930 . S
C277 C272 1.390 . S
C277 C276 1.387 . S
H278 C290 0.930 . S
H279 C292 0.930 . S
H280 C293 0.930 . S
H281 C297 0.959 . S
H282 C297 0.959 . S
H283 C297 0.961 . S
H284 C298 0.960 . S
H285 C298 0.961 . S
H286 C298 0.959 . S
H287 C301 0.929 . S
H288 C302 0.931 . S
H289 C304 0.930 . S
C290 H278 0.930 . S
C290 C291 1.399 . S
C290 C295 1.399 . S
C291 C290 1.399 . S
C291 C292 1.376 . S
C292 H279 0.930 . S
C292 C291 1.376 . S
C292 C293 1.388 . S
C293 H280 0.930 . S
C293 C292 1.388 . S
C293 C294 1.390 . S
C294 C293 1.390 . S
C294 C295 1.394 . S
C294 C300 1.465 . S
C295 C290 1.399 . S
C295 C294 1.394 . S
C295 C296 1.516 . S
C296 C295 1.516 . S
C296 C297 1.502 . S
C296 C298 1.561 . S
C296 C299 1.526 . S
C297 H281 0.959 . S
C297 H282 0.959 . S
C297 H283 0.961 . S
C297 C296 1.502 . S
C298 H284 0.960 . S
C298 H285 0.961 . S
C298 H286 0.959 . S
C298 C296 1.561 . S
C299 C296 1.526 . S
C299 C300 1.396 . S
C299 C304 1.390 . S
C300 C294 1.465 . S
C300 C299 1.396 . S
C300 C301 1.399 . S
C301 H287 0.929 . S
C301 C300 1.399 . S
C301 C302 1.385 . S
C302 H288 0.931 . S
C302 C301 1.385 . S
C302 C303 1.389 . S
C303 C302 1.389 . S
C303 C304 1.387 . S
C304 H289 0.930 . S
C304 C299 1.390 . S
C304 C303 1.387 . S
H305 C317 0.930 . S
H306 C319 0.930 . S
H307 C320 0.930 . S
H308 C324 0.959 . S
H309 C324 0.959 . S
H310 C324 0.961 . S
H311 C325 0.960 . S
H312 C325 0.961 . S
H313 C325 0.959 . S
H314 C328 0.929 . S
H315 C329 0.931 . S
H316 C331 0.930 . S
C317 H305 0.930 . S
C317 C318 1.399 . S
C317 C322 1.399 . S
C318 C317 1.399 . S
C318 C319 1.376 . S
C319 H306 0.930 . S
C319 C318 1.376 . S
C319 C320 1.388 . S
C320 H307 0.930 . S
C320 C319 1.388 . S
C320 C321 1.390 . S
C321 C320 1.390 . S
C321 C322 1.394 . S
C321 C327 1.465 . S
C322 C317 1.399 . S
C322 C321 1.394 . S
C322 C323 1.516 . S
C323 C322 1.516 . S
C323 C324 1.502 . S
C323 C325 1.561 . S
C323 C326 1.526 . S
C324 H308 0.959 . S
C324 H309 0.959 . S
C324 H310 0.961 . S
C324 C323 1.502 . S
C325 H311 0.960 . S
C325 H312 0.961 . S
C325 H313 0.959 . S
C325 C323 1.561 . S
C326 C323 1.526 . S
C326 C327 1.396 . S
C326 C331 1.390 . S
C327 C321 1.465 . S
C327 C326 1.396 . S
C327 C328 1.399 . S
C328 H314 0.929 . S
C328 C327 1.399 . S
C328 C329 1.385 . S
C329 H315 0.931 . S
C329 C328 1.385 . S
C329 C330 1.389 . S
C330 C329 1.389 . S
C330 C331 1.387 . S
C331 H316 0.930 . S
C331 C326 1.390 . S
C331 C330 1.387 . S
H332 C344 0.930 . S
H333 C346 0.930 . S
H334 C347 0.930 . S
H335 C351 0.959 . S
H336 C351 0.959 . S
H337 C351 0.961 . S
H338 C352 0.960 . S
H339 C352 0.961 . S
H340 C352 0.959 . S
H341 C355 0.929 . S
H342 C356 0.931 . S
H343 C358 0.930 . S
C344 H332 0.930 . S
C344 C345 1.399 . S
C344 C349 1.399 . S
C345 C344 1.399 . S
C345 C346 1.376 . S
C346 H333 0.930 . S
C346 C345 1.376 . S
C346 C347 1.388 . S
C347 H334 0.930 . S
C347 C346 1.388 . S
C347 C348 1.390 . S
C348 C347 1.390 . S
C348 C349 1.394 . S
C348 C354 1.465 . S
C349 C344 1.399 . S
C349 C348 1.394 . S
C349 C350 1.516 . S
C350 C349 1.516 . S
C350 C351 1.502 . S
C350 C352 1.561 . S
C350 C353 1.526 . S
C351 H335 0.959 . S
C351 H336 0.959 . S
C351 H337 0.961 . S
C351 C350 1.502 . S
C352 H338 0.960 . S
C352 H339 0.961 . S
C352 H340 0.959 . S
C352 C350 1.561 . S
C353 C350 1.526 . S
C353 C354 1.396 . S
C353 C358 1.390 . S
C354 C348 1.465 . S
C354 C353 1.396 . S
C354 C355 1.399 . S
C355 H341 0.929 . S
C355 C354 1.399 . S
C355 C356 1.385 . S
C356 H342 0.931 . S
C356 C355 1.385 . S
C356 C357 1.389 . S
C357 C356 1.389 . S
C357 C358 1.387 . S
C358 H343 0.930 . S
C358 C353 1.390 . S
C358 C357 1.387 . S
H359 C371 0.930 . S
H360 C373 0.930 . S
H361 C374 0.930 . S
H362 C378 0.959 . S
H363 C378 0.959 . S
H364 C378 0.961 . S
H365 C379 0.960 . S
H366 C379 0.961 . S
H367 C379 0.959 . S
H368 C382 0.929 . S
H369 C383 0.931 . S
H370 C385 0.930 . S
C371 H359 0.930 . S
C371 C372 1.399 . S
C371 C376 1.399 . S
C372 C371 1.399 . S
C372 C373 1.376 . S
C373 H360 0.930 . S
C373 C372 1.376 . S
C373 C374 1.388 . S
C374 H361 0.930 . S
C374 C373 1.388 . S
C374 C375 1.390 . S
C375 C374 1.390 . S
C375 C376 1.394 . S
C375 C381 1.465 . S
C376 C371 1.399 . S
C376 C375 1.394 . S
C376 C377 1.516 . S
C377 C376 1.516 . S
C377 C378 1.502 . S
C377 C379 1.561 . S
C377 C380 1.526 . S
C378 H362 0.959 . S
C378 H363 0.959 . S
C378 H364 0.961 . S
C378 C377 1.502 . S
C379 H365 0.960 . S
C379 H366 0.961 . S
C379 H367 0.959 . S
C379 C377 1.561 . S
C380 C377 1.526 . S
C380 C381 1.396 . S
C380 C385 1.390 . S
C381 C375 1.465 . S
C381 C380 1.396 . S
C381 C382 1.399 . S
C382 H368 0.929 . S
C382 C381 1.399 . S
C382 C383 1.385 . S
C383 H369 0.931 . S
C383 C382 1.385 . S
C383 C384 1.389 . S
C384 C383 1.389 . S
C384 C385 1.387 . S
C385 H370 0.930 . S
C385 C380 1.390 . S
C385 C384 1.387 . S
H386 C398 0.930 . S
H387 C400 0.930 . S
H388 C401 0.930 . S
H389 C405 0.959 . S
H390 C405 0.959 . S
H391 C405 0.961 . S
H392 C406 0.960 . S
H393 C406 0.961 . S
H394 C406 0.959 . S
H395 C409 0.929 . S
H396 C410 0.931 . S
H397 C412 0.930 . S
C398 H386 0.930 . S
C398 C399 1.399 . S
C398 C403 1.399 . S
C399 C398 1.399 . S
C399 C400 1.376 . S
C400 H387 0.930 . S
C400 C399 1.376 . S
C400 C401 1.388 . S
C401 H388 0.930 . S
C401 C400 1.388 . S
C401 C402 1.390 . S
C402 C401 1.390 . S
C402 C403 1.394 . S
C402 C408 1.465 . S
C403 C398 1.399 . S
C403 C402 1.394 . S
C403 C404 1.516 . S
C404 C403 1.516 . S
C404 C405 1.502 . S
C404 C406 1.561 . S
C404 C407 1.526 . S
C405 H389 0.959 . S
C405 H390 0.959 . S
C405 H391 0.961 . S
C405 C404 1.502 . S
C406 H392 0.960 . S
C406 H393 0.961 . S
C406 H394 0.959 . S
C406 C404 1.561 . S
C407 C404 1.526 . S
C407 C408 1.396 . S
C407 C412 1.390 . S
C408 C402 1.465 . S
C408 C407 1.396 . S
C408 C409 1.399 . S
C409 H395 0.929 . S
C409 C408 1.399 . S
C409 C410 1.385 . S
C410 H396 0.931 . S
C410 C409 1.385 . S
C410 C411 1.389 . S
C411 C410 1.389 . S
C411 C412 1.387 . S
C412 H397 0.930 . S
C412 C407 1.390 . S
C412 C411 1.387 . S
H413 C425 0.930 . S
H414 C427 0.930 . S
H415 C428 0.930 . S
H416 C432 0.959 . S
H417 C432 0.959 . S
H418 C432 0.961 . S
H419 C433 0.960 . S
H420 C433 0.961 . S
H421 C433 0.959 . S
H422 C436 0.929 . S
H423 C437 0.931 . S
H424 C439 0.930 . S
C425 H413 0.930 . S
C425 C426 1.399 . S
C425 C430 1.399 . S
C426 C425 1.399 . S
C426 C427 1.376 . S
C427 H414 0.930 . S
C427 C426 1.376 . S
C427 C428 1.388 . S
C428 H415 0.930 . S
C428 C427 1.388 . S
C428 C429 1.390 . S
C429 C428 1.390 . S
C429 C430 1.394 . S
C429 C435 1.465 . S
C430 C425 1.399 . S
C430 C429 1.394 . S
C430 C431 1.516 . S
C431 C430 1.516 . S
C431 C432 1.502 . S
C431 C433 1.561 . S
C431 C434 1.526 . S
C432 H416 0.959 . S
C432 H417 0.959 . S
C432 H418 0.961 . S
C432 C431 1.502 . S
C433 H419 0.960 . S
C433 H420 0.961 . S
C433 H421 0.959 . S
C433 C431 1.561 . S
C434 C431 1.526 . S
C434 C435 1.396 . S
C434 C439 1.390 . S
C435 C429 1.465 . S
C435 C434 1.396 . S
C435 C436 1.399 . S
C436 H422 0.929 . S
C436 C435 1.399 . S
C436 C437 1.385 . S
C437 H423 0.931 . S
C437 C436 1.385 . S
C437 C438 1.389 . S
C438 C437 1.389 . S
C438 C439 1.387 . S
C439 H424 0.930 . S
C439 C434 1.390 . S
C439 C438 1.387 . S
H440 C452 0.930 . S
H441 C454 0.930 . S
H442 C455 0.930 . S
H443 C459 0.959 . S
H444 C459 0.959 . S
H445 C459 0.961 . S
H446 C460 0.960 . S
H447 C460 0.961 1_545 S
H448 C460 0.959 1_545 S
H449 C463 0.929 . S
H450 C464 0.931 . S
H451 C466 0.930 . S
C452 H440 0.930 . S
C452 C453 1.399 . S
C452 C457 1.399 . S
C453 C452 1.399 . S
C453 C454 1.376 . S
C454 H441 0.930 . S
C454 C453 1.376 . S
C454 C455 1.388 . S
C455 H442 0.930 . S
C455 C454 1.388 . S
C455 C456 1.390 . S
C456 C455 1.390 . S
C456 C457 1.394 . S
C456 C462 1.465 1_565 S
C457 C452 1.399 . S
C457 C456 1.394 . S
C457 C458 1.516 . S
C458 C457 1.516 . S
C458 C459 1.502 . S
C458 C460 1.561 . S
C458 C461 1.526 1_565 S
C459 H443 0.959 . S
C459 H444 0.959 . S
C459 H445 0.961 . S
C459 C458 1.502 . S
C460 H446 0.960 . S
C460 H447 0.961 1_565 S
C460 H448 0.959 1_565 S
C460 C458 1.561 . S
C461 C458 1.526 1_545 S
C461 C462 1.396 . S
C461 C466 1.390 . S
C462 C456 1.465 1_545 S
C462 C461 1.396 . S
C462 C463 1.399 . S
C463 H449 0.929 . S
C463 C462 1.399 . S
C463 C464 1.385 . S
C464 H450 0.931 . S
C464 C463 1.385 . S
C464 C465 1.389 . S
C465 C464 1.389 . S
C465 C466 1.387 . S
C466 H451 0.930 . S
C466 C461 1.390 . S
C466 C465 1.387 . S
H467 C479 0.930 . S
H468 C481 0.930 . S
H469 C482 0.930 . S
H470 C486 0.959 . S
H471 C486 0.959 . S
H472 C486 0.961 . S
H473 C487 0.960 . S
H474 C487 0.961 . S
H475 C487 0.959 . S
H476 C490 0.929 . S
H477 C491 0.931 . S
H478 C493 0.930 . S
C479 H467 0.930 . S
C479 C480 1.399 . S
C479 C484 1.399 . S
C480 C479 1.399 . S
C480 C481 1.376 . S
C481 H468 0.930 . S
C481 C480 1.376 . S
C481 C482 1.388 . S
C482 H469 0.930 . S
C482 C481 1.388 . S
C482 C483 1.390 . S
C483 C482 1.390 . S
C483 C484 1.394 . S
C483 C489 1.465 . S
C484 C479 1.399 . S
C484 C483 1.394 . S
C484 C485 1.516 . S
C485 C484 1.516 . S
C485 C486 1.502 . S
C485 C487 1.561 . S
C485 C488 1.526 . S
C486 H470 0.959 . S
C486 H471 0.959 . S
C486 H472 0.961 . S
C486 C485 1.502 . S
C487 H473 0.960 . S
C487 H474 0.961 . S
C487 H475 0.959 . S
C487 C485 1.561 . S
C488 C485 1.526 . S
C488 C489 1.396 . S
C488 C493 1.390 . S
C489 C483 1.465 . S
C489 C488 1.396 . S
C489 C490 1.399 . S
C490 H476 0.929 . S
C490 C489 1.399 . S
C490 C491 1.385 . S
C491 H477 0.931 . S
C491 C490 1.385 . S
C491 C492 1.389 . S
C492 C491 1.389 . S
C492 C493 1.387 . S
C493 H478 0.930 . S
C493 C488 1.390 . S
C493 C492 1.387 . S
H494 C506 0.930 . S
H495 C508 0.930 . S
H496 C509 0.930 . S
H497 C513 0.959 . S
H498 C513 0.959 . S
H499 C513 0.961 . S
H500 C514 0.960 . S
H501 C514 0.961 1_554 S
H502 C514 0.959 . S
H503 C517 0.929 . S
H504 C518 0.931 . S
H505 C520 0.930 . S
C506 H494 0.930 . S
C506 C507 1.399 . S
C506 C511 1.399 . S
C507 C506 1.399 . S
C507 C508 1.376 . S
C508 H495 0.930 . S
C508 C507 1.376 . S
C508 C509 1.388 . S
C509 H496 0.930 . S
C509 C508 1.388 . S
C509 C510 1.390 . S
C510 C509 1.390 . S
C510 C511 1.394 . S
C510 C516 1.465 1_556 S
C511 C506 1.399 . S
C511 C510 1.394 . S
C511 C512 1.516 1_556 S
C512 C511 1.516 1_554 S
C512 C513 1.502 . S
C512 C514 1.561 1_554 S
C512 C515 1.526 . S
C513 H497 0.959 . S
C513 H498 0.959 . S
C513 H499 0.961 . S
C513 C512 1.502 . S
C514 H500 0.960 . S
C514 H501 0.961 1_556 S
C514 H502 0.959 . S
C514 C512 1.561 1_556 S
C515 C512 1.526 . S
C515 C516 1.396 . S
C515 C520 1.390 . S
C516 C510 1.465 1_554 S
C516 C515 1.396 . S
C516 C517 1.399 . S
C517 H503 0.929 . S
C517 C516 1.399 . S
C517 C518 1.385 . S
C518 H504 0.931 . S
C518 C517 1.385 . S
C518 C519 1.389 . S
C519 C518 1.389 . S
C519 C520 1.387 . S
C520 H505 0.930 . S
C520 C515 1.390 . S
C520 C519 1.387 . S
H521 C533 0.930 . S
H522 C535 0.930 . S
H523 C536 0.930 1_556 S
H524 C540 0.959 . S
H525 C540 0.959 . S
H526 C540 0.961 . S
H527 C541 0.960 . S
H528 C541 0.961 . S
H529 C541 0.959 . S
H530 C544 0.929 . S
H531 C545 0.931 . S
H532 C547 0.930 . S
C533 H521 0.930 . S
C533 C534 1.399 . S
C533 C538 1.399 . S
C534 C533 1.399 . S
C534 C535 1.376 . S
C535 H522 0.930 . S
C535 C534 1.376 . S
C535 C536 1.388 . S
C536 H523 0.930 1_554 S
C536 C535 1.388 . S
C536 C537 1.390 . S
C537 C536 1.390 . S
C537 C538 1.394 . S
C537 C543 1.465 1_554 S
C538 C533 1.399 . S
C538 C537 1.394 . S
C538 C539 1.516 . S
C539 C538 1.516 . S
C539 C540 1.502 . S
C539 C541 1.561 . S
C539 C542 1.526 1_554 S
C540 H524 0.959 . S
C540 H525 0.959 . S
C540 H526 0.961 . S
C540 C539 1.502 . S
C541 H527 0.960 . S
C541 H528 0.961 . S
C541 H529 0.959 . S
C541 C539 1.561 . S
C542 C539 1.526 1_556 S
C542 C543 1.396 . S
C542 C547 1.390 . S
C543 C537 1.465 1_556 S
C543 C542 1.396 . S
C543 C544 1.399 . S
C544 H530 0.929 . S
C544 C543 1.399 . S
C544 C545 1.385 . S
C545 H531 0.931 . S
C545 C544 1.385 . S
C545 C546 1.389 . S
C546 C545 1.389 . S
C546 C547 1.387 . S
C547 H532 0.930 . S
C547 C542 1.390 . S
C547 C546 1.387 . S
H548 C560 0.930 . S
H549 C562 0.930 . S
H550 C563 0.930 . S
H551 C567 0.959 . S
H552 C567 0.959 . S
H553 C567 0.961 . S
H554 C568 0.960 . S
H555 C568 0.961 . S
H556 C568 0.959 . S
H557 C571 0.929 . S
H558 C572 0.931 . S
H559 C574 0.930 . S
C560 H548 0.930 . S
C560 C561 1.399 . S
C560 C565 1.399 . S
C561 C560 1.399 . S
C561 C562 1.376 . S
C562 H549 0.930 . S
C562 C561 1.376 . S
C562 C563 1.388 . S
C563 H550 0.930 . S
C563 C562 1.388 . S
C563 C564 1.390 . S
C564 C563 1.390 . S
C564 C565 1.394 . S
C564 C570 1.465 . S
C565 C560 1.399 . S
C565 C564 1.394 . S
C565 C566 1.516 . S
C566 C565 1.516 . S
C566 C567 1.502 . S
C566 C568 1.561 . S
C566 C569 1.526 . S
C567 H551 0.959 . S
C567 H552 0.959 . S
C567 H553 0.961 . S
C567 C566 1.502 . S
C568 H554 0.960 . S
C568 H555 0.961 . S
C568 H556 0.959 . S
C568 C566 1.561 . S
C569 C566 1.526 . S
C569 C570 1.396 . S
C569 C574 1.390 . S
C570 C564 1.465 . S
C570 C569 1.396 . S
C570 C571 1.399 . S
C571 H557 0.929 . S
C571 C570 1.399 . S
C571 C572 1.385 . S
C572 H558 0.931 . S
C572 C571 1.385 . S
C572 C573 1.389 . S
C573 C572 1.389 . S
C573 C574 1.387 . S
C574 H559 0.930 . S
C574 C569 1.390 . S
C574 C573 1.387 . S
H575 C587 0.930 . S
H576 C589 0.930 . S
H577 C590 0.930 . S
H578 C594 0.959 . S
H579 C594 0.959 . S
H580 C594 0.961 . S
H581 C595 0.960 . S
H582 C595 0.961 . S
H583 C595 0.959 . S
H584 C598 0.929 . S
H585 C599 0.931 . S
H586 C601 0.930 . S
C587 H575 0.930 . S
C587 C588 1.399 . S
C587 C592 1.399 . S
C588 C587 1.399 . S
C588 C589 1.376 . S
C589 H576 0.930 . S
C589 C588 1.376 . S
C589 C590 1.388 . S
C590 H577 0.930 . S
C590 C589 1.388 . S
C590 C591 1.390 . S
C591 C590 1.390 . S
C591 C592 1.394 . S
C591 C597 1.465 . S
C592 C587 1.399 . S
C592 C591 1.394 . S
C592 C593 1.516 . S
C593 C592 1.516 . S
C593 C594 1.502 . S
C593 C595 1.561 . S
C593 C596 1.526 . S
C594 H578 0.959 . S
C594 H579 0.959 . S
C594 H580 0.961 . S
C594 C593 1.502 . S
C595 H581 0.960 . S
C595 H582 0.961 . S
C595 H583 0.959 . S
C595 C593 1.561 . S
C596 C593 1.526 . S
C596 C597 1.396 . S
C596 C601 1.390 . S
C597 C591 1.465 . S
C597 C596 1.396 . S
C597 C598 1.399 . S
C598 H584 0.929 . S
C598 C597 1.399 . S
C598 C599 1.385 . S
C599 H585 0.931 . S
C599 C598 1.385 . S
C599 C600 1.389 . S
C600 C599 1.389 . S
C600 C601 1.387 . S
C601 H586 0.930 . S
C601 C596 1.390 . S
C601 C600 1.387 . S
H602 C614 0.930 . S
H603 C616 0.930 . S
H604 C617 0.930 . S
H605 C621 0.959 . S
H606 C621 0.959 . S
H607 C621 0.961 . S
H608 C622 0.960 1_655 S
H609 C622 0.961 . S
H610 C622 0.959 . S
H611 C625 0.929 . S
H612 C626 0.931 . S
H613 C628 0.930 . S
C614 H602 0.930 . S
C614 C615 1.399 . S
C614 C619 1.399 . S
C615 C614 1.399 . S
C615 C616 1.376 . S
C616 H603 0.930 . S
C616 C615 1.376 . S
C616 C617 1.388 . S
C617 H604 0.930 . S
C617 C616 1.388 . S
C617 C618 1.390 . S
C618 C617 1.390 . S
C618 C619 1.394 . S
C618 C624 1.465 1_655 S
C619 C614 1.399 . S
C619 C618 1.394 . S
C619 C620 1.516 . S
C620 C619 1.516 . S
C620 C621 1.502 . S
C620 C622 1.561 1_655 S
C620 C623 1.526 1_655 S
C621 H605 0.959 . S
C621 H606 0.959 . S
C621 H607 0.961 . S
C621 C620 1.502 . S
C622 H608 0.960 1_455 S
C622 H609 0.961 . S
C622 H610 0.959 . S
C622 C620 1.561 1_455 S
C623 C620 1.526 1_455 S
C623 C624 1.396 . S
C623 C628 1.390 . S
C624 C618 1.465 1_455 S
C624 C623 1.396 . S
C624 C625 1.399 . S
C625 H611 0.929 . S
C625 C624 1.399 . S
C625 C626 1.385 . S
C626 H612 0.931 . S
C626 C625 1.385 . S
C626 C627 1.389 . S
C627 C626 1.389 . S
C627 C628 1.387 . S
C628 H613 0.930 . S
C628 C623 1.390 . S
C628 C627 1.387 . S
H629 C641 0.930 . S
H630 C643 0.930 . S
H631 C644 0.930 . S
H632 C648 0.959 . S
H633 C648 0.959 . S
H634 C648 0.961 . S
H635 C649 0.962 1_655 S
H636 C649 0.958 . S
H637 C649 0.961 1_655 S
H638 C652 0.929 . S
H639 C653 0.931 . S
H640 C655 0.930 . S
C641 H629 0.930 . S
C641 C642 1.399 . S
C641 C646 1.399 . S
C642 C641 1.399 . S
C642 C643 1.376 . S
C643 H630 0.930 . S
C643 C642 1.376 . S
C643 C644 1.388 . S
C644 H631 0.930 . S
C644 C643 1.388 . S
C644 C645 1.390 . S
C645 C644 1.390 . S
C645 C646 1.394 . S
C645 C651 1.465 1_655 S
C646 C641 1.399 . S
C646 C645 1.394 . S
C646 C647 1.516 1_655 S
C647 C646 1.516 1_455 S
C647 C648 1.502 . S
C647 C649 1.560 . S
C647 C650 1.526 . S
C648 H632 0.959 . S
C648 H633 0.959 . S
C648 H634 0.961 . S
C648 C647 1.502 . S
C649 H635 0.962 1_455 S
C649 H636 0.958 . S
C649 H637 0.961 1_455 S
C649 C647 1.560 . S
C650 C647 1.526 . S
C650 C651 1.396 . S
C650 C655 1.390 . S
C651 C645 1.465 1_455 S
C651 C650 1.396 . S
C651 C652 1.399 . S
C652 H638 0.929 . S
C652 C651 1.399 . S
C652 C653 1.385 . S
C653 H639 0.931 . S
C653 C652 1.385 . S
C653 C654 1.389 . S
C654 C653 1.389 . S
C654 C655 1.387 . S
C655 H640 0.930 . S
C655 C650 1.390 . S
C655 C654 1.387 . S
H656 C668 0.930 . S
H657 C670 0.930 . S
H658 C671 0.930 . S
H659 C675 0.959 . S
H660 C675 0.959 . S
H661 C675 0.961 . S
H662 C676 0.960 . S
H663 C676 0.961 . S
H664 C676 0.959 . S
H665 C679 0.929 . S
H666 C680 0.931 . S
H667 C682 0.930 . S
C668 H656 0.930 . S
C668 C669 1.399 . S
C668 C673 1.399 . S
C669 C668 1.399 . S
C669 C670 1.376 . S
C670 H657 0.930 . S
C670 C669 1.376 . S
C670 C671 1.388 . S
C671 H658 0.930 . S
C671 C670 1.388 . S
C671 C672 1.390 . S
C672 C671 1.390 . S
C672 C673 1.394 . S
C672 C678 1.465 . S
C673 C668 1.399 . S
C673 C672 1.394 . S
C673 C674 1.516 . S
C674 C673 1.516 . S
C674 C675 1.502 . S
C674 C676 1.561 . S
C674 C677 1.526 . S
C675 H659 0.959 . S
C675 H660 0.959 . S
C675 H661 0.961 . S
C675 C674 1.502 . S
C676 H662 0.960 . S
C676 H663 0.961 . S
C676 H664 0.959 . S
C676 C674 1.561 . S
C677 C674 1.526 . S
C677 C678 1.396 . S
C677 C682 1.390 . S
C678 C672 1.465 . S
C678 C677 1.396 . S
C678 C679 1.399 . S
C679 H665 0.929 . S
C679 C678 1.399 . S
C679 C680 1.385 . S
C680 H666 0.931 . S
C680 C679 1.385 . S
C680 C681 1.389 . S
C681 C680 1.389 . S
C681 C682 1.387 . S
C682 H667 0.930 . S
C682 C677 1.390 . S
C682 C681 1.387 . S
H683 C695 0.930 . S
H684 C697 0.930 . S
H685 C698 0.930 . S
H686 C702 0.959 . S
H687 C702 0.959 . S
H688 C702 0.961 . S
H689 C703 0.960 . S
H690 C703 0.961 . S
H691 C703 0.959 . S
H692 C706 0.929 1_545 S
H693 C707 0.931 . S
H694 C709 0.930 . S
C695 H683 0.930 . S
C695 C696 1.399 . S
C695 C700 1.399 . S
C696 C695 1.399 . S
C696 C697 1.376 . S
C697 H684 0.930 . S
C697 C696 1.376 . S
C697 C698 1.388 . S
C698 H685 0.930 . S
C698 C697 1.388 . S
C698 C699 1.390 . S
C699 C698 1.390 . S
C699 C700 1.394 . S
C699 C705 1.465 1_545 S
C700 C695 1.399 . S
C700 C699 1.394 . S
C700 C701 1.516 1_545 S
C701 C700 1.516 1_565 S
C701 C702 1.502 . S
C701 C703 1.561 . S
C701 C704 1.526 . S
C702 H686 0.959 . S
C702 H687 0.959 . S
C702 H688 0.961 . S
C702 C701 1.502 . S
C703 H689 0.960 . S
C703 H690 0.961 . S
C703 H691 0.959 . S
C703 C701 1.561 . S
C704 C701 1.526 . S
C704 C705 1.396 . S
C704 C709 1.390 . S
C705 C699 1.465 1_565 S
C705 C704 1.396 . S
C705 C706 1.399 . S
C706 H692 0.929 1_565 S
C706 C705 1.399 . S
C706 C707 1.385 . S
C707 H693 0.931 . S
C707 C706 1.385 . S
C707 C708 1.389 . S
C708 C707 1.389 . S
C708 C709 1.387 . S
C709 H694 0.930 . S
C709 C704 1.390 . S
C709 C708 1.387 . S
H710 C722 0.930 . S
H711 C724 0.930 . S
H712 C725 0.930 . S
H713 C729 0.959 . S
H714 C729 0.959 . S
H715 C729 0.961 . S
H716 C730 0.960 . S
H717 C730 0.961 . S
H718 C730 0.959 . S
H719 C733 0.929 . S
H720 C734 0.931 . S
H721 C736 0.930 . S
C722 H710 0.930 . S
C722 C723 1.399 . S
C722 C727 1.399 . S
C723 C722 1.399 . S
C723 C724 1.376 . S
C724 H711 0.930 . S
C724 C723 1.376 . S
C724 C725 1.388 . S
C725 H712 0.930 . S
C725 C724 1.388 . S
C725 C726 1.390 . S
C726 C725 1.390 . S
C726 C727 1.394 . S
C726 C732 1.465 . S
C727 C722 1.399 . S
C727 C726 1.394 . S
C727 C728 1.516 . S
C728 C727 1.516 . S
C728 C729 1.502 . S
C728 C730 1.561 . S
C728 C731 1.526 . S
C729 H713 0.959 . S
C729 H714 0.959 . S
C729 H715 0.961 . S
C729 C728 1.502 . S
C730 H716 0.960 . S
C730 H717 0.961 . S
C730 H718 0.959 . S
C730 C728 1.561 . S
C731 C728 1.526 . S
C731 C732 1.396 . S
C731 C736 1.390 . S
C732 C726 1.465 . S
C732 C731 1.396 . S
C732 C733 1.399 . S
C733 H719 0.929 . S
C733 C732 1.399 . S
C733 C734 1.385 . S
C734 H720 0.931 . S
C734 C733 1.385 . S
C734 C735 1.389 . S
C735 C734 1.389 . S
C735 C736 1.387 . S
C736 H721 0.930 . S
C736 C731 1.390 . S
C736 C735 1.387 . S
H737 C749 0.930 . S
H738 C751 0.930 . S
H739 C752 0.930 . S
H740 C756 0.959 . S
H741 C756 0.959 . S
H742 C756 0.961 . S
H743 C757 0.960 . S
H744 C757 0.961 1_556 S
H745 C757 0.959 . S
H746 C760 0.929 . S
H747 C761 0.931 . S
H748 C763 0.930 . S
C749 H737 0.930 . S
C749 C750 1.399 . S
C749 C754 1.399 . S
C750 C749 1.399 . S
C750 C751 1.376 . S
C751 H738 0.930 . S
C751 C750 1.376 . S
C751 C752 1.388 . S
C752 H739 0.930 . S
C752 C751 1.388 . S
C752 C753 1.390 . S
C753 C752 1.390 . S
C753 C754 1.394 . S
C753 C759 1.465 1_554 S
C754 C749 1.399 . S
C754 C753 1.394 . S
C754 C755 1.516 1_554 S
C755 C754 1.516 1_556 S
C755 C756 1.502 . S
C755 C757 1.561 1_556 S
C755 C758 1.526 . S
C756 H740 0.959 . S
C756 H741 0.959 . S
C756 H742 0.961 . S
C756 C755 1.502 . S
C757 H743 0.960 . S
C757 H744 0.961 1_554 S
C757 H745 0.959 . S
C757 C755 1.561 1_554 S
C758 C755 1.526 . S
C758 C759 1.396 . S
C758 C763 1.390 . S
C759 C753 1.465 1_556 S
C759 C758 1.396 . S
C759 C760 1.399 . S
C760 H746 0.929 . S
C760 C759 1.399 . S
C760 C761 1.385 . S
C761 H747 0.931 . S
C761 C760 1.385 . S
C761 C762 1.389 . S
C762 C761 1.389 . S
C762 C763 1.387 . S
C763 H748 0.930 . S
C763 C758 1.390 . S
C763 C762 1.387 . S
H764 C776 0.930 . S
H765 C778 0.930 . S
H766 C779 0.930 . S
H767 C783 0.959 . S
H768 C783 0.963 . S
H769 C783 0.961 . S
H770 C784 0.960 . S
H771 C784 0.961 . S
H772 C784 0.959 . S
H773 C787 0.929 . S
H774 C788 0.931 . S
H775 C790 0.930 . S
C776 H764 0.930 . S
C776 C777 1.399 . S
C776 C781 1.399 . S
C777 C776 1.399 . S
C777 C778 1.376 . S
C778 H765 0.930 . S
C778 C777 1.376 . S
C778 C779 1.388 . S
C779 H766 0.930 . S
C779 C778 1.388 . S
C779 C780 1.390 . S
C780 C779 1.390 . S
C780 C781 1.394 . S
C780 C786 1.465 1_556 S
C781 C776 1.399 . S
C781 C780 1.394 . S
C781 C782 1.518 . S
C782 C781 1.518 . S
C782 C783 1.503 . S
C782 C784 1.560 1_556 S
C782 C785 1.523 1_556 S
C783 H767 0.959 . S
C783 H768 0.963 . S
C783 H769 0.961 . S
C783 C782 1.503 . S
C784 H770 0.960 . S
C784 H771 0.961 . S
C784 H772 0.959 . S
C784 C782 1.560 1_554 S
C785 C782 1.523 1_554 S
C785 C786 1.396 . S
C785 C790 1.390 . S
C786 C780 1.465 1_554 S
C786 C785 1.396 . S
C786 C787 1.399 . S
C787 H773 0.929 . S
C787 C786 1.399 . S
C787 C788 1.385 . S
C788 H774 0.931 . S
C788 C787 1.385 . S
C788 C789 1.389 . S
C789 C788 1.389 . S
C789 C790 1.387 . S
C790 H775 0.930 . S
C790 C785 1.390 . S
C790 C789 1.387 . S
H791 C803 0.930 . S
H792 C805 0.930 . S
H793 C806 0.930 . S
H794 C810 0.959 . S
H795 C810 0.959 . S
H796 C810 0.961 . S
H797 C811 0.960 . S
H798 C811 0.961 . S
H799 C811 0.959 . S
H800 C814 0.929 . S
H801 C815 0.931 . S
H802 C817 0.930 . S
C803 H791 0.930 . S
C803 C804 1.399 . S
C803 C808 1.399 . S
C804 C803 1.399 . S
C804 C805 1.376 . S
C805 H792 0.930 . S
C805 C804 1.376 . S
C805 C806 1.388 . S
C806 H793 0.930 . S
C806 C805 1.388 . S
C806 C807 1.390 . S
C807 C806 1.390 . S
C807 C808 1.394 . S
C807 C813 1.465 . S
C808 C803 1.399 . S
C808 C807 1.394 . S
C808 C809 1.516 . S
C809 C808 1.516 . S
C809 C810 1.502 . S
C809 C811 1.561 . S
C809 C812 1.526 . S
C810 H794 0.959 . S
C810 H795 0.959 . S
C810 H796 0.961 . S
C810 C809 1.502 . S
C811 H797 0.960 . S
C811 H798 0.961 . S
C811 H799 0.959 . S
C811 C809 1.561 . S
C812 C809 1.526 . S
C812 C813 1.396 . S
C812 C817 1.390 . S
C813 C807 1.465 . S
C813 C812 1.396 . S
C813 C814 1.399 . S
C814 H800 0.929 . S
C814 C813 1.399 . S
C814 C815 1.385 . S
C815 H801 0.931 . S
C815 C814 1.385 . S
C815 C816 1.389 . S
C816 C815 1.389 . S
C816 C817 1.387 . S
C817 H802 0.930 . S
C817 C812 1.390 . S
C817 C816 1.387 . S
H818 C830 0.930 . S
H819 C832 0.930 . S
H820 C833 0.930 . S
H821 C837 0.959 . S
H822 C837 0.959 . S
H823 C837 0.961 . S
H824 C838 0.960 . S
H825 C838 0.961 . S
H826 C838 0.959 . S
H827 C841 0.929 . S
H828 C842 0.931 . S
H829 C844 0.930 . S
C830 H818 0.930 . S
C830 C831 1.399 . S
C830 C835 1.399 . S
C831 C830 1.399 . S
C831 C832 1.376 . S
C832 H819 0.930 . S
C832 C831 1.376 . S
C832 C833 1.388 . S
C833 H820 0.930 . S
C833 C832 1.388 . S
C833 C834 1.390 . S
C834 C833 1.390 . S
C834 C835 1.394 . S
C834 C840 1.465 . S
C835 C830 1.399 . S
C835 C834 1.394 . S
C835 C836 1.516 . S
C836 C835 1.516 . S
C836 C837 1.502 . S
C836 C838 1.561 . S
C836 C839 1.526 . S
C837 H821 0.959 . S
C837 H822 0.959 . S
C837 H823 0.961 . S
C837 C836 1.502 . S
C838 H824 0.960 . S
C838 H825 0.961 . S
C838 H826 0.959 . S
C838 C836 1.561 . S
C839 C836 1.526 . S
C839 C840 1.396 . S
C839 C844 1.390 . S
C840 C834 1.465 . S
C840 C839 1.396 . S
C840 C841 1.399 . S
C841 H827 0.929 . S
C841 C840 1.399 . S
C841 C842 1.385 . S
C842 H828 0.931 . S
C842 C841 1.385 . S
C842 C843 1.389 . S
C843 C842 1.389 . S
C843 C844 1.387 . S
C844 H829 0.930 . S
C844 C839 1.390 . S
C844 C843 1.387 . S
H845 C857 0.930 . S
H846 C859 0.930 . S
H847 C860 0.930 . S
H848 C864 0.959 . S
H849 C864 0.959 . S
H850 C864 0.961 . S
H851 C865 0.960 . S
H852 C865 0.961 1_655 S
H853 C865 0.959 1_655 S
H854 C868 0.929 . S
H855 C869 0.931 . S
H856 C871 0.930 . S
C857 H845 0.930 . S
C857 C858 1.399 . S
C857 C862 1.399 . S
C858 C857 1.399 . S
C858 C859 1.376 . S
C859 H846 0.930 . S
C859 C858 1.376 . S
C859 C860 1.388 . S
C860 H847 0.930 . S
C860 C859 1.388 . S
C860 C861 1.390 . S
C861 C860 1.390 . S
C861 C862 1.394 . S
C861 C867 1.465 1_455 S
C862 C857 1.399 . S
C862 C861 1.394 . S
C862 C863 1.516 . S
C863 C862 1.516 . S
C863 C864 1.502 . S
C863 C865 1.561 . S
C863 C866 1.526 1_455 S
C864 H848 0.959 . S
C864 H849 0.959 . S
C864 H850 0.961 . S
C864 C863 1.502 . S
C865 H851 0.960 . S
C865 H852 0.961 1_455 S
C865 H853 0.959 1_455 S
C865 C863 1.561 . S
C866 C863 1.526 1_655 S
C866 C867 1.396 . S
C866 C871 1.390 . S
C867 C861 1.465 1_655 S
C867 C866 1.396 . S
C867 C868 1.399 . S
C868 H854 0.929 . S
C868 C867 1.399 . S
C868 C869 1.385 . S
C869 H855 0.931 . S
C869 C868 1.385 . S
C869 C870 1.389 . S
C870 C869 1.389 . S
C870 C871 1.387 . S
C871 H856 0.930 . S
C871 C866 1.390 . S
C871 C870 1.387 . S
H872 C884 0.930 . S
H873 C886 0.930 . S
H874 C887 0.930 . S
H875 C891 0.959 . S
H876 C891 0.959 . S
H877 C891 0.961 . S
H878 C892 0.960 . S
H879 C892 0.961 1_655 S
H880 C892 0.959 . S
H881 C895 0.929 . S
H882 C896 0.931 . S
H883 C898 0.930 . S
C884 H872 0.930 . S
C884 C885 1.399 . S
C884 C889 1.399 . S
C885 C884 1.399 . S
C885 C886 1.376 . S
C886 H873 0.930 . S
C886 C885 1.376 . S
C886 C887 1.388 . S
C887 H874 0.930 . S
C887 C886 1.388 . S
C887 C888 1.390 . S
C888 C887 1.390 . S
C888 C889 1.394 . S
C888 C894 1.465 1_455 S
C889 C884 1.399 . S
C889 C888 1.394 . S
C889 C890 1.516 1_455 S
C890 C889 1.516 1_655 S
C890 C891 1.502 . S
C890 C892 1.561 1_655 S
C890 C893 1.526 . S
C891 H875 0.959 . S
C891 H876 0.959 . S
C891 H877 0.961 . S
C891 C890 1.502 . S
C892 H878 0.960 . S
C892 H879 0.961 1_455 S
C892 H880 0.959 . S
C892 C890 1.561 1_455 S
C893 C890 1.526 . S
C893 C894 1.396 . S
C893 C898 1.390 . S
C894 C888 1.465 1_655 S
C894 C893 1.396 . S
C894 C895 1.399 . S
C895 H881 0.929 . S
C895 C894 1.399 . S
C895 C896 1.385 . S
C896 H882 0.931 . S
C896 C895 1.385 . S
C896 C897 1.389 . S
C897 C896 1.389 . S
C897 C898 1.387 . S
C898 H883 0.930 . S
C898 C893 1.390 . S
C898 C897 1.387 . S
H899 C911 0.930 . S
H900 C913 0.930 . S
H901 C914 0.930 . S
H902 C918 0.959 . S
H903 C918 0.959 . S
H904 C918 0.961 . S
H905 C919 0.960 . S
H906 C919 0.961 . S
H907 C919 0.959 . S
H908 C922 0.929 . S
H909 C923 0.931 . S
H910 C925 0.930 . S
C911 H899 0.930 . S
C911 C912 1.399 . S
C911 C916 1.399 . S
C912 C911 1.399 . S
C912 C913 1.376 . S
C913 H900 0.930 . S
C913 C912 1.376 . S
C913 C914 1.388 . S
C914 H901 0.930 . S
C914 C913 1.388 . S
C914 C915 1.390 . S
C915 C914 1.390 . S
C915 C916 1.394 . S
C915 C921 1.465 . S
C916 C911 1.399 . S
C916 C915 1.394 . S
C916 C917 1.516 . S
C917 C916 1.516 . S
C917 C918 1.502 . S
C917 C919 1.561 . S
C917 C920 1.526 . S
C918 H902 0.959 . S
C918 H903 0.959 . S
C918 H904 0.961 . S
C918 C917 1.502 . S
C919 H905 0.960 . S
C919 H906 0.961 . S
C919 H907 0.959 . S
C919 C917 1.561 . S
C920 C917 1.526 . S
C920 C921 1.396 . S
C920 C925 1.390 . S
C921 C915 1.465 . S
C921 C920 1.396 . S
C921 C922 1.399 . S
C922 H908 0.929 . S
C922 C921 1.399 . S
C922 C923 1.385 . S
C923 H909 0.931 . S
C923 C922 1.385 . S
C923 C924 1.389 . S
C924 C923 1.389 . S
C924 C925 1.387 . S
C925 H910 0.930 . S
C925 C920 1.390 . S
C925 C924 1.387 . S
H926 C938 0.930 . S
H927 C940 0.930 . S
H928 C941 0.930 . S
H929 C945 0.959 . S
H930 C945 0.959 . S
H931 C945 0.961 . S
H932 C946 0.960 . S
H933 C946 0.961 . S
H934 C946 0.959 . S
H935 C949 0.929 . S
H936 C950 0.931 . S
H937 C952 0.930 . S
C938 H926 0.930 . S
C938 C939 1.399 . S
C938 C943 1.399 . S
C939 C938 1.399 . S
C939 C940 1.376 . S
C940 H927 0.930 . S
C940 C939 1.376 . S
C940 C941 1.388 . S
C941 H928 0.930 . S
C941 C940 1.388 . S
C941 C942 1.390 . S
C942 C941 1.390 . S
C942 C943 1.394 . S
C942 C948 1.465 . S
C943 C938 1.399 . S
C943 C942 1.394 . S
C943 C944 1.516 . S
C944 C943 1.516 . S
C944 C945 1.502 . S
C944 C946 1.561 . S
C944 C947 1.526 . S
C945 H929 0.959 . S
C945 H930 0.959 . S
C945 H931 0.961 . S
C945 C944 1.502 . S
C946 H932 0.960 . S
C946 H933 0.961 . S
C946 H934 0.959 . S
C946 C944 1.561 . S
C947 C944 1.526 . S
C947 C948 1.396 . S
C947 C952 1.390 . S
C948 C942 1.465 . S
C948 C947 1.396 . S
C948 C949 1.399 . S
C949 H935 0.929 . S
C949 C948 1.399 . S
C949 C950 1.385 . S
C950 H936 0.931 . S
C950 C949 1.385 . S
C950 C951 1.389 . S
C951 C950 1.389 . S
C951 C952 1.387 . S
C952 H937 0.930 . S
C952 C947 1.390 . S
C952 C951 1.387 . S
H953 C965 0.930 . S
H954 C967 0.930 . S
H955 C968 0.930 . S
H956 C972 0.959 . S
H957 C972 0.959 . S
H958 C972 0.961 . S
H959 C973 0.960 . S
H960 C973 0.961 . S
H961 C973 0.959 . S
H962 C976 0.929 1_545 S
H963 C977 0.931 . S
H964 C979 0.930 . S
C965 H953 0.930 . S
C965 C966 1.399 . S
C965 C970 1.399 . S
C966 C965 1.399 . S
C966 C967 1.376 . S
C967 H954 0.930 . S
C967 C966 1.376 . S
C967 C968 1.388 . S
C968 H955 0.930 . S
C968 C967 1.388 . S
C968 C969 1.390 . S
C969 C968 1.390 . S
C969 C970 1.394 . S
C969 C975 1.465 1_545 S
C970 C965 1.399 . S
C970 C969 1.394 . S
C970 C971 1.516 1_545 S
C971 C970 1.516 1_565 S
C971 C972 1.502 . S
C971 C973 1.561 . S
C971 C974 1.526 . S
C972 H956 0.959 . S
C972 H957 0.959 . S
C972 H958 0.961 . S
C972 C971 1.502 . S
C973 H959 0.960 . S
C973 H960 0.961 . S
C973 H961 0.959 . S
C973 C971 1.561 . S
C974 C971 1.526 . S
C974 C975 1.396 . S
C974 C979 1.390 . S
C975 C969 1.465 1_565 S
C975 C974 1.396 . S
C975 C976 1.399 . S
C976 H962 0.929 1_565 S
C976 C975 1.399 . S
C976 C977 1.385 . S
C977 H963 0.931 . S
C977 C976 1.385 . S
C977 C978 1.389 . S
C978 C977 1.389 . S
C978 C979 1.387 . S
C979 H964 0.930 . S
C979 C974 1.390 . S
C979 C978 1.387 . S
H980 C992 0.930 . S
H981 C994 0.930 . S
H982 C995 0.930 . S
H983 C999 0.959 . S
H984 C999 0.959 . S
H985 C999 0.961 . S
H986 C1000 0.960 . S
H987 C1000 0.961 . S
H988 C1000 0.959 . S
H989 C1003 0.929 . S
H990 C1004 0.931 . S
H991 C1006 0.930 . S
C992 H980 0.930 . S
C992 C993 1.399 . S
C992 C997 1.399 . S
C993 C992 1.399 . S
C993 C994 1.376 . S
C994 H981 0.930 . S
C994 C993 1.376 . S
C994 C995 1.388 . S
C995 H982 0.930 . S
C995 C994 1.388 . S
C995 C996 1.390 . S
C996 C995 1.390 . S
C996 C997 1.394 . S
C996 C1002 1.465 . S
C997 C992 1.399 . S
C997 C996 1.394 . S
C997 C998 1.516 . S
C998 C997 1.516 . S
C998 C999 1.502 . S
C998 C1000 1.561 . S
C998 C1001 1.526 . S
C999 H983 0.959 . S
C999 H984 0.959 . S
C999 H985 0.961 . S
C999 C998 1.502 . S
C1000 H986 0.960 . S
C1000 H987 0.961 . S
C1000 H988 0.959 . S
C1000 C998 1.561 . S
C1001 C998 1.526 . S
C1001 C1002 1.396 . S
C1001 C1006 1.390 . S
C1002 C996 1.465 . S
C1002 C1001 1.396 . S
C1002 C1003 1.399 . S
C1003 H989 0.929 . S
C1003 C1002 1.399 . S
C1003 C1004 1.385 . S
C1004 H990 0.931 . S
C1004 C1003 1.385 . S
C1004 C1005 1.389 . S
C1005 C1004 1.389 . S
C1005 C1006 1.387 . S
C1006 H991 0.930 . S
C1006 C1001 1.390 . S
C1006 C1005 1.387 . S
H1007 C1019 0.930 . S
H1008 C1021 0.930 . S
H1009 C1022 0.930 . S
H1010 C1026 0.959 . S
H1011 C1026 0.959 . S
H1012 C1026 0.961 . S
H1013 C1027 0.960 . S
H1014 C1027 0.961 . S
H1015 C1027 0.959 . S
H1016 C1030 0.929 . S
H1017 C1031 0.931 . S
H1018 C1033 0.930 . S
C1019 H1007 0.930 . S
C1019 C1020 1.399 . S
C1019 C1024 1.399 . S
C1020 C1019 1.399 . S
C1020 C1021 1.376 . S
C1021 H1008 0.930 . S
C1021 C1020 1.376 . S
C1021 C1022 1.388 . S
C1022 H1009 0.930 . S
C1022 C1021 1.388 . S
C1022 C1023 1.390 . S
C1023 C1022 1.390 . S
C1023 C1024 1.394 . S
C1023 C1029 1.465 . S
C1024 C1019 1.399 . S
C1024 C1023 1.394 . S
C1024 C1025 1.516 . S
C1025 C1024 1.516 . S
C1025 C1026 1.502 . S
C1025 C1027 1.561 . S
C1025 C1028 1.526 . S
C1026 H1010 0.959 . S
C1026 H1011 0.959 . S
C1026 H1012 0.961 . S
C1026 C1025 1.502 . S
C1027 H1013 0.960 . S
C1027 H1014 0.961 . S
C1027 H1015 0.959 . S
C1027 C1025 1.561 . S
C1028 C1025 1.526 . S
C1028 C1029 1.396 . S
C1028 C1033 1.390 . S
C1029 C1023 1.465 . S
C1029 C1028 1.396 . S
C1029 C1030 1.399 . S
C1030 H1016 0.929 . S
C1030 C1029 1.399 . S
C1030 C1031 1.385 . S
C1031 H1017 0.931 . S
C1031 C1030 1.385 . S
C1031 C1032 1.389 . S
C1032 C1031 1.389 . S
C1032 C1033 1.387 . S
C1033 H1018 0.930 . S
C1033 C1028 1.390 . S
C1033 C1032 1.387 . S
H1034 C1046 0.930 . S
H1035 C1048 0.930 . S
H1036 C1049 0.930 . S
H1037 C1053 0.959 . S
H1038 C1053 0.959 . S
H1039 C1053 0.961 . S
H1040 C1054 0.960 . S
H1041 C1054 0.961 . S
H1042 C1054 0.959 . S
H1043 C1057 0.929 1_545 S
H1044 C1058 0.931 . S
H1045 C1060 0.930 . S
C1046 H1034 0.930 . S
C1046 C1047 1.399 . S
C1046 C1051 1.399 . S
C1047 C1046 1.399 . S
C1047 C1048 1.376 . S
C1048 H1035 0.930 . S
C1048 C1047 1.376 . S
C1048 C1049 1.388 . S
C1049 H1036 0.930 . S
C1049 C1048 1.388 . S
C1049 C1050 1.390 . S
C1050 C1049 1.390 . S
C1050 C1051 1.394 . S
C1050 C1056 1.465 1_545 S
C1051 C1046 1.399 . S
C1051 C1050 1.394 . S
C1051 C1052 1.516 1_545 S
C1052 C1051 1.516 1_565 S
C1052 C1053 1.502 . S
C1052 C1054 1.561 . S
C1052 C1055 1.526 . S
C1053 H1037 0.959 . S
C1053 H1038 0.959 . S
C1053 H1039 0.961 . S
C1053 C1052 1.502 . S
C1054 H1040 0.960 . S
C1054 H1041 0.961 . S
C1054 H1042 0.959 . S
C1054 C1052 1.561 . S
C1055 C1052 1.526 . S
C1055 C1056 1.396 . S
C1055 C1060 1.390 . S
C1056 C1050 1.465 1_565 S
C1056 C1055 1.396 . S
C1056 C1057 1.399 . S
C1057 H1043 0.929 1_565 S
C1057 C1056 1.399 . S
C1057 C1058 1.385 . S
C1058 H1044 0.931 . S
C1058 C1057 1.385 . S
C1058 C1059 1.389 . S
C1059 C1058 1.389 . S
C1059 C1060 1.387 . S
C1060 H1045 0.930 . S
C1060 C1055 1.390 . S
C1060 C1059 1.387 . S
H1061 C1073 0.930 . S
H1062 C1075 0.930 . S
H1063 C1076 0.930 . S
H1064 C1080 0.959 . S
H1065 C1080 0.959 . S
H1066 C1080 0.961 . S
H1067 C1081 0.960 . S
H1068 C1081 0.961 . S
H1069 C1081 0.959 . S
H1070 C1084 0.929 . S
H1071 C1085 0.931 . S
H1072 C1087 0.930 . S
C1073 H1061 0.930 . S
C1073 C1074 1.399 . S
C1073 C1078 1.399 . S
C1074 C1073 1.399 . S
C1074 C1075 1.376 . S
C1075 H1062 0.930 . S
C1075 C1074 1.376 . S
C1075 C1076 1.388 . S
C1076 H1063 0.930 . S
C1076 C1075 1.388 . S
C1076 C1077 1.390 . S
C1077 C1076 1.390 . S
C1077 C1078 1.394 . S
C1077 C1083 1.465 . S
C1078 C1073 1.399 . S
C1078 C1077 1.394 . S
C1078 C1079 1.516 . S
C1079 C1078 1.516 . S
C1079 C1080 1.502 . S
C1079 C1081 1.561 . S
C1079 C1082 1.526 . S
C1080 H1064 0.959 . S
C1080 H1065 0.959 . S
C1080 H1066 0.961 . S
C1080 C1079 1.502 . S
C1081 H1067 0.960 . S
C1081 H1068 0.961 . S
C1081 H1069 0.959 . S
C1081 C1079 1.561 . S
C1082 C1079 1.526 . S
C1082 C1083 1.396 . S
C1082 C1087 1.390 . S
C1083 C1077 1.465 . S
C1083 C1082 1.396 . S
C1083 C1084 1.399 . S
C1084 H1070 0.929 . S
C1084 C1083 1.399 . S
C1084 C1085 1.385 . S
C1085 H1071 0.931 . S
C1085 C1084 1.385 . S
C1085 C1086 1.389 . S
C1086 C1085 1.389 . S
C1086 C1087 1.387 . S
C1087 H1072 0.930 . S
C1087 C1082 1.390 . S
C1087 C1086 1.387 . S
C237 C4 1.210 . S
C249 C186 1.193 . S
C264 C18 1.170 . S
C276 C130 1.238 . S
C291 C200 1.246 . S
C303 C32 1.176 . S
C318 C46 1.239 . S
C330 C214 1.186 . S
C345 C60 1.215 . S
C357 C88 1.188 . S
C372 C144 1.246 . S
C384 C74 1.168 . S
C399 C158 1.226 . S
C411 C102 1.203 . S
C426 C116 1.182 . S
C438 C172 1.241 . S
C453 C40 1.525 . S
C465 C12 1.514 . S
C480 C26 1.521 . S
C492 C54 1.513 . S
C507 C179 1.433 . S
C519 C11 1.474 . S
C534 C25 1.486 . S
C546 C165 1.429 . S
C561 C67 1.436 . S
C573 C39 1.468 . S
C588 C151 1.491 . S
C600 C53 1.442 . S
C615 C19 1.359 . S
C627 C5 1.427 . S
C642 C47 1.396 . S
C654 C33 1.302 . S
C669 C145 1.386 . S
C681 C61 1.306 . S
C696 C109 1.526 . S
C708 C81 1.533 . S
C723 C95 1.542 . S
C735 C123 1.546 . S
C750 C222 1.499 . S
C762 C82 1.505 . S
C777 C96 1.513 . S
C789 C208 1.510 . S
C804 C138 1.513 . S
C816 C110 1.511 . S
C831 C124 1.502 . S
C843 C194 1.500 . S
C858 C89 1.252 . S
C870 C75 1.339 . S
C885 C117 1.393 . S
C897 C103 1.334 . S
C912 C131 1.262 . S
C924 C187 1.277 . S
C939 C152 1.521 . S
C951 C166 1.513 . S
C966 C180 1.513 . S
C978 C68 1.525 . S
C993 C173 1.379 . S
C1005 C159 1.309 . S
C1020 C207 1.507 . S
C1032 C193 1.502 . S
C1047 C137 1.532 . S
C1059 C221 1.538 . S
C1074 C215 1.393 . S
C1086 C201 1.327 . S
