# Generated by pormake.
# Topology unf, (4)-cn, num edge types: 1
# Building blocks:
#     Node 0, Type 0, BuildingBlock: KUFVIS_clean_sbu_0, # of connection points: 4
#     Node 1, Type 0, BuildingBlock: KUFVIS_clean_sbu_0, # of connection points: 4
#     Node 2, Type 0, BuildingBlock: KUFVIS_clean_sbu_0, # of connection points: 4
#     Node 3, Type 0, BuildingBlock: KUFVIS_clean_sbu_0, # of connection points: 4
#     Node 4, Type 0, BuildingBlock: KUFVIS_clean_sbu_0, # of connection points: 4
#     Node 5, Type 0, BuildingBlock: KUFVIS_clean_sbu_0, # of connection points: 4
#     Node 6, Type 0, BuildingBlock: KUFVIS_clean_sbu_0, # of connection points: 4
#     Node 7, Type 0, BuildingBlock: KUFVIS_clean_sbu_0, # of connection points: 4
#     Node 8, Type 0, BuildingBlock: KUFVIS_clean_sbu_0, # of connection points: 4
#     Node 9, Type 0, BuildingBlock: KUFVIS_clean_sbu_0, # of connection points: 4
#     Node 10, Type 0, BuildingBlock: KUFVIS_clean_sbu_0, # of connection points: 4
#     Node 11, Type 0, BuildingBlock: KUFVIS_clean_sbu_0, # of connection points: 4
#     Edge 12, Type (0, 0), BuildingBlock: AJUNOK_clean_linker_0, # of connection points: 2
#     Edge 13, Type (0, 0), BuildingBlock: AJUNOK_clean_linker_0, # of connection points: 2
#     Edge 14, Type (0, 0), BuildingBlock: AJUNOK_clean_linker_0, # of connection points: 2
#     Edge 15, Type (0, 0), BuildingBlock: AJUNOK_clean_linker_0, # of connection points: 2
#     Edge 16, Type (0, 0), BuildingBlock: AJUNOK_clean_linker_0, # of connection points: 2
#     Edge 17, Type (0, 0), BuildingBlock: AJUNOK_clean_linker_0, # of connection points: 2
#     Edge 18, Type (0, 0), BuildingBlock: AJUNOK_clean_linker_0, # of connection points: 2
#     Edge 19, Type (0, 0), BuildingBlock: AJUNOK_clean_linker_0, # of connection points: 2
#     Edge 20, Type (0, 0), BuildingBlock: AJUNOK_clean_linker_0, # of connection points: 2
#     Edge 21, Type (0, 0), BuildingBlock: AJUNOK_clean_linker_0, # of connection points: 2
#     Edge 22, Type (0, 0), BuildingBlock: AJUNOK_clean_linker_0, # of connection points: 2
#     Edge 23, Type (0, 0), BuildingBlock: AJUNOK_clean_linker_0, # of connection points: 2
#     Edge 24, Type (0, 0), BuildingBlock: AJUNOK_clean_linker_0, # of connection points: 2
#     Edge 25, Type (0, 0), BuildingBlock: AJUNOK_clean_linker_0, # of connection points: 2
#     Edge 26, Type (0, 0), BuildingBlock: AJUNOK_clean_linker_0, # of connection points: 2
#     Edge 27, Type (0, 0), BuildingBlock: AJUNOK_clean_linker_0, # of connection points: 2
#     Edge 28, Type (0, 0), BuildingBlock: AJUNOK_clean_linker_0, # of connection points: 2
#     Edge 29, Type (0, 0), BuildingBlock: AJUNOK_clean_linker_0, # of connection points: 2
#     Edge 30, Type (0, 0), BuildingBlock: AJUNOK_clean_linker_0, # of connection points: 2
#     Edge 31, Type (0, 0), BuildingBlock: AJUNOK_clean_linker_0, # of connection points: 2
#     Edge 32, Type (0, 0), BuildingBlock: AJUNOK_clean_linker_0, # of connection points: 2
#     Edge 33, Type (0, 0), BuildingBlock: AJUNOK_clean_linker_0, # of connection points: 2
#     Edge 34, Type (0, 0), BuildingBlock: AJUNOK_clean_linker_0, # of connection points: 2
#     Edge 35, Type (0, 0), BuildingBlock: AJUNOK_clean_linker_0, # of connection points: 2
# Relax obj value: 0.236
# Max RMSD: 0.189
# Mean RMSD: 0.182
data_MOF--net-unf--node1-KUFVIS_clean_sbu_0--edge1-AJUNOK_clean_linker_0
_symmetry_space_group_name_H-M    P1
_symmetry_Int_Tables_number       1
_symmetry_cell_setting            triclinic
loop_
_symmetry_equiv_pos_as_xyz
'x, y, z'
_cell_length_a     27.956776
_cell_length_b     28.616887
_cell_length_c     25.897902
_cell_angle_alpha  90.444211
_cell_angle_beta   89.371514
_cell_angle_gamma 119.34046
loop_
_atom_site_label
_atom_site_type_symbol
_atom_site_fract_x
_atom_site_fract_y
_atom_site_fract_z
_atom_type_partial_charge
Mn0 Mn 0.06604 0.38467 0.0887 0.0
Mn1 Mn 0.03771 0.2725 0.15447 0.0
C2 C 0.99429 0.30392 0.06462 0.0
C3 C 0.04758 0.4538 0.07094 0.0
C4 C 0.12381 0.31802 0.07065 0.0
O5 O 0.11353 0.41652 0.15273 0.0
O6 O 0.09439 0.33805 0.1896 0.0
C7 C 0.98458 0.29508 0.24335 0.0
N8 N 0.98214 0.26221 0.20394 0.0
C9 C 0.88842 0.19837 0.22499 0.0
C10 C 0.88993 0.2316 0.26575 0.0
C11 C 0.93825 0.28011 0.27502 0.0
C12 C 0.9358 0.21549 0.19464 0.0
H13 H 0.02153 0.33253 0.25043 0.0
C14 C 0.12072 0.3893 0.18764 0.0
O15 O 0.09251 0.45552 0.05414 0.0
O16 O 0.01894 0.41684 0.10422 0.0
N17 N 0.98408 0.20557 0.12564 0.0
C18 C 0.99062 0.17658 0.08694 0.0
C19 C 0.94621 0.12674 0.07294 0.0
C20 C 0.8961 0.10654 0.09987 0.0
C21 C 0.89131 0.13584 0.14135 0.0
C22 C 0.93698 0.18528 0.15346 0.0
H23 H 0.02919 0.19186 0.0664 0.0
O24 O 0.01549 0.34357 0.03284 0.0
O25 O 0.014 0.31274 0.11125 0.0
O26 O 0.12017 0.36032 0.06273 0.0
O27 O 0.09363 0.28129 0.10284 0.0
C28 C 0.84314 0.11782 0.17135 0.0
C29 C 0.84167 0.1491 0.21309 0.0
H30 H 0.85418 0.22038 0.29003 0.0
H31 H 0.93971 0.30595 0.30641 0.0
H32 H 0.95055 0.10401 0.04141 0.0
H33 H 0.86185 0.0682 0.08881 0.0
H34 H 0.80703 0.07991 0.16271 0.0
H35 H 0.80439 0.13487 0.23585 0.0
Mn36 Mn 0.61392 0.6936 0.07344 0.0
Mn37 Mn 0.72974 0.77895 0.13577 0.0
C38 C 0.69784 0.70713 0.04454 0.0
C39 C 0.54634 0.60415 0.05786 0.0
C40 C 0.67758 0.81557 0.05671 0.0
O41 O 0.58226 0.708 0.14061 0.0
O42 O 0.66353 0.76813 0.17426 0.0
C43 C 0.70756 0.69808 0.21578 0.0
N44 N 0.7427 0.73387 0.18061 0.0
C45 C 0.80601 0.7003 0.18937 0.0
C46 C 0.76986 0.66236 0.22485 0.0
C47 C 0.72083 0.66168 0.23865 0.0
C48 C 0.79006 0.73485 0.16715 0.0
H49 H 0.66886 0.69613 0.22493 0.0
C50 C 0.61109 0.74338 0.1745 0.0
O51 O 0.54028 0.64387 0.04145 0.0
O52 O 0.5864 0.61682 0.08921 0.0
N53 N 0.79819 0.79548 0.10392 0.0
C54 C 0.82697 0.83327 0.06742 0.0
C55 C 0.87847 0.84118 0.05097 0.0
C56 C 0.89998 0.81058 0.07267 0.0
C57 C 0.87049 0.77353 0.11169 0.0
C58 C 0.82022 0.76868 0.12755 0.0
H59 H 0.81046 0.8568 0.05076 0.0
O60 O 0.65605 0.68662 0.01445 0.0
O61 O 0.68905 0.71702 0.0917 0.0
O62 O 0.6349 0.76973 0.04879 0.0
O63 O 0.7166 0.82358 0.08736 0.0
C64 C 0.88849 0.74062 0.13495 0.0
C65 C 0.85578 0.70335 0.17309 0.0
H66 H 0.77845 0.63255 0.24075 0.0
H67 H 0.69273 0.6323 0.26589 0.0
H68 H 0.90123 0.87035 0.02128 0.0
H69 H 0.9392 0.81599 0.05926 0.0
H70 H 0.9267 0.7427 0.12288 0.0
H71 H 0.8689 0.67666 0.18888 0.0
Mn72 Mn 0.3135 0.92835 0.09401 0.0
Mn73 Mn 0.33315 0.82479 0.0686 0.0
C74 C 0.40219 0.94331 0.0861 0.0
C75 C 0.30673 1.0005 0.06339 0.0
C76 C 0.28318 0.83703 0.16963 0.0
O77 O 0.24124 0.87284 0.06302 0.0
O78 O 0.26267 0.80993 0.03554 0.0
C79 C 0.35104 0.83462 0.95552 0.0
N80 N 0.37014 0.83492 1.00374 0.0
C81 C 0.45992 0.85958 0.97019 0.0
C82 C 0.44109 0.859 0.9201 0.0
C83 C 0.38632 0.84627 0.91274 0.0
C84 C 0.42257 0.8464 0.01121 0.0
H85 H 0.30958 0.82667 0.94986 0.0
C86 C 0.22985 0.82942 0.03901 0.0
O87 O 0.28593 0.97992 0.10821 0.0
O88 O 0.32773 0.97721 0.03579 0.0
N89 N 0.40081 0.8378 0.09885 0.0
C90 C 0.41346 0.83974 0.14978 0.0
C91 C 0.467 0.85283 0.1638 0.0
C92 C 0.50706 0.86444 0.12536 0.0
C93 C 0.49318 0.86252 0.07326 0.0
C94 C 0.43886 0.84805 0.06157 0.0
H95 H 0.38305 0.83174 0.17951 0.0
O96 O 0.39174 0.97449 0.11509 0.0
O97 O 0.35893 0.90154 0.06831 0.0
O98 O 0.29345 0.88495 0.16102 0.0
O99 O 0.29482 0.81027 0.13697 0.0
C100 C 0.53144 0.87581 0.03254 0.0
C101 C 0.51479 0.87464 0.98112 0.0
H102 H 0.46852 0.86902 0.88713 0.0
H103 H 0.37161 0.84636 0.87428 0.0
H104 H 0.47752 0.8545 0.20414 0.0
H105 H 0.54845 0.87523 0.13624 0.0
H106 H 0.57392 0.88788 0.04042 0.0
H107 H 0.54458 0.88648 0.95021 0.0
Mn108 Mn 0.61924 0.92891 0.42416 0.0
Mn109 Mn 0.49325 0.8281 0.4452 0.0
C110 C 0.54852 0.94816 0.43562 0.0
C111 C 0.70101 0.99433 0.45932 0.0
C112 C 0.55666 0.8438 0.34392 0.0
O113 O 0.6309 0.86802 0.44869 0.0
O114 O 0.54579 0.80878 0.47788 0.0
C115 C 0.47831 0.82812 0.55859 0.0
N116 N 0.46432 0.83523 0.51026 0.0
C117 C 0.39741 0.85732 0.54443 0.0
C118 C 0.41118 0.85028 0.59457 0.0
C119 C 0.45154 0.83524 0.60165 0.0
C120 C 0.42469 0.84855 0.50299 0.0
H121 H 0.51018 0.81788 0.56424 0.0
C122 C 0.59751 0.82513 0.47261 0.0
O123 O 0.69944 0.97822 0.41194 0.0
O124 O 0.65613 0.97109 0.4861 0.0
N125 N 0.44177 0.8457 0.4152 0.0
C126 C 0.43342 0.85115 0.36437 0.0
C127 C 0.39439 0.86617 0.35069 0.0
C128 C 0.36464 0.87571 0.38941 0.0
C129 C 0.37387 0.86983 0.44141 0.0
C130 C 0.41292 0.85431 0.45269 0.0
H131 H 0.4565 0.84431 0.33447 0.0
O132 O 0.59195 0.98038 0.40931 0.0
O133 O 0.54706 0.90403 0.45001 0.0
O134 O 0.59428 0.89156 0.35381 0.0
O135 O 0.51851 0.81605 0.37639 0.0
C136 C 0.34627 0.87937 0.48247 0.0
C137 C 0.35797 0.87302 0.53397 0.0
H138 H 0.39119 0.85651 0.62789 0.0
H139 H 0.46258 0.82995 0.64022 0.0
H140 H 0.38743 0.87065 0.31044 0.0
H141 H 0.33497 0.88772 0.37889 0.0
H142 H 0.31609 0.89171 0.47479 0.0
H143 H 0.33658 0.88049 0.56526 0.0
Mn144 Mn 0.07483 0.68804 0.43845 0.0
Mn145 Mn 0.04294 0.77145 0.37593 0.0
C146 C 0.00442 0.70117 0.46786 0.0
C147 C 0.05258 0.59876 0.45308 0.0
C148 C 0.13315 0.81011 0.45452 0.0
O149 O 0.12023 0.70166 0.37121 0.0
O150 O 0.09858 0.76097 0.33727 0.0
C151 C 0.98421 0.68961 0.2961 0.0
N152 N 0.9846 0.72525 0.33144 0.0
C153 C 0.88704 0.68926 0.32411 0.0
C154 C 0.88559 0.65162 0.28823 0.0
C155 C 0.93442 0.65225 0.27367 0.0
C156 C 0.93779 0.72509 0.34555 0.0
H157 H 0.02134 0.68861 0.28635 0.0
C158 C 0.12631 0.73633 0.33702 0.0
O159 O 0.09848 0.63832 0.46994 0.0
O160 O 0.02514 0.61151 0.42209 0.0
N161 N 0.99075 0.78759 0.40768 0.0
C162 C -0.00012 0.82635 0.44324 0.0
C163 C 0.95596 0.83363 0.45991 0.0
C164 C 0.90341 0.80139 0.43932 0.0
C165 C 0.89573 0.76342 0.40109 0.0
C166 C 0.94146 0.75934 0.38486 0.0
H167 H 0.04032 0.85125 0.45883 0.0
O168 O 0.02624 0.68127 0.49782 0.0
O169 O 0.02255 0.71056 0.42055 0.0
O170 O 0.13053 0.76465 0.46299 0.0
O171 O 0.10083 0.8167 0.42437 0.0
C172 C 0.84443 0.72885 0.37903 0.0
C173 C 0.8399 0.691 0.34142 0.0
H174 H 0.84723 0.62135 0.27217 0.0
H175 H 0.93346 0.62318 0.24612 0.0
H176 H 0.96249 0.86361 0.48887 0.0
H177 H 0.86937 0.80633 0.45284 0.0
H178 H 0.80798 0.73005 0.39167 0.0
H179 H 0.79976 0.6628 0.32702 0.0
Mn180 Mn 0.31306 0.3829 0.42956 0.0
Mn181 Mn 0.23123 0.27233 0.36083 0.0
C182 C 0.30314 0.30156 0.45317 0.0
C183 C 0.40086 0.4512 0.44863 0.0
C184 C 0.18804 0.31685 0.44352 0.0
O185 O 0.29924 0.41589 0.36545 0.0
O186 O 0.24181 0.33821 0.3258 0.0
C187 C 0.31038 0.29593 0.27489 0.0
N188 N 0.27819 0.26255 0.3131 0.0
C189 C 0.31031 0.20003 0.29488 0.0
C190 C 0.34346 0.23349 0.25502 0.0
C191 C 0.34347 0.28166 0.24498 0.0
C192 C 0.27795 0.2162 0.32315 0.0
H193 H 0.31107 0.33328 0.26753 0.0
C194 C 0.2665 0.38937 0.32899 0.0
O195 O 0.35782 0.45334 0.46528 0.0
O196 O 0.39231 0.41434 0.41508 0.0
N197 N 0.21655 0.20533 0.38946 0.0
C198 C 0.17986 0.17632 0.42727 0.0
C199 C 0.17495 0.12718 0.4424 0.0
C200 C 0.20695 0.10802 0.41774 0.0
C201 C 0.24219 0.13721 0.37691 0.0
C202 C 0.24503 0.18572 0.36338 0.0
H203 H 0.15548 0.19118 0.44649 0.0
O204 O 0.32087 0.34082 0.48554 0.0
O205 O 0.29352 0.31128 0.4064 0.0
O206 O 0.23399 0.35859 0.4537 0.0
O207 O 0.18265 0.28086 0.41081 0.0
C208 C 0.27492 0.12048 0.3493 0.0
C209 C 0.30873 0.15169 0.30821 0.0
H210 H 0.3693 0.22276 0.2321 0.0
H211 H 0.36916 0.30788 0.21448 0.0
H212 H 0.14712 0.10446 0.4734 0.0
H213 H 0.20376 0.0708 0.4305 0.0
H214 H 0.27488 0.08396 0.35936 0.0
H215 H 0.33369 0.13834 0.28739 0.0
Mn216 Mn 0.93205 0.62356 0.93584 0.0
Mn217 Mn 0.97451 0.74206 0.87796 0.0
C218 C 0.00874 0.69915 0.96503 0.0
C219 C 0.94215 0.54907 0.95085 0.0
C220 C 0.88132 0.69568 0.9552 0.0
O221 O 0.88742 0.60012 0.86865 0.0
O222 O 0.91817 0.68278 0.83525 0.0
C223 C 0.03259 0.71698 0.79619 0.0
N224 N 0.03359 0.75073 0.83402 0.0
C225 C 0.1323 0.80039 0.83191 0.0
C226 C 0.13214 0.76562 0.7933 0.0
C227 C 0.0821 0.72423 0.77493 0.0
C228 C 0.0816 0.7911 0.85166 0.0
H229 H 0.99437 0.68358 0.78367 0.0
C230 C 0.88692 0.63181 0.83416 0.0
O231 O 0.89818 0.55016 0.96621 0.0
O232 O 0.97425 0.58647 0.91934 0.0
N233 N 0.02866 0.80307 0.91463 0.0
C234 C 0.02136 0.83011 0.95471 0.0
C235 C 0.06718 0.87454 0.97615 0.0
C236 C 0.11995 0.89028 0.95644 0.0
C237 C 0.12622 0.86223 0.91462 0.0
C238 C 0.07879 0.81982 0.89343 0.0
H239 H 0.98092 0.81759 0.97036 0.0
O240 O 0.98211 0.65859 0.99507 0.0
O241 O 0.98958 0.69413 0.9186 0.0
O242 O 0.8822 0.65193 0.96167 0.0
O243 O 0.91475 0.7336 0.92547 0.0
C244 C 0.17766 0.87352 0.8942 0.0
C245 C 0.18073 0.84192 0.8536 0.0
H246 H 0.17014 0.76938 0.77828 0.0
H247 H 0.08176 0.69708 0.74543 0.0
H248 H 0.06194 0.89597 0.00837 0.0
H249 H 0.15536 0.92355 0.97404 0.0
H250 H 0.21515 0.90534 0.91046 0.0
H251 H 0.22062 0.84947 0.83991 0.0
Mn252 Mn 0.37953 0.30712 0.93953 0.0
Mn253 Mn 0.25902 0.21457 0.88959 0.0
C254 C 0.29815 0.29642 0.97253 0.0
C255 C 0.4489 0.39628 0.95076 0.0
C256 C 0.31865 0.18718 0.96827 0.0
O257 O 0.40554 0.28916 0.87097 0.0
O258 O 0.32274 0.22112 0.84835 0.0
C259 C 0.27246 0.28084 0.79809 0.0
N260 N 0.2418 0.25236 0.83944 0.0
C261 C 0.17503 0.28051 0.82455 0.0
C262 C 0.20656 0.31089 0.78258 0.0
C263 C 0.25512 0.3107 0.76886 0.0
C264 C 0.19486 0.25226 0.85277 0.0
H265 H 0.3105 0.28181 0.78818 0.0
C266 C 0.3748 0.24919 0.84201 0.0
O267 O 0.45516 0.35639 0.96609 0.0
O268 O 0.40692 0.38388 0.92177 0.0
N269 N 0.19318 0.20293 0.92425 0.0
C270 C 0.16842 0.17246 0.96675 0.0
C271 C 0.11842 0.16728 0.98467 0.0
C272 C 0.094 0.19278 0.95826 0.0
C273 C 0.11924 0.22228 0.91355 0.0
C274 C 0.16857 0.22525 0.89711 0.0
H275 H 0.18708 0.15292 0.9872 0.0
O276 O 0.34196 0.31754 1.0001 0.0
O277 O 0.30279 0.28241 0.92558 0.0
O278 O 0.36224 0.23317 0.96775 0.0
O279 O 0.27537 0.17591 0.94276 0.0
C280 C 0.09763 0.24917 0.88483 0.0
C281 C 0.12579 0.2787 0.84058 0.0
H282 H 0.19476 0.33574 0.76155 0.0
H283 H 0.27959 0.33428 0.73646 0.0
H284 H 0.09896 0.14402 0.01896 0.0
H285 H 0.05576 0.18921 0.97245 0.0
H286 H 0.05981 0.24799 0.89682 0.0
H287 H 0.10945 0.30017 0.8194 0.0
Mn288 Mn 0.68675 0.07804 0.94013 0.0
Mn289 Mn 0.77737 0.04913 0.88067 0.0
C290 C 0.69547 0.00607 0.96594 0.0
C291 C 0.59843 0.06186 0.95878 0.0
C292 C 0.80987 0.13287 0.96345 0.0
O293 O 0.70492 0.12401 0.87407 0.0
O294 O 0.76818 0.10391 0.84197 0.0
C295 C 0.70562 0.99523 0.79195 0.0
N296 N 0.73729 0.99455 0.83115 0.0
C297 C 0.7129 0.90314 0.81287 0.0
C298 C 0.67934 0.9027 0.77293 0.0
C299 C 0.67596 0.94894 0.76205 0.0
C300 C 0.74073 0.95014 0.84189 0.0
H301 H 0.70209 0.03041 0.78435 0.0
C302 C 0.7418 0.12994 0.84068 0.0
O303 O 0.64117 0.10589 0.97371 0.0
O304 O 0.60707 0.03314 0.92495 0.0
N305 N 0.79163 0.99741 0.91319 0.0
C306 C 0.82341 0.00379 0.9551 0.0
C307 C 0.83099 0.96107 0.97106 0.0
C308 C 0.80668 0.91265 0.94324 0.0
C309 C 0.77571 0.90772 0.89927 0.0
C310 C 0.77015 0.9519 0.88489 0.0
H311 H 0.84227 0.04096 0.9766 0.0
O312 O 0.67591 0.02816 0.99688 0.0
O313 O 0.70919 0.02601 0.91966 0.0
O314 O 0.76302 0.1301 0.96822 0.0
O315 O 0.81973 0.10369 0.93245 0.0
C316 C 0.74961 0.86053 0.86946 0.0
C317 C 0.71791 0.85812 0.82649 0.0
H318 H 0.65454 0.86659 0.7516 0.0
H319 H 0.64982 0.94855 0.73133 0.0
H320 H 0.8553 0.96537 1.00483 0.0
H321 H 0.81218 0.87961 0.95584 0.0
H322 H 0.75285 0.82557 0.87978 0.0
H323 H 0.69691 0.8212 0.80474 0.0
Mn324 Mn 0.38707 0.07534 0.57352 0.0
Mn325 Mn 0.26586 0.04251 0.63128 0.0
C326 C 0.30769 0.00209 0.54547 0.0
C327 C 0.46135 0.06143 0.55807 0.0
C328 C 0.31715 0.12864 0.55045 0.0
O329 O 0.41269 0.12108 0.64032 0.0
O330 O 0.32834 0.09713 0.67228 0.0
C331 C 0.28548 0.98682 0.71677 0.0
N332 N 0.25252 0.98646 0.6783 0.0
C333 C 0.19065 0.89227 0.68967 0.0
C334 C 0.22445 0.89165 0.72888 0.0
C335 C 0.27169 0.93913 0.74293 0.0
C336 C 0.20684 0.94091 0.66463 0.0
H337 H 0.3228 0.02286 0.72634 0.0
C338 C 0.38073 0.12483 0.6741 0.0
O339 O 0.46171 0.10451 0.54184 0.0
O340 O 0.4228 0.03193 0.59045 0.0
N341 N 0.20092 0.99064 0.59697 0.0
C342 C 0.17466 0.99784 0.5563 0.0
C343 C 0.1254 0.95455 0.5386 0.0
C344 C 0.1034 0.90459 0.56326 0.0
C345 C 0.13043 0.8986 0.60585 0.0
C346 C 0.17863 0.94353 0.62249 0.0
H347 H 0.19148 0.03618 0.5372 0.0
O348 O 0.35023 0.02511 0.51575 0.0
O349 O 0.31255 0.02195 0.59175 0.0
O350 O 0.36139 0.12611 0.54513 0.0
O351 O 0.27801 0.0987 0.5812 0.0
C352 C 0.11218 0.84956 0.63173 0.0
C353 C 0.14276 0.84621 0.67311 0.0
H354 H 0.21558 0.85475 0.74737 0.0
H355 H 0.29804 0.93868 0.77301 0.0
H356 H 0.10468 0.95957 0.50581 0.0
H357 H 0.0658 0.87108 0.54923 0.0
H358 H 0.07541 0.81393 0.61937 0.0
H359 H 0.12925 0.80796 0.69165 0.0
Mn360 Mn 0.92144 0.30599 0.57457 0.0
Mn361 Mn 0.96013 0.22697 0.63651 0.0
C362 C 0.99502 0.29896 0.54432 0.0
C363 C 0.93703 0.39307 0.5605 0.0
C364 C 0.86854 0.18414 0.55886 0.0
O365 O 0.87564 0.28856 0.64168 0.0
O366 O 0.90588 0.23695 0.67875 0.0
C367 C 0.02161 0.31174 0.71296 0.0
N368 N 0.02049 0.2757 0.67768 0.0
C369 C 0.11894 0.31655 0.67786 0.0
C370 C 0.12105 0.35458 0.71367 0.0
C371 C 0.07218 0.35166 0.73185 0.0
C372 C 0.06731 0.27774 0.66041 0.0
H373 H 0.98429 0.31115 0.72526 0.0
C374 C 0.87508 0.25842 0.67825 0.0
O375 O 0.8924 0.35157 0.54408 0.0
O376 O 0.96663 0.38317 0.59165 0.0
N377 N 0.01195 0.21238 0.60141 0.0
C378 C 0.00247 0.17452 0.56468 0.0
C379 C 0.04671 0.16961 0.5446 0.0
C380 C 0.10006 0.20353 0.56262 0.0
C381 C 0.10843 0.2411 0.60153 0.0
C382 C 0.06246 0.2427 0.62138 0.0
H383 H 0.96157 0.14879 0.55037 0.0
O384 O 0.97112 0.3174 0.51519 0.0
O385 O 0.97659 0.28708 0.5915 0.0
O386 O 0.87035 0.22893 0.54886 0.0
O387 O 0.89953 0.17823 0.59132 0.0
C388 C 0.16071 0.27841 0.61999 0.0
C389 C 0.16605 0.31698 0.65713 0.0
H390 H 0.15997 0.38673 0.72702 0.0
H391 H 0.07359 0.38097 0.75936 0.0
H392 H 0.03985 0.14039 0.5147 0.0
H393 H 0.13429 0.20068 0.54605 0.0
H394 H 0.19719 0.27897 0.60462 0.0
H395 H 0.20666 0.34698 0.66921 0.0
Mn396 Mn 0.68748 0.61944 0.57973 0.0
Mn397 Mn 0.765 0.73996 0.63393 0.0
C398 C 0.68614 0.69368 0.5479 0.0
C399 C 0.60231 0.54473 0.56774 0.0
C400 C 0.81026 0.69034 0.55851 0.0
O401 O 0.70987 0.59867 0.64739 0.0
O402 O 0.76237 0.68233 0.67885 0.0
C403 C 0.68316 0.71914 0.7161 0.0
N404 N 0.71526 0.75077 0.67689 0.0
C405 C 0.66605 0.80015 0.67565 0.0
C406 C 0.63232 0.76783 0.71588 0.0
C407 C 0.64129 0.72757 0.73653 0.0
C408 C 0.70733 0.79007 0.6571 0.0
H409 H 0.6884 0.68667 0.73057 0.0
C410 C 0.74263 0.63139 0.68108 0.0
O411 O 0.64684 0.54484 0.55215 0.0
O412 O 0.60868 0.58352 0.59793 0.0
N413 N 0.7719 0.79944 0.59488 0.0
C414 C 0.80625 0.82489 0.55441 0.0
C415 C 0.80489 0.86837 0.53102 0.0
C416 C 0.76785 0.88476 0.5492 0.0
C417 C 0.73353 0.85834 0.59144 0.0
C418 C 0.73861 0.81696 0.61464 0.0
H419 H 0.83422 0.8119 0.54001 0.0
O420 O 0.6713 0.65183 0.51931 0.0
O421 O 0.70126 0.69063 0.59449 0.0
O422 O 0.76524 0.64655 0.55288 0.0
O423 O 0.81544 0.72924 0.5873 0.0
C424 C 0.69324 0.87016 0.61032 0.0
C425 C 0.65868 0.84023 0.65156 0.0
H426 H 0.59895 0.77312 0.73087 0.0
H427 H 0.61521 0.70234 0.76737 0.0
H428 H 0.83159 0.88853 0.4985 0.0
H429 H 0.76568 0.91722 0.53012 0.0
H430 H 0.68736 0.90105 0.5924 0.0
H431 H 0.62624 0.84812 0.66414 0.0
C432 C 0.18639 0.27943 0.06473 0.0
C433 C 0.16644 0.31134 0.04272 0.0
C434 C 0.22805 0.27353 0.04067 0.0
C435 C 0.2498 0.2976 0.99288 0.0
H436 H 0.17079 0.25991 0.10158 0.0
H437 H 0.24348 0.24999 0.0596 0.0
S438 S 0.21514 0.38781 0.92034 0.0
N439 N 0.17363 0.36919 0.97109 0.0
N440 N 0.25211 0.35745 0.92587 0.0
C441 C 0.23099 0.32996 0.97048 0.0
C442 C 0.18902 0.33676 0.99531 0.0
C443 C 0.71388 0.91369 0.05412 0.0
C444 C 0.68262 0.86325 0.03058 0.0
C445 C 0.71953 0.96005 0.03141 0.0
C446 C 0.69576 0.95798 0.98356 0.0
H447 H 0.73318 0.91744 0.09112 0.0
H448 H 0.74244 0.9979 0.05161 0.0
S449 S 0.6085 0.83644 0.90654 0.0
N450 N 0.62638 0.81392 0.95718 0.0
N451 N 0.63805 0.90216 0.91398 0.0
C452 C 0.66449 0.90822 0.9593 0.0
C453 C 0.6578 0.86054 0.9829 0.0
C454 C 0.13019 0.80182 0.0397 0.0
C455 C 0.17441 0.79875 0.01645 0.0
C456 C 0.0765 0.7706 0.02178 0.0
C457 C 0.06557 0.73731 0.9785 0.0
H458 H 0.13672 0.82707 0.07322 0.0
H459 H 0.04323 0.77219 0.04211 0.0
S460 S 0.16525 0.7121 0.90532 0.0
N461 N 0.20259 0.75726 0.94911 0.0
N462 N 0.10168 0.70005 0.91463 0.0
C463 C 0.10898 0.73372 0.95478 0.0
C464 C 0.16348 0.76433 0.97378 0.0
C465 C 0.68919 0.76313 0.48915 0.0
C466 C 0.66717 0.73113 0.53311 0.0
C467 C 0.66699 0.79424 0.47068 0.0
C468 C 0.62031 0.79238 0.49411 0.0
H469 H 0.72382 0.76409 0.46895 0.0
H470 H 0.68581 0.81893 0.43697 0.0
S471 S 0.54289 0.70801 0.60616 0.0
N472 N 0.59404 0.6954 0.59719 0.0
N473 N 0.55081 0.75235 0.5617 0.0
C474 C 0.59666 0.7586 0.53701 0.0
C475 C 0.6203 0.72811 0.55656 0.0
C476 C 0.20052 0.85691 0.52606 0.0
C477 C 0.17682 0.85904 0.47906 0.0
C478 C 0.24138 0.90398 0.54932 0.0
C479 C 0.25954 0.95418 0.52609 0.0
H480 H 0.18725 0.8189 0.54511 0.0
H481 H 0.25956 0.90106 0.58501 0.0
S482 S 0.2141 0.98081 0.40165 0.0
N483 N 0.17642 0.91567 0.40963 0.0
N484 N 0.25405 0.00315 0.45265 0.0
C485 C 0.23738 0.95657 0.47873 0.0
C486 C 0.19552 0.90928 0.45556 0.0
C487 C 0.09554 0.33511 0.54044 0.0
C488 C 0.04298 0.29764 0.52349 0.0
C489 C 0.1424 0.34075 0.51469 0.0
C490 C 0.13801 0.3096 0.47069 0.0
H491 H 0.10039 0.36087 0.57314 0.0
H492 H 0.18222 0.3699 0.5293 0.0
S493 S 0.00792 0.20924 0.40893 0.0
N494 N 0.98823 0.23177 0.45903 0.0
N495 N 0.07563 0.24142 0.41032 0.0
C496 C 0.08507 0.27256 0.45305 0.0
C497 C 0.03771 0.2672 0.47927 0.0
C498 C 0.77717 0.74072 0.98466 0.0
C499 C 0.74816 0.70851 0.02685 0.0
C500 C 0.82186 0.73802 0.96313 0.0
C501 C 0.83737 0.70133 0.98181 0.0
H502 H 0.76515 0.76813 0.96825 0.0
H503 H 0.84314 0.76363 0.93058 0.0
S504 S 0.76852 0.60325 0.0879 0.0
N505 N 0.73404 0.63622 0.08407 0.0
N506 N 0.81771 0.63016 0.04388 0.0
C507 C 0.80738 0.66795 0.02352 0.0
C508 C 0.76251 0.67147 0.04573 0.0
C509 C 0.26935 0.10462 0.02205 0.0
C510 C 0.31829 0.14341 0.99819 0.0
C511 C 0.26624 0.05938 0.04589 0.0
C512 C 0.31162 0.05107 0.04531 0.0
H513 H 0.23291 0.10875 0.02156 0.0
H514 H 0.22758 0.02965 0.06262 0.0
S515 S 0.44995 0.14172 0.99114 0.0
N516 N 0.41396 0.17192 0.97869 0.0
N517 N 0.4076 0.08603 0.02188 0.0
C518 C 0.3612 0.09023 0.02318 0.0
C519 C 0.36473 0.13676 1.00007 0.0
C520 C 0.95501 0.23095 1.0015 0.0
C521 C 0.94796 0.25425 0.04664 0.0
C522 C 0.91005 0.19037 0.97607 0.0
C523 C 0.85622 0.17297 0.99394 0.0
H524 H 0.99567 0.24512 0.98513 0.0
H525 H 0.91764 0.17409 0.94098 0.0
S526 S 0.81662 0.22317 0.11028 0.0
N527 N 0.88427 0.25872 0.10813 0.0
N528 N 0.7987 0.1817 0.0605 0.0
C529 C 0.84873 0.19577 0.0396 0.0
C530 C 0.89491 0.23687 0.0658 0.0
C531 C 0.27344 0.18554 0.5387 0.0
C532 C 0.31106 0.16953 0.52104 0.0
C533 C 0.26919 0.2267 0.5144 0.0
C534 C 0.3007 0.25195 0.47039 0.0
H535 H 0.24839 0.16761 0.57276 0.0
H536 H 0.24162 0.23956 0.53066 0.0
S537 S 0.40575 0.22647 0.4087 0.0
N538 N 0.38076 0.18284 0.4565 0.0
N539 N 0.37217 0.26051 0.41101 0.0
C540 C 0.33801 0.23638 0.45176 0.0
C541 C 0.34305 0.19481 0.47686 0.0
C542 C 0.79638 0.08853 0.55989 0.0
C543 C 0.82832 0.13565 0.53169 0.0
C544 C 0.75704 0.04195 0.53542 0.0
C545 C 0.74932 0.0405 0.48173 0.0
H546 H 0.80065 0.08816 0.60141 0.0
H547 H 0.73159 0.0071 0.5589 0.0
S548 S 0.82651 0.15206 0.39008 0.0
N549 N 0.85229 0.17761 0.44717 0.0
N550 N 0.77896 0.08926 0.4007 0.0
C551 C 0.78286 0.08661 0.45272 0.0
C552 C 0.82215 0.13452 0.47788 0.0
C553 C 0.95927 0.73547 0.5276 0.0
C554 C 0.9555 0.70231 0.48595 0.0
C555 C 0.91207 0.73274 0.54959 0.0
C556 C 0.85951 0.69515 0.53192 0.0
H557 H 0.999 0.76367 0.54319 0.0
H558 H 0.91687 0.75922 0.58162 0.0
S559 S 0.82888 0.59403 0.42811 0.0
N560 N 0.89651 0.62791 0.43066 0.0
N561 N 0.80709 0.62173 0.47182 0.0
C562 C 0.85555 0.66058 0.49101 0.0
C563 C 0.90377 0.66414 0.46829 0.0
C564 C 0.1994 0.41917 0.31049 0.0
C565 C 0.24567 0.41557 0.29388 0.0
C566 C 0.16124 0.41819 0.27492 0.0
C567 C 0.16895 0.41503 0.22159 0.0
H568 H 0.18907 0.41599 0.35126 0.0
H569 H 0.12298 0.41438 0.28939 0.0
S570 S 0.28675 0.41172 0.15823 0.0
N571 N 0.29944 0.41379 0.22062 0.0
N572 N 0.22904 0.41403 0.15378 0.0
C573 C 0.21806 0.4175 0.20449 0.0
C574 C 0.25619 0.41727 0.24067 0.0
C575 C 0.5502 0.73551 0.25125 0.0
C576 C 0.58601 0.76588 0.21114 0.0
C577 C 0.53778 0.76072 0.29244 0.0
C578 C 0.56109 0.81721 0.29525 0.0
H579 H 0.53446 0.69261 0.2525 0.0
H580 H 0.51239 0.73591 0.32386 0.0
S581 S 0.65164 0.91361 0.19567 0.0
N582 N 0.63986 0.85458 0.17389 0.0
N583 N 0.61705 0.9015 0.25056 0.0
C584 C 0.59388 0.84727 0.25332 0.0
C585 C 0.60618 0.82173 0.21159 0.0
C586 C 0.21663 0.75333 0.21888 0.0
C587 C 0.25125 0.80966 0.21744 0.0
C588 C 0.1784 0.72815 0.2596 0.0
C589 C 0.17384 0.75843 0.30044 0.0
H590 H 0.21665 0.72882 0.18682 0.0
H591 H 0.15022 0.68546 0.25747 0.0
S592 S 0.25928 0.9055 0.31876 0.0
N593 N 0.2816 0.89348 0.26378 0.0
N594 N 0.21066 0.84668 0.33945 0.0
C595 C 0.21078 0.81398 0.30114 0.0
C596 C 0.24922 0.83944 0.25999 0.0
C597 C 0.79192 0.60786 0.80895 0.0
C598 C 0.84281 0.61204 0.79498 0.0
C599 C 0.75618 0.60886 0.77144 0.0
C600 C 0.76954 0.61288 0.71856 0.0
H601 H 0.78197 0.60881 0.84937 0.0
H602 H 0.71986 0.61031 0.78409 0.0
S603 S 0.89628 0.6224 0.66157 0.0
N604 N 0.90349 0.61864 0.7244 0.0
N605 N 0.83589 0.61866 0.65412 0.0
C606 C 0.81851 0.6135 0.70403 0.0
C607 C 0.85525 0.61354 0.74215 0.0
C608 C 0.39994 0.2459 0.74929 0.0
C609 C 0.39831 0.22971 0.80076 0.0
C610 C 0.402 0.21481 0.70757 0.0
C611 C 0.40226 0.16623 0.71564 0.0
H612 H 0.39471 0.28019 0.74108 0.0
H613 H 0.39806 0.22627 0.66872 0.0
S614 S 0.402 0.108 0.84301 0.0
N615 N 0.40045 0.16362 0.85729 0.0
N616 N 0.40432 0.10561 0.77931 0.0
C617 C 0.40452 0.15173 0.7669 0.0
C618 C 0.40252 0.18334 0.80928 0.0
C619 C 0.81227 0.2202 0.8113 0.0
C620 C 0.76226 0.1732 0.8014 0.0
C621 C 0.84651 0.25221 0.77085 0.0
C622 C 0.83166 0.23901 0.71886 0.0
H623 H 0.82772 0.22926 0.8504 0.0
H624 H 0.8869 0.28479 0.7802 0.0
S625 S 0.70366 0.12221 0.67211 0.0
N626 N 0.69858 0.11685 0.73569 0.0
N627 N 0.76202 0.17747 0.65986 0.0
C628 C 0.77982 0.19462 0.7086 0.0
C629 C 0.74534 0.16161 0.74979 0.0
C630 C 0.0438 0.50635 0.99562 0.0
C631 C 0.02194 0.4813 0.04327 0.0
C632 C 0.01573 0.52477 0.96447 0.0
C633 C 0.96446 0.51908 0.97946 0.0
H634 H 0.08252 0.51094 0.98161 0.0
H635 H 0.03515 0.54471 0.92867 0.0
S636 S 0.88921 0.45665 0.10103 0.0
N637 N 0.94562 0.45194 0.10414 0.0
N638 N 0.89312 0.48653 0.04566 0.0
C639 C 0.94191 0.49383 0.02692 0.0
C640 C 0.97064 0.47524 0.05882 0.0
C641 C 0.48466 0.53888 0.99009 0.0
C642 C 0.51889 0.54968 0.03313 0.0
C643 C 0.46458 0.49042 0.9622 0.0
C644 C 0.47812 0.45055 0.97569 0.0
H645 H 0.47374 0.56835 0.97731 0.0
H646 H 0.43748 0.48393 0.9301 0.0
S647 S 0.56679 0.45877 0.08503 0.0
N648 N 0.56543 0.51572 0.08781 0.0
N649 N 0.52841 0.42578 0.03527 0.0
C650 C 0.51267 0.46102 0.01839 0.0
C651 C 0.53268 0.51005 0.04711 0.0
C652 C 0.4502 0.97014 1.00015 0.0
C653 C 0.45336 0.97011 0.05449 0.0
C654 C 0.49677 0.00123 0.96921 0.0
C655 C 0.54792 0.03567 0.99142 0.0
H656 H 0.41115 0.94667 0.98126 0.0
H657 H 0.49265 0.99841 0.92759 0.0
S658 S 0.57822 0.05045 0.13187 0.0
N659 N 0.51197 0.00695 0.129 0.0
N660 N 0.59913 0.06672 0.07149 0.0
C661 C 0.55144 0.03665 0.0458 0.0
C662 C 0.50428 0.00388 0.07712 0.0
C663 C 0.5021 0.00383 0.44402 0.0
C664 C 0.52288 0.97348 0.46757 0.0
C665 C 0.48517 0.03468 0.47366 0.0
C666 C 0.48877 0.0367 0.528 0.0
H667 H 0.49907 0.00385 0.40236 0.0
H668 H 0.46761 0.05589 0.4539 0.0
S669 S 0.5476 0.97101 0.60797 0.0
N670 N 0.55209 0.95268 0.54826 0.0
N671 N 0.51762 0.00824 0.60376 0.0
C672 C 0.51037 0.00738 0.55191 0.0
C673 C 0.5283 0.97659 0.52177 0.0
C674 C 0.01274 0.48843 0.55299 0.0
C675 C 0.96224 0.4466 0.53477 0.0
C676 C 0.04328 0.53625 0.52509 0.0
C677 C 0.02485 0.54457 0.47756 0.0
H678 H 0.02951 0.48398 0.58895 0.0
H679 H 0.08108 0.56734 0.54158 0.0
S680 S 0.89574 0.44779 0.41192 0.0
N681 N 0.89563 0.41698 0.46557 0.0
N682 N 0.95256 0.50634 0.41321 0.0
C683 C 0.97441 0.50308 0.45879 0.0
C684 C 0.9432 0.45446 0.48736 0.0
C685 C 0.45761 0.50268 0.52447 0.0
C686 C 0.45404 0.47807 0.47639 0.0
C687 C 0.50426 0.5205 0.55545 0.0
C688 C 0.54951 0.51453 0.53983 0.0
H689 H 0.42373 0.50745 0.53887 0.0
H690 H 0.50527 0.54032 0.59157 0.0
S691 S 0.56103 0.45271 0.4171 0.0
N692 N 0.50016 0.44866 0.4145 0.0
N693 N 0.58741 0.48192 0.47278 0.0
C694 C 0.54627 0.48948 0.49205 0.0
C695 C 0.49889 0.47163 0.46029 0.0
loop_
_geom_bond_atom_site_label_1
_geom_bond_atom_site_label_2
_geom_bond_distance
_geom_bond_site_symmetry_2
_ccdc_geom_bond_type
Mn0 O5 2.095 . S
Mn0 O15 2.162 . S
Mn0 O16 2.297 . S
Mn0 O24 2.385 1_554 S
Mn0 O25 2.209 . S
Mn0 O26 2.094 . S
Mn1 O6 2.121 . S
Mn1 N8 2.257 1_455 S
Mn1 N17 2.282 . S
Mn1 O25 2.215 . S
Mn1 O27 2.117 . S
C2 O24 1.234 1_654 S
C2 O25 1.283 1_655 S
C3 O15 1.281 . S
C3 O16 1.236 . S
C4 O26 1.240 . S
C4 O27 1.264 . S
O5 Mn0 2.095 . S
O5 C14 1.250 . S
O6 Mn1 2.121 . S
O6 C14 1.258 . S
C7 N8 1.326 . S
C7 C11 1.460 . S
C7 H13 0.929 1_655 S
N8 Mn1 2.257 1_655 S
N8 C7 1.326 . S
N8 C12 1.362 . S
C9 C10 1.258 . S
C9 C12 1.431 . S
C9 C29 1.449 . S
C10 C9 1.258 . S
C10 C11 1.477 . S
C10 H30 0.931 . S
C11 C7 1.460 . S
C11 C10 1.477 . S
C11 H31 0.930 . S
C12 N8 1.362 . S
C12 C9 1.431 . S
C12 C22 1.476 . S
H13 C7 0.929 1_455 S
C14 O5 1.250 . S
C14 O6 1.258 . S
O15 Mn0 2.162 . S
O15 C3 1.281 . S
O16 Mn0 2.297 . S
O16 C3 1.236 . S
N17 Mn1 2.282 . S
N17 C18 1.328 . S
N17 C22 1.318 1_455 S
C18 N17 1.328 . S
C18 C19 1.457 1_454 S
C18 H23 0.929 1_554 S
C19 C18 1.457 1_656 S
C19 C20 1.291 . S
C19 H32 0.931 1_655 S
C20 C19 1.291 . S
C20 C21 1.373 1_556 S
C20 H33 0.929 . S
C21 C20 1.373 1_554 S
C21 C22 1.396 . S
C21 C28 1.403 . S
C22 C12 1.476 . S
C22 N17 1.318 1_655 S
C22 C21 1.396 . S
H23 C18 0.929 1_556 S
O24 Mn0 2.385 1_556 S
O24 C2 1.234 1_456 S
O25 Mn0 2.209 . S
O25 Mn1 2.215 . S
O25 C2 1.283 1_455 S
O26 Mn0 2.094 . S
O26 C4 1.240 . S
O27 Mn1 2.117 . S
O27 C4 1.264 . S
C28 C21 1.403 . S
C28 C29 1.399 . S
C28 H34 0.929 . S
C29 C9 1.449 . S
C29 C28 1.399 . S
C29 H35 0.930 . S
H30 C10 0.931 . S
H31 C11 0.930 . S
H32 C19 0.931 1_455 S
H33 C20 0.929 . S
H34 C28 0.929 . S
H35 C29 0.930 . S
Mn36 O41 2.095 . S
Mn36 O51 2.162 . S
Mn36 O52 2.297 . S
Mn36 O60 2.385 1_554 S
Mn36 O61 2.209 . S
Mn36 O62 2.094 . S
Mn37 O42 2.121 . S
Mn37 N44 2.257 . S
Mn37 N53 2.282 . S
Mn37 O61 2.215 . S
Mn37 O63 2.117 . S
C38 O60 1.234 1_554 S
C38 O61 1.283 . S
C39 O51 1.281 . S
C39 O52 1.236 . S
C40 O62 1.240 . S
C40 O63 1.264 . S
O41 Mn36 2.095 . S
O41 C50 1.250 . S
O42 Mn37 2.121 . S
O42 C50 1.258 . S
C43 N44 1.326 . S
C43 C47 1.460 . S
C43 H49 0.929 . S
N44 Mn37 2.257 . S
N44 C43 1.326 . S
N44 C48 1.362 . S
C45 C46 1.258 . S
C45 C48 1.431 . S
C45 C65 1.449 . S
C46 C45 1.258 . S
C46 C47 1.477 . S
C46 H66 0.931 . S
C47 C43 1.460 . S
C47 C46 1.477 . S
C47 H67 0.930 . S
C48 N44 1.362 . S
C48 C45 1.431 . S
C48 C58 1.476 . S
H49 C43 0.929 . S
C50 O41 1.250 . S
C50 O42 1.258 . S
O51 Mn36 2.162 . S
O51 C39 1.281 . S
O52 Mn36 2.297 . S
O52 C39 1.236 . S
N53 Mn37 2.282 . S
N53 C54 1.328 1_554 S
N53 C58 1.318 . S
C54 N53 1.328 1_556 S
C54 C55 1.457 . S
C54 H59 0.929 . S
C55 C54 1.457 . S
C55 C56 1.291 . S
C55 H68 0.931 . S
C56 C55 1.291 . S
C56 C57 1.373 1_556 S
C56 H69 0.929 . S
C57 C56 1.373 1_554 S
C57 C58 1.396 . S
C57 C64 1.403 . S
C58 C48 1.476 . S
C58 N53 1.318 . S
C58 C57 1.396 . S
H59 C54 0.929 . S
O60 Mn36 2.385 1_556 S
O60 C38 1.234 1_556 S
O61 Mn36 2.209 . S
O61 Mn37 2.215 . S
O61 C38 1.283 . S
O62 Mn36 2.094 . S
O62 C40 1.240 . S
O63 Mn37 2.117 . S
O63 C40 1.264 . S
C64 C57 1.403 . S
C64 C65 1.399 . S
C64 H70 0.929 . S
C65 C45 1.449 . S
C65 C64 1.399 . S
C65 H71 0.930 . S
H66 C46 0.931 . S
H67 C47 0.930 . S
H68 C55 0.931 . S
H69 C56 0.929 . S
H70 C64 0.929 . S
H71 C65 0.930 . S
Mn72 O77 2.095 . S
Mn72 O87 2.162 1_565 S
Mn72 O88 2.297 . S
Mn72 O96 2.385 . S
Mn72 O97 2.209 . S
Mn72 O98 2.094 . S
Mn73 O78 2.121 . S
Mn73 N80 2.257 . S
Mn73 N89 2.282 . S
Mn73 O97 2.215 . S
Mn73 O99 2.117 . S
C74 O96 1.234 . S
C74 O97 1.283 . S
C75 O87 1.281 . S
C75 O88 1.236 1_545 S
C76 O98 1.240 . S
C76 O99 1.264 . S
O77 Mn72 2.095 . S
O77 C86 1.250 . S
O78 Mn73 2.121 . S
O78 C86 1.258 . S
C79 N80 1.326 1_556 S
C79 C83 1.460 . S
C79 H85 0.929 . S
N80 Mn73 2.257 . S
N80 C79 1.326 1_554 S
N80 C84 1.362 . S
C81 C82 1.258 . S
C81 C84 1.431 1_556 S
C81 C101 1.449 1_556 S
C82 C81 1.258 . S
C82 C83 1.477 . S
C82 H102 0.931 . S
C83 C79 1.460 . S
C83 C82 1.477 . S
C83 H103 0.930 . S
C84 N80 1.362 . S
C84 C81 1.431 1_554 S
C84 C94 1.476 . S
H85 C79 0.929 . S
C86 O77 1.250 . S
C86 O78 1.258 . S
O87 Mn72 2.162 1_545 S
O87 C75 1.281 . S
O88 Mn72 2.297 . S
O88 C75 1.236 1_565 S
N89 Mn73 2.282 . S
N89 C90 1.328 . S
N89 C94 1.318 . S
C90 N89 1.328 . S
C90 C91 1.457 . S
C90 H95 0.929 . S
C91 C90 1.457 . S
C91 C92 1.291 . S
C91 H104 0.931 . S
C92 C91 1.291 . S
C92 C93 1.373 . S
C92 H105 0.929 . S
C93 C92 1.373 . S
C93 C94 1.396 . S
C93 C100 1.403 . S
C94 C84 1.476 . S
C94 N89 1.318 . S
C94 C93 1.396 . S
H95 C90 0.929 . S
O96 Mn72 2.385 . S
O96 C74 1.234 . S
O97 Mn72 2.209 . S
O97 Mn73 2.215 . S
O97 C74 1.283 . S
O98 Mn72 2.094 . S
O98 C76 1.240 . S
O99 Mn73 2.117 . S
O99 C76 1.264 . S
C100 C93 1.403 . S
C100 C101 1.399 . S
C100 H106 0.929 . S
C101 C81 1.449 1_554 S
C101 C100 1.399 . S
C101 H107 0.930 1_554 S
H102 C82 0.931 . S
H103 C83 0.930 . S
H104 C91 0.931 . S
H105 C92 0.929 . S
H106 C100 0.929 . S
H107 C101 0.930 1_556 S
Mn108 O113 2.095 . S
Mn108 O123 2.162 1_565 S
Mn108 O124 2.297 . S
Mn108 O132 2.385 . S
Mn108 O133 2.209 . S
Mn108 O134 2.094 . S
Mn109 O114 2.121 . S
Mn109 N116 2.257 . S
Mn109 N125 2.282 . S
Mn109 O133 2.215 . S
Mn109 O135 2.117 . S
C110 O132 1.234 . S
C110 O133 1.283 . S
C111 O123 1.281 . S
C111 O124 1.236 1_545 S
C112 O134 1.240 . S
C112 O135 1.264 . S
O113 Mn108 2.095 . S
O113 C122 1.250 . S
O114 Mn109 2.121 . S
O114 C122 1.258 . S
C115 N116 1.326 . S
C115 C119 1.460 . S
C115 H121 0.929 . S
N116 Mn109 2.257 . S
N116 C115 1.326 . S
N116 C120 1.362 . S
C117 C118 1.258 . S
C117 C120 1.431 . S
C117 C137 1.449 . S
C118 C117 1.258 . S
C118 C119 1.477 . S
C118 H138 0.931 . S
C119 C115 1.460 . S
C119 C118 1.477 . S
C119 H139 0.930 . S
C120 N116 1.362 . S
C120 C117 1.431 . S
C120 C130 1.476 . S
H121 C115 0.929 . S
C122 O113 1.250 . S
C122 O114 1.258 . S
O123 Mn108 2.162 1_545 S
O123 C111 1.281 . S
O124 Mn108 2.297 . S
O124 C111 1.236 1_565 S
N125 Mn109 2.282 . S
N125 C126 1.328 . S
N125 C130 1.318 . S
C126 N125 1.328 . S
C126 C127 1.457 . S
C126 H131 0.929 . S
C127 C126 1.457 . S
C127 C128 1.291 . S
C127 H140 0.931 . S
C128 C127 1.291 . S
C128 C129 1.373 . S
C128 H141 0.929 . S
C129 C128 1.373 . S
C129 C130 1.396 . S
C129 C136 1.403 . S
C130 C120 1.476 . S
C130 N125 1.318 . S
C130 C129 1.396 . S
H131 C126 0.929 . S
O132 Mn108 2.385 . S
O132 C110 1.234 . S
O133 Mn108 2.209 . S
O133 Mn109 2.215 . S
O133 C110 1.283 . S
O134 Mn108 2.094 . S
O134 C112 1.240 . S
O135 Mn109 2.117 . S
O135 C112 1.264 . S
C136 C129 1.403 . S
C136 C137 1.399 . S
C136 H142 0.929 . S
C137 C117 1.449 . S
C137 C136 1.399 . S
C137 H143 0.930 . S
H138 C118 0.931 . S
H139 C119 0.930 . S
H140 C127 0.931 . S
H141 C128 0.929 . S
H142 C136 0.929 . S
H143 C137 0.930 . S
Mn144 O149 2.095 . S
Mn144 O159 2.162 . S
Mn144 O160 2.297 . S
Mn144 O168 2.385 . S
Mn144 O169 2.209 . S
Mn144 O170 2.094 . S
Mn145 O150 2.121 . S
Mn145 N152 2.257 1_455 S
Mn145 N161 2.282 . S
Mn145 O169 2.215 . S
Mn145 O171 2.117 . S
C146 O168 1.234 1_655 S
C146 O169 1.283 1_655 S
C147 O159 1.281 . S
C147 O160 1.236 . S
C148 O170 1.240 . S
C148 O171 1.264 . S
O149 Mn144 2.095 . S
O149 C158 1.250 . S
O150 Mn145 2.121 . S
O150 C158 1.258 . S
C151 N152 1.326 . S
C151 C155 1.460 . S
C151 H157 0.929 1_655 S
N152 Mn145 2.257 1_655 S
N152 C151 1.326 . S
N152 C156 1.362 . S
C153 C154 1.258 . S
C153 C156 1.431 . S
C153 C173 1.449 . S
C154 C153 1.258 . S
C154 C155 1.477 . S
C154 H174 0.931 . S
C155 C151 1.460 . S
C155 C154 1.477 . S
C155 H175 0.930 . S
C156 N152 1.362 . S
C156 C153 1.431 . S
C156 C166 1.476 . S
H157 C151 0.929 1_455 S
C158 O149 1.250 . S
C158 O150 1.258 . S
O159 Mn144 2.162 . S
O159 C147 1.281 . S
O160 Mn144 2.297 . S
O160 C147 1.236 . S
N161 Mn145 2.282 . S
N161 C162 1.328 . S
N161 C166 1.318 1_455 S
C162 N161 1.328 . S
C162 C163 1.457 . S
C162 H167 0.929 . S
C163 C162 1.457 . S
C163 C164 1.291 1_455 S
C163 H176 0.931 . S
C164 C163 1.291 1_655 S
C164 C165 1.373 . S
C164 H177 0.929 . S
C165 C164 1.373 . S
C165 C166 1.396 . S
C165 C172 1.403 . S
C166 C156 1.476 . S
C166 N161 1.318 1_655 S
C166 C165 1.396 . S
H167 C162 0.929 . S
O168 Mn144 2.385 . S
O168 C146 1.234 1_455 S
O169 Mn144 2.209 . S
O169 Mn145 2.215 . S
O169 C146 1.283 1_455 S
O170 Mn144 2.094 . S
O170 C148 1.240 . S
O171 Mn145 2.117 . S
O171 C148 1.264 . S
C172 C165 1.403 . S
C172 C173 1.399 . S
C172 H178 0.929 . S
C173 C153 1.449 . S
C173 C172 1.399 . S
C173 H179 0.930 . S
H174 C154 0.931 . S
H175 C155 0.930 . S
H176 C163 0.931 . S
H177 C164 0.929 . S
H178 C172 0.929 . S
H179 C173 0.930 . S
Mn180 O185 2.095 . S
Mn180 O195 2.162 . S
Mn180 O196 2.297 . S
Mn180 O204 2.385 . S
Mn180 O205 2.209 . S
Mn180 O206 2.094 . S
Mn181 O186 2.121 . S
Mn181 N188 2.257 . S
Mn181 N197 2.282 . S
Mn181 O205 2.215 . S
Mn181 O207 2.117 . S
C182 O204 1.234 . S
C182 O205 1.283 . S
C183 O195 1.281 . S
C183 O196 1.236 . S
C184 O206 1.240 . S
C184 O207 1.264 . S
O185 Mn180 2.095 . S
O185 C194 1.250 . S
O186 Mn181 2.121 . S
O186 C194 1.258 . S
C187 N188 1.326 . S
C187 C191 1.460 . S
C187 H193 0.929 . S
N188 Mn181 2.257 . S
N188 C187 1.326 . S
N188 C192 1.362 . S
C189 C190 1.258 . S
C189 C192 1.431 . S
C189 C209 1.449 . S
C190 C189 1.258 . S
C190 C191 1.477 . S
C190 H210 0.931 . S
C191 C187 1.460 . S
C191 C190 1.477 . S
C191 H211 0.930 . S
C192 N188 1.362 . S
C192 C189 1.431 . S
C192 C202 1.476 . S
H193 C187 0.929 . S
C194 O185 1.250 . S
C194 O186 1.258 . S
O195 Mn180 2.162 . S
O195 C183 1.281 . S
O196 Mn180 2.297 . S
O196 C183 1.236 . S
N197 Mn181 2.282 . S
N197 C198 1.328 . S
N197 C202 1.318 . S
C198 N197 1.328 . S
C198 C199 1.457 . S
C198 H203 0.929 . S
C199 C198 1.457 . S
C199 C200 1.291 . S
C199 H212 0.931 . S
C200 C199 1.291 . S
C200 C201 1.373 . S
C200 H213 0.929 . S
C201 C200 1.373 . S
C201 C202 1.396 . S
C201 C208 1.403 . S
C202 C192 1.476 . S
C202 N197 1.318 . S
C202 C201 1.396 . S
H203 C198 0.929 . S
O204 Mn180 2.385 . S
O204 C182 1.234 . S
O205 Mn180 2.209 . S
O205 Mn181 2.215 . S
O205 C182 1.283 . S
O206 Mn180 2.094 . S
O206 C184 1.240 . S
O207 Mn181 2.117 . S
O207 C184 1.264 . S
C208 C201 1.403 . S
C208 C209 1.399 . S
C208 H214 0.929 . S
C209 C189 1.449 . S
C209 C208 1.399 . S
C209 H215 0.930 . S
H210 C190 0.931 . S
H211 C191 0.930 . S
H212 C199 0.931 . S
H213 C200 0.929 . S
H214 C208 0.929 . S
H215 C209 0.930 . S
Mn216 O221 2.095 . S
Mn216 O231 2.162 . S
Mn216 O232 2.297 . S
Mn216 O240 2.385 . S
Mn216 O241 2.209 . S
Mn216 O242 2.094 . S
Mn217 O222 2.121 . S
Mn217 N224 2.257 1_655 S
Mn217 N233 2.282 . S
Mn217 O241 2.215 . S
Mn217 O243 2.117 . S
C218 O240 1.234 1_455 S
C218 O241 1.283 1_455 S
C219 O231 1.281 . S
C219 O232 1.236 . S
C220 O242 1.240 . S
C220 O243 1.264 . S
O221 Mn216 2.095 . S
O221 C230 1.250 . S
O222 Mn217 2.121 . S
O222 C230 1.258 . S
C223 N224 1.326 . S
C223 C227 1.460 . S
C223 H229 0.929 . S
N224 Mn217 2.257 1_455 S
N224 C223 1.326 . S
N224 C228 1.362 . S
C225 C226 1.258 . S
C225 C228 1.431 . S
C225 C245 1.449 . S
C226 C225 1.258 . S
C226 C227 1.477 . S
C226 H246 0.931 . S
C227 C223 1.460 . S
C227 C226 1.477 . S
C227 H247 0.930 . S
C228 N224 1.362 . S
C228 C225 1.431 . S
C228 C238 1.476 . S
H229 C223 0.929 . S
C230 O221 1.250 . S
C230 O222 1.258 . S
O231 Mn216 2.162 . S
O231 C219 1.281 . S
O232 Mn216 2.297 . S
O232 C219 1.236 . S
N233 Mn217 2.282 . S
N233 C234 1.328 . S
N233 C238 1.318 1_655 S
C234 N233 1.328 . S
C234 C235 1.457 1_656 S
C234 H239 0.929 1_556 S
C235 C234 1.457 1_454 S
C235 C236 1.291 . S
C235 H248 0.926 1_455 S
C236 C235 1.291 . S
C236 C237 1.373 1_554 S
C236 H249 0.929 . S
C237 C236 1.373 1_556 S
C237 C238 1.396 . S
C237 C244 1.403 . S
C238 C228 1.476 . S
C238 N233 1.318 1_455 S
C238 C237 1.396 . S
H239 C234 0.929 1_554 S
O240 Mn216 2.385 . S
O240 C218 1.234 1_655 S
O241 Mn216 2.209 . S
O241 Mn217 2.215 . S
O241 C218 1.283 1_655 S
O242 Mn216 2.094 . S
O242 C220 1.240 . S
O243 Mn217 2.117 . S
O243 C220 1.264 . S
C244 C237 1.403 . S
C244 C245 1.399 . S
C244 H250 0.929 . S
C245 C225 1.449 . S
C245 C244 1.399 . S
C245 H251 0.930 . S
H246 C226 0.931 . S
H247 C227 0.930 . S
H248 C235 0.926 1_655 S
H249 C236 0.929 . S
H250 C244 0.929 . S
H251 C245 0.930 . S
Mn252 O257 2.095 . S
Mn252 O267 2.162 . S
Mn252 O268 2.297 . S
Mn252 O276 2.385 . S
Mn252 O277 2.209 . S
Mn252 O278 2.094 . S
Mn253 O258 2.121 . S
Mn253 N260 2.257 . S
Mn253 N269 2.282 . S
Mn253 O277 2.215 . S
Mn253 O279 2.117 . S
C254 O276 1.234 . S
C254 O277 1.283 . S
C255 O267 1.281 . S
C255 O268 1.236 . S
C256 O278 1.240 . S
C256 O279 1.264 . S
O257 Mn252 2.095 . S
O257 C266 1.250 . S
O258 Mn253 2.121 . S
O258 C266 1.258 . S
C259 N260 1.326 . S
C259 C263 1.460 . S
C259 H265 0.929 . S
N260 Mn253 2.257 . S
N260 C259 1.326 . S
N260 C264 1.362 . S
C261 C262 1.258 . S
C261 C264 1.431 . S
C261 C281 1.449 . S
C262 C261 1.258 . S
C262 C263 1.477 . S
C262 H282 0.931 . S
C263 C259 1.460 . S
C263 C262 1.477 . S
C263 H283 0.930 . S
C264 N260 1.362 . S
C264 C261 1.431 . S
C264 C274 1.476 . S
H265 C259 0.929 . S
C266 O257 1.250 . S
C266 O258 1.258 . S
O267 Mn252 2.162 . S
O267 C255 1.281 . S
O268 Mn252 2.297 . S
O268 C255 1.236 . S
N269 Mn253 2.282 . S
N269 C270 1.328 . S
N269 C274 1.318 . S
C270 N269 1.328 . S
C270 C271 1.457 1_556 S
C270 H275 0.929 1_556 S
C271 C270 1.457 1_554 S
C271 C272 1.291 . S
C271 H284 0.931 . S
C272 C271 1.291 . S
C272 C273 1.373 1_554 S
C272 H285 0.929 . S
C273 C272 1.373 1_556 S
C273 C274 1.396 . S
C273 C280 1.403 . S
C274 C264 1.476 . S
C274 N269 1.318 . S
C274 C273 1.396 . S
H275 C270 0.929 1_554 S
O276 Mn252 2.385 . S
O276 C254 1.234 . S
O277 Mn252 2.209 . S
O277 Mn253 2.215 . S
O277 C254 1.283 . S
O278 Mn252 2.094 . S
O278 C256 1.240 . S
O279 Mn253 2.117 . S
O279 C256 1.264 . S
C280 C273 1.403 . S
C280 C281 1.399 . S
C280 H286 0.929 . S
C281 C261 1.449 . S
C281 C280 1.399 . S
C281 H287 0.930 . S
H282 C262 0.931 . S
H283 C263 0.930 . S
H284 C271 0.931 . S
H285 C272 0.929 . S
H286 C280 0.929 . S
H287 C281 0.930 . S
Mn288 O293 2.095 . S
Mn288 O303 2.162 . S
Mn288 O304 2.297 . S
Mn288 O312 2.385 1_556 S
Mn288 O313 2.209 . S
Mn288 O314 2.094 . S
Mn289 O294 2.121 . S
Mn289 N296 2.257 1_545 S
Mn289 N305 2.282 . S
Mn289 O313 2.215 . S
Mn289 O315 2.117 . S
C290 O312 1.234 1_566 S
C290 O313 1.283 1_565 S
C291 O303 1.281 . S
C291 O304 1.236 . S
C292 O314 1.240 . S
C292 O315 1.264 . S
O293 Mn288 2.095 . S
O293 C302 1.250 . S
O294 Mn289 2.121 . S
O294 C302 1.258 . S
C295 N296 1.326 . S
C295 C299 1.460 . S
C295 H301 0.929 1_565 S
N296 Mn289 2.257 1_565 S
N296 C295 1.326 . S
N296 C300 1.362 . S
C297 C298 1.258 . S
C297 C300 1.431 . S
C297 C317 1.449 . S
C298 C297 1.258 . S
C298 C299 1.477 . S
C298 H318 0.931 . S
C299 C295 1.460 . S
C299 C298 1.477 . S
C299 H319 0.930 . S
C300 N296 1.362 . S
C300 C297 1.431 . S
C300 C310 1.476 . S
H301 C295 0.929 1_545 S
C302 O293 1.250 . S
C302 O294 1.258 . S
O303 Mn288 2.162 . S
O303 C291 1.281 . S
O304 Mn288 2.297 . S
O304 C291 1.236 . S
N305 Mn289 2.282 . S
N305 C306 1.328 . S
N305 C310 1.318 1_545 S
C306 N305 1.328 . S
C306 C307 1.457 1_546 S
C306 H311 0.929 1_556 S
C307 C306 1.457 1_564 S
C307 C308 1.291 . S
C307 H320 0.931 1_565 S
C308 C307 1.291 . S
C308 C309 1.373 1_554 S
C308 H321 0.929 . S
C309 C308 1.373 1_556 S
C309 C310 1.396 . S
C309 C316 1.403 . S
C310 C300 1.476 . S
C310 N305 1.318 1_565 S
C310 C309 1.396 . S
H311 C306 0.929 1_554 S
O312 Mn288 2.385 1_554 S
O312 C290 1.234 1_544 S
O313 Mn288 2.209 . S
O313 Mn289 2.215 . S
O313 C290 1.283 1_545 S
O314 Mn288 2.094 . S
O314 C292 1.240 . S
O315 Mn289 2.117 . S
O315 C292 1.264 . S
C316 C309 1.403 . S
C316 C317 1.399 . S
C316 H322 0.929 . S
C317 C297 1.449 . S
C317 C316 1.399 . S
C317 H323 0.930 . S
H318 C298 0.931 . S
H319 C299 0.930 . S
H320 C307 0.931 1_545 S
H321 C308 0.929 . S
H322 C316 0.929 . S
H323 C317 0.930 . S
Mn324 O329 2.095 . S
Mn324 O339 2.162 . S
Mn324 O340 2.297 . S
Mn324 O348 2.385 . S
Mn324 O349 2.209 . S
Mn324 O350 2.094 . S
Mn325 O330 2.121 . S
Mn325 N332 2.257 1_545 S
Mn325 N341 2.282 . S
Mn325 O349 2.215 . S
Mn325 O351 2.117 . S
C326 O348 1.234 1_565 S
C326 O349 1.283 1_565 S
C327 O339 1.281 . S
C327 O340 1.236 . S
C328 O350 1.240 . S
C328 O351 1.264 . S
O329 Mn324 2.095 . S
O329 C338 1.250 . S
O330 Mn325 2.121 . S
O330 C338 1.258 . S
C331 N332 1.326 . S
C331 C335 1.460 . S
C331 H337 0.929 1_565 S
N332 Mn325 2.257 1_565 S
N332 C331 1.326 . S
N332 C336 1.362 . S
C333 C334 1.258 . S
C333 C336 1.431 . S
C333 C353 1.449 . S
C334 C333 1.258 . S
C334 C335 1.477 . S
C334 H354 0.931 . S
C335 C331 1.460 . S
C335 C334 1.477 . S
C335 H355 0.930 . S
C336 N332 1.362 . S
C336 C333 1.431 . S
C336 C346 1.476 . S
H337 C331 0.929 1_545 S
C338 O329 1.250 . S
C338 O330 1.258 . S
O339 Mn324 2.162 . S
O339 C327 1.281 . S
O340 Mn324 2.297 . S
O340 C327 1.236 . S
N341 Mn325 2.282 . S
N341 C342 1.328 . S
N341 C346 1.318 1_545 S
C342 N341 1.328 . S
C342 C343 1.457 1_545 S
C342 H347 0.929 . S
C343 C342 1.457 1_565 S
C343 C344 1.291 . S
C343 H356 0.931 1_565 S
C344 C343 1.291 . S
C344 C345 1.373 . S
C344 H357 0.929 . S
C345 C344 1.373 . S
C345 C346 1.396 . S
C345 C352 1.403 . S
C346 C336 1.476 . S
C346 N341 1.318 1_565 S
C346 C345 1.396 . S
H347 C342 0.929 . S
O348 Mn324 2.385 . S
O348 C326 1.234 1_545 S
O349 Mn324 2.209 . S
O349 Mn325 2.215 . S
O349 C326 1.283 1_545 S
O350 Mn324 2.094 . S
O350 C328 1.240 . S
O351 Mn325 2.117 . S
O351 C328 1.264 . S
C352 C345 1.403 . S
C352 C353 1.399 . S
C352 H358 0.929 . S
C353 C333 1.449 . S
C353 C352 1.399 . S
C353 H359 0.930 . S
H354 C334 0.931 . S
H355 C335 0.930 . S
H356 C343 0.931 1_545 S
H357 C344 0.929 . S
H358 C352 0.929 . S
H359 C353 0.930 . S
Mn360 O365 2.095 . S
Mn360 O375 2.162 . S
Mn360 O376 2.297 . S
Mn360 O384 2.385 . S
Mn360 O385 2.209 . S
Mn360 O386 2.094 . S
Mn361 O366 2.121 . S
Mn361 N368 2.257 1_655 S
Mn361 N377 2.282 . S
Mn361 O385 2.215 . S
Mn361 O387 2.117 . S
C362 O384 1.234 1_455 S
C362 O385 1.283 1_455 S
C363 O375 1.281 . S
C363 O376 1.236 . S
C364 O386 1.240 . S
C364 O387 1.264 . S
O365 Mn360 2.095 . S
O365 C374 1.250 . S
O366 Mn361 2.121 . S
O366 C374 1.258 . S
C367 N368 1.326 . S
C367 C371 1.460 . S
C367 H373 0.929 1_455 S
N368 Mn361 2.257 1_455 S
N368 C367 1.326 . S
N368 C372 1.362 . S
C369 C370 1.258 . S
C369 C372 1.431 . S
C369 C389 1.449 . S
C370 C369 1.258 . S
C370 C371 1.477 . S
C370 H390 0.931 . S
C371 C367 1.460 . S
C371 C370 1.477 . S
C371 H391 0.930 . S
C372 N368 1.362 . S
C372 C369 1.431 . S
C372 C382 1.476 . S
H373 C367 0.929 1_655 S
C374 O365 1.250 . S
C374 O366 1.258 . S
O375 Mn360 2.162 . S
O375 C363 1.281 . S
O376 Mn360 2.297 . S
O376 C363 1.236 . S
N377 Mn361 2.282 . S
N377 C378 1.328 . S
N377 C382 1.318 1_655 S
C378 N377 1.328 . S
C378 C379 1.457 1_655 S
C378 H383 0.929 . S
C379 C378 1.457 1_455 S
C379 C380 1.291 . S
C379 H392 0.931 1_455 S
C380 C379 1.291 . S
C380 C381 1.373 . S
C380 H393 0.929 . S
C381 C380 1.373 . S
C381 C382 1.396 . S
C381 C388 1.403 . S
C382 C372 1.476 . S
C382 N377 1.318 1_455 S
C382 C381 1.396 . S
H383 C378 0.929 . S
O384 Mn360 2.385 . S
O384 C362 1.234 1_655 S
O385 Mn360 2.209 . S
O385 Mn361 2.215 . S
O385 C362 1.283 1_655 S
O386 Mn360 2.094 . S
O386 C364 1.240 . S
O387 Mn361 2.117 . S
O387 C364 1.264 . S
C388 C381 1.403 . S
C388 C389 1.399 . S
C388 H394 0.929 . S
C389 C369 1.449 . S
C389 C388 1.399 . S
C389 H395 0.930 . S
H390 C370 0.931 . S
H391 C371 0.930 . S
H392 C379 0.931 1_655 S
H393 C380 0.929 . S
H394 C388 0.929 . S
H395 C389 0.930 . S
Mn396 O401 2.095 . S
Mn396 O411 2.162 . S
Mn396 O412 2.297 . S
Mn396 O420 2.385 . S
Mn396 O421 2.209 . S
Mn396 O422 2.094 . S
Mn397 O402 2.121 . S
Mn397 N404 2.257 . S
Mn397 N413 2.282 . S
Mn397 O421 2.215 . S
Mn397 O423 2.117 . S
C398 O420 1.234 . S
C398 O421 1.283 . S
C399 O411 1.281 . S
C399 O412 1.236 . S
C400 O422 1.240 . S
C400 O423 1.264 . S
O401 Mn396 2.095 . S
O401 C410 1.250 . S
O402 Mn397 2.121 . S
O402 C410 1.258 . S
C403 N404 1.326 . S
C403 C407 1.460 . S
C403 H409 0.929 . S
N404 Mn397 2.257 . S
N404 C403 1.326 . S
N404 C408 1.362 . S
C405 C406 1.258 . S
C405 C408 1.431 . S
C405 C425 1.449 . S
C406 C405 1.258 . S
C406 C407 1.477 . S
C406 H426 0.931 . S
C407 C403 1.460 . S
C407 C406 1.477 . S
C407 H427 0.930 . S
C408 N404 1.362 . S
C408 C405 1.431 . S
C408 C418 1.476 . S
H409 C403 0.929 . S
C410 O401 1.250 . S
C410 O402 1.258 . S
O411 Mn396 2.162 . S
O411 C399 1.281 . S
O412 Mn396 2.297 . S
O412 C399 1.236 . S
N413 Mn397 2.282 . S
N413 C414 1.328 . S
N413 C418 1.318 . S
C414 N413 1.328 . S
C414 C415 1.457 . S
C414 H419 0.929 . S
C415 C414 1.457 . S
C415 C416 1.291 . S
C415 H428 0.931 . S
C416 C415 1.291 . S
C416 C417 1.373 . S
C416 H429 0.929 . S
C417 C416 1.373 . S
C417 C418 1.396 . S
C417 C424 1.403 . S
C418 C408 1.476 . S
C418 N413 1.318 . S
C418 C417 1.396 . S
H419 C414 0.929 . S
O420 Mn396 2.385 . S
O420 C398 1.234 . S
O421 Mn396 2.209 . S
O421 Mn397 2.215 . S
O421 C398 1.283 . S
O422 Mn396 2.094 . S
O422 C400 1.240 . S
O423 Mn397 2.117 . S
O423 C400 1.264 . S
C424 C417 1.403 . S
C424 C425 1.399 . S
C424 H430 0.929 . S
C425 C405 1.449 . S
C425 C424 1.399 . S
C425 H431 0.930 . S
H426 C406 0.931 . S
H427 C407 0.930 . S
H428 C415 0.931 . S
H429 C416 0.929 . S
H430 C424 0.929 . S
H431 C425 0.930 . S
C432 C433 1.369 . S
C432 C434 1.419 1_554 S
C432 H436 0.930 . S
C433 C432 1.369 . S
C433 C442 1.429 1_554 S
C434 C432 1.419 1_556 S
C434 C435 1.363 . S
C434 H437 0.929 . S
C435 C434 1.363 . S
C435 C441 1.428 . S
H436 C432 0.930 . S
H437 C434 0.929 . S
S438 N439 1.613 . S
S438 N440 1.610 . S
N439 S438 1.613 . S
N439 C442 1.350 . S
N440 S438 1.610 . S
N440 C441 1.351 . S
C441 C435 1.428 . S
C441 N440 1.351 . S
C441 C442 1.434 . S
C442 C433 1.429 1_556 S
C442 N439 1.350 . S
C442 C441 1.434 . S
C443 C444 1.369 . S
C443 C445 1.419 . S
C443 H447 0.930 . S
C444 C443 1.369 . S
C444 C453 1.429 . S
C445 C443 1.419 . S
C445 C446 1.363 . S
C445 H448 0.929 . S
C446 C445 1.363 . S
C446 C452 1.428 . S
H447 C443 0.930 . S
H448 C445 0.929 . S
S449 N450 1.614 . S
S449 N451 1.610 . S
N450 S449 1.614 . S
N450 C453 1.351 . S
N451 S449 1.610 . S
N451 C452 1.351 . S
C452 C446 1.428 . S
C452 N451 1.351 . S
C452 C453 1.434 . S
C453 C444 1.429 . S
C453 N450 1.351 . S
C453 C452 1.434 . S
C454 C455 1.369 . S
C454 C456 1.419 . S
C454 H458 0.930 . S
C455 C454 1.369 . S
C455 C464 1.429 1_554 S
C456 C454 1.419 . S
C456 C457 1.363 1_554 S
C456 H459 0.929 . S
C457 C456 1.363 1_556 S
C457 C463 1.428 . S
H458 C454 0.930 . S
H459 C456 0.929 . S
S460 N461 1.613 . S
S460 N462 1.610 . S
N461 S460 1.613 . S
N461 C464 1.350 . S
N462 S460 1.610 . S
N462 C463 1.351 . S
C463 C457 1.428 . S
C463 N462 1.351 . S
C463 C464 1.434 . S
C464 C455 1.429 1_556 S
C464 N461 1.350 . S
C464 C463 1.434 . S
C465 C466 1.369 . S
C465 C467 1.419 . S
C465 H469 0.930 . S
C466 C465 1.369 . S
C466 C475 1.429 . S
C467 C465 1.419 . S
C467 C468 1.363 . S
C467 H470 0.929 . S
C468 C467 1.363 . S
C468 C474 1.428 . S
H469 C465 0.930 . S
H470 C467 0.929 . S
S471 N472 1.613 . S
S471 N473 1.610 . S
N472 S471 1.613 . S
N472 C475 1.350 . S
N473 S471 1.610 . S
N473 C474 1.351 . S
C474 C468 1.428 . S
C474 N473 1.351 . S
C474 C475 1.434 . S
C475 C466 1.429 . S
C475 N472 1.350 . S
C475 C474 1.434 . S
C476 C477 1.369 . S
C476 C478 1.419 . S
C476 H480 0.930 . S
C477 C476 1.369 . S
C477 C486 1.429 . S
C478 C476 1.419 . S
C478 C479 1.363 . S
C478 H481 0.929 . S
C479 C478 1.363 . S
C479 C485 1.428 . S
H480 C476 0.930 . S
H481 C478 0.929 . S
S482 N483 1.613 . S
S482 N484 1.610 . S
N483 S482 1.613 . S
N483 C486 1.350 . S
N484 S482 1.610 . S
N484 C485 1.351 . S
C485 C479 1.428 . S
C485 N484 1.351 . S
C485 C486 1.434 . S
C486 C477 1.429 . S
C486 N483 1.350 . S
C486 C485 1.434 . S
C487 C488 1.369 . S
C487 C489 1.419 . S
C487 H491 0.930 . S
C488 C487 1.369 . S
C488 C497 1.429 . S
C489 C487 1.419 . S
C489 C490 1.363 . S
C489 H492 0.929 . S
C490 C489 1.363 . S
C490 C496 1.428 . S
H491 C487 0.930 . S
H492 C489 0.929 . S
S493 N494 1.613 . S
S493 N495 1.610 . S
N494 S493 1.613 . S
N494 C497 1.350 . S
N495 S493 1.610 . S
N495 C496 1.351 . S
C496 C490 1.428 . S
C496 N495 1.351 . S
C496 C497 1.434 . S
C497 C488 1.429 . S
C497 N494 1.350 . S
C497 C496 1.434 . S
C498 C499 1.369 1_556 S
C498 C500 1.419 . S
C498 H502 0.930 . S
C499 C498 1.369 1_554 S
C499 C508 1.429 . S
C500 C498 1.419 . S
C500 C501 1.363 . S
C500 H503 0.929 . S
C501 C500 1.363 . S
C501 C507 1.428 1_556 S
H502 C498 0.930 . S
H503 C500 0.929 . S
S504 N505 1.613 . S
S504 N506 1.610 . S
N505 S504 1.613 . S
N505 C508 1.350 . S
N506 S504 1.610 . S
N506 C507 1.351 . S
C507 C501 1.428 1_554 S
C507 N506 1.351 . S
C507 C508 1.434 . S
C508 C499 1.429 . S
C508 N505 1.350 . S
C508 C507 1.434 . S
C509 C510 1.369 1_554 S
C509 C511 1.419 . S
C509 H513 0.930 . S
C510 C509 1.369 1_556 S
C510 C519 1.429 . S
C511 C509 1.419 . S
C511 C512 1.363 . S
C511 H514 0.929 . S
C512 C511 1.363 . S
C512 C518 1.431 . S
H513 C509 0.930 . S
H514 C511 0.929 . S
S515 N516 1.613 . S
S515 N517 1.610 . S
N516 S515 1.613 . S
N516 C519 1.350 . S
N517 S515 1.610 . S
N517 C518 1.350 1_556 S
C518 C512 1.431 . S
C518 N517 1.350 1_554 S
C518 C519 1.432 1_554 S
C519 C510 1.429 . S
C519 N516 1.350 . S
C519 C518 1.432 1_556 S
C520 C521 1.369 . S
C520 C522 1.419 1_554 S
C520 H524 0.930 1_554 S
C521 C520 1.369 . S
C521 C530 1.429 . S
C522 C520 1.419 1_556 S
C522 C523 1.362 1_556 S
C522 H525 0.929 . S
C523 C522 1.362 1_554 S
C523 C529 1.432 . S
H524 C520 0.930 1_556 S
H525 C522 0.929 . S
S526 N527 1.613 . S
S526 N528 1.610 . S
N527 S526 1.613 . S
N527 C530 1.350 . S
N528 S526 1.610 . S
N528 C529 1.351 . S
C529 C523 1.432 . S
C529 N528 1.351 . S
C529 C530 1.434 . S
C530 C521 1.429 . S
C530 N527 1.350 . S
C530 C529 1.434 . S
C531 C532 1.369 . S
C531 C533 1.419 . S
C531 H535 0.930 . S
C532 C531 1.369 . S
C532 C541 1.429 . S
C533 C531 1.419 . S
C533 C534 1.363 . S
C533 H536 0.929 . S
C534 C533 1.363 . S
C534 C540 1.428 . S
H535 C531 0.930 . S
H536 C533 0.929 . S
S537 N538 1.613 . S
S537 N539 1.610 . S
N538 S537 1.613 . S
N538 C541 1.350 . S
N539 S537 1.610 . S
N539 C540 1.351 . S
C540 C534 1.428 . S
C540 N539 1.351 . S
C540 C541 1.434 . S
C541 C532 1.429 . S
C541 N538 1.350 . S
C541 C540 1.434 . S
C542 C543 1.369 . S
C542 C544 1.419 . S
C542 H546 0.930 . S
C543 C542 1.369 . S
C543 C552 1.429 . S
C544 C542 1.419 . S
C544 C545 1.363 . S
C544 H547 0.929 . S
C545 C544 1.363 . S
C545 C551 1.428 . S
H546 C542 0.930 . S
H547 C544 0.929 . S
S548 N549 1.613 . S
S548 N550 1.610 . S
N549 S548 1.613 . S
N549 C552 1.350 . S
N550 S548 1.610 . S
N550 C551 1.351 . S
C551 C545 1.428 . S
C551 N550 1.351 . S
C551 C552 1.434 . S
C552 C543 1.429 . S
C552 N549 1.350 . S
C552 C551 1.434 . S
C553 C554 1.369 . S
C553 C555 1.419 . S
C553 H557 0.930 . S
C554 C553 1.369 . S
C554 C563 1.429 . S
C555 C553 1.419 . S
C555 C556 1.363 . S
C555 H558 0.929 . S
C556 C555 1.363 . S
C556 C562 1.428 . S
H557 C553 0.930 . S
H558 C555 0.929 . S
S559 N560 1.613 . S
S559 N561 1.610 . S
N560 S559 1.613 . S
N560 C563 1.350 . S
N561 S559 1.610 . S
N561 C562 1.351 . S
C562 C556 1.428 . S
C562 N561 1.351 . S
C562 C563 1.434 . S
C563 C554 1.429 . S
C563 N560 1.350 . S
C563 C562 1.434 . S
C564 C565 1.369 . S
C564 C566 1.419 . S
C564 H568 0.930 . S
C565 C564 1.369 . S
C565 C574 1.429 . S
C566 C564 1.419 . S
C566 C567 1.363 . S
C566 H569 0.929 . S
C567 C566 1.363 . S
C567 C573 1.428 . S
H568 C564 0.930 . S
H569 C566 0.929 . S
S570 N571 1.613 . S
S570 N572 1.610 . S
N571 S570 1.613 . S
N571 C574 1.350 . S
N572 S570 1.610 . S
N572 C573 1.351 . S
C573 C567 1.428 . S
C573 N572 1.351 . S
C573 C574 1.434 . S
C574 C565 1.429 . S
C574 N571 1.350 . S
C574 C573 1.434 . S
C575 C576 1.369 . S
C575 C577 1.419 . S
C575 H579 0.930 . S
C576 C575 1.369 . S
C576 C585 1.429 . S
C577 C575 1.419 . S
C577 C578 1.363 . S
C577 H580 0.929 . S
C578 C577 1.363 . S
C578 C584 1.428 . S
H579 C575 0.930 . S
H580 C577 0.929 . S
S581 N582 1.613 . S
S581 N583 1.610 . S
N582 S581 1.613 . S
N582 C585 1.350 . S
N583 S581 1.610 . S
N583 C584 1.351 . S
C584 C578 1.428 . S
C584 N583 1.351 . S
C584 C585 1.434 . S
C585 C576 1.429 . S
C585 N582 1.350 . S
C585 C584 1.434 . S
C586 C587 1.369 . S
C586 C588 1.419 . S
C586 H590 0.930 . S
C587 C586 1.369 . S
C587 C596 1.429 . S
C588 C586 1.419 . S
C588 C589 1.363 . S
C588 H591 0.929 . S
C589 C588 1.363 . S
C589 C595 1.428 . S
H590 C586 0.930 . S
H591 C588 0.929 . S
S592 N593 1.613 . S
S592 N594 1.610 . S
N593 S592 1.613 . S
N593 C596 1.350 . S
N594 S592 1.610 . S
N594 C595 1.351 . S
C595 C589 1.428 . S
C595 N594 1.351 . S
C595 C596 1.434 . S
C596 C587 1.429 . S
C596 N593 1.350 . S
C596 C595 1.434 . S
C597 C598 1.369 . S
C597 C599 1.419 . S
C597 H601 0.930 . S
C598 C597 1.369 . S
C598 C607 1.429 . S
C599 C597 1.419 . S
C599 C600 1.363 . S
C599 H602 0.929 . S
C600 C599 1.363 . S
C600 C606 1.428 . S
H601 C597 0.930 . S
H602 C599 0.929 . S
S603 N604 1.613 . S
S603 N605 1.610 . S
N604 S603 1.613 . S
N604 C607 1.350 . S
N605 S603 1.610 . S
N605 C606 1.351 . S
C606 C600 1.428 . S
C606 N605 1.351 . S
C606 C607 1.434 . S
C607 C598 1.429 . S
C607 N604 1.350 . S
C607 C606 1.434 . S
C608 C609 1.369 . S
C608 C610 1.419 . S
C608 H612 0.930 . S
C609 C608 1.369 . S
C609 C618 1.429 . S
C610 C608 1.419 . S
C610 C611 1.363 . S
C610 H613 0.929 . S
C611 C610 1.363 . S
C611 C617 1.428 . S
H612 C608 0.930 . S
H613 C610 0.929 . S
S614 N615 1.613 . S
S614 N616 1.610 . S
N615 S614 1.613 . S
N615 C618 1.350 . S
N616 S614 1.610 . S
N616 C617 1.351 . S
C617 C611 1.428 . S
C617 N616 1.351 . S
C617 C618 1.434 . S
C618 C609 1.429 . S
C618 N615 1.350 . S
C618 C617 1.434 . S
C619 C620 1.369 . S
C619 C621 1.419 . S
C619 H623 0.930 . S
C620 C619 1.369 . S
C620 C629 1.429 . S
C621 C619 1.419 . S
C621 C622 1.363 . S
C621 H624 0.929 . S
C622 C621 1.363 . S
C622 C628 1.428 . S
H623 C619 0.930 . S
H624 C621 0.929 . S
S625 N626 1.613 . S
S625 N627 1.610 . S
N626 S625 1.613 . S
N626 C629 1.350 . S
N627 S625 1.610 . S
N627 C628 1.351 . S
C628 C622 1.428 . S
C628 N627 1.351 . S
C628 C629 1.434 . S
C629 C620 1.429 . S
C629 N626 1.350 . S
C629 C628 1.434 . S
C630 C631 1.369 . S
C630 C632 1.419 1_554 S
C630 H634 0.930 . S
C631 C630 1.369 . S
C631 C640 1.429 1_455 S
C632 C630 1.419 1_556 S
C632 C633 1.363 1_455 S
C632 H635 0.929 . S
C633 C632 1.363 1_655 S
C633 C639 1.428 . S
H634 C630 0.930 . S
H635 C632 0.929 . S
S636 N637 1.613 1_556 S
S636 N638 1.610 . S
N637 S636 1.613 1_554 S
N637 C640 1.350 . S
N638 S636 1.610 . S
N638 C639 1.351 . S
C639 C633 1.428 . S
C639 N638 1.351 . S
C639 C640 1.434 1_556 S
C640 C631 1.429 1_655 S
C640 N637 1.350 . S
C640 C639 1.434 1_554 S
C641 C642 1.369 1_556 S
C641 C643 1.419 . S
C641 H645 0.930 . S
C642 C641 1.369 1_554 S
C642 C651 1.429 . S
C643 C641 1.419 . S
C643 C644 1.363 . S
C643 H646 0.929 . S
C644 C643 1.363 . S
C644 C650 1.428 . S
H645 C641 0.930 . S
H646 C643 0.929 . S
S647 N648 1.613 . S
S647 N649 1.610 . S
N648 S647 1.613 . S
N648 C651 1.350 . S
N649 S647 1.610 . S
N649 C650 1.351 1_554 S
C650 C644 1.428 . S
C650 N649 1.351 1_556 S
C650 C651 1.434 1_556 S
C651 C642 1.429 . S
C651 N648 1.350 . S
C651 C650 1.434 1_554 S
C652 C653 1.369 1_556 S
C652 C654 1.419 . S
C652 H656 0.930 . S
C653 C652 1.369 1_554 S
C653 C662 1.429 1_565 S
C654 C652 1.419 . S
C654 C655 1.363 1_565 S
C654 H657 0.929 . S
C655 C654 1.363 1_545 S
C655 C661 1.428 1_556 S
H656 C652 0.930 . S
H657 C654 0.929 . S
S658 N659 1.613 . S
S658 N660 1.610 . S
N659 S658 1.613 . S
N659 C662 1.350 . S
N660 S658 1.610 . S
N660 C661 1.351 . S
C661 C655 1.428 1_554 S
C661 N660 1.351 . S
C661 C662 1.434 . S
C662 C653 1.429 1_545 S
C662 N659 1.350 . S
C662 C661 1.434 . S
C663 C664 1.369 1_545 S
C663 C665 1.419 . S
C663 H667 0.930 . S
C664 C663 1.369 1_565 S
C664 C673 1.429 . S
C665 C663 1.419 . S
C665 C666 1.363 . S
C665 H668 0.929 . S
C666 C665 1.363 . S
C666 C672 1.428 1_545 S
H667 C663 0.930 . S
H668 C665 0.929 . S
S669 N670 1.613 . S
S669 N671 1.610 . S
N670 S669 1.613 . S
N670 C673 1.350 . S
N671 S669 1.610 . S
N671 C672 1.351 . S
C672 C666 1.428 1_565 S
C672 N671 1.351 . S
C672 C673 1.434 . S
C673 C664 1.429 . S
C673 N670 1.350 . S
C673 C672 1.434 . S
C674 C675 1.369 1_455 S
C674 C676 1.419 . S
C674 H678 0.930 . S
C675 C674 1.369 1_655 S
C675 C684 1.429 . S
C676 C674 1.419 . S
C676 C677 1.363 . S
C676 H679 0.929 . S
C677 C676 1.363 . S
C677 C683 1.428 1_455 S
H678 C674 0.930 . S
H679 C676 0.929 . S
S680 N681 1.613 . S
S680 N682 1.610 . S
N681 S680 1.613 . S
N681 C684 1.350 . S
N682 S680 1.610 . S
N682 C683 1.351 . S
C683 C677 1.428 1_655 S
C683 N682 1.351 . S
C683 C684 1.434 . S
C684 C675 1.429 . S
C684 N681 1.350 . S
C684 C683 1.434 . S
C685 C686 1.369 . S
C685 C687 1.419 . S
C685 H689 0.930 . S
C686 C685 1.369 . S
C686 C695 1.429 . S
C687 C685 1.419 . S
C687 C688 1.363 . S
C687 H690 0.929 . S
C688 C687 1.363 . S
C688 C694 1.428 . S
H689 C685 0.930 . S
H690 C687 0.929 . S
S691 N692 1.613 . S
S691 N693 1.610 . S
N692 S691 1.613 . S
N692 C695 1.350 . S
N693 S691 1.610 . S
N693 C694 1.351 . S
C694 C688 1.428 . S
C694 N693 1.351 . S
C694 C695 1.434 . S
C695 C686 1.429 . S
C695 N692 1.350 . S
C695 C694 1.434 . S
C433 C4 0.901 . S
C435 C254 0.903 . S
C444 C40 0.887 1_556 S
C446 C290 0.900 . S
C455 C86 0.949 . S
C457 C218 0.951 . S
C466 C398 0.955 . S
C468 C122 0.950 . S
C477 C148 0.898 . S
C479 C326 0.895 . S
C488 C362 0.896 . S
C490 C184 0.906 . S
C499 C38 0.870 . S
C501 C220 0.864 . S
C510 C256 0.858 . S
C512 C75 0.863 . S
C521 C2 0.950 . S
C523 C292 0.936 1_554 S
C532 C328 0.947 . S
C534 C182 0.946 . S
C543 C364 0.859 . S
C545 C111 0.863 . S
C554 C146 0.871 . S
C556 C400 0.863 . S
C565 C194 1.520 . S
C567 C14 1.513 . S
C576 C50 1.471 . S
C578 C112 1.601 . S
C587 C76 1.602 . S
C589 C158 1.473 . S
C598 C230 1.505 . S
C600 C410 1.508 . S
C609 C266 1.500 . S
C611 C338 1.506 . S
C620 C302 1.513 . S
C622 C374 1.504 . S
C631 C3 1.674 . S
C633 C219 1.681 . S
C642 C39 1.688 . S
C644 C255 1.676 . S
C653 C74 1.683 . S
C655 C291 1.728 . S
C664 C110 1.692 . S
C666 C327 1.725 . S
C675 C363 1.676 . S
C677 C147 1.686 . S
C686 C183 1.675 . S
C688 C399 1.680 . S
