# Generated by pormake.
# Topology sqp, (5)-cn, num edge types: 1
# Building blocks:
#     Node 0, Type 0, BuildingBlock: XOMCOT_clean_sbu_1, # of connection points: 5
#     Node 1, Type 0, BuildingBlock: XOMCOT_clean_sbu_1, # of connection points: 5
#     Node 2, Type 0, BuildingBlock: XOMCOT_clean_sbu_1, # of connection points: 5
#     Node 3, Type 0, BuildingBlock: XOMCOT_clean_sbu_1, # of connection points: 5
#     Edge 4, Type (0, 0), BuildingBlock: CIFDUS_clean_linker_0, # of connection points: 2
#     Edge 5, Type (0, 0), BuildingBlock: CIFDUS_clean_linker_0, # of connection points: 2
#     Edge 6, Type (0, 0), BuildingBlock: CIFDUS_clean_linker_0, # of connection points: 2
#     Edge 7, Type (0, 0), BuildingBlock: CIFDUS_clean_linker_0, # of connection points: 2
#     Edge 8, Type (0, 0), BuildingBlock: CIFDUS_clean_linker_0, # of connection points: 2
#     Edge 9, Type (0, 0), BuildingBlock: CIFDUS_clean_linker_0, # of connection points: 2
#     Edge 10, Type (0, 0), BuildingBlock: CIFDUS_clean_linker_0, # of connection points: 2
#     Edge 11, Type (0, 0), BuildingBlock: CIFDUS_clean_linker_0, # of connection points: 2
#     Edge 12, Type (0, 0), BuildingBlock: CIFDUS_clean_linker_0, # of connection points: 2
#     Edge 13, Type (0, 0), BuildingBlock: CIFDUS_clean_linker_0, # of connection points: 2
# Relax obj value: 0.083
# Max RMSD: 0.167
# Mean RMSD: 0.167
data_MOF--net-sqp--node1-XOMCOT_clean_sbu_1--edge1-CIFDUS_clean_linker_0
_symmetry_space_group_name_H-M    P1
_symmetry_Int_Tables_number       1
_symmetry_cell_setting            triclinic
loop_
_symmetry_equiv_pos_as_xyz
'x, y, z'
_cell_length_a     21.199188
_cell_length_b     17.237703
_cell_length_c     42.987019
_cell_angle_alpha  90.063254
_cell_angle_beta   97.391647
_cell_angle_gamma 90.946169
loop_
_atom_site_label
_atom_site_type_symbol
_atom_site_fract_x
_atom_site_fract_y
_atom_site_fract_z
_atom_type_partial_charge
C0 C 0.96993 0.18296 0.32886 0.0
C1 C 0.91846 0.22928 0.31963 0.0
N2 N 0.89116 0.20575 0.29102 0.0
N3 N 0.97521 0.12983 0.30634 0.0
C4 C 0.92711 0.1459 0.28348 0.0
H5 H 1.0009 0.18697 0.35086 0.0
Co6 Co 0.03547 0.05007 0.30753 0.0
C7 C 0.95904 0.91414 0.28016 0.0
O8 O 0.99135 0.86603 0.29948 0.0
N9 N 0.09791 0.96869 0.30847 0.0
C10 C 0.15887 0.86604 0.3217 0.0
C11 C 0.11198 0.9125 0.3302 0.0
C12 C 0.13792 0.95389 0.28691 0.0
N13 N 0.1756 0.8919 0.29439 0.0
O14 O 0.06541 0.09331 0.27158 0.0
H15 H 0.08791 0.90206 0.35047 0.0
H16 H 0.1393 0.98778 0.2659 0.0
O17 O 0.97289 0.98649 0.28143 0.0
C18 C 0.10564 0.14606 0.2817 0.0
O19 O 0.11592 0.15877 0.31211 0.0
N20 N 1.00936 1.0153 0.34485 0.0
C21 C 0.98579 0.98516 0.40575 0.0
C22 C 0.93867 0.96963 0.38037 0.0
C23 C 0.95139 0.98553 0.3498 0.0
C24 C 0.05379 1.03498 0.36948 0.0
C25 C 0.04372 1.01847 0.40005 0.0
H26 H 0.91417 0.97646 0.33045 0.0
H27 H 0.09791 0.0628 0.36513 0.0
H28 H 0.91903 0.11447 0.26156 0.0
H29 H 0.90161 0.27529 0.33341 0.0
H30 H 0.17718 0.81512 0.33424 0.0
H31 H 0.89249 0.94653 0.38421 0.0
H32 H 0.08019 1.03391 0.41919 0.0
C33 C 0.07619 0.18985 0.65336 0.0
C34 C 0.12586 0.24347 0.6558 0.0
N35 N 0.16289 0.23232 0.68332 0.0
N36 N 0.08185 0.14511 0.67925 0.0
C37 C 0.13496 0.17254 0.69698 0.0
H38 H 0.03762 0.18505 0.63433 0.0
Co39 Co 0.02559 0.06898 0.69187 0.0
C40 C 0.10898 0.9414 0.71371 0.0
O41 O 0.06692 0.89326 0.69868 0.0
N42 N 0.96979 0.99235 0.70689 0.0
C43 C 0.93533 0.91926 0.74439 0.0
C44 C 0.9764 0.9774 0.73807 0.0
C45 C 0.92269 0.94176 0.69483 0.0
N46 N 0.90152 0.89699 0.71728 0.0
O47 O 1.01628 0.13094 0.72761 0.0
H48 H 1.01104 1.00521 0.75537 0.0
H49 H 0.90536 0.93494 0.67026 0.0
O50 O 0.09844 1.01424 0.71328 0.0
C51 C 0.97256 0.17708 0.71671 0.0
O52 O 0.95141 0.17291 0.6866 0.0
N53 N 0.02862 1.01557 0.6543 0.0
C54 C 0.02006 0.96925 0.59151 0.0
C55 C 0.07885 0.96946 0.61102 0.0
C56 C 0.08218 0.9932 0.64238 0.0
C57 C 0.97203 1.01813 0.63549 0.0
C58 C 0.96597 0.99182 0.60469 0.0
H59 H 0.12822 0.99838 0.65637 0.0
H60 H 0.93137 0.04342 0.64421 0.0
H61 H 0.15129 0.15119 0.72024 0.0
H62 H 0.13379 0.28748 0.63872 0.0
H63 H 0.93142 0.89387 0.76711 0.0
H64 H 0.12257 0.95573 0.60187 0.0
H65 H 0.91928 0.99227 0.59117 0.0
C66 C 0.51062 0.69978 0.81235 0.0
C67 C 0.45969 0.74771 0.80538 0.0
N68 N 0.41932 0.71457 0.78217 0.0
N69 N 0.50238 0.63653 0.79377 0.0
C70 C 0.44654 0.64719 0.7755 0.0
H71 H 0.55098 0.70988 0.83007 0.0
Co72 Co 0.55979 0.55662 0.79556 0.0
C73 C 0.4805 0.41429 0.77829 0.0
O74 O 0.51333 0.37906 0.8019 0.0
N75 N 0.62171 0.47584 0.79799 0.0
C76 C 0.68869 0.38117 0.81444 0.0
C77 C 0.63791 0.42347 0.82106 0.0
C78 C 0.66419 0.46305 0.77763 0.0
N79 N 0.70575 0.40658 0.78715 0.0
O80 O 0.58541 0.59265 0.7566 0.0
H81 H 0.61405 0.41438 0.84151 0.0
H82 H 0.66561 0.49541 0.75631 0.0
O83 O 0.49324 0.48571 0.77297 0.0
C84 C 0.62977 0.64315 0.76353 0.0
O85 O 0.64933 0.65744 0.79325 0.0
N86 N 0.53842 0.5316 0.83511 0.0
C87 C 0.51936 0.52044 0.89769 0.0
C88 C 0.46934 0.50379 0.87382 0.0
C89 C 0.47974 0.51038 0.84241 0.0
C90 C 0.58597 0.5527 0.85814 0.0
C91 C 0.57814 0.54526 0.88959 0.0
H92 H 0.44028 0.50135 0.82416 0.0
H93 H 0.63061 0.57502 0.85186 0.0
H94 H 0.42663 0.60682 0.75745 0.0
H95 H 0.45247 0.80197 0.817 0.0
H96 H 0.71048 0.33454 0.82857 0.0
H97 H 0.42261 0.4872 0.87941 0.0
H98 H 0.61698 0.56152 0.90743 0.0
C99 C 0.55631 0.69059 0.16404 0.0
C100 C 0.61022 0.73598 0.17181 0.0
N101 N 0.64136 0.70926 0.19891 0.0
N102 N 0.55382 0.63547 0.18609 0.0
C103 C 0.60549 0.64928 0.20722 0.0
H104 H 0.52238 0.6956 0.14311 0.0
Co105 Co 0.49607 0.55298 0.18604 0.0
C106 C 0.58344 0.42125 0.20699 0.0
O107 O 0.55618 0.37752 0.18396 0.0
N108 N 0.43653 0.46797 0.1862 0.0
C109 C 0.37943 0.35896 0.1752 0.0
C110 C 0.42634 0.40648 0.16636 0.0
C111 C 0.39438 0.45546 0.20691 0.0
N112 N 0.3592 0.38983 0.20076 0.0
O113 O 0.46823 0.59505 0.22356 0.0
H114 H 0.4523 0.3944 0.14693 0.0
H115 H 0.38922 0.49359 0.22631 0.0
O116 O 0.56338 0.49017 0.21035 0.0
C117 C 0.42662 0.64548 0.21379 0.0
O118 O 0.41457 0.6563 0.18335 0.0
N119 N 0.51752 0.52235 0.14721 0.0
C120 C 0.5318 0.50443 0.08395 0.0
C121 C 0.58422 0.49674 0.10745 0.0
C122 C 0.57613 0.50646 0.13911 0.0
C123 C 0.46729 0.53369 0.12469 0.0
C124 C 0.47257 0.52175 0.09326 0.0
H125 H 0.61715 0.50466 0.15684 0.0
H126 H 0.42212 0.55112 0.13139 0.0
H127 H 0.61688 0.61545 0.22827 0.0
H128 H 0.62639 0.78286 0.15793 0.0
H129 H 0.36321 0.30447 0.16419 0.0
H130 H 0.6314 0.48615 0.1015 0.0
H131 H 0.43016 0.52691 0.07653 0.0
H132 H 0.05387 0.89882 0.45017 0.0
H133 H 0.89326 0.05028 0.43454 0.0
H134 H 0.88792 0.05597 0.49103 0.0
H135 H 0.93743 1.03143 0.54416 0.0
H136 H 0.0934 0.87169 0.56057 0.0
H137 H 0.09326 0.85767 0.50411 0.0
C138 C 1.01687 0.93148 0.45924 0.0
C139 C 0.97405 0.97424 0.43852 0.0
C140 C 1.01434 0.93462 0.49167 0.0
C141 C 0.92623 1.01648 0.4502 0.0
C142 C 0.92367 1.02033 0.48244 0.0
C143 C 0.97022 0.99121 0.53581 0.0
C144 C 1.01581 0.95329 0.5571 0.0
C145 C 0.96865 0.98142 0.50338 0.0
C146 C 0.05878 0.90343 0.54505 0.0
C147 C 0.05838 0.89468 0.51268 0.0
H148 H 0.46536 0.58187 0.03519 0.0
H149 H 0.61327 0.41268 0.05539 0.0
H150 H 0.62203 0.40213 -0.00053 0.0
H151 H 0.587 0.44084 0.94464 0.0
H152 H 0.43169 0.59915 0.92512 0.0
H153 H 0.42405 0.61077 0.98123 0.0
C154 C 0.49846 0.5408 0.02764 0.0
C155 C 0.5382 0.49769 0.04987 0.0
C156 C 0.50124 0.53227 -0.00452 0.0
C157 C 0.58257 0.44758 0.03912 0.0
C158 C 0.58716 0.44079 0.00705 0.0
C159 C 0.55107 0.47702 0.95282 0.0
C160 C 0.50979 0.519 0.93104 0.0
C161 C 0.54662 0.48275 0.98504 0.0
C162 C 0.46334 0.56576 0.94159 0.0
C163 C 0.45941 0.57289 0.97359 0.0
H164 H 0.18995 0.26177 0.29852 0.0
H165 H 0.10729 0.12722 0.21829 0.0
H166 H 0.17696 0.19473 0.18545 0.0
H167 H 0.2642 0.28815 0.18046 0.0
H168 H 0.34922 0.4163 0.26212 0.0
H169 H 0.27455 0.35577 0.29339 0.0
C170 C 0.18679 0.24718 0.27381 0.0
C171 C 0.14375 0.18927 0.26087 0.0
C172 C 0.22729 0.28519 0.25535 0.0
C173 C 0.1401 0.17159 0.22879 0.0
C174 C 0.18 0.21001 0.21007 0.0
C175 C 0.26675 0.30257 0.20512 0.0
C176 C 0.31272 0.3567 0.21882 0.0
C177 C 0.22438 0.26619 0.22325 0.0
C178 C 0.31415 0.37578 0.25072 0.0
C179 C 0.27169 0.34067 0.26875 0.0
H180 H 0.83793 0.34724 0.2963 0.0
H181 H 0.81296 0.13062 0.24523 0.0
H182 H 0.71623 0.17825 0.21536 0.0
H183 H 0.63804 0.2803 0.20355 0.0
H184 H 0.6601 0.49657 0.25477 0.0
H185 H 0.75776 0.44956 0.28498 0.0
C186 C 0.81127 0.31006 0.27883 0.0
C187 C 0.83372 0.23519 0.27312 0.0
C188 C 0.75469 0.33763 0.26176 0.0
C189 C 0.79823 0.18874 0.24997 0.0
C190 C 0.74229 0.21578 0.23295 0.0
C191 C 0.66388 0.31738 0.22139 0.0
C192 C 0.64136 0.3922 0.22672 0.0
C193 C 0.72005 0.29002 0.23862 0.0
C194 C 0.67598 0.4389 0.25002 0.0
C195 C 0.73202 0.41198 0.26732 0.0
H196 H 0.69563 0.85176 0.19655 0.0
H197 H 0.72593 0.6235 0.23638 0.0
H198 H 0.82779 0.66632 0.26406 0.0
H199 H 0.90736 0.76881 0.27806 0.0
H200 H 0.87916 0.99672 0.23768 0.0
H201 H 0.77818 0.95335 0.20873 0.0
C202 C 0.72474 0.81121 0.21104 0.0
C203 C 0.70244 0.7348 0.21462 0.0
C204 C 0.78388 0.83603 0.22677 0.0
C205 C 0.74084 0.68318 0.23372 0.0
C206 C 0.79956 0.70739 0.24939 0.0
C207 C 0.87948 0.809 0.26276 0.0
C208 C 0.90072 0.8862 0.26034 0.0
C209 C 0.82134 0.78378 0.24627 0.0
C210 C 0.86383 0.93722 0.24029 0.0
C211 C 0.80597 0.91243 0.22368 0.0
H212 H 0.27001 0.79145 0.315 0.0
H213 H 0.18499 0.9123 0.23238 0.0
H214 H 0.25774 0.84989 0.20136 0.0
H215 H 0.34156 0.75744 0.19669 0.0
H216 H 0.42502 0.63066 0.2778 0.0
H217 H 0.35613 0.69867 0.31033 0.0
C218 C 0.2668 0.804 0.29019 0.0
C219 C 0.22111 0.85693 0.27628 0.0
C220 C 0.30841 0.76655 0.27212 0.0
C221 C 0.21941 0.87297 0.2441 0.0
C222 C 0.26094 0.83671 0.22616 0.0
C223 C 0.34513 0.74446 0.22153 0.0
C224 C 0.38851 0.68857 0.23472 0.0
C225 C 0.30508 0.78296 0.23984 0.0
C226 C 0.39227 0.67332 0.267 0.0
C227 C 0.35271 0.71212 0.28555 0.0
H228 H 0.38463 0.8645 0.77865 0.0
H229 H 0.31795 0.63174 0.75399 0.0
H230 H 0.21572 0.68186 0.73083 0.0
H231 H 0.1451 0.79125 0.71798 0.0
H232 H 0.21089 1.02414 0.74321 0.0
H233 H 0.31339 0.97407 0.76641 0.0
C234 C 0.34761 0.82456 0.76852 0.0
C235 C 0.35918 0.74438 0.76812 0.0
C236 C 0.28867 0.85371 0.75552 0.0
C237 C 0.31086 0.69374 0.75429 0.0
C238 C 0.25213 0.72231 0.74123 0.0
C239 C 0.18171 0.8312 0.72862 0.0
C240 C 0.17024 0.91134 0.72888 0.0
C241 C 0.24054 0.80213 0.74176 0.0
C242 C 0.21833 0.96215 0.74277 0.0
C243 C 0.27703 0.93359 0.75597 0.0
H244 H 0.2627 0.17982 0.72212 0.0
H245 H 0.18975 0.38479 0.67384 0.0
H246 H 0.28261 0.46017 0.69773 0.0
H247 H 0.38383 0.46867 0.73437 0.0
H248 H 0.45437 0.26046 0.78172 0.0
H249 H 0.36377 0.18661 0.75642 0.0
C250 C 0.26689 0.24106 0.7169 0.0
C251 C 0.21891 0.27646 0.69636 0.0
C252 C 0.32036 0.28392 0.73069 0.0
C253 C 0.22602 0.35572 0.6894 0.0
C254 C 0.27908 0.39903 0.70321 0.0
C255 C 0.37959 0.40709 0.73892 0.0
C256 C 0.42616 0.37081 0.76023 0.0
C257 C 0.32657 0.36391 0.72413 0.0
C258 C 0.41947 0.29068 0.76574 0.0
C259 C 0.36744 0.24794 0.75123 0.0
H260 H 0.89394 0.29204 0.69724 0.0
H261 H 0.97388 0.17237 0.78087 0.0
H262 H 0.90037 0.23934 0.81112 0.0
H263 H 0.80655 0.32134 0.81201 0.0
H264 H 0.72226 0.42932 0.72608 0.0
H265 H 0.80501 0.37767 0.69864 0.0
C266 C 0.89589 0.281 0.7222 0.0
C267 C 0.93863 0.22668 0.73677 0.0
C268 C 0.85227 0.31705 0.73893 0.0
C269 C 0.94132 0.21403 0.76916 0.0
C270 C 0.89893 0.25174 0.78633 0.0
C271 C 0.80576 0.33338 0.78727 0.0
C272 C 0.75712 0.37884 0.77129 0.0
C273 C 0.85282 0.30144 0.77117 0.0
C274 C 0.75862 0.39522 0.73933 0.0
C275 C 0.80599 0.36526 0.72342 0.0
H276 H 0.74673 0.61023 0.75082 0.0
H277 H 0.59203 0.76655 0.72692 0.0
H278 H 0.66354 0.85771 0.70424 0.0
H279 H 0.77474 0.9033 0.70147 0.0
H280 H 0.92894 0.74854 0.72871 0.0
H281 H 0.85371 0.64562 0.73918 0.0
C282 C 0.72826 0.66268 0.73931 0.0
C283 C 0.66428 0.68145 0.74004 0.0
C284 C 0.77016 0.71564 0.72741 0.0
C285 C 0.64091 0.75038 0.72594 0.0
C286 C 0.68207 0.80294 0.71341 0.0
C287 C 0.79121 0.84593 0.70845 0.0
C288 C 0.85698 0.83285 0.71423 0.0
C289 C 0.74745 0.78785 0.71542 0.0
C290 C 0.8784 0.7591 0.72395 0.0
C291 C 0.83544 0.70068 0.73017 0.0
loop_
_geom_bond_atom_site_label_1
_geom_bond_atom_site_label_2
_geom_bond_distance
_geom_bond_site_symmetry_2
_ccdc_geom_bond_type
C0 C1 1.351 . S
C0 N3 1.368 . S
C0 H5 0.931 1_655 S
C1 C0 1.351 . S
C1 N2 1.373 . S
C1 H29 0.930 . S
N2 C1 1.373 . S
N2 C4 1.340 . S
N3 C0 1.368 . S
N3 C4 1.321 . S
N3 Co6 2.135 1_655 S
C4 N2 1.340 . S
C4 N3 1.321 . S
C4 H28 0.930 . S
H5 C0 0.931 1_455 S
Co6 N3 2.135 1_455 S
Co6 N9 2.121 1_545 S
Co6 O14 2.055 . S
Co6 O17 2.039 1_445 S
Co6 N20 2.140 . S
C7 O8 1.227 . S
C7 O17 1.265 . S
O8 C7 1.227 . S
N9 Co6 2.121 1_565 S
N9 C11 1.375 . S
N9 C12 1.313 . S
C10 C11 1.338 . S
C10 N13 1.377 . S
C10 H30 0.930 . S
C11 N9 1.375 . S
C11 C10 1.338 . S
C11 H15 0.931 . S
C12 N9 1.313 . S
C12 N13 1.344 . S
C12 H16 0.930 . S
N13 C10 1.377 . S
N13 C12 1.344 . S
O14 Co6 2.055 . S
O14 C18 1.253 . S
H15 C11 0.931 . S
H16 C12 0.930 . S
O17 Co6 2.039 1_665 S
O17 C7 1.265 . S
C18 O14 1.253 . S
C18 O19 1.227 . S
O19 C18 1.227 . S
N20 Co6 2.140 . S
N20 C23 1.346 1_455 S
N20 C24 1.345 1_545 S
C21 C22 1.387 1_465 S
C21 C25 1.391 . S
C22 C21 1.387 1_645 S
C22 C23 1.369 . S
C22 H31 0.929 . S
C23 N20 1.346 1_655 S
C23 C22 1.369 . S
C23 H26 0.928 . S
C24 N20 1.345 1_565 S
C24 C25 1.371 . S
C24 H27 0.931 . S
C25 C21 1.391 . S
C25 C24 1.371 . S
C25 H32 0.930 . S
H26 C23 0.928 . S
H27 C24 0.931 . S
H28 C4 0.930 . S
H29 C1 0.930 . S
H30 C10 0.930 . S
H31 C22 0.929 . S
H32 C25 0.930 . S
C33 C34 1.351 . S
C33 N36 1.368 . S
C33 H38 0.931 . S
C34 C33 1.351 . S
C34 N35 1.373 . S
C34 H62 0.930 . S
N35 C34 1.373 . S
N35 C37 1.340 . S
N36 C33 1.368 . S
N36 C37 1.321 . S
N36 Co39 2.135 . S
C37 N35 1.340 . S
C37 N36 1.321 . S
C37 H61 0.930 . S
H38 C33 0.931 . S
Co39 N36 2.135 . S
Co39 N42 2.121 1_445 S
Co39 O47 2.055 1_455 S
Co39 O50 2.039 1_545 S
Co39 N53 2.140 . S
C40 O41 1.227 . S
C40 O50 1.265 . S
O41 C40 1.227 . S
N42 Co39 2.121 1_665 S
N42 C44 1.375 . S
N42 C45 1.313 . S
C43 C44 1.338 . S
C43 N46 1.377 . S
C43 H63 0.930 . S
C44 N42 1.375 . S
C44 C43 1.338 . S
C44 H48 0.931 1_655 S
C45 N42 1.313 . S
C45 N46 1.344 . S
C45 H49 0.930 . S
N46 C43 1.377 . S
N46 C45 1.344 . S
O47 Co39 2.055 1_655 S
O47 C51 1.253 . S
H48 C44 0.931 1_455 S
H49 C45 0.930 . S
O50 Co39 2.039 1_565 S
O50 C40 1.265 . S
C51 O47 1.253 . S
C51 O52 1.227 . S
O52 C51 1.227 . S
N53 Co39 2.140 . S
N53 C56 1.346 . S
N53 C57 1.345 1_445 S
C54 C55 1.387 1_565 S
C54 C58 1.391 1_455 S
C55 C54 1.387 1_545 S
C55 C56 1.369 . S
C55 H64 0.929 . S
C56 N53 1.346 . S
C56 C55 1.369 . S
C56 H59 0.928 . S
C57 N53 1.345 1_665 S
C57 C58 1.371 . S
C57 H60 0.931 . S
C58 C54 1.391 1_655 S
C58 C57 1.371 . S
C58 H65 0.930 . S
H59 C56 0.928 . S
H60 C57 0.931 . S
H61 C37 0.930 . S
H62 C34 0.930 . S
H63 C43 0.930 . S
H64 C55 0.929 . S
H65 C58 0.930 . S
C66 C67 1.351 . S
C66 N69 1.368 . S
C66 H71 0.931 . S
C67 C66 1.351 . S
C67 N68 1.373 . S
C67 H95 0.930 . S
N68 C67 1.373 . S
N68 C70 1.340 . S
N69 C66 1.368 . S
N69 C70 1.321 . S
N69 Co72 2.135 . S
C70 N68 1.340 . S
C70 N69 1.321 . S
C70 H94 0.930 . S
H71 C66 0.931 . S
Co72 N69 2.135 . S
Co72 N75 2.121 . S
Co72 O80 2.055 . S
Co72 O83 2.039 . S
Co72 N86 2.140 . S
C73 O74 1.227 . S
C73 O83 1.265 . S
O74 C73 1.227 . S
N75 Co72 2.121 . S
N75 C77 1.375 . S
N75 C78 1.313 . S
C76 C77 1.338 . S
C76 N79 1.377 . S
C76 H96 0.930 . S
C77 N75 1.375 . S
C77 C76 1.338 . S
C77 H81 0.931 . S
C78 N75 1.313 . S
C78 N79 1.344 . S
C78 H82 0.930 . S
N79 C76 1.377 . S
N79 C78 1.344 . S
O80 Co72 2.055 . S
O80 C84 1.253 . S
H81 C77 0.931 . S
H82 C78 0.930 . S
O83 Co72 2.039 . S
O83 C73 1.265 . S
C84 O80 1.253 . S
C84 O85 1.227 . S
O85 C84 1.227 . S
N86 Co72 2.140 . S
N86 C89 1.346 . S
N86 C90 1.345 . S
C87 C88 1.387 . S
C87 C91 1.391 . S
C88 C87 1.387 . S
C88 C89 1.369 . S
C88 H97 0.929 . S
C89 N86 1.346 . S
C89 C88 1.369 . S
C89 H92 0.928 . S
C90 N86 1.345 . S
C90 C91 1.371 . S
C90 H93 0.931 . S
C91 C87 1.391 . S
C91 C90 1.371 . S
C91 H98 0.930 . S
H92 C89 0.928 . S
H93 C90 0.931 . S
H94 C70 0.930 . S
H95 C67 0.930 . S
H96 C76 0.930 . S
H97 C88 0.929 . S
H98 C91 0.930 . S
C99 C100 1.351 . S
C99 N102 1.368 . S
C99 H104 0.931 . S
C100 C99 1.351 . S
C100 N101 1.373 . S
C100 H128 0.930 . S
N101 C100 1.373 . S
N101 C103 1.340 . S
N102 C99 1.368 . S
N102 C103 1.321 . S
N102 Co105 2.135 . S
C103 N101 1.340 . S
C103 N102 1.321 . S
C103 H127 0.930 . S
H104 C99 0.931 . S
Co105 N102 2.135 . S
Co105 N108 2.121 . S
Co105 O113 2.055 . S
Co105 O116 2.039 . S
Co105 N119 2.140 . S
C106 O107 1.227 . S
C106 O116 1.265 . S
O107 C106 1.227 . S
N108 Co105 2.121 . S
N108 C110 1.375 . S
N108 C111 1.313 . S
C109 C110 1.338 . S
C109 N112 1.377 . S
C109 H129 0.930 . S
C110 N108 1.375 . S
C110 C109 1.338 . S
C110 H114 0.931 . S
C111 N108 1.313 . S
C111 N112 1.344 . S
C111 H115 0.930 . S
N112 C109 1.377 . S
N112 C111 1.344 . S
O113 Co105 2.055 . S
O113 C117 1.253 . S
H114 C110 0.931 . S
H115 C111 0.930 . S
O116 Co105 2.039 . S
O116 C106 1.265 . S
C117 O113 1.253 . S
C117 O118 1.227 . S
O118 C117 1.227 . S
N119 Co105 2.140 . S
N119 C122 1.346 . S
N119 C123 1.345 . S
C120 C121 1.387 . S
C120 C124 1.391 . S
C121 C120 1.387 . S
C121 C122 1.369 . S
C121 H130 0.929 . S
C122 N119 1.346 . S
C122 C121 1.369 . S
C122 H125 0.928 . S
C123 N119 1.345 . S
C123 C124 1.371 . S
C123 H126 0.931 . S
C124 C120 1.391 . S
C124 C123 1.371 . S
C124 H131 0.930 . S
H125 C122 0.928 . S
H126 C123 0.931 . S
H127 C103 0.930 . S
H128 C100 0.930 . S
H129 C109 0.930 . S
H130 C121 0.929 . S
H131 C124 0.930 . S
H132 C138 0.930 . S
H133 C141 0.930 . S
H134 C142 0.930 . S
H135 C143 0.930 . S
H136 C146 0.930 . S
H137 C147 0.930 . S
C138 H132 0.930 . S
C138 C139 1.355 1_665 S
C138 C140 1.415 . S
C139 C138 1.355 1_445 S
C139 C141 1.419 . S
C140 C138 1.415 . S
C140 C145 1.425 1_665 S
C140 C147 1.409 . S
C141 H133 0.930 . S
C141 C139 1.419 . S
C141 C142 1.362 . S
C142 H134 0.930 . S
C142 C141 1.362 . S
C142 C145 1.409 . S
C143 H135 0.930 . S
C143 C144 1.355 1_545 S
C143 C145 1.415 . S
C144 C143 1.355 1_565 S
C144 C146 1.419 1_455 S
C145 C140 1.425 1_445 S
C145 C142 1.409 . S
C145 C143 1.415 . S
C146 H136 0.930 . S
C146 C144 1.419 1_655 S
C146 C147 1.362 . S
C147 H137 0.930 . S
C147 C140 1.409 . S
C147 C146 1.362 . S
H148 C154 0.930 . S
H149 C157 0.930 . S
H150 C158 0.930 . S
H151 C159 0.930 . S
H152 C162 0.930 . S
H153 C163 0.930 . S
C154 H148 0.930 . S
C154 C155 1.355 . S
C154 C156 1.415 . S
C155 C154 1.355 . S
C155 C157 1.419 . S
C156 C154 1.415 . S
C156 C161 1.425 1_554 S
C156 C163 1.409 1_554 S
C157 H149 0.930 . S
C157 C155 1.419 . S
C157 C158 1.362 . S
C158 H150 0.930 . S
C158 C157 1.362 . S
C158 C161 1.409 1_554 S
C159 H151 0.930 . S
C159 C160 1.355 . S
C159 C161 1.415 . S
C160 C159 1.355 . S
C160 C162 1.419 . S
C161 C156 1.425 1_556 S
C161 C158 1.409 1_556 S
C161 C159 1.415 . S
C162 H152 0.930 . S
C162 C160 1.419 . S
C162 C163 1.362 . S
C163 H153 0.930 . S
C163 C156 1.409 1_556 S
C163 C162 1.362 . S
H164 C170 0.930 . S
H165 C173 0.930 . S
H166 C174 0.930 . S
H167 C175 0.930 . S
H168 C178 0.930 . S
H169 C179 0.930 . S
C170 H164 0.930 . S
C170 C171 1.355 . S
C170 C172 1.415 . S
C171 C170 1.355 . S
C171 C173 1.419 . S
C172 C170 1.415 . S
C172 C177 1.425 . S
C172 C179 1.409 . S
C173 H165 0.930 . S
C173 C171 1.419 . S
C173 C174 1.362 . S
C174 H166 0.930 . S
C174 C173 1.362 . S
C174 C177 1.409 . S
C175 H167 0.930 . S
C175 C176 1.355 . S
C175 C177 1.415 . S
C176 C175 1.355 . S
C176 C178 1.419 . S
C177 C172 1.425 . S
C177 C174 1.409 . S
C177 C175 1.415 . S
C178 H168 0.930 . S
C178 C176 1.419 . S
C178 C179 1.362 . S
C179 H169 0.930 . S
C179 C172 1.409 . S
C179 C178 1.362 . S
H180 C186 0.930 . S
H181 C189 0.930 . S
H182 C190 0.930 . S
H183 C191 0.930 . S
H184 C194 0.930 . S
H185 C195 0.930 . S
C186 H180 0.930 . S
C186 C187 1.355 . S
C186 C188 1.415 . S
C187 C186 1.355 . S
C187 C189 1.419 . S
C188 C186 1.415 . S
C188 C193 1.425 . S
C188 C195 1.409 . S
C189 H181 0.930 . S
C189 C187 1.419 . S
C189 C190 1.362 . S
C190 H182 0.930 . S
C190 C189 1.362 . S
C190 C193 1.409 . S
C191 H183 0.930 . S
C191 C192 1.355 . S
C191 C193 1.415 . S
C192 C191 1.355 . S
C192 C194 1.419 . S
C193 C188 1.425 . S
C193 C190 1.409 . S
C193 C191 1.415 . S
C194 H184 0.930 . S
C194 C192 1.419 . S
C194 C195 1.362 . S
C195 H185 0.930 . S
C195 C188 1.409 . S
C195 C194 1.362 . S
H196 C202 0.930 . S
H197 C205 0.930 . S
H198 C206 0.930 . S
H199 C207 0.930 . S
H200 C210 0.930 . S
H201 C211 0.930 . S
C202 H196 0.930 . S
C202 C203 1.355 . S
C202 C204 1.415 . S
C203 C202 1.355 . S
C203 C205 1.419 . S
C204 C202 1.415 . S
C204 C209 1.425 . S
C204 C211 1.409 . S
C205 H197 0.930 . S
C205 C203 1.419 . S
C205 C206 1.362 . S
C206 H198 0.930 . S
C206 C205 1.362 . S
C206 C209 1.409 . S
C207 H199 0.930 . S
C207 C208 1.355 . S
C207 C209 1.415 . S
C208 C207 1.355 . S
C208 C210 1.419 . S
C209 C204 1.425 . S
C209 C206 1.409 . S
C209 C207 1.415 . S
C210 H200 0.930 . S
C210 C208 1.419 . S
C210 C211 1.362 . S
C211 H201 0.930 . S
C211 C204 1.409 . S
C211 C210 1.362 . S
H212 C218 0.930 . S
H213 C221 0.930 . S
H214 C222 0.930 . S
H215 C223 0.930 . S
H216 C226 0.930 . S
H217 C227 0.930 . S
C218 H212 0.930 . S
C218 C219 1.355 . S
C218 C220 1.415 . S
C219 C218 1.355 . S
C219 C221 1.419 . S
C220 C218 1.415 . S
C220 C225 1.425 . S
C220 C227 1.409 . S
C221 H213 0.930 . S
C221 C219 1.419 . S
C221 C222 1.362 . S
C222 H214 0.930 . S
C222 C221 1.362 . S
C222 C225 1.409 . S
C223 H215 0.930 . S
C223 C224 1.355 . S
C223 C225 1.415 . S
C224 C223 1.355 . S
C224 C226 1.419 . S
C225 C220 1.425 . S
C225 C222 1.409 . S
C225 C223 1.415 . S
C226 H216 0.930 . S
C226 C224 1.419 . S
C226 C227 1.362 . S
C227 H217 0.930 . S
C227 C220 1.409 . S
C227 C226 1.362 . S
H228 C234 0.930 . S
H229 C237 0.930 . S
H230 C238 0.930 . S
H231 C239 0.930 . S
H232 C242 0.930 . S
H233 C243 0.930 . S
C234 H228 0.930 . S
C234 C235 1.355 . S
C234 C236 1.415 . S
C235 C234 1.355 . S
C235 C237 1.419 . S
C236 C234 1.415 . S
C236 C241 1.425 . S
C236 C243 1.409 . S
C237 H229 0.930 . S
C237 C235 1.419 . S
C237 C238 1.362 . S
C238 H230 0.930 . S
C238 C237 1.362 . S
C238 C241 1.409 . S
C239 H231 0.930 . S
C239 C240 1.355 . S
C239 C241 1.415 . S
C240 C239 1.355 . S
C240 C242 1.419 . S
C241 C236 1.425 . S
C241 C238 1.409 . S
C241 C239 1.415 . S
C242 H232 0.930 . S
C242 C240 1.419 . S
C242 C243 1.362 . S
C243 H233 0.930 . S
C243 C236 1.409 . S
C243 C242 1.362 . S
H244 C250 0.930 . S
H245 C253 0.930 . S
H246 C254 0.930 . S
H247 C255 0.930 . S
H248 C258 0.930 . S
H249 C259 0.930 . S
C250 H244 0.930 . S
C250 C251 1.355 . S
C250 C252 1.415 . S
C251 C250 1.355 . S
C251 C253 1.419 . S
C252 C250 1.415 . S
C252 C257 1.425 . S
C252 C259 1.409 . S
C253 H245 0.930 . S
C253 C251 1.419 . S
C253 C254 1.362 . S
C254 H246 0.930 . S
C254 C253 1.362 . S
C254 C257 1.409 . S
C255 H247 0.930 . S
C255 C256 1.355 . S
C255 C257 1.415 . S
C256 C255 1.355 . S
C256 C258 1.419 . S
C257 C252 1.425 . S
C257 C254 1.409 . S
C257 C255 1.415 . S
C258 H248 0.930 . S
C258 C256 1.419 . S
C258 C259 1.362 . S
C259 H249 0.930 . S
C259 C252 1.409 . S
C259 C258 1.362 . S
H260 C266 0.930 . S
H261 C269 0.930 . S
H262 C270 0.930 . S
H263 C271 0.930 . S
H264 C274 0.930 . S
H265 C275 0.930 . S
C266 H260 0.930 . S
C266 C267 1.355 . S
C266 C268 1.415 . S
C267 C266 1.355 . S
C267 C269 1.419 . S
C268 C266 1.415 . S
C268 C273 1.425 . S
C268 C275 1.409 . S
C269 H261 0.930 . S
C269 C267 1.419 . S
C269 C270 1.362 . S
C270 H262 0.930 . S
C270 C269 1.362 . S
C270 C273 1.409 . S
C271 H263 0.930 . S
C271 C272 1.355 . S
C271 C273 1.415 . S
C272 C271 1.355 . S
C272 C274 1.419 . S
C273 C268 1.425 . S
C273 C270 1.409 . S
C273 C271 1.415 . S
C274 H264 0.930 . S
C274 C272 1.419 . S
C274 C275 1.362 . S
C275 H265 0.930 . S
C275 C268 1.409 . S
C275 C274 1.362 . S
H276 C282 0.930 . S
H277 C285 0.930 . S
H278 C286 0.930 . S
H279 C287 0.930 . S
H280 C290 0.930 . S
H281 C291 0.930 . S
C282 H276 0.930 . S
C282 C283 1.355 . S
C282 C284 1.415 . S
C283 C282 1.355 . S
C283 C285 1.419 . S
C284 C282 1.415 . S
C284 C289 1.425 . S
C284 C291 1.409 . S
C285 H277 0.930 . S
C285 C283 1.419 . S
C285 C286 1.362 . S
C286 H278 0.930 . S
C286 C285 1.362 . S
C286 C289 1.409 . S
C287 H279 0.930 . S
C287 C288 1.355 . S
C287 C289 1.415 . S
C288 C287 1.355 . S
C288 C290 1.419 . S
C289 C284 1.425 . S
C289 C286 1.409 . S
C289 C287 1.415 . S
C290 H280 0.930 . S
C290 C288 1.419 . S
C290 C291 1.362 . S
C291 H281 0.930 . S
C291 C284 1.409 . S
C291 C290 1.362 . S
C139 C21 1.487 1_545 S
C144 C54 1.488 . S
C155 C120 1.488 . S
C160 C87 1.488 . S
C171 C18 1.522 . S
C176 N112 1.518 . S
C187 N2 1.356 . S
C192 C106 1.463 . S
C203 N101 1.402 . S
C208 C7 1.446 . S
C219 N13 1.474 . S
C224 C117 1.543 . S
C235 N68 1.416 . S
C240 C40 1.439 . S
C251 N35 1.392 . S
C256 C73 1.443 . S
C267 C51 1.529 . S
C272 N79 1.517 . S
C283 C84 1.523 . S
C288 N46 1.488 . S
