# Generated by pormake.
# Topology wgu, (5)-cn, num edge types: 1
# Building blocks:
#     Node 0, Type 0, BuildingBlock: BEQFEK_clean_sbu_0, # of connection points: 5
#     Node 1, Type 0, BuildingBlock: BEQFEK_clean_sbu_0, # of connection points: 5
#     Node 2, Type 0, BuildingBlock: BEQFEK_clean_sbu_0, # of connection points: 5
#     Node 3, Type 0, BuildingBlock: BEQFEK_clean_sbu_0, # of connection points: 5
#     Node 4, Type 0, BuildingBlock: BEQFEK_clean_sbu_0, # of connection points: 5
#     Node 5, Type 0, BuildingBlock: BEQFEK_clean_sbu_0, # of connection points: 5
#     Node 6, Type 0, BuildingBlock: BEQFEK_clean_sbu_0, # of connection points: 5
#     Node 7, Type 0, BuildingBlock: BEQFEK_clean_sbu_0, # of connection points: 5
#     Edge 8, Type (0, 0), None
#     Edge 9, Type (0, 0), None
#     Edge 10, Type (0, 0), None
#     Edge 11, Type (0, 0), None
#     Edge 12, Type (0, 0), None
#     Edge 13, Type (0, 0), None
#     Edge 14, Type (0, 0), None
#     Edge 15, Type (0, 0), None
#     Edge 16, Type (0, 0), None
#     Edge 17, Type (0, 0), None
#     Edge 18, Type (0, 0), None
#     Edge 19, Type (0, 0), None
#     Edge 20, Type (0, 0), None
#     Edge 21, Type (0, 0), None
#     Edge 22, Type (0, 0), None
#     Edge 23, Type (0, 0), None
#     Edge 24, Type (0, 0), None
#     Edge 25, Type (0, 0), None
#     Edge 26, Type (0, 0), None
#     Edge 27, Type (0, 0), None
# Relax obj value: 0.774
# Max RMSD: 0.259
# Mean RMSD: 0.259
data_MOF--net-wgu--node1-BEQFEK_clean_sbu_0--edge1-none
_symmetry_space_group_name_H-M    P1
_symmetry_Int_Tables_number       1
_symmetry_cell_setting            triclinic
loop_
_symmetry_equiv_pos_as_xyz
'x, y, z'
_cell_length_a     16.608275
_cell_length_b     16.425145
_cell_length_c     12.56061
_cell_angle_alpha  89.998167
_cell_angle_beta   90.000205
_cell_angle_gamma 89.393129
loop_
_atom_site_label
_atom_site_type_symbol
_atom_site_fract_x
_atom_site_fract_y
_atom_site_fract_z
_atom_type_partial_charge
Co0 Co 0.33878 0.49671 1.05863 0.0
Co1 Co 0.44838 0.35404 1.0392 0.0
C2 C 0.31107 0.35108 0.89687 0.0
O3 O 0.29011 0.41786 0.94243 0.0
O4 O 0.38079 0.32139 0.91514 0.0
C5 C 0.17815 0.56856 1.04176 0.0
O6 O 0.16469 0.51247 0.97024 0.0
C7 C 0.4854 0.18783 0.06469 0.0
C8 C 0.51891 0.19478 0.23321 0.0
C9 C 0.48567 0.14375 0.15834 0.0
N10 N 0.51105 0.26342 0.08482 0.0
N11 N 0.53638 0.26533 0.18452 0.0
C12 C 0.45394 0.16 0.95978 0.0
H13 H 0.38772 0.15924 0.96071 0.0
H14 H 0.47685 0.09753 0.9436 0.0
H15 H 0.47237 0.20119 0.8954 0.0
C16 C 0.30611 0.42896 0.27342 0.0
N17 N 0.35351 0.43487 0.18658 0.0
N18 N 0.37194 0.36179 0.15454 0.0
C19 C 0.32398 0.30794 0.2054 0.0
C20 C 0.28686 0.34704 0.2913 0.0
C21 C 0.28708 0.50034 0.34155 0.0
H22 H 0.33212 0.54896 0.32928 0.0
H23 H 0.22784 0.52446 0.31649 0.0
H24 H 0.28539 0.48297 0.42685 0.0
O25 O 0.44561 0.56112 1.02754 0.0
O26 O 0.52798 0.45485 1.02516 0.0
H27 H 0.23534 0.21153 0.18849 0.0
H28 H 0.23988 0.28223 0.0827 0.0
C29 C 0.27766 0.24803 0.14065 0.0
H30 H 0.31877 0.21012 0.09372 0.0
H31 H 0.55181 0.31867 0.22443 0.0
O32 O 0.24698 0.5722 0.08675 0.0
C33 C 0.51799 0.53272 1.02199 0.0
Co34 Co 0.62059 0.34223 0.53896 0.0
Co35 Co 0.75696 0.45586 0.56119 0.0
C36 C 0.76718 0.32126 0.39448 0.0
O37 O 0.69751 0.29732 0.42328 0.0
O38 O 0.79551 0.3867 0.43426 0.0
C39 C 0.53223 0.19005 0.52293 0.0
O40 O 0.57408 0.16173 0.44251 0.0
C41 C 0.91727 0.50443 0.59216 0.0
C42 C 0.91531 0.52663 0.76352 0.0
C43 C 0.96581 0.50328 0.68092 0.0
N44 N 0.84127 0.51947 0.62076 0.0
N45 N 0.84105 0.53841 0.72297 0.0
C46 C 0.93973 0.47587 0.48551 0.0
H47 H 0.9441 0.40858 0.48529 0.0
H48 H 0.99753 0.50389 0.46246 0.0
H49 H 0.89259 0.4945 0.42923 0.0
C50 C 0.67354 0.28715 0.7585 0.0
N51 N 0.67353 0.33788 0.67298 0.0
N52 N 0.741 0.37768 0.67184 0.0
C53 C 0.78959 0.34646 0.7481 0.0
C54 C 0.74684 0.29351 0.81088 0.0
C55 C 0.60887 0.22846 0.7838 0.0
H56 H 0.5497 0.25737 0.76747 0.0
H57 H 0.61546 0.1741 0.73218 0.0
H58 H 0.61309 0.20874 0.86815 0.0
O59 O 0.55835 0.4521 0.51819 0.0
O60 O 0.65974 0.53622 0.53761 0.0
H61 H 0.91137 0.3671 0.79326 0.0
H62 H 0.89395 0.2683 0.74229 0.0
C63 C 0.87747 0.33361 0.73207 0.0
H64 H 0.89324 0.35055 0.64982 0.0
H65 H 0.7889 0.54577 0.76846 0.0
O66 O 0.54403 0.26059 0.55882 0.0
C67 C 0.58419 0.52525 0.52325 0.0
Co68 Co 0.77065 0.62664 1.05863 0.0
Co69 Co 0.66108 0.76934 1.03918 0.0
C70 C 0.79841 0.77226 0.89686 0.0
O71 O 0.81935 0.70547 0.94243 0.0
O72 O 0.72869 0.80196 0.91511 0.0
C73 C 0.93125 0.55474 1.04173 0.0
O74 O 0.94472 0.61084 0.97022 0.0
C75 C 0.62413 0.93558 0.06459 0.0
C76 C 0.59056 0.92868 0.23309 0.0
C77 C 0.62384 0.97967 0.15822 0.0
N78 N 0.59843 0.85999 0.08474 0.0
N79 N 0.57308 0.85812 0.18443 0.0
C80 C 0.65561 0.9634 0.95968 0.0
H81 H 0.72182 0.96417 0.96064 0.0
H82 H 0.6327 1.02586 0.94348 0.0
H83 H 0.63719 0.92221 0.89529 0.0
C84 C 0.80334 0.69438 0.27342 0.0
N85 N 0.75593 0.68848 0.18657 0.0
N86 N 0.73751 0.76157 0.15453 0.0
C87 C 0.78549 0.8154 0.20538 0.0
C88 C 0.8226 0.7763 0.29128 0.0
C89 C 0.82234 0.62299 0.34155 0.0
H90 H 0.77729 0.57439 0.32929 0.0
H91 H 0.88157 0.59885 0.31648 0.0
H92 H 0.82405 0.64036 0.42685 0.0
O93 O 0.6638 0.56227 1.02754 0.0
O94 O 0.58145 0.66854 1.02515 0.0
H95 H 0.8741 0.91184 0.18845 0.0
H96 H 0.86967 0.84105 0.08277 0.0
C97 C 0.83183 0.87528 0.14061 0.0
H98 H 0.79074 0.91314 0.09355 0.0
H99 H 0.55761 0.8048 0.22434 0.0
O100 O 0.86243 0.55111 0.08673 0.0
C101 C 0.59143 0.59067 1.02199 0.0
Co102 Co 0.48893 0.78094 0.53898 0.0
Co103 Co 0.35252 0.66736 0.56118 0.0
C104 C 0.34235 0.80197 0.39448 0.0
O105 O 0.41203 0.82589 0.42329 0.0
O106 O 0.314 0.73654 0.43425 0.0
C107 C 0.57726 0.93311 0.52296 0.0
O108 O 0.53539 0.96141 0.44256 0.0
C109 C 0.19219 0.61886 0.59217 0.0
C110 C 0.19416 0.59667 0.76354 0.0
C111 C 0.14367 0.62003 0.68094 0.0
N112 N 0.26819 0.60379 0.62076 0.0
N113 N 0.26841 0.58486 0.72298 0.0
C114 C 0.16974 0.64742 0.48553 0.0
H115 H 0.21687 0.6288 0.42924 0.0
H116 H 0.16537 0.71472 0.4853 0.0
H117 H 0.11194 0.6194 0.46247 0.0
C118 C 0.436 0.83601 0.75851 0.0
N119 N 0.43599 0.78528 0.673 0.0
N120 N 0.3685 0.74554 0.67182 0.0
C121 C 0.31991 0.77679 0.74806 0.0
C122 C 0.36268 0.82971 0.81085 0.0
C123 C 0.50072 0.89462 0.78387 0.0
H124 H 0.55987 0.86564 0.76758 0.0
H125 H 0.49421 0.94901 0.73227 0.0
H126 H 0.49649 0.91431 0.86823 0.0
O127 O 0.55114 0.67107 0.5182 0.0
O128 O 0.44973 0.58696 0.53761 0.0
H129 H 0.1981 0.75623 0.7932 0.0
H130 H 0.21559 0.85501 0.74219 0.0
C131 C 0.23204 0.78969 0.732 0.0
H132 H 0.21626 0.77275 0.64975 0.0
H133 H 0.32057 0.57747 0.76846 0.0
O134 O 0.56551 0.86256 0.55885 0.0
C135 C 0.52528 0.59792 0.52326 0.0
Co136 Co 0.83642 0.12282 0.15998 0.0
Co137 Co 0.94646 0.2662 0.15573 0.0
C138 C 0.81688 0.27311 0.31474 0.0
O139 O 0.79218 0.20569 0.27525 0.0
O140 O 0.88446 0.30101 0.28522 0.0
C141 C 0.67955 1.0455 0.18409 0.0
O142 O 0.66763 0.09076 0.2687 0.0
C143 C 0.98941 0.43225 0.135 0.0
C144 C 1.00694 0.43654 0.96301 0.0
C145 C 0.98603 0.48426 1.0494 0.0
N146 N 1.00478 0.35639 0.10104 0.0
N147 N 1.02056 0.36023 0.99813 0.0
C148 C 0.965 0.45287 0.24459 0.0
H149 H 0.89838 0.45543 0.24966 0.0
H150 H 0.98938 0.51336 0.26601 0.0
H151 H 0.98901 0.4059 0.29925 0.0
C152 C 0.7937 0.17763 0.94158 0.0
N153 N 0.84374 0.17708 1.02709 0.0
N154 N 0.86602 0.25124 1.04771 0.0
C155 C 0.82331 0.30214 0.98474 0.0
C156 C 0.77855 0.25807 0.9123 0.0
C157 C 0.78753 0.10712 0.86755 0.0
H158 H 0.81421 1.05163 0.90398 0.0
H159 H 0.72409 0.09796 0.84402 0.0
H160 H 0.82172 0.12091 0.79401 0.0
O161 O 0.9461 0.06181 0.18666 0.0
O162 O 1.027 0.16751 0.17321 0.0
H163 H 0.84307 0.42679 0.94734 0.0
H164 H 0.74549 0.40609 0.99846 0.0
C165 C 0.81034 0.39018 1.00679 0.0
H166 H 0.82965 0.40391 0.08901 0.0
H167 H 1.02726 0.30934 0.94905 0.0
O168 O 0.74667 1.0479 0.13554 0.0
C169 C 1.01791 0.09037 0.18442 0.0
Co170 Co 0.99208 0.83207 0.66939 0.0
Co171 Co 0.86465 0.95731 0.66134 0.0
C172 C 0.85491 0.81814 0.82405 0.0
O173 O 0.91801 0.78524 0.78545 0.0
O174 O 0.83547 0.88957 0.79355 0.0
C175 C 0.07369 0.67493 0.69451 0.0
O176 O 1.02077 0.66039 0.76885 0.0
C177 C 0.70709 0.94037 0.61957 0.0
C178 C 0.66155 1.05945 0.56528 0.0
C179 C 0.64314 0.97774 0.57082 0.0
N180 N 0.76275 0.99688 0.6385 0.0
N181 N 0.73495 0.06895 0.60893 0.0
C182 C 0.72112 0.8492 0.62523 0.0
H183 H 0.78373 0.83116 0.63915 0.0
H184 H 0.70433 0.8196 0.5491 0.0
H185 H 0.68381 0.82309 0.68966 0.0
C186 C 0.92261 0.78407 0.45406 0.0
N187 N 0.93189 0.83345 0.53948 0.0
N188 N 0.88391 0.89633 0.52937 0.0
C189 C 0.84505 0.89056 0.43429 0.0
C190 C 0.86471 0.81636 0.38488 0.0
C191 C 0.97742 0.71473 0.43176 0.0
H192 H 1.0383 0.73709 0.44728 0.0
H193 H 0.96491 0.66373 0.48698 0.0
H194 H 0.97439 0.69515 0.34749 0.0
O195 O 1.04788 0.95076 0.69104 0.0
O196 O 0.94941 1.04314 0.68325 0.0
H197 H 0.79261 1.01079 0.43882 0.0
H198 H 0.80629 0.97211 0.31066 0.0
C199 C 0.789 0.95444 0.39167 0.0
H200 H 0.7269 0.93065 0.38789 0.0
H201 H 0.76838 0.12239 0.60892 0.0
O202 O 0.07331 0.74405 0.64816 0.0
C203 C 1.02444 1.0266 0.69215 0.0
Co204 Co 0.27318 1.00045 0.15998 0.0
Co205 Co 0.16309 0.85709 0.15572 0.0
C206 C 0.29267 0.85014 0.31474 0.0
O207 O 0.31739 0.91757 0.27527 0.0
O208 O 0.2251 0.82226 0.28519 0.0
C209 C 0.43001 0.07788 0.1842 0.0
O210 O 0.44188 1.03271 0.26892 0.0
C211 C 0.12004 0.69107 0.13502 0.0
C212 C 0.10248 0.68678 0.96303 0.0
C213 C 0.12338 0.63905 1.04943 0.0
N214 N 0.10471 0.76693 0.10104 0.0
N215 N 0.08892 0.76309 0.99814 0.0
C216 C 0.14445 0.67044 0.24461 0.0
H217 H 0.21107 0.66786 0.24967 0.0
H218 H 0.12005 0.60997 0.26605 0.0
H219 H 0.12047 0.71743 0.29926 0.0
C220 C 0.31591 0.9456 0.94159 0.0
N221 N 0.26587 0.94617 1.0271 0.0
N222 N 0.24352 0.87203 1.04769 0.0
C223 C 0.28618 0.82111 0.98469 0.0
C224 C 0.33097 0.86515 0.91227 0.0
C225 C 0.32218 1.01614 0.86763 0.0
H226 H 0.29553 0.07163 0.90407 0.0
H227 H 0.38564 1.02525 0.84415 0.0
H228 H 0.288 1.00242 0.79404 0.0
O229 O 0.1635 1.06149 0.18664 0.0
O230 O 0.08258 0.9558 0.17321 0.0
H231 H 0.26632 0.69648 0.9473 0.0
H232 H 0.36393 0.71711 0.99837 0.0
C233 C 0.29909 0.73306 1.00673 0.0
H234 H 0.2798 0.71934 0.08896 0.0
H235 H 0.08224 0.81398 0.94905 0.0
O236 O 0.36293 0.07538 0.13556 0.0
C237 C 0.09168 1.03294 0.18441 0.0
Co238 Co 0.1174 0.29124 0.6694 0.0
Co239 Co 0.24485 0.16599 0.66137 0.0
C240 C 0.25458 0.30518 0.82406 0.0
O241 O 0.19146 0.33807 0.78547 0.0
O242 O 0.27403 0.23375 0.79356 0.0
C243 C 1.03578 0.44839 0.6945 0.0
O244 O 0.0887 0.46292 0.76885 0.0
C245 C 0.40242 0.18284 0.61958 0.0
C246 C 0.44788 0.06375 0.56526 0.0
C247 C 0.46635 0.14544 0.57081 0.0
N248 N 0.34674 0.12637 0.63852 0.0
N249 N 0.37449 1.05428 0.60893 0.0
C250 C 0.38843 0.27402 0.62526 0.0
H251 H 0.32584 0.29209 0.63918 0.0
H252 H 0.40525 0.30363 0.54913 0.0
H253 H 0.42576 0.30011 0.68969 0.0
C254 C 0.18686 0.33925 0.45408 0.0
N255 N 0.1776 0.28986 0.53951 0.0
N256 N 0.22559 0.227 0.5294 0.0
C257 C 0.26445 0.23278 0.43432 0.0
C258 C 0.24477 0.30697 0.38491 0.0
C259 C 0.13202 0.40856 0.43176 0.0
H260 H 0.07115 0.38617 0.44727 0.0
H261 H 0.14451 0.45957 0.48697 0.0
H262 H 0.13505 0.42814 0.34749 0.0
O263 O 0.0616 0.17255 0.69104 0.0
O264 O 0.16007 0.08018 0.68328 0.0
H265 H 0.31687 0.11254 0.43883 0.0
H266 H 0.30321 0.15125 0.31067 0.0
C267 C 0.32049 0.1689 0.39169 0.0
H268 H 0.38259 0.19269 0.38793 0.0
H269 H 0.34102 1.00087 0.60891 0.0
O270 O 1.03617 0.37926 0.64816 0.0
C271 C 0.08503 0.09672 0.69215 0.0
loop_
_geom_bond_atom_site_label_1
_geom_bond_atom_site_label_2
_geom_bond_distance
_geom_bond_site_symmetry_2
_ccdc_geom_bond_type
Co0 O3 1.970 . S
Co0 N17 1.989 1_556 S
Co0 O25 1.967 . S
Co0 O32 1.920 1_556 S
Co1 O4 1.960 1_554 S
Co1 N10 2.023 . S
Co1 N18 1.999 . S
Co1 O26 1.941 1_554 S
C2 O3 1.258 . S
C2 O4 1.263 . S
O3 Co0 1.970 . S
O3 C2 1.258 . S
O4 Co1 1.960 1_556 S
O4 C2 1.263 . S
C5 O6 1.235 . S
C5 O32 1.289 . S
O6 C5 1.235 . S
C7 C9 1.400 1_556 S
C7 N10 1.351 1_556 S
C7 C12 1.501 . S
C8 C9 1.387 . S
C8 N11 1.341 . S
C9 C7 1.400 1_554 S
C9 C8 1.387 . S
N10 Co1 2.023 . S
N10 C7 1.351 1_554 S
N10 N11 1.365 . S
N11 C8 1.341 . S
N11 N10 1.365 . S
N11 H31 0.862 . S
C12 C7 1.501 . S
C12 H13 0.961 . S
C12 H14 0.961 . S
C12 H15 0.960 . S
H13 C12 0.961 . S
H14 C12 0.961 . S
H15 C12 0.960 . S
C16 N17 1.342 . S
C16 C20 1.401 . S
C16 C21 1.499 . S
N17 Co0 1.989 1_554 S
N17 C16 1.342 . S
N17 N18 1.388 . S
N18 Co1 1.999 . S
N18 N17 1.388 . S
N18 C19 1.346 . S
C19 N18 1.346 . S
C19 C20 1.396 . S
C19 C29 1.510 . S
C20 C16 1.401 . S
C20 C19 1.396 . S
C21 C16 1.499 . S
C21 H22 0.959 . S
C21 H23 0.960 . S
C21 H24 0.961 . S
H22 C21 0.959 . S
H23 C21 0.960 . S
H24 C21 0.961 . S
O25 Co0 1.967 . S
O25 C33 1.258 . S
O26 Co1 1.941 1_556 S
O26 C33 1.266 . S
H27 C29 0.959 . S
H28 C29 0.961 . S
C29 C19 1.510 . S
C29 H27 0.959 . S
C29 H28 0.961 . S
C29 H30 0.960 . S
H30 C29 0.960 . S
H31 N11 0.862 . S
O32 Co0 1.920 1_554 S
O32 C5 1.289 . S
C33 O25 1.258 . S
C33 O26 1.266 . S
Co34 O37 1.970 . S
Co34 N51 1.989 . S
Co34 O59 1.967 . S
Co34 O66 1.920 . S
Co35 O38 1.966 . S
Co35 N44 2.022 . S
Co35 N52 1.993 . S
Co35 O60 1.941 . S
C36 O37 1.258 . S
C36 O38 1.263 . S
O37 Co34 1.970 . S
O37 C36 1.258 . S
O38 Co35 1.966 . S
O38 C36 1.263 . S
C39 O40 1.235 . S
C39 O66 1.289 . S
O40 C39 1.235 . S
C41 C43 1.400 . S
C41 N44 1.351 . S
C41 C46 1.501 . S
C42 C43 1.387 . S
C42 N45 1.341 . S
C43 C41 1.400 . S
C43 C42 1.387 . S
N44 Co35 2.022 . S
N44 C41 1.351 . S
N44 N45 1.365 . S
N45 C42 1.341 . S
N45 N44 1.365 . S
N45 H65 0.862 . S
C46 C41 1.501 . S
C46 H47 0.961 . S
C46 H48 0.961 . S
C46 H49 0.960 . S
H47 C46 0.961 . S
H48 C46 0.961 . S
H49 C46 0.960 . S
C50 N51 1.342 . S
C50 C54 1.401 . S
C50 C55 1.499 . S
N51 Co34 1.989 . S
N51 C50 1.342 . S
N51 N52 1.388 . S
N52 Co35 1.993 . S
N52 N51 1.388 . S
N52 C53 1.346 . S
C53 N52 1.346 . S
C53 C54 1.396 . S
C53 C63 1.510 . S
C54 C50 1.401 . S
C54 C53 1.396 . S
C55 C50 1.499 . S
C55 H56 0.959 . S
C55 H57 0.960 . S
C55 H58 0.961 . S
H56 C55 0.959 . S
H57 C55 0.960 . S
H58 C55 0.961 . S
O59 Co34 1.967 . S
O59 C67 1.258 . S
O60 Co35 1.941 . S
O60 C67 1.266 . S
H61 C63 0.959 . S
H62 C63 0.961 . S
C63 C53 1.510 . S
C63 H61 0.959 . S
C63 H62 0.961 . S
C63 H64 0.960 . S
H64 C63 0.960 . S
H65 N45 0.862 . S
O66 Co34 1.920 . S
O66 C39 1.289 . S
C67 O59 1.258 . S
C67 O60 1.266 . S
Co68 O71 1.970 . S
Co68 N85 1.989 1_556 S
Co68 O93 1.967 . S
Co68 O100 1.920 1_556 S
Co69 O72 1.960 1_554 S
Co69 N78 2.023 . S
Co69 N86 1.999 . S
Co69 O94 1.941 1_554 S
C70 O71 1.258 . S
C70 O72 1.263 . S
O71 Co68 1.970 . S
O71 C70 1.258 . S
O72 Co69 1.960 1_556 S
O72 C70 1.263 . S
C73 O74 1.235 . S
C73 O100 1.289 . S
O74 C73 1.235 . S
C75 C77 1.400 1_556 S
C75 N78 1.351 1_556 S
C75 C80 1.501 . S
C76 C77 1.387 . S
C76 N79 1.341 . S
C77 C75 1.400 1_554 S
C77 C76 1.387 . S
N78 Co69 2.023 . S
N78 C75 1.351 1_554 S
N78 N79 1.365 . S
N79 C76 1.341 . S
N79 N78 1.365 . S
N79 H99 0.862 . S
C80 C75 1.501 . S
C80 H81 0.961 . S
C80 H82 0.961 . S
C80 H83 0.960 . S
H81 C80 0.961 . S
H82 C80 0.961 . S
H83 C80 0.960 . S
C84 N85 1.342 . S
C84 C88 1.401 . S
C84 C89 1.499 . S
N85 Co68 1.989 1_554 S
N85 C84 1.342 . S
N85 N86 1.388 . S
N86 Co69 1.999 . S
N86 N85 1.388 . S
N86 C87 1.346 . S
C87 N86 1.346 . S
C87 C88 1.396 . S
C87 C97 1.510 . S
C88 C84 1.401 . S
C88 C87 1.396 . S
C89 C84 1.499 . S
C89 H90 0.959 . S
C89 H91 0.960 . S
C89 H92 0.961 . S
H90 C89 0.959 . S
H91 C89 0.960 . S
H92 C89 0.961 . S
O93 Co68 1.967 . S
O93 C101 1.258 . S
O94 Co69 1.941 1_556 S
O94 C101 1.266 . S
H95 C97 0.959 . S
H96 C97 0.961 . S
C97 C87 1.510 . S
C97 H95 0.959 . S
C97 H96 0.961 . S
C97 H98 0.960 . S
H98 C97 0.960 . S
H99 N79 0.862 . S
O100 Co68 1.920 1_554 S
O100 C73 1.289 . S
C101 O93 1.258 . S
C101 O94 1.266 . S
Co102 O105 1.970 . S
Co102 N119 1.989 . S
Co102 O127 1.967 . S
Co102 O134 1.920 . S
Co103 O106 1.966 . S
Co103 N112 2.022 . S
Co103 N120 1.993 . S
Co103 O128 1.941 . S
C104 O105 1.258 . S
C104 O106 1.263 . S
O105 Co102 1.970 . S
O105 C104 1.258 . S
O106 Co103 1.966 . S
O106 C104 1.263 . S
C107 O108 1.235 . S
C107 O134 1.289 . S
O108 C107 1.235 . S
C109 C111 1.400 . S
C109 N112 1.351 . S
C109 C114 1.501 . S
C110 C111 1.387 . S
C110 N113 1.341 . S
C111 C109 1.400 . S
C111 C110 1.387 . S
N112 Co103 2.022 . S
N112 C109 1.351 . S
N112 N113 1.365 . S
N113 C110 1.341 . S
N113 N112 1.365 . S
N113 H133 0.862 . S
C114 C109 1.501 . S
C114 H115 0.961 . S
C114 H116 0.961 . S
C114 H117 0.960 . S
H115 C114 0.961 . S
H116 C114 0.961 . S
H117 C114 0.960 . S
C118 N119 1.342 . S
C118 C122 1.401 . S
C118 C123 1.499 . S
N119 Co102 1.989 . S
N119 C118 1.342 . S
N119 N120 1.388 . S
N120 Co103 1.993 . S
N120 N119 1.388 . S
N120 C121 1.346 . S
C121 N120 1.346 . S
C121 C122 1.396 . S
C121 C131 1.510 . S
C122 C118 1.401 . S
C122 C121 1.396 . S
C123 C118 1.499 . S
C123 H124 0.959 . S
C123 H125 0.960 . S
C123 H126 0.961 . S
H124 C123 0.959 . S
H125 C123 0.960 . S
H126 C123 0.961 . S
O127 Co102 1.967 . S
O127 C135 1.258 . S
O128 Co103 1.941 . S
O128 C135 1.266 . S
H129 C131 0.959 . S
H130 C131 0.961 . S
C131 C121 1.510 . S
C131 H129 0.959 . S
C131 H130 0.961 . S
C131 H132 0.960 . S
H132 C131 0.960 . S
H133 N113 0.862 . S
O134 Co102 1.920 . S
O134 C107 1.289 . S
C135 O127 1.258 . S
C135 O128 1.266 . S
Co136 O139 1.970 . S
Co136 N153 1.989 1_554 S
Co136 O161 1.967 . S
Co136 O168 1.920 1_545 S
Co137 O140 1.966 . S
Co137 N146 2.022 . S
Co137 N154 1.993 1_554 S
Co137 O162 1.941 . S
C138 O139 1.258 . S
C138 O140 1.263 . S
O139 Co136 1.970 . S
O139 C138 1.258 . S
O140 Co137 1.966 . S
O140 C138 1.263 . S
C141 O142 1.235 . S
C141 O168 1.289 . S
O142 C141 1.235 . S
C143 C145 1.400 . S
C143 N146 1.351 . S
C143 C148 1.501 . S
C144 C145 1.387 1_556 S
C144 N147 1.341 1_556 S
C145 C143 1.400 . S
C145 C144 1.387 1_554 S
N146 Co137 2.022 . S
N146 C143 1.351 . S
N146 N147 1.365 . S
N147 C144 1.341 1_554 S
N147 N146 1.365 . S
N147 H167 0.862 1_554 S
C148 C143 1.501 . S
C148 H149 0.961 . S
C148 H150 0.961 . S
C148 H151 0.960 . S
H149 C148 0.961 . S
H150 C148 0.961 . S
H151 C148 0.960 . S
C152 N153 1.342 . S
C152 C156 1.401 . S
C152 C157 1.499 1_545 S
N153 Co136 1.989 1_556 S
N153 C152 1.342 . S
N153 N154 1.388 . S
N154 Co137 1.993 1_556 S
N154 N153 1.388 . S
N154 C155 1.346 . S
C155 N154 1.346 . S
C155 C156 1.396 . S
C155 C165 1.510 . S
C156 C152 1.401 . S
C156 C155 1.396 . S
C157 C152 1.499 1_565 S
C157 H158 0.959 . S
C157 H159 0.960 . S
C157 H160 0.961 . S
H158 C157 0.959 . S
H159 C157 0.960 . S
H160 C157 0.961 . S
O161 Co136 1.967 . S
O161 C169 1.258 . S
O162 Co137 1.941 . S
O162 C169 1.266 . S
H163 C165 0.959 . S
H164 C165 0.961 . S
C165 C155 1.510 . S
C165 H163 0.959 . S
C165 H164 0.961 . S
C165 H166 0.960 . S
H166 C165 0.960 . S
H167 N147 0.862 1_556 S
O168 Co136 1.920 1_565 S
O168 C141 1.289 . S
C169 O161 1.258 . S
C169 O162 1.266 . S
Co170 O173 1.970 . S
Co170 N187 1.989 . S
Co170 O195 1.967 . S
Co170 O202 1.920 1_655 S
Co171 O174 1.966 . S
Co171 N180 2.022 . S
Co171 N188 1.993 . S
Co171 O196 1.941 . S
C172 O173 1.258 . S
C172 O174 1.263 . S
O173 Co170 1.970 . S
O173 C172 1.258 . S
O174 Co171 1.966 . S
O174 C172 1.263 . S
C175 O176 1.235 . S
C175 O202 1.289 . S
O176 C175 1.235 . S
C177 C179 1.400 . S
C177 N180 1.351 . S
C177 C182 1.501 . S
C178 C179 1.387 . S
C178 N181 1.341 . S
C179 C177 1.400 . S
C179 C178 1.387 . S
N180 Co171 2.022 . S
N180 C177 1.351 . S
N180 N181 1.365 . S
N181 C178 1.341 . S
N181 N180 1.365 . S
N181 H201 0.862 . S
C182 C177 1.501 . S
C182 H183 0.961 . S
C182 H184 0.961 . S
C182 H185 0.960 . S
H183 C182 0.961 . S
H184 C182 0.961 . S
H185 C182 0.960 . S
C186 N187 1.342 . S
C186 C190 1.401 . S
C186 C191 1.499 1_655 S
N187 Co170 1.989 . S
N187 C186 1.342 . S
N187 N188 1.388 . S
N188 Co171 1.993 . S
N188 N187 1.388 . S
N188 C189 1.346 . S
C189 N188 1.346 . S
C189 C190 1.396 . S
C189 C199 1.510 . S
C190 C186 1.401 . S
C190 C189 1.396 . S
C191 C186 1.499 1_455 S
C191 H192 0.959 . S
C191 H193 0.960 . S
C191 H194 0.961 . S
H192 C191 0.959 . S
H193 C191 0.960 . S
H194 C191 0.961 . S
O195 Co170 1.967 . S
O195 C203 1.258 . S
O196 Co171 1.941 . S
O196 C203 1.266 . S
H197 C199 0.959 . S
H198 C199 0.961 . S
C199 C189 1.510 . S
C199 H197 0.959 . S
C199 H198 0.961 . S
C199 H200 0.960 . S
H200 C199 0.960 . S
H201 N181 0.862 . S
O202 Co170 1.920 1_455 S
O202 C175 1.289 . S
C203 O195 1.258 . S
C203 O196 1.266 . S
Co204 O207 1.970 . S
Co204 N221 1.989 1_554 S
Co204 O229 1.967 . S
Co204 O236 1.920 1_565 S
Co205 O208 1.966 . S
Co205 N214 2.022 . S
Co205 N222 1.993 1_554 S
Co205 O230 1.941 . S
C206 O207 1.258 . S
C206 O208 1.263 . S
O207 Co204 1.970 . S
O207 C206 1.258 . S
O208 Co205 1.966 . S
O208 C206 1.263 . S
C209 O210 1.235 . S
C209 O236 1.289 . S
O210 C209 1.235 . S
C211 C213 1.400 . S
C211 N214 1.351 . S
C211 C216 1.501 . S
C212 C213 1.387 1_556 S
C212 N215 1.341 1_556 S
C213 C211 1.400 . S
C213 C212 1.387 1_554 S
N214 Co205 2.022 . S
N214 C211 1.351 . S
N214 N215 1.365 . S
N215 C212 1.341 1_554 S
N215 N214 1.365 . S
N215 H235 0.862 1_554 S
C216 C211 1.501 . S
C216 H217 0.961 . S
C216 H218 0.961 . S
C216 H219 0.960 . S
H217 C216 0.961 . S
H218 C216 0.961 . S
H219 C216 0.960 . S
C220 N221 1.342 . S
C220 C224 1.401 . S
C220 C225 1.499 1_565 S
N221 Co204 1.989 1_556 S
N221 C220 1.342 . S
N221 N222 1.388 . S
N222 Co205 1.993 1_556 S
N222 N221 1.388 . S
N222 C223 1.346 . S
C223 N222 1.346 . S
C223 C224 1.396 . S
C223 C233 1.510 . S
C224 C220 1.401 . S
C224 C223 1.396 . S
C225 C220 1.499 1_545 S
C225 H226 0.959 . S
C225 H227 0.960 . S
C225 H228 0.961 . S
H226 C225 0.959 . S
H227 C225 0.960 . S
H228 C225 0.961 . S
O229 Co204 1.967 . S
O229 C237 1.258 . S
O230 Co205 1.941 . S
O230 C237 1.266 . S
H231 C233 0.959 . S
H232 C233 0.961 . S
C233 C223 1.510 . S
C233 H231 0.959 . S
C233 H232 0.961 . S
C233 H234 0.960 . S
H234 C233 0.960 . S
H235 N215 0.862 1_556 S
O236 Co204 1.920 1_545 S
O236 C209 1.289 . S
C237 O229 1.258 . S
C237 O230 1.266 . S
Co238 O241 1.970 . S
Co238 N255 1.989 . S
Co238 O263 1.967 . S
Co238 O270 1.920 1_455 S
Co239 O242 1.966 . S
Co239 N248 2.022 . S
Co239 N256 1.993 . S
Co239 O264 1.941 . S
C240 O241 1.258 . S
C240 O242 1.263 . S
O241 Co238 1.970 . S
O241 C240 1.258 . S
O242 Co239 1.966 . S
O242 C240 1.263 . S
C243 O244 1.235 . S
C243 O270 1.289 . S
O244 C243 1.235 . S
C245 C247 1.400 . S
C245 N248 1.351 . S
C245 C250 1.501 . S
C246 C247 1.387 . S
C246 N249 1.341 . S
C247 C245 1.400 . S
C247 C246 1.387 . S
N248 Co239 2.022 . S
N248 C245 1.351 . S
N248 N249 1.365 . S
N249 C246 1.341 . S
N249 N248 1.365 . S
N249 H269 0.862 . S
C250 C245 1.501 . S
C250 H251 0.961 . S
C250 H252 0.961 . S
C250 H253 0.960 . S
H251 C250 0.961 . S
H252 C250 0.961 . S
H253 C250 0.960 . S
C254 N255 1.342 . S
C254 C258 1.401 . S
C254 C259 1.499 1_455 S
N255 Co238 1.989 . S
N255 C254 1.342 . S
N255 N256 1.388 . S
N256 Co239 1.993 . S
N256 N255 1.388 . S
N256 C257 1.346 . S
C257 N256 1.346 . S
C257 C258 1.396 . S
C257 C267 1.510 . S
C258 C254 1.401 . S
C258 C257 1.396 . S
C259 C254 1.499 1_655 S
C259 H260 0.959 . S
C259 H261 0.960 . S
C259 H262 0.961 . S
H260 C259 0.959 . S
H261 C259 0.960 . S
H262 C259 0.961 . S
O263 Co238 1.967 . S
O263 C271 1.258 . S
O264 Co239 1.941 . S
O264 C271 1.266 . S
H265 C267 0.959 . S
H266 C267 0.961 . S
C267 C257 1.510 . S
C267 H265 0.959 . S
C267 H266 0.961 . S
C267 H268 0.960 . S
H268 C267 0.960 . S
H269 N249 0.862 . S
O270 Co238 1.920 1_655 S
O270 C243 1.289 . S
C271 O263 1.258 . S
C271 O264 1.266 . S
C209 C9 0.918 . S
C243 C43 0.918 . S
C141 C77 0.918 . S
C175 C111 0.918 . S
C73 C145 0.918 . S
C107 C179 0.918 . S
C5 C213 0.918 . S
C247 C39 0.918 . S
C101 C33 4.030 . S
C67 C135 4.030 . S
C237 C169 4.030 1_465 S
C203 C271 4.030 1_665 S
C20 C258 2.421 . S
C156 C54 2.421 . S
C190 C88 2.421 . S
C224 C122 2.421 . S
C70 C172 3.528 . S
C104 C206 3.528 . S
C240 C2 3.528 . S
C138 C36 3.528 . S
