# Generated by pormake.
# Topology irl, (4)-cn, num edge types: 1
# Building blocks:
#     Node 0, Type 0, BuildingBlock: TATPOV_clean_sbu_0, # of connection points: 4
#     Node 1, Type 0, BuildingBlock: TATPOV_clean_sbu_0, # of connection points: 4
#     Node 2, Type 0, BuildingBlock: TATPOV_clean_sbu_0, # of connection points: 4
#     Node 3, Type 0, BuildingBlock: TATPOV_clean_sbu_0, # of connection points: 4
#     Node 4, Type 0, BuildingBlock: TATPOV_clean_sbu_0, # of connection points: 4
#     Node 5, Type 0, BuildingBlock: TATPOV_clean_sbu_0, # of connection points: 4
#     Node 6, Type 0, BuildingBlock: TATPOV_clean_sbu_0, # of connection points: 4
#     Node 7, Type 0, BuildingBlock: TATPOV_clean_sbu_0, # of connection points: 4
#     Edge 8, Type (0, 0), BuildingBlock: EZIPEK_clean_linker_0, # of connection points: 2
#     Edge 9, Type (0, 0), BuildingBlock: EZIPEK_clean_linker_0, # of connection points: 2
#     Edge 10, Type (0, 0), BuildingBlock: EZIPEK_clean_linker_0, # of connection points: 2
#     Edge 11, Type (0, 0), BuildingBlock: EZIPEK_clean_linker_0, # of connection points: 2
#     Edge 12, Type (0, 0), BuildingBlock: EZIPEK_clean_linker_0, # of connection points: 2
#     Edge 13, Type (0, 0), BuildingBlock: EZIPEK_clean_linker_0, # of connection points: 2
#     Edge 14, Type (0, 0), BuildingBlock: EZIPEK_clean_linker_0, # of connection points: 2
#     Edge 15, Type (0, 0), BuildingBlock: EZIPEK_clean_linker_0, # of connection points: 2
#     Edge 16, Type (0, 0), BuildingBlock: EZIPEK_clean_linker_0, # of connection points: 2
#     Edge 17, Type (0, 0), BuildingBlock: EZIPEK_clean_linker_0, # of connection points: 2
#     Edge 18, Type (0, 0), BuildingBlock: EZIPEK_clean_linker_0, # of connection points: 2
#     Edge 19, Type (0, 0), BuildingBlock: EZIPEK_clean_linker_0, # of connection points: 2
#     Edge 20, Type (0, 0), BuildingBlock: EZIPEK_clean_linker_0, # of connection points: 2
#     Edge 21, Type (0, 0), BuildingBlock: EZIPEK_clean_linker_0, # of connection points: 2
#     Edge 22, Type (0, 0), BuildingBlock: EZIPEK_clean_linker_0, # of connection points: 2
#     Edge 23, Type (0, 0), BuildingBlock: EZIPEK_clean_linker_0, # of connection points: 2
# Relax obj value: 0.139
# Max RMSD: 0.159
# Mean RMSD: 0.159
data_MOF--net-irl--node1-TATPOV_clean_sbu_0--edge1-EZIPEK_clean_linker_0
_symmetry_space_group_name_H-M    P1
_symmetry_Int_Tables_number       1
_symmetry_cell_setting            triclinic
loop_
_symmetry_equiv_pos_as_xyz
'x, y, z'
_cell_length_a     29.324987
_cell_length_b     23.533426
_cell_length_c     21.08211
_cell_angle_alpha  90.25938
_cell_angle_beta   89.754407
_cell_angle_gamma 89.982258
loop_
_atom_site_label
_atom_site_type_symbol
_atom_site_fract_x
_atom_site_fract_y
_atom_site_fract_z
_atom_type_partial_charge
Zn0 Zn 0.98784 0.20222 -0.01908 0.0
Zn1 Zn 0.07914 0.20228 -0.01002 0.0
O2 O 0.06468 0.23759 0.90283 0.0
O3 O 0.98988 0.23691 0.89363 0.0
O4 O 0.14773 0.21172 -0.00342 0.0
O5 O 0.98058 0.24638 0.06304 0.0
O6 O 0.05464 0.23526 0.07425 0.0
C7 C 0.02889 0.24631 0.87012 0.0
C8 C 0.02993 0.0895 -0.01206 0.0
O9 O 0.06764 0.11646 -0.01171 0.0
O10 O 0.99224 0.11585 -0.0139 0.0
C11 C 0.17389 0.19141 0.95389 0.0
O12 O 0.15631 0.16341 0.90585 0.0
C13 C 1.01613 0.25076 0.09659 0.0
Zn14 Zn 0.05694 0.72958 0.00824 0.0
Zn15 Zn 0.96552 0.73504 0.00081 0.0
O16 O 0.98806 0.70167 0.91609 0.0
O17 O 0.06125 0.68339 0.92688 0.0
O18 O 0.89666 0.72797 -0.00303 0.0
O19 O 0.05507 0.69607 0.09596 0.0
O20 O 0.98027 0.69926 0.08753 0.0
C21 C 0.0255 0.68299 0.89338 0.0
C22 C 1.01834 0.84476 0.00067 0.0
O23 O 0.97967 0.82006 0.00126 0.0
O24 O 0.05507 0.81631 0.00212 0.0
C25 C 0.8728 0.75014 0.9534 0.0
O26 O 0.89278 0.7794 0.90825 0.0
C27 C 1.01591 0.6888 0.11991 0.0
Zn28 Zn 0.98571 0.72771 0.50867 0.0
Zn29 Zn 0.07798 0.73605 0.50169 0.0
O30 O 0.06186 0.70119 0.58842 0.0
O31 O 0.98736 0.69109 0.59516 0.0
O32 O 0.1476 0.73256 0.49577 0.0
O33 O 0.98268 0.68398 0.42606 0.0
O34 O 0.0562 0.70129 0.41706 0.0
C35 C 0.02647 0.68682 0.61975 0.0
C36 C 0.02263 0.8442 0.5024 0.0
O37 O 0.06173 0.82046 0.5025 0.0
O38 O 0.98643 0.81468 0.50395 0.0
C39 C 0.17277 0.71262 0.53949 0.0
O40 O 0.15411 0.69415 0.59221 0.0
C41 C 1.01907 0.68269 0.39359 0.0
Zn42 Zn 0.05134 0.20166 0.48019 0.0
Zn43 Zn 0.96006 0.20197 0.49105 0.0
O44 O 0.98425 0.2355 0.57492 0.0
O45 O 0.05841 0.24553 0.5625 0.0
O46 O 0.89139 0.21155 0.49666 0.0
O47 O 0.04963 0.23674 0.39317 0.0
O48 O 0.97486 0.23653 0.40343 0.0
C49 C 0.02295 0.2505 0.59658 0.0
C50 C 1.00918 0.08902 0.48856 0.0
O51 O 0.97155 0.11611 0.49042 0.0
O52 O 0.04687 0.11523 0.48475 0.0
C53 C 0.8659 0.17983 0.53018 0.0
O54 O 0.88404 0.13913 0.56422 0.0
C55 C 1.01053 0.24564 0.37019 0.0
Zn56 Zn 0.48995 0.70985 -0.02384 0.0
Zn57 Zn 0.58188 0.70607 -0.01756 0.0
O58 O 0.5657 0.74202 0.8961 0.0
O59 O 0.49081 0.74572 0.88966 0.0
O60 O 0.65126 0.71186 -0.01209 0.0
O61 O 0.48533 0.75331 0.05889 0.0
O62 O 0.55933 0.73975 0.06747 0.0
C63 C 0.52967 0.75313 0.86484 0.0
C64 C 0.52937 0.59534 -0.01918 0.0
O65 O 0.56777 0.62078 -0.01895 0.0
O66 O 0.49238 0.62326 -0.02037 0.0
C67 C 0.67667 0.72082 0.93981 0.0
O68 O 0.65827 0.72532 0.88339 0.0
C69 C 0.52155 0.75649 0.09115 0.0
Zn70 Zn 0.55655 0.23551 -0.0135 0.0
Zn71 Zn 0.46376 0.23897 -0.00818 0.0
O72 O 0.4825 0.20453 0.90579 0.0
O73 O 0.55685 0.19164 0.90356 0.0
O74 O 0.39437 0.23315 -0.00501 0.0
O75 O 0.5588 0.20008 0.07392 0.0
O76 O 0.48368 0.20308 0.07573 0.0
C77 C 0.51843 0.18818 0.87674 0.0
C78 C 0.51588 0.34993 -0.01304 0.0
O79 O 0.47787 0.32419 -0.00695 0.0
O80 O 0.55285 0.32221 -0.01826 0.0
C81 C 0.36984 0.22301 0.94655 0.0
O82 O 0.3892 0.21735 0.8906 0.0
C83 C 0.52143 0.19208 0.10278 0.0
Zn84 Zn 0.48673 0.23251 0.48914 0.0
Zn85 Zn 0.57782 0.23906 0.49273 0.0
O86 O 0.55529 0.20678 0.5785 0.0
O87 O 0.48188 0.18885 0.57101 0.0
O88 O 0.64719 0.23282 0.49455 0.0
O89 O 0.48603 0.19348 0.40427 0.0
O90 O 0.56053 0.20466 0.40535 0.0
C91 C 0.51831 0.1884 0.60286 0.0
C92 C 0.52573 0.34884 0.49043 0.0
O93 O 0.56434 0.32401 0.49129 0.0
O94 O 0.48902 0.32017 0.49081 0.0
C95 C 0.66917 0.20413 0.53537 0.0
O96 O 0.64703 0.17703 0.58025 0.0
C97 C 0.52429 0.18922 0.37679 0.0
Zn98 Zn 0.5544 0.7072 0.47648 0.0
Zn99 Zn 0.46297 0.70681 0.48315 0.0
O100 O 0.48542 0.7404 0.56795 0.0
O101 O 0.55971 0.75122 0.55876 0.0
O102 O 0.39424 0.71614 0.48671 0.0
O103 O 0.55426 0.74217 0.38932 0.0
O104 O 0.47931 0.742 0.39658 0.0
C105 C 0.52348 0.75601 0.59121 0.0
C106 C 0.51262 0.59418 0.48263 0.0
O107 O 0.47479 0.62093 0.48193 0.0
O108 O 0.5502 0.62082 0.48137 0.0
C109 C 0.36913 0.68809 0.52458 0.0
O110 O 0.38774 0.65166 0.56375 0.0
C111 C 0.51565 0.75127 0.36487 0.0
C112 C 1.01457 0.93491 0.9383 0.0
C113 C 1.02097 0.90742 -0.00264 0.0
C114 C 0.03902 -0.00132 0.04816 0.0
C115 C 0.02944 0.02665 -0.00981 0.0
N116 N 1.00503 0.02343 0.88113 0.0
N117 N 0.03418 0.91198 0.10995 0.0
C118 C 1.01628 -0.0047 0.93552 0.0
C119 C 0.03202 0.93898 0.05269 0.0
N120 N 1.00842 0.90303 0.88456 0.0
N121 N 0.05502 0.02923 0.09876 0.0
H122 H 0.02987 0.86822 0.1148 0.0
H123 H 0.03697 0.93296 0.1533 0.0
H124 H 0.0589 0.07326 0.09811 0.0
H125 H 0.06734 0.01093 0.14012 0.0
H126 H 1.00882 0.91967 0.83891 0.0
H127 H 1.00582 0.85883 0.88505 0.0
H128 H 0.98996 0.00404 0.84203 0.0
H129 H 1.00866 0.06726 0.87596 0.0
C130 C 1.00065 0.93781 0.55137 0.0
C131 C 1.01895 0.90694 0.49902 0.0
C132 C 0.02437 -0.00511 0.43721 0.0
C133 C 1.00962 0.02618 0.49117 0.0
N134 N 0.98801 0.02957 0.60157 0.0
N135 N 0.05182 0.90554 0.39379 0.0
C136 C 0.99854 -0.0018 0.5487 0.0
C137 C 0.03199 0.93538 0.44245 0.0
N138 N 0.98527 0.90933 0.6037 0.0
N139 N 0.02931 0.02192 0.38024 0.0
H140 H 0.0557 0.86153 0.39406 0.0
H141 H 0.06703 0.92452 0.35455 0.0
H142 H 0.0238 0.0654 0.37467 0.0
H143 H 0.03508 0.00096 0.33739 0.0
H144 H 0.96647 0.92831 0.64002 0.0
H145 H 0.98908 0.86563 0.60953 0.0
H146 H 0.98518 0.01259 0.64691 0.0
H147 H 0.98489 0.07369 0.60113 0.0
C148 C 0.50704 0.50296 0.93044 0.0
C149 C 0.52724 0.53244 -0.01797 0.0
C150 C 0.54069 0.44206 0.03655 0.0
C151 C 0.51763 0.41296 -0.01314 0.0
N152 N 0.47277 0.41611 0.8911 0.0
N153 N 0.55708 0.53196 0.08844 0.0
C154 C 0.49878 0.44358 0.93532 0.0
C155 C 0.54264 0.5025 0.03616 0.0
N156 N 0.49764 0.53138 0.87554 0.0
N157 N 0.56069 0.4119 0.08427 0.0
H158 H 0.55951 0.57613 0.08988 0.0
H159 H 0.56343 0.51321 0.13214 0.0
H160 H 0.55702 0.3681 0.08937 0.0
H161 H 0.58295 0.42974 0.11714 0.0
H162 H 0.48781 0.51134 0.83365 0.0
H163 H 0.50364 0.57474 0.86988 0.0
H164 H 0.45381 0.43707 0.85673 0.0
H165 H 0.46706 0.37246 0.89146 0.0
C166 C 0.53774 0.44153 0.4339 0.0
C167 C 0.52317 0.41186 0.48892 0.0
C168 C 0.49927 0.50178 0.53901 0.0
C169 C 0.51355 0.53124 0.48375 0.0
N170 N 0.53892 0.52998 0.37494 0.0
N171 N 0.49721 0.41296 0.59742 0.0
C172 C 0.53103 0.50134 0.4303 0.0
C173 C 0.50538 0.44176 0.54228 0.0
N174 N 0.55906 0.41268 0.38571 0.0
N175 N 0.47962 0.5313 0.58809 0.0
H176 H 0.50314 0.36953 0.602 0.0
H177 H 0.48805 0.43198 0.6402 0.0
H178 H 0.4766 0.57542 0.58872 0.0
H179 H 0.46395 0.51246 0.62701 0.0
H180 H 0.57524 0.43219 0.3476 0.0
H181 H 0.56361 0.36881 0.3856 0.0
H182 H 0.54672 0.5104 0.33192 0.0
H183 H 0.53405 0.57366 0.37039 0.0
C184 C 0.9969 0.20281 0.19801 0.0
C185 C 1.01061 0.25322 0.1664 0.0
C186 C 0.02191 0.30104 0.26898 0.0
C187 C 1.00649 0.25125 0.30037 0.0
N188 N 0.97342 0.15695 0.295 0.0
N189 N 0.03086 0.35209 0.16931 0.0
C190 C 0.99175 0.20312 0.2649 0.0
C191 C 0.02153 0.30301 0.20122 0.0
N192 N 0.99159 0.15328 0.16437 0.0
N193 N 0.03756 0.34586 0.30411 0.0
H194 H 0.03124 0.35412 0.11986 0.0
H195 H 0.03528 0.3914 0.1912 0.0
H196 H 0.03609 0.34658 0.35357 0.0
H197 H 0.05369 0.38121 0.28483 0.0
H198 H 0.98824 0.11351 0.18529 0.0
H199 H 0.99418 0.1506 0.11514 0.0
H200 H 0.95581 0.12482 0.27144 0.0
H201 H 0.97308 0.1516 0.34397 0.0
C202 C 0.02639 0.63115 0.2887 0.0
C203 C 1.01496 0.68073 0.32369 0.0
C204 C 0.99729 0.73149 0.22541 0.0
C205 C 1.01208 0.68334 0.18979 0.0
N206 N 0.04288 0.58855 0.18561 0.0
N207 N 0.9948 0.78029 0.32656 0.0
C208 C 0.0272 0.63336 0.22095 0.0
C209 C 1.00135 0.73125 0.29237 0.0
N210 N 0.03575 0.58203 0.32044 0.0
N211 N 0.97985 0.77814 0.19536 0.0
H212 H 0.99594 0.7823 0.3759 0.0
H213 H 0.99153 0.82031 0.30626 0.0
H214 H 0.98083 0.78416 0.14651 0.0
H215 H 0.96192 0.81026 0.21868 0.0
H216 H 0.04056 0.54281 0.29846 0.0
H217 H 0.03591 0.57988 0.36988 0.0
H218 H 0.05873 0.55299 0.20468 0.0
H219 H 0.04168 0.58796 0.13615 0.0
C220 C 0.04255 0.73148 0.72455 0.0
C221 C 0.02979 0.68227 0.68961 0.0
C222 C 1.01438 0.6316 0.78913 0.0
C223 C 0.03023 0.67956 0.82356 0.0
N224 N 0.06655 0.77199 0.8243 0.0
N225 N 1.00876 0.58349 0.68694 0.0
C226 C 0.04692 0.72821 0.79126 0.0
C227 C 1.01717 0.63161 0.72145 0.0
N228 N 0.04722 0.78274 0.69463 0.0
N229 N 0.99597 0.58673 0.82117 0.0
H230 H 1.01043 0.58265 0.63748 0.0
H231 H 1.0034 0.54372 0.70703 0.0
H232 H 0.99513 0.5849 0.87062 0.0
H233 H 0.97944 0.5529 0.79915 0.0
H234 H 0.05046 0.82126 0.7187 0.0
H235 H 0.04333 0.78828 0.64595 0.0
H236 H 0.08475 0.8046 0.80258 0.0
H237 H 0.06779 0.77413 0.87361 0.0
C238 C 1.01706 0.30129 0.76887 0.0
C239 C 0.03281 0.25173 0.80024 0.0
C240 C 0.04283 0.20313 0.69792 0.0
C241 C 0.02863 0.25327 0.66631 0.0
N242 N 1.00753 0.35189 0.66911 0.0
N243 N 0.06614 0.15755 0.79492 0.0
C244 C 1.01732 0.30303 0.70109 0.0
C245 C 0.04781 0.20361 0.76478 0.0
N246 N 1.00121 0.3461 0.80406 0.0
N247 N 0.04869 0.15362 0.66435 0.0
H248 H 0.06593 0.15208 0.84388 0.0
H249 H 0.08413 0.12557 0.77144 0.0
H250 H 0.0462 0.15079 0.61515 0.0
H251 H 0.05246 0.11394 0.68528 0.0
H252 H 0.98488 0.38127 0.7849 0.0
H253 H 1.00275 0.34697 0.8535 0.0
H254 H 1.00278 0.39121 0.69089 0.0
H255 H 1.0071 0.35375 0.61966 0.0
C256 C 0.50422 0.70771 0.19257 0.0
C257 C 0.51716 0.75848 0.16107 0.0
C258 C 0.52779 0.80646 0.26368 0.0
C259 C 0.51293 0.75635 0.29494 0.0
N260 N 0.48189 0.66101 0.28961 0.0
N261 N 0.53639 0.85768 0.16405 0.0
C262 C 0.49926 0.70775 0.25946 0.0
C263 C 0.52753 0.80844 0.19592 0.0
N264 N 0.49916 0.65827 0.15869 0.0
N265 N 0.54272 0.85159 0.29893 0.0
H266 H 0.53697 0.85969 0.11461 0.0
H267 H 0.54035 0.89706 0.18595 0.0
H268 H 0.5413 0.85214 0.3484 0.0
H269 H 0.55831 0.88735 0.27977 0.0
H270 H 0.49639 0.61832 0.17934 0.0
H271 H 0.50122 0.65594 0.1094 0.0
H272 H 0.46492 0.62828 0.26618 0.0
H273 H 0.48182 0.65564 0.33858 0.0
C274 C 0.5164 0.23972 0.27452 0.0
C275 C 0.5245 0.1878 0.30666 0.0
C276 C 0.53299 0.13782 0.2047 0.0
C277 C 0.5221 0.18908 0.17288 0.0
N278 N 0.50062 0.2884 0.17629 0.0
N279 N 0.53714 0.08691 0.30503 0.0
C280 C 0.51297 0.23985 0.20752 0.0
C281 C 0.53199 0.13658 0.27249 0.0
N282 N 0.51346 0.28954 0.30821 0.0
N283 N 0.54464 0.09081 0.16994 0.0
H284 H 0.53745 0.08541 0.3545 0.0
H285 H 0.5387 0.04702 0.28369 0.0
H286 H 0.54418 0.0903 0.12045 0.0
H287 H 0.5569 0.05332 0.1895 0.0
H288 H 0.51403 0.32966 0.28771 0.0
H289 H 0.51349 0.29155 0.35759 0.0
H290 H 0.48674 0.32398 0.19859 0.0
H291 H 0.5019 0.29285 0.12718 0.0
C292 C 0.50497 0.23481 0.77313 0.0
C293 C 0.51712 0.18492 0.80662 0.0
C294 C 0.53185 0.13584 0.70547 0.0
C295 C 0.51514 0.1841 0.67273 0.0
N296 N 0.47727 0.27557 0.67611 0.0
N297 N 0.53814 0.0861 0.80616 0.0
C298 C 0.4987 0.23206 0.70684 0.0
C299 C 0.52952 0.13474 0.77321 0.0
N300 N 0.50264 0.2861 0.80391 0.0
N301 N 0.55034 0.0917 0.67185 0.0
H302 H 0.53701 0.08459 0.85561 0.0
H303 H 0.54328 0.04666 0.78474 0.0
H304 H 0.55091 0.09074 0.62235 0.0
H305 H 0.56726 0.05773 0.69272 0.0
H306 H 0.49907 0.3247 0.78043 0.0
H307 H 0.50962 0.29125 0.85201 0.0
H308 H 0.45979 0.30786 0.69992 0.0
H309 H 0.47343 0.27738 0.62709 0.0
C310 C 0.52051 0.80831 0.76316 0.0
C311 C 0.53254 0.75734 0.79484 0.0
C312 C 0.53775 0.70683 0.69308 0.0
C313 C 0.52774 0.7583 0.66108 0.0
N314 N 0.51469 0.85909 0.66296 0.0
N315 N 0.5583 0.65954 0.79028 0.0
C316 C 0.52063 0.80951 0.69537 0.0
C317 C 0.5432 0.70724 0.75982 0.0
N318 N 0.50835 0.85504 0.79804 0.0
N319 N 0.53974 0.65668 0.65987 0.0
H320 H 0.55889 0.65502 0.83936 0.0
H321 H 0.57304 0.62503 0.7669 0.0
H322 H 0.53739 0.65401 0.61064 0.0
H323 H 0.54022 0.61684 0.6811 0.0
H324 H 0.49484 0.89192 0.77862 0.0
H325 H 0.50991 0.85593 0.84748 0.0
H326 H 0.51334 0.89897 0.68439 0.0
H327 H 0.51394 0.86059 0.6135 0.0
C328 C 0.29091 0.25318 0.91553 0.0
C329 C 0.31944 0.21774 0.95258 0.0
C330 C 0.25166 0.17171 -0.00167 0.0
C331 C 0.22369 0.20238 0.95571 0.0
N332 N 0.21625 0.26912 0.86986 0.0
N333 N 0.32757 0.13767 0.0229 0.0
C334 C 0.24324 0.24214 0.91308 0.0
C335 C 0.3 0.17584 -0.00714 0.0
N336 N 0.30915 0.29905 0.88493 0.0
N337 N 0.23205 0.1384 0.04386 0.0
H338 H 0.36302 0.13822 0.01917 0.0
H339 H 0.31535 0.10231 0.04712 0.0
H340 H 0.1969 0.13235 0.04757 0.0
H341 H 0.25025 0.12021 0.0809 0.0
H342 H 0.28962 0.32989 0.86248 0.0
H343 H 0.34367 0.30953 0.88711 0.0
H344 H 0.22914 0.29295 0.83235 0.0
H345 H 0.18085 0.26493 0.86901 0.0
C346 C 0.74584 0.76827 -0.01257 0.0
C347 C 0.727 0.72614 0.94671 0.0
C348 C 0.80385 0.70158 0.90849 0.0
C349 C 0.82274 0.74105 0.95212 0.0
N350 N 0.81291 0.80534 0.04049 0.0
N351 N 0.73841 0.64461 0.87871 0.0
C352 C 0.79407 0.77209 -0.00585 0.0
C353 C 0.75612 0.6906 0.90991 0.0
N354 N 0.71788 0.80689 0.01677 0.0
N355 N 0.83149 0.67474 0.86537 0.0
H356 H 0.7039 0.63401 0.88031 0.0
H357 H 0.75834 0.61376 0.85641 0.0
H358 H 0.86687 0.67928 0.86492 0.0
H359 H 0.81916 0.65093 0.82738 0.0
H360 H 0.72985 0.84233 0.04131 0.0
H361 H 0.68252 0.80668 0.01201 0.0
H362 H 0.79402 0.82365 0.07719 0.0
H363 H 0.84799 0.81128 0.0451 0.0
C364 C 0.25119 0.73853 0.57684 0.0
C365 C 0.22317 0.71026 0.5319 0.0
C366 C 0.29152 0.67469 0.47668 0.0
C367 C 0.31909 0.69748 0.52579 0.0
N368 N 0.3257 0.74739 0.62547 0.0
N369 N 0.21598 0.6453 0.44357 0.0
C370 C 0.29904 0.72828 0.57677 0.0
C371 C 0.24313 0.67715 0.48254 0.0
N372 N 0.23222 0.77711 0.6179 0.0
N373 N 0.3116 0.65049 0.42449 0.0
H374 H 0.18049 0.64523 0.44664 0.0
H375 H 0.22853 0.6153 0.41153 0.0
H376 H 0.34678 0.6454 0.41983 0.0
H377 H 0.29371 0.63915 0.3838 0.0
H378 H 0.25122 0.80348 0.64745 0.0
H379 H 0.1975 0.78677 0.61828 0.0
H380 H 0.31259 0.76386 0.66769 0.0
H381 H 0.36115 0.74362 0.62547 0.0
C382 C 0.74603 0.22168 0.58369 0.0
C383 C 0.71972 0.20061 0.53232 0.0
C384 C 0.78986 0.17215 0.47637 0.0
C385 C 0.81574 0.18827 0.53032 0.0
N386 N 0.81896 0.22384 0.63766 0.0
N387 N 0.71549 0.14867 0.43361 0.0
C388 C 0.79392 0.21159 0.58475 0.0
C389 C 0.74135 0.17434 0.47937 0.0
N390 N 0.72545 0.25355 0.63009 0.0
N391 N 0.81165 0.15457 0.42225 0.0
H392 H 0.67993 0.14881 0.43426 0.0
H393 H 0.72899 0.12317 0.3977 0.0
H394 H 0.84689 0.14922 0.41919 0.0
H395 H 0.79521 0.14887 0.37901 0.0
H396 H 0.74323 0.2753 0.66524 0.0
H397 H 0.69062 0.26255 0.63038 0.0
H398 H 0.80453 0.23431 0.68137 0.0
H399 H 0.8544 0.22023 0.63909 0.0
loop_
_geom_bond_atom_site_label_1
_geom_bond_atom_site_label_2
_geom_bond_distance
_geom_bond_site_symmetry_2
_ccdc_geom_bond_type
Zn0 O3 2.031 1_554 S
Zn0 O5 2.049 . S
Zn0 O10 2.067 . S
Zn1 O2 1.962 1_554 S
Zn1 O4 1.986 . S
Zn1 O6 1.996 . S
Zn1 O9 1.943 . S
O2 Zn1 1.962 1_556 S
O2 C7 1.254 . S
O3 Zn0 2.031 1_556 S
O3 C7 1.269 1_655 S
O4 Zn1 1.986 . S
O4 C11 1.262 . S
O5 Zn0 2.049 . S
O5 C13 1.260 1_655 S
O6 Zn1 1.996 . S
O6 C13 1.257 . S
C7 O2 1.254 . S
C7 O3 1.269 1_455 S
C8 O9 1.249 . S
C8 O10 1.270 1_455 S
O9 Zn1 1.943 . S
O9 C8 1.249 . S
O10 Zn0 2.067 . S
O10 C8 1.270 1_655 S
C11 O4 1.262 . S
C11 O12 1.232 1_554 S
O12 C11 1.232 1_556 S
C13 O5 1.260 1_455 S
C13 O6 1.257 . S
Zn14 O17 2.031 1_554 S
Zn14 O19 2.049 . S
Zn14 O24 2.067 . S
Zn15 O16 1.962 1_554 S
Zn15 O18 1.986 . S
Zn15 O20 1.996 . S
Zn15 O23 1.943 . S
O16 Zn15 1.962 1_556 S
O16 C21 1.254 . S
O17 Zn14 2.031 1_556 S
O17 C21 1.269 1_455 S
O18 Zn15 1.986 . S
O18 C25 1.262 . S
O19 Zn14 2.049 . S
O19 C27 1.260 1_455 S
O20 Zn15 1.996 . S
O20 C27 1.257 . S
C21 O16 1.254 . S
C21 O17 1.269 1_655 S
C22 O23 1.249 . S
C22 O24 1.270 1_655 S
O23 Zn15 1.943 . S
O23 C22 1.249 . S
O24 Zn14 2.067 . S
O24 C22 1.270 1_455 S
C25 O18 1.262 . S
C25 O26 1.232 1_554 S
O26 C25 1.232 1_556 S
C27 O19 1.260 1_655 S
C27 O20 1.257 . S
Zn28 O31 2.031 . S
Zn28 O33 2.049 . S
Zn28 O38 2.067 . S
Zn29 O30 1.962 . S
Zn29 O32 1.986 . S
Zn29 O34 1.996 . S
Zn29 O37 1.943 . S
O30 Zn29 1.962 . S
O30 C35 1.254 . S
O31 Zn28 2.031 . S
O31 C35 1.269 1_655 S
O32 Zn29 1.986 . S
O32 C39 1.262 . S
O33 Zn28 2.049 . S
O33 C41 1.260 1_655 S
O34 Zn29 1.996 . S
O34 C41 1.257 . S
C35 O30 1.254 . S
C35 O31 1.269 1_455 S
C36 O37 1.249 . S
C36 O38 1.270 1_455 S
O37 Zn29 1.943 . S
O37 C36 1.249 . S
O38 Zn28 2.067 . S
O38 C36 1.270 1_655 S
C39 O32 1.262 . S
C39 O40 1.232 . S
O40 C39 1.232 . S
C41 O33 1.260 1_455 S
C41 O34 1.257 . S
Zn42 O45 2.031 . S
Zn42 O47 2.049 . S
Zn42 O52 2.067 . S
Zn43 O44 1.962 . S
Zn43 O46 1.986 . S
Zn43 O48 1.996 . S
Zn43 O51 1.943 . S
O44 Zn43 1.962 . S
O44 C49 1.254 . S
O45 Zn42 2.031 . S
O45 C49 1.269 1_455 S
O46 Zn43 1.986 . S
O46 C53 1.262 . S
O47 Zn42 2.049 . S
O47 C55 1.260 1_455 S
O48 Zn43 1.996 . S
O48 C55 1.257 . S
C49 O44 1.254 . S
C49 O45 1.269 1_655 S
C50 O51 1.249 . S
C50 O52 1.270 1_655 S
O51 Zn43 1.943 . S
O51 C50 1.249 . S
O52 Zn42 2.067 . S
O52 C50 1.270 1_455 S
C53 O46 1.262 . S
C53 O54 1.232 . S
O54 C53 1.232 . S
C55 O47 1.260 1_655 S
C55 O48 1.257 . S
Zn56 O59 2.031 1_554 S
Zn56 O61 2.049 . S
Zn56 O66 2.067 . S
Zn57 O58 1.962 1_554 S
Zn57 O60 1.986 . S
Zn57 O62 1.996 . S
Zn57 O65 1.943 . S
O58 Zn57 1.962 1_556 S
O58 C63 1.254 . S
O59 Zn56 2.031 1_556 S
O59 C63 1.269 . S
O60 Zn57 1.986 . S
O60 C67 1.262 . S
O61 Zn56 2.049 . S
O61 C69 1.260 . S
O62 Zn57 1.996 . S
O62 C69 1.257 . S
C63 O58 1.254 . S
C63 O59 1.269 . S
C64 O65 1.249 . S
C64 O66 1.270 . S
O65 Zn57 1.943 . S
O65 C64 1.249 . S
O66 Zn56 2.067 . S
O66 C64 1.270 . S
C67 O60 1.262 . S
C67 O68 1.232 1_554 S
O68 C67 1.232 1_556 S
C69 O61 1.260 . S
C69 O62 1.257 . S
Zn70 O73 2.031 1_554 S
Zn70 O75 2.049 . S
Zn70 O80 2.067 . S
Zn71 O72 1.962 1_554 S
Zn71 O74 1.986 . S
Zn71 O76 1.996 . S
Zn71 O79 1.943 . S
O72 Zn71 1.962 1_556 S
O72 C77 1.254 . S
O73 Zn70 2.031 1_556 S
O73 C77 1.269 . S
O74 Zn71 1.986 . S
O74 C81 1.262 . S
O75 Zn70 2.049 . S
O75 C83 1.260 . S
O76 Zn71 1.996 . S
O76 C83 1.257 . S
C77 O72 1.254 . S
C77 O73 1.269 . S
C78 O79 1.249 . S
C78 O80 1.270 . S
O79 Zn71 1.943 . S
O79 C78 1.249 . S
O80 Zn70 2.067 . S
O80 C78 1.270 . S
C81 O74 1.262 . S
C81 O82 1.232 1_554 S
O82 C81 1.232 1_556 S
C83 O75 1.260 . S
C83 O76 1.257 . S
Zn84 O87 2.031 . S
Zn84 O89 2.049 . S
Zn84 O94 2.067 . S
Zn85 O86 1.962 . S
Zn85 O88 1.986 . S
Zn85 O90 1.996 . S
Zn85 O93 1.943 . S
O86 Zn85 1.962 . S
O86 C91 1.254 . S
O87 Zn84 2.031 . S
O87 C91 1.269 . S
O88 Zn85 1.986 . S
O88 C95 1.262 . S
O89 Zn84 2.049 . S
O89 C97 1.260 . S
O90 Zn85 1.996 . S
O90 C97 1.257 . S
C91 O86 1.254 . S
C91 O87 1.269 . S
C92 O93 1.249 . S
C92 O94 1.270 . S
O93 Zn85 1.943 . S
O93 C92 1.249 . S
O94 Zn84 2.067 . S
O94 C92 1.270 . S
C95 O88 1.262 . S
C95 O96 1.232 . S
O96 C95 1.232 . S
C97 O89 1.260 . S
C97 O90 1.257 . S
Zn98 O101 2.031 . S
Zn98 O103 2.049 . S
Zn98 O108 2.067 . S
Zn99 O100 1.962 . S
Zn99 O102 1.986 . S
Zn99 O104 1.996 . S
Zn99 O107 1.943 . S
O100 Zn99 1.962 . S
O100 C105 1.254 . S
O101 Zn98 2.031 . S
O101 C105 1.269 . S
O102 Zn99 1.986 . S
O102 C109 1.262 . S
O103 Zn98 2.049 . S
O103 C111 1.260 . S
O104 Zn99 1.996 . S
O104 C111 1.257 . S
C105 O100 1.254 . S
C105 O101 1.269 . S
C106 O107 1.249 . S
C106 O108 1.270 . S
O107 Zn99 1.943 . S
O107 C106 1.249 . S
O108 Zn98 2.067 . S
O108 C106 1.270 . S
C109 O102 1.262 . S
C109 O110 1.232 . S
O110 C109 1.232 . S
C111 O103 1.260 . S
C111 O104 1.257 . S
C112 C113 1.363 1_456 S
C112 C118 1.379 1_565 S
C112 N120 1.356 . S
C113 C112 1.363 1_654 S
C113 C119 1.363 . S
C114 C115 1.363 1_655 S
C114 C119 1.379 1_545 S
C114 N121 1.356 . S
C115 C114 1.363 1_455 S
C115 C118 1.363 1_554 S
N116 C118 1.356 . S
N116 H128 0.984 . S
N116 H129 0.985 . S
N117 C119 1.356 . S
N117 H122 0.984 . S
N117 H123 0.985 . S
C118 C112 1.379 1_545 S
C118 C115 1.363 1_556 S
C118 N116 1.356 . S
C119 C113 1.363 . S
C119 C114 1.379 1_565 S
C119 N117 1.356 . S
N120 C112 1.356 . S
N120 H126 0.984 . S
N120 H127 0.984 1_455 S
N121 C114 1.356 . S
N121 H124 0.984 1_655 S
N121 H125 0.985 . S
H122 N117 0.984 . S
H123 N117 0.985 . S
H124 N121 0.984 1_455 S
H125 N121 0.985 . S
H126 N120 0.984 . S
H127 N120 0.984 1_655 S
H128 N116 0.984 . S
H129 N116 0.985 . S
C130 C131 1.363 1_655 S
C130 C136 1.379 1_565 S
C130 N138 1.356 . S
C131 C130 1.363 1_455 S
C131 C137 1.363 . S
C132 C133 1.363 1_455 S
C132 C137 1.379 1_545 S
C132 N139 1.356 . S
C133 C132 1.363 1_655 S
C133 C136 1.363 . S
N134 C136 1.356 . S
N134 H146 0.984 . S
N134 H147 0.985 . S
N135 C137 1.356 . S
N135 H140 0.984 . S
N135 H141 0.985 . S
C136 C130 1.379 1_545 S
C136 C133 1.363 . S
C136 N134 1.356 . S
C137 C131 1.363 . S
C137 C132 1.379 1_565 S
C137 N135 1.356 . S
N138 C130 1.356 . S
N138 H144 0.984 . S
N138 H145 0.984 1_655 S
N139 C132 1.356 . S
N139 H142 0.984 1_455 S
N139 H143 0.985 . S
H140 N135 0.984 . S
H141 N135 0.985 . S
H142 N139 0.984 1_655 S
H143 N139 0.985 . S
H144 N138 0.984 . S
H145 N138 0.984 1_455 S
H146 N134 0.984 . S
H147 N134 0.985 . S
C148 C149 1.363 1_556 S
C148 C154 1.379 . S
C148 N156 1.356 . S
C149 C148 1.363 1_554 S
C149 C155 1.363 . S
C150 C151 1.363 . S
C150 C155 1.379 . S
C150 N157 1.356 . S
C151 C150 1.363 . S
C151 C154 1.363 1_554 S
N152 C154 1.356 . S
N152 H164 0.984 . S
N152 H165 0.985 . S
N153 C155 1.356 . S
N153 H158 0.984 . S
N153 H159 0.985 . S
C154 C148 1.379 . S
C154 C151 1.363 1_556 S
C154 N152 1.356 . S
C155 C149 1.363 . S
C155 C150 1.379 . S
C155 N153 1.356 . S
N156 C148 1.356 . S
N156 H162 0.984 . S
N156 H163 0.984 . S
N157 C150 1.356 . S
N157 H160 0.984 . S
N157 H161 0.985 . S
H158 N153 0.984 . S
H159 N153 0.985 . S
H160 N157 0.984 . S
H161 N157 0.985 . S
H162 N156 0.984 . S
H163 N156 0.984 . S
H164 N152 0.984 . S
H165 N152 0.985 . S
C166 C167 1.363 . S
C166 C172 1.379 . S
C166 N174 1.356 . S
C167 C166 1.363 . S
C167 C173 1.363 . S
C168 C169 1.363 . S
C168 C173 1.379 . S
C168 N175 1.356 . S
C169 C168 1.363 . S
C169 C172 1.363 . S
N170 C172 1.356 . S
N170 H182 0.984 . S
N170 H183 0.985 . S
N171 C173 1.356 . S
N171 H176 0.984 . S
N171 H177 0.985 . S
C172 C166 1.379 . S
C172 C169 1.363 . S
C172 N170 1.356 . S
C173 C167 1.363 . S
C173 C168 1.379 . S
C173 N171 1.356 . S
N174 C166 1.356 . S
N174 H180 0.984 . S
N174 H181 0.984 . S
N175 C168 1.356 . S
N175 H178 0.984 . S
N175 H179 0.985 . S
H176 N171 0.984 . S
H177 N171 0.985 . S
H178 N175 0.984 . S
H179 N175 0.985 . S
H180 N174 0.984 . S
H181 N174 0.984 . S
H182 N170 0.984 . S
H183 N170 0.985 . S
C184 C185 1.363 1_655 S
C184 C190 1.379 . S
C184 N192 1.356 . S
C185 C184 1.363 1_455 S
C185 C191 1.363 . S
C186 C187 1.363 1_455 S
C186 C191 1.379 . S
C186 N193 1.356 . S
C187 C186 1.363 1_655 S
C187 C190 1.363 . S
N188 C190 1.356 . S
N188 H200 0.984 . S
N188 H201 0.985 . S
N189 C191 1.356 . S
N189 H194 0.984 . S
N189 H195 0.985 . S
C190 C184 1.379 . S
C190 C187 1.363 . S
C190 N188 1.356 . S
C191 C185 1.363 . S
C191 C186 1.379 . S
C191 N189 1.356 . S
N192 C184 1.356 . S
N192 H198 0.984 . S
N192 H199 0.984 . S
N193 C186 1.356 . S
N193 H196 0.984 . S
N193 H197 0.985 . S
H194 N189 0.984 . S
H195 N189 0.985 . S
H196 N193 0.984 . S
H197 N193 0.985 . S
H198 N192 0.984 . S
H199 N192 0.984 . S
H200 N188 0.984 . S
H201 N188 0.985 . S
C202 C203 1.363 . S
C202 C208 1.379 . S
C202 N210 1.356 . S
C203 C202 1.363 . S
C203 C209 1.363 1_455 S
C204 C205 1.363 . S
C204 C209 1.379 . S
C204 N211 1.356 . S
C205 C204 1.363 . S
C205 C208 1.363 1_655 S
N206 C208 1.356 . S
N206 H218 0.984 . S
N206 H219 0.985 . S
N207 C209 1.356 . S
N207 H212 0.984 . S
N207 H213 0.985 . S
C208 C202 1.379 . S
C208 C205 1.363 1_455 S
C208 N206 1.356 . S
C209 C203 1.363 1_655 S
C209 C204 1.379 . S
C209 N207 1.356 . S
N210 C202 1.356 . S
N210 H216 0.984 . S
N210 H217 0.984 . S
N211 C204 1.356 . S
N211 H214 0.984 . S
N211 H215 0.985 . S
H212 N207 0.984 . S
H213 N207 0.985 . S
H214 N211 0.984 . S
H215 N211 0.985 . S
H216 N210 0.984 . S
H217 N210 0.984 . S
H218 N206 0.984 . S
H219 N206 0.985 . S
C220 C221 1.363 . S
C220 C226 1.379 . S
C220 N228 1.356 . S
C221 C220 1.363 . S
C221 C227 1.363 1_455 S
C222 C223 1.363 . S
C222 C227 1.379 . S
C222 N229 1.356 . S
C223 C222 1.363 . S
C223 C226 1.363 1_655 S
N224 C226 1.356 . S
N224 H236 0.984 . S
N224 H237 0.985 . S
N225 C227 1.356 . S
N225 H230 0.984 . S
N225 H231 0.985 . S
C226 C220 1.379 . S
C226 C223 1.363 1_455 S
C226 N224 1.356 . S
C227 C221 1.363 1_655 S
C227 C222 1.379 . S
C227 N225 1.356 . S
N228 C220 1.356 . S
N228 H234 0.984 . S
N228 H235 0.984 . S
N229 C222 1.356 . S
N229 H232 0.984 . S
N229 H233 0.985 . S
H230 N225 0.984 . S
H231 N225 0.985 . S
H232 N229 0.984 . S
H233 N229 0.985 . S
H234 N228 0.984 . S
H235 N228 0.984 . S
H236 N224 0.984 . S
H237 N224 0.985 . S
C238 C239 1.363 1_655 S
C238 C244 1.379 . S
C238 N246 1.356 . S
C239 C238 1.363 1_455 S
C239 C245 1.363 . S
C240 C241 1.363 1_455 S
C240 C245 1.379 . S
C240 N247 1.356 . S
C241 C240 1.363 1_655 S
C241 C244 1.363 . S
N242 C244 1.356 . S
N242 H254 0.984 . S
N242 H255 0.985 . S
N243 C245 1.356 . S
N243 H248 0.984 . S
N243 H249 0.985 . S
C244 C238 1.379 . S
C244 C241 1.363 . S
C244 N242 1.356 . S
C245 C239 1.363 . S
C245 C240 1.379 . S
C245 N243 1.356 . S
N246 C238 1.356 . S
N246 H252 0.984 . S
N246 H253 0.984 . S
N247 C240 1.356 . S
N247 H250 0.984 . S
N247 H251 0.985 . S
H248 N243 0.984 . S
H249 N243 0.985 . S
H250 N247 0.984 . S
H251 N247 0.985 . S
H252 N246 0.984 . S
H253 N246 0.984 . S
H254 N242 0.984 . S
H255 N242 0.985 . S
C256 C257 1.363 . S
C256 C262 1.379 . S
C256 N264 1.356 . S
C257 C256 1.363 . S
C257 C263 1.363 . S
C258 C259 1.363 . S
C258 C263 1.379 . S
C258 N265 1.356 . S
C259 C258 1.363 . S
C259 C262 1.363 . S
N260 C262 1.356 . S
N260 H272 0.984 . S
N260 H273 0.985 . S
N261 C263 1.356 . S
N261 H266 0.984 . S
N261 H267 0.985 . S
C262 C256 1.379 . S
C262 C259 1.363 . S
C262 N260 1.356 . S
C263 C257 1.363 . S
C263 C258 1.379 . S
C263 N261 1.356 . S
N264 C256 1.356 . S
N264 H270 0.984 . S
N264 H271 0.984 . S
N265 C258 1.356 . S
N265 H268 0.984 . S
N265 H269 0.985 . S
H266 N261 0.984 . S
H267 N261 0.985 . S
H268 N265 0.984 . S
H269 N265 0.985 . S
H270 N264 0.984 . S
H271 N264 0.984 . S
H272 N260 0.984 . S
H273 N260 0.985 . S
C274 C275 1.363 . S
C274 C280 1.379 . S
C274 N282 1.356 . S
C275 C274 1.363 . S
C275 C281 1.363 . S
C276 C277 1.363 . S
C276 C281 1.379 . S
C276 N283 1.356 . S
C277 C276 1.363 . S
C277 C280 1.363 . S
N278 C280 1.356 . S
N278 H290 0.984 . S
N278 H291 0.985 . S
N279 C281 1.356 . S
N279 H284 0.984 . S
N279 H285 0.985 . S
C280 C274 1.379 . S
C280 C277 1.363 . S
C280 N278 1.356 . S
C281 C275 1.363 . S
C281 C276 1.379 . S
C281 N279 1.356 . S
N282 C274 1.356 . S
N282 H288 0.984 . S
N282 H289 0.984 . S
N283 C276 1.356 . S
N283 H286 0.984 . S
N283 H287 0.985 . S
H284 N279 0.984 . S
H285 N279 0.985 . S
H286 N283 0.984 . S
H287 N283 0.985 . S
H288 N282 0.984 . S
H289 N282 0.984 . S
H290 N278 0.984 . S
H291 N278 0.985 . S
C292 C293 1.363 . S
C292 C298 1.379 . S
C292 N300 1.356 . S
C293 C292 1.363 . S
C293 C299 1.363 . S
C294 C295 1.363 . S
C294 C299 1.379 . S
C294 N301 1.356 . S
C295 C294 1.363 . S
C295 C298 1.363 . S
N296 C298 1.356 . S
N296 H308 0.984 . S
N296 H309 0.985 . S
N297 C299 1.356 . S
N297 H302 0.984 . S
N297 H303 0.985 . S
C298 C292 1.379 . S
C298 C295 1.363 . S
C298 N296 1.356 . S
C299 C293 1.363 . S
C299 C294 1.379 . S
C299 N297 1.356 . S
N300 C292 1.356 . S
N300 H306 0.984 . S
N300 H307 0.984 . S
N301 C294 1.356 . S
N301 H304 0.984 . S
N301 H305 0.985 . S
H302 N297 0.984 . S
H303 N297 0.985 . S
H304 N301 0.984 . S
H305 N301 0.985 . S
H306 N300 0.984 . S
H307 N300 0.984 . S
H308 N296 0.984 . S
H309 N296 0.985 . S
C310 C311 1.363 . S
C310 C316 1.379 . S
C310 N318 1.356 . S
C311 C310 1.363 . S
C311 C317 1.363 . S
C312 C313 1.363 . S
C312 C317 1.379 . S
C312 N319 1.356 . S
C313 C312 1.363 . S
C313 C316 1.363 . S
N314 C316 1.356 . S
N314 H326 0.984 . S
N314 H327 0.985 . S
N315 C317 1.356 . S
N315 H320 0.984 . S
N315 H321 0.985 . S
C316 C310 1.379 . S
C316 C313 1.363 . S
C316 N314 1.356 . S
C317 C311 1.363 . S
C317 C312 1.379 . S
C317 N315 1.356 . S
N318 C310 1.356 . S
N318 H324 0.984 . S
N318 H325 0.984 . S
N319 C312 1.356 . S
N319 H322 0.984 . S
N319 H323 0.985 . S
H320 N315 0.984 . S
H321 N315 0.985 . S
H322 N319 0.984 . S
H323 N319 0.985 . S
H324 N318 0.984 . S
H325 N318 0.984 . S
H326 N314 0.984 . S
H327 N314 0.985 . S
C328 C329 1.363 1_556 S
C328 C334 1.379 . S
C328 N336 1.356 . S
C329 C328 1.363 1_554 S
C329 C335 1.363 . S
C330 C331 1.363 . S
C330 C335 1.379 . S
C330 N337 1.356 . S
C331 C330 1.363 . S
C331 C334 1.363 1_554 S
N332 C334 1.356 . S
N332 H344 0.984 . S
N332 H345 0.985 . S
N333 C335 1.356 . S
N333 H338 0.984 . S
N333 H339 0.985 . S
C334 C328 1.379 . S
C334 C331 1.363 1_556 S
C334 N332 1.356 . S
C335 C329 1.363 . S
C335 C330 1.379 . S
C335 N333 1.356 . S
N336 C328 1.356 . S
N336 H342 0.984 . S
N336 H343 0.984 . S
N337 C330 1.356 . S
N337 H340 0.984 . S
N337 H341 0.985 . S
H338 N333 0.984 . S
H339 N333 0.985 . S
H340 N337 0.984 . S
H341 N337 0.985 . S
H342 N336 0.984 . S
H343 N336 0.984 . S
H344 N332 0.984 . S
H345 N332 0.985 . S
C346 C347 1.363 . S
C346 C352 1.379 . S
C346 N354 1.356 . S
C347 C346 1.363 . S
C347 C353 1.363 1_554 S
C348 C349 1.363 1_556 S
C348 C353 1.379 . S
C348 N355 1.356 . S
C349 C348 1.363 1_554 S
C349 C352 1.363 . S
N350 C352 1.356 . S
N350 H362 0.984 . S
N350 H363 0.985 . S
N351 C353 1.356 . S
N351 H356 0.984 . S
N351 H357 0.985 . S
C352 C346 1.379 . S
C352 C349 1.363 . S
C352 N350 1.356 . S
C353 C347 1.363 1_556 S
C353 C348 1.379 . S
C353 N351 1.356 . S
N354 C346 1.356 . S
N354 H360 0.984 . S
N354 H361 0.984 . S
N355 C348 1.356 . S
N355 H358 0.984 . S
N355 H359 0.985 . S
H356 N351 0.984 . S
H357 N351 0.985 . S
H358 N355 0.984 . S
H359 N355 0.985 . S
H360 N354 0.984 . S
H361 N354 0.984 . S
H362 N350 0.984 . S
H363 N350 0.985 . S
C364 C365 1.363 . S
C364 C370 1.379 . S
C364 N372 1.356 . S
C365 C364 1.363 . S
C365 C371 1.363 . S
C366 C367 1.363 . S
C366 C371 1.379 . S
C366 N373 1.356 . S
C367 C366 1.363 . S
C367 C370 1.363 . S
N368 C370 1.356 . S
N368 H380 0.984 . S
N368 H381 0.985 . S
N369 C371 1.356 . S
N369 H374 0.984 . S
N369 H375 0.985 . S
C370 C364 1.379 . S
C370 C367 1.363 . S
C370 N368 1.356 . S
C371 C365 1.363 . S
C371 C366 1.379 . S
C371 N369 1.356 . S
N372 C364 1.356 . S
N372 H378 0.984 . S
N372 H379 0.984 . S
N373 C366 1.356 . S
N373 H376 0.984 . S
N373 H377 0.985 . S
H374 N369 0.984 . S
H375 N369 0.985 . S
H376 N373 0.984 . S
H377 N373 0.985 . S
H378 N372 0.984 . S
H379 N372 0.984 . S
H380 N368 0.984 . S
H381 N368 0.985 . S
C382 C383 1.363 . S
C382 C388 1.379 . S
C382 N390 1.356 . S
C383 C382 1.363 . S
C383 C389 1.363 . S
C384 C385 1.363 . S
C384 C389 1.379 . S
C384 N391 1.356 . S
C385 C384 1.363 . S
C385 C388 1.363 . S
N386 C388 1.356 . S
N386 H398 0.984 . S
N386 H399 0.985 . S
N387 C389 1.356 . S
N387 H392 0.984 . S
N387 H393 0.985 . S
C388 C382 1.379 . S
C388 C385 1.363 . S
C388 N386 1.356 . S
C389 C383 1.363 . S
C389 C384 1.379 . S
C389 N387 1.356 . S
N390 C382 1.356 . S
N390 H396 0.984 . S
N390 H397 0.984 . S
N391 C384 1.356 . S
N391 H394 0.984 . S
N391 H395 0.985 . S
H392 N387 0.984 . S
H393 N387 0.985 . S
H394 N391 0.984 . S
H395 N391 0.985 . S
H396 N390 0.984 . S
H397 N390 0.984 . S
H398 N386 0.984 . S
H399 N386 0.985 . S
C113 C22 1.453 . S
C115 C8 1.453 . S
C131 C36 1.453 . S
C133 C50 1.453 . S
C149 C64 1.453 . S
C151 C78 1.453 . S
C167 C92 1.453 . S
C169 C106 1.453 . S
C185 C13 1.357 . S
C187 C55 1.357 . S
C203 C41 1.357 . S
C205 C27 1.357 . S
C221 C35 1.357 . S
C223 C21 1.357 . S
C239 C7 1.357 . S
C241 C49 1.357 . S
C257 C69 1.357 . S
C259 C111 1.357 . S
C275 C97 1.357 . S
C277 C83 1.357 . S
C293 C77 1.357 . S
C295 C91 1.357 . S
C311 C63 1.357 . S
C313 C105 1.357 . S
C329 C81 1.544 . S
C331 C11 1.544 . S
C347 C67 1.544 . S
C349 C25 1.544 . S
C365 C39 1.544 . S
C367 C109 1.544 . S
C383 C95 1.544 . S
C385 C53 1.544 . S
