# Generated by pormake.
# Topology wke, (5)-cn, num edge types: 1
# Building blocks:
#     Node 0, Type 0, BuildingBlock: XOMCOT_clean_sbu_1, # of connection points: 5
#     Node 1, Type 0, BuildingBlock: XOMCOT_clean_sbu_1, # of connection points: 5
#     Node 2, Type 0, BuildingBlock: XOMCOT_clean_sbu_1, # of connection points: 5
#     Node 3, Type 0, BuildingBlock: XOMCOT_clean_sbu_1, # of connection points: 5
#     Node 4, Type 0, BuildingBlock: XOMCOT_clean_sbu_1, # of connection points: 5
#     Node 5, Type 0, BuildingBlock: XOMCOT_clean_sbu_1, # of connection points: 5
#     Node 6, Type 0, BuildingBlock: XOMCOT_clean_sbu_1, # of connection points: 5
#     Node 7, Type 0, BuildingBlock: XOMCOT_clean_sbu_1, # of connection points: 5
#     Node 8, Type 0, BuildingBlock: XOMCOT_clean_sbu_1, # of connection points: 5
#     Node 9, Type 0, BuildingBlock: XOMCOT_clean_sbu_1, # of connection points: 5
#     Node 10, Type 0, BuildingBlock: XOMCOT_clean_sbu_1, # of connection points: 5
#     Node 11, Type 0, BuildingBlock: XOMCOT_clean_sbu_1, # of connection points: 5
#     Edge 12, Type (0, 0), BuildingBlock: EZIPEK_clean_linker_0, # of connection points: 2
#     Edge 13, Type (0, 0), BuildingBlock: EZIPEK_clean_linker_0, # of connection points: 2
#     Edge 14, Type (0, 0), BuildingBlock: EZIPEK_clean_linker_0, # of connection points: 2
#     Edge 15, Type (0, 0), BuildingBlock: EZIPEK_clean_linker_0, # of connection points: 2
#     Edge 16, Type (0, 0), BuildingBlock: EZIPEK_clean_linker_0, # of connection points: 2
#     Edge 17, Type (0, 0), BuildingBlock: EZIPEK_clean_linker_0, # of connection points: 2
#     Edge 18, Type (0, 0), BuildingBlock: EZIPEK_clean_linker_0, # of connection points: 2
#     Edge 19, Type (0, 0), BuildingBlock: EZIPEK_clean_linker_0, # of connection points: 2
#     Edge 20, Type (0, 0), BuildingBlock: EZIPEK_clean_linker_0, # of connection points: 2
#     Edge 21, Type (0, 0), BuildingBlock: EZIPEK_clean_linker_0, # of connection points: 2
#     Edge 22, Type (0, 0), BuildingBlock: EZIPEK_clean_linker_0, # of connection points: 2
#     Edge 23, Type (0, 0), BuildingBlock: EZIPEK_clean_linker_0, # of connection points: 2
#     Edge 24, Type (0, 0), BuildingBlock: EZIPEK_clean_linker_0, # of connection points: 2
#     Edge 25, Type (0, 0), BuildingBlock: EZIPEK_clean_linker_0, # of connection points: 2
#     Edge 26, Type (0, 0), BuildingBlock: EZIPEK_clean_linker_0, # of connection points: 2
#     Edge 27, Type (0, 0), BuildingBlock: EZIPEK_clean_linker_0, # of connection points: 2
#     Edge 28, Type (0, 0), BuildingBlock: EZIPEK_clean_linker_0, # of connection points: 2
#     Edge 29, Type (0, 0), BuildingBlock: EZIPEK_clean_linker_0, # of connection points: 2
#     Edge 30, Type (0, 0), BuildingBlock: EZIPEK_clean_linker_0, # of connection points: 2
#     Edge 31, Type (0, 0), BuildingBlock: EZIPEK_clean_linker_0, # of connection points: 2
#     Edge 32, Type (0, 0), BuildingBlock: EZIPEK_clean_linker_0, # of connection points: 2
#     Edge 33, Type (0, 0), BuildingBlock: EZIPEK_clean_linker_0, # of connection points: 2
#     Edge 34, Type (0, 0), BuildingBlock: EZIPEK_clean_linker_0, # of connection points: 2
#     Edge 35, Type (0, 0), BuildingBlock: EZIPEK_clean_linker_0, # of connection points: 2
#     Edge 36, Type (0, 0), BuildingBlock: EZIPEK_clean_linker_0, # of connection points: 2
#     Edge 37, Type (0, 0), BuildingBlock: EZIPEK_clean_linker_0, # of connection points: 2
#     Edge 38, Type (0, 0), BuildingBlock: EZIPEK_clean_linker_0, # of connection points: 2
#     Edge 39, Type (0, 0), BuildingBlock: EZIPEK_clean_linker_0, # of connection points: 2
#     Edge 40, Type (0, 0), BuildingBlock: EZIPEK_clean_linker_0, # of connection points: 2
#     Edge 41, Type (0, 0), BuildingBlock: EZIPEK_clean_linker_0, # of connection points: 2
# Relax obj value: 0.166
# Max RMSD: 0.153
# Mean RMSD: 0.153
data_MOF--net-wke--node1-XOMCOT_clean_sbu_1--edge1-EZIPEK_clean_linker_0
_symmetry_space_group_name_H-M    P1
_symmetry_Int_Tables_number       1
_symmetry_cell_setting            triclinic
loop_
_symmetry_equiv_pos_as_xyz
'x, y, z'
_cell_length_a     53.628196
_cell_length_b     53.728026
_cell_length_c     13.477962
_cell_angle_alpha  89.897479
_cell_angle_beta   90.188084
_cell_angle_gamma 120.08651
loop_
_atom_site_label
_atom_site_type_symbol
_atom_site_fract_x
_atom_site_fract_y
_atom_site_fract_z
_atom_type_partial_charge
C0 C 0.15544 0.43208 0.44537 0.0
C1 C 0.15764 0.43093 0.54697 0.0
N2 N 0.13099 0.41926 0.58533 0.0
N3 N 0.12746 0.42084 0.41945 0.0
C4 C 0.11314 0.41331 0.50702 0.0
H5 H 0.17331 0.44096 0.39428 0.0
Co6 Co 0.11252 0.41675 0.28985 0.0
C7 C 0.04836 0.37928 0.32655 0.0
O8 O 0.04392 0.39565 0.26562 0.0
N9 N 0.09739 0.41277 0.15589 0.0
C10 C 0.08142 0.42277 0.01598 0.0
C11 C 0.08264 0.42501 0.11726 0.0
C12 C 0.10407 0.40251 0.07415 0.0
N13 N 0.09542 0.40911 0.98864 0.0
O14 O 0.12613 0.38991 0.26001 0.0
H15 H 0.0748 0.43694 0.15829 0.0
H16 H 0.11608 0.39145 0.07588 0.0
O17 O 0.07449 0.38543 0.34081 0.0
C18 C 0.15199 0.40401 0.22619 0.0
O19 O 0.16301 0.4317 0.21001 0.0
N20 N 0.10438 0.44638 0.31622 0.0
C21 C 0.09944 0.49572 0.31809 0.0
C22 C 0.08233 0.47239 0.38108 0.0
C23 C 0.08507 0.44769 0.37883 0.0
C24 C 0.12297 0.46995 0.26249 0.0
C25 C 0.12014 0.49428 0.25922 0.0
H26 H 0.07155 0.4298 0.42647 0.0
H27 H 0.13904 0.46908 0.2167 0.0
H28 H 0.09009 0.40399 0.51423 0.0
H29 H 0.17729 0.4388 0.58974 0.0
H30 H 0.07336 0.43286 0.96569 0.0
H31 H 0.06674 0.47312 0.43007 0.0
H32 H 0.13413 0.51195 0.21096 0.0
C33 C 0.70086 0.15275 0.92475 0.0
C34 C 0.70246 0.15559 0.02688 0.0
N35 N 0.70824 0.1358 0.06474 0.0
N36 N 0.70528 0.13105 0.89846 0.0
C37 C 0.71052 0.12173 0.98548 0.0
H38 H 0.69555 0.16487 0.87323 0.0
Co39 Co 0.70264 0.11591 0.76968 0.0
C40 C 0.67038 0.05328 0.84092 0.0
O41 O 0.64745 0.04763 0.7886 0.0
N42 N 0.70149 0.10153 0.6382 0.0
C43 C 0.69285 0.07464 0.50204 0.0
C44 C 0.6912 0.07442 0.60419 0.0
C45 C 0.71003 0.11783 0.55432 0.0
N46 N 0.70458 0.10198 0.47089 0.0
O47 O 0.74398 0.13026 0.77354 0.0
H48 H 0.68202 0.05533 0.64895 0.0
H49 H 0.71816 0.14076 0.55372 0.0
O50 O 0.69338 0.07808 0.83392 0.0
C51 C 0.75721 0.15646 0.74385 0.0
O52 O 0.74177 0.16826 0.71889 0.0
N53 N 0.6625 0.10548 0.76076 0.0
C54 C 0.60684 0.09785 0.73933 0.0
C55 C 0.61611 0.09279 0.83073 0.0
C56 C 0.64395 0.09663 0.83971 0.0
C57 C 0.65384 0.11176 0.67327 0.0
C58 C 0.62597 0.10681 0.65963 0.0
H59 H 0.65075 0.09331 0.91105 0.0
H60 H 0.66866 0.12216 0.6138 0.0
H61 H 0.71482 0.10416 0.99162 0.0
H62 H 0.69838 0.17011 0.07028 0.0
H63 H 0.68487 0.05604 0.45401 0.0
H64 H 0.6022 0.08652 0.89507 0.0
H65 H 0.62001 0.1118 0.58855 0.0
C66 C 0.55821 0.70386 0.45415 0.0
C67 C 0.55636 0.70508 0.55616 0.0
N68 N 0.57941 0.70515 0.59622 0.0
N69 N 0.58227 0.70313 0.43045 0.0
C70 C 0.59475 0.70415 0.519 0.0
H71 H 0.54273 0.70302 0.40065 0.0
Co72 Co 0.59416 0.7002 0.30173 0.0
C73 C 0.62716 0.66971 0.35648 0.0
O74 O 0.60993 0.64855 0.29728 0.0
N75 N 0.60648 0.69848 0.1694 0.0
C76 C 0.62885 0.69529 0.03413 0.0
C77 C 0.62802 0.69441 0.13637 0.0
C78 C 0.59588 0.70356 0.08481 0.0
N79 N 0.60854 0.70102 1.00217 0.0
O80 O 0.62071 0.74146 0.30089 0.0
H81 H 0.64303 0.69182 0.18222 0.0
H82 H 0.57892 0.70888 0.0831 0.0
O83 O 0.62369 0.69167 0.36246 0.0
C84 C 0.60715 0.75347 0.26516 0.0
O85 O 0.57996 0.73709 0.24034 0.0
N86 N 0.5647 0.66046 0.29828 0.0
C87 C 0.51394 0.60662 0.29033 0.0
C88 C 0.53245 0.61435 0.37285 0.0
C89 C 0.55782 0.64143 0.37535 0.0
C90 C 0.54608 0.65328 0.22016 0.0
C91 C 0.52147 0.62633 0.21276 0.0
H92 H 0.57132 0.64746 0.44075 0.0
H93 H 0.54883 0.66893 0.16558 0.0
H94 H 0.61431 0.70347 0.52803 0.0
H95 H 0.53924 0.7053 0.59774 0.0
H96 H 0.64344 0.69232 0.98687 0.0
H97 H 0.52694 0.59996 0.43571 0.0
H98 H 0.50731 0.62163 0.14936 0.0
C99 C 0.8647 0.5548 0.9842 0.0
C100 C 0.86268 0.55325 0.08645 0.0
N101 N 0.88347 0.57842 0.12368 0.0
N102 N 0.88676 0.58077 0.95762 0.0
C103 C 0.89753 0.59478 0.04454 0.0
H104 H 0.85161 0.53776 0.93258 0.0
Co105 Co 0.90091 0.59286 0.82889 0.0
C106 C 0.96548 0.62809 0.87694 0.0
O107 O 0.97219 0.61775 0.79971 0.0
N108 N 0.91464 0.60549 0.69722 0.0
C109 C 0.93842 0.63216 0.56542 0.0
C110 C 0.93741 0.63077 0.66756 0.0
C111 C 0.90118 0.59285 0.61075 0.0
N112 N 0.91545 0.60832 0.5301 0.0
O113 O 0.88601 0.61932 0.8301 0.0
H114 H 0.95181 0.64794 0.71628 0.0
H115 H 0.8805 0.57337 0.60599 0.0
O116 O 0.93911 0.62152 0.89014 0.0
C117 C 0.86028 0.60577 0.79488 0.0
O118 O 0.84979 0.57884 0.768 0.0
N119 N 0.91144 0.56391 0.82382 0.0
C120 C 0.91917 0.51614 0.81208 0.0
C121 C 0.93307 0.53698 0.88621 0.0
C122 C 0.92818 0.5603 0.89254 0.0
C123 C 0.89632 0.54264 0.75627 0.0
C124 C 0.90033 0.51902 0.74757 0.0
H125 H 0.93707 0.57486 0.95459 0.0
H126 H 0.87984 0.54302 0.71196 0.0
H127 H 0.91586 0.61629 0.05071 0.0
H128 H 0.84777 0.53486 0.13015 0.0
H129 H 0.9541 0.64978 0.52055 0.0
H130 H 0.94686 0.5348 0.94015 0.0
H131 H 0.8882 0.50267 0.69239 0.0
C132 C 0.30537 0.85098 0.50196 0.0
C133 C 0.30513 0.84816 0.60382 0.0
N134 N 0.31073 0.87329 0.64433 0.0
N135 N 0.31171 0.87797 0.4781 0.0
C136 C 0.3142 0.89077 0.56721 0.0
H137 H 0.30041 0.83409 0.44871 0.0
Co138 Co 0.31291 0.892 0.34798 0.0
C139 C 0.33231 0.95678 0.39443 0.0
O140 O 0.33836 0.96747 0.30427 0.0
N141 N 0.31312 0.90484 0.21806 0.0
C142 C 0.29943 0.91827 0.08171 0.0
C143 C 0.2995 0.91853 0.18396 0.0
C144 C 0.3207 0.896 0.13515 0.0
N145 N 0.3127 0.90402 0.05133 0.0
O146 O 0.27147 0.87742 0.35618 0.0
H147 H 0.28838 0.92627 0.23028 0.0
H148 H 0.32991 0.8821 0.13625 0.0
O149 O 0.32278 0.92984 0.40853 0.0
C150 C 0.25698 0.85429 0.30559 0.0
O151 O 0.27113 0.8448 0.25336 0.0
N152 N 0.35254 0.903 0.33564 0.0
C153 C 0.40806 0.91206 0.30251 0.0
C154 C 0.38503 0.88446 0.32136 0.0
C155 C 0.35743 0.88038 0.33612 0.0
C156 C 0.37472 0.92999 0.31415 0.0
C157 C 0.40274 0.93503 0.29843 0.0
H158 H 0.33965 0.85875 0.34451 0.0
H159 H 0.37099 0.94772 0.30615 0.0
H160 H 0.31734 0.91208 0.57675 0.0
H161 H 0.30045 0.82899 0.64502 0.0
H162 H 0.28873 0.92615 0.03343 0.0
H163 H 0.38823 0.86609 0.32207 0.0
H164 H 0.41997 0.95655 0.28134 0.0
C165 C 0.46188 0.30744 0.03418 0.0
C166 C 0.46103 0.3056 0.13654 0.0
N167 N 0.43389 0.29685 0.16597 0.0
N168 N 0.43563 0.30095 0.9996 0.0
C169 C 0.41894 0.29358 0.0815 0.0
H170 H 0.48079 0.31459 0.9883 0.0
Co171 Co 0.42471 0.30377 0.86856 0.0
C172 C 0.39609 0.33843 0.93952 0.0
O173 O 0.41973 0.36274 0.92151 0.0
N174 N 0.41298 0.30557 0.73613 0.0
C175 C 0.40338 0.32283 0.60113 0.0
C176 C 0.40789 0.32601 0.70126 0.0
C177 C 0.41164 0.29026 0.65402 0.0
N178 N 0.40459 0.29956 0.56961 0.0
O179 O 0.39586 0.26313 0.87359 0.0
H180 H 0.41054 0.34408 0.74342 0.0
H181 H 0.41829 0.2744 0.65636 0.0
O182 O 0.39547 0.31458 0.9211 0.0
C183 C 0.40793 0.24853 0.8511 0.0
O184 O 0.43554 0.26248 0.82997 0.0
N185 N 0.45665 0.3431 0.85923 0.0
C186 C 0.50678 0.397 0.83285 0.0
C187 C 0.49315 0.38897 0.92549 0.0
C188 C 0.4683 0.3619 0.93735 0.0
C189 C 0.47139 0.35005 0.77131 0.0
C190 C 0.49551 0.37708 0.75536 0.0
H191 H 0.4582 0.35632 1.00951 0.0
H192 H 0.46507 0.33448 0.71239 0.0
H193 H 0.39635 0.28667 0.08013 0.0
H194 H 0.47904 0.31094 0.18568 0.0
H195 H 0.40192 0.33845 0.55452 0.0
H196 H 0.50169 0.40347 0.98821 0.0
H197 H 0.50599 0.38199 0.68364 0.0
C198 C 0.54856 0.8622 0.01204 0.0
C199 C 0.54741 0.85971 0.91014 0.0
N200 N 0.57428 0.87582 0.87478 0.0
N201 N 0.57602 0.88025 0.0415 0.0
C202 C 0.59121 0.88677 0.95585 0.0
H203 H 0.53012 0.85183 0.06022 0.0
Co204 Co 0.59012 0.8945 0.17185 0.0
C205 C 0.61945 0.94836 0.0426 0.0
O206 O 0.59495 0.93978 0.99583 0.0
N207 N 0.60355 0.90736 0.30161 0.0
C208 C 0.62902 0.93169 0.4342 0.0
C209 C 0.62791 0.93106 0.33187 0.0
C210 C 0.59043 0.89374 0.38689 0.0
N211 N 0.60557 0.90803 0.46847 0.0
O212 O 0.61583 0.87881 0.16349 0.0
H213 H 0.64412 0.94682 0.28322 0.0
H214 H 0.57012 0.87369 0.38926 0.0
O215 O 0.62058 0.93307 0.1145 0.0
C216 C 0.60321 0.85343 0.20062 0.0
O217 O 0.57675 0.84278 0.2333 0.0
N218 N 0.56243 0.90638 0.18875 0.0
C219 C 0.51561 0.9142 0.22865 0.0
C220 C 0.54279 0.93782 0.20714 0.0
C221 C 0.56613 0.93349 0.18911 0.0
C222 C 0.53659 0.88367 0.21713 0.0
C223 C 0.51277 0.88695 0.23525 0.0
H224 H 0.58698 0.95201 0.1777 0.0
H225 H 0.53447 0.86269 0.226 0.0
H226 H 0.6142 0.90017 0.95248 0.0
H227 H 0.52818 0.8482 0.86511 0.0
H228 H 0.64587 0.94802 0.48005 0.0
H229 H 0.54595 0.95937 0.20506 0.0
H230 H 0.49232 0.86836 0.25502 0.0
C231 C 0.69819 0.54821 0.54695 0.0
C232 C 0.6993 0.54683 0.44478 0.0
N233 N 0.70609 0.57273 0.40732 0.0
N234 N 0.70418 0.57484 0.57382 0.0
C235 C 0.7098 0.58947 0.48702 0.0
H236 H 0.6923 0.53059 0.59802 0.0
Co237 Co 0.70234 0.58776 0.70228 0.0
C238 C 0.67235 0.62297 0.64564 0.0
O239 O 0.65462 0.61388 0.7215 0.0
N240 N 0.7014 0.60085 0.83303 0.0
C241 C 0.70321 0.62673 0.96544 0.0
C242 C 0.70276 0.62551 0.86304 0.0
C243 C 0.7025 0.58824 0.9192 0.0
N244 N 0.70328 0.60332 1.00043 0.0
O245 O 0.74342 0.61571 0.69643 0.0
H246 H 0.70454 0.64226 0.81427 0.0
H247 H 0.70361 0.56876 0.92328 0.0
O248 O 0.69121 0.61496 0.637 0.0
C249 C 0.75673 0.6035 0.73293 0.0
O250 O 0.74134 0.57672 0.7629 0.0
N251 N 0.66345 0.55722 0.71504 0.0
C252 C 0.6114 0.50632 0.75345 0.0
C253 C 0.61217 0.52746 0.69008 0.0
C254 C 0.63841 0.5528 0.67196 0.0
C255 C 0.66301 0.53607 0.77248 0.0
C256 C 0.63732 0.51103 0.79522 0.0
H257 H 0.63815 0.56815 0.622 0.0
H258 H 0.68301 0.53828 0.79912 0.0
H259 H 0.71519 0.61172 0.48146 0.0
H260 H 0.69413 0.52795 0.40111 0.0
H261 H 0.70435 0.6439 1.01071 0.0
H262 H 0.59266 0.52427 0.65436 0.0
H263 H 0.63784 0.49497 0.84248 0.0
C264 C 0.142 0.6875 0.08097 0.0
C265 C 0.14213 0.68923 0.97847 0.0
N266 N 0.12667 0.70162 0.95142 0.0
N267 N 0.12611 0.69834 0.11857 0.0
C268 C 0.1177 0.70739 0.0376 0.0
H269 H 0.15119 0.67717 0.12471 0.0
Co270 Co 0.11183 0.69536 0.25006 0.0
C271 C 0.05296 0.68934 0.18618 0.0
O272 O 0.05144 0.70673 0.25114 0.0
N273 N 0.09634 0.69231 0.38088 0.0
C274 C 0.06917 0.67302 0.51437 0.0
C275 C 0.07122 0.67048 0.41394 0.0
C276 C 0.10888 0.70802 0.4639 0.0
N277 N 0.09255 0.69729 0.54762 0.0
O278 O 0.12757 0.737 0.25309 0.0
H279 H 0.05641 0.6523 0.36997 0.0
H280 H 0.13026 0.72587 0.46236 0.0
O281 O 0.0745 0.68528 0.1877 0.0
C282 C 0.15492 0.74837 0.26759 0.0
O283 O 0.16592 0.73135 0.26465 0.0
N284 N 0.10122 0.65616 0.25468 0.0
C285 C 0.09531 0.60163 0.27447 0.0
C286 C 0.08348 0.60826 0.19208 0.0
C287 C 0.08634 0.63569 0.18423 0.0
C288 C 0.11321 0.65007 0.33369 0.0
C289 C 0.1095 0.62275 0.34708 0.0
H290 H 0.07788 0.64091 0.11958 0.0
H291 H 0.12619 0.66674 0.38658 0.0
H292 H 0.10354 0.71629 0.04099 0.0
H293 H 0.15159 0.68073 0.9276 0.0
H294 H 0.05247 0.65656 0.5599 0.0
H295 H 0.07275 0.59265 0.13355 0.0
H296 H 0.11912 0.61863 0.41126 0.0
C297 C 0.42744 0.14793 0.57552 0.0
C298 C 0.42588 0.14939 0.47384 0.0
N299 N 0.41768 0.12319 0.4365 0.0
N300 N 0.41983 0.1208 0.60252 0.0
C301 C 0.41411 0.10628 0.51556 0.0
H302 H 0.43415 0.16579 0.62585 0.0
Co303 Co 0.41807 0.10678 0.73196 0.0
C304 C 0.37891 0.04243 0.70822 0.0
O305 O 0.39388 0.03836 0.77661 0.0
N306 N 0.41659 0.09265 0.86552 0.0
C307 C 0.42974 0.07914 1.00424 0.0
C308 C 0.43187 0.08083 0.90296 0.0
C309 C 0.40457 0.0969 0.94768 0.0
N310 N 0.413 0.08976 0.03253 0.0
O311 O 0.3913 0.11999 0.76848 0.0
H312 H 0.44497 0.07465 0.86078 0.0
H313 H 0.39085 0.10619 0.94676 0.0
O314 O 0.38651 0.06846 0.68555 0.0
C315 C 0.406 0.14561 0.80378 0.0
O316 O 0.43395 0.15651 0.81435 0.0
N317 N 0.44753 0.09905 0.69911 0.0
C318 C 0.49785 0.09587 0.69244 0.0
C319 C 0.47283 0.07542 0.6423 0.0
C320 C 0.44763 0.07731 0.64689 0.0
C321 C 0.47236 0.12037 0.7399 0.0
C322 C 0.49743 0.11878 0.74005 0.0
H323 H 0.42842 0.06118 0.60995 0.0
H324 H 0.4721 0.13787 0.77851 0.0
H325 H 0.40783 0.08382 0.50957 0.0
H326 H 0.43121 0.16837 0.4303 0.0
H327 H 0.44151 0.07284 0.05395 0.0
H328 H 0.47265 0.05787 0.60227 0.0
H329 H 0.51635 0.13523 0.7782 0.0
C330 C 0.31015 0.4614 0.0242 0.0
C331 C 0.30851 0.46348 0.92257 0.0
N332 N 0.3031 0.43839 0.8819 0.0
N333 N 0.30631 0.43529 0.04781 0.0
C334 C 0.30163 0.42163 0.95948 0.0
H335 H 0.31519 0.47835 0.07733 0.0
Co336 Co 0.31043 0.42386 0.17645 0.0
C337 C 0.3236 0.37471 0.13869 0.0
O338 O 0.31403 0.36317 0.2263 0.0
N339 N 0.31494 0.41343 0.30642 0.0
C340 C 0.34099 0.41958 0.44181 0.0
C341 C 0.34012 0.41685 0.34083 0.0
C342 C 0.30016 0.41233 0.38939 0.0
N343 N 0.31578 0.41657 0.47343 0.0
O344 O 0.27017 0.39363 0.17335 0.0
H345 H 0.35812 0.42049 0.29476 0.0
H346 H 0.27937 0.41085 0.38793 0.0
O347 O 0.32343 0.39795 0.11716 0.0
C348 C 0.25478 0.40447 0.20072 0.0
O349 O 0.26797 0.4317 0.22672 0.0
N350 N 0.34843 0.45584 0.18382 0.0
C351 C 0.40226 0.50415 0.22353 0.0
C352 C 0.39891 0.48504 0.14683 0.0
C353 C 0.37179 0.46085 0.12867 0.0
C354 C 0.35108 0.47511 0.25484 0.0
C355 C 0.37786 0.49887 0.27788 0.0
H356 H 0.36974 0.44637 0.07091 0.0
H357 H 0.33231 0.4714 0.29647 0.0
H358 H 0.29827 0.40012 0.9514 0.0
H359 H 0.31247 0.48243 0.88137 0.0
H360 H 0.35961 0.42512 0.48805 0.0
H361 H 0.41717 0.48867 0.10209 0.0
H362 H 0.37945 0.51323 0.33701 0.0
C363 C 0.85861 0.31012 0.53346 0.0
C364 C 0.85586 0.31008 0.43162 0.0
N365 N 0.88038 0.31379 0.39128 0.0
N366 N 0.88499 0.31445 0.55749 0.0
C367 C 0.89742 0.31591 0.46847 0.0
H368 H 0.842 0.30638 0.58644 0.0
Co369 Co 0.89872 0.31494 0.68762 0.0
C370 C 0.96353 0.33384 0.64252 0.0
O371 O 0.97417 0.34004 0.73286 0.0
N372 N 0.91119 0.31456 0.81773 0.0
C373 C 0.92427 0.30072 0.95456 0.0
C374 C 0.92465 0.30075 0.85226 0.0
C375 C 0.90243 0.32233 0.90038 0.0
N376 N 0.91028 0.3143 0.98446 0.0
O377 O 0.8841 0.27373 0.67699 0.0
H378 H 0.9324 0.28961 0.80617 0.0
H379 H 0.88876 0.33181 0.899 0.0
O380 O 0.9366 0.32458 0.62794 0.0
C381 C 0.86021 0.25927 0.72336 0.0
O382 O 0.85015 0.27335 0.77302 0.0
N383 N 0.90986 0.35439 0.70259 0.0
C384 C 0.91845 0.40929 0.74332 0.0
C385 C 0.94187 0.40459 0.73871 0.0
C386 C 0.93709 0.37689 0.71914 0.0
C387 C 0.88689 0.35864 0.71036 0.0
C388 C 0.89069 0.38589 0.7292 0.0
H389 H 0.95529 0.37372 0.72023 0.0
H390 H 0.86528 0.34054 0.70576 0.0
H391 H 0.91808 0.31737 0.45915 0.0
H392 H 0.83714 0.30688 0.3903 0.0
H393 H 0.93204 0.29 1.0032 0.0
H394 H 0.96359 0.4221 0.75173 0.0
H395 H 0.87202 0.38857 0.73487 0.0
C396 C 0.02732 0.34487 0.47797 0.0
C397 C 0.02388 0.35946 0.39509 0.0
C398 C 0.98099 0.35585 0.47193 0.0
C399 C 0.98376 0.34137 0.55575 0.0
N400 N 1.00563 0.31544 0.62543 0.0
N401 N 0.98702 0.36071 0.29522 0.0
C402 C 1.00589 0.33395 0.55519 0.0
C403 C 0.99738 0.35912 0.38614 0.0
N404 N 0.05014 0.34031 0.48126 0.0
N405 N 0.9643 0.36837 0.47471 0.0
H406 H 0.99642 0.35922 0.22946 0.0
H407 H 0.96692 0.35903 0.28623 0.0
H408 H 0.95317 0.36849 0.53744 0.0
H409 H 0.96425 0.38136 0.41716 0.0
H410 H 0.05612 0.3334 0.54439 0.0
H411 H 0.06268 0.34263 0.41929 0.0
H412 H 0.01957 0.30725 0.62548 0.0
H413 H 0.9896 0.30602 0.67922 0.0
C414 C 0.67147 0.00755 0.87171 0.0
C415 C 0.6682 0.03029 0.91006 0.0
C416 C 0.64731 1.00193 0.06248 0.0
C417 C 0.64426 0.97725 0.0142 0.0
N418 N 0.65905 0.95741 0.88353 0.0
N419 N 0.65497 0.05014 0.04666 0.0
C420 C 0.65839 0.98047 0.92219 0.0
C421 C 0.65722 0.02797 1.0078 0.0
N422 N 0.68738 0.01214 0.78775 0.0
N423 N 0.64097 1.0004 0.161 0.0
H424 H 0.66368 0.06992 1.01152 0.0
H425 H 0.64372 0.04861 0.11133 0.0
H426 H 0.63516 0.98187 0.20225 0.0
H427 H 0.64464 0.01806 0.20368 0.0
H428 H 0.69196 0.99716 0.75688 0.0
H429 H 0.69824 0.03226 0.75367 0.0
H430 H 0.66527 0.95633 0.81136 0.0
H431 H 0.65395 0.93944 0.92692 0.0
C432 C 0.66701 0.66541 0.5881 0.0
C433 C 0.66772 0.63984 0.56457 0.0
C434 C 0.65492 0.64424 0.39197 0.0
C435 C 0.64828 0.6656 0.42037 0.0
N436 N 0.66361 0.7064 0.52791 0.0
N437 N 0.65845 0.60326 0.44179 0.0
C438 C 0.65872 0.67917 0.51382 0.0
C439 C 0.66128 0.6292 0.46539 0.0
N440 N 0.67372 0.67628 0.68215 0.0
N441 N 0.65662 0.63932 0.29348 0.0
H442 H 0.66193 0.5907 0.49187 0.0
H443 H 0.64973 0.59295 0.37462 0.0
H444 H 0.65443 0.65172 0.23816 0.0
H445 H 0.66409 0.62595 0.26765 0.0
H446 H 0.66976 0.69216 0.70873 0.0
H447 H 0.68223 0.66851 0.73546 0.0
H448 H 0.67295 0.71849 0.59158 0.0
H449 H 0.66202 0.71846 0.47026 0.0
C450 C 0.01978 0.68897 0.04801 0.0
C451 C 0.02946 0.67391 0.10972 0.0
C452 C 1.00065 0.6305 1.00894 0.0
C453 C 0.98797 0.6443 0.95548 0.0
N454 N 0.98338 0.68638 0.93365 0.0
N455 N 0.02151 0.62773 0.16428 0.0
C456 C 0.9967 0.67338 0.97875 0.0
C457 C 0.01771 0.64395 0.09445 0.0
N458 N 0.03368 0.71833 0.05083 0.0
N459 N 0.99733 0.60483 0.97778 0.0
H460 H 0.03242 0.63636 0.23042 0.0
H461 H 0.01096 0.60533 0.16177 0.0
H462 H 0.98606 0.59417 0.91433 0.0
H463 H 0.00873 0.59572 1.00895 0.0
H464 H 0.02962 0.73062 1.00052 0.0
H465 H 0.05128 0.73061 0.09692 0.0
H466 H 0.98649 0.70633 0.95561 0.0
H467 H 0.96773 0.67641 0.87866 0.0
C468 C 0.35968 0.99132 0.64927 0.0
C469 C 0.35918 0.0174 0.64129 0.0
C470 C 0.33226 0.99868 0.48366 0.0
C471 C 0.3402 0.97698 0.4814 0.0
N472 N 0.36826 0.95809 0.55846 0.0
N473 N 0.33792 0.04234 0.56019 0.0
C474 C 0.35568 0.97471 0.56329 0.0
C475 C 0.34342 0.02015 0.56072 0.0
N476 N 0.36228 0.9813 0.73951 0.0
N477 N 0.3131 0.99799 0.41496 0.0
H478 H 0.34082 0.05489 0.62275 0.0
H479 H 0.32968 0.0478 0.49934 0.0
H480 H 0.30357 0.98192 0.36131 0.0
H481 H 0.30464 0.01167 0.41564 0.0
H482 H 0.36123 0.9615 0.7478 0.0
H483 H 0.36059 0.99027 0.80593 0.0
H484 H 0.38185 0.95822 0.61428 0.0
H485 H 0.36765 0.94666 0.49553 0.0
C486 C 0.35029 0.32395 0.04576 0.0
C487 C 0.37025 0.34087 0.97072 0.0
C488 C 0.35526 0.37692 0.98957 0.0
C489 C 0.33634 0.36133 0.06918 0.0
N490 N 0.30678 0.3133 0.13483 0.0
N491 N 0.37947 0.37533 0.84168 0.0
C492 C 0.3312 0.33281 0.08652 0.0
C493 C 0.36888 0.36479 0.93387 0.0
N494 N 0.34911 0.29938 0.07804 0.0
N495 N 0.36093 0.40368 0.96532 0.0
H496 H 0.38688 0.3652 0.79431 0.0
H497 H 0.37754 0.39173 0.80783 0.0
H498 H 0.34572 0.4099 0.97267 0.0
H499 H 0.38001 0.4184 0.92996 0.0
H500 H 0.33853 0.28879 0.14287 0.0
H501 H 0.35861 0.28965 0.03926 0.0
H502 H 0.30084 0.29176 0.14362 0.0
H503 H 0.29035 0.31752 0.15276 0.0
C504 C 0.12205 0.57461 0.29652 0.0
C505 C 0.0954 0.57385 0.28266 0.0
C506 C 0.07069 0.52101 0.28598 0.0
C507 C 0.09691 0.52225 0.31399 0.0
N508 N 0.14574 0.55143 0.37365 0.0
N509 N 0.04338 0.54579 0.28601 0.0
C510 C 0.12203 0.54945 0.32801 0.0
C511 C 0.06936 0.54688 0.28369 0.0
N512 N 0.14749 0.59902 0.27568 0.0
N513 N 0.04745 0.49556 0.25702 0.0
H514 H 0.04146 0.56416 0.28759 0.0
H515 H 0.02394 0.52671 0.29638 0.0
H516 H 0.04776 0.47634 0.25362 0.0
H517 H 0.02887 0.49418 0.22688 0.0
H518 H 0.16727 0.59971 0.27696 0.0
H519 H 0.14849 0.61742 0.2458 0.0
H520 H 0.1637 0.57107 0.39266 0.0
H521 H 0.14607 0.53357 0.40256 0.0
C522 C 0.55102 0.11834 0.66329 0.0
C523 C 0.52491 0.09427 0.69578 0.0
C524 C 0.55207 0.07057 0.74578 0.0
C525 C 0.57839 0.09647 0.72765 0.0
N526 N 0.60209 0.14751 0.69338 0.0
N527 N 0.50153 0.0494 0.78674 0.0
C528 C 0.57765 0.1211 0.69316 0.0
C529 C 0.52561 0.07079 0.742 0.0
N530 N 0.55044 0.1384 0.60244 0.0
N531 N 0.55213 0.04556 0.76356 0.0
H532 H 0.48196 0.0491 0.78886 0.0
H533 H 0.5018 0.03344 0.82997 0.0
H534 H 0.57092 0.04433 0.76431 0.0
H535 H 0.53331 0.02562 0.76769 0.0
H536 H 0.56893 0.15505 0.56999 0.0
H537 H 0.53126 0.1365 0.57576 0.0
H538 H 0.60199 0.16644 0.67707 0.0
H539 H 0.62177 0.15096 0.72098 0.0
C540 C 0.46008 0.58193 0.27574 0.0
C541 C 0.48517 0.57961 0.28674 0.0
C542 C 0.45493 0.52707 0.27377 0.0
C543 C 0.43096 0.53007 0.24567 0.0
N544 N 0.41312 0.56184 0.19946 0.0
N545 N 0.50698 0.54974 0.28229 0.0
C546 C 0.43416 0.55793 0.24127 0.0
C547 C 0.48277 0.55208 0.28243 0.0
N548 N 0.46086 0.60701 0.29985 0.0
N549 N 0.45103 0.5005 0.29547 0.0
H550 H 0.52772 0.56746 0.2875 0.0
H551 H 0.50654 0.53044 0.26855 0.0
H552 H 0.4309 0.48182 0.29327 0.0
H553 H 0.46723 0.49743 0.32538 0.0
H554 H 0.44249 0.60898 0.30139 0.0
H555 H 0.47921 0.62474 0.32897 0.0
H556 H 0.41573 0.58213 0.18615 0.0
H557 H 0.39442 0.54513 0.16799 0.0
C558 C 0.91042 0.46783 0.87316 0.0
C559 C 0.92297 0.49052 0.80266 0.0
C560 C 0.93405 0.46052 0.69454 0.0
C561 C 0.92248 0.43827 0.76673 0.0
N562 N 0.90633 0.42343 0.9344 0.0
N563 N 0.95266 0.51106 0.65804 0.0
C564 C 0.91281 0.44283 0.85924 0.0
C565 C 0.93672 0.48765 0.71707 0.0
N566 N 0.89489 0.46942 0.95061 0.0
N567 N 0.94121 0.45533 0.6027 0.0
H568 H 0.95523 0.53127 0.67296 0.0
H569 H 0.96552 0.51116 0.6001 0.0
H570 H 0.93963 0.43581 0.58322 0.0
H571 H 0.94658 0.46953 0.54334 0.0
H572 H 0.88248 0.45218 0.99762 0.0
H573 H 0.89244 0.4872 0.96345 0.0
H574 H 0.90194 0.42695 1.0066 0.0
H575 H 0.90807 0.40503 0.92697 0.0
C576 C 0.47197 0.91527 0.16518 0.0
C577 C 0.49 0.91761 0.24627 0.0
C578 C 0.45681 0.92185 0.36153 0.0
C579 C 0.43729 0.9163 0.2819 0.0
N580 N 0.42511 0.90641 0.10869 0.0
N581 N 0.49963 0.92192 0.42195 0.0
C582 C 0.44467 0.91289 0.18369 0.0
C583 C 0.48253 0.92081 0.34457 0.0
N584 N 0.48115 0.91559 0.07038 0.0
N585 N 0.4508 0.92841 0.45312 0.0
H586 H 0.51917 0.92246 0.41194 0.0
H587 H 0.4939 0.92081 0.4962 0.0
H588 H 0.43192 0.92878 0.46835 0.0
H589 H 0.46527 0.93554 0.51222 0.0
H590 H 0.47061 0.91696 1.00744 0.0
H591 H 0.50067 0.91664 0.0543 0.0
H592 H 0.42748 0.90022 0.03785 0.0
H593 H 0.40546 0.90566 0.11856 0.0
C594 C 0.53377 0.45168 0.82907 0.0
C595 C 0.5337 0.42536 0.81698 0.0
C596 C 0.58255 0.45211 0.74842 0.0
C597 C 0.58408 0.47857 0.77241 0.0
N598 N 0.56271 0.5031 0.85565 0.0
N599 N 0.5613 0.40171 0.7891 0.0
C600 C 0.56011 0.47827 0.81848 0.0
C601 C 0.55909 0.42593 0.78376 0.0
N602 N 0.50858 0.45145 0.84665 0.0
N603 N 0.6029 0.45177 0.68859 0.0
H604 H 0.54516 0.3824 0.81898 0.0
H605 H 0.58038 0.40174 0.77425 0.0
H606 H 0.61969 0.47033 0.65692 0.0
H607 H 0.60122 0.43281 0.66161 0.0
H608 H 0.50703 0.47002 0.84604 0.0
H609 H 0.48872 0.43255 0.85216 0.0
H610 H 0.54681 0.50354 0.89859 0.0
H611 H 0.5818 0.52285 0.85209 0.0
C612 C 0.10606 0.38853 0.73092 0.0
C613 C 0.12338 0.41625 0.6891 0.0
C614 C 0.12751 0.43794 0.85227 0.0
C615 C 0.10692 0.41072 0.89065 0.0
N616 N 0.07476 0.36021 0.86644 0.0
N617 N 0.14666 0.46771 0.70597 0.0
C618 C 0.09577 0.38594 0.83001 0.0
C619 C 0.13322 0.4411 0.7489 0.0
N620 N 0.10031 0.36481 0.67671 0.0
N621 N 0.14191 0.46066 0.91538 0.0
H622 H 0.15006 0.47073 0.62972 0.0
H623 H 0.15182 0.48649 0.74443 0.0
H624 H 0.13869 0.45873 0.99194 0.0
H625 H 0.15904 0.48045 0.89322 0.0
H626 H 0.08991 0.34403 0.70549 0.0
H627 H 0.1082 0.36631 0.60494 0.0
H628 H 0.0635 0.34183 0.82303 0.0
H629 H 0.0674 0.35789 0.93934 0.0
C630 C 0.7319 0.12294 0.31541 0.0
C631 C 0.7058 0.11139 0.36934 0.0
C632 C 0.68095 0.11445 0.22012 0.0
C633 C 0.70752 0.12804 0.1682 0.0
N634 N 0.7589 0.1488 0.16876 0.0
N635 N 0.65631 0.09948 0.37867 0.0
C636 C 0.73321 0.13327 0.2167 0.0
C637 C 0.68056 0.10817 0.32315 0.0
N638 N 0.75511 0.1231 0.35794 0.0
N639 N 0.65592 0.10638 0.16957 0.0
H640 H 0.65527 0.09415 0.45356 0.0
H641 H 0.63804 0.09957 0.35287 0.0
H642 H 0.65542 0.11015 0.0939 0.0
H643 H 0.63553 0.09375 0.20012 0.0
H644 H 0.77417 0.12883 0.32037 0.0
H645 H 0.75438 0.11532 0.4295 0.0
H646 H 0.77883 0.15575 0.20227 0.0
H647 H 0.76025 0.15668 0.097 0.0
C648 C 0.60878 0.72923 0.74489 0.0
C649 C 0.58581 0.70448 0.70007 0.0
C650 C 0.57659 0.67813 0.8574 0.0
C651 C 0.60075 0.70232 0.90034 0.0
N652 N 0.64216 0.74948 0.88345 0.0
N653 N 0.55036 0.65424 0.70702 0.0
C654 C 0.61753 0.72751 0.84346 0.0
C655 C 0.57024 0.67862 0.75482 0.0
N656 N 0.62162 0.75453 0.69343 0.0
N657 N 0.55987 0.65468 0.91513 0.0
H658 H 0.54559 0.65398 0.63182 0.0
H659 H 0.54012 0.63391 0.73937 0.0
H660 H 0.56499 0.65309 0.98872 0.0
H661 H 0.54019 0.63751 0.89224 0.0
H662 H 0.63674 0.77418 0.72402 0.0
H663 H 0.61539 0.75621 0.62147 0.0
H664 H 0.657 0.7674 0.84352 0.0
H665 H 0.64875 0.74885 0.95581 0.0
C666 C 0.91232 0.58 0.38113 0.0
C667 C 0.90752 0.60094 0.42719 0.0
C668 C 0.88497 0.60536 0.27415 0.0
C669 C 0.89118 0.58563 0.22666 0.0
N670 N 0.9147 0.5576 0.22754 0.0
N671 N 0.89363 0.63701 0.41436 0.0
C672 C 0.90585 0.57377 0.27834 0.0
C673 C 0.89512 0.61468 0.37259 0.0
N674 N 0.92318 0.5662 0.4361 0.0
N675 N 0.86862 0.61448 0.2255 0.0
H676 H 0.90062 0.64412 0.48641 0.0
H677 H 0.88743 0.64984 0.37575 0.0
H678 H 0.86101 0.60791 0.15342 0.0
H679 H 0.86074 0.62665 0.25858 0.0
H680 H 0.92435 0.54853 0.41078 0.0
H681 H 0.92971 0.57157 0.50972 0.0
H682 H 0.92795 0.55051 0.25763 0.0
H683 H 0.91056 0.55307 0.15207 0.0
C684 C 0.3382 0.89922 0.79456 0.0
C685 C 0.31155 0.87991 0.74865 0.0
C686 C 0.28691 0.87284 0.90811 0.0
C687 C 0.3129 0.89458 0.95111 0.0
N688 N 0.36291 0.93016 0.93575 0.0
N689 N 0.25996 0.85096 0.75731 0.0
C690 C 0.33854 0.90816 0.89447 0.0
C691 C 0.28572 0.8673 0.80446 0.0
N692 N 0.36316 0.90835 0.74293 0.0
N693 N 0.26363 0.85701 0.9675 0.0
H694 H 0.25847 0.84692 0.68129 0.0
H695 H 0.24007 0.84342 0.79154 0.0
H696 H 0.26439 0.86022 0.04396 0.0
H697 H 0.2447 0.8391 0.94307 0.0
H698 H 0.38359 0.92048 0.77404 0.0
H699 H 0.36337 0.90191 0.67008 0.0
H700 H 0.38172 0.94302 0.89616 0.0
H701 H 0.36364 0.9367 1.0091 0.0
C702 C 0.41356 0.27233 0.43325 0.0
C703 C 0.40436 0.29167 0.46487 0.0
C704 C 0.40982 0.3101 0.29532 0.0
C705 C 0.42337 0.29437 0.26657 0.0
N706 N 0.43567 0.25802 0.30478 0.0
N707 N 0.37469 0.31044 0.40526 0.0
C708 C 0.42458 0.27474 0.33478 0.0
C709 C 0.39671 0.30513 0.38972 0.0
N710 N 0.40711 0.24889 0.49013 0.0
N711 N 0.41074 0.33101 0.23516 0.0
H712 H 0.36209 0.30329 0.46926 0.0
H713 H 0.36663 0.31804 0.34972 0.0
H714 H 0.42213 0.33712 0.16866 0.0
H715 H 0.40291 0.34441 0.25716 0.0
H716 H 0.41184 0.23298 0.47076 0.0
H717 H 0.3924 0.24292 0.54803 0.0
H718 H 0.44056 0.24597 0.35332 0.0
H719 H 0.4409 0.25697 0.23108 0.0
C720 C 0.61188 0.88826 0.62746 0.0
C721 C 0.59797 0.90021 0.57138 0.0
C722 C 0.57134 0.89957 0.72014 0.0
C723 C 0.58245 0.88421 0.77245 0.0
N724 N 0.61037 0.86056 0.7723 0.0
N725 N 0.56292 0.91548 0.56112 0.0
C726 C 0.60203 0.87772 0.72509 0.0
C727 C 0.57708 0.90516 0.61682 0.0
N728 N 0.63497 0.88764 0.58819 0.0
N729 N 0.55676 0.91031 0.77063 0.0
H730 H 0.56788 0.92138 0.48689 0.0
H731 H 0.54515 0.91652 0.5866 0.0
H732 H 0.55353 0.90799 0.84706 0.0
H733 H 0.55044 0.92399 0.73898 0.0
H734 H 0.64782 0.88179 0.62859 0.0
H735 H 0.64276 0.89536 0.5174 0.0
H736 H 0.62239 0.85263 0.73835 0.0
H737 H 0.60303 0.85217 0.84295 0.0
C738 C 0.67904 0.56666 0.25026 0.0
C739 C 0.70543 0.58007 0.30405 0.0
C740 C 0.72981 0.61073 0.15963 0.0
C741 C 0.70398 0.59578 0.10339 0.0
N742 N 0.6545 0.55822 0.09125 0.0
N743 N 0.75666 0.6116 0.30671 0.0
C744 C 0.67878 0.57321 0.14764 0.0
C745 C 0.73101 0.60132 0.25778 0.0
N746 N 0.65397 0.54882 0.2989 0.0
N747 N 0.75308 0.63416 0.11946 0.0
H748 H 0.75809 0.60464 0.37769 0.0
H749 H 0.77662 0.62503 0.27442 0.0
H750 H 0.75312 0.64115 0.04731 0.0
H751 H 0.7716 0.64786 0.15944 0.0
H752 H 0.63362 0.54041 0.26714 0.0
H753 H 0.65323 0.54455 0.37461 0.0
H754 H 0.63639 0.53934 0.11451 0.0
H755 H 0.65299 0.56389 0.01838 0.0
C756 C 0.12828 0.72573 0.68483 0.0
C757 C 0.09997 0.70522 0.6529 0.0
C758 C 0.08812 0.6871 0.82403 0.0
C759 C 0.11756 0.70376 0.85162 0.0
N760 N 0.16592 0.73996 0.80945 0.0
N761 N 0.05112 0.68305 0.71153 0.0
C762 C 0.13774 0.72339 0.78214 0.0
C763 C 0.07915 0.69064 0.72823 0.0
N764 N 0.1441 0.74998 0.63 0.0
N765 N 0.06881 0.66667 0.88702 0.0
H766 H 0.04484 0.68917 0.64683 0.0
H767 H 0.03535 0.6746 0.76648 0.0
H768 H 0.0746 0.66253 0.95634 0.0
H769 H 0.04776 0.65195 0.86574 0.0
H770 H 0.16431 0.76665 0.65122 0.0
H771 H 0.13463 0.75567 0.57331 0.0
H772 H 0.1823 0.75224 0.75927 0.0
H773 H 0.17304 0.74012 0.88169 0.0
C774 C 0.43855 0.12323 0.17001 0.0
C775 C 0.4128 0.10003 0.13116 0.0
C776 C 0.38901 0.09503 0.29094 0.0
C777 C 0.41584 0.11556 0.33298 0.0
N778 N 0.46726 0.14544 0.31677 0.0
N779 N 0.36404 0.0621 0.15462 0.0
C780 C 0.44093 0.12879 0.27348 0.0
C781 C 0.38806 0.08547 0.19162 0.0
N782 N 0.46056 0.14022 0.10729 0.0
N783 N 0.36445 0.08551 0.34515 0.0
H784 H 0.36286 0.05521 0.0815 0.0
H785 H 0.3462 0.04863 0.19769 0.0
H786 H 0.36465 0.09298 0.4167 0.0
H787 H 0.34386 0.0723 0.3165 0.0
H788 H 0.47887 0.15908 0.12986 0.0
H789 H 0.45912 0.13703 0.03069 0.0
H790 H 0.48662 0.1534 0.27845 0.0
H791 H 0.46992 0.14884 0.39315 0.0
C792 C 0.28817 0.43661 0.70408 0.0
C793 C 0.30499 0.43292 0.77768 0.0
C794 C 0.32154 0.41201 0.65347 0.0
C795 C 0.30936 0.42021 0.5756 0.0
N796 N 0.28834 0.44983 0.53255 0.0
N797 N 0.34877 0.43197 0.80176 0.0
C798 C 0.29427 0.43497 0.60172 0.0
C799 C 0.32477 0.4246 0.74722 0.0
N800 N 0.26684 0.44197 0.73104 0.0
N801 N 0.32993 0.39219 0.63935 0.0
H802 H 0.35387 0.44518 0.8641 0.0
H803 H 0.36509 0.42856 0.77536 0.0
H804 H 0.32521 0.38012 0.57431 0.0
H805 H 0.33822 0.38559 0.69737 0.0
H806 H 0.2527 0.44279 0.67961 0.0
H807 H 0.26178 0.44278 0.80521 0.0
H808 H 0.2789 0.46209 0.55088 0.0
H809 H 0.29673 0.45361 0.4611 0.0
C810 C 0.8732 0.28855 0.231 0.0
C811 C 0.8868 0.31432 0.28698 0.0
C812 C 0.91544 0.34057 0.14122 0.0
C813 C 0.90104 0.315 0.08455 0.0
N814 N 0.86177 0.26664 0.06759 0.0
N815 N 0.91654 0.36572 0.29256 0.0
C816 C 0.87855 0.28953 0.12733 0.0
C817 C 0.90669 0.34065 0.24105 0.0
N818 N 0.85595 0.26304 0.27787 0.0
N819 N 0.93798 0.36446 0.10005 0.0
H820 H 0.91026 0.3662 0.36541 0.0
H821 H 0.92916 0.386 0.26133 0.0
H822 H 0.94437 0.3649 0.02669 0.0
H823 H 0.95138 0.3831 0.13979 0.0
H824 H 0.84762 0.24309 0.24343 0.0
H825 H 0.85184 0.26177 0.35378 0.0
H826 H 0.84344 0.24813 0.09193 0.0
H827 H 0.86465 0.26758 0.99098 0.0
C828 C 0.17916 0.37935 0.28617 0.0
C829 C 0.171 0.39138 0.20676 0.0
C830 C 0.21096 0.3943 0.10708 0.0
C831 C 0.22272 0.38929 0.19314 0.0
N832 N 0.21684 0.37233 0.36018 0.0
N833 N 0.17915 0.4095 0.03808 0.0
C834 C 0.20606 0.37975 0.28086 0.0
C835 C 0.18651 0.39793 0.11529 0.0
N836 N 0.16184 0.36848 0.36749 0.0
N837 N 0.22393 0.39645 0.01797 0.0
H838 H 0.16125 0.41211 0.03904 0.0
H839 H 0.19174 0.41816 0.97494 0.0
H840 H 0.24176 0.39364 0.01202 0.0
H841 H 0.21543 0.39788 0.95003 0.0
H842 H 0.16557 0.35786 0.42514 0.0
H843 H 0.14228 0.36798 0.3743 0.0
H844 H 0.2082 0.36858 0.43129 0.0
H845 H 0.23505 0.37017 0.35352 0.0
C846 C 0.8345 0.21161 0.80859 0.0
C847 C 0.84183 0.22727 0.71831 0.0
C848 C 0.80038 0.18633 0.63901 0.0
C849 C 0.78923 0.17453 0.73379 0.0
N850 N 0.79664 0.17448 0.90983 0.0
N851 N 0.83308 0.22861 0.5437 0.0
C852 C 0.80691 0.18631 0.81883 0.0
C853 C 0.82558 0.21401 0.63159 0.0
N854 N 0.8541 0.2212 0.88413 0.0
N855 N 0.78653 0.17089 0.55645 0.0
H856 H 0.852 0.24829 0.53513 0.0
H857 H 0.82008 0.22174 0.48062 0.0
H858 H 0.76881 0.1502 0.56204 0.0
H859 H 0.79431 0.17705 0.4846 0.0
H860 H 0.85119 0.20994 0.95007 0.0
H861 H 0.87458 0.23921 0.87565 0.0
H862 H 0.80698 0.18405 0.9762 0.0
H863 H 0.77703 0.15545 0.91867 0.0
C864 C 0.62087 0.82851 0.31315 0.0
C865 C 0.61732 0.83569 0.21472 0.0
C866 C 0.62295 0.79579 0.15317 0.0
C867 C 0.62001 0.78515 0.25144 0.0
N868 N 0.61846 0.79207 0.42669 0.0
N869 N 0.61733 0.82791 0.03929 0.0
C870 C 0.62044 0.80215 0.33223 0.0
C871 C 0.61982 0.82026 0.1339 0.0
N872 N 0.62428 0.84695 0.38817 0.0
N873 N 0.6283 0.78197 0.07862 0.0
H874 H 0.61607 0.84628 0.02371 0.0
H875 H 0.6156 0.81577 0.97686 0.0
H876 H 0.6312 0.76451 0.09309 0.0
H877 H 0.63248 0.78923 1.00563 0.0
H878 H 0.62897 0.84431 0.46105 0.0
H879 H 0.62507 0.86644 0.37446 0.0
H880 H 0.61505 0.8014 0.48892 0.0
H881 H 0.61932 0.77347 0.44219 0.0
C882 C 0.82698 0.62217 0.86051 0.0
C883 C 0.84154 0.61878 0.77875 0.0
C884 C 0.80625 0.62057 0.66468 0.0
C885 C 0.78873 0.61788 0.74685 0.0
N886 N 0.78325 0.61982 0.92274 0.0
N887 N 0.8475 0.61808 0.60255 0.0
C888 C 0.79977 0.6205 0.8448 0.0
C889 C 0.83219 0.61969 0.68049 0.0
N890 N 0.83883 0.62603 0.95306 0.0
N891 N 0.79752 0.62308 0.57172 0.0
H892 H 0.86725 0.61908 0.61288 0.0
H893 H 0.84062 0.61517 0.52907 0.0
H894 H 0.7786 0.62366 0.55949 0.0
H895 H 0.80982 0.62684 0.50803 0.0
H896 H 0.83046 0.63025 0.01617 0.0
H897 H 0.85856 0.62711 0.96544 0.0
H898 H 0.78785 0.61829 0.99675 0.0
H899 H 0.76423 0.62029 0.91195 0.0
C900 C 0.21556 0.81525 0.39546 0.0
C901 C 0.22518 0.83471 0.31554 0.0
C902 C 0.18085 0.80162 0.22317 0.0
C903 C 0.1751 0.77949 0.29317 0.0
N904 N 0.1901 0.7655 0.44395 0.0
N905 N 0.21607 0.84863 0.15686 0.0
C906 C 0.19295 0.7865 0.37984 0.0
C907 C 0.20716 0.82871 0.23112 0.0
N908 N 0.22888 0.82399 0.48546 0.0
N909 N 0.16193 0.79642 0.14727 0.0
H910 H 0.23424 0.86903 0.16482 0.0
H911 H 0.20619 0.84486 0.08759 0.0
H912 H 0.14313 0.77669 0.13759 0.0
H913 H 0.16369 0.81217 0.09808 0.0
H914 H 0.2213 0.81156 0.54957 0.0
H915 H 0.24547 0.84502 0.49784 0.0
H916 H 0.20469 0.76913 0.50102 0.0
H917 H 0.175 0.74388 0.4356 0.0
C918 C 0.40072 0.20476 0.93844 0.0
C919 C 0.3934 0.21657 0.85781 0.0
C920 C 0.38093 0.17358 0.75779 0.0
C921 C 0.39379 0.16446 0.83159 0.0
N922 N 0.4139 0.17029 0.99667 0.0
N923 N 0.36748 0.20897 0.70623 0.0
C924 C 0.40229 0.17932 0.92445 0.0
C925 C 0.38036 0.19971 0.77248 0.0
N926 N 0.40644 0.21836 0.02816 0.0
N927 N 0.37154 0.15868 0.67073 0.0
H928 H 0.36678 0.22782 0.71819 0.0
H929 H 0.35569 0.19728 0.64473 0.0
H930 H 0.37042 0.13901 0.65902 0.0
H931 H 0.36524 0.16583 0.60903 0.0
H932 H 0.40987 0.21022 0.09362 0.0
H933 H 0.40491 0.23679 0.03845 0.0
H934 H 0.42386 0.18191 0.06059 0.0
H935 H 0.41479 0.15149 0.99098 0.0
loop_
_geom_bond_atom_site_label_1
_geom_bond_atom_site_label_2
_geom_bond_distance
_geom_bond_site_symmetry_2
_ccdc_geom_bond_type
C0 C1 1.351 . S
C0 N3 1.368 . S
C0 H5 0.931 . S
C1 C0 1.351 . S
C1 N2 1.373 . S
C1 H29 0.930 . S
N2 C1 1.373 . S
N2 C4 1.340 . S
N3 C0 1.368 . S
N3 C4 1.321 . S
N3 Co6 2.135 . S
C4 N2 1.340 . S
C4 N3 1.321 . S
C4 H28 0.930 . S
H5 C0 0.931 . S
Co6 N3 2.135 . S
Co6 N9 2.121 . S
Co6 O14 2.055 . S
Co6 O17 2.039 . S
Co6 N20 2.140 . S
C7 O8 1.227 . S
C7 O17 1.265 . S
O8 C7 1.227 . S
N9 Co6 2.121 . S
N9 C11 1.375 . S
N9 C12 1.313 . S
C10 C11 1.338 . S
C10 N13 1.377 . S
C10 H30 0.930 . S
C11 N9 1.375 . S
C11 C10 1.338 . S
C11 H15 0.931 . S
C12 N9 1.313 . S
C12 N13 1.344 . S
C12 H16 0.930 . S
N13 C10 1.377 . S
N13 C12 1.344 . S
O14 Co6 2.055 . S
O14 C18 1.253 . S
H15 C11 0.931 . S
H16 C12 0.930 . S
O17 Co6 2.039 . S
O17 C7 1.265 . S
C18 O14 1.253 . S
C18 O19 1.227 . S
O19 C18 1.227 . S
N20 Co6 2.140 . S
N20 C23 1.346 . S
N20 C24 1.345 . S
C21 C22 1.387 . S
C21 C25 1.391 . S
C22 C21 1.387 . S
C22 C23 1.369 . S
C22 H31 0.929 . S
C23 N20 1.346 . S
C23 C22 1.369 . S
C23 H26 0.928 . S
C24 N20 1.345 . S
C24 C25 1.371 . S
C24 H27 0.931 . S
C25 C21 1.391 . S
C25 C24 1.371 . S
C25 H32 0.930 . S
H26 C23 0.928 . S
H27 C24 0.931 . S
H28 C4 0.930 . S
H29 C1 0.930 . S
H30 C10 0.930 . S
H31 C22 0.929 . S
H32 C25 0.930 . S
C33 C34 1.351 . S
C33 N36 1.368 1_554 S
C33 H38 0.931 1_554 S
C34 C33 1.351 . S
C34 N35 1.373 . S
C34 H62 0.930 . S
N35 C34 1.373 . S
N35 C37 1.340 . S
N36 C33 1.368 1_556 S
N36 C37 1.321 1_556 S
N36 Co39 2.135 . S
C37 N35 1.340 . S
C37 N36 1.321 1_554 S
C37 H61 0.930 . S
H38 C33 0.931 1_556 S
Co39 N36 2.135 . S
Co39 N42 2.121 . S
Co39 O47 2.055 . S
Co39 O50 2.039 . S
Co39 N53 2.140 . S
C40 O41 1.227 . S
C40 O50 1.265 . S
O41 C40 1.227 . S
N42 Co39 2.121 . S
N42 C44 1.375 . S
N42 C45 1.313 . S
C43 C44 1.338 . S
C43 N46 1.377 . S
C43 H63 0.930 . S
C44 N42 1.375 . S
C44 C43 1.338 . S
C44 H48 0.931 . S
C45 N42 1.313 . S
C45 N46 1.344 . S
C45 H49 0.930 . S
N46 C43 1.377 . S
N46 C45 1.344 . S
O47 Co39 2.055 . S
O47 C51 1.253 . S
H48 C44 0.931 . S
H49 C45 0.930 . S
O50 Co39 2.039 . S
O50 C40 1.265 . S
C51 O47 1.253 . S
C51 O52 1.227 . S
O52 C51 1.227 . S
N53 Co39 2.140 . S
N53 C56 1.346 . S
N53 C57 1.345 . S
C54 C55 1.387 . S
C54 C58 1.391 . S
C55 C54 1.387 . S
C55 C56 1.369 . S
C55 H64 0.929 . S
C56 N53 1.346 . S
C56 C55 1.369 . S
C56 H59 0.928 . S
C57 N53 1.345 . S
C57 C58 1.371 . S
C57 H60 0.931 . S
C58 C54 1.391 . S
C58 C57 1.371 . S
C58 H65 0.930 . S
H59 C56 0.928 . S
H60 C57 0.931 . S
H61 C37 0.930 . S
H62 C34 0.930 . S
H63 C43 0.930 . S
H64 C55 0.929 . S
H65 C58 0.930 . S
C66 C67 1.351 . S
C66 N69 1.368 . S
C66 H71 0.931 . S
C67 C66 1.351 . S
C67 N68 1.373 . S
C67 H95 0.930 . S
N68 C67 1.373 . S
N68 C70 1.340 . S
N69 C66 1.368 . S
N69 C70 1.321 . S
N69 Co72 2.135 . S
C70 N68 1.340 . S
C70 N69 1.321 . S
C70 H94 0.930 . S
H71 C66 0.931 . S
Co72 N69 2.135 . S
Co72 N75 2.121 . S
Co72 O80 2.055 . S
Co72 O83 2.039 . S
Co72 N86 2.140 . S
C73 O74 1.227 . S
C73 O83 1.265 . S
O74 C73 1.227 . S
N75 Co72 2.121 . S
N75 C77 1.375 . S
N75 C78 1.313 . S
C76 C77 1.338 . S
C76 N79 1.377 . S
C76 H96 0.930 . S
C77 N75 1.375 . S
C77 C76 1.338 . S
C77 H81 0.931 . S
C78 N75 1.313 . S
C78 N79 1.344 . S
C78 H82 0.930 . S
N79 C76 1.377 . S
N79 C78 1.344 . S
O80 Co72 2.055 . S
O80 C84 1.253 . S
H81 C77 0.931 . S
H82 C78 0.930 . S
O83 Co72 2.039 . S
O83 C73 1.265 . S
C84 O80 1.253 . S
C84 O85 1.227 . S
O85 C84 1.227 . S
N86 Co72 2.140 . S
N86 C89 1.346 . S
N86 C90 1.345 . S
C87 C88 1.387 . S
C87 C91 1.391 . S
C88 C87 1.387 . S
C88 C89 1.369 . S
C88 H97 0.929 . S
C89 N86 1.346 . S
C89 C88 1.369 . S
C89 H92 0.928 . S
C90 N86 1.345 . S
C90 C91 1.371 . S
C90 H93 0.931 . S
C91 C87 1.391 . S
C91 C90 1.371 . S
C91 H98 0.930 . S
H92 C89 0.928 . S
H93 C90 0.931 . S
H94 C70 0.930 . S
H95 C67 0.930 . S
H96 C76 0.930 . S
H97 C88 0.929 . S
H98 C91 0.930 . S
C99 C100 1.351 . S
C99 N102 1.368 1_554 S
C99 H104 0.931 1_554 S
C100 C99 1.351 . S
C100 N101 1.373 . S
C100 H128 0.930 . S
N101 C100 1.373 . S
N101 C103 1.340 . S
N102 C99 1.368 1_556 S
N102 C103 1.321 1_556 S
N102 Co105 2.135 . S
C103 N101 1.340 . S
C103 N102 1.321 1_554 S
C103 H127 0.930 . S
H104 C99 0.931 1_556 S
Co105 N102 2.135 . S
Co105 N108 2.121 . S
Co105 O113 2.055 . S
Co105 O116 2.039 . S
Co105 N119 2.140 . S
C106 O107 1.227 . S
C106 O116 1.265 . S
O107 C106 1.227 . S
N108 Co105 2.121 . S
N108 C110 1.375 . S
N108 C111 1.313 . S
C109 C110 1.338 . S
C109 N112 1.377 . S
C109 H129 0.930 . S
C110 N108 1.375 . S
C110 C109 1.338 . S
C110 H114 0.931 . S
C111 N108 1.313 . S
C111 N112 1.344 . S
C111 H115 0.930 . S
N112 C109 1.377 . S
N112 C111 1.344 . S
O113 Co105 2.055 . S
O113 C117 1.253 . S
H114 C110 0.931 . S
H115 C111 0.930 . S
O116 Co105 2.039 . S
O116 C106 1.265 . S
C117 O113 1.253 . S
C117 O118 1.227 . S
O118 C117 1.227 . S
N119 Co105 2.140 . S
N119 C122 1.346 . S
N119 C123 1.345 . S
C120 C121 1.387 . S
C120 C124 1.391 . S
C121 C120 1.387 . S
C121 C122 1.369 . S
C121 H130 0.929 . S
C122 N119 1.346 . S
C122 C121 1.369 . S
C122 H125 0.928 . S
C123 N119 1.345 . S
C123 C124 1.371 . S
C123 H126 0.931 . S
C124 C120 1.391 . S
C124 C123 1.371 . S
C124 H131 0.930 . S
H125 C122 0.928 . S
H126 C123 0.931 . S
H127 C103 0.930 . S
H128 C100 0.930 . S
H129 C109 0.930 . S
H130 C121 0.929 . S
H131 C124 0.930 . S
C132 C133 1.351 . S
C132 N135 1.368 . S
C132 H137 0.931 . S
C133 C132 1.351 . S
C133 N134 1.373 . S
C133 H161 0.930 . S
N134 C133 1.373 . S
N134 C136 1.340 . S
N135 C132 1.368 . S
N135 C136 1.321 . S
N135 Co138 2.135 . S
C136 N134 1.340 . S
C136 N135 1.321 . S
C136 H160 0.930 . S
H137 C132 0.931 . S
Co138 N135 2.135 . S
Co138 N141 2.121 . S
Co138 O146 2.055 . S
Co138 O149 2.039 . S
Co138 N152 2.140 . S
C139 O140 1.227 . S
C139 O149 1.265 . S
O140 C139 1.227 . S
N141 Co138 2.121 . S
N141 C143 1.375 . S
N141 C144 1.313 . S
C142 C143 1.338 . S
C142 N145 1.377 . S
C142 H162 0.930 . S
C143 N141 1.375 . S
C143 C142 1.338 . S
C143 H147 0.931 . S
C144 N141 1.313 . S
C144 N145 1.344 . S
C144 H148 0.930 . S
N145 C142 1.377 . S
N145 C144 1.344 . S
O146 Co138 2.055 . S
O146 C150 1.253 . S
H147 C143 0.931 . S
H148 C144 0.930 . S
O149 Co138 2.039 . S
O149 C139 1.265 . S
C150 O146 1.253 . S
C150 O151 1.227 . S
O151 C150 1.227 . S
N152 Co138 2.140 . S
N152 C155 1.346 . S
N152 C156 1.345 . S
C153 C154 1.387 . S
C153 C157 1.391 . S
C154 C153 1.387 . S
C154 C155 1.369 . S
C154 H163 0.929 . S
C155 N152 1.346 . S
C155 C154 1.369 . S
C155 H158 0.928 . S
C156 N152 1.345 . S
C156 C157 1.371 . S
C156 H159 0.931 . S
C157 C153 1.391 . S
C157 C156 1.371 . S
C157 H164 0.930 . S
H158 C155 0.928 . S
H159 C156 0.931 . S
H160 C136 0.930 . S
H161 C133 0.930 . S
H162 C142 0.930 . S
H163 C154 0.929 . S
H164 C157 0.930 . S
C165 C166 1.351 . S
C165 N168 1.368 1_554 S
C165 H170 0.931 1_554 S
C166 C165 1.351 . S
C166 N167 1.373 . S
C166 H194 0.930 . S
N167 C166 1.373 . S
N167 C169 1.340 . S
N168 C165 1.368 1_556 S
N168 C169 1.321 1_556 S
N168 Co171 2.135 . S
C169 N167 1.340 . S
C169 N168 1.321 1_554 S
C169 H193 0.930 . S
H170 C165 0.931 1_556 S
Co171 N168 2.135 . S
Co171 N174 2.121 . S
Co171 O179 2.055 . S
Co171 O182 2.039 . S
Co171 N185 2.140 . S
C172 O173 1.227 . S
C172 O182 1.265 . S
O173 C172 1.227 . S
N174 Co171 2.121 . S
N174 C176 1.375 . S
N174 C177 1.313 . S
C175 C176 1.338 . S
C175 N178 1.377 . S
C175 H195 0.930 . S
C176 N174 1.375 . S
C176 C175 1.338 . S
C176 H180 0.931 . S
C177 N174 1.313 . S
C177 N178 1.344 . S
C177 H181 0.930 . S
N178 C175 1.377 . S
N178 C177 1.344 . S
O179 Co171 2.055 . S
O179 C183 1.253 . S
H180 C176 0.931 . S
H181 C177 0.930 . S
O182 Co171 2.039 . S
O182 C172 1.265 . S
C183 O179 1.253 . S
C183 O184 1.227 . S
O184 C183 1.227 . S
N185 Co171 2.140 . S
N185 C188 1.346 . S
N185 C189 1.345 . S
C186 C187 1.387 . S
C186 C190 1.391 . S
C187 C186 1.387 . S
C187 C188 1.369 . S
C187 H196 0.929 . S
C188 N185 1.346 . S
C188 C187 1.369 . S
C188 H191 0.928 . S
C189 N185 1.345 . S
C189 C190 1.371 . S
C189 H192 0.931 . S
C190 C186 1.391 . S
C190 C189 1.371 . S
C190 H197 0.930 . S
H191 C188 0.928 . S
H192 C189 0.931 . S
H193 C169 0.930 . S
H194 C166 0.930 . S
H195 C175 0.930 . S
H196 C187 0.929 . S
H197 C190 0.930 . S
C198 C199 1.351 . S
C198 N201 1.368 1_556 S
C198 H203 0.931 1_556 S
C199 C198 1.351 . S
C199 N200 1.373 . S
C199 H227 0.930 . S
N200 C199 1.373 . S
N200 C202 1.340 . S
N201 C198 1.368 1_554 S
N201 C202 1.321 1_554 S
N201 Co204 2.135 . S
C202 N200 1.340 . S
C202 N201 1.321 1_556 S
C202 H226 0.930 . S
H203 C198 0.931 1_554 S
Co204 N201 2.135 . S
Co204 N207 2.121 . S
Co204 O212 2.055 . S
Co204 O215 2.039 . S
Co204 N218 2.140 . S
C205 O206 1.227 . S
C205 O215 1.265 . S
O206 C205 1.227 . S
N207 Co204 2.121 . S
N207 C209 1.375 . S
N207 C210 1.313 . S
C208 C209 1.338 . S
C208 N211 1.377 . S
C208 H228 0.930 . S
C209 N207 1.375 . S
C209 C208 1.338 . S
C209 H213 0.931 . S
C210 N207 1.313 . S
C210 N211 1.344 . S
C210 H214 0.930 . S
N211 C208 1.377 . S
N211 C210 1.344 . S
O212 Co204 2.055 . S
O212 C216 1.253 . S
H213 C209 0.931 . S
H214 C210 0.930 . S
O215 Co204 2.039 . S
O215 C205 1.265 . S
C216 O212 1.253 . S
C216 O217 1.227 . S
O217 C216 1.227 . S
N218 Co204 2.140 . S
N218 C221 1.346 . S
N218 C222 1.345 . S
C219 C220 1.387 . S
C219 C223 1.391 . S
C220 C219 1.387 . S
C220 C221 1.369 . S
C220 H229 0.929 . S
C221 N218 1.346 . S
C221 C220 1.369 . S
C221 H224 0.928 . S
C222 N218 1.345 . S
C222 C223 1.371 . S
C222 H225 0.931 . S
C223 C219 1.391 . S
C223 C222 1.371 . S
C223 H230 0.930 . S
H224 C221 0.928 . S
H225 C222 0.931 . S
H226 C202 0.930 . S
H227 C199 0.930 . S
H228 C208 0.930 . S
H229 C220 0.929 . S
H230 C223 0.930 . S
C231 C232 1.351 . S
C231 N234 1.368 . S
C231 H236 0.931 . S
C232 C231 1.351 . S
C232 N233 1.373 . S
C232 H260 0.930 . S
N233 C232 1.373 . S
N233 C235 1.340 . S
N234 C231 1.368 . S
N234 C235 1.321 . S
N234 Co237 2.135 . S
C235 N233 1.340 . S
C235 N234 1.321 . S
C235 H259 0.930 . S
H236 C231 0.931 . S
Co237 N234 2.135 . S
Co237 N240 2.121 . S
Co237 O245 2.055 . S
Co237 O248 2.039 . S
Co237 N251 2.140 . S
C238 O239 1.227 . S
C238 O248 1.265 . S
O239 C238 1.227 . S
N240 Co237 2.121 . S
N240 C242 1.375 . S
N240 C243 1.313 . S
C241 C242 1.338 . S
C241 N244 1.377 . S
C241 H261 0.930 . S
C242 N240 1.375 . S
C242 C241 1.338 . S
C242 H246 0.931 . S
C243 N240 1.313 . S
C243 N244 1.344 . S
C243 H247 0.930 . S
N244 C241 1.377 . S
N244 C243 1.344 . S
O245 Co237 2.055 . S
O245 C249 1.253 . S
H246 C242 0.931 . S
H247 C243 0.930 . S
O248 Co237 2.039 . S
O248 C238 1.265 . S
C249 O245 1.253 . S
C249 O250 1.227 . S
O250 C249 1.227 . S
N251 Co237 2.140 . S
N251 C254 1.346 . S
N251 C255 1.345 . S
C252 C253 1.387 . S
C252 C256 1.391 . S
C253 C252 1.387 . S
C253 C254 1.369 . S
C253 H262 0.929 . S
C254 N251 1.346 . S
C254 C253 1.369 . S
C254 H257 0.928 . S
C255 N251 1.345 . S
C255 C256 1.371 . S
C255 H258 0.931 . S
C256 C252 1.391 . S
C256 C255 1.371 . S
C256 H263 0.930 . S
H257 C254 0.928 . S
H258 C255 0.931 . S
H259 C235 0.930 . S
H260 C232 0.930 . S
H261 C241 0.930 . S
H262 C253 0.929 . S
H263 C256 0.930 . S
C264 C265 1.351 . S
C264 N267 1.368 1_556 S
C264 H269 0.931 1_556 S
C265 C264 1.351 . S
C265 N266 1.373 . S
C265 H293 0.930 . S
N266 C265 1.373 . S
N266 C268 1.340 . S
N267 C264 1.368 1_554 S
N267 C268 1.321 1_554 S
N267 Co270 2.135 . S
C268 N266 1.340 . S
C268 N267 1.321 1_556 S
C268 H292 0.930 . S
H269 C264 0.931 1_554 S
Co270 N267 2.135 . S
Co270 N273 2.121 . S
Co270 O278 2.055 . S
Co270 O281 2.039 . S
Co270 N284 2.140 . S
C271 O272 1.227 . S
C271 O281 1.265 . S
O272 C271 1.227 . S
N273 Co270 2.121 . S
N273 C275 1.375 . S
N273 C276 1.313 . S
C274 C275 1.338 . S
C274 N277 1.377 . S
C274 H294 0.930 . S
C275 N273 1.375 . S
C275 C274 1.338 . S
C275 H279 0.931 . S
C276 N273 1.313 . S
C276 N277 1.344 . S
C276 H280 0.930 . S
N277 C274 1.377 . S
N277 C276 1.344 . S
O278 Co270 2.055 . S
O278 C282 1.253 . S
H279 C275 0.931 . S
H280 C276 0.930 . S
O281 Co270 2.039 . S
O281 C271 1.265 . S
C282 O278 1.253 . S
C282 O283 1.227 . S
O283 C282 1.227 . S
N284 Co270 2.140 . S
N284 C287 1.346 . S
N284 C288 1.345 . S
C285 C286 1.387 . S
C285 C289 1.391 . S
C286 C285 1.387 . S
C286 C287 1.369 . S
C286 H295 0.929 . S
C287 N284 1.346 . S
C287 C286 1.369 . S
C287 H290 0.928 . S
C288 N284 1.345 . S
C288 C289 1.371 . S
C288 H291 0.931 . S
C289 C285 1.391 . S
C289 C288 1.371 . S
C289 H296 0.930 . S
H290 C287 0.928 . S
H291 C288 0.931 . S
H292 C268 0.930 . S
H293 C265 0.930 . S
H294 C274 0.930 . S
H295 C286 0.929 . S
H296 C289 0.930 . S
C297 C298 1.351 . S
C297 N300 1.368 . S
C297 H302 0.931 . S
C298 C297 1.351 . S
C298 N299 1.373 . S
C298 H326 0.930 . S
N299 C298 1.373 . S
N299 C301 1.340 . S
N300 C297 1.368 . S
N300 C301 1.321 . S
N300 Co303 2.135 . S
C301 N299 1.340 . S
C301 N300 1.321 . S
C301 H325 0.930 . S
H302 C297 0.931 . S
Co303 N300 2.135 . S
Co303 N306 2.121 . S
Co303 O311 2.055 . S
Co303 O314 2.039 . S
Co303 N317 2.140 . S
C304 O305 1.227 . S
C304 O314 1.265 . S
O305 C304 1.227 . S
N306 Co303 2.121 . S
N306 C308 1.375 . S
N306 C309 1.313 . S
C307 C308 1.338 . S
C307 N310 1.377 . S
C307 H327 0.930 . S
C308 N306 1.375 . S
C308 C307 1.338 . S
C308 H312 0.931 . S
C309 N306 1.313 . S
C309 N310 1.344 . S
C309 H313 0.930 . S
N310 C307 1.377 . S
N310 C309 1.344 . S
O311 Co303 2.055 . S
O311 C315 1.253 . S
H312 C308 0.931 . S
H313 C309 0.930 . S
O314 Co303 2.039 . S
O314 C304 1.265 . S
C315 O311 1.253 . S
C315 O316 1.227 . S
O316 C315 1.227 . S
N317 Co303 2.140 . S
N317 C320 1.346 . S
N317 C321 1.345 . S
C318 C319 1.387 . S
C318 C322 1.391 . S
C319 C318 1.387 . S
C319 C320 1.369 . S
C319 H328 0.929 . S
C320 N317 1.346 . S
C320 C319 1.369 . S
C320 H323 0.928 . S
C321 N317 1.345 . S
C321 C322 1.371 . S
C321 H324 0.931 . S
C322 C318 1.391 . S
C322 C321 1.371 . S
C322 H329 0.930 . S
H323 C320 0.928 . S
H324 C321 0.931 . S
H325 C301 0.930 . S
H326 C298 0.930 . S
H327 C307 0.930 . S
H328 C319 0.929 . S
H329 C322 0.930 . S
C330 C331 1.351 . S
C330 N333 1.368 1_556 S
C330 H335 0.931 1_556 S
C331 C330 1.351 . S
C331 N332 1.373 . S
C331 H359 0.930 . S
N332 C331 1.373 . S
N332 C334 1.340 . S
N333 C330 1.368 1_554 S
N333 C334 1.321 1_554 S
N333 Co336 2.135 . S
C334 N332 1.340 . S
C334 N333 1.321 1_556 S
C334 H358 0.930 . S
H335 C330 0.931 1_554 S
Co336 N333 2.135 . S
Co336 N339 2.121 . S
Co336 O344 2.055 . S
Co336 O347 2.039 . S
Co336 N350 2.140 . S
C337 O338 1.227 . S
C337 O347 1.265 . S
O338 C337 1.227 . S
N339 Co336 2.121 . S
N339 C341 1.375 . S
N339 C342 1.313 . S
C340 C341 1.338 . S
C340 N343 1.377 . S
C340 H360 0.930 . S
C341 N339 1.375 . S
C341 C340 1.338 . S
C341 H345 0.931 . S
C342 N339 1.313 . S
C342 N343 1.344 . S
C342 H346 0.930 . S
N343 C340 1.377 . S
N343 C342 1.344 . S
O344 Co336 2.055 . S
O344 C348 1.253 . S
H345 C341 0.931 . S
H346 C342 0.930 . S
O347 Co336 2.039 . S
O347 C337 1.265 . S
C348 O344 1.253 . S
C348 O349 1.227 . S
O349 C348 1.227 . S
N350 Co336 2.140 . S
N350 C353 1.346 . S
N350 C354 1.345 . S
C351 C352 1.387 . S
C351 C355 1.391 . S
C352 C351 1.387 . S
C352 C353 1.369 . S
C352 H361 0.929 . S
C353 N350 1.346 . S
C353 C352 1.369 . S
C353 H356 0.928 . S
C354 N350 1.345 . S
C354 C355 1.371 . S
C354 H357 0.931 . S
C355 C351 1.391 . S
C355 C354 1.371 . S
C355 H362 0.930 . S
H356 C353 0.928 . S
H357 C354 0.931 . S
H358 C334 0.930 . S
H359 C331 0.930 . S
H360 C340 0.930 . S
H361 C352 0.929 . S
H362 C355 0.930 . S
C363 C364 1.351 . S
C363 N366 1.368 . S
C363 H368 0.931 . S
C364 C363 1.351 . S
C364 N365 1.373 . S
C364 H392 0.930 . S
N365 C364 1.373 . S
N365 C367 1.340 . S
N366 C363 1.368 . S
N366 C367 1.321 . S
N366 Co369 2.135 . S
C367 N365 1.340 . S
C367 N366 1.321 . S
C367 H391 0.930 . S
H368 C363 0.931 . S
Co369 N366 2.135 . S
Co369 N372 2.121 . S
Co369 O377 2.055 . S
Co369 O380 2.039 . S
Co369 N383 2.140 . S
C370 O371 1.227 . S
C370 O380 1.265 . S
O371 C370 1.227 . S
N372 Co369 2.121 . S
N372 C374 1.375 . S
N372 C375 1.313 . S
C373 C374 1.338 . S
C373 N376 1.377 . S
C373 H393 0.930 . S
C374 N372 1.375 . S
C374 C373 1.338 . S
C374 H378 0.931 . S
C375 N372 1.313 . S
C375 N376 1.344 . S
C375 H379 0.930 . S
N376 C373 1.377 . S
N376 C375 1.344 . S
O377 Co369 2.055 . S
O377 C381 1.253 . S
H378 C374 0.931 . S
H379 C375 0.930 . S
O380 Co369 2.039 . S
O380 C370 1.265 . S
C381 O377 1.253 . S
C381 O382 1.227 . S
O382 C381 1.227 . S
N383 Co369 2.140 . S
N383 C386 1.346 . S
N383 C387 1.345 . S
C384 C385 1.387 . S
C384 C388 1.391 . S
C385 C384 1.387 . S
C385 C386 1.369 . S
C385 H394 0.929 . S
C386 N383 1.346 . S
C386 C385 1.369 . S
C386 H389 0.928 . S
C387 N383 1.345 . S
C387 C388 1.371 . S
C387 H390 0.931 . S
C388 C384 1.391 . S
C388 C387 1.371 . S
C388 H395 0.930 . S
H389 C386 0.928 . S
H390 C387 0.931 . S
H391 C367 0.930 . S
H392 C364 0.930 . S
H393 C373 0.930 . S
H394 C385 0.929 . S
H395 C388 0.930 . S
C396 C397 1.363 . S
C396 C402 1.379 . S
C396 N404 1.356 . S
C397 C396 1.363 . S
C397 C403 1.363 1_455 S
C398 C399 1.363 . S
C398 C403 1.379 . S
C398 N405 1.356 . S
C399 C398 1.363 . S
C399 C402 1.363 1_655 S
N400 C402 1.356 . S
N400 H412 0.986 . S
N400 H413 0.983 1_455 S
N401 C403 1.356 . S
N401 H406 0.983 1_655 S
N401 H407 0.986 . S
C402 C396 1.379 . S
C402 C399 1.363 1_455 S
C402 N400 1.356 . S
C403 C397 1.363 1_655 S
C403 C398 1.379 . S
C403 N401 1.356 . S
N404 C396 1.356 . S
N404 H410 0.984 . S
N404 H411 0.984 . S
N405 C398 1.356 . S
N405 H408 0.984 . S
N405 H409 0.985 . S
H406 N401 0.983 1_455 S
H407 N401 0.986 . S
H408 N405 0.984 . S
H409 N405 0.985 . S
H410 N404 0.984 . S
H411 N404 0.984 . S
H412 N400 0.986 . S
H413 N400 0.983 1_655 S
C414 C415 1.363 . S
C414 C420 1.379 1_546 S
C414 N422 1.356 . S
C415 C414 1.363 . S
C415 C421 1.363 . S
C416 C417 1.363 . S
C416 C421 1.379 1_564 S
C416 N423 1.356 . S
C417 C416 1.363 . S
C417 C420 1.363 . S
N418 C420 1.356 . S
N418 H430 0.984 . S
N418 H431 0.985 . S
N419 C421 1.356 . S
N419 H424 0.984 . S
N419 H425 0.985 . S
C420 C414 1.379 1_564 S
C420 C417 1.363 . S
C420 N418 1.356 . S
C421 C415 1.363 . S
C421 C416 1.379 1_546 S
C421 N419 1.356 . S
N422 C414 1.356 . S
N422 H428 0.984 . S
N422 H429 0.984 . S
N423 C416 1.356 . S
N423 H426 0.984 . S
N423 H427 0.985 . S
H424 N419 0.984 . S
H425 N419 0.985 . S
H426 N423 0.984 . S
H427 N423 0.985 . S
H428 N422 0.984 . S
H429 N422 0.984 . S
H430 N418 0.984 . S
H431 N418 0.985 . S
C432 C433 1.363 . S
C432 C438 1.379 . S
C432 N440 1.356 . S
C433 C432 1.363 . S
C433 C439 1.363 . S
C434 C435 1.363 . S
C434 C439 1.379 . S
C434 N441 1.356 . S
C435 C434 1.363 . S
C435 C438 1.363 . S
N436 C438 1.356 . S
N436 H448 0.984 . S
N436 H449 0.985 . S
N437 C439 1.356 . S
N437 H442 0.984 . S
N437 H443 0.985 . S
C438 C432 1.379 . S
C438 C435 1.363 . S
C438 N436 1.356 . S
C439 C433 1.363 . S
C439 C434 1.379 . S
C439 N437 1.356 . S
N440 C432 1.356 . S
N440 H446 0.984 . S
N440 H447 0.984 . S
N441 C434 1.356 . S
N441 H444 0.984 . S
N441 H445 0.985 . S
H442 N437 0.984 . S
H443 N437 0.985 . S
H444 N441 0.984 . S
H445 N441 0.985 . S
H446 N440 0.984 . S
H447 N440 0.984 . S
H448 N436 0.984 . S
H449 N436 0.985 . S
C450 C451 1.363 . S
C450 C456 1.379 1_454 S
C450 N458 1.356 . S
C451 C450 1.363 . S
C451 C457 1.363 . S
C452 C453 1.363 . S
C452 C457 1.379 1_656 S
C452 N459 1.356 . S
C453 C452 1.363 . S
C453 C456 1.363 . S
N454 C456 1.356 . S
N454 H466 0.984 . S
N454 H467 0.985 . S
N455 C457 1.356 . S
N455 H460 0.984 . S
N455 H461 0.985 . S
C456 C450 1.379 1_656 S
C456 C453 1.363 . S
C456 N454 1.356 . S
C457 C451 1.363 . S
C457 C452 1.379 1_454 S
C457 N455 1.356 . S
N458 C450 1.356 . S
N458 H464 0.984 . S
N458 H465 0.984 . S
N459 C452 1.356 . S
N459 H462 0.984 . S
N459 H463 0.985 . S
H460 N455 0.984 . S
H461 N455 0.985 . S
H462 N459 0.984 . S
H463 N459 0.985 . S
H464 N458 0.984 . S
H465 N458 0.984 . S
H466 N454 0.984 . S
H467 N454 0.985 . S
C468 C469 1.370 . S
C468 C474 1.374 1_545 S
C468 N476 1.356 . S
C469 C468 1.370 . S
C469 C475 1.363 . S
C470 C471 1.370 . S
C470 C475 1.374 1_565 S
C470 N477 1.356 . S
C471 C470 1.370 . S
C471 C474 1.363 . S
N472 C474 1.356 . S
N472 H484 0.984 . S
N472 H485 0.985 . S
N473 C475 1.356 . S
N473 H478 0.984 . S
N473 H479 0.985 . S
C474 C468 1.374 1_565 S
C474 C471 1.363 . S
C474 N472 1.356 . S
C475 C469 1.363 . S
C475 C470 1.374 1_545 S
C475 N473 1.356 . S
N476 C468 1.356 . S
N476 H482 0.984 1_545 S
N476 H483 0.984 . S
N477 C470 1.356 . S
N477 H480 0.984 . S
N477 H481 0.985 1_565 S
H478 N473 0.984 . S
H479 N473 0.985 . S
H480 N477 0.984 . S
H481 N477 0.985 1_545 S
H482 N476 0.984 1_565 S
H483 N476 0.984 . S
H484 N472 0.984 . S
H485 N472 0.985 . S
C486 C487 1.363 1_554 S
C486 C492 1.379 . S
C486 N494 1.356 . S
C487 C486 1.363 1_556 S
C487 C493 1.363 . S
C488 C489 1.363 1_556 S
C488 C493 1.379 . S
C488 N495 1.356 . S
C489 C488 1.363 1_554 S
C489 C492 1.363 . S
N490 C492 1.356 . S
N490 H502 0.984 . S
N490 H503 0.985 . S
N491 C493 1.356 . S
N491 H496 0.984 . S
N491 H497 0.985 . S
C492 C486 1.379 . S
C492 C489 1.363 . S
C492 N490 1.356 . S
C493 C487 1.363 . S
C493 C488 1.379 . S
C493 N491 1.356 . S
N494 C486 1.356 . S
N494 H500 0.984 . S
N494 H501 0.984 1_554 S
N495 C488 1.356 . S
N495 H498 0.984 1_556 S
N495 H499 0.985 . S
H496 N491 0.984 . S
H497 N491 0.985 . S
H498 N495 0.984 1_554 S
H499 N495 0.985 . S
H500 N494 0.984 . S
H501 N494 0.984 1_556 S
H502 N490 0.984 . S
H503 N490 0.985 . S
C504 C505 1.363 . S
C504 C510 1.379 . S
C504 N512 1.356 . S
C505 C504 1.363 . S
C505 C511 1.363 . S
C506 C507 1.363 . S
C506 C511 1.379 . S
C506 N513 1.356 . S
C507 C506 1.363 . S
C507 C510 1.363 . S
N508 C510 1.356 . S
N508 H520 0.984 . S
N508 H521 0.985 . S
N509 C511 1.356 . S
N509 H514 0.984 . S
N509 H515 0.985 . S
C510 C504 1.379 . S
C510 C507 1.363 . S
C510 N508 1.356 . S
C511 C505 1.363 . S
C511 C506 1.379 . S
C511 N509 1.356 . S
N512 C504 1.356 . S
N512 H518 0.984 . S
N512 H519 0.984 . S
N513 C506 1.356 . S
N513 H516 0.984 . S
N513 H517 0.985 . S
H514 N509 0.984 . S
H515 N509 0.985 . S
H516 N513 0.984 . S
H517 N513 0.985 . S
H518 N512 0.984 . S
H519 N512 0.984 . S
H520 N508 0.984 . S
H521 N508 0.985 . S
C522 C523 1.363 . S
C522 C528 1.379 . S
C522 N530 1.356 . S
C523 C522 1.363 . S
C523 C529 1.363 . S
C524 C525 1.363 . S
C524 C529 1.379 . S
C524 N531 1.356 . S
C525 C524 1.363 . S
C525 C528 1.363 . S
N526 C528 1.356 . S
N526 H538 0.984 . S
N526 H539 0.985 . S
N527 C529 1.356 . S
N527 H532 0.984 . S
N527 H533 0.985 . S
C528 C522 1.379 . S
C528 C525 1.363 . S
C528 N526 1.356 . S
C529 C523 1.363 . S
C529 C524 1.379 . S
C529 N527 1.356 . S
N530 C522 1.356 . S
N530 H536 0.984 . S
N530 H537 0.984 . S
N531 C524 1.356 . S
N531 H534 0.984 . S
N531 H535 0.985 . S
H532 N527 0.984 . S
H533 N527 0.985 . S
H534 N531 0.984 . S
H535 N531 0.985 . S
H536 N530 0.984 . S
H537 N530 0.984 . S
H538 N526 0.984 . S
H539 N526 0.985 . S
C540 C541 1.363 . S
C540 C546 1.379 . S
C540 N548 1.356 . S
C541 C540 1.363 . S
C541 C547 1.363 . S
C542 C543 1.363 . S
C542 C547 1.379 . S
C542 N549 1.356 . S
C543 C542 1.363 . S
C543 C546 1.363 . S
N544 C546 1.356 . S
N544 H556 0.984 . S
N544 H557 0.985 . S
N545 C547 1.356 . S
N545 H550 0.984 . S
N545 H551 0.985 . S
C546 C540 1.379 . S
C546 C543 1.363 . S
C546 N544 1.356 . S
C547 C541 1.363 . S
C547 C542 1.379 . S
C547 N545 1.356 . S
N548 C540 1.356 . S
N548 H554 0.984 . S
N548 H555 0.984 . S
N549 C542 1.356 . S
N549 H552 0.984 . S
N549 H553 0.985 . S
H550 N545 0.984 . S
H551 N545 0.985 . S
H552 N549 0.984 . S
H553 N549 0.985 . S
H554 N548 0.984 . S
H555 N548 0.984 . S
H556 N544 0.984 . S
H557 N544 0.985 . S
C558 C559 1.363 . S
C558 C564 1.379 . S
C558 N566 1.356 . S
C559 C558 1.363 . S
C559 C565 1.363 . S
C560 C561 1.363 . S
C560 C565 1.379 . S
C560 N567 1.356 . S
C561 C560 1.363 . S
C561 C564 1.363 . S
N562 C564 1.356 . S
N562 H574 0.984 . S
N562 H575 0.985 . S
N563 C565 1.356 . S
N563 H568 0.984 . S
N563 H569 0.985 . S
C564 C558 1.379 . S
C564 C561 1.363 . S
C564 N562 1.356 . S
C565 C559 1.363 . S
C565 C560 1.379 . S
C565 N563 1.356 . S
N566 C558 1.356 . S
N566 H572 0.984 . S
N566 H573 0.984 . S
N567 C560 1.356 . S
N567 H570 0.984 . S
N567 H571 0.985 . S
H568 N563 0.984 . S
H569 N563 0.985 . S
H570 N567 0.984 . S
H571 N567 0.985 . S
H572 N566 0.984 . S
H573 N566 0.984 . S
H574 N562 0.984 . S
H575 N562 0.985 . S
C576 C577 1.363 . S
C576 C582 1.379 . S
C576 N584 1.356 . S
C577 C576 1.363 . S
C577 C583 1.363 . S
C578 C579 1.363 . S
C578 C583 1.379 . S
C578 N585 1.356 . S
C579 C578 1.363 . S
C579 C582 1.363 . S
N580 C582 1.356 . S
N580 H592 0.984 . S
N580 H593 0.985 . S
N581 C583 1.356 . S
N581 H586 0.984 . S
N581 H587 0.985 . S
C582 C576 1.379 . S
C582 C579 1.363 . S
C582 N580 1.356 . S
C583 C577 1.363 . S
C583 C578 1.379 . S
C583 N581 1.356 . S
N584 C576 1.356 . S
N584 H590 0.984 . S
N584 H591 0.984 . S
N585 C578 1.356 . S
N585 H588 0.984 . S
N585 H589 0.985 . S
H586 N581 0.984 . S
H587 N581 0.985 . S
H588 N585 0.984 . S
H589 N585 0.985 . S
H590 N584 0.984 . S
H591 N584 0.984 . S
H592 N580 0.984 . S
H593 N580 0.985 . S
C594 C595 1.363 . S
C594 C600 1.379 . S
C594 N602 1.356 . S
C595 C594 1.363 . S
C595 C601 1.363 . S
C596 C597 1.363 . S
C596 C601 1.379 . S
C596 N603 1.356 . S
C597 C596 1.363 . S
C597 C600 1.363 . S
N598 C600 1.356 . S
N598 H610 0.984 . S
N598 H611 0.985 . S
N599 C601 1.356 . S
N599 H604 0.984 . S
N599 H605 0.985 . S
C600 C594 1.379 . S
C600 C597 1.363 . S
C600 N598 1.356 . S
C601 C595 1.363 . S
C601 C596 1.379 . S
C601 N599 1.356 . S
N602 C594 1.356 . S
N602 H608 0.984 . S
N602 H609 0.984 . S
N603 C596 1.356 . S
N603 H606 0.984 . S
N603 H607 0.985 . S
H604 N599 0.984 . S
H605 N599 0.985 . S
H606 N603 0.984 . S
H607 N603 0.985 . S
H608 N602 0.984 . S
H609 N602 0.984 . S
H610 N598 0.984 . S
H611 N598 0.985 . S
C612 C613 1.363 . S
C612 C618 1.379 . S
C612 N620 1.356 . S
C613 C612 1.363 . S
C613 C619 1.363 . S
C614 C615 1.363 . S
C614 C619 1.379 . S
C614 N621 1.356 . S
C615 C614 1.363 . S
C615 C618 1.363 . S
N616 C618 1.356 . S
N616 H628 0.984 . S
N616 H629 0.985 . S
N617 C619 1.356 . S
N617 H622 0.984 . S
N617 H623 0.985 . S
C618 C612 1.379 . S
C618 C615 1.363 . S
C618 N616 1.356 . S
C619 C613 1.363 . S
C619 C614 1.379 . S
C619 N617 1.356 . S
N620 C612 1.356 . S
N620 H626 0.984 . S
N620 H627 0.984 . S
N621 C614 1.356 . S
N621 H624 0.984 1_556 S
N621 H625 0.985 . S
H622 N617 0.984 . S
H623 N617 0.985 . S
H624 N621 0.984 1_554 S
H625 N621 0.985 . S
H626 N620 0.984 . S
H627 N620 0.984 . S
H628 N616 0.984 . S
H629 N616 0.985 . S
C630 C631 1.363 . S
C630 C636 1.379 . S
C630 N638 1.356 . S
C631 C630 1.363 . S
C631 C637 1.363 . S
C632 C633 1.363 . S
C632 C637 1.379 . S
C632 N639 1.356 . S
C633 C632 1.363 . S
C633 C636 1.363 . S
N634 C636 1.356 . S
N634 H646 0.984 . S
N634 H647 0.985 . S
N635 C637 1.356 . S
N635 H640 0.984 . S
N635 H641 0.985 . S
C636 C630 1.379 . S
C636 C633 1.363 . S
C636 N634 1.356 . S
C637 C631 1.363 . S
C637 C632 1.379 . S
C637 N635 1.356 . S
N638 C630 1.356 . S
N638 H644 0.984 . S
N638 H645 0.984 . S
N639 C632 1.356 . S
N639 H642 0.984 . S
N639 H643 0.985 . S
H640 N635 0.984 . S
H641 N635 0.985 . S
H642 N639 0.984 . S
H643 N639 0.985 . S
H644 N638 0.984 . S
H645 N638 0.984 . S
H646 N634 0.984 . S
H647 N634 0.985 . S
C648 C649 1.363 . S
C648 C654 1.379 . S
C648 N656 1.356 . S
C649 C648 1.363 . S
C649 C655 1.363 . S
C650 C651 1.363 . S
C650 C655 1.379 . S
C650 N657 1.356 . S
C651 C650 1.363 . S
C651 C654 1.363 . S
N652 C654 1.356 . S
N652 H664 0.984 . S
N652 H665 0.985 . S
N653 C655 1.356 . S
N653 H658 0.984 . S
N653 H659 0.985 . S
C654 C648 1.379 . S
C654 C651 1.363 . S
C654 N652 1.356 . S
C655 C649 1.363 . S
C655 C650 1.379 . S
C655 N653 1.356 . S
N656 C648 1.356 . S
N656 H662 0.984 . S
N656 H663 0.984 . S
N657 C650 1.356 . S
N657 H660 0.984 1_556 S
N657 H661 0.985 . S
H658 N653 0.984 . S
H659 N653 0.985 . S
H660 N657 0.984 1_554 S
H661 N657 0.985 . S
H662 N656 0.984 . S
H663 N656 0.984 . S
H664 N652 0.984 . S
H665 N652 0.985 . S
C666 C667 1.363 . S
C666 C672 1.379 . S
C666 N674 1.356 . S
C667 C666 1.363 . S
C667 C673 1.363 . S
C668 C669 1.363 . S
C668 C673 1.379 . S
C668 N675 1.356 . S
C669 C668 1.363 . S
C669 C672 1.363 . S
N670 C672 1.356 . S
N670 H682 0.984 . S
N670 H683 0.985 . S
N671 C673 1.356 . S
N671 H676 0.984 . S
N671 H677 0.985 . S
C672 C666 1.379 . S
C672 C669 1.363 . S
C672 N670 1.356 . S
C673 C667 1.363 . S
C673 C668 1.379 . S
C673 N671 1.356 . S
N674 C666 1.356 . S
N674 H680 0.984 . S
N674 H681 0.984 . S
N675 C668 1.356 . S
N675 H678 0.984 . S
N675 H679 0.985 . S
H676 N671 0.984 . S
H677 N671 0.985 . S
H678 N675 0.984 . S
H679 N675 0.985 . S
H680 N674 0.984 . S
H681 N674 0.984 . S
H682 N670 0.984 . S
H683 N670 0.985 . S
C684 C685 1.363 . S
C684 C690 1.379 . S
C684 N692 1.356 . S
C685 C684 1.363 . S
C685 C691 1.363 . S
C686 C687 1.363 . S
C686 C691 1.379 . S
C686 N693 1.356 . S
C687 C686 1.363 . S
C687 C690 1.363 . S
N688 C690 1.356 . S
N688 H700 0.984 . S
N688 H701 0.985 1_556 S
N689 C691 1.356 . S
N689 H694 0.984 . S
N689 H695 0.985 . S
C690 C684 1.379 . S
C690 C687 1.363 . S
C690 N688 1.356 . S
C691 C685 1.363 . S
C691 C686 1.379 . S
C691 N689 1.356 . S
N692 C684 1.356 . S
N692 H698 0.984 . S
N692 H699 0.984 . S
N693 C686 1.356 . S
N693 H696 0.984 1_556 S
N693 H697 0.985 . S
H694 N689 0.984 . S
H695 N689 0.985 . S
H696 N693 0.984 1_554 S
H697 N693 0.985 . S
H698 N692 0.984 . S
H699 N692 0.984 . S
H700 N688 0.984 . S
H701 N688 0.985 1_554 S
C702 C703 1.363 . S
C702 C708 1.379 . S
C702 N710 1.356 . S
C703 C702 1.363 . S
C703 C709 1.363 . S
C704 C705 1.363 . S
C704 C709 1.379 . S
C704 N711 1.356 . S
C705 C704 1.363 . S
C705 C708 1.363 . S
N706 C708 1.356 . S
N706 H718 0.984 . S
N706 H719 0.985 . S
N707 C709 1.356 . S
N707 H712 0.984 . S
N707 H713 0.985 . S
C708 C702 1.379 . S
C708 C705 1.363 . S
C708 N706 1.356 . S
C709 C703 1.363 . S
C709 C704 1.379 . S
C709 N707 1.356 . S
N710 C702 1.356 . S
N710 H716 0.984 . S
N710 H717 0.984 . S
N711 C704 1.356 . S
N711 H714 0.984 . S
N711 H715 0.985 . S
H712 N707 0.984 . S
H713 N707 0.985 . S
H714 N711 0.984 . S
H715 N711 0.985 . S
H716 N710 0.984 . S
H717 N710 0.984 . S
H718 N706 0.984 . S
H719 N706 0.985 . S
C720 C721 1.363 . S
C720 C726 1.379 . S
C720 N728 1.356 . S
C721 C720 1.363 . S
C721 C727 1.363 . S
C722 C723 1.363 . S
C722 C727 1.379 . S
C722 N729 1.356 . S
C723 C722 1.363 . S
C723 C726 1.363 . S
N724 C726 1.356 . S
N724 H736 0.984 . S
N724 H737 0.985 . S
N725 C727 1.356 . S
N725 H730 0.984 . S
N725 H731 0.985 . S
C726 C720 1.379 . S
C726 C723 1.363 . S
C726 N724 1.356 . S
C727 C721 1.363 . S
C727 C722 1.379 . S
C727 N725 1.356 . S
N728 C720 1.356 . S
N728 H734 0.984 . S
N728 H735 0.984 . S
N729 C722 1.356 . S
N729 H732 0.984 . S
N729 H733 0.985 . S
H730 N725 0.984 . S
H731 N725 0.985 . S
H732 N729 0.984 . S
H733 N729 0.985 . S
H734 N728 0.984 . S
H735 N728 0.984 . S
H736 N724 0.984 . S
H737 N724 0.985 . S
C738 C739 1.363 . S
C738 C744 1.379 . S
C738 N746 1.356 . S
C739 C738 1.363 . S
C739 C745 1.363 . S
C740 C741 1.363 . S
C740 C745 1.379 . S
C740 N747 1.356 . S
C741 C740 1.363 . S
C741 C744 1.363 . S
N742 C744 1.356 . S
N742 H754 0.984 . S
N742 H755 0.985 1_554 S
N743 C745 1.356 . S
N743 H748 0.984 . S
N743 H749 0.985 . S
C744 C738 1.379 . S
C744 C741 1.363 . S
C744 N742 1.356 . S
C745 C739 1.363 . S
C745 C740 1.379 . S
C745 N743 1.356 . S
N746 C738 1.356 . S
N746 H752 0.984 . S
N746 H753 0.984 . S
N747 C740 1.356 . S
N747 H750 0.984 . S
N747 H751 0.985 . S
H748 N743 0.984 . S
H749 N743 0.985 . S
H750 N747 0.984 . S
H751 N747 0.985 . S
H752 N746 0.984 . S
H753 N746 0.984 . S
H754 N742 0.984 . S
H755 N742 0.985 1_556 S
C756 C757 1.363 . S
C756 C762 1.379 . S
C756 N764 1.356 . S
C757 C756 1.363 . S
C757 C763 1.363 . S
C758 C759 1.363 . S
C758 C763 1.379 . S
C758 N765 1.356 . S
C759 C758 1.363 . S
C759 C762 1.363 . S
N760 C762 1.356 . S
N760 H772 0.984 . S
N760 H773 0.985 . S
N761 C763 1.356 . S
N761 H766 0.984 . S
N761 H767 0.985 . S
C762 C756 1.379 . S
C762 C759 1.363 . S
C762 N760 1.356 . S
C763 C757 1.363 . S
C763 C758 1.379 . S
C763 N761 1.356 . S
N764 C756 1.356 . S
N764 H770 0.984 . S
N764 H771 0.984 . S
N765 C758 1.356 . S
N765 H768 0.984 . S
N765 H769 0.985 . S
H766 N761 0.984 . S
H767 N761 0.985 . S
H768 N765 0.984 . S
H769 N765 0.985 . S
H770 N764 0.984 . S
H771 N764 0.984 . S
H772 N760 0.984 . S
H773 N760 0.985 . S
C774 C775 1.363 . S
C774 C780 1.379 . S
C774 N782 1.356 . S
C775 C774 1.363 . S
C775 C781 1.363 . S
C776 C777 1.363 . S
C776 C781 1.379 . S
C776 N783 1.356 . S
C777 C776 1.363 . S
C777 C780 1.363 . S
N778 C780 1.356 . S
N778 H790 0.984 . S
N778 H791 0.985 . S
N779 C781 1.356 . S
N779 H784 0.984 . S
N779 H785 0.985 . S
C780 C774 1.379 . S
C780 C777 1.363 . S
C780 N778 1.356 . S
C781 C775 1.363 . S
C781 C776 1.379 . S
C781 N779 1.356 . S
N782 C774 1.356 . S
N782 H788 0.984 1_554 S
N782 H789 0.984 1_554 S
N783 C776 1.356 . S
N783 H786 0.984 . S
N783 H787 0.985 . S
H784 N779 0.984 . S
H785 N779 0.985 . S
H786 N783 0.984 . S
H787 N783 0.985 . S
H788 N782 0.984 1_556 S
H789 N782 0.984 1_556 S
H790 N778 0.984 . S
H791 N778 0.985 . S
C792 C793 1.363 . S
C792 C798 1.379 . S
C792 N800 1.356 . S
C793 C792 1.363 . S
C793 C799 1.363 . S
C794 C795 1.363 . S
C794 C799 1.379 . S
C794 N801 1.356 . S
C795 C794 1.363 . S
C795 C798 1.363 . S
N796 C798 1.356 . S
N796 H808 0.984 . S
N796 H809 0.985 . S
N797 C799 1.356 . S
N797 H802 0.984 . S
N797 H803 0.985 . S
C798 C792 1.379 . S
C798 C795 1.363 . S
C798 N796 1.356 . S
C799 C793 1.363 . S
C799 C794 1.379 . S
C799 N797 1.356 . S
N800 C792 1.356 . S
N800 H806 0.984 . S
N800 H807 0.984 . S
N801 C794 1.356 . S
N801 H804 0.984 . S
N801 H805 0.985 . S
H802 N797 0.984 . S
H803 N797 0.985 . S
H804 N801 0.984 . S
H805 N801 0.985 . S
H806 N800 0.984 . S
H807 N800 0.984 . S
H808 N796 0.984 . S
H809 N796 0.985 . S
C810 C811 1.363 . S
C810 C816 1.379 . S
C810 N818 1.356 . S
C811 C810 1.363 . S
C811 C817 1.363 . S
C812 C813 1.363 . S
C812 C817 1.379 . S
C812 N819 1.356 . S
C813 C812 1.363 . S
C813 C816 1.363 . S
N814 C816 1.356 . S
N814 H826 0.984 . S
N814 H827 0.985 . S
N815 C817 1.356 . S
N815 H820 0.984 . S
N815 H821 0.985 . S
C816 C810 1.379 . S
C816 C813 1.363 . S
C816 N814 1.356 . S
C817 C811 1.363 . S
C817 C812 1.379 . S
C817 N815 1.356 . S
N818 C810 1.356 . S
N818 H824 0.984 . S
N818 H825 0.984 . S
N819 C812 1.356 . S
N819 H822 0.984 1_554 S
N819 H823 0.985 . S
H820 N815 0.984 . S
H821 N815 0.985 . S
H822 N819 0.984 1_556 S
H823 N819 0.985 . S
H824 N818 0.984 . S
H825 N818 0.984 . S
H826 N814 0.984 . S
H827 N814 0.985 . S
C828 C829 1.363 . S
C828 C834 1.379 . S
C828 N836 1.356 . S
C829 C828 1.363 . S
C829 C835 1.363 . S
C830 C831 1.363 . S
C830 C835 1.379 . S
C830 N837 1.356 . S
C831 C830 1.363 . S
C831 C834 1.363 . S
N832 C834 1.356 . S
N832 H844 0.984 . S
N832 H845 0.985 . S
N833 C835 1.356 . S
N833 H838 0.984 . S
N833 H839 0.985 . S
C834 C828 1.379 . S
C834 C831 1.363 . S
C834 N832 1.356 . S
C835 C829 1.363 . S
C835 C830 1.379 . S
C835 N833 1.356 . S
N836 C828 1.356 . S
N836 H842 0.984 . S
N836 H843 0.984 . S
N837 C830 1.356 . S
N837 H840 0.984 . S
N837 H841 0.985 . S
H838 N833 0.984 . S
H839 N833 0.985 . S
H840 N837 0.984 . S
H841 N837 0.985 . S
H842 N836 0.984 . S
H843 N836 0.984 . S
H844 N832 0.984 . S
H845 N832 0.985 . S
C846 C847 1.363 . S
C846 C852 1.379 . S
C846 N854 1.356 . S
C847 C846 1.363 . S
C847 C853 1.363 . S
C848 C849 1.363 . S
C848 C853 1.379 . S
C848 N855 1.356 . S
C849 C848 1.363 . S
C849 C852 1.363 . S
N850 C852 1.356 . S
N850 H862 0.984 . S
N850 H863 0.985 . S
N851 C853 1.356 . S
N851 H856 0.984 . S
N851 H857 0.985 . S
C852 C846 1.379 . S
C852 C849 1.363 . S
C852 N850 1.356 . S
C853 C847 1.363 . S
C853 C848 1.379 . S
C853 N851 1.356 . S
N854 C846 1.356 . S
N854 H860 0.984 . S
N854 H861 0.984 . S
N855 C848 1.356 . S
N855 H858 0.984 . S
N855 H859 0.985 . S
H856 N851 0.984 . S
H857 N851 0.985 . S
H858 N855 0.984 . S
H859 N855 0.985 . S
H860 N854 0.984 . S
H861 N854 0.984 . S
H862 N850 0.984 . S
H863 N850 0.985 . S
C864 C865 1.363 . S
C864 C870 1.379 . S
C864 N872 1.356 . S
C865 C864 1.363 . S
C865 C871 1.363 . S
C866 C867 1.363 . S
C866 C871 1.379 . S
C866 N873 1.356 . S
C867 C866 1.363 . S
C867 C870 1.363 . S
N868 C870 1.356 . S
N868 H880 0.984 . S
N868 H881 0.985 . S
N869 C871 1.356 . S
N869 H874 0.984 . S
N869 H875 0.985 . S
C870 C864 1.379 . S
C870 C867 1.363 . S
C870 N868 1.356 . S
C871 C865 1.363 . S
C871 C866 1.379 . S
C871 N869 1.356 . S
N872 C864 1.356 . S
N872 H878 0.984 . S
N872 H879 0.984 . S
N873 C866 1.356 . S
N873 H876 0.984 . S
N873 H877 0.985 . S
H874 N869 0.984 . S
H875 N869 0.985 . S
H876 N873 0.984 . S
H877 N873 0.985 . S
H878 N872 0.984 . S
H879 N872 0.984 . S
H880 N868 0.984 . S
H881 N868 0.985 . S
C882 C883 1.363 . S
C882 C888 1.379 . S
C882 N890 1.356 . S
C883 C882 1.363 . S
C883 C889 1.363 . S
C884 C885 1.363 . S
C884 C889 1.379 . S
C884 N891 1.356 . S
C885 C884 1.363 . S
C885 C888 1.363 . S
N886 C888 1.356 . S
N886 H898 0.984 . S
N886 H899 0.985 . S
N887 C889 1.356 . S
N887 H892 0.984 . S
N887 H893 0.985 . S
C888 C882 1.379 . S
C888 C885 1.363 . S
C888 N886 1.356 . S
C889 C883 1.363 . S
C889 C884 1.379 . S
C889 N887 1.356 . S
N890 C882 1.356 . S
N890 H896 0.984 . S
N890 H897 0.984 . S
N891 C884 1.356 . S
N891 H894 0.984 . S
N891 H895 0.985 . S
H892 N887 0.984 . S
H893 N887 0.985 . S
H894 N891 0.984 . S
H895 N891 0.985 . S
H896 N890 0.984 . S
H897 N890 0.984 . S
H898 N886 0.984 . S
H899 N886 0.985 . S
C900 C901 1.363 . S
C900 C906 1.379 . S
C900 N908 1.356 . S
C901 C900 1.363 . S
C901 C907 1.363 . S
C902 C903 1.363 . S
C902 C907 1.379 . S
C902 N909 1.356 . S
C903 C902 1.363 . S
C903 C906 1.363 . S
N904 C906 1.356 . S
N904 H916 0.984 . S
N904 H917 0.985 . S
N905 C907 1.356 . S
N905 H910 0.984 . S
N905 H911 0.985 . S
C906 C900 1.379 . S
C906 C903 1.363 . S
C906 N904 1.356 . S
C907 C901 1.363 . S
C907 C902 1.379 . S
C907 N905 1.356 . S
N908 C900 1.356 . S
N908 H914 0.984 . S
N908 H915 0.984 . S
N909 C902 1.356 . S
N909 H912 0.984 . S
N909 H913 0.985 . S
H910 N905 0.984 . S
H911 N905 0.985 . S
H912 N909 0.984 . S
H913 N909 0.985 . S
H914 N908 0.984 . S
H915 N908 0.984 . S
H916 N904 0.984 . S
H917 N904 0.985 . S
C918 C919 1.363 . S
C918 C924 1.379 . S
C918 N926 1.356 . S
C919 C918 1.363 . S
C919 C925 1.363 . S
C920 C921 1.363 . S
C920 C925 1.379 . S
C920 N927 1.356 . S
C921 C920 1.363 . S
C921 C924 1.363 . S
N922 C924 1.356 . S
N922 H934 0.984 . S
N922 H935 0.985 . S
N923 C925 1.356 . S
N923 H928 0.984 . S
N923 H929 0.985 . S
C924 C918 1.379 . S
C924 C921 1.363 . S
C924 N922 1.356 . S
C925 C919 1.363 . S
C925 C920 1.379 . S
C925 N923 1.356 . S
N926 C918 1.356 . S
N926 H932 0.984 . S
N926 H933 0.984 . S
N927 C920 1.356 . S
N927 H930 0.984 . S
N927 H931 0.985 . S
H928 N923 0.984 . S
H929 N923 0.985 . S
H930 N927 0.984 . S
H931 N927 0.985 . S
H932 N926 0.984 . S
H933 N926 0.984 . S
H934 N922 0.984 . S
H935 N922 0.985 . S
C397 C7 1.382 . S
C399 C370 1.382 . S
C415 C40 1.382 . S
C417 C205 1.382 . S
C433 C238 1.382 . S
C435 C73 1.382 . S
C451 C271 1.382 . S
C453 C106 1.382 . S
C469 C304 1.382 . S
C471 C139 1.382 . S
C487 C172 1.382 . S
C489 C337 1.382 . S
C505 C285 1.612 . S
C507 C21 1.612 . S
C523 C318 1.612 . S
C525 C54 1.612 . S
C541 C87 1.612 . S
C543 C351 1.612 . S
C559 C120 1.612 . S
C561 C384 1.612 . S
C577 C219 1.612 . S
C579 C153 1.612 . S
C595 C186 1.612 . S
C597 C252 1.612 . S
C613 N2 1.387 . S
C615 N13 1.389 1_556 S
C631 N46 1.389 . S
C633 N35 1.387 . S
C649 N68 1.387 . S
C651 N79 1.389 1_556 S
C667 N112 1.389 . S
C669 N101 1.387 . S
C685 N134 1.387 . S
C687 N145 1.389 1_556 S
C703 N178 1.389 . S
C705 N167 1.387 . S
C721 N211 1.389 . S
C723 N200 1.387 . S
C739 N233 1.387 . S
C741 N244 1.389 1_554 S
C757 N277 1.389 . S
C759 N266 1.387 . S
C775 N310 1.389 1_554 S
C777 N299 1.387 . S
C793 N332 1.387 . S
C795 N343 1.389 . S
C811 N365 1.387 . S
C813 N376 1.389 1_554 S
C829 C18 1.369 . S
C831 C348 1.369 . S
C847 C381 1.369 . S
C849 C51 1.369 . S
C865 C216 1.369 . S
C867 C84 1.369 . S
C883 C117 1.369 . S
C885 C249 1.369 . S
C901 C150 1.369 . S
C903 C282 1.369 . S
C919 C183 1.369 . S
C921 C315 1.369 . S
