# Generated by pormake.
# Topology wme, (6)-cn, num edge types: 1
# Building blocks:
#     Node 0, Type 0, BuildingBlock: MIFKUJ_clean_sbu_0, # of connection points: 6
#     Node 1, Type 0, BuildingBlock: MIFKUJ_clean_sbu_0, # of connection points: 6
#     Node 2, Type 0, BuildingBlock: MIFKUJ_clean_sbu_0, # of connection points: 6
#     Node 3, Type 0, BuildingBlock: MIFKUJ_clean_sbu_0, # of connection points: 6
#     Node 4, Type 0, BuildingBlock: MIFKUJ_clean_sbu_0, # of connection points: 6
#     Node 5, Type 0, BuildingBlock: MIFKUJ_clean_sbu_0, # of connection points: 6
#     Node 6, Type 0, BuildingBlock: MIFKUJ_clean_sbu_0, # of connection points: 6
#     Node 7, Type 0, BuildingBlock: MIFKUJ_clean_sbu_0, # of connection points: 6
#     Node 8, Type 0, BuildingBlock: MIFKUJ_clean_sbu_0, # of connection points: 6
#     Node 9, Type 0, BuildingBlock: MIFKUJ_clean_sbu_0, # of connection points: 6
#     Node 10, Type 0, BuildingBlock: MIFKUJ_clean_sbu_0, # of connection points: 6
#     Node 11, Type 0, BuildingBlock: MIFKUJ_clean_sbu_0, # of connection points: 6
#     Edge 12, Type (0, 0), BuildingBlock: KIFKEQ_clean_linker_1, # of connection points: 2
#     Edge 13, Type (0, 0), BuildingBlock: KIFKEQ_clean_linker_1, # of connection points: 2
#     Edge 14, Type (0, 0), BuildingBlock: KIFKEQ_clean_linker_1, # of connection points: 2
#     Edge 15, Type (0, 0), BuildingBlock: KIFKEQ_clean_linker_1, # of connection points: 2
#     Edge 16, Type (0, 0), BuildingBlock: KIFKEQ_clean_linker_1, # of connection points: 2
#     Edge 17, Type (0, 0), BuildingBlock: KIFKEQ_clean_linker_1, # of connection points: 2
#     Edge 18, Type (0, 0), BuildingBlock: KIFKEQ_clean_linker_1, # of connection points: 2
#     Edge 19, Type (0, 0), BuildingBlock: KIFKEQ_clean_linker_1, # of connection points: 2
#     Edge 20, Type (0, 0), BuildingBlock: KIFKEQ_clean_linker_1, # of connection points: 2
#     Edge 21, Type (0, 0), BuildingBlock: KIFKEQ_clean_linker_1, # of connection points: 2
#     Edge 22, Type (0, 0), BuildingBlock: KIFKEQ_clean_linker_1, # of connection points: 2
#     Edge 23, Type (0, 0), BuildingBlock: KIFKEQ_clean_linker_1, # of connection points: 2
#     Edge 24, Type (0, 0), BuildingBlock: KIFKEQ_clean_linker_1, # of connection points: 2
#     Edge 25, Type (0, 0), BuildingBlock: KIFKEQ_clean_linker_1, # of connection points: 2
#     Edge 26, Type (0, 0), BuildingBlock: KIFKEQ_clean_linker_1, # of connection points: 2
#     Edge 27, Type (0, 0), BuildingBlock: KIFKEQ_clean_linker_1, # of connection points: 2
#     Edge 28, Type (0, 0), BuildingBlock: KIFKEQ_clean_linker_1, # of connection points: 2
#     Edge 29, Type (0, 0), BuildingBlock: KIFKEQ_clean_linker_1, # of connection points: 2
#     Edge 30, Type (0, 0), BuildingBlock: KIFKEQ_clean_linker_1, # of connection points: 2
#     Edge 31, Type (0, 0), BuildingBlock: KIFKEQ_clean_linker_1, # of connection points: 2
#     Edge 32, Type (0, 0), BuildingBlock: KIFKEQ_clean_linker_1, # of connection points: 2
#     Edge 33, Type (0, 0), BuildingBlock: KIFKEQ_clean_linker_1, # of connection points: 2
#     Edge 34, Type (0, 0), BuildingBlock: KIFKEQ_clean_linker_1, # of connection points: 2
#     Edge 35, Type (0, 0), BuildingBlock: KIFKEQ_clean_linker_1, # of connection points: 2
#     Edge 36, Type (0, 0), BuildingBlock: KIFKEQ_clean_linker_1, # of connection points: 2
#     Edge 37, Type (0, 0), BuildingBlock: KIFKEQ_clean_linker_1, # of connection points: 2
#     Edge 38, Type (0, 0), BuildingBlock: KIFKEQ_clean_linker_1, # of connection points: 2
#     Edge 39, Type (0, 0), BuildingBlock: KIFKEQ_clean_linker_1, # of connection points: 2
#     Edge 40, Type (0, 0), BuildingBlock: KIFKEQ_clean_linker_1, # of connection points: 2
#     Edge 41, Type (0, 0), BuildingBlock: KIFKEQ_clean_linker_1, # of connection points: 2
#     Edge 42, Type (0, 0), BuildingBlock: KIFKEQ_clean_linker_1, # of connection points: 2
#     Edge 43, Type (0, 0), BuildingBlock: KIFKEQ_clean_linker_1, # of connection points: 2
#     Edge 44, Type (0, 0), BuildingBlock: KIFKEQ_clean_linker_1, # of connection points: 2
#     Edge 45, Type (0, 0), BuildingBlock: KIFKEQ_clean_linker_1, # of connection points: 2
#     Edge 46, Type (0, 0), BuildingBlock: KIFKEQ_clean_linker_1, # of connection points: 2
#     Edge 47, Type (0, 0), BuildingBlock: KIFKEQ_clean_linker_1, # of connection points: 2
# Relax obj value: 0.076
# Max RMSD: 0.168
# Mean RMSD: 0.168
data_MOF--net-wme--node1-MIFKUJ_clean_sbu_0--edge1-KIFKEQ_clean_linker_1
_symmetry_space_group_name_H-M    P1
_symmetry_Int_Tables_number       1
_symmetry_cell_setting            triclinic
loop_
_symmetry_equiv_pos_as_xyz
'x, y, z'
_cell_length_a     35.09149
_cell_length_b     35.209815
_cell_length_c     53.148659
_cell_angle_alpha  89.951387
_cell_angle_beta   90.128071
_cell_angle_gamma 119.67666
loop_
_atom_site_label
_atom_site_type_symbol
_atom_site_fract_x
_atom_site_fract_y
_atom_site_fract_z
_atom_type_partial_charge
Zn0 Zn 0.19055 0.24941 0.10807 0.0
Zn1 Zn 0.23168 0.38216 0.09376 0.0
C2 C 0.10021 0.22661 0.10584 0.0
O3 O 0.11581 0.26709 0.11353 0.0
C4 C 0.30877 0.45807 0.07906 0.0
O5 O 0.28377 0.45252 0.05939 0.0
O6 O 0.21896 0.21222 0.10387 0.0
O7 O 0.21011 0.29908 0.08564 0.0
O8 O 0.22924 0.35262 0.0601 0.0
C9 C 0.20615 0.18626 0.08517 0.0
O10 O 0.17883 0.18815 0.06895 0.0
O11 O 0.12625 0.21178 0.10249 0.0
C12 C 0.2013 0.43846 0.10994 0.0
O13 O 0.22835 0.44283 0.12829 0.0
O14 O 0.19473 0.41124 0.09247 0.0
O15 O 0.21764 0.34247 0.12535 0.0
O16 O 0.19985 0.27767 0.14181 0.0
O17 O 0.29356 0.43078 0.09703 0.0
C18 C 0.21974 0.31344 0.0636 0.0
C19 C 0.20891 0.31735 0.14444 0.0
Zn20 Zn 0.96343 0.21503 0.60508 0.0
Zn21 Zn 0.86446 0.24096 0.59709 0.0
C22 C 0.88899 0.12647 0.59834 0.0
O23 O 0.86616 0.14099 0.61041 0.0
C24 C 0.91017 0.339 0.59612 0.0
O25 O 0.94788 0.33958 0.59644 0.0
O26 O 0.02719 0.22903 0.60624 0.0
O27 O 0.95166 0.25614 0.58594 0.0
O28 O 0.89049 0.23168 0.56517 0.0
C29 C 0.04026 0.21179 0.58975 0.0
O30 O 0.01385 0.19016 0.57103 0.0
O31 O 0.92871 0.15293 0.59273 0.0
C32 C 0.778 0.21333 0.61331 0.0
O33 O 0.80151 0.24272 0.63037 0.0
O34 O 0.79789 0.20412 0.59645 0.0
O35 O 0.88756 0.2292 0.6302 0.0
O36 O 0.94191 0.21583 0.63935 0.0
O37 O 0.87461 0.30264 0.59662 0.0
C38 C 0.93045 0.24139 0.56572 0.0
C39 C 0.91024 0.22147 0.64615 0.0
Zn40 Zn 0.70893 0.92725 0.10835 0.0
Zn41 Zn 0.63185 0.83928 0.09562 0.0
C42 C 0.76548 0.89361 0.11891 0.0
O43 O 0.76963 0.91767 0.13873 0.0
C44 C 0.55572 0.84607 0.08296 0.0
O45 O 0.56035 0.82904 0.06199 0.0
O46 O 0.76038 0.98773 0.11155 0.0
O47 O 0.67334 0.93049 0.08014 0.0
O48 O 0.66825 0.8708 0.06462 0.0
C49 C 0.78387 1.00046 0.09183 0.0
O50 O 0.77116 0.97492 0.07195 0.0
O51 O 0.73838 0.89009 0.10177 0.0
C52 C 0.57172 0.75223 0.10506 0.0
O53 O 0.57158 0.77127 0.12629 0.0
O54 O 0.59746 0.77536 0.0876 0.0
O55 O 0.65937 0.84228 0.12998 0.0
O56 O 0.67603 0.90924 0.14032 0.0
O57 O 0.58418 0.85583 0.10032 0.0
C58 C 0.6713 0.90788 0.06124 0.0
C59 C 0.66446 0.87034 0.14666 0.0
Zn60 Zn 0.84485 0.75024 0.61607 0.0
Zn61 Zn 0.80798 0.63366 0.60048 0.0
C62 C 0.93061 0.78434 0.63506 0.0
O63 O 0.91064 0.79012 0.65434 0.0
C64 C 0.72818 0.55846 0.58916 0.0
O65 O 0.74802 0.5674 0.56724 0.0
O66 O 0.84747 0.80784 0.62182 0.0
O67 O 0.81775 0.73324 0.58255 0.0
O68 O 0.79758 0.6652 0.57158 0.0
C69 C 0.81613 0.81381 0.61489 0.0
O70 O 0.77981 0.78049 0.60631 0.0
O71 O 0.90793 0.76414 0.61586 0.0
C72 C 0.87183 0.6033 0.60157 0.0
O73 O 0.88663 0.62816 0.62166 0.0
O74 O 0.84109 0.60329 0.58881 0.0
O75 O 0.83389 0.66382 0.63385 0.0
O76 O 0.81013 0.70907 0.64361 0.0
O77 O 0.74766 0.58351 0.60771 0.0
C78 C 0.8012 0.70224 0.56683 0.0
C79 C 0.81538 0.67699 0.64934 0.0
Zn80 Zn 0.07594 0.8028 0.11864 0.0
Zn81 Zn 0.16472 0.77653 0.10734 0.0
C82 C 0.15461 0.88796 0.10743 0.0
O83 O 0.17418 0.87826 0.12534 0.0
C84 C 0.15722 0.69624 0.08969 0.0
O85 O 0.17323 0.71964 0.06916 0.0
O86 O 0.01689 0.80065 0.12172 0.0
O87 O 0.06774 0.7515 0.09872 0.0
O88 O 0.12972 0.78107 0.07783 0.0
C89 C 1.00126 0.80979 0.10245 0.0
O90 O 0.02279 0.81826 0.0811 0.0
O91 O 0.1155 0.86021 0.10123 0.0
C92 C 0.25393 0.80228 0.1164 0.0
O93 O 0.23452 0.77848 0.13635 0.0
O94 O 0.23064 0.80881 0.10041 0.0
O95 O 0.15398 0.79004 0.1431 0.0
O96 O 0.09914 0.80212 0.15257 0.0
O97 O 0.1493 0.71338 0.10855 0.0
C98 C 0.08798 0.76151 0.07798 0.0
C99 C 0.13169 0.79783 0.1591 0.0
Zn100 Zn 0.32282 0.08833 0.62438 0.0
Zn101 Zn 0.40107 0.17577 0.60762 0.0
C102 C 0.26749 0.12597 0.62969 0.0
O103 O 0.26187 0.10632 0.65151 0.0
C104 C 0.47152 0.16188 0.59491 0.0
O105 O 0.46351 0.17464 0.57327 0.0
O106 O 0.2714 0.02849 0.63169 0.0
O107 O 0.35585 0.08105 0.59619 0.0
O108 O 0.36227 0.13995 0.5783 0.0
C109 C 0.24485 0.01075 0.61344 0.0
O110 O 0.25396 0.03121 0.59171 0.0
O111 O 0.29406 0.12436 0.61401 0.0
C112 C 0.4655 0.26139 0.61501 0.0
O113 O 0.46516 0.24159 0.63605 0.0
O114 O 0.43815 0.23922 0.59781 0.0
O115 O 0.37381 0.178 0.64097 0.0
O116 O 0.35847 0.11338 0.65542 0.0
O117 O 0.44676 0.15714 0.61353 0.0
C118 C 0.35563 0.1011 0.57648 0.0
C119 C 0.36937 0.15297 0.6593 0.0
Zn120 Zn 0.7159 0.79219 0.36306 0.0
Zn121 Zn 0.62536 0.78997 0.38125 0.0
C122 C 0.75941 0.88426 0.35352 0.0
O123 O 0.75605 0.86901 0.33059 0.0
C124 C 0.5542 0.70589 0.39348 0.0
O125 O 0.56071 0.72625 0.41512 0.0
O126 O 0.76897 0.78694 0.35336 0.0
O127 O 0.68745 0.7525 0.39199 0.0
O128 O 0.66354 0.79217 0.411 0.0
C129 C 0.78781 0.77502 0.36949 0.0
O130 O 0.7708 0.76343 0.39206 0.0
O131 O 0.74249 0.8572 0.37163 0.0
C132 C 0.56021 0.81173 0.3742 0.0
O133 O 0.56021 0.79252 0.35301 0.0
O134 O 0.58786 0.81639 0.39117 0.0
O135 O 0.65183 0.81893 0.34758 0.0
O136 O 0.67565 0.7755 0.33382 0.0
O137 O 0.57999 0.72602 0.37529 0.0
C138 C 0.67769 0.76515 0.41201 0.0
C139 C 0.65796 0.79868 0.32966 0.0
Zn140 Zn 0.92546 0.71451 0.86883 0.0
Zn141 Zn 0.839 0.62619 0.88558 0.0
C142 C 0.88422 0.76355 0.85964 0.0
O143 O 0.90436 0.76554 0.83845 0.0
C144 C 0.85085 0.55387 0.89947 0.0
O145 O 0.83536 0.55966 0.92073 0.0
O146 O 0.98361 0.76876 0.86277 0.0
O147 O 0.93639 0.68341 0.89653 0.0
O148 O 0.87417 0.6668 0.91462 0.0
C149 C 0.99861 0.79369 0.88187 0.0
O150 O 0.977 0.78086 0.90318 0.0
O151 O 0.8856 0.73977 0.87734 0.0
C152 C 0.74336 0.58886 0.88758 0.0
O153 O 0.74883 0.61537 0.86881 0.0
O154 O 0.77674 0.59 0.89773 0.0
O155 O 0.83565 0.6477 0.85014 0.0
O156 O 0.90473 0.67935 0.83778 0.0
O157 O 0.85789 0.58037 0.88142 0.0
C158 C 0.91444 0.67774 0.91635 0.0
C159 C 0.8641 0.65962 0.83265 0.0
Zn160 Zn 0.19373 0.91851 0.37071 0.0
Zn161 Zn 0.21273 0.83387 0.39219 0.0
C162 C 0.10596 0.86635 0.35252 0.0
O163 O 0.12577 0.88324 0.33109 0.0
C164 C 0.29592 0.84521 0.40341 0.0
O165 O 0.27567 0.8317 0.42509 0.0
O166 O 0.19693 0.97542 0.36127 0.0
O167 O 0.22059 0.93023 0.40418 0.0
O168 O 0.21635 0.87164 0.42239 0.0
C169 C 0.17956 0.98854 0.37759 0.0
O170 O 0.16174 0.96441 0.39767 0.0
O171 O 0.1289 0.87482 0.37246 0.0
C172 C 0.18723 0.74666 0.38395 0.0
O173 O 0.20379 0.76565 0.36229 0.0
O174 O 0.18555 0.76986 0.40182 0.0
O175 O 0.18389 0.83422 0.35881 0.0
O176 O 0.22397 0.90149 0.34534 0.0
O177 O 0.27563 0.85068 0.38514 0.0
C178 C 0.22536 0.9114 0.42321 0.0
C179 C 0.20543 0.86075 0.34124 0.0
Zn180 Zn 0.26937 0.20244 0.87589 0.0
Zn181 Zn 0.39229 0.22644 0.89005 0.0
C182 C 0.21187 0.11461 0.86584 0.0
O183 O 0.20571 0.13461 0.84669 0.0
C184 C 0.46011 0.30931 0.9101 0.0
O185 O 0.44822 0.28876 0.93177 0.0
O186 O 0.2238 0.22145 0.87849 0.0
O187 O 0.32217 0.23534 0.89658 0.0
O188 O 0.35692 0.21579 0.92222 0.0
C189 C 0.19409 0.20225 0.89503 0.0
O190 O 0.19683 0.17441 0.91037 0.0
O191 O 0.23958 0.13758 0.88267 0.0
C192 C 0.44763 0.19579 0.87159 0.0
O193 O 0.44995 0.22139 0.85295 0.0
O194 O 0.42237 0.19055 0.88996 0.0
O195 O 0.35768 0.21802 0.85699 0.0
O196 O 0.29468 0.20945 0.84179 0.0
O197 O 0.44043 0.28928 0.89014 0.0
C198 C 0.32505 0.22221 0.91817 0.0
C199 C 0.3322 0.21279 0.83849 0.0
Zn200 Zn 0.07283 0.27915 0.35757 0.0
Zn201 Zn 0.16689 0.38017 0.37516 0.0
C202 C 0.11585 0.23241 0.34878 0.0
O203 O 0.09701 0.23062 0.32708 0.0
C204 C 0.15996 0.45042 0.39763 0.0
O205 O 0.18207 0.44391 0.41548 0.0
O206 O 0.01256 0.22472 0.35328 0.0
O207 O 0.07087 0.31705 0.38468 0.0
O208 O 0.13407 0.33448 0.40232 0.0
C209 C 0.99408 0.20051 0.37233 0.0
O210 O 0.0129 0.21303 0.39447 0.0
O211 O 0.1121 0.25453 0.36655 0.0
C212 C 0.25387 0.44582 0.36623 0.0
O213 O 0.23215 0.45025 0.34734 0.0
O214 O 0.23284 0.41506 0.38196 0.0
O215 O 0.15981 0.36291 0.33812 0.0
O216 O 0.09424 0.31065 0.32516 0.0
O217 O 0.14783 0.42555 0.37842 0.0
C218 C 0.09274 0.31855 0.40401 0.0
C219 C 0.13319 0.34071 0.3206 0.0
Zn220 Zn 0.7974 0.07559 0.86329 0.0
Zn221 Zn 0.7904 0.16661 0.8755 0.0
C222 C 0.88843 0.12538 0.86079 0.0
O223 O 0.87745 0.10724 0.83841 0.0
C224 C 0.70746 0.1539 0.89101 0.0
O225 O 0.72951 0.16845 0.91214 0.0
O226 O 0.79496 0.01659 0.86107 0.0
O227 O 0.74951 0.06962 0.88562 0.0
O228 O 0.79395 0.13086 0.905 0.0
C229 C 0.80852 0.0036 0.87966 0.0
O230 O 0.82189 0.02789 0.90005 0.0
O231 O 0.85816 0.11766 0.87651 0.0
C232 C 0.81203 0.25436 0.86822 0.0
O233 O 0.79007 0.23508 0.84767 0.0
O234 O 0.81876 0.23147 0.88434 0.0
O235 O 0.81072 0.16329 0.84002 0.0
O236 O 0.79298 0.09551 0.82932 0.0
O237 O 0.72643 0.14844 0.87214 0.0
C238 C 0.76358 0.0911 0.90581 0.0
C239 C 0.80625 0.13509 0.82353 0.0
H240 H 0.23324 0.95889 0.12075 0.0
H241 H 0.12 0.92009 0.07302 0.0
H242 H 0.25848 0.03545 0.11098 0.0
H243 H 0.14435 0.99615 0.0639 0.0
H244 H 0.19559 0.13389 0.04496 0.0
H245 H 0.19496 0.06433 0.04549 0.0
H246 H 0.23371 0.08472 0.12377 0.0
H247 H 0.23574 0.15474 0.12293 0.0
C248 C 0.21411 0.9666 0.10785 0.0
C249 C 0.17425 0.93339 0.09797 0.0
C250 C 0.22845 0.01053 0.10237 0.0
C251 C 0.20322 0.02213 0.08691 0.0
C252 C 0.16496 0.98863 0.07568 0.0
C253 C 0.15074 0.94483 0.08108 0.0
C254 C 0.20493 0.1239 0.06211 0.0
C255 C 0.21491 0.14934 0.08404 0.0
C256 C 0.20438 0.08394 0.06245 0.0
C257 C 0.21338 0.0684 0.08481 0.0
C258 C 0.22683 0.09564 0.10616 0.0
C259 C 0.22781 0.13581 0.10574 0.0
H260 H 0.26133 0.16019 0.58424 0.0
H261 H 0.21308 0.13891 0.66057 0.0
H262 H 0.21281 0.18923 0.57344 0.0
H263 H 0.16428 0.16686 0.64974 0.0
H264 H 0.09797 0.24318 0.62949 0.0
H265 H 0.15885 0.23009 0.63821 0.0
H266 H 0.1349 0.16085 0.56771 0.0
H267 H 0.07492 0.1748 0.55875 0.0
C268 C 0.24068 0.16202 0.59876 0.0
C269 C 0.24096 0.14696 0.62324 0.0
C270 C 0.21267 0.17844 0.59254 0.0
C271 C 0.18446 0.18037 0.61069 0.0
C272 C 0.18589 0.16653 0.63533 0.0
C273 C 0.21371 0.15008 0.6415 0.0
C274 C 0.10619 0.22586 0.61565 0.0
C275 C 0.0812 0.20971 0.59353 0.0
C276 C 0.14093 0.21804 0.62072 0.0
C277 C 0.15156 0.19389 0.60382 0.0
C278 C 0.128 0.17982 0.5811 0.0
C279 C 0.09332 0.18764 0.57603 0.0
H280 H 0.84106 0.03473 0.05276 0.0
H281 H 0.82527 0.05591 0.13127 0.0
H282 H 0.91659 0.09436 0.0542 0.0
H283 H 0.90113 0.11554 0.13265 0.0
H284 H 0.03326 0.24012 0.12066 0.0
H285 H 0.95448 0.19036 0.11536 0.0
H286 H 0.9819 0.09919 0.0761 0.0
H287 H 0.0602 0.14861 0.0813 0.0
C288 C 0.8535 0.05244 0.07025 0.0
C289 C 0.82737 0.0403 0.092 0.0
C290 C 0.89679 0.0865 0.07106 0.0
C291 C 0.91476 0.10921 0.09358 0.0
C292 C 0.88797 0.09871 0.11499 0.0
C293 C 0.84463 0.06448 0.11422 0.0
C294 C 0.02238 0.2096 0.11073 0.0
C295 C 0.05281 0.19807 0.10155 0.0
C296 C 0.97739 0.18114 0.10778 0.0
C297 C 0.96218 0.14102 0.09531 0.0
C298 C 0.9927 0.13014 0.08554 0.0
C299 C 0.03753 0.15828 0.08871 0.0
H300 H 0.89105 0.89029 0.62504 0.0
H301 H 0.75692 0.83896 0.60036 0.0
H302 H 0.90468 0.96434 0.61833 0.0
H303 H 0.77084 0.9135 0.59358 0.0
H304 H 0.81044 0.05927 0.61491 0.0
H305 H 0.78976 0.9822 0.61832 0.0
H306 H 0.90945 0.00914 0.58063 0.0
H307 H 0.93033 0.08596 0.57729 0.0
C308 C 0.86435 0.89477 0.61836 0.0
C309 C 0.82292 0.85868 0.61316 0.0
C310 C 0.87231 0.93722 0.61429 0.0
C311 C 0.83899 0.94463 0.60508 0.0
C312 C 0.79711 0.9087 0.60067 0.0
C313 C 0.7892 0.86608 0.60456 0.0
C314 C 0.83194 0.04861 0.60692 0.0
C315 C 0.87232 0.0789 0.59614 0.0
C316 C 0.82006 0.00447 0.60888 0.0
C317 C 0.84843 0.98992 0.60018 0.0
C318 C 0.88742 0.01967 0.588 0.0
C319 C 0.89919 0.06364 0.58593 0.0
H320 H 0.96505 0.83666 0.06578 0.0
H321 H 0.94721 0.79375 0.14316 0.0
H322 H 0.90422 0.85098 0.06953 0.0
H323 H 0.8853 0.80678 0.14671 0.0
H324 H 0.82225 0.89352 0.15382 0.0
H325 H 0.87459 0.86803 0.14941 0.0
H326 H 0.8268 0.82269 0.0742 0.0
H327 H 0.77471 0.8496 0.07844 0.0
C328 C 0.94775 0.82965 0.08353 0.0
C329 C 0.96143 0.81446 0.10426 0.0
C330 C 0.91251 0.83759 0.08562 0.0
C331 C 0.88979 0.8304 0.10848 0.0
C332 C 0.90245 0.81356 0.12893 0.0
C333 C 0.93786 0.80582 0.12687 0.0
C334 C 0.82253 0.87785 0.13634 0.0
C335 C 0.79432 0.87391 0.11642 0.0
C336 C 0.85247 0.86282 0.1339 0.0
C337 C 0.85517 0.84318 0.11145 0.0
C338 C 0.82612 0.83812 0.09168 0.0
C339 C 0.796 0.85327 0.09414 0.0
H340 H 0.98796 0.83986 0.67015 0.0
H341 H 0.98331 0.78279 0.59748 0.0
H342 H 0.06631 0.88836 0.66545 0.0
H343 H 0.06233 0.83051 0.59311 0.0
H344 H 0.18086 0.96788 0.5784 0.0
H345 H 0.1077 0.9066 0.58484 0.0
H346 H 0.13902 0.89934 0.66277 0.0
H347 H 0.21224 0.96195 0.65645 0.0
C348 C 1.00383 0.83691 0.6534 0.0
C349 C 0.97919 0.80786 0.63402 0.0
C350 C 0.04898 0.86464 0.65077 0.0
C351 C 0.07071 0.86381 0.62875 0.0
C352 C 0.04651 0.8327 0.61008 0.0
C353 C 1.00124 0.8051 0.61266 0.0
C354 C 0.17241 0.953 0.59687 0.0
C355 C 0.20229 0.97016 0.61698 0.0
C356 C 0.13042 0.91747 0.60053 0.0
C357 C 0.11723 0.89797 0.62437 0.0
C358 C 0.14782 0.91394 0.64425 0.0
C359 C 0.18989 0.94969 0.6406 0.0
H360 H 0.0548 0.84329 0.39465 0.0
H361 H 0.04734 0.83792 0.31349 0.0
H362 H 0.97613 0.81489 0.39688 0.0
H363 H 0.96814 0.80799 0.31569 0.0
H364 H 0.84367 0.81878 0.33067 0.0
H365 H 0.91887 0.83396 0.32549 0.0
H366 H 0.90473 0.75491 0.39087 0.0
H367 H 0.83012 0.74115 0.39653 0.0
C368 C 0.03622 0.83514 0.37727 0.0
C369 C 0.05743 0.84324 0.35389 0.0
C370 C 0.99093 0.8186 0.37854 0.0
C371 C 0.96562 0.80933 0.35645 0.0
C372 C 0.98664 0.81552 0.33307 0.0
C373 C 0.03203 0.8324 0.33181 0.0
C374 C 0.85643 0.80415 0.34372 0.0
C375 C 0.8311 0.77915 0.36416 0.0
C376 C 0.89957 0.81268 0.3407 0.0
C377 C 0.91819 0.79604 0.35792 0.0
C378 C 0.89189 0.76909 0.37758 0.0
C379 C 0.84897 0.76095 0.38073 0.0
H380 H 0.03607 0.85437 0.91911 0.0
H381 H 0.04676 0.83439 0.8398 0.0
H382 H 0.09211 0.93068 0.91494 0.0
H383 H 0.10389 0.91078 0.83576 0.0
H384 H 0.15052 0.05826 0.83285 0.0
H385 H 0.10453 0.97962 0.83667 0.0
H386 H 0.16847 0.98252 0.9068 0.0
H387 H 0.21411 0.06189 0.90325 0.0
C388 C 0.05091 0.86608 0.90084 0.0
C389 C 0.03659 0.83839 0.87972 0.0
C390 C 0.08333 0.90984 0.8985 0.0
C391 C 0.1023 0.92698 0.87498 0.0
C392 C 0.0894 0.89877 0.85407 0.0
C393 C 0.05687 0.85493 0.8564 0.0
C394 C 0.15504 0.04221 0.84904 0.0
C395 C 0.18582 0.06642 0.86783 0.0
C396 C 0.12888 0.99695 0.85111 0.0
C397 C 0.13284 0.97467 0.87201 0.0
C398 C 0.16429 0.99875 0.89058 0.0
C399 C 0.19054 0.04419 0.88852 0.0
H400 H 0.1278 0.1822 0.31433 0.0
H401 H 0.14849 0.21896 0.39284 0.0
H402 H 0.15026 0.1282 0.32195 0.0
H403 H 0.17233 0.16542 0.40038 0.0
H404 H 0.14198 0.02218 0.40857 0.0
H405 H 0.13508 0.08674 0.40204 0.0
H406 H 0.20811 0.11336 0.33271 0.0
H407 H 0.21401 0.0477 0.33894 0.0
C408 C 0.13795 0.17934 0.33317 0.0
C409 C 0.13582 0.20451 0.35305 0.0
C410 C 0.1512 0.14852 0.3375 0.0
C411 C 0.16281 0.14219 0.36181 0.0
C412 C 0.16289 0.16899 0.38149 0.0
C413 C 0.14952 0.19987 0.37715 0.0
C414 C 0.15684 0.04189 0.39198 0.0
C415 C 0.17814 0.02952 0.37412 0.0
C416 C 0.15325 0.07925 0.38837 0.0
C417 C 0.17101 0.10529 0.36684 0.0
C418 C 0.19357 0.09369 0.34935 0.0
C419 C 0.19705 0.05614 0.35293 0.0
H420 H 0.17318 0.25034 0.86302 0.0
H421 H 0.12315 0.16113 0.92592 0.0
H422 H 0.10138 0.24444 0.85755 0.0
H423 H 0.05134 0.15416 0.91997 0.0
H424 H 0.92442 0.15176 0.90794 0.0
H425 H 1.00187 0.18338 0.91947 0.0
H426 H 0.03495 0.18515 0.84102 0.0
H427 H 0.95851 0.15485 0.82961 0.0
C428 C 0.14711 0.23004 0.87593 0.0
C429 C 0.15363 0.2055 0.89456 0.0
C430 C 0.10589 0.22649 0.87273 0.0
C431 C 0.07033 0.19817 0.88801 0.0
C432 C 0.07791 0.17642 0.90791 0.0
C433 C 0.11913 0.18014 0.91119 0.0
C434 C 0.94847 0.15984 0.89318 0.0
C435 C 0.93531 0.15028 0.8679 0.0
C436 C 0.99277 0.17773 0.89977 0.0
C437 C 0.02467 0.18657 0.88119 0.0
C438 C 0.01155 0.17935 0.85584 0.0
C439 C 0.96749 0.16147 0.84929 0.0
H440 H 0.96254 0.15118 0.32956 0.0
H441 H 0.93658 0.15029 0.40893 0.0
H442 H 0.90271 0.07627 0.32601 0.0
H443 H 0.87511 0.0761 0.4053 0.0
H444 H 0.80447 0.92642 0.39626 0.0
H445 H 0.85794 0.00384 0.40091 0.0
H446 H 0.82833 0.02764 0.32543 0.0
H447 H 0.7769 0.94996 0.3205 0.0
C448 C 0.94338 0.13527 0.34616 0.0
C449 C 0.95446 0.15671 0.36952 0.0
C450 C 0.90874 0.09218 0.34415 0.0
C451 C 0.88366 0.0695 0.36539 0.0
C452 C 0.89398 0.09175 0.38859 0.0
C453 C 0.92908 0.13459 0.39066 0.0
C454 C 0.80905 0.94838 0.38082 0.0
C455 C 0.78672 0.93201 0.35796 0.0
C456 C 0.83971 0.99299 0.38346 0.0
C457 C 0.84825 0.0225 0.36343 0.0
C458 C 0.82392 0.00613 0.34106 0.0
C459 C 0.79396 0.96151 0.33829 0.0
H460 H 0.85032 0.77898 0.90281 0.0
H461 H 0.87516 0.81444 0.82431 0.0
H462 H 0.82554 0.83239 0.90847 0.0
H463 H 0.85194 0.86815 0.83004 0.0
H464 H 0.78178 0.94383 0.84118 0.0
H465 H 0.79263 0.8808 0.83733 0.0
H466 H 0.85621 0.91029 0.91006 0.0
H467 H 0.8441 0.97235 0.91421 0.0
C468 C 0.85012 0.79781 0.88673 0.0
C469 C 0.86487 0.79243 0.86313 0.0
C470 C 0.83627 0.82872 0.89 0.0
C471 C 0.83679 0.85488 0.86973 0.0
C472 C 0.85033 0.84834 0.84603 0.0
C473 C 0.86405 0.81759 0.84278 0.0
C474 C 0.79769 0.93661 0.85645 0.0
C475 C 0.81232 0.96343 0.87791 0.0
C476 C 0.80415 0.90054 0.8542 0.0
C477 C 0.82569 0.89046 0.87328 0.0
C478 C 0.83907 0.91656 0.89509 0.0
C479 C 0.83239 0.95247 0.89739 0.0
H480 H 0.1767 0.65252 0.05407 0.0
H481 H 0.12922 0.6411 0.13021 0.0
H482 H 0.17888 0.58491 0.05931 0.0
H483 H 0.1306 0.57296 0.13527 0.0
H484 H 0.20812 0.49844 0.14463 0.0
H485 H 0.1894 0.55582 0.13932 0.0
H486 H 0.13677 0.50576 0.0655 0.0
H487 H 0.1563 0.44854 0.07063 0.0
C488 C 0.16601 0.63522 0.07179 0.0
C489 C 0.15326 0.65249 0.09181 0.0
C490 C 0.16698 0.59625 0.07474 0.0
C491 C 0.1552 0.57367 0.09778 0.0
C492 C 0.14052 0.58992 0.11741 0.0
C493 C 0.13954 0.62888 0.11446 0.0
C494 C 0.192 0.49923 0.12739 0.0
C495 C 0.18407 0.46914 0.10797 0.0
C496 C 0.18099 0.53202 0.12441 0.0
C497 C 0.16179 0.53555 0.10192 0.0
C498 C 0.15206 0.50426 0.08292 0.0
C499 C 0.16298 0.47131 0.08593 0.0
H500 H 0.71927 0.16001 0.57739 0.0
H501 H 0.72758 0.22729 0.64688 0.0
H502 H 0.64169 0.13853 0.57379 0.0
H503 H 0.65084 0.20689 0.64299 0.0
H504 H 0.50465 0.1463 0.63818 0.0
H505 H 0.57547 0.14975 0.64362 0.0
H506 H 0.60118 0.17541 0.56416 0.0
H507 H 0.53032 0.17088 0.55866 0.0
C508 C 0.70449 0.16983 0.59203 0.0
C509 C 0.72981 0.19568 0.61231 0.0
C510 C 0.66007 0.15776 0.58989 0.0
C511 C 0.63994 0.17121 0.60801 0.0
C512 C 0.66491 0.19544 0.62882 0.0
C513 C 0.70918 0.20747 0.63095 0.0
C514 C 0.52513 0.15195 0.62182 0.0
C515 C 0.51189 0.15864 0.59802 0.0
C516 C 0.56589 0.15422 0.62495 0.0
C517 C 0.59433 0.16321 0.60436 0.0
C518 C 0.5801 0.16794 0.58041 0.0
C519 C 0.53944 0.16566 0.57729 0.0
H520 H 0.55488 0.70477 0.06153 0.0
H521 H 0.51484 0.69474 0.13924 0.0
H522 H 0.49595 0.62996 0.05413 0.0
H523 H 0.45579 0.62078 0.13174 0.0
H524 H 0.36907 0.47862 0.11666 0.0
H525 H 0.43821 0.54655 0.12199 0.0
H526 H 0.41591 0.59466 0.05183 0.0
H527 H 0.34733 0.52642 0.04619 0.0
C528 C 0.53384 0.68648 0.07708 0.0
C529 C 0.5393 0.70573 0.10093 0.0
C530 C 0.49998 0.64377 0.0728 0.0
C531 C 0.47114 0.61953 0.09232 0.0
C532 C 0.47776 0.63832 0.11637 0.0
C533 C 0.51146 0.6809 0.12063 0.0
C534 C 0.37918 0.50348 0.10222 0.0
C535 C 0.35252 0.49736 0.08114 0.0
C536 C 0.41871 0.54244 0.10532 0.0
C537 C 0.43233 0.5761 0.08744 0.0
C538 C 0.40657 0.56919 0.06582 0.0
C539 C 0.36708 0.53018 0.06269 0.0
H540 H 0.83911 0.53884 0.56584 0.0
H541 H 0.93381 0.5917 0.62633 0.0
H542 H 0.85247 0.47742 0.5621 0.0
H543 H 0.9467 0.52991 0.62273 0.0
H544 H 0.9786 0.42359 0.59776 0.0
H545 H 0.97439 0.49093 0.59585 0.0
H546 H 0.83335 0.4144 0.58971 0.0
H547 H 0.83742 0.34757 0.59141 0.0
C548 C 0.86327 0.53777 0.57808 0.0
C549 C 0.88506 0.57001 0.59656 0.0
C550 C 0.87069 0.50238 0.57605 0.0
C551 C 0.90019 0.49848 0.59236 0.0
C552 C 0.9239 0.53203 0.60983 0.0
C553 C 0.91636 0.56738 0.61194 0.0
C554 C 0.94675 0.42121 0.59591 0.0
C555 C 0.90837 0.38017 0.59477 0.0
C556 C 0.94434 0.45976 0.59487 0.0
C557 C 0.90357 0.458 0.59245 0.0
C558 C 0.86534 0.41695 0.59112 0.0
C559 C 0.86769 0.37857 0.59232 0.0
H560 H 0.53068 0.87179 0.12572 0.0
H561 H 0.48863 0.82594 0.04988 0.0
H562 H 0.46071 0.86878 0.13371 0.0
H563 H 0.41855 0.82196 0.05801 0.0
H564 H 0.30354 0.84268 0.0744 0.0
H565 H 0.37931 0.86083 0.06618 0.0
H566 H 0.38606 0.81228 0.13977 0.0
H567 H 0.31124 0.79518 0.14812 0.0
C568 C 0.50672 0.86145 0.11067 0.0
C569 C 0.51526 0.84883 0.08721 0.0
C570 C 0.46643 0.85943 0.1153 0.0
C571 C 0.43366 0.84476 0.09658 0.0
C572 C 0.44301 0.83385 0.07282 0.0
C573 C 0.48323 0.83586 0.0682 0.0
C574 C 0.32145 0.83646 0.08892 0.0
C575 C 0.30113 0.81728 0.11187 0.0
C576 C 0.36482 0.84659 0.08416 0.0
C577 C 0.38894 0.83791 0.10226 0.0
C578 C 0.36893 0.82004 0.12548 0.0
C579 C 0.32571 0.80989 0.13021 0.0
H580 H 0.67573 0.53178 0.63094 0.0
H581 H 0.68349 0.49425 0.55455 0.0
H582 H 0.60751 0.46306 0.63684 0.0
H583 H 0.61627 0.42516 0.56067 0.0
H584 H 0.47902 0.31321 0.57349 0.0
H585 H 0.53822 0.3883 0.56706 0.0
H586 H 0.58802 0.38821 0.64151 0.0
H587 H 0.52865 0.31434 0.64814 0.0
C588 C 0.66282 0.50895 0.61539 0.0
C589 C 0.68524 0.51831 0.59236 0.0
C590 C 0.62381 0.46947 0.61879 0.0
C591 C 0.60653 0.43836 0.59929 0.0
C592 C 0.62826 0.44849 0.576 0.0
C593 C 0.66708 0.48804 0.57256 0.0
C594 C 0.50237 0.3295 0.58854 0.0
C595 C 0.49922 0.30772 0.61126 0.0
C596 C 0.53641 0.37242 0.58483 0.0
C597 C 0.56798 0.39433 0.60376 0.0
C598 C 0.56399 0.37275 0.62667 0.0
C599 C 0.53003 0.3301 0.63039 0.0
H600 H 0.34766 0.87221 0.36128 0.0
H601 H 0.34313 0.82735 0.43749 0.0
H602 H 0.41644 0.87225 0.35451 0.0
H603 H 0.41085 0.82603 0.43051 0.0
H604 H 0.54766 0.85006 0.41607 0.0
H605 H 0.4885 0.86647 0.42331 0.0
H606 H 0.43674 0.81736 0.34918 0.0
H607 H 0.49609 0.80234 0.34174 0.0
C608 C 0.36146 0.86264 0.37663 0.0
C609 C 0.3397 0.84943 0.39984 0.0
C610 C 0.40077 0.86242 0.37272 0.0
C611 C 0.41905 0.84875 0.39189 0.0
C612 C 0.3981 0.83723 0.41541 0.0
C613 C 0.35898 0.83768 0.41935 0.0
C614 C 0.52389 0.84329 0.40126 0.0
C615 C 0.52649 0.82468 0.3784 0.0
C616 C 0.48987 0.85247 0.40543 0.0
C617 C 0.45772 0.84316 0.38685 0.0
C618 C 0.46119 0.82566 0.36378 0.0
C619 C 0.49515 0.81666 0.35959 0.0
H620 H 0.66475 0.57138 0.86692 0.0
H621 H 0.72141 0.52596 0.92355 0.0
H622 H 0.59296 0.50757 0.87447 0.0
H623 H 0.65005 0.46192 0.93066 0.0
H624 H 0.51048 0.36143 0.94881 0.0
H625 H 0.57575 0.43353 0.94586 0.0
H626 H 0.56088 0.43036 0.86503 0.0
H627 H 0.49533 0.35897 0.868 0.0
C628 C 0.66183 0.5481 0.88118 0.0
C629 C 0.69891 0.55358 0.89445 0.0
C630 C 0.62074 0.51139 0.88539 0.0
C631 C 0.61583 0.4794 0.90297 0.0
C632 C 0.65252 0.48606 0.91713 0.0
C633 C 0.69356 0.52273 0.91294 0.0
C634 C 0.5209 0.37634 0.93044 0.0
C635 C 0.49785 0.35431 0.90862 0.0
C636 C 0.5584 0.41758 0.92874 0.0
C637 C 0.57364 0.43768 0.90521 0.0
C638 C 0.54975 0.41616 0.8835 0.0
C639 C 0.5123 0.375 0.88518 0.0
H640 H 0.1649 0.69862 0.4278 0.0
H641 H 0.18072 0.68923 0.34785 0.0
H642 H 0.15001 0.62332 0.43307 0.0
H643 H 0.16696 0.61516 0.35313 0.0
H644 H 0.11478 0.4731 0.36449 0.0
H645 H 0.11291 0.54136 0.36307 0.0
H646 H 0.19168 0.58494 0.43067 0.0
H647 H 0.19254 0.51625 0.43247 0.0
C648 C 0.16477 0.68041 0.41136 0.0
C649 C 0.1742 0.70001 0.38743 0.0
C650 C 0.15651 0.6374 0.41438 0.0
C651 C 0.15727 0.61311 0.39352 0.0
C652 C 0.16537 0.63247 0.36957 0.0
C653 C 0.17368 0.67525 0.36657 0.0
C654 C 0.13116 0.49696 0.37925 0.0
C655 C 0.15423 0.48939 0.39842 0.0
C656 C 0.13027 0.53621 0.37838 0.0
C657 C 0.15264 0.56895 0.39657 0.0
C658 C 0.17381 0.5604 0.41646 0.0
C659 C 0.17453 0.52104 0.41739 0.0
H660 H 0.6547 0.12933 0.84923 0.0
H661 H 0.66052 0.16835 0.92686 0.0
H662 H 0.58593 0.12993 0.84383 0.0
H663 H 0.59253 0.16993 0.92129 0.0
H664 H 0.45681 0.14785 0.90934 0.0
H665 H 0.51424 0.12835 0.91369 0.0
H666 H 0.56673 0.18706 0.84141 0.0
H667 H 0.50893 0.2056 0.83681 0.0
C668 C 0.64111 0.1376 0.86521 0.0
C669 C 0.66331 0.14918 0.88842 0.0
C670 C 0.60181 0.13816 0.86207 0.0
C671 C 0.58387 0.15031 0.88206 0.0
C672 C 0.60511 0.15994 0.90557 0.0
C673 C 0.64433 0.15934 0.90871 0.0
C674 C 0.48017 0.15593 0.89419 0.0
C675 C 0.47854 0.17867 0.87283 0.0
C676 C 0.51324 0.14498 0.89676 0.0
C677 C 0.54535 0.1565 0.87801 0.0
C678 C 0.54232 0.17728 0.8561 0.0
C679 C 0.50928 0.18819 0.85354 0.0
H680 H 0.30819 0.45505 0.40615 0.0
H681 H 0.30638 0.51126 0.33419 0.0
H682 H 0.38407 0.5132 0.41261 0.0
H683 H 0.38114 0.56943 0.34084 0.0
H684 H 0.52601 0.65649 0.35034 0.0
H685 H 0.45671 0.58896 0.34366 0.0
H686 H 0.42232 0.59045 0.42151 0.0
H687 H 0.49182 0.65704 0.42831 0.0
C688 C 0.32402 0.47953 0.39164 0.0
C689 C 0.30104 0.47852 0.36971 0.0
C690 C 0.36744 0.51305 0.39539 0.0
C691 C 0.38888 0.54622 0.37728 0.0
C692 C 0.36615 0.54426 0.35506 0.0
C693 C 0.32295 0.51093 0.35134 0.0
C694 C 0.50393 0.64204 0.36611 0.0
C695 C 0.51443 0.66244 0.38981 0.0
C696 C 0.46402 0.60343 0.36225 0.0
C697 C 0.43356 0.5843 0.38199 0.0
C698 C 0.44498 0.60382 0.40592 0.0
C699 C 0.48486 0.64232 0.40977 0.0
H700 H 0.83227 0.48849 0.93332 0.0
H701 H 0.87704 0.52825 0.85715 0.0
H702 H 0.82915 0.41884 0.92593 0.0
H703 H 0.87505 0.45882 0.84993 0.0
H704 H 0.80316 0.31015 0.83637 0.0
H705 H 0.81905 0.38439 0.84436 0.0
H706 H 0.86809 0.37967 0.91826 0.0
H707 H 0.85104 0.30434 0.91041 0.0
C708 C 0.8422 0.48271 0.91509 0.0
C709 C 0.8545 0.51392 0.89575 0.0
C710 C 0.84066 0.44273 0.9109 0.0
C711 C 0.85149 0.43285 0.88726 0.0
C712 C 0.86569 0.46491 0.86825 0.0
C713 C 0.86714 0.5049 0.87243 0.0
C714 C 0.81765 0.32491 0.85429 0.0
C715 C 0.82557 0.30104 0.8728 0.0
C716 C 0.82714 0.36782 0.8588 0.0
C717 C 0.84493 0.38829 0.88196 0.0
C718 C 0.85394 0.36483 0.9003 0.0
C719 C 0.84441 0.32171 0.89576 0.0
H720 H 0.08376 0.32024 0.27777 0.0
H721 H 0.21775 0.37904 0.30413 0.0
H722 H 0.10922 0.3261 0.23442 0.0
H723 H 0.24287 0.38392 0.26075 0.0
H724 H 0.23549 0.29774 0.18804 0.0
H725 H 0.22258 0.31454 0.23074 0.0
H726 H 0.16322 0.38693 0.20063 0.0
H727 H 0.17704 0.37087 0.15776 0.0
C728 C 0.11863 0.33491 0.27428 0.0
C729 C 0.14873 0.34884 0.29433 0.0
C730 C 0.13317 0.33857 0.24951 0.0
C731 C 0.17792 0.35547 0.24442 0.0
C732 C 0.2082 0.37086 0.26432 0.0
C733 C 0.19378 0.36804 0.28907 0.0
C734 C 0.22069 0.31814 0.19059 0.0
C735 C 0.2074 0.33323 0.16976 0.0
C736 C 0.2135 0.32789 0.21494 0.0
C737 C 0.19198 0.352 0.21881 0.0
C738 C 0.18003 0.36841 0.19799 0.0
C739 C 0.18818 0.35951 0.17358 0.0
H740 H 0.94531 0.19621 0.68402 0.0
H741 H 0.84559 0.23146 0.6689 0.0
H742 H 0.9191 0.17749 0.72699 0.0
H743 H 0.81939 0.21247 0.71218 0.0
H744 H 0.82085 0.21138 0.80129 0.0
H745 H 0.84666 0.23597 0.75839 0.0
H746 H 0.84674 0.11538 0.74391 0.0
H747 H 0.82098 0.09066 0.78647 0.0
C748 C 0.91807 0.2004 0.68987 0.0
C749 C 0.89722 0.21491 0.6729 0.0
C750 C 0.90297 0.18944 0.71446 0.0
C751 C 0.86695 0.19304 0.72268 0.0
C752 C 0.84727 0.20945 0.7062 0.0
C753 C 0.86218 0.22015 0.68145 0.0
C754 C 0.82616 0.19005 0.78888 0.0
C755 C 0.81907 0.14916 0.79727 0.0
C756 C 0.84073 0.20408 0.76437 0.0
C757 C 0.84903 0.17769 0.74807 0.0
C758 C 0.84111 0.13654 0.75629 0.0
C759 C 0.82608 0.12231 0.7806 0.0
H760 H 0.67521 0.80664 0.16877 0.0
H761 H 0.64252 0.90732 0.18473 0.0
H762 H 0.66992 0.78883 0.21325 0.0
H763 H 0.63427 0.8878 0.22914 0.0
H764 H 0.67509 0.87657 0.30951 0.0
H765 H 0.674 0.89317 0.26509 0.0
H766 H 0.62353 0.75664 0.24687 0.0
H767 H 0.6279 0.74118 0.2911 0.0
C768 C 0.66619 0.82446 0.18183 0.0
C769 C 0.65951 0.85846 0.17343 0.0
C770 C 0.66274 0.81405 0.20734 0.0
C771 C 0.65146 0.83672 0.22494 0.0
C772 C 0.64385 0.87018 0.2163 0.0
C773 C 0.64833 0.88125 0.19084 0.0
C774 C 0.6634 0.85022 0.29591 0.0
C775 C 0.65192 0.80775 0.30348 0.0
C776 C 0.66254 0.85957 0.27046 0.0
C777 C 0.64911 0.82634 0.25221 0.0
C778 C 0.63535 0.78335 0.2602 0.0
C779 C 0.63739 0.77431 0.28553 0.0
H780 H 0.83966 0.62145 0.67063 0.0
H781 H 0.78393 0.70352 0.68873 0.0
H782 H 0.84416 0.60857 0.7153 0.0
H783 H 0.78877 0.69068 0.73342 0.0
H784 H 0.78377 0.6394 0.81308 0.0
H785 H 0.76382 0.63465 0.76851 0.0
H786 H 0.8937 0.66127 0.74779 0.0
H787 H 0.91357 0.66593 0.79193 0.0
C788 C 0.82788 0.63634 0.68408 0.0
C789 C 0.81236 0.66433 0.67613 0.0
C790 C 0.8305 0.62895 0.70966 0.0
C791 C 0.81733 0.64907 0.72779 0.0
C792 C 0.79902 0.67463 0.71984 0.0
C793 C 0.7966 0.68224 0.69424 0.0
C794 C 0.80783 0.64373 0.79897 0.0
C795 C 0.85035 0.65339 0.80599 0.0
C796 C 0.79644 0.64113 0.77352 0.0
C797 C 0.82719 0.64749 0.75474 0.0
C798 C 0.86913 0.65563 0.76184 0.0
C799 C 0.88063 0.65871 0.78716 0.0
H800 H 0.08008 0.78886 0.19939 0.0
H801 H 0.21045 0.81554 0.17949 0.0
H802 H 0.10055 0.79819 0.24375 0.0
H803 H 0.23093 0.82524 0.22406 0.0
H804 H 0.25457 0.90455 0.30056 0.0
H805 H 0.23844 0.88375 0.25637 0.0
H806 H 0.12471 0.76248 0.27814 0.0
H807 H 0.14091 0.78299 0.32243 0.0
C808 C 0.11304 0.79653 0.2045 0.0
C809 C 0.14374 0.80173 0.18597 0.0
C810 C 0.12459 0.80145 0.22989 0.0
C811 C 0.16723 0.81226 0.23724 0.0
C812 C 0.19785 0.81693 0.2188 0.0
C813 C 0.18608 0.81131 0.19337 0.0
C814 C 0.22647 0.87318 0.29592 0.0
C815 C 0.19867 0.84565 0.31489 0.0
C816 C 0.21746 0.86118 0.27067 0.0
C817 C 0.18021 0.82169 0.26395 0.0
C818 C 0.15345 0.79327 0.28292 0.0
C819 C 0.16282 0.80497 0.30822 0.0
H820 H 0.33074 0.2594 0.79834 0.0
H821 H 0.36505 0.16268 0.82122 0.0
H822 H 0.34834 0.25261 0.75491 0.0
H823 H 0.37846 0.15208 0.77764 0.0
H824 H 0.4173 0.14944 0.69829 0.0
H825 H 0.41735 0.17217 0.74162 0.0
H826 H 0.31977 0.20836 0.7214 0.0
H827 H 0.32366 0.18967 0.67791 0.0
C828 C 0.34197 0.23654 0.79388 0.0
C829 C 0.34648 0.21141 0.81283 0.0
C830 C 0.35157 0.23213 0.76896 0.0
C831 C 0.36405 0.20107 0.76236 0.0
C832 C 0.36969 0.17687 0.78173 0.0
C833 C 0.36167 0.18256 0.80677 0.0
C834 C 0.39647 0.1629 0.70331 0.0
C835 C 0.37045 0.1679 0.68509 0.0
C836 C 0.39606 0.17558 0.72815 0.0
C837 C 0.36825 0.19189 0.7354 0.0
C838 C 0.3425 0.19707 0.71676 0.0
C839 C 0.34422 0.18591 0.69179 0.0
H840 H 0.28134 0.26701 0.9198 0.0
H841 H 0.3052 0.17656 0.96262 0.0
H842 H 0.24427 0.27667 0.95522 0.0
H843 H 0.2662 0.185 -0.00154 0.0
H844 H 0.2716 0.27748 0.0629 0.0
H845 H 0.28528 0.24196 0.02759 0.0
H846 H 0.18706 0.25328 0.98392 0.0
H847 H 0.17554 0.29117 0.01915 0.0
C848 C 0.27727 0.24796 0.93662 0.0
C849 C 0.29613 0.22104 0.9385 0.0
C850 C 0.25566 0.2533 0.957 0.0
C851 C 0.25233 0.23182 0.97987 0.0
C852 C 0.26884 0.20262 0.98125 0.0
C853 C 0.29097 0.1976 0.96077 0.0
C854 C 0.25258 0.27164 0.0458 0.0
C855 C 0.22285 0.28704 0.04341 0.0
C856 C 0.26 0.25088 0.02564 0.0
C857 C 0.23756 0.24502 0.00274 0.0
C858 C 0.2056 0.25809 0.00108 0.0
C859 C 0.19885 0.27963 0.02115 0.0
H860 H 0.12134 0.29436 0.44603 0.0
H861 H 0.01034 0.30052 0.41544 0.0
H862 H 0.0806 0.2636 0.48505 0.0
H863 H 0.97064 0.27171 0.45426 0.0
H864 H 0.89474 0.20245 0.52054 0.0
H865 H 0.93396 0.21115 0.48119 0.0
H866 H 0.05738 0.28843 0.51996 0.0
H867 H 0.01843 0.27808 0.55916 0.0
C868 C 0.08838 0.28931 0.44769 0.0
C869 C 0.06914 0.30009 0.42778 0.0
C870 C 0.06501 0.27165 0.46998 0.0
C871 C 0.02219 0.26495 0.4728 0.0
C872 C 1.00302 0.27531 0.45264 0.0
C873 C 0.02609 0.29246 0.43043 0.0
C874 C 0.93026 0.2205 0.52066 0.0
C875 C 0.95346 0.24021 0.54281 0.0
C876 C 0.95277 0.22572 0.49813 0.0
C877 C 0.99884 0.25135 0.49727 0.0
C878 C 0.022 0.26832 0.51984 0.0
C879 C 0.99955 0.26265 0.54236 0.0
H880 H 0.63619 0.955 0.04287 0.0
H881 H 0.72652 0.90932 0.02472 0.0
H882 H 0.65828 1.00028 0.00493 0.0
H883 H 0.7497 0.95589 0.98697 0.0
H884 H 0.81333 0.09623 0.94667 0.0
H885 H 0.7888 0.04753 0.98352 0.0
H886 H 0.65646 0.98259 0.95455 0.0
H887 H 0.68101 0.0302 0.91759 0.0
C888 C 0.66028 0.95423 0.03048 0.0
C889 C 0.67945 0.92857 0.03641 0.0
C890 C 0.67301 0.98019 0.00895 0.0
C891 C 0.70592 0.98173 -0.00661 0.0
C892 C 0.72446 0.9553 -0.00107 0.0
C893 C 0.71086 0.92837 0.02021 0.0
C894 C 0.77897 0.07195 0.94847 0.0
C895 C 0.74888 0.06693 0.92956 0.0
C896 C 0.76511 0.04387 0.96925 0.0
C897 C 0.72092 0.01129 0.97154 0.0
C898 C 0.69069 0.00742 0.95305 0.0
C899 C 0.70467 0.03469 0.93207 0.0
H900 H 0.7422 0.64009 0.53456 0.0
H901 H 0.8159 0.77965 0.5471 0.0
H902 H 0.70521 0.65176 0.49889 0.0
H903 H 0.78001 0.7913 0.51123 0.0
H904 H 0.68418 0.80014 0.45912 0.0
H905 H 0.71018 0.78169 0.4975 0.0
H906 H 0.7206 0.68068 0.45714 0.0
H907 H 0.69332 0.69785 0.41944 0.0
C908 C 0.75099 0.67324 0.52947 0.0
C909 C 0.78206 0.70891 0.5436 0.0
C910 C 0.7297 0.67995 0.50911 0.0
C911 C 0.7393 0.72247 0.50239 0.0
C912 C 0.771 0.75809 0.51627 0.0
C913 C 0.79202 0.7514 0.53665 0.0
C914 C 0.69126 0.7735 0.45866 0.0
C915 C 0.68738 0.75097 0.43619 0.0
C916 C 0.70652 0.76317 0.48053 0.0
C917 C 0.71808 0.73011 0.48027 0.0
C918 C 0.71181 0.70611 0.4581 0.0
C919 C 0.69651 0.7163 0.43639 0.0
H920 H 0.993 0.68366 0.92617 0.0
H921 H 0.88878 0.69596 0.96139 0.0
H922 H 0.03441 0.70496 0.96516 0.0
H923 H 0.93116 0.71897 0.00049 0.0
H924 H 0.11856 0.78602 0.02989 0.0
H925 H 0.07549 0.76703 -0.00883 0.0
H926 H 0.95665 0.69262 0.03417 0.0
H927 H 0.99933 0.71288 0.07274 0.0
C928 C 0.97898 0.69109 0.94229 0.0
C929 C 0.93762 0.68817 0.94074 0.0
C930 C 1.00297 0.70373 0.9646 0.0
C931 C 0.98644 0.71422 0.98591 0.0
C932 C 0.94472 0.71074 0.98448 0.0
C933 C 0.92042 0.6976 0.96212 0.0
C934 C 0.08324 0.76576 0.03103 0.0
C935 C 0.06244 0.75081 0.05435 0.0
C936 C 0.05853 0.75465 0.00885 0.0
C937 C 0.01256 0.72804 0.00953 0.0
C938 C 0.99185 0.71361 0.03293 0.0
C939 C 0.01646 0.72498 0.05506 0.0
H940 H 0.25988 0.99914 0.4273 0.0
H941 H 0.23238 0.88474 0.47105 0.0
H942 H 0.29265 0.04501 0.46355 0.0
H943 H 0.26374 0.93114 0.5082 0.0
H944 H 0.36345 0.03128 0.56247 0.0
H945 H 0.33132 0.9846 0.52581 0.0
H946 H 0.27675 0.06537 0.50209 0.0
H947 H 0.31087 0.11315 0.53815 0.0
C948 C 0.26024 0.98355 0.44482 0.0
C949 C 0.24336 0.93806 0.44625 0.0
C950 C 0.27888 0.01006 0.46575 0.0
C951 C 0.2807 0.99193 0.48891 0.0
C952 C 0.26343 0.94631 0.49053 0.0
C953 C 0.24515 0.91963 0.46934 0.0
C954 C 0.34504 0.03928 0.54918 0.0
C955 C 0.33991 0.07597 0.55296 0.0
C956 C 0.32614 0.01222 0.52835 0.0
C957 C 0.30111 0.0209 0.51104 0.0
C958 C 0.2964 0.05801 0.51478 0.0
C959 C 0.31598 0.0855 0.53541 0.0
loop_
_geom_bond_atom_site_label_1
_geom_bond_atom_site_label_2
_geom_bond_distance
_geom_bond_site_symmetry_2
_ccdc_geom_bond_type
Zn0 O6 1.969 . S
Zn0 O7 1.965 . S
Zn0 O11 2.024 . S
Zn0 O16 1.969 . S
Zn1 O8 1.969 . S
Zn1 O14 1.969 . S
Zn1 O15 1.965 . S
Zn1 O17 2.024 . S
C2 O3 1.229 . S
C2 O11 1.058 . S
O3 C2 1.229 . S
C4 O5 1.229 . S
C4 O17 1.058 . S
O5 C4 1.229 . S
O6 Zn0 1.969 . S
O6 C9 1.267 . S
O7 Zn0 1.965 . S
O7 C18 1.260 . S
O8 Zn1 1.969 . S
O8 C18 1.258 . S
C9 O6 1.267 . S
C9 O10 1.228 . S
O10 C9 1.228 . S
O11 Zn0 2.024 . S
O11 C2 1.058 . S
C12 O13 1.228 . S
C12 O14 1.267 . S
O13 C12 1.228 . S
O14 Zn1 1.969 . S
O14 C12 1.267 . S
O15 Zn1 1.965 . S
O15 C19 1.260 . S
O16 Zn0 1.969 . S
O16 C19 1.258 . S
O17 Zn1 2.024 . S
O17 C4 1.058 . S
C18 O7 1.260 . S
C18 O8 1.258 . S
C19 O15 1.260 . S
C19 O16 1.258 . S
Zn20 O26 1.969 . S
Zn20 O27 1.965 . S
Zn20 O31 2.024 . S
Zn20 O36 1.969 . S
Zn21 O28 1.969 . S
Zn21 O34 1.969 . S
Zn21 O35 1.965 . S
Zn21 O37 2.024 . S
C22 O23 1.229 . S
C22 O31 1.058 . S
O23 C22 1.229 . S
C24 O25 1.229 . S
C24 O37 1.058 . S
O25 C24 1.229 . S
O26 Zn20 1.969 . S
O26 C29 1.267 . S
O27 Zn20 1.965 . S
O27 C38 1.260 . S
O28 Zn21 1.969 . S
O28 C38 1.258 . S
C29 O26 1.267 . S
C29 O30 1.228 . S
O30 C29 1.228 . S
O31 Zn20 2.024 . S
O31 C22 1.058 . S
C32 O33 1.228 . S
C32 O34 1.267 . S
O33 C32 1.228 . S
O34 Zn21 1.969 . S
O34 C32 1.267 . S
O35 Zn21 1.965 . S
O35 C39 1.260 . S
O36 Zn20 1.969 . S
O36 C39 1.258 . S
O37 Zn21 2.024 . S
O37 C24 1.058 . S
C38 O27 1.260 . S
C38 O28 1.258 . S
C39 O35 1.260 . S
C39 O36 1.258 . S
Zn40 O46 1.969 . S
Zn40 O47 1.965 . S
Zn40 O51 2.024 . S
Zn40 O56 1.969 . S
Zn41 O48 1.969 . S
Zn41 O54 1.969 . S
Zn41 O55 1.965 . S
Zn41 O57 2.024 . S
C42 O43 1.229 . S
C42 O51 1.058 . S
O43 C42 1.229 . S
C44 O45 1.229 . S
C44 O57 1.058 . S
O45 C44 1.229 . S
O46 Zn40 1.969 . S
O46 C49 1.267 . S
O47 Zn40 1.965 . S
O47 C58 1.260 . S
O48 Zn41 1.969 . S
O48 C58 1.258 . S
C49 O46 1.267 . S
C49 O50 1.228 . S
O50 C49 1.228 . S
O51 Zn40 2.024 . S
O51 C42 1.058 . S
C52 O53 1.228 . S
C52 O54 1.267 . S
O53 C52 1.228 . S
O54 Zn41 1.969 . S
O54 C52 1.267 . S
O55 Zn41 1.965 . S
O55 C59 1.260 . S
O56 Zn40 1.969 . S
O56 C59 1.258 . S
O57 Zn41 2.024 . S
O57 C44 1.058 . S
C58 O47 1.260 . S
C58 O48 1.258 . S
C59 O55 1.260 . S
C59 O56 1.258 . S
Zn60 O66 1.969 . S
Zn60 O67 1.965 . S
Zn60 O71 2.024 . S
Zn60 O76 1.969 . S
Zn61 O68 1.969 . S
Zn61 O74 1.969 . S
Zn61 O75 1.965 . S
Zn61 O77 2.024 . S
C62 O63 1.229 . S
C62 O71 1.058 . S
O63 C62 1.229 . S
C64 O65 1.229 . S
C64 O77 1.058 . S
O65 C64 1.229 . S
O66 Zn60 1.969 . S
O66 C69 1.267 . S
O67 Zn60 1.965 . S
O67 C78 1.260 . S
O68 Zn61 1.969 . S
O68 C78 1.258 . S
C69 O66 1.267 . S
C69 O70 1.228 . S
O70 C69 1.228 . S
O71 Zn60 2.024 . S
O71 C62 1.058 . S
C72 O73 1.228 . S
C72 O74 1.267 . S
O73 C72 1.228 . S
O74 Zn61 1.969 . S
O74 C72 1.267 . S
O75 Zn61 1.965 . S
O75 C79 1.260 . S
O76 Zn60 1.969 . S
O76 C79 1.258 . S
O77 Zn61 2.024 . S
O77 C64 1.058 . S
C78 O67 1.260 . S
C78 O68 1.258 . S
C79 O75 1.260 . S
C79 O76 1.258 . S
Zn80 O86 1.969 . S
Zn80 O87 1.965 . S
Zn80 O91 2.024 . S
Zn80 O96 1.969 . S
Zn81 O88 1.969 . S
Zn81 O94 1.969 . S
Zn81 O95 1.965 . S
Zn81 O97 2.024 . S
C82 O83 1.229 . S
C82 O91 1.058 . S
O83 C82 1.229 . S
C84 O85 1.229 . S
C84 O97 1.058 . S
O85 C84 1.229 . S
O86 Zn80 1.969 . S
O86 C89 1.267 . S
O87 Zn80 1.965 . S
O87 C98 1.260 . S
O88 Zn81 1.969 . S
O88 C98 1.258 . S
C89 O86 1.267 . S
C89 O90 1.228 . S
O90 C89 1.228 . S
O91 Zn80 2.024 . S
O91 C82 1.058 . S
C92 O93 1.228 . S
C92 O94 1.267 . S
O93 C92 1.228 . S
O94 Zn81 1.969 . S
O94 C92 1.267 . S
O95 Zn81 1.965 . S
O95 C99 1.260 . S
O96 Zn80 1.969 . S
O96 C99 1.258 . S
O97 Zn81 2.024 . S
O97 C84 1.058 . S
C98 O87 1.260 . S
C98 O88 1.258 . S
C99 O95 1.260 . S
C99 O96 1.258 . S
Zn100 O106 1.969 . S
Zn100 O107 1.965 . S
Zn100 O111 2.024 . S
Zn100 O116 1.969 . S
Zn101 O108 1.969 . S
Zn101 O114 1.969 . S
Zn101 O115 1.965 . S
Zn101 O117 2.024 . S
C102 O103 1.229 . S
C102 O111 1.058 . S
O103 C102 1.229 . S
C104 O105 1.229 . S
C104 O117 1.058 . S
O105 C104 1.229 . S
O106 Zn100 1.969 . S
O106 C109 1.267 . S
O107 Zn100 1.965 . S
O107 C118 1.260 . S
O108 Zn101 1.969 . S
O108 C118 1.258 . S
C109 O106 1.267 . S
C109 O110 1.228 . S
O110 C109 1.228 . S
O111 Zn100 2.024 . S
O111 C102 1.058 . S
C112 O113 1.228 . S
C112 O114 1.267 . S
O113 C112 1.228 . S
O114 Zn101 1.969 . S
O114 C112 1.267 . S
O115 Zn101 1.965 . S
O115 C119 1.260 . S
O116 Zn100 1.969 . S
O116 C119 1.258 . S
O117 Zn101 2.024 . S
O117 C104 1.058 . S
C118 O107 1.260 . S
C118 O108 1.258 . S
C119 O115 1.260 . S
C119 O116 1.258 . S
Zn120 O126 1.969 . S
Zn120 O127 1.965 . S
Zn120 O131 2.024 . S
Zn120 O136 1.969 . S
Zn121 O128 1.969 . S
Zn121 O134 1.969 . S
Zn121 O135 1.965 . S
Zn121 O137 2.024 . S
C122 O123 1.229 . S
C122 O131 1.058 . S
O123 C122 1.229 . S
C124 O125 1.229 . S
C124 O137 1.058 . S
O125 C124 1.229 . S
O126 Zn120 1.969 . S
O126 C129 1.267 . S
O127 Zn120 1.965 . S
O127 C138 1.260 . S
O128 Zn121 1.969 . S
O128 C138 1.258 . S
C129 O126 1.267 . S
C129 O130 1.228 . S
O130 C129 1.228 . S
O131 Zn120 2.024 . S
O131 C122 1.058 . S
C132 O133 1.228 . S
C132 O134 1.267 . S
O133 C132 1.228 . S
O134 Zn121 1.969 . S
O134 C132 1.267 . S
O135 Zn121 1.965 . S
O135 C139 1.260 . S
O136 Zn120 1.969 . S
O136 C139 1.258 . S
O137 Zn121 2.024 . S
O137 C124 1.058 . S
C138 O127 1.260 . S
C138 O128 1.258 . S
C139 O135 1.260 . S
C139 O136 1.258 . S
Zn140 O146 1.969 . S
Zn140 O147 1.965 . S
Zn140 O151 2.024 . S
Zn140 O156 1.969 . S
Zn141 O148 1.969 . S
Zn141 O154 1.969 . S
Zn141 O155 1.965 . S
Zn141 O157 2.024 . S
C142 O143 1.229 . S
C142 O151 1.058 . S
O143 C142 1.229 . S
C144 O145 1.229 . S
C144 O157 1.058 . S
O145 C144 1.229 . S
O146 Zn140 1.969 . S
O146 C149 1.267 . S
O147 Zn140 1.965 . S
O147 C158 1.260 . S
O148 Zn141 1.969 . S
O148 C158 1.258 . S
C149 O146 1.267 . S
C149 O150 1.228 . S
O150 C149 1.228 . S
O151 Zn140 2.024 . S
O151 C142 1.058 . S
C152 O153 1.228 . S
C152 O154 1.267 . S
O153 C152 1.228 . S
O154 Zn141 1.969 . S
O154 C152 1.267 . S
O155 Zn141 1.965 . S
O155 C159 1.260 . S
O156 Zn140 1.969 . S
O156 C159 1.258 . S
O157 Zn141 2.024 . S
O157 C144 1.058 . S
C158 O147 1.260 . S
C158 O148 1.258 . S
C159 O155 1.260 . S
C159 O156 1.258 . S
Zn160 O166 1.969 . S
Zn160 O167 1.965 . S
Zn160 O171 2.024 . S
Zn160 O176 1.969 . S
Zn161 O168 1.969 . S
Zn161 O174 1.969 . S
Zn161 O175 1.965 . S
Zn161 O177 2.024 . S
C162 O163 1.229 . S
C162 O171 1.058 . S
O163 C162 1.229 . S
C164 O165 1.229 . S
C164 O177 1.058 . S
O165 C164 1.229 . S
O166 Zn160 1.969 . S
O166 C169 1.267 . S
O167 Zn160 1.965 . S
O167 C178 1.260 . S
O168 Zn161 1.969 . S
O168 C178 1.258 . S
C169 O166 1.267 . S
C169 O170 1.228 . S
O170 C169 1.228 . S
O171 Zn160 2.024 . S
O171 C162 1.058 . S
C172 O173 1.228 . S
C172 O174 1.267 . S
O173 C172 1.228 . S
O174 Zn161 1.969 . S
O174 C172 1.267 . S
O175 Zn161 1.965 . S
O175 C179 1.260 . S
O176 Zn160 1.969 . S
O176 C179 1.258 . S
O177 Zn161 2.024 . S
O177 C164 1.058 . S
C178 O167 1.260 . S
C178 O168 1.258 . S
C179 O175 1.260 . S
C179 O176 1.258 . S
Zn180 O186 1.969 . S
Zn180 O187 1.965 . S
Zn180 O191 2.024 . S
Zn180 O196 1.969 . S
Zn181 O188 1.969 . S
Zn181 O194 1.969 . S
Zn181 O195 1.965 . S
Zn181 O197 2.024 . S
C182 O183 1.229 . S
C182 O191 1.058 . S
O183 C182 1.229 . S
C184 O185 1.229 . S
C184 O197 1.058 . S
O185 C184 1.229 . S
O186 Zn180 1.969 . S
O186 C189 1.267 . S
O187 Zn180 1.965 . S
O187 C198 1.260 . S
O188 Zn181 1.969 . S
O188 C198 1.258 . S
C189 O186 1.267 . S
C189 O190 1.228 . S
O190 C189 1.228 . S
O191 Zn180 2.024 . S
O191 C182 1.058 . S
C192 O193 1.228 . S
C192 O194 1.267 . S
O193 C192 1.228 . S
O194 Zn181 1.969 . S
O194 C192 1.267 . S
O195 Zn181 1.965 . S
O195 C199 1.260 . S
O196 Zn180 1.969 . S
O196 C199 1.258 . S
O197 Zn181 2.024 . S
O197 C184 1.058 . S
C198 O187 1.260 . S
C198 O188 1.258 . S
C199 O195 1.260 . S
C199 O196 1.258 . S
Zn200 O206 1.969 . S
Zn200 O207 1.965 . S
Zn200 O211 2.024 . S
Zn200 O216 1.969 . S
Zn201 O208 1.969 . S
Zn201 O214 1.969 . S
Zn201 O215 1.965 . S
Zn201 O217 2.024 . S
C202 O203 1.229 . S
C202 O211 1.058 . S
O203 C202 1.229 . S
C204 O205 1.229 . S
C204 O217 1.058 . S
O205 C204 1.229 . S
O206 Zn200 1.969 . S
O206 C209 1.267 . S
O207 Zn200 1.965 . S
O207 C218 1.260 . S
O208 Zn201 1.969 . S
O208 C218 1.258 . S
C209 O206 1.267 . S
C209 O210 1.228 . S
O210 C209 1.228 . S
O211 Zn200 2.024 . S
O211 C202 1.058 . S
C212 O213 1.228 . S
C212 O214 1.267 . S
O213 C212 1.228 . S
O214 Zn201 1.969 . S
O214 C212 1.267 . S
O215 Zn201 1.965 . S
O215 C219 1.260 . S
O216 Zn200 1.969 . S
O216 C219 1.258 . S
O217 Zn201 2.024 . S
O217 C204 1.058 . S
C218 O207 1.260 . S
C218 O208 1.258 . S
C219 O215 1.260 . S
C219 O216 1.258 . S
Zn220 O226 1.969 . S
Zn220 O227 1.965 . S
Zn220 O231 2.024 . S
Zn220 O236 1.969 . S
Zn221 O228 1.969 . S
Zn221 O234 1.969 . S
Zn221 O235 1.965 . S
Zn221 O237 2.024 . S
C222 O223 1.229 . S
C222 O231 1.058 . S
O223 C222 1.229 . S
C224 O225 1.229 . S
C224 O237 1.058 . S
O225 C224 1.229 . S
O226 Zn220 1.969 . S
O226 C229 1.267 . S
O227 Zn220 1.965 . S
O227 C238 1.260 . S
O228 Zn221 1.969 . S
O228 C238 1.258 . S
C229 O226 1.267 . S
C229 O230 1.228 . S
O230 C229 1.228 . S
O231 Zn220 2.024 . S
O231 C222 1.058 . S
C232 O233 1.228 . S
C232 O234 1.267 . S
O233 C232 1.228 . S
O234 Zn221 1.969 . S
O234 C232 1.267 . S
O235 Zn221 1.965 . S
O235 C239 1.260 . S
O236 Zn220 1.969 . S
O236 C239 1.258 . S
O237 Zn221 2.024 . S
O237 C224 1.058 . S
C238 O227 1.260 . S
C238 O228 1.258 . S
C239 O235 1.260 . S
C239 O236 1.258 . S
H240 C248 0.950 . S
H241 C253 0.950 . S
H242 C250 0.950 . S
H243 C252 0.950 . S
H244 C254 0.950 . S
H245 C256 0.950 . S
H246 C258 0.950 . S
H247 C259 0.950 . S
C248 H240 0.950 . S
C248 C249 1.386 . S
C248 C250 1.391 1_565 S
C249 C248 1.386 . S
C249 C253 1.393 . S
C250 H242 0.950 . S
C250 C248 1.391 1_545 S
C250 C251 1.400 . S
C251 C250 1.400 . S
C251 C252 1.398 . S
C251 C257 1.491 . S
C252 H243 0.950 . S
C252 C251 1.398 . S
C252 C253 1.391 1_545 S
C253 H241 0.950 . S
C253 C249 1.393 . S
C253 C252 1.391 1_565 S
C254 H244 0.950 . S
C254 C255 1.386 . S
C254 C256 1.391 . S
C255 C254 1.386 . S
C255 C259 1.393 . S
C256 H245 0.950 . S
C256 C254 1.391 . S
C256 C257 1.400 . S
C257 C251 1.491 . S
C257 C256 1.400 . S
C257 C258 1.398 . S
C258 H246 0.950 . S
C258 C257 1.398 . S
C258 C259 1.391 . S
C259 H247 0.950 . S
C259 C255 1.393 . S
C259 C258 1.391 . S
H260 C268 0.950 . S
H261 C273 0.950 . S
H262 C270 0.950 . S
H263 C272 0.950 . S
H264 C274 0.950 . S
H265 C276 0.950 . S
H266 C278 0.950 . S
H267 C279 0.950 . S
C268 H260 0.950 . S
C268 C269 1.386 . S
C268 C270 1.391 . S
C269 C268 1.386 . S
C269 C273 1.393 . S
C270 H262 0.950 . S
C270 C268 1.391 . S
C270 C271 1.400 . S
C271 C270 1.400 . S
C271 C272 1.398 . S
C271 C277 1.491 . S
C272 H263 0.950 . S
C272 C271 1.398 . S
C272 C273 1.391 . S
C273 H261 0.950 . S
C273 C269 1.393 . S
C273 C272 1.391 . S
C274 H264 0.950 . S
C274 C275 1.386 . S
C274 C276 1.391 . S
C275 C274 1.386 . S
C275 C279 1.393 . S
C276 H265 0.950 . S
C276 C274 1.391 . S
C276 C277 1.400 . S
C277 C271 1.491 . S
C277 C276 1.400 . S
C277 C278 1.398 . S
C278 H266 0.950 . S
C278 C277 1.398 . S
C278 C279 1.391 . S
C279 H267 0.950 . S
C279 C275 1.393 . S
C279 C278 1.391 . S
H280 C288 0.950 1_565 S
H281 C293 0.950 . S
H282 C290 0.950 . S
H283 C292 0.950 . S
H284 C294 0.950 . S
H285 C296 0.950 . S
H286 C298 0.950 . S
H287 C299 0.950 . S
C288 H280 0.950 1_545 S
C288 C289 1.386 . S
C288 C290 1.391 . S
C289 C288 1.386 . S
C289 C293 1.393 . S
C290 H282 0.950 . S
C290 C288 1.391 . S
C290 C291 1.400 . S
C291 C290 1.400 . S
C291 C292 1.398 . S
C291 C297 1.491 . S
C292 H283 0.950 . S
C292 C291 1.398 . S
C292 C293 1.391 . S
C293 H281 0.950 . S
C293 C289 1.393 . S
C293 C292 1.391 . S
C294 H284 0.950 . S
C294 C295 1.386 . S
C294 C296 1.391 1_455 S
C295 C294 1.386 . S
C295 C299 1.393 . S
C296 H285 0.950 . S
C296 C294 1.391 1_655 S
C296 C297 1.400 . S
C297 C291 1.491 . S
C297 C296 1.400 . S
C297 C298 1.398 . S
C298 H286 0.950 . S
C298 C297 1.398 . S
C298 C299 1.391 1_655 S
C299 H287 0.950 . S
C299 C295 1.393 . S
C299 C298 1.391 1_455 S
H300 C308 0.950 . S
H301 C313 0.950 . S
H302 C310 0.950 . S
H303 C312 0.950 . S
H304 C314 0.950 . S
H305 C316 0.950 . S
H306 C318 0.950 . S
H307 C319 0.950 . S
C308 H300 0.950 . S
C308 C309 1.386 . S
C308 C310 1.391 . S
C309 C308 1.386 . S
C309 C313 1.393 . S
C310 H302 0.950 . S
C310 C308 1.391 . S
C310 C311 1.400 . S
C311 C310 1.400 . S
C311 C312 1.398 . S
C311 C317 1.491 . S
C312 H303 0.950 . S
C312 C311 1.398 . S
C312 C313 1.391 . S
C313 H301 0.950 . S
C313 C309 1.393 . S
C313 C312 1.391 . S
C314 H304 0.950 . S
C314 C315 1.386 . S
C314 C316 1.391 1_545 S
C315 C314 1.386 . S
C315 C319 1.393 . S
C316 H305 0.950 . S
C316 C314 1.391 1_565 S
C316 C317 1.400 . S
C317 C311 1.491 . S
C317 C316 1.400 . S
C317 C318 1.398 . S
C318 H306 0.950 . S
C318 C317 1.398 . S
C318 C319 1.391 1_565 S
C319 H307 0.950 . S
C319 C315 1.393 . S
C319 C318 1.391 1_545 S
H320 C328 0.950 1_455 S
H321 C333 0.950 . S
H322 C330 0.950 . S
H323 C332 0.950 . S
H324 C334 0.950 . S
H325 C336 0.950 . S
H326 C338 0.950 . S
H327 C339 0.950 . S
C328 H320 0.950 1_655 S
C328 C329 1.386 . S
C328 C330 1.391 . S
C329 C328 1.386 . S
C329 C333 1.393 . S
C330 H322 0.950 . S
C330 C328 1.391 . S
C330 C331 1.400 . S
C331 C330 1.400 . S
C331 C332 1.398 . S
C331 C337 1.491 . S
C332 H323 0.950 . S
C332 C331 1.398 . S
C332 C333 1.391 . S
C333 H321 0.950 . S
C333 C329 1.393 . S
C333 C332 1.391 . S
C334 H324 0.950 . S
C334 C335 1.386 . S
C334 C336 1.391 . S
C335 C334 1.386 . S
C335 C339 1.393 . S
C336 H325 0.950 . S
C336 C334 1.391 . S
C336 C337 1.400 . S
C337 C331 1.491 . S
C337 C336 1.400 . S
C337 C338 1.398 . S
C338 H326 0.950 . S
C338 C337 1.398 . S
C338 C339 1.391 . S
C339 H327 0.950 . S
C339 C335 1.393 . S
C339 C338 1.391 . S
H340 C348 0.950 . S
H341 C353 0.950 . S
H342 C350 0.950 . S
H343 C352 0.950 . S
H344 C354 0.950 . S
H345 C356 0.950 . S
H346 C358 0.950 . S
H347 C359 0.950 1_545 S
C348 H340 0.950 . S
C348 C349 1.386 . S
C348 C350 1.391 1_655 S
C349 C348 1.386 . S
C349 C353 1.393 . S
C350 H342 0.950 . S
C350 C348 1.391 1_455 S
C350 C351 1.400 . S
C351 C350 1.400 . S
C351 C352 1.398 . S
C351 C357 1.491 . S
C352 H343 0.950 . S
C352 C351 1.398 . S
C352 C353 1.391 1_455 S
C353 H341 0.950 . S
C353 C349 1.393 . S
C353 C352 1.391 1_655 S
C354 H344 0.950 . S
C354 C355 1.386 . S
C354 C356 1.391 . S
C355 C354 1.386 . S
C355 C359 1.393 . S
C356 H345 0.950 . S
C356 C354 1.391 . S
C356 C357 1.400 . S
C357 C351 1.491 . S
C357 C356 1.400 . S
C357 C358 1.398 . S
C358 H346 0.950 . S
C358 C357 1.398 . S
C358 C359 1.391 . S
C359 H347 0.950 1_565 S
C359 C355 1.393 . S
C359 C358 1.391 . S
H360 C368 0.950 . S
H361 C373 0.950 . S
H362 C370 0.950 . S
H363 C372 0.950 . S
H364 C374 0.950 . S
H365 C376 0.950 . S
H366 C378 0.950 . S
H367 C379 0.950 . S
C368 H360 0.950 . S
C368 C369 1.386 . S
C368 C370 1.391 1_455 S
C369 C368 1.386 . S
C369 C373 1.393 . S
C370 H362 0.950 . S
C370 C368 1.391 1_655 S
C370 C371 1.400 . S
C371 C370 1.400 . S
C371 C372 1.398 . S
C371 C377 1.491 . S
C372 H363 0.950 . S
C372 C371 1.398 . S
C372 C373 1.391 1_655 S
C373 H361 0.950 . S
C373 C369 1.393 . S
C373 C372 1.391 1_455 S
C374 H364 0.950 . S
C374 C375 1.386 . S
C374 C376 1.391 . S
C375 C374 1.386 . S
C375 C379 1.393 . S
C376 H365 0.950 . S
C376 C374 1.391 . S
C376 C377 1.400 . S
C377 C371 1.491 . S
C377 C376 1.400 . S
C377 C378 1.398 . S
C378 H366 0.950 . S
C378 C377 1.398 . S
C378 C379 1.391 . S
C379 H367 0.950 . S
C379 C375 1.393 . S
C379 C378 1.391 . S
H380 C388 0.950 . S
H381 C393 0.950 1_655 S
H382 C390 0.950 . S
H383 C392 0.950 . S
H384 C394 0.950 . S
H385 C396 0.950 . S
H386 C398 0.950 . S
H387 C399 0.950 . S
C388 H380 0.950 . S
C388 C389 1.386 . S
C388 C390 1.391 . S
C389 C388 1.386 . S
C389 C393 1.393 . S
C390 H382 0.950 . S
C390 C388 1.391 . S
C390 C391 1.400 . S
C391 C390 1.400 . S
C391 C392 1.398 . S
C391 C397 1.491 . S
C392 H383 0.950 . S
C392 C391 1.398 . S
C392 C393 1.391 . S
C393 H381 0.950 1_455 S
C393 C389 1.393 . S
C393 C392 1.391 . S
C394 H384 0.950 . S
C394 C395 1.386 . S
C394 C396 1.391 1_545 S
C395 C394 1.386 . S
C395 C399 1.393 . S
C396 H385 0.950 . S
C396 C394 1.391 1_565 S
C396 C397 1.400 . S
C397 C391 1.491 . S
C397 C396 1.400 . S
C397 C398 1.398 . S
C398 H386 0.950 . S
C398 C397 1.398 . S
C398 C399 1.391 1_565 S
C399 H387 0.950 . S
C399 C395 1.393 . S
C399 C398 1.391 1_545 S
H400 C408 0.950 . S
H401 C413 0.950 . S
H402 C410 0.950 . S
H403 C412 0.950 . S
H404 C414 0.950 . S
H405 C416 0.950 . S
H406 C418 0.950 . S
H407 C419 0.950 1_565 S
C408 H400 0.950 . S
C408 C409 1.386 . S
C408 C410 1.391 . S
C409 C408 1.386 . S
C409 C413 1.393 . S
C410 H402 0.950 . S
C410 C408 1.391 . S
C410 C411 1.400 . S
C411 C410 1.400 . S
C411 C412 1.398 . S
C411 C417 1.491 . S
C412 H403 0.950 . S
C412 C411 1.398 . S
C412 C413 1.391 . S
C413 H401 0.950 . S
C413 C409 1.393 . S
C413 C412 1.391 . S
C414 H404 0.950 . S
C414 C415 1.386 . S
C414 C416 1.391 . S
C415 C414 1.386 . S
C415 C419 1.393 . S
C416 H405 0.950 . S
C416 C414 1.391 . S
C416 C417 1.400 . S
C417 C411 1.491 . S
C417 C416 1.400 . S
C417 C418 1.398 . S
C418 H406 0.950 . S
C418 C417 1.398 . S
C418 C419 1.391 . S
C419 H407 0.950 1_545 S
C419 C415 1.393 . S
C419 C418 1.391 . S
H420 C428 0.950 . S
H421 C433 0.950 . S
H422 C430 0.950 . S
H423 C432 0.950 . S
H424 C434 0.950 . S
H425 C436 0.950 . S
H426 C438 0.950 . S
H427 C439 0.950 . S
C428 H420 0.950 . S
C428 C429 1.386 . S
C428 C430 1.391 . S
C429 C428 1.386 . S
C429 C433 1.393 . S
C430 H422 0.950 . S
C430 C428 1.391 . S
C430 C431 1.400 . S
C431 C430 1.400 . S
C431 C432 1.398 . S
C431 C437 1.491 . S
C432 H423 0.950 . S
C432 C431 1.398 . S
C432 C433 1.391 . S
C433 H421 0.950 . S
C433 C429 1.393 . S
C433 C432 1.391 . S
C434 H424 0.950 . S
C434 C435 1.386 . S
C434 C436 1.391 1_655 S
C435 C434 1.386 . S
C435 C439 1.393 . S
C436 H425 0.950 . S
C436 C434 1.391 1_455 S
C436 C437 1.400 . S
C437 C431 1.491 . S
C437 C436 1.400 . S
C437 C438 1.398 . S
C438 H426 0.950 . S
C438 C437 1.398 . S
C438 C439 1.391 1_455 S
C439 H427 0.950 . S
C439 C435 1.393 . S
C439 C438 1.391 1_655 S
H440 C448 0.950 . S
H441 C453 0.950 . S
H442 C450 0.950 . S
H443 C452 0.950 . S
H444 C454 0.950 . S
H445 C456 0.950 . S
H446 C458 0.950 . S
H447 C459 0.950 . S
C448 H440 0.950 . S
C448 C449 1.386 . S
C448 C450 1.391 . S
C449 C448 1.386 . S
C449 C453 1.393 . S
C450 H442 0.950 . S
C450 C448 1.391 . S
C450 C451 1.400 . S
C451 C450 1.400 . S
C451 C452 1.398 . S
C451 C457 1.491 . S
C452 H443 0.950 . S
C452 C451 1.398 . S
C452 C453 1.391 . S
C453 H441 0.950 . S
C453 C449 1.393 . S
C453 C452 1.391 . S
C454 H444 0.950 . S
C454 C455 1.386 . S
C454 C456 1.391 1_565 S
C455 C454 1.386 . S
C455 C459 1.393 . S
C456 H445 0.950 . S
C456 C454 1.391 1_545 S
C456 C457 1.400 . S
C457 C451 1.491 . S
C457 C456 1.400 . S
C457 C458 1.398 . S
C458 H446 0.950 . S
C458 C457 1.398 . S
C458 C459 1.391 1_545 S
C459 H447 0.950 . S
C459 C455 1.393 . S
C459 C458 1.391 1_565 S
H460 C468 0.950 . S
H461 C473 0.950 . S
H462 C470 0.950 . S
H463 C472 0.950 . S
H464 C474 0.950 1_545 S
H465 C476 0.950 . S
H466 C478 0.950 . S
H467 C479 0.950 . S
C468 H460 0.950 . S
C468 C469 1.386 . S
C468 C470 1.391 . S
C469 C468 1.386 . S
C469 C473 1.393 . S
C470 H462 0.950 . S
C470 C468 1.391 . S
C470 C471 1.400 . S
C471 C470 1.400 . S
C471 C472 1.398 . S
C471 C477 1.491 . S
C472 H463 0.950 . S
C472 C471 1.398 . S
C472 C473 1.391 . S
C473 H461 0.950 . S
C473 C469 1.393 . S
C473 C472 1.391 . S
C474 H464 0.950 1_565 S
C474 C475 1.386 . S
C474 C476 1.391 . S
C475 C474 1.386 . S
C475 C479 1.393 . S
C476 H465 0.950 . S
C476 C474 1.391 . S
C476 C477 1.400 . S
C477 C471 1.491 . S
C477 C476 1.400 . S
C477 C478 1.398 . S
C478 H466 0.950 . S
C478 C477 1.398 . S
C478 C479 1.391 . S
C479 H467 0.950 . S
C479 C475 1.393 . S
C479 C478 1.391 . S
H480 C488 0.950 . S
H481 C493 0.950 . S
H482 C490 0.950 . S
H483 C492 0.950 . S
H484 C494 0.950 . S
H485 C496 0.950 . S
H486 C498 0.950 . S
H487 C499 0.950 . S
C488 H480 0.950 . S
C488 C489 1.386 . S
C488 C490 1.391 . S
C489 C488 1.386 . S
C489 C493 1.393 . S
C490 H482 0.950 . S
C490 C488 1.391 . S
C490 C491 1.400 . S
C491 C490 1.400 . S
C491 C492 1.398 . S
C491 C497 1.491 . S
C492 H483 0.950 . S
C492 C491 1.398 . S
C492 C493 1.391 . S
C493 H481 0.950 . S
C493 C489 1.393 . S
C493 C492 1.391 . S
C494 H484 0.950 . S
C494 C495 1.386 . S
C494 C496 1.391 . S
C495 C494 1.386 . S
C495 C499 1.393 . S
C496 H485 0.950 . S
C496 C494 1.391 . S
C496 C497 1.400 . S
C497 C491 1.491 . S
C497 C496 1.400 . S
C497 C498 1.398 . S
C498 H486 0.950 . S
C498 C497 1.398 . S
C498 C499 1.391 . S
C499 H487 0.950 . S
C499 C495 1.393 . S
C499 C498 1.391 . S
H500 C508 0.950 . S
H501 C513 0.950 . S
H502 C510 0.950 . S
H503 C512 0.950 . S
H504 C514 0.950 . S
H505 C516 0.950 . S
H506 C518 0.950 . S
H507 C519 0.950 . S
C508 H500 0.950 . S
C508 C509 1.386 . S
C508 C510 1.391 . S
C509 C508 1.386 . S
C509 C513 1.393 . S
C510 H502 0.950 . S
C510 C508 1.391 . S
C510 C511 1.400 . S
C511 C510 1.400 . S
C511 C512 1.398 . S
C511 C517 1.491 . S
C512 H503 0.950 . S
C512 C511 1.398 . S
C512 C513 1.391 . S
C513 H501 0.950 . S
C513 C509 1.393 . S
C513 C512 1.391 . S
C514 H504 0.950 . S
C514 C515 1.386 . S
C514 C516 1.391 . S
C515 C514 1.386 . S
C515 C519 1.393 . S
C516 H505 0.950 . S
C516 C514 1.391 . S
C516 C517 1.400 . S
C517 C511 1.491 . S
C517 C516 1.400 . S
C517 C518 1.398 . S
C518 H506 0.950 . S
C518 C517 1.398 . S
C518 C519 1.391 . S
C519 H507 0.950 . S
C519 C515 1.393 . S
C519 C518 1.391 . S
H520 C528 0.950 . S
H521 C533 0.950 . S
H522 C530 0.950 . S
H523 C532 0.950 . S
H524 C534 0.950 . S
H525 C536 0.950 . S
H526 C538 0.950 . S
H527 C539 0.950 . S
C528 H520 0.950 . S
C528 C529 1.386 . S
C528 C530 1.391 . S
C529 C528 1.386 . S
C529 C533 1.393 . S
C530 H522 0.950 . S
C530 C528 1.391 . S
C530 C531 1.400 . S
C531 C530 1.400 . S
C531 C532 1.398 . S
C531 C537 1.491 . S
C532 H523 0.950 . S
C532 C531 1.398 . S
C532 C533 1.391 . S
C533 H521 0.950 . S
C533 C529 1.393 . S
C533 C532 1.391 . S
C534 H524 0.950 . S
C534 C535 1.386 . S
C534 C536 1.391 . S
C535 C534 1.386 . S
C535 C539 1.393 . S
C536 H525 0.950 . S
C536 C534 1.391 . S
C536 C537 1.400 . S
C537 C531 1.491 . S
C537 C536 1.400 . S
C537 C538 1.398 . S
C538 H526 0.950 . S
C538 C537 1.398 . S
C538 C539 1.391 . S
C539 H527 0.950 . S
C539 C535 1.393 . S
C539 C538 1.391 . S
H540 C548 0.950 . S
H541 C553 0.950 . S
H542 C550 0.950 . S
H543 C552 0.950 . S
H544 C554 0.950 . S
H545 C556 0.950 . S
H546 C558 0.950 . S
H547 C559 0.950 . S
C548 H540 0.950 . S
C548 C549 1.386 . S
C548 C550 1.391 . S
C549 C548 1.386 . S
C549 C553 1.393 . S
C550 H542 0.950 . S
C550 C548 1.391 . S
C550 C551 1.400 . S
C551 C550 1.400 . S
C551 C552 1.398 . S
C551 C557 1.491 . S
C552 H543 0.950 . S
C552 C551 1.398 . S
C552 C553 1.391 . S
C553 H541 0.950 . S
C553 C549 1.393 . S
C553 C552 1.391 . S
C554 H544 0.950 . S
C554 C555 1.386 . S
C554 C556 1.391 . S
C555 C554 1.386 . S
C555 C559 1.393 . S
C556 H545 0.950 . S
C556 C554 1.391 . S
C556 C557 1.400 . S
C557 C551 1.491 . S
C557 C556 1.400 . S
C557 C558 1.398 . S
C558 H546 0.950 . S
C558 C557 1.398 . S
C558 C559 1.391 . S
C559 H547 0.950 . S
C559 C555 1.393 . S
C559 C558 1.391 . S
H560 C568 0.950 . S
H561 C573 0.950 . S
H562 C570 0.950 . S
H563 C572 0.950 . S
H564 C574 0.950 . S
H565 C576 0.950 . S
H566 C578 0.950 . S
H567 C579 0.950 . S
C568 H560 0.950 . S
C568 C569 1.386 . S
C568 C570 1.391 . S
C569 C568 1.386 . S
C569 C573 1.393 . S
C570 H562 0.950 . S
C570 C568 1.391 . S
C570 C571 1.400 . S
C571 C570 1.400 . S
C571 C572 1.398 . S
C571 C577 1.491 . S
C572 H563 0.950 . S
C572 C571 1.398 . S
C572 C573 1.391 . S
C573 H561 0.950 . S
C573 C569 1.393 . S
C573 C572 1.391 . S
C574 H564 0.950 . S
C574 C575 1.386 . S
C574 C576 1.391 . S
C575 C574 1.386 . S
C575 C579 1.393 . S
C576 H565 0.950 . S
C576 C574 1.391 . S
C576 C577 1.400 . S
C577 C571 1.491 . S
C577 C576 1.400 . S
C577 C578 1.398 . S
C578 H566 0.950 . S
C578 C577 1.398 . S
C578 C579 1.391 . S
C579 H567 0.950 . S
C579 C575 1.393 . S
C579 C578 1.391 . S
H580 C588 0.950 . S
H581 C593 0.950 . S
H582 C590 0.950 . S
H583 C592 0.950 . S
H584 C594 0.950 . S
H585 C596 0.950 . S
H586 C598 0.950 . S
H587 C599 0.950 . S
C588 H580 0.950 . S
C588 C589 1.386 . S
C588 C590 1.391 . S
C589 C588 1.386 . S
C589 C593 1.393 . S
C590 H582 0.950 . S
C590 C588 1.391 . S
C590 C591 1.400 . S
C591 C590 1.400 . S
C591 C592 1.398 . S
C591 C597 1.491 . S
C592 H583 0.950 . S
C592 C591 1.398 . S
C592 C593 1.391 . S
C593 H581 0.950 . S
C593 C589 1.393 . S
C593 C592 1.391 . S
C594 H584 0.950 . S
C594 C595 1.386 . S
C594 C596 1.391 . S
C595 C594 1.386 . S
C595 C599 1.393 . S
C596 H585 0.950 . S
C596 C594 1.391 . S
C596 C597 1.400 . S
C597 C591 1.491 . S
C597 C596 1.400 . S
C597 C598 1.398 . S
C598 H586 0.950 . S
C598 C597 1.398 . S
C598 C599 1.391 . S
C599 H587 0.950 . S
C599 C595 1.393 . S
C599 C598 1.391 . S
H600 C608 0.950 . S
H601 C613 0.950 . S
H602 C610 0.950 . S
H603 C612 0.950 . S
H604 C614 0.950 . S
H605 C616 0.950 . S
H606 C618 0.950 . S
H607 C619 0.950 . S
C608 H600 0.950 . S
C608 C609 1.386 . S
C608 C610 1.391 . S
C609 C608 1.386 . S
C609 C613 1.393 . S
C610 H602 0.950 . S
C610 C608 1.391 . S
C610 C611 1.400 . S
C611 C610 1.400 . S
C611 C612 1.398 . S
C611 C617 1.491 . S
C612 H603 0.950 . S
C612 C611 1.398 . S
C612 C613 1.391 . S
C613 H601 0.950 . S
C613 C609 1.393 . S
C613 C612 1.391 . S
C614 H604 0.950 . S
C614 C615 1.386 . S
C614 C616 1.391 . S
C615 C614 1.386 . S
C615 C619 1.393 . S
C616 H605 0.950 . S
C616 C614 1.391 . S
C616 C617 1.400 . S
C617 C611 1.491 . S
C617 C616 1.400 . S
C617 C618 1.398 . S
C618 H606 0.950 . S
C618 C617 1.398 . S
C618 C619 1.391 . S
C619 H607 0.950 . S
C619 C615 1.393 . S
C619 C618 1.391 . S
H620 C628 0.950 . S
H621 C633 0.950 . S
H622 C630 0.950 . S
H623 C632 0.950 . S
H624 C634 0.950 . S
H625 C636 0.950 . S
H626 C638 0.950 . S
H627 C639 0.950 . S
C628 H620 0.950 . S
C628 C629 1.386 . S
C628 C630 1.391 . S
C629 C628 1.386 . S
C629 C633 1.393 . S
C630 H622 0.950 . S
C630 C628 1.391 . S
C630 C631 1.400 . S
C631 C630 1.400 . S
C631 C632 1.398 . S
C631 C637 1.491 . S
C632 H623 0.950 . S
C632 C631 1.398 . S
C632 C633 1.391 . S
C633 H621 0.950 . S
C633 C629 1.393 . S
C633 C632 1.391 . S
C634 H624 0.950 . S
C634 C635 1.386 . S
C634 C636 1.391 . S
C635 C634 1.386 . S
C635 C639 1.393 . S
C636 H625 0.950 . S
C636 C634 1.391 . S
C636 C637 1.400 . S
C637 C631 1.491 . S
C637 C636 1.400 . S
C637 C638 1.398 . S
C638 H626 0.950 . S
C638 C637 1.398 . S
C638 C639 1.391 . S
C639 H627 0.950 . S
C639 C635 1.393 . S
C639 C638 1.391 . S
H640 C648 0.950 . S
H641 C653 0.950 . S
H642 C650 0.950 . S
H643 C652 0.950 . S
H644 C654 0.950 . S
H645 C656 0.950 . S
H646 C658 0.950 . S
H647 C659 0.950 . S
C648 H640 0.950 . S
C648 C649 1.386 . S
C648 C650 1.391 . S
C649 C648 1.386 . S
C649 C653 1.393 . S
C650 H642 0.950 . S
C650 C648 1.391 . S
C650 C651 1.400 . S
C651 C650 1.400 . S
C651 C652 1.398 . S
C651 C657 1.491 . S
C652 H643 0.950 . S
C652 C651 1.398 . S
C652 C653 1.391 . S
C653 H641 0.950 . S
C653 C649 1.393 . S
C653 C652 1.391 . S
C654 H644 0.950 . S
C654 C655 1.386 . S
C654 C656 1.391 . S
C655 C654 1.386 . S
C655 C659 1.393 . S
C656 H645 0.950 . S
C656 C654 1.391 . S
C656 C657 1.400 . S
C657 C651 1.491 . S
C657 C656 1.400 . S
C657 C658 1.398 . S
C658 H646 0.950 . S
C658 C657 1.398 . S
C658 C659 1.391 . S
C659 H647 0.950 . S
C659 C655 1.393 . S
C659 C658 1.391 . S
H660 C668 0.950 . S
H661 C673 0.950 . S
H662 C670 0.950 . S
H663 C672 0.950 . S
H664 C674 0.950 . S
H665 C676 0.950 . S
H666 C678 0.950 . S
H667 C679 0.950 . S
C668 H660 0.950 . S
C668 C669 1.386 . S
C668 C670 1.391 . S
C669 C668 1.386 . S
C669 C673 1.393 . S
C670 H662 0.950 . S
C670 C668 1.391 . S
C670 C671 1.400 . S
C671 C670 1.400 . S
C671 C672 1.398 . S
C671 C677 1.491 . S
C672 H663 0.950 . S
C672 C671 1.398 . S
C672 C673 1.391 . S
C673 H661 0.950 . S
C673 C669 1.393 . S
C673 C672 1.391 . S
C674 H664 0.950 . S
C674 C675 1.386 . S
C674 C676 1.391 . S
C675 C674 1.386 . S
C675 C679 1.393 . S
C676 H665 0.950 . S
C676 C674 1.391 . S
C676 C677 1.400 . S
C677 C671 1.491 . S
C677 C676 1.400 . S
C677 C678 1.398 . S
C678 H666 0.950 . S
C678 C677 1.398 . S
C678 C679 1.391 . S
C679 H667 0.950 . S
C679 C675 1.393 . S
C679 C678 1.391 . S
H680 C688 0.950 . S
H681 C693 0.950 . S
H682 C690 0.950 . S
H683 C692 0.950 . S
H684 C694 0.950 . S
H685 C696 0.950 . S
H686 C698 0.950 . S
H687 C699 0.950 . S
C688 H680 0.950 . S
C688 C689 1.386 . S
C688 C690 1.391 . S
C689 C688 1.386 . S
C689 C693 1.393 . S
C690 H682 0.950 . S
C690 C688 1.391 . S
C690 C691 1.400 . S
C691 C690 1.400 . S
C691 C692 1.398 . S
C691 C697 1.491 . S
C692 H683 0.950 . S
C692 C691 1.398 . S
C692 C693 1.391 . S
C693 H681 0.950 . S
C693 C689 1.393 . S
C693 C692 1.391 . S
C694 H684 0.950 . S
C694 C695 1.386 . S
C694 C696 1.391 . S
C695 C694 1.386 . S
C695 C699 1.393 . S
C696 H685 0.950 . S
C696 C694 1.391 . S
C696 C697 1.400 . S
C697 C691 1.491 . S
C697 C696 1.400 . S
C697 C698 1.398 . S
C698 H686 0.950 . S
C698 C697 1.398 . S
C698 C699 1.391 . S
C699 H687 0.950 . S
C699 C695 1.393 . S
C699 C698 1.391 . S
H700 C708 0.950 . S
H701 C713 0.950 . S
H702 C710 0.950 . S
H703 C712 0.950 . S
H704 C714 0.950 . S
H705 C716 0.950 . S
H706 C718 0.950 . S
H707 C719 0.950 . S
C708 H700 0.950 . S
C708 C709 1.386 . S
C708 C710 1.391 . S
C709 C708 1.386 . S
C709 C713 1.393 . S
C710 H702 0.950 . S
C710 C708 1.391 . S
C710 C711 1.400 . S
C711 C710 1.400 . S
C711 C712 1.398 . S
C711 C717 1.491 . S
C712 H703 0.950 . S
C712 C711 1.398 . S
C712 C713 1.391 . S
C713 H701 0.950 . S
C713 C709 1.393 . S
C713 C712 1.391 . S
C714 H704 0.950 . S
C714 C715 1.386 . S
C714 C716 1.391 . S
C715 C714 1.386 . S
C715 C719 1.393 . S
C716 H705 0.950 . S
C716 C714 1.391 . S
C716 C717 1.400 . S
C717 C711 1.491 . S
C717 C716 1.400 . S
C717 C718 1.398 . S
C718 H706 0.950 . S
C718 C717 1.398 . S
C718 C719 1.391 . S
C719 H707 0.950 . S
C719 C715 1.393 . S
C719 C718 1.391 . S
H720 C728 0.950 . S
H721 C733 0.950 . S
H722 C730 0.950 . S
H723 C732 0.950 . S
H724 C734 0.950 . S
H725 C736 0.950 . S
H726 C738 0.950 . S
H727 C739 0.950 . S
C728 H720 0.950 . S
C728 C729 1.386 . S
C728 C730 1.391 . S
C729 C728 1.386 . S
C729 C733 1.393 . S
C730 H722 0.950 . S
C730 C728 1.391 . S
C730 C731 1.400 . S
C731 C730 1.400 . S
C731 C732 1.398 . S
C731 C737 1.491 . S
C732 H723 0.950 . S
C732 C731 1.398 . S
C732 C733 1.391 . S
C733 H721 0.950 . S
C733 C729 1.393 . S
C733 C732 1.391 . S
C734 H724 0.950 . S
C734 C735 1.386 . S
C734 C736 1.391 . S
C735 C734 1.386 . S
C735 C739 1.393 . S
C736 H725 0.950 . S
C736 C734 1.391 . S
C736 C737 1.400 . S
C737 C731 1.491 . S
C737 C736 1.400 . S
C737 C738 1.398 . S
C738 H726 0.950 . S
C738 C737 1.398 . S
C738 C739 1.391 . S
C739 H727 0.950 . S
C739 C735 1.393 . S
C739 C738 1.391 . S
H740 C748 0.950 . S
H741 C753 0.950 . S
H742 C750 0.950 . S
H743 C752 0.950 . S
H744 C754 0.950 . S
H745 C756 0.950 . S
H746 C758 0.950 . S
H747 C759 0.950 . S
C748 H740 0.950 . S
C748 C749 1.386 . S
C748 C750 1.391 . S
C749 C748 1.386 . S
C749 C753 1.393 . S
C750 H742 0.950 . S
C750 C748 1.391 . S
C750 C751 1.400 . S
C751 C750 1.400 . S
C751 C752 1.398 . S
C751 C757 1.491 . S
C752 H743 0.950 . S
C752 C751 1.398 . S
C752 C753 1.391 . S
C753 H741 0.950 . S
C753 C749 1.393 . S
C753 C752 1.391 . S
C754 H744 0.950 . S
C754 C755 1.386 . S
C754 C756 1.391 . S
C755 C754 1.386 . S
C755 C759 1.393 . S
C756 H745 0.950 . S
C756 C754 1.391 . S
C756 C757 1.400 . S
C757 C751 1.491 . S
C757 C756 1.400 . S
C757 C758 1.398 . S
C758 H746 0.950 . S
C758 C757 1.398 . S
C758 C759 1.391 . S
C759 H747 0.950 . S
C759 C755 1.393 . S
C759 C758 1.391 . S
H760 C768 0.950 . S
H761 C773 0.950 . S
H762 C770 0.950 . S
H763 C772 0.950 . S
H764 C774 0.950 . S
H765 C776 0.950 . S
H766 C778 0.950 . S
H767 C779 0.950 . S
C768 H760 0.950 . S
C768 C769 1.386 . S
C768 C770 1.391 . S
C769 C768 1.386 . S
C769 C773 1.393 . S
C770 H762 0.950 . S
C770 C768 1.391 . S
C770 C771 1.400 . S
C771 C770 1.400 . S
C771 C772 1.398 . S
C771 C777 1.491 . S
C772 H763 0.950 . S
C772 C771 1.398 . S
C772 C773 1.391 . S
C773 H761 0.950 . S
C773 C769 1.393 . S
C773 C772 1.391 . S
C774 H764 0.950 . S
C774 C775 1.386 . S
C774 C776 1.391 . S
C775 C774 1.386 . S
C775 C779 1.393 . S
C776 H765 0.950 . S
C776 C774 1.391 . S
C776 C777 1.400 . S
C777 C771 1.491 . S
C777 C776 1.400 . S
C777 C778 1.398 . S
C778 H766 0.950 . S
C778 C777 1.398 . S
C778 C779 1.391 . S
C779 H767 0.950 . S
C779 C775 1.393 . S
C779 C778 1.391 . S
H780 C788 0.950 . S
H781 C793 0.950 . S
H782 C790 0.950 . S
H783 C792 0.950 . S
H784 C794 0.950 . S
H785 C796 0.950 . S
H786 C798 0.950 . S
H787 C799 0.950 . S
C788 H780 0.950 . S
C788 C789 1.386 . S
C788 C790 1.391 . S
C789 C788 1.386 . S
C789 C793 1.393 . S
C790 H782 0.950 . S
C790 C788 1.391 . S
C790 C791 1.400 . S
C791 C790 1.400 . S
C791 C792 1.398 . S
C791 C797 1.491 . S
C792 H783 0.950 . S
C792 C791 1.398 . S
C792 C793 1.391 . S
C793 H781 0.950 . S
C793 C789 1.393 . S
C793 C792 1.391 . S
C794 H784 0.950 . S
C794 C795 1.386 . S
C794 C796 1.391 . S
C795 C794 1.386 . S
C795 C799 1.393 . S
C796 H785 0.950 . S
C796 C794 1.391 . S
C796 C797 1.400 . S
C797 C791 1.491 . S
C797 C796 1.400 . S
C797 C798 1.398 . S
C798 H786 0.950 . S
C798 C797 1.398 . S
C798 C799 1.391 . S
C799 H787 0.950 . S
C799 C795 1.393 . S
C799 C798 1.391 . S
H800 C808 0.950 . S
H801 C813 0.950 . S
H802 C810 0.950 . S
H803 C812 0.950 . S
H804 C814 0.950 . S
H805 C816 0.950 . S
H806 C818 0.950 . S
H807 C819 0.950 . S
C808 H800 0.950 . S
C808 C809 1.386 . S
C808 C810 1.391 . S
C809 C808 1.386 . S
C809 C813 1.393 . S
C810 H802 0.950 . S
C810 C808 1.391 . S
C810 C811 1.400 . S
C811 C810 1.400 . S
C811 C812 1.398 . S
C811 C817 1.491 . S
C812 H803 0.950 . S
C812 C811 1.398 . S
C812 C813 1.391 . S
C813 H801 0.950 . S
C813 C809 1.393 . S
C813 C812 1.391 . S
C814 H804 0.950 . S
C814 C815 1.386 . S
C814 C816 1.391 . S
C815 C814 1.386 . S
C815 C819 1.393 . S
C816 H805 0.950 . S
C816 C814 1.391 . S
C816 C817 1.400 . S
C817 C811 1.491 . S
C817 C816 1.400 . S
C817 C818 1.398 . S
C818 H806 0.950 . S
C818 C817 1.398 . S
C818 C819 1.391 . S
C819 H807 0.950 . S
C819 C815 1.393 . S
C819 C818 1.391 . S
H820 C828 0.950 . S
H821 C833 0.950 . S
H822 C830 0.950 . S
H823 C832 0.950 . S
H824 C834 0.950 . S
H825 C836 0.950 . S
H826 C838 0.950 . S
H827 C839 0.950 . S
C828 H820 0.950 . S
C828 C829 1.386 . S
C828 C830 1.391 . S
C829 C828 1.386 . S
C829 C833 1.393 . S
C830 H822 0.950 . S
C830 C828 1.391 . S
C830 C831 1.400 . S
C831 C830 1.400 . S
C831 C832 1.398 . S
C831 C837 1.491 . S
C832 H823 0.950 . S
C832 C831 1.398 . S
C832 C833 1.391 . S
C833 H821 0.950 . S
C833 C829 1.393 . S
C833 C832 1.391 . S
C834 H824 0.950 . S
C834 C835 1.386 . S
C834 C836 1.391 . S
C835 C834 1.386 . S
C835 C839 1.393 . S
C836 H825 0.950 . S
C836 C834 1.391 . S
C836 C837 1.400 . S
C837 C831 1.491 . S
C837 C836 1.400 . S
C837 C838 1.398 . S
C838 H826 0.950 . S
C838 C837 1.398 . S
C838 C839 1.391 . S
C839 H827 0.950 . S
C839 C835 1.393 . S
C839 C838 1.391 . S
H840 C848 0.950 . S
H841 C853 0.950 . S
H842 C850 0.950 . S
H843 C852 0.950 1_554 S
H844 C854 0.950 . S
H845 C856 0.950 . S
H846 C858 0.950 1_556 S
H847 C859 0.950 . S
C848 H840 0.950 . S
C848 C849 1.386 . S
C848 C850 1.391 . S
C849 C848 1.386 . S
C849 C853 1.393 . S
C850 H842 0.950 . S
C850 C848 1.391 . S
C850 C851 1.400 . S
C851 C850 1.400 . S
C851 C852 1.398 . S
C851 C857 1.491 1_556 S
C852 H843 0.950 1_556 S
C852 C851 1.398 . S
C852 C853 1.391 . S
C853 H841 0.950 . S
C853 C849 1.393 . S
C853 C852 1.391 . S
C854 H844 0.950 . S
C854 C855 1.386 . S
C854 C856 1.391 . S
C855 C854 1.386 . S
C855 C859 1.393 . S
C856 H845 0.950 . S
C856 C854 1.391 . S
C856 C857 1.400 . S
C857 C851 1.491 1_554 S
C857 C856 1.400 . S
C857 C858 1.398 . S
C858 H846 0.950 1_554 S
C858 C857 1.398 . S
C858 C859 1.391 . S
C859 H847 0.950 . S
C859 C855 1.393 . S
C859 C858 1.391 . S
H860 C868 0.950 . S
H861 C873 0.950 . S
H862 C870 0.950 . S
H863 C872 0.950 1_655 S
H864 C874 0.950 . S
H865 C876 0.950 . S
H866 C878 0.950 1_455 S
H867 C879 0.950 . S
C868 H860 0.950 . S
C868 C869 1.386 . S
C868 C870 1.391 . S
C869 C868 1.386 . S
C869 C873 1.393 . S
C870 H862 0.950 . S
C870 C868 1.391 . S
C870 C871 1.400 . S
C871 C870 1.400 . S
C871 C872 1.398 . S
C871 C877 1.491 1_455 S
C872 H863 0.950 1_455 S
C872 C871 1.398 . S
C872 C873 1.391 . S
C873 H861 0.950 . S
C873 C869 1.393 . S
C873 C872 1.391 . S
C874 H864 0.950 . S
C874 C875 1.386 . S
C874 C876 1.391 . S
C875 C874 1.386 . S
C875 C879 1.393 . S
C876 H865 0.950 . S
C876 C874 1.391 . S
C876 C877 1.400 . S
C877 C871 1.491 1_655 S
C877 C876 1.400 . S
C877 C878 1.398 . S
C878 H866 0.950 1_655 S
C878 C877 1.398 . S
C878 C879 1.391 . S
C879 H867 0.950 . S
C879 C875 1.393 . S
C879 C878 1.391 . S
H880 C888 0.950 . S
H881 C893 0.950 . S
H882 C890 0.950 . S
H883 C892 0.950 . S
H884 C894 0.950 . S
H885 C896 0.950 . S
H886 C898 0.950 . S
H887 C899 0.950 . S
C888 H880 0.950 . S
C888 C889 1.386 . S
C888 C890 1.391 . S
C889 C888 1.386 . S
C889 C893 1.393 . S
C890 H882 0.950 . S
C890 C888 1.391 . S
C890 C891 1.400 . S
C891 C890 1.400 . S
C891 C892 1.398 . S
C891 C897 1.491 1_564 S
C892 H883 0.950 . S
C892 C891 1.398 . S
C892 C893 1.391 . S
C893 H881 0.950 . S
C893 C889 1.393 . S
C893 C892 1.391 . S
C894 H884 0.950 . S
C894 C895 1.386 . S
C894 C896 1.391 . S
C895 C894 1.386 . S
C895 C899 1.393 . S
C896 H885 0.950 . S
C896 C894 1.391 . S
C896 C897 1.400 . S
C897 C891 1.491 1_546 S
C897 C896 1.400 . S
C897 C898 1.398 . S
C898 H886 0.950 . S
C898 C897 1.398 . S
C898 C899 1.391 . S
C899 H887 0.950 . S
C899 C895 1.393 . S
C899 C898 1.391 . S
H900 C908 0.950 . S
H901 C913 0.950 . S
H902 C910 0.950 . S
H903 C912 0.950 . S
H904 C914 0.950 . S
H905 C916 0.950 . S
H906 C918 0.950 . S
H907 C919 0.950 . S
C908 H900 0.950 . S
C908 C909 1.386 . S
C908 C910 1.391 . S
C909 C908 1.386 . S
C909 C913 1.393 . S
C910 H902 0.950 . S
C910 C908 1.391 . S
C910 C911 1.400 . S
C911 C910 1.400 . S
C911 C912 1.398 . S
C911 C917 1.491 . S
C912 H903 0.950 . S
C912 C911 1.398 . S
C912 C913 1.391 . S
C913 H901 0.950 . S
C913 C909 1.393 . S
C913 C912 1.391 . S
C914 H904 0.950 . S
C914 C915 1.386 . S
C914 C916 1.391 . S
C915 C914 1.386 . S
C915 C919 1.393 . S
C916 H905 0.950 . S
C916 C914 1.391 . S
C916 C917 1.400 . S
C917 C911 1.491 . S
C917 C916 1.400 . S
C917 C918 1.398 . S
C918 H906 0.950 . S
C918 C917 1.398 . S
C918 C919 1.391 . S
C919 H907 0.950 . S
C919 C915 1.393 . S
C919 C918 1.391 . S
H920 C928 0.950 . S
H921 C933 0.950 . S
H922 C930 0.957 . S
H923 C932 0.950 . S
H924 C934 0.950 . S
H925 C936 0.957 . S
H926 C938 0.950 . S
H927 C939 0.950 . S
C928 H920 0.950 . S
C928 C929 1.386 . S
C928 C930 1.391 . S
C929 C928 1.386 . S
C929 C933 1.393 . S
C930 H922 0.957 . S
C930 C928 1.391 . S
C930 C931 1.400 . S
C931 C930 1.400 . S
C931 C932 1.398 . S
C931 C937 1.491 1_656 S
C932 H923 0.950 . S
C932 C931 1.398 . S
C932 C933 1.391 . S
C933 H921 0.950 . S
C933 C929 1.393 . S
C933 C932 1.391 . S
C934 H924 0.950 . S
C934 C935 1.386 . S
C934 C936 1.391 . S
C935 C934 1.386 . S
C935 C939 1.393 . S
C936 H925 0.957 . S
C936 C934 1.391 . S
C936 C937 1.400 . S
C937 C931 1.491 1_454 S
C937 C936 1.400 . S
C937 C938 1.398 . S
C938 H926 0.950 . S
C938 C937 1.398 . S
C938 C939 1.391 . S
C939 H927 0.950 . S
C939 C935 1.393 . S
C939 C938 1.391 . S
H940 C948 0.950 . S
H941 C953 0.950 . S
H942 C950 0.950 . S
H943 C952 0.950 . S
H944 C954 0.950 . S
H945 C956 0.950 . S
H946 C958 0.950 . S
H947 C959 0.950 . S
C948 H940 0.950 . S
C948 C949 1.386 . S
C948 C950 1.391 . S
C949 C948 1.386 . S
C949 C953 1.393 . S
C950 H942 0.950 . S
C950 C948 1.391 . S
C950 C951 1.400 . S
C951 C950 1.400 . S
C951 C952 1.398 . S
C951 C957 1.491 1_565 S
C952 H943 0.950 . S
C952 C951 1.398 . S
C952 C953 1.391 . S
C953 H941 0.950 . S
C953 C949 1.393 . S
C953 C952 1.391 . S
C954 H944 0.950 . S
C954 C955 1.386 . S
C954 C956 1.391 . S
C955 C954 1.386 . S
C955 C959 1.393 . S
C956 H945 0.950 . S
C956 C954 1.391 . S
C956 C957 1.400 . S
C957 C951 1.491 1_545 S
C957 C956 1.400 . S
C957 C958 1.398 . S
C958 H946 0.950 . S
C958 C957 1.398 . S
C958 C959 1.391 . S
C959 H947 0.950 . S
C959 C955 1.393 . S
C959 C958 1.391 . S
C249 C82 1.136 . S
C255 C9 1.078 . S
C269 C102 1.117 . S
C275 C29 1.123 1_455 S
C289 C49 1.112 1_545 S
C295 C2 1.109 . S
C309 C69 1.095 . S
C315 C22 1.113 . S
C329 C89 1.102 1_655 S
C335 C42 1.109 . S
C349 C62 1.129 . S
C355 C109 1.079 1_565 S
C369 C162 1.108 . S
C375 C129 1.111 . S
C389 C149 1.118 1_455 S
C395 C182 1.133 . S
C409 C202 1.132 . S
C415 C169 1.078 1_545 S
C429 C189 1.092 . S
C435 C222 1.145 . S
C449 C209 1.078 1_655 S
C455 C122 1.132 . S
C469 C142 1.127 . S
C475 C229 1.121 1_565 S
C489 C84 1.268 . S
C495 C12 1.402 . S
C509 C32 1.404 . S
C515 C104 1.266 . S
C529 C52 1.397 . S
C535 C4 1.280 . S
C549 C72 1.417 . S
C555 C24 1.284 . S
C569 C44 1.301 . S
C575 C92 1.413 . S
C589 C64 1.310 . S
C595 C112 1.404 . S
C609 C164 1.305 . S
C615 C132 1.411 . S
C629 C152 1.396 . S
C635 C184 1.303 . S
C649 C172 1.417 . S
C655 C204 1.280 . S
C669 C224 1.305 . S
C675 C192 1.411 . S
C689 C212 1.417 . S
C695 C124 1.281 . S
C709 C144 1.267 . S
C715 C232 1.402 . S
C729 C219 1.676 . S
C735 C19 1.660 . S
C749 C39 1.671 . S
C755 C239 1.663 . S
C769 C59 1.659 . S
C775 C139 1.676 . S
C789 C79 1.660 . S
C795 C159 1.675 . S
C809 C99 1.671 . S
C815 C179 1.663 . S
C829 C199 1.673 . S
C835 C119 1.661 . S
C849 C198 1.846 . S
C855 C18 1.835 . S
C869 C218 1.841 . S
C875 C38 1.850 . S
C889 C58 1.828 . S
C895 C238 1.828 . S
C909 C78 1.827 . S
C915 C138 1.832 . S
C929 C158 1.827 . S
C935 C98 1.831 . S
C949 C178 1.847 . S
C955 C118 1.849 . S
