# Generated by pormake.
# Topology wif, (6)-cn, num edge types: 1
# Building blocks:
#     Node 0, Type 0, BuildingBlock: IZENUY_clean_sbu_0, # of connection points: 6
#     Node 1, Type 0, BuildingBlock: IZENUY_clean_sbu_0, # of connection points: 6
#     Node 2, Type 0, BuildingBlock: IZENUY_clean_sbu_0, # of connection points: 6
#     Node 3, Type 0, BuildingBlock: IZENUY_clean_sbu_0, # of connection points: 6
#     Node 4, Type 0, BuildingBlock: IZENUY_clean_sbu_0, # of connection points: 6
#     Node 5, Type 0, BuildingBlock: IZENUY_clean_sbu_0, # of connection points: 6
#     Node 6, Type 0, BuildingBlock: IZENUY_clean_sbu_0, # of connection points: 6
#     Node 7, Type 0, BuildingBlock: IZENUY_clean_sbu_0, # of connection points: 6
#     Node 8, Type 0, BuildingBlock: IZENUY_clean_sbu_0, # of connection points: 6
#     Node 9, Type 0, BuildingBlock: IZENUY_clean_sbu_0, # of connection points: 6
#     Node 10, Type 0, BuildingBlock: IZENUY_clean_sbu_0, # of connection points: 6
#     Node 11, Type 0, BuildingBlock: IZENUY_clean_sbu_0, # of connection points: 6
#     Node 12, Type 0, BuildingBlock: IZENUY_clean_sbu_0, # of connection points: 6
#     Node 13, Type 0, BuildingBlock: IZENUY_clean_sbu_0, # of connection points: 6
#     Node 14, Type 0, BuildingBlock: IZENUY_clean_sbu_0, # of connection points: 6
#     Node 15, Type 0, BuildingBlock: IZENUY_clean_sbu_0, # of connection points: 6
#     Edge 16, Type (0, 0), BuildingBlock: ZUJKAS_clean_linker_0, # of connection points: 2
#     Edge 17, Type (0, 0), BuildingBlock: ZUJKAS_clean_linker_0, # of connection points: 2
#     Edge 18, Type (0, 0), BuildingBlock: ZUJKAS_clean_linker_0, # of connection points: 2
#     Edge 19, Type (0, 0), BuildingBlock: ZUJKAS_clean_linker_0, # of connection points: 2
#     Edge 20, Type (0, 0), BuildingBlock: ZUJKAS_clean_linker_0, # of connection points: 2
#     Edge 21, Type (0, 0), BuildingBlock: ZUJKAS_clean_linker_0, # of connection points: 2
#     Edge 22, Type (0, 0), BuildingBlock: ZUJKAS_clean_linker_0, # of connection points: 2
#     Edge 23, Type (0, 0), BuildingBlock: ZUJKAS_clean_linker_0, # of connection points: 2
#     Edge 24, Type (0, 0), BuildingBlock: ZUJKAS_clean_linker_0, # of connection points: 2
#     Edge 25, Type (0, 0), BuildingBlock: ZUJKAS_clean_linker_0, # of connection points: 2
#     Edge 26, Type (0, 0), BuildingBlock: ZUJKAS_clean_linker_0, # of connection points: 2
#     Edge 27, Type (0, 0), BuildingBlock: ZUJKAS_clean_linker_0, # of connection points: 2
#     Edge 28, Type (0, 0), BuildingBlock: ZUJKAS_clean_linker_0, # of connection points: 2
#     Edge 29, Type (0, 0), BuildingBlock: ZUJKAS_clean_linker_0, # of connection points: 2
#     Edge 30, Type (0, 0), BuildingBlock: ZUJKAS_clean_linker_0, # of connection points: 2
#     Edge 31, Type (0, 0), BuildingBlock: ZUJKAS_clean_linker_0, # of connection points: 2
#     Edge 32, Type (0, 0), BuildingBlock: ZUJKAS_clean_linker_0, # of connection points: 2
#     Edge 33, Type (0, 0), BuildingBlock: ZUJKAS_clean_linker_0, # of connection points: 2
#     Edge 34, Type (0, 0), BuildingBlock: ZUJKAS_clean_linker_0, # of connection points: 2
#     Edge 35, Type (0, 0), BuildingBlock: ZUJKAS_clean_linker_0, # of connection points: 2
#     Edge 36, Type (0, 0), BuildingBlock: ZUJKAS_clean_linker_0, # of connection points: 2
#     Edge 37, Type (0, 0), BuildingBlock: ZUJKAS_clean_linker_0, # of connection points: 2
#     Edge 38, Type (0, 0), BuildingBlock: ZUJKAS_clean_linker_0, # of connection points: 2
#     Edge 39, Type (0, 0), BuildingBlock: ZUJKAS_clean_linker_0, # of connection points: 2
#     Edge 40, Type (0, 0), BuildingBlock: ZUJKAS_clean_linker_0, # of connection points: 2
#     Edge 41, Type (0, 0), BuildingBlock: ZUJKAS_clean_linker_0, # of connection points: 2
#     Edge 42, Type (0, 0), BuildingBlock: ZUJKAS_clean_linker_0, # of connection points: 2
#     Edge 43, Type (0, 0), BuildingBlock: ZUJKAS_clean_linker_0, # of connection points: 2
#     Edge 44, Type (0, 0), BuildingBlock: ZUJKAS_clean_linker_0, # of connection points: 2
#     Edge 45, Type (0, 0), BuildingBlock: ZUJKAS_clean_linker_0, # of connection points: 2
#     Edge 46, Type (0, 0), BuildingBlock: ZUJKAS_clean_linker_0, # of connection points: 2
#     Edge 47, Type (0, 0), BuildingBlock: ZUJKAS_clean_linker_0, # of connection points: 2
#     Edge 48, Type (0, 0), BuildingBlock: ZUJKAS_clean_linker_0, # of connection points: 2
#     Edge 49, Type (0, 0), BuildingBlock: ZUJKAS_clean_linker_0, # of connection points: 2
#     Edge 50, Type (0, 0), BuildingBlock: ZUJKAS_clean_linker_0, # of connection points: 2
#     Edge 51, Type (0, 0), BuildingBlock: ZUJKAS_clean_linker_0, # of connection points: 2
#     Edge 52, Type (0, 0), BuildingBlock: ZUJKAS_clean_linker_0, # of connection points: 2
#     Edge 53, Type (0, 0), BuildingBlock: ZUJKAS_clean_linker_0, # of connection points: 2
#     Edge 54, Type (0, 0), BuildingBlock: ZUJKAS_clean_linker_0, # of connection points: 2
#     Edge 55, Type (0, 0), BuildingBlock: ZUJKAS_clean_linker_0, # of connection points: 2
#     Edge 56, Type (0, 0), BuildingBlock: ZUJKAS_clean_linker_0, # of connection points: 2
#     Edge 57, Type (0, 0), BuildingBlock: ZUJKAS_clean_linker_0, # of connection points: 2
#     Edge 58, Type (0, 0), BuildingBlock: ZUJKAS_clean_linker_0, # of connection points: 2
#     Edge 59, Type (0, 0), BuildingBlock: ZUJKAS_clean_linker_0, # of connection points: 2
#     Edge 60, Type (0, 0), BuildingBlock: ZUJKAS_clean_linker_0, # of connection points: 2
#     Edge 61, Type (0, 0), BuildingBlock: ZUJKAS_clean_linker_0, # of connection points: 2
#     Edge 62, Type (0, 0), BuildingBlock: ZUJKAS_clean_linker_0, # of connection points: 2
#     Edge 63, Type (0, 0), BuildingBlock: ZUJKAS_clean_linker_0, # of connection points: 2
# Relax obj value: 0.830
# Max RMSD: 0.279
# Mean RMSD: 0.279
data_MOF--net-wif--node1-IZENUY_clean_sbu_0--edge1-ZUJKAS_clean_linker_0
_symmetry_space_group_name_H-M    P1
_symmetry_Int_Tables_number       1
_symmetry_cell_setting            triclinic
loop_
_symmetry_equiv_pos_as_xyz
'x, y, z'
_cell_length_a     44.525748
_cell_length_b     44.587001
_cell_length_c     37.498001
_cell_angle_alpha  89.985149
_cell_angle_beta   89.992752
_cell_angle_gamma 90.042313
loop_
_atom_site_label
_atom_site_type_symbol
_atom_site_fract_x
_atom_site_fract_y
_atom_site_fract_z
_atom_type_partial_charge
Fe0 Fe 0.26766 0.04777 0.1003 0.0
Fe1 Fe 0.29943 0.02325 0.03271 0.0
O2 O 0.29211 0.05294 0.0633 0.0
Fe3 Fe 0.31049 0.08779 0.05758 0.0
O4 O 0.31178 0.09801 0.10462 0.0
O5 O 0.2966 0.05786 0.13251 0.0
O6 O 0.27888 0.00855 0.10837 0.0
C7 C 0.30151 0.99387 0.09755 0.0
C8 C 0.25475 0.10743 0.07535 0.0
O9 O 0.31388 0.99986 0.06816 0.0
C10 C 0.29943 0.07015 0.98578 0.0
O11 O 0.23674 0.03654 0.07174 0.0
O12 O 0.26175 0.00562 0.03732 0.0
O13 O 0.27509 0.10687 0.05188 0.0
O14 O 0.25274 0.08663 0.09858 0.0
C15 C 0.35643 0.049 0.04419 0.0
O16 O 0.28696 0.04528 0.9937 0.0
O17 O 0.31303 0.08508 0.00937 0.0
C18 C 0.23745 0.01319 0.05277 0.0
O19 O 0.33856 0.03426 0.02457 0.0
O20 O 0.34698 0.07033 0.06329 0.0
C21 C 0.311 0.08212 0.13233 0.0
Fe22 Fe 0.01787 0.72174 0.96296 0.0
Fe23 Fe 0.05644 0.74926 0.90307 0.0
O24 O 0.05316 0.7259 0.9411 0.0
Fe25 Fe 0.08473 0.70568 0.95645 0.0
O26 O 0.06329 0.67218 0.97025 0.0
O27 O 0.01722 0.68226 0.95306 0.0
O28 O 0.99536 0.72661 0.92212 0.0
C29 C 1.00296 0.72078 0.89031 0.0
C30 C 0.06092 0.71619 0.02052 0.0
O31 O 0.02915 0.72654 0.8795 0.0
C32 C 0.10898 0.7627 0.93661 0.0
O33 O 0.01522 0.76187 0.97271 0.0
O34 O 0.02754 0.77582 0.91815 0.0
O35 O 0.08188 0.72313 0.99972 0.0
O36 O 0.03438 0.7138 0.008 0.0
C37 C 0.09294 0.69972 0.8846 0.0
O38 O 0.08466 0.77288 0.92406 0.0
O39 O 0.11163 0.73522 0.94475 0.0
C40 C 0.01474 0.7812 0.94773 0.0
O41 O 0.08557 0.72691 0.88068 0.0
O42 O 0.08963 0.68688 0.91419 0.0
C43 C 0.03733 0.66361 0.96085 0.0
Fe44 Fe 0.75343 0.95463 0.11163 0.0
Fe45 Fe 0.72703 0.98998 0.04813 0.0
O46 O 0.73052 0.95616 0.07306 0.0
Fe47 Fe 0.71023 0.92396 0.06005 0.0
O48 O 0.69015 0.92265 0.10192 0.0
O49 O 0.73008 0.92706 0.13574 0.0
O50 O 0.73121 0.98344 0.13273 0.0
C51 C 0.72597 0.00911 0.12007 0.0
C52 C 0.76642 0.90021 0.08321 0.0
O53 O 0.73068 0.01477 0.08735 0.0
C54 C 0.72334 0.94321 0.99446 0.0
O55 O 0.78058 0.98235 0.09512 0.0
O56 O 0.76749 0.99229 0.03966 0.0
O57 O 0.73881 0.89743 0.07562 0.0
O58 O 0.77691 0.9252 0.09308 0.0
C59 C 0.66866 0.97087 0.04891 0.0
O60 O 0.72064 0.97056 0.0042 0.0
O61 O 0.72915 0.92372 0.01764 0.0
C62 C 0.78633 0.99414 0.06507 0.0
O63 O 0.68713 0.99128 0.05626 0.0
O64 O 0.67753 0.94448 0.0424 0.0
C65 C 0.7025 0.92083 0.13201 0.0
Fe66 Fe 0.98364 0.29625 0.9672 0.0
Fe67 Fe 0.95871 0.26303 0.90098 0.0
O68 O 0.95362 0.28801 0.93742 0.0
Fe69 Fe 0.91842 0.3059 0.94317 0.0
O70 O 0.93527 0.34262 0.93643 0.0
O71 O 0.97248 0.3353 0.97406 0.0
O72 O 0.00687 0.30988 0.93088 0.0
C73 C 0.01278 0.2965 0.9021 0.0
C74 C 0.93729 0.29715 0.01505 0.0
O75 O 0.99785 0.27376 0.89239 0.0
C76 C 0.89952 0.24968 0.92679 0.0
O77 O 1.00112 0.25856 0.9639 0.0
O78 O 0.97025 0.23263 0.93017 0.0
O79 O 0.9215 0.30949 0.99133 0.0
O80 O 0.96212 0.28475 0.00692 0.0
C81 C 0.92406 0.30584 0.86847 0.0
O82 O 0.91992 0.24821 0.90308 0.0
O83 O 0.89991 0.27019 0.95003 0.0
C84 C 0.99359 0.2339 0.94931 0.0
O85 O 0.94845 0.2916 0.86841 0.0
O86 O 0.90794 0.30628 0.89606 0.0
C87 C 0.95689 0.35263 0.95478 0.0
Fe88 Fe 0.30563 0.41891 0.19146 0.0
Fe89 Fe 0.26093 0.45842 0.15101 0.0
O90 O 0.28687 0.4536 0.18651 0.0
Fe91 Fe 0.29548 0.48352 0.21625 0.0
O92 O 0.33494 0.4725 0.22214 0.0
O93 O 0.34155 0.43671 0.18268 0.0
O94 O 0.30472 0.40814 0.1445 0.0
C95 C 0.30295 0.42399 0.11681 0.0
C96 C 0.29733 0.43715 0.26353 0.0
O97 O 0.28854 0.4482 0.11732 0.0
C98 C 0.23281 0.49349 0.19969 0.0
O99 O 0.27062 0.39979 0.19981 0.0
O100 O 0.24624 0.41946 0.15419 0.0
O101 O 0.28443 0.46179 0.2559 0.0
O102 O 0.31045 0.42219 0.23956 0.0
C103 C 0.29492 0.51233 0.15116 0.0
O104 O 0.23124 0.46989 0.18122 0.0
O105 O 0.25773 0.50113 0.21362 0.0
C106 C 0.24935 0.39885 0.17753 0.0
O107 O 0.27183 0.4976 0.14178 0.0
O108 O 0.30845 0.50656 0.17985 0.0
C109 C 0.35171 0.45848 0.20051 0.0
Fe110 Fe 0.46196 0.74502 0.85718 0.0
Fe111 Fe 0.42069 0.70657 0.81102 0.0
O112 O 0.45646 0.72256 0.81869 0.0
Fe113 Fe 0.48661 0.71512 0.78867 0.0
O114 O 0.50881 0.6985 0.82401 0.0
O115 O 0.50079 0.7327 0.86512 0.0
O116 O 0.45062 0.71494 0.88712 0.0
C117 C 0.42562 0.7018 0.88559 0.0
C118 C 0.4979 0.77603 0.81208 0.0
O119 O 0.40975 0.70372 0.85787 0.0
C120 C 0.44106 0.71832 0.74014 0.0
O121 O 0.4237 0.76112 0.85622 0.0
O122 O 0.40361 0.74326 0.80702 0.0
O123 O 0.50543 0.75219 0.79556 0.0
O124 O 0.47414 0.77646 0.8304 0.0
C125 C 0.4571 0.65922 0.79562 0.0
O126 O 0.42425 0.70576 0.76274 0.0
O127 O 0.46606 0.72961 0.74975 0.0
C128 C 0.40348 0.76201 0.83227 0.0
O129 O 0.43604 0.66904 0.8149 0.0
O130 O 0.47404 0.67681 0.77827 0.0
C131 C 0.51494 0.70998 0.85382 0.0
Fe132 Fe 0.70559 0.59232 0.19298 0.0
Fe133 Fe 0.74817 0.55009 0.15329 0.0
O134 O 0.72159 0.55629 0.18779 0.0
Fe135 Fe 0.70977 0.52646 0.21594 0.0
O136 O 0.67119 0.54023 0.22066 0.0
O137 O 0.66837 0.57779 0.18281 0.0
O138 O 0.70843 0.60335 0.1461 0.0
C139 C 0.70895 0.58728 0.11845 0.0
C140 C 0.70958 0.57167 0.26492 0.0
O141 O 0.7219 0.5622 0.11896 0.0
C142 C 0.77239 0.51287 0.20244 0.0
O143 O 0.74195 0.60847 0.20296 0.0
O144 O 0.76501 0.58788 0.15711 0.0
O145 O 0.72085 0.54631 0.25689 0.0
O146 O 0.69933 0.58863 0.24084 0.0
C147 C 0.711 0.49891 0.15024 0.0
O148 O 0.77613 0.53667 0.18468 0.0
O149 O 0.7464 0.50641 0.21447 0.0
C150 C 0.76361 0.60795 0.18119 0.0
O151 O 0.73568 0.51172 0.14329 0.0
O152 O 0.69629 0.50536 0.17789 0.0
C153 C 0.65603 0.55668 0.19985 0.0
Fe154 Fe 0.55046 0.26756 0.85261 0.0
Fe155 Fe 0.58197 0.30847 0.79908 0.0
O156 O 0.54953 0.28856 0.81249 0.0
Fe157 Fe 0.5159 0.29038 0.78666 0.0
O158 O 0.49073 0.28861 0.82569 0.0
O159 O 0.5215 0.29117 0.87155 0.0
O160 O 0.57805 0.29126 0.87564 0.0
C161 C 0.58492 0.31841 0.87071 0.0
C162 C 0.51181 0.23207 0.80803 0.0
O163 O 0.5832 0.32984 0.84014 0.0
C164 C 0.56319 0.29315 0.73364 0.0
O165 O 0.58002 0.24312 0.83609 0.0
O166 O 0.6082 0.28011 0.81598 0.0
O167 O 0.51394 0.24939 0.78113 0.0
O168 O 0.52278 0.23997 0.83775 0.0
C169 C 0.53459 0.34898 0.7843 0.0
O170 O 0.5828 0.28865 0.75712 0.0
O171 O 0.53568 0.29501 0.74289 0.0
C172 C 0.60515 0.25296 0.82553 0.0
O173 O 0.56152 0.34059 0.7803 0.0
O174 O 0.51401 0.33057 0.79136 0.0
C175 C 0.49605 0.29593 0.8578 0.0
Fe176 Fe 0.79908 0.52597 0.53501 0.0
Fe177 Fe 0.80736 0.59071 0.56094 0.0
O178 O 0.79015 0.55514 0.56565 0.0
Fe179 Fe 0.7653 0.5488 0.60195 0.0
O180 O 0.77719 0.50981 0.60962 0.0
O181 O 0.8134 0.50257 0.57063 0.0
O182 O 0.83797 0.53827 0.52843 0.0
C183 C 0.85491 0.55353 0.54864 0.0
C184 C 0.73694 0.51409 0.55302 0.0
O185 O 0.84436 0.57447 0.56759 0.0
C186 C 0.75079 0.60824 0.57756 0.0
O187 O 0.787 0.54795 0.49579 0.0
O188 O 0.81118 0.58851 0.5128 0.0
O189 O 0.73518 0.53714 0.57245 0.0
O190 O 0.76176 0.50738 0.53813 0.0
C191 C 0.80692 0.58405 0.63539 0.0
O192 O 0.77136 0.60848 0.55434 0.0
O193 O 0.74939 0.58728 0.60063 0.0
C194 C 0.79905 0.57316 0.48848 0.0
O195 O 0.80715 0.60056 0.6082 0.0
O196 O 0.7937 0.55913 0.63478 0.0
C197 C 0.80043 0.49584 0.59942 0.0
Fe198 Fe 0.51708 0.2206 0.4653 0.0
Fe199 Fe 0.55297 0.24645 0.40186 0.0
O200 O 0.55126 0.22372 0.44068 0.0
Fe201 Fe 0.5834 0.20334 0.45408 0.0
O202 O 0.56252 0.17033 0.47003 0.0
O203 O 0.51536 0.18076 0.45772 0.0
O204 O 0.49271 0.22431 0.42585 0.0
C205 C 0.49862 0.21831 0.39354 0.0
C206 C 0.56288 0.21594 0.51973 0.0
O207 O 0.52427 0.22377 0.38074 0.0
C208 C 0.60713 0.25986 0.4317 0.0
O209 O 0.51516 0.26107 0.47351 0.0
O210 O 0.52513 0.27353 0.4179 0.0
O211 O 0.58311 0.22122 0.49724 0.0
O212 O 0.5357 0.21406 0.50932 0.0
C213 C 0.58824 0.19641 0.38195 0.0
O214 O 0.58241 0.27011 0.42038 0.0
O215 O 0.60992 0.23243 0.44001 0.0
C216 C 0.51361 0.27974 0.44793 0.0
O217 O 0.58081 0.22356 0.37806 0.0
O218 O 0.58597 0.1839 0.41188 0.0
C219 C 0.53576 0.16207 0.46423 0.0
Fe220 Fe 0.25317 0.45579 0.6104 0.0
Fe221 Fe 0.22489 0.49286 0.54963 0.0
O222 O 0.22905 0.45832 0.57292 0.0
Fe223 Fe 0.20815 0.42655 0.5594 0.0
O224 O 0.18969 0.42368 0.60214 0.0
O225 O 0.23035 0.42795 0.63474 0.0
O226 O 0.23191 0.4843 0.63355 0.0
C227 C 0.22666 0.51032 0.62197 0.0
C228 C 0.26488 0.40189 0.5796 0.0
O229 O 0.23044 0.51661 0.58931 0.0
C230 C 0.21871 0.44803 0.49408 0.0
O231 O 0.28008 0.48368 0.59339 0.0
O232 O 0.26494 0.49503 0.53902 0.0
O233 O 0.23719 0.39954 0.57226 0.0
O234 O 0.27577 0.42657 0.58997 0.0
C235 C 0.16652 0.47406 0.55299 0.0
O236 O 0.2165 0.47491 0.50549 0.0
O237 O 0.22523 0.42755 0.51575 0.0
C238 C 0.28476 0.49611 0.56343 0.0
O239 O 0.18543 0.49413 0.56014 0.0
O240 O 0.17488 0.44784 0.54468 0.0
C241 C 0.20283 0.42118 0.6317 0.0
Fe242 Fe 0.47974 0.79786 0.46562 0.0
Fe243 Fe 0.45757 0.76116 0.40068 0.0
O244 O 0.45074 0.78738 0.43539 0.0
Fe245 Fe 0.415 0.80427 0.43895 0.0
O246 O 0.43093 0.84121 0.43078 0.0
O247 O 0.46667 0.83659 0.47094 0.0
O248 O 0.50272 0.81153 0.42911 0.0
C249 C 0.50991 0.79713 0.40144 0.0
C250 C 0.43237 0.79805 0.51187 0.0
O251 O 0.49658 0.77307 0.39297 0.0
C252 C 0.39819 0.74689 0.42507 0.0
O253 O 0.4991 0.76094 0.46411 0.0
O254 O 0.46914 0.73255 0.43224 0.0
O255 O 0.4169 0.80935 0.48703 0.0
O256 O 0.45792 0.78643 0.5052 0.0
C257 C 0.4224 0.80151 0.36457 0.0
O258 O 0.41931 0.74497 0.4023 0.0
O259 O 0.39737 0.76839 0.44698 0.0
C260 C 0.49239 0.73538 0.45119 0.0
O261 O 0.44719 0.78799 0.36602 0.0
O262 O 0.40568 0.8026 0.39162 0.0
C263 C 0.45111 0.85262 0.45012 0.0
Fe264 Fe 0.76189 0.95197 0.64975 0.0
Fe265 Fe 0.78588 0.99039 0.71194 0.0
O266 O 0.7844 0.95571 0.68848 0.0
Fe267 Fe 0.80643 0.92507 0.70289 0.0
O268 O 0.8265 0.92335 0.66103 0.0
O269 O 0.78661 0.92509 0.62693 0.0
O270 O 0.78304 0.9814 0.62768 0.0
C271 C 0.78736 0.00748 0.63976 0.0
C272 C 0.75161 0.89756 0.68042 0.0
O273 O 0.78096 0.01372 0.67186 0.0
C274 C 0.79198 0.94579 0.76769 0.0
O275 O 0.73327 0.97863 0.66497 0.0
O276 O 0.74532 0.99059 0.72018 0.0
O277 O 0.77924 0.89668 0.68859 0.0
O278 O 0.73982 0.92165 0.66932 0.0
C279 C 0.84529 0.97462 0.71168 0.0
O280 O 0.79321 0.9728 0.75647 0.0
O281 O 0.78783 0.92495 0.74568 0.0
C282 C 0.72659 0.99072 0.69455 0.0
O283 O 0.82566 0.99377 0.70386 0.0
O284 O 0.83797 0.94796 0.71935 0.0
C285 C 0.81433 0.91996 0.63102 0.0
Fe286 Fe 0.98716 0.21388 0.28948 0.0
Fe287 Fe 0.96139 0.24543 0.35632 0.0
O288 O 0.95655 0.22194 0.31848 0.0
Fe289 Fe 0.92104 0.20535 0.31053 0.0
O290 O 0.93662 0.16796 0.31597 0.0
O291 O 0.97503 0.1754 0.28011 0.0
O292 O 0.00875 0.19817 0.32582 0.0
C293 C 0.01427 0.21023 0.35547 0.0
C294 C 0.94231 0.21603 0.23991 0.0
O295 O 1.00002 0.23325 0.36568 0.0
C296 C 0.90309 0.26123 0.32947 0.0
O297 O 0.00568 0.25094 0.29555 0.0
O298 O 0.97438 0.27652 0.32909 0.0
O299 O 0.92539 0.20348 0.26239 0.0
O300 O 0.9672 0.22746 0.24964 0.0
C301 C 0.92466 0.2026 0.38536 0.0
O302 O 0.9231 0.26137 0.35372 0.0
O303 O 0.90373 0.24177 0.30497 0.0
C304 C 0.99815 0.27536 0.31076 0.0
O305 O 0.9495 0.216 0.38699 0.0
O306 O 0.9093 0.20354 0.35717 0.0
C307 C 0.95845 0.15791 0.29805 0.0
Fe308 Fe 0.248 0.05046 0.65535 0.0
Fe309 Fe 0.21388 0.02431 0.72017 0.0
O310 O 0.22261 0.05493 0.69146 0.0
Fe311 Fe 0.205 0.09011 0.69784 0.0
O312 O 0.20511 0.10124 0.65092 0.0
O313 O 0.21969 0.06101 0.62267 0.0
O314 O 0.23756 0.01149 0.64584 0.0
C315 C 0.21431 0.99678 0.6542 0.0
C316 C 0.26148 0.10895 0.68251 0.0
O317 O 0.20049 1.00206 0.68285 0.0
C318 C 0.21277 0.06969 0.76928 0.0
O319 O 0.27782 0.03887 0.68509 0.0
O320 O 0.25177 0.00671 0.71691 0.0
O321 O 0.24083 0.10825 0.70559 0.0
O322 O 0.26278 0.08909 0.65824 0.0
C323 C 0.15771 0.05188 0.70773 0.0
O324 O 0.22494 0.04486 0.76075 0.0
O325 O 0.201 0.08615 0.7458 0.0
C326 C 0.27657 0.0149 0.70296 0.0
O327 O 0.17466 0.03552 0.72666 0.0
O328 O 0.16819 0.07377 0.69029 0.0
C329 C 0.2054 0.08533 0.62314 0.0
Fe330 Fe 0.08779 0.80634 0.30269 0.0
Fe331 Fe 0.02152 0.78781 0.29471 0.0
O332 O 0.05664 0.78495 0.31719 0.0
Fe333 Fe 0.06048 0.76159 0.35507 0.0
O334 O 0.08871 0.78492 0.3778 0.0
O335 O 0.09078 0.82553 0.34508 0.0
O336 O 0.06563 0.83884 0.28756 0.0
C337 C 0.03919 0.84669 0.29569 0.0
C338 C 0.11376 0.75022 0.32253 0.0
O339 O 0.01962 0.82749 0.30365 0.0
C340 C 0.01911 0.7284 0.31109 0.0
O341 O 0.08657 0.78857 0.2595 0.0
O342 O 0.03865 0.79537 0.24983 0.0
O343 O 0.08942 0.73905 0.33376 0.0
O344 O 0.1156 0.77802 0.31558 0.0
C345 C 0.00601 0.78803 0.3677 0.0
O346 O 0.01958 0.74732 0.28564 0.0
O347 O 0.03247 0.73429 0.34012 0.0
C348 C 0.06556 0.79394 0.23807 0.0
O349 O 0.9988 0.7831 0.33548 0.0
O350 O 0.03234 0.78302 0.3786 0.0
C351 C 0.09417 0.81265 0.37467 0.0
H352 H 0.11547 0.7857 0.19667 0.0
H353 H 0.1382 0.82224 0.15597 0.0
H354 H 0.06044 0.87895 0.16659 0.0
H355 H 0.03748 0.84239 0.20719 0.0
H356 H 0.11953 0.85325 0.08988 0.0
H357 H 0.1319 0.93003 0.20583 0.0
H358 H 0.12341 0.89068 0.21111 0.0
H359 H 0.09468 0.91626 0.19697 0.0
C360 C 0.10267 0.8054 0.18931 0.0
C361 C 0.07444 0.8108 0.20513 0.0
C362 C 0.11584 0.82646 0.16618 0.0
C363 C 0.10139 0.85373 0.15858 0.0
C364 C 0.07229 0.85829 0.17227 0.0
H365 H 0.17983 0.02168 0.07755 0.0
H366 H 0.14457 0.98346 0.09871 0.0
C367 C 0.05892 0.83705 0.19512 0.0
C368 C 0.11782 0.87814 0.13894 0.0
H369 H 0.15072 0.94687 0.15091 0.0
C370 C 0.1262 0.87381 0.10315 0.0
C371 C 0.12658 0.90511 0.15605 0.0
C372 C 0.11895 0.91091 0.19466 0.0
C373 C 0.1428 0.89563 0.08406 0.0
C374 C 0.15237 0.9223 0.10148 0.0
C375 C 0.14357 0.92668 0.1372 0.0
C376 C 0.17224 0.94552 0.08393 0.0
C377 C 0.14924 0.88999 0.04515 0.0
C378 C 0.19953 0.93744 0.06751 0.0
C379 C 0.21949 0.95938 0.05457 0.0
C380 C 0.21318 0.99021 0.05835 0.0
C381 C 0.18546 0.99827 0.07377 0.0
C382 C 0.1653 0.9763 0.08623 0.0
H383 H 0.13189 0.87524 0.03304 0.0
H384 H 0.15018 0.91123 0.02974 0.0
H385 H 0.17117 0.87838 0.0426 0.0
H386 H 0.20621 0.91414 0.06618 0.0
H387 H 0.24081 0.95211 0.04369 0.0
H388 H 0.78298 0.89579 0.80871 0.0
H389 H 0.81858 0.8737 0.85108 0.0
H390 H 0.87493 0.95189 0.84212 0.0
H391 H 0.83916 0.97437 0.80027 0.0
H392 H 0.90109 0.89158 0.82245 0.0
H393 H 0.84856 0.89299 0.95695 0.0
H394 H 0.8252 0.88262 0.9197 0.0
H395 H 0.83922 0.92022 0.92295 0.0
C396 C 0.80226 0.90889 0.81697 0.0
C397 C 0.80785 0.93711 0.80131 0.0
C398 C 0.82274 0.89613 0.84112 0.0
C399 C 0.84951 0.91108 0.84997 0.0
C400 C 0.85435 0.93997 0.83602 0.0
H401 H 0.02156 0.83912 0.92599 0.0
H402 H 0.98171 0.87331 0.90679 0.0
C403 C 0.83362 0.95299 0.81231 0.0
C404 C 0.874 0.89502 0.86967 0.0
H405 H 0.89351 0.86513 0.95062 0.0
C406 C 0.89958 0.88606 0.85057 0.0
C407 C 0.87181 0.88723 0.90617 0.0
C408 C 0.84484 0.89631 0.92791 0.0
C409 C 0.92265 0.86911 0.86659 0.0
C410 C 0.92094 0.86179 0.90346 0.0
C411 C 0.89525 0.87085 0.92259 0.0
C412 C 0.94511 0.84392 0.92191 0.0
C413 C 0.9479 0.85806 0.84315 0.0
C414 C 0.93816 0.81715 0.94013 0.0
C415 C 0.9611 0.79809 0.95259 0.0
C416 C 0.99152 0.80526 0.9469 0.0
C417 C 0.99839 0.83306 0.93112 0.0
C418 C 0.97552 0.85238 0.91944 0.0
H419 H 0.94118 0.8574 0.81462 0.0
H420 H 0.96728 0.87359 0.84544 0.0
H421 H 0.95531 0.83524 0.85109 0.0
H422 H 0.915 0.81003 0.9428 0.0
H423 H 0.95498 0.77656 0.96386 0.0
H424 H 0.83883 0.99325 0.10226 0.0
H425 H 0.87035 0.03632 0.11763 0.0
H426 H 0.81912 0.09201 0.04626 0.0
H427 H 0.78736 0.0488 0.03058 0.0
H428 H 0.89765 0.09509 0.05972 0.0
H429 H 0.81514 0.1119 0.16965 0.0
H430 H 0.8254 0.07428 0.15683 0.0
H431 H 0.8038 0.09699 0.12694 0.0
C432 C 0.83493 0.01436 0.08872 0.0
C433 C 0.81059 0.01737 0.06495 0.0
C434 C 0.85296 0.03905 0.09769 0.0
C435 C 0.84712 0.06749 0.08325 0.0
C436 C 0.82422 0.07026 0.05758 0.0
H437 H 0.89392 0.23023 0.19942 0.0
H438 H 0.87206 0.19741 0.15406 0.0
C439 C 0.8062 0.04541 0.04838 0.0
C440 C 0.86223 0.09454 0.09871 0.0
H441 H 0.85811 0.14229 0.16987 0.0
C442 C 0.88891 0.10565 0.08361 0.0
C443 C 0.85083 0.10845 0.12977 0.0
C444 C 0.82218 0.09753 0.14694 0.0
C445 C 0.90464 0.13 0.0991 0.0
C446 C 0.89375 0.14331 0.13099 0.0
C447 C 0.86666 0.13243 0.14546 0.0
C448 C 0.91028 0.16756 0.15099 0.0
C449 C 0.9326 0.14136 0.08087 0.0
C450 C 0.93993 0.16319 0.16304 0.0
C451 C 0.95286 0.18268 0.1883 0.0
C452 C 0.9363 0.20676 0.20254 0.0
C453 C 0.90767 0.21253 0.18824 0.0
C454 C 0.8949 0.19332 0.16272 0.0
H455 H 0.93218 0.13639 0.05185 0.0
H456 H 0.93535 0.16592 0.08457 0.0
H457 H 0.95248 0.12993 0.09242 0.0
H458 H 0.95224 0.14328 0.15536 0.0
H459 H 0.97442 0.17681 0.19972 0.0
H460 H 0.05197 0.23324 0.97387 0.0
H461 H 0.09271 0.20008 0.95459 0.0
H462 H 0.02976 0.14729 0.89416 0.0
H463 H 0.98878 0.18023 0.91321 0.0
H464 H 0.09075 0.1204 0.94704 0.0
H465 H 0.10524 0.19734 0.83112 0.0
H466 H 0.09434 0.2117 0.87423 0.0
H467 H 0.06827 0.18986 0.84878 0.0
C468 C 0.04648 0.21408 0.95737 0.0
C469 C 0.0168 0.20966 0.94517 0.0
C470 C 0.06994 0.19514 0.94624 0.0
C471 C 0.0644 0.1712 0.92279 0.0
C472 C 0.03464 0.16554 0.91233 0.0
H473 H 0.17222 0.03877 0.80921 0.0
H474 H 0.13782 0.06213 0.85186 0.0
C475 C 0.01114 0.18445 0.9234 0.0
C476 C 0.08987 0.15426 0.9062 0.0
H477 H 0.13653 0.15517 0.83374 0.0
C478 C 0.10085 0.12798 0.92231 0.0
C479 C 0.10324 0.1642 0.8741 0.0
C480 C 0.09237 0.19231 0.85579 0.0
C481 C 0.12475 0.11142 0.90705 0.0
C482 C 0.13781 0.12108 0.87446 0.0
C483 C 0.12685 0.1476 0.85871 0.0
C484 C 0.16224 0.10405 0.85539 0.0
C485 C 0.1361 0.08402 0.92636 0.0
C486 C 0.18834 0.11903 0.84388 0.0
C487 C 0.20813 0.10554 0.81952 0.0
C488 C 0.20254 0.07659 0.80609 0.0
C489 C 0.17796 0.06055 0.82007 0.0
C490 C 0.15796 0.07416 0.84427 0.0
H491 H 0.13076 0.08498 0.95528 0.0
H492 H 0.12502 0.06381 0.91517 0.0
H493 H 0.16075 0.08147 0.92313 0.0
H494 H 0.19237 0.14203 0.85185 0.0
H495 H 0.22621 0.11891 0.80847 0.0
H496 H 0.23676 0.55447 0.2095 0.0
H497 H 0.20224 0.59284 0.18805 0.0
H498 H 0.13966 0.52424 0.15569 0.0
H499 H 0.17479 0.48558 0.17588 0.0
H500 H 0.14606 0.56139 0.10363 0.0
H501 H 0.12831 0.6317 0.22288 0.0
H502 H 0.1675 0.62836 0.2129 0.0
H503 H 0.14628 0.59553 0.22541 0.0
C504 C 0.21527 0.54742 0.19888 0.0
C505 C 0.20865 0.51666 0.19484 0.0
C506 C 0.19535 0.5696 0.18654 0.0
C507 C 0.16783 0.56183 0.17046 0.0
C508 C 0.16058 0.53113 0.16793 0.0
H509 H 0.03317 0.66672 0.04973 0.0
H510 H 0.05627 0.62947 0.08924 0.0
C511 C 0.18067 0.50892 0.17983 0.0
C512 C 0.14803 0.58533 0.15347 0.0
H513 H 0.11561 0.65432 0.16655 0.0
C514 C 0.13907 0.58143 0.11773 0.0
C515 C 0.13871 0.61181 0.17143 0.0
C516 C 0.14544 0.61696 0.21037 0.0
C517 C 0.12214 0.60331 0.09938 0.0
C518 C 0.11357 0.63007 0.11705 0.0
C519 C 0.12213 0.63392 0.15286 0.0
C520 C 0.0971 0.65475 0.09802 0.0
C521 C 0.11442 0.59806 0.06067 0.0
C522 C 0.11143 0.68226 0.09127 0.0
C523 C 0.09818 0.70373 0.06878 0.0
C524 C 0.07 0.69848 0.05275 0.0
C525 C 0.0546 0.67193 0.06193 0.0
C526 C 0.06804 0.6503 0.08416 0.0
H527 H 0.12747 0.57923 0.04903 0.0
H528 H 0.09019 0.59254 0.05838 0.0
H529 H 0.11869 0.61857 0.04464 0.0
H530 H 0.13374 0.68642 0.10168 0.0
H531 H 0.11087 0.7237 0.06211 0.0
H532 H 0.54593 0.79625 0.77089 0.0
H533 H 0.58595 0.83107 0.78916 0.0
H534 H 0.54424 0.83995 0.89254 0.0
H535 H 0.50345 0.80795 0.87337 0.0
H536 H 0.56458 0.8892 0.88023 0.0
H537 H 0.65782 0.81327 0.8429 0.0
H538 H 0.63625 0.82499 0.80511 0.0
H539 H 0.61918 0.80199 0.83916 0.0
C540 C 0.54511 0.80616 0.79724 0.0
C541 C 0.52115 0.79939 0.82038 0.0
C542 C 0.56838 0.82574 0.80804 0.0
C543 C 0.56907 0.83788 0.84288 0.0
C544 C 0.54473 0.83136 0.86553 0.0
H545 H 0.72178 0.88566 0.96964 0.0
H546 H 0.68558 0.86388 0.92904 0.0
C547 C 0.52112 0.81286 0.85439 0.0
C548 C 0.5947 0.85701 0.85669 0.0
H549 H 0.67123 0.86031 0.86621 0.0
C550 C 0.58788 0.88264 0.87719 0.0
C551 C 0.62544 0.84891 0.85314 0.0
C552 C 0.63514 0.82066 0.83421 0.0
C553 C 0.61016 0.89913 0.89551 0.0
C554 C 0.64092 0.89137 0.89145 0.0
C555 C 0.64789 0.86666 0.86948 0.0
C556 C 0.66578 0.90608 0.91271 0.0
C557 C 0.59996 0.92341 0.92087 0.0
C558 C 0.66851 0.93751 0.9163 0.0
C559 C 0.689 0.95024 0.94074 0.0
C560 C 0.70803 0.93188 0.96136 0.0
C561 C 0.70743 0.90073 0.9547 0.0
C562 C 0.68651 0.88808 0.93121 0.0
H563 H 0.57599 0.92066 0.92846 0.0
H564 H 0.61355 0.92342 0.94568 0.0
H565 H 0.60226 0.94558 0.90771 0.0
H566 H 0.65403 0.9523 0.90125 0.0
H567 H 0.68875 0.97428 0.94484 0.0
H568 H 0.83049 0.51693 0.17735 0.0
H569 H 0.86267 0.47576 0.15693 0.0
H570 H 0.79778 0.4116 0.19484 0.0
H571 H 0.76554 0.45247 0.21556 0.0
H572 H 0.88664 0.41825 0.19334 0.0
H573 H 0.80581 0.3997 0.08235 0.0
H574 H 0.80724 0.43446 0.10701 0.0
H575 H 0.79052 0.40182 0.12671 0.0
C576 C 0.82335 0.49408 0.18231 0.0
C577 C 0.7952 0.48829 0.19819 0.0
C578 C 0.84182 0.47049 0.17045 0.0
C579 C 0.83257 0.44048 0.17387 0.0
C580 C 0.8054 0.43452 0.19163 0.0
H581 H 0.88892 0.28174 0.05518 0.0
H582 H 0.86522 0.3141 0.09973 0.0
C583 C 0.78703 0.45805 0.20376 0.0
C584 C 0.8499 0.41571 0.15624 0.0
H585 H 0.84737 0.36751 0.08532 0.0
C586 C 0.87805 0.40706 0.16978 0.0
C587 C 0.83877 0.40096 0.12553 0.0
C588 C 0.80904 0.40969 0.10922 0.0
C589 C 0.8951 0.3839 0.15373 0.0
C590 C 0.8842 0.36943 0.12254 0.0
C591 C 0.85592 0.37817 0.10924 0.0
C592 C 0.90179 0.34607 0.10223 0.0
C593 C 0.9243 0.37481 0.17096 0.0
C594 C 0.93115 0.35187 0.08994 0.0
C595 C 0.9452 0.33259 0.06532 0.0
C596 C 0.93011 0.30726 0.05182 0.0
C597 C 0.90165 0.30038 0.06593 0.0
C598 C 0.8878 0.31934 0.09095 0.0
H599 H 0.92419 0.37979 0.2 0.0
H600 H 0.92888 0.35055 0.16722 0.0
H601 H 0.94293 0.38781 0.15879 0.0
H602 H 0.94238 0.37254 0.09708 0.0
H603 H 0.9665 0.33937 0.05387 0.0
H604 H 0.29779 0.12657 0.96077 0.0
H605 H 0.32881 0.14659 0.91351 0.0
H606 H 0.34975 0.0567 0.87887 0.0
H607 H 0.3202 0.03655 0.92882 0.0
H608 H 0.39803 0.08226 0.88128 0.0
H609 H 0.3295 0.16632 0.81384 0.0
H610 H 0.32737 0.17519 0.86022 0.0
H611 H 0.31275 0.13978 0.84416 0.0
C612 C 0.30783 0.11096 0.9421 0.0
C613 C 0.3061 0.07988 0.94854 0.0
C614 C 0.32574 0.12255 0.91468 0.0
C615 C 0.3418 0.10349 0.89167 0.0
C616 C 0.33782 0.07221 0.89598 0.0
H617 H 0.46476 0.2172 0.76191 0.0
H618 H 0.42407 0.18104 0.77366 0.0
C619 C 0.3203 0.06053 0.92419 0.0
C620 C 0.3657 0.11634 0.86733 0.0
H621 H 0.38346 0.17924 0.81912 0.0
C622 C 0.39441 0.1031 0.86703 0.0
C623 C 0.3616 0.14306 0.84718 0.0
C624 C 0.33098 0.15657 0.84106 0.0
C625 C 0.41911 0.11679 0.84991 0.0
C626 C 0.41588 0.14568 0.8343 0.0
C627 C 0.38671 0.15771 0.83197 0.0
C628 C 0.44251 0.16474 0.82357 0.0
C629 C 0.44837 0.09976 0.84884 0.0
C630 C 0.46707 0.16756 0.84685 0.0
C631 C 0.49068 0.1873 0.83951 0.0
C632 C 0.49029 0.20612 0.80927 0.0
C633 C 0.46622 0.20288 0.78517 0.0
C634 C 0.44265 0.18239 0.79222 0.0
H635 H 0.44416 0.07532 0.84588 0.0
H636 H 0.46297 0.1072 0.82652 0.0
H637 H 0.46047 0.10293 0.87444 0.0
H638 H 0.4675 0.15554 0.87191 0.0
H639 H 0.50856 0.18906 0.859 0.0
H640 H 0.7419 0.45347 0.54079 0.0
H641 H 0.70843 0.41373 0.56206 0.0
H642 H 0.64564 0.48011 0.59929 0.0
H643 H 0.67918 0.52013 0.57854 0.0
H644 H 0.69014 0.41203 0.63969 0.0
H645 H 0.5932 0.41326 0.54626 0.0
H646 H 0.6301 0.42633 0.53339 0.0
H647 H 0.60709 0.44882 0.56206 0.0
C648 C 0.72057 0.45977 0.55245 0.0
C649 C 0.71335 0.49027 0.55765 0.0
C650 C 0.70149 0.43689 0.56491 0.0
C651 C 0.67437 0.44377 0.58227 0.0
C652 C 0.66624 0.4741 0.5857 0.0
H653 H 0.53866 0.34233 0.70048 0.0
H654 H 0.5651 0.37754 0.66137 0.0
C655 C 0.68549 0.49704 0.57368 0.0
C656 C 0.65625 0.41953 0.59991 0.0
H657 H 0.5892 0.38178 0.5968 0.0
C658 C 0.66816 0.40525 0.63014 0.0
C659 C 0.62734 0.41096 0.58793 0.0
C660 C 0.61354 0.42542 0.55551 0.0
C661 C 0.6519 0.38318 0.64902 0.0
C662 C 0.62316 0.37395 0.63663 0.0
C663 C 0.61123 0.38836 0.60631 0.0
C664 C 0.60498 0.35022 0.65558 0.0
C665 C 0.66537 0.37097 0.683 0.0
C666 C 0.61746 0.32204 0.66381 0.0
C667 C 0.60243 0.30192 0.68652 0.0
C668 C 0.57405 0.30895 0.70083 0.0
C669 C 0.56025 0.33582 0.68965 0.0
C670 C 0.57557 0.35623 0.66746 0.0
H671 H 0.68231 0.38658 0.69439 0.0
H672 H 0.64784 0.36683 0.70348 0.0
H673 H 0.67693 0.34948 0.67719 0.0
H674 H 0.63954 0.31611 0.65405 0.0
H675 H 0.61383 0.28157 0.69461 0.0
H676 H 0.45772 0.28101 0.47957 0.0
H677 H 0.41548 0.31313 0.4614 0.0
H678 H 0.47503 0.36471 0.39479 0.0
H679 H 0.51709 0.33285 0.41267 0.0
H680 H 0.40556 0.38435 0.45357 0.0
H681 H 0.41116 0.3169 0.32897 0.0
H682 H 0.42708 0.30397 0.37051 0.0
H683 H 0.44604 0.33225 0.34494 0.0
C684 C 0.4621 0.30006 0.4624 0.0
C685 C 0.49092 0.30439 0.44774 0.0
C686 C 0.43782 0.31828 0.45175 0.0
C687 C 0.44196 0.34121 0.4264 0.0
C688 C 0.47119 0.34717 0.41426 0.0
H689 H 0.33125 0.46916 0.31089 0.0
H690 H 0.36341 0.44662 0.35678 0.0
C691 C 0.49531 0.32899 0.42472 0.0
C692 C 0.41574 0.35606 0.4087 0.0
H693 H 0.378 0.358 0.32929 0.0
C694 C 0.39937 0.37851 0.42648 0.0
C695 C 0.40742 0.34833 0.37344 0.0
C696 C 0.42361 0.32392 0.35325 0.0
C697 C 0.37539 0.39379 0.40958 0.0
C698 C 0.36765 0.38658 0.3739 0.0
C699 C 0.38373 0.36368 0.35658 0.0
C700 C 0.34344 0.40243 0.35331 0.0
C701 C 0.35834 0.41731 0.43013 0.0
C702 C 0.32049 0.3857 0.33693 0.0
C703 C 0.30199 0.39866 0.31088 0.0
C704 C 0.3058 0.42875 0.30052 0.0
C705 C 0.32692 0.44627 0.31915 0.0
C706 C 0.34562 0.43322 0.34521 0.0
H707 H 0.36146 0.4147 0.45937 0.0
H708 H 0.36671 0.43984 0.42242 0.0
H709 H 0.33397 0.41629 0.42396 0.0
H710 H 0.31825 0.36195 0.34246 0.0
H711 H 0.28657 0.38433 0.29637 0.0
H712 H 0.27946 0.55478 0.54315 0.0
H713 H 0.31229 0.59614 0.56085 0.0
H714 H 0.37628 0.53273 0.60292 0.0
H715 H 0.34248 0.49153 0.58713 0.0
H716 H 0.36759 0.57129 0.65033 0.0
H717 H 0.38459 0.63791 0.52796 0.0
H718 H 0.34536 0.63338 0.53698 0.0
H719 H 0.36806 0.60099 0.52684 0.0
C720 C 0.30112 0.54959 0.55477 0.0
C721 C 0.30857 0.5197 0.56302 0.0
C722 C 0.32002 0.57342 0.56506 0.0
C723 C 0.3473 0.56799 0.58306 0.0
C724 C 0.35552 0.53791 0.58918 0.0
H725 H 0.47601 0.68239 0.69863 0.0
H726 H 0.4559 0.6467 0.6549 0.0
C727 C 0.33633 0.51419 0.57969 0.0
C728 C 0.36543 0.59326 0.59917 0.0
H729 H 0.39471 0.66339 0.58351 0.0
C730 C 0.37387 0.5911 0.63531 0.0
C731 C 0.37385 0.61954 0.58009 0.0
C732 C 0.36776 0.62296 0.54074 0.0
C733 C 0.38952 0.61431 0.65284 0.0
C734 C 0.397 0.64084 0.6341 0.0
C735 C 0.38896 0.64311 0.59796 0.0
C736 C 0.41172 0.66672 0.65272 0.0
C737 C 0.39746 0.61061 0.69174 0.0
C738 C 0.39427 0.69101 0.6645 0.0
C739 C 0.40582 0.71151 0.68944 0.0
C740 C 0.4352 0.70845 0.70292 0.0
C741 C 0.45366 0.68606 0.68808 0.0
C742 C 0.44197 0.66527 0.66346 0.0
H743 H 0.38714 0.59023 0.70363 0.0
H744 H 0.42221 0.60884 0.6945 0.0
H745 H 0.39006 0.63051 0.70721 0.0
H746 H 0.37088 0.69262 0.65682 0.0
H747 H 0.39072 0.72789 0.70101 0.0
H748 H 0.55346 0.74291 0.45668 0.0
H749 H 0.59261 0.70904 0.43528 0.0
H750 H 0.52584 0.64121 0.41449 0.0
H751 H 0.48635 0.67558 0.43434 0.0
H752 H 0.61602 0.65606 0.44937 0.0
H753 H 0.56069 0.64801 0.31742 0.0
H754 H 0.54785 0.67347 0.35143 0.0
H755 H 0.53725 0.63446 0.35278 0.0
C756 C 0.54705 0.72055 0.44834 0.0
C757 C 0.51651 0.71216 0.44718 0.0
C758 C 0.5696 0.70115 0.43582 0.0
C759 C 0.56235 0.6727 0.422 0.0
C760 C 0.53215 0.66335 0.42365 0.0
H761 H 0.66858 0.53995 0.30331 0.0
H762 H 0.63392 0.56176 0.34711 0.0
C763 C 0.50952 0.68293 0.43558 0.0
C764 C 0.58607 0.65371 0.40432 0.0
H765 H 0.60332 0.61746 0.32629 0.0
C766 C 0.61312 0.64762 0.42247 0.0
C767 C 0.5828 0.64275 0.36893 0.0
C768 C 0.55575 0.65024 0.34635 0.0
C769 C 0.63654 0.63092 0.40649 0.0
C770 C 0.633 0.61979 0.37139 0.0
C771 C 0.60594 0.62555 0.35339 0.0
C772 C 0.65762 0.60394 0.35161 0.0
C773 C 0.66496 0.62523 0.42723 0.0
C774 C 0.68328 0.61978 0.34049 0.0
C775 C 0.70313 0.60728 0.31543 0.0
C776 C 0.6981 0.57847 0.30124 0.0
C777 C 0.67382 0.56168 0.31466 0.0
C778 C 0.65365 0.57438 0.33931 0.0
H779 H 0.66193 0.62956 0.45618 0.0
H780 H 0.67263 0.60174 0.42348 0.0
H781 H 0.68292 0.6403 0.4172 0.0
H782 H 0.68669 0.64275 0.34898 0.0
H783 H 0.72094 0.62121 0.30475 0.0
H784 H 0.72247 0.04648 0.72611 0.0
H785 H 0.68878 0.08724 0.70771 0.0
H786 H 0.64083 0.02597 0.63945 0.0
H787 H 0.67443 0.98545 0.65745 0.0
H788 H 0.66263 0.07456 0.60304 0.0
H789 H 0.60123 0.1135 0.7232 0.0
H790 H 0.64125 0.11056 0.72846 0.0
H791 H 0.61936 0.0773 0.72096 0.0
C792 C 0.70391 0.04137 0.70846 0.0
C793 C 0.7011 0.01252 0.69349 0.0
C794 C 0.68468 0.06484 0.69772 0.0
C795 C 0.6621 0.05988 0.67204 0.0
C796 C 0.65799 0.03056 0.65919 0.0
H797 H 0.5327 0.17323 0.55915 0.0
H798 H 0.55543 0.13718 0.6006 0.0
C799 C 0.67714 0.00726 0.66977 0.0
C800 C 0.64533 0.08541 0.65507 0.0
H801 H 0.59724 0.14401 0.67117 0.0
C802 C 0.64827 0.0896 0.61805 0.0
C803 C 0.62647 0.10522 0.67441 0.0
C804 C 0.62158 0.1014 0.71391 0.0
C805 C 0.63329 0.11293 0.60005 0.0
C806 C 0.61481 0.13299 0.61937 0.0
C807 C 0.61151 0.12877 0.65634 0.0
C808 C 0.59913 0.15833 0.60093 0.0
C809 C 0.6372 0.11596 0.56022 0.0
C810 C 0.61562 0.1831 0.58859 0.0
C811 C 0.60264 0.2039 0.5651 0.0
C812 C 0.57279 0.20045 0.55319 0.0
C813 C 0.55555 0.177 0.56801 0.0
C814 C 0.56862 0.15614 0.59157 0.0
H815 H 0.6487 0.09622 0.54839 0.0
H816 H 0.61506 0.1188 0.54703 0.0
H817 H 0.65083 0.13624 0.55439 0.0
H818 H 0.63915 0.18536 0.59542 0.0
H819 H 0.61671 0.22151 0.55424 0.0
H820 H 0.16998 0.4754 0.46282 0.0
H821 H 0.13333 0.45189 0.4228 0.0
H822 H 0.18989 0.37391 0.41406 0.0
H823 H 0.22654 0.39717 0.45424 0.0
H824 H 0.1588 0.3925 0.34717 0.0
H825 H 0.08226 0.38055 0.46357 0.0
H826 H 0.09634 0.4176 0.45454 0.0
H827 H 0.12175 0.38873 0.46863 0.0
C828 C 0.17526 0.45374 0.45135 0.0
C829 C 0.2015 0.43834 0.46172 0.0
C830 C 0.15398 0.44009 0.42879 0.0
C831 C 0.15849 0.41083 0.41576 0.0
C832 C 0.18572 0.3964 0.42378 0.0
H833 H 0.05931 0.27156 0.30185 0.0
H834 H 0.09754 0.30595 0.32418 0.0
C835 C 0.20682 0.40986 0.44662 0.0
C836 C 0.13406 0.39428 0.39636 0.0
H837 H 0.06524 0.36156 0.40881 0.0
C838 C 0.13826 0.38586 0.36058 0.0
C839 C 0.10712 0.3856 0.41366 0.0
C840 C 0.10147 0.39332 0.45228 0.0
C841 C 0.11632 0.3693 0.34166 0.0
C842 C 0.08966 0.35983 0.35925 0.0
C843 C 0.08543 0.36864 0.39498 0.0
C844 C 0.0663 0.34007 0.34187 0.0
C845 C 0.1218 0.3628 0.30273 0.0
C846 C 0.03552 0.34717 0.3442 0.0
C847 C 0.01341 0.32715 0.33183 0.0
C848 C 0.02133 0.29939 0.31649 0.0
C849 C 0.05216 0.2929 0.31271 0.0
C850 C 0.07424 0.31274 0.32554 0.0
H851 H 0.13662 0.38003 0.2905 0.0
H852 H 0.1333 0.34083 0.30017 0.0
H853 H 0.10047 0.36195 0.28744 0.0
H854 H 0.02848 0.36795 0.35661 0.0
H855 H 0.99 0.33293 0.33559 0.0
H856 H 0.46595 0.82042 0.56815 0.0
H857 H 0.44602 0.8512 0.61715 0.0
H858 H 0.35583 0.83116 0.58236 0.0
H859 H 0.37552 0.79899 0.53605 0.0
H860 H 0.42046 0.8999 0.61401 0.0
H861 H 0.3366 0.83131 0.68232 0.0
H862 H 0.3631 0.81466 0.65189 0.0
H863 H 0.32767 0.82936 0.63594 0.0
C864 C 0.44191 0.82111 0.57249 0.0
C865 C 0.42239 0.80674 0.54843 0.0
C866 C 0.43039 0.8393 0.60014 0.0
C867 C 0.39911 0.84371 0.6042 0.0
C868 C 0.37986 0.82773 0.58134 0.0
H869 H 0.31589 0.01249 0.64738 0.0
H870 H 0.34756 0.97124 0.62915 0.0
C871 C 0.39127 0.80921 0.55446 0.0
C872 C 0.38648 0.86763 0.62853 0.0
H873 H 0.32432 0.88508 0.67821 0.0
C874 C 0.39979 0.89629 0.62868 0.0
C875 C 0.35995 0.86347 0.64906 0.0
C876 C 0.34634 0.83289 0.65509 0.0
C877 C 0.3865 0.92086 0.64642 0.0
C878 C 0.35789 0.91753 0.66286 0.0
C879 C 0.34567 0.88843 0.66487 0.0
C880 C 0.33958 0.94388 0.67599 0.0
C881 C 0.40376 0.94998 0.6475 0.0
C882 C 0.32295 0.94259 0.70806 0.0
C883 C 0.30349 0.96612 0.71804 0.0
C884 C 0.30062 0.99194 0.69666 0.0
C885 C 0.31799 0.99353 0.66527 0.0
C886 C 0.33654 0.96975 0.65479 0.0
H887 H 0.42832 0.94567 0.64886 0.0
H888 H 0.39956 0.96272 0.62258 0.0
H889 H 0.39736 0.96398 0.67075 0.0
H890 H 0.32445 0.92303 0.72509 0.0
H891 H 0.29018 0.9638 0.74206 0.0
H892 H 0.80017 0.62974 0.46371 0.0
H893 H 0.83261 0.64887 0.41732 0.0
H894 H 0.85127 0.55846 0.38276 0.0
H895 H 0.82035 0.5391 0.432 0.0
H896 H 0.90019 0.58257 0.38526 0.0
H897 H 0.8345 0.66889 0.31792 0.0
H898 H 0.83248 0.6777 0.36432 0.0
H899 H 0.81683 0.64279 0.34804 0.0
C900 C 0.81011 0.61383 0.44531 0.0
C901 C 0.80727 0.58281 0.45159 0.0
C902 C 0.82881 0.62493 0.41834 0.0
C903 C 0.84457 0.60546 0.39554 0.0
C904 C 0.83962 0.57429 0.39972 0.0
H905 H 0.97069 0.71579 0.26598 0.0
H906 H 0.92887 0.6811 0.27811 0.0
C907 C 0.82131 0.56308 0.42751 0.0
C908 C 0.86897 0.61767 0.37141 0.0
H909 H 0.88875 0.68012 0.32346 0.0
C910 C 0.89726 0.60356 0.3711 0.0
C911 C 0.86576 0.64457 0.35134 0.0
C912 C 0.83559 0.65903 0.34511 0.0
C913 C 0.92239 0.61648 0.35399 0.0
C914 C 0.9201 0.6455 0.33846 0.0
C915 C 0.89133 0.65847 0.33624 0.0
C916 C 0.94731 0.66368 0.32749 0.0
C917 C 0.95102 0.59842 0.35272 0.0
C918 C 0.9723 0.66539 0.3503 0.0
C919 C 0.99658 0.68422 0.34266 0.0
C920 C 0.9965 0.70333 0.31265 0.0
C921 C 0.97193 0.70125 0.28907 0.0
C922 C 0.94771 0.68159 0.29634 0.0
H923 H 0.94593 0.57416 0.34967 0.0
H924 H 0.9658 0.60539 0.33035 0.0
H925 H 0.9633 0.60108 0.37828 0.0
H926 H 0.9726 0.65319 0.37523 0.0
H927 H 0.01478 0.68507 0.36181 0.0
H928 H 0.19935 0.38633 0.13662 0.0
H929 H 0.17942 0.33655 0.12181 0.0
H930 H 0.24594 0.29608 0.19032 0.0
H931 H 0.26411 0.34506 0.20702 0.0
H932 H 0.2025 0.29624 0.08664 0.0
H933 H 0.18153 0.24151 0.21431 0.0
H934 H 0.18762 0.28145 0.21182 0.0
H935 H 0.21887 0.25593 0.21739 0.0
C936 C 0.20894 0.36679 0.14945 0.0
C937 C 0.23329 0.36983 0.17308 0.0
C938 C 0.19764 0.33828 0.14084 0.0
C939 C 0.21073 0.3122 0.1553 0.0
C940 C 0.2344 0.31549 0.17976 0.0
H941 H 0.26914 0.16214 0.04822 0.0
H942 H 0.24932 0.21039 0.06537 0.0
C943 C 0.24511 0.34382 0.18904 0.0
C944 C 0.20301 0.28166 0.14157 0.0
H945 H 0.20348 0.2083 0.16748 0.0
C946 C 0.20183 0.27712 0.10449 0.0
C947 C 0.20066 0.25634 0.1643 0.0
C948 C 0.19684 0.25924 0.20413 0.0
C949 C 0.2017 0.24814 0.08978 0.0
C950 C 0.20464 0.22294 0.11259 0.0
C951 C 0.20241 0.22739 0.14962 0.0
C952 C 0.21388 0.19277 0.09906 0.0
C953 C 0.19894 0.24509 0.04984 0.0
C954 C 0.20134 0.16615 0.11284 0.0
C955 C 0.21358 0.13808 0.10398 0.0
C956 C 0.2383 0.13607 0.08075 0.0
C957 C 0.24981 0.16263 0.06575 0.0
C958 C 0.23816 0.1905 0.0753 0.0
H959 H 0.18321 0.26221 0.03912 0.0
H960 H 0.22114 0.24926 0.03732 0.0
H961 H 0.19075 0.22254 0.04188 0.0
H962 H 0.18271 0.16709 0.13138 0.0
H963 H 0.20426 0.11808 0.1161 0.0
H964 H 0.1571 0.76073 0.98076 0.0
H965 H 0.20821 0.77641 0.96616 0.0
H966 H 0.17609 0.81738 0.86919 0.0
H967 H 0.1247 0.80246 0.8843 0.0
H968 H 0.23174 0.75122 0.9071 0.0
H969 H 0.2434 0.87486 0.89783 0.0
H970 H 0.21318 0.85697 0.92202 0.0
H971 H 0.21158 0.85999 0.87426 0.0
C972 C 0.16077 0.77424 0.95712 0.0
C973 C 0.13699 0.78031 0.93361 0.0
C974 C 0.18999 0.78313 0.94874 0.0
C975 C 0.19607 0.79799 0.91651 0.0
C976 C 0.17196 0.80641 0.89449 0.0
H977 H 0.3536 0.76625 0.7897 0.0
H978 H 0.30333 0.78141 0.80855 0.0
C979 C 0.14254 0.79785 0.90315 0.0
C980 C 0.22747 0.79924 0.90312 0.0
H981 H 0.2826 0.84555 0.87115 0.0
C982 C 0.24287 0.77193 0.89961 0.0
C983 C 0.24197 0.82622 0.89306 0.0
C984 C 0.22682 0.85623 0.89724 0.0
C985 C 0.27216 0.77076 0.88613 0.0
C986 C 0.28645 0.79757 0.87537 0.0
C987 C 0.27138 0.82503 0.87915 0.0
C988 C 0.31728 0.79668 0.86067 0.0
C989 C 0.28773 0.74076 0.88339 0.0
C990 C 0.34192 0.80167 0.88316 0.0
C991 C 0.37076 0.79294 0.87256 0.0
C992 C 0.37532 0.77887 0.83935 0.0
C993 C 0.35093 0.7767 0.81558 0.0
C994 C 0.32214 0.78546 0.82623 0.0
H995 H 0.27506 0.72266 0.89715 0.0
H996 H 0.29014 0.73453 0.85488 0.0
H997 H 0.31061 0.74205 0.89507 0.0
H998 H 0.33854 0.81019 0.90992 0.0
H999 H 0.389 0.79514 0.89149 0.0
H1000 H 0.79335 0.62782 0.12203 0.0
H1001 H 0.81087 0.67866 0.11105 0.0
H1002 H 0.79307 0.7018 0.22075 0.0
H1003 H 0.77425 0.65108 0.23155 0.0
H1004 H 0.76366 0.737 0.17901 0.0
H1005 H 0.87952 0.7339 0.12742 0.0
H1006 H 0.85642 0.70817 0.10305 0.0
H1007 H 0.86279 0.70225 0.15003 0.0
C1008 C 0.79415 0.64336 0.14421 0.0
C1009 C 0.78205 0.63548 0.17758 0.0
C1010 C 0.80442 0.67253 0.13791 0.0
C1011 C 0.80348 0.69421 0.16507 0.0
C1012 C 0.794 0.68554 0.19932 0.0
H1013 H 0.81037 0.8898 0.13292 0.0
H1014 H 0.82695 0.8403 0.1538 0.0
C1015 C 0.78326 0.6565 0.20549 0.0
C1016 C 0.80684 0.72658 0.15609 0.0
H1017 H 0.84885 0.7764 0.10768 0.0
C1018 C 0.78274 0.74569 0.16428 0.0
C1019 C 0.83163 0.73816 0.13671 0.0
C1020 C 0.85916 0.71954 0.12916 0.0
C1021 C 0.78194 0.77535 0.15203 0.0
C1022 C 0.80568 0.7862 0.13064 0.0
C1023 C 0.83056 0.76782 0.12382 0.0
C1024 C 0.80306 0.81573 0.11299 0.0
C1025 C 0.75499 0.7946 0.1606 0.0
C1026 C 0.78529 0.81817 0.08228 0.0
C1027 C 0.77563 0.84624 0.07051 0.0
C1028 C 0.78374 0.87237 0.08915 0.0
C1029 C 0.80397 0.87009 0.11785 0.0
C1030 C 0.81342 0.84185 0.12986 0.0
H1031 H 0.74029 0.78417 0.18109 0.0
H1032 H 0.76231 0.81696 0.17031 0.0
H1033 H 0.74156 0.79812 0.13601 0.0
H1034 H 0.77699 0.79821 0.06905 0.0
H1035 H 0.76013 0.84734 0.04827 0.0
H1036 H 0.85532 0.23889 0.97586 0.0
H1037 H 0.80404 0.22216 0.96359 0.0
H1038 H 0.82734 0.20847 0.8531 0.0
H1039 H 0.87873 0.22389 0.86549 0.0
H1040 H 0.76884 0.25316 0.92365 0.0
H1041 H 0.77177 0.13967 0.86548 0.0
H1042 H 0.80351 0.1554 0.88892 0.0
H1043 H 0.79747 0.16374 0.8424 0.0
C1044 C 0.84976 0.23127 0.94923 0.0
C1045 C 0.87109 0.23288 0.92163 0.0
C1046 C 0.8204 0.22175 0.94221 0.0
C1047 C 0.81166 0.21388 0.90741 0.0
C1048 C 0.83349 0.21362 0.88035 0.0
H1049 H 0.65814 0.25741 0.79018 0.0
H1050 H 0.70718 0.24033 0.81124 0.0
C1051 C 0.86298 0.22267 0.88746 0.0
C1052 C 0.77922 0.21103 0.89824 0.0
H1053 H 0.72905 0.17089 0.8481 0.0
C1054 C 0.76006 0.2347 0.90795 0.0
C1055 C 0.76753 0.18705 0.87761 0.0
C1056 C 0.78614 0.15991 0.86837 0.0
C1057 C 0.73024 0.23588 0.89609 0.0
C1058 C 0.71923 0.21295 0.87366 0.0
C1059 C 0.73773 0.18854 0.86514 0.0
C1060 C 0.68948 0.21606 0.85651 0.0
C1061 C 0.71096 0.26239 0.90621 0.0
C1062 C 0.66325 0.20687 0.87418 0.0
C1063 C 0.63506 0.21643 0.86201 0.0
C1064 C 0.63291 0.23564 0.83233 0.0
C1065 C 0.65912 0.24269 0.81315 0.0
C1066 C 0.68714 0.23291 0.82509 0.0
H1067 H 0.72219 0.27731 0.92585 0.0
H1068 H 0.70564 0.27569 0.88199 0.0
H1069 H 0.68938 0.25451 0.91773 0.0
H1070 H 0.66472 0.19406 0.89867 0.0
H1071 H 0.6153 0.21087 0.87752 0.0
H1072 H 0.69627 0.88565 0.64972 0.0
H1073 H 0.67516 0.83597 0.63633 0.0
H1074 H 0.75105 0.79437 0.688 0.0
H1075 H 0.77107 0.84307 0.70295 0.0
H1076 H 0.69555 0.79617 0.59452 0.0
H1077 H 0.68928 0.73984 0.72364 0.0
H1078 H 0.6943 0.77992 0.72061 0.0
H1079 H 0.72635 0.75501 0.72066 0.0
C1080 C 0.70787 0.86586 0.65922 0.0
C1081 C 0.73545 0.86846 0.67731 0.0
C1082 C 0.69586 0.83743 0.6514 0.0
C1083 C 0.71117 0.81116 0.66161 0.0
C1084 C 0.73807 0.81398 0.68081 0.0
H1085 H 0.76106 0.66289 0.54729 0.0
H1086 H 0.74132 0.71083 0.56595 0.0
C1087 C 0.74979 0.84211 0.68898 0.0
C1088 C 0.70181 0.78091 0.64862 0.0
H1089 H 0.70551 0.70735 0.67313 0.0
C1090 C 0.69685 0.7768 0.61194 0.0
C1091 C 0.70208 0.75537 0.67112 0.0
C1092 C 0.70291 0.75793 0.71123 0.0
C1093 C 0.69561 0.74796 0.59685 0.0
C1094 C 0.70096 0.72255 0.61871 0.0
C1095 C 0.70243 0.72661 0.65586 0.0
C1096 C 0.70918 0.69262 0.60364 0.0
C1097 C 0.68924 0.74526 0.55747 0.0
C1098 C 0.69823 0.66582 0.61871 0.0
C1099 C 0.7104 0.638 0.60881 0.0
C1100 C 0.73355 0.63639 0.58333 0.0
C1101 C 0.74308 0.66306 0.56675 0.0
C1102 C 0.73146 0.69075 0.57719 0.0
H1103 H 0.67251 0.76234 0.54907 0.0
H1104 H 0.71015 0.74971 0.54224 0.0
H1105 H 0.68057 0.7227 0.5503 0.0
H1106 H 0.68112 0.66648 0.63923 0.0
H1107 H 0.70253 0.61793 0.62214 0.0
H1108 H 0.88688 0.29475 0.38776 0.0
H1109 H 0.83579 0.30905 0.40455 0.0
H1110 H 0.80316 0.27872 0.3026 0.0
H1111 H 0.85406 0.2643 0.2854 0.0
H1112 H 0.78055 0.34322 0.36512 0.0
H1113 H 0.77338 0.22009 0.38951 0.0
H1114 H 0.80884 0.23968 0.38794 0.0
H1115 H 0.78869 0.23225 0.34748 0.0
C1116 C 0.86907 0.29206 0.36834 0.0
C1117 C 0.87456 0.27778 0.33546 0.0
C1118 C 0.83986 0.30035 0.37801 0.0
C1119 C 0.81576 0.29468 0.35492 0.0
C1120 C 0.82154 0.28325 0.32077 0.0
H1121 H 0.62219 0.29878 0.37812 0.0
H1122 H 0.67343 0.31368 0.3619 0.0
C1123 C 0.85068 0.27494 0.31105 0.0
C1124 C 0.7846 0.29522 0.36872 0.0
H1125 H 0.72973 0.24831 0.39895 0.0
C1126 C 0.76932 0.32257 0.37259 0.0
C1127 C 0.77029 0.26823 0.37879 0.0
C1128 C 0.78605 0.23832 0.37601 0.0
C1129 C 0.73974 0.32347 0.38601 0.0
C1130 C 0.72529 0.29633 0.39554 0.0
C1131 C 0.74083 0.26913 0.3918 0.0
C1132 C 0.69399 0.29488 0.40921 0.0
C1133 C 0.72435 0.35333 0.39037 0.0
C1134 C 0.68833 0.28035 0.44174 0.0
C1135 C 0.65923 0.27155 0.45079 0.0
C1136 C 0.63513 0.27733 0.42762 0.0
C1137 C 0.64029 0.29443 0.39671 0.0
C1138 C 0.66961 0.30295 0.38741 0.0
H1139 H 0.7407 0.37217 0.39042 0.0
H1140 H 0.70859 0.35679 0.36781 0.0
H1141 H 0.71117 0.35399 0.4155 0.0
H1142 H 0.70676 0.2739 0.45898 0.0
H1143 H 0.65587 0.25836 0.47474 0.0
H1144 H 0.29125 0.12849 0.62315 0.0
H1145 H 0.30789 0.17942 0.61091 0.0
H1146 H 0.28758 0.20474 0.7193 0.0
H1147 H 0.26973 0.15388 0.7314 0.0
H1148 H 0.25872 0.2388 0.67525 0.0
H1149 H 0.37597 0.23539 0.62818 0.0
H1150 H 0.35361 0.20893 0.60393 0.0
H1151 H 0.35885 0.20421 0.65129 0.0
C1152 C 0.2912 0.14458 0.64479 0.0
C1153 C 0.27877 0.13717 0.67816 0.0
C1154 C 0.301 0.17379 0.63778 0.0
C1155 C 0.29922 0.19605 0.66419 0.0
C1156 C 0.28918 0.18801 0.69844 0.0
H1157 H 0.3097 0.39075 0.62798 0.0
H1158 H 0.32518 0.34101 0.64911 0.0
C1159 C 0.27898 0.15889 0.70535 0.0
C1160 C 0.30257 0.22822 0.65433 0.0
H1161 H 0.34577 0.27743 0.6065 0.0
C1162 C 0.27814 0.24733 0.66103 0.0
C1163 C 0.32784 0.23958 0.63567 0.0
C1164 C 0.35565 0.22097 0.62972 0.0
C1165 C 0.27758 0.27677 0.64805 0.0
C1166 C 0.30188 0.28737 0.62735 0.0
C1167 C 0.32702 0.26901 0.62203 0.0
C1168 C 0.29984 0.31677 0.60926 0.0
C1169 C 0.25041 0.29608 0.65531 0.0
C1170 C 0.28172 0.31945 0.57888 0.0
C1171 C 0.27274 0.34768 0.5669 0.0
C1172 C 0.28183 0.37373 0.58505 0.0
C1173 C 0.30249 0.37111 0.61329 0.0
C1174 C 0.31131 0.34272 0.62547 0.0
H1175 H 0.23569 0.28632 0.67624 0.0
H1176 H 0.2574 0.3189 0.6638 0.0
H1177 H 0.23708 0.29842 0.63045 0.0
H1178 H 0.27264 0.29962 0.56611 0.0
H1179 H 0.2569 0.34901 0.54502 0.0
H1180 H 0.16904 0.76801 0.30037 0.0
H1181 H 0.21691 0.74562 0.31468 0.0
H1182 H 0.17189 0.67028 0.36343 0.0
H1183 H 0.12318 0.69365 0.35057 0.0
H1184 H 0.21157 0.68909 0.40676 0.0
H1185 H 0.26991 0.6824 0.27894 0.0
H1186 H 0.25568 0.71979 0.28193 0.0
H1187 H 0.22986 0.68845 0.2811 0.0
C1188 C 0.16909 0.74635 0.31347 0.0
C1189 C 0.14214 0.73284 0.32464 0.0
C1190 C 0.19671 0.73328 0.32127 0.0
C1191 C 0.19828 0.70588 0.33963 0.0
C1192 C 0.17135 0.69134 0.34904 0.0
H1193 H 0.39021 0.69697 0.38297 0.0
H1194 H 0.34229 0.67401 0.36605 0.0
C1195 C 0.14349 0.70467 0.34156 0.0
C1196 C 0.22795 0.69535 0.35309 0.0
H1197 H 0.30199 0.69803 0.3304 0.0
C1198 C 0.23129 0.6901 0.38983 0.0
C1199 C 0.25386 0.69522 0.3312 0.0
C1200 C 0.25197 0.6964 0.29106 0.0
C1201 C 0.25985 0.68849 0.40563 0.0
C1202 C 0.28568 0.69366 0.38442 0.0
C1203 C 0.28237 0.69509 0.34717 0.0
C1204 C 0.31519 0.70233 0.40023 0.0
C1205 C 0.26182 0.68223 0.44509 0.0
C1206 C 0.31628 0.72518 0.426 0.0
C1207 C 0.3436 0.73779 0.43629 0.0
C1208 C 0.37061 0.7286 0.42022 0.0
C1209 C 0.36982 0.70466 0.39579 0.0
C1210 C 0.34238 0.69157 0.38601 0.0
H1211 H 0.24459 0.66548 0.45306 0.0
H1212 H 0.28429 0.67369 0.4529 0.0
H1213 H 0.25701 0.70313 0.46012 0.0
H1214 H 0.29584 0.73482 0.4366 0.0
H1215 H 0.3432 0.75628 0.45503 0.0
H1216 H 0.27912 0.97085 0.16006 0.0
H1217 H 0.30236 0.93309 0.19864 0.0
H1218 H 0.37565 0.92394 0.12434 0.0
H1219 H 0.35279 0.96163 0.08564 0.0
H1220 H 0.32124 0.8712 0.18115 0.0
H1221 H 0.41559 0.94578 0.222 0.0
H1222 H 0.38148 0.96016 0.20236 0.0
H1223 H 0.40888 0.94178 0.17493 0.0
C1224 C 0.30007 0.96068 0.15177 0.0
C1225 C 0.3141 0.96938 0.11978 0.0
C1226 C 0.3133 0.9391 0.17383 0.0
C1227 C 0.34087 0.92604 0.16449 0.0
C1228 C 0.35455 0.93405 0.1322 0.0
H1229 H 0.4538 0.81217 0.30239 0.0
H1230 H 0.43563 0.83886 0.24917 0.0
C1231 C 0.34131 0.9555 0.11005 0.0
C1232 C 0.35559 0.90453 0.189 0.0
H1233 H 0.41449 0.89732 0.2467 0.0
C1234 C 0.34174 0.87678 0.19532 0.0
C1235 C 0.38252 0.91178 0.20707 0.0
C1236 C 0.39802 0.94154 0.20157 0.0
C1237 C 0.35379 0.85628 0.21986 0.0
C1238 C 0.37998 0.86407 0.23918 0.0
C1239 C 0.39446 0.89136 0.23183 0.0
C1240 C 0.39075 0.84586 0.26974 0.0
C1241 C 0.33822 0.82653 0.22503 0.0
C1242 C 0.37165 0.84111 0.2989 0.0
C1243 C 0.38187 0.82602 0.32906 0.0
C1244 C 0.4116 0.81543 0.33102 0.0
C1245 C 0.43073 0.81984 0.30161 0.0
C1246 C 0.42041 0.83512 0.27127 0.0
H1247 H 0.32571 0.81978 0.20068 0.0
H1248 H 0.35447 0.80855 0.2319 0.0
H1249 H 0.32174 0.82853 0.2471 0.0
H1250 H 0.34895 0.84984 0.29876 0.0
H1251 H 0.36648 0.82315 0.35118 0.0
H1252 H 0.80802 0.64134 0.65888 0.0
H1253 H 0.83869 0.66207 0.70688 0.0
H1254 H 0.87079 0.57335 0.73241 0.0
H1255 H 0.83895 0.55225 0.68497 0.0
H1256 H 0.86318 0.60809 0.79248 0.0
H1257 H 0.92792 0.67051 0.69059 0.0
H1258 H 0.88873 0.67961 0.68931 0.0
H1259 H 0.90084 0.64205 0.67903 0.0
C1260 C 0.82123 0.62619 0.67515 0.0
C1261 C 0.82145 0.59526 0.66807 0.0
C1262 C 0.83887 0.63807 0.70239 0.0
C1263 C 0.85775 0.61938 0.72244 0.0
C1264 C 0.85659 0.5882 0.71699 0.0
H1265 H 0.01531 0.691 0.82869 0.0
H1266 H 0.98027 0.66439 0.79 0.0
C1267 C 0.83839 0.57616 0.69002 0.0
C1268 C 0.8799 0.63281 0.74732 0.0
H1269 H 0.9365 0.68436 0.75102 0.0
C1270 C 0.87936 0.62464 0.78346 0.0
C1271 C 0.90149 0.65387 0.73534 0.0
C1272 C 0.90505 0.66179 0.69639 0.0
C1273 C 0.89928 0.63763 0.80814 0.0
C1274 C 0.91966 0.66 0.79644 0.0
C1275 C 0.92061 0.66756 0.76013 0.0
C1276 C 0.94077 0.67551 0.82098 0.0
C1277 C 0.89868 0.62681 0.84626 0.0
C1278 C 0.93026 0.691 0.85114 0.0
C1279 C 0.95037 0.70603 0.87359 0.0
C1280 C 0.98126 0.70641 0.86582 0.0
C1281 C 0.99161 0.69141 0.83523 0.0
C1282 C 0.97161 0.67605 0.81316 0.0
H1283 H 0.88893 0.60392 0.84832 0.0
H1284 H 0.92157 0.6265 0.858 0.0
H1285 H 0.88446 0.64211 0.86235 0.0
H1286 H 0.9065 0.6917 0.85717 0.0
H1287 H 0.94171 0.71748 0.8969 0.0
H1288 H 0.71638 0.00488 0.1917 0.0
H1289 H 0.69487 0.04245 0.23124 0.0
H1290 H 0.68853 0.10473 0.14358 0.0
H1291 H 0.70987 0.06696 0.10334 0.0
H1292 H 0.71535 0.10094 0.24729 0.0
H1293 H 0.60216 0.10109 0.18399 0.0
H1294 H 0.6294 0.07198 0.17553 0.0
H1295 H 0.63367 0.10817 0.15518 0.0
C1296 C 0.71059 0.02658 0.18069 0.0
C1297 C 0.71476 0.03285 0.14425 0.0
C1298 C 0.6983 0.04804 0.20341 0.0
C1299 C 0.68979 0.07619 0.19024 0.0
C1300 C 0.69454 0.08293 0.15411 0.0
H1301 H 0.5975 0.21607 0.31354 0.0
H1302 H 0.62316 0.18952 0.26513 0.0
C1303 C 0.7069 0.06139 0.13124 0.0
C1304 C 0.67563 0.09803 0.21472 0.0
H1305 H 0.60871 0.13144 0.23474 0.0
C1306 C 0.69213 0.10786 0.24439 0.0
C1307 C 0.64535 0.10703 0.21075 0.0
C1308 C 0.62642 0.09644 0.17982 0.0
C1309 C 0.67892 0.12588 0.2707 0.0
C1310 C 0.64834 0.13388 0.26745 0.0
C1311 C 0.63215 0.12511 0.23711 0.0
C1312 C 0.63237 0.14982 0.29637 0.0
C1313 C 0.6977 0.13594 0.30199 0.0
C1314 C 0.62856 0.13595 0.32963 0.0
C1315 C 0.61386 0.15091 0.35726 0.0
C1316 C 0.60266 0.18009 0.35212 0.0
C1317 C 0.606 0.19369 0.31845 0.0
C1318 C 0.62063 0.1786 0.29076 0.0
H1319 H 0.7221 0.1348 0.29593 0.0
H1320 H 0.69197 0.15924 0.30989 0.0
H1321 H 0.69319 0.12102 0.32508 0.0
H1322 H 0.637 0.11349 0.33422 0.0
H1323 H 0.61152 0.13967 0.38272 0.0
H1324 H 0.04813 0.34617 0.9122 0.0
H1325 H 0.08508 0.36725 0.8709 0.0
H1326 H 0.06934 0.29418 0.79794 0.0
H1327 H 0.03277 0.27263 0.83919 0.0
H1328 H 0.13031 0.30957 0.80465 0.0
H1329 H 0.05873 0.40937 0.77877 0.0
H1330 H 0.06802 0.40311 0.82479 0.0
H1331 H 0.04489 0.3765 0.80153 0.0
C1332 C 0.05275 0.33437 0.88756 0.0
C1333 C 0.03725 0.30782 0.87889 0.0
C1334 C 0.07376 0.34656 0.86391 0.0
C1335 C 0.07953 0.33255 0.83111 0.0
C1336 C 0.0651 0.30541 0.82306 0.0
H1337 H 0.14408 0.40368 0.6336 0.0
H1338 H 0.11646 0.38227 0.68362 0.0
C1339 C 0.04414 0.29317 0.84667 0.0
C1340 C 0.0995 0.34675 0.80434 0.0
H1341 H 0.10571 0.40784 0.7499 0.0
C1342 C 0.12509 0.33114 0.7928 0.0
C1343 C 0.09236 0.37472 0.78865 0.0
C1344 C 0.06439 0.39186 0.79876 0.0
C1345 C 0.14366 0.34268 0.76575 0.0
C1346 C 0.13659 0.37073 0.75025 0.0
C1347 C 0.11117 0.38644 0.76206 0.0
C1348 C 0.15406 0.38336 0.72012 0.0
C1349 C 0.17004 0.3243 0.75311 0.0
C1350 C 0.1844 0.39129 0.7241 0.0
C1351 C 0.20039 0.40353 0.69541 0.0
C1352 C 0.18624 0.40816 0.6623 0.0
C1353 C 0.15577 0.40035 0.65861 0.0
C1354 C 0.13989 0.38814 0.68722 0.0
H1355 H 0.16865 0.30067 0.76238 0.0
H1356 H 0.17146 0.32445 0.72354 0.0
H1357 H 0.19109 0.33418 0.76374 0.0
H1358 H 0.19562 0.38828 0.74947 0.0
H1359 H 0.22377 0.40945 0.69922 0.0
H1360 H 0.45152 0.69364 0.95161 0.0
H1361 H 0.43052 0.66584 1.00236 0.0
H1362 H 0.3514 0.64542 0.94062 0.0
H1363 H 0.37171 0.67331 0.89038 0.0
H1364 H 0.33829 0.66441 0.00933 0.0
H1365 H 0.42473 0.57429 0.00906 0.0
H1366 H 0.43875 0.61196 0.01283 0.0
H1367 H 0.42044 0.60025 0.97248 0.0
C1368 C 0.42963 0.68327 0.94892 0.0
C1369 C 0.41337 0.68564 0.91689 0.0
C1370 C 0.41774 0.66729 0.97785 0.0
C1371 C 0.38956 0.6533 0.97505 0.0
C1372 C 0.37319 0.65603 0.94333 0.0
H1373 H 0.2723 0.53279 0.08752 0.0
H1374 H 0.29515 0.5696 0.04733 0.0
C1375 C 0.38494 0.67196 0.91457 0.0
C1376 C 0.37682 0.63547 0.00476 0.0
H1377 H 0.38656 0.57091 0.05228 0.0
C1378 C 0.34891 0.64406 0.01892 0.0
C1379 C 0.39074 0.60893 0.01712 0.0
C1380 C 0.4202 0.59807 1.00198 0.0
C1381 C 0.33436 0.62661 0.04485 0.0
C1382 C 0.34793 0.59972 0.05653 0.0
C1383 C 0.37621 0.59155 0.04314 0.0
C1384 C 0.33288 0.57919 0.08191 0.0
C1385 C 0.30463 0.63711 0.05955 0.0
C1386 C 0.34663 0.57229 0.11448 0.0
C1387 C 0.33372 0.55128 0.13741 0.0
C1388 C 0.30686 0.53653 0.12808 0.0
C1389 C 0.29286 0.54385 0.09562 0.0
C1390 C 0.30581 0.56498 0.0727 0.0
H1391 H 0.30124 0.66151 0.05514 0.0
H1392 H 0.2862 0.62495 0.04585 0.0
H1393 H 0.30294 0.63238 0.08856 0.0
H1394 H 0.36762 0.58289 0.12195 0.0
H1395 H 0.34526 0.54611 0.16209 0.0
H1396 H 0.69847 0.55723 0.05557 0.0
H1397 H 0.6713 0.57596 0.00309 0.0
H1398 H 0.65921 0.66139 0.05503 0.0
H1399 H 0.68645 0.64323 0.10692 0.0
H1400 H 0.61241 0.59614 1.00179 0.0
H1401 H 0.6887 0.68655 0.95703 0.0
H1402 H 0.70046 0.65748 0.98753 0.0
H1403 H 0.67989 0.68951 0.00357 0.0
C1404 C 0.69047 0.58017 0.0555 0.0
C1405 C 0.69477 0.59876 0.0854 0.0
C1406 C 0.6749 0.5908 0.02557 0.0
C1407 C 0.66369 0.62025 0.02491 0.0
C1408 C 0.66829 0.63886 0.05454 0.0
H1409 H 0.53858 0.7318 0.91607 0.0
H1410 H 0.57639 0.70827 0.95419 0.0
C1411 C 0.68372 0.6283 0.08436 0.0
C1412 C 0.64519 0.63115 0.99466 0.0
H1413 H 0.63742 0.6899 0.93692 0.0
C1414 C 0.61811 0.61631 0.98709 0.0
C1415 C 0.65267 0.6575 0.97557 0.0
C1416 C 0.68217 0.67351 0.98107 0.0
C1417 C 0.59758 0.628 0.96228 0.0
C1418 C 0.60454 0.65504 0.94433 0.0
C1419 C 0.63208 0.66928 0.95092 0.0
C1420 C 0.58279 0.66971 0.92005 0.0
C1421 C 0.568 0.61215 0.95667 0.0
C1422 C 0.57431 0.65606 0.88789 0.0
C1423 C 0.55274 0.66947 0.86597 0.0
C1424 C 0.53926 0.6968 0.87583 0.0
C1425 C 0.5484 0.71073 0.9077 0.0
C1426 C 0.57004 0.69735 0.92951 0.0
H1427 H 0.56387 0.59463 0.97718 0.0
H1428 H 0.54914 0.62842 0.95724 0.0
H1429 H 0.56804 0.60118 0.93011 0.0
H1430 H 0.5842 0.63491 0.87991 0.0
H1431 H 0.54626 0.65811 0.84163 0.0
H1432 H 0.61353 0.29728 0.92984 0.0
H1433 H 0.63535 0.32644 0.97853 0.0
H1434 H 0.6062 0.40831 0.92783 0.0
H1435 H 0.58553 0.37925 0.87817 0.0
H1436 H 0.66104 0.41444 0.95108 0.0
H1437 H 0.59317 0.36514 0.05997 0.0
H1438 H 0.6139 0.33711 0.03618 0.0
H1439 H 0.58508 0.35817 0.0136 0.0
C1440 C 0.61164 0.3215 0.92919 0.0
C1441 C 0.59769 0.33603 0.90035 0.0
C1442 C 0.62394 0.33813 0.95716 0.0
C1443 C 0.62179 0.36954 0.95732 0.0
C1444 C 0.60799 0.38409 0.9284 0.0
H1445 H 0.65236 0.484 0.1403 0.0
H1446 H 0.6314 0.45199 0.09365 0.0
C1447 C 0.59619 0.36749 0.90006 0.0
C1448 C 0.63477 0.38733 0.98701 0.0
H1449 H 0.63519 0.39486 0.07762 0.0
C1450 C 0.65525 0.41026 0.97874 0.0
C1451 C 0.62689 0.38219 0.02309 0.0
C1452 C 0.60332 0.35954 0.03373 0.0
C1453 C 0.66821 0.42805 0.00548 0.0
C1454 C 0.66143 0.42195 0.04166 0.0
C1455 C 0.64076 0.3992 0.04993 0.0
C1456 C 0.67452 0.43977 0.07123 0.0
C1457 C 0.6883 0.45374 0.99449 0.0
C1458 C 0.70578 0.44285 0.07485 0.0
C1459 C 0.7178 0.46155 0.10113 0.0
C1460 C 0.69876 0.47681 0.12486 0.0
C1461 C 0.66757 0.4724 0.12246 0.0
C1462 C 0.65557 0.45417 0.09576 0.0
H1463 H 0.68394 0.46078 0.96654 0.0
H1464 H 0.68514 0.47348 0.01214 0.0
H1465 H 0.7121 0.44653 0.9962 0.0
H1466 H 0.72089 0.43116 0.057 0.0
H1467 H 0.74195 0.46426 0.1027 0.0
H1468 H 0.43881 0.31111 0.83747 0.0
H1469 H 0.40079 0.33726 0.87303 0.0
H1470 H 0.46122 0.3387 0.96286 0.0
H1471 H 0.49936 0.31302 0.92765 0.0
H1472 H 0.37347 0.32053 0.93638 0.0
H1473 H 0.43632 0.42652 0.95409 0.0
H1474 H 0.44664 0.39881 0.92117 0.0
H1475 H 0.45808 0.39443 0.96692 0.0
C1476 C 0.44399 0.31693 0.86483 0.0
C1477 C 0.47218 0.31 0.87967 0.0
C1478 C 0.42226 0.33195 0.88504 0.0
C1479 C 0.42845 0.34049 0.9203 0.0
C1480 C 0.45627 0.333 0.9354 0.0
H1481 H 0.32739 0.36894 0.10529 0.0
H1482 H 0.35348 0.35109 0.0525 0.0
C1483 C 0.47796 0.31804 0.91529 0.0
C1484 C 0.40562 0.35633 0.94202 0.0
H1485 H 0.39628 0.41726 0.99598 0.0
C1486 C 0.37821 0.34193 0.94894 0.0
C1487 C 0.41152 0.38458 0.95775 0.0
C1488 C 0.43961 0.40215 0.94931 0.0
C1489 C 0.35745 0.35405 0.97312 0.0
C1490 C 0.36456 0.38098 0.99122 0.0
C1491 C 0.39101 0.39642 0.98242 0.0
C1492 C 0.34664 0.3917 0.02198 0.0
C1493 C 0.32839 0.33752 0.97968 0.0
C1494 C 0.33454 0.42079 0.02268 0.0
C1495 C 0.3196 0.43125 0.05315 0.0
C1496 C 0.31692 0.41287 0.08349 0.0
C1497 C 0.32893 0.38371 0.08243 0.0
C1498 C 0.34367 0.37331 0.05209 0.0
H1499 H 0.32176 0.32403 0.95604 0.0
H1500 H 0.33139 0.32187 1.00241 0.0
H1501 H 0.30988 0.35325 0.98627 0.0
H1502 H 0.33692 0.43545 0.99982 0.0
H1503 H 0.31077 0.45388 0.05322 0.0
H1504 H 0.85231 0.46412 0.58877 0.0
H1505 H 0.87472 0.42648 0.62798 0.0
H1506 H 0.79999 0.43512 0.70037 0.0
H1507 H 0.77719 0.47254 0.66121 0.0
H1508 H 0.89194 0.43535 0.69852 0.0
H1509 H 0.80771 0.3442 0.68901 0.0
H1510 H 0.8095 0.37464 0.6573 0.0
H1511 H 0.79156 0.37993 0.69982 0.0
C1512 C 0.84036 0.45771 0.61275 0.0
C1513 C 0.81284 0.47132 0.62175 0.0
C1514 C 0.85328 0.43623 0.63517 0.0
C1515 C 0.83886 0.42771 0.66685 0.0
C1516 C 0.81121 0.4409 0.67568 0.0
H1517 H 0.87037 0.33405 0.85953 0.0
H1518 H 0.85236 0.36121 0.80753 0.0
C1519 C 0.79829 0.46244 0.65333 0.0
C1520 C 0.85355 0.40652 0.69187 0.0
H1521 H 0.84229 0.34136 0.73781 0.0
C1522 C 0.88135 0.41455 0.70675 0.0
C1523 C 0.83972 0.37938 0.70243 0.0
C1524 C 0.81061 0.36883 0.68607 0.0
C1525 C 0.89494 0.39696 0.73333 0.0
C1526 C 0.88054 0.37036 0.74483 0.0
C1527 C 0.85328 0.36178 0.72897 0.0
C1528 C 0.89184 0.35267 0.77554 0.0
C1529 C 0.92379 0.40774 0.75014 0.0
C1530 C 0.91999 0.33843 0.77472 0.0
C1531 C 0.93053 0.32279 0.80467 0.0
C1532 C 0.91298 0.32108 0.83583 0.0
C1533 C 0.88457 0.33491 0.83611 0.0
C1534 C 0.87414 0.35044 0.80632 0.0
H1535 H 0.92895 0.43137 0.74294 0.0
H1536 H 0.92261 0.40594 0.77964 0.0
H1537 H 0.94264 0.39349 0.74082 0.0
H1538 H 0.93383 0.3395 0.751 0.0
H1539 H 0.95246 0.31235 0.80355 0.0
H1540 H 0.33711 0.13669 0.14142 0.0
H1541 H 0.36359 0.1556 0.19336 0.0
H1542 H 0.34513 0.07331 0.24974 0.0
H1543 H 0.31855 0.05374 0.19714 0.0
H1544 H 0.34332 0.16423 0.2638 0.0
H1545 H 0.43762 0.08245 0.25508 0.0
H1546 H 0.41155 0.08808 0.21884 0.0
H1547 H 0.40016 0.06743 0.25763 0.0
C1548 C 0.33852 0.12247 0.16479 0.0
C1549 C 0.32581 0.09356 0.165 0.0
C1550 C 0.35361 0.13344 0.19456 0.0
C1551 C 0.35651 0.11581 0.22527 0.0
C1552 C 0.3434 0.08714 0.22608 0.0
H1553 H 0.44219 0.19964 0.41271 0.0
H1554 H 0.40554 0.1731 0.37563 0.0
C1555 C 0.32814 0.07606 0.19611 0.0
C1556 C 0.37415 0.12773 0.25561 0.0
H1557 H 0.44192 0.12097 0.29738 0.0
C1558 C 0.36467 0.15456 0.27164 0.0
C1559 C 0.4021 0.11514 0.2654 0.0
C1560 C 0.41372 0.08679 0.2483 0.0
C1561 C 0.38292 0.16981 0.2962 0.0
C1562 C 0.41121 0.15763 0.30527 0.0
C1563 C 0.42018 0.13019 0.29031 0.0
C1564 C 0.43289 0.17412 0.32794 0.0
C1565 C 0.3725 0.19958 0.31079 0.0
C1566 C 0.46045 0.1833 0.31347 0.0
C1567 C 0.48145 0.19837 0.33453 0.0
C1568 C 0.47532 0.20453 0.37058 0.0
C1569 C 0.44751 0.19554 0.38495 0.0
C1570 C 0.42652 0.18038 0.36382 0.0
H1571 H 0.35282 0.20849 0.29597 0.0
H1572 H 0.36591 0.19678 0.33914 0.0
H1573 H 0.39088 0.2164 0.30964 0.0
H1574 H 0.46578 0.17869 0.28581 0.0
H1575 H 0.50266 0.2048 0.32261 0.0
H1576 H 0.105 0.72006 0.81705 0.0
H1577 H 0.13018 0.69288 0.76879 0.0
H1578 H 0.1395 0.61557 0.83697 0.0
H1579 H 0.11458 0.64241 0.88533 0.0
H1580 H 0.19341 0.63412 0.79965 0.0
H1581 H 0.09412 0.6218 0.71043 0.0
H1582 H 0.10243 0.65892 0.72647 0.0
H1583 H 0.0905 0.63051 0.75727 0.0
C1584 C 0.11235 0.69725 0.82176 0.0
C1585 C 0.10778 0.68342 0.85508 0.0
C1586 C 0.12661 0.68175 0.79412 0.0
C1587 C 0.13645 0.6522 0.79933 0.0
C1588 C 0.13202 0.63838 0.83249 0.0
H1589 H 0.21889 0.50512 0.69393 0.0
H1590 H 0.19936 0.54268 0.73501 0.0
C1591 C 0.11773 0.65377 0.86007 0.0
C1592 C 0.15176 0.63553 0.77053 0.0
H1593 H 0.13971 0.60098 0.69061 0.0
C1594 C 0.18178 0.62704 0.77566 0.0
C1595 C 0.13651 0.62658 0.73923 0.0
C1596 C 0.10405 0.63468 0.73289 0.0
C1597 C 0.19684 0.60926 0.75056 0.0
C1598 C 0.18125 0.59929 0.71993 0.0
C1599 C 0.15156 0.60867 0.71417 0.0
C1600 C 0.19455 0.5773 0.69498 0.0
C1601 C 0.22927 0.60116 0.75715 0.0
C1602 C 0.19787 0.58418 0.65868 0.0
C1603 C 0.20897 0.56267 0.63496 0.0
C1604 C 0.21667 0.53383 0.64717 0.0
C1605 C 0.21341 0.52715 0.68363 0.0
C1606 C 0.20239 0.54865 0.70724 0.0
H1607 H 0.24033 0.61757 0.77518 0.0
H1608 H 0.23034 0.57881 0.7701 0.0
H1609 H 0.24209 0.60009 0.73178 0.0
H1610 H 0.19168 0.60613 0.64869 0.0
H1611 H 0.21103 0.56848 0.60702 0.0
H1612 H 0.642 0.92292 0.14106 0.0
H1613 H 0.61257 0.90229 0.19023 0.0
H1614 H 0.69378 0.86949 0.23949 0.0
H1615 H 0.72349 0.89136 0.19103 0.0
H1616 H 0.60522 0.84693 0.20974 0.0
H1617 H 0.65523 0.90863 0.3234 0.0
H1618 H 0.6629 0.91848 0.27765 0.0
H1619 H 0.68257 0.88786 0.29848 0.0
C1620 C 0.65361 0.91153 0.16255 0.0
C1621 C 0.68503 0.90883 0.16231 0.0
C1622 C 0.63677 0.89974 0.19064 0.0
C1623 C 0.65093 0.88467 0.21891 0.0
C1624 C 0.68236 0.88175 0.21859 0.0
H1625 H 0.54541 0.76547 0.35551 0.0
H1626 H 0.582 0.78554 0.31303 0.0
C1627 C 0.69931 0.89407 0.19076 0.0
C1628 C 0.63247 0.87096 0.24764 0.0
H1629 H 0.62224 0.86843 0.33789 0.0
C1630 C 0.60892 0.85172 0.23776 0.0
C1631 C 0.63703 0.87746 0.28421 0.0
C1632 C 0.6606 0.89947 0.29659 0.0
C1633 C 0.58971 0.83897 0.26324 0.0
C1634 C 0.59492 0.8446 0.29989 0.0
C1635 C 0.61851 0.86378 0.30984 0.0
C1636 C 0.57523 0.83194 0.32811 0.0
C1637 C 0.56339 0.82051 0.25041 0.0
C1638 C 0.56059 0.85113 0.35217 0.0
C1639 C 0.54025 0.83963 0.37707 0.0
C1640 C 0.53397 0.80875 0.37809 0.0
C1641 C 0.54951 0.78942 0.35496 0.0
C1642 C 0.57026 0.80088 0.33052 0.0
H1643 H 0.55762 0.82569 0.22224 0.0
H1644 H 0.56926 0.79636 0.25187 0.0
H1645 H 0.54317 0.82444 0.26711 0.0
H1646 H 0.56417 0.87514 0.35096 0.0
H1647 H 0.52854 0.85507 0.3945 0.0
H1648 H 0.86855 0.17907 0.39233 0.0
H1649 H 0.84804 0.15087 0.44215 0.0
H1650 H 0.93107 0.16187 0.49988 0.0
H1651 H 0.95223 0.19009 0.44945 0.0
H1652 H 0.91036 0.10323 0.49956 0.0
H1653 H 0.81871 0.18004 0.5387 0.0
H1654 H 0.81786 0.17179 0.4919 0.0
H1655 H 0.84942 0.19168 0.51043 0.0
C1656 C 0.88251 0.1758 0.41567 0.0
C1657 C 0.91207 0.18695 0.4169 0.0
C1658 C 0.87058 0.15983 0.44431 0.0
C1659 C 0.88778 0.15475 0.47501 0.0
C1660 C 0.91731 0.16584 0.47654 0.0
H1661 H 0.80307 0.06497 0.65766 0.0
H1662 H 0.82941 0.10173 0.62061 0.0
C1663 C 0.92933 0.18198 0.44777 0.0
C1664 C 0.87522 0.13616 0.50422 0.0
H1665 H 0.81331 0.1285 0.55723 0.0
C1666 C 0.88939 0.10896 0.51261 0.0
C1667 C 0.84808 0.14383 0.52162 0.0
C1668 C 0.8328 0.17359 0.51548 0.0
C1669 C 0.8763 0.0885 0.53649 0.0
C1670 C 0.84804 0.09522 0.5518 0.0
C1671 C 0.83471 0.12314 0.54497 0.0
C1672 C 0.83152 0.07319 0.57404 0.0
C1673 C 0.89276 0.05978 0.54486 0.0
C1674 C 0.82324 0.04526 0.55983 0.0
C1675 C 0.80815 0.02422 0.58086 0.0
C1676 C 0.80078 0.03079 0.61649 0.0
C1677 C 0.80831 0.05918 0.63032 0.0
C1678 C 0.82347 0.08019 0.60924 0.0
H1679 H 0.91727 0.06204 0.53996 0.0
H1680 H 0.88922 0.05294 0.57303 0.0
H1681 H 0.88418 0.04163 0.52736 0.0
H1682 H 0.82857 0.03967 0.53244 0.0
H1683 H 0.80267 1.00264 0.5693 0.0
H1684 H 0.04743 0.15941 0.34386 0.0
H1685 H 0.08222 0.13501 0.38519 0.0
H1686 H 0.06843 0.20615 0.46129 0.0
H1687 H 0.03347 0.23064 0.42042 0.0
H1688 H 0.13596 0.15618 0.41909 0.0
H1689 H 0.0459 0.12889 0.51607 0.0
H1690 H 0.03811 0.14018 0.47076 0.0
H1691 H 0.04727 0.16783 0.50392 0.0
C1692 C 0.05198 0.17006 0.36926 0.0
C1693 C 0.03748 0.19692 0.37893 0.0
C1694 C 0.07186 0.15604 0.39281 0.0
C1695 C 0.07745 0.16854 0.42646 0.0
C1696 C 0.06395 0.19589 0.43565 0.0
H1697 H 0.1772 0.139 0.61489 0.0
H1698 H 0.14778 0.15627 0.56424 0.0
C1699 C 0.04408 0.20992 0.41218 0.0
C1700 C 0.09676 0.15271 0.45247 0.0
H1701 H 0.0963 0.12303 0.53633 0.0
C1702 C 0.12731 0.14858 0.44457 0.0
C1703 C 0.08524 0.14253 0.48546 0.0
C1704 C 0.05228 0.14477 0.49452 0.0
C1705 C 0.14698 0.13588 0.46971 0.0
C1706 C 0.13563 0.12695 0.50326 0.0
C1707 C 0.10491 0.13007 0.51058 0.0
C1708 C 0.15546 0.11661 0.53239 0.0
C1709 C 0.17992 0.13323 0.46093 0.0
C1710 C 0.16976 0.08857 0.53108 0.0
C1711 C 0.18672 0.07848 0.56019 0.0
C1712 C 0.18951 0.09631 0.59099 0.0
C1713 C 0.17556 0.12462 0.59169 0.0
C1714 C 0.15869 0.13458 0.56276 0.0
H1715 H 0.18571 0.14447 0.43539 0.0
H1716 H 0.19369 0.14319 0.48261 0.0
H1717 H 0.18605 0.10918 0.4588 0.0
H1718 H 0.16719 0.07425 0.50795 0.0
H1719 H 0.19704 0.05652 0.5589 0.0
H1720 H 0.11151 0.87154 0.37634 0.0
H1721 H 0.13188 0.89947 0.4269 0.0
H1722 H 0.12451 0.82071 0.49308 0.0
H1723 H 0.10451 0.79237 0.44253 0.0
H1724 H 0.10568 0.91075 0.49276 0.0
H1725 H 0.21191 0.84666 0.50777 0.0
H1726 H 0.18855 0.84391 0.46856 0.0
H1727 H 0.17836 0.82426 0.50863 0.0
C1728 C 0.11436 0.86005 0.40157 0.0
C1729 C 0.10661 0.82961 0.40527 0.0
C1730 C 0.12595 0.87609 0.43046 0.0
C1731 C 0.1301 0.86205 0.46358 0.0
C1732 C 0.12206 0.8318 0.46755 0.0
H1733 H 0.16312 0.96287 0.66033 0.0
H1734 H 0.14229 0.92809 0.61627 0.0
C1735 C 0.11051 0.81569 0.43864 0.0
C1736 C 0.14236 0.87935 0.49403 0.0
H1737 H 0.20175 0.88359 0.55145 0.0
C1738 C 0.12663 0.90478 0.5057 0.0
C1739 C 0.16984 0.87162 0.51058 0.0
C1740 C 0.18835 0.84529 0.49813 0.0
C1741 C 0.1377 0.92283 0.53341 0.0
C1742 C 0.16498 0.91488 0.55028 0.0
C1743 C 0.18067 0.88939 0.5387 0.0
C1744 C 0.17854 0.93387 0.57844 0.0
C1745 C 0.12059 0.95077 0.54359 0.0
C1746 C 0.20637 0.94769 0.57235 0.0
C1747 C 0.21845 0.96735 0.59753 0.0
C1748 C 0.20296 0.97352 0.62941 0.0
C1749 C 0.1756 0.9587 0.63604 0.0
C1750 C 0.16355 0.93898 0.6108 0.0
H1751 H 0.1039 0.95717 0.52293 0.0
H1752 H 0.10833 0.94669 0.56889 0.0
H1753 H 0.13615 0.96992 0.54783 0.0
H1754 H 0.21836 0.94393 0.54761 0.0
H1755 H 0.2396 0.97827 0.59155 0.0
H1756 H 0.94671 0.80101 0.35499 0.0
H1757 H 0.91094 0.82435 0.39623 0.0
H1758 H 0.97858 0.82535 0.47847 0.0
H1759 H 0.01442 0.80225 0.43775 0.0
H1760 H 0.89179 0.80416 0.46703 0.0
H1761 H 0.95034 0.91411 0.46895 0.0
H1762 H 0.9566 0.88643 0.43457 0.0
H1763 H 0.97423 0.88244 0.47742 0.0
C1764 C 0.95391 0.806 0.38193 0.0
C1765 C 0.98346 0.79984 0.39302 0.0
C1766 C 0.93346 0.81935 0.40539 0.0
C1767 C 0.94236 0.82695 0.4401 0.0
C1768 C 0.9715 0.82007 0.45155 0.0
H1769 H 0.87385 0.90503 0.63103 0.0
H1770 H 0.90282 0.88288 0.58245 0.0
C1771 C 0.99188 0.8067 0.42826 0.0
C1772 C 0.92141 0.84225 0.46461 0.0
H1773 H 0.91304 0.9062 0.51351 0.0
C1774 C 0.89613 0.8266 0.47693 0.0
C1775 C 0.92725 0.87153 0.47727 0.0
C1776 C 0.95342 0.88978 0.46368 0.0
C1777 C 0.87718 0.83903 0.50294 0.0
C1778 C 0.88354 0.86799 0.51638 0.0
C1779 C 0.90834 0.88395 0.50323 0.0
C1780 C 0.86563 0.88162 0.54536 0.0
C1781 C 0.85126 0.82062 0.5169 0.0
C1782 C 0.83522 0.88861 0.54035 0.0
C1783 C 0.81853 0.90125 0.5681 0.0
C1784 C 0.83204 0.9072 0.60129 0.0
C1785 C 0.86268 0.90059 0.60592 0.0
C1786 C 0.8793 0.88798 0.57818 0.0
H1787 H 0.85317 0.79663 0.50923 0.0
H1788 H 0.8499 0.82214 0.54641 0.0
H1789 H 0.82996 0.82947 0.50572 0.0
H1790 H 0.82444 0.88439 0.51495 0.0
H1791 H 0.79504 0.90626 0.56356 0.0
H1792 H 0.6412 0.02148 0.07291 0.0
H1793 H 0.58794 0.03395 0.07011 0.0
H1794 H 0.57007 0.95063 0.01559 0.0
H1795 H 0.62345 0.93761 0.01886 0.0
H1796 H 0.55117 0.04089 0.01151 0.0
H1797 H 0.51094 0.94847 0.09884 0.0
H1798 H 0.55008 0.95864 0.09552 0.0
H1799 H 0.53275 0.93649 0.06117 0.0
C1800 C 0.62598 0.00577 0.06027 0.0
C1801 C 0.63649 0.97847 0.04625 0.0
C1802 C 0.59556 0.01295 0.05872 0.0
C1803 C 0.57507 0.99303 0.04312 0.0
C1804 C 0.58548 0.966 0.02845 0.0
H1805 H 0.38325 1.00235 0.00977 0.0
H1806 H 0.43652 0.98962 0.00861 0.0
C1807 C 0.61596 0.95866 0.03021 0.0
C1808 C 0.54284 1.00087 0.04217 0.0
H1809 H 0.47376 0.97868 0.07152 0.0
C1810 C 0.53422 0.02733 0.02466 0.0
C1811 C 0.52089 0.98314 0.05949 0.0
C1812 C 0.52906 0.95524 0.08011 0.0
C1813 C 0.5041 0.03643 0.02373 0.0
C1814 C 0.48222 0.0187 0.04102 0.0
C1815 C 0.49074 0.99216 0.05832 0.0
C1816 C 0.45022 0.02718 0.04122 0.0
C1817 C 0.49577 0.06467 0.0039 0.0
C1818 C 0.44042 0.05246 0.06018 0.0
C1819 C 0.40992 0.05983 0.06103 0.0
C1820 C 0.38884 0.042 0.04284 0.0
C1821 C 0.39889 0.0167 0.02386 0.0
C1822 C 0.42929 0.00931 0.0232 0.0
H1823 H 0.51426 0.0726 0.98636 0.0
H1824 H 0.47539 0.06098 0.98741 0.0
H1825 H 0.49065 0.08267 0.02341 0.0
H1826 H 0.45632 0.06626 0.07465 0.0
H1827 H 0.40288 0.07935 0.07604 0.0
H1828 H 0.06796 0.61686 0.99161 0.0
H1829 H 0.05404 0.56355 0.9903 0.0
H1830 H 0.97534 0.5849 0.92827 0.0
H1831 H 0.98895 0.63783 0.92922 0.0
H1832 H 0.99607 0.53824 0.01458 0.0
H1833 H 0.01962 0.51784 0.87097 0.0
H1834 H 0.03555 0.54905 0.89519 0.0
H1835 H 0.99714 0.55031 0.88066 0.0
C1836 C 0.0478 0.61012 0.97756 0.0
C1837 C 0.02956 0.63148 0.96052 0.0
C1838 C 0.03988 0.57977 0.97689 0.0
C1839 C 0.0139 0.57046 0.9588 0.0
C1840 C 0.99568 0.59171 0.94192 0.0
H1841 H 0.9278 0.39827 0.91957 0.0
H1842 H 0.94005 0.45192 0.92156 0.0
C1843 C 1.00342 0.62194 0.94274 0.0
C1844 C 0.00514 0.53861 0.95821 0.0
H1845 H 0.99441 0.47919 0.90239 0.0
C1846 C 0.99585 0.5252 0.99016 0.0
C1847 C 1.00457 0.52199 0.92613 0.0
C1848 C 0.01495 0.53537 0.89127 0.0
C1849 C 0.98562 0.49548 0.99083 0.0
C1850 C 0.98535 0.47871 0.9588 0.0
C1851 C 0.99453 0.49221 0.92682 0.0
C1852 C 0.97718 0.44664 0.95828 0.0
C1853 C 0.97472 0.48247 0.02567 0.0
C1854 C 0.99424 0.42609 0.97791 0.0
C1855 C 0.98729 0.39568 0.97696 0.0
C1856 C 0.96328 0.38511 0.95604 0.0
C1857 C 0.9463 0.40573 0.9361 0.0
C1858 C 0.95328 0.43631 0.93717 0.0
H1859 H 0.96798 0.50033 0.04472 0.0
H1860 H 0.95533 0.4672 0.02145 0.0
H1861 H 0.99314 0.4694 0.03814 0.0
H1862 H 0.01323 0.43355 0.99366 0.0
H1863 H 1.00105 0.38044 0.99242 0.0
H1864 H 0.38324 0.49705 0.24272 0.0
H1865 H 0.43423 0.51547 0.23365 0.0
H1866 H 0.44245 0.46091 0.13918 0.0
H1867 H 0.39146 0.44177 0.14848 0.0
H1868 H 0.4915 0.45707 0.18052 0.0
H1869 H 0.46269 0.57648 0.1615 0.0
H1870 H 0.44729 0.5623 0.20234 0.0
H1871 H 0.43479 0.54709 0.16037 0.0
C1872 C 0.39587 0.48889 0.22003 0.0
C1873 C 0.3833 0.46795 0.1963 0.0
C1874 C 0.42491 0.49971 0.21467 0.0
C1875 C 0.4418 0.49019 0.1852 0.0
C1876 C 0.42962 0.46879 0.16186 0.0
H1877 H 0.61834 0.57409 0.14581 0.0
H1878 H 0.5659 0.55846 0.13708 0.0
C1879 C 0.40058 0.45776 0.16734 0.0
C1880 C 0.47273 0.50159 0.18002 0.0
H1881 H 0.51411 0.56608 0.1784 0.0
C1882 C 0.49641 0.48089 0.17947 0.0
C1883 C 0.47912 0.53265 0.17774 0.0
C1884 C 0.45457 0.55587 0.1751 0.0
C1885 C 0.52638 0.49047 0.17907 0.0
C1886 C 0.53275 0.52155 0.18017 0.0
C1887 C 0.50913 0.54227 0.17829 0.0
C1888 C 0.56364 0.53272 0.18595 0.0
C1889 C 0.55097 0.4672 0.17808 0.0
C1890 C 0.57915 0.52436 0.2169 0.0
C1891 C 0.60886 0.53313 0.2219 0.0
C1892 C 0.62356 0.55081 0.19623 0.0
C1893 C 0.60753 0.56052 0.16605 0.0
C1894 C 0.5777 0.55151 0.16095 0.0
H1895 H 0.54297 0.44597 0.16579 0.0
H1896 H 0.57079 0.47536 0.16292 0.0
H1897 H 0.55819 0.46206 0.20574 0.0
H1898 H 0.56839 0.51058 0.23699 0.0
H1899 H 0.62047 0.5256 0.24566 0.0
H1900 H 0.48306 0.37129 0.75614 0.0
H1901 H 0.4685 0.42397 0.75096 0.0
H1902 H 0.55271 0.45041 0.79873 0.0
H1903 H 0.56801 0.3978 0.80188 0.0
H1904 H 0.45789 0.46205 0.79987 0.0
H1905 H 0.55068 0.50806 0.71893 0.0
H1906 H 0.54546 0.46828 0.72496 0.0
H1907 H 0.56508 0.49013 0.75808 0.0
C1908 C 0.49862 0.38846 0.76495 0.0
C1909 C 0.5267 0.38067 0.77919 0.0
C1910 C 0.49029 0.4185 0.76204 0.0
C1911 C 0.50967 0.44126 0.77394 0.0
C1912 C 0.53776 0.4334 0.78825 0.0
H1913 H 0.45235 0.61593 0.84623 0.0
H1914 H 0.46329 0.56246 0.83931 0.0
C1915 C 0.54643 0.40335 0.79028 0.0
C1916 C 0.4996 0.47295 0.7736 0.0
H1917 H 0.52167 0.54392 0.75218 0.0
C1918 C 0.47167 0.47991 0.78896 0.0
C1919 C 0.51724 0.49625 0.7588 0.0
C1920 C 0.5461 0.49023 0.73892 0.0
C1921 C 0.46127 0.50953 0.79077 0.0
C1922 C 0.47993 0.53302 0.77839 0.0
C1923 C 0.50748 0.52599 0.76216 0.0
C1924 C 0.47172 0.56507 0.78243 0.0
C1925 C 0.43018 0.5151 0.80541 0.0
C1926 C 0.47366 0.58454 0.75306 0.0
C1927 C 0.46852 0.61518 0.75732 0.0
C1928 C 0.46072 0.62676 0.79085 0.0
C1929 C 0.45794 0.60731 0.82004 0.0
C1930 C 0.46395 0.57677 0.816 0.0
H1931 H 0.41538 0.49533 0.80127 0.0
H1932 H 0.43168 0.51906 0.83457 0.0
H1933 H 0.4195 0.5349 0.79272 0.0
H1934 H 0.4796 0.5761 0.72691 0.0
H1935 H 0.47066 0.62983 0.7344 0.0
H1936 H 0.14057 0.52349 0.58204 0.0
H1937 H 0.0876 0.53743 0.58107 0.0
H1938 H 0.06679 0.45733 0.52154 0.0
H1939 H 0.12003 0.44304 0.52226 0.0
H1940 H 0.04255 0.51581 0.49463 0.0
H1941 H 0.01885 0.49355 0.63794 0.0
H1942 H 0.05198 0.51524 0.62842 0.0
H1943 H 0.05013 0.47673 0.61467 0.0
C1944 C 0.12477 0.50878 0.5687 0.0
C1945 C 0.13442 0.48212 0.55226 0.0
C1946 C 0.09454 0.51673 0.56838 0.0
C1947 C 0.07344 0.49822 0.5516 0.0
C1948 C 0.08289 0.47173 0.53483 0.0
H1949 H 0.88389 0.50995 0.51132 0.0
H1950 H 0.93721 0.49826 0.5116 0.0
C1951 C 0.1132 0.4636 0.53535 0.0
C1952 C 0.04157 0.50705 0.55106 0.0
H1953 H 0.98062 0.51749 0.6047 0.0
C1954 C 0.02889 0.51608 0.51859 0.0
C1955 C 0.02415 0.50765 0.58253 0.0
C1956 C 0.03679 0.49759 0.6179 0.0
C1957 C 0.99908 0.52603 0.51681 0.0
C1958 C 0.98147 0.52626 0.54822 0.0
C1959 C 0.99426 0.51738 0.58073 0.0
C1960 C 0.94928 0.5342 0.54761 0.0
C1961 C 0.98688 0.53669 0.48145 0.0
C1962 C 0.93829 0.55787 0.56854 0.0
C1963 C 0.90761 0.56455 0.56872 0.0
C1964 C 0.88752 0.54752 0.54805 0.0
C1965 C 0.89873 0.52376 0.52727 0.0
C1966 C 0.92927 0.5171 0.5272 0.0
H1967 H 0.0052 0.54359 0.46307 0.0
H1968 H 0.97434 0.51811 0.46857 0.0
H1969 H 0.97129 0.55588 0.48502 0.0
H1970 H 0.95346 0.57113 0.58473 0.0
H1971 H 0.89965 0.58285 0.58519 0.0
H1972 H 0.48233 0.1382 0.48448 0.0
H1973 H 0.46762 0.08544 0.48369 0.0
H1974 H 0.55558 0.06148 0.4445 0.0
H1975 H 0.57087 0.11419 0.44713 0.0
H1976 H 0.46219 0.04944 0.42996 0.0
H1977 H 0.5468 1.00128 0.52174 0.0
H1978 H 0.5416 0.04116 0.51691 0.0
H1979 H 0.56389 0.02064 0.48509 0.0
C1980 C 0.49865 0.12157 0.47625 0.0
C1981 C 0.52778 0.13012 0.46611 0.0
C1982 C 0.49022 0.09148 0.47569 0.0
C1983 C 0.51059 0.06941 0.46445 0.0
C1984 C 0.53975 0.07795 0.45427 0.0
H1985 H 0.45274 0.89155 0.39422 0.0
H1986 H 0.4663 0.94486 0.39647 0.0
C1987 C 0.54843 0.10805 0.45562 0.0
C1988 C 0.50068 0.03775 0.46195 0.0
H1989 H 0.51834 0.96653 0.48737 0.0
C1990 C 0.47434 0.03132 0.44276 0.0
C1991 C 0.51636 0.01417 0.47894 0.0
C1992 C 0.54353 0.01967 0.50212 0.0
C1993 C 0.46318 1.00198 0.44016 0.0
C1994 C 0.47951 0.97825 0.45598 0.0
C1995 C 0.50591 0.9847 0.47504 0.0
C1996 C 0.4694 0.94661 0.45415 0.0
C1997 C 0.43359 0.99699 0.42143 0.0
C1998 C 0.46713 0.92976 0.48566 0.0
C1999 C 0.46034 0.89929 0.48426 0.0
C2000 C 0.4551 0.88525 0.45138 0.0
C2001 C 0.45626 0.90216 0.41988 0.0
C2002 C 0.46385 0.93258 0.4212 0.0
H2003 H 0.41975 0.01772 0.42115 0.0
H2004 H 0.43791 0.99057 0.39331 0.0
H2005 H 0.42041 0.97885 0.43435 0.0
H2006 H 0.47122 0.94007 0.51137 0.0
H2007 H 0.45949 0.88659 0.5089 0.0
H2008 H 0.12869 0.0053 0.73965 0.0
H2009 H 0.07503 0.99476 0.73991 0.0
H2010 H 0.05877 0.07466 0.678 0.0
H2011 H 0.11278 0.0852 0.67691 0.0
H2012 H 0.02873 0.02898 0.7665 0.0
H2013 H 0.01542 0.00983 0.62085 0.0
H2014 H 0.05171 0.01134 0.6422 0.0
H2015 H 0.03166 0.04536 0.63262 0.0
C2016 C 0.11379 0.02069 0.72601 0.0
C2017 C 0.12504 0.04609 0.70818 0.0
C2018 C 0.08311 0.0146 0.72624 0.0
C2019 C 0.06303 0.03372 0.70864 0.0
C2020 C 0.07402 0.05932 0.69116 0.0
H2021 H 0.86941 0.02673 0.68674 0.0
H2022 H 0.92211 0.04191 0.68738 0.0
C2023 C 0.10484 0.0654 0.69075 0.0
C2024 C 0.03059 0.02676 0.70915 0.0
H2025 H 0.97119 0.00875 0.65579 0.0
C2026 C 0.01612 0.02456 0.74231 0.0
C2027 C 0.01431 0.02095 0.67751 0.0
C2028 C 0.02905 0.0217 0.64127 0.0
C2029 C 0.98569 0.01677 0.7447 0.0
C2030 C 0.96951 0.0108 0.71311 0.0
C2031 C 0.98382 0.01336 0.67992 0.0
C2032 C 0.93766 1.00175 0.71389 0.0
C2033 C 0.97097 0.01523 0.7809 0.0
C2034 C 0.92913 0.97405 0.72849 0.0
C2035 C 0.89902 0.96521 0.72814 0.0
C2036 C 0.87705 0.98402 0.71319 0.0
C2037 C 0.88576 0.01182 0.69872 0.0
C2038 C 0.91583 0.02052 0.69893 0.0
H2039 H 0.9846 0.02664 0.80168 0.0
H2040 H 0.94831 0.02561 0.78018 0.0
H2041 H 0.96826 0.99139 0.78876 0.0
H2042 H 0.94583 0.95912 0.73972 0.0
H2043 H 0.89301 0.94366 0.73944 0.0
H2044 H 0.92649 0.11218 0.32936 0.0
H2045 H 0.93824 0.0585 0.32784 0.0
H2046 H 0.01581 0.07661 0.26235 0.0
H2047 H 1.00403 0.12989 0.26301 0.0
H2048 H 0.98291 0.02859 0.23825 0.0
H2049 H 0.00621 0.01876 0.38339 0.0
H2050 H 0.96971 0.03334 0.37272 0.0
H2051 H 1.0027 0.05451 0.36121 0.0
C2052 C 0.94596 0.1047 0.31452 0.0
C2053 C 0.96436 0.12533 0.2964 0.0
C2054 C 0.95275 0.07407 0.31388 0.0
C2055 C 0.97817 0.06372 0.29545 0.0
C2056 C 0.99616 0.08418 0.27681 0.0
H2057 H 0.07018 0.89368 0.26598 0.0
H2058 H 0.05513 0.94657 0.26486 0.0
C2059 C 0.98936 0.11466 0.27728 0.0
C2060 C 0.98633 0.03159 0.29545 0.0
H2061 H 0.00736 0.97388 0.34974 0.0
C2062 C 0.98828 0.0166 0.2626 0.0
C2063 C 0.9935 0.01615 0.32728 0.0
C2064 C 0.99322 0.03152 0.36315 0.0
C2065 C 0.99693 0.98641 0.26076 0.0
C2066 C 1.004 0.97102 0.29258 0.0
C2067 C 1.00191 0.9859 0.32543 0.0
C2068 C 0.01307 0.9392 0.29249 0.0
C2069 C 0.99801 0.97105 0.22493 0.0
C2070 C 0.99454 0.91782 0.30876 0.0
C2071 C 1.00302 0.88775 0.30948 0.0
C2072 C 0.03036 0.87856 0.29418 0.0
C2073 C 0.04901 0.90009 0.278 0.0
C2074 C 0.04038 0.93023 0.27715 0.0
H2075 H 0.98619 0.98417 0.20402 0.0
H2076 H 0.02178 0.96834 0.21665 0.0
H2077 H 0.98776 0.94837 0.22651 0.0
H2078 H 0.97346 0.92442 0.32088 0.0
H2079 H 0.98825 0.87177 0.32238 0.0
loop_
_geom_bond_atom_site_label_1
_geom_bond_atom_site_label_2
_geom_bond_distance
_geom_bond_site_symmetry_2
_ccdc_geom_bond_type
Fe0 O2 1.918 . S
Fe0 O5 1.997 . S
Fe0 O6 2.002 . S
Fe0 O11 1.976 . S
Fe0 O14 1.996 . S
Fe1 O2 1.918 . S
Fe1 O9 1.997 1_545 S
Fe1 O12 1.996 . S
Fe1 O16 1.976 1_554 S
Fe1 O19 2.002 . S
O2 Fe0 1.918 . S
O2 Fe1 1.918 . S
O2 Fe3 1.918 . S
Fe3 O2 1.918 . S
Fe3 O4 2.002 . S
Fe3 O13 1.976 . S
Fe3 O17 1.996 1_554 S
Fe3 O20 1.997 . S
O4 Fe3 2.002 . S
O4 C21 1.295 . S
O5 Fe0 1.997 . S
O5 C21 1.235 . S
O6 Fe0 2.002 . S
O6 C7 1.295 1_545 S
C7 O6 1.295 1_565 S
C7 O9 1.235 . S
C8 O13 1.287 . S
C8 O14 1.255 . S
O9 Fe1 1.997 1_565 S
O9 C7 1.235 . S
C10 O16 1.287 . S
C10 O17 1.255 . S
O11 Fe0 1.976 . S
O11 C18 1.287 . S
O12 Fe1 1.996 . S
O12 C18 1.255 . S
O13 Fe3 1.976 . S
O13 C8 1.287 . S
O14 Fe0 1.996 . S
O14 C8 1.255 . S
C15 O19 1.295 . S
C15 O20 1.235 . S
O16 Fe1 1.976 1_556 S
O16 C10 1.287 . S
O17 Fe3 1.996 1_556 S
O17 C10 1.255 . S
C18 O11 1.287 . S
C18 O12 1.255 . S
O19 Fe1 2.002 . S
O19 C15 1.295 . S
O20 Fe3 1.997 . S
O20 C15 1.235 . S
C21 O4 1.295 . S
C21 O5 1.235 . S
Fe22 O24 1.918 . S
Fe22 O27 1.997 . S
Fe22 O28 2.002 1_455 S
Fe22 O33 1.976 . S
Fe22 O36 1.996 1_556 S
Fe23 O24 1.918 . S
Fe23 O31 1.997 . S
Fe23 O34 1.996 . S
Fe23 O38 1.976 . S
Fe23 O41 2.002 . S
O24 Fe22 1.918 . S
O24 Fe23 1.918 . S
O24 Fe25 1.918 . S
Fe25 O24 1.918 . S
Fe25 O26 2.002 . S
Fe25 O35 1.976 1_556 S
Fe25 O39 1.996 . S
Fe25 O42 1.997 . S
O26 Fe25 2.002 . S
O26 C43 1.295 . S
O27 Fe22 1.997 . S
O27 C43 1.235 . S
O28 Fe22 2.002 1_655 S
O28 C29 1.295 . S
C29 O28 1.295 . S
C29 O31 1.235 1_655 S
C30 O35 1.287 . S
C30 O36 1.255 . S
O31 Fe23 1.997 . S
O31 C29 1.235 1_455 S
C32 O38 1.287 . S
C32 O39 1.255 . S
O33 Fe22 1.976 . S
O33 C40 1.287 . S
O34 Fe23 1.996 . S
O34 C40 1.255 . S
O35 Fe25 1.976 1_554 S
O35 C30 1.287 . S
O36 Fe22 1.996 1_554 S
O36 C30 1.255 . S
C37 O41 1.295 . S
C37 O42 1.235 . S
O38 Fe23 1.976 . S
O38 C32 1.287 . S
O39 Fe25 1.996 . S
O39 C32 1.255 . S
C40 O33 1.287 . S
C40 O34 1.255 . S
O41 Fe23 2.002 . S
O41 C37 1.295 . S
O42 Fe25 1.997 . S
O42 C37 1.235 . S
C43 O26 1.295 . S
C43 O27 1.235 . S
Fe44 O46 1.918 . S
Fe44 O49 1.997 . S
Fe44 O50 2.002 . S
Fe44 O55 1.976 . S
Fe44 O58 1.996 . S
Fe45 O46 1.918 . S
Fe45 O53 1.997 1_565 S
Fe45 O56 1.996 . S
Fe45 O60 1.976 1_554 S
Fe45 O63 2.002 . S
O46 Fe44 1.918 . S
O46 Fe45 1.918 . S
O46 Fe47 1.918 . S
Fe47 O46 1.918 . S
Fe47 O48 2.002 . S
Fe47 O57 1.976 . S
Fe47 O61 1.996 1_554 S
Fe47 O64 1.997 . S
O48 Fe47 2.002 . S
O48 C65 1.295 . S
O49 Fe44 1.997 . S
O49 C65 1.235 . S
O50 Fe44 2.002 . S
O50 C51 1.295 1_565 S
C51 O50 1.295 1_545 S
C51 O53 1.235 . S
C52 O57 1.287 . S
C52 O58 1.255 . S
O53 Fe45 1.997 1_545 S
O53 C51 1.235 . S
C54 O60 1.287 . S
C54 O61 1.255 . S
O55 Fe44 1.976 . S
O55 C62 1.287 . S
O56 Fe45 1.996 . S
O56 C62 1.255 . S
O57 Fe47 1.976 . S
O57 C52 1.287 . S
O58 Fe44 1.996 . S
O58 C52 1.255 . S
C59 O63 1.295 . S
C59 O64 1.235 . S
O60 Fe45 1.976 1_556 S
O60 C54 1.287 . S
O61 Fe47 1.996 1_556 S
O61 C54 1.255 . S
C62 O55 1.287 . S
C62 O56 1.255 . S
O63 Fe45 2.002 . S
O63 C59 1.295 . S
O64 Fe47 1.997 . S
O64 C59 1.235 . S
C65 O48 1.295 . S
C65 O49 1.235 . S
Fe66 O68 1.918 . S
Fe66 O71 1.997 . S
Fe66 O72 2.002 1_655 S
Fe66 O77 1.976 . S
Fe66 O80 1.996 1_556 S
Fe67 O68 1.918 . S
Fe67 O75 1.997 . S
Fe67 O78 1.996 . S
Fe67 O82 1.976 . S
Fe67 O85 2.002 . S
O68 Fe66 1.918 . S
O68 Fe67 1.918 . S
O68 Fe69 1.918 . S
Fe69 O68 1.918 . S
Fe69 O70 2.002 . S
Fe69 O79 1.976 1_556 S
Fe69 O83 1.996 . S
Fe69 O86 1.997 . S
O70 Fe69 2.002 . S
O70 C87 1.295 . S
O71 Fe66 1.997 . S
O71 C87 1.235 . S
O72 Fe66 2.002 1_455 S
O72 C73 1.295 . S
C73 O72 1.295 . S
C73 O75 1.235 1_455 S
C74 O79 1.287 . S
C74 O80 1.255 . S
O75 Fe67 1.997 . S
O75 C73 1.235 1_655 S
C76 O82 1.287 . S
C76 O83 1.255 . S
O77 Fe66 1.976 . S
O77 C84 1.287 . S
O78 Fe67 1.996 . S
O78 C84 1.255 . S
O79 Fe69 1.976 1_554 S
O79 C74 1.287 . S
O80 Fe66 1.996 1_554 S
O80 C74 1.255 . S
C81 O85 1.295 . S
C81 O86 1.235 . S
O82 Fe67 1.976 . S
O82 C76 1.287 . S
O83 Fe69 1.996 . S
O83 C76 1.255 . S
C84 O77 1.287 . S
C84 O78 1.255 . S
O85 Fe67 2.002 . S
O85 C81 1.295 . S
O86 Fe69 1.997 . S
O86 C81 1.235 . S
C87 O70 1.295 . S
C87 O71 1.235 . S
Fe88 O90 1.918 . S
Fe88 O93 1.997 . S
Fe88 O94 2.002 . S
Fe88 O99 1.976 . S
Fe88 O102 1.996 . S
Fe89 O90 1.918 . S
Fe89 O97 1.997 . S
Fe89 O100 1.996 . S
Fe89 O104 1.976 . S
Fe89 O107 2.002 . S
O90 Fe88 1.918 . S
O90 Fe89 1.918 . S
O90 Fe91 1.918 . S
Fe91 O90 1.918 . S
Fe91 O92 2.002 . S
Fe91 O101 1.976 . S
Fe91 O105 1.996 . S
Fe91 O108 1.997 . S
O92 Fe91 2.002 . S
O92 C109 1.295 . S
O93 Fe88 1.997 . S
O93 C109 1.235 . S
O94 Fe88 2.002 . S
O94 C95 1.295 . S
C95 O94 1.295 . S
C95 O97 1.235 . S
C96 O101 1.287 . S
C96 O102 1.255 . S
O97 Fe89 1.997 . S
O97 C95 1.235 . S
C98 O104 1.287 . S
C98 O105 1.255 . S
O99 Fe88 1.976 . S
O99 C106 1.287 . S
O100 Fe89 1.996 . S
O100 C106 1.255 . S
O101 Fe91 1.976 . S
O101 C96 1.287 . S
O102 Fe88 1.996 . S
O102 C96 1.255 . S
C103 O107 1.295 . S
C103 O108 1.235 . S
O104 Fe89 1.976 . S
O104 C98 1.287 . S
O105 Fe91 1.996 . S
O105 C98 1.255 . S
C106 O99 1.287 . S
C106 O100 1.255 . S
O107 Fe89 2.002 . S
O107 C103 1.295 . S
O108 Fe91 1.997 . S
O108 C103 1.235 . S
C109 O92 1.295 . S
C109 O93 1.235 . S
Fe110 O112 1.918 . S
Fe110 O115 1.997 . S
Fe110 O116 2.002 . S
Fe110 O121 1.976 . S
Fe110 O124 1.996 . S
Fe111 O112 1.918 . S
Fe111 O119 1.997 . S
Fe111 O122 1.996 . S
Fe111 O126 1.976 . S
Fe111 O129 2.002 . S
O112 Fe110 1.918 . S
O112 Fe111 1.918 . S
O112 Fe113 1.918 . S
Fe113 O112 1.918 . S
Fe113 O114 2.002 . S
Fe113 O123 1.976 . S
Fe113 O127 1.996 . S
Fe113 O130 1.997 . S
O114 Fe113 2.002 . S
O114 C131 1.295 . S
O115 Fe110 1.997 . S
O115 C131 1.235 . S
O116 Fe110 2.002 . S
O116 C117 1.295 . S
C117 O116 1.295 . S
C117 O119 1.235 . S
C118 O123 1.287 . S
C118 O124 1.255 . S
O119 Fe111 1.997 . S
O119 C117 1.235 . S
C120 O126 1.287 . S
C120 O127 1.255 . S
O121 Fe110 1.976 . S
O121 C128 1.287 . S
O122 Fe111 1.996 . S
O122 C128 1.255 . S
O123 Fe113 1.976 . S
O123 C118 1.287 . S
O124 Fe110 1.996 . S
O124 C118 1.255 . S
C125 O129 1.295 . S
C125 O130 1.235 . S
O126 Fe111 1.976 . S
O126 C120 1.287 . S
O127 Fe113 1.996 . S
O127 C120 1.255 . S
C128 O121 1.287 . S
C128 O122 1.255 . S
O129 Fe111 2.002 . S
O129 C125 1.295 . S
O130 Fe113 1.997 . S
O130 C125 1.235 . S
C131 O114 1.295 . S
C131 O115 1.235 . S
Fe132 O134 1.918 . S
Fe132 O137 1.997 . S
Fe132 O138 2.002 . S
Fe132 O143 1.976 . S
Fe132 O146 1.996 . S
Fe133 O134 1.918 . S
Fe133 O141 1.997 . S
Fe133 O144 1.996 . S
Fe133 O148 1.976 . S
Fe133 O151 2.002 . S
O134 Fe132 1.918 . S
O134 Fe133 1.918 . S
O134 Fe135 1.918 . S
Fe135 O134 1.918 . S
Fe135 O136 2.002 . S
Fe135 O145 1.976 . S
Fe135 O149 1.996 . S
Fe135 O152 1.997 . S
O136 Fe135 2.002 . S
O136 C153 1.295 . S
O137 Fe132 1.997 . S
O137 C153 1.235 . S
O138 Fe132 2.002 . S
O138 C139 1.295 . S
C139 O138 1.295 . S
C139 O141 1.235 . S
C140 O145 1.287 . S
C140 O146 1.255 . S
O141 Fe133 1.997 . S
O141 C139 1.235 . S
C142 O148 1.287 . S
C142 O149 1.255 . S
O143 Fe132 1.976 . S
O143 C150 1.287 . S
O144 Fe133 1.996 . S
O144 C150 1.255 . S
O145 Fe135 1.976 . S
O145 C140 1.287 . S
O146 Fe132 1.996 . S
O146 C140 1.255 . S
C147 O151 1.295 . S
C147 O152 1.235 . S
O148 Fe133 1.976 . S
O148 C142 1.287 . S
O149 Fe135 1.996 . S
O149 C142 1.255 . S
C150 O143 1.287 . S
C150 O144 1.255 . S
O151 Fe133 2.002 . S
O151 C147 1.295 . S
O152 Fe135 1.997 . S
O152 C147 1.235 . S
C153 O136 1.295 . S
C153 O137 1.235 . S
Fe154 O156 1.918 . S
Fe154 O159 1.997 . S
Fe154 O160 2.002 . S
Fe154 O165 1.976 . S
Fe154 O168 1.996 . S
Fe155 O156 1.918 . S
Fe155 O163 1.997 . S
Fe155 O166 1.996 . S
Fe155 O170 1.976 . S
Fe155 O173 2.002 . S
O156 Fe154 1.918 . S
O156 Fe155 1.918 . S
O156 Fe157 1.918 . S
Fe157 O156 1.918 . S
Fe157 O158 2.002 . S
Fe157 O167 1.976 . S
Fe157 O171 1.996 . S
Fe157 O174 1.997 . S
O158 Fe157 2.002 . S
O158 C175 1.295 . S
O159 Fe154 1.997 . S
O159 C175 1.235 . S
O160 Fe154 2.002 . S
O160 C161 1.295 . S
C161 O160 1.295 . S
C161 O163 1.235 . S
C162 O167 1.287 . S
C162 O168 1.255 . S
O163 Fe155 1.997 . S
O163 C161 1.235 . S
C164 O170 1.287 . S
C164 O171 1.255 . S
O165 Fe154 1.976 . S
O165 C172 1.287 . S
O166 Fe155 1.996 . S
O166 C172 1.255 . S
O167 Fe157 1.976 . S
O167 C162 1.287 . S
O168 Fe154 1.996 . S
O168 C162 1.255 . S
C169 O173 1.295 . S
C169 O174 1.235 . S
O170 Fe155 1.976 . S
O170 C164 1.287 . S
O171 Fe157 1.996 . S
O171 C164 1.255 . S
C172 O165 1.287 . S
C172 O166 1.255 . S
O173 Fe155 2.002 . S
O173 C169 1.295 . S
O174 Fe157 1.997 . S
O174 C169 1.235 . S
C175 O158 1.295 . S
C175 O159 1.235 . S
Fe176 O178 1.918 . S
Fe176 O181 1.997 . S
Fe176 O182 2.002 . S
Fe176 O187 1.976 . S
Fe176 O190 1.996 . S
Fe177 O178 1.918 . S
Fe177 O185 1.997 . S
Fe177 O188 1.996 . S
Fe177 O192 1.976 . S
Fe177 O195 2.002 . S
O178 Fe176 1.918 . S
O178 Fe177 1.918 . S
O178 Fe179 1.918 . S
Fe179 O178 1.918 . S
Fe179 O180 2.002 . S
Fe179 O189 1.976 . S
Fe179 O193 1.996 . S
Fe179 O196 1.997 . S
O180 Fe179 2.002 . S
O180 C197 1.295 . S
O181 Fe176 1.997 . S
O181 C197 1.235 . S
O182 Fe176 2.002 . S
O182 C183 1.295 . S
C183 O182 1.295 . S
C183 O185 1.235 . S
C184 O189 1.287 . S
C184 O190 1.255 . S
O185 Fe177 1.997 . S
O185 C183 1.235 . S
C186 O192 1.287 . S
C186 O193 1.255 . S
O187 Fe176 1.976 . S
O187 C194 1.287 . S
O188 Fe177 1.996 . S
O188 C194 1.255 . S
O189 Fe179 1.976 . S
O189 C184 1.287 . S
O190 Fe176 1.996 . S
O190 C184 1.255 . S
C191 O195 1.295 . S
C191 O196 1.235 . S
O192 Fe177 1.976 . S
O192 C186 1.287 . S
O193 Fe179 1.996 . S
O193 C186 1.255 . S
C194 O187 1.287 . S
C194 O188 1.255 . S
O195 Fe177 2.002 . S
O195 C191 1.295 . S
O196 Fe179 1.997 . S
O196 C191 1.235 . S
C197 O180 1.295 . S
C197 O181 1.235 . S
Fe198 O200 1.918 . S
Fe198 O203 1.997 . S
Fe198 O204 2.002 . S
Fe198 O209 1.976 . S
Fe198 O212 1.996 . S
Fe199 O200 1.918 . S
Fe199 O207 1.997 . S
Fe199 O210 1.996 . S
Fe199 O214 1.976 . S
Fe199 O217 2.002 . S
O200 Fe198 1.918 . S
O200 Fe199 1.918 . S
O200 Fe201 1.918 . S
Fe201 O200 1.918 . S
Fe201 O202 2.002 . S
Fe201 O211 1.976 . S
Fe201 O215 1.996 . S
Fe201 O218 1.997 . S
O202 Fe201 2.002 . S
O202 C219 1.295 . S
O203 Fe198 1.997 . S
O203 C219 1.235 . S
O204 Fe198 2.002 . S
O204 C205 1.295 . S
C205 O204 1.295 . S
C205 O207 1.235 . S
C206 O211 1.287 . S
C206 O212 1.255 . S
O207 Fe199 1.997 . S
O207 C205 1.235 . S
C208 O214 1.287 . S
C208 O215 1.255 . S
O209 Fe198 1.976 . S
O209 C216 1.287 . S
O210 Fe199 1.996 . S
O210 C216 1.255 . S
O211 Fe201 1.976 . S
O211 C206 1.287 . S
O212 Fe198 1.996 . S
O212 C206 1.255 . S
C213 O217 1.295 . S
C213 O218 1.235 . S
O214 Fe199 1.976 . S
O214 C208 1.287 . S
O215 Fe201 1.996 . S
O215 C208 1.255 . S
C216 O209 1.287 . S
C216 O210 1.255 . S
O217 Fe199 2.002 . S
O217 C213 1.295 . S
O218 Fe201 1.997 . S
O218 C213 1.235 . S
C219 O202 1.295 . S
C219 O203 1.235 . S
Fe220 O222 1.918 . S
Fe220 O225 1.997 . S
Fe220 O226 2.002 . S
Fe220 O231 1.976 . S
Fe220 O234 1.996 . S
Fe221 O222 1.918 . S
Fe221 O229 1.997 . S
Fe221 O232 1.996 . S
Fe221 O236 1.976 . S
Fe221 O239 2.002 . S
O222 Fe220 1.918 . S
O222 Fe221 1.918 . S
O222 Fe223 1.918 . S
Fe223 O222 1.918 . S
Fe223 O224 2.002 . S
Fe223 O233 1.976 . S
Fe223 O237 1.996 . S
Fe223 O240 1.997 . S
O224 Fe223 2.002 . S
O224 C241 1.295 . S
O225 Fe220 1.997 . S
O225 C241 1.235 . S
O226 Fe220 2.002 . S
O226 C227 1.295 . S
C227 O226 1.295 . S
C227 O229 1.235 . S
C228 O233 1.287 . S
C228 O234 1.255 . S
O229 Fe221 1.997 . S
O229 C227 1.235 . S
C230 O236 1.287 . S
C230 O237 1.255 . S
O231 Fe220 1.976 . S
O231 C238 1.287 . S
O232 Fe221 1.996 . S
O232 C238 1.255 . S
O233 Fe223 1.976 . S
O233 C228 1.287 . S
O234 Fe220 1.996 . S
O234 C228 1.255 . S
C235 O239 1.295 . S
C235 O240 1.235 . S
O236 Fe221 1.976 . S
O236 C230 1.287 . S
O237 Fe223 1.996 . S
O237 C230 1.255 . S
C238 O231 1.287 . S
C238 O232 1.255 . S
O239 Fe221 2.002 . S
O239 C235 1.295 . S
O240 Fe223 1.997 . S
O240 C235 1.235 . S
C241 O224 1.295 . S
C241 O225 1.235 . S
Fe242 O244 1.918 . S
Fe242 O247 1.997 . S
Fe242 O248 2.002 . S
Fe242 O253 1.976 . S
Fe242 O256 1.996 . S
Fe243 O244 1.918 . S
Fe243 O251 1.997 . S
Fe243 O254 1.996 . S
Fe243 O258 1.976 . S
Fe243 O261 2.002 . S
O244 Fe242 1.918 . S
O244 Fe243 1.918 . S
O244 Fe245 1.918 . S
Fe245 O244 1.918 . S
Fe245 O246 2.002 . S
Fe245 O255 1.976 . S
Fe245 O259 1.996 . S
Fe245 O262 1.997 . S
O246 Fe245 2.002 . S
O246 C263 1.295 . S
O247 Fe242 1.997 . S
O247 C263 1.235 . S
O248 Fe242 2.002 . S
O248 C249 1.295 . S
C249 O248 1.295 . S
C249 O251 1.235 . S
C250 O255 1.287 . S
C250 O256 1.255 . S
O251 Fe243 1.997 . S
O251 C249 1.235 . S
C252 O258 1.287 . S
C252 O259 1.255 . S
O253 Fe242 1.976 . S
O253 C260 1.287 . S
O254 Fe243 1.996 . S
O254 C260 1.255 . S
O255 Fe245 1.976 . S
O255 C250 1.287 . S
O256 Fe242 1.996 . S
O256 C250 1.255 . S
C257 O261 1.295 . S
C257 O262 1.235 . S
O258 Fe243 1.976 . S
O258 C252 1.287 . S
O259 Fe245 1.996 . S
O259 C252 1.255 . S
C260 O253 1.287 . S
C260 O254 1.255 . S
O261 Fe243 2.002 . S
O261 C257 1.295 . S
O262 Fe245 1.997 . S
O262 C257 1.235 . S
C263 O246 1.295 . S
C263 O247 1.235 . S
Fe264 O266 1.918 . S
Fe264 O269 1.997 . S
Fe264 O270 2.002 . S
Fe264 O275 1.976 . S
Fe264 O278 1.996 . S
Fe265 O266 1.918 . S
Fe265 O273 1.997 1_565 S
Fe265 O276 1.996 . S
Fe265 O280 1.976 . S
Fe265 O283 2.002 . S
O266 Fe264 1.918 . S
O266 Fe265 1.918 . S
O266 Fe267 1.918 . S
Fe267 O266 1.918 . S
Fe267 O268 2.002 . S
Fe267 O277 1.976 . S
Fe267 O281 1.996 . S
Fe267 O284 1.997 . S
O268 Fe267 2.002 . S
O268 C285 1.295 . S
O269 Fe264 1.997 . S
O269 C285 1.235 . S
O270 Fe264 2.002 . S
O270 C271 1.295 1_565 S
C271 O270 1.295 1_545 S
C271 O273 1.235 . S
C272 O277 1.287 . S
C272 O278 1.255 . S
O273 Fe265 1.997 1_545 S
O273 C271 1.235 . S
C274 O280 1.287 . S
C274 O281 1.255 . S
O275 Fe264 1.976 . S
O275 C282 1.287 . S
O276 Fe265 1.996 . S
O276 C282 1.255 . S
O277 Fe267 1.976 . S
O277 C272 1.287 . S
O278 Fe264 1.996 . S
O278 C272 1.255 . S
C279 O283 1.295 . S
C279 O284 1.235 . S
O280 Fe265 1.976 . S
O280 C274 1.287 . S
O281 Fe267 1.996 . S
O281 C274 1.255 . S
C282 O275 1.287 . S
C282 O276 1.255 . S
O283 Fe265 2.002 . S
O283 C279 1.295 . S
O284 Fe267 1.997 . S
O284 C279 1.235 . S
C285 O268 1.295 . S
C285 O269 1.235 . S
Fe286 O288 1.918 . S
Fe286 O291 1.997 . S
Fe286 O292 2.002 1_655 S
Fe286 O297 1.976 . S
Fe286 O300 1.996 . S
Fe287 O288 1.918 . S
Fe287 O295 1.997 . S
Fe287 O298 1.996 . S
Fe287 O302 1.976 . S
Fe287 O305 2.002 . S
O288 Fe286 1.918 . S
O288 Fe287 1.918 . S
O288 Fe289 1.918 . S
Fe289 O288 1.918 . S
Fe289 O290 2.002 . S
Fe289 O299 1.976 . S
Fe289 O303 1.996 . S
Fe289 O306 1.997 . S
O290 Fe289 2.002 . S
O290 C307 1.295 . S
O291 Fe286 1.997 . S
O291 C307 1.235 . S
O292 Fe286 2.002 1_455 S
O292 C293 1.295 . S
C293 O292 1.295 . S
C293 O295 1.235 1_455 S
C294 O299 1.287 . S
C294 O300 1.255 . S
O295 Fe287 1.997 . S
O295 C293 1.235 1_655 S
C296 O302 1.287 . S
C296 O303 1.255 . S
O297 Fe286 1.976 . S
O297 C304 1.287 . S
O298 Fe287 1.996 . S
O298 C304 1.255 . S
O299 Fe289 1.976 . S
O299 C294 1.287 . S
O300 Fe286 1.996 . S
O300 C294 1.255 . S
C301 O305 1.295 . S
C301 O306 1.235 . S
O302 Fe287 1.976 . S
O302 C296 1.287 . S
O303 Fe289 1.996 . S
O303 C296 1.255 . S
C304 O297 1.287 . S
C304 O298 1.255 . S
O305 Fe287 2.002 . S
O305 C301 1.295 . S
O306 Fe289 1.997 . S
O306 C301 1.235 . S
C307 O290 1.295 . S
C307 O291 1.235 . S
Fe308 O310 1.918 . S
Fe308 O313 1.997 . S
Fe308 O314 2.002 . S
Fe308 O319 1.976 . S
Fe308 O322 1.996 . S
Fe309 O310 1.918 . S
Fe309 O317 1.997 1_545 S
Fe309 O320 1.996 . S
Fe309 O324 1.976 . S
Fe309 O327 2.002 . S
O310 Fe308 1.918 . S
O310 Fe309 1.918 . S
O310 Fe311 1.918 . S
Fe311 O310 1.918 . S
Fe311 O312 2.002 . S
Fe311 O321 1.976 . S
Fe311 O325 1.996 . S
Fe311 O328 1.997 . S
O312 Fe311 2.002 . S
O312 C329 1.295 . S
O313 Fe308 1.997 . S
O313 C329 1.235 . S
O314 Fe308 2.002 . S
O314 C315 1.295 1_545 S
C315 O314 1.295 1_565 S
C315 O317 1.235 . S
C316 O321 1.287 . S
C316 O322 1.255 . S
O317 Fe309 1.997 1_565 S
O317 C315 1.235 . S
C318 O324 1.287 . S
C318 O325 1.255 . S
O319 Fe308 1.976 . S
O319 C326 1.287 . S
O320 Fe309 1.996 . S
O320 C326 1.255 . S
O321 Fe311 1.976 . S
O321 C316 1.287 . S
O322 Fe308 1.996 . S
O322 C316 1.255 . S
C323 O327 1.295 . S
C323 O328 1.235 . S
O324 Fe309 1.976 . S
O324 C318 1.287 . S
O325 Fe311 1.996 . S
O325 C318 1.255 . S
C326 O319 1.287 . S
C326 O320 1.255 . S
O327 Fe309 2.002 . S
O327 C323 1.295 . S
O328 Fe311 1.997 . S
O328 C323 1.235 . S
C329 O312 1.295 . S
C329 O313 1.235 . S
Fe330 O332 1.918 . S
Fe330 O335 1.997 . S
Fe330 O336 2.002 . S
Fe330 O341 1.976 . S
Fe330 O344 1.996 . S
Fe331 O332 1.918 . S
Fe331 O339 1.997 . S
Fe331 O342 1.996 . S
Fe331 O346 1.976 . S
Fe331 O349 2.002 1_455 S
O332 Fe330 1.918 . S
O332 Fe331 1.918 . S
O332 Fe333 1.918 . S
Fe333 O332 1.918 . S
Fe333 O334 2.002 . S
Fe333 O343 1.976 . S
Fe333 O347 1.996 . S
Fe333 O350 1.997 . S
O334 Fe333 2.002 . S
O334 C351 1.295 . S
O335 Fe330 1.997 . S
O335 C351 1.235 . S
O336 Fe330 2.002 . S
O336 C337 1.295 . S
C337 O336 1.295 . S
C337 O339 1.235 . S
C338 O343 1.287 . S
C338 O344 1.255 . S
O339 Fe331 1.997 . S
O339 C337 1.235 . S
C340 O346 1.287 . S
C340 O347 1.255 . S
O341 Fe330 1.976 . S
O341 C348 1.287 . S
O342 Fe331 1.996 . S
O342 C348 1.255 . S
O343 Fe333 1.976 . S
O343 C338 1.287 . S
O344 Fe330 1.996 . S
O344 C338 1.255 . S
C345 O349 1.295 . S
C345 O350 1.235 1_655 S
O346 Fe331 1.976 . S
O346 C340 1.287 . S
O347 Fe333 1.996 . S
O347 C340 1.255 . S
C348 O341 1.287 . S
C348 O342 1.255 . S
O349 Fe331 2.002 1_655 S
O349 C345 1.295 . S
O350 Fe333 1.997 . S
O350 C345 1.235 1_455 S
C351 O334 1.295 . S
C351 O335 1.235 . S
H352 C360 0.929 . S
H353 C362 0.930 . S
H354 C364 0.930 . S
H355 C367 0.929 . S
H356 C370 0.930 . S
H357 C372 0.960 . S
H358 C372 0.960 . S
H359 C372 0.960 . S
C360 H352 0.929 . S
C360 C361 1.377 . S
C360 C362 1.384 . S
C361 C360 1.377 . S
C361 C367 1.390 . S
C362 H353 0.930 . S
C362 C360 1.384 . S
C362 C363 1.372 . S
C363 C362 1.372 . S
C363 C364 1.400 . S
C363 C368 1.490 . S
C364 H354 0.930 . S
C364 C363 1.400 . S
C364 C367 1.386 . S
H365 C381 0.930 1_545 S
H366 C382 0.931 . S
C367 H355 0.929 . S
C367 C361 1.390 . S
C367 C364 1.386 . S
C368 C363 1.490 . S
C368 C370 1.395 . S
C368 C371 1.403 . S
H369 C375 0.930 . S
C370 H356 0.930 . S
C370 C368 1.395 . S
C370 C373 1.403 . S
C371 C368 1.403 . S
C371 C372 1.524 . S
C371 C375 1.400 . S
C372 H357 0.960 . S
C372 H358 0.960 . S
C372 H359 0.960 . S
C372 C371 1.524 . S
C373 C370 1.403 . S
C373 C374 1.392 . S
C373 C377 1.495 . S
C374 C373 1.392 . S
C374 C375 1.385 . S
C374 C376 1.478 . S
C375 H369 0.930 . S
C375 C371 1.400 . S
C375 C374 1.385 . S
C376 C374 1.478 . S
C376 C378 1.381 . S
C376 C382 1.383 . S
C377 C373 1.495 . S
C377 H383 0.959 . S
C377 H384 0.961 . S
C377 H385 0.960 . S
C378 C376 1.381 . S
C378 C379 1.394 . S
C378 H386 0.930 . S
C379 C378 1.394 . S
C379 C380 1.369 1_565 S
C379 H387 0.929 . S
C380 C379 1.369 1_545 S
C380 C381 1.374 1_545 S
C381 H365 0.930 1_565 S
C381 C380 1.374 1_565 S
C381 C382 1.379 . S
C382 H366 0.931 . S
C382 C376 1.383 . S
C382 C381 1.379 . S
H383 C377 0.959 . S
H384 C377 0.961 . S
H385 C377 0.960 . S
H386 C378 0.930 . S
H387 C379 0.929 . S
H388 C396 0.929 . S
H389 C398 0.930 . S
H390 C400 0.930 . S
H391 C403 0.929 . S
H392 C406 0.930 . S
H393 C408 0.960 . S
H394 C408 0.960 . S
H395 C408 0.960 . S
C396 H388 0.929 . S
C396 C397 1.377 . S
C396 C398 1.384 . S
C397 C396 1.377 . S
C397 C403 1.390 . S
C398 H389 0.930 . S
C398 C396 1.384 . S
C398 C399 1.372 . S
C399 C398 1.372 . S
C399 C400 1.400 . S
C399 C404 1.490 . S
C400 H390 0.930 . S
C400 C399 1.400 . S
C400 C403 1.386 . S
H401 C417 0.930 . S
H402 C418 0.931 . S
C403 H391 0.929 . S
C403 C397 1.390 . S
C403 C400 1.386 . S
C404 C399 1.490 . S
C404 C406 1.395 . S
C404 C407 1.403 . S
H405 C411 0.930 . S
C406 H392 0.930 . S
C406 C404 1.395 . S
C406 C409 1.403 . S
C407 C404 1.403 . S
C407 C408 1.524 . S
C407 C411 1.400 . S
C408 H393 0.960 . S
C408 H394 0.960 . S
C408 H395 0.960 . S
C408 C407 1.524 . S
C409 C406 1.403 . S
C409 C410 1.392 . S
C409 C413 1.495 . S
C410 C409 1.392 . S
C410 C411 1.385 . S
C410 C412 1.478 . S
C411 H405 0.930 . S
C411 C407 1.400 . S
C411 C410 1.385 . S
C412 C410 1.478 . S
C412 C414 1.381 . S
C412 C418 1.383 . S
C413 C409 1.495 . S
C413 H419 0.959 . S
C413 H420 0.961 . S
C413 H421 0.960 . S
C414 C412 1.381 . S
C414 C415 1.394 . S
C414 H422 0.930 . S
C415 C414 1.394 . S
C415 C416 1.383 1_655 S
C415 H423 0.929 . S
C416 C415 1.383 1_455 S
C416 C417 1.377 . S
C417 H401 0.930 . S
C417 C416 1.377 . S
C417 C418 1.379 1_455 S
C418 H402 0.931 . S
C418 C412 1.383 . S
C418 C417 1.379 1_655 S
H419 C413 0.959 . S
H420 C413 0.961 . S
H421 C413 0.960 . S
H422 C414 0.930 . S
H423 C415 0.929 . S
H424 C432 0.929 . S
H425 C434 0.930 . S
H426 C436 0.930 . S
H427 C439 0.929 . S
H428 C442 0.930 . S
H429 C444 0.960 . S
H430 C444 0.960 . S
H431 C444 0.960 . S
C432 H424 0.929 . S
C432 C433 1.377 . S
C432 C434 1.384 1_565 S
C433 C432 1.377 . S
C433 C439 1.390 1_565 S
C434 H425 0.930 . S
C434 C432 1.384 1_545 S
C434 C435 1.372 . S
C435 C434 1.372 . S
C435 C436 1.400 . S
C435 C440 1.490 . S
C436 H426 0.930 . S
C436 C435 1.400 . S
C436 C439 1.386 . S
H437 C453 0.930 . S
H438 C454 0.931 . S
C439 H427 0.929 . S
C439 C433 1.390 1_545 S
C439 C436 1.386 . S
C440 C435 1.490 . S
C440 C442 1.395 . S
C440 C443 1.403 . S
H441 C447 0.930 . S
C442 H428 0.930 . S
C442 C440 1.395 . S
C442 C445 1.403 . S
C443 C440 1.403 . S
C443 C444 1.524 . S
C443 C447 1.400 . S
C444 H429 0.960 . S
C444 H430 0.960 . S
C444 H431 0.960 . S
C444 C443 1.524 . S
C445 C442 1.403 . S
C445 C446 1.392 . S
C445 C449 1.495 . S
C446 C445 1.392 . S
C446 C447 1.385 . S
C446 C448 1.478 . S
C447 H441 0.930 . S
C447 C443 1.400 . S
C447 C446 1.385 . S
C448 C446 1.478 . S
C448 C450 1.381 . S
C448 C454 1.383 . S
C449 C445 1.495 . S
C449 H455 0.959 . S
C449 H456 0.961 . S
C449 H457 0.960 . S
C450 C448 1.381 . S
C450 C451 1.394 . S
C450 H458 0.930 . S
C451 C450 1.394 . S
C451 C452 1.383 . S
C451 H459 0.929 . S
C452 C451 1.383 . S
C452 C453 1.377 . S
C453 H437 0.930 . S
C453 C452 1.377 . S
C453 C454 1.379 . S
C454 H438 0.931 . S
C454 C448 1.383 . S
C454 C453 1.379 . S
H455 C449 0.959 . S
H456 C449 0.961 . S
H457 C449 0.960 . S
H458 C450 0.930 . S
H459 C451 0.929 . S
H460 C468 0.929 . S
H461 C470 0.930 . S
H462 C472 0.930 . S
H463 C475 0.929 . S
H464 C478 0.930 . S
H465 C480 0.960 . S
H466 C480 0.960 . S
H467 C480 0.960 . S
C468 H460 0.929 . S
C468 C469 1.377 1_455 S
C468 C470 1.384 . S
C469 C468 1.377 1_655 S
C469 C475 1.390 . S
C470 H461 0.930 . S
C470 C468 1.384 . S
C470 C471 1.372 . S
C471 C470 1.372 . S
C471 C472 1.400 . S
C471 C476 1.490 . S
C472 H462 0.930 . S
C472 C471 1.400 . S
C472 C475 1.386 1_455 S
H473 C489 0.930 . S
H474 C490 0.931 . S
C475 H463 0.929 . S
C475 C469 1.390 . S
C475 C472 1.386 1_655 S
C476 C471 1.490 . S
C476 C478 1.395 . S
C476 C479 1.403 . S
H477 C483 0.930 . S
C478 H464 0.930 . S
C478 C476 1.395 . S
C478 C481 1.403 . S
C479 C476 1.403 . S
C479 C480 1.524 . S
C479 C483 1.400 . S
C480 H465 0.960 . S
C480 H466 0.960 . S
C480 H467 0.960 . S
C480 C479 1.524 . S
C481 C478 1.403 . S
C481 C482 1.392 . S
C481 C485 1.495 . S
C482 C481 1.392 . S
C482 C483 1.385 . S
C482 C484 1.478 . S
C483 H477 0.930 . S
C483 C479 1.400 . S
C483 C482 1.385 . S
C484 C482 1.478 . S
C484 C486 1.381 . S
C484 C490 1.383 . S
C485 C481 1.495 . S
C485 H491 0.959 . S
C485 H492 0.961 . S
C485 H493 0.960 . S
C486 C484 1.381 . S
C486 C487 1.394 . S
C486 H494 0.930 . S
C487 C486 1.394 . S
C487 C488 1.383 . S
C487 H495 0.929 . S
C488 C487 1.383 . S
C488 C489 1.377 . S
C489 H473 0.930 . S
C489 C488 1.377 . S
C489 C490 1.379 . S
C490 H474 0.931 . S
C490 C484 1.383 . S
C490 C489 1.379 . S
H491 C485 0.959 . S
H492 C485 0.961 . S
H493 C485 0.960 . S
H494 C486 0.930 . S
H495 C487 0.929 . S
H496 C504 0.929 . S
H497 C506 0.930 . S
H498 C508 0.930 . S
H499 C511 0.929 . S
H500 C514 0.930 . S
H501 C516 0.960 . S
H502 C516 0.960 . S
H503 C516 0.960 . S
C504 H496 0.929 . S
C504 C505 1.377 . S
C504 C506 1.384 . S
C505 C504 1.377 . S
C505 C511 1.390 . S
C506 H497 0.930 . S
C506 C504 1.384 . S
C506 C507 1.372 . S
C507 C506 1.372 . S
C507 C508 1.400 . S
C507 C512 1.490 . S
C508 H498 0.930 . S
C508 C507 1.400 . S
C508 C511 1.386 . S
H509 C525 0.930 . S
H510 C526 0.931 . S
C511 H499 0.929 . S
C511 C505 1.390 . S
C511 C508 1.386 . S
C512 C507 1.490 . S
C512 C514 1.395 . S
C512 C515 1.403 . S
H513 C519 0.930 . S
C514 H500 0.930 . S
C514 C512 1.395 . S
C514 C517 1.403 . S
C515 C512 1.403 . S
C515 C516 1.524 . S
C515 C519 1.400 . S
C516 H501 0.960 . S
C516 H502 0.960 . S
C516 H503 0.960 . S
C516 C515 1.524 . S
C517 C514 1.403 . S
C517 C518 1.392 . S
C517 C521 1.495 . S
C518 C517 1.392 . S
C518 C519 1.385 . S
C518 C520 1.478 . S
C519 H513 0.930 . S
C519 C515 1.400 . S
C519 C518 1.385 . S
C520 C518 1.478 . S
C520 C522 1.381 . S
C520 C526 1.383 . S
C521 C517 1.495 . S
C521 H527 0.959 . S
C521 H528 0.961 . S
C521 H529 0.960 . S
C522 C520 1.381 . S
C522 C523 1.394 . S
C522 H530 0.930 . S
C523 C522 1.394 . S
C523 C524 1.383 . S
C523 H531 0.929 . S
C524 C523 1.383 . S
C524 C525 1.377 . S
C525 H509 0.930 . S
C525 C524 1.377 . S
C525 C526 1.379 . S
C526 H510 0.931 . S
C526 C520 1.383 . S
C526 C525 1.379 . S
H527 C521 0.959 . S
H528 C521 0.961 . S
H529 C521 0.960 . S
H530 C522 0.930 . S
H531 C523 0.929 . S
H532 C540 0.929 . S
H533 C542 0.930 . S
H534 C544 0.930 . S
H535 C547 0.929 . S
H536 C550 0.930 . S
H537 C552 0.960 . S
H538 C552 0.960 . S
H539 C552 0.960 . S
C540 H532 0.929 . S
C540 C541 1.377 . S
C540 C542 1.384 . S
C541 C540 1.377 . S
C541 C547 1.390 . S
C542 H533 0.930 . S
C542 C540 1.384 . S
C542 C543 1.372 . S
C543 C542 1.372 . S
C543 C544 1.400 . S
C543 C548 1.490 . S
C544 H534 0.930 . S
C544 C543 1.400 . S
C544 C547 1.386 . S
H545 C561 0.930 . S
H546 C562 0.931 . S
C547 H535 0.929 . S
C547 C541 1.390 . S
C547 C544 1.386 . S
C548 C543 1.490 . S
C548 C550 1.395 . S
C548 C551 1.403 . S
H549 C555 0.930 . S
C550 H536 0.930 . S
C550 C548 1.395 . S
C550 C553 1.403 . S
C551 C548 1.403 . S
C551 C552 1.524 . S
C551 C555 1.400 . S
C552 H537 0.960 . S
C552 H538 0.960 . S
C552 H539 0.960 . S
C552 C551 1.524 . S
C553 C550 1.403 . S
C553 C554 1.392 . S
C553 C557 1.495 . S
C554 C553 1.392 . S
C554 C555 1.385 . S
C554 C556 1.478 . S
C555 H549 0.930 . S
C555 C551 1.400 . S
C555 C554 1.385 . S
C556 C554 1.478 . S
C556 C558 1.381 . S
C556 C562 1.383 . S
C557 C553 1.495 . S
C557 H563 0.959 . S
C557 H564 0.961 . S
C557 H565 0.960 . S
C558 C556 1.381 . S
C558 C559 1.394 . S
C558 H566 0.930 . S
C559 C558 1.394 . S
C559 C560 1.383 . S
C559 H567 0.929 . S
C560 C559 1.383 . S
C560 C561 1.377 . S
C561 H545 0.930 . S
C561 C560 1.377 . S
C561 C562 1.379 . S
C562 H546 0.931 . S
C562 C556 1.383 . S
C562 C561 1.379 . S
H563 C557 0.959 . S
H564 C557 0.961 . S
H565 C557 0.960 . S
H566 C558 0.930 . S
H567 C559 0.929 . S
H568 C576 0.929 . S
H569 C578 0.930 . S
H570 C580 0.930 . S
H571 C583 0.929 . S
H572 C586 0.930 . S
H573 C588 0.960 . S
H574 C588 0.960 . S
H575 C588 0.960 . S
C576 H568 0.929 . S
C576 C577 1.377 . S
C576 C578 1.384 . S
C577 C576 1.377 . S
C577 C583 1.390 . S
C578 H569 0.930 . S
C578 C576 1.384 . S
C578 C579 1.372 . S
C579 C578 1.372 . S
C579 C580 1.400 . S
C579 C584 1.490 . S
C580 H570 0.930 . S
C580 C579 1.400 . S
C580 C583 1.386 . S
H581 C597 0.930 . S
H582 C598 0.931 . S
C583 H571 0.929 . S
C583 C577 1.390 . S
C583 C580 1.386 . S
C584 C579 1.490 . S
C584 C586 1.395 . S
C584 C587 1.403 . S
H585 C591 0.930 . S
C586 H572 0.930 . S
C586 C584 1.395 . S
C586 C589 1.403 . S
C587 C584 1.403 . S
C587 C588 1.524 . S
C587 C591 1.400 . S
C588 H573 0.960 . S
C588 H574 0.960 . S
C588 H575 0.960 . S
C588 C587 1.524 . S
C589 C586 1.403 . S
C589 C590 1.392 . S
C589 C593 1.495 . S
C590 C589 1.392 . S
C590 C591 1.385 . S
C590 C592 1.478 . S
C591 H585 0.930 . S
C591 C587 1.400 . S
C591 C590 1.385 . S
C592 C590 1.478 . S
C592 C594 1.381 . S
C592 C598 1.383 . S
C593 C589 1.495 . S
C593 H599 0.959 . S
C593 H600 0.961 . S
C593 H601 0.960 . S
C594 C592 1.381 . S
C594 C595 1.394 . S
C594 H602 0.930 . S
C595 C594 1.394 . S
C595 C596 1.383 . S
C595 H603 0.929 . S
C596 C595 1.383 . S
C596 C597 1.377 . S
C597 H581 0.930 . S
C597 C596 1.377 . S
C597 C598 1.379 . S
C598 H582 0.931 . S
C598 C592 1.383 . S
C598 C597 1.379 . S
H599 C593 0.959 . S
H600 C593 0.961 . S
H601 C593 0.960 . S
H602 C594 0.930 . S
H603 C595 0.929 . S
H604 C612 0.929 . S
H605 C614 0.930 . S
H606 C616 0.930 . S
H607 C619 0.929 . S
H608 C622 0.930 . S
H609 C624 0.960 . S
H610 C624 0.960 . S
H611 C624 0.960 . S
C612 H604 0.929 . S
C612 C613 1.377 . S
C612 C614 1.384 . S
C613 C612 1.377 . S
C613 C619 1.390 . S
C614 H605 0.930 . S
C614 C612 1.384 . S
C614 C615 1.372 . S
C615 C614 1.372 . S
C615 C616 1.400 . S
C615 C620 1.490 . S
C616 H606 0.930 . S
C616 C615 1.400 . S
C616 C619 1.386 . S
H617 C633 0.930 . S
H618 C634 0.931 . S
C619 H607 0.929 . S
C619 C613 1.390 . S
C619 C616 1.386 . S
C620 C615 1.490 . S
C620 C622 1.395 . S
C620 C623 1.403 . S
H621 C627 0.930 . S
C622 H608 0.930 . S
C622 C620 1.395 . S
C622 C625 1.403 . S
C623 C620 1.403 . S
C623 C624 1.524 . S
C623 C627 1.400 . S
C624 H609 0.960 . S
C624 H610 0.960 . S
C624 H611 0.960 . S
C624 C623 1.524 . S
C625 C622 1.403 . S
C625 C626 1.392 . S
C625 C629 1.495 . S
C626 C625 1.392 . S
C626 C627 1.385 . S
C626 C628 1.478 . S
C627 H621 0.930 . S
C627 C623 1.400 . S
C627 C626 1.385 . S
C628 C626 1.478 . S
C628 C630 1.381 . S
C628 C634 1.383 . S
C629 C625 1.495 . S
C629 H635 0.959 . S
C629 H636 0.961 . S
C629 H637 0.960 . S
C630 C628 1.381 . S
C630 C631 1.394 . S
C630 H638 0.930 . S
C631 C630 1.394 . S
C631 C632 1.383 . S
C631 H639 0.929 . S
C632 C631 1.383 . S
C632 C633 1.377 . S
C633 H617 0.930 . S
C633 C632 1.377 . S
C633 C634 1.379 . S
C634 H618 0.931 . S
C634 C628 1.383 . S
C634 C633 1.379 . S
H635 C629 0.959 . S
H636 C629 0.961 . S
H637 C629 0.960 . S
H638 C630 0.930 . S
H639 C631 0.929 . S
H640 C648 0.929 . S
H641 C650 0.930 . S
H642 C652 0.930 . S
H643 C655 0.929 . S
H644 C658 0.930 . S
H645 C660 0.960 . S
H646 C660 0.960 . S
H647 C660 0.960 . S
C648 H640 0.929 . S
C648 C649 1.377 . S
C648 C650 1.384 . S
C649 C648 1.377 . S
C649 C655 1.390 . S
C650 H641 0.930 . S
C650 C648 1.384 . S
C650 C651 1.372 . S
C651 C650 1.372 . S
C651 C652 1.400 . S
C651 C656 1.490 . S
C652 H642 0.930 . S
C652 C651 1.400 . S
C652 C655 1.386 . S
H653 C669 0.930 . S
H654 C670 0.931 . S
C655 H643 0.929 . S
C655 C649 1.390 . S
C655 C652 1.386 . S
C656 C651 1.490 . S
C656 C658 1.395 . S
C656 C659 1.403 . S
H657 C663 0.930 . S
C658 H644 0.930 . S
C658 C656 1.395 . S
C658 C661 1.403 . S
C659 C656 1.403 . S
C659 C660 1.524 . S
C659 C663 1.400 . S
C660 H645 0.960 . S
C660 H646 0.960 . S
C660 H647 0.960 . S
C660 C659 1.524 . S
C661 C658 1.403 . S
C661 C662 1.392 . S
C661 C665 1.495 . S
C662 C661 1.392 . S
C662 C663 1.385 . S
C662 C664 1.478 . S
C663 H657 0.930 . S
C663 C659 1.400 . S
C663 C662 1.385 . S
C664 C662 1.478 . S
C664 C666 1.381 . S
C664 C670 1.383 . S
C665 C661 1.495 . S
C665 H671 0.959 . S
C665 H672 0.961 . S
C665 H673 0.960 . S
C666 C664 1.381 . S
C666 C667 1.394 . S
C666 H674 0.930 . S
C667 C666 1.394 . S
C667 C668 1.383 . S
C667 H675 0.929 . S
C668 C667 1.383 . S
C668 C669 1.377 . S
C669 H653 0.930 . S
C669 C668 1.377 . S
C669 C670 1.379 . S
C670 H654 0.931 . S
C670 C664 1.383 . S
C670 C669 1.379 . S
H671 C665 0.959 . S
H672 C665 0.961 . S
H673 C665 0.960 . S
H674 C666 0.930 . S
H675 C667 0.929 . S
H676 C684 0.929 . S
H677 C686 0.930 . S
H678 C688 0.930 . S
H679 C691 0.929 . S
H680 C694 0.930 . S
H681 C696 0.960 . S
H682 C696 0.960 . S
H683 C696 0.960 . S
C684 H676 0.929 . S
C684 C685 1.377 . S
C684 C686 1.384 . S
C685 C684 1.377 . S
C685 C691 1.390 . S
C686 H677 0.930 . S
C686 C684 1.384 . S
C686 C687 1.372 . S
C687 C686 1.372 . S
C687 C688 1.400 . S
C687 C692 1.490 . S
C688 H678 0.930 . S
C688 C687 1.400 . S
C688 C691 1.386 . S
H689 C705 0.930 . S
H690 C706 0.931 . S
C691 H679 0.929 . S
C691 C685 1.390 . S
C691 C688 1.386 . S
C692 C687 1.490 . S
C692 C694 1.395 . S
C692 C695 1.403 . S
H693 C699 0.930 . S
C694 H680 0.930 . S
C694 C692 1.395 . S
C694 C697 1.403 . S
C695 C692 1.403 . S
C695 C696 1.524 . S
C695 C699 1.400 . S
C696 H681 0.960 . S
C696 H682 0.960 . S
C696 H683 0.960 . S
C696 C695 1.524 . S
C697 C694 1.403 . S
C697 C698 1.392 . S
C697 C701 1.495 . S
C698 C697 1.392 . S
C698 C699 1.385 . S
C698 C700 1.478 . S
C699 H693 0.930 . S
C699 C695 1.400 . S
C699 C698 1.385 . S
C700 C698 1.478 . S
C700 C702 1.381 . S
C700 C706 1.383 . S
C701 C697 1.495 . S
C701 H707 0.959 . S
C701 H708 0.961 . S
C701 H709 0.960 . S
C702 C700 1.381 . S
C702 C703 1.394 . S
C702 H710 0.930 . S
C703 C702 1.394 . S
C703 C704 1.383 . S
C703 H711 0.929 . S
C704 C703 1.383 . S
C704 C705 1.377 . S
C705 H689 0.930 . S
C705 C704 1.377 . S
C705 C706 1.379 . S
C706 H690 0.931 . S
C706 C700 1.383 . S
C706 C705 1.379 . S
H707 C701 0.959 . S
H708 C701 0.961 . S
H709 C701 0.960 . S
H710 C702 0.930 . S
H711 C703 0.929 . S
H712 C720 0.929 . S
H713 C722 0.930 . S
H714 C724 0.930 . S
H715 C727 0.929 . S
H716 C730 0.930 . S
H717 C732 0.960 . S
H718 C732 0.960 . S
H719 C732 0.960 . S
C720 H712 0.929 . S
C720 C721 1.377 . S
C720 C722 1.384 . S
C721 C720 1.377 . S
C721 C727 1.390 . S
C722 H713 0.930 . S
C722 C720 1.384 . S
C722 C723 1.372 . S
C723 C722 1.372 . S
C723 C724 1.400 . S
C723 C728 1.490 . S
C724 H714 0.930 . S
C724 C723 1.400 . S
C724 C727 1.386 . S
H725 C741 0.930 . S
H726 C742 0.931 . S
C727 H715 0.929 . S
C727 C721 1.390 . S
C727 C724 1.386 . S
C728 C723 1.490 . S
C728 C730 1.395 . S
C728 C731 1.403 . S
H729 C735 0.930 . S
C730 H716 0.930 . S
C730 C728 1.395 . S
C730 C733 1.403 . S
C731 C728 1.403 . S
C731 C732 1.524 . S
C731 C735 1.400 . S
C732 H717 0.960 . S
C732 H718 0.960 . S
C732 H719 0.960 . S
C732 C731 1.524 . S
C733 C730 1.403 . S
C733 C734 1.392 . S
C733 C737 1.495 . S
C734 C733 1.392 . S
C734 C735 1.385 . S
C734 C736 1.478 . S
C735 H729 0.930 . S
C735 C731 1.400 . S
C735 C734 1.385 . S
C736 C734 1.478 . S
C736 C738 1.381 . S
C736 C742 1.383 . S
C737 C733 1.495 . S
C737 H743 0.959 . S
C737 H744 0.961 . S
C737 H745 0.960 . S
C738 C736 1.381 . S
C738 C739 1.394 . S
C738 H746 0.930 . S
C739 C738 1.394 . S
C739 C740 1.383 . S
C739 H747 0.929 . S
C740 C739 1.383 . S
C740 C741 1.377 . S
C741 H725 0.930 . S
C741 C740 1.377 . S
C741 C742 1.379 . S
C742 H726 0.931 . S
C742 C736 1.383 . S
C742 C741 1.379 . S
H743 C737 0.959 . S
H744 C737 0.961 . S
H745 C737 0.960 . S
H746 C738 0.930 . S
H747 C739 0.929 . S
H748 C756 0.929 . S
H749 C758 0.930 . S
H750 C760 0.930 . S
H751 C763 0.929 . S
H752 C766 0.930 . S
H753 C768 0.960 . S
H754 C768 0.960 . S
H755 C768 0.960 . S
C756 H748 0.929 . S
C756 C757 1.377 . S
C756 C758 1.384 . S
C757 C756 1.377 . S
C757 C763 1.390 . S
C758 H749 0.930 . S
C758 C756 1.384 . S
C758 C759 1.372 . S
C759 C758 1.372 . S
C759 C760 1.400 . S
C759 C764 1.490 . S
C760 H750 0.930 . S
C760 C759 1.400 . S
C760 C763 1.386 . S
H761 C777 0.930 . S
H762 C778 0.931 . S
C763 H751 0.929 . S
C763 C757 1.390 . S
C763 C760 1.386 . S
C764 C759 1.490 . S
C764 C766 1.395 . S
C764 C767 1.403 . S
H765 C771 0.930 . S
C766 H752 0.930 . S
C766 C764 1.395 . S
C766 C769 1.403 . S
C767 C764 1.403 . S
C767 C768 1.524 . S
C767 C771 1.400 . S
C768 H753 0.960 . S
C768 H754 0.960 . S
C768 H755 0.960 . S
C768 C767 1.524 . S
C769 C766 1.403 . S
C769 C770 1.392 . S
C769 C773 1.495 . S
C770 C769 1.392 . S
C770 C771 1.385 . S
C770 C772 1.478 . S
C771 H765 0.930 . S
C771 C767 1.400 . S
C771 C770 1.385 . S
C772 C770 1.478 . S
C772 C774 1.381 . S
C772 C778 1.383 . S
C773 C769 1.495 . S
C773 H779 0.959 . S
C773 H780 0.961 . S
C773 H781 0.960 . S
C774 C772 1.381 . S
C774 C775 1.394 . S
C774 H782 0.930 . S
C775 C774 1.394 . S
C775 C776 1.383 . S
C775 H783 0.929 . S
C776 C775 1.383 . S
C776 C777 1.377 . S
C777 H761 0.930 . S
C777 C776 1.377 . S
C777 C778 1.379 . S
C778 H762 0.931 . S
C778 C772 1.383 . S
C778 C777 1.379 . S
H779 C773 0.959 . S
H780 C773 0.961 . S
H781 C773 0.960 . S
H782 C774 0.930 . S
H783 C775 0.929 . S
H784 C792 0.929 . S
H785 C794 0.930 . S
H786 C796 0.930 . S
H787 C799 0.929 . S
H788 C802 0.930 . S
H789 C804 0.960 . S
H790 C804 0.960 . S
H791 C804 0.960 . S
C792 H784 0.929 . S
C792 C793 1.377 1_545 S
C792 C794 1.384 . S
C793 C792 1.377 1_565 S
C793 C799 1.390 . S
C794 H785 0.930 . S
C794 C792 1.384 . S
C794 C795 1.372 . S
C795 C794 1.372 . S
C795 C796 1.400 . S
C795 C800 1.490 . S
C796 H786 0.930 . S
C796 C795 1.400 . S
C796 C799 1.386 1_545 S
H797 C813 0.930 . S
H798 C814 0.931 . S
C799 H787 0.929 . S
C799 C793 1.390 . S
C799 C796 1.386 1_565 S
C800 C795 1.490 . S
C800 C802 1.395 . S
C800 C803 1.403 . S
H801 C807 0.930 . S
C802 H788 0.930 . S
C802 C800 1.395 . S
C802 C805 1.403 . S
C803 C800 1.403 . S
C803 C804 1.524 . S
C803 C807 1.400 . S
C804 H789 0.960 . S
C804 H790 0.960 . S
C804 H791 0.960 . S
C804 C803 1.524 . S
C805 C802 1.403 . S
C805 C806 1.392 . S
C805 C809 1.495 . S
C806 C805 1.392 . S
C806 C807 1.385 . S
C806 C808 1.478 . S
C807 H801 0.930 . S
C807 C803 1.400 . S
C807 C806 1.385 . S
C808 C806 1.478 . S
C808 C810 1.381 . S
C808 C814 1.383 . S
C809 C805 1.495 . S
C809 H815 0.959 . S
C809 H816 0.961 . S
C809 H817 0.960 . S
C810 C808 1.381 . S
C810 C811 1.394 . S
C810 H818 0.930 . S
C811 C810 1.394 . S
C811 C812 1.383 . S
C811 H819 0.929 . S
C812 C811 1.383 . S
C812 C813 1.377 . S
C813 H797 0.930 . S
C813 C812 1.377 . S
C813 C814 1.379 . S
C814 H798 0.931 . S
C814 C808 1.383 . S
C814 C813 1.379 . S
H815 C809 0.959 . S
H816 C809 0.961 . S
H817 C809 0.960 . S
H818 C810 0.930 . S
H819 C811 0.929 . S
H820 C828 0.929 . S
H821 C830 0.930 . S
H822 C832 0.930 . S
H823 C835 0.929 . S
H824 C838 0.930 . S
H825 C840 0.960 . S
H826 C840 0.960 . S
H827 C840 0.960 . S
C828 H820 0.929 . S
C828 C829 1.377 . S
C828 C830 1.384 . S
C829 C828 1.377 . S
C829 C835 1.390 . S
C830 H821 0.930 . S
C830 C828 1.384 . S
C830 C831 1.372 . S
C831 C830 1.372 . S
C831 C832 1.400 . S
C831 C836 1.490 . S
C832 H822 0.930 . S
C832 C831 1.400 . S
C832 C835 1.386 . S
H833 C849 0.930 . S
H834 C850 0.931 . S
C835 H823 0.929 . S
C835 C829 1.390 . S
C835 C832 1.386 . S
C836 C831 1.490 . S
C836 C838 1.395 . S
C836 C839 1.403 . S
H837 C843 0.930 . S
C838 H824 0.930 . S
C838 C836 1.395 . S
C838 C841 1.403 . S
C839 C836 1.403 . S
C839 C840 1.524 . S
C839 C843 1.400 . S
C840 H825 0.960 . S
C840 H826 0.960 . S
C840 H827 0.960 . S
C840 C839 1.524 . S
C841 C838 1.403 . S
C841 C842 1.392 . S
C841 C845 1.495 . S
C842 C841 1.392 . S
C842 C843 1.385 . S
C842 C844 1.478 . S
C843 H837 0.930 . S
C843 C839 1.400 . S
C843 C842 1.385 . S
C844 C842 1.478 . S
C844 C846 1.381 . S
C844 C850 1.383 . S
C845 C841 1.495 . S
C845 H851 0.959 . S
C845 H852 0.961 . S
C845 H853 0.960 . S
C846 C844 1.381 . S
C846 C847 1.394 1_455 S
C846 H854 0.930 . S
C847 C846 1.394 1_655 S
C847 C848 1.383 . S
C847 H855 0.929 . S
C848 C847 1.383 . S
C848 C849 1.377 1_655 S
C849 H833 0.930 . S
C849 C848 1.377 1_455 S
C849 C850 1.379 . S
C850 H834 0.931 . S
C850 C844 1.383 . S
C850 C849 1.379 . S
H851 C845 0.959 . S
H852 C845 0.961 . S
H853 C845 0.960 . S
H854 C846 0.930 . S
H855 C847 0.929 . S
H856 C864 0.929 . S
H857 C866 0.930 . S
H858 C868 0.930 . S
H859 C871 0.929 . S
H860 C874 0.930 . S
H861 C876 0.960 . S
H862 C876 0.960 . S
H863 C876 0.960 . S
C864 H856 0.929 . S
C864 C865 1.377 . S
C864 C866 1.384 . S
C865 C864 1.377 . S
C865 C871 1.390 . S
C866 H857 0.930 . S
C866 C864 1.384 . S
C866 C867 1.372 . S
C867 C866 1.372 . S
C867 C868 1.400 . S
C867 C872 1.490 . S
C868 H858 0.930 . S
C868 C867 1.400 . S
C868 C871 1.386 . S
H869 C885 0.930 . S
H870 C886 0.931 . S
C871 H859 0.929 . S
C871 C865 1.390 . S
C871 C868 1.386 . S
C872 C867 1.490 . S
C872 C874 1.395 . S
C872 C875 1.403 . S
H873 C879 0.930 . S
C874 H860 0.930 . S
C874 C872 1.395 . S
C874 C877 1.403 . S
C875 C872 1.403 . S
C875 C876 1.524 . S
C875 C879 1.400 . S
C876 H861 0.960 . S
C876 H862 0.960 . S
C876 H863 0.960 . S
C876 C875 1.524 . S
C877 C874 1.403 . S
C877 C878 1.392 . S
C877 C881 1.495 . S
C878 C877 1.392 . S
C878 C879 1.385 . S
C878 C880 1.478 . S
C879 H873 0.930 . S
C879 C875 1.400 . S
C879 C878 1.385 . S
C880 C878 1.478 . S
C880 C882 1.381 . S
C880 C886 1.383 . S
C881 C877 1.495 . S
C881 H887 0.959 . S
C881 H888 0.961 . S
C881 H889 0.960 . S
C882 C880 1.381 . S
C882 C883 1.394 . S
C882 H890 0.930 . S
C883 C882 1.394 . S
C883 C884 1.383 1_565 S
C883 H891 0.929 1_565 S
C884 C883 1.383 1_545 S
C884 C885 1.377 1_545 S
C885 H869 0.930 . S
C885 C884 1.377 1_565 S
C885 C886 1.379 . S
C886 H870 0.931 . S
C886 C880 1.383 . S
C886 C885 1.379 . S
H887 C881 0.959 . S
H888 C881 0.961 . S
H889 C881 0.960 . S
H890 C882 0.930 . S
H891 C883 0.929 1_545 S
H892 C900 0.929 . S
H893 C902 0.930 . S
H894 C904 0.930 . S
H895 C907 0.929 . S
H896 C910 0.930 . S
H897 C912 0.960 . S
H898 C912 0.960 . S
H899 C912 0.960 . S
C900 H892 0.929 . S
C900 C901 1.377 . S
C900 C902 1.384 . S
C901 C900 1.377 . S
C901 C907 1.390 . S
C902 H893 0.930 . S
C902 C900 1.384 . S
C902 C903 1.372 . S
C903 C902 1.372 . S
C903 C904 1.400 . S
C903 C908 1.490 . S
C904 H894 0.930 . S
C904 C903 1.400 . S
C904 C907 1.386 . S
H905 C921 0.930 . S
H906 C922 0.931 . S
C907 H895 0.929 . S
C907 C901 1.390 . S
C907 C904 1.386 . S
C908 C903 1.490 . S
C908 C910 1.395 . S
C908 C911 1.403 . S
H909 C915 0.930 . S
C910 H896 0.930 . S
C910 C908 1.395 . S
C910 C913 1.403 . S
C911 C908 1.403 . S
C911 C912 1.524 . S
C911 C915 1.400 . S
C912 H897 0.960 . S
C912 H898 0.960 . S
C912 H899 0.960 . S
C912 C911 1.524 . S
C913 C910 1.403 . S
C913 C914 1.392 . S
C913 C917 1.495 . S
C914 C913 1.392 . S
C914 C915 1.385 . S
C914 C916 1.478 . S
C915 H909 0.930 . S
C915 C911 1.400 . S
C915 C914 1.385 . S
C916 C914 1.478 . S
C916 C918 1.381 . S
C916 C922 1.383 . S
C917 C913 1.495 . S
C917 H923 0.959 . S
C917 H924 0.961 . S
C917 H925 0.960 . S
C918 C916 1.381 . S
C918 C919 1.394 . S
C918 H926 0.930 . S
C919 C918 1.394 . S
C919 C920 1.383 1_655 S
C919 H927 0.929 1_655 S
C920 C919 1.383 1_455 S
C920 C921 1.377 1_455 S
C921 H905 0.930 . S
C921 C920 1.377 1_655 S
C921 C922 1.379 . S
C922 H906 0.931 . S
C922 C916 1.383 . S
C922 C921 1.379 . S
H923 C917 0.959 . S
H924 C917 0.961 . S
H925 C917 0.960 . S
H926 C918 0.930 . S
H927 C919 0.929 1_455 S
H928 C936 0.929 . S
H929 C938 0.930 . S
H930 C940 0.930 . S
H931 C943 0.929 . S
H932 C946 0.930 . S
H933 C948 0.960 . S
H934 C948 0.960 . S
H935 C948 0.960 . S
C936 H928 0.929 . S
C936 C937 1.377 . S
C936 C938 1.384 . S
C937 C936 1.377 . S
C937 C943 1.390 . S
C938 H929 0.930 . S
C938 C936 1.384 . S
C938 C939 1.372 . S
C939 C938 1.372 . S
C939 C940 1.400 . S
C939 C944 1.490 . S
C940 H930 0.930 . S
C940 C939 1.400 . S
C940 C943 1.386 . S
H941 C957 0.930 . S
H942 C958 0.931 . S
C943 H931 0.929 . S
C943 C937 1.390 . S
C943 C940 1.386 . S
C944 C939 1.490 . S
C944 C946 1.395 . S
C944 C947 1.403 . S
H945 C951 0.930 . S
C946 H932 0.930 . S
C946 C944 1.395 . S
C946 C949 1.403 . S
C947 C944 1.403 . S
C947 C948 1.524 . S
C947 C951 1.400 . S
C948 H933 0.960 . S
C948 H934 0.960 . S
C948 H935 0.960 . S
C948 C947 1.524 . S
C949 C946 1.403 . S
C949 C950 1.392 . S
C949 C953 1.495 . S
C950 C949 1.392 . S
C950 C951 1.385 . S
C950 C952 1.478 . S
C951 H945 0.930 . S
C951 C947 1.400 . S
C951 C950 1.385 . S
C952 C950 1.478 . S
C952 C954 1.381 . S
C952 C958 1.383 . S
C953 C949 1.495 . S
C953 H959 0.959 . S
C953 H960 0.961 . S
C953 H961 0.960 . S
C954 C952 1.381 . S
C954 C955 1.394 . S
C954 H962 0.930 . S
C955 C954 1.394 . S
C955 C956 1.383 . S
C955 H963 0.929 . S
C956 C955 1.383 . S
C956 C957 1.377 . S
C957 H941 0.930 . S
C957 C956 1.377 . S
C957 C958 1.379 . S
C958 H942 0.931 . S
C958 C952 1.383 . S
C958 C957 1.379 . S
H959 C953 0.959 . S
H960 C953 0.961 . S
H961 C953 0.960 . S
H962 C954 0.930 . S
H963 C955 0.929 . S
H964 C972 0.929 . S
H965 C974 0.930 . S
H966 C976 0.930 . S
H967 C979 0.929 . S
H968 C982 0.930 . S
H969 C984 0.960 . S
H970 C984 0.960 . S
H971 C984 0.960 . S
C972 H964 0.929 . S
C972 C973 1.377 . S
C972 C974 1.384 . S
C973 C972 1.377 . S
C973 C979 1.390 . S
C974 H965 0.930 . S
C974 C972 1.384 . S
C974 C975 1.372 . S
C975 C974 1.372 . S
C975 C976 1.400 . S
C975 C980 1.490 . S
C976 H966 0.930 . S
C976 C975 1.400 . S
C976 C979 1.386 . S
H977 C993 0.930 . S
H978 C994 0.931 . S
C979 H967 0.929 . S
C979 C973 1.390 . S
C979 C976 1.386 . S
C980 C975 1.490 . S
C980 C982 1.395 . S
C980 C983 1.403 . S
H981 C987 0.930 . S
C982 H968 0.930 . S
C982 C980 1.395 . S
C982 C985 1.403 . S
C983 C980 1.403 . S
C983 C984 1.524 . S
C983 C987 1.400 . S
C984 H969 0.960 . S
C984 H970 0.960 . S
C984 H971 0.960 . S
C984 C983 1.524 . S
C985 C982 1.403 . S
C985 C986 1.392 . S
C985 C989 1.495 . S
C986 C985 1.392 . S
C986 C987 1.385 . S
C986 C988 1.478 . S
C987 H981 0.930 . S
C987 C983 1.400 . S
C987 C986 1.385 . S
C988 C986 1.478 . S
C988 C990 1.381 . S
C988 C994 1.383 . S
C989 C985 1.495 . S
C989 H995 0.959 . S
C989 H996 0.961 . S
C989 H997 0.960 . S
C990 C988 1.381 . S
C990 C991 1.394 . S
C990 H998 0.930 . S
C991 C990 1.394 . S
C991 C992 1.383 . S
C991 H999 0.929 . S
C992 C991 1.383 . S
C992 C993 1.377 . S
C993 H977 0.930 . S
C993 C992 1.377 . S
C993 C994 1.379 . S
C994 H978 0.931 . S
C994 C988 1.383 . S
C994 C993 1.379 . S
H995 C989 0.959 . S
H996 C989 0.961 . S
H997 C989 0.960 . S
H998 C990 0.930 . S
H999 C991 0.929 . S
H1000 C1008 0.929 . S
H1001 C1010 0.930 . S
H1002 C1012 0.930 . S
H1003 C1015 0.929 . S
H1004 C1018 0.930 . S
H1005 C1020 0.960 . S
H1006 C1020 0.960 . S
H1007 C1020 0.960 . S
C1008 H1000 0.929 . S
C1008 C1009 1.377 . S
C1008 C1010 1.384 . S
C1009 C1008 1.377 . S
C1009 C1015 1.390 . S
C1010 H1001 0.930 . S
C1010 C1008 1.384 . S
C1010 C1011 1.372 . S
C1011 C1010 1.372 . S
C1011 C1012 1.400 . S
C1011 C1016 1.490 . S
C1012 H1002 0.930 . S
C1012 C1011 1.400 . S
C1012 C1015 1.386 . S
H1013 C1029 0.930 . S
H1014 C1030 0.931 . S
C1015 H1003 0.929 . S
C1015 C1009 1.390 . S
C1015 C1012 1.386 . S
C1016 C1011 1.490 . S
C1016 C1018 1.395 . S
C1016 C1019 1.403 . S
H1017 C1023 0.930 . S
C1018 H1004 0.930 . S
C1018 C1016 1.395 . S
C1018 C1021 1.403 . S
C1019 C1016 1.403 . S
C1019 C1020 1.524 . S
C1019 C1023 1.400 . S
C1020 H1005 0.960 . S
C1020 H1006 0.960 . S
C1020 H1007 0.960 . S
C1020 C1019 1.524 . S
C1021 C1018 1.403 . S
C1021 C1022 1.392 . S
C1021 C1025 1.495 . S
C1022 C1021 1.392 . S
C1022 C1023 1.385 . S
C1022 C1024 1.478 . S
C1023 H1017 0.930 . S
C1023 C1019 1.400 . S
C1023 C1022 1.385 . S
C1024 C1022 1.478 . S
C1024 C1026 1.381 . S
C1024 C1030 1.383 . S
C1025 C1021 1.495 . S
C1025 H1031 0.959 . S
C1025 H1032 0.961 . S
C1025 H1033 0.960 . S
C1026 C1024 1.381 . S
C1026 C1027 1.394 . S
C1026 H1034 0.930 . S
C1027 C1026 1.394 . S
C1027 C1028 1.383 . S
C1027 H1035 0.929 . S
C1028 C1027 1.383 . S
C1028 C1029 1.377 . S
C1029 H1013 0.930 . S
C1029 C1028 1.377 . S
C1029 C1030 1.379 . S
C1030 H1014 0.931 . S
C1030 C1024 1.383 . S
C1030 C1029 1.379 . S
H1031 C1025 0.959 . S
H1032 C1025 0.961 . S
H1033 C1025 0.960 . S
H1034 C1026 0.930 . S
H1035 C1027 0.929 . S
H1036 C1044 0.929 . S
H1037 C1046 0.930 . S
H1038 C1048 0.930 . S
H1039 C1051 0.929 . S
H1040 C1054 0.930 . S
H1041 C1056 0.960 . S
H1042 C1056 0.960 . S
H1043 C1056 0.960 . S
C1044 H1036 0.929 . S
C1044 C1045 1.377 . S
C1044 C1046 1.384 . S
C1045 C1044 1.377 . S
C1045 C1051 1.390 . S
C1046 H1037 0.930 . S
C1046 C1044 1.384 . S
C1046 C1047 1.372 . S
C1047 C1046 1.372 . S
C1047 C1048 1.400 . S
C1047 C1052 1.490 . S
C1048 H1038 0.930 . S
C1048 C1047 1.400 . S
C1048 C1051 1.386 . S
H1049 C1065 0.930 . S
H1050 C1066 0.931 . S
C1051 H1039 0.929 . S
C1051 C1045 1.390 . S
C1051 C1048 1.386 . S
C1052 C1047 1.490 . S
C1052 C1054 1.395 . S
C1052 C1055 1.403 . S
H1053 C1059 0.930 . S
C1054 H1040 0.930 . S
C1054 C1052 1.395 . S
C1054 C1057 1.403 . S
C1055 C1052 1.403 . S
C1055 C1056 1.524 . S
C1055 C1059 1.400 . S
C1056 H1041 0.960 . S
C1056 H1042 0.960 . S
C1056 H1043 0.960 . S
C1056 C1055 1.524 . S
C1057 C1054 1.403 . S
C1057 C1058 1.392 . S
C1057 C1061 1.495 . S
C1058 C1057 1.392 . S
C1058 C1059 1.385 . S
C1058 C1060 1.478 . S
C1059 H1053 0.930 . S
C1059 C1055 1.400 . S
C1059 C1058 1.385 . S
C1060 C1058 1.478 . S
C1060 C1062 1.381 . S
C1060 C1066 1.383 . S
C1061 C1057 1.495 . S
C1061 H1067 0.959 . S
C1061 H1068 0.961 . S
C1061 H1069 0.960 . S
C1062 C1060 1.381 . S
C1062 C1063 1.394 . S
C1062 H1070 0.930 . S
C1063 C1062 1.394 . S
C1063 C1064 1.383 . S
C1063 H1071 0.929 . S
C1064 C1063 1.383 . S
C1064 C1065 1.377 . S
C1065 H1049 0.930 . S
C1065 C1064 1.377 . S
C1065 C1066 1.379 . S
C1066 H1050 0.931 . S
C1066 C1060 1.383 . S
C1066 C1065 1.379 . S
H1067 C1061 0.959 . S
H1068 C1061 0.961 . S
H1069 C1061 0.960 . S
H1070 C1062 0.930 . S
H1071 C1063 0.929 . S
H1072 C1080 0.929 . S
H1073 C1082 0.930 . S
H1074 C1084 0.930 . S
H1075 C1087 0.929 . S
H1076 C1090 0.930 . S
H1077 C1092 0.960 . S
H1078 C1092 0.960 . S
H1079 C1092 0.960 . S
C1080 H1072 0.929 . S
C1080 C1081 1.377 . S
C1080 C1082 1.384 . S
C1081 C1080 1.377 . S
C1081 C1087 1.390 . S
C1082 H1073 0.930 . S
C1082 C1080 1.384 . S
C1082 C1083 1.372 . S
C1083 C1082 1.372 . S
C1083 C1084 1.400 . S
C1083 C1088 1.490 . S
C1084 H1074 0.930 . S
C1084 C1083 1.400 . S
C1084 C1087 1.386 . S
H1085 C1101 0.930 . S
H1086 C1102 0.931 . S
C1087 H1075 0.929 . S
C1087 C1081 1.390 . S
C1087 C1084 1.386 . S
C1088 C1083 1.490 . S
C1088 C1090 1.395 . S
C1088 C1091 1.403 . S
H1089 C1095 0.930 . S
C1090 H1076 0.930 . S
C1090 C1088 1.395 . S
C1090 C1093 1.403 . S
C1091 C1088 1.403 . S
C1091 C1092 1.524 . S
C1091 C1095 1.400 . S
C1092 H1077 0.960 . S
C1092 H1078 0.960 . S
C1092 H1079 0.960 . S
C1092 C1091 1.524 . S
C1093 C1090 1.403 . S
C1093 C1094 1.392 . S
C1093 C1097 1.495 . S
C1094 C1093 1.392 . S
C1094 C1095 1.385 . S
C1094 C1096 1.478 . S
C1095 H1089 0.930 . S
C1095 C1091 1.400 . S
C1095 C1094 1.385 . S
C1096 C1094 1.478 . S
C1096 C1098 1.381 . S
C1096 C1102 1.383 . S
C1097 C1093 1.495 . S
C1097 H1103 0.959 . S
C1097 H1104 0.961 . S
C1097 H1105 0.960 . S
C1098 C1096 1.381 . S
C1098 C1099 1.394 . S
C1098 H1106 0.930 . S
C1099 C1098 1.394 . S
C1099 C1100 1.383 . S
C1099 H1107 0.929 . S
C1100 C1099 1.383 . S
C1100 C1101 1.377 . S
C1101 H1085 0.930 . S
C1101 C1100 1.377 . S
C1101 C1102 1.379 . S
C1102 H1086 0.931 . S
C1102 C1096 1.383 . S
C1102 C1101 1.379 . S
H1103 C1097 0.959 . S
H1104 C1097 0.961 . S
H1105 C1097 0.960 . S
H1106 C1098 0.930 . S
H1107 C1099 0.929 . S
H1108 C1116 0.929 . S
H1109 C1118 0.930 . S
H1110 C1120 0.930 . S
H1111 C1123 0.929 . S
H1112 C1126 0.930 . S
H1113 C1128 0.960 . S
H1114 C1128 0.960 . S
H1115 C1128 0.960 . S
C1116 H1108 0.929 . S
C1116 C1117 1.377 . S
C1116 C1118 1.384 . S
C1117 C1116 1.377 . S
C1117 C1123 1.390 . S
C1118 H1109 0.930 . S
C1118 C1116 1.384 . S
C1118 C1119 1.372 . S
C1119 C1118 1.372 . S
C1119 C1120 1.400 . S
C1119 C1124 1.490 . S
C1120 H1110 0.930 . S
C1120 C1119 1.400 . S
C1120 C1123 1.386 . S
H1121 C1137 0.930 . S
H1122 C1138 0.931 . S
C1123 H1111 0.929 . S
C1123 C1117 1.390 . S
C1123 C1120 1.386 . S
C1124 C1119 1.490 . S
C1124 C1126 1.395 . S
C1124 C1127 1.403 . S
H1125 C1131 0.930 . S
C1126 H1112 0.930 . S
C1126 C1124 1.395 . S
C1126 C1129 1.403 . S
C1127 C1124 1.403 . S
C1127 C1128 1.524 . S
C1127 C1131 1.400 . S
C1128 H1113 0.960 . S
C1128 H1114 0.960 . S
C1128 H1115 0.960 . S
C1128 C1127 1.524 . S
C1129 C1126 1.403 . S
C1129 C1130 1.392 . S
C1129 C1133 1.495 . S
C1130 C1129 1.392 . S
C1130 C1131 1.385 . S
C1130 C1132 1.478 . S
C1131 H1125 0.930 . S
C1131 C1127 1.400 . S
C1131 C1130 1.385 . S
C1132 C1130 1.478 . S
C1132 C1134 1.381 . S
C1132 C1138 1.383 . S
C1133 C1129 1.495 . S
C1133 H1139 0.959 . S
C1133 H1140 0.961 . S
C1133 H1141 0.960 . S
C1134 C1132 1.381 . S
C1134 C1135 1.394 . S
C1134 H1142 0.930 . S
C1135 C1134 1.394 . S
C1135 C1136 1.383 . S
C1135 H1143 0.929 . S
C1136 C1135 1.383 . S
C1136 C1137 1.377 . S
C1137 H1121 0.930 . S
C1137 C1136 1.377 . S
C1137 C1138 1.379 . S
C1138 H1122 0.931 . S
C1138 C1132 1.383 . S
C1138 C1137 1.379 . S
H1139 C1133 0.959 . S
H1140 C1133 0.961 . S
H1141 C1133 0.960 . S
H1142 C1134 0.930 . S
H1143 C1135 0.929 . S
H1144 C1152 0.929 . S
H1145 C1154 0.930 . S
H1146 C1156 0.930 . S
H1147 C1159 0.929 . S
H1148 C1162 0.930 . S
H1149 C1164 0.960 . S
H1150 C1164 0.960 . S
H1151 C1164 0.960 . S
C1152 H1144 0.929 . S
C1152 C1153 1.377 . S
C1152 C1154 1.384 . S
C1153 C1152 1.377 . S
C1153 C1159 1.390 . S
C1154 H1145 0.930 . S
C1154 C1152 1.384 . S
C1154 C1155 1.372 . S
C1155 C1154 1.372 . S
C1155 C1156 1.400 . S
C1155 C1160 1.490 . S
C1156 H1146 0.930 . S
C1156 C1155 1.400 . S
C1156 C1159 1.386 . S
H1157 C1173 0.930 . S
H1158 C1174 0.931 . S
C1159 H1147 0.929 . S
C1159 C1153 1.390 . S
C1159 C1156 1.386 . S
C1160 C1155 1.490 . S
C1160 C1162 1.395 . S
C1160 C1163 1.403 . S
H1161 C1167 0.930 . S
C1162 H1148 0.930 . S
C1162 C1160 1.395 . S
C1162 C1165 1.403 . S
C1163 C1160 1.403 . S
C1163 C1164 1.524 . S
C1163 C1167 1.400 . S
C1164 H1149 0.960 . S
C1164 H1150 0.960 . S
C1164 H1151 0.960 . S
C1164 C1163 1.524 . S
C1165 C1162 1.403 . S
C1165 C1166 1.392 . S
C1165 C1169 1.495 . S
C1166 C1165 1.392 . S
C1166 C1167 1.385 . S
C1166 C1168 1.478 . S
C1167 H1161 0.930 . S
C1167 C1163 1.400 . S
C1167 C1166 1.385 . S
C1168 C1166 1.478 . S
C1168 C1170 1.381 . S
C1168 C1174 1.383 . S
C1169 C1165 1.495 . S
C1169 H1175 0.959 . S
C1169 H1176 0.961 . S
C1169 H1177 0.960 . S
C1170 C1168 1.381 . S
C1170 C1171 1.394 . S
C1170 H1178 0.930 . S
C1171 C1170 1.394 . S
C1171 C1172 1.383 . S
C1171 H1179 0.929 . S
C1172 C1171 1.383 . S
C1172 C1173 1.377 . S
C1173 H1157 0.930 . S
C1173 C1172 1.377 . S
C1173 C1174 1.379 . S
C1174 H1158 0.931 . S
C1174 C1168 1.383 . S
C1174 C1173 1.379 . S
H1175 C1169 0.959 . S
H1176 C1169 0.961 . S
H1177 C1169 0.960 . S
H1178 C1170 0.930 . S
H1179 C1171 0.929 . S
H1180 C1188 0.929 . S
H1181 C1190 0.930 . S
H1182 C1192 0.930 . S
H1183 C1195 0.929 . S
H1184 C1198 0.930 . S
H1185 C1200 0.960 . S
H1186 C1200 0.960 . S
H1187 C1200 0.960 . S
C1188 H1180 0.929 . S
C1188 C1189 1.377 . S
C1188 C1190 1.384 . S
C1189 C1188 1.377 . S
C1189 C1195 1.390 . S
C1190 H1181 0.930 . S
C1190 C1188 1.384 . S
C1190 C1191 1.372 . S
C1191 C1190 1.372 . S
C1191 C1192 1.400 . S
C1191 C1196 1.490 . S
C1192 H1182 0.930 . S
C1192 C1191 1.400 . S
C1192 C1195 1.386 . S
H1193 C1209 0.930 . S
H1194 C1210 0.931 . S
C1195 H1183 0.929 . S
C1195 C1189 1.390 . S
C1195 C1192 1.386 . S
C1196 C1191 1.490 . S
C1196 C1198 1.395 . S
C1196 C1199 1.403 . S
H1197 C1203 0.930 . S
C1198 H1184 0.930 . S
C1198 C1196 1.395 . S
C1198 C1201 1.403 . S
C1199 C1196 1.403 . S
C1199 C1200 1.524 . S
C1199 C1203 1.400 . S
C1200 H1185 0.960 . S
C1200 H1186 0.960 . S
C1200 H1187 0.960 . S
C1200 C1199 1.524 . S
C1201 C1198 1.403 . S
C1201 C1202 1.392 . S
C1201 C1205 1.495 . S
C1202 C1201 1.392 . S
C1202 C1203 1.385 . S
C1202 C1204 1.478 . S
C1203 H1197 0.930 . S
C1203 C1199 1.400 . S
C1203 C1202 1.385 . S
C1204 C1202 1.478 . S
C1204 C1206 1.381 . S
C1204 C1210 1.383 . S
C1205 C1201 1.495 . S
C1205 H1211 0.959 . S
C1205 H1212 0.961 . S
C1205 H1213 0.960 . S
C1206 C1204 1.381 . S
C1206 C1207 1.394 . S
C1206 H1214 0.930 . S
C1207 C1206 1.394 . S
C1207 C1208 1.383 . S
C1207 H1215 0.929 . S
C1208 C1207 1.383 . S
C1208 C1209 1.377 . S
C1209 H1193 0.930 . S
C1209 C1208 1.377 . S
C1209 C1210 1.379 . S
C1210 H1194 0.931 . S
C1210 C1204 1.383 . S
C1210 C1209 1.379 . S
H1211 C1205 0.959 . S
H1212 C1205 0.961 . S
H1213 C1205 0.960 . S
H1214 C1206 0.930 . S
H1215 C1207 0.929 . S
H1216 C1224 0.929 1_545 S
H1217 C1226 0.930 . S
H1218 C1228 0.930 . S
H1219 C1231 0.929 . S
H1220 C1234 0.930 . S
H1221 C1236 0.960 . S
H1222 C1236 0.960 . S
H1223 C1236 0.960 . S
C1224 H1216 0.929 1_565 S
C1224 C1225 1.377 . S
C1224 C1226 1.384 . S
C1225 C1224 1.377 . S
C1225 C1231 1.390 . S
C1226 H1217 0.930 . S
C1226 C1224 1.384 . S
C1226 C1227 1.372 . S
C1227 C1226 1.372 . S
C1227 C1228 1.400 . S
C1227 C1232 1.490 . S
C1228 H1218 0.930 . S
C1228 C1227 1.400 . S
C1228 C1231 1.386 . S
H1229 C1245 0.930 . S
H1230 C1246 0.931 . S
C1231 H1219 0.929 . S
C1231 C1225 1.390 . S
C1231 C1228 1.386 . S
C1232 C1227 1.490 . S
C1232 C1234 1.395 . S
C1232 C1235 1.403 . S
H1233 C1239 0.930 . S
C1234 H1220 0.930 . S
C1234 C1232 1.395 . S
C1234 C1237 1.403 . S
C1235 C1232 1.403 . S
C1235 C1236 1.524 . S
C1235 C1239 1.400 . S
C1236 H1221 0.960 . S
C1236 H1222 0.960 . S
C1236 H1223 0.960 . S
C1236 C1235 1.524 . S
C1237 C1234 1.403 . S
C1237 C1238 1.392 . S
C1237 C1241 1.495 . S
C1238 C1237 1.392 . S
C1238 C1239 1.385 . S
C1238 C1240 1.478 . S
C1239 H1233 0.930 . S
C1239 C1235 1.400 . S
C1239 C1238 1.385 . S
C1240 C1238 1.478 . S
C1240 C1242 1.381 . S
C1240 C1246 1.383 . S
C1241 C1237 1.495 . S
C1241 H1247 0.959 . S
C1241 H1248 0.961 . S
C1241 H1249 0.960 . S
C1242 C1240 1.381 . S
C1242 C1243 1.394 . S
C1242 H1250 0.930 . S
C1243 C1242 1.394 . S
C1243 C1244 1.383 . S
C1243 H1251 0.929 . S
C1244 C1243 1.383 . S
C1244 C1245 1.377 . S
C1245 H1229 0.930 . S
C1245 C1244 1.377 . S
C1245 C1246 1.379 . S
C1246 H1230 0.931 . S
C1246 C1240 1.383 . S
C1246 C1245 1.379 . S
H1247 C1241 0.959 . S
H1248 C1241 0.961 . S
H1249 C1241 0.960 . S
H1250 C1242 0.930 . S
H1251 C1243 0.929 . S
H1252 C1260 0.929 . S
H1253 C1262 0.930 . S
H1254 C1264 0.930 . S
H1255 C1267 0.929 . S
H1256 C1270 0.930 . S
H1257 C1272 0.960 . S
H1258 C1272 0.960 . S
H1259 C1272 0.960 . S
C1260 H1252 0.929 . S
C1260 C1261 1.377 . S
C1260 C1262 1.384 . S
C1261 C1260 1.377 . S
C1261 C1267 1.390 . S
C1262 H1253 0.930 . S
C1262 C1260 1.384 . S
C1262 C1263 1.372 . S
C1263 C1262 1.372 . S
C1263 C1264 1.400 . S
C1263 C1268 1.490 . S
C1264 H1254 0.930 . S
C1264 C1263 1.400 . S
C1264 C1267 1.386 . S
H1265 C1281 0.930 . S
H1266 C1282 0.931 . S
C1267 H1255 0.929 . S
C1267 C1261 1.390 . S
C1267 C1264 1.386 . S
C1268 C1263 1.490 . S
C1268 C1270 1.395 . S
C1268 C1271 1.403 . S
H1269 C1275 0.930 . S
C1270 H1256 0.930 . S
C1270 C1268 1.395 . S
C1270 C1273 1.403 . S
C1271 C1268 1.403 . S
C1271 C1272 1.524 . S
C1271 C1275 1.400 . S
C1272 H1257 0.960 . S
C1272 H1258 0.960 . S
C1272 H1259 0.960 . S
C1272 C1271 1.524 . S
C1273 C1270 1.403 . S
C1273 C1274 1.392 . S
C1273 C1277 1.495 . S
C1274 C1273 1.392 . S
C1274 C1275 1.385 . S
C1274 C1276 1.478 . S
C1275 H1269 0.930 . S
C1275 C1271 1.400 . S
C1275 C1274 1.385 . S
C1276 C1274 1.478 . S
C1276 C1278 1.381 . S
C1276 C1282 1.383 . S
C1277 C1273 1.495 . S
C1277 H1283 0.959 . S
C1277 H1284 0.961 . S
C1277 H1285 0.960 . S
C1278 C1276 1.381 . S
C1278 C1279 1.394 . S
C1278 H1286 0.930 . S
C1279 C1278 1.394 . S
C1279 C1280 1.383 . S
C1279 H1287 0.929 . S
C1280 C1279 1.383 . S
C1280 C1281 1.377 . S
C1281 H1265 0.930 . S
C1281 C1280 1.377 . S
C1281 C1282 1.379 . S
C1282 H1266 0.931 . S
C1282 C1276 1.383 . S
C1282 C1281 1.379 . S
H1283 C1277 0.959 . S
H1284 C1277 0.961 . S
H1285 C1277 0.960 . S
H1286 C1278 0.930 . S
H1287 C1279 0.929 . S
H1288 C1296 0.929 1_565 S
H1289 C1298 0.930 . S
H1290 C1300 0.930 . S
H1291 C1303 0.929 . S
H1292 C1306 0.930 . S
H1293 C1308 0.960 . S
H1294 C1308 0.960 . S
H1295 C1308 0.960 . S
C1296 H1288 0.929 1_545 S
C1296 C1297 1.377 . S
C1296 C1298 1.384 . S
C1297 C1296 1.377 . S
C1297 C1303 1.390 . S
C1298 H1289 0.930 . S
C1298 C1296 1.384 . S
C1298 C1299 1.372 . S
C1299 C1298 1.372 . S
C1299 C1300 1.400 . S
C1299 C1304 1.490 . S
C1300 H1290 0.930 . S
C1300 C1299 1.400 . S
C1300 C1303 1.386 . S
H1301 C1317 0.930 . S
H1302 C1318 0.931 . S
C1303 H1291 0.929 . S
C1303 C1297 1.390 . S
C1303 C1300 1.386 . S
C1304 C1299 1.490 . S
C1304 C1306 1.395 . S
C1304 C1307 1.403 . S
H1305 C1311 0.930 . S
C1306 H1292 0.930 . S
C1306 C1304 1.395 . S
C1306 C1309 1.403 . S
C1307 C1304 1.403 . S
C1307 C1308 1.524 . S
C1307 C1311 1.400 . S
C1308 H1293 0.960 . S
C1308 H1294 0.960 . S
C1308 H1295 0.960 . S
C1308 C1307 1.524 . S
C1309 C1306 1.403 . S
C1309 C1310 1.392 . S
C1309 C1313 1.495 . S
C1310 C1309 1.392 . S
C1310 C1311 1.385 . S
C1310 C1312 1.478 . S
C1311 H1305 0.930 . S
C1311 C1307 1.400 . S
C1311 C1310 1.385 . S
C1312 C1310 1.478 . S
C1312 C1314 1.381 . S
C1312 C1318 1.383 . S
C1313 C1309 1.495 . S
C1313 H1319 0.959 . S
C1313 H1320 0.961 . S
C1313 H1321 0.960 . S
C1314 C1312 1.381 . S
C1314 C1315 1.394 . S
C1314 H1322 0.930 . S
C1315 C1314 1.394 . S
C1315 C1316 1.383 . S
C1315 H1323 0.929 . S
C1316 C1315 1.383 . S
C1316 C1317 1.377 . S
C1317 H1301 0.930 . S
C1317 C1316 1.377 . S
C1317 C1318 1.379 . S
C1318 H1302 0.931 . S
C1318 C1312 1.383 . S
C1318 C1317 1.379 . S
H1319 C1313 0.959 . S
H1320 C1313 0.961 . S
H1321 C1313 0.960 . S
H1322 C1314 0.930 . S
H1323 C1315 0.929 . S
H1324 C1332 0.929 . S
H1325 C1334 0.930 . S
H1326 C1336 0.930 . S
H1327 C1339 0.929 . S
H1328 C1342 0.930 . S
H1329 C1344 0.960 . S
H1330 C1344 0.960 . S
H1331 C1344 0.960 . S
C1332 H1324 0.929 . S
C1332 C1333 1.377 . S
C1332 C1334 1.384 . S
C1333 C1332 1.377 . S
C1333 C1339 1.390 . S
C1334 H1325 0.930 . S
C1334 C1332 1.384 . S
C1334 C1335 1.372 . S
C1335 C1334 1.372 . S
C1335 C1336 1.400 . S
C1335 C1340 1.490 . S
C1336 H1326 0.930 . S
C1336 C1335 1.400 . S
C1336 C1339 1.386 . S
H1337 C1353 0.930 . S
H1338 C1354 0.931 . S
C1339 H1327 0.929 . S
C1339 C1333 1.390 . S
C1339 C1336 1.386 . S
C1340 C1335 1.490 . S
C1340 C1342 1.395 . S
C1340 C1343 1.403 . S
H1341 C1347 0.930 . S
C1342 H1328 0.930 . S
C1342 C1340 1.395 . S
C1342 C1345 1.403 . S
C1343 C1340 1.403 . S
C1343 C1344 1.524 . S
C1343 C1347 1.400 . S
C1344 H1329 0.960 . S
C1344 H1330 0.960 . S
C1344 H1331 0.960 . S
C1344 C1343 1.524 . S
C1345 C1342 1.403 . S
C1345 C1346 1.392 . S
C1345 C1349 1.495 . S
C1346 C1345 1.392 . S
C1346 C1347 1.385 . S
C1346 C1348 1.478 . S
C1347 H1341 0.930 . S
C1347 C1343 1.400 . S
C1347 C1346 1.385 . S
C1348 C1346 1.478 . S
C1348 C1350 1.381 . S
C1348 C1354 1.383 . S
C1349 C1345 1.495 . S
C1349 H1355 0.959 . S
C1349 H1356 0.961 . S
C1349 H1357 0.960 . S
C1350 C1348 1.381 . S
C1350 C1351 1.394 . S
C1350 H1358 0.930 . S
C1351 C1350 1.394 . S
C1351 C1352 1.383 . S
C1351 H1359 0.929 . S
C1352 C1351 1.383 . S
C1352 C1353 1.377 . S
C1353 H1337 0.930 . S
C1353 C1352 1.377 . S
C1353 C1354 1.379 . S
C1354 H1338 0.931 . S
C1354 C1348 1.383 . S
C1354 C1353 1.379 . S
H1355 C1349 0.959 . S
H1356 C1349 0.961 . S
H1357 C1349 0.960 . S
H1358 C1350 0.930 . S
H1359 C1351 0.929 . S
H1360 C1368 0.929 . S
H1361 C1370 0.930 . S
H1362 C1372 0.930 . S
H1363 C1375 0.929 . S
H1364 C1378 0.930 . S
H1365 C1380 0.960 1_554 S
H1366 C1380 0.958 1_554 S
H1367 C1380 0.960 . S
C1368 H1360 0.929 . S
C1368 C1369 1.377 . S
C1368 C1370 1.384 . S
C1369 C1368 1.377 . S
C1369 C1375 1.390 . S
C1370 H1361 0.930 . S
C1370 C1368 1.384 . S
C1370 C1371 1.372 . S
C1371 C1370 1.372 . S
C1371 C1372 1.400 . S
C1371 C1376 1.490 . S
C1372 H1362 0.930 . S
C1372 C1371 1.400 . S
C1372 C1375 1.386 . S
H1373 C1389 0.930 . S
H1374 C1390 0.931 . S
C1375 H1363 0.929 . S
C1375 C1369 1.390 . S
C1375 C1372 1.386 . S
C1376 C1371 1.490 . S
C1376 C1378 1.395 . S
C1376 C1379 1.403 1_556 S
H1377 C1383 0.930 . S
C1378 H1364 0.930 . S
C1378 C1376 1.395 . S
C1378 C1381 1.403 1_556 S
C1379 C1376 1.403 1_554 S
C1379 C1380 1.524 1_554 S
C1379 C1383 1.400 . S
C1380 H1365 0.960 1_556 S
C1380 H1366 0.958 1_556 S
C1380 H1367 0.960 . S
C1380 C1379 1.524 1_556 S
C1381 C1378 1.403 1_554 S
C1381 C1382 1.392 . S
C1381 C1385 1.495 . S
C1382 C1381 1.392 . S
C1382 C1383 1.385 . S
C1382 C1384 1.478 . S
C1383 H1377 0.930 . S
C1383 C1379 1.400 . S
C1383 C1382 1.385 . S
C1384 C1382 1.478 . S
C1384 C1386 1.381 . S
C1384 C1390 1.383 . S
C1385 C1381 1.495 . S
C1385 H1391 0.959 . S
C1385 H1392 0.961 . S
C1385 H1393 0.960 . S
C1386 C1384 1.381 . S
C1386 C1387 1.394 . S
C1386 H1394 0.930 . S
C1387 C1386 1.394 . S
C1387 C1388 1.383 . S
C1387 H1395 0.929 . S
C1388 C1387 1.383 . S
C1388 C1389 1.377 . S
C1389 H1373 0.930 . S
C1389 C1388 1.377 . S
C1389 C1390 1.379 . S
C1390 H1374 0.931 . S
C1390 C1384 1.383 . S
C1390 C1389 1.379 . S
H1391 C1385 0.959 . S
H1392 C1385 0.961 . S
H1393 C1385 0.960 . S
H1394 C1386 0.930 . S
H1395 C1387 0.929 . S
H1396 C1404 0.929 . S
H1397 C1406 0.930 . S
H1398 C1408 0.930 . S
H1399 C1411 0.929 . S
H1400 C1414 0.930 . S
H1401 C1416 0.960 . S
H1402 C1416 0.960 . S
H1403 C1416 0.960 . S
C1404 H1396 0.929 . S
C1404 C1405 1.377 . S
C1404 C1406 1.384 . S
C1405 C1404 1.377 . S
C1405 C1411 1.390 . S
C1406 H1397 0.930 . S
C1406 C1404 1.384 . S
C1406 C1407 1.372 . S
C1407 C1406 1.372 . S
C1407 C1408 1.400 . S
C1407 C1412 1.490 . S
C1408 H1398 0.930 . S
C1408 C1407 1.400 . S
C1408 C1411 1.386 . S
H1409 C1425 0.930 . S
H1410 C1426 0.931 . S
C1411 H1399 0.929 . S
C1411 C1405 1.390 . S
C1411 C1408 1.386 . S
C1412 C1407 1.490 . S
C1412 C1414 1.395 1_554 S
C1412 C1415 1.403 . S
H1413 C1419 0.930 . S
C1414 H1400 0.930 . S
C1414 C1412 1.395 1_556 S
C1414 C1417 1.403 . S
C1415 C1412 1.403 . S
C1415 C1416 1.524 . S
C1415 C1419 1.400 1_554 S
C1416 H1401 0.960 . S
C1416 H1402 0.960 . S
C1416 H1403 0.960 . S
C1416 C1415 1.524 . S
C1417 C1414 1.403 . S
C1417 C1418 1.392 . S
C1417 C1421 1.495 . S
C1418 C1417 1.392 . S
C1418 C1419 1.385 . S
C1418 C1420 1.478 . S
C1419 H1413 0.930 . S
C1419 C1415 1.400 1_556 S
C1419 C1418 1.385 . S
C1420 C1418 1.478 . S
C1420 C1422 1.381 . S
C1420 C1426 1.383 . S
C1421 C1417 1.495 . S
C1421 H1427 0.959 . S
C1421 H1428 0.961 . S
C1421 H1429 0.960 . S
C1422 C1420 1.381 . S
C1422 C1423 1.394 . S
C1422 H1430 0.930 . S
C1423 C1422 1.394 . S
C1423 C1424 1.383 . S
C1423 H1431 0.929 . S
C1424 C1423 1.383 . S
C1424 C1425 1.377 . S
C1425 H1409 0.930 . S
C1425 C1424 1.377 . S
C1425 C1426 1.379 . S
C1426 H1410 0.931 . S
C1426 C1420 1.383 . S
C1426 C1425 1.379 . S
H1427 C1421 0.959 . S
H1428 C1421 0.961 . S
H1429 C1421 0.960 . S
H1430 C1422 0.930 . S
H1431 C1423 0.929 . S
H1432 C1440 0.929 . S
H1433 C1442 0.930 . S
H1434 C1444 0.930 . S
H1435 C1447 0.929 . S
H1436 C1450 0.930 . S
H1437 C1452 0.960 . S
H1438 C1452 0.960 . S
H1439 C1452 0.960 . S
C1440 H1432 0.929 . S
C1440 C1441 1.377 . S
C1440 C1442 1.384 . S
C1441 C1440 1.377 . S
C1441 C1447 1.390 . S
C1442 H1433 0.930 . S
C1442 C1440 1.384 . S
C1442 C1443 1.372 . S
C1443 C1442 1.372 . S
C1443 C1444 1.400 . S
C1443 C1448 1.490 . S
C1444 H1434 0.930 . S
C1444 C1443 1.400 . S
C1444 C1447 1.386 . S
H1445 C1461 0.930 . S
H1446 C1462 0.931 . S
C1447 H1435 0.929 . S
C1447 C1441 1.390 . S
C1447 C1444 1.386 . S
C1448 C1443 1.490 . S
C1448 C1450 1.395 . S
C1448 C1451 1.403 1_556 S
H1449 C1455 0.930 . S
C1450 H1436 0.930 . S
C1450 C1448 1.395 . S
C1450 C1453 1.403 1_556 S
C1451 C1448 1.403 1_554 S
C1451 C1452 1.524 . S
C1451 C1455 1.400 . S
C1452 H1437 0.960 . S
C1452 H1438 0.960 . S
C1452 H1439 0.960 . S
C1452 C1451 1.524 . S
C1453 C1450 1.403 1_554 S
C1453 C1454 1.392 . S
C1453 C1457 1.495 . S
C1454 C1453 1.392 . S
C1454 C1455 1.385 . S
C1454 C1456 1.478 . S
C1455 H1449 0.930 . S
C1455 C1451 1.400 . S
C1455 C1454 1.385 . S
C1456 C1454 1.478 . S
C1456 C1458 1.381 . S
C1456 C1462 1.383 . S
C1457 C1453 1.495 . S
C1457 H1463 0.959 1_554 S
C1457 H1464 0.961 . S
C1457 H1465 0.960 . S
C1458 C1456 1.381 . S
C1458 C1459 1.394 . S
C1458 H1466 0.930 . S
C1459 C1458 1.394 . S
C1459 C1460 1.383 . S
C1459 H1467 0.929 . S
C1460 C1459 1.383 . S
C1460 C1461 1.377 . S
C1461 H1445 0.930 . S
C1461 C1460 1.377 . S
C1461 C1462 1.379 . S
C1462 H1446 0.931 . S
C1462 C1456 1.383 . S
C1462 C1461 1.379 . S
H1463 C1457 0.959 1_556 S
H1464 C1457 0.961 . S
H1465 C1457 0.960 . S
H1466 C1458 0.930 . S
H1467 C1459 0.929 . S
H1468 C1476 0.929 . S
H1469 C1478 0.930 . S
H1470 C1480 0.930 . S
H1471 C1483 0.929 . S
H1472 C1486 0.930 . S
H1473 C1488 0.960 . S
H1474 C1488 0.960 . S
H1475 C1488 0.960 . S
C1476 H1468 0.929 . S
C1476 C1477 1.377 . S
C1476 C1478 1.384 . S
C1477 C1476 1.377 . S
C1477 C1483 1.390 . S
C1478 H1469 0.930 . S
C1478 C1476 1.384 . S
C1478 C1479 1.372 . S
C1479 C1478 1.372 . S
C1479 C1480 1.400 . S
C1479 C1484 1.490 . S
C1480 H1470 0.930 . S
C1480 C1479 1.400 . S
C1480 C1483 1.386 . S
H1481 C1497 0.930 . S
H1482 C1498 0.931 . S
C1483 H1471 0.929 . S
C1483 C1477 1.390 . S
C1483 C1480 1.386 . S
C1484 C1479 1.490 . S
C1484 C1486 1.395 . S
C1484 C1487 1.403 . S
H1485 C1491 0.930 . S
C1486 H1472 0.930 . S
C1486 C1484 1.395 . S
C1486 C1489 1.403 . S
C1487 C1484 1.403 . S
C1487 C1488 1.524 . S
C1487 C1491 1.400 1_556 S
C1488 H1473 0.960 . S
C1488 H1474 0.960 . S
C1488 H1475 0.960 . S
C1488 C1487 1.524 . S
C1489 C1486 1.403 . S
C1489 C1490 1.392 1_556 S
C1489 C1493 1.495 . S
C1490 C1489 1.392 1_554 S
C1490 C1491 1.385 . S
C1490 C1492 1.478 . S
C1491 H1485 0.930 . S
C1491 C1487 1.400 1_554 S
C1491 C1490 1.385 . S
C1492 C1490 1.478 . S
C1492 C1494 1.381 . S
C1492 C1498 1.383 . S
C1493 C1489 1.495 . S
C1493 H1499 0.959 . S
C1493 H1500 0.961 1_556 S
C1493 H1501 0.960 . S
C1494 C1492 1.381 . S
C1494 C1495 1.394 . S
C1494 H1502 0.930 . S
C1495 C1494 1.394 . S
C1495 C1496 1.383 . S
C1495 H1503 0.929 . S
C1496 C1495 1.383 . S
C1496 C1497 1.377 . S
C1497 H1481 0.930 . S
C1497 C1496 1.377 . S
C1497 C1498 1.379 . S
C1498 H1482 0.931 . S
C1498 C1492 1.383 . S
C1498 C1497 1.379 . S
H1499 C1493 0.959 . S
H1500 C1493 0.961 1_554 S
H1501 C1493 0.960 . S
H1502 C1494 0.930 . S
H1503 C1495 0.929 . S
H1504 C1512 0.929 . S
H1505 C1514 0.930 . S
H1506 C1516 0.930 . S
H1507 C1519 0.929 . S
H1508 C1522 0.930 . S
H1509 C1524 0.960 . S
H1510 C1524 0.960 . S
H1511 C1524 0.960 . S
C1512 H1504 0.929 . S
C1512 C1513 1.377 . S
C1512 C1514 1.384 . S
C1513 C1512 1.377 . S
C1513 C1519 1.390 . S
C1514 H1505 0.930 . S
C1514 C1512 1.384 . S
C1514 C1515 1.372 . S
C1515 C1514 1.372 . S
C1515 C1516 1.400 . S
C1515 C1520 1.490 . S
C1516 H1506 0.930 . S
C1516 C1515 1.400 . S
C1516 C1519 1.386 . S
H1517 C1533 0.930 . S
H1518 C1534 0.931 . S
C1519 H1507 0.929 . S
C1519 C1513 1.390 . S
C1519 C1516 1.386 . S
C1520 C1515 1.490 . S
C1520 C1522 1.395 . S
C1520 C1523 1.403 . S
H1521 C1527 0.930 . S
C1522 H1508 0.930 . S
C1522 C1520 1.395 . S
C1522 C1525 1.403 . S
C1523 C1520 1.403 . S
C1523 C1524 1.524 . S
C1523 C1527 1.400 . S
C1524 H1509 0.960 . S
C1524 H1510 0.960 . S
C1524 H1511 0.960 . S
C1524 C1523 1.524 . S
C1525 C1522 1.403 . S
C1525 C1526 1.392 . S
C1525 C1529 1.495 . S
C1526 C1525 1.392 . S
C1526 C1527 1.385 . S
C1526 C1528 1.478 . S
C1527 H1521 0.930 . S
C1527 C1523 1.400 . S
C1527 C1526 1.385 . S
C1528 C1526 1.478 . S
C1528 C1530 1.381 . S
C1528 C1534 1.383 . S
C1529 C1525 1.495 . S
C1529 H1535 0.959 . S
C1529 H1536 0.961 . S
C1529 H1537 0.960 . S
C1530 C1528 1.381 . S
C1530 C1531 1.394 . S
C1530 H1538 0.930 . S
C1531 C1530 1.394 . S
C1531 C1532 1.383 . S
C1531 H1539 0.929 . S
C1532 C1531 1.383 . S
C1532 C1533 1.377 . S
C1533 H1517 0.930 . S
C1533 C1532 1.377 . S
C1533 C1534 1.379 . S
C1534 H1518 0.931 . S
C1534 C1528 1.383 . S
C1534 C1533 1.379 . S
H1535 C1529 0.959 . S
H1536 C1529 0.961 . S
H1537 C1529 0.960 . S
H1538 C1530 0.930 . S
H1539 C1531 0.929 . S
H1540 C1548 0.929 . S
H1541 C1550 0.930 . S
H1542 C1552 0.930 . S
H1543 C1555 0.929 . S
H1544 C1558 0.930 . S
H1545 C1560 0.960 . S
H1546 C1560 0.960 . S
H1547 C1560 0.960 . S
C1548 H1540 0.929 . S
C1548 C1549 1.377 . S
C1548 C1550 1.384 . S
C1549 C1548 1.377 . S
C1549 C1555 1.390 . S
C1550 H1541 0.930 . S
C1550 C1548 1.384 . S
C1550 C1551 1.372 . S
C1551 C1550 1.372 . S
C1551 C1552 1.400 . S
C1551 C1556 1.490 . S
C1552 H1542 0.930 . S
C1552 C1551 1.400 . S
C1552 C1555 1.386 . S
H1553 C1569 0.930 . S
H1554 C1570 0.931 . S
C1555 H1543 0.929 . S
C1555 C1549 1.390 . S
C1555 C1552 1.386 . S
C1556 C1551 1.490 . S
C1556 C1558 1.395 . S
C1556 C1559 1.403 . S
H1557 C1563 0.930 . S
C1558 H1544 0.930 . S
C1558 C1556 1.395 . S
C1558 C1561 1.403 . S
C1559 C1556 1.403 . S
C1559 C1560 1.524 . S
C1559 C1563 1.400 . S
C1560 H1545 0.960 . S
C1560 H1546 0.960 . S
C1560 H1547 0.960 . S
C1560 C1559 1.524 . S
C1561 C1558 1.403 . S
C1561 C1562 1.392 . S
C1561 C1565 1.495 . S
C1562 C1561 1.392 . S
C1562 C1563 1.385 . S
C1562 C1564 1.478 . S
C1563 H1557 0.930 . S
C1563 C1559 1.400 . S
C1563 C1562 1.385 . S
C1564 C1562 1.478 . S
C1564 C1566 1.381 . S
C1564 C1570 1.383 . S
C1565 C1561 1.495 . S
C1565 H1571 0.959 . S
C1565 H1572 0.961 . S
C1565 H1573 0.960 . S
C1566 C1564 1.381 . S
C1566 C1567 1.394 . S
C1566 H1574 0.930 . S
C1567 C1566 1.394 . S
C1567 C1568 1.383 . S
C1567 H1575 0.929 . S
C1568 C1567 1.383 . S
C1568 C1569 1.377 . S
C1569 H1553 0.930 . S
C1569 C1568 1.377 . S
C1569 C1570 1.379 . S
C1570 H1554 0.931 . S
C1570 C1564 1.383 . S
C1570 C1569 1.379 . S
H1571 C1565 0.959 . S
H1572 C1565 0.961 . S
H1573 C1565 0.960 . S
H1574 C1566 0.930 . S
H1575 C1567 0.929 . S
H1576 C1584 0.929 . S
H1577 C1586 0.930 . S
H1578 C1588 0.930 . S
H1579 C1591 0.929 . S
H1580 C1594 0.930 . S
H1581 C1596 0.960 . S
H1582 C1596 0.960 . S
H1583 C1596 0.960 . S
C1584 H1576 0.929 . S
C1584 C1585 1.377 . S
C1584 C1586 1.384 . S
C1585 C1584 1.377 . S
C1585 C1591 1.390 . S
C1586 H1577 0.930 . S
C1586 C1584 1.384 . S
C1586 C1587 1.372 . S
C1587 C1586 1.372 . S
C1587 C1588 1.400 . S
C1587 C1592 1.490 . S
C1588 H1578 0.930 . S
C1588 C1587 1.400 . S
C1588 C1591 1.386 . S
H1589 C1605 0.930 . S
H1590 C1606 0.931 . S
C1591 H1579 0.929 . S
C1591 C1585 1.390 . S
C1591 C1588 1.386 . S
C1592 C1587 1.490 . S
C1592 C1594 1.395 . S
C1592 C1595 1.403 . S
H1593 C1599 0.930 . S
C1594 H1580 0.930 . S
C1594 C1592 1.395 . S
C1594 C1597 1.403 . S
C1595 C1592 1.403 . S
C1595 C1596 1.524 . S
C1595 C1599 1.400 . S
C1596 H1581 0.960 . S
C1596 H1582 0.960 . S
C1596 H1583 0.960 . S
C1596 C1595 1.524 . S
C1597 C1594 1.403 . S
C1597 C1598 1.392 . S
C1597 C1601 1.495 . S
C1598 C1597 1.392 . S
C1598 C1599 1.385 . S
C1598 C1600 1.478 . S
C1599 H1593 0.930 . S
C1599 C1595 1.400 . S
C1599 C1598 1.385 . S
C1600 C1598 1.478 . S
C1600 C1602 1.381 . S
C1600 C1606 1.383 . S
C1601 C1597 1.495 . S
C1601 H1607 0.959 . S
C1601 H1608 0.961 . S
C1601 H1609 0.960 . S
C1602 C1600 1.381 . S
C1602 C1603 1.394 . S
C1602 H1610 0.930 . S
C1603 C1602 1.394 . S
C1603 C1604 1.383 . S
C1603 H1611 0.929 . S
C1604 C1603 1.383 . S
C1604 C1605 1.377 . S
C1605 H1589 0.930 . S
C1605 C1604 1.377 . S
C1605 C1606 1.379 . S
C1606 H1590 0.931 . S
C1606 C1600 1.383 . S
C1606 C1605 1.379 . S
H1607 C1601 0.959 . S
H1608 C1601 0.961 . S
H1609 C1601 0.960 . S
H1610 C1602 0.930 . S
H1611 C1603 0.929 . S
H1612 C1620 0.929 . S
H1613 C1622 0.930 . S
H1614 C1624 0.930 . S
H1615 C1627 0.929 . S
H1616 C1630 0.930 . S
H1617 C1632 0.960 . S
H1618 C1632 0.960 . S
H1619 C1632 0.960 . S
C1620 H1612 0.929 . S
C1620 C1621 1.377 . S
C1620 C1622 1.384 . S
C1621 C1620 1.377 . S
C1621 C1627 1.390 . S
C1622 H1613 0.930 . S
C1622 C1620 1.384 . S
C1622 C1623 1.372 . S
C1623 C1622 1.372 . S
C1623 C1624 1.400 . S
C1623 C1628 1.490 . S
C1624 H1614 0.930 . S
C1624 C1623 1.400 . S
C1624 C1627 1.386 . S
H1625 C1641 0.930 . S
H1626 C1642 0.931 . S
C1627 H1615 0.929 . S
C1627 C1621 1.390 . S
C1627 C1624 1.386 . S
C1628 C1623 1.490 . S
C1628 C1630 1.395 . S
C1628 C1631 1.403 . S
H1629 C1635 0.930 . S
C1630 H1616 0.930 . S
C1630 C1628 1.395 . S
C1630 C1633 1.403 . S
C1631 C1628 1.403 . S
C1631 C1632 1.524 . S
C1631 C1635 1.400 . S
C1632 H1617 0.960 . S
C1632 H1618 0.960 . S
C1632 H1619 0.960 . S
C1632 C1631 1.524 . S
C1633 C1630 1.403 . S
C1633 C1634 1.392 . S
C1633 C1637 1.495 . S
C1634 C1633 1.392 . S
C1634 C1635 1.385 . S
C1634 C1636 1.478 . S
C1635 H1629 0.930 . S
C1635 C1631 1.400 . S
C1635 C1634 1.385 . S
C1636 C1634 1.478 . S
C1636 C1638 1.381 . S
C1636 C1642 1.383 . S
C1637 C1633 1.495 . S
C1637 H1643 0.959 . S
C1637 H1644 0.961 . S
C1637 H1645 0.960 . S
C1638 C1636 1.381 . S
C1638 C1639 1.394 . S
C1638 H1646 0.930 . S
C1639 C1638 1.394 . S
C1639 C1640 1.383 . S
C1639 H1647 0.929 . S
C1640 C1639 1.383 . S
C1640 C1641 1.377 . S
C1641 H1625 0.930 . S
C1641 C1640 1.377 . S
C1641 C1642 1.379 . S
C1642 H1626 0.931 . S
C1642 C1636 1.383 . S
C1642 C1641 1.379 . S
H1643 C1637 0.959 . S
H1644 C1637 0.961 . S
H1645 C1637 0.960 . S
H1646 C1638 0.930 . S
H1647 C1639 0.929 . S
H1648 C1656 0.929 . S
H1649 C1658 0.930 . S
H1650 C1660 0.930 . S
H1651 C1663 0.929 . S
H1652 C1666 0.930 . S
H1653 C1668 0.960 . S
H1654 C1668 0.960 . S
H1655 C1668 0.960 . S
C1656 H1648 0.929 . S
C1656 C1657 1.377 . S
C1656 C1658 1.384 . S
C1657 C1656 1.377 . S
C1657 C1663 1.390 . S
C1658 H1649 0.930 . S
C1658 C1656 1.384 . S
C1658 C1659 1.372 . S
C1659 C1658 1.372 . S
C1659 C1660 1.400 . S
C1659 C1664 1.490 . S
C1660 H1650 0.930 . S
C1660 C1659 1.400 . S
C1660 C1663 1.386 . S
H1661 C1677 0.930 . S
H1662 C1678 0.931 . S
C1663 H1651 0.929 . S
C1663 C1657 1.390 . S
C1663 C1660 1.386 . S
C1664 C1659 1.490 . S
C1664 C1666 1.395 . S
C1664 C1667 1.403 . S
H1665 C1671 0.930 . S
C1666 H1652 0.930 . S
C1666 C1664 1.395 . S
C1666 C1669 1.403 . S
C1667 C1664 1.403 . S
C1667 C1668 1.524 . S
C1667 C1671 1.400 . S
C1668 H1653 0.960 . S
C1668 H1654 0.960 . S
C1668 H1655 0.960 . S
C1668 C1667 1.524 . S
C1669 C1666 1.403 . S
C1669 C1670 1.392 . S
C1669 C1673 1.495 . S
C1670 C1669 1.392 . S
C1670 C1671 1.385 . S
C1670 C1672 1.478 . S
C1671 H1665 0.930 . S
C1671 C1667 1.400 . S
C1671 C1670 1.385 . S
C1672 C1670 1.478 . S
C1672 C1674 1.381 . S
C1672 C1678 1.383 . S
C1673 C1669 1.495 . S
C1673 H1679 0.959 . S
C1673 H1680 0.961 . S
C1673 H1681 0.960 . S
C1674 C1672 1.381 . S
C1674 C1675 1.394 . S
C1674 H1682 0.930 . S
C1675 C1674 1.394 . S
C1675 C1676 1.383 . S
C1675 H1683 0.929 . S
C1676 C1675 1.383 . S
C1676 C1677 1.377 . S
C1677 H1661 0.930 . S
C1677 C1676 1.377 . S
C1677 C1678 1.379 . S
C1678 H1662 0.931 . S
C1678 C1672 1.383 . S
C1678 C1677 1.379 . S
H1679 C1673 0.959 . S
H1680 C1673 0.961 . S
H1681 C1673 0.960 . S
H1682 C1674 0.930 . S
H1683 C1675 0.929 . S
H1684 C1692 0.929 . S
H1685 C1694 0.930 . S
H1686 C1696 0.930 . S
H1687 C1699 0.929 . S
H1688 C1702 0.930 . S
H1689 C1704 0.960 . S
H1690 C1704 0.960 . S
H1691 C1704 0.960 . S
C1692 H1684 0.929 . S
C1692 C1693 1.377 . S
C1692 C1694 1.384 . S
C1693 C1692 1.377 . S
C1693 C1699 1.390 . S
C1694 H1685 0.930 . S
C1694 C1692 1.384 . S
C1694 C1695 1.372 . S
C1695 C1694 1.372 . S
C1695 C1696 1.400 . S
C1695 C1700 1.490 . S
C1696 H1686 0.930 . S
C1696 C1695 1.400 . S
C1696 C1699 1.386 . S
H1697 C1713 0.930 . S
H1698 C1714 0.931 . S
C1699 H1687 0.929 . S
C1699 C1693 1.390 . S
C1699 C1696 1.386 . S
C1700 C1695 1.490 . S
C1700 C1702 1.395 . S
C1700 C1703 1.403 . S
H1701 C1707 0.930 . S
C1702 H1688 0.930 . S
C1702 C1700 1.395 . S
C1702 C1705 1.403 . S
C1703 C1700 1.403 . S
C1703 C1704 1.524 . S
C1703 C1707 1.400 . S
C1704 H1689 0.960 . S
C1704 H1690 0.960 . S
C1704 H1691 0.960 . S
C1704 C1703 1.524 . S
C1705 C1702 1.403 . S
C1705 C1706 1.392 . S
C1705 C1709 1.495 . S
C1706 C1705 1.392 . S
C1706 C1707 1.385 . S
C1706 C1708 1.478 . S
C1707 H1701 0.930 . S
C1707 C1703 1.400 . S
C1707 C1706 1.385 . S
C1708 C1706 1.478 . S
C1708 C1710 1.381 . S
C1708 C1714 1.383 . S
C1709 C1705 1.495 . S
C1709 H1715 0.959 . S
C1709 H1716 0.961 . S
C1709 H1717 0.960 . S
C1710 C1708 1.381 . S
C1710 C1711 1.394 . S
C1710 H1718 0.930 . S
C1711 C1710 1.394 . S
C1711 C1712 1.383 . S
C1711 H1719 0.929 . S
C1712 C1711 1.383 . S
C1712 C1713 1.377 . S
C1713 H1697 0.930 . S
C1713 C1712 1.377 . S
C1713 C1714 1.379 . S
C1714 H1698 0.931 . S
C1714 C1708 1.383 . S
C1714 C1713 1.379 . S
H1715 C1709 0.959 . S
H1716 C1709 0.961 . S
H1717 C1709 0.960 . S
H1718 C1710 0.930 . S
H1719 C1711 0.929 . S
H1720 C1728 0.929 . S
H1721 C1730 0.930 . S
H1722 C1732 0.930 . S
H1723 C1735 0.929 . S
H1724 C1738 0.930 . S
H1725 C1740 0.960 . S
H1726 C1740 0.960 . S
H1727 C1740 0.960 . S
C1728 H1720 0.929 . S
C1728 C1729 1.377 . S
C1728 C1730 1.384 . S
C1729 C1728 1.377 . S
C1729 C1735 1.390 . S
C1730 H1721 0.930 . S
C1730 C1728 1.384 . S
C1730 C1731 1.372 . S
C1731 C1730 1.372 . S
C1731 C1732 1.400 . S
C1731 C1736 1.490 . S
C1732 H1722 0.930 . S
C1732 C1731 1.400 . S
C1732 C1735 1.386 . S
H1733 C1749 0.930 . S
H1734 C1750 0.931 . S
C1735 H1723 0.929 . S
C1735 C1729 1.390 . S
C1735 C1732 1.386 . S
C1736 C1731 1.490 . S
C1736 C1738 1.395 . S
C1736 C1739 1.403 . S
H1737 C1743 0.930 . S
C1738 H1724 0.930 . S
C1738 C1736 1.395 . S
C1738 C1741 1.403 . S
C1739 C1736 1.403 . S
C1739 C1740 1.524 . S
C1739 C1743 1.400 . S
C1740 H1725 0.960 . S
C1740 H1726 0.960 . S
C1740 H1727 0.960 . S
C1740 C1739 1.524 . S
C1741 C1738 1.403 . S
C1741 C1742 1.392 . S
C1741 C1745 1.495 . S
C1742 C1741 1.392 . S
C1742 C1743 1.385 . S
C1742 C1744 1.478 . S
C1743 H1737 0.930 . S
C1743 C1739 1.400 . S
C1743 C1742 1.385 . S
C1744 C1742 1.478 . S
C1744 C1746 1.381 . S
C1744 C1750 1.383 . S
C1745 C1741 1.495 . S
C1745 H1751 0.959 . S
C1745 H1752 0.961 . S
C1745 H1753 0.960 . S
C1746 C1744 1.381 . S
C1746 C1747 1.394 . S
C1746 H1754 0.930 . S
C1747 C1746 1.394 . S
C1747 C1748 1.383 . S
C1747 H1755 0.929 . S
C1748 C1747 1.383 . S
C1748 C1749 1.377 . S
C1749 H1733 0.930 . S
C1749 C1748 1.377 . S
C1749 C1750 1.379 . S
C1750 H1734 0.931 . S
C1750 C1744 1.383 . S
C1750 C1749 1.379 . S
H1751 C1745 0.959 . S
H1752 C1745 0.961 . S
H1753 C1745 0.960 . S
H1754 C1746 0.930 . S
H1755 C1747 0.929 . S
H1756 C1764 0.929 . S
H1757 C1766 0.930 . S
H1758 C1768 0.930 . S
H1759 C1771 0.929 1_455 S
H1760 C1774 0.930 . S
H1761 C1776 0.960 . S
H1762 C1776 0.960 . S
H1763 C1776 0.960 . S
C1764 H1756 0.929 . S
C1764 C1765 1.377 . S
C1764 C1766 1.384 . S
C1765 C1764 1.377 . S
C1765 C1771 1.390 . S
C1766 H1757 0.930 . S
C1766 C1764 1.384 . S
C1766 C1767 1.372 . S
C1767 C1766 1.372 . S
C1767 C1768 1.400 . S
C1767 C1772 1.490 . S
C1768 H1758 0.930 . S
C1768 C1767 1.400 . S
C1768 C1771 1.386 . S
H1769 C1785 0.930 . S
H1770 C1786 0.931 . S
C1771 H1759 0.929 1_655 S
C1771 C1765 1.390 . S
C1771 C1768 1.386 . S
C1772 C1767 1.490 . S
C1772 C1774 1.395 . S
C1772 C1775 1.403 . S
H1773 C1779 0.930 . S
C1774 H1760 0.930 . S
C1774 C1772 1.395 . S
C1774 C1777 1.403 . S
C1775 C1772 1.403 . S
C1775 C1776 1.524 . S
C1775 C1779 1.400 . S
C1776 H1761 0.960 . S
C1776 H1762 0.960 . S
C1776 H1763 0.960 . S
C1776 C1775 1.524 . S
C1777 C1774 1.403 . S
C1777 C1778 1.392 . S
C1777 C1781 1.495 . S
C1778 C1777 1.392 . S
C1778 C1779 1.385 . S
C1778 C1780 1.478 . S
C1779 H1773 0.930 . S
C1779 C1775 1.400 . S
C1779 C1778 1.385 . S
C1780 C1778 1.478 . S
C1780 C1782 1.381 . S
C1780 C1786 1.383 . S
C1781 C1777 1.495 . S
C1781 H1787 0.959 . S
C1781 H1788 0.961 . S
C1781 H1789 0.960 . S
C1782 C1780 1.381 . S
C1782 C1783 1.394 . S
C1782 H1790 0.930 . S
C1783 C1782 1.394 . S
C1783 C1784 1.383 . S
C1783 H1791 0.929 . S
C1784 C1783 1.383 . S
C1784 C1785 1.377 . S
C1785 H1769 0.930 . S
C1785 C1784 1.377 . S
C1785 C1786 1.379 . S
C1786 H1770 0.931 . S
C1786 C1780 1.383 . S
C1786 C1785 1.379 . S
H1787 C1781 0.959 . S
H1788 C1781 0.961 . S
H1789 C1781 0.960 . S
H1790 C1782 0.930 . S
H1791 C1783 0.929 . S
H1792 C1800 0.929 . S
H1793 C1802 0.930 . S
H1794 C1804 0.930 . S
H1795 C1807 0.929 . S
H1796 C1810 0.930 . S
H1797 C1812 0.960 . S
H1798 C1812 0.960 . S
H1799 C1812 0.960 . S
C1800 H1792 0.929 . S
C1800 C1801 1.377 . S
C1800 C1802 1.384 . S
C1801 C1800 1.377 . S
C1801 C1807 1.390 1_554 S
C1802 H1793 0.930 . S
C1802 C1800 1.384 . S
C1802 C1803 1.372 . S
C1803 C1802 1.372 . S
C1803 C1804 1.400 1_554 S
C1803 C1808 1.490 . S
C1804 H1794 0.930 . S
C1804 C1803 1.400 1_556 S
C1804 C1807 1.386 . S
H1805 C1821 0.944 . S
H1806 C1822 0.931 1_556 S
C1807 H1795 0.929 . S
C1807 C1801 1.390 1_556 S
C1807 C1804 1.386 . S
C1808 C1803 1.490 . S
C1808 C1810 1.395 1_565 S
C1808 C1811 1.403 . S
H1809 C1815 0.930 1_556 S
C1810 H1796 0.930 . S
C1810 C1808 1.395 1_545 S
C1810 C1813 1.403 . S
C1811 C1808 1.403 . S
C1811 C1812 1.524 1_554 S
C1811 C1815 1.400 . S
C1812 H1797 0.960 . S
C1812 H1798 0.960 . S
C1812 H1799 0.960 . S
C1812 C1811 1.524 1_556 S
C1813 C1810 1.403 . S
C1813 C1814 1.392 . S
C1813 C1817 1.495 . S
C1814 C1813 1.392 . S
C1814 C1815 1.385 1_545 S
C1814 C1816 1.478 . S
C1815 H1809 0.930 1_554 S
C1815 C1811 1.400 . S
C1815 C1814 1.385 1_565 S
C1816 C1814 1.478 . S
C1816 C1818 1.381 . S
C1816 C1822 1.383 . S
C1817 C1813 1.495 . S
C1817 H1823 0.959 . S
C1817 H1824 0.961 . S
C1817 H1825 0.960 . S
C1818 C1816 1.381 . S
C1818 C1819 1.394 . S
C1818 H1826 0.930 . S
C1819 C1818 1.394 . S
C1819 C1820 1.383 . S
C1819 H1827 0.929 . S
C1820 C1819 1.383 . S
C1820 C1821 1.364 1_554 S
C1821 H1805 0.944 . S
C1821 C1820 1.364 1_556 S
C1821 C1822 1.379 1_556 S
C1822 H1806 0.931 1_554 S
C1822 C1816 1.383 . S
C1822 C1821 1.379 1_554 S
H1823 C1817 0.959 . S
H1824 C1817 0.961 . S
H1825 C1817 0.960 . S
H1826 C1818 0.930 . S
H1827 C1819 0.929 . S
H1828 C1836 0.929 . S
H1829 C1838 0.930 . S
H1830 C1840 0.930 . S
H1831 C1843 0.929 . S
H1832 C1846 0.930 1_554 S
H1833 C1848 0.960 . S
H1834 C1848 0.960 . S
H1835 C1848 0.960 . S
C1836 H1828 0.929 . S
C1836 C1837 1.377 . S
C1836 C1838 1.384 . S
C1837 C1836 1.377 . S
C1837 C1843 1.390 1_455 S
C1838 H1829 0.930 . S
C1838 C1836 1.384 . S
C1838 C1839 1.372 . S
C1839 C1838 1.372 . S
C1839 C1840 1.400 1_455 S
C1839 C1844 1.490 . S
C1840 H1830 0.930 . S
C1840 C1839 1.400 1_655 S
C1840 C1843 1.386 . S
H1841 C1857 0.930 1_554 S
H1842 C1858 0.931 1_554 S
C1843 H1831 0.929 . S
C1843 C1837 1.390 1_655 S
C1843 C1840 1.386 . S
C1844 C1839 1.490 . S
C1844 C1846 1.395 . S
C1844 C1847 1.403 1_455 S
H1845 C1851 0.930 . S
C1846 H1832 0.930 1_556 S
C1846 C1844 1.395 . S
C1846 C1849 1.403 . S
C1847 C1844 1.403 1_655 S
C1847 C1848 1.524 . S
C1847 C1851 1.400 . S
C1848 H1833 0.960 . S
C1848 H1834 0.960 . S
C1848 H1835 0.960 . S
C1848 C1847 1.524 . S
C1849 C1846 1.403 . S
C1849 C1850 1.367 1_455 S
C1849 C1853 1.495 1_556 S
C1850 C1849 1.367 1_655 S
C1850 C1851 1.405 . S
C1850 C1852 1.484 . S
C1851 H1845 0.930 . S
C1851 C1847 1.400 . S
C1851 C1850 1.405 . S
C1852 C1850 1.484 . S
C1852 C1854 1.381 1_655 S
C1852 C1858 1.383 . S
C1853 C1849 1.495 1_554 S
C1853 H1859 0.959 . S
C1853 H1860 0.961 . S
C1853 H1861 0.955 1_554 S
C1854 C1852 1.381 1_455 S
C1854 C1855 1.394 . S
C1854 H1862 0.930 . S
C1855 C1854 1.394 . S
C1855 C1856 1.383 1_455 S
C1855 H1863 0.929 . S
C1856 C1855 1.383 1_655 S
C1856 C1857 1.377 . S
C1857 H1841 0.930 1_556 S
C1857 C1856 1.377 . S
C1857 C1858 1.379 . S
C1858 H1842 0.931 1_556 S
C1858 C1852 1.383 . S
C1858 C1857 1.379 . S
H1859 C1853 0.959 . S
H1860 C1853 0.961 . S
H1861 C1853 0.955 1_556 S
H1862 C1854 0.930 . S
H1863 C1855 0.929 . S
H1864 C1872 0.929 . S
H1865 C1874 0.930 . S
H1866 C1876 0.930 . S
H1867 C1879 0.929 . S
H1868 C1882 0.930 . S
H1869 C1884 0.960 . S
H1870 C1884 0.960 . S
H1871 C1884 0.960 . S
C1872 H1864 0.929 . S
C1872 C1873 1.377 . S
C1872 C1874 1.384 . S
C1873 C1872 1.377 . S
C1873 C1879 1.390 . S
C1874 H1865 0.930 . S
C1874 C1872 1.384 . S
C1874 C1875 1.372 . S
C1875 C1874 1.372 . S
C1875 C1876 1.400 . S
C1875 C1880 1.490 . S
C1876 H1866 0.930 . S
C1876 C1875 1.400 . S
C1876 C1879 1.386 . S
H1877 C1893 0.930 . S
H1878 C1894 0.931 . S
C1879 H1867 0.929 . S
C1879 C1873 1.390 . S
C1879 C1876 1.386 . S
C1880 C1875 1.490 . S
C1880 C1882 1.395 . S
C1880 C1883 1.403 . S
H1881 C1887 0.930 . S
C1882 H1868 0.930 . S
C1882 C1880 1.395 . S
C1882 C1885 1.403 . S
C1883 C1880 1.403 . S
C1883 C1884 1.524 . S
C1883 C1887 1.400 . S
C1884 H1869 0.960 . S
C1884 H1870 0.960 . S
C1884 H1871 0.960 . S
C1884 C1883 1.524 . S
C1885 C1882 1.403 . S
C1885 C1886 1.392 . S
C1885 C1889 1.495 . S
C1886 C1885 1.392 . S
C1886 C1887 1.385 . S
C1886 C1888 1.478 . S
C1887 H1881 0.930 . S
C1887 C1883 1.400 . S
C1887 C1886 1.385 . S
C1888 C1886 1.478 . S
C1888 C1890 1.381 . S
C1888 C1894 1.383 . S
C1889 C1885 1.495 . S
C1889 H1895 0.959 . S
C1889 H1896 0.961 . S
C1889 H1897 0.960 . S
C1890 C1888 1.381 . S
C1890 C1891 1.394 . S
C1890 H1898 0.930 . S
C1891 C1890 1.394 . S
C1891 C1892 1.383 . S
C1891 H1899 0.929 . S
C1892 C1891 1.383 . S
C1892 C1893 1.377 . S
C1893 H1877 0.930 . S
C1893 C1892 1.377 . S
C1893 C1894 1.379 . S
C1894 H1878 0.931 . S
C1894 C1888 1.383 . S
C1894 C1893 1.379 . S
H1895 C1889 0.959 . S
H1896 C1889 0.961 . S
H1897 C1889 0.960 . S
H1898 C1890 0.930 . S
H1899 C1891 0.929 . S
H1900 C1908 0.929 . S
H1901 C1910 0.930 . S
H1902 C1912 0.930 . S
H1903 C1915 0.929 . S
H1904 C1918 0.930 . S
H1905 C1920 0.960 . S
H1906 C1920 0.960 . S
H1907 C1920 0.960 . S
C1908 H1900 0.929 . S
C1908 C1909 1.377 . S
C1908 C1910 1.384 . S
C1909 C1908 1.377 . S
C1909 C1915 1.390 . S
C1910 H1901 0.930 . S
C1910 C1908 1.384 . S
C1910 C1911 1.372 . S
C1911 C1910 1.372 . S
C1911 C1912 1.400 . S
C1911 C1916 1.490 . S
C1912 H1902 0.930 . S
C1912 C1911 1.400 . S
C1912 C1915 1.386 . S
H1913 C1929 0.930 . S
H1914 C1930 0.931 . S
C1915 H1903 0.929 . S
C1915 C1909 1.390 . S
C1915 C1912 1.386 . S
C1916 C1911 1.490 . S
C1916 C1918 1.395 . S
C1916 C1919 1.403 . S
H1917 C1923 0.930 . S
C1918 H1904 0.930 . S
C1918 C1916 1.395 . S
C1918 C1921 1.403 . S
C1919 C1916 1.403 . S
C1919 C1920 1.524 . S
C1919 C1923 1.400 . S
C1920 H1905 0.960 . S
C1920 H1906 0.960 . S
C1920 H1907 0.960 . S
C1920 C1919 1.524 . S
C1921 C1918 1.403 . S
C1921 C1922 1.392 . S
C1921 C1925 1.495 . S
C1922 C1921 1.392 . S
C1922 C1923 1.385 . S
C1922 C1924 1.478 . S
C1923 H1917 0.930 . S
C1923 C1919 1.400 . S
C1923 C1922 1.385 . S
C1924 C1922 1.478 . S
C1924 C1926 1.381 . S
C1924 C1930 1.383 . S
C1925 C1921 1.495 . S
C1925 H1931 0.959 . S
C1925 H1932 0.961 . S
C1925 H1933 0.960 . S
C1926 C1924 1.381 . S
C1926 C1927 1.394 . S
C1926 H1934 0.930 . S
C1927 C1926 1.394 . S
C1927 C1928 1.383 . S
C1927 H1935 0.929 . S
C1928 C1927 1.383 . S
C1928 C1929 1.377 . S
C1929 H1913 0.930 . S
C1929 C1928 1.377 . S
C1929 C1930 1.379 . S
C1930 H1914 0.931 . S
C1930 C1924 1.383 . S
C1930 C1929 1.379 . S
H1931 C1925 0.959 . S
H1932 C1925 0.961 . S
H1933 C1925 0.960 . S
H1934 C1926 0.930 . S
H1935 C1927 0.929 . S
H1936 C1944 0.929 . S
H1937 C1946 0.930 . S
H1938 C1948 0.930 . S
H1939 C1951 0.929 . S
H1940 C1954 0.930 . S
H1941 C1956 0.960 . S
H1942 C1956 0.960 . S
H1943 C1956 0.960 . S
C1944 H1936 0.929 . S
C1944 C1945 1.377 . S
C1944 C1946 1.384 . S
C1945 C1944 1.377 . S
C1945 C1951 1.390 . S
C1946 H1937 0.930 . S
C1946 C1944 1.384 . S
C1946 C1947 1.372 . S
C1947 C1946 1.372 . S
C1947 C1948 1.400 . S
C1947 C1952 1.490 . S
C1948 H1938 0.930 . S
C1948 C1947 1.400 . S
C1948 C1951 1.386 . S
H1949 C1965 0.930 . S
H1950 C1966 0.931 . S
C1951 H1939 0.929 . S
C1951 C1945 1.390 . S
C1951 C1948 1.386 . S
C1952 C1947 1.490 . S
C1952 C1954 1.395 . S
C1952 C1955 1.403 . S
H1953 C1959 0.930 . S
C1954 H1940 0.930 . S
C1954 C1952 1.395 . S
C1954 C1957 1.403 1_455 S
C1955 C1952 1.403 . S
C1955 C1956 1.524 . S
C1955 C1959 1.400 1_455 S
C1956 H1941 0.960 . S
C1956 H1942 0.960 . S
C1956 H1943 0.960 . S
C1956 C1955 1.524 . S
C1957 C1954 1.403 1_655 S
C1957 C1958 1.392 . S
C1957 C1961 1.495 . S
C1958 C1957 1.392 . S
C1958 C1959 1.385 . S
C1958 C1960 1.478 . S
C1959 H1953 0.930 . S
C1959 C1955 1.400 1_655 S
C1959 C1958 1.385 . S
C1960 C1958 1.478 . S
C1960 C1962 1.381 . S
C1960 C1966 1.383 . S
C1961 C1957 1.495 . S
C1961 H1967 0.959 . S
C1961 H1968 0.961 . S
C1961 H1969 0.960 . S
C1962 C1960 1.381 . S
C1962 C1963 1.394 . S
C1962 H1970 0.930 . S
C1963 C1962 1.394 . S
C1963 C1964 1.383 . S
C1963 H1971 0.929 . S
C1964 C1963 1.383 . S
C1964 C1965 1.377 . S
C1965 H1949 0.930 . S
C1965 C1964 1.377 . S
C1965 C1966 1.379 . S
C1966 H1950 0.931 . S
C1966 C1960 1.383 . S
C1966 C1965 1.379 . S
H1967 C1961 0.959 . S
H1968 C1961 0.961 . S
H1969 C1961 0.960 . S
H1970 C1962 0.930 . S
H1971 C1963 0.929 . S
H1972 C1980 0.929 . S
H1973 C1982 0.930 . S
H1974 C1984 0.930 . S
H1975 C1987 0.929 . S
H1976 C1990 0.930 . S
H1977 C1992 0.960 1_565 S
H1978 C1992 0.960 . S
H1979 C1992 0.960 . S
C1980 H1972 0.929 . S
C1980 C1981 1.377 . S
C1980 C1982 1.384 . S
C1981 C1980 1.377 . S
C1981 C1987 1.390 . S
C1982 H1973 0.930 . S
C1982 C1980 1.384 . S
C1982 C1983 1.372 . S
C1983 C1982 1.372 . S
C1983 C1984 1.400 . S
C1983 C1988 1.490 . S
C1984 H1974 0.930 . S
C1984 C1983 1.400 . S
C1984 C1987 1.386 . S
H1985 C2001 0.930 . S
H1986 C2002 0.931 . S
C1987 H1975 0.929 . S
C1987 C1981 1.390 . S
C1987 C1984 1.386 . S
C1988 C1983 1.490 . S
C1988 C1990 1.395 . S
C1988 C1991 1.403 . S
H1989 C1995 0.930 . S
C1990 H1976 0.930 . S
C1990 C1988 1.395 . S
C1990 C1993 1.403 1_545 S
C1991 C1988 1.403 . S
C1991 C1992 1.524 . S
C1991 C1995 1.400 1_545 S
C1992 H1977 0.960 1_545 S
C1992 H1978 0.960 . S
C1992 H1979 0.960 . S
C1992 C1991 1.524 . S
C1993 C1990 1.403 1_565 S
C1993 C1994 1.392 . S
C1993 C1997 1.495 . S
C1994 C1993 1.392 . S
C1994 C1995 1.385 . S
C1994 C1996 1.478 . S
C1995 H1989 0.930 . S
C1995 C1991 1.400 1_565 S
C1995 C1994 1.385 . S
C1996 C1994 1.478 . S
C1996 C1998 1.381 . S
C1996 C2002 1.383 . S
C1997 C1993 1.495 . S
C1997 H2003 0.959 1_565 S
C1997 H2004 0.961 . S
C1997 H2005 0.960 . S
C1998 C1996 1.381 . S
C1998 C1999 1.394 . S
C1998 H2006 0.930 . S
C1999 C1998 1.394 . S
C1999 C2000 1.383 . S
C1999 H2007 0.929 . S
C2000 C1999 1.383 . S
C2000 C2001 1.377 . S
C2001 H1985 0.930 . S
C2001 C2000 1.377 . S
C2001 C2002 1.379 . S
C2002 H1986 0.931 . S
C2002 C1996 1.383 . S
C2002 C2001 1.379 . S
H2003 C1997 0.959 1_545 S
H2004 C1997 0.961 . S
H2005 C1997 0.960 . S
H2006 C1998 0.930 . S
H2007 C1999 0.929 . S
H2008 C2016 0.928 . S
H2009 C2018 0.930 . S
H2010 C2020 0.930 . S
H2011 C2023 0.929 . S
H2012 C2026 0.930 . S
H2013 C2028 0.948 1_655 S
H2014 C2028 0.960 . S
H2015 C2028 0.960 . S
C2016 H2008 0.928 . S
C2016 C2017 1.379 1_565 S
C2016 C2018 1.383 . S
C2017 C2016 1.379 1_545 S
C2017 C2023 1.390 . S
C2018 H2009 0.930 . S
C2018 C2016 1.383 . S
C2018 C2019 1.372 1_565 S
C2019 C2018 1.372 1_545 S
C2019 C2020 1.400 . S
C2019 C2024 1.490 . S
C2020 H2010 0.930 . S
C2020 C2019 1.400 . S
C2020 C2023 1.386 . S
H2021 C2037 0.930 1_545 S
H2022 C2038 0.923 1_545 S
C2023 H2011 0.929 . S
C2023 C2017 1.390 . S
C2023 C2020 1.386 . S
C2024 C2019 1.490 . S
C2024 C2026 1.395 1_545 S
C2024 C2027 1.403 . S
H2025 C2031 0.930 . S
C2026 H2012 0.930 . S
C2026 C2024 1.395 1_565 S
C2026 C2029 1.403 1_455 S
C2027 C2024 1.403 . S
C2027 C2028 1.524 . S
C2027 C2031 1.400 1_455 S
C2028 H2013 0.948 1_455 S
C2028 H2014 0.960 . S
C2028 H2015 0.960 . S
C2028 C2027 1.524 . S
C2029 C2026 1.403 1_655 S
C2029 C2030 1.392 . S
C2029 C2033 1.495 . S
C2030 C2029 1.392 . S
C2030 C2031 1.385 1_565 S
C2030 C2032 1.478 . S
C2031 H2025 0.930 . S
C2031 C2027 1.400 1_655 S
C2031 C2030 1.385 1_545 S
C2032 C2030 1.478 . S
C2032 C2034 1.381 . S
C2032 C2038 1.389 . S
C2033 C2029 1.495 . S
C2033 H2039 0.940 1_655 S
C2033 H2040 0.961 . S
C2033 H2041 0.960 . S
C2034 C2032 1.381 . S
C2034 C2035 1.394 . S
C2034 H2042 0.930 . S
C2035 C2034 1.394 . S
C2035 C2036 1.383 . S
C2035 H2043 0.929 . S
C2036 C2035 1.383 . S
C2036 C2037 1.377 . S
C2037 H2021 0.930 1_565 S
C2037 C2036 1.377 . S
C2037 C2038 1.381 . S
C2038 H2022 0.923 1_565 S
C2038 C2032 1.389 . S
C2038 C2037 1.381 . S
H2039 C2033 0.940 1_455 S
H2040 C2033 0.961 . S
H2041 C2033 0.960 . S
H2042 C2034 0.930 . S
H2043 C2035 0.929 . S
H2044 C2052 0.929 . S
H2045 C2054 0.930 . S
H2046 C2056 0.936 . S
H2047 C2059 0.929 1_455 S
H2048 C2062 0.930 . S
H2049 C2064 0.960 . S
H2050 C2064 0.960 . S
H2051 C2064 0.960 . S
C2052 H2044 0.929 . S
C2052 C2053 1.377 . S
C2052 C2054 1.384 . S
C2053 C2052 1.377 . S
C2053 C2059 1.390 . S
C2054 H2045 0.930 . S
C2054 C2052 1.384 . S
C2054 C2055 1.372 . S
C2055 C2054 1.372 . S
C2055 C2056 1.395 1_655 S
C2055 C2060 1.490 . S
C2056 H2046 0.936 . S
C2056 C2055 1.395 1_455 S
C2056 C2059 1.384 1_455 S
H2057 C2073 0.930 . S
H2058 C2074 0.931 . S
C2059 H2047 0.929 1_655 S
C2059 C2053 1.390 . S
C2059 C2056 1.384 1_655 S
C2060 C2055 1.490 . S
C2060 C2062 1.395 1_655 S
C2060 C2063 1.403 . S
H2061 C2067 0.930 . S
C2062 H2048 0.930 . S
C2062 C2060 1.395 1_455 S
C2062 C2065 1.403 1_545 S
C2063 C2060 1.403 . S
C2063 C2064 1.524 . S
C2063 C2067 1.400 1_545 S
C2064 H2049 0.960 . S
C2064 H2050 0.960 . S
C2064 H2051 0.960 . S
C2064 C2063 1.524 . S
C2065 C2062 1.403 1_565 S
C2065 C2066 1.392 . S
C2065 C2069 1.495 . S
C2066 C2065 1.392 . S
C2066 C2067 1.385 1_455 S
C2066 C2068 1.478 . S
C2067 H2061 0.930 . S
C2067 C2063 1.400 1_565 S
C2067 C2066 1.385 1_655 S
C2068 C2066 1.478 . S
C2068 C2070 1.381 1_455 S
C2068 C2074 1.383 . S
C2069 C2065 1.495 . S
C2069 H2075 0.959 . S
C2069 H2076 0.961 . S
C2069 H2077 0.960 . S
C2070 C2068 1.381 1_655 S
C2070 C2071 1.394 1_655 S
C2070 H2078 0.930 . S
C2071 C2070 1.394 1_455 S
C2071 C2072 1.383 . S
C2071 H2079 0.929 1_455 S
C2072 C2071 1.383 . S
C2072 C2073 1.377 . S
C2073 H2057 0.930 . S
C2073 C2072 1.377 . S
C2073 C2074 1.379 . S
C2074 H2058 0.931 . S
C2074 C2068 1.383 . S
C2074 C2073 1.379 . S
H2075 C2069 0.959 . S
H2076 C2069 0.961 . S
H2077 C2069 0.960 . S
H2078 C2070 0.930 . S
H2079 C2071 0.929 1_655 S
C361 C348 1.451 . S
C380 C18 1.527 . S
C397 C274 1.429 . S
C416 C40 1.486 . S
C433 C62 1.527 . S
C452 C294 1.497 . S
C469 C84 1.501 . S
C488 C318 1.461 . S
C505 C98 1.524 . S
C524 C30 1.419 . S
C541 C118 1.506 . S
C560 C54 1.431 . S
C577 C142 1.526 . S
C596 C74 1.496 . S
C613 C10 1.425 . S
C632 C162 1.503 . S
C649 C184 1.529 . S
C668 C164 1.447 . S
C685 C216 1.501 . S
C704 C96 1.460 . S
C721 C238 1.521 . S
C740 C120 1.412 . S
C757 C260 1.500 . S
C776 C140 1.467 . S
C793 C282 1.530 . S
C812 C206 1.454 . S
C829 C230 1.417 . S
C848 C304 1.534 . S
C865 C250 1.468 . S
C884 C326 1.542 . S
C901 C194 1.423 . S
C920 C340 1.511 . S
C937 C106 0.867 . S
C956 C8 0.883 . S
C973 C32 0.849 . S
C992 C128 0.819 . S
C1009 C150 0.867 . S
C1028 C52 0.866 . S
C1045 C76 0.850 . S
C1064 C172 0.810 . S
C1081 C272 0.867 . S
C1100 C186 0.889 . S
C1117 C296 0.840 . S
C1136 C208 0.866 . S
C1153 C316 0.867 . S
C1172 C228 0.874 . S
C1189 C338 0.837 . S
C1208 C252 0.850 . S
C1225 C7 0.795 . S
C1244 C257 0.791 . S
C1261 C191 0.806 . S
C1280 C29 0.842 . S
C1297 C51 0.797 . S
C1316 C213 0.801 . S
C1333 C73 0.800 . S
C1352 C241 0.792 . S
C1369 C117 0.808 . S
C1388 C103 0.829 . S
C1405 C139 0.804 . S
C1424 C131 0.808 . S
C1441 C161 0.804 . S
C1460 C147 0.799 . S
C1477 C175 0.804 . S
C1496 C95 0.783 . S
C1513 C197 0.813 . S
C1532 C81 0.829 . S
C1549 C21 0.811 . S
C1568 C205 0.840 . S
C1585 C37 0.803 . S
C1604 C227 0.784 . S
C1621 C65 0.814 . S
C1640 C249 0.785 . S
C1657 C301 0.803 . S
C1676 C271 0.759 . S
C1693 C293 0.802 . S
C1712 C329 0.787 . S
C1729 C351 0.803 . S
C1748 C315 0.760 . S
C1765 C345 0.808 . S
C1784 C285 0.782 . S
C1801 C59 0.164 . S
C1820 C15 0.128 . S
C1837 C43 0.208 . S
C1856 C87 0.307 . S
C1873 C109 0.196 . S
C1892 C153 0.268 . S
C1909 C169 0.229 . S
C1928 C125 0.156 . S
C1945 C235 0.192 . S
C1964 C183 0.254 . S
C1981 C219 0.222 . S
C2000 C263 0.159 . S
C2017 C323 0.173 . S
C2036 C279 0.177 . S
C2053 C307 0.203 . S
C2072 C337 0.247 . S
