# Generated by pormake.
# Topology uos, (4)-cn, num edge types: 1
# Building blocks:
#     Node 0, Type 0, BuildingBlock: GALJAG_clean_sbu_0, # of connection points: 4
#     Node 1, Type 0, BuildingBlock: GALJAG_clean_sbu_0, # of connection points: 4
#     Node 2, Type 0, BuildingBlock: GALJAG_clean_sbu_0, # of connection points: 4
#     Node 3, Type 0, BuildingBlock: GALJAG_clean_sbu_0, # of connection points: 4
#     Node 4, Type 0, BuildingBlock: GALJAG_clean_sbu_0, # of connection points: 4
#     Node 5, Type 0, BuildingBlock: GALJAG_clean_sbu_0, # of connection points: 4
#     Node 6, Type 0, BuildingBlock: GALJAG_clean_sbu_0, # of connection points: 4
#     Node 7, Type 0, BuildingBlock: GALJAG_clean_sbu_0, # of connection points: 4
#     Node 8, Type 0, BuildingBlock: GALJAG_clean_sbu_0, # of connection points: 4
#     Node 9, Type 0, BuildingBlock: GALJAG_clean_sbu_0, # of connection points: 4
#     Node 10, Type 0, BuildingBlock: GALJAG_clean_sbu_0, # of connection points: 4
#     Node 11, Type 0, BuildingBlock: GALJAG_clean_sbu_0, # of connection points: 4
#     Node 12, Type 0, BuildingBlock: GALJAG_clean_sbu_0, # of connection points: 4
#     Node 13, Type 0, BuildingBlock: GALJAG_clean_sbu_0, # of connection points: 4
#     Node 14, Type 0, BuildingBlock: GALJAG_clean_sbu_0, # of connection points: 4
#     Node 15, Type 0, BuildingBlock: GALJAG_clean_sbu_0, # of connection points: 4
#     Node 16, Type 0, BuildingBlock: GALJAG_clean_sbu_0, # of connection points: 4
#     Node 17, Type 0, BuildingBlock: GALJAG_clean_sbu_0, # of connection points: 4
#     Node 18, Type 0, BuildingBlock: GALJAG_clean_sbu_0, # of connection points: 4
#     Node 19, Type 0, BuildingBlock: GALJAG_clean_sbu_0, # of connection points: 4
#     Node 20, Type 0, BuildingBlock: GALJAG_clean_sbu_0, # of connection points: 4
#     Node 21, Type 0, BuildingBlock: GALJAG_clean_sbu_0, # of connection points: 4
#     Node 22, Type 0, BuildingBlock: GALJAG_clean_sbu_0, # of connection points: 4
#     Node 23, Type 0, BuildingBlock: GALJAG_clean_sbu_0, # of connection points: 4
#     Node 24, Type 0, BuildingBlock: GALJAG_clean_sbu_0, # of connection points: 4
#     Node 25, Type 0, BuildingBlock: GALJAG_clean_sbu_0, # of connection points: 4
#     Node 26, Type 0, BuildingBlock: GALJAG_clean_sbu_0, # of connection points: 4
#     Node 27, Type 0, BuildingBlock: GALJAG_clean_sbu_0, # of connection points: 4
#     Node 28, Type 0, BuildingBlock: GALJAG_clean_sbu_0, # of connection points: 4
#     Node 29, Type 0, BuildingBlock: GALJAG_clean_sbu_0, # of connection points: 4
#     Node 30, Type 0, BuildingBlock: GALJAG_clean_sbu_0, # of connection points: 4
#     Node 31, Type 0, BuildingBlock: GALJAG_clean_sbu_0, # of connection points: 4
#     Edge 32, Type (0, 0), BuildingBlock: XUDNAN_clean_linker_2, # of connection points: 2
#     Edge 33, Type (0, 0), BuildingBlock: XUDNAN_clean_linker_2, # of connection points: 2
#     Edge 34, Type (0, 0), BuildingBlock: XUDNAN_clean_linker_2, # of connection points: 2
#     Edge 35, Type (0, 0), BuildingBlock: XUDNAN_clean_linker_2, # of connection points: 2
#     Edge 36, Type (0, 0), BuildingBlock: XUDNAN_clean_linker_2, # of connection points: 2
#     Edge 37, Type (0, 0), BuildingBlock: XUDNAN_clean_linker_2, # of connection points: 2
#     Edge 38, Type (0, 0), BuildingBlock: XUDNAN_clean_linker_2, # of connection points: 2
#     Edge 39, Type (0, 0), BuildingBlock: XUDNAN_clean_linker_2, # of connection points: 2
#     Edge 40, Type (0, 0), BuildingBlock: XUDNAN_clean_linker_2, # of connection points: 2
#     Edge 41, Type (0, 0), BuildingBlock: XUDNAN_clean_linker_2, # of connection points: 2
#     Edge 42, Type (0, 0), BuildingBlock: XUDNAN_clean_linker_2, # of connection points: 2
#     Edge 43, Type (0, 0), BuildingBlock: XUDNAN_clean_linker_2, # of connection points: 2
#     Edge 44, Type (0, 0), BuildingBlock: XUDNAN_clean_linker_2, # of connection points: 2
#     Edge 45, Type (0, 0), BuildingBlock: XUDNAN_clean_linker_2, # of connection points: 2
#     Edge 46, Type (0, 0), BuildingBlock: XUDNAN_clean_linker_2, # of connection points: 2
#     Edge 47, Type (0, 0), BuildingBlock: XUDNAN_clean_linker_2, # of connection points: 2
#     Edge 48, Type (0, 0), BuildingBlock: XUDNAN_clean_linker_2, # of connection points: 2
#     Edge 49, Type (0, 0), BuildingBlock: XUDNAN_clean_linker_2, # of connection points: 2
#     Edge 50, Type (0, 0), BuildingBlock: XUDNAN_clean_linker_2, # of connection points: 2
#     Edge 51, Type (0, 0), BuildingBlock: XUDNAN_clean_linker_2, # of connection points: 2
#     Edge 52, Type (0, 0), BuildingBlock: XUDNAN_clean_linker_2, # of connection points: 2
#     Edge 53, Type (0, 0), BuildingBlock: XUDNAN_clean_linker_2, # of connection points: 2
#     Edge 54, Type (0, 0), BuildingBlock: XUDNAN_clean_linker_2, # of connection points: 2
#     Edge 55, Type (0, 0), BuildingBlock: XUDNAN_clean_linker_2, # of connection points: 2
#     Edge 56, Type (0, 0), BuildingBlock: XUDNAN_clean_linker_2, # of connection points: 2
#     Edge 57, Type (0, 0), BuildingBlock: XUDNAN_clean_linker_2, # of connection points: 2
#     Edge 58, Type (0, 0), BuildingBlock: XUDNAN_clean_linker_2, # of connection points: 2
#     Edge 59, Type (0, 0), BuildingBlock: XUDNAN_clean_linker_2, # of connection points: 2
#     Edge 60, Type (0, 0), BuildingBlock: XUDNAN_clean_linker_2, # of connection points: 2
#     Edge 61, Type (0, 0), BuildingBlock: XUDNAN_clean_linker_2, # of connection points: 2
#     Edge 62, Type (0, 0), BuildingBlock: XUDNAN_clean_linker_2, # of connection points: 2
#     Edge 63, Type (0, 0), BuildingBlock: XUDNAN_clean_linker_2, # of connection points: 2
#     Edge 64, Type (0, 0), BuildingBlock: XUDNAN_clean_linker_2, # of connection points: 2
#     Edge 65, Type (0, 0), BuildingBlock: XUDNAN_clean_linker_2, # of connection points: 2
#     Edge 66, Type (0, 0), BuildingBlock: XUDNAN_clean_linker_2, # of connection points: 2
#     Edge 67, Type (0, 0), BuildingBlock: XUDNAN_clean_linker_2, # of connection points: 2
#     Edge 68, Type (0, 0), BuildingBlock: XUDNAN_clean_linker_2, # of connection points: 2
#     Edge 69, Type (0, 0), BuildingBlock: XUDNAN_clean_linker_2, # of connection points: 2
#     Edge 70, Type (0, 0), BuildingBlock: XUDNAN_clean_linker_2, # of connection points: 2
#     Edge 71, Type (0, 0), BuildingBlock: XUDNAN_clean_linker_2, # of connection points: 2
#     Edge 72, Type (0, 0), BuildingBlock: XUDNAN_clean_linker_2, # of connection points: 2
#     Edge 73, Type (0, 0), BuildingBlock: XUDNAN_clean_linker_2, # of connection points: 2
#     Edge 74, Type (0, 0), BuildingBlock: XUDNAN_clean_linker_2, # of connection points: 2
#     Edge 75, Type (0, 0), BuildingBlock: XUDNAN_clean_linker_2, # of connection points: 2
#     Edge 76, Type (0, 0), BuildingBlock: XUDNAN_clean_linker_2, # of connection points: 2
#     Edge 77, Type (0, 0), BuildingBlock: XUDNAN_clean_linker_2, # of connection points: 2
#     Edge 78, Type (0, 0), BuildingBlock: XUDNAN_clean_linker_2, # of connection points: 2
#     Edge 79, Type (0, 0), BuildingBlock: XUDNAN_clean_linker_2, # of connection points: 2
#     Edge 80, Type (0, 0), BuildingBlock: XUDNAN_clean_linker_2, # of connection points: 2
#     Edge 81, Type (0, 0), BuildingBlock: XUDNAN_clean_linker_2, # of connection points: 2
#     Edge 82, Type (0, 0), BuildingBlock: XUDNAN_clean_linker_2, # of connection points: 2
#     Edge 83, Type (0, 0), BuildingBlock: XUDNAN_clean_linker_2, # of connection points: 2
#     Edge 84, Type (0, 0), BuildingBlock: XUDNAN_clean_linker_2, # of connection points: 2
#     Edge 85, Type (0, 0), BuildingBlock: XUDNAN_clean_linker_2, # of connection points: 2
#     Edge 86, Type (0, 0), BuildingBlock: XUDNAN_clean_linker_2, # of connection points: 2
#     Edge 87, Type (0, 0), BuildingBlock: XUDNAN_clean_linker_2, # of connection points: 2
#     Edge 88, Type (0, 0), BuildingBlock: XUDNAN_clean_linker_2, # of connection points: 2
#     Edge 89, Type (0, 0), BuildingBlock: XUDNAN_clean_linker_2, # of connection points: 2
#     Edge 90, Type (0, 0), BuildingBlock: XUDNAN_clean_linker_2, # of connection points: 2
#     Edge 91, Type (0, 0), BuildingBlock: XUDNAN_clean_linker_2, # of connection points: 2
#     Edge 92, Type (0, 0), BuildingBlock: XUDNAN_clean_linker_2, # of connection points: 2
#     Edge 93, Type (0, 0), BuildingBlock: XUDNAN_clean_linker_2, # of connection points: 2
#     Edge 94, Type (0, 0), BuildingBlock: XUDNAN_clean_linker_2, # of connection points: 2
#     Edge 95, Type (0, 0), BuildingBlock: XUDNAN_clean_linker_2, # of connection points: 2
# Relax obj value: 0.041
# Max RMSD: 0.074
# Mean RMSD: 0.074
data_MOF--net-uos--node1-GALJAG_clean_sbu_0--edge1-XUDNAN_clean_linker_2
_symmetry_space_group_name_H-M    P1
_symmetry_Int_Tables_number       1
_symmetry_cell_setting            triclinic
loop_
_symmetry_equiv_pos_as_xyz
'x, y, z'
_cell_length_a     89.61905
_cell_length_b     89.64993
_cell_length_c     20.846259
_cell_angle_alpha  89.999764
_cell_angle_beta   90.002163
_cell_angle_gamma 90.010385
loop_
_atom_site_label
_atom_site_type_symbol
_atom_site_fract_x
_atom_site_fract_y
_atom_site_fract_z
_atom_type_partial_charge
In0 In 0.17509 0.16865 0.14645 0.0
O1 O 0.17006 0.15167 0.06634 0.0
O2 O 0.15353 0.16779 0.08963 0.0
C3 C 0.20409 0.16235 0.17282 0.0
C4 C 0.16068 0.1583 0.25116 0.0
C5 C 0.176 0.19773 0.11193 0.0
O6 O 0.19751 0.15712 0.12419 0.0
O7 O 0.19606 0.17052 0.20768 0.0
O8 O 0.16908 0.1931 0.1607 0.0
O9 O 0.18231 0.18764 0.07949 0.0
C10 C 0.15705 0.15659 0.05617 0.0
O11 O 0.16501 0.17164 0.24632 0.0
O12 O 0.16387 0.15012 0.20398 0.0
In13 In 0.09112 0.92629 0.38384 0.0
O14 O 0.11265 0.92592 0.32492 0.0
O15 O 0.09709 0.90858 0.30799 0.0
C16 C 0.09417 0.95558 0.41418 0.0
C17 C 0.0998 0.90885 0.48245 0.0
C18 C 0.06173 0.92598 0.35258 0.0
O19 O 0.09598 0.95061 0.35807 0.0
O20 O 0.09072 0.9458 0.45508 0.0
O21 O 0.06653 0.92255 0.40748 0.0
O22 O 0.07177 0.92949 0.31282 0.0
C23 C 0.10969 0.91407 0.29496 0.0
O24 O 0.08813 0.90631 0.45049 0.0
O25 O 0.10697 0.92028 0.46518 0.0
In26 In 0.33528 0.83637 0.64038 0.0
O27 O 0.33481 0.85805 0.58267 0.0
O28 O 0.35211 0.84273 0.56144 0.0
C29 C 0.3059 0.83906 0.66949 0.0
C30 C 0.35308 0.84559 0.73738 0.0
C31 C 0.33596 0.80708 0.60768 0.0
O32 O 0.31129 0.84254 0.61561 0.0
O33 O 0.31531 0.83403 0.70901 0.0
O34 O 0.33938 0.81174 0.6628 0.0
O35 O 0.33224 0.81719 0.56869 0.0
C36 C 0.3463 0.85527 0.54994 0.0
O37 O 0.35651 0.83493 0.70082 0.0
O38 O 0.34056 0.8514 0.72587 0.0
In39 In 0.41915 0.08081 0.85932 0.0
O40 O 0.40194 0.07867 0.77968 0.0
O41 O 0.41489 0.09854 0.78176 0.0
C42 C 0.41625 0.05167 0.89372 0.0
C43 C 0.4043 0.09892 0.94072 0.0
C44 C 0.449 0.08305 0.8397 0.0
O45 O 0.41639 0.0561 0.83642 0.0
O46 O 0.41745 0.06197 0.93461 0.0
O47 O 0.44294 0.08637 0.89242 0.0
O48 O 0.43999 0.07898 0.79666 0.0
C49 C 0.40442 0.09134 0.75539 0.0
O50 O 0.41838 0.09841 0.9398 0.0
O51 O 0.39792 0.08993 0.90328 0.0
In52 In 0.17498 0.83835 0.88233 0.0
O53 O 0.15224 0.83922 0.83335 0.0
O54 O 0.16721 0.85724 0.81735 0.0
C55 C 0.17241 0.80833 0.87207 0.0
C56 C 0.16762 0.85276 0.99287 0.0
C57 C 0.20275 0.84211 0.83301 0.0
O58 O 0.16959 0.81733 0.82732 0.0
O59 O 0.17672 0.81442 0.92357 0.0
O60 O 0.20069 0.83583 0.88662 0.0
O61 O 0.19099 0.84655 0.80605 0.0
C62 C 0.15461 0.85154 0.80591 0.0
O63 O 0.1796 0.85522 0.96298 0.0
O64 O 0.15986 0.8424 0.96945 0.0
In65 In 0.42028 0.92385 0.13748 0.0
O66 O 0.42221 0.9024 0.07892 0.0
O67 O 0.40187 0.91461 0.07392 0.0
C68 C 0.44985 0.92489 0.16466 0.0
C69 C 0.40397 0.9148 0.24003 0.0
C70 C 0.41711 0.95026 0.07511 0.0
O71 O 0.44466 0.91842 0.11583 0.0
O72 O 0.44012 0.93067 0.20063 0.0
O73 O 0.41628 0.94937 0.1355 0.0
O74 O 0.41943 0.938 0.04738 0.0
C75 C 0.40921 0.90334 0.05582 0.0
O76 O 0.40137 0.92685 0.21065 0.0
O77 O 0.41513 0.90771 0.21943 0.0
In78 In 0.33677 0.16971 0.35271 0.0
O79 O 0.33464 0.14961 0.41977 0.0
O80 O 0.35386 0.16318 0.42984 0.0
C81 C 0.30842 0.16238 0.31849 0.0
C82 C 0.35336 0.16341 0.24788 0.0
C83 C 0.33785 0.1991 0.38406 0.0
O84 O 0.3197 0.15495 0.30179 0.0
O85 O 0.31131 0.17332 0.35454 0.0
O86 O 0.34294 0.19412 0.33186 0.0
O87 O 0.33246 0.18927 0.42059 0.0
C88 C 0.34691 0.15171 0.44803 0.0
O89 O 0.35778 0.16058 0.30402 0.0
O90 O 0.34101 0.17011 0.24501 0.0
In91 In 0.08792 0.08398 0.64426 0.0
O92 O 0.10409 0.08551 0.73013 0.0
O93 O 0.08601 0.10087 0.72433 0.0
C94 C 0.09478 0.05739 0.58931 0.0
C95 C 0.10188 0.10398 0.56935 0.0
C96 C 0.05808 0.08224 0.66205 0.0
O97 O 0.09406 0.05885 0.64956 0.0
O98 O 0.09237 0.06919 0.55841 0.0
O99 O 0.06382 0.09043 0.61929 0.0
O100 O 0.06736 0.07493 0.69503 0.0
C101 C 0.09756 0.09674 0.75413 0.0
O102 O 0.08853 0.10009 0.55877 0.0
O103 O 0.10806 0.09773 0.61651 0.0
In104 In 0.83434 0.84062 0.87143 0.0
O105 O 0.83208 0.86071 0.93931 0.0
O106 O 0.85044 0.8462 0.9533 0.0
C107 C 0.80757 0.84307 0.81129 0.0
C108 C 0.85429 0.85067 0.78492 0.0
C109 C 0.83366 0.81123 0.90196 0.0
O110 O 0.80883 0.84457 0.87133 0.0
O111 O 0.81964 0.8404 0.78266 0.0
O112 O 0.84066 0.81634 0.85434 0.0
O113 O 0.8271 0.821 0.9353 0.0
C114 C 0.84389 0.85799 0.97022 0.0
O115 O 0.8556 0.83813 0.81193 0.0
O116 O 0.84297 0.85808 0.80171 0.0
In117 In 0.91873 0.0828 0.63668 0.0
O118 O 0.92062 0.10407 0.57723 0.0
O119 O 0.90337 0.08877 0.5534 0.0
C120 C 0.94834 0.08329 0.66293 0.0
C121 C 0.90018 0.0937 0.72874 0.0
C122 C 0.91658 0.0534 0.60749 0.0
O123 O 0.94311 0.08671 0.60874 0.0
O124 O 0.93863 0.07987 0.70427 0.0
O125 O 0.91539 0.05836 0.66391 0.0
O126 O 0.91868 0.06329 0.56537 0.0
C127 C 0.90962 0.10109 0.54172 0.0
O128 O 0.89701 0.08254 0.69459 0.0
O129 O 0.91291 0.09915 0.71792 0.0
In130 In 0.67495 0.17199 0.39326 0.0
O131 O 0.66996 0.15225 0.46123 0.0
O132 O 0.66268 0.17382 0.48851 0.0
C133 C 0.70459 0.16786 0.37175 0.0
C134 C 0.65545 0.15929 0.31142 0.0
C135 C 0.67289 0.20196 0.37807 0.0
O136 O 0.69917 0.1691 0.4274 0.0
O137 O 0.69506 0.16835 0.3274 0.0
O138 O 0.66975 0.19272 0.33457 0.0
O139 O 0.67731 0.19614 0.42985 0.0
C140 C 0.66288 0.16007 0.50131 0.0
O141 O 0.65231 0.17055 0.34503 0.0
O142 O 0.66855 0.15437 0.31872 0.0
In143 In 0.58892 0.92566 0.12674 0.0
O144 O 0.60662 0.92089 0.20504 0.0
O145 O 0.59059 0.9042 0.18416 0.0
C146 C 0.59467 0.95474 0.10038 0.0
C147 C 0.59917 0.9104 0.02455 0.0
C148 C 0.55947 0.9271 0.15566 0.0
O149 O 0.59733 0.94897 0.15447 0.0
O150 O 0.58927 0.94585 0.05973 0.0
O151 O 0.56433 0.92221 0.10298 0.0
O152 O 0.56947 0.93133 0.19425 0.0
C153 C 0.60195 0.90784 0.21608 0.0
O154 O 0.58566 0.91022 0.04154 0.0
O155 O 0.60752 0.91859 0.05829 0.0
In156 In 0.83367 0.17028 0.13972 0.0
O157 O 0.8547 0.17187 0.20108 0.0
O158 O 0.84209 0.15176 0.20472 0.0
C159 C 0.83377 0.19939 0.1042 0.0
C160 C 0.84257 0.15314 0.03938 0.0
C161 C 0.80716 0.16861 0.20275 0.0
O162 O 0.84071 0.19464 0.15269 0.0
O163 O 0.82687 0.18946 0.07323 0.0
O164 O 0.80824 0.16596 0.14339 0.0
O165 O 0.81929 0.17207 0.22936 0.0
C166 C 0.85337 0.1589 0.22407 0.0
O167 O 0.83024 0.15121 0.0675 0.0
O168 O 0.85008 0.16399 0.06025 0.0
In169 In 0.58792 0.08556 0.89661 0.0
O170 O 0.60567 0.08886 0.81644 0.0
O171 O 0.59002 0.10609 0.83469 0.0
C172 C 0.59398 0.05807 0.94446 0.0
C173 C 0.59826 0.10304 0.99127 0.0
C174 C 0.55858 0.08342 0.86656 0.0
O175 O 0.59454 0.06064 0.88481 0.0
O176 O 0.59042 0.06915 0.97815 0.0
O177 O 0.56317 0.08919 0.91806 0.0
O178 O 0.56877 0.0786 0.83024 0.0
C179 C 0.6013 0.10194 0.80344 0.0
O180 O 0.58459 0.10265 0.97605 0.0
O181 O 0.60662 0.09452 0.95898 0.0
In182 In 0.67487 0.83822 0.62939 0.0
O183 O 0.65246 0.84004 0.67947 0.0
O184 O 0.66882 0.85639 0.70205 0.0
C185 C 0.67386 0.80823 0.64494 0.0
C186 C 0.66232 0.84937 0.52092 0.0
C187 C 0.70442 0.84289 0.64966 0.0
O188 O 0.67028 0.81735 0.6883 0.0
O189 O 0.67806 0.8142 0.59312 0.0
O190 O 0.69885 0.842 0.59414 0.0
O191 O 0.69508 0.84176 0.69453 0.0
C192 C 0.65573 0.85159 0.71094 0.0
O193 O 0.67014 0.8573 0.55797 0.0
O194 O 0.66156 0.83583 0.53684 0.0
In195 In 0.92253 0.92459 0.37345 0.0
O196 O 0.92392 0.90298 0.43151 0.0
O197 O 0.9046 0.91656 0.442 0.0
C198 C 0.95207 0.92463 0.34465 0.0
C199 C 0.90497 0.9158 0.27411 0.0
C200 C 0.92015 0.95128 0.43415 0.0
O201 O 0.94684 0.91883 0.3949 0.0
O202 O 0.94238 0.93026 0.30798 0.0
O203 O 0.91907 0.9502 0.37386 0.0
O204 O 0.92246 0.9391 0.4625 0.0
C205 C 0.91141 0.90484 0.45831 0.0
O206 O 0.90317 0.92808 0.30278 0.0
O207 O 0.916 0.90834 0.29353 0.0
In208 In 0.67681 0.66864 0.61342 0.0
O209 O 0.6715 0.64926 0.54491 0.0
O210 O 0.66667 0.67125 0.51358 0.0
C211 C 0.70627 0.66408 0.63694 0.0
C212 C 0.65697 0.65433 0.68807 0.0
C213 C 0.67442 0.69844 0.6336 0.0
O214 O 0.70095 0.66457 0.5809 0.0
O215 O 0.69673 0.66556 0.68079 0.0
O216 O 0.67066 0.68879 0.67451 0.0
O217 O 0.67936 0.6931 0.58176 0.0
C218 C 0.66593 0.65745 0.50192 0.0
O219 O 0.65343 0.6651 0.65225 0.0
O220 O 0.67065 0.65094 0.68746 0.0
In221 In 0.58877 0.42523 0.8922 0.0
O222 O 0.5976 0.40479 0.94627 0.0
O223 O 0.59028 0.42332 0.00096 0.0
C224 C 0.55942 0.42261 0.86282 0.0
C225 C 0.60659 0.41432 0.79764 0.0
C226 C 0.59505 0.45414 0.92018 0.0
O227 O 0.56471 0.41864 0.91627 0.0
O228 O 0.56894 0.42778 0.82411 0.0
O229 O 0.60406 0.44358 0.92981 0.0
O230 O 0.58304 0.45029 0.89315 0.0
C231 C 0.59619 0.41058 0.00104 0.0
O232 O 0.60835 0.4271 0.82181 0.0
O233 O 0.59552 0.40726 0.81925 0.0
In234 In 0.83277 0.33822 0.10391 0.0
O235 O 0.85217 0.34245 0.17405 0.0
O236 O 0.83801 0.36052 0.14765 0.0
C237 C 0.83477 0.30875 0.07782 0.0
C238 C 0.84115 0.35235 0.99518 0.0
C239 C 0.80671 0.33854 0.16971 0.0
O240 O 0.8425 0.31489 0.12111 0.0
O241 O 0.82642 0.31752 0.04693 0.0
O242 O 0.80739 0.34232 0.11132 0.0
O243 O 0.819 0.33463 0.19374 0.0
C244 C 0.84921 0.35621 0.17914 0.0
O245 O 0.82804 0.35321 0.01744 0.0
O246 O 0.84972 0.34373 0.02583 0.0
In247 In 0.92066 0.58598 0.35982 0.0
O248 O 0.89948 0.5911 0.30075 0.0
O249 O 0.91993 0.58997 0.25105 0.0
C250 C 0.91796 0.55912 0.41848 0.0
C251 C 0.90955 0.60592 0.44384 0.0
C252 C 0.9505 0.58998 0.34826 0.0
O253 O 0.91661 0.56048 0.35835 0.0
O254 O 0.92069 0.5711 0.44767 0.0
O255 O 0.94148 0.60053 0.35821 0.0
O256 O 0.94448 0.57728 0.34364 0.0
C257 C 0.90618 0.59274 0.24823 0.0
O258 O 0.92201 0.6077 0.41666 0.0
O259 O 0.90277 0.59409 0.42877 0.0
In260 In 0.67639 0.34131 0.38752 0.0
O261 O 0.65925 0.34479 0.30761 0.0
O262 O 0.66957 0.36397 0.34797 0.0
C263 C 0.67063 0.31169 0.38042 0.0
C264 C 0.6666 0.35473 0.4963 0.0
C265 C 0.7059 0.34175 0.35735 0.0
O266 O 0.66824 0.3207 0.33517 0.0
O267 O 0.67563 0.31765 0.431 0.0
O268 O 0.70107 0.33841 0.41227 0.0
O269 O 0.69588 0.3451 0.3175 0.0
C270 C 0.66015 0.35883 0.30889 0.0
O271 O 0.67933 0.35699 0.47245 0.0
O272 O 0.65902 0.3449 0.46756 0.0
In273 In 0.91689 0.42645 0.60333 0.0
O274 O 0.89535 0.42603 0.6625 0.0
O275 O 0.9106 0.40828 0.67638 0.0
C276 C 0.91627 0.45624 0.58313 0.0
C277 C 0.90535 0.41392 0.49649 0.0
C278 C 0.94629 0.42415 0.63204 0.0
O279 O 0.91242 0.45046 0.63598 0.0
O280 O 0.92052 0.44703 0.54121 0.0
O281 O 0.94094 0.41956 0.57962 0.0
O282 O 0.93679 0.42947 0.6703 0.0
C283 C 0.89814 0.4139 0.69067 0.0
O284 O 0.91422 0.40685 0.53244 0.0
O285 O 0.90256 0.42704 0.51436 0.0
In286 In 0.83575 0.67263 0.85929 0.0
O287 O 0.85423 0.67593 0.78586 0.0
O288 O 0.84354 0.65469 0.79032 0.0
C289 C 0.83431 0.70174 0.89418 0.0
C290 C 0.85064 0.65659 0.94919 0.0
C291 C 0.8088 0.66824 0.80318 0.0
O292 O 0.8411 0.6972 0.84503 0.0
O293 O 0.82827 0.69154 0.92695 0.0
O294 O 0.81083 0.66553 0.86215 0.0
O295 O 0.82012 0.67315 0.77438 0.0
C296 C 0.85341 0.66276 0.76441 0.0
O297 O 0.83693 0.65435 0.93832 0.0
O298 O 0.85619 0.66731 0.91843 0.0
In299 In 0.58732 0.58641 0.10757 0.0
O300 O 0.58466 0.59575 0.00674 0.0
O301 O 0.60666 0.59143 0.03975 0.0
C302 C 0.55829 0.59178 0.13624 0.0
C303 C 0.60222 0.60378 0.19335 0.0
C304 C 0.59134 0.55689 0.08556 0.0
O305 O 0.5659 0.59956 0.09818 0.0
O306 O 0.56533 0.58109 0.16167 0.0
O307 O 0.59877 0.56397 0.1272 0.0
O308 O 0.58167 0.56459 0.05672 0.0
C309 C 0.59846 0.59635 0.99535 0.0
O310 O 0.60073 0.5899 0.20223 0.0
O311 O 0.59591 0.60857 0.14359 0.0
In312 In 0.33321 0.33838 0.37713 0.0
O313 O 0.3292 0.35371 0.46327 0.0
O314 O 0.35055 0.34358 0.45436 0.0
C315 C 0.3065 0.33984 0.31611 0.0
C316 C 0.34965 0.3562 0.30112 0.0
C317 C 0.33557 0.30872 0.39983 0.0
O318 O 0.30762 0.34162 0.37608 0.0
O319 O 0.31865 0.33713 0.2881 0.0
O320 O 0.34227 0.31501 0.35387 0.0
O321 O 0.32796 0.3174 0.43447 0.0
C322 C 0.34232 0.35252 0.48503 0.0
O323 O 0.35246 0.3424 0.30593 0.0
O324 O 0.33864 0.36065 0.33353 0.0
In325 In 0.42009 0.58321 0.12669 0.0
O326 O 0.40383 0.57852 0.20977 0.0
O327 O 0.41435 0.59967 0.20659 0.0
C328 C 0.42233 0.55648 0.06709 0.0
C329 C 0.40164 0.59656 0.0425 0.0
C330 C 0.44917 0.58996 0.14472 0.0
O331 O 0.42004 0.55743 0.12692 0.0
O332 O 0.42376 0.56884 0.0389 0.0
O333 O 0.44036 0.59804 0.11274 0.0
O334 O 0.44329 0.57844 0.16889 0.0
C335 C 0.40492 0.59141 0.23383 0.0
O336 O 0.41498 0.60083 0.04985 0.0
O337 O 0.39782 0.58572 0.07734 0.0
In338 In 0.1743 0.66865 0.88179 0.0
O339 O 0.1765 0.64789 0.94469 0.0
O340 O 0.16116 0.66449 0.97467 0.0
C341 C 0.2039 0.66781 0.85665 0.0
C342 C 0.15494 0.65534 0.80128 0.0
C343 C 0.1703 0.69852 0.87236 0.0
O344 O 0.19871 0.67111 0.91119 0.0
O345 O 0.19417 0.66459 0.81514 0.0
O346 O 0.1684 0.6896 0.82643 0.0
O347 O 0.17407 0.69241 0.92448 0.0
C348 C 0.16659 0.6517 0.9844 0.0
O349 O 0.15091 0.66448 0.84386 0.0
O350 O 0.16884 0.65311 0.79825 0.0
In351 In 0.08571 0.42117 0.61432 0.0
O352 O 0.10354 0.41919 0.69493 0.0
O353 O 0.08561 0.40375 0.69232 0.0
C354 C 0.09026 0.44827 0.56044 0.0
C355 C 0.09795 0.40216 0.52947 0.0
C356 C 0.05603 0.42332 0.63532 0.0
O357 O 0.09198 0.44623 0.62011 0.0
O358 O 0.08647 0.4368 0.52962 0.0
O359 O 0.06144 0.41622 0.58847 0.0
O360 O 0.06559 0.42939 0.67145 0.0
C361 C 0.09755 0.40772 0.7192 0.0
O362 O 0.08445 0.40127 0.54651 0.0
O363 O 0.10521 0.41269 0.55485 0.0
In364 In 0.3328 0.66855 0.62307 0.0
O365 O 0.32973 0.6515 0.54203 0.0
O366 O 0.35115 0.66131 0.55407 0.0
C367 C 0.30573 0.67083 0.67919 0.0
C368 C 0.3456 0.65187 0.71493 0.0
C369 C 0.33623 0.6976 0.5919 0.0
O370 O 0.30718 0.66541 0.62335 0.0
O371 O 0.31771 0.67523 0.70456 0.0
O372 O 0.3428 0.69171 0.63921 0.0
O373 O 0.32837 0.68872 0.55911 0.0
C374 C 0.34323 0.65195 0.52433 0.0
O375 O 0.35123 0.66418 0.69763 0.0
O376 O 0.33385 0.6482 0.68569 0.0
In377 In 0.08923 0.58155 0.38186 0.0
O378 O 0.1091 0.57966 0.31297 0.0
O379 O 0.0952 0.59858 0.30348 0.0
C380 C 0.09102 0.55192 0.40519 0.0
C381 C 0.09949 0.59554 0.48788 0.0
C382 C 0.06008 0.58731 0.35595 0.0
O383 O 0.09066 0.55733 0.3492 0.0
O384 O 0.09041 0.56147 0.44968 0.0
O385 O 0.06943 0.59732 0.36938 0.0
O386 O 0.06544 0.57432 0.35393 0.0
C387 C 0.10673 0.59185 0.28469 0.0
O388 O 0.08581 0.59308 0.4785 0.0
O389 O 0.108 0.59058 0.44478 0.0
In390 In 0.17501 0.33694 0.11875 0.0
O391 O 0.15705 0.33361 0.19425 0.0
O392 O 0.16766 0.35481 0.19038 0.0
C393 C 0.17707 0.30725 0.09742 0.0
C394 C 0.15834 0.34958 0.0243 0.0
C395 C 0.20415 0.34225 0.14531 0.0
O396 O 0.17217 0.31268 0.14911 0.0
O397 O 0.181 0.31679 0.0562 0.0
O398 O 0.19876 0.34368 0.08962 0.0
O399 O 0.19479 0.33857 0.18754 0.0
C400 C 0.15788 0.34667 0.21642 0.0
O401 O 0.16993 0.35586 0.04578 0.0
O402 O 0.15576 0.33696 0.04838 0.0
In403 In 0.42045 0.42407 0.87755 0.0
O404 O 0.41699 0.40505 0.95061 0.0
O405 O 0.40446 0.42503 0.96093 0.0
C406 C 0.44986 0.4202 0.85216 0.0
C407 C 0.40167 0.41224 0.78847 0.0
C408 C 0.42142 0.45386 0.89845 0.0
O409 O 0.44417 0.41697 0.90578 0.0
O410 O 0.44067 0.42493 0.81112 0.0
O411 O 0.4183 0.44837 0.84417 0.0
O412 O 0.42413 0.44435 0.94149 0.0
C413 C 0.40728 0.41219 0.9821 0.0
O414 O 0.39976 0.42495 0.81303 0.0
O415 O 0.41331 0.40564 0.80716 0.0
H416 H 0.28207 0.17653 0.34828 0.0
H417 H 0.30063 0.14107 0.2312 0.0
H418 H 0.27587 0.13674 0.18277 0.0
H419 H 0.24601 0.15865 0.3772 0.0
H420 H 0.23584 0.17598 0.37319 0.0
H421 H 0.25492 0.17585 0.40046 0.0
H422 H 0.26178 0.19529 0.31333 0.0
H423 H 0.24276 0.19542 0.2856 0.0
H424 H 0.25768 0.19132 0.23039 0.0
H425 H 0.24935 0.13732 0.142 0.0
H426 H 0.22275 0.14191 0.11669 0.0
H427 H 0.22135 0.17643 0.26245 0.0
C428 C 0.28088 0.16774 0.31301 0.0
C429 C 0.29328 0.15912 0.29361 0.0
C430 C 0.29128 0.14778 0.24702 0.0
C431 C 0.27726 0.14525 0.21912 0.0
C432 C 0.2653 0.15408 0.23861 0.0
C433 C 0.26693 0.165 0.28493 0.0
C434 C 0.25232 0.17307 0.29664 0.0
C435 C 0.24696 0.17074 0.36599 0.0
C436 C 0.25373 0.18976 0.28051 0.0
C437 C 0.24229 0.1651 0.24919 0.0
C438 C 0.24999 0.15421 0.21604 0.0
C439 C 0.24318 0.14573 0.16812 0.0
C440 C 0.22809 0.14843 0.15393 0.0
C441 C 0.21997 0.15944 0.18782 0.0
C442 C 0.22722 0.16783 0.23612 0.0
H443 H 0.09017 0.96913 0.53157 0.0
H444 H 0.10227 0.97813 0.33365 0.0
H445 H 0.10519 0.00483 0.35947 0.0
H446 H 0.06866 1.0022 0.5554 0.0
H447 H 0.07461 0.00503 0.63711 0.0
H448 H 0.0741 0.98648 0.60403 0.0
H449 H 0.10195 0.98286 0.63329 0.0
H450 H 0.10257 1.00143 0.66628 0.0
H451 H 0.11558 0.99606 0.60453 0.0
H452 H 0.10577 0.03047 0.40458 0.0
H453 H 0.1036 0.05383 0.46597 0.0
H454 H 0.09147 0.02869 0.63608 0.0
C455 C 0.09352 0.97672 0.49379 0.0
C456 C 0.09602 0.97155 0.43052 0.0
C457 C 0.10031 0.98183 0.38238 0.0
C458 C 0.10203 0.99701 0.39664 0.0
C459 C 0.09948 1.00175 0.45933 0.0
C460 C 0.09531 0.99196 0.50723 0.0
C461 C 0.09281 1.00013 0.57018 0.0
C462 C 0.07658 0.99835 0.593 0.0
C463 C 0.10389 0.9948 0.62161 0.0
C464 C 0.09606 0.01606 0.54991 0.0
C465 C 0.09994 0.01667 0.48575 0.0
C466 C 0.10287 0.03013 0.45495 0.0
C467 C 0.1016 0.04334 0.49027 0.0
C468 C 0.09748 0.04307 0.55587 0.0
C469 C 0.09488 0.02921 0.58628 0.0
H470 H 0.23016 0.83124 0.87324 0.0
H471 H 0.20873 0.85669 0.72185 0.0
H472 H 0.23273 0.85881 0.66531 0.0
H473 H 0.26533 0.85179 0.87216 0.0
H474 H 0.27661 0.83545 0.88593 0.0
H475 H 0.25779 0.8362 0.91614 0.0
H476 H 0.25156 0.8117 0.85593 0.0
H477 H 0.27035 0.81091 0.82535 0.0
H478 H 0.25477 0.81057 0.77069 0.0
H479 H 0.2585 0.85747 0.62246 0.0
H480 H 0.2851 0.85352 0.59762 0.0
H481 H 0.29054 0.82929 0.7764 0.0
C482 C 0.23058 0.83736 0.8285 0.0
C483 C 0.21755 0.84381 0.80203 0.0
C484 C 0.21853 0.85165 0.74314 0.0
C485 C 0.23212 0.85292 0.71055 0.0
C486 C 0.24471 0.84632 0.73738 0.0
C487 C 0.24414 0.83875 0.7951 0.0
C488 C 0.25939 0.83254 0.81247 0.0
C489 C 0.26512 0.83941 0.87541 0.0
C490 C 0.25899 0.81541 0.81632 0.0
C491 C 0.26854 0.83779 0.75541 0.0
C492 C 0.25978 0.84567 0.71269 0.0
C493 C 0.26551 0.85139 0.65567 0.0
C494 C 0.28063 0.84905 0.64189 0.0
C495 C 0.28991 0.84114 0.68506 0.0
C496 C 0.28374 0.83545 0.74262 0.0
H497 H 0.4171 0.03874 0.01406 0.0
H498 H 0.413 0.02839 0.81132 0.0
H499 H 0.41193 1.0016 0.83691 0.0
H500 H 0.44067 0.00792 0.05423 0.0
H501 H 0.43217 1.00447 0.13118 0.0
H502 H 0.43204 0.023 0.09777 0.0
H503 H 0.40325 0.02386 0.1079 0.0
H504 H 0.40329 0.00533 0.14141 0.0
H505 H 0.39218 0.00936 0.07144 0.0
H506 H 0.41231 0.97611 0.88259 0.0
H507 H 0.41382 0.95305 0.94634 0.0
H508 H 0.41733 0.97926 0.12085 0.0
C509 C 0.41586 0.03082 0.97518 0.0
C510 C 0.41511 0.03567 0.91062 0.0
C511 C 0.41358 0.02496 0.86107 0.0
C512 C 0.41295 0.00971 0.87512 0.0
C513 C 0.41381 0.00528 0.93902 0.0
C514 C 0.41519 0.01547 0.9884 0.0
C515 C 0.4162 0.00758 0.05278 0.0
C516 C 0.43116 0.01094 0.08593 0.0
C517 C 0.40294 0.01178 0.09593 0.0
C518 C 0.4153 0.99139 0.03164 0.0
C519 C 0.41391 0.9904 0.96574 0.0
C520 C 0.4133 0.97673 0.93426 0.0
C521 C 0.41419 0.96369 0.97095 0.0
C522 C 0.41564 0.96434 0.03856 0.0
C523 C 0.41609 0.97841 0.0693 0.0
H524 H 0.77903 0.84433 0.86112 0.0
H525 H 0.80371 0.84416 0.68197 0.0
H526 H 0.7801 0.84526 0.62158 0.0
H527 H 0.74945 0.82075 0.80733 0.0
H528 H 0.73504 0.83044 0.8509 0.0
H529 H 0.75391 0.83049 0.88055 0.0
H530 H 0.75382 0.85939 0.88167 0.0
H531 H 0.73493 0.85943 0.85198 0.0
H532 H 0.74929 0.86941 0.80927 0.0
H533 H 0.7539 0.84562 0.58004 0.0
H534 H 0.72673 0.84461 0.56044 0.0
H535 H 0.71881 0.84421 0.76585 0.0
C536 C 0.77944 0.84467 0.80922 0.0
C537 C 0.79323 0.84422 0.77626 0.0
C538 C 0.7933 0.84451 0.70829 0.0
C539 C 0.77994 0.84516 0.67349 0.0
C540 C 0.76654 0.84549 0.70725 0.0
C541 C 0.76616 0.84523 0.77357 0.0
C542 C 0.7502 0.84511 0.79781 0.0
C543 C 0.74696 0.83085 0.83641 0.0
C544 C 0.74687 0.85917 0.83753 0.0
C545 C 0.74172 0.84523 0.73479 0.0
C546 C 0.75138 0.84555 0.68317 0.0
C547 C 0.74622 0.84544 0.62008 0.0
C548 C 0.73076 0.84487 0.60938 0.0
C549 C 0.72065 0.84438 0.6615 0.0
C550 C 0.72626 0.84466 0.72497 0.0
H551 H 0.91982 0.98011 0.38667 0.0
H552 H 0.9174 0.95447 0.56306 0.0
H553 H 0.91544 0.97772 0.62535 0.0
H554 H 0.94255 0.00958 0.45044 0.0
H555 H 0.93344 0.0242 0.40583 0.0
H556 H 0.934 0.00552 0.37411 0.0
H557 H 0.90518 0.00544 0.36466 0.0
H558 H 0.90453 0.02413 0.39637 0.0
H559 H 0.89401 0.00946 0.43449 0.0
H560 H 0.91406 1.00346 0.66924 0.0
H561 H 0.91409 0.03044 0.69245 0.0
H562 H 0.91797 0.03988 0.48885 0.0
C563 C 0.91878 0.97942 0.43834 0.0
C564 C 0.91872 0.96547 0.47 0.0
C565 C 0.91748 0.96502 0.53774 0.0
C566 C 0.91632 0.97817 0.57361 0.0
C567 C 0.91649 0.99173 0.54119 0.0
C568 C 0.91773 0.99251 0.47517 0.0
C569 C 0.9181 0.00863 0.45282 0.0
C570 C 0.9329 0.01219 0.4188 0.0
C571 C 0.90465 0.01212 0.40952 0.0
C572 C 0.91693 0.01672 0.51662 0.0
C573 C 0.91592 0.00672 0.56684 0.0
C574 C 0.91482 0.01142 0.63035 0.0
C575 C 0.91484 0.02677 0.64306 0.0
C576 C 0.91603 0.03726 0.59255 0.0
C577 C 0.91703 0.03213 0.52848 0.0
H578 H 0.71862 0.16527 0.25509 0.0
H579 H 0.72726 0.16828 0.45955 0.0
H580 H 0.75438 0.16802 0.43825 0.0
H581 H 0.74982 0.14057 0.21696 0.0
H582 H 0.75364 0.14956 0.14138 0.0
H583 H 0.73492 0.14935 0.17281 0.0
H584 H 0.7339 0.17817 0.16541 0.0
H585 H 0.75263 0.17848 0.1342 0.0
H586 H 0.74806 0.18912 0.20489 0.0
H587 H 0.78043 0.16879 0.39473 0.0
H588 H 0.80379 0.1697 0.33239 0.0
H589 H 0.77849 0.16573 0.15565 0.0
C590 C 0.72623 0.16572 0.29544 0.0
C591 C 0.72083 0.16676 0.3591 0.0
C592 C 0.73113 0.16742 0.41049 0.0
C593 C 0.74656 0.1673 0.39882 0.0
C594 C 0.75151 0.16643 0.33552 0.0
C595 C 0.74167 0.16556 0.28465 0.0
C596 C 0.74994 0.16502 0.22112 0.0
C597 C 0.7469 0.15024 0.18601 0.0
C598 C 0.74589 0.1785 0.17893 0.0
C599 C 0.76597 0.16589 0.24418 0.0
C600 C 0.76659 0.1667 0.31037 0.0
C601 C 0.78008 0.16805 0.34294 0.0
C602 C 0.7933 0.16859 0.30704 0.0
C603 C 0.79298 0.16773 0.23916 0.0
C604 C 0.7791 0.16629 0.20747 0.0
H605 H 0.59054 0.02988 0.89248 0.0
H606 H 0.60389 0.05334 0.0652 0.0
H607 H 0.60713 0.02937 0.12129 0.0
H608 H 0.56879 1.00267 0.97208 0.0
H609 H 0.57365 0.98748 0.91946 0.0
H610 H 0.57393 0.00635 0.88998 0.0
H611 H 0.60148 1.00312 0.855 0.0
H612 H 0.60126 0.98419 0.88417 0.0
H613 H 0.61515 0.9971 0.91297 0.0
H614 H 0.60757 1.00319 0.16111 0.0
H615 H 0.60459 0.97627 0.18274 0.0
H616 H 0.59013 0.96942 0.98619 0.0
C617 C 0.59446 0.0299 0.94163 0.0
C618 C 0.59711 0.04344 0.97439 0.0
C619 C 0.60185 0.04308 0.0392 0.0
C620 C 0.60376 0.02952 0.07145 0.0
C621 C 0.60078 0.01636 0.03846 0.0
C622 C 0.59621 0.01638 0.97505 0.0
C623 C 0.59275 1.00065 0.95255 0.0
C624 C 0.5763 0.99921 0.93234 0.0
C625 C 0.60329 0.99599 0.89793 0.0
C626 C 0.59592 0.99189 0.01339 0.0
C627 C 0.60069 1.00117 0.0621 0.0
C628 C 0.60394 0.99577 0.12324 0.0
C629 C 0.60221 0.98047 0.13511 0.0
C630 C 0.59717 0.97075 0.08623 0.0
C631 C 0.59408 0.97657 0.02449 0.0
H632 H 0.72021 0.66359 0.75441 0.0
H633 H 0.7289 0.66191 0.54968 0.0
H634 H 0.75599 0.66141 0.57121 0.0
H635 H 0.74998 0.68777 0.79451 0.0
H636 H 0.75445 0.67874 0.86936 0.0
H637 H 0.7357 0.67795 0.83847 0.0
H638 H 0.73636 0.64909 0.84331 0.0
H639 H 0.75512 0.64979 0.87441 0.0
H640 H 0.75113 0.63916 0.80303 0.0
H641 H 0.78187 0.66293 0.6138 0.0
H642 H 0.80523 0.66561 0.67475 0.0
H643 H 0.78024 0.66573 0.8531 0.0
C644 C 0.72782 0.66292 0.71414 0.0
C645 C 0.72245 0.66274 0.65026 0.0
C646 C 0.73275 0.66199 0.59892 0.0
C647 C 0.74815 0.66171 0.61071 0.0
C648 C 0.75308 0.66208 0.67412 0.0
C649 C 0.74325 0.66258 0.72509 0.0
C650 C 0.75155 0.66339 0.78856 0.0
C651 C 0.74769 0.67782 0.82484 0.0
C652 C 0.74835 0.64953 0.82975 0.0
C653 C 0.76759 0.66352 0.7652 0.0
C654 C 0.76815 0.66274 0.69897 0.0
C655 C 0.78158 0.66339 0.66566 0.0
C656 C 0.7948 0.66496 0.70078 0.0
C657 C 0.79457 0.6658 0.76867 0.0
C658 C 0.78077 0.66491 0.80131 0.0
H659 H 0.57723 0.47902 0.90752 0.0
H660 H 0.61878 0.46356 0.99129 0.0
H661 H 0.62227 0.48806 0.0431 0.0
H662 H 0.58973 0.51724 0.87665 0.0
H663 H 0.57184 0.52525 0.89591 0.0
H664 H 0.5729 0.50665 0.86358 0.0
H665 H 0.55808 0.49668 0.9613 0.0
H666 H 0.55711 0.51522 0.99424 0.0
H667 H 0.56491 0.50025 0.04119 0.0
H668 H 0.62054 0.51372 0.09125 0.0
H669 H 0.61474 0.53954 0.12473 0.0
H670 H 0.57473 0.53867 0.00751 0.0
C671 C 0.58716 0.48087 0.93604 0.0
C672 C 0.59776 0.46938 0.94522 0.0
C673 C 0.61055 0.47221 0.98328 0.0
C674 C 0.61261 0.48608 0.01315 0.0
C675 C 0.60183 0.49707 0.00419 0.0
C676 C 0.58945 0.49471 0.96593 0.0
C677 C 0.57953 0.50841 0.96445 0.0
C678 C 0.57844 0.51476 0.89608 0.0
C679 C 0.56399 0.50492 0.99194 0.0
C680 C 0.5882 0.51876 0.00831 0.0
C681 C 0.60099 0.51197 0.031 0.0
C682 C 0.61061 0.51919 0.07341 0.0
C683 C 0.60719 0.53383 0.09242 0.0
C684 C 0.59431 0.54112 0.06871 0.0
C685 C 0.58469 0.5334 0.02634 0.0
H686 H 0.71906 0.34704 0.24005 0.0
H687 H 0.72903 0.33523 0.43742 0.0
H688 H 0.75578 0.33353 0.41055 0.0
H689 H 0.74573 0.32253 0.1673 0.0
H690 H 0.75079 0.33531 0.10419 0.0
H691 H 0.7324 0.33606 0.13891 0.0
H692 H 0.73622 0.364 0.16609 0.0
H693 H 0.75462 0.36334 0.13131 0.0
H694 H 0.7522 0.36958 0.21285 0.0
H695 H 0.78118 0.33246 0.36265 0.0
H696 H 0.80399 0.3324 0.29685 0.0
H697 H 0.778 0.34501 0.1296 0.0
C698 C 0.7269 0.34419 0.27766 0.0
C699 C 0.72197 0.34129 0.34094 0.0
C700 C 0.73255 0.33752 0.38871 0.0
C701 C 0.74777 0.33652 0.3739 0.0
C702 C 0.75225 0.33935 0.31109 0.0
C703 C 0.74218 0.34314 0.26367 0.0
C704 C 0.75001 0.3454 0.1998 0.0
C705 C 0.7444 0.33415 0.1496 0.0
C706 C 0.74815 0.36154 0.17614 0.0
C707 C 0.76604 0.34222 0.21879 0.0
C708 C 0.76703 0.33875 0.28326 0.0
C709 C 0.78056 0.3352 0.31217 0.0
C710 C 0.79346 0.33518 0.27428 0.0
C711 C 0.7928 0.33871 0.20808 0.0
C712 C 0.77887 0.3423 0.18009 0.0
H713 H 0.91949 0.47051 0.4676 0.0
H714 H 0.91158 0.47862 0.67001 0.0
H715 H 0.91072 0.50575 0.64904 0.0
H716 H 0.94301 0.50215 0.4388 0.0
H717 H 0.93549 0.50594 0.36027 0.0
H718 H 0.93544 0.48717 0.39111 0.0
H719 H 0.90687 0.4856 0.37329 0.0
H720 H 0.90683 0.50437 0.34244 0.0
H721 H 0.8949 0.49948 0.40882 0.0
H722 H 0.91163 0.53189 0.60691 0.0
H723 H 0.91332 0.55543 0.54618 0.0
H724 H 0.91959 0.5305 0.36977 0.0
C725 C 0.91758 0.478 0.50753 0.0
C726 C 0.91566 0.47248 0.57058 0.0
C727 C 0.91309 0.48262 0.62142 0.0
C728 C 0.91259 0.49803 0.60994 0.0
C729 C 0.91454 0.50311 0.54726 0.0
C730 C 0.9169 0.49341 0.4968 0.0
C731 C 0.91856 0.50179 0.43392 0.0
C732 C 0.93404 0.4991 0.4043 0.0
C733 C 0.90604 0.49756 0.38685 0.0
C734 C 0.91689 0.51774 0.45698 0.0
C735 C 0.91464 0.51822 0.5226 0.0
C736 C 0.91327 0.53166 0.55549 0.0
C737 C 0.91428 0.54497 0.52054 0.0
C738 C 0.9165 0.54479 0.45324 0.0
C739 C 0.91772 0.53097 0.42107 0.0
H740 H 0.27771 0.33968 0.36356 0.0
H741 H 0.30323 0.343 0.18722 0.0
H742 H 0.27991 0.34527 0.12534 0.0
H743 H 0.24847 0.31704 0.29774 0.0
H744 H 0.23382 0.32572 0.34376 0.0
H745 H 0.25255 0.32516 0.37491 0.0
H746 H 0.2523 0.35391 0.38763 0.0
H747 H 0.23357 0.35455 0.35632 0.0
H748 H 0.2481 0.36545 0.31916 0.0
H749 H 0.25392 0.34698 0.08198 0.0
H750 H 0.22685 0.34643 0.05957 0.0
H751 H 0.21793 0.34112 0.26295 0.0
C752 C 0.27836 0.34099 0.31199 0.0
C753 C 0.2923 0.34123 0.28022 0.0
C754 C 0.29269 0.34277 0.21259 0.0
C755 C 0.2795 0.34413 0.17699 0.0
C756 C 0.26594 0.34382 0.20957 0.0
C757 C 0.26524 0.34218 0.27547 0.0
C758 C 0.24916 0.3415 0.29809 0.0
C759 C 0.2458 0.32646 0.33053 0.0
C760 C 0.24558 0.35464 0.34295 0.0
C761 C 0.24099 0.34297 0.23463 0.0
C762 C 0.25089 0.34444 0.18428 0.0
C763 C 0.24604 0.34585 0.12102 0.0
C764 C 0.23065 0.34556 0.10875 0.0
C765 C 0.22029 0.34375 0.15941 0.0
C766 C 0.22558 0.34256 0.22319 0.0
H767 H 0.42263 0.5277 0.11504 0.0
H768 H 0.42275 0.55304 0.93757 0.0
H769 H 0.42257 0.52966 0.87554 0.0
H770 H 0.44708 0.49818 0.05854 0.0
H771 H 0.43734 0.48366 0.10126 0.0
H772 H 0.43744 0.50242 0.13224 0.0
H773 H 0.40854 0.50245 0.13402 0.0
H774 H 0.40835 0.48371 0.10293 0.0
H775 H 0.3984 0.49829 0.06148 0.0
H776 H 0.42151 0.50365 0.83214 0.0
H777 H 0.42092 0.47652 0.81068 0.0
H778 H 0.42246 0.46784 0.01538 0.0
C779 C 0.42266 0.5283 0.06316 0.0
C780 C 0.42269 0.54221 0.03119 0.0
C781 C 0.42277 0.54253 0.9632 0.0
C782 C 0.42263 0.5293 0.92743 0.0
C783 C 0.42255 0.51579 0.96022 0.0
C784 C 0.42267 0.51515 0.02651 0.0
C785 C 0.42271 0.4991 0.04958 0.0
C786 C 0.43699 0.49564 0.08765 0.0
C787 C 0.40866 0.49569 0.08935 0.0
C788 C 0.42249 0.49088 0.98595 0.0
C789 C 0.42231 0.50073 0.93503 0.0
C790 C 0.42174 0.49581 0.8716 0.0
C791 C 0.42138 0.4804 0.85985 0.0
C792 C 0.42173 0.47009 0.91124 0.0
C793 C 0.42231 0.47546 0.97505 0.0
H794 H 0.27737 0.66316 0.6372 0.0
H795 H 0.30181 0.67973 0.8024 0.0
H796 H 0.27864 0.68013 0.86542 0.0
H797 H 0.2441 0.68529 0.66437 0.0
H798 H 0.23144 0.67084 0.63881 0.0
H799 H 0.25002 0.67167 0.60604 0.0
H800 H 0.25467 0.6444 0.642 0.0
H801 H 0.23613 0.64352 0.67513 0.0
H802 H 0.25203 0.6394 0.72499 0.0
H803 H 0.25318 0.67855 0.91172 0.0
H804 H 0.2264 0.67617 0.93699 0.0
H805 H 0.21785 0.66107 0.74252 0.0
C806 C 0.2778 0.6669 0.68655 0.0
C807 C 0.29143 0.67141 0.71481 0.0
C808 C 0.29153 0.67625 0.77956 0.0
C809 C 0.27842 0.67649 0.81594 0.0
C810 C 0.26521 0.67191 0.787 0.0
C811 C 0.26472 0.6673 0.72375 0.0
C812 C 0.24891 0.66319 0.7045 0.0
C813 C 0.24329 0.67335 0.65022 0.0
C814 C 0.24788 0.64664 0.68554 0.0
C815 C 0.24067 0.66621 0.76682 0.0
C816 C 0.25034 0.67117 0.81378 0.0
C817 C 0.24546 0.6747 0.87538 0.0
C818 C 0.23023 0.67328 0.88933 0.0
C819 C 0.22004 0.66843 0.84184 0.0
C820 C 0.22539 0.66478 0.77988 0.0
H821 H 0.09118 0.47659 0.61371 0.0
H822 H 0.09321 0.45276 0.43262 0.0
H823 H 0.09455 0.4766 0.37448 0.0
H824 H 0.06766 0.50587 0.55811 0.0
H825 H 0.0766 0.52041 0.60388 0.0
H826 H 0.07687 0.50147 0.63263 0.0
H827 H 0.10574 0.50222 0.63831 0.0
H828 H 0.10554 0.5212 0.60983 0.0
H829 H 0.11626 0.50727 0.56787 0.0
H830 H 0.09448 0.50266 0.33487 0.0
H831 H 0.0932 0.52979 0.31614 0.0
H832 H 0.09094 0.53733 0.52166 0.0
C833 C 0.09214 0.47643 0.56193 0.0
C834 C 0.09215 0.4628 0.5277 0.0
C835 C 0.09318 0.46304 0.45987 0.0
C836 C 0.09397 0.47654 0.42633 0.0
C837 C 0.09369 0.48976 0.46115 0.0
C838 C 0.09283 0.48989 0.52739 0.0
C839 C 0.0921 0.50578 0.55247 0.0
C840 C 0.07744 0.50854 0.58892 0.0
C841 C 0.10572 0.50933 0.59461 0.0
C842 C 0.09255 0.51447 0.48995 0.0
C843 C 0.09353 0.50497 0.43799 0.0
C844 C 0.0938 0.51025 0.37515 0.0
C845 C 0.09304 0.52568 0.36498 0.0
C846 C 0.092 0.53568 0.41733 0.0
C847 C 0.09179 0.52996 0.48066 0.0
H848 H 0.16118 0.13174 0.97936 0.0
H849 H 0.12824 0.16477 0.03558 0.0
H850 H 0.10935 0.15206 0.96954 0.0
H851 H 0.14854 0.12806 0.81496 0.0
H852 H 0.15201 0.10827 0.81119 0.0
H853 H 0.16302 0.11986 0.86355 0.0
H854 H 0.15575 0.10311 0.95987 0.0
H855 H 0.14458 0.09157 0.90787 0.0
H856 H 0.13631 0.10004 0.97776 0.0
H857 H 0.09397 0.13606 0.89878 0.0
H858 H 0.08328 0.11858 0.82012 0.0
H859 H 0.12583 0.09563 0.80716 0.0
C860 C 0.15001 0.13632 0.97744 0.0
C861 C 0.14619 0.14927 0.01272 0.0
C862 C 0.13145 0.1549 0.00899 0.0
C863 C 0.12061 0.14772 0.9718 0.0
C864 C 0.12464 0.13491 0.93834 0.0
C865 C 0.13899 0.12929 0.94016 0.0
C866 C 0.14035 0.11551 0.89813 0.0
C867 C 0.15165 0.11808 0.84373 0.0
C868 C 0.14449 0.10174 0.93833 0.0
C869 C 0.12453 0.11432 0.8724 0.0
C870 C 0.11568 0.1256 0.89676 0.0
C871 C 0.10076 0.12715 0.87943 0.0
C872 C 0.09478 0.11713 0.8348 0.0
C873 C 0.10368 0.10569 0.80776 0.0
C874 C 0.1187 0.10413 0.8277 0.0
H875 H 0.14046 0.8517 0.0537 0.0
H876 H 0.18218 0.87624 0.04861 0.0
H877 H 0.17196 0.8944 0.12622 0.0
H878 H 0.1167 0.88307 0.05925 0.0
H879 H 0.10328 0.87486 0.11313 0.0
H880 H 0.11416 0.86312 0.06094 0.0
H881 H 0.12367 0.84805 0.15876 0.0
H882 H 0.11267 0.85963 0.21124 0.0
H883 H 0.13246 0.85771 0.22454 0.0
H884 H 0.15668 0.91076 0.19901 0.0
H885 H 0.13797 0.92335 0.26698 0.0
H886 H 0.10609 0.88822 0.22514 0.0
C887 C 0.14755 0.86073 0.06986 0.0
C888 C 0.16217 0.8625 0.0454 0.0
C889 C 0.171 0.8746 0.06702 0.0
C890 C 0.16527 0.885 0.11093 0.0
C891 C 0.15069 0.88314 0.13292 0.0
C892 C 0.14199 0.87123 0.11364 0.0
C893 C 0.12653 0.87204 0.14315 0.0
C894 C 0.11446 0.87335 0.091 0.0
C895 C 0.12367 0.85856 0.18704 0.0
C896 C 0.12785 0.88635 0.18155 0.0
C897 C 0.14188 0.89257 0.17493 0.0
C898 C 0.14569 0.90593 0.20486 0.0
C899 C 0.13496 0.91304 0.24319 0.0
C900 C 0.12056 0.90679 0.25139 0.0
C901 C 0.11699 0.89328 0.21981 0.0
H902 H 0.40638 0.88805 0.30312 0.0
H903 H 0.37887 0.92776 0.28996 0.0
H904 H 0.36118 0.91686 0.36795 0.0
H905 H 0.37664 0.86191 0.31198 0.0
H906 H 0.38583 0.84976 0.36843 0.0
H907 H 0.39672 0.86094 0.31405 0.0
H908 H 0.41098 0.87258 0.40989 0.0
H909 H 0.40021 0.86134 0.46458 0.0
H910 H 0.40063 0.88132 0.47381 0.0
H911 H 0.34605 0.90126 0.44456 0.0
H912 H 0.335 0.8825 0.51712 0.0
H913 H 0.37225 0.8528 0.48002 0.0
C914 C 0.39672 0.89453 0.31723 0.0
C915 C 0.39403 0.90881 0.29067 0.0
C916 C 0.3812 0.91686 0.30992 0.0
C917 C 0.37107 0.91073 0.35406 0.0
C918 C 0.37394 0.89655 0.37858 0.0
C919 C 0.38649 0.88858 0.36117 0.0
C920 C 0.38683 0.87345 0.39375 0.0
C921 C 0.38648 0.86077 0.34408 0.0
C922 C 0.40047 0.8721 0.43815 0.0
C923 C 0.37245 0.8741 0.43186 0.0
C924 C 0.36519 0.88753 0.42248 0.0
C925 C 0.35166 0.89072 0.45239 0.0
C926 C 0.34545 0.87998 0.49343 0.0
C927 C 0.35273 0.86617 0.50418 0.0
C928 C 0.36638 0.86322 0.47262 0.0
H929 H 0.40669 0.11881 0.69666 0.0
H930 H 0.37996 0.07844 0.70107 0.0
H931 H 0.36226 0.08967 0.62455 0.0
H932 H 0.37642 0.14454 0.68883 0.0
H933 H 0.38552 0.15722 0.6343 0.0
H934 H 0.39649 0.14593 0.68803 0.0
H935 H 0.41126 0.13516 0.59178 0.0
H936 H 0.40045 0.14654 0.5378 0.0
H937 H 0.40128 0.12663 0.52625 0.0
H938 H 0.34678 0.10559 0.55188 0.0
H939 H 0.33559 0.12448 0.48041 0.0
H940 H 0.3725 0.15444 0.52016 0.0
C941 C 0.3972 0.11228 0.68088 0.0
C942 C 0.39473 0.09772 0.70478 0.0
C943 C 0.38213 0.08957 0.68328 0.0
C944 C 0.37197 0.09588 0.63998 0.0
C945 C 0.37458 0.11034 0.61822 0.0
C946 C 0.38696 0.11839 0.63726 0.0
C947 C 0.38709 0.13372 0.60638 0.0
C948 C 0.38633 0.14608 0.65744 0.0
C949 C 0.40084 0.13562 0.56297 0.0
C950 C 0.37282 0.13303 0.56736 0.0
C951 C 0.36574 0.11946 0.57527 0.0
C952 C 0.35226 0.11623 0.54499 0.0
C953 C 0.34595 0.12706 0.5047 0.0
C954 C 0.35316 0.14092 0.49467 0.0
C955 C 0.36673 0.14394 0.52687 0.0
H956 H 0.86986 0.8548 0.03852 0.0
H957 H 0.83263 0.88495 0.00882 0.0
H958 H 0.84438 0.90327 0.08181 0.0
H959 H 0.87555 0.86326 0.2072 0.0
H960 H 0.89557 0.86187 0.20171 0.0
H961 H 0.88395 0.85108 0.14865 0.0
H962 H 0.89762 0.8625 0.05075 0.0
H963 H 0.90918 0.87345 0.10349 0.0
H964 H 0.89836 0.88249 0.04182 0.0
H965 H 0.86068 0.91864 0.15591 0.0
H966 H 0.87952 0.92923 0.22973 0.0
H967 H 0.90606 0.88899 0.21073 0.0
C968 C 0.86409 0.86519 0.04788 0.0
C969 C 0.85028 0.86843 0.01812 0.0
C970 C 0.84316 0.8822 0.03131 0.0
C971 C 0.84979 0.89269 0.07252 0.0
C972 C 0.86352 0.88925 0.10028 0.0
C973 C 0.87053 0.87578 0.08889 0.0
C974 C 0.88527 0.87483 0.1244 0.0
C975 C 0.88507 0.862 0.1734 0.0
C976 C 0.89838 0.87322 0.07729 0.0
C977 C 0.88549 0.88989 0.1574 0.0
C978 C 0.87287 0.89806 0.14278 0.0
C979 C 0.87059 0.91232 0.16774 0.0
C980 C 0.88138 0.91827 0.20944 0.0
C981 C 0.89429 0.90998 0.22585 0.0
C982 C 0.89636 0.89565 0.19889 0.0
H983 H 0.86981 0.15407 0.9795 0.0
H984 H 0.82854 0.12882 0.98739 0.0
H985 H 0.83883 0.11078 0.90927 0.0
H986 H 0.87701 0.14871 0.80973 0.0
H987 H 0.8969 0.14709 0.82042 0.0
H988 H 0.88606 0.15819 0.87533 0.0
H989 H 0.89644 0.14279 0.97057 0.0
H990 H 0.90722 0.13157 0.91592 0.0
H991 H 0.89432 0.12279 0.97048 0.0
H992 H 0.85391 0.09516 0.83205 0.0
H993 H 0.87229 0.08358 0.75908 0.0
H994 H 0.90382 0.11892 0.80222 0.0
C995 C 0.86287 0.14482 0.96434 0.0
C996 C 0.84833 0.14288 0.98935 0.0
C997 C 0.83967 0.13057 0.96868 0.0
C998 C 0.84545 0.12025 0.92444 0.0
C999 C 0.85989 0.12239 0.90134 0.0
C1000 C 0.86847 0.13441 0.92035 0.0
C1001 C 0.88373 0.13406 0.88894 0.0
C1002 C 0.88606 0.14783 0.84605 0.0
C1003 C 0.89616 0.13272 0.9395 0.0
C1004 C 0.88243 0.11994 0.84936 0.0
C1005 C 0.86859 0.11337 0.85721 0.0
C1006 C 0.86477 0.10023 0.8255 0.0
C1007 C 0.8753 0.09371 0.78425 0.0
C1008 C 0.8895 0.10031 0.77504 0.0
C1009 C 0.89308 0.11357 0.80843 0.0
H1010 H 0.62388 0.09611 0.71492 0.0
H1011 H 0.59708 0.13175 0.79641 0.0
H1012 H 0.61089 0.15015 0.73261 0.0
H1013 H 0.65867 0.11654 0.70577 0.0
H1014 H 0.66413 0.10894 0.62924 0.0
H1015 H 0.65246 0.0982 0.68237 0.0
H1016 H 0.63261 0.09552 0.59285 0.0
H1017 H 0.64428 0.10613 0.5393 0.0
H1018 H 0.62538 0.11203 0.55443 0.0
H1019 H 0.62762 0.16491 0.66372 0.0
H1020 H 0.64478 0.17519 0.583 0.0
H1021 H 0.66046 0.1305 0.53911 0.0
C1022 C 0.62093 0.10778 0.71904 0.0
C1023 C 0.60939 0.11246 0.76089 0.0
C1024 C 0.60581 0.12784 0.76468 0.0
C1025 C 0.61365 0.13843 0.72885 0.0
C1026 C 0.62501 0.13353 0.68864 0.0
C1027 C 0.62856 0.11859 0.68254 0.0
C1028 C 0.64093 0.11648 0.63337 0.0
C1029 C 0.65488 0.10964 0.66457 0.0
C1030 C 0.63547 0.10698 0.57662 0.0
C1031 C 0.64371 0.13256 0.6132 0.0
C1032 C 0.63449 0.14216 0.64654 0.0
C1033 C 0.63488 0.15752 0.63705 0.0
C1034 C 0.64473 0.16326 0.59119 0.0
C1035 C 0.65399 0.15369 0.55469 0.0
C1036 C 0.65357 0.13812 0.56647 0.0
H1037 H 0.66094 0.87856 0.47825 0.0
H1038 H 0.64299 0.83428 0.44406 0.0
H1039 H 0.62585 0.84458 0.36309 0.0
H1040 H 0.62675 0.89831 0.46411 0.0
H1041 H 0.6345 0.91417 0.4227 0.0
H1042 H 0.646 0.9034 0.47629 0.0
H1043 H 0.66513 0.89895 0.38515 0.0
H1044 H 0.65376 0.90984 0.33142 0.0
H1045 H 0.65891 0.89104 0.31024 0.0
H1046 H 0.60951 0.85958 0.29201 0.0
H1047 H 0.5963 0.8782 0.22649 0.0
H1048 H 0.62507 0.91304 0.30169 0.0
C1049 C 0.65355 0.87102 0.45296 0.0
C1050 C 0.65334 0.85558 0.46746 0.0
C1051 C 0.64342 0.8461 0.43369 0.0
C1052 C 0.63359 0.85186 0.38771 0.0
C1053 C 0.63386 0.86713 0.37547 0.0
C1054 C 0.6437 0.87658 0.40631 0.0
C1055 C 0.64153 0.89258 0.38398 0.0
C1056 C 0.63692 0.90271 0.44012 0.0
C1057 C 0.65567 0.89845 0.35071 0.0
C1058 C 0.62882 0.89062 0.33647 0.0
C1059 C 0.62456 0.87583 0.33279 0.0
C1060 C 0.61282 0.87118 0.29397 0.0
C1061 C 0.60534 0.88187 0.25712 0.0
C1062 C 0.60965 0.89708 0.25878 0.0
C1063 C 0.62155 0.90149 0.29923 0.0
H1064 H 0.65749 0.62834 0.47886 0.0
H1065 H 0.65507 0.67312 0.40025 0.0
H1066 H 0.63879 0.66398 0.31341 0.0
H1067 H 0.6574 0.60852 0.32428 0.0
H1068 H 0.64594 0.59349 0.35379 0.0
H1069 H 0.6582 0.60331 0.40774 0.0
H1070 H 0.63576 0.60918 0.48181 0.0
H1071 H 0.62341 0.59952 0.42778 0.0
H1072 H 0.61971 0.61864 0.44929 0.0
H1073 H 0.62182 0.65064 0.23934 0.0
H1074 H 0.60603 0.63352 0.17725 0.0
H1075 H 0.61899 0.5969 0.30179 0.0
C1076 C 0.65375 0.63615 0.44262 0.0
C1077 C 0.65764 0.65145 0.44606 0.0
C1078 C 0.65232 0.66136 0.39842 0.0
C1079 C 0.64303 0.65628 0.34898 0.0
C1080 C 0.63914 0.64123 0.34774 0.0
C1081 C 0.64439 0.63125 0.39283 0.0
C1082 C 0.6381 0.61573 0.38102 0.0
C1083 C 0.65066 0.60461 0.36579 0.0
C1084 C 0.62869 0.61046 0.43839 0.0
C1085 C 0.6284 0.61862 0.32253 0.0
C1086 C 0.62921 0.63343 0.30445 0.0
C1087 C 0.62116 0.63899 0.25273 0.0
C1088 C 0.61217 0.62915 0.21785 0.0
C1089 C 0.61125 0.61384 0.23451 0.0
C1090 C 0.61944 0.60853 0.28791 0.0
H1091 H 0.60358 0.38846 0.72753 0.0
H1092 H 0.63416 0.42492 0.76606 0.0
H1093 H 0.65314 0.41292 0.69744 0.0
H1094 H 0.63063 0.359 0.72558 0.0
H1095 H 0.62208 0.34902 0.66013 0.0
H1096 H 0.61079 0.36037 0.71237 0.0
H1097 H 0.60093 0.37523 0.6146 0.0
H1098 H 0.61205 0.36381 0.56202 0.0
H1099 H 0.61402 0.38381 0.56031 0.0
H1100 H 0.66908 0.39664 0.62808 0.0
H1101 H 0.68011 0.37858 0.55264 0.0
H1102 H 0.63899 0.35297 0.55474 0.0
C1103 C 0.61425 0.39395 0.72118 0.0
C1104 C 0.61741 0.40763 0.75224 0.0
C1105 C 0.63147 0.41448 0.74259 0.0
C1106 C 0.64235 0.40771 0.70398 0.0
C1107 C 0.63897 0.39413 0.67483 0.0
C1108 C 0.62519 0.38742 0.6821 0.0
C1109 C 0.62431 0.37304 0.64379 0.0
C1110 C 0.62181 0.35956 0.68813 0.0
C1111 C 0.6121 0.37404 0.59211 0.0
C1112 C 0.63977 0.3727 0.6141 0.0
C1113 C 0.64807 0.3849 0.63327 0.0
C1114 C 0.66268 0.38707 0.61254 0.0
C1115 C 0.66887 0.37669 0.56989 0.0
C1116 C 0.66045 0.36433 0.54783 0.0
C1117 C 0.64575 0.36225 0.571 0.0
H1118 H 0.90263 0.38921 0.76663 0.0
H1119 H 0.86911 0.42173 0.71187 0.0
H1120 H 0.85056 0.40877 0.77951 0.0
H1121 H 0.87849 0.35713 0.77084 0.0
H1122 H 0.88728 0.349 0.84031 0.0
H1123 H 0.89793 0.36068 0.78694 0.0
H1124 H 0.90526 0.37779 0.88205 0.0
H1125 H 0.89475 0.36609 0.93577 0.0
H1126 H 0.89082 0.38578 0.93152 0.0
H1127 H 0.83553 0.39209 0.85226 0.0
H1128 H 0.82569 0.3741 0.93151 0.0
H1129 H 0.86908 0.35274 0.941 0.0
C1130 C 0.89139 0.39361 0.76898 0.0
C1131 C 0.8873 0.40647 0.73385 0.0
C1132 C 0.8725 0.41192 0.73844 0.0
C1133 C 0.86187 0.40459 0.77652 0.0
C1134 C 0.86621 0.39187 0.81007 0.0
C1135 C 0.88065 0.3865 0.80722 0.0
C1136 C 0.88253 0.37286 0.84953 0.0
C1137 C 0.88681 0.35911 0.80949 0.0
C1138 C 0.89402 0.37581 0.90288 0.0
C1139 C 0.86689 0.3714 0.87655 0.0
C1140 C 0.85762 0.3824 0.85278 0.0
C1141 C 0.84269 0.38342 0.87119 0.0
C1142 C 0.83718 0.37311 0.91603 0.0
C1143 C 0.84658 0.36198 0.94228 0.0
C1144 C 0.86158 0.36106 0.92151 0.0
H1145 H 0.87703 0.60217 0.23385 0.0
H1146 H 0.91954 0.59949 0.13464 0.0
H1147 H 0.90929 0.61452 0.04609 0.0
H1148 H 0.85336 0.60069 0.08663 0.0
H1149 H 0.83993 0.61367 0.11869 0.0
H1150 H 0.85011 0.60151 0.1719 0.0
H1151 H 0.8592 0.62448 0.23624 0.0
H1152 H 0.84922 0.63671 0.18286 0.0
H1153 H 0.86896 0.63925 0.19519 0.0
H1154 H 0.89592 0.6323 0.97614 0.0
H1155 H 0.87905 0.64965 0.92052 0.0
H1156 H 0.84419 0.64012 0.05904 0.0
C1157 C 0.88405 0.60443 0.19267 0.0
C1158 C 0.8991 0.59959 0.19106 0.0
C1159 C 0.90798 0.60298 0.13683 0.0
C1160 C 0.90227 0.61156 0.08633 0.0
C1161 C 0.88757 0.61654 0.09026 0.0
C1162 C 0.87845 0.6129 0.14131 0.0
C1163 C 0.86319 0.62017 0.13413 0.0
C1164 C 0.85092 0.6083 0.12743 0.0
C1165 C 0.85996 0.63078 0.19046 0.0
C1166 C 0.86533 0.62874 0.0719 0.0
C1167 C 0.87955 0.62649 0.04791 0.0
C1168 C 0.88469 0.63394 0.99375 0.0
C1169 C 0.87504 0.64387 0.96281 0.0
C1170 C 0.86031 0.64617 0.98533 0.0
C1171 C 0.85533 0.63841 0.0404 0.0
H1172 H 0.36995 0.35141 0.54213 0.0
H1173 H 0.32808 0.37571 0.54432 0.0
H1174 H 0.33872 0.39357 0.62214 0.0
H1175 H 0.37848 0.35634 0.71284 0.0
H1176 H 0.39823 0.3583 0.69884 0.0
H1177 H 0.38706 0.3471 0.64548 0.0
H1178 H 0.39636 0.3628 0.5491 0.0
H1179 H 0.40741 0.37415 0.60221 0.0
H1180 H 0.39388 0.38276 0.55003 0.0
H1181 H 0.35448 0.40981 0.69379 0.0
H1182 H 0.37347 0.42196 0.76197 0.0
H1183 H 0.40489 0.3867 0.71643 0.0
C1184 C 0.36294 0.36036 0.55973 0.0
C1185 C 0.34815 0.36214 0.53726 0.0
C1186 C 0.33939 0.37406 0.56113 0.0
C1187 C 0.34537 0.38431 0.60514 0.0
C1188 C 0.36008 0.38242 0.6253 0.0
C1189 C 0.3687 0.37062 0.6041 0.0
C1190 C 0.38423 0.3712 0.63298 0.0
C1191 C 0.38717 0.35742 0.67504 0.0
C1192 C 0.39617 0.37283 0.58043 0.0
C1193 C 0.38306 0.38525 0.67319 0.0
C1194 C 0.36906 0.39159 0.66775 0.0
C1195 C 0.36543 0.40487 0.69887 0.0
C1196 C 0.37632 0.41173 0.73725 0.0
C1197 C 0.39064 0.40527 0.74467 0.0
C1198 C 0.39402 0.39187 0.71193 0.0
H1199 H 0.37056 0.6535 0.46557 0.0
H1200 H 0.3308 0.62609 0.47933 0.0
H1201 H 0.34277 0.60694 0.41106 0.0
H1202 H 0.37853 0.64483 0.2988 0.0
H1203 H 0.39846 0.64503 0.31052 0.0
H1204 H 0.38664 0.65644 0.36024 0.0
H1205 H 0.39798 0.64411 0.46156 0.0
H1206 H 0.40967 0.6325 0.4121 0.0
H1207 H 0.39733 0.62411 0.47006 0.0
H1208 H 0.3597 0.59021 0.34517 0.0
H1209 H 0.37886 0.57874 0.27547 0.0
H1210 H 0.40711 0.61758 0.30126 0.0
C1211 C 0.36432 0.64352 0.45373 0.0
C1212 C 0.34973 0.64127 0.47777 0.0
C1213 C 0.34193 0.62809 0.46112 0.0
C1214 C 0.34869 0.6171 0.42277 0.0
C1215 C 0.3632 0.61954 0.40089 0.0
C1216 C 0.37082 0.63255 0.41487 0.0
C1217 C 0.38613 0.63263 0.38397 0.0
C1218 C 0.38751 0.64549 0.3355 0.0
C1219 C 0.39851 0.63338 0.43498 0.0
C1220 C 0.38598 0.61761 0.35062 0.0
C1221 C 0.37273 0.61014 0.36158 0.0
C1222 C 0.37008 0.596 0.33606 0.0
C1223 C 0.38108 0.58951 0.29691 0.0
C1224 C 0.39449 0.59723 0.28307 0.0
C1225 C 0.397 0.61137 0.31115 0.0
H1226 H 0.14177 0.65527 0.06027 0.0
H1227 H 0.17756 0.62429 0.01663 0.0
H1228 H 0.16611 0.60562 0.08852 0.0
H1229 H 0.13724 0.64473 0.2289 0.0
H1230 H 0.11723 0.64675 0.22666 0.0
H1231 H 0.12877 0.65796 0.17485 0.0
H1232 H 0.11403 0.64834 0.07627 0.0
H1233 H 0.10257 0.63697 0.12766 0.0
H1234 H 0.11265 0.62855 0.0622 0.0
H1235 H 0.15025 0.58992 0.1616 0.0
H1236 H 0.13163 0.57869 0.23452 0.0
H1237 H 0.10588 0.61967 0.22939 0.0
C1238 C 0.14734 0.64465 0.06676 0.0
C1239 C 0.16063 0.64127 0.0332 0.0
C1240 C 0.16743 0.62716 0.04215 0.0
C1241 C 0.16099 0.61646 0.08274 0.0
C1242 C 0.14771 0.62003 0.11402 0.0
C1243 C 0.14101 0.63381 0.1069 0.0
C1244 C 0.12657 0.63465 0.1447 0.0
C1245 C 0.12752 0.64674 0.19688 0.0
C1246 C 0.11316 0.63728 0.10003 0.0
C1247 C 0.12615 0.61915 0.17378 0.0
C1248 C 0.13847 0.61091 0.15555 0.0
C1249 C 0.14057 0.59628 0.17632 0.0
C1250 C 0.12992 0.58998 0.21756 0.0
C1251 C 0.11728 0.59827 0.23744 0.0
C1252 C 0.11537 0.61301 0.21471 0.0
H1253 H 0.12536 0.41065 0.7777 0.0
H1254 H 0.08504 0.38373 0.77669 0.0
H1255 H 0.09641 0.36641 0.8535 0.0
H1256 H 0.15116 0.38048 0.78662 0.0
H1257 H 0.16396 0.3895 0.84088 0.0
H1258 H 0.15263 0.40054 0.78759 0.0
H1259 H 0.14208 0.41528 0.88425 0.0
H1260 H 0.1535 0.40439 0.93782 0.0
H1261 H 0.1336 0.4053 0.94993 0.0
H1262 H 0.11216 0.35101 0.92306 0.0
H1263 H 0.13098 0.33925 0.99203 0.0
H1264 H 0.16146 0.37595 0.95491 0.0
C1265 C 0.11888 0.40124 0.79455 0.0
C1266 C 0.10428 0.39857 0.77102 0.0
C1267 C 0.09621 0.38605 0.79381 0.0
C1268 C 0.10258 0.37609 0.83746 0.0
C1269 C 0.11704 0.3788 0.85857 0.0
C1270 C 0.12508 0.39113 0.83888 0.0
C1271 C 0.14051 0.39114 0.86947 0.0
C1272 C 0.15279 0.39037 0.81806 0.0
C1273 C 0.14254 0.40484 0.91296 0.0
C1274 C 0.13985 0.37682 0.90855 0.0
C1275 C 0.12619 0.36991 0.90092 0.0
C1276 C 0.12287 0.35636 0.93003 0.0
C1277 C 0.13369 0.34973 0.96894 0.0
C1278 C 0.1477 0.35666 0.97909 0.0
C1279 C 0.15084 0.3704 0.94821 0.0
H1280 H 0.16724 0.28493 0.17625 0.0
H1281 H 0.18908 0.29283 0.99361 0.0
H1282 H 0.19083 0.26558 0.97594 0.0
H1283 H 0.18864 0.25301 0.22194 0.0
H1284 H 0.17309 0.24349 0.25844 0.0
H1285 H 0.17345 0.26356 0.25595 0.0
H1286 H 0.14779 0.26369 0.19863 0.0
H1287 H 0.14735 0.24361 0.20089 0.0
H1288 H 0.14543 0.25324 0.12544 0.0
H1289 H 0.1907 0.23731 0.97994 0.0
H1290 H 0.18836 0.21039 0.00462 0.0
H1291 H 0.16615 0.22129 0.1835 0.0
C1292 C 0.17238 0.28094 0.13247 0.0
C1293 C 0.17805 0.29098 0.0863 0.0
C1294 C 0.18466 0.28532 0.0296 0.0
C1295 C 0.1857 0.26987 0.01917 0.0
C1296 C 0.18001 0.26027 0.06576 0.0
C1297 C 0.17344 0.2656 0.12119 0.0
C1298 C 0.16822 0.25297 0.16386 0.0
C1299 C 0.17634 0.25328 0.22888 0.0
C1300 C 0.15119 0.2534 0.17269 0.0
C1301 C 0.17295 0.23968 0.12402 0.0
C1302 C 0.17975 0.24409 0.06762 0.0
C1303 C 0.18533 0.23373 0.02381 0.0
C1304 C 0.18396 0.21848 0.0382 0.0
C1305 C 0.17702 0.21376 0.09576 0.0
C1306 C 0.17141 0.22455 0.13887 0.0
H1307 H 0.97482 0.91624 0.42431 0.0
H1308 H 0.96596 0.93453 0.23544 0.0
H1309 H 0.99313 0.93616 0.21507 0.0
H1310 H 0.00609 0.93931 0.45967 0.0
H1311 H 0.01619 0.92495 0.50185 0.0
H1312 H 0.99611 0.92458 0.50001 0.0
H1313 H 0.99676 0.89781 0.45313 0.0
H1314 H 0.01685 0.8981 0.45489 0.0
H1315 H 0.00721 0.89423 0.38086 0.0
H1316 H 0.02145 0.9362 0.21659 0.0
H1317 H 0.04847 0.93516 0.24079 0.0
H1318 H 0.03855 0.91731 0.42948 0.0
C1319 C 0.97858 0.92047 0.37842 0.0
C1320 C 0.96829 0.92519 0.33127 0.0
C1321 C 0.97366 0.93081 0.27214 0.0
C1322 C 0.98907 0.93177 0.26015 0.0
C1323 C 0.99893 0.9271 0.30787 0.0
C1324 C 0.99389 0.92158 0.36586 0.0
C1325 C 0.00675 0.91774 0.40999 0.0
C1326 C 0.00625 0.92721 0.4715 0.0
C1327 C 0.0069 0.90097 0.42561 0.0
C1328 C 0.01984 0.92202 0.36797 0.0
C1329 C 0.01513 0.92732 0.30909 0.0
C1330 C 0.02525 0.93205 0.26251 0.0
C1331 C 0.04058 0.93141 0.27664 0.0
C1332 C 0.04561 0.92616 0.33696 0.0
C1333 C 0.03505 0.92137 0.38291 0.0
H1334 H 0.34529 0.78363 0.68199 0.0
H1335 H 0.32661 0.79426 0.49547 0.0
H1336 H 0.32584 0.76739 0.46877 0.0
H1337 H 0.36853 0.75264 0.62864 0.0
H1338 H 0.36529 0.74186 0.70031 0.0
H1339 H 0.36488 0.76194 0.70367 0.0
H1340 H 0.3383 0.76102 0.75236 0.0
H1341 H 0.33863 0.74096 0.74922 0.0
H1342 H 0.32376 0.75108 0.71056 0.0
H1343 H 0.32575 0.73926 0.46504 0.0
H1344 H 0.32679 0.71204 0.48378 0.0
H1345 H 0.34626 0.71981 0.67138 0.0
C1346 C 0.34114 0.78031 0.63533 0.0
C1347 C 0.33601 0.79103 0.59074 0.0
C1348 C 0.33063 0.78624 0.53028 0.0
C1349 C 0.33015 0.77101 0.51469 0.0
C1350 C 0.33521 0.76072 0.55989 0.0
C1351 C 0.34067 0.76517 0.61885 0.0
C1352 C 0.34514 0.75186 0.65939 0.0
C1353 C 0.36196 0.75209 0.67383 0.0
C1354 C 0.3359 0.7512 0.72154 0.0
C1355 C 0.34114 0.73921 0.61439 0.0
C1356 C 0.33544 0.74455 0.55721 0.0
C1357 C 0.33035 0.73496 0.50933 0.0
C1358 C 0.33098 0.71952 0.52039 0.0
C1359 C 0.33673 0.71382 0.57871 0.0
C1360 C 0.34202 0.72383 0.62589 0.0
H1361 H 0.47076 0.09113 0.92589 0.0
H1362 H 0.46423 0.0748 0.73193 0.0
H1363 H 0.49154 0.07339 0.7172 0.0
H1364 H 0.50348 0.11383 0.89138 0.0
H1365 H 0.51241 0.10952 0.96662 0.0
H1366 H 0.49235 0.10966 0.96114 0.0
H1367 H 0.49151 0.08259 0.00449 0.0
H1368 H 0.51156 0.08234 0.00981 0.0
H1369 H 0.50198 0.06822 0.96406 0.0
H1370 H 0.51955 0.07276 0.72504 0.0
H1371 H 0.5463 0.07392 0.75358 0.0
H1372 H 0.53463 0.091 0.9418 0.0
C1373 C 0.47508 0.08739 0.88013 0.0
C1374 C 0.46537 0.08309 0.82998 0.0
C1375 C 0.47146 0.07818 0.77094 0.0
C1376 C 0.48696 0.07732 0.76215 0.0
C1377 C 0.49623 0.08147 0.81276 0.0
C1378 C 0.49053 0.0865 0.87046 0.0
C1379 C 0.50294 0.09013 0.91737 0.0
C1380 C 0.50278 0.10678 0.93515 0.0
C1381 C 0.50193 0.08022 0.97747 0.0
C1382 C 0.51649 0.08624 0.87721 0.0
C1383 C 0.51237 0.08125 0.81704 0.0
C1384 C 0.52291 0.07673 0.77189 0.0
C1385 C 0.53808 0.07739 0.78857 0.0
C1386 C 0.54255 0.08257 0.84979 0.0
C1387 C 0.53156 0.08705 0.89452 0.0
H1388 H 0.17904 0.78554 0.95744 0.0
H1389 H 0.16172 0.7943 0.7665 0.0
H1390 H 0.15864 0.76739 0.74852 0.0
H1391 H 0.19985 0.75268 0.91498 0.0
H1392 H 0.19581 0.74283 0.98831 0.0
H1393 H 0.19632 0.76291 0.98788 0.0
H1394 H 0.16951 0.76369 0.03419 0.0
H1395 H 0.16891 0.7436 0.03467 0.0
H1396 H 0.15471 0.75402 0.99295 0.0
H1397 H 0.15784 0.73992 0.74888 0.0
H1398 H 0.15967 0.71287 0.76729 0.0
H1399 H 0.17743 0.72103 0.95794 0.0
C1400 C 0.17454 0.78176 0.91205 0.0
C1401 C 0.1706 0.79204 0.8634 0.0
C1402 C 0.16482 0.78666 0.8045 0.0
C1403 C 0.163 0.77138 0.79379 0.0
C1404 C 0.16699 0.76154 0.8424 0.0
C1405 C 0.17265 0.76643 0.90037 0.0
C1406 C 0.17632 0.7533 0.94371 0.0
C1407 C 0.19307 0.75291 0.95964 0.0
C1408 C 0.16679 0.75368 0.00501 0.0
C1409 C 0.1719 0.74035 0.9007 0.0
C1410 C 0.16651 0.74544 0.84261 0.0
C1411 C 0.16198 0.73576 0.79424 0.0
C1412 C 0.16307 0.7204 0.80519 0.0
C1413 C 0.16864 0.71483 0.86407 0.0
C1414 C 0.17302 0.72497 0.91264 0.0
H1415 H 0.47266 0.91559 0.08716 0.0
H1416 H 0.46366 0.93688 0.27002 0.0
H1417 H 0.4908 0.9394 0.28907 0.0
H1418 H 0.50534 0.89495 0.13694 0.0
H1419 H 0.51489 0.89764 0.06174 0.0
H1420 H 0.49481 0.89713 0.06385 0.0
H1421 H 0.4938 0.92299 0.00847 0.0
H1422 H 0.51388 0.92359 0.00631 0.0
H1423 H 0.5036 0.93851 0.04385 0.0
H1424 H 0.51909 0.9399 0.28697 0.0
H1425 H 0.54613 0.93853 0.26338 0.0
H1426 H 0.53635 0.91727 0.08118 0.0
C1427 C 0.47639 0.92069 0.13145 0.0
C1428 C 0.46606 0.92599 0.17728 0.0
C1429 C 0.47139 0.93271 0.23435 0.0
C1430 C 0.48678 0.93419 0.24557 0.0
C1431 C 0.49667 0.92892 0.19917 0.0
C1432 C 0.49167 0.92231 0.14323 0.0
C1433 C 0.50456 0.91788 0.10032 0.0
C1434 C 0.50492 0.90089 0.09014 0.0
C1435 C 0.50392 0.92625 0.03594 0.0
C1436 C 0.51761 0.92305 0.1407 0.0
C1437 C 0.51285 0.92935 0.19766 0.0
C1438 C 0.52293 0.93497 0.24254 0.0
C1439 C 0.53826 0.93416 0.22876 0.0
C1440 C 0.54333 0.92781 0.17049 0.0
C1441 C 0.53282 0.92219 0.12614 0.0
H1442 H 0.34749 0.22269 0.31026 0.0
H1443 H 0.32741 0.21191 0.49398 0.0
H1444 H 0.32572 0.23873 0.51963 0.0
H1445 H 0.36929 0.25467 0.36592 0.0
H1446 H 0.36624 0.26523 0.29351 0.0
H1447 H 0.36655 0.24514 0.29067 0.0
H1448 H 0.34035 0.2451 0.23809 0.0
H1449 H 0.33996 0.26517 0.24085 0.0
H1450 H 0.32516 0.25456 0.27754 0.0
H1451 H 0.32494 0.26661 0.52319 0.0
H1452 H 0.32547 0.29381 0.50516 0.0
H1453 H 0.34641 0.28678 0.31989 0.0
C1454 C 0.34288 0.22598 0.35616 0.0
C1455 C 0.33761 0.21519 0.40025 0.0
C1456 C 0.33155 0.21995 0.45956 0.0
C1457 C 0.33055 0.23517 0.47458 0.0
C1458 C 0.33571 0.24551 0.42991 0.0
C1459 C 0.34182 0.24115 0.372 0.0
C1460 C 0.34614 0.25459 0.33178 0.0
C1461 C 0.36306 0.25492 0.31978 0.0
C1462 C 0.33738 0.25487 0.26832 0.0
C1463 C 0.34135 0.26717 0.37586 0.0
C1464 C 0.33539 0.26166 0.43224 0.0
C1465 C 0.3297 0.27106 0.47949 0.0
C1466 C 0.33003 0.2865 0.46877 0.0
C1467 C 0.33605 0.29242 0.41134 0.0
C1468 C 0.34189 0.28259 0.36458 0.0
H1469 H 0.97121 0.09264 0.58504 0.0
H1470 H 0.96209 0.07245 0.77016 0.0
H1471 H 0.98917 0.07024 0.79025 0.0
H1472 H 1.00282 0.07033 0.54497 0.0
H1473 H 0.01304 0.08531 0.50761 0.0
H1474 H 0.99295 0.08562 0.50818 0.0
H1475 H 0.99333 0.1116 0.56255 0.0
H1476 H 0.01343 0.1114 0.56194 0.0
H1477 H 1.00353 0.11411 0.63631 0.0
H1478 H 0.01711 0.06909 0.788 0.0
H1479 H 0.04417 0.0704 0.76648 0.0
H1480 H 0.03531 0.09221 0.58456 0.0
C1481 C 0.97492 0.08784 0.62997 0.0
C1482 C 0.96455 0.0827 0.67609 0.0
C1483 C 0.96983 0.07649 0.73427 0.0
C1484 C 0.98519 0.07516 0.74604 0.0
C1485 C 0.99512 0.08021 0.69938 0.0
C1486 C 0.99022 0.08655 0.64275 0.0
C1487 C 1.00325 0.09109 0.6006 0.0
C1488 C 1.003 0.08257 0.53656 0.0
C1489 C 1.00339 0.10806 0.58974 0.0
C1490 C 0.01623 0.0862 0.64218 0.0
C1491 C 0.01127 0.07989 0.6988 0.0
C1492 C 0.02113 0.07412 0.74408 0.0
C1493 C 0.03648 0.07487 0.73133 0.0
C1494 C 0.04183 0.08146 0.67402 0.0
C1495 C 0.03154 0.08722 0.62902 0.0
H1496 H 0.84633 0.72506 0.8279 0.0
H1497 H 0.81972 0.7147 0.99591 0.0
H1498 H 0.81729 0.7417 0.01914 0.0
H1499 H 0.86615 0.75661 0.89551 0.0
H1500 H 0.86595 0.76692 0.82129 0.0
H1501 H 0.86599 0.74683 0.81994 0.0
H1502 H 0.842 0.74698 0.75052 0.0
H1503 H 0.84187 0.76705 0.7517 0.0
H1504 H 0.82573 0.75682 0.77875 0.0
H1505 H 0.81711 0.77014 0.02106 0.0
H1506 H 0.81923 0.79732 0.00163 0.0
H1507 H 0.84603 0.78857 0.83245 0.0
C1508 C 0.84008 0.72844 0.86992 0.0
C1509 C 0.83324 0.71779 0.91025 0.0
C1510 C 0.82509 0.72268 0.9645 0.0
C1511 C 0.82365 0.73799 0.97803 0.0
C1512 C 0.83047 0.74821 0.93691 0.0
C1513 C 0.83855 0.7436 0.88403 0.0
C1514 C 0.84451 0.75675 0.84635 0.0
C1515 C 0.86167 0.75677 0.84577 0.0
C1516 C 0.83814 0.7569 0.77779 0.0
C1517 C 0.83842 0.76952 0.88587 0.0
C1518 C 0.83038 0.76441 0.93805 0.0
C1519 C 0.82345 0.77424 0.98054 0.0
C1520 C 0.82471 0.78965 0.96915 0.0
C1521 C 0.83283 0.79505 0.9157 0.0
C1522 C 0.83981 0.7848 0.87395 0.0
H1523 H 0.68019 0.22474 0.4616 0.0
H1524 H 0.66142 0.21593 0.27334 0.0
H1525 H 0.65792 0.24289 0.25636 0.0
H1526 H 0.65601 0.25584 0.50194 0.0
H1527 H 0.67048 0.26633 0.5416 0.0
H1528 H 0.67127 0.24625 0.5403 0.0
H1529 H 0.69762 0.24736 0.48945 0.0
H1530 H 0.69694 0.26743 0.49082 0.0
H1531 H 0.70039 0.25778 0.41644 0.0
H1532 H 0.65666 0.27051 0.25834 0.0
H1533 H 0.65858 0.29754 0.27746 0.0
H1534 H 0.67832 0.28906 0.46417 0.0
C1535 C 0.67532 0.22851 0.41692 0.0
C1536 C 0.67106 0.21822 0.36879 0.0
C1537 C 0.66478 0.22358 0.31086 0.0
C1538 C 0.6627 0.23888 0.3008 0.0
C1539 C 0.66697 0.24872 0.34908 0.0
C1540 C 0.6732 0.24381 0.40592 0.0
C1541 C 0.67714 0.25687 0.44911 0.0
C1542 C 0.66819 0.25628 0.51196 0.0
C1543 C 0.69402 0.25739 0.4622 0.0
C1544 C 0.67222 0.26985 0.4074 0.0
C1545 C 0.66631 0.26483 0.3501 0.0
C1546 C 0.66122 0.2746 0.30308 0.0
C1547 C 0.66235 0.28994 0.31446 0.0
C1548 C 0.66855 0.29542 0.37235 0.0
C1549 C 0.67342 0.28521 0.41968 0.0
H1550 H 0.8475 0.28681 0.15197 0.0
H1551 H 0.82135 0.29384 0.97941 0.0
H1552 H 0.81932 0.2666 0.96452 0.0
H1553 H 0.8676 0.25356 0.09637 0.0
H1554 H 0.86691 0.24466 0.17386 0.0
H1555 H 0.86727 0.26471 0.16831 0.0
H1556 H 0.84301 0.26616 0.23563 0.0
H1557 H 0.84254 0.24613 0.24114 0.0
H1558 H 0.8267 0.25608 0.2094 0.0
H1559 H 0.81888 0.23866 0.97155 0.0
H1560 H 0.82021 0.21193 0.99987 0.0
H1561 H 0.84647 0.22295 0.16828 0.0
C1562 C 0.84157 0.2826 0.11047 0.0
C1563 C 0.83466 0.29244 0.06657 0.0
C1564 C 0.82677 0.28651 0.01348 0.0
C1565 C 0.82557 0.27105 0.0046 0.0
C1566 C 0.8323 0.26165 0.04923 0.0
C1567 C 0.84018 0.26718 0.10105 0.0
C1568 C 0.84576 0.25464 0.14359 0.0
C1569 C 0.8629 0.25438 0.14562 0.0
C1570 C 0.8391 0.25583 0.21144 0.0
C1571 C 0.83963 0.24123 0.10799 0.0
C1572 C 0.83196 0.24552 0.05351 0.0
C1573 C 0.82494 0.23516 0.01383 0.0
C1574 C 0.82574 0.22 0.03034 0.0
C1575 C 0.83347 0.21535 0.08611 0.0
C1576 C 0.84055 0.22615 0.1251 0.0
H1577 H 0.68141 0.72173 0.55264 0.0
H1578 H 0.66474 0.71175 0.74342 0.0
H1579 H 0.66286 0.73866 0.76646 0.0
H1580 H 0.70361 0.75357 0.59738 0.0
H1581 H 0.69936 0.76403 0.5258 0.0
H1582 H 0.69935 0.74394 0.52371 0.0
H1583 H 0.67224 0.74412 0.48056 0.0
H1584 H 0.67217 0.76421 0.48245 0.0
H1585 H 0.65797 0.7539 0.52466 0.0
H1586 H 0.66292 0.76645 0.76965 0.0
H1587 H 0.66463 0.7936 0.75235 0.0
H1588 H 0.68115 0.78593 0.55935 0.0
C1589 C 0.67735 0.72522 0.5992 0.0
C1590 C 0.67322 0.71464 0.64628 0.0
C1591 C 0.66796 0.71965 0.70662 0.0
C1592 C 0.66686 0.73491 0.7202 0.0
C1593 C 0.67104 0.74506 0.67292 0.0
C1594 C 0.67616 0.74047 0.61359 0.0
C1595 C 0.67989 0.75375 0.5714 0.0
C1596 C 0.69654 0.75382 0.55354 0.0
C1597 C 0.66997 0.75401 0.51121 0.0
C1598 C 0.6761 0.76649 0.61641 0.0
C1599 C 0.67103 0.76119 0.6747 0.0
C1600 C 0.66687 0.77075 0.7242 0.0
C1601 C 0.66789 0.78616 0.7139 0.0
C1602 C 0.67302 0.79189 0.65455 0.0
C1603 C 0.67718 0.78188 0.60523 0.0
H1604 H 0.53635 0.41516 0.94347 0.0
H1605 H 0.54611 0.42821 0.74744 0.0
H1606 H 0.51919 0.42758 0.722 0.0
H1607 H 0.5053 0.39019 0.907 0.0
H1608 H 0.49471 0.39573 0.97652 0.0
H1609 H 0.5148 0.39637 0.97846 0.0
H1610 H 0.51382 0.42429 0.01024 0.0
H1611 H 0.49374 0.42374 0.00844 0.0
H1612 H 0.50365 0.43721 0.96043 0.0
H1613 H 0.49123 0.42657 0.71891 0.0
H1614 H 0.46409 0.42576 0.73888 0.0
H1615 H 0.47236 0.41351 0.93714 0.0
C1616 C 0.53283 0.41773 0.89502 0.0
C1617 C 0.54333 0.42167 0.84729 0.0
C1618 C 0.53827 0.42513 0.78468 0.0
C1619 C 0.52301 0.42477 0.76975 0.0
C1620 C 0.51294 0.42094 0.81797 0.0
C1621 C 0.51762 0.41749 0.87936 0.0
C1622 C 0.50444 0.41435 0.92299 0.0
C1623 C 0.50484 0.3982 0.94768 0.0
C1624 C 0.50389 0.42557 0.97881 0.0
C1625 C 0.49162 0.41673 0.87669 0.0
C1626 C 0.49678 0.42043 0.81627 0.0
C1627 C 0.48706 0.42358 0.76591 0.0
C1628 C 0.47166 0.42309 0.77772 0.0
C1629 C 0.4661 0.4195 0.83944 0.0
C1630 C 0.47626 0.41614 0.88929 0.0
H1631 H 0.97276 0.56884 0.34374 0.0
H1632 H 0.96505 0.61664 0.34337 0.0
H1633 H 0.99221 0.62103 0.33933 0.0
H1634 H 1.0046 0.56973 0.44605 0.0
H1635 H 0.01435 0.55494 0.40514 0.0
H1636 H 0.99427 0.55548 0.40418 0.0
H1637 H 0.99452 0.55502 0.27992 0.0
H1638 H 0.01462 0.5545 0.2805 0.0
H1639 H 0.00501 0.56895 0.2368 0.0
H1640 H 0.02007 0.62036 0.34002 0.0
H1641 H 0.04695 0.61465 0.34696 0.0
H1642 H 0.03689 0.56729 0.34699 0.0
C1643 C 0.9768 0.58022 0.34212 0.0
C1644 C 0.96679 0.59241 0.34358 0.0
C1645 C 0.97251 0.60714 0.34219 0.0
C1646 C 0.98792 0.60975 0.33976 0.0
C1647 C 0.99749 0.59751 0.33881 0.0
C1648 C 0.99219 0.58303 0.34 0.0
C1649 C 0.00494 0.57191 0.34123 0.0
C1650 C 1.00451 0.56246 0.40282 0.0
C1651 C 1.00476 0.56201 0.28102 0.0
C1652 C 0.01822 0.58241 0.34096 0.0
C1653 C 0.01364 0.59712 0.33931 0.0
C1654 C 0.0238 0.60888 0.34087 0.0
C1655 C 0.03905 0.60553 0.34483 0.0
C1656 C 0.04401 0.59054 0.34715 0.0
C1657 C 0.03343 0.57885 0.34455 0.0
H1658 H 0.96919 0.41398 0.55583 0.0
H1659 H 0.95999 0.43469 0.73982 0.0
H1660 H 0.98703 0.43634 0.76137 0.0
H1661 H 1.00124 0.39211 0.60857 0.0
H1662 H 0.01128 0.39471 0.53448 0.0
H1663 H 0.99117 0.39468 0.53451 0.0
H1664 H 0.99113 0.42064 0.47993 0.0
H1665 H 0.01122 0.42079 0.48002 0.0
H1666 H 1.00107 0.43586 0.51697 0.0
H1667 H 0.01503 0.43683 0.7609 0.0
H1668 H 0.04213 0.43519 0.74021 0.0
H1669 H 0.03323 0.4138 0.55741 0.0
C1670 C 0.97287 0.41872 0.60092 0.0
C1671 C 0.96248 0.42418 0.64625 0.0
C1672 C 0.96774 0.43039 0.7045 0.0
C1673 C 0.98308 0.4314 0.71715 0.0
C1674 C 0.99303 0.42608 0.67119 0.0
C1675 C 0.98816 0.41977 0.61443 0.0
C1676 C 1.00121 0.41511 0.57273 0.0
C1677 C 1.00122 0.39814 0.56196 0.0
C1678 C 1.00115 0.42361 0.50863 0.0
C1679 C 0.01417 0.4199 0.6147 0.0
C1680 C 0.0092 0.42622 0.67124 0.0
C1681 C 0.01906 0.43181 0.71699 0.0
C1682 C 0.03443 0.43087 0.70475 0.0
C1683 C 0.03978 0.42433 0.64736 0.0
C1684 C 0.02947 0.41878 0.6019 0.0
H1685 H 0.47207 0.57148 0.18324 0.0
H1686 H 0.46254 0.61642 0.11755 0.0
H1687 H 0.48941 0.62225 0.11894 0.0
H1688 H 0.50427 0.58109 0.28706 0.0
H1689 H 0.51453 0.56457 0.26503 0.0
H1690 H 0.49442 0.56427 0.26575 0.0
H1691 H 0.49428 0.55544 0.14745 0.0
H1692 H 0.51436 0.55572 0.14635 0.0
H1693 H 0.504 0.56627 0.08774 0.0
H1694 H 0.51695 0.62274 0.11807 0.0
H1695 H 0.54395 0.61781 0.11345 0.0
H1696 H 0.5364 0.57254 0.17967 0.0
C1697 C 0.47565 0.58263 0.17047 0.0
C1698 C 0.46522 0.59355 0.15075 0.0
C1699 C 0.47033 0.60791 0.13301 0.0
C1700 C 0.48557 0.61135 0.13385 0.0
C1701 C 0.49559 0.6003 0.15253 0.0
C1702 C 0.4909 0.58623 0.17059 0.0
C1703 C 0.50416 0.57614 0.18405 0.0
C1704 C 0.50436 0.57123 0.25468 0.0
C1705 C 0.5042 0.5626 0.13868 0.0
C1706 C 0.51699 0.58667 0.16941 0.0
C1707 C 0.51172 0.60058 0.1519 0.0
C1708 C 0.52124 0.61197 0.13249 0.0
C1709 C 0.53656 0.60904 0.12991 0.0
C1710 C 0.54227 0.59484 0.1467 0.0
C1711 C 0.53236 0.58358 0.16775 0.0
H1712 H 0.14104 0.13506 0.25417 0.0
H1713 H 0.16124 0.16923 0.37317 0.0
H1714 H 0.14737 0.15967 0.46729 0.0
H1715 H 0.10442 0.13678 0.32997 0.0
H1716 H 0.10118 0.11701 0.32244 0.0
H1717 H 0.1127 0.12653 0.26463 0.0
H1718 H 0.13435 0.10814 0.28773 0.0
H1719 H 0.12289 0.09854 0.34542 0.0
H1720 H 0.14084 0.10578 0.36897 0.0
H1721 H 0.13314 0.14502 0.54941 0.0
H1722 H 0.11774 0.12751 0.61301 0.0
H1723 H 0.10472 0.10452 0.43895 0.0
C1724 C 0.14252 0.14051 0.30014 0.0
C1725 C 0.15227 0.15277 0.30693 0.0
C1726 C 0.15381 0.1598 0.36732 0.0
C1727 C 0.146 0.15445 0.42087 0.0
C1728 C 0.13647 0.14231 0.41265 0.0
C1729 C 0.13453 0.13555 0.35365 0.0
C1730 C 0.12345 0.12281 0.35763 0.0
C1731 C 0.10962 0.12598 0.31621 0.0
C1732 C 0.13083 0.10794 0.33884 0.0
C1733 C 0.1197 0.12325 0.42843 0.0
C1734 C 0.12744 0.13451 0.45934 0.0
C1735 C 0.12678 0.13637 0.52561 0.0
C1736 C 0.11805 0.12641 0.56127 0.0
C1737 C 0.10988 0.11499 0.53037 0.0
C1738 C 0.11056 0.11349 0.46316 0.0
H1739 H 0.12616 0.91053 0.5479 0.0
H1740 H 0.08528 0.88479 0.53357 0.0
H1741 H 0.09448 0.8677 0.6179 0.0
H1742 H 0.15046 0.87956 0.56807 0.0
H1743 H 0.16266 0.88896 0.62366 0.0
H1744 H 0.15252 0.89955 0.56468 0.0
H1745 H 0.14102 0.91584 0.65473 0.0
H1746 H 0.15116 0.90532 0.71402 0.0
H1747 H 0.13117 0.90699 0.71983 0.0
H1748 H 0.10857 0.85298 0.70116 0.0
H1749 H 0.12653 0.84167 0.77696 0.0
H1750 H 0.15816 0.87707 0.73581 0.0
C1751 C 0.11907 0.90138 0.56294 0.0
C1752 C 0.10498 0.89899 0.53451 0.0
C1753 C 0.0961 0.88682 0.55493 0.0
C1754 C 0.10123 0.87708 0.60277 0.0
C1755 C 0.11524 0.87968 0.62948 0.0
C1756 C 0.12404 0.89154 0.61032 0.0
C1757 C 0.13887 0.8916 0.64501 0.0
C1758 C 0.15189 0.8898 0.59751 0.0
C1759 C 0.14065 0.90578 0.68583 0.0
C1760 C 0.13707 0.8779 0.68662 0.0
C1761 C 0.12336 0.87119 0.6771 0.0
C1762 C 0.11931 0.85818 0.70926 0.0
C1763 C 0.12957 0.85184 0.75214 0.0
C1764 C 0.14369 0.85853 0.76233 0.0
C1765 C 0.14741 0.87175 0.72927 0.0
H1766 H 0.38187 0.90386 0.99783 0.0
H1767 H 0.42264 0.87794 0.01117 0.0
H1768 H 0.41235 0.8597 0.93387 0.0
H1769 H 0.35641 0.87269 0.98517 0.0
H1770 H 0.34437 0.88201 0.9287 0.0
H1771 H 0.35482 0.89274 0.98636 0.0
H1772 H 0.36656 0.90823 0.89431 0.0
H1773 H 0.35613 0.89759 0.83641 0.0
H1774 H 0.37615 0.89877 0.83011 0.0
H1775 H 0.39778 0.84471 0.85262 0.0
H1776 H 0.3802 0.83426 0.77297 0.0
H1777 H 0.349 0.87004 0.81383 0.0
C1778 C 0.38861 0.8943 0.98478 0.0
C1779 C 0.40304 0.89228 0.01053 0.0
C1780 C 0.41155 0.87968 0.99203 0.0
C1781 C 0.40579 0.86927 0.94826 0.0
C1782 C 0.39152 0.87162 0.92363 0.0
C1783 C 0.38305 0.88384 0.94124 0.0
C1784 C 0.36818 0.884 0.90677 0.0
C1785 C 0.35518 0.88278 0.95461 0.0
C1786 C 0.36668 0.89798 0.86438 0.0
C1787 C 0.36963 0.87002 0.86667 0.0
C1788 C 0.38315 0.863 0.87714 0.0
C1789 C 0.38713 0.85006 0.84429 0.0
C1790 C 0.37708 0.84421 0.7992 0.0
C1791 C 0.36323 0.85131 0.78748 0.0
C1792 C 0.35946 0.86431 0.82212 0.0
H1793 H 0.41022 0.11049 0.06054 0.0
H1794 H 0.37914 0.11264 0.90133 0.0
H1795 H 0.36449 0.13178 0.95847 0.0
H1796 H 0.38221 0.11253 0.18102 0.0
H1797 H 0.39321 0.12341 0.23627 0.0
H1798 H 0.40229 0.1112 0.17999 0.0
H1799 H 0.41785 0.13344 0.13727 0.0
H1800 H 0.40871 0.14576 0.19319 0.0
H1801 H 0.40844 0.14991 0.10859 0.0
H1802 H 0.35286 0.14998 0.03257 0.0
H1803 H 0.34287 0.16376 0.12538 0.0
H1804 H 0.38026 0.14874 0.24097 0.0
C1805 C 0.40043 0.11517 0.03769 0.0
C1806 C 0.39581 0.11025 0.9765 0.0
C1807 C 0.3828 0.1163 0.94832 0.0
C1808 C 0.37449 0.12725 0.98011 0.0
C1809 C 0.37924 0.13187 0.04048 0.0
C1810 C 0.39175 0.12588 0.0696 0.0
C1811 C 0.39348 0.13176 0.13745 0.0
C1812 C 0.39275 0.11896 0.18657 0.0
C1813 C 0.40798 0.14075 0.14451 0.0
C1814 C 0.37989 0.14179 0.14196 0.0
C1815 C 0.37205 0.14193 0.0849 0.0
C1816 C 0.35891 0.15003 0.0775 0.0
C1817 C 0.35335 0.15786 0.13045 0.0
C1818 C 0.3608 0.15734 0.19029 0.0
C1819 C 0.3744 0.14944 0.19563 0.0
H1820 H 0.88562 0.90791 0.52635 0.0
H1821 H 0.92324 0.87817 0.498 0.0
H1822 H 0.91274 0.86084 0.57875 0.0
H1823 H 0.88253 0.90283 0.69622 0.0
H1824 H 0.86243 0.90367 0.69624 0.0
H1825 H 0.87288 0.91351 0.6358 0.0
H1826 H 0.85813 0.8997 0.54675 0.0
H1827 H 0.84764 0.88982 0.60692 0.0
H1828 H 0.8577 0.8796 0.54633 0.0
H1829 H 0.8979 0.84678 0.66292 0.0
H1830 H 0.88011 0.8373 0.74411 0.0
H1831 H 0.85258 0.87661 0.7169 0.0
C1832 C 0.89165 0.89773 0.53696 0.0
C1833 C 0.90522 0.89434 0.50591 0.0
C1834 C 0.91281 0.88096 0.52128 0.0
C1835 C 0.90693 0.87106 0.56701 0.0
C1836 C 0.89351 0.87477 0.59685 0.0
C1837 C 0.88599 0.8878 0.58244 0.0
C1838 C 0.87184 0.8893 0.62146 0.0
C1839 C 0.87247 0.90315 0.66501 0.0
C1840 C 0.85801 0.88962 0.57775 0.0
C1841 C 0.87254 0.87507 0.66015 0.0
C1842 C 0.88509 0.8668 0.64531 0.0
C1843 C 0.88805 0.85318 0.67495 0.0
C1844 C 0.8779 0.84788 0.72094 0.0
C1845 C 0.865 0.85624 0.73679 0.0
C1846 C 0.86236 0.86999 0.70589 0.0
H1847 H 0.85211 0.13155 0.28166 0.0
H1848 H 0.87886 0.17183 0.2705 0.0
H1849 H 0.89674 0.16108 0.34815 0.0
H1850 H 0.85682 0.12541 0.44956 0.0
H1851 H 0.85764 0.10539 0.44244 0.0
H1852 H 0.84726 0.11613 0.38473 0.0
H1853 H 0.86267 0.10432 0.29257 0.0
H1854 H 0.87313 0.09356 0.35004 0.0
H1855 H 0.88275 0.10555 0.29429 0.0
H1856 H 0.91138 0.14605 0.42882 0.0
H1857 H 0.92147 0.12807 0.50761 0.0
H1858 H 0.88506 0.0977 0.46523 0.0
C1859 C 0.86176 0.1381 0.29535 0.0
C1860 C 0.86414 0.15251 0.27008 0.0
C1861 C 0.87685 0.16075 0.28933 0.0
C1862 C 0.88707 0.15473 0.33328 0.0
C1863 C 0.88439 0.14047 0.35735 0.0
C1864 C 0.87204 0.13227 0.3391 0.0
C1865 C 0.87154 0.11735 0.37292 0.0
C1866 C 0.85749 0.116 0.41491 0.0
C1867 C 0.87259 0.10443 0.32456 0.0
C1868 C 0.88551 0.11845 0.4134 0.0
C1869 C 0.89279 0.13185 0.40362 0.0
C1870 C 0.90581 0.1355 0.43667 0.0
C1871 C 0.91145 0.12523 0.48127 0.0
C1872 C 0.90406 0.1115 0.49233 0.0
C1873 C 0.89099 0.10807 0.45751 0.0
H1874 H 0.66014 0.13658 0.22555 0.0
H1875 H 0.62611 0.16666 0.2978 0.0
H1876 H 0.60766 0.15533 0.22462 0.0
H1877 H 0.64817 0.13732 0.06093 0.0
H1878 H 0.6523 0.11792 0.04686 0.0
H1879 H 0.66278 0.12824 0.10573 0.0
H1880 H 0.65581 0.10868 0.19229 0.0
H1881 H 0.64528 0.09832 0.13369 0.0
H1882 H 0.63643 0.10443 0.20676 0.0
H1883 H 0.59288 0.14067 0.14427 0.0
H1884 H 0.58296 0.12408 0.05966 0.0
H1885 H 0.62672 0.10392 0.03846 0.0
C1886 C 0.64879 0.14075 0.22602 0.0
C1887 C 0.64452 0.15246 0.26738 0.0
C1888 C 0.62961 0.15769 0.26645 0.0
C1889 C 0.61905 0.15132 0.22514 0.0
C1890 C 0.6236 0.13978 0.18496 0.0
C1891 C 0.63813 0.13458 0.18483 0.0
C1892 C 0.64016 0.1222 0.1362 0.0
C1893 C 0.65152 0.1267 0.08436 0.0
C1894 C 0.64469 0.10754 0.16923 0.0
C1895 C 0.62452 0.12128 0.10907 0.0
C1896 C 0.61513 0.13147 0.13802 0.0
C1897 C 0.60013 0.13265 0.12115 0.0
C1898 C 0.59459 0.12319 0.07316 0.0
C1899 C 0.60407 0.11276 0.04256 0.0
C1900 C 0.61921 0.11181 0.06096 0.0
H1901 H 0.66083 0.87474 0.79437 0.0
H1902 H 0.62617 0.84519 0.7236 0.0
H1903 H 0.60777 0.8577 0.7933 0.0
H1904 H 0.64815 0.8755 0.95773 0.0
H1905 H 0.65285 0.89484 0.96999 0.0
H1906 H 0.66322 0.88385 0.91308 0.0
H1907 H 0.65722 0.9031 0.82401 0.0
H1908 H 0.64676 0.91412 0.88061 0.0
H1909 H 0.63805 0.90785 0.8075 0.0
H1910 H 0.59318 0.87329 0.8701 0.0
H1911 H 0.5835 0.89018 0.95377 0.0
H1912 H 0.62769 0.90931 0.97681 0.0
C1913 C 0.64936 0.87094 0.79348 0.0
C1914 C 0.64489 0.85903 0.75351 0.0
C1915 C 0.62982 0.85429 0.75392 0.0
C1916 C 0.61928 0.86135 0.79317 0.0
C1917 C 0.62403 0.87308 0.83188 0.0
C1918 C 0.63871 0.8778 0.83274 0.0
C1919 C 0.64093 0.8904 0.88023 0.0
C1920 C 0.65193 0.88587 0.93341 0.0
C1921 C 0.64604 0.90472 0.84602 0.0
C1922 C 0.62521 0.89198 0.90602 0.0
C1923 C 0.61562 0.88195 0.8771 0.0
C1924 C 0.60056 0.8812 0.89312 0.0
C1925 C 0.59516 0.89086 0.94058 0.0
C1926 C 0.60484 0.90105 0.97167 0.0
C1927 C 0.62003 0.90166 0.95372 0.0
H1928 H 0.62783 0.59972 0.96239 0.0
H1929 H 0.58282 0.61024 0.90027 0.0
H1930 H 0.593 0.62548 0.8119 0.0
H1931 H 0.64317 0.63499 0.93566 0.0
H1932 H 0.66095 0.62841 0.90689 0.0
H1933 H 0.65026 0.61717 0.9617 0.0
H1934 H 0.65085 0.59507 0.8816 0.0
H1935 H 0.66172 0.60619 0.82678 0.0
H1936 H 0.64447 0.59785 0.80046 0.0
H1937 H 0.60792 0.64149 0.73763 0.0
H1938 H 0.62672 0.65568 0.67626 0.0
H1939 H 0.66208 0.63426 0.78471 0.0
C1940 C 0.62013 0.60498 0.92938 0.0
C1941 C 0.60454 0.60378 0.93796 0.0
C1942 C 0.5948 0.61095 0.89429 0.0
C1943 C 0.60047 0.61966 0.84408 0.0
C1944 C 0.61589 0.62094 0.83797 0.0
C1945 C 0.6256 0.61364 0.87883 0.0
C1946 C 0.64169 0.61731 0.86315 0.0
C1947 C 0.64947 0.62492 0.92025 0.0
C1948 C 0.65018 0.60327 0.84171 0.0
C1949 C 0.63949 0.62805 0.80796 0.0
C1950 C 0.62453 0.62999 0.79424 0.0
C1951 C 0.61968 0.63991 0.74729 0.0
C1952 C 0.63042 0.64798 0.71298 0.0
C1953 C 0.64582 0.646 0.72566 0.0
C1954 C 0.65037 0.63588 0.77367 0.0
H1955 H 0.64597 0.35238 0.19568 0.0
H1956 H 0.65176 0.3871 0.33849 0.0
H1957 H 0.634 0.40315 0.27979 0.0
H1958 H 0.64512 0.37729 0.06129 0.0
H1959 H 0.63159 0.36653 0.01708 0.0
H1960 H 0.64391 0.35739 0.07284 0.0
H1961 H 0.62104 0.34631 0.1322 0.0
H1962 H 0.60864 0.35557 0.07698 0.0
H1963 H 0.60674 0.35864 0.16204 0.0
H1964 H 0.61562 0.41529 0.20679 0.0
H1965 H 0.60053 0.42435 0.11586 0.0
H1966 H 0.60786 0.38248 0.01613 0.0
C1967 C 0.64342 0.36335 0.21455 0.0
C1968 C 0.65012 0.36853 0.27165 0.0
C1969 C 0.64675 0.38299 0.29463 0.0
C1970 C 0.63659 0.39211 0.26197 0.0
C1971 C 0.63008 0.38666 0.20602 0.0
C1972 C 0.63354 0.37274 0.18177 0.0
C1973 C 0.62582 0.37005 0.11812 0.0
C1974 C 0.6373 0.36768 0.06415 0.0
C1975 C 0.61491 0.35686 0.12264 0.0
C1976 C 0.61757 0.38469 0.11026 0.0
C1977 C 0.61996 0.39397 0.16218 0.0
C1978 C 0.61366 0.40814 0.16582 0.0
C1979 C 0.60505 0.41315 0.11408 0.0
C1980 C 0.60303 0.4041 0.05907 0.0
C1981 C 0.60916 0.38959 0.05777 0.0
H1982 H 0.90288 0.38427 0.46213 0.0
H1983 H 0.89133 0.42919 0.40217 0.0
H1984 H 0.87726 0.41905 0.31076 0.0
H1985 H 0.90618 0.36818 0.29861 0.0
H1986 H 0.89786 0.35069 0.32185 0.0
H1987 H 0.90836 0.36139 0.37948 0.0
H1988 H 0.88562 0.36134 0.45615 0.0
H1989 H 0.87503 0.35072 0.39868 0.0
H1990 H 0.86791 0.36826 0.42792 0.0
H1991 H 0.8628 0.40459 0.23277 0.0
H1992 H 0.84892 0.38625 0.16858 0.0
H1993 H 0.86951 0.35018 0.27578 0.0
C1994 C 0.89763 0.39193 0.42888 0.0
C1995 C 0.89823 0.40751 0.43897 0.0
C1996 C 0.89101 0.41722 0.39529 0.0
C1997 C 0.88303 0.41157 0.34312 0.0
C1998 C 0.88237 0.39619 0.33515 0.0
C1999 C 0.8895 0.38645 0.37638 0.0
C2000 C 0.88617 0.37036 0.35843 0.0
C2001 C 0.9005 0.36217 0.33839 0.0
C2002 C 0.87821 0.36219 0.41358 0.0
C2003 C 0.87583 0.37266 0.3016 0.0
C2004 C 0.8739 0.38768 0.28911 0.0
C2005 C 0.86434 0.39279 0.24144 0.0
C2006 C 0.85645 0.38228 0.20546 0.0
C2007 C 0.85818 0.36681 0.21711 0.0
C2008 C 0.86812 0.36193 0.26544 0.0
H2009 H 0.85184 0.63584 0.70371 0.0
H2010 H 0.87761 0.67679 0.71185 0.0
H2011 H 0.89491 0.66676 0.63004 0.0
H2012 H 0.88254 0.61092 0.68591 0.0
H2013 H 0.87294 0.59866 0.63118 0.0
H2014 H 0.86251 0.60919 0.68949 0.0
H2015 H 0.84637 0.62062 0.59875 0.0
H2016 H 0.8567 0.61008 0.54015 0.0
H2017 H 0.85537 0.63007 0.53293 0.0
H2018 H 0.90978 0.65183 0.54974 0.0
H2019 H 0.92051 0.63356 0.47369 0.0
H2020 H 0.88455 0.60275 0.51727 0.0
C2021 C 0.8611 0.64273 0.68812 0.0
C2022 C 0.86343 0.65707 0.71402 0.0
C2023 C 0.87563 0.66577 0.69241 0.0
C2024 C 0.88551 0.66016 0.64612 0.0
C2025 C 0.88294 0.6459 0.62184 0.0
C2026 C 0.87098 0.63735 0.64182 0.0
C2027 C 0.87066 0.6224 0.60823 0.0
C2028 C 0.87226 0.60954 0.65659 0.0
C2029 C 0.85643 0.6207 0.5676 0.0
C2030 C 0.88437 0.62383 0.56645 0.0
C2031 C 0.89134 0.63744 0.57507 0.0
C2032 C 0.90438 0.64117 0.54234 0.0
C2033 C 0.9104 0.63073 0.4994 0.0
C2034 C 0.90332 0.6168 0.48955 0.0
C2035 C 0.89016 0.61336 0.52361 0.0
H2036 H 0.37099 0.34981 0.20912 0.0
H2037 H 0.348 0.38633 0.30391 0.0
H2038 H 0.36165 0.40436 0.23736 0.0
H2039 H 0.407 0.369 0.18921 0.0
H2040 H 0.41038 0.3612 0.11085 0.0
H2041 H 0.39959 0.35091 0.16889 0.0
H2042 H 0.37776 0.34896 0.0879 0.0
H2043 H 0.38848 0.35921 0.02966 0.0
H2044 H 0.37023 0.36573 0.05284 0.0
H2045 H 0.37628 0.41839 0.15847 0.0
H2046 H 0.39121 0.42797 0.06846 0.0
H2047 H 0.40525 0.38287 0.02219 0.0
C2048 C 0.369 0.36161 0.21621 0.0
C2049 C 0.35846 0.36668 0.26176 0.0
C2050 C 0.356 0.38219 0.26926 0.0
C2051 C 0.36374 0.39254 0.23187 0.0
C2052 C 0.37393 0.38723 0.18708 0.0
C2053 C 0.37662 0.37218 0.17881 0.0
C2054 C 0.38768 0.3696 0.12472 0.0
C2055 C 0.40202 0.36225 0.14995 0.0
C2056 C 0.38061 0.36033 0.07058 0.0
C2057 C 0.39054 0.38556 0.10353 0.0
C2058 C 0.38253 0.39549 0.14069 0.0
C2059 C 0.38273 0.41077 0.12929 0.0
C2060 C 0.39121 0.41609 0.07795 0.0
C2061 C 0.39941 0.40617 0.03859 0.0
C2062 C 0.39922 0.39071 0.05207 0.0
H2063 H 0.40607 0.62134 0.96627 0.0
H2064 H 0.37367 0.58706 0.01424 0.0
H2065 H 0.356 0.59782 0.93673 0.0
H2066 H 0.37927 0.65135 0.94718 0.0
H2067 H 0.38892 0.65979 0.88059 0.0
H2068 H 0.39923 0.6495 0.94014 0.0
H2069 H 0.41029 0.63261 0.85122 0.0
H2070 H 0.40002 0.64285 0.79139 0.0
H2071 H 0.39788 0.62291 0.7974 0.0
H2072 H 0.34211 0.61151 0.85382 0.0
H2073 H 0.33221 0.628 0.76983 0.0
H2074 H 0.37301 0.65414 0.77502 0.0
C2075 C 0.39524 0.61614 0.9604 0.0
C2076 C 0.39122 0.60336 0.9962 0.0
C2077 C 0.37697 0.59686 0.98739 0.0
C2078 C 0.36685 0.60288 0.94347 0.0
C2079 C 0.37112 0.61544 0.90892 0.0
C2080 C 0.38492 0.62207 0.91681 0.0
C2081 C 0.38656 0.63554 0.87324 0.0
C2082 C 0.38861 0.64989 0.91265 0.0
C2083 C 0.39945 0.63334 0.82548 0.0
C2084 C 0.37156 0.63533 0.83953 0.0
C2085 C 0.3629 0.6236 0.86101 0.0
C2086 C 0.34874 0.62078 0.83668 0.0
C2087 C 0.34323 0.63021 0.78889 0.0
C2088 C 0.35183 0.64235 0.76602 0.0
C2089 C 0.36617 0.64498 0.79191 0.0
H2090 H 0.16093 0.63669 0.70035 0.0
H2091 H 0.12457 0.65611 0.80963 0.0
H2092 H 0.1064 0.64224 0.7435 0.0
H2093 H 0.14253 0.63795 0.54698 0.0
H2094 H 0.15031 0.62051 0.51996 0.0
H2095 H 0.16041 0.63183 0.57655 0.0
H2096 H 0.1617 0.60945 0.65507 0.0
H2097 H 0.1515 0.59808 0.59888 0.0
H2098 H 0.14468 0.60036 0.67964 0.0
H2099 H 0.09222 0.62608 0.66638 0.0
H2100 H 0.08295 0.60984 0.57926 0.0
H2101 H 0.12855 0.60133 0.5193 0.0
C2102 C 0.14914 0.63803 0.71028 0.0
C2103 C 0.14414 0.64744 0.7601 0.0
C2104 C 0.12863 0.64897 0.77157 0.0
C2105 C 0.11824 0.6411 0.73444 0.0
C2106 C 0.12354 0.63183 0.68596 0.0
C2107 C 0.13861 0.63033 0.67346 0.0
C2108 C 0.14135 0.61987 0.61772 0.0
C2109 C 0.1491 0.62803 0.56201 0.0
C2110 C 0.15034 0.60612 0.63914 0.0
C2111 C 0.12546 0.61572 0.6008 0.0
C2112 C 0.11536 0.62266 0.64099 0.0
C2113 C 0.10002 0.62059 0.63456 0.0
C2114 C 0.09487 0.61132 0.58512 0.0
C2115 C 0.10503 0.60434 0.54269 0.0
C2116 C 0.12052 0.6065 0.55113 0.0
H2117 H 0.15949 0.37302 0.28299 0.0
H2118 H 0.1329 0.33286 0.26155 0.0
H2119 H 0.11468 0.34263 0.3398 0.0
H2120 H 0.15326 0.37735 0.45458 0.0
H2121 H 0.15255 0.39742 0.4504 0.0
H2122 H 0.16361 0.38711 0.39347 0.0
H2123 H 0.1494 0.39981 0.29998 0.0
H2124 H 0.13823 0.41008 0.3566 0.0
H2125 H 0.12933 0.3986 0.29683 0.0
H2126 H 0.09867 0.35736 0.41553 0.0
H2127 H 0.0869 0.37527 0.4902 0.0
H2128 H 0.12445 0.40532 0.4659 0.0
C2129 C 0.14988 0.36625 0.29515 0.0
C2130 C 0.14757 0.3522 0.26624 0.0
C2131 C 0.1349 0.34364 0.28334 0.0
C2132 C 0.12447 0.34911 0.32757 0.0
C2133 C 0.12698 0.36308 0.35469 0.0
C2134 C 0.13945 0.37147 0.33975 0.0
C2135 C 0.13953 0.3861 0.37601 0.0
C2136 C 0.15304 0.38704 0.42131 0.0
C2137 C 0.13909 0.39943 0.32957 0.0
C2138 C 0.12507 0.38469 0.41311 0.0
C2139 C 0.11796 0.37137 0.39983 0.0
C2140 C 0.10419 0.36777 0.42679 0.0
C2141 C 0.09757 0.37802 0.46891 0.0
C2142 C 0.10481 0.3916 0.48397 0.0
C2143 C 0.11873 0.39494 0.45564 0.0
loop_
_geom_bond_atom_site_label_1
_geom_bond_atom_site_label_2
_geom_bond_distance
_geom_bond_site_symmetry_2
_ccdc_geom_bond_type
In0 O1 2.294 . S
In0 O2 2.326 . S
In0 O6 2.266 . S
In0 O7 2.326 . S
In0 O8 2.266 . S
In0 O9 2.326 . S
In0 O11 2.294 . S
In0 O12 2.326 . S
O1 In0 2.294 . S
O1 C10 1.240 . S
O2 In0 2.326 . S
O2 C10 1.252 . S
C3 O6 1.252 . S
C3 O7 1.260 . S
C4 O11 1.240 . S
C4 O12 1.252 . S
C5 O8 1.252 . S
C5 O9 1.260 . S
O6 In0 2.266 . S
O6 C3 1.252 . S
O7 In0 2.326 . S
O7 C3 1.260 . S
O8 In0 2.266 . S
O8 C5 1.252 . S
O9 In0 2.326 . S
O9 C5 1.260 . S
C10 O1 1.240 . S
C10 O2 1.252 . S
O11 In0 2.294 . S
O11 C4 1.240 . S
O12 In0 2.326 . S
O12 C4 1.252 . S
In13 O14 2.294 . S
In13 O15 2.326 . S
In13 O19 2.266 . S
In13 O20 2.326 . S
In13 O21 2.266 . S
In13 O22 2.326 . S
In13 O24 2.294 . S
In13 O25 2.326 . S
O14 In13 2.294 . S
O14 C23 1.240 . S
O15 In13 2.326 . S
O15 C23 1.252 . S
C16 O19 1.252 . S
C16 O20 1.260 . S
C17 O24 1.240 . S
C17 O25 1.252 . S
C18 O21 1.252 . S
C18 O22 1.260 . S
O19 In13 2.266 . S
O19 C16 1.252 . S
O20 In13 2.326 . S
O20 C16 1.260 . S
O21 In13 2.266 . S
O21 C18 1.252 . S
O22 In13 2.326 . S
O22 C18 1.260 . S
C23 O14 1.240 . S
C23 O15 1.252 . S
O24 In13 2.294 . S
O24 C17 1.240 . S
O25 In13 2.326 . S
O25 C17 1.252 . S
In26 O27 2.294 . S
In26 O28 2.326 . S
In26 O32 2.266 . S
In26 O33 2.326 . S
In26 O34 2.266 . S
In26 O35 2.326 . S
In26 O37 2.294 . S
In26 O38 2.326 . S
O27 In26 2.294 . S
O27 C36 1.240 . S
O28 In26 2.326 . S
O28 C36 1.252 . S
C29 O32 1.252 . S
C29 O33 1.260 . S
C30 O37 1.240 . S
C30 O38 1.252 . S
C31 O34 1.252 . S
C31 O35 1.260 . S
O32 In26 2.266 . S
O32 C29 1.252 . S
O33 In26 2.326 . S
O33 C29 1.260 . S
O34 In26 2.266 . S
O34 C31 1.252 . S
O35 In26 2.326 . S
O35 C31 1.260 . S
C36 O27 1.240 . S
C36 O28 1.252 . S
O37 In26 2.294 . S
O37 C30 1.240 . S
O38 In26 2.326 . S
O38 C30 1.252 . S
In39 O40 2.294 . S
In39 O41 2.326 . S
In39 O45 2.266 . S
In39 O46 2.326 . S
In39 O47 2.266 . S
In39 O48 2.326 . S
In39 O50 2.294 . S
In39 O51 2.326 . S
O40 In39 2.294 . S
O40 C49 1.240 . S
O41 In39 2.326 . S
O41 C49 1.252 . S
C42 O45 1.252 . S
C42 O46 1.260 . S
C43 O50 1.240 . S
C43 O51 1.252 . S
C44 O47 1.252 . S
C44 O48 1.260 . S
O45 In39 2.266 . S
O45 C42 1.252 . S
O46 In39 2.326 . S
O46 C42 1.260 . S
O47 In39 2.266 . S
O47 C44 1.252 . S
O48 In39 2.326 . S
O48 C44 1.260 . S
C49 O40 1.240 . S
C49 O41 1.252 . S
O50 In39 2.294 . S
O50 C43 1.240 . S
O51 In39 2.326 . S
O51 C43 1.252 . S
In52 O53 2.294 . S
In52 O54 2.326 . S
In52 O58 2.266 . S
In52 O59 2.326 . S
In52 O60 2.266 . S
In52 O61 2.326 . S
In52 O63 2.294 . S
In52 O64 2.326 . S
O53 In52 2.294 . S
O53 C62 1.240 . S
O54 In52 2.326 . S
O54 C62 1.252 . S
C55 O58 1.252 . S
C55 O59 1.260 . S
C56 O63 1.240 . S
C56 O64 1.252 . S
C57 O60 1.252 . S
C57 O61 1.260 . S
O58 In52 2.266 . S
O58 C55 1.252 . S
O59 In52 2.326 . S
O59 C55 1.260 . S
O60 In52 2.266 . S
O60 C57 1.252 . S
O61 In52 2.326 . S
O61 C57 1.260 . S
C62 O53 1.240 . S
C62 O54 1.252 . S
O63 In52 2.294 . S
O63 C56 1.240 . S
O64 In52 2.326 . S
O64 C56 1.252 . S
In65 O66 2.294 . S
In65 O67 2.326 . S
In65 O71 2.266 . S
In65 O72 2.326 . S
In65 O73 2.266 . S
In65 O74 2.326 . S
In65 O76 2.294 . S
In65 O77 2.326 . S
O66 In65 2.294 . S
O66 C75 1.240 . S
O67 In65 2.326 . S
O67 C75 1.252 . S
C68 O71 1.252 . S
C68 O72 1.260 . S
C69 O76 1.240 . S
C69 O77 1.252 . S
C70 O73 1.252 . S
C70 O74 1.260 . S
O71 In65 2.266 . S
O71 C68 1.252 . S
O72 In65 2.326 . S
O72 C68 1.260 . S
O73 In65 2.266 . S
O73 C70 1.252 . S
O74 In65 2.326 . S
O74 C70 1.260 . S
C75 O66 1.240 . S
C75 O67 1.252 . S
O76 In65 2.294 . S
O76 C69 1.240 . S
O77 In65 2.326 . S
O77 C69 1.252 . S
In78 O79 2.294 . S
In78 O80 2.326 . S
In78 O84 2.266 . S
In78 O85 2.326 . S
In78 O86 2.266 . S
In78 O87 2.326 . S
In78 O89 2.294 . S
In78 O90 2.326 . S
O79 In78 2.294 . S
O79 C88 1.240 . S
O80 In78 2.326 . S
O80 C88 1.252 . S
C81 O84 1.252 . S
C81 O85 1.260 . S
C82 O89 1.240 . S
C82 O90 1.252 . S
C83 O86 1.252 . S
C83 O87 1.260 . S
O84 In78 2.266 . S
O84 C81 1.252 . S
O85 In78 2.326 . S
O85 C81 1.260 . S
O86 In78 2.266 . S
O86 C83 1.252 . S
O87 In78 2.326 . S
O87 C83 1.260 . S
C88 O79 1.240 . S
C88 O80 1.252 . S
O89 In78 2.294 . S
O89 C82 1.240 . S
O90 In78 2.326 . S
O90 C82 1.252 . S
In91 O92 2.294 . S
In91 O93 2.326 . S
In91 O97 2.266 . S
In91 O98 2.326 . S
In91 O99 2.266 . S
In91 O100 2.326 . S
In91 O102 2.294 . S
In91 O103 2.326 . S
O92 In91 2.294 . S
O92 C101 1.240 . S
O93 In91 2.326 . S
O93 C101 1.252 . S
C94 O97 1.252 . S
C94 O98 1.260 . S
C95 O102 1.240 . S
C95 O103 1.252 . S
C96 O99 1.252 . S
C96 O100 1.260 . S
O97 In91 2.266 . S
O97 C94 1.252 . S
O98 In91 2.326 . S
O98 C94 1.260 . S
O99 In91 2.266 . S
O99 C96 1.252 . S
O100 In91 2.326 . S
O100 C96 1.260 . S
C101 O92 1.240 . S
C101 O93 1.252 . S
O102 In91 2.294 . S
O102 C95 1.240 . S
O103 In91 2.326 . S
O103 C95 1.252 . S
In104 O105 2.294 . S
In104 O106 2.326 . S
In104 O110 2.266 . S
In104 O111 2.326 . S
In104 O112 2.266 . S
In104 O113 2.326 . S
In104 O115 2.294 . S
In104 O116 2.326 . S
O105 In104 2.294 . S
O105 C114 1.240 . S
O106 In104 2.326 . S
O106 C114 1.252 . S
C107 O110 1.252 . S
C107 O111 1.260 . S
C108 O115 1.240 . S
C108 O116 1.252 . S
C109 O112 1.252 . S
C109 O113 1.260 . S
O110 In104 2.266 . S
O110 C107 1.252 . S
O111 In104 2.326 . S
O111 C107 1.260 . S
O112 In104 2.266 . S
O112 C109 1.252 . S
O113 In104 2.326 . S
O113 C109 1.260 . S
C114 O105 1.240 . S
C114 O106 1.252 . S
O115 In104 2.294 . S
O115 C108 1.240 . S
O116 In104 2.326 . S
O116 C108 1.252 . S
In117 O118 2.294 . S
In117 O119 2.326 . S
In117 O123 2.266 . S
In117 O124 2.326 . S
In117 O125 2.266 . S
In117 O126 2.326 . S
In117 O128 2.294 . S
In117 O129 2.326 . S
O118 In117 2.294 . S
O118 C127 1.240 . S
O119 In117 2.326 . S
O119 C127 1.252 . S
C120 O123 1.252 . S
C120 O124 1.260 . S
C121 O128 1.240 . S
C121 O129 1.252 . S
C122 O125 1.252 . S
C122 O126 1.260 . S
O123 In117 2.266 . S
O123 C120 1.252 . S
O124 In117 2.326 . S
O124 C120 1.260 . S
O125 In117 2.266 . S
O125 C122 1.252 . S
O126 In117 2.326 . S
O126 C122 1.260 . S
C127 O118 1.240 . S
C127 O119 1.252 . S
O128 In117 2.294 . S
O128 C121 1.240 . S
O129 In117 2.326 . S
O129 C121 1.252 . S
In130 O131 2.294 . S
In130 O132 2.326 . S
In130 O136 2.266 . S
In130 O137 2.326 . S
In130 O138 2.266 . S
In130 O139 2.326 . S
In130 O141 2.294 . S
In130 O142 2.326 . S
O131 In130 2.294 . S
O131 C140 1.240 . S
O132 In130 2.326 . S
O132 C140 1.252 . S
C133 O136 1.252 . S
C133 O137 1.260 . S
C134 O141 1.240 . S
C134 O142 1.252 . S
C135 O138 1.252 . S
C135 O139 1.260 . S
O136 In130 2.266 . S
O136 C133 1.252 . S
O137 In130 2.326 . S
O137 C133 1.260 . S
O138 In130 2.266 . S
O138 C135 1.252 . S
O139 In130 2.326 . S
O139 C135 1.260 . S
C140 O131 1.240 . S
C140 O132 1.252 . S
O141 In130 2.294 . S
O141 C134 1.240 . S
O142 In130 2.326 . S
O142 C134 1.252 . S
In143 O144 2.294 . S
In143 O145 2.326 . S
In143 O149 2.266 . S
In143 O150 2.326 . S
In143 O151 2.266 . S
In143 O152 2.326 . S
In143 O154 2.294 . S
In143 O155 2.326 . S
O144 In143 2.294 . S
O144 C153 1.240 . S
O145 In143 2.326 . S
O145 C153 1.252 . S
C146 O149 1.252 . S
C146 O150 1.260 . S
C147 O154 1.240 . S
C147 O155 1.252 . S
C148 O151 1.252 . S
C148 O152 1.260 . S
O149 In143 2.266 . S
O149 C146 1.252 . S
O150 In143 2.326 . S
O150 C146 1.260 . S
O151 In143 2.266 . S
O151 C148 1.252 . S
O152 In143 2.326 . S
O152 C148 1.260 . S
C153 O144 1.240 . S
C153 O145 1.252 . S
O154 In143 2.294 . S
O154 C147 1.240 . S
O155 In143 2.326 . S
O155 C147 1.252 . S
In156 O157 2.294 . S
In156 O158 2.326 . S
In156 O162 2.266 . S
In156 O163 2.326 . S
In156 O164 2.266 . S
In156 O165 2.326 . S
In156 O167 2.294 . S
In156 O168 2.326 . S
O157 In156 2.294 . S
O157 C166 1.240 . S
O158 In156 2.326 . S
O158 C166 1.252 . S
C159 O162 1.252 . S
C159 O163 1.260 . S
C160 O167 1.240 . S
C160 O168 1.252 . S
C161 O164 1.252 . S
C161 O165 1.260 . S
O162 In156 2.266 . S
O162 C159 1.252 . S
O163 In156 2.326 . S
O163 C159 1.260 . S
O164 In156 2.266 . S
O164 C161 1.252 . S
O165 In156 2.326 . S
O165 C161 1.260 . S
C166 O157 1.240 . S
C166 O158 1.252 . S
O167 In156 2.294 . S
O167 C160 1.240 . S
O168 In156 2.326 . S
O168 C160 1.252 . S
In169 O170 2.294 . S
In169 O171 2.326 . S
In169 O175 2.266 . S
In169 O176 2.326 . S
In169 O177 2.266 . S
In169 O178 2.326 . S
In169 O180 2.294 . S
In169 O181 2.326 . S
O170 In169 2.294 . S
O170 C179 1.240 . S
O171 In169 2.326 . S
O171 C179 1.252 . S
C172 O175 1.252 . S
C172 O176 1.260 . S
C173 O180 1.240 . S
C173 O181 1.252 . S
C174 O177 1.252 . S
C174 O178 1.260 . S
O175 In169 2.266 . S
O175 C172 1.252 . S
O176 In169 2.326 . S
O176 C172 1.260 . S
O177 In169 2.266 . S
O177 C174 1.252 . S
O178 In169 2.326 . S
O178 C174 1.260 . S
C179 O170 1.240 . S
C179 O171 1.252 . S
O180 In169 2.294 . S
O180 C173 1.240 . S
O181 In169 2.326 . S
O181 C173 1.252 . S
In182 O183 2.294 . S
In182 O184 2.326 . S
In182 O188 2.266 . S
In182 O189 2.326 . S
In182 O190 2.266 . S
In182 O191 2.326 . S
In182 O193 2.294 . S
In182 O194 2.326 . S
O183 In182 2.294 . S
O183 C192 1.240 . S
O184 In182 2.326 . S
O184 C192 1.252 . S
C185 O188 1.252 . S
C185 O189 1.260 . S
C186 O193 1.240 . S
C186 O194 1.252 . S
C187 O190 1.252 . S
C187 O191 1.260 . S
O188 In182 2.266 . S
O188 C185 1.252 . S
O189 In182 2.326 . S
O189 C185 1.260 . S
O190 In182 2.266 . S
O190 C187 1.252 . S
O191 In182 2.326 . S
O191 C187 1.260 . S
C192 O183 1.240 . S
C192 O184 1.252 . S
O193 In182 2.294 . S
O193 C186 1.240 . S
O194 In182 2.326 . S
O194 C186 1.252 . S
In195 O196 2.294 . S
In195 O197 2.326 . S
In195 O201 2.266 . S
In195 O202 2.326 . S
In195 O203 2.266 . S
In195 O204 2.326 . S
In195 O206 2.294 . S
In195 O207 2.326 . S
O196 In195 2.294 . S
O196 C205 1.240 . S
O197 In195 2.326 . S
O197 C205 1.252 . S
C198 O201 1.252 . S
C198 O202 1.260 . S
C199 O206 1.240 . S
C199 O207 1.252 . S
C200 O203 1.252 . S
C200 O204 1.260 . S
O201 In195 2.266 . S
O201 C198 1.252 . S
O202 In195 2.326 . S
O202 C198 1.260 . S
O203 In195 2.266 . S
O203 C200 1.252 . S
O204 In195 2.326 . S
O204 C200 1.260 . S
C205 O196 1.240 . S
C205 O197 1.252 . S
O206 In195 2.294 . S
O206 C199 1.240 . S
O207 In195 2.326 . S
O207 C199 1.252 . S
In208 O209 2.294 . S
In208 O210 2.326 . S
In208 O214 2.266 . S
In208 O215 2.326 . S
In208 O216 2.266 . S
In208 O217 2.326 . S
In208 O219 2.294 . S
In208 O220 2.326 . S
O209 In208 2.294 . S
O209 C218 1.240 . S
O210 In208 2.326 . S
O210 C218 1.252 . S
C211 O214 1.252 . S
C211 O215 1.260 . S
C212 O219 1.240 . S
C212 O220 1.252 . S
C213 O216 1.252 . S
C213 O217 1.260 . S
O214 In208 2.266 . S
O214 C211 1.252 . S
O215 In208 2.326 . S
O215 C211 1.260 . S
O216 In208 2.266 . S
O216 C213 1.252 . S
O217 In208 2.326 . S
O217 C213 1.260 . S
C218 O209 1.240 . S
C218 O210 1.252 . S
O219 In208 2.294 . S
O219 C212 1.240 . S
O220 In208 2.326 . S
O220 C212 1.252 . S
In221 O222 2.294 . S
In221 O223 2.326 . S
In221 O227 2.266 . S
In221 O228 2.326 . S
In221 O229 2.266 . S
In221 O230 2.326 . S
In221 O232 2.294 . S
In221 O233 2.326 . S
O222 In221 2.294 . S
O222 C231 1.240 . S
O223 In221 2.326 . S
O223 C231 1.252 . S
C224 O227 1.252 . S
C224 O228 1.260 . S
C225 O232 1.240 . S
C225 O233 1.252 . S
C226 O229 1.252 . S
C226 O230 1.260 . S
O227 In221 2.266 . S
O227 C224 1.252 . S
O228 In221 2.326 . S
O228 C224 1.260 . S
O229 In221 2.266 . S
O229 C226 1.252 . S
O230 In221 2.326 . S
O230 C226 1.260 . S
C231 O222 1.240 . S
C231 O223 1.252 . S
O232 In221 2.294 . S
O232 C225 1.240 . S
O233 In221 2.326 . S
O233 C225 1.252 . S
In234 O235 2.294 . S
In234 O236 2.326 . S
In234 O240 2.266 . S
In234 O241 2.326 . S
In234 O242 2.266 . S
In234 O243 2.326 . S
In234 O245 2.294 . S
In234 O246 2.326 . S
O235 In234 2.294 . S
O235 C244 1.240 . S
O236 In234 2.326 . S
O236 C244 1.252 . S
C237 O240 1.252 . S
C237 O241 1.260 . S
C238 O245 1.240 . S
C238 O246 1.252 . S
C239 O242 1.252 . S
C239 O243 1.260 . S
O240 In234 2.266 . S
O240 C237 1.252 . S
O241 In234 2.326 . S
O241 C237 1.260 . S
O242 In234 2.266 . S
O242 C239 1.252 . S
O243 In234 2.326 . S
O243 C239 1.260 . S
C244 O235 1.240 . S
C244 O236 1.252 . S
O245 In234 2.294 . S
O245 C238 1.240 . S
O246 In234 2.326 . S
O246 C238 1.252 . S
In247 O248 2.294 . S
In247 O249 2.326 . S
In247 O253 2.266 . S
In247 O254 2.326 . S
In247 O255 2.266 . S
In247 O256 2.326 . S
In247 O258 2.294 . S
In247 O259 2.326 . S
O248 In247 2.294 . S
O248 C257 1.240 . S
O249 In247 2.326 . S
O249 C257 1.252 . S
C250 O253 1.252 . S
C250 O254 1.260 . S
C251 O258 1.240 . S
C251 O259 1.252 . S
C252 O255 1.252 . S
C252 O256 1.260 . S
O253 In247 2.266 . S
O253 C250 1.252 . S
O254 In247 2.326 . S
O254 C250 1.260 . S
O255 In247 2.266 . S
O255 C252 1.252 . S
O256 In247 2.326 . S
O256 C252 1.260 . S
C257 O248 1.240 . S
C257 O249 1.252 . S
O258 In247 2.294 . S
O258 C251 1.240 . S
O259 In247 2.326 . S
O259 C251 1.252 . S
In260 O261 2.294 . S
In260 O262 2.326 . S
In260 O266 2.266 . S
In260 O267 2.326 . S
In260 O268 2.266 . S
In260 O269 2.326 . S
In260 O271 2.294 . S
In260 O272 2.326 . S
O261 In260 2.294 . S
O261 C270 1.240 . S
O262 In260 2.326 . S
O262 C270 1.252 . S
C263 O266 1.252 . S
C263 O267 1.260 . S
C264 O271 1.240 . S
C264 O272 1.252 . S
C265 O268 1.252 . S
C265 O269 1.260 . S
O266 In260 2.266 . S
O266 C263 1.252 . S
O267 In260 2.326 . S
O267 C263 1.260 . S
O268 In260 2.266 . S
O268 C265 1.252 . S
O269 In260 2.326 . S
O269 C265 1.260 . S
C270 O261 1.240 . S
C270 O262 1.252 . S
O271 In260 2.294 . S
O271 C264 1.240 . S
O272 In260 2.326 . S
O272 C264 1.252 . S
In273 O274 2.294 . S
In273 O275 2.326 . S
In273 O279 2.266 . S
In273 O280 2.326 . S
In273 O281 2.266 . S
In273 O282 2.326 . S
In273 O284 2.294 . S
In273 O285 2.326 . S
O274 In273 2.294 . S
O274 C283 1.240 . S
O275 In273 2.326 . S
O275 C283 1.252 . S
C276 O279 1.252 . S
C276 O280 1.260 . S
C277 O284 1.240 . S
C277 O285 1.252 . S
C278 O281 1.252 . S
C278 O282 1.260 . S
O279 In273 2.266 . S
O279 C276 1.252 . S
O280 In273 2.326 . S
O280 C276 1.260 . S
O281 In273 2.266 . S
O281 C278 1.252 . S
O282 In273 2.326 . S
O282 C278 1.260 . S
C283 O274 1.240 . S
C283 O275 1.252 . S
O284 In273 2.294 . S
O284 C277 1.240 . S
O285 In273 2.326 . S
O285 C277 1.252 . S
In286 O287 2.294 . S
In286 O288 2.326 . S
In286 O292 2.266 . S
In286 O293 2.326 . S
In286 O294 2.266 . S
In286 O295 2.326 . S
In286 O297 2.294 . S
In286 O298 2.326 . S
O287 In286 2.294 . S
O287 C296 1.240 . S
O288 In286 2.326 . S
O288 C296 1.252 . S
C289 O292 1.252 . S
C289 O293 1.260 . S
C290 O297 1.240 . S
C290 O298 1.252 . S
C291 O294 1.252 . S
C291 O295 1.260 . S
O292 In286 2.266 . S
O292 C289 1.252 . S
O293 In286 2.326 . S
O293 C289 1.260 . S
O294 In286 2.266 . S
O294 C291 1.252 . S
O295 In286 2.326 . S
O295 C291 1.260 . S
C296 O287 1.240 . S
C296 O288 1.252 . S
O297 In286 2.294 . S
O297 C290 1.240 . S
O298 In286 2.326 . S
O298 C290 1.252 . S
In299 O300 2.294 . S
In299 O301 2.326 . S
In299 O305 2.266 . S
In299 O306 2.326 . S
In299 O307 2.266 . S
In299 O308 2.326 . S
In299 O310 2.294 . S
In299 O311 2.326 . S
O300 In299 2.294 . S
O300 C309 1.240 . S
O301 In299 2.326 . S
O301 C309 1.252 . S
C302 O305 1.252 . S
C302 O306 1.260 . S
C303 O310 1.240 . S
C303 O311 1.252 . S
C304 O307 1.252 . S
C304 O308 1.260 . S
O305 In299 2.266 . S
O305 C302 1.252 . S
O306 In299 2.326 . S
O306 C302 1.260 . S
O307 In299 2.266 . S
O307 C304 1.252 . S
O308 In299 2.326 . S
O308 C304 1.260 . S
C309 O300 1.240 . S
C309 O301 1.252 . S
O310 In299 2.294 . S
O310 C303 1.240 . S
O311 In299 2.326 . S
O311 C303 1.252 . S
In312 O313 2.294 . S
In312 O314 2.326 . S
In312 O318 2.266 . S
In312 O319 2.326 . S
In312 O320 2.266 . S
In312 O321 2.326 . S
In312 O323 2.294 . S
In312 O324 2.326 . S
O313 In312 2.294 . S
O313 C322 1.240 . S
O314 In312 2.326 . S
O314 C322 1.252 . S
C315 O318 1.252 . S
C315 O319 1.260 . S
C316 O323 1.240 . S
C316 O324 1.252 . S
C317 O320 1.252 . S
C317 O321 1.260 . S
O318 In312 2.266 . S
O318 C315 1.252 . S
O319 In312 2.326 . S
O319 C315 1.260 . S
O320 In312 2.266 . S
O320 C317 1.252 . S
O321 In312 2.326 . S
O321 C317 1.260 . S
C322 O313 1.240 . S
C322 O314 1.252 . S
O323 In312 2.294 . S
O323 C316 1.240 . S
O324 In312 2.326 . S
O324 C316 1.252 . S
In325 O326 2.294 . S
In325 O327 2.326 . S
In325 O331 2.266 . S
In325 O332 2.326 . S
In325 O333 2.266 . S
In325 O334 2.326 . S
In325 O336 2.294 . S
In325 O337 2.326 . S
O326 In325 2.294 . S
O326 C335 1.240 . S
O327 In325 2.326 . S
O327 C335 1.252 . S
C328 O331 1.252 . S
C328 O332 1.260 . S
C329 O336 1.240 . S
C329 O337 1.252 . S
C330 O333 1.252 . S
C330 O334 1.260 . S
O331 In325 2.266 . S
O331 C328 1.252 . S
O332 In325 2.326 . S
O332 C328 1.260 . S
O333 In325 2.266 . S
O333 C330 1.252 . S
O334 In325 2.326 . S
O334 C330 1.260 . S
C335 O326 1.240 . S
C335 O327 1.252 . S
O336 In325 2.294 . S
O336 C329 1.240 . S
O337 In325 2.326 . S
O337 C329 1.252 . S
In338 O339 2.294 . S
In338 O340 2.326 . S
In338 O344 2.266 . S
In338 O345 2.326 . S
In338 O346 2.266 . S
In338 O347 2.326 . S
In338 O349 2.294 . S
In338 O350 2.326 . S
O339 In338 2.294 . S
O339 C348 1.240 . S
O340 In338 2.326 . S
O340 C348 1.252 . S
C341 O344 1.252 . S
C341 O345 1.260 . S
C342 O349 1.240 . S
C342 O350 1.252 . S
C343 O346 1.252 . S
C343 O347 1.260 . S
O344 In338 2.266 . S
O344 C341 1.252 . S
O345 In338 2.326 . S
O345 C341 1.260 . S
O346 In338 2.266 . S
O346 C343 1.252 . S
O347 In338 2.326 . S
O347 C343 1.260 . S
C348 O339 1.240 . S
C348 O340 1.252 . S
O349 In338 2.294 . S
O349 C342 1.240 . S
O350 In338 2.326 . S
O350 C342 1.252 . S
In351 O352 2.294 . S
In351 O353 2.326 . S
In351 O357 2.266 . S
In351 O358 2.326 . S
In351 O359 2.266 . S
In351 O360 2.326 . S
In351 O362 2.294 . S
In351 O363 2.326 . S
O352 In351 2.294 . S
O352 C361 1.240 . S
O353 In351 2.326 . S
O353 C361 1.252 . S
C354 O357 1.252 . S
C354 O358 1.260 . S
C355 O362 1.240 . S
C355 O363 1.252 . S
C356 O359 1.252 . S
C356 O360 1.260 . S
O357 In351 2.266 . S
O357 C354 1.252 . S
O358 In351 2.326 . S
O358 C354 1.260 . S
O359 In351 2.266 . S
O359 C356 1.252 . S
O360 In351 2.326 . S
O360 C356 1.260 . S
C361 O352 1.240 . S
C361 O353 1.252 . S
O362 In351 2.294 . S
O362 C355 1.240 . S
O363 In351 2.326 . S
O363 C355 1.252 . S
In364 O365 2.294 . S
In364 O366 2.326 . S
In364 O370 2.266 . S
In364 O371 2.326 . S
In364 O372 2.266 . S
In364 O373 2.326 . S
In364 O375 2.294 . S
In364 O376 2.326 . S
O365 In364 2.294 . S
O365 C374 1.240 . S
O366 In364 2.326 . S
O366 C374 1.252 . S
C367 O370 1.252 . S
C367 O371 1.260 . S
C368 O375 1.240 . S
C368 O376 1.252 . S
C369 O372 1.252 . S
C369 O373 1.260 . S
O370 In364 2.266 . S
O370 C367 1.252 . S
O371 In364 2.326 . S
O371 C367 1.260 . S
O372 In364 2.266 . S
O372 C369 1.252 . S
O373 In364 2.326 . S
O373 C369 1.260 . S
C374 O365 1.240 . S
C374 O366 1.252 . S
O375 In364 2.294 . S
O375 C368 1.240 . S
O376 In364 2.326 . S
O376 C368 1.252 . S
In377 O378 2.294 . S
In377 O379 2.326 . S
In377 O383 2.266 . S
In377 O384 2.326 . S
In377 O385 2.266 . S
In377 O386 2.326 . S
In377 O388 2.294 . S
In377 O389 2.326 . S
O378 In377 2.294 . S
O378 C387 1.240 . S
O379 In377 2.326 . S
O379 C387 1.252 . S
C380 O383 1.252 . S
C380 O384 1.260 . S
C381 O388 1.240 . S
C381 O389 1.252 . S
C382 O385 1.252 . S
C382 O386 1.260 . S
O383 In377 2.266 . S
O383 C380 1.252 . S
O384 In377 2.326 . S
O384 C380 1.260 . S
O385 In377 2.266 . S
O385 C382 1.252 . S
O386 In377 2.326 . S
O386 C382 1.260 . S
C387 O378 1.240 . S
C387 O379 1.252 . S
O388 In377 2.294 . S
O388 C381 1.240 . S
O389 In377 2.326 . S
O389 C381 1.252 . S
In390 O391 2.294 . S
In390 O392 2.326 . S
In390 O396 2.266 . S
In390 O397 2.326 . S
In390 O398 2.266 . S
In390 O399 2.326 . S
In390 O401 2.294 . S
In390 O402 2.326 . S
O391 In390 2.294 . S
O391 C400 1.240 . S
O392 In390 2.326 . S
O392 C400 1.252 . S
C393 O396 1.252 . S
C393 O397 1.260 . S
C394 O401 1.240 . S
C394 O402 1.252 . S
C395 O398 1.252 . S
C395 O399 1.260 . S
O396 In390 2.266 . S
O396 C393 1.252 . S
O397 In390 2.326 . S
O397 C393 1.260 . S
O398 In390 2.266 . S
O398 C395 1.252 . S
O399 In390 2.326 . S
O399 C395 1.260 . S
C400 O391 1.240 . S
C400 O392 1.252 . S
O401 In390 2.294 . S
O401 C394 1.240 . S
O402 In390 2.326 . S
O402 C394 1.252 . S
In403 O404 2.294 . S
In403 O405 2.326 . S
In403 O409 2.266 . S
In403 O410 2.326 . S
In403 O411 2.266 . S
In403 O412 2.326 . S
In403 O414 2.294 . S
In403 O415 2.326 . S
O404 In403 2.294 . S
O404 C413 1.240 . S
O405 In403 2.326 . S
O405 C413 1.252 . S
C406 O409 1.252 . S
C406 O410 1.260 . S
C407 O414 1.240 . S
C407 O415 1.252 . S
C408 O411 1.252 . S
C408 O412 1.260 . S
O409 In403 2.266 . S
O409 C406 1.252 . S
O410 In403 2.326 . S
O410 C406 1.260 . S
O411 In403 2.266 . S
O411 C408 1.252 . S
O412 In403 2.326 . S
O412 C408 1.260 . S
C413 O404 1.240 . S
C413 O405 1.252 . S
O414 In403 2.294 . S
O414 C407 1.240 . S
O415 In403 2.326 . S
O415 C407 1.252 . S
H416 C428 0.930 . S
H417 C430 0.930 . S
H418 C431 0.930 . S
H419 C435 0.959 . S
H420 C435 0.959 . S
H421 C435 0.961 . S
H422 C436 0.960 . S
H423 C436 0.961 . S
H424 C436 0.959 . S
H425 C439 0.929 . S
H426 C440 0.931 . S
H427 C442 0.930 . S
C428 H416 0.930 . S
C428 C429 1.399 . S
C428 C433 1.399 . S
C429 C428 1.399 . S
C429 C430 1.376 . S
C430 H417 0.930 . S
C430 C429 1.376 . S
C430 C431 1.388 . S
C431 H418 0.930 . S
C431 C430 1.388 . S
C431 C432 1.390 . S
C432 C431 1.390 . S
C432 C433 1.394 . S
C432 C438 1.465 . S
C433 C428 1.399 . S
C433 C432 1.394 . S
C433 C434 1.516 . S
C434 C433 1.516 . S
C434 C435 1.502 . S
C434 C436 1.561 . S
C434 C437 1.526 . S
C435 H419 0.959 . S
C435 H420 0.959 . S
C435 H421 0.961 . S
C435 C434 1.502 . S
C436 H422 0.960 . S
C436 H423 0.961 . S
C436 H424 0.959 . S
C436 C434 1.561 . S
C437 C434 1.526 . S
C437 C438 1.396 . S
C437 C442 1.390 . S
C438 C432 1.465 . S
C438 C437 1.396 . S
C438 C439 1.399 . S
C439 H425 0.929 . S
C439 C438 1.399 . S
C439 C440 1.385 . S
C440 H426 0.931 . S
C440 C439 1.385 . S
C440 C441 1.389 . S
C441 C440 1.389 . S
C441 C442 1.387 . S
C442 H427 0.930 . S
C442 C437 1.390 . S
C442 C441 1.387 . S
H443 C455 0.930 . S
H444 C457 0.930 . S
H445 C458 0.930 . S
H446 C462 0.959 . S
H447 C462 0.959 . S
H448 C462 0.961 . S
H449 C463 0.960 . S
H450 C463 0.961 . S
H451 C463 0.959 . S
H452 C466 0.929 . S
H453 C467 0.931 . S
H454 C469 0.930 . S
C455 H443 0.930 . S
C455 C456 1.399 . S
C455 C460 1.399 . S
C456 C455 1.399 . S
C456 C457 1.376 . S
C457 H444 0.930 . S
C457 C456 1.376 . S
C457 C458 1.388 . S
C458 H445 0.930 . S
C458 C457 1.388 . S
C458 C459 1.390 . S
C459 C458 1.390 . S
C459 C460 1.394 . S
C459 C465 1.465 1_565 S
C460 C455 1.399 . S
C460 C459 1.394 . S
C460 C461 1.516 . S
C461 C460 1.516 . S
C461 C462 1.502 . S
C461 C463 1.561 . S
C461 C464 1.526 1_565 S
C462 H446 0.959 . S
C462 H447 0.959 . S
C462 H448 0.961 . S
C462 C461 1.502 . S
C463 H449 0.960 . S
C463 H450 0.961 . S
C463 H451 0.959 . S
C463 C461 1.561 . S
C464 C461 1.526 1_545 S
C464 C465 1.396 . S
C464 C469 1.390 . S
C465 C459 1.465 1_545 S
C465 C464 1.396 . S
C465 C466 1.399 . S
C466 H452 0.929 . S
C466 C465 1.399 . S
C466 C467 1.385 . S
C467 H453 0.931 . S
C467 C466 1.385 . S
C467 C468 1.389 . S
C468 C467 1.389 . S
C468 C469 1.387 . S
C469 H454 0.930 . S
C469 C464 1.390 . S
C469 C468 1.387 . S
H470 C482 0.930 . S
H471 C484 0.930 . S
H472 C485 0.930 . S
H473 C489 0.959 . S
H474 C489 0.959 . S
H475 C489 0.961 . S
H476 C490 0.960 . S
H477 C490 0.961 . S
H478 C490 0.959 . S
H479 C493 0.929 . S
H480 C494 0.931 . S
H481 C496 0.930 . S
C482 H470 0.930 . S
C482 C483 1.399 . S
C482 C487 1.399 . S
C483 C482 1.399 . S
C483 C484 1.376 . S
C484 H471 0.930 . S
C484 C483 1.376 . S
C484 C485 1.388 . S
C485 H472 0.930 . S
C485 C484 1.388 . S
C485 C486 1.390 . S
C486 C485 1.390 . S
C486 C487 1.394 . S
C486 C492 1.465 . S
C487 C482 1.399 . S
C487 C486 1.394 . S
C487 C488 1.516 . S
C488 C487 1.516 . S
C488 C489 1.502 . S
C488 C490 1.561 . S
C488 C491 1.526 . S
C489 H473 0.959 . S
C489 H474 0.959 . S
C489 H475 0.961 . S
C489 C488 1.502 . S
C490 H476 0.960 . S
C490 H477 0.961 . S
C490 H478 0.959 . S
C490 C488 1.561 . S
C491 C488 1.526 . S
C491 C492 1.396 . S
C491 C496 1.390 . S
C492 C486 1.465 . S
C492 C491 1.396 . S
C492 C493 1.399 . S
C493 H479 0.929 . S
C493 C492 1.399 . S
C493 C494 1.385 . S
C494 H480 0.931 . S
C494 C493 1.385 . S
C494 C495 1.389 . S
C495 C494 1.389 . S
C495 C496 1.387 . S
C496 H481 0.930 . S
C496 C491 1.390 . S
C496 C495 1.387 . S
H497 C509 0.930 1_554 S
H498 C511 0.930 . S
H499 C512 0.930 . S
H500 C516 0.959 . S
H501 C516 0.959 . S
H502 C516 0.961 . S
H503 C517 0.960 . S
H504 C517 0.961 . S
H505 C517 0.959 . S
H506 C520 0.929 . S
H507 C521 0.931 . S
H508 C523 0.930 . S
C509 H497 0.930 1_556 S
C509 C510 1.399 . S
C509 C514 1.399 1_556 S
C510 C509 1.399 . S
C510 C511 1.376 . S
C511 H498 0.930 . S
C511 C510 1.376 . S
C511 C512 1.388 . S
C512 H499 0.930 . S
C512 C511 1.388 . S
C512 C513 1.390 . S
C513 C512 1.390 . S
C513 C514 1.394 1_556 S
C513 C519 1.465 1_545 S
C514 C509 1.399 1_554 S
C514 C513 1.394 1_554 S
C514 C515 1.516 . S
C515 C514 1.516 . S
C515 C516 1.502 . S
C515 C517 1.561 . S
C515 C518 1.526 1_545 S
C516 H500 0.959 . S
C516 H501 0.959 . S
C516 H502 0.961 . S
C516 C515 1.502 . S
C517 H503 0.960 . S
C517 H504 0.961 . S
C517 H505 0.959 . S
C517 C515 1.561 . S
C518 C515 1.526 1_565 S
C518 C519 1.396 1_554 S
C518 C523 1.390 . S
C519 C513 1.465 1_565 S
C519 C518 1.396 1_556 S
C519 C520 1.399 . S
C520 H506 0.929 . S
C520 C519 1.399 . S
C520 C521 1.385 . S
C521 H507 0.931 . S
C521 C520 1.385 . S
C521 C522 1.389 1_556 S
C522 C521 1.389 1_554 S
C522 C523 1.387 . S
C523 H508 0.930 . S
C523 C518 1.390 . S
C523 C522 1.387 . S
H524 C536 0.930 . S
H525 C538 0.930 . S
H526 C539 0.930 . S
H527 C543 0.959 . S
H528 C543 0.959 . S
H529 C543 0.961 . S
H530 C544 0.960 . S
H531 C544 0.961 . S
H532 C544 0.959 . S
H533 C547 0.929 . S
H534 C548 0.931 . S
H535 C550 0.930 . S
C536 H524 0.930 . S
C536 C537 1.399 . S
C536 C541 1.399 . S
C537 C536 1.399 . S
C537 C538 1.376 . S
C538 H525 0.930 . S
C538 C537 1.376 . S
C538 C539 1.388 . S
C539 H526 0.930 . S
C539 C538 1.388 . S
C539 C540 1.390 . S
C540 C539 1.390 . S
C540 C541 1.394 . S
C540 C546 1.465 . S
C541 C536 1.399 . S
C541 C540 1.394 . S
C541 C542 1.516 . S
C542 C541 1.516 . S
C542 C543 1.502 . S
C542 C544 1.561 . S
C542 C545 1.526 . S
C543 H527 0.959 . S
C543 H528 0.959 . S
C543 H529 0.961 . S
C543 C542 1.502 . S
C544 H530 0.960 . S
C544 H531 0.961 . S
C544 H532 0.959 . S
C544 C542 1.561 . S
C545 C542 1.526 . S
C545 C546 1.396 . S
C545 C550 1.390 . S
C546 C540 1.465 . S
C546 C545 1.396 . S
C546 C547 1.399 . S
C547 H533 0.929 . S
C547 C546 1.399 . S
C547 C548 1.385 . S
C548 H534 0.931 . S
C548 C547 1.385 . S
C548 C549 1.389 . S
C549 C548 1.389 . S
C549 C550 1.387 . S
C550 H535 0.930 . S
C550 C545 1.390 . S
C550 C549 1.387 . S
H551 C563 0.930 . S
H552 C565 0.930 . S
H553 C566 0.930 . S
H554 C570 0.959 . S
H555 C570 0.959 . S
H556 C570 0.961 1_565 S
H557 C571 0.960 . S
H558 C571 0.961 1_545 S
H559 C571 0.959 . S
H560 C574 0.929 . S
H561 C575 0.931 . S
H562 C577 0.930 . S
C563 H551 0.930 . S
C563 C564 1.399 . S
C563 C568 1.399 . S
C564 C563 1.399 . S
C564 C565 1.376 . S
C565 H552 0.930 . S
C565 C564 1.376 . S
C565 C566 1.388 . S
C566 H553 0.930 . S
C566 C565 1.388 . S
C566 C567 1.390 . S
C567 C566 1.390 . S
C567 C568 1.394 . S
C567 C573 1.465 1_565 S
C568 C563 1.399 . S
C568 C567 1.394 . S
C568 C569 1.462 1_565 S
C569 C568 1.462 1_545 S
C569 C570 1.527 . S
C569 C571 1.544 1_545 S
C569 C572 1.576 . S
C570 H554 0.959 . S
C570 H555 0.959 . S
C570 H556 0.961 1_545 S
C570 C569 1.527 . S
C571 H557 0.960 . S
C571 H558 0.961 1_565 S
C571 H559 0.959 . S
C571 C569 1.544 1_565 S
C572 C569 1.576 . S
C572 C573 1.396 . S
C572 C577 1.390 . S
C573 C567 1.465 1_545 S
C573 C572 1.396 . S
C573 C574 1.399 . S
C574 H560 0.929 . S
C574 C573 1.399 . S
C574 C575 1.385 . S
C575 H561 0.931 . S
C575 C574 1.385 . S
C575 C576 1.389 . S
C576 C575 1.389 . S
C576 C577 1.387 . S
C577 H562 0.930 . S
C577 C572 1.390 . S
C577 C576 1.387 . S
H578 C590 0.930 . S
H579 C592 0.930 . S
H580 C593 0.930 . S
H581 C597 0.959 . S
H582 C597 0.959 . S
H583 C597 0.961 . S
H584 C598 0.960 . S
H585 C598 0.961 . S
H586 C598 0.959 . S
H587 C601 0.929 . S
H588 C602 0.931 . S
H589 C604 0.930 . S
C590 H578 0.930 . S
C590 C591 1.399 . S
C590 C595 1.399 . S
C591 C590 1.399 . S
C591 C592 1.376 . S
C592 H579 0.930 . S
C592 C591 1.376 . S
C592 C593 1.388 . S
C593 H580 0.930 . S
C593 C592 1.388 . S
C593 C594 1.390 . S
C594 C593 1.390 . S
C594 C595 1.394 . S
C594 C600 1.465 . S
C595 C590 1.399 . S
C595 C594 1.394 . S
C595 C596 1.516 . S
C596 C595 1.516 . S
C596 C597 1.502 . S
C596 C598 1.561 . S
C596 C599 1.526 . S
C597 H581 0.959 . S
C597 H582 0.959 . S
C597 H583 0.961 . S
C597 C596 1.502 . S
C598 H584 0.960 . S
C598 H585 0.961 . S
C598 H586 0.959 . S
C598 C596 1.561 . S
C599 C596 1.526 . S
C599 C600 1.396 . S
C599 C604 1.390 . S
C600 C594 1.465 . S
C600 C599 1.396 . S
C600 C601 1.399 . S
C601 H587 0.929 . S
C601 C600 1.399 . S
C601 C602 1.385 . S
C602 H588 0.931 . S
C602 C601 1.385 . S
C602 C603 1.389 . S
C603 C602 1.389 . S
C603 C604 1.387 . S
C604 H589 0.930 . S
C604 C599 1.390 . S
C604 C603 1.387 . S
H605 C617 0.930 . S
H606 C619 0.930 . S
H607 C620 0.930 . S
H608 C624 0.959 . S
H609 C624 0.959 . S
H610 C624 0.961 . S
H611 C625 0.983 . S
H612 C625 0.961 . S
H613 C625 0.959 . S
H614 C628 0.929 . S
H615 C629 0.931 . S
H616 C631 0.930 1_556 S
C617 H605 0.930 . S
C617 C618 1.399 . S
C617 C622 1.399 . S
C618 C617 1.399 . S
C618 C619 1.376 1_556 S
C619 H606 0.930 . S
C619 C618 1.376 1_554 S
C619 C620 1.388 . S
C620 H607 0.930 . S
C620 C619 1.388 . S
C620 C621 1.390 . S
C621 C620 1.390 . S
C621 C622 1.394 1_554 S
C621 C627 1.465 1_545 S
C622 C617 1.399 . S
C622 C621 1.394 1_556 S
C622 C623 1.516 1_545 S
C623 C622 1.516 1_565 S
C623 C624 1.502 . S
C623 C625 1.561 . S
C623 C626 1.526 . S
C624 H608 0.959 . S
C624 H609 0.959 . S
C624 H610 0.961 . S
C624 C623 1.502 . S
C625 H611 0.983 . S
C625 H612 0.961 . S
C625 H613 0.959 . S
C625 C623 1.561 . S
C626 C623 1.526 . S
C626 C627 1.396 1_556 S
C626 C631 1.390 1_556 S
C627 C621 1.465 1_565 S
C627 C626 1.396 1_554 S
C627 C628 1.399 . S
C628 H614 0.929 . S
C628 C627 1.399 . S
C628 C629 1.385 . S
C629 H615 0.931 . S
C629 C628 1.385 . S
C629 C630 1.389 . S
C630 C629 1.389 . S
C630 C631 1.387 . S
C631 H616 0.930 1_554 S
C631 C626 1.390 1_554 S
C631 C630 1.387 . S
H632 C644 0.930 . S
H633 C646 0.930 . S
H634 C647 0.930 . S
H635 C651 0.959 . S
H636 C651 0.959 . S
H637 C651 0.961 . S
H638 C652 0.960 . S
H639 C652 0.961 . S
H640 C652 0.959 . S
H641 C655 0.929 . S
H642 C656 0.931 . S
H643 C658 0.930 . S
C644 H632 0.930 . S
C644 C645 1.399 . S
C644 C649 1.399 . S
C645 C644 1.399 . S
C645 C646 1.376 . S
C646 H633 0.930 . S
C646 C645 1.376 . S
C646 C647 1.388 . S
C647 H634 0.930 . S
C647 C646 1.388 . S
C647 C648 1.390 . S
C648 C647 1.390 . S
C648 C649 1.394 . S
C648 C654 1.465 . S
C649 C644 1.399 . S
C649 C648 1.394 . S
C649 C650 1.516 . S
C650 C649 1.516 . S
C650 C651 1.502 . S
C650 C652 1.561 . S
C650 C653 1.526 . S
C651 H635 0.959 . S
C651 H636 0.959 . S
C651 H637 0.961 . S
C651 C650 1.502 . S
C652 H638 0.960 . S
C652 H639 0.961 . S
C652 H640 0.959 . S
C652 C650 1.561 . S
C653 C650 1.526 . S
C653 C654 1.396 . S
C653 C658 1.390 . S
C654 C648 1.465 . S
C654 C653 1.396 . S
C654 C655 1.399 . S
C655 H641 0.929 . S
C655 C654 1.399 . S
C655 C656 1.385 . S
C656 H642 0.931 . S
C656 C655 1.385 . S
C656 C657 1.389 . S
C657 C656 1.389 . S
C657 C658 1.387 . S
C658 H643 0.930 . S
C658 C653 1.390 . S
C658 C657 1.387 . S
H659 C671 0.930 . S
H660 C673 0.930 . S
H661 C674 0.930 . S
H662 C678 0.959 . S
H663 C678 0.959 . S
H664 C678 0.961 . S
H665 C679 0.960 . S
H666 C679 0.961 . S
H667 C679 0.959 . S
H668 C682 0.929 . S
H669 C683 0.931 . S
H670 C685 0.930 . S
C671 H659 0.930 . S
C671 C672 1.399 . S
C671 C676 1.399 . S
C672 C671 1.399 . S
C672 C673 1.376 . S
C673 H660 0.930 . S
C673 C672 1.376 . S
C673 C674 1.388 1_556 S
C674 H661 0.930 . S
C674 C673 1.388 1_554 S
C674 C675 1.390 . S
C675 C674 1.390 . S
C675 C676 1.394 1_554 S
C675 C681 1.465 . S
C676 C671 1.399 . S
C676 C675 1.394 1_556 S
C676 C677 1.516 . S
C677 C676 1.516 . S
C677 C678 1.502 . S
C677 C679 1.561 1_556 S
C677 C680 1.526 1_556 S
C678 H662 0.959 . S
C678 H663 0.959 . S
C678 H664 0.961 . S
C678 C677 1.502 . S
C679 H665 0.960 . S
C679 H666 0.961 . S
C679 H667 0.959 . S
C679 C677 1.561 1_554 S
C680 C677 1.526 1_554 S
C680 C681 1.396 . S
C680 C685 1.390 . S
C681 C675 1.465 . S
C681 C680 1.396 . S
C681 C682 1.399 . S
C682 H668 0.929 . S
C682 C681 1.399 . S
C682 C683 1.385 . S
C683 H669 0.931 . S
C683 C682 1.385 . S
C683 C684 1.389 . S
C684 C683 1.389 . S
C684 C685 1.387 . S
C685 H670 0.930 . S
C685 C680 1.390 . S
C685 C684 1.387 . S
H686 C698 0.930 . S
H687 C700 0.930 . S
H688 C701 0.930 . S
H689 C705 0.959 . S
H690 C705 0.959 . S
H691 C705 0.961 . S
H692 C706 0.960 . S
H693 C706 0.961 . S
H694 C706 0.959 . S
H695 C709 0.929 . S
H696 C710 0.931 . S
H697 C712 0.930 . S
C698 H686 0.930 . S
C698 C699 1.399 . S
C698 C703 1.399 . S
C699 C698 1.399 . S
C699 C700 1.376 . S
C700 H687 0.930 . S
C700 C699 1.376 . S
C700 C701 1.388 . S
C701 H688 0.930 . S
C701 C700 1.388 . S
C701 C702 1.390 . S
C702 C701 1.390 . S
C702 C703 1.394 . S
C702 C708 1.465 . S
C703 C698 1.399 . S
C703 C702 1.394 . S
C703 C704 1.516 . S
C704 C703 1.516 . S
C704 C705 1.502 . S
C704 C706 1.561 . S
C704 C707 1.526 . S
C705 H689 0.959 . S
C705 H690 0.959 . S
C705 H691 0.961 . S
C705 C704 1.502 . S
C706 H692 0.960 . S
C706 H693 0.961 . S
C706 H694 0.959 . S
C706 C704 1.561 . S
C707 C704 1.526 . S
C707 C708 1.396 . S
C707 C712 1.390 . S
C708 C702 1.465 . S
C708 C707 1.396 . S
C708 C709 1.399 . S
C709 H695 0.929 . S
C709 C708 1.399 . S
C709 C710 1.385 . S
C710 H696 0.931 . S
C710 C709 1.385 . S
C710 C711 1.389 . S
C711 C710 1.389 . S
C711 C712 1.387 . S
C712 H697 0.930 . S
C712 C707 1.390 . S
C712 C711 1.387 . S
H713 C725 0.930 . S
H714 C727 0.930 . S
H715 C728 0.930 . S
H716 C732 0.959 . S
H717 C732 0.959 . S
H718 C732 0.961 . S
H719 C733 0.960 . S
H720 C733 0.961 . S
H721 C733 0.959 . S
H722 C736 0.929 . S
H723 C737 0.931 . S
H724 C739 0.930 . S
C725 H713 0.930 . S
C725 C726 1.399 . S
C725 C730 1.399 . S
C726 C725 1.399 . S
C726 C727 1.376 . S
C727 H714 0.930 . S
C727 C726 1.376 . S
C727 C728 1.388 . S
C728 H715 0.930 . S
C728 C727 1.388 . S
C728 C729 1.390 . S
C729 C728 1.390 . S
C729 C730 1.394 . S
C729 C735 1.465 . S
C730 C725 1.399 . S
C730 C729 1.394 . S
C730 C731 1.516 . S
C731 C730 1.516 . S
C731 C732 1.502 . S
C731 C733 1.561 . S
C731 C734 1.526 . S
C732 H716 0.959 . S
C732 H717 0.959 . S
C732 H718 0.961 . S
C732 C731 1.502 . S
C733 H719 0.960 . S
C733 H720 0.961 . S
C733 H721 0.959 . S
C733 C731 1.561 . S
C734 C731 1.526 . S
C734 C735 1.396 . S
C734 C739 1.390 . S
C735 C729 1.465 . S
C735 C734 1.396 . S
C735 C736 1.399 . S
C736 H722 0.929 . S
C736 C735 1.399 . S
C736 C737 1.385 . S
C737 H723 0.931 . S
C737 C736 1.385 . S
C737 C738 1.389 . S
C738 C737 1.389 . S
C738 C739 1.387 . S
C739 H724 0.930 . S
C739 C734 1.390 . S
C739 C738 1.387 . S
H740 C752 0.930 . S
H741 C754 0.930 . S
H742 C755 0.930 . S
H743 C759 0.959 . S
H744 C759 0.959 . S
H745 C759 0.961 . S
H746 C760 0.960 . S
H747 C760 0.961 . S
H748 C760 0.959 . S
H749 C763 0.929 . S
H750 C764 0.931 . S
H751 C766 0.930 . S
C752 H740 0.930 . S
C752 C753 1.399 . S
C752 C757 1.399 . S
C753 C752 1.399 . S
C753 C754 1.376 . S
C754 H741 0.930 . S
C754 C753 1.376 . S
C754 C755 1.388 . S
C755 H742 0.930 . S
C755 C754 1.388 . S
C755 C756 1.390 . S
C756 C755 1.390 . S
C756 C757 1.394 . S
C756 C762 1.465 . S
C757 C752 1.399 . S
C757 C756 1.394 . S
C757 C758 1.516 . S
C758 C757 1.516 . S
C758 C759 1.502 . S
C758 C760 1.561 . S
C758 C761 1.526 . S
C759 H743 0.959 . S
C759 H744 0.959 . S
C759 H745 0.961 . S
C759 C758 1.502 . S
C760 H746 0.960 . S
C760 H747 0.961 . S
C760 H748 0.959 . S
C760 C758 1.561 . S
C761 C758 1.526 . S
C761 C762 1.396 . S
C761 C766 1.390 . S
C762 C756 1.465 . S
C762 C761 1.396 . S
C762 C763 1.399 . S
C763 H749 0.929 . S
C763 C762 1.399 . S
C763 C764 1.385 . S
C764 H750 0.931 . S
C764 C763 1.385 . S
C764 C765 1.389 . S
C765 C764 1.389 . S
C765 C766 1.387 . S
C766 H751 0.930 . S
C766 C761 1.390 . S
C766 C765 1.387 . S
H767 C779 0.930 . S
H768 C781 0.930 1_556 S
H769 C782 0.930 . S
H770 C786 0.959 . S
H771 C786 0.959 . S
H772 C786 0.961 . S
H773 C787 0.960 . S
H774 C787 0.961 . S
H775 C787 0.959 . S
H776 C790 0.929 . S
H777 C791 0.931 . S
H778 C793 0.930 1_554 S
C779 H767 0.930 . S
C779 C780 1.399 . S
C779 C784 1.399 . S
C780 C779 1.399 . S
C780 C781 1.376 . S
C781 H768 0.930 1_554 S
C781 C780 1.376 . S
C781 C782 1.388 1_554 S
C782 H769 0.930 . S
C782 C781 1.388 1_556 S
C782 C783 1.390 . S
C783 C782 1.390 . S
C783 C784 1.394 1_556 S
C783 C789 1.465 . S
C784 C779 1.399 . S
C784 C783 1.394 1_554 S
C784 C785 1.516 . S
C785 C784 1.516 . S
C785 C786 1.502 . S
C785 C787 1.561 . S
C785 C788 1.526 . S
C786 H770 0.959 . S
C786 H771 0.959 . S
C786 H772 0.961 . S
C786 C785 1.502 . S
C787 H773 0.960 . S
C787 H774 0.961 . S
C787 H775 0.959 . S
C787 C785 1.561 . S
C788 C785 1.526 . S
C788 C789 1.396 1_554 S
C788 C793 1.390 1_554 S
C789 C783 1.465 . S
C789 C788 1.396 1_556 S
C789 C790 1.399 . S
C790 H776 0.929 . S
C790 C789 1.399 . S
C790 C791 1.385 . S
C791 H777 0.931 . S
C791 C790 1.385 . S
C791 C792 1.389 . S
C792 C791 1.389 . S
C792 C793 1.387 . S
C793 H778 0.930 1_556 S
C793 C788 1.390 1_556 S
C793 C792 1.387 . S
H794 C806 0.930 . S
H795 C808 0.930 . S
H796 C809 0.930 . S
H797 C813 0.959 . S
H798 C813 0.959 . S
H799 C813 0.961 . S
H800 C814 0.960 . S
H801 C814 0.961 . S
H802 C814 0.959 . S
H803 C817 0.929 . S
H804 C818 0.931 . S
H805 C820 0.930 . S
C806 H794 0.930 . S
C806 C807 1.399 . S
C806 C811 1.399 . S
C807 C806 1.399 . S
C807 C808 1.376 . S
C808 H795 0.930 . S
C808 C807 1.376 . S
C808 C809 1.388 . S
C809 H796 0.930 . S
C809 C808 1.388 . S
C809 C810 1.390 . S
C810 C809 1.390 . S
C810 C811 1.394 . S
C810 C816 1.465 . S
C811 C806 1.399 . S
C811 C810 1.394 . S
C811 C812 1.516 . S
C812 C811 1.516 . S
C812 C813 1.502 . S
C812 C814 1.561 . S
C812 C815 1.526 . S
C813 H797 0.959 . S
C813 H798 0.959 . S
C813 H799 0.961 . S
C813 C812 1.502 . S
C814 H800 0.960 . S
C814 H801 0.961 . S
C814 H802 0.959 . S
C814 C812 1.561 . S
C815 C812 1.526 . S
C815 C816 1.396 . S
C815 C820 1.390 . S
C816 C810 1.465 . S
C816 C815 1.396 . S
C816 C817 1.399 . S
C817 H803 0.929 . S
C817 C816 1.399 . S
C817 C818 1.385 . S
C818 H804 0.931 . S
C818 C817 1.385 . S
C818 C819 1.389 . S
C819 C818 1.389 . S
C819 C820 1.387 . S
C820 H805 0.930 . S
C820 C815 1.390 . S
C820 C819 1.387 . S
H821 C833 0.930 . S
H822 C835 0.930 . S
H823 C836 0.930 . S
H824 C840 0.959 . S
H825 C840 0.959 . S
H826 C840 0.961 . S
H827 C841 0.960 . S
H828 C841 0.961 . S
H829 C841 0.959 . S
H830 C844 0.929 . S
H831 C845 0.931 . S
H832 C847 0.930 . S
C833 H821 0.930 . S
C833 C834 1.399 . S
C833 C838 1.399 . S
C834 C833 1.399 . S
C834 C835 1.376 . S
C835 H822 0.930 . S
C835 C834 1.376 . S
C835 C836 1.388 . S
C836 H823 0.930 . S
C836 C835 1.388 . S
C836 C837 1.390 . S
C837 C836 1.390 . S
C837 C838 1.394 . S
C837 C843 1.465 . S
C838 C833 1.399 . S
C838 C837 1.394 . S
C838 C839 1.516 . S
C839 C838 1.516 . S
C839 C840 1.502 . S
C839 C841 1.561 . S
C839 C842 1.526 . S
C840 H824 0.959 . S
C840 H825 0.959 . S
C840 H826 0.961 . S
C840 C839 1.502 . S
C841 H827 0.960 . S
C841 H828 0.961 . S
C841 H829 0.959 . S
C841 C839 1.561 . S
C842 C839 1.526 . S
C842 C843 1.396 . S
C842 C847 1.390 . S
C843 C837 1.465 . S
C843 C842 1.396 . S
C843 C844 1.399 . S
C844 H830 0.929 . S
C844 C843 1.399 . S
C844 C845 1.385 . S
C845 H831 0.931 . S
C845 C844 1.385 . S
C845 C846 1.389 . S
C846 C845 1.389 . S
C846 C847 1.387 . S
C847 H832 0.930 . S
C847 C842 1.390 . S
C847 C846 1.387 . S
H848 C860 0.930 1_554 S
H849 C862 0.930 . S
H850 C863 0.930 . S
H851 C867 0.959 . S
H852 C867 0.959 . S
H853 C867 0.961 . S
H854 C868 0.960 1_554 S
H855 C868 0.961 . S
H856 C868 0.959 . S
H857 C871 0.929 . S
H858 C872 0.931 . S
H859 C874 0.930 . S
C860 H848 0.930 1_556 S
C860 C861 1.399 . S
C860 C865 1.399 . S
C861 C860 1.399 . S
C861 C862 1.376 . S
C862 H849 0.930 . S
C862 C861 1.376 . S
C862 C863 1.388 . S
C863 H850 0.930 . S
C863 C862 1.388 . S
C863 C864 1.390 . S
C864 C863 1.390 . S
C864 C865 1.394 . S
C864 C870 1.465 . S
C865 C860 1.399 . S
C865 C864 1.394 . S
C865 C866 1.516 . S
C866 C865 1.516 . S
C866 C867 1.502 . S
C866 C868 1.561 . S
C866 C869 1.526 . S
C867 H851 0.959 . S
C867 H852 0.959 . S
C867 H853 0.961 . S
C867 C866 1.502 . S
C868 H854 0.960 1_556 S
C868 H855 0.961 . S
C868 H856 0.959 . S
C868 C866 1.561 . S
C869 C866 1.526 . S
C869 C870 1.396 . S
C869 C874 1.390 . S
C870 C864 1.465 . S
C870 C869 1.396 . S
C870 C871 1.399 . S
C871 H857 0.929 . S
C871 C870 1.399 . S
C871 C872 1.385 . S
C872 H858 0.931 . S
C872 C871 1.385 . S
C872 C873 1.389 . S
C873 C872 1.389 . S
C873 C874 1.387 . S
C874 H859 0.930 . S
C874 C869 1.390 . S
C874 C873 1.387 . S
H875 C887 0.930 . S
H876 C889 0.930 1_556 S
H877 C890 0.930 . S
H878 C894 0.959 . S
H879 C894 0.959 . S
H880 C894 0.961 . S
H881 C895 0.960 . S
H882 C895 0.961 . S
H883 C895 0.959 . S
H884 C898 0.929 . S
H885 C899 0.931 . S
H886 C901 0.930 . S
C887 H875 0.930 . S
C887 C888 1.399 . S
C887 C892 1.399 . S
C888 C887 1.399 . S
C888 C889 1.376 . S
C889 H876 0.930 1_554 S
C889 C888 1.376 . S
C889 C890 1.388 . S
C890 H877 0.930 . S
C890 C889 1.388 . S
C890 C891 1.390 . S
C891 C890 1.390 . S
C891 C892 1.394 . S
C891 C897 1.465 . S
C892 C887 1.399 . S
C892 C891 1.394 . S
C892 C893 1.516 . S
C893 C892 1.516 . S
C893 C894 1.502 . S
C893 C895 1.561 . S
C893 C896 1.526 . S
C894 H878 0.959 . S
C894 H879 0.959 . S
C894 H880 0.961 . S
C894 C893 1.502 . S
C895 H881 0.960 . S
C895 H882 0.961 . S
C895 H883 0.959 . S
C895 C893 1.561 . S
C896 C893 1.526 . S
C896 C897 1.396 . S
C896 C901 1.390 . S
C897 C891 1.465 . S
C897 C896 1.396 . S
C897 C898 1.399 . S
C898 H884 0.929 . S
C898 C897 1.399 . S
C898 C899 1.385 . S
C899 H885 0.931 . S
C899 C898 1.385 . S
C899 C900 1.389 . S
C900 C899 1.389 . S
C900 C901 1.387 . S
C901 H886 0.930 . S
C901 C896 1.390 . S
C901 C900 1.387 . S
H902 C914 0.930 . S
H903 C916 0.930 . S
H904 C917 0.930 . S
H905 C921 0.959 . S
H906 C921 0.959 . S
H907 C921 0.961 . S
H908 C922 0.960 . S
H909 C922 0.961 . S
H910 C922 0.959 . S
H911 C925 0.929 . S
H912 C926 0.931 . S
H913 C928 0.930 . S
C914 H902 0.930 . S
C914 C915 1.399 . S
C914 C919 1.399 . S
C915 C914 1.399 . S
C915 C916 1.376 . S
C916 H903 0.930 . S
C916 C915 1.376 . S
C916 C917 1.388 . S
C917 H904 0.930 . S
C917 C916 1.388 . S
C917 C918 1.390 . S
C918 C917 1.390 . S
C918 C919 1.394 . S
C918 C924 1.465 . S
C919 C914 1.399 . S
C919 C918 1.394 . S
C919 C920 1.516 . S
C920 C919 1.516 . S
C920 C921 1.502 . S
C920 C922 1.561 . S
C920 C923 1.526 . S
C921 H905 0.959 . S
C921 H906 0.959 . S
C921 H907 0.961 . S
C921 C920 1.502 . S
C922 H908 0.960 . S
C922 H909 0.961 . S
C922 H910 0.959 . S
C922 C920 1.561 . S
C923 C920 1.526 . S
C923 C924 1.396 . S
C923 C928 1.390 . S
C924 C918 1.465 . S
C924 C923 1.396 . S
C924 C925 1.399 . S
C925 H911 0.929 . S
C925 C924 1.399 . S
C925 C926 1.385 . S
C926 H912 0.931 . S
C926 C925 1.385 . S
C926 C927 1.389 . S
C927 C926 1.389 . S
C927 C928 1.387 . S
C928 H913 0.930 . S
C928 C923 1.390 . S
C928 C927 1.387 . S
H929 C941 0.930 . S
H930 C943 0.930 . S
H931 C944 0.930 . S
H932 C948 0.959 . S
H933 C948 0.959 . S
H934 C948 0.961 . S
H935 C949 0.960 . S
H936 C949 0.961 . S
H937 C949 0.959 . S
H938 C952 0.929 . S
H939 C953 0.931 . S
H940 C955 0.930 . S
C941 H929 0.930 . S
C941 C942 1.399 . S
C941 C946 1.399 . S
C942 C941 1.399 . S
C942 C943 1.376 . S
C943 H930 0.930 . S
C943 C942 1.376 . S
C943 C944 1.388 . S
C944 H931 0.930 . S
C944 C943 1.388 . S
C944 C945 1.390 . S
C945 C944 1.390 . S
C945 C946 1.394 . S
C945 C951 1.465 . S
C946 C941 1.399 . S
C946 C945 1.394 . S
C946 C947 1.516 . S
C947 C946 1.516 . S
C947 C948 1.502 . S
C947 C949 1.561 . S
C947 C950 1.526 . S
C948 H932 0.959 . S
C948 H933 0.959 . S
C948 H934 0.961 . S
C948 C947 1.502 . S
C949 H935 0.960 . S
C949 H936 0.961 . S
C949 H937 0.959 . S
C949 C947 1.561 . S
C950 C947 1.526 . S
C950 C951 1.396 . S
C950 C955 1.390 . S
C951 C945 1.465 . S
C951 C950 1.396 . S
C951 C952 1.399 . S
C952 H938 0.929 . S
C952 C951 1.399 . S
C952 C953 1.385 . S
C953 H939 0.931 . S
C953 C952 1.385 . S
C953 C954 1.389 . S
C954 C953 1.389 . S
C954 C955 1.387 . S
C955 H940 0.930 . S
C955 C950 1.390 . S
C955 C954 1.387 . S
H956 C968 0.930 . S
H957 C970 0.930 . S
H958 C971 0.930 1_556 S
H959 C975 0.959 . S
H960 C975 0.959 . S
H961 C975 0.961 . S
H962 C976 0.960 . S
H963 C976 0.961 . S
H964 C976 0.959 . S
H965 C979 0.929 . S
H966 C980 0.931 . S
H967 C982 0.930 . S
C968 H956 0.930 . S
C968 C969 1.399 . S
C968 C973 1.399 . S
C969 C968 1.399 . S
C969 C970 1.376 1_554 S
C970 H957 0.930 . S
C970 C969 1.376 1_556 S
C970 C971 1.388 1_556 S
C971 H958 0.930 1_554 S
C971 C970 1.388 1_554 S
C971 C972 1.390 . S
C972 C971 1.390 . S
C972 C973 1.394 . S
C972 C978 1.465 . S
C973 C968 1.399 . S
C973 C972 1.394 . S
C973 C974 1.516 . S
C974 C973 1.516 . S
C974 C975 1.502 . S
C974 C976 1.561 . S
C974 C977 1.526 . S
C975 H959 0.959 . S
C975 H960 0.959 . S
C975 H961 0.961 . S
C975 C974 1.502 . S
C976 H962 0.960 . S
C976 H963 0.961 . S
C976 H964 0.959 . S
C976 C974 1.561 . S
C977 C974 1.526 . S
C977 C978 1.396 . S
C977 C982 1.390 . S
C978 C972 1.465 . S
C978 C977 1.396 . S
C978 C979 1.399 . S
C979 H965 0.929 . S
C979 C978 1.399 . S
C979 C980 1.385 . S
C980 H966 0.931 . S
C980 C979 1.385 . S
C980 C981 1.389 . S
C981 C980 1.389 . S
C981 C982 1.387 . S
C982 H967 0.930 . S
C982 C977 1.390 . S
C982 C981 1.387 . S
H983 C995 0.930 . S
H984 C997 0.930 . S
H985 C998 0.930 . S
H986 C1002 0.959 . S
H987 C1002 0.959 . S
H988 C1002 0.961 . S
H989 C1003 0.960 1_554 S
H990 C1003 0.961 . S
H991 C1003 0.959 . S
H992 C1006 0.929 . S
H993 C1007 0.931 . S
H994 C1009 0.930 . S
C995 H983 0.930 . S
C995 C996 1.399 . S
C995 C1000 1.399 . S
C996 C995 1.399 . S
C996 C997 1.376 . S
C997 H984 0.930 . S
C997 C996 1.376 . S
C997 C998 1.388 . S
C998 H985 0.930 . S
C998 C997 1.388 . S
C998 C999 1.390 . S
C999 C998 1.390 . S
C999 C1000 1.394 . S
C999 C1005 1.465 . S
C1000 C995 1.399 . S
C1000 C999 1.394 . S
C1000 C1001 1.516 . S
C1001 C1000 1.516 . S
C1001 C1002 1.502 . S
C1001 C1003 1.561 . S
C1001 C1004 1.526 . S
C1002 H986 0.959 . S
C1002 H987 0.959 . S
C1002 H988 0.961 . S
C1002 C1001 1.502 . S
C1003 H989 0.960 1_556 S
C1003 H990 0.961 . S
C1003 H991 0.959 . S
C1003 C1001 1.561 . S
C1004 C1001 1.526 . S
C1004 C1005 1.396 . S
C1004 C1009 1.390 . S
C1005 C999 1.465 . S
C1005 C1004 1.396 . S
C1005 C1006 1.399 . S
C1006 H992 0.929 . S
C1006 C1005 1.399 . S
C1006 C1007 1.385 . S
C1007 H993 0.931 . S
C1007 C1006 1.385 . S
C1007 C1008 1.389 . S
C1008 C1007 1.389 . S
C1008 C1009 1.387 . S
C1009 H994 0.930 . S
C1009 C1004 1.390 . S
C1009 C1008 1.387 . S
H1010 C1022 0.930 . S
H1011 C1024 0.930 . S
H1012 C1025 0.930 . S
H1013 C1029 0.959 . S
H1014 C1029 0.959 . S
H1015 C1029 0.961 . S
H1016 C1030 0.960 . S
H1017 C1030 0.961 . S
H1018 C1030 0.959 . S
H1019 C1033 0.929 . S
H1020 C1034 0.931 . S
H1021 C1036 0.930 . S
C1022 H1010 0.930 . S
C1022 C1023 1.399 . S
C1022 C1027 1.399 . S
C1023 C1022 1.399 . S
C1023 C1024 1.376 . S
C1024 H1011 0.930 . S
C1024 C1023 1.376 . S
C1024 C1025 1.388 . S
C1025 H1012 0.930 . S
C1025 C1024 1.388 . S
C1025 C1026 1.390 . S
C1026 C1025 1.390 . S
C1026 C1027 1.394 . S
C1026 C1032 1.465 . S
C1027 C1022 1.399 . S
C1027 C1026 1.394 . S
C1027 C1028 1.516 . S
C1028 C1027 1.516 . S
C1028 C1029 1.502 . S
C1028 C1030 1.561 . S
C1028 C1031 1.526 . S
C1029 H1013 0.959 . S
C1029 H1014 0.959 . S
C1029 H1015 0.961 . S
C1029 C1028 1.502 . S
C1030 H1016 0.960 . S
C1030 H1017 0.961 . S
C1030 H1018 0.959 . S
C1030 C1028 1.561 . S
C1031 C1028 1.526 . S
C1031 C1032 1.396 . S
C1031 C1036 1.390 . S
C1032 C1026 1.465 . S
C1032 C1031 1.396 . S
C1032 C1033 1.399 . S
C1033 H1019 0.929 . S
C1033 C1032 1.399 . S
C1033 C1034 1.385 . S
C1034 H1020 0.931 . S
C1034 C1033 1.385 . S
C1034 C1035 1.389 . S
C1035 C1034 1.389 . S
C1035 C1036 1.387 . S
C1036 H1021 0.930 . S
C1036 C1031 1.390 . S
C1036 C1035 1.387 . S
H1037 C1049 0.930 . S
H1038 C1051 0.930 . S
H1039 C1052 0.930 . S
H1040 C1056 0.959 . S
H1041 C1056 0.959 . S
H1042 C1056 0.961 . S
H1043 C1057 0.960 . S
H1044 C1057 0.961 . S
H1045 C1057 0.959 . S
H1046 C1060 0.929 . S
H1047 C1061 0.931 . S
H1048 C1063 0.930 . S
C1049 H1037 0.930 . S
C1049 C1050 1.399 . S
C1049 C1054 1.399 . S
C1050 C1049 1.399 . S
C1050 C1051 1.376 . S
C1051 H1038 0.930 . S
C1051 C1050 1.376 . S
C1051 C1052 1.388 . S
C1052 H1039 0.930 . S
C1052 C1051 1.388 . S
C1052 C1053 1.390 . S
C1053 C1052 1.390 . S
C1053 C1054 1.394 . S
C1053 C1059 1.465 . S
C1054 C1049 1.399 . S
C1054 C1053 1.394 . S
C1054 C1055 1.516 . S
C1055 C1054 1.516 . S
C1055 C1056 1.502 . S
C1055 C1057 1.561 . S
C1055 C1058 1.526 . S
C1056 H1040 0.959 . S
C1056 H1041 0.959 . S
C1056 H1042 0.961 . S
C1056 C1055 1.502 . S
C1057 H1043 0.960 . S
C1057 H1044 0.961 . S
C1057 H1045 0.959 . S
C1057 C1055 1.561 . S
C1058 C1055 1.526 . S
C1058 C1059 1.396 . S
C1058 C1063 1.390 . S
C1059 C1053 1.465 . S
C1059 C1058 1.396 . S
C1059 C1060 1.399 . S
C1060 H1046 0.929 . S
C1060 C1059 1.399 . S
C1060 C1061 1.385 . S
C1061 H1047 0.931 . S
C1061 C1060 1.385 . S
C1061 C1062 1.389 . S
C1062 C1061 1.389 . S
C1062 C1063 1.387 . S
C1063 H1048 0.930 . S
C1063 C1058 1.390 . S
C1063 C1062 1.387 . S
H1064 C1076 0.930 . S
H1065 C1078 0.930 . S
H1066 C1079 0.930 . S
H1067 C1083 0.959 . S
H1068 C1083 0.959 . S
H1069 C1083 0.961 . S
H1070 C1084 0.960 . S
H1071 C1084 0.961 . S
H1072 C1084 0.959 . S
H1073 C1087 0.929 . S
H1074 C1088 0.931 . S
H1075 C1090 0.930 . S
C1076 H1064 0.930 . S
C1076 C1077 1.399 . S
C1076 C1081 1.399 . S
C1077 C1076 1.399 . S
C1077 C1078 1.376 . S
C1078 H1065 0.930 . S
C1078 C1077 1.376 . S
C1078 C1079 1.388 . S
C1079 H1066 0.930 . S
C1079 C1078 1.388 . S
C1079 C1080 1.390 . S
C1080 C1079 1.390 . S
C1080 C1081 1.394 . S
C1080 C1086 1.465 . S
C1081 C1076 1.399 . S
C1081 C1080 1.394 . S
C1081 C1082 1.516 . S
C1082 C1081 1.516 . S
C1082 C1083 1.502 . S
C1082 C1084 1.561 . S
C1082 C1085 1.526 . S
C1083 H1067 0.959 . S
C1083 H1068 0.959 . S
C1083 H1069 0.961 . S
C1083 C1082 1.502 . S
C1084 H1070 0.960 . S
C1084 H1071 0.961 . S
C1084 H1072 0.959 . S
C1084 C1082 1.561 . S
C1085 C1082 1.526 . S
C1085 C1086 1.396 . S
C1085 C1090 1.390 . S
C1086 C1080 1.465 . S
C1086 C1085 1.396 . S
C1086 C1087 1.399 . S
C1087 H1073 0.929 . S
C1087 C1086 1.399 . S
C1087 C1088 1.385 . S
C1088 H1074 0.931 . S
C1088 C1087 1.385 . S
C1088 C1089 1.389 . S
C1089 C1088 1.389 . S
C1089 C1090 1.387 . S
C1090 H1075 0.930 . S
C1090 C1085 1.390 . S
C1090 C1089 1.387 . S
H1091 C1103 0.930 . S
H1092 C1105 0.930 . S
H1093 C1106 0.930 . S
H1094 C1110 0.959 . S
H1095 C1110 0.959 . S
H1096 C1110 0.961 . S
H1097 C1111 0.960 . S
H1098 C1111 0.961 . S
H1099 C1111 0.959 . S
H1100 C1114 0.929 . S
H1101 C1115 0.931 . S
H1102 C1117 0.930 . S
C1103 H1091 0.930 . S
C1103 C1104 1.399 . S
C1103 C1108 1.399 . S
C1104 C1103 1.399 . S
C1104 C1105 1.376 . S
C1105 H1092 0.930 . S
C1105 C1104 1.376 . S
C1105 C1106 1.388 . S
C1106 H1093 0.930 . S
C1106 C1105 1.388 . S
C1106 C1107 1.390 . S
C1107 C1106 1.390 . S
C1107 C1108 1.394 . S
C1107 C1113 1.465 . S
C1108 C1103 1.399 . S
C1108 C1107 1.394 . S
C1108 C1109 1.516 . S
C1109 C1108 1.516 . S
C1109 C1110 1.502 . S
C1109 C1111 1.561 . S
C1109 C1112 1.526 . S
C1110 H1094 0.959 . S
C1110 H1095 0.959 . S
C1110 H1096 0.961 . S
C1110 C1109 1.502 . S
C1111 H1097 0.960 . S
C1111 H1098 0.961 . S
C1111 H1099 0.959 . S
C1111 C1109 1.561 . S
C1112 C1109 1.526 . S
C1112 C1113 1.396 . S
C1112 C1117 1.390 . S
C1113 C1107 1.465 . S
C1113 C1112 1.396 . S
C1113 C1114 1.399 . S
C1114 H1100 0.929 . S
C1114 C1113 1.399 . S
C1114 C1115 1.385 . S
C1115 H1101 0.931 . S
C1115 C1114 1.385 . S
C1115 C1116 1.389 . S
C1116 C1115 1.389 . S
C1116 C1117 1.387 . S
C1117 H1102 0.930 . S
C1117 C1112 1.390 . S
C1117 C1116 1.387 . S
H1118 C1130 0.930 . S
H1119 C1132 0.930 . S
H1120 C1133 0.930 . S
H1121 C1137 0.959 . S
H1122 C1137 0.959 . S
H1123 C1137 0.961 . S
H1124 C1138 0.960 . S
H1125 C1138 0.961 . S
H1126 C1138 0.959 . S
H1127 C1141 0.929 . S
H1128 C1142 0.931 . S
H1129 C1144 0.930 . S
C1130 H1118 0.930 . S
C1130 C1131 1.399 . S
C1130 C1135 1.399 . S
C1131 C1130 1.399 . S
C1131 C1132 1.376 . S
C1132 H1119 0.930 . S
C1132 C1131 1.376 . S
C1132 C1133 1.388 . S
C1133 H1120 0.930 . S
C1133 C1132 1.388 . S
C1133 C1134 1.390 . S
C1134 C1133 1.390 . S
C1134 C1135 1.394 . S
C1134 C1140 1.465 . S
C1135 C1130 1.399 . S
C1135 C1134 1.394 . S
C1135 C1136 1.516 . S
C1136 C1135 1.516 . S
C1136 C1137 1.502 . S
C1136 C1138 1.561 . S
C1136 C1139 1.526 . S
C1137 H1121 0.959 . S
C1137 H1122 0.959 . S
C1137 H1123 0.961 . S
C1137 C1136 1.502 . S
C1138 H1124 0.960 . S
C1138 H1125 0.961 . S
C1138 H1126 0.959 . S
C1138 C1136 1.561 . S
C1139 C1136 1.526 . S
C1139 C1140 1.396 . S
C1139 C1144 1.390 . S
C1140 C1134 1.465 . S
C1140 C1139 1.396 . S
C1140 C1141 1.399 . S
C1141 H1127 0.929 . S
C1141 C1140 1.399 . S
C1141 C1142 1.385 . S
C1142 H1128 0.931 . S
C1142 C1141 1.385 . S
C1142 C1143 1.389 . S
C1143 C1142 1.389 . S
C1143 C1144 1.387 . S
C1144 H1129 0.930 . S
C1144 C1139 1.390 . S
C1144 C1143 1.387 . S
H1145 C1157 0.930 . S
H1146 C1159 0.930 . S
H1147 C1160 0.930 . S
H1148 C1164 0.959 . S
H1149 C1164 0.959 . S
H1150 C1164 0.961 . S
H1151 C1165 0.960 . S
H1152 C1165 0.961 . S
H1153 C1165 0.959 . S
H1154 C1168 0.929 1_556 S
H1155 C1169 0.931 . S
H1156 C1171 0.930 . S
C1157 H1145 0.930 . S
C1157 C1158 1.399 . S
C1157 C1162 1.399 . S
C1158 C1157 1.399 . S
C1158 C1159 1.376 . S
C1159 H1146 0.930 . S
C1159 C1158 1.376 . S
C1159 C1160 1.388 . S
C1160 H1147 0.930 . S
C1160 C1159 1.388 . S
C1160 C1161 1.390 . S
C1161 C1160 1.390 . S
C1161 C1162 1.394 . S
C1161 C1167 1.465 . S
C1162 C1157 1.399 . S
C1162 C1161 1.394 . S
C1162 C1163 1.516 . S
C1163 C1162 1.516 . S
C1163 C1164 1.502 . S
C1163 C1165 1.561 . S
C1163 C1166 1.526 . S
C1164 H1148 0.959 . S
C1164 H1149 0.959 . S
C1164 H1150 0.961 . S
C1164 C1163 1.502 . S
C1165 H1151 0.960 . S
C1165 H1152 0.961 . S
C1165 H1153 0.959 . S
C1165 C1163 1.561 . S
C1166 C1163 1.526 . S
C1166 C1167 1.396 . S
C1166 C1171 1.390 . S
C1167 C1161 1.465 . S
C1167 C1166 1.396 . S
C1167 C1168 1.399 . S
C1168 H1154 0.929 1_554 S
C1168 C1167 1.399 . S
C1168 C1169 1.385 1_554 S
C1169 H1155 0.931 . S
C1169 C1168 1.385 1_556 S
C1169 C1170 1.389 1_556 S
C1170 C1169 1.389 1_554 S
C1170 C1171 1.387 . S
C1171 H1156 0.930 . S
C1171 C1166 1.390 . S
C1171 C1170 1.387 . S
H1172 C1184 0.930 . S
H1173 C1186 0.930 . S
H1174 C1187 0.930 . S
H1175 C1191 0.959 . S
H1176 C1191 0.959 . S
H1177 C1191 0.961 . S
H1178 C1192 0.960 . S
H1179 C1192 0.961 . S
H1180 C1192 0.959 . S
H1181 C1195 0.929 . S
H1182 C1196 0.931 . S
H1183 C1198 0.930 . S
C1184 H1172 0.930 . S
C1184 C1185 1.399 . S
C1184 C1189 1.399 . S
C1185 C1184 1.399 . S
C1185 C1186 1.376 . S
C1186 H1173 0.930 . S
C1186 C1185 1.376 . S
C1186 C1187 1.388 . S
C1187 H1174 0.930 . S
C1187 C1186 1.388 . S
C1187 C1188 1.390 . S
C1188 C1187 1.390 . S
C1188 C1189 1.394 . S
C1188 C1194 1.465 . S
C1189 C1184 1.399 . S
C1189 C1188 1.394 . S
C1189 C1190 1.516 . S
C1190 C1189 1.516 . S
C1190 C1191 1.502 . S
C1190 C1192 1.561 . S
C1190 C1193 1.526 . S
C1191 H1175 0.959 . S
C1191 H1176 0.959 . S
C1191 H1177 0.961 . S
C1191 C1190 1.502 . S
C1192 H1178 0.960 . S
C1192 H1179 0.961 . S
C1192 H1180 0.959 . S
C1192 C1190 1.561 . S
C1193 C1190 1.526 . S
C1193 C1194 1.396 . S
C1193 C1198 1.390 . S
C1194 C1188 1.465 . S
C1194 C1193 1.396 . S
C1194 C1195 1.399 . S
C1195 H1181 0.929 . S
C1195 C1194 1.399 . S
C1195 C1196 1.385 . S
C1196 H1182 0.931 . S
C1196 C1195 1.385 . S
C1196 C1197 1.389 . S
C1197 C1196 1.389 . S
C1197 C1198 1.387 . S
C1198 H1183 0.930 . S
C1198 C1193 1.390 . S
C1198 C1197 1.387 . S
H1199 C1211 0.930 . S
H1200 C1213 0.930 . S
H1201 C1214 0.930 . S
H1202 C1218 0.959 . S
H1203 C1218 0.959 . S
H1204 C1218 0.961 . S
H1205 C1219 0.960 . S
H1206 C1219 0.961 . S
H1207 C1219 0.959 . S
H1208 C1222 0.929 . S
H1209 C1223 0.931 . S
H1210 C1225 0.930 . S
C1211 H1199 0.930 . S
C1211 C1212 1.399 . S
C1211 C1216 1.399 . S
C1212 C1211 1.399 . S
C1212 C1213 1.376 . S
C1213 H1200 0.930 . S
C1213 C1212 1.376 . S
C1213 C1214 1.388 . S
C1214 H1201 0.930 . S
C1214 C1213 1.388 . S
C1214 C1215 1.390 . S
C1215 C1214 1.390 . S
C1215 C1216 1.394 . S
C1215 C1221 1.465 . S
C1216 C1211 1.399 . S
C1216 C1215 1.394 . S
C1216 C1217 1.516 . S
C1217 C1216 1.516 . S
C1217 C1218 1.502 . S
C1217 C1219 1.561 . S
C1217 C1220 1.526 . S
C1218 H1202 0.959 . S
C1218 H1203 0.959 . S
C1218 H1204 0.961 . S
C1218 C1217 1.502 . S
C1219 H1205 0.960 . S
C1219 H1206 0.961 . S
C1219 H1207 0.959 . S
C1219 C1217 1.561 . S
C1220 C1217 1.526 . S
C1220 C1221 1.396 . S
C1220 C1225 1.390 . S
C1221 C1215 1.465 . S
C1221 C1220 1.396 . S
C1221 C1222 1.399 . S
C1222 H1208 0.929 . S
C1222 C1221 1.399 . S
C1222 C1223 1.385 . S
C1223 H1209 0.931 . S
C1223 C1222 1.385 . S
C1223 C1224 1.389 . S
C1224 C1223 1.389 . S
C1224 C1225 1.387 . S
C1225 H1210 0.930 . S
C1225 C1220 1.390 . S
C1225 C1224 1.387 . S
H1226 C1238 0.930 . S
H1227 C1240 0.930 . S
H1228 C1241 0.930 1_556 S
H1229 C1245 0.959 . S
H1230 C1245 0.959 . S
H1231 C1245 0.961 . S
H1232 C1246 0.960 . S
H1233 C1246 0.961 . S
H1234 C1246 0.959 . S
H1235 C1249 0.929 . S
H1236 C1250 0.931 . S
H1237 C1252 0.930 . S
C1238 H1226 0.930 . S
C1238 C1239 1.399 . S
C1238 C1243 1.399 . S
C1239 C1238 1.399 . S
C1239 C1240 1.376 1_554 S
C1240 H1227 0.930 . S
C1240 C1239 1.376 1_556 S
C1240 C1241 1.388 1_556 S
C1241 H1228 0.930 1_554 S
C1241 C1240 1.388 1_554 S
C1241 C1242 1.390 . S
C1242 C1241 1.390 . S
C1242 C1243 1.394 . S
C1242 C1248 1.465 . S
C1243 C1238 1.399 . S
C1243 C1242 1.394 . S
C1243 C1244 1.516 . S
C1244 C1243 1.516 . S
C1244 C1245 1.502 . S
C1244 C1246 1.561 . S
C1244 C1247 1.526 . S
C1245 H1229 0.959 . S
C1245 H1230 0.959 . S
C1245 H1231 0.961 . S
C1245 C1244 1.502 . S
C1246 H1232 0.960 . S
C1246 H1233 0.961 . S
C1246 H1234 0.959 . S
C1246 C1244 1.561 . S
C1247 C1244 1.526 . S
C1247 C1248 1.396 . S
C1247 C1252 1.390 . S
C1248 C1242 1.465 . S
C1248 C1247 1.396 . S
C1248 C1249 1.399 . S
C1249 H1235 0.929 . S
C1249 C1248 1.399 . S
C1249 C1250 1.385 . S
C1250 H1236 0.931 . S
C1250 C1249 1.385 . S
C1250 C1251 1.389 . S
C1251 C1250 1.389 . S
C1251 C1252 1.387 . S
C1252 H1237 0.930 . S
C1252 C1247 1.390 . S
C1252 C1251 1.387 . S
H1253 C1265 0.930 . S
H1254 C1267 0.930 . S
H1255 C1268 0.930 . S
H1256 C1272 0.959 . S
H1257 C1272 0.959 . S
H1258 C1272 0.961 . S
H1259 C1273 0.960 . S
H1260 C1273 0.961 1_554 S
H1261 C1273 0.959 . S
H1262 C1276 0.929 . S
H1263 C1277 0.931 . S
H1264 C1279 0.930 1_554 S
C1265 H1253 0.930 . S
C1265 C1266 1.399 . S
C1265 C1270 1.399 . S
C1266 C1265 1.399 . S
C1266 C1267 1.376 . S
C1267 H1254 0.930 . S
C1267 C1266 1.376 . S
C1267 C1268 1.388 . S
C1268 H1255 0.930 . S
C1268 C1267 1.388 . S
C1268 C1269 1.390 . S
C1269 C1268 1.390 . S
C1269 C1270 1.394 . S
C1269 C1275 1.465 . S
C1270 C1265 1.399 . S
C1270 C1269 1.394 . S
C1270 C1271 1.516 . S
C1271 C1270 1.516 . S
C1271 C1272 1.502 . S
C1271 C1273 1.561 . S
C1271 C1274 1.526 . S
C1272 H1256 0.959 . S
C1272 H1257 0.959 . S
C1272 H1258 0.961 . S
C1272 C1271 1.502 . S
C1273 H1259 0.960 . S
C1273 H1260 0.961 1_556 S
C1273 H1261 0.959 . S
C1273 C1271 1.561 . S
C1274 C1271 1.526 . S
C1274 C1275 1.396 . S
C1274 C1279 1.390 . S
C1275 C1269 1.465 . S
C1275 C1274 1.396 . S
C1275 C1276 1.399 . S
C1276 H1262 0.929 . S
C1276 C1275 1.399 . S
C1276 C1277 1.385 . S
C1277 H1263 0.931 . S
C1277 C1276 1.385 . S
C1277 C1278 1.389 . S
C1278 C1277 1.389 . S
C1278 C1279 1.387 . S
C1279 H1264 0.930 1_556 S
C1279 C1274 1.390 . S
C1279 C1278 1.387 . S
H1280 C1292 0.930 . S
H1281 C1294 0.930 . S
H1282 C1295 0.930 1_556 S
H1283 C1299 0.959 . S
H1284 C1299 0.959 . S
H1285 C1299 0.961 . S
H1286 C1300 0.960 . S
H1287 C1300 0.961 . S
H1288 C1300 0.959 . S
H1289 C1303 0.929 1_556 S
H1290 C1304 0.931 . S
H1291 C1306 0.930 . S
C1292 H1280 0.930 . S
C1292 C1293 1.399 . S
C1292 C1297 1.399 . S
C1293 C1292 1.399 . S
C1293 C1294 1.376 . S
C1294 H1281 0.930 . S
C1294 C1293 1.376 . S
C1294 C1295 1.388 . S
C1295 H1282 0.930 1_554 S
C1295 C1294 1.388 . S
C1295 C1296 1.390 . S
C1296 C1295 1.390 . S
C1296 C1297 1.394 . S
C1296 C1302 1.465 . S
C1297 C1292 1.399 . S
C1297 C1296 1.394 . S
C1297 C1298 1.516 . S
C1298 C1297 1.516 . S
C1298 C1299 1.502 . S
C1298 C1300 1.561 . S
C1298 C1301 1.526 . S
C1299 H1283 0.959 . S
C1299 H1284 0.959 . S
C1299 H1285 0.961 . S
C1299 C1298 1.502 . S
C1300 H1286 0.960 . S
C1300 H1287 0.961 . S
C1300 H1288 0.959 . S
C1300 C1298 1.561 . S
C1301 C1298 1.526 . S
C1301 C1302 1.396 . S
C1301 C1306 1.390 . S
C1302 C1296 1.465 . S
C1302 C1301 1.396 . S
C1302 C1303 1.399 . S
C1303 H1289 0.929 1_554 S
C1303 C1302 1.399 . S
C1303 C1304 1.385 . S
C1304 H1290 0.931 . S
C1304 C1303 1.385 . S
C1304 C1305 1.389 . S
C1305 C1304 1.389 . S
C1305 C1306 1.387 . S
C1306 H1291 0.930 . S
C1306 C1301 1.390 . S
C1306 C1305 1.387 . S
H1307 C1319 0.930 . S
H1308 C1321 0.930 . S
H1309 C1322 0.930 . S
H1310 C1326 0.962 . S
H1311 C1326 0.976 . S
H1312 C1326 0.942 1_655 S
H1313 C1327 0.960 1_655 S
H1314 C1327 0.960 . S
H1315 C1327 0.955 . S
H1316 C1330 0.929 . S
H1317 C1331 0.931 . S
H1318 C1333 0.930 . S
C1319 H1307 0.930 . S
C1319 C1320 1.399 . S
C1319 C1324 1.399 . S
C1320 C1319 1.399 . S
C1320 C1321 1.376 . S
C1321 H1308 0.930 . S
C1321 C1320 1.376 . S
C1321 C1322 1.388 . S
C1322 H1309 0.930 . S
C1322 C1321 1.388 . S
C1322 C1323 1.390 . S
C1323 C1322 1.390 . S
C1323 C1324 1.394 . S
C1323 C1329 1.465 1_655 S
C1324 C1319 1.399 . S
C1324 C1323 1.394 . S
C1324 C1325 1.520 1_655 S
C1325 C1324 1.520 1_455 S
C1325 C1326 1.502 . S
C1325 C1327 1.561 . S
C1325 C1328 1.522 . S
C1326 H1310 0.962 . S
C1326 H1311 0.976 . S
C1326 H1312 0.942 1_455 S
C1326 C1325 1.502 . S
C1327 H1313 0.960 1_455 S
C1327 H1314 0.960 . S
C1327 H1315 0.955 . S
C1327 C1325 1.561 . S
C1328 C1325 1.522 . S
C1328 C1329 1.396 . S
C1328 C1333 1.390 . S
C1329 C1323 1.465 1_455 S
C1329 C1328 1.396 . S
C1329 C1330 1.399 . S
C1330 H1316 0.929 . S
C1330 C1329 1.399 . S
C1330 C1331 1.385 . S
C1331 H1317 0.931 . S
C1331 C1330 1.385 . S
C1331 C1332 1.389 . S
C1332 C1331 1.389 . S
C1332 C1333 1.387 . S
C1333 H1318 0.930 . S
C1333 C1328 1.390 . S
C1333 C1332 1.387 . S
H1334 C1346 0.930 . S
H1335 C1348 0.930 . S
H1336 C1349 0.930 . S
H1337 C1353 0.959 . S
H1338 C1353 0.959 . S
H1339 C1353 0.961 . S
H1340 C1354 0.960 . S
H1341 C1354 0.961 . S
H1342 C1354 0.959 . S
H1343 C1357 0.929 . S
H1344 C1358 0.931 . S
H1345 C1360 0.930 . S
C1346 H1334 0.930 . S
C1346 C1347 1.399 . S
C1346 C1351 1.399 . S
C1347 C1346 1.399 . S
C1347 C1348 1.376 . S
C1348 H1335 0.930 . S
C1348 C1347 1.376 . S
C1348 C1349 1.388 . S
C1349 H1336 0.930 . S
C1349 C1348 1.388 . S
C1349 C1350 1.390 . S
C1350 C1349 1.390 . S
C1350 C1351 1.394 . S
C1350 C1356 1.465 . S
C1351 C1346 1.399 . S
C1351 C1350 1.394 . S
C1351 C1352 1.516 . S
C1352 C1351 1.516 . S
C1352 C1353 1.502 . S
C1352 C1354 1.561 . S
C1352 C1355 1.526 . S
C1353 H1337 0.959 . S
C1353 H1338 0.959 . S
C1353 H1339 0.961 . S
C1353 C1352 1.502 . S
C1354 H1340 0.960 . S
C1354 H1341 0.961 . S
C1354 H1342 0.959 . S
C1354 C1352 1.561 . S
C1355 C1352 1.526 . S
C1355 C1356 1.396 . S
C1355 C1360 1.390 . S
C1356 C1350 1.465 . S
C1356 C1355 1.396 . S
C1356 C1357 1.399 . S
C1357 H1343 0.929 . S
C1357 C1356 1.399 . S
C1357 C1358 1.385 . S
C1358 H1344 0.931 . S
C1358 C1357 1.385 . S
C1358 C1359 1.389 . S
C1359 C1358 1.389 . S
C1359 C1360 1.387 . S
C1360 H1345 0.930 . S
C1360 C1355 1.390 . S
C1360 C1359 1.387 . S
H1361 C1373 0.930 . S
H1362 C1375 0.930 . S
H1363 C1376 0.930 . S
H1364 C1380 0.959 . S
H1365 C1380 0.959 . S
H1366 C1380 0.961 . S
H1367 C1381 0.960 . S
H1368 C1381 0.961 . S
H1369 C1381 0.959 . S
H1370 C1384 0.929 . S
H1371 C1385 0.931 . S
H1372 C1387 0.930 . S
C1373 H1361 0.930 . S
C1373 C1374 1.399 . S
C1373 C1378 1.399 . S
C1374 C1373 1.399 . S
C1374 C1375 1.376 . S
C1375 H1362 0.930 . S
C1375 C1374 1.376 . S
C1375 C1376 1.388 . S
C1376 H1363 0.930 . S
C1376 C1375 1.388 . S
C1376 C1377 1.390 . S
C1377 C1376 1.390 . S
C1377 C1378 1.394 . S
C1377 C1383 1.465 . S
C1378 C1373 1.399 . S
C1378 C1377 1.394 . S
C1378 C1379 1.516 . S
C1379 C1378 1.516 . S
C1379 C1380 1.502 . S
C1379 C1381 1.561 . S
C1379 C1382 1.526 . S
C1380 H1364 0.959 . S
C1380 H1365 0.959 . S
C1380 H1366 0.961 . S
C1380 C1379 1.502 . S
C1381 H1367 0.960 . S
C1381 H1368 0.961 . S
C1381 H1369 0.959 . S
C1381 C1379 1.561 . S
C1382 C1379 1.526 . S
C1382 C1383 1.396 . S
C1382 C1387 1.390 . S
C1383 C1377 1.465 . S
C1383 C1382 1.396 . S
C1383 C1384 1.399 . S
C1384 H1370 0.929 . S
C1384 C1383 1.399 . S
C1384 C1385 1.385 . S
C1385 H1371 0.931 . S
C1385 C1384 1.385 . S
C1385 C1386 1.389 . S
C1386 C1385 1.389 . S
C1386 C1387 1.387 . S
C1387 H1372 0.930 . S
C1387 C1382 1.390 . S
C1387 C1386 1.387 . S
H1388 C1400 0.930 . S
H1389 C1402 0.930 . S
H1390 C1403 0.930 . S
H1391 C1407 0.959 1_556 S
H1392 C1407 0.959 . S
H1393 C1407 0.961 . S
H1394 C1408 0.960 . S
H1395 C1408 0.961 . S
H1396 C1408 0.959 1_556 S
H1397 C1411 0.929 . S
H1398 C1412 0.931 . S
H1399 C1414 0.930 . S
C1400 H1388 0.930 . S
C1400 C1401 1.399 . S
C1400 C1405 1.399 . S
C1401 C1400 1.399 . S
C1401 C1402 1.376 . S
C1402 H1389 0.930 . S
C1402 C1401 1.376 . S
C1402 C1403 1.388 . S
C1403 H1390 0.930 . S
C1403 C1402 1.388 . S
C1403 C1404 1.390 . S
C1404 C1403 1.390 . S
C1404 C1405 1.394 . S
C1404 C1410 1.465 . S
C1405 C1400 1.399 . S
C1405 C1404 1.394 . S
C1405 C1406 1.516 . S
C1406 C1405 1.516 . S
C1406 C1407 1.502 1_556 S
C1406 C1408 1.561 1_556 S
C1406 C1409 1.526 . S
C1407 H1391 0.959 1_554 S
C1407 H1392 0.959 . S
C1407 H1393 0.961 . S
C1407 C1406 1.502 1_554 S
C1408 H1394 0.960 . S
C1408 H1395 0.961 . S
C1408 H1396 0.959 1_554 S
C1408 C1406 1.561 1_554 S
C1409 C1406 1.526 . S
C1409 C1410 1.396 . S
C1409 C1414 1.390 . S
C1410 C1404 1.465 . S
C1410 C1409 1.396 . S
C1410 C1411 1.399 . S
C1411 H1397 0.929 . S
C1411 C1410 1.399 . S
C1411 C1412 1.385 . S
C1412 H1398 0.931 . S
C1412 C1411 1.385 . S
C1412 C1413 1.389 . S
C1413 C1412 1.389 . S
C1413 C1414 1.387 . S
C1414 H1399 0.930 . S
C1414 C1409 1.390 . S
C1414 C1413 1.387 . S
H1415 C1427 0.930 . S
H1416 C1429 0.930 . S
H1417 C1430 0.930 . S
H1418 C1434 0.959 . S
H1419 C1434 0.959 . S
H1420 C1434 0.961 . S
H1421 C1435 0.960 1_556 S
H1422 C1435 0.961 1_556 S
H1423 C1435 0.959 . S
H1424 C1438 0.929 . S
H1425 C1439 0.931 . S
H1426 C1441 0.930 . S
C1427 H1415 0.930 . S
C1427 C1428 1.399 . S
C1427 C1432 1.399 . S
C1428 C1427 1.399 . S
C1428 C1429 1.376 . S
C1429 H1416 0.930 . S
C1429 C1428 1.376 . S
C1429 C1430 1.388 . S
C1430 H1417 0.930 . S
C1430 C1429 1.388 . S
C1430 C1431 1.390 . S
C1431 C1430 1.390 . S
C1431 C1432 1.394 . S
C1431 C1437 1.465 . S
C1432 C1427 1.399 . S
C1432 C1431 1.394 . S
C1432 C1433 1.516 . S
C1433 C1432 1.516 . S
C1433 C1434 1.502 . S
C1433 C1435 1.561 . S
C1433 C1436 1.526 . S
C1434 H1418 0.959 . S
C1434 H1419 0.959 . S
C1434 H1420 0.961 . S
C1434 C1433 1.502 . S
C1435 H1421 0.960 1_554 S
C1435 H1422 0.961 1_554 S
C1435 H1423 0.959 . S
C1435 C1433 1.561 . S
C1436 C1433 1.526 . S
C1436 C1437 1.396 . S
C1436 C1441 1.390 . S
C1437 C1431 1.465 . S
C1437 C1436 1.396 . S
C1437 C1438 1.399 . S
C1438 H1424 0.929 . S
C1438 C1437 1.399 . S
C1438 C1439 1.385 . S
C1439 H1425 0.931 . S
C1439 C1438 1.385 . S
C1439 C1440 1.389 . S
C1440 C1439 1.389 . S
C1440 C1441 1.387 . S
C1441 H1426 0.930 . S
C1441 C1436 1.390 . S
C1441 C1440 1.387 . S
H1442 C1454 0.930 . S
H1443 C1456 0.930 . S
H1444 C1457 0.930 . S
H1445 C1461 0.959 . S
H1446 C1461 0.959 . S
H1447 C1461 0.961 . S
H1448 C1462 0.960 . S
H1449 C1462 0.961 . S
H1450 C1462 0.959 . S
H1451 C1465 0.929 . S
H1452 C1466 0.931 . S
H1453 C1468 0.930 . S
C1454 H1442 0.930 . S
C1454 C1455 1.399 . S
C1454 C1459 1.399 . S
C1455 C1454 1.399 . S
C1455 C1456 1.376 . S
C1456 H1443 0.930 . S
C1456 C1455 1.376 . S
C1456 C1457 1.388 . S
C1457 H1444 0.930 . S
C1457 C1456 1.388 . S
C1457 C1458 1.390 . S
C1458 C1457 1.390 . S
C1458 C1459 1.394 . S
C1458 C1464 1.465 . S
C1459 C1454 1.399 . S
C1459 C1458 1.394 . S
C1459 C1460 1.516 . S
C1460 C1459 1.516 . S
C1460 C1461 1.502 . S
C1460 C1462 1.561 . S
C1460 C1463 1.526 . S
C1461 H1445 0.959 . S
C1461 H1446 0.959 . S
C1461 H1447 0.961 . S
C1461 C1460 1.502 . S
C1462 H1448 0.960 . S
C1462 H1449 0.961 . S
C1462 H1450 0.959 . S
C1462 C1460 1.561 . S
C1463 C1460 1.526 . S
C1463 C1464 1.396 . S
C1463 C1468 1.390 . S
C1464 C1458 1.465 . S
C1464 C1463 1.396 . S
C1464 C1465 1.399 . S
C1465 H1451 0.929 . S
C1465 C1464 1.399 . S
C1465 C1466 1.385 . S
C1466 H1452 0.931 . S
C1466 C1465 1.385 . S
C1466 C1467 1.389 . S
C1467 C1466 1.389 . S
C1467 C1468 1.387 . S
C1468 H1453 0.930 . S
C1468 C1463 1.390 . S
C1468 C1467 1.387 . S
H1469 C1481 0.930 . S
H1470 C1483 0.930 . S
H1471 C1484 0.930 . S
H1472 C1488 0.962 . S
H1473 C1488 0.976 . S
H1474 C1488 0.942 1_655 S
H1475 C1489 0.960 1_655 S
H1476 C1489 0.960 . S
H1477 C1489 0.955 . S
H1478 C1492 0.929 . S
H1479 C1493 0.931 . S
H1480 C1495 0.930 . S
C1481 H1469 0.930 . S
C1481 C1482 1.399 . S
C1481 C1486 1.399 . S
C1482 C1481 1.399 . S
C1482 C1483 1.376 . S
C1483 H1470 0.930 . S
C1483 C1482 1.376 . S
C1483 C1484 1.388 . S
C1484 H1471 0.930 . S
C1484 C1483 1.388 . S
C1484 C1485 1.390 . S
C1485 C1484 1.390 . S
C1485 C1486 1.394 . S
C1485 C1491 1.465 1_655 S
C1486 C1481 1.399 . S
C1486 C1485 1.394 . S
C1486 C1487 1.520 1_655 S
C1487 C1486 1.520 1_455 S
C1487 C1488 1.502 . S
C1487 C1489 1.561 . S
C1487 C1490 1.522 . S
C1488 H1472 0.962 . S
C1488 H1473 0.976 . S
C1488 H1474 0.942 1_455 S
C1488 C1487 1.502 . S
C1489 H1475 0.960 1_455 S
C1489 H1476 0.960 . S
C1489 H1477 0.955 . S
C1489 C1487 1.561 . S
C1490 C1487 1.522 . S
C1490 C1491 1.396 . S
C1490 C1495 1.390 . S
C1491 C1485 1.465 1_455 S
C1491 C1490 1.396 . S
C1491 C1492 1.399 . S
C1492 H1478 0.929 . S
C1492 C1491 1.399 . S
C1492 C1493 1.385 . S
C1493 H1479 0.931 . S
C1493 C1492 1.385 . S
C1493 C1494 1.389 . S
C1494 C1493 1.389 . S
C1494 C1495 1.387 . S
C1495 H1480 0.930 . S
C1495 C1490 1.390 . S
C1495 C1494 1.387 . S
H1496 C1508 0.930 . S
H1497 C1510 0.930 . S
H1498 C1511 0.930 1_554 S
H1499 C1515 0.959 . S
H1500 C1515 0.959 . S
H1501 C1515 0.961 . S
H1502 C1516 0.960 . S
H1503 C1516 0.961 . S
H1504 C1516 0.959 . S
H1505 C1519 0.929 1_554 S
H1506 C1520 0.931 . S
H1507 C1522 0.930 . S
C1508 H1496 0.930 . S
C1508 C1509 1.399 . S
C1508 C1513 1.399 . S
C1509 C1508 1.399 . S
C1509 C1510 1.376 . S
C1510 H1497 0.930 . S
C1510 C1509 1.376 . S
C1510 C1511 1.388 . S
C1511 H1498 0.930 1_556 S
C1511 C1510 1.388 . S
C1511 C1512 1.390 . S
C1512 C1511 1.390 . S
C1512 C1513 1.394 . S
C1512 C1518 1.465 . S
C1513 C1508 1.399 . S
C1513 C1512 1.394 . S
C1513 C1514 1.516 . S
C1514 C1513 1.516 . S
C1514 C1515 1.502 . S
C1514 C1516 1.561 . S
C1514 C1517 1.526 . S
C1515 H1499 0.959 . S
C1515 H1500 0.959 . S
C1515 H1501 0.961 . S
C1515 C1514 1.502 . S
C1516 H1502 0.960 . S
C1516 H1503 0.961 . S
C1516 H1504 0.959 . S
C1516 C1514 1.561 . S
C1517 C1514 1.526 . S
C1517 C1518 1.396 . S
C1517 C1522 1.390 . S
C1518 C1512 1.465 . S
C1518 C1517 1.396 . S
C1518 C1519 1.399 . S
C1519 H1505 0.929 1_556 S
C1519 C1518 1.399 . S
C1519 C1520 1.385 . S
C1520 H1506 0.931 . S
C1520 C1519 1.385 . S
C1520 C1521 1.389 . S
C1521 C1520 1.389 . S
C1521 C1522 1.387 . S
C1522 H1507 0.930 . S
C1522 C1517 1.390 . S
C1522 C1521 1.387 . S
H1523 C1535 0.930 . S
H1524 C1537 0.930 . S
H1525 C1538 0.930 . S
H1526 C1542 0.959 . S
H1527 C1542 0.959 . S
H1528 C1542 0.961 . S
H1529 C1543 0.960 . S
H1530 C1543 0.961 . S
H1531 C1543 0.959 . S
H1532 C1546 0.929 . S
H1533 C1547 0.931 . S
H1534 C1549 0.930 . S
C1535 H1523 0.930 . S
C1535 C1536 1.399 . S
C1535 C1540 1.399 . S
C1536 C1535 1.399 . S
C1536 C1537 1.376 . S
C1537 H1524 0.930 . S
C1537 C1536 1.376 . S
C1537 C1538 1.388 . S
C1538 H1525 0.930 . S
C1538 C1537 1.388 . S
C1538 C1539 1.390 . S
C1539 C1538 1.390 . S
C1539 C1540 1.394 . S
C1539 C1545 1.465 . S
C1540 C1535 1.399 . S
C1540 C1539 1.394 . S
C1540 C1541 1.516 . S
C1541 C1540 1.516 . S
C1541 C1542 1.502 . S
C1541 C1543 1.561 . S
C1541 C1544 1.526 . S
C1542 H1526 0.959 . S
C1542 H1527 0.959 . S
C1542 H1528 0.961 . S
C1542 C1541 1.502 . S
C1543 H1529 0.960 . S
C1543 H1530 0.961 . S
C1543 H1531 0.959 . S
C1543 C1541 1.561 . S
C1544 C1541 1.526 . S
C1544 C1545 1.396 . S
C1544 C1549 1.390 . S
C1545 C1539 1.465 . S
C1545 C1544 1.396 . S
C1545 C1546 1.399 . S
C1546 H1532 0.929 . S
C1546 C1545 1.399 . S
C1546 C1547 1.385 . S
C1547 H1533 0.931 . S
C1547 C1546 1.385 . S
C1547 C1548 1.389 . S
C1548 C1547 1.389 . S
C1548 C1549 1.387 . S
C1549 H1534 0.930 . S
C1549 C1544 1.390 . S
C1549 C1548 1.387 . S
H1550 C1562 0.930 . S
H1551 C1564 0.930 . S
H1552 C1565 0.930 . S
H1553 C1569 0.959 1_556 S
H1554 C1569 0.959 . S
H1555 C1569 0.961 . S
H1556 C1570 0.960 . S
H1557 C1570 0.961 . S
H1558 C1570 0.959 . S
H1559 C1573 0.929 . S
H1560 C1574 0.931 . S
H1561 C1576 0.930 . S
C1562 H1550 0.930 . S
C1562 C1563 1.399 . S
C1562 C1567 1.399 . S
C1563 C1562 1.399 . S
C1563 C1564 1.376 . S
C1564 H1551 0.930 . S
C1564 C1563 1.376 . S
C1564 C1565 1.388 . S
C1565 H1552 0.930 . S
C1565 C1564 1.388 . S
C1565 C1566 1.390 . S
C1566 C1565 1.390 . S
C1566 C1567 1.394 . S
C1566 C1572 1.465 . S
C1567 C1562 1.399 . S
C1567 C1566 1.394 . S
C1567 C1568 1.516 . S
C1568 C1567 1.516 . S
C1568 C1569 1.502 . S
C1568 C1570 1.561 . S
C1568 C1571 1.526 . S
C1569 H1553 0.959 1_554 S
C1569 H1554 0.959 . S
C1569 H1555 0.961 . S
C1569 C1568 1.502 . S
C1570 H1556 0.960 . S
C1570 H1557 0.961 . S
C1570 H1558 0.959 . S
C1570 C1568 1.561 . S
C1571 C1568 1.526 . S
C1571 C1572 1.396 . S
C1571 C1576 1.390 . S
C1572 C1566 1.465 . S
C1572 C1571 1.396 . S
C1572 C1573 1.399 . S
C1573 H1559 0.929 . S
C1573 C1572 1.399 . S
C1573 C1574 1.385 . S
C1574 H1560 0.931 . S
C1574 C1573 1.385 . S
C1574 C1575 1.389 . S
C1575 C1574 1.389 . S
C1575 C1576 1.387 . S
C1576 H1561 0.930 . S
C1576 C1571 1.390 . S
C1576 C1575 1.387 . S
H1577 C1589 0.930 . S
H1578 C1591 0.930 . S
H1579 C1592 0.930 . S
H1580 C1596 0.959 . S
H1581 C1596 0.959 . S
H1582 C1596 0.961 . S
H1583 C1597 0.960 . S
H1584 C1597 0.961 . S
H1585 C1597 0.959 . S
H1586 C1600 0.929 . S
H1587 C1601 0.931 . S
H1588 C1603 0.930 . S
C1589 H1577 0.930 . S
C1589 C1590 1.399 . S
C1589 C1594 1.399 . S
C1590 C1589 1.399 . S
C1590 C1591 1.376 . S
C1591 H1578 0.930 . S
C1591 C1590 1.376 . S
C1591 C1592 1.388 . S
C1592 H1579 0.930 . S
C1592 C1591 1.388 . S
C1592 C1593 1.390 . S
C1593 C1592 1.390 . S
C1593 C1594 1.394 . S
C1593 C1599 1.465 . S
C1594 C1589 1.399 . S
C1594 C1593 1.394 . S
C1594 C1595 1.516 . S
C1595 C1594 1.516 . S
C1595 C1596 1.502 . S
C1595 C1597 1.561 . S
C1595 C1598 1.526 . S
C1596 H1580 0.959 . S
C1596 H1581 0.959 . S
C1596 H1582 0.961 . S
C1596 C1595 1.502 . S
C1597 H1583 0.960 . S
C1597 H1584 0.961 . S
C1597 H1585 0.959 . S
C1597 C1595 1.561 . S
C1598 C1595 1.526 . S
C1598 C1599 1.396 . S
C1598 C1603 1.390 . S
C1599 C1593 1.465 . S
C1599 C1598 1.396 . S
C1599 C1600 1.399 . S
C1600 H1586 0.929 . S
C1600 C1599 1.399 . S
C1600 C1601 1.385 . S
C1601 H1587 0.931 . S
C1601 C1600 1.385 . S
C1601 C1602 1.389 . S
C1602 C1601 1.389 . S
C1602 C1603 1.387 . S
C1603 H1588 0.930 . S
C1603 C1598 1.390 . S
C1603 C1602 1.387 . S
H1604 C1616 0.930 . S
H1605 C1618 0.930 . S
H1606 C1619 0.930 . S
H1607 C1623 0.959 . S
H1608 C1623 0.959 . S
H1609 C1623 0.961 . S
H1610 C1624 0.960 . S
H1611 C1624 0.961 . S
H1612 C1624 0.959 . S
H1613 C1627 0.929 . S
H1614 C1628 0.931 . S
H1615 C1630 0.930 . S
C1616 H1604 0.930 . S
C1616 C1617 1.399 . S
C1616 C1621 1.399 . S
C1617 C1616 1.399 . S
C1617 C1618 1.376 . S
C1618 H1605 0.930 . S
C1618 C1617 1.376 . S
C1618 C1619 1.388 . S
C1619 H1606 0.930 . S
C1619 C1618 1.388 . S
C1619 C1620 1.390 . S
C1620 C1619 1.390 . S
C1620 C1621 1.394 . S
C1620 C1626 1.465 . S
C1621 C1616 1.399 . S
C1621 C1620 1.394 . S
C1621 C1622 1.516 . S
C1622 C1621 1.516 . S
C1622 C1623 1.502 . S
C1622 C1624 1.561 . S
C1622 C1625 1.526 . S
C1623 H1607 0.959 . S
C1623 H1608 0.959 . S
C1623 H1609 0.961 . S
C1623 C1622 1.502 . S
C1624 H1610 0.960 . S
C1624 H1611 0.961 . S
C1624 H1612 0.959 . S
C1624 C1622 1.561 . S
C1625 C1622 1.526 . S
C1625 C1626 1.396 . S
C1625 C1630 1.390 . S
C1626 C1620 1.465 . S
C1626 C1625 1.396 . S
C1626 C1627 1.399 . S
C1627 H1613 0.929 . S
C1627 C1626 1.399 . S
C1627 C1628 1.385 . S
C1628 H1614 0.931 . S
C1628 C1627 1.385 . S
C1628 C1629 1.389 . S
C1629 C1628 1.389 . S
C1629 C1630 1.387 . S
C1630 H1615 0.930 . S
C1630 C1625 1.390 . S
C1630 C1629 1.387 . S
H1631 C1643 0.930 . S
H1632 C1645 0.930 . S
H1633 C1646 0.930 . S
H1634 C1650 0.962 . S
H1635 C1650 0.976 . S
H1636 C1650 0.942 1_655 S
H1637 C1651 0.960 1_655 S
H1638 C1651 0.960 . S
H1639 C1651 0.955 . S
H1640 C1654 0.929 . S
H1641 C1655 0.931 . S
H1642 C1657 0.930 . S
C1643 H1631 0.930 . S
C1643 C1644 1.399 . S
C1643 C1648 1.399 . S
C1644 C1643 1.399 . S
C1644 C1645 1.376 . S
C1645 H1632 0.930 . S
C1645 C1644 1.376 . S
C1645 C1646 1.388 . S
C1646 H1633 0.930 . S
C1646 C1645 1.388 . S
C1646 C1647 1.390 . S
C1647 C1646 1.390 . S
C1647 C1648 1.394 . S
C1647 C1653 1.465 1_655 S
C1648 C1643 1.399 . S
C1648 C1647 1.394 . S
C1648 C1649 1.520 1_655 S
C1649 C1648 1.520 1_455 S
C1649 C1650 1.502 . S
C1649 C1651 1.561 . S
C1649 C1652 1.522 . S
C1650 H1634 0.962 . S
C1650 H1635 0.976 . S
C1650 H1636 0.942 1_455 S
C1650 C1649 1.502 . S
C1651 H1637 0.960 1_455 S
C1651 H1638 0.960 . S
C1651 H1639 0.955 . S
C1651 C1649 1.561 . S
C1652 C1649 1.522 . S
C1652 C1653 1.396 . S
C1652 C1657 1.390 . S
C1653 C1647 1.465 1_455 S
C1653 C1652 1.396 . S
C1653 C1654 1.399 . S
C1654 H1640 0.929 . S
C1654 C1653 1.399 . S
C1654 C1655 1.385 . S
C1655 H1641 0.931 . S
C1655 C1654 1.385 . S
C1655 C1656 1.389 . S
C1656 C1655 1.389 . S
C1656 C1657 1.387 . S
C1657 H1642 0.930 . S
C1657 C1652 1.390 . S
C1657 C1656 1.387 . S
H1658 C1670 0.930 . S
H1659 C1672 0.930 . S
H1660 C1673 0.930 . S
H1661 C1677 0.962 . S
H1662 C1677 0.976 . S
H1663 C1677 0.942 1_655 S
H1664 C1678 0.960 1_655 S
H1665 C1678 0.960 . S
H1666 C1678 0.955 . S
H1667 C1681 0.929 . S
H1668 C1682 0.931 . S
H1669 C1684 0.930 . S
C1670 H1658 0.930 . S
C1670 C1671 1.399 . S
C1670 C1675 1.399 . S
C1671 C1670 1.399 . S
C1671 C1672 1.376 . S
C1672 H1659 0.930 . S
C1672 C1671 1.376 . S
C1672 C1673 1.388 . S
C1673 H1660 0.930 . S
C1673 C1672 1.388 . S
C1673 C1674 1.390 . S
C1674 C1673 1.390 . S
C1674 C1675 1.394 . S
C1674 C1680 1.465 1_655 S
C1675 C1670 1.399 . S
C1675 C1674 1.394 . S
C1675 C1676 1.520 1_655 S
C1676 C1675 1.520 1_455 S
C1676 C1677 1.502 . S
C1676 C1678 1.561 . S
C1676 C1679 1.522 . S
C1677 H1661 0.962 . S
C1677 H1662 0.976 . S
C1677 H1663 0.942 1_455 S
C1677 C1676 1.502 . S
C1678 H1664 0.960 1_455 S
C1678 H1665 0.960 . S
C1678 H1666 0.955 . S
C1678 C1676 1.561 . S
C1679 C1676 1.522 . S
C1679 C1680 1.396 . S
C1679 C1684 1.390 . S
C1680 C1674 1.465 1_455 S
C1680 C1679 1.396 . S
C1680 C1681 1.399 . S
C1681 H1667 0.929 . S
C1681 C1680 1.399 . S
C1681 C1682 1.385 . S
C1682 H1668 0.931 . S
C1682 C1681 1.385 . S
C1682 C1683 1.389 . S
C1683 C1682 1.389 . S
C1683 C1684 1.387 . S
C1684 H1669 0.930 . S
C1684 C1679 1.390 . S
C1684 C1683 1.387 . S
H1685 C1697 0.930 . S
H1686 C1699 0.930 . S
H1687 C1700 0.930 . S
H1688 C1704 0.959 . S
H1689 C1704 0.959 . S
H1690 C1704 0.961 . S
H1691 C1705 0.960 . S
H1692 C1705 0.961 . S
H1693 C1705 0.959 . S
H1694 C1708 0.929 . S
H1695 C1709 0.931 . S
H1696 C1711 0.930 . S
C1697 H1685 0.930 . S
C1697 C1698 1.399 . S
C1697 C1702 1.399 . S
C1698 C1697 1.399 . S
C1698 C1699 1.376 . S
C1699 H1686 0.930 . S
C1699 C1698 1.376 . S
C1699 C1700 1.388 . S
C1700 H1687 0.930 . S
C1700 C1699 1.388 . S
C1700 C1701 1.390 . S
C1701 C1700 1.390 . S
C1701 C1702 1.394 . S
C1701 C1707 1.465 . S
C1702 C1697 1.399 . S
C1702 C1701 1.394 . S
C1702 C1703 1.516 . S
C1703 C1702 1.516 . S
C1703 C1704 1.502 . S
C1703 C1705 1.561 . S
C1703 C1706 1.526 . S
C1704 H1688 0.959 . S
C1704 H1689 0.959 . S
C1704 H1690 0.961 . S
C1704 C1703 1.502 . S
C1705 H1691 0.960 . S
C1705 H1692 0.961 . S
C1705 H1693 0.959 . S
C1705 C1703 1.561 . S
C1706 C1703 1.526 . S
C1706 C1707 1.396 . S
C1706 C1711 1.390 . S
C1707 C1701 1.465 . S
C1707 C1706 1.396 . S
C1707 C1708 1.399 . S
C1708 H1694 0.929 . S
C1708 C1707 1.399 . S
C1708 C1709 1.385 . S
C1709 H1695 0.931 . S
C1709 C1708 1.385 . S
C1709 C1710 1.389 . S
C1710 C1709 1.389 . S
C1710 C1711 1.387 . S
C1711 H1696 0.930 . S
C1711 C1706 1.390 . S
C1711 C1710 1.387 . S
H1712 C1724 0.930 . S
H1713 C1726 0.930 . S
H1714 C1727 0.930 . S
H1715 C1731 0.959 . S
H1716 C1731 0.959 . S
H1717 C1731 0.961 . S
H1718 C1732 0.960 . S
H1719 C1732 0.961 . S
H1720 C1732 0.959 . S
H1721 C1735 0.929 . S
H1722 C1736 0.931 . S
H1723 C1738 0.930 . S
C1724 H1712 0.930 . S
C1724 C1725 1.399 . S
C1724 C1729 1.399 . S
C1725 C1724 1.399 . S
C1725 C1726 1.376 . S
C1726 H1713 0.930 . S
C1726 C1725 1.376 . S
C1726 C1727 1.388 . S
C1727 H1714 0.930 . S
C1727 C1726 1.388 . S
C1727 C1728 1.390 . S
C1728 C1727 1.390 . S
C1728 C1729 1.394 . S
C1728 C1734 1.465 . S
C1729 C1724 1.399 . S
C1729 C1728 1.394 . S
C1729 C1730 1.516 . S
C1730 C1729 1.516 . S
C1730 C1731 1.502 . S
C1730 C1732 1.561 . S
C1730 C1733 1.526 . S
C1731 H1715 0.959 . S
C1731 H1716 0.959 . S
C1731 H1717 0.961 . S
C1731 C1730 1.502 . S
C1732 H1718 0.960 . S
C1732 H1719 0.961 . S
C1732 H1720 0.959 . S
C1732 C1730 1.561 . S
C1733 C1730 1.526 . S
C1733 C1734 1.396 . S
C1733 C1738 1.390 . S
C1734 C1728 1.465 . S
C1734 C1733 1.396 . S
C1734 C1735 1.399 . S
C1735 H1721 0.929 . S
C1735 C1734 1.399 . S
C1735 C1736 1.385 . S
C1736 H1722 0.931 . S
C1736 C1735 1.385 . S
C1736 C1737 1.389 . S
C1737 C1736 1.389 . S
C1737 C1738 1.387 . S
C1738 H1723 0.930 . S
C1738 C1733 1.390 . S
C1738 C1737 1.387 . S
H1739 C1751 0.930 . S
H1740 C1753 0.930 . S
H1741 C1754 0.930 . S
H1742 C1758 0.959 . S
H1743 C1758 0.959 . S
H1744 C1758 0.961 . S
H1745 C1759 0.960 . S
H1746 C1759 0.961 . S
H1747 C1759 0.959 . S
H1748 C1762 0.929 . S
H1749 C1763 0.931 . S
H1750 C1765 0.930 . S
C1751 H1739 0.930 . S
C1751 C1752 1.399 . S
C1751 C1756 1.399 . S
C1752 C1751 1.399 . S
C1752 C1753 1.376 . S
C1753 H1740 0.930 . S
C1753 C1752 1.376 . S
C1753 C1754 1.388 . S
C1754 H1741 0.930 . S
C1754 C1753 1.388 . S
C1754 C1755 1.390 . S
C1755 C1754 1.390 . S
C1755 C1756 1.394 . S
C1755 C1761 1.465 . S
C1756 C1751 1.399 . S
C1756 C1755 1.394 . S
C1756 C1757 1.516 . S
C1757 C1756 1.516 . S
C1757 C1758 1.502 . S
C1757 C1759 1.561 . S
C1757 C1760 1.526 . S
C1758 H1742 0.959 . S
C1758 H1743 0.959 . S
C1758 H1744 0.961 . S
C1758 C1757 1.502 . S
C1759 H1745 0.960 . S
C1759 H1746 0.961 . S
C1759 H1747 0.959 . S
C1759 C1757 1.561 . S
C1760 C1757 1.526 . S
C1760 C1761 1.396 . S
C1760 C1765 1.390 . S
C1761 C1755 1.465 . S
C1761 C1760 1.396 . S
C1761 C1762 1.399 . S
C1762 H1748 0.929 . S
C1762 C1761 1.399 . S
C1762 C1763 1.385 . S
C1763 H1749 0.931 . S
C1763 C1762 1.385 . S
C1763 C1764 1.389 . S
C1764 C1763 1.389 . S
C1764 C1765 1.387 . S
C1765 H1750 0.930 . S
C1765 C1760 1.390 . S
C1765 C1764 1.387 . S
H1766 C1778 0.930 . S
H1767 C1780 0.930 1_554 S
H1768 C1781 0.930 . S
H1769 C1785 0.959 . S
H1770 C1785 0.959 . S
H1771 C1785 0.961 . S
H1772 C1786 0.960 . S
H1773 C1786 0.961 . S
H1774 C1786 0.959 . S
H1775 C1789 0.929 . S
H1776 C1790 0.931 . S
H1777 C1792 0.930 . S
C1778 H1766 0.930 . S
C1778 C1779 1.399 . S
C1778 C1783 1.399 . S
C1779 C1778 1.399 . S
C1779 C1780 1.376 . S
C1780 H1767 0.930 1_556 S
C1780 C1779 1.376 . S
C1780 C1781 1.388 . S
C1781 H1768 0.930 . S
C1781 C1780 1.388 . S
C1781 C1782 1.390 . S
C1782 C1781 1.390 . S
C1782 C1783 1.394 . S
C1782 C1788 1.465 . S
C1783 C1778 1.399 . S
C1783 C1782 1.394 . S
C1783 C1784 1.516 . S
C1784 C1783 1.516 . S
C1784 C1785 1.502 . S
C1784 C1786 1.561 . S
C1784 C1787 1.526 . S
C1785 H1769 0.959 . S
C1785 H1770 0.959 . S
C1785 H1771 0.961 . S
C1785 C1784 1.502 . S
C1786 H1772 0.960 . S
C1786 H1773 0.961 . S
C1786 H1774 0.959 . S
C1786 C1784 1.561 . S
C1787 C1784 1.526 . S
C1787 C1788 1.396 . S
C1787 C1792 1.390 . S
C1788 C1782 1.465 . S
C1788 C1787 1.396 . S
C1788 C1789 1.399 . S
C1789 H1775 0.929 . S
C1789 C1788 1.399 . S
C1789 C1790 1.385 . S
C1790 H1776 0.931 . S
C1790 C1789 1.385 . S
C1790 C1791 1.389 . S
C1791 C1790 1.389 . S
C1791 C1792 1.387 . S
C1792 H1777 0.930 . S
C1792 C1787 1.390 . S
C1792 C1791 1.387 . S
H1793 C1805 0.930 . S
H1794 C1807 0.930 . S
H1795 C1808 0.930 1_556 S
H1796 C1812 0.959 . S
H1797 C1812 0.959 . S
H1798 C1812 0.961 . S
H1799 C1813 0.960 . S
H1800 C1813 0.961 . S
H1801 C1813 0.959 . S
H1802 C1816 0.929 . S
H1803 C1817 0.931 . S
H1804 C1819 0.930 . S
C1805 H1793 0.930 . S
C1805 C1806 1.399 . S
C1805 C1810 1.399 . S
C1806 C1805 1.399 . S
C1806 C1807 1.376 1_554 S
C1807 H1794 0.930 . S
C1807 C1806 1.376 1_556 S
C1807 C1808 1.388 1_556 S
C1808 H1795 0.930 1_554 S
C1808 C1807 1.388 1_554 S
C1808 C1809 1.390 . S
C1809 C1808 1.390 . S
C1809 C1810 1.394 . S
C1809 C1815 1.465 . S
C1810 C1805 1.399 . S
C1810 C1809 1.394 . S
C1810 C1811 1.516 . S
C1811 C1810 1.516 . S
C1811 C1812 1.502 . S
C1811 C1813 1.561 . S
C1811 C1814 1.526 . S
C1812 H1796 0.959 . S
C1812 H1797 0.959 . S
C1812 H1798 0.961 . S
C1812 C1811 1.502 . S
C1813 H1799 0.960 . S
C1813 H1800 0.961 . S
C1813 H1801 0.959 . S
C1813 C1811 1.561 . S
C1814 C1811 1.526 . S
C1814 C1815 1.396 . S
C1814 C1819 1.390 . S
C1815 C1809 1.465 . S
C1815 C1814 1.396 . S
C1815 C1816 1.399 . S
C1816 H1802 0.929 . S
C1816 C1815 1.399 . S
C1816 C1817 1.385 . S
C1817 H1803 0.931 . S
C1817 C1816 1.385 . S
C1817 C1818 1.389 . S
C1818 C1817 1.389 . S
C1818 C1819 1.387 . S
C1819 H1804 0.930 . S
C1819 C1814 1.390 . S
C1819 C1818 1.387 . S
H1820 C1832 0.930 . S
H1821 C1834 0.930 . S
H1822 C1835 0.930 . S
H1823 C1839 0.959 . S
H1824 C1839 0.959 . S
H1825 C1839 0.961 . S
H1826 C1840 0.960 . S
H1827 C1840 0.961 . S
H1828 C1840 0.959 . S
H1829 C1843 0.929 . S
H1830 C1844 0.931 . S
H1831 C1846 0.930 . S
C1832 H1820 0.930 . S
C1832 C1833 1.399 . S
C1832 C1837 1.399 . S
C1833 C1832 1.399 . S
C1833 C1834 1.376 . S
C1834 H1821 0.930 . S
C1834 C1833 1.376 . S
C1834 C1835 1.388 . S
C1835 H1822 0.930 . S
C1835 C1834 1.388 . S
C1835 C1836 1.390 . S
C1836 C1835 1.390 . S
C1836 C1837 1.394 . S
C1836 C1842 1.465 . S
C1837 C1832 1.399 . S
C1837 C1836 1.394 . S
C1837 C1838 1.516 . S
C1838 C1837 1.516 . S
C1838 C1839 1.502 . S
C1838 C1840 1.561 . S
C1838 C1841 1.526 . S
C1839 H1823 0.959 . S
C1839 H1824 0.959 . S
C1839 H1825 0.961 . S
C1839 C1838 1.502 . S
C1840 H1826 0.960 . S
C1840 H1827 0.961 . S
C1840 H1828 0.959 . S
C1840 C1838 1.561 . S
C1841 C1838 1.526 . S
C1841 C1842 1.396 . S
C1841 C1846 1.390 . S
C1842 C1836 1.465 . S
C1842 C1841 1.396 . S
C1842 C1843 1.399 . S
C1843 H1829 0.929 . S
C1843 C1842 1.399 . S
C1843 C1844 1.385 . S
C1844 H1830 0.931 . S
C1844 C1843 1.385 . S
C1844 C1845 1.389 . S
C1845 C1844 1.389 . S
C1845 C1846 1.387 . S
C1846 H1831 0.930 . S
C1846 C1841 1.390 . S
C1846 C1845 1.387 . S
H1847 C1859 0.930 . S
H1848 C1861 0.930 . S
H1849 C1862 0.930 . S
H1850 C1866 0.959 . S
H1851 C1866 0.959 . S
H1852 C1866 0.961 . S
H1853 C1867 0.960 . S
H1854 C1867 0.961 . S
H1855 C1867 0.959 . S
H1856 C1870 0.929 . S
H1857 C1871 0.931 . S
H1858 C1873 0.930 . S
C1859 H1847 0.930 . S
C1859 C1860 1.399 . S
C1859 C1864 1.399 . S
C1860 C1859 1.399 . S
C1860 C1861 1.376 . S
C1861 H1848 0.930 . S
C1861 C1860 1.376 . S
C1861 C1862 1.388 . S
C1862 H1849 0.930 . S
C1862 C1861 1.388 . S
C1862 C1863 1.390 . S
C1863 C1862 1.390 . S
C1863 C1864 1.394 . S
C1863 C1869 1.465 . S
C1864 C1859 1.399 . S
C1864 C1863 1.394 . S
C1864 C1865 1.516 . S
C1865 C1864 1.516 . S
C1865 C1866 1.502 . S
C1865 C1867 1.561 . S
C1865 C1868 1.526 . S
C1866 H1850 0.959 . S
C1866 H1851 0.959 . S
C1866 H1852 0.961 . S
C1866 C1865 1.502 . S
C1867 H1853 0.960 . S
C1867 H1854 0.961 . S
C1867 H1855 0.959 . S
C1867 C1865 1.561 . S
C1868 C1865 1.526 . S
C1868 C1869 1.396 . S
C1868 C1873 1.390 . S
C1869 C1863 1.465 . S
C1869 C1868 1.396 . S
C1869 C1870 1.399 . S
C1870 H1856 0.929 . S
C1870 C1869 1.399 . S
C1870 C1871 1.385 . S
C1871 H1857 0.931 . S
C1871 C1870 1.385 . S
C1871 C1872 1.389 . S
C1872 C1871 1.389 . S
C1872 C1873 1.387 . S
C1873 H1858 0.930 . S
C1873 C1868 1.390 . S
C1873 C1872 1.387 . S
H1874 C1886 0.930 . S
H1875 C1888 0.930 . S
H1876 C1889 0.930 . S
H1877 C1893 0.959 . S
H1878 C1893 0.959 . S
H1879 C1893 0.961 . S
H1880 C1894 0.960 . S
H1881 C1894 0.961 . S
H1882 C1894 0.959 . S
H1883 C1897 0.929 . S
H1884 C1898 0.929 1_556 S
H1885 C1900 0.930 . S
C1886 H1874 0.930 . S
C1886 C1887 1.399 . S
C1886 C1891 1.399 . S
C1887 C1886 1.399 . S
C1887 C1888 1.376 . S
C1888 H1875 0.930 . S
C1888 C1887 1.376 . S
C1888 C1889 1.388 . S
C1889 H1876 0.930 . S
C1889 C1888 1.388 . S
C1889 C1890 1.390 . S
C1890 C1889 1.390 . S
C1890 C1891 1.394 . S
C1890 C1896 1.465 . S
C1891 C1886 1.399 . S
C1891 C1890 1.394 . S
C1891 C1892 1.516 . S
C1892 C1891 1.516 . S
C1892 C1893 1.502 . S
C1892 C1894 1.561 . S
C1892 C1895 1.526 . S
C1893 H1877 0.959 . S
C1893 H1878 0.959 . S
C1893 H1879 0.961 . S
C1893 C1892 1.502 . S
C1894 H1880 0.960 . S
C1894 H1881 0.961 . S
C1894 H1882 0.959 . S
C1894 C1892 1.561 . S
C1895 C1892 1.526 . S
C1895 C1896 1.396 . S
C1895 C1900 1.390 . S
C1896 C1890 1.465 . S
C1896 C1895 1.396 . S
C1896 C1897 1.399 . S
C1897 H1883 0.929 . S
C1897 C1896 1.399 . S
C1897 C1898 1.385 . S
C1898 H1884 0.929 1_554 S
C1898 C1897 1.385 . S
C1898 C1899 1.389 . S
C1899 C1898 1.389 . S
C1899 C1900 1.387 . S
C1900 H1885 0.930 . S
C1900 C1895 1.390 . S
C1900 C1899 1.387 . S
H1901 C1913 0.930 . S
H1902 C1915 0.930 . S
H1903 C1916 0.930 . S
H1904 C1920 0.959 . S
H1905 C1920 0.959 . S
H1906 C1920 0.961 . S
H1907 C1921 0.960 . S
H1908 C1921 0.961 . S
H1909 C1921 0.959 . S
H1910 C1924 0.929 . S
H1911 C1925 0.931 1_554 S
H1912 C1927 0.930 . S
C1913 H1901 0.930 . S
C1913 C1914 1.399 . S
C1913 C1918 1.399 . S
C1914 C1913 1.399 . S
C1914 C1915 1.376 . S
C1915 H1902 0.930 . S
C1915 C1914 1.376 . S
C1915 C1916 1.388 . S
C1916 H1903 0.930 . S
C1916 C1915 1.388 . S
C1916 C1917 1.390 . S
C1917 C1916 1.390 . S
C1917 C1918 1.394 . S
C1917 C1923 1.465 . S
C1918 C1913 1.399 . S
C1918 C1917 1.394 . S
C1918 C1919 1.516 . S
C1919 C1918 1.516 . S
C1919 C1920 1.502 . S
C1919 C1921 1.561 . S
C1919 C1922 1.526 . S
C1920 H1904 0.959 . S
C1920 H1905 0.959 . S
C1920 H1906 0.961 . S
C1920 C1919 1.502 . S
C1921 H1907 0.960 . S
C1921 H1908 0.961 . S
C1921 H1909 0.959 . S
C1921 C1919 1.561 . S
C1922 C1919 1.526 . S
C1922 C1923 1.396 . S
C1922 C1927 1.390 . S
C1923 C1917 1.465 . S
C1923 C1922 1.396 . S
C1923 C1924 1.399 . S
C1924 H1910 0.929 . S
C1924 C1923 1.399 . S
C1924 C1925 1.385 . S
C1925 H1911 0.931 1_556 S
C1925 C1924 1.385 . S
C1925 C1926 1.389 . S
C1926 C1925 1.389 . S
C1926 C1927 1.387 . S
C1927 H1912 0.930 . S
C1927 C1922 1.390 . S
C1927 C1926 1.387 . S
H1928 C1940 0.930 . S
H1929 C1942 0.930 1_554 S
H1930 C1943 0.930 . S
H1931 C1947 0.959 . S
H1932 C1947 0.959 . S
H1933 C1947 0.961 . S
H1934 C1948 0.960 . S
H1935 C1948 0.961 . S
H1936 C1948 0.959 . S
H1937 C1951 0.929 . S
H1938 C1952 0.931 . S
H1939 C1954 0.930 . S
C1940 H1928 0.930 . S
C1940 C1941 1.399 . S
C1940 C1945 1.399 . S
C1941 C1940 1.399 . S
C1941 C1942 1.376 . S
C1942 H1929 0.930 1_556 S
C1942 C1941 1.376 . S
C1942 C1943 1.388 . S
C1943 H1930 0.930 . S
C1943 C1942 1.388 . S
C1943 C1944 1.390 . S
C1944 C1943 1.390 . S
C1944 C1945 1.394 . S
C1944 C1950 1.465 . S
C1945 C1940 1.399 . S
C1945 C1944 1.394 . S
C1945 C1946 1.516 . S
C1946 C1945 1.516 . S
C1946 C1947 1.502 . S
C1946 C1948 1.561 . S
C1946 C1949 1.526 . S
C1947 H1931 0.959 . S
C1947 H1932 0.959 . S
C1947 H1933 0.961 . S
C1947 C1946 1.502 . S
C1948 H1934 0.960 . S
C1948 H1935 0.961 . S
C1948 H1936 0.959 . S
C1948 C1946 1.561 . S
C1949 C1946 1.526 . S
C1949 C1950 1.396 . S
C1949 C1954 1.390 . S
C1950 C1944 1.465 . S
C1950 C1949 1.396 . S
C1950 C1951 1.399 . S
C1951 H1937 0.929 . S
C1951 C1950 1.399 . S
C1951 C1952 1.385 . S
C1952 H1938 0.931 . S
C1952 C1951 1.385 . S
C1952 C1953 1.389 . S
C1953 C1952 1.389 . S
C1953 C1954 1.387 . S
C1954 H1939 0.930 . S
C1954 C1949 1.390 . S
C1954 C1953 1.387 . S
H1955 C1967 0.930 . S
H1956 C1969 0.930 . S
H1957 C1970 0.930 . S
H1958 C1974 0.959 . S
H1959 C1974 0.959 1_556 S
H1960 C1974 0.961 . S
H1961 C1975 0.960 . S
H1962 C1975 0.961 . S
H1963 C1975 0.959 . S
H1964 C1978 0.929 . S
H1965 C1979 0.931 . S
H1966 C1981 0.930 1_556 S
C1967 H1955 0.930 . S
C1967 C1968 1.399 . S
C1967 C1972 1.399 . S
C1968 C1967 1.399 . S
C1968 C1969 1.376 . S
C1969 H1956 0.930 . S
C1969 C1968 1.376 . S
C1969 C1970 1.388 . S
C1970 H1957 0.930 . S
C1970 C1969 1.388 . S
C1970 C1971 1.390 . S
C1971 C1970 1.390 . S
C1971 C1972 1.394 . S
C1971 C1977 1.465 . S
C1972 C1967 1.399 . S
C1972 C1971 1.394 . S
C1972 C1973 1.516 . S
C1973 C1972 1.516 . S
C1973 C1974 1.502 . S
C1973 C1975 1.561 . S
C1973 C1976 1.526 . S
C1974 H1958 0.959 . S
C1974 H1959 0.959 1_554 S
C1974 H1960 0.961 . S
C1974 C1973 1.502 . S
C1975 H1961 0.960 . S
C1975 H1962 0.961 . S
C1975 H1963 0.959 . S
C1975 C1973 1.561 . S
C1976 C1973 1.526 . S
C1976 C1977 1.396 . S
C1976 C1981 1.390 . S
C1977 C1971 1.465 . S
C1977 C1976 1.396 . S
C1977 C1978 1.399 . S
C1978 H1964 0.929 . S
C1978 C1977 1.399 . S
C1978 C1979 1.385 . S
C1979 H1965 0.931 . S
C1979 C1978 1.385 . S
C1979 C1980 1.389 . S
C1980 C1979 1.389 . S
C1980 C1981 1.387 . S
C1981 H1966 0.930 1_554 S
C1981 C1976 1.390 . S
C1981 C1980 1.387 . S
H1982 C1994 0.930 . S
H1983 C1996 0.930 . S
H1984 C1997 0.930 . S
H1985 C2001 0.959 . S
H1986 C2001 0.959 . S
H1987 C2001 0.961 . S
H1988 C2002 0.960 . S
H1989 C2002 0.961 . S
H1990 C2002 0.959 . S
H1991 C2005 0.929 . S
H1992 C2006 0.931 . S
H1993 C2008 0.930 . S
C1994 H1982 0.930 . S
C1994 C1995 1.399 . S
C1994 C1999 1.399 . S
C1995 C1994 1.399 . S
C1995 C1996 1.376 . S
C1996 H1983 0.930 . S
C1996 C1995 1.376 . S
C1996 C1997 1.388 . S
C1997 H1984 0.930 . S
C1997 C1996 1.388 . S
C1997 C1998 1.390 . S
C1998 C1997 1.390 . S
C1998 C1999 1.394 . S
C1998 C2004 1.465 . S
C1999 C1994 1.399 . S
C1999 C1998 1.394 . S
C1999 C2000 1.516 . S
C2000 C1999 1.516 . S
C2000 C2001 1.502 . S
C2000 C2002 1.561 . S
C2000 C2003 1.526 . S
C2001 H1985 0.959 . S
C2001 H1986 0.959 . S
C2001 H1987 0.961 . S
C2001 C2000 1.502 . S
C2002 H1988 0.960 . S
C2002 H1989 0.961 . S
C2002 H1990 0.959 . S
C2002 C2000 1.561 . S
C2003 C2000 1.526 . S
C2003 C2004 1.396 . S
C2003 C2008 1.390 . S
C2004 C1998 1.465 . S
C2004 C2003 1.396 . S
C2004 C2005 1.399 . S
C2005 H1991 0.929 . S
C2005 C2004 1.399 . S
C2005 C2006 1.385 . S
C2006 H1992 0.931 . S
C2006 C2005 1.385 . S
C2006 C2007 1.389 . S
C2007 C2006 1.389 . S
C2007 C2008 1.387 . S
C2008 H1993 0.930 . S
C2008 C2003 1.390 . S
C2008 C2007 1.387 . S
H2009 C2021 0.930 . S
H2010 C2023 0.930 . S
H2011 C2024 0.930 . S
H2012 C2028 0.959 . S
H2013 C2028 0.959 . S
H2014 C2028 0.961 . S
H2015 C2029 0.960 . S
H2016 C2029 0.961 . S
H2017 C2029 0.959 . S
H2018 C2032 0.929 . S
H2019 C2033 0.931 . S
H2020 C2035 0.930 . S
C2021 H2009 0.930 . S
C2021 C2022 1.399 . S
C2021 C2026 1.399 . S
C2022 C2021 1.399 . S
C2022 C2023 1.376 . S
C2023 H2010 0.930 . S
C2023 C2022 1.376 . S
C2023 C2024 1.388 . S
C2024 H2011 0.930 . S
C2024 C2023 1.388 . S
C2024 C2025 1.390 . S
C2025 C2024 1.390 . S
C2025 C2026 1.394 . S
C2025 C2031 1.465 . S
C2026 C2021 1.399 . S
C2026 C2025 1.394 . S
C2026 C2027 1.516 . S
C2027 C2026 1.516 . S
C2027 C2028 1.502 . S
C2027 C2029 1.561 . S
C2027 C2030 1.526 . S
C2028 H2012 0.959 . S
C2028 H2013 0.959 . S
C2028 H2014 0.961 . S
C2028 C2027 1.502 . S
C2029 H2015 0.960 . S
C2029 H2016 0.961 . S
C2029 H2017 0.959 . S
C2029 C2027 1.561 . S
C2030 C2027 1.526 . S
C2030 C2031 1.396 . S
C2030 C2035 1.390 . S
C2031 C2025 1.465 . S
C2031 C2030 1.396 . S
C2031 C2032 1.399 . S
C2032 H2018 0.929 . S
C2032 C2031 1.399 . S
C2032 C2033 1.385 . S
C2033 H2019 0.931 . S
C2033 C2032 1.385 . S
C2033 C2034 1.389 . S
C2034 C2033 1.389 . S
C2034 C2035 1.387 . S
C2035 H2020 0.930 . S
C2035 C2030 1.390 . S
C2035 C2034 1.387 . S
H2036 C2048 0.930 . S
H2037 C2050 0.930 . S
H2038 C2051 0.930 . S
H2039 C2055 0.959 . S
H2040 C2055 0.959 . S
H2041 C2055 0.961 . S
H2042 C2056 0.960 . S
H2043 C2056 0.961 1_556 S
H2044 C2056 0.959 . S
H2045 C2059 0.929 . S
H2046 C2060 0.931 . S
H2047 C2062 0.930 1_556 S
C2048 H2036 0.930 . S
C2048 C2049 1.399 . S
C2048 C2053 1.399 . S
C2049 C2048 1.399 . S
C2049 C2050 1.376 . S
C2050 H2037 0.930 . S
C2050 C2049 1.376 . S
C2050 C2051 1.388 . S
C2051 H2038 0.930 . S
C2051 C2050 1.388 . S
C2051 C2052 1.390 . S
C2052 C2051 1.390 . S
C2052 C2053 1.394 . S
C2052 C2058 1.465 . S
C2053 C2048 1.399 . S
C2053 C2052 1.394 . S
C2053 C2054 1.516 . S
C2054 C2053 1.516 . S
C2054 C2055 1.502 . S
C2054 C2056 1.561 . S
C2054 C2057 1.526 . S
C2055 H2039 0.959 . S
C2055 H2040 0.959 . S
C2055 H2041 0.961 . S
C2055 C2054 1.502 . S
C2056 H2042 0.960 . S
C2056 H2043 0.961 1_554 S
C2056 H2044 0.959 . S
C2056 C2054 1.561 . S
C2057 C2054 1.526 . S
C2057 C2058 1.396 . S
C2057 C2062 1.390 . S
C2058 C2052 1.465 . S
C2058 C2057 1.396 . S
C2058 C2059 1.399 . S
C2059 H2045 0.929 . S
C2059 C2058 1.399 . S
C2059 C2060 1.385 . S
C2060 H2046 0.931 . S
C2060 C2059 1.385 . S
C2060 C2061 1.389 . S
C2061 C2060 1.389 . S
C2061 C2062 1.387 . S
C2062 H2047 0.930 1_554 S
C2062 C2057 1.390 . S
C2062 C2061 1.387 . S
H2063 C2075 0.930 1_554 S
H2064 C2077 0.930 . S
H2065 C2078 0.930 . S
H2066 C2082 0.959 . S
H2067 C2082 0.959 . S
H2068 C2082 0.961 1_554 S
H2069 C2083 0.960 . S
H2070 C2083 0.961 . S
H2071 C2083 0.959 . S
H2072 C2086 0.929 . S
H2073 C2087 0.931 . S
H2074 C2089 0.930 . S
C2075 H2063 0.930 1_556 S
C2075 C2076 1.399 . S
C2075 C2080 1.399 . S
C2076 C2075 1.399 . S
C2076 C2077 1.376 . S
C2077 H2064 0.930 . S
C2077 C2076 1.376 . S
C2077 C2078 1.388 . S
C2078 H2065 0.930 . S
C2078 C2077 1.388 . S
C2078 C2079 1.390 . S
C2079 C2078 1.390 . S
C2079 C2080 1.394 . S
C2079 C2085 1.465 . S
C2080 C2075 1.399 . S
C2080 C2079 1.394 . S
C2080 C2081 1.516 . S
C2081 C2080 1.516 . S
C2081 C2082 1.502 . S
C2081 C2083 1.561 . S
C2081 C2084 1.526 . S
C2082 H2066 0.959 . S
C2082 H2067 0.959 . S
C2082 H2068 0.961 1_556 S
C2082 C2081 1.502 . S
C2083 H2069 0.960 . S
C2083 H2070 0.961 . S
C2083 H2071 0.959 . S
C2083 C2081 1.561 . S
C2084 C2081 1.526 . S
C2084 C2085 1.396 . S
C2084 C2089 1.390 . S
C2085 C2079 1.465 . S
C2085 C2084 1.396 . S
C2085 C2086 1.399 . S
C2086 H2072 0.929 . S
C2086 C2085 1.399 . S
C2086 C2087 1.385 . S
C2087 H2073 0.931 . S
C2087 C2086 1.385 . S
C2087 C2088 1.389 . S
C2088 C2087 1.389 . S
C2088 C2089 1.387 . S
C2089 H2074 0.930 . S
C2089 C2084 1.390 . S
C2089 C2088 1.387 . S
H2090 C2102 0.930 . S
H2091 C2104 0.930 . S
H2092 C2105 0.930 . S
H2093 C2109 0.959 . S
H2094 C2109 0.959 . S
H2095 C2109 0.961 . S
H2096 C2110 0.960 . S
H2097 C2110 0.961 . S
H2098 C2110 0.959 . S
H2099 C2113 0.929 . S
H2100 C2114 0.931 . S
H2101 C2116 0.930 . S
C2102 H2090 0.930 . S
C2102 C2103 1.399 . S
C2102 C2107 1.399 . S
C2103 C2102 1.399 . S
C2103 C2104 1.376 . S
C2104 H2091 0.930 . S
C2104 C2103 1.376 . S
C2104 C2105 1.388 . S
C2105 H2092 0.930 . S
C2105 C2104 1.388 . S
C2105 C2106 1.390 . S
C2106 C2105 1.390 . S
C2106 C2107 1.394 . S
C2106 C2112 1.465 . S
C2107 C2102 1.399 . S
C2107 C2106 1.394 . S
C2107 C2108 1.516 . S
C2108 C2107 1.516 . S
C2108 C2109 1.502 . S
C2108 C2110 1.561 . S
C2108 C2111 1.526 . S
C2109 H2093 0.959 . S
C2109 H2094 0.959 . S
C2109 H2095 0.961 . S
C2109 C2108 1.502 . S
C2110 H2096 0.960 . S
C2110 H2097 0.961 . S
C2110 H2098 0.959 . S
C2110 C2108 1.561 . S
C2111 C2108 1.526 . S
C2111 C2112 1.396 . S
C2111 C2116 1.390 . S
C2112 C2106 1.465 . S
C2112 C2111 1.396 . S
C2112 C2113 1.399 . S
C2113 H2099 0.929 . S
C2113 C2112 1.399 . S
C2113 C2114 1.385 . S
C2114 H2100 0.931 . S
C2114 C2113 1.385 . S
C2114 C2115 1.389 . S
C2115 C2114 1.389 . S
C2115 C2116 1.387 . S
C2116 H2101 0.930 . S
C2116 C2111 1.390 . S
C2116 C2115 1.387 . S
H2117 C2129 0.930 . S
H2118 C2131 0.930 . S
H2119 C2132 0.930 . S
H2120 C2136 0.959 . S
H2121 C2136 0.959 . S
H2122 C2136 0.961 . S
H2123 C2137 0.960 . S
H2124 C2137 0.961 . S
H2125 C2137 0.959 . S
H2126 C2140 0.929 . S
H2127 C2141 0.931 . S
H2128 C2143 0.930 . S
C2129 H2117 0.930 . S
C2129 C2130 1.399 . S
C2129 C2134 1.399 . S
C2130 C2129 1.399 . S
C2130 C2131 1.376 . S
C2131 H2118 0.930 . S
C2131 C2130 1.376 . S
C2131 C2132 1.388 . S
C2132 H2119 0.930 . S
C2132 C2131 1.388 . S
C2132 C2133 1.390 . S
C2133 C2132 1.390 . S
C2133 C2134 1.394 . S
C2133 C2139 1.465 . S
C2134 C2129 1.399 . S
C2134 C2133 1.394 . S
C2134 C2135 1.516 . S
C2135 C2134 1.516 . S
C2135 C2136 1.502 . S
C2135 C2137 1.561 . S
C2135 C2138 1.526 . S
C2136 H2120 0.959 . S
C2136 H2121 0.959 . S
C2136 H2122 0.961 . S
C2136 C2135 1.502 . S
C2137 H2123 0.960 . S
C2137 H2124 0.961 . S
C2137 H2125 0.959 . S
C2137 C2135 1.561 . S
C2138 C2135 1.526 . S
C2138 C2139 1.396 . S
C2138 C2143 1.390 . S
C2139 C2133 1.465 . S
C2139 C2138 1.396 . S
C2139 C2140 1.399 . S
C2140 H2126 0.929 . S
C2140 C2139 1.399 . S
C2140 C2141 1.385 . S
C2141 H2127 0.931 . S
C2141 C2140 1.385 . S
C2141 C2142 1.389 . S
C2142 C2141 1.389 . S
C2142 C2143 1.387 . S
C2143 H2128 0.930 . S
C2143 C2138 1.390 . S
C2143 C2142 1.387 . S
C429 C81 1.543 . S
C441 C3 1.552 . S
C456 C16 1.552 . S
C468 C94 1.544 . S
C483 C57 1.544 . S
C495 C29 1.552 . S
C510 C42 1.553 . S
C522 C70 1.543 . S
C537 C107 1.542 . S
C549 C187 1.555 . S
C564 C200 1.545 . S
C576 C122 1.552 . S
C591 C133 1.545 . S
C603 C161 1.551 . S
C618 C172 1.542 . S
C630 C146 1.556 . S
C645 C211 1.552 . S
C657 C291 1.548 . S
C672 C226 1.543 . S
C684 C304 1.552 . S
C699 C265 1.553 . S
C711 C239 1.547 . S
C726 C276 1.553 . S
C738 C250 1.543 . S
C753 C315 1.543 . S
C765 C395 1.553 . S
C780 C328 1.545 . S
C792 C408 1.554 . S
C807 C367 1.542 . S
C819 C341 1.555 . S
C834 C354 1.543 . S
C846 C380 1.555 . S
C861 C10 1.600 1_556 S
C873 C101 1.581 . S
C888 C56 1.580 1_554 S
C900 C23 1.592 . S
C915 C69 1.573 . S
C927 C36 1.602 . S
C942 C49 1.575 . S
C954 C88 1.599 . S
C969 C114 1.579 1_554 S
C981 C199 1.604 . S
C996 C160 1.584 1_556 S
C1008 C121 1.579 . S
C1023 C179 1.597 . S
C1035 C140 1.594 . S
C1050 C186 1.583 . S
C1062 C153 1.603 . S
C1077 C218 1.601 . S
C1089 C303 1.580 . S
C1104 C225 1.596 . S
C1116 C264 1.577 . S
C1131 C283 1.583 . S
C1143 C238 1.589 1_556 S
C1158 C257 1.602 . S
C1170 C290 1.578 1_554 S
C1185 C322 1.573 . S
C1197 C407 1.599 . S
C1212 C374 1.602 . S
C1224 C335 1.576 . S
C1239 C348 1.578 1_554 S
C1251 C387 1.604 . S
C1266 C361 1.590 . S
C1278 C394 1.600 1_556 S
C1293 C393 1.552 . S
C1305 C5 1.555 . S
C1320 C198 1.553 . S
C1332 C18 1.551 . S
C1347 C31 1.556 . S
C1359 C369 1.557 . S
C1374 C44 1.544 . S
C1386 C174 1.547 . S
C1401 C55 1.538 . S
C1413 C343 1.537 . S
C1428 C68 1.551 . S
C1440 C148 1.554 . S
C1455 C83 1.554 . S
C1467 C317 1.556 . S
C1482 C120 1.548 . S
C1494 C96 1.551 . S
C1509 C289 1.555 . S
C1521 C109 1.556 . S
C1536 C135 1.539 . S
C1548 C263 1.538 . S
C1563 C237 1.540 . S
C1575 C159 1.543 . S
C1590 C213 1.538 . S
C1602 C185 1.537 . S
C1617 C224 1.540 . S
C1629 C406 1.543 . S
C1644 C252 1.551 . S
C1656 C382 1.548 . S
C1671 C278 1.547 . S
C1683 C356 1.550 . S
C1698 C330 1.542 . S
C1710 C302 1.546 . S
C1725 C4 1.434 . S
C1737 C95 1.441 . S
C1752 C17 1.433 . S
C1764 C62 1.440 . S
C1779 C75 1.429 1_556 S
C1791 C30 1.429 . S
C1806 C43 1.439 1_554 S
C1818 C82 1.432 . S
C1833 C205 1.441 . S
C1845 C108 1.431 . S
C1860 C166 1.435 . S
C1872 C127 1.428 . S
C1887 C134 1.432 . S
C1899 C173 1.429 1_554 S
C1914 C192 1.429 . S
C1926 C147 1.432 1_556 S
C1941 C309 1.429 1_556 S
C1953 C212 1.429 . S
C1968 C270 1.440 . S
C1980 C231 1.433 1_554 S
C1995 C277 1.437 . S
C2007 C244 1.443 . S
C2022 C296 1.429 . S
C2034 C251 1.435 . S
C2049 C316 1.444 . S
C2061 C413 1.436 1_554 S
C2076 C329 1.432 1_556 S
C2088 C368 1.443 . S
C2103 C342 1.433 . S
C2115 C381 1.429 . S
C2130 C400 1.429 . S
C2142 C355 1.433 . S
