# Generated by pormake.
# Topology wiu, (6)-cn, num edge types: 1
# Building blocks:
#     Node 0, Type 0, BuildingBlock: INOVEN_clean_sbu_0, # of connection points: 6
#     Node 1, Type 0, BuildingBlock: INOVEN_clean_sbu_0, # of connection points: 6
#     Node 2, Type 0, BuildingBlock: INOVEN_clean_sbu_0, # of connection points: 6
#     Node 3, Type 0, BuildingBlock: INOVEN_clean_sbu_0, # of connection points: 6
#     Node 4, Type 0, BuildingBlock: INOVEN_clean_sbu_0, # of connection points: 6
#     Node 5, Type 0, BuildingBlock: INOVEN_clean_sbu_0, # of connection points: 6
#     Node 6, Type 0, BuildingBlock: INOVEN_clean_sbu_0, # of connection points: 6
#     Node 7, Type 0, BuildingBlock: INOVEN_clean_sbu_0, # of connection points: 6
#     Node 8, Type 0, BuildingBlock: INOVEN_clean_sbu_0, # of connection points: 6
#     Node 9, Type 0, BuildingBlock: INOVEN_clean_sbu_0, # of connection points: 6
#     Node 10, Type 0, BuildingBlock: INOVEN_clean_sbu_0, # of connection points: 6
#     Node 11, Type 0, BuildingBlock: INOVEN_clean_sbu_0, # of connection points: 6
#     Node 12, Type 0, BuildingBlock: INOVEN_clean_sbu_0, # of connection points: 6
#     Node 13, Type 0, BuildingBlock: INOVEN_clean_sbu_0, # of connection points: 6
#     Node 14, Type 0, BuildingBlock: INOVEN_clean_sbu_0, # of connection points: 6
#     Node 15, Type 0, BuildingBlock: INOVEN_clean_sbu_0, # of connection points: 6
#     Edge 16, Type (0, 0), BuildingBlock: MIFKUJ_clean_linker_0, # of connection points: 2
#     Edge 17, Type (0, 0), BuildingBlock: MIFKUJ_clean_linker_0, # of connection points: 2
#     Edge 18, Type (0, 0), BuildingBlock: MIFKUJ_clean_linker_0, # of connection points: 2
#     Edge 19, Type (0, 0), BuildingBlock: MIFKUJ_clean_linker_0, # of connection points: 2
#     Edge 20, Type (0, 0), BuildingBlock: MIFKUJ_clean_linker_0, # of connection points: 2
#     Edge 21, Type (0, 0), BuildingBlock: MIFKUJ_clean_linker_0, # of connection points: 2
#     Edge 22, Type (0, 0), BuildingBlock: MIFKUJ_clean_linker_0, # of connection points: 2
#     Edge 23, Type (0, 0), BuildingBlock: MIFKUJ_clean_linker_0, # of connection points: 2
#     Edge 24, Type (0, 0), BuildingBlock: MIFKUJ_clean_linker_0, # of connection points: 2
#     Edge 25, Type (0, 0), BuildingBlock: MIFKUJ_clean_linker_0, # of connection points: 2
#     Edge 26, Type (0, 0), BuildingBlock: MIFKUJ_clean_linker_0, # of connection points: 2
#     Edge 27, Type (0, 0), BuildingBlock: MIFKUJ_clean_linker_0, # of connection points: 2
#     Edge 28, Type (0, 0), BuildingBlock: MIFKUJ_clean_linker_0, # of connection points: 2
#     Edge 29, Type (0, 0), BuildingBlock: MIFKUJ_clean_linker_0, # of connection points: 2
#     Edge 30, Type (0, 0), BuildingBlock: MIFKUJ_clean_linker_0, # of connection points: 2
#     Edge 31, Type (0, 0), BuildingBlock: MIFKUJ_clean_linker_0, # of connection points: 2
#     Edge 32, Type (0, 0), BuildingBlock: MIFKUJ_clean_linker_0, # of connection points: 2
#     Edge 33, Type (0, 0), BuildingBlock: MIFKUJ_clean_linker_0, # of connection points: 2
#     Edge 34, Type (0, 0), BuildingBlock: MIFKUJ_clean_linker_0, # of connection points: 2
#     Edge 35, Type (0, 0), BuildingBlock: MIFKUJ_clean_linker_0, # of connection points: 2
#     Edge 36, Type (0, 0), BuildingBlock: MIFKUJ_clean_linker_0, # of connection points: 2
#     Edge 37, Type (0, 0), BuildingBlock: MIFKUJ_clean_linker_0, # of connection points: 2
#     Edge 38, Type (0, 0), BuildingBlock: MIFKUJ_clean_linker_0, # of connection points: 2
#     Edge 39, Type (0, 0), BuildingBlock: MIFKUJ_clean_linker_0, # of connection points: 2
#     Edge 40, Type (0, 0), BuildingBlock: MIFKUJ_clean_linker_0, # of connection points: 2
#     Edge 41, Type (0, 0), BuildingBlock: MIFKUJ_clean_linker_0, # of connection points: 2
#     Edge 42, Type (0, 0), BuildingBlock: MIFKUJ_clean_linker_0, # of connection points: 2
#     Edge 43, Type (0, 0), BuildingBlock: MIFKUJ_clean_linker_0, # of connection points: 2
#     Edge 44, Type (0, 0), BuildingBlock: MIFKUJ_clean_linker_0, # of connection points: 2
#     Edge 45, Type (0, 0), BuildingBlock: MIFKUJ_clean_linker_0, # of connection points: 2
#     Edge 46, Type (0, 0), BuildingBlock: MIFKUJ_clean_linker_0, # of connection points: 2
#     Edge 47, Type (0, 0), BuildingBlock: MIFKUJ_clean_linker_0, # of connection points: 2
#     Edge 48, Type (0, 0), BuildingBlock: MIFKUJ_clean_linker_0, # of connection points: 2
#     Edge 49, Type (0, 0), BuildingBlock: MIFKUJ_clean_linker_0, # of connection points: 2
#     Edge 50, Type (0, 0), BuildingBlock: MIFKUJ_clean_linker_0, # of connection points: 2
#     Edge 51, Type (0, 0), BuildingBlock: MIFKUJ_clean_linker_0, # of connection points: 2
#     Edge 52, Type (0, 0), BuildingBlock: MIFKUJ_clean_linker_0, # of connection points: 2
#     Edge 53, Type (0, 0), BuildingBlock: MIFKUJ_clean_linker_0, # of connection points: 2
#     Edge 54, Type (0, 0), BuildingBlock: MIFKUJ_clean_linker_0, # of connection points: 2
#     Edge 55, Type (0, 0), BuildingBlock: MIFKUJ_clean_linker_0, # of connection points: 2
#     Edge 56, Type (0, 0), BuildingBlock: MIFKUJ_clean_linker_0, # of connection points: 2
#     Edge 57, Type (0, 0), BuildingBlock: MIFKUJ_clean_linker_0, # of connection points: 2
#     Edge 58, Type (0, 0), BuildingBlock: MIFKUJ_clean_linker_0, # of connection points: 2
#     Edge 59, Type (0, 0), BuildingBlock: MIFKUJ_clean_linker_0, # of connection points: 2
#     Edge 60, Type (0, 0), BuildingBlock: MIFKUJ_clean_linker_0, # of connection points: 2
#     Edge 61, Type (0, 0), BuildingBlock: MIFKUJ_clean_linker_0, # of connection points: 2
#     Edge 62, Type (0, 0), BuildingBlock: MIFKUJ_clean_linker_0, # of connection points: 2
#     Edge 63, Type (0, 0), BuildingBlock: MIFKUJ_clean_linker_0, # of connection points: 2
# Relax obj value: 0.435
# Max RMSD: 0.309
# Mean RMSD: 0.309
data_MOF--net-wiu--node1-INOVEN_clean_sbu_0--edge1-MIFKUJ_clean_linker_0
_symmetry_space_group_name_H-M    P1
_symmetry_Int_Tables_number       1
_symmetry_cell_setting            triclinic
loop_
_symmetry_equiv_pos_as_xyz
'x, y, z'
_cell_length_a     47.172899
_cell_length_b     47.168854
_cell_length_c     74.898167
_cell_angle_alpha  89.459
_cell_angle_beta   89.673337
_cell_angle_gamma 90.052625
loop_
_atom_site_label
_atom_site_type_symbol
_atom_site_fract_x
_atom_site_fract_y
_atom_site_fract_z
_atom_type_partial_charge
Gd0 Gd 0.3176 0.13728 0.24831 0.0
Gd1 Gd 0.351 0.09072 0.23891 0.0
C2 C 0.3406 0.09301 0.28043 0.0
C3 C 0.28461 0.17722 0.26019 0.0
C4 C 0.27791 0.20657 0.25458 0.0
C5 C 0.28819 0.21775 0.23835 0.0
C6 C 0.26082 0.22356 0.26546 0.0
C7 C 0.26391 0.26263 0.24385 0.0
C8 C 0.25389 0.25127 0.26018 0.0
C9 C 0.28129 0.24549 0.23304 0.0
C10 C 0.37187 0.15521 0.23937 0.0
C11 C 0.31143 0.1177 0.20619 0.0
C12 C 0.39041 0.05938 0.22567 0.0
C13 C 0.39642 0.04255 0.20983 0.0
C14 C 0.41317 0.01824 0.21166 0.0
C15 C 0.38766 0.05151 0.19283 0.0
C16 C 0.41629 0.01454 0.17944 0.0
C17 C 0.39759 0.0376 0.1777 0.0
C18 C 0.42297 0.00422 0.19656 0.0
C19 C 0.29661 0.07473 0.24604 0.0
O20 O 0.31955 0.11021 0.27514 0.0
O21 O 0.35996 0.08638 0.26846 0.0
O22 O 0.27618 0.15721 0.24955 0.0
O23 O 0.31019 0.17275 0.2661 0.0
O24 O 0.34843 0.16625 0.23377 0.0
O25 O 0.36543 0.13343 0.24888 0.0
O26 O 0.33164 0.09928 0.21077 0.0
O27 O 0.30205 0.13534 0.21877 0.0
O28 O 0.37083 0.04956 0.23645 0.0
O29 O 0.38941 0.08694 0.2234 0.0
O30 O 0.31851 0.05943 0.25019 0.0
O31 O 0.30472 0.09654 0.23777 0.0
H32 H 0.30138 0.20495 0.22971 0.0
H33 H 0.25276 0.21538 0.27807 0.0
H34 H 0.24086 0.26389 0.26901 0.0
H35 H 0.28915 0.25331 0.22031 0.0
H36 H 0.41979 0.01091 0.22474 0.0
H37 H 0.37442 0.0701 0.1912 0.0
H38 H 0.39224 0.04615 0.16467 0.0
H39 H 0.43701 0.98624 0.19825 0.0
Gd40 Gd 0.61066 0.56779 0.50117 0.0
Gd41 Gd 0.65861 0.59841 0.49018 0.0
C42 C 0.65745 0.58908 0.5325 0.0
C43 C 0.56889 0.53719 0.51359 0.0
C44 C 0.54026 0.52974 0.50728 0.0
C45 C 0.53061 0.53902 0.49051 0.0
C46 C 0.52232 0.5132 0.51811 0.0
C47 C 0.48524 0.51509 0.49548 0.0
C48 C 0.49511 0.50593 0.51229 0.0
C49 C 0.50336 0.53181 0.48468 0.0
C50 C 0.59442 0.62093 0.48918 0.0
C51 C 0.62933 0.55952 0.45896 0.0
C52 C 0.69259 0.63599 0.4767 0.0
C53 C 0.69463 0.65252 0.46026 0.0
C54 C 0.71964 0.66731 0.45639 0.0
C55 C 0.6716 0.65409 0.44857 0.0
C56 C 0.69837 0.68609 0.42933 0.0
C57 C 0.67344 0.67084 0.43319 0.0
C58 C 0.72155 0.68399 0.44099 0.0
C59 C 0.67229 0.54431 0.49964 0.0
O60 O 0.63523 0.57245 0.5286 0.0
O61 O 0.66928 0.60375 0.51938 0.0
O62 O 0.59009 0.52685 0.50451 0.0
O63 O 0.57292 0.56365 0.51777 0.0
O64 O 0.58353 0.59704 0.4844 0.0
O65 O 0.61578 0.61539 0.49911 0.0
O66 O 0.64549 0.58206 0.46221 0.0
O67 O 0.61422 0.54883 0.47258 0.0
O68 O 0.69659 0.60878 0.47512 0.0
O69 O 0.6711 0.64218 0.48702 0.0
O70 O 0.68817 0.56609 0.50296 0.0
O71 O 0.65091 0.55231 0.49106 0.0
H72 H 0.54419 0.55175 0.48191 0.0
H73 H 0.52933 0.50592 0.53112 0.0
H74 H 0.48167 0.4934 0.52109 0.0
H75 H 0.49666 0.53898 0.47159 0.0
H76 H 0.7376 0.66608 0.46532 0.0
H77 H 0.65214 0.64268 0.45147 0.0
H78 H 0.6552 0.67227 0.4245 0.0
H79 H 0.74118 0.69514 0.43816 0.0
Gd80 Gd 0.17936 0.8618 0.75014 0.0
Gd81 Gd 0.1479 0.90964 0.74004 0.0
C82 C 0.15713 0.9074 0.78191 0.0
C83 C 0.21088 0.8206 0.76198 0.0
C84 C 0.21735 0.79125 0.75627 0.0
C85 C 0.19573 0.77204 0.75182 0.0
C86 C 0.24567 0.78233 0.75508 0.0
C87 C 0.23076 0.73541 0.74528 0.0
C88 C 0.25232 0.75478 0.7496 0.0
C89 C 0.20237 0.74441 0.74647 0.0
C90 C 0.12535 0.84541 0.74053 0.0
C91 C 0.18722 0.88177 0.70779 0.0
C92 C 0.10967 0.94162 0.7259 0.0
C93 C 0.10288 0.95328 0.70831 0.0
C94 C 0.09003 0.97993 0.70713 0.0
C95 C 0.10734 0.93738 0.69282 0.0
C96 C 0.08238 0.97304 0.67545 0.0
C97 C 0.09707 0.94716 0.67649 0.0
C98 C 0.07997 0.98986 0.69078 0.0
C99 C 0.20226 0.92366 0.74786 0.0
O100 O 0.17594 0.88731 0.77732 0.0
O101 O 0.14006 0.91709 0.7694 0.0
O102 O 0.22046 0.841 0.75174 0.0
O103 O 0.18529 0.82564 0.76786 0.0
O104 O 0.14879 0.834 0.73521 0.0
O105 O 0.13173 0.86697 0.75001 0.0
O106 O 0.16728 0.90053 0.71208 0.0
O107 O 0.19594 0.86392 0.7206 0.0
O108 O 0.13232 0.95167 0.7335 0.0
O109 O 0.10692 0.91414 0.72779 0.0
O110 O 0.18062 0.93953 0.75172 0.0
O111 O 0.194 0.90222 0.73952 0.0
H112 H 0.17367 0.77834 0.75243 0.0
H113 H 0.26272 0.79671 0.75842 0.0
H114 H 0.27439 0.74852 0.74903 0.0
H115 H 0.18525 0.73019 0.74303 0.0
H116 H 0.08681 0.99259 0.71897 0.0
H117 H 0.11755 0.91683 0.69346 0.0
H118 H 0.09914 0.93362 0.66495 0.0
H119 H 0.06927 0.01016 0.69028 0.0
Gd120 Gd 0.88708 0.43232 1.00014 0.0
Gd121 Gd 0.83755 0.3981 0.99006 0.0
C122 C 0.84243 0.40867 1.03235 0.0
C123 C 0.92307 0.4722 1.00752 0.0
C124 C 0.95366 0.47732 1.00428 0.0
C125 C 0.97322 0.45492 1.00332 0.0
C126 C 0.96303 0.50498 1.00055 0.0
C127 C 0.01085 0.48778 0.99421 0.0
C128 C 0.99126 0.51019 0.99562 0.0
C129 C 0.00149 0.46009 0.99836 0.0
C130 C 0.90963 0.37868 0.99465 0.0
C131 C 0.8657 0.437 0.95766 0.0
C132 C 0.80404 0.3594 0.97819 0.0
C133 C 0.80223 0.34195 0.96231 0.0
C134 C 0.77879 0.32421 0.9601 0.0
C135 C 0.8239 0.34263 0.94943 0.0
C136 C 0.79877 0.30736 0.93222 0.0
C137 C 0.82217 0.32542 0.93445 0.0
C138 C 0.77703 0.307 0.94514 0.0
C139 C 0.82409 0.45172 0.99995 0.0
O140 O 0.86202 0.42806 1.02755 0.0
O141 O 0.83268 0.39144 1.01999 0.0
O142 O 0.90744 0.47212 0.99322 0.0
O143 O 0.91583 0.45222 1.01894 0.0
O144 O 0.92318 0.40141 0.99851 0.0
O145 O 0.88336 0.38524 0.99293 0.0
O146 O 0.84693 0.41693 0.96203 0.0
O147 O 0.88403 0.44562 0.97005 0.0
O148 O 0.79972 0.38649 0.97568 0.0
O149 O 0.82556 0.35401 0.9886 0.0
O150 O 0.8081 0.42991 1.00349 0.0
O151 O 0.84504 0.44372 0.99093 0.0
H152 H 0.96659 0.43334 1.00604 0.0
H153 H 0.94832 0.52259 1.00112 0.0
H154 H 0.9977 0.53184 0.99287 0.0
H155 H 0.01581 0.44225 0.99728 0.0
H156 H 0.76189 0.32364 0.96996 0.0
H157 H 0.84216 0.35629 0.95106 0.0
H158 H 0.83929 0.32594 0.92475 0.0
H159 H 0.75855 0.29362 0.94358 0.0
Gd160 Gd 0.64673 0.9093 0.96198 0.0
Gd161 Gd 0.67833 0.86175 0.95253 0.0
C162 C 0.68644 0.88239 0.99445 0.0
C163 C 0.608 0.94109 0.97563 0.0
C164 C 0.60238 0.95736 0.99174 0.0
C165 C 0.58578 0.98183 0.99037 0.0
C166 C 0.61145 0.94776 1.00854 0.0
C167 C 0.58335 0.98443 1.02266 0.0
C168 C 0.60194 0.96122 1.02394 0.0
C169 C 0.57639 0.99538 1.00574 0.0
C170 C 0.7012 0.92396 0.95407 0.0
C171 C 0.65645 0.90689 0.9202 0.0
C172 C 0.70992 0.82053 0.94106 0.0
C173 C 0.7172 0.79142 0.94725 0.0
C174 C 0.69666 0.76981 0.94844 0.0
C175 C 0.74526 0.78503 0.95195 0.0
C176 C 0.73227 0.73597 0.95885 0.0
C177 C 0.75269 0.75774 0.95775 0.0
C178 C 0.70412 0.74244 0.95414 0.0
C179 C 0.62417 0.84531 0.96228 0.0
O180 O 0.6668 0.90138 0.98989 0.0
O181 O 0.69478 0.86406 0.98196 0.0
O182 O 0.62792 0.95082 0.96508 0.0
O183 O 0.60826 0.91344 0.97742 0.0
O184 O 0.67953 0.93997 0.95057 0.0
O185 O 0.69297 0.90226 0.96243 0.0
O186 O 0.67533 0.88701 0.92505 0.0
O187 O 0.63904 0.91645 0.93255 0.0
O188 O 0.71958 0.84141 0.95057 0.0
O189 O 0.68408 0.82505 0.9356 0.0
O190 O 0.64751 0.83442 0.96817 0.0
O191 O 0.63069 0.8667 0.95237 0.0
H192 H 0.57895 0.98967 0.97745 0.0
H193 H 0.62458 0.92903 1.00981 0.0
H194 H 0.6075 0.95221 1.03681 0.0
H195 H 0.56242 0.0135 1.00441 0.0
H196 H 0.67481 0.77394 0.94491 0.0
H197 H 0.76153 0.80124 0.95119 0.0
H198 H 0.77447 0.75381 0.96153 0.0
H199 H 0.68785 0.72623 0.95457 0.0
Gd200 Gd 0.33942 0.39876 0.71162 0.0
Gd201 Gd 0.38631 0.43152 0.70101 0.0
C202 C 0.36701 0.43879 0.74332 0.0
C203 C 0.30739 0.35947 0.72495 0.0
C204 C 0.29458 0.35037 0.74182 0.0
C205 C 0.27022 0.33346 0.74139 0.0
C206 C 0.30775 0.35597 0.75813 0.0
C207 C 0.27465 0.32421 0.77314 0.0
C208 C 0.29786 0.34291 0.77373 0.0
C209 C 0.26023 0.3205 0.75698 0.0
C210 C 0.32399 0.4529 0.70334 0.0
C211 C 0.34167 0.40808 0.6696 0.0
C212 C 0.42728 0.4633 0.68885 0.0
C213 C 0.45652 0.47033 0.69466 0.0
C214 C 0.47967 0.46376 0.68359 0.0
C215 C 0.46175 0.48356 0.71108 0.0
C216 C 0.51275 0.48365 0.70513 0.0
C217 C 0.48949 0.49017 0.71622 0.0
C218 C 0.50742 0.47024 0.68876 0.0
C219 C 0.40363 0.37772 0.7111 0.0
O220 O 0.34984 0.41714 0.73965 0.0
O221 O 0.38319 0.44897 0.73003 0.0
O222 O 0.29739 0.38259 0.71769 0.0
O223 O 0.33501 0.35748 0.72387 0.0
O224 O 0.30871 0.43085 0.69963 0.0
O225 O 0.34567 0.44511 0.71168 0.0
O226 O 0.36035 0.42822 0.67411 0.0
O227 O 0.33346 0.39013 0.6822 0.0
O228 O 0.40628 0.47286 0.69848 0.0
O229 O 0.42293 0.43741 0.68354 0.0
O230 O 0.41455 0.40134 0.71637 0.0
O231 O 0.38205 0.38379 0.7015 0.0
H232 H 0.25973 0.32919 0.72886 0.0
H233 H 0.32653 0.36918 0.75866 0.0
H234 H 0.30951 0.346 0.78598 0.0
H235 H 0.24202 0.30655 0.75624 0.0
H236 H 0.4763 0.4535 0.67089 0.0
H237 H 0.44442 0.48894 0.71998 0.0
H238 H 0.49262 0.50085 0.7288 0.0
H239 H 0.52471 0.46445 0.67996 0.0
Gd240 Gd 0.8508 0.09069 0.46084 0.0
Gd241 Gd 0.81796 0.13735 0.45107 0.0
C242 C 0.81173 0.11825 0.49347 0.0
C243 C 0.88952 0.05913 0.47475 0.0
C244 C 0.89435 0.04307 0.49125 0.0
C245 C 0.90645 0.01605 0.49023 0.0
C246 C 0.88861 0.05493 0.50799 0.0
C247 C 0.91096 0.01454 0.52248 0.0
C248 C 0.89697 0.0408 0.5235 0.0
C249 C 0.91456 0.00177 0.50574 0.0
C250 C 0.79649 0.07482 0.45384 0.0
C251 C 0.84122 0.09328 0.41919 0.0
C252 C 0.78545 0.17746 0.43876 0.0
C253 C 0.77848 0.20656 0.44434 0.0
C254 C 0.78873 0.2174 0.46046 0.0
C255 C 0.76127 0.22366 0.43353 0.0
C256 C 0.76429 0.26224 0.45497 0.0
C257 C 0.75423 0.25121 0.43877 0.0
C258 C 0.78174 0.24498 0.46572 0.0
C259 C 0.87188 0.15497 0.46016 0.0
O260 O 0.83167 0.09959 0.48897 0.0
O261 O 0.80235 0.13582 0.48072 0.0
O262 O 0.86996 0.0493 0.46422 0.0
O263 O 0.88934 0.08681 0.476 0.0
O264 O 0.81846 0.05942 0.45006 0.0
O265 O 0.80433 0.09665 0.46192 0.0
O266 O 0.82044 0.11085 0.42434 0.0
O267 O 0.8601 0.08602 0.43129 0.0
O268 O 0.77654 0.15713 0.44929 0.0
O269 O 0.81134 0.17327 0.43319 0.0
O270 O 0.84832 0.16582 0.46573 0.0
O271 O 0.86576 0.13344 0.45062 0.0
H272 H 0.91063 0.00647 0.47738 0.0
H273 H 0.87888 0.07563 0.50908 0.0
H274 H 0.89406 0.05135 0.53616 0.0
H275 H 0.92476 0.98131 0.50458 0.0
H276 H 0.80199 0.20447 0.46904 0.0
H277 H 0.75324 0.2157 0.42101 0.0
H278 H 0.74113 0.26398 0.43002 0.0
H279 H 0.7896 0.25258 0.47836 0.0
Gd280 Gd 0.15826 0.60292 0.21195 0.0
Gd281 Gd 0.11126 0.57063 0.20227 0.0
C282 C 0.13136 0.56229 0.24432 0.0
C283 C 0.18845 0.64151 0.22687 0.0
C284 C 0.2039 0.64515 0.24371 0.0
C285 C 0.23364 0.64391 0.24376 0.0
C286 C 0.18936 0.65096 0.25967 0.0
C287 C 0.2341 0.65544 0.27528 0.0
C288 C 0.20431 0.65608 0.27528 0.0
C289 C 0.24861 0.64884 0.25942 0.0
C290 C 0.17384 0.54881 0.20434 0.0
C291 C 0.15668 0.59394 0.17026 0.0
C292 C 0.07096 0.53843 0.19015 0.0
C293 C 0.04179 0.53082 0.19574 0.0
C294 C 0.0262 0.54805 0.20741 0.0
C295 C 0.02937 0.50589 0.18938 0.0
C296 C 0.98594 0.51548 0.20619 0.0
C297 C 0.00177 0.49828 0.19454 0.0
C298 C 0.99855 0.5405 0.21255 0.0
C299 C 0.0941 0.6244 0.21171 0.0
O300 O 0.15048 0.58187 0.23973 0.0
O301 O 0.11303 0.55409 0.23183 0.0
O302 O 0.19892 0.62312 0.21569 0.0
O303 O 0.16073 0.64077 0.22784 0.0
O304 O 0.18953 0.57082 0.20077 0.0
O305 O 0.15192 0.55655 0.21255 0.0
O306 O 0.13706 0.5746 0.17503 0.0
O307 O 0.16575 0.61141 0.1826 0.0
O308 O 0.09135 0.52914 0.20031 0.0
O309 O 0.0751 0.56456 0.18491 0.0
O310 O 0.08327 0.60084 0.21752 0.0
O311 O 0.11564 0.61832 0.20198 0.0
H312 H 0.24536 0.63954 0.23161 0.0
H313 H 0.16644 0.6522 0.26007 0.0
H314 H 0.1925 0.66162 0.28719 0.0
H315 H 0.27154 0.64792 0.25906 0.0
H316 H 0.0354 0.56731 0.21259 0.0
H317 H 0.04102 0.49229 0.18036 0.0
H318 H 0.9927 0.47907 0.18918 0.0
H319 H 0.9872 0.55407 0.22172 0.0
Gd320 Gd 0.81535 0.63972 0.75079 0.0
Gd321 Gd 0.84947 0.5941 0.74039 0.0
C322 C 0.83938 0.59506 0.78221 0.0
C323 C 0.78255 0.67941 0.76325 0.0
C324 C 0.77631 0.70906 0.75812 0.0
C325 C 0.7904 0.72215 0.74367 0.0
C326 C 0.75566 0.72434 0.76749 0.0
C327 C 0.76302 0.7655 0.74795 0.0
C328 C 0.74905 0.75225 0.76247 0.0
C329 C 0.78389 0.75009 0.73867 0.0
C330 C 0.86898 0.6586 0.74109 0.0
C331 C 0.80851 0.6212 0.70862 0.0
C332 C 0.88869 0.56379 0.726 0.0
C333 C 0.89449 0.55132 0.70856 0.0
C334 C 0.90678 0.52438 0.70779 0.0
C335 C 0.88926 0.56651 0.69272 0.0
C336 C 0.91232 0.52952 0.67568 0.0
C337 C 0.8982 0.55572 0.67639 0.0
C338 C 0.91551 0.51345 0.69145 0.0
C339 C 0.7956 0.57687 0.74811 0.0
O340 O 0.81814 0.61224 0.77727 0.0
O341 O 0.85852 0.58863 0.76999 0.0
O342 O 0.77413 0.6601 0.75214 0.0
O343 O 0.80796 0.67431 0.76925 0.0
O344 O 0.8452 0.66905 0.73562 0.0
O345 O 0.86326 0.63673 0.75066 0.0
O346 O 0.83121 0.60538 0.71226 0.0
O347 O 0.79719 0.63595 0.72201 0.0
O348 O 0.8676 0.55282 0.73505 0.0
O349 O 0.88974 0.59148 0.72678 0.0
O350 O 0.81791 0.56175 0.75159 0.0
O351 O 0.80303 0.59903 0.73999 0.0
H352 H 0.80627 0.71067 0.73616 0.0
H353 H 0.74454 0.71464 0.77868 0.0
H354 H 0.73314 0.76354 0.77007 0.0
H355 H 0.79481 0.75941 0.72729 0.0
H356 H 0.91056 0.51224 0.7199 0.0
H357 H 0.87942 0.58724 0.69302 0.0
H358 H 0.89558 0.56869 0.6645 0.0
H359 H 0.92581 0.49294 0.69124 0.0
Gd360 Gd 0.11059 0.06592 1.00047 0.0
Gd361 Gd 0.15583 0.10014 0.98994 0.0
C362 C 0.15452 0.08997 1.0317 0.0
C363 C 0.07078 0.03306 1.01321 0.0
C364 C 0.0412 0.02663 1.00827 0.0
C365 C 0.02674 0.0434 0.9957 0.0
C366 C 0.0274 0.00307 1.01587 0.0
C367 C 0.98492 0.01303 0.99837 0.0
C368 C 0.99957 0.99633 1.01099 0.0
C369 C 0.99891 0.0367 0.99081 0.0
C370 C 0.09147 0.11945 0.99071 0.0
C371 C 0.12908 0.05931 0.95819 0.0
C372 C 0.18707 0.13926 0.97578 0.0
C373 C 0.20441 0.14341 0.95973 0.0
C374 C 0.23042 0.15747 0.96119 0.0
C375 C 0.19504 0.13444 0.94296 0.0
C376 C 0.23589 0.15699 0.92897 0.0
C377 C 0.21066 0.14126 0.92766 0.0
C378 C 0.24614 0.16412 0.94593 0.0
C379 C 0.17349 0.04624 0.99722 0.0
O380 O 0.13804 0.06832 1.02674 0.0
O381 O 0.16009 0.10961 1.01952 0.0
O382 O 0.09024 0.02461 1.00207 0.0
O383 O 0.07578 0.05852 1.01908 0.0
O384 O 0.08161 0.09559 0.98509 0.0
O385 O 0.11309 0.11397 1.00036 0.0
O386 O 0.14514 0.08185 0.96179 0.0
O387 O 0.11428 0.0479 0.97169 0.0
O388 O 0.19662 0.12078 0.98732 0.0
O389 O 0.15958 0.13792 0.97359 0.0
O390 O 0.18838 0.06861 1.00067 0.0
O391 O 0.1513 0.05359 0.98933 0.0
H392 H 0.03698 0.06165 0.98962 0.0
H393 H 0.03825 0.98972 1.02549 0.0
H394 H 0.98973 0.9777 1.01689 0.0
H395 H 0.98827 0.05026 0.98122 0.0
H396 H 0.23811 0.16413 0.9741 0.0
H397 H 0.17516 0.12318 0.94159 0.0
H398 H 0.20207 0.1357 0.91477 0.0
H399 H 0.26573 0.17588 0.94732 0.0
Gd400 Gd 0.68006 0.36152 0.25161 0.0
Gd401 Gd 0.64743 0.40805 0.24133 0.0
C402 C 0.65627 0.40561 0.28324 0.0
C403 C 0.71152 0.32022 0.26336 0.0
C404 C 0.71827 0.29106 0.25714 0.0
C405 C 0.70141 0.26775 0.26237 0.0
C406 C 0.74184 0.28619 0.24598 0.0
C407 C 0.73121 0.23555 0.24515 0.0
C408 C 0.74815 0.25885 0.24001 0.0
C409 C 0.70778 0.24038 0.25643 0.0
C410 C 0.62655 0.34393 0.24157 0.0
C411 C 0.68859 0.38173 0.20943 0.0
C412 C 0.60858 0.4393 0.22726 0.0
C413 C 0.60376 0.45651 0.21121 0.0
C414 C 0.59226 0.48368 0.21309 0.0
C415 C 0.60889 0.44574 0.1941 0.0
C416 C 0.58762 0.48784 0.18094 0.0
C417 C 0.60077 0.46127 0.17906 0.0
C418 C 0.58438 0.49933 0.19806 0.0
C419 C 0.70131 0.42428 0.24911 0.0
O420 O 0.67672 0.38737 0.27851 0.0
O421 O 0.63804 0.41329 0.27083 0.0
O422 O 0.72127 0.3413 0.25373 0.0
O423 O 0.68576 0.32489 0.26907 0.0
O424 O 0.65033 0.33359 0.23597 0.0
O425 O 0.63223 0.36527 0.25135 0.0
O426 O 0.66742 0.39936 0.21336 0.0
O427 O 0.69801 0.36481 0.22252 0.0
O428 O 0.62729 0.44901 0.23843 0.0
O429 O 0.60976 0.41177 0.22527 0.0
O430 O 0.67915 0.43979 0.25217 0.0
O431 O 0.69391 0.40228 0.24107 0.0
H432 H 0.68318 0.27062 0.27102 0.0
H433 H 0.7555 0.30354 0.24184 0.0
H434 H 0.76662 0.2559 0.23158 0.0
H435 H 0.69411 0.22302 0.26054 0.0
H436 H 0.58847 0.49241 0.22622 0.0
H437 H 0.61808 0.42491 0.19234 0.0
H438 H 0.60331 0.45173 0.16605 0.0
H439 H 0.57474 0.51994 0.19988 0.0
Gd440 Gd 0.38558 0.9313 0.49848 0.0
Gd441 Gd 0.33678 0.89643 0.48846 0.0
C442 C 0.34115 0.9077 0.53068 0.0
C443 C 0.42139 0.97126 0.50576 0.0
C444 C 0.45195 0.97545 0.50221 0.0
C445 C 0.46596 0.95951 0.48908 0.0
C446 C 0.46685 0.99684 0.511 0.0
C447 C 0.50911 0.98729 0.49298 0.0
C448 C 0.49514 0.0027 0.50646 0.0
C449 C 0.49423 0.96533 0.48454 0.0
C450 C 0.40905 0.87792 0.49333 0.0
C451 C 0.36526 0.93473 0.45588 0.0
C452 C 0.30423 0.85704 0.47644 0.0
C453 C 0.30447 0.83825 0.46108 0.0
C454 C 0.27909 0.82606 0.4554 0.0
C455 C 0.32986 0.83247 0.45199 0.0
C456 C 0.30442 0.80191 0.43166 0.0
C457 C 0.32985 0.81433 0.4374 0.0
C458 C 0.27903 0.80805 0.44076 0.0
C459 C 0.32229 0.95007 0.49794 0.0
O460 O 0.36001 0.92765 0.52568 0.0
O461 O 0.33206 0.8898 0.51849 0.0
O462 O 0.40545 0.9712 0.49158 0.0
O463 O 0.41426 0.95143 0.51728 0.0
O464 O 0.42215 0.90086 0.49732 0.0
O465 O 0.38268 0.88403 0.49149 0.0
O466 O 0.34671 0.9145 0.46031 0.0
O467 O 0.38316 0.94397 0.46831 0.0
O468 O 0.30042 0.88391 0.47285 0.0
O469 O 0.32413 0.85248 0.4882 0.0
O470 O 0.30641 0.92811 0.50128 0.0
O471 O 0.34352 0.94228 0.4891 0.0
H472 H 0.45479 0.94305 0.48199 0.0
H473 H 0.45644 0.00942 0.52113 0.0
H474 H 0.50603 0.01943 0.51347 0.0
H475 H 0.50411 0.95322 0.47399 0.0
H476 H 0.25933 0.83057 0.46225 0.0
H477 H 0.34964 0.8419 0.45622 0.0
H478 H 0.34975 0.80983 0.43074 0.0
H479 H 0.25903 0.79925 0.43643 0.0
Gd480 Gd 0.14744 0.40719 0.46183 0.0
Gd481 Gd 0.18113 0.36104 0.45204 0.0
C482 C 0.18766 0.38015 0.49415 0.0
C483 C 0.108 0.43811 0.47544 0.0
C484 C 0.1021 0.45387 0.49177 0.0
C485 C 0.09043 0.48107 0.49037 0.0
C486 C 0.10621 0.44154 0.50867 0.0
C487 C 0.08333 0.48197 0.52247 0.0
C488 C 0.09677 0.45545 0.52391 0.0
C489 C 0.08125 0.49513 0.50562 0.0
C490 C 0.20153 0.42383 0.45436 0.0
C491 C 0.15751 0.40504 0.42011 0.0
C492 C 0.21407 0.32099 0.44033 0.0
C493 C 0.22123 0.29218 0.44672 0.0
C494 C 0.20725 0.28012 0.46156 0.0
C495 C 0.24252 0.27667 0.43811 0.0
C496 C 0.23587 0.23722 0.45911 0.0
C497 C 0.24979 0.24949 0.44423 0.0
C498 C 0.21442 0.25289 0.46766 0.0
C499 C 0.12718 0.34291 0.46139 0.0
O500 O 0.16636 0.39759 0.49002 0.0
O501 O 0.19779 0.36367 0.4812 0.0
O502 O 0.12792 0.44836 0.46506 0.0
O503 O 0.10843 0.41041 0.47681 0.0
O504 O 0.17941 0.439 0.45053 0.0
O505 O 0.19383 0.40184 0.46259 0.0
O506 O 0.17856 0.38773 0.4252 0.0
O507 O 0.13843 0.41184 0.43226 0.0
O508 O 0.22285 0.34178 0.45022 0.0
O509 O 0.18814 0.32481 0.43486 0.0
O510 O 0.15072 0.3324 0.46721 0.0
O511 O 0.13331 0.36455 0.45169 0.0
H512 H 0.08745 0.49101 0.47741 0.0
H513 H 0.11553 0.42066 0.51007 0.0
H514 H 0.09848 0.44459 0.53667 0.0
H515 H 0.07147 0.51578 0.50414 0.0
H516 H 0.1909 0.29183 0.4685 0.0
H517 H 0.25356 0.28559 0.42664 0.0
H518 H 0.26613 0.23794 0.43716 0.0
H519 H 0.20349 0.24429 0.47926 0.0
Gd520 Gd 0.8404 0.89853 0.21104 0.0
Gd521 Gd 0.88636 0.93231 0.20134 0.0
C522 C 0.86647 0.93864 0.24353 0.0
C523 C 0.80986 0.85921 0.22548 0.0
C524 C 0.79292 0.8553 0.2418 0.0
C525 C 0.76395 0.84914 0.24037 0.0
C526 C 0.80536 0.85673 0.25874 0.0
C527 C 0.76055 0.84332 0.27254 0.0
C528 C 0.78935 0.85066 0.27396 0.0
C529 C 0.74782 0.84339 0.25562 0.0
C530 C 0.82349 0.9526 0.20389 0.0
C531 C 0.84252 0.90896 0.16945 0.0
C532 C 0.92621 0.96553 0.18929 0.0
C533 C 0.95582 0.97182 0.1945 0.0
C534 C 0.97548 0.95008 0.19796 0.0
C535 C 0.96448 0.0001 0.19635 0.0
C536 C 0.01214 0.98494 0.20479 0.0
C537 C 0.99223 0.0066 0.20147 0.0
C538 C 0.00331 0.95656 0.20299 0.0
C539 C 0.90501 0.87847 0.21052 0.0
O540 O 0.84789 0.91864 0.23901 0.0
O541 O 0.88442 0.94781 0.23089 0.0
O542 O 0.79993 0.87736 0.21382 0.0
O543 O 0.83743 0.86066 0.22733 0.0
O544 O 0.80861 0.93041 0.19989 0.0
O545 O 0.84541 0.94495 0.21202 0.0
O546 O 0.85955 0.93012 0.17465 0.0
O547 O 0.8359 0.88954 0.18153 0.0
O548 O 0.90648 0.97381 0.20033 0.0
O549 O 0.92102 0.94048 0.18279 0.0
O550 O 0.91555 0.90213 0.21598 0.0
O551 O 0.88335 0.88442 0.20099 0.0
H552 H 0.75391 0.84819 0.22741 0.0
H553 H 0.82764 0.86169 0.26024 0.0
H554 H 0.79994 0.85042 0.28675 0.0
H555 H 0.72559 0.83826 0.25412 0.0
H556 H 0.96941 0.92803 0.19676 0.0
H557 H 0.94968 0.01723 0.19391 0.0
H558 H 0.99794 0.02867 0.20303 0.0
H559 H 0.01801 0.93928 0.2052 0.0
Gd560 Gd 0.34896 0.59069 0.96121 0.0
Gd561 Gd 0.31662 0.63762 0.9503 0.0
C562 C 0.30909 0.61921 0.99268 0.0
C563 C 0.38733 0.55782 0.97458 0.0
C564 C 0.39989 0.55218 0.99195 0.0
C565 C 0.4171 0.52831 0.99418 0.0
C566 C 0.39578 0.57097 1.00611 0.0
C567 C 0.42754 0.54284 1.02442 0.0
C568 C 0.40953 0.56631 1.02228 0.0
C569 C 0.43086 0.52362 1.01034 0.0
C570 C 0.29538 0.57522 0.9521 0.0
C571 C 0.34003 0.59238 0.91898 0.0
C572 C 0.28506 0.67848 0.93795 0.0
C573 C 0.2786 0.7076 0.94377 0.0
C574 C 0.28865 0.71777 0.96012 0.0
C575 C 0.26203 0.7254 0.93299 0.0
C576 C 0.26521 0.76324 0.95496 0.0
C577 C 0.25538 0.75292 0.93851 0.0
C578 C 0.28207 0.74531 0.96565 0.0
C579 C 0.36998 0.65515 0.96103 0.0
O580 O 0.33202 0.60363 0.98928 0.0
O581 O 0.29783 0.63369 0.97906 0.0
O582 O 0.36092 0.55023 0.9728 0.0
O583 O 0.39277 0.5828 0.96769 0.0
O584 O 0.31771 0.5602 0.94852 0.0
O585 O 0.30254 0.59677 0.96073 0.0
O586 O 0.32069 0.61203 0.92332 0.0
O587 O 0.3569 0.58304 0.93174 0.0
O588 O 0.27557 0.6581 0.94824 0.0
O589 O 0.31094 0.67386 0.93252 0.0
O590 O 0.34604 0.66608 0.96583 0.0
O591 O 0.36436 0.63357 0.95143 0.0
H592 H 0.42028 0.51359 0.98333 0.0
H593 H 0.38254 0.58956 1.00451 0.0
H594 H 0.40683 0.58157 1.03287 0.0
H595 H 0.44432 0.50515 1.01177 0.0
H596 H 0.3014 0.70432 0.96868 0.0
H597 H 0.25415 0.71799 0.9203 0.0
H598 H 0.24272 0.7662 0.9298 0.0
H599 H 0.28974 0.75235 0.97847 0.0
Gd600 Gd 0.65663 0.1042 0.71193 0.0
Gd601 Gd 0.61142 0.06948 0.70132 0.0
C602 C 0.62964 0.06207 0.74367 0.0
C603 C 0.68589 0.14406 0.72628 0.0
C604 C 0.70172 0.14867 0.74276 0.0
C605 C 0.72897 0.16038 0.74167 0.0
C606 C 0.68992 0.14208 0.75954 0.0
C607 C 0.73173 0.16102 0.77402 0.0
C608 C 0.70477 0.14833 0.77505 0.0
C609 C 0.74394 0.1664 0.75717 0.0
C610 C 0.67471 0.0506 0.70488 0.0
C611 C 0.65639 0.09408 0.67014 0.0
C612 C 0.57229 0.03637 0.68875 0.0
C613 C 0.54288 0.02939 0.69401 0.0
C614 C 0.53109 0.03995 0.70987 0.0
C615 C 0.52648 0.01168 0.68326 0.0
C616 C 0.48678 0.01482 0.70424 0.0
C617 C 0.49874 0.00445 0.6883 0.0
C618 C 0.50332 0.03278 0.71493 0.0
C619 C 0.59206 0.12281 0.71068 0.0
O620 O 0.64605 0.08448 0.73998 0.0
O621 O 0.61449 0.05135 0.73031 0.0
O622 O 0.69677 0.12569 0.71527 0.0
O623 O 0.65826 0.14223 0.72771 0.0
O624 O 0.68994 0.07307 0.70184 0.0
O625 O 0.65211 0.05768 0.71249 0.0
O626 O 0.63934 0.07264 0.67509 0.0
O627 O 0.6622 0.11338 0.68225 0.0
O628 O 0.59197 0.02789 0.6997 0.0
O629 O 0.57677 0.06212 0.68288 0.0
O630 O 0.58168 0.09884 0.71614 0.0
O631 O 0.61403 0.11744 0.70122 0.0
H632 H 0.73849 0.16531 0.7288 0.0
H633 H 0.66899 0.13275 0.7607 0.0
H634 H 0.69462 0.14423 0.78782 0.0
H635 H 0.76486 0.17573 0.75595 0.0
H636 H 0.54345 0.05355 0.71842 0.0
H637 H 0.53517 0.00336 0.67095 0.0
H638 H 0.48655 0.99093 0.67961 0.0
H639 H 0.495 0.0409 0.72737 0.0
H640 H 0.37526 0.21275 0.24415 0.0
H641 H 0.41644 0.24373 0.24575 0.0
H642 H 0.47145 0.17177 0.23854 0.0
H643 H 0.42969 0.14024 0.23839 0.0
H644 H 0.50054 0.20314 0.25672 0.0
H645 H 0.45188 0.23131 0.20402 0.0
H646 H 0.41185 0.24688 0.1853 0.0
H647 H 0.40335 0.32238 0.21646 0.0
H648 H 0.44315 0.30711 0.23549 0.0
H649 H 0.61953 0.28943 0.22967 0.0
H650 H 0.57775 0.25883 0.23005 0.0
H651 H 0.52874 0.32561 0.25386 0.0
H652 H 0.57114 0.35655 0.25373 0.0
H653 H 0.49746 0.29751 0.22711 0.0
H654 H 0.551 0.26684 0.27853 0.0
H655 H 0.59417 0.25008 0.29374 0.0
H656 H 0.59671 0.17695 0.26005 0.0
H657 H 0.55374 0.19347 0.24448 0.0
C658 C 0.39609 0.20328 0.24297 0.0
C659 C 0.39859 0.17358 0.24108 0.0
C660 C 0.42008 0.22138 0.24361 0.0
C661 C 0.44808 0.21107 0.24157 0.0
C662 C 0.45065 0.18115 0.24003 0.0
C663 C 0.42649 0.16281 0.23993 0.0
C664 C 0.47415 0.23129 0.24125 0.0
C665 C 0.4996 0.22353 0.24996 0.0
C666 C 0.47417 0.25859 0.23271 0.0
C667 C 0.4503 0.26791 0.22129 0.0
C668 C 0.44137 0.25115 0.20694 0.0
C669 C 0.41873 0.25994 0.19627 0.0
C670 C 0.40501 0.28556 0.19973 0.0
C671 C 0.41397 0.30251 0.21382 0.0
C672 C 0.43658 0.29382 0.22454 0.0
C673 C 0.59998 0.2979 0.23506 0.0
C674 C 0.59936 0.3259 0.24175 0.0
C675 C 0.57578 0.28004 0.23533 0.0
C676 C 0.54942 0.2892 0.24216 0.0
C677 C 0.54845 0.31744 0.24852 0.0
C678 C 0.57294 0.33532 0.24849 0.0
C679 C 0.52339 0.26928 0.24261 0.0
C680 C 0.49811 0.2771 0.23389 0.0
C681 C 0.52381 0.24175 0.25066 0.0
C682 C 0.54927 0.2315 0.26026 0.0
C683 C 0.56084 0.24725 0.27431 0.0
C684 C 0.58527 0.23779 0.283 0.0
C685 C 0.59821 0.21249 0.27784 0.0
C686 C 0.58667 0.19654 0.26403 0.0
C687 C 0.56226 0.20593 0.25528 0.0
H688 H 0.61714 0.20523 0.28457 0.0
H689 H 0.38748 0.29232 0.19146 0.0
H690 H 0.5416 0.62872 0.47468 0.0
H691 H 0.51015 0.66956 0.47525 0.0
H692 H 0.57324 0.71711 0.50361 0.0
H693 H 0.60468 0.67525 0.50367 0.0
H694 H 0.52606 0.73303 0.5168 0.0
H695 H 0.55184 0.72697 0.45527 0.0
H696 H 0.55844 0.70452 0.42593 0.0
H697 H 0.46925 0.68684 0.42342 0.0
H698 H 0.46216 0.70889 0.45285 0.0
H699 H 0.46411 0.86844 0.50195 0.0
H700 H 0.49285 0.82588 0.50081 0.0
H701 H 0.42161 0.77891 0.48096 0.0
H702 H 0.39207 0.82244 0.48208 0.0
H703 H 0.47134 0.76223 0.46339 0.0
H704 H 0.44641 0.77068 0.52514 0.0
H705 H 0.44114 0.79505 0.55395 0.0
H706 H 0.53085 0.81028 0.5553 0.0
H707 H 0.53662 0.78631 0.52637 0.0
C708 C 0.54916 0.64783 0.481 0.0
C709 C 0.57628 0.64808 0.48903 0.0
C710 C 0.53089 0.6717 0.48118 0.0
C711 C 0.5388 0.69761 0.48909 0.0
C712 C 0.56596 0.69795 0.49724 0.0
C713 C 0.58428 0.67378 0.4972 0.0
C714 C 0.51861 0.72361 0.48918 0.0
C715 C 0.51456 0.73941 0.50494 0.0
C716 C 0.50237 0.73255 0.47404 0.0
C717 C 0.50653 0.71933 0.45635 0.0
C718 C 0.53366 0.71813 0.44851 0.0
C719 C 0.53749 0.7055 0.43186 0.0
C720 C 0.51429 0.69419 0.42284 0.0
C721 C 0.4872 0.69557 0.43043 0.0
C722 C 0.48327 0.70815 0.44709 0.0
C723 C 0.45408 0.8492 0.49736 0.0
C724 C 0.42518 0.84959 0.49224 0.0
C725 C 0.47089 0.82442 0.49679 0.0
C726 C 0.45996 0.79825 0.49107 0.0
C727 C 0.43111 0.79839 0.48558 0.0
C728 C 0.41397 0.8235 0.48628 0.0
C729 C 0.47894 0.77148 0.49098 0.0
C730 C 0.48281 0.75567 0.47523 0.0
C731 C 0.49525 0.76268 0.50605 0.0
C732 C 0.4919 0.77689 0.52351 0.0
C733 C 0.46499 0.77938 0.53152 0.0
C734 C 0.46192 0.7931 0.54788 0.0
C735 C 0.48564 0.80425 0.55643 0.0
C736 C 0.51249 0.80164 0.54865 0.0
C737 C 0.51568 0.78796 0.53229 0.0
H738 H 0.48321 0.81488 0.56909 0.0
H739 H 0.51729 0.68443 0.40995 0.0
H740 H 0.06803 0.86195 0.74387 0.0
H741 H 0.02539 0.83186 0.74372 0.0
H742 H 0.07813 0.75744 0.74054 0.0
H743 H 0.12008 0.78746 0.73933 0.0
H744 H 0.03848 0.74286 0.72337 0.0
H745 H 0.0329 0.78598 0.78102 0.0
H746 H 0.0309 0.82494 0.80274 0.0
H747 H 0.95541 0.85694 0.77795 0.0
H748 H 0.95714 0.81833 0.75596 0.0
H749 H 0.92542 0.64374 0.7493 0.0
H750 H 0.96789 0.67452 0.74953 0.0
H751 H 0.91646 0.74626 0.73486 0.0
H752 H 0.87454 0.71573 0.73416 0.0
H753 H 0.95434 0.76165 0.76124 0.0
H754 H 0.96073 0.7146 0.70456 0.0
H755 H 0.96337 0.67322 0.68474 0.0
H756 H 0.03931 0.64541 0.71092 0.0
H757 H 0.0369 0.68644 0.73107 0.0
C758 C 0.07057 0.83917 0.74323 0.0
C759 C 0.09808 0.82758 0.7417 0.0
C760 C 0.04586 0.82159 0.74331 0.0
C761 C 0.04748 0.79147 0.74251 0.0
C762 C 0.07515 0.78017 0.7411 0.0
C763 C 0.09962 0.79767 0.74053 0.0
C764 C 0.02108 0.77166 0.74278 0.0
C765 C 0.0205 0.74707 0.73201 0.0
C766 C 0.99644 0.77626 0.75358 0.0
C767 C 0.99533 0.79947 0.76674 0.0
C768 C 0.01597 0.80143 0.78014 0.0
C769 C 0.01488 0.82343 0.79251 0.0
C770 C 0.99309 0.84345 0.79169 0.0
C771 C 0.9723 0.84145 0.77854 0.0
C772 C 0.97332 0.81951 0.76613 0.0
C773 C 0.92308 0.66604 0.74609 0.0
C774 C 0.896 0.67681 0.74168 0.0
C775 C 0.94762 0.68384 0.74618 0.0
C776 C 0.94608 0.71329 0.74219 0.0
C777 C 0.91893 0.72396 0.73807 0.0
C778 C 0.89467 0.70618 0.73761 0.0
C779 C 0.97226 0.73299 0.74212 0.0
C780 C 0.97261 0.75753 0.75281 0.0
C781 C 0.99694 0.72801 0.73159 0.0
C782 C 0.99846 0.70342 0.71945 0.0
C783 C 0.97786 0.69953 0.70619 0.0
C784 C 0.97934 0.67616 0.69487 0.0
C785 C 0.00144 0.65665 0.6966 0.0
C786 C 0.02217 0.66052 0.70962 0.0
C787 C 0.02077 0.68383 0.72098 0.0
H788 H 0.00255 0.63857 0.68783 0.0
H789 H 0.99228 0.86046 0.80127 0.0
H790 H 0.03797 0.12692 0.97707 0.0
H791 H 0.0068 0.16806 0.9776 0.0
H792 H 0.07112 0.21582 1.00473 0.0
H793 H 0.10223 0.17375 1.00482 0.0
H794 H 0.02472 0.23261 1.01821 0.0
H795 H 0.04856 0.22438 0.95651 0.0
H796 H 0.05399 0.20102 0.92737 0.0
H797 H 0.96449 0.18452 0.92606 0.0
H798 H 0.95858 0.20748 0.95531 0.0
H799 H 0.96492 0.36858 1.00232 0.0
H800 H 0.99285 0.32548 1.00127 0.0
H801 H 0.91996 0.27914 0.98323 0.0
H802 H 0.89125 0.32323 0.98427 0.0
H803 H 0.96889 0.26106 0.96511 0.0
H804 H 0.94611 0.27203 1.02706 0.0
H805 H 0.9423 0.29754 1.05556 0.0
H806 H 0.03231 0.31114 1.05548 0.0
H807 H 0.03662 0.28603 1.02685 0.0
C808 C 0.04581 0.14614 0.98312 0.0
C809 C 0.07317 0.14644 0.9908 0.0
C810 C 0.02773 0.17017 0.98327 0.0
C811 C 0.03611 0.19623 0.99081 0.0
C812 C 0.06348 0.19655 0.99866 0.0
C813 C 0.08158 0.17226 0.99865 0.0
C814 C 0.01626 0.22246 0.99081 0.0
C815 C 0.01297 0.2388 1.00641 0.0
C816 C -0.00027 0.23119 0.97577 0.0
C817 C 0.00318 0.21739 0.95819 0.0
C818 C 0.03007 0.21559 0.95006 0.0
C819 C 0.03323 0.20245 0.93352 0.0
C820 C 0.00961 0.19122 0.92489 0.0
C821 C 0.98277 0.19319 0.93277 0.0
C822 C 0.9795 0.20628 0.94933 0.0
C823 C 0.95437 0.34938 0.99814 0.0
C824 C 0.92526 0.3501 0.9935 0.0
C825 C 0.9707 0.32429 0.99762 0.0
C826 C 0.95905 0.29814 0.99245 0.0
C827 C 0.93 0.29861 0.98742 0.0
C828 C 0.91334 0.32403 0.98806 0.0
C829 C 0.97751 0.27103 0.99247 0.0
C830 C 0.9806 0.25466 0.97689 0.0
C831 C 0.99413 0.26245 1.00746 0.0
C832 C 0.99165 0.27734 1.02474 0.0
C833 C 0.96507 0.28061 1.03307 0.0
C834 C 0.96282 0.29498 1.04925 0.0
C835 C 0.98704 0.306 1.05731 0.0
C836 C 0.01357 0.30261 1.04922 0.0
C837 C 0.01593 0.28828 1.03302 0.0
H838 H 0.98525 0.31712 1.06984 0.0
H839 H 0.0121 0.18106 0.91209 0.0
H840 H 0.61635 0.79053 0.97414 0.0
H841 H 0.57468 0.75991 0.97314 0.0
H842 H 0.52701 0.82722 0.94842 0.0
H843 H 0.56937 0.85823 0.94917 0.0
H844 H 0.49402 0.79831 0.97461 0.0
H845 H 0.5505 0.76908 0.92425 0.0
H846 H 0.59448 0.75291 0.90959 0.0
H847 H 0.59568 0.67889 0.94339 0.0
H848 H 0.55191 0.69481 0.95842 0.0
H849 H 0.37333 0.71286 0.95608 0.0
H850 H 0.41434 0.74416 0.955 0.0
H851 H 0.46943 0.67252 0.96355 0.0
H852 H 0.42792 0.64066 0.96318 0.0
H853 H 0.49937 0.70444 0.9456 0.0
H854 H 0.44732 0.73171 0.99735 0.0
H855 H 0.40597 0.74687 1.01515 0.0
H856 H 0.399 0.82252 0.98314 0.0
H857 H 0.44015 0.80766 0.96502 0.0
C858 C 0.59713 0.79914 0.96841 0.0
C859 C 0.59692 0.82734 0.96168 0.0
C860 C 0.57298 0.78125 0.96779 0.0
C861 C 0.54701 0.79052 0.96052 0.0
C862 C 0.5464 0.81894 0.9541 0.0
C863 C 0.57088 0.83687 0.95449 0.0
C864 C 0.52105 0.77051 0.95971 0.0
C865 C 0.49519 0.77802 0.96797 0.0
C866 C 0.52205 0.74312 0.9518 0.0
C867 C 0.54805 0.73325 0.94255 0.0
C868 C 0.56023 0.74943 0.92862 0.0
C869 C 0.58511 0.7403 0.92024 0.0
C870 C 0.5979 0.71492 0.92558 0.0
C871 C 0.58576 0.69855 0.93928 0.0
C872 C 0.5609 0.7076 0.94772 0.0
C873 C 0.39414 0.70351 0.95767 0.0
C874 C 0.39671 0.67378 0.95977 0.0
C875 C 0.41803 0.72182 0.95734 0.0
C876 C 0.44599 0.71171 0.9599 0.0
C877 C 0.44866 0.68177 0.96166 0.0
C878 C 0.42463 0.66323 0.96147 0.0
C879 C 0.47191 0.73214 0.96049 0.0
C880 C 0.49792 0.72471 0.95223 0.0
C881 C 0.47128 0.75935 0.96884 0.0
C882 C 0.44663 0.76843 0.97973 0.0
C883 C 0.43687 0.75151 0.99405 0.0
C884 C 0.41348 0.76005 1.0042 0.0
C885 C 0.39982 0.7856 1.00024 0.0
C886 C 0.40958 0.80271 0.98617 0.0
C887 C 0.43295 0.79426 0.97597 0.0
H888 H 0.3817 0.79217 1.00811 0.0
H889 H 0.61718 0.70791 0.9191 0.0
H890 H 0.60676 0.17961 0.70273 0.0
H891 H 0.57582 0.22193 0.70252 0.0
H892 H 0.50418 0.1696 0.71658 0.0
H893 H 0.53486 0.12783 0.71728 0.0
H894 H 0.48893 0.20833 0.69022 0.0
H895 H 0.53533 0.2129 0.74726 0.0
H896 H 0.57649 0.21508 0.76735 0.0
H897 H 0.60416 0.29217 0.74174 0.0
H898 H 0.56336 0.29023 0.72131 0.0
H899 H 0.38772 0.32039 0.70742 0.0
H900 H 0.41813 0.27806 0.70763 0.0
H901 H 0.49204 0.3314 0.71185 0.0
H902 H 0.46163 0.37302 0.71304 0.0
H903 H 0.50683 0.29112 0.72871 0.0
H904 H 0.46437 0.28746 0.67074 0.0
H905 H 0.42571 0.28597 0.64871 0.0
H906 H 0.39392 0.20925 0.67283 0.0
H907 H 0.43222 0.21047 0.69512 0.0
C908 C 0.58445 0.17704 0.7058 0.0
C909 C 0.57375 0.14975 0.71004 0.0
C910 C 0.56655 0.20149 0.70573 0.0
C911 C 0.53708 0.19965 0.70956 0.0
C912 C 0.52649 0.1723 0.7135 0.0
C913 C 0.54436 0.14813 0.71395 0.0
C914 C 0.51727 0.22571 0.70963 0.0
C915 C 0.49285 0.2263 0.69878 0.0
C916 C 0.522 0.25002 0.72034 0.0
C917 C 0.54646 0.25125 0.73263 0.0
C918 C 0.55032 0.23019 0.74581 0.0
C919 C 0.57356 0.2314 0.75728 0.0
C920 C 0.59298 0.2537 0.75579 0.0
C921 C 0.58914 0.27488 0.74286 0.0
C922 C 0.56595 0.27374 0.73134 0.0
C923 C 0.41045 0.32313 0.70833 0.0
C924 C 0.42177 0.3507 0.71014 0.0
C925 C 0.42823 0.29861 0.70827 0.0
C926 C 0.45832 0.30048 0.70933 0.0
C927 C 0.46935 0.32822 0.71106 0.0
C928 C 0.45163 0.35249 0.71162 0.0
C929 C 0.47833 0.27427 0.70901 0.0
C930 C 0.50281 0.27345 0.71993 0.0
C931 C 0.474 0.25002 0.69803 0.0
C932 C 0.45095 0.24924 0.6847 0.0
C933 C 0.44902 0.27037 0.6714 0.0
C934 C 0.4272 0.26956 0.65887 0.0
C935 C 0.40733 0.24758 0.65941 0.0
C936 C 0.40929 0.2263 0.67245 0.0
C937 C 0.43106 0.22703 0.68503 0.0
H938 H 0.39044 0.24699 0.64969 0.0
H939 H 0.61095 0.25461 0.76468 0.0
H940 H 0.07074 0.35785 0.45321 0.0
H941 H 0.02836 0.32695 0.45262 0.0
H942 H 0.08 0.25496 0.46644 0.0
H943 H 0.12181 0.28558 0.46756 0.0
H944 H 0.04178 0.24074 0.43949 0.0
H945 H 0.03652 0.2848 0.49721 0.0
H946 H 0.0342 0.32517 0.51785 0.0
H947 H 0.95763 0.35402 0.49286 0.0
H948 H 0.95972 0.31402 0.47189 0.0
H949 H 0.92918 0.13903 0.45597 0.0
H950 H 0.97162 0.16938 0.45631 0.0
H951 H 0.91848 0.24321 0.46153 0.0
H952 H 0.87674 0.21285 0.46255 0.0
H953 H 0.95851 0.25717 0.47856 0.0
H954 H 0.96274 0.21715 0.42002 0.0
H955 H 0.96427 0.1794 0.39746 0.0
H956 H 0.0406 0.14646 0.4207 0.0
H957 H 0.03934 0.18385 0.44352 0.0
C958 C 0.07314 0.33546 0.45614 0.0
C959 C 0.10024 0.32465 0.46046 0.0
C960 C 0.04867 0.3176 0.45585 0.0
C961 C 0.05031 0.28805 0.45949 0.0
C962 C 0.07747 0.27733 0.4635 0.0
C963 C 0.10166 0.29517 0.46419 0.0
C964 C 0.0242 0.26829 0.45936 0.0
C965 C 0.02369 0.24434 0.44817 0.0
C966 C -0.00023 0.27263 0.47023 0.0
C967 C 0.99845 0.2966 0.48286 0.0
C968 C 0.01932 0.29989 0.49601 0.0
C969 C 0.01802 0.32268 0.50779 0.0
C970 C 0.99583 0.3422 0.50663 0.0
C971 C 0.97484 0.33892 0.49372 0.0
C972 C 0.97606 0.31618 0.48189 0.0
C973 C 0.92651 0.16174 0.45711 0.0
C974 C 0.89897 0.17306 0.45914 0.0
C975 C 0.95109 0.17948 0.45714 0.0
C976 C 0.94929 0.20952 0.45855 0.0
C977 C 0.92158 0.22055 0.46048 0.0
C978 C 0.89725 0.20286 0.46094 0.0
C979 C 0.97556 0.22948 0.4584 0.0
C980 C 0.97629 0.25349 0.46966 0.0
C981 C -7e-05 0.22556 0.44725 0.0
C982 C 0.00076 0.20309 0.43358 0.0
C983 C 0.97975 0.20175 0.42038 0.0
C984 C 0.98058 0.18043 0.40754 0.0
C985 C 0.00247 0.16049 0.40768 0.0
C986 C 0.02363 0.16188 0.42063 0.0
C987 C 0.02288 0.18314 0.43351 0.0
H988 H 0.00307 0.144 0.39774 0.0
H989 H 0.99486 0.35983 0.51576 0.0
H990 H 0.03792 0.63067 0.22071 0.0
H991 H 0.00741 0.67243 0.21963 0.0
H992 H 0.07748 0.72282 0.20042 0.0
H993 H 0.10835 0.6804 0.20111 0.0
H994 H 0.04465 0.75161 0.22739 0.0
H995 H 0.02442 0.70396 0.17222 0.0
H996 H 0.01093 0.66278 0.15409 0.0
H997 H 0.93172 0.65647 0.18238 0.0
H998 H 0.9449 0.6974 0.20086 0.0
H999 H 0.96311 0.87528 0.20958 0.0
H1000 H 0.99429 0.83432 0.20851 0.0
H1001 H 0.92162 0.77886 0.20908 0.0
H1002 H 0.89007 0.82058 0.20873 0.0
H1003 H 0.95646 0.75177 0.19172 0.0
H1004 H 0.97416 0.79453 0.24781 0.0
H1005 H 0.98585 0.83238 0.26906 0.0
H1006 H 0.06674 0.84427 0.24348 0.0
H1007 H 0.05541 0.80669 0.22195 0.0
C1008 C 0.04714 0.65051 0.21618 0.0
C1009 C 0.07606 0.65152 0.21094 0.0
C1010 C 0.02935 0.6747 0.21551 0.0
C1011 C 0.0395 0.70146 0.20981 0.0
C1012 C 0.06857 0.70279 0.20487 0.0
C1013 C 0.0864 0.67829 0.20522 0.0
C1014 C 0.01971 0.72749 0.20908 0.0
C1015 C 0.02565 0.75172 0.2193 0.0
C1016 C 0.99387 0.72793 0.19928 0.0
C1017 C 0.98575 0.70361 0.18801 0.0
C1018 C 0.00419 0.69369 0.17465 0.0
C1019 C 0.99659 0.6704 0.1643 0.0
C1020 C 0.97051 0.65698 0.1671 0.0
C1021 C 0.95192 0.66688 0.18023 0.0
C1022 C 0.95943 0.69014 0.19063 0.0
C1023 C 0.9535 0.85442 0.20942 0.0
C1024 C 0.92361 0.85183 0.20932 0.0
C1025 C 0.97169 0.83052 0.20908 0.0
C1026 C 0.96116 0.80241 0.20942 0.0
C1027 C 0.93113 0.79975 0.20896 0.0
C1028 C 0.91279 0.82388 0.20879 0.0
C1029 C 0.98133 0.77638 0.21 0.0
C1030 C 0.97544 0.75197 0.19979 0.0
C1031 C 0.00687 0.77544 0.22025 0.0
C1032 C 0.0138 0.798 0.23316 0.0
C1033 C 0.99437 0.80534 0.24666 0.0
C1034 C 0.00094 0.82672 0.25875 0.0
C1035 C 0.02698 0.84078 0.25758 0.0
C1036 C 0.04656 0.8334 0.24435 0.0
C1037 C 0.04008 0.81204 0.23221 0.0
H1038 H 0.03203 0.85734 0.26696 0.0
H1039 H 0.96467 0.63894 0.15908 0.0
H1040 H 0.47277 0.00443 0.17742 0.0
H1041 H 0.50101 0.99775 0.15055 0.0
H1042 H 0.42483 0.99653 0.11891 0.0
H1043 H 0.39621 0.00346 0.14593 0.0
H1044 H 0.50579 0.96069 0.12403 0.0
H1045 H 0.4367 0.03514 1.08135 0.0
H1046 H 0.40225 0.07401 1.0852 0.0
H1047 H 0.4416 0.09676 0.1346 0.0
H1048 H 0.47643 0.05824 0.13095 0.0
H1049 H 0.52692 0.99425 1.02523 0.0
H1050 H 0.49921 0.00046 1.05235 0.0
H1051 H 0.576 0.00119 1.08342 0.0
H1052 H 0.60409 0.99466 1.05612 0.0
H1053 H 0.49508 0.03743 1.07875 0.0
H1054 H 0.56441 0.9634 0.12133 0.0
H1055 H 0.59925 0.92489 0.1174 0.0
H1056 H 0.55964 0.90149 1.06821 0.0
H1057 H 0.52443 0.93966 1.07194 0.0
C1058 C 0.46189 0.00183 0.16484 0.0
C1059 C 0.43229 0.00462 0.16372 0.0
C1060 C 0.47811 0.99814 0.14949 0.0
C1061 C 0.46501 0.99722 0.13278 0.0
C1062 C 0.4353 0.99776 0.13172 0.0
C1063 C 0.41902 0.00165 0.1471 0.0
C1064 C 0.4827 0.9983 0.11652 0.0
C1065 C 0.50362 0.97756 0.11419 0.0
C1066 C 0.47964 0.02026 0.10367 0.0
C1067 C 0.459 0.04368 0.10593 0.0
C1068 C 0.43804 0.04852 1.09299 0.0
C1069 C 0.41845 0.07046 1.09515 0.0
C1070 C 0.41975 0.08784 0.11013 0.0
C1071 C 0.4406 0.08326 0.12301 0.0
C1072 C 0.46025 0.06136 0.12092 0.0
C1073 C 0.53804 0.9966 1.03774 0.0
C1074 C 0.56766 0.99386 1.03861 0.0
C1075 C 0.52213 3e-05 1.05324 0.0
C1076 C 0.53555 0.00073 1.06985 0.0
C1077 C 0.56528 0.00011 1.07069 0.0
C1078 C 0.58126 0.99646 1.05515 0.0
C1079 C 0.51811 -0.00024 1.08623 0.0
C1080 C 0.49725 0.02054 1.08859 0.0
C1081 C 0.52123 0.97785 1.0991 0.0
C1082 C 0.54196 0.9545 1.09686 0.0
C1083 C 0.56309 0.94994 0.10972 0.0
C1084 C 0.5829 0.92821 0.10752 0.0
C1085 C 0.58165 0.91077 1.09256 0.0
C1086 C 0.5606 0.91504 1.07977 0.0
C1087 C 0.54073 0.93673 1.08191 0.0
H1088 H 0.59694 0.89389 1.09092 0.0
H1089 H 0.40468 0.10491 0.11172 0.0
H1090 H 0.68 0.67397 0.39579 0.0
H1091 H 0.68401 0.70385 0.36907 0.0
H1092 H 0.72563 0.76857 0.39976 0.0
H1093 H 0.72071 0.73927 0.42669 0.0
H1094 H 0.68777 0.79126 0.37689 0.0
H1095 H 0.76417 0.72461 0.37489 0.0
H1096 H 0.78655 0.6774 0.3756 0.0
H1097 H 0.73934 0.65318 0.32933 0.0
H1098 H 0.71635 0.70015 0.32849 0.0
H1099 H 0.76312 0.8627 0.30679 0.0
H1100 H 0.74514 0.83877 0.33359 0.0
H1101 H 0.70445 0.77602 0.30087 0.0
H1102 H 0.72347 0.79896 0.27415 0.0
H1103 H 0.73921 0.7525 0.32459 0.0
H1104 H 0.66564 0.82325 0.32605 0.0
H1105 H 0.64706 0.8721 0.32573 0.0
H1106 H 0.69329 0.89049 0.37347 0.0
H1107 H 0.71244 0.84185 0.37396 0.0
C1108 C 0.68963 0.69473 0.39688 0.0
C1109 C 0.70022 0.70428 0.41325 0.0
C1110 C 0.69207 0.71166 0.38162 0.0
C1111 C 0.70537 0.7382 0.38249 0.0
C1112 C 0.71534 0.74809 0.39888 0.0
C1113 C 0.7128 0.73123 0.41416 0.0
C1114 C 0.70988 0.75522 0.36615 0.0
C1115 C 0.69915 0.78293 0.36546 0.0
C1116 C 0.72451 0.74408 0.35128 0.0
C1117 C 0.73828 0.71579 0.35176 0.0
C1118 C 0.75836 0.70913 0.36496 0.0
C1119 C 0.7712 0.68243 0.36537 0.0
C1120 C 0.7643 0.66227 0.35255 0.0
C1121 C 0.74461 0.6688 0.33927 0.0
C1122 C 0.73168 0.69546 0.33882 0.0
C1123 C 0.74998 0.84407 0.30533 0.0
C1124 C 0.74494 0.83261 0.28839 0.0
C1125 C 0.73948 0.83059 0.32062 0.0
C1126 C 0.72344 0.80568 0.31915 0.0
C1127 C 0.71678 0.79527 0.30223 0.0
C1128 C 0.72747 0.80859 0.28696 0.0
C1129 C 0.71677 0.78851 0.33516 0.0
C1130 C 0.72739 0.76076 0.33587 0.0
C1131 C 0.70245 0.79981 0.3501 0.0
C1132 C 0.69061 0.82895 0.34997 0.0
C1133 C 0.67198 0.83776 0.33642 0.0
C1134 C 0.66132 0.86541 0.33622 0.0
C1135 C 0.66903 0.8844 0.34955 0.0
C1136 C 0.68734 0.87576 0.36315 0.0
C1137 C 0.69806 0.84814 0.36341 0.0
H1138 H 0.66078 0.90581 0.34936 0.0
H1139 H 0.77427 0.64162 0.35288 0.0
H1140 H 0.09944 0.96722 0.64063 0.0
H1141 H 0.07024 0.97354 0.61394 0.0
H1142 H 0.00034 0.00105 0.64689 0.0
H1143 H 0.02906 0.99457 0.67346 0.0
H1144 H 0.02112 0.9452 0.60688 0.0
H1145 H 0.96136 0.04923 0.6242 0.0
H1146 H 0.97068 0.09435 0.6395 0.0
H1147 H 0.05964 0.08621 0.62824 0.0
H1148 H 0.05082 0.04129 0.61265 0.0
H1149 H 0.89137 0.01268 0.55702 0.0
H1150 H 0.91949 0.00269 0.58375 0.0
H1151 H 0.99086 0.98008 0.55057 0.0
H1152 H 0.96349 0.99084 0.52398 0.0
H1153 H 0.96921 0.03311 0.59066 0.0
H1154 H 0.02996 0.93032 0.57317 0.0
H1155 H 0.02173 0.88563 0.55715 0.0
H1156 H 0.9324 0.89203 0.56765 0.0
H1157 H 0.94012 0.9365 0.58395 0.0
C1158 C 0.07797 0.97497 0.64211 0.0
C1159 C 0.06661 0.98057 0.65911 0.0
C1160 C 0.06136 0.97852 0.62691 0.0
C1161 C 0.03327 0.98787 0.62852 0.0
C1162 C 0.02216 0.99426 0.64539 0.0
C1163 C 0.03869 0.9907 0.66055 0.0
C1164 C 0.01479 0.9894 0.61278 0.0
C1165 C 0.01009 0.96451 0.60312 0.0
C1166 C -5e-05 0.01445 0.60829 0.0
C1167 C 0.00542 0.04173 0.6174 0.0
C1168 C 0.98289 0.05713 0.62491 0.0
C1169 C 0.98809 0.08267 0.63365 0.0
C1170 C 0.01574 0.09309 0.63489 0.0
C1171 C 0.03824 0.07806 0.62733 0.0
C1172 C 0.03315 0.05253 0.61857 0.0
C1173 C 0.91293 0.00522 0.55546 0.0
C1174 C 0.92527 0.00278 0.53842 0.0
C1175 C 0.92887 -0.00055 0.57069 0.0
C1176 C 0.95715 0.9907 0.56903 0.0
C1177 C 0.96893 0.98649 0.55207 0.0
C1178 C 0.95314 0.99249 0.53687 0.0
C1179 C 0.97543 0.98888 0.58483 0.0
C1180 C 0.98017 0.01377 0.59446 0.0
C1181 C 0.99047 0.96391 0.58918 0.0
C1182 C 0.98563 0.9369 0.57964 0.0
C1183 C 0.00858 0.92212 0.57213 0.0
C1184 C 0.004 0.89683 0.56299 0.0
C1185 C 0.97655 0.88604 0.56133 0.0
C1186 C 0.95364 0.90046 0.56888 0.0
C1187 C 0.9581 0.92574 0.57804 0.0
H1188 H 0.97305 0.86648 0.55423 0.0
H1189 H 0.01973 0.11284 0.64167 0.0
H1190 H 0.81032 0.3216 0.89754 0.0
H1191 H 0.80444 0.29187 0.87123 0.0
H1192 H 0.77687 0.22235 0.90495 0.0
H1193 H 0.78289 0.25185 0.93132 0.0
H1194 H 0.82718 0.24119 0.86082 0.0
H1195 H 0.72115 0.19013 0.88406 0.0
H1196 H 0.68007 0.2016 0.90323 0.0
H1197 H 0.69538 0.29052 0.89496 0.0
H1198 H 0.73623 0.27959 0.87555 0.0
H1199 H 0.73463 0.13386 0.80648 0.0
H1200 H 0.75238 0.15341 0.83446 0.0
H1201 H 0.77842 0.22956 0.80654 0.0
H1202 H 0.76018 0.21067 0.77874 0.0
H1203 H 0.73106 0.20312 0.84898 0.0
H1204 H 0.83639 0.2566 0.82739 0.0
H1205 H 0.87602 0.24833 0.80647 0.0
H1206 H 0.86043 0.15868 0.80899 0.0
H1207 H 0.82097 0.16636 0.83012 0.0
C1208 C 0.80342 0.29984 0.89934 0.0
C1209 C 0.79682 0.28905 0.91641 0.0
C1210 C 0.80007 0.28294 0.88434 0.0
C1211 C 0.78999 0.2551 0.88621 0.0
C1212 C 0.78432 0.24395 0.90328 0.0
C1213 C 0.78763 0.26083 0.91827 0.0
C1214 C 0.78405 0.23816 0.87025 0.0
C1215 C 0.80617 0.23295 0.85814 0.0
C1216 C 0.75668 0.2272 0.867 0.0
C1217 C 0.73199 0.234 0.87856 0.0
C1218 C 0.71571 0.21212 0.88632 0.0
C1219 C 0.69246 0.21853 0.89721 0.0
C1220 C 0.6852 0.24677 0.90038 0.0
C1221 C 0.7011 0.26866 0.89258 0.0
C1222 C 0.72433 0.26236 0.88165 0.0
C1223 C 0.74434 0.15467 0.8063 0.0
C1224 C 0.7459 0.17078 0.79042 0.0
C1225 C 0.75458 0.16569 0.82223 0.0
C1226 C 0.76682 0.19277 0.82245 0.0
C1227 C 0.76947 0.2084 0.80653 0.0
C1228 C 0.7591 0.19751 0.79065 0.0
C1229 C 0.77419 0.20608 0.83951 0.0
C1230 C 0.75223 0.21083 0.8518 0.0
C1231 C 0.80157 0.21702 0.84273 0.0
C1232 C 0.82558 0.2121 0.83025 0.0
C1233 C 0.84152 0.23511 0.82356 0.0
C1234 C 0.86393 0.23052 0.81164 0.0
C1235 C 0.87069 0.203 0.80637 0.0
C1236 C 0.8551 0.17999 0.81304 0.0
C1237 C 0.83268 0.18446 0.82496 0.0
H1238 H 0.88804 0.1995 0.79713 0.0
H1239 H 0.66721 0.25168 0.90882 0.0
H1240 H 0.27162 0.3391 0.80833 0.0
H1241 H 0.26798 0.30686 0.83408 0.0
H1242 H 0.26009 0.23574 0.79863 0.0
H1243 H 0.26388 0.26763 0.77293 0.0
H1244 H 0.22416 0.23184 0.82719 0.0
H1245 H 0.32299 0.25018 0.81611 0.0
H1246 H 0.36496 0.28055 0.81123 0.0
H1247 H 0.35351 0.31687 0.86313 0.0
H1248 H 0.31121 0.287 0.86821 0.0
H1249 H 0.24523 0.13183 0.89661 0.0
H1250 H 0.25664 0.15626 0.8684 0.0
H1251 H 0.26663 0.23485 0.89675 0.0
H1252 H 0.2549 0.21093 0.92466 0.0
H1253 H 0.30444 0.23071 0.86976 0.0
H1254 H 0.2042 0.21543 0.88014 0.0
H1255 H 0.161 0.18687 0.88498 0.0
H1256 H 0.17336 0.14703 0.83421 0.0
H1257 H 0.21723 0.17458 0.82938 0.0
C1258 C 0.26882 0.31662 0.80608 0.0
C1259 C 0.26811 0.30584 0.78867 0.0
C1260 C 0.2668 0.29828 0.82073 0.0
C1261 C 0.26429 0.26897 0.81814 0.0
C1262 C 0.26209 0.25832 0.80083 0.0
C1263 C 0.26407 0.2766 0.78619 0.0
C1264 C 0.26508 0.24923 0.83346 0.0
C1265 C 0.24188 0.2312 0.83636 0.0
C1266 C 0.28816 0.24877 0.84542 0.0
C1267 C 0.31381 0.2665 0.84248 0.0
C1268 C 0.32932 0.26477 0.82644 0.0
C1269 C 0.35318 0.28188 0.82364 0.0
C1270 C 0.36186 0.30066 0.83685 0.0
C1271 C 0.34675 0.30232 0.85291 0.0
C1272 C 0.32285 0.28528 0.85576 0.0
C1273 C 0.25034 0.15421 0.89678 0.0
C1274 C 0.24884 0.16955 0.91275 0.0
C1275 C 0.25693 0.16806 0.88074 0.0
C1276 C 0.262 0.19739 0.88055 0.0
C1277 C 0.26281 0.21219 0.89666 0.0
C1278 C 0.2562 0.19843 0.91263 0.0
C1279 C 0.26332 0.21355 0.86366 0.0
C1280 C 0.28691 0.23098 0.86044 0.0
C1281 C 0.24049 0.21357 0.85147 0.0
C1282 C 0.21429 0.19672 0.85454 0.0
C1283 C 0.19796 0.20026 0.87014 0.0
C1284 C 0.17334 0.18423 0.87288 0.0
C1285 C 0.16454 0.16498 0.85997 0.0
C1286 C 0.18032 0.16177 0.84428 0.0
C1287 C 0.20512 0.17749 0.84156 0.0
H1288 H 0.14544 0.15265 0.86209 0.0
H1289 H 0.38034 0.3139 0.83466 0.0
H1290 H 0.33342 0.80865 0.4002 0.0
H1291 H 0.3305 0.77904 0.3737 0.0
H1292 H 0.27102 0.72388 0.40096 0.0
H1293 H 0.2749 0.75258 0.42779 0.0
H1294 H 0.30597 0.69362 0.38095 0.0
H1295 H 0.24822 0.77639 0.37333 0.0
H1296 H 0.23644 0.82727 0.37162 0.0
H1297 H 0.29674 0.83875 0.329 0.0
H1298 H 0.30916 0.78796 0.33062 0.0
H1299 H 0.22171 0.64217 0.31005 0.0
H1300 H 0.24301 0.66249 0.33663 0.0
H1301 H 0.30322 0.70811 0.30361 0.0
H1302 H 0.2814 0.68868 0.27693 0.0
H1303 H 0.27424 0.74234 0.32559 0.0
H1304 H 0.3251 0.65449 0.33153 0.0
H1305 H 0.32857 0.60233 0.33237 0.0
H1306 H 0.27353 0.59932 0.37821 0.0
H1307 H 0.26943 0.65145 0.37751 0.0
C1308 C 0.3202 0.78988 0.40068 0.0
C1309 C 0.30416 0.78307 0.416 0.0
C1310 C 0.31839 0.77312 0.3855 0.0
C1311 C 0.30023 0.74955 0.38533 0.0
C1312 C 0.2851 0.74204 0.40083 0.0
C1313 C 0.28707 0.75865 0.41605 0.0
C1314 C 0.2955 0.73378 0.36869 0.0
C1315 C 0.29901 0.70422 0.36883 0.0
C1316 C 0.28665 0.74772 0.35287 0.0
C1317 C 0.27988 0.77845 0.35225 0.0
C1318 C 0.25922 0.78983 0.36374 0.0
C1319 C 0.25236 0.81863 0.36275 0.0
C1320 C 0.26583 0.83621 0.35021 0.0
C1321 C 0.28632 0.82508 0.33871 0.0
C1322 C 0.29329 0.7963 0.33966 0.0
C1323 C 0.23976 0.65619 0.30847 0.0
C1324 C 0.2498 0.6639 0.29141 0.0
C1325 C 0.25208 0.66756 0.32367 0.0
C1326 C 0.2748 0.68662 0.32204 0.0
C1327 C 0.28578 0.69329 0.30509 0.0
C1328 C 0.27341 0.68199 0.28988 0.0
C1329 C 0.28471 0.7022 0.3378 0.0
C1330 C 0.28194 0.73178 0.33754 0.0
C1331 C 0.29358 0.68817 0.35356 0.0
C1332 C 0.29688 0.65689 0.35442 0.0
C1333 C 0.31368 0.6427 0.34176 0.0
C1334 C 0.31575 0.61314 0.34221 0.0
C1335 C 0.30124 0.59752 0.35532 0.0
C1336 C 0.28476 0.61145 0.36807 0.0
C1337 C 0.28262 0.64101 0.36768 0.0
H1338 H 0.30279 0.57463 0.3556 0.0
H1339 H 0.2603 0.85845 0.34935 0.0
H1340 H 0.03115 0.50659 0.52286 0.0
H1341 H 0.00241 0.51787 0.54889 0.0
H1342 H 0.07132 0.49373 0.58344 0.0
H1343 H 0.10074 0.48306 0.55733 0.0
H1344 H 0.02102 0.46454 0.59014 0.0
H1345 H 0.05218 0.5605 0.5821 0.0
H1346 H 0.06127 0.60473 0.56523 0.0
H1347 H 0.97241 0.61277 0.55416 0.0
H1348 H 0.96282 0.56833 0.57076 0.0
H1349 H 0.96516 0.50721 0.67278 0.0
H1350 H 0.9923 0.49918 0.64566 0.0
H1351 H 0.92101 0.52601 0.61388 0.0
H1352 H 0.89323 0.53374 0.64118 0.0
H1353 H 0.97081 0.55373 0.60498 0.0
H1354 H 0.93935 0.45842 0.61342 0.0
H1355 H 0.93005 0.41417 0.63023 0.0
H1356 H 0.01909 0.40462 0.64022 0.0
H1357 H 0.0289 0.44906 0.62369 0.0
C1358 C 0.04065 0.50466 0.53594 0.0
C1359 C 0.06821 0.49379 0.53805 0.0
C1360 C 0.0241 0.51097 0.55081 0.0
C1361 C 0.0348 0.5065 0.568 0.0
C1362 C 0.06277 0.49715 0.5702 0.0
C1363 C 0.07946 0.49101 0.55532 0.0
C1364 C 0.01576 0.50878 0.58353 0.0
C1365 C 0.01036 0.48413 0.5936 0.0
C1366 C 0.00115 0.53411 0.58746 0.0
C1367 C 0.00682 0.56092 0.57754 0.0
C1368 C 0.0346 0.57156 0.57594 0.0
C1369 C 0.03984 0.5967 0.56645 0.0
C1370 C 0.01744 0.61152 0.55859 0.0
C1371 C 0.98974 0.60126 0.56024 0.0
C1372 C 0.98439 0.57611 0.56971 0.0
C1373 C 0.95484 0.51057 0.66005 0.0
C1374 C 0.92697 0.52096 0.65911 0.0
C1375 C 0.97049 0.50613 0.64456 0.0
C1376 C 0.95856 0.51191 0.62784 0.0
C1377 C 0.93049 0.5215 0.62674 0.0
C1378 C 0.91472 0.52588 0.64229 0.0
C1379 C 0.9763 0.50955 0.6117 0.0
C1380 C 0.9814 0.53412 0.60148 0.0
C1381 C 0.9906 0.48412 0.60758 0.0
C1382 C 0.98483 0.45722 0.61742 0.0
C1383 C 0.95694 0.44701 0.61931 0.0
C1384 C 0.95158 0.42186 0.62877 0.0
C1385 C 0.97396 0.40662 0.63632 0.0
C1386 C 0.00177 0.41646 0.63437 0.0
C1387 C 0.00725 0.44161 0.62494 0.0
H1388 H 0.96976 0.38716 0.64364 0.0
H1389 H 0.02154 0.63097 0.55124 0.0
H1390 H 0.5357 0.51281 0.1799 0.0
H1391 H 0.50969 0.52795 0.15353 0.0
H1392 H 0.58162 0.50736 0.12028 0.0
H1393 H 0.60839 0.4931 0.1468 0.0
H1394 H 0.5532 0.55535 0.10862 0.0
H1395 H 0.53184 0.4594 0.12623 0.0
H1396 H 0.51715 0.42108 0.14691 0.0
H1397 H 0.43638 0.4613 0.15438 0.0
H1398 H 0.45078 0.50013 0.13395 0.0
H1399 H 0.48333 0.52917 1.02727 0.0
H1400 H 0.51103 0.52431 1.05456 0.0
H1401 H 0.43699 0.5445 1.08605 0.0
H1402 H 0.40886 0.54862 1.05876 0.0
H1403 H 0.46594 0.49869 1.09899 0.0
H1404 H 0.48715 0.59368 1.0796 0.0
H1405 H 0.50221 0.63055 1.058 0.0
H1406 H 0.58363 0.5907 1.05292 0.0
H1407 H 0.5689 0.55334 1.07431 0.0
C1408 C 0.54641 0.51239 0.16708 0.0
C1409 C 0.57404 0.50156 0.16538 0.0
C1410 C 0.53138 0.52079 0.15201 0.0
C1411 C 0.54361 0.51818 0.13503 0.0
C1412 C 0.57184 0.5093 0.13334 0.0
C1413 C 0.58699 0.50099 0.14844 0.0
C1414 C 0.5261 0.52229 0.11903 0.0
C1415 C 0.53425 0.54286 0.1064 0.0
C1416 C 0.5012 0.50615 0.11639 0.0
C1417 C 0.49252 0.48285 0.12873 0.0
C1418 C 0.51106 0.46022 0.13242 0.0
C1419 C 0.50276 0.43838 0.14407 0.0
C1420 C 0.47588 0.4388 0.152 0.0
C1421 C 0.45722 0.46104 0.14826 0.0
C1422 C 0.46543 0.48296 0.13664 0.0
C1423 C 0.47288 0.53225 1.04002 0.0
C1424 C 0.44397 0.53922 1.04096 0.0
C1425 C 0.48879 0.5298 1.05554 0.0
C1426 C 0.47607 0.53449 1.0722 0.0
C1427 C 0.44713 0.54103 1.07323 0.0
C1428 C 0.43118 0.5435 1.05769 0.0
C1429 C 0.49293 0.53186 1.0886 0.0
C1430 C 0.48473 0.51142 0.10128 0.0
C1431 C 0.51783 0.54799 1.09119 0.0
C1432 C 0.52684 0.57058 1.07846 0.0
C1433 C 0.5082 0.59266 1.07379 0.0
C1434 C 0.51668 0.61367 1.06159 0.0
C1435 C 0.54384 0.61294 1.05407 0.0
C1436 C 0.56259 0.59123 1.05875 0.0
C1437 C 0.5542 0.57015 1.07093 0.0
H1438 H 0.55037 0.62922 1.04462 0.0
H1439 H 0.46949 0.42185 0.161 0.0
H1440 H 0.29716 0.30273 0.2268 0.0
H1441 H 0.28395 0.3508 0.21754 0.0
H1442 H 0.19988 0.33772 0.23899 0.0
H1443 H 0.21258 0.28938 0.2477 0.0
H1444 H 0.19697 0.36384 0.2075 0.0
H1445 H 0.25101 0.37675 0.26125 0.0
H1446 H 0.29292 0.37167 0.28055 0.0
H1447 H 0.34388 0.41586 0.24158 0.0
H1448 H 0.30232 0.42088 0.22194 0.0
H1449 H 0.14562 0.50281 0.21729 0.0
H1450 H 0.16321 0.4547 0.22151 0.0
H1451 H 0.24363 0.47912 0.19834 0.0
H1452 H 0.22613 0.52792 0.1944 0.0
H1453 H 0.25144 0.4474 0.22791 0.0
H1454 H 0.19597 0.43784 0.17518 0.0
H1455 H 0.15364 0.44324 0.1563 0.0
H1456 H 0.10509 0.39276 0.19342 0.0
H1457 H 0.14703 0.38739 0.21267 0.0
C1458 C 0.27576 0.30995 0.2294 0.0
C1459 C 0.25601 0.29207 0.23811 0.0
C1460 C 0.26831 0.33761 0.22424 0.0
C1461 C 0.24098 0.34815 0.22774 0.0
C1462 C 0.22113 0.33022 0.23618 0.0
C1463 C 0.22854 0.30259 0.24133 0.0
C1464 C 0.23291 0.3778 0.22268 0.0
C1465 C 0.20876 0.3821 0.21211 0.0
C1466 C 0.24869 0.40173 0.2282 0.0
C1467 C 0.27363 0.39892 0.24005 0.0
C1468 C 0.2712 0.3852 0.25674 0.0
C1469 C 0.29488 0.38237 0.26775 0.0
C1470 C 0.32107 0.39336 0.26227 0.0
C1471 C 0.3236 0.40731 0.24579 0.0
C1472 C 0.29998 0.41017 0.23472 0.0
C1473 C 0.167 0.49797 0.21293 0.0
C1474 C 0.18445 0.51921 0.20544 0.0
C1475 C 0.17702 0.47033 0.2153 0.0
C1476 C 0.20467 0.46301 0.21004 0.0
C1477 C 0.22219 0.48416 0.20246 0.0
C1478 C 0.21214 0.512 0.20012 0.0
C1479 C 0.21522 0.43344 0.21297 0.0
C1480 C 0.23982 0.42915 0.22314 0.0
C1481 C 0.19983 0.40947 0.20708 0.0
C1482 C 0.17462 0.41238 0.19543 0.0
C1483 C 0.17623 0.42803 0.17938 0.0
C1484 C 0.1523 0.43107 0.1686 0.0
C1485 C 0.12668 0.41839 0.17368 0.0
C1486 C 0.12495 0.40258 0.18951 0.0
C1487 C 0.14881 0.3995 0.20035 0.0
H1488 H 0.10817 0.42079 0.16532 0.0
H1489 H 0.33938 0.39114 0.27081 0.0
H1490 H 0.44666 0.548 0.47726 0.0
H1491 H 0.39905 0.5348 0.46747 0.0
H1492 H 0.41019 0.45125 0.4902 0.0
H1493 H 0.45804 0.46398 0.49953 0.0
H1494 H 0.38604 0.44799 0.4581 0.0
H1495 H 0.37066 0.50258 0.51139 0.0
H1496 H 0.37486 0.54468 0.53047 0.0
H1497 H 0.33277 0.5953 0.49075 0.0
H1498 H 0.32865 0.55355 0.47131 0.0
H1499 H 0.24725 0.39629 0.46771 0.0
H1500 H 0.29506 0.41436 0.47191 0.0
H1501 H 0.2709 0.49414 0.44785 0.0
H1502 H 0.2223 0.47618 0.44397 0.0
H1503 H 0.30167 0.50268 0.47745 0.0
H1504 H 0.31325 0.44642 0.42528 0.0
H1505 H 0.3085 0.40375 0.40676 0.0
H1506 H 0.35764 0.35589 0.44453 0.0
H1507 H 0.36234 0.39817 0.46342 0.0
C1508 C 0.43911 0.52672 0.48003 0.0
C1509 C 0.45624 0.50712 0.48929 0.0
C1510 C 0.41173 0.51928 0.47455 0.0
C1511 C 0.4008 0.4921 0.47826 0.0
C1512 C 0.41803 0.47237 0.48722 0.0
C1513 C 0.44535 0.47979 0.4927 0.0
C1514 C 0.37143 0.48409 0.47291 0.0
C1515 C 0.36759 0.45984 0.46246 0.0
C1516 C 0.3473 0.49996 0.47812 0.0
C1517 C 0.34964 0.52503 0.48982 0.0
C1518 C 0.3625 0.52274 0.50666 0.0
C1519 C 0.36483 0.54653 0.51756 0.0
C1520 C 0.35417 0.57267 0.5118 0.0
C1521 C 0.34107 0.57505 0.49517 0.0
C1522 C 0.33871 0.55133 0.48422 0.0
C1523 C 0.25207 0.41763 0.46315 0.0
C1524 C 0.23097 0.43478 0.45544 0.0
C1525 C 0.27955 0.42792 0.46551 0.0
C1526 C 0.28686 0.45552 0.45997 0.0
C1527 C 0.26585 0.47274 0.45217 0.0
C1528 C 0.23814 0.46243 0.44987 0.0
C1529 C 0.31625 0.46628 0.46289 0.0
C1530 C 0.32012 0.49102 0.47289 0.0
C1531 C 0.34044 0.45085 0.45728 0.0
C1532 C 0.338 0.42545 0.44583 0.0
C1533 C 0.32291 0.42676 0.42969 0.0
C1534 C 0.32024 0.40264 0.41912 0.0
C1535 C 0.33272 0.37712 0.42448 0.0
C1536 C 0.34798 0.37568 0.4404 0.0
C1537 C 0.35069 0.39973 0.45103 0.0
H1538 H 0.3306 0.35847 0.41629 0.0
H1539 H 0.356 0.59106 0.52025 0.0
H1540 H 0.27299 0.71825 0.72245 0.0
H1541 H 0.28528 0.66986 0.71382 0.0
H1542 H 0.21694 0.63733 0.74657 0.0
H1543 H 0.20481 0.68568 0.75548 0.0
H1544 H 0.26449 0.60689 0.75168 0.0
H1545 H 0.21066 0.63891 0.70172 0.0
H1546 H 0.19713 0.67106 0.67707 0.0
H1547 H 0.27866 0.65933 0.65245 0.0
H1548 H 0.29283 0.62741 0.6771 0.0
H1549 H 0.27275 0.47399 0.6917 0.0
H1550 H 0.25343 0.52172 0.69697 0.0
H1551 H 0.33076 0.54529 0.72343 0.0
H1552 H 0.35013 0.49819 0.71812 0.0
H1553 H 0.2726 0.5779 0.6883 0.0
H1554 H 0.31223 0.57915 0.76135 0.0
H1555 H 0.32223 0.54452 0.78546 0.0
H1556 H 0.26134 0.48701 0.76353 0.0
H1557 H 0.2507 0.52135 0.7395 0.0
C1558 C 0.26063 0.70081 0.72788 0.0
C1559 C 0.23789 0.70592 0.73967 0.0
C1560 C 0.26754 0.67313 0.72281 0.0
C1561 C 0.25191 0.64988 0.72942 0.0
C1562 C 0.22928 0.65489 0.74125 0.0
C1563 C 0.22224 0.68258 0.74623 0.0
C1564 C 0.25959 0.62034 0.72429 0.0
C1565 C 0.26621 0.60063 0.73781 0.0
C1566 C 0.26132 0.61179 0.70621 0.0
C1567 C 0.25289 0.63097 0.69135 0.0
C1568 C 0.22579 0.64337 0.69113 0.0
C1569 C 0.21799 0.66152 0.67714 0.0
C1570 C 0.23705 0.66729 0.66322 0.0
C1571 C 0.26393 0.65487 0.66325 0.0
C1572 C 0.27185 0.63672 0.67722 0.0
C1573 C 0.28571 0.48952 0.69843 0.0
C1574 C 0.31287 0.48224 0.7046 0.0
C1575 C 0.27469 0.51676 0.7014 0.0
C1576 C 0.29054 0.53697 0.71077 0.0
C1577 C 0.31803 0.52999 0.71633 0.0
C1578 C 0.32909 0.50301 0.71325 0.0
C1579 C 0.27818 0.56492 0.71566 0.0
C1580 C 0.27077 0.58427 0.70213 0.0
C1581 C 0.27521 0.57303 0.73373 0.0
C1582 C 0.28086 0.55274 0.74855 0.0
C1583 C 0.30085 0.55919 0.76175 0.0
C1584 C 0.30666 0.5396 0.77539 0.0
C1585 C 0.29246 0.51358 0.77597 0.0
C1586 C 0.27236 0.50713 0.76301 0.0
C1587 C 0.26646 0.52663 0.74939 0.0
H1588 H 0.29694 0.49838 0.78644 0.0
H1589 H 0.23097 0.68134 0.6524 0.0
H1590 H 0.02946 0.52508 0.96827 0.0
H1591 H 0.07813 0.5351 0.95895 0.0
H1592 H 0.10869 0.47238 0.99641 0.0
H1593 H 0.06005 0.46303 1.00634 0.0
H1594 H 0.14001 0.51768 0.99854 0.0
H1595 H 0.10843 0.4607 0.95052 0.0
H1596 H 0.07683 0.44541 0.92633 0.0
H1597 H 0.09042 0.52455 0.89879 0.0
H1598 H 0.12181 0.54049 0.92294 0.0
H1599 H 0.2758 0.52325 0.94095 0.0
H1600 H 0.22771 0.50378 0.94513 0.0
H1601 H 0.20071 0.58272 0.96822 0.0
H1602 H 0.24829 0.60213 0.96414 0.0
H1603 H 0.17047 0.52168 0.93499 0.0
H1604 H 0.16788 0.56778 1.00538 0.0
H1605 H 0.20241 0.58182 1.02811 0.0
H1606 H 0.25955 0.51679 1.01048 0.0
H1607 H 0.22517 0.50239 0.98758 0.0
C1608 C 0.0465 0.51352 0.97466 0.0
C1609 C 0.04067 0.49329 0.98815 0.0
C1610 C 0.07439 0.51902 0.96911 0.0
C1611 C 0.09723 0.50426 0.97677 0.0
C1612 C 0.09151 0.48399 0.99021 0.0
C1613 C 0.0636 0.47851 0.99579 0.0
C1614 C 0.12707 0.51092 0.97134 0.0
C1615 C 0.14655 0.51828 0.98463 0.0
C1616 C 0.1361 0.51139 0.95321 0.0
C1617 C 0.11731 0.50187 0.93862 0.0
C1618 C 0.10452 0.47493 0.93937 0.0
C1619 C 0.08667 0.46613 0.92565 0.0
C1620 C 0.08157 0.48402 0.91105 0.0
C1621 C 0.09437 0.51072 0.91011 0.0
C1622 C 0.11223 0.51964 0.92381 0.0
C1623 C 0.25945 0.53654 0.94666 0.0
C1624 C 0.26591 0.56412 0.95238 0.0
C1625 C 0.23198 0.52544 0.94897 0.0
C1626 C 0.21066 0.5417 0.95714 0.0
C1627 C 0.21683 0.56969 0.96202 0.0
C1628 C 0.2441 0.58076 0.95968 0.0
C1629 C 0.18272 0.52907 0.96216 0.0
C1630 C 0.16375 0.52068 0.94886 0.0
C1631 C 0.17422 0.52698 0.98026 0.0
C1632 C 0.19402 0.5341 0.9948 0.0
C1633 C 0.18767 0.55628 1.00651 0.0
C1634 C 0.20731 0.56436 1.01938 0.0
C1635 C 0.23326 0.55019 1.02077 0.0
C1636 C 0.23949 0.52777 1.00937 0.0
C1637 C 0.21996 0.51967 0.99643 0.0
H1638 H 0.24861 0.55654 1.03062 0.0
H1639 H 0.06774 0.47717 0.90044 0.0
H1640 H 0.77298 0.47318 1.01151 0.0
H1641 H 0.75548 0.52189 1.00753 0.0
H1642 H 0.83492 0.5457 0.98276 0.0
H1643 H 0.85255 0.49759 0.98706 0.0
H1644 H 0.81819 0.58664 1.0034 0.0
H1645 H 0.77439 0.53009 0.95808 0.0
H1646 H 0.74576 0.49071 0.94638 0.0
H1647 H 0.67325 0.52025 0.97568 0.0
H1648 H 0.70158 0.55964 0.98774 0.0
H1649 H 0.7813 0.70695 0.95128 0.0
H1650 H 0.79498 0.65953 0.96126 0.0
H1651 H 0.71535 0.65045 0.98925 0.0
H1652 H 0.70168 0.69826 0.97969 0.0
H1653 H 0.72929 0.6027 0.96973 0.0
H1654 H 0.77418 0.66276 1.01256 0.0
H1655 H 0.80394 0.70267 1.02231 0.0
H1656 H 0.87598 0.66664 0.99559 0.0
H1657 H 0.84655 0.62669 0.98547 0.0
C1658 C 0.78678 0.48895 1.00544 0.0
C1659 C 0.81408 0.48152 0.99953 0.0
C1660 C 0.77671 0.51673 1.00304 0.0
C1661 C 0.7937 0.53748 0.99457 0.0
C1662 C 0.82134 0.5302 0.98931 0.0
C1663 C 0.8314 0.5026 0.99176 0.0
C1664 C 0.78274 0.56656 0.99062 0.0
C1665 C 0.79883 0.59008 0.99594 0.0
C1666 C 0.75721 0.57128 0.98115 0.0
C1667 C 0.74018 0.54758 0.97398 0.0
C1668 C 0.7524 0.52804 0.96214 0.0
C1669 C 0.73622 0.50575 0.95543 0.0
C1670 C 0.70773 0.50292 0.96033 0.0
C1671 C 0.69534 0.52243 0.97193 0.0
C1672 C 0.71144 0.54475 0.9787 0.0
C1673 C 0.76678 0.69512 0.95976 0.0
C1674 C 0.74041 0.7067 0.96474 0.0
C1675 C 0.77462 0.66788 0.9654 0.0
C1676 C 0.75633 0.65149 0.97617 0.0
C1677 C 0.72982 0.66269 0.98095 0.0
C1678 C 0.72199 0.69003 0.97538 0.0
C1679 C 0.76495 0.62262 0.98231 0.0
C1680 C 0.74845 0.59921 0.97738 0.0
C1681 C 0.79029 0.61797 0.99194 0.0
C1682 C 0.8081 0.64184 0.99814 0.0
C1683 C 0.79632 0.66344 1.00866 0.0
C1684 C 0.81314 0.68606 1.01427 0.0
C1685 C 0.84181 0.68722 1.00955 0.0
C1686 C 0.85375 0.66572 0.99924 0.0
C1687 C 0.83703 0.64307 0.99358 0.0
H1688 H 0.8548 0.70475 1.0139 0.0
H1689 H 0.69523 0.48566 0.95511 0.0
H1690 H 0.53651 0.48121 0.73862 0.0
H1691 H 0.58444 0.49489 0.74736 0.0
H1692 H 0.60438 0.51624 0.69262 0.0
H1693 H 0.5564 0.5031 0.68379 0.0
H1694 H 0.64792 0.48849 0.70766 0.0
H1695 H 0.58915 0.56758 0.72208 0.0
H1696 H 0.54869 0.5923 0.73591 0.0
H1697 H 0.57789 0.56771 0.788 0.0
H1698 H 0.61834 0.54247 0.77444 0.0
H1699 H 0.74841 0.60655 0.73967 0.0
H1700 H 0.70087 0.58849 0.73404 0.0
H1701 H 0.72861 0.50391 0.74759 0.0
H1702 H 0.77665 0.52203 0.75319 0.0
H1703 H 0.66138 0.56227 0.75363 0.0
H1704 H 0.69391 0.45786 0.71932 0.0
H1705 H 0.73413 0.4384 0.70215 0.0
H1706 H 0.7572 0.5223 0.68463 0.0
H1707 H 0.71694 0.54218 0.7015 0.0
C1708 C 0.55096 0.48902 0.72843 0.0
C1709 C 0.54236 0.49113 0.71048 0.0
C1710 C 0.57847 0.49671 0.73345 0.0
C1711 C 0.59806 0.50679 0.72068 0.0
C1712 C 0.58976 0.50839 0.70272 0.0
C1713 C 0.56225 0.50078 0.69769 0.0
C1714 C 0.6269 0.51644 0.72606 0.0
C1715 C 0.65084 0.50445 0.71782 0.0
C1716 C 0.63085 0.53772 0.73903 0.0
C1717 C 0.60657 0.55285 0.74724 0.0
C1718 C 0.5868 0.56723 0.73648 0.0
C1719 C 0.5639 0.58137 0.74427 0.0
C1720 C 0.56067 0.58149 0.76282 0.0
C1721 C 0.58039 0.56754 0.77363 0.0
C1722 C 0.60331 0.55332 0.7659 0.0
C1723 C 0.74436 0.58413 0.74167 0.0
C1724 C 0.76631 0.56569 0.74684 0.0
C1725 C 0.71711 0.57383 0.73847 0.0
C1726 C 0.71111 0.5448 0.74023 0.0
C1727 C 0.73277 0.52637 0.74596 0.0
C1728 C 0.76016 0.53674 0.74926 0.0
C1729 C 0.68242 0.53403 0.73543 0.0
C1730 C 0.65848 0.54591 0.74372 0.0
C1731 C 0.67846 0.51326 0.72213 0.0
C1732 C 0.70263 0.5015 0.71186 0.0
C1733 C 0.70755 0.47212 0.71177 0.0
C1734 C 0.73035 0.46103 0.70209 0.0
C1735 C 0.74827 0.47911 0.69235 0.0
C1736 C 0.74337 0.50832 0.69223 0.0
C1737 C 0.7206 0.51952 0.70188 0.0
H1738 H 0.7659 0.47048 0.68487 0.0
H1739 H 0.54294 0.59247 0.76883 0.0
H1740 H 0.71277 0.28865 0.45185 0.0
H1741 H 0.70003 0.33676 0.46053 0.0
H1742 H 0.78485 0.35039 0.47985 0.0
H1743 H 0.79784 0.3022 0.47109 0.0
H1744 H 0.74682 0.37152 0.50283 0.0
H1745 H 0.76348 0.37896 0.44023 0.0
H1746 H 0.75906 0.36751 0.40832 0.0
H1747 H 0.67015 0.3867 0.41033 0.0
H1748 H 0.67392 0.3978 0.44235 0.0
H1749 H 0.72542 0.52366 0.50764 0.0
H1750 H 0.7436 0.47582 0.50159 0.0
H1751 H 0.66125 0.45094 0.48246 0.0
H1752 H 0.64316 0.49836 0.48837 0.0
H1753 H 0.70246 0.4371 0.45905 0.0
H1754 H 0.68636 0.42728 0.52256 0.0
H1755 H 0.69219 0.4404 0.55412 0.0
H1756 H 0.78205 0.42749 0.54976 0.0
H1757 H 0.77679 0.41465 0.51808 0.0
C1758 C 0.72885 0.30192 0.45778 0.0
C1759 C 0.75643 0.29152 0.46062 0.0
C1760 C 0.7215 0.32947 0.46278 0.0
C1761 C 0.74157 0.34744 0.47063 0.0
C1762 C 0.76898 0.33699 0.47381 0.0
C1763 C 0.77635 0.30937 0.46883 0.0
C1764 C 0.73381 0.37706 0.47549 0.0
C1765 C 0.73751 0.386 0.49318 0.0
C1766 C 0.72139 0.39598 0.46298 0.0
C1767 C 0.71894 0.38894 0.44376 0.0
C1768 C 0.74292 0.38045 0.43392 0.0
C1769 C 0.74054 0.37408 0.4158 0.0
C1770 C 0.71433 0.37632 0.40731 0.0
C1771 C 0.69044 0.38494 0.41693 0.0
C1772 C 0.69268 0.39127 0.43507 0.0
C1773 C 0.71114 0.50781 0.50241 0.0
C1774 C 0.68289 0.5148 0.49843 0.0
C1775 C 0.72154 0.48049 0.49895 0.0
C1776 C 0.70381 0.45975 0.49151 0.0
C1777 C 0.6754 0.46657 0.48809 0.0
C1778 C 0.66504 0.49369 0.49156 0.0
C1779 C 0.71483 0.43129 0.48647 0.0
C1780 C 0.71185 0.42263 0.46868 0.0
C1781 C 0.72806 0.41278 0.49885 0.0
C1782 C 0.73121 0.42031 0.51791 0.0
C1783 C 0.70739 0.42746 0.52829 0.0
C1784 C 0.71058 0.4348 0.54621 0.0
C1785 C 0.73748 0.43486 0.55393 0.0
C1786 C 0.76123 0.42748 0.54375 0.0
C1787 C 0.75815 0.42015 0.52582 0.0
H1788 H 0.73991 0.44056 0.5678 0.0
H1789 H 0.71255 0.37143 0.39327 0.0
H1790 H 0.71939 0.47976 0.24857 0.0
H1791 H 0.76775 0.49698 0.24245 0.0
H1792 H 0.79766 0.41073 0.24024 0.0
H1793 H 0.74946 0.39349 0.24594 0.0
H1794 H 0.83367 0.44712 0.25969 0.0
H1795 H 0.78831 0.44155 0.20288 0.0
H1796 H 0.75128 0.45062 0.18046 0.0
H1797 H 0.76635 0.54019 0.18401 0.0
H1798 H 0.80331 0.53164 0.20664 0.0
H1799 H 0.96563 0.46243 0.21469 0.0
H1800 H 0.91738 0.44894 0.22323 0.0
H1801 H 0.89118 0.5363 0.21915 0.0
H1802 H 0.93931 0.54989 0.21007 0.0
H1803 H 0.85276 0.50134 0.2038 0.0
H1804 H 0.90167 0.50469 0.25992 0.0
H1805 H 0.93982 0.49298 0.28112 0.0
H1806 H 0.91867 0.40462 0.27788 0.0
H1807 H 0.88062 0.41577 0.25647 0.0
C1808 C 0.73637 0.46453 0.24703 0.0
C1809 C 0.73069 0.43528 0.24777 0.0
C1810 C 0.76394 0.47436 0.24343 0.0
C1811 C 0.78631 0.45512 0.24079 0.0
C1812 C 0.78079 0.42596 0.24225 0.0
C1813 C 0.75324 0.41615 0.24552 0.0
C1814 C 0.81531 0.46519 0.23595 0.0
C1815 C 0.83789 0.45883 0.24742 0.0
C1816 C 0.82079 0.4807 0.22002 0.0
C1817 C 0.7983 0.48598 0.20663 0.0
C1818 C 0.7835 0.4632 0.19904 0.0
C1819 C 0.76259 0.46823 0.18625 0.0
C1820 C 0.75639 0.49597 0.18086 0.0
C1821 C 0.77113 0.51872 0.18823 0.0
C1822 C 0.79208 0.51379 0.20103 0.0
C1823 C 0.9496 0.4788 0.21546 0.0
C1824 C 0.95649 0.50729 0.21169 0.0
C1825 C 0.92202 0.47106 0.22053 0.0
C1826 C 0.90061 0.49162 0.22206 0.0
C1827 C 0.9073 0.52004 0.21815 0.0
C1828 C 0.93493 0.52782 0.2131 0.0
C1829 C 0.87125 0.48337 0.22758 0.0
C1830 C 0.84856 0.48996 0.21619 0.0
C1831 C 0.86572 0.46779 0.24351 0.0
C1832 C 0.88845 0.46106 0.25648 0.0
C1833 C 0.90528 0.48275 0.26364 0.0
C1834 C 0.92687 0.47621 0.2757 0.0
C1835 C 0.93171 0.44807 0.28081 0.0
C1836 C 0.91491 0.42641 0.2739 0.0
C1837 C 0.89331 0.43283 0.26182 0.0
H1838 H 0.94844 0.44305 0.29015 0.0
H1839 H 0.74022 0.49983 0.17093 0.0
H1840 H 0.71025 0.78979 0.74621 0.0
H1841 H 0.69804 0.83813 0.73714 0.0
H1842 H 0.78638 0.85662 0.72758 0.0
H1843 H 0.79888 0.80842 0.7371 0.0
H1844 H 0.76029 0.89972 0.74518 0.0
H1845 H 0.74188 0.84496 0.69281 0.0
H1846 H 0.7211 0.80568 0.67575 0.0
H1847 H 0.6374 0.83402 0.68956 0.0
H1848 H 0.65768 0.87326 0.7069 0.0
H1849 H 0.72979 0.03189 0.70108 0.0
H1850 H 0.74749 0.9835 0.70647 0.0
H1851 H 0.66218 0.95506 0.71746 0.0
H1852 H 0.64455 0.00297 0.71211 0.0
H1853 H 0.69006 0.91714 0.69726 0.0
H1854 H 0.70683 0.96832 0.75135 0.0
H1855 H 0.72586 0.00699 0.7697 0.0
H1856 H 0.81061 0.98511 0.75377 0.0
H1857 H 0.79202 0.94647 0.73516 0.0
C1858 C 0.72716 0.80417 0.74234 0.0
C1859 C 0.75558 0.79509 0.74239 0.0
C1860 C 0.7201 0.83177 0.73698 0.0
C1861 C 0.74124 0.851 0.73144 0.0
C1862 C 0.76967 0.84218 0.7317 0.0
C1863 C 0.77676 0.81451 0.73702 0.0
C1864 C 0.73359 0.8803 0.72551 0.0
C1865 C 0.74534 0.90353 0.73447 0.0
C1866 C 0.71358 0.88537 0.71181 0.0
C1867 C 0.70132 0.86192 0.70127 0.0
C1868 C 0.71905 0.8427 0.69231 0.0
C1869 C 0.70736 0.82046 0.68257 0.0
C1870 C 0.67795 0.81732 0.6816 0.0
C1871 C 0.66017 0.83647 0.69033 0.0
C1872 C 0.67176 0.85873 0.7001 0.0
C1873 C 0.71484 0.0152 0.70443 0.0
C1874 C 0.68579 0.02124 0.70619 0.0
C1875 C 0.72497 0.98761 0.70762 0.0
C1876 C 0.70619 0.96562 0.71254 0.0
C1877 C 0.6771 0.97155 0.71368 0.0
C1878 C 0.66705 0.99902 0.71062 0.0
C1879 C 0.71659 0.93655 0.71701 0.0
C1880 C 0.7053 0.91335 0.70781 0.0
C1881 C 0.73681 0.9315 0.73058 0.0
C1882 C 0.74803 0.95475 0.74169 0.0
C1883 C 0.72951 0.97192 0.75163 0.0
C1884 C 0.74021 0.9938 0.76211 0.0
C1885 C 0.76942 0.99857 0.76285 0.0
C1886 C 0.78798 0.98143 0.75315 0.0
C1887 C 0.77738 0.95953 0.74265 0.0
H1888 H 0.77767 0.01551 0.77097 0.0
H1889 H 0.66894 0.80009 0.67406 0.0
H1890 H 0.74782 0.89266 0.96158 0.0
H1891 H 0.79585 0.90938 0.96748 0.0
H1892 H 0.76973 0.99524 0.95611 0.0
H1893 H 0.72137 0.97848 0.95009 0.0
H1894 H 0.83598 0.93719 0.94822 0.0
H1895 H 0.80393 0.03798 0.98691 0.0
H1896 H 0.76384 0.05553 1.005 0.0
H1897 H 0.74079 0.97 1.01889 0.0
H1898 H 0.78094 0.95198 1.0011 0.0
H1899 H 0.96119 0.01599 0.96493 0.0
H1900 H 0.91307 0.00313 0.95619 0.0
H1901 H 0.89361 0.97945 1.01065 0.0
H1902 H 0.94136 0.99329 1.01963 0.0
H1903 H 0.84995 0.00652 0.99681 0.0
H1904 H 0.90908 0.92946 0.97896 0.0
H1905 H 0.94938 0.90641 0.96384 0.0
H1906 H 0.91865 0.93541 0.91301 0.0
H1907 H 0.87835 0.959 0.92786 0.0
C1908 C 0.75238 0.91507 0.96007 0.0
C1909 C 0.7308 0.93426 0.95539 0.0
C1910 C 0.77988 0.9246 0.96343 0.0
C1911 C 0.78642 0.95359 0.9624 0.0
C1912 C 0.76514 0.97278 0.95715 0.0
C1913 C 0.73756 0.96319 0.95361 0.0
C1914 C 0.8152 0.9636 0.96757 0.0
C1915 C 0.83902 0.95257 0.95872 0.0
C1916 C 0.81929 0.98302 0.98163 0.0
C1917 C 0.79522 0.99366 0.99248 0.0
C1918 C 0.79033 0.02294 0.99386 0.0
C1919 C 0.7676 0.03296 1.00406 0.0
C1920 C 0.74972 0.01389 1.01303 0.0
C1921 C 0.75458 0.98475 1.01188 0.0
C1922 C 0.77729 0.97462 1.00171 0.0
C1923 C 0.9466 0.00841 0.97512 0.0
C1924 C 0.95534 0.00559 0.99301 0.0
C1925 C 0.9191 0.00079 0.97005 0.0
C1926 C 0.89969 0.98996 0.9827 0.0
C1927 C 0.90814 0.98766 1.00061 0.0
C1928 C 0.93562 0.99532 1.0057 0.0
C1929 C 0.87081 0.98049 0.97723 0.0
C1930 C 0.84695 0.99152 0.98609 0.0
C1931 C 0.8667 0.96042 0.96351 0.0
C1932 C 0.89088 0.94625 0.95454 0.0
C1933 C 0.91105 0.93112 0.96457 0.0
C1934 C 0.93386 0.91793 0.95605 0.0
C1935 C 0.93662 0.91952 0.93748 0.0
C1936 C 0.91651 0.93425 0.92739 0.0
C1937 C 0.89367 0.94752 0.93585 0.0
H1938 H 0.9543 0.90928 0.93091 0.0
H1939 H 0.73213 0.02169 1.02092 0.0
H1940 H 0.77407 0.9747 0.19003 0.0
H1941 H 0.75571 0.02318 0.19374 0.0
H1942 H 0.82835 0.04389 0.22587 0.0
H1943 H 0.84707 0.99644 0.22164 0.0
H1944 H 0.73903 0.05273 0.2215 0.0
H1945 H 0.84771 0.11082 0.22177 0.0
H1946 H 0.89509 0.10585 0.20807 0.0
H1947 H 0.8589 0.06082 0.16415 0.0
H1948 H 0.81125 0.06586 0.17745 0.0
H1949 H 0.72934 0.1857 0.26433 0.0
H1950 H 0.74179 0.13814 0.25431 0.0
H1951 H 0.76143 0.17149 0.20186 0.0
H1952 H 0.74909 0.21918 0.21183 0.0
H1953 H 0.80122 0.13637 0.21158 0.0
H1954 H 0.70062 0.13196 0.21002 0.0
H1955 H 0.6519 0.13738 0.22157 0.0
H1956 H 0.66885 0.07639 0.26306 0.0
H1957 H 0.71784 0.0709 0.25191 0.0
C1958 C 0.78617 0.98977 0.19771 0.0
C1959 C 0.81211 0.9818 0.20539 0.0
C1960 C 0.77563 0.01741 0.19991 0.0
C1961 C 0.79084 0.03748 0.20985 0.0
C1962 C 0.8165 0.02921 0.21774 0.0
C1963 C 0.82715 0.00191 0.21537 0.0
C1964 C 0.78005 0.06698 0.21233 0.0
C1965 C 0.7526 0.07101 0.21923 0.0
C1966 C 0.79742 0.09106 0.20905 0.0
C1967 C 0.82592 0.08858 0.20068 0.0
C1968 C 0.84983 0.10004 0.20912 0.0
C1969 C 0.87674 0.09716 0.20145 0.0
C1970 C 0.88001 0.08296 0.18527 0.0
C1971 C 0.85635 0.07174 0.1767 0.0
C1972 C 0.82938 0.07458 0.18431 0.0
C1973 C 0.73596 0.18291 0.2506 0.0
C1974 C 0.73816 0.20636 0.2389 0.0
C1975 C 0.74308 0.15563 0.24486 0.0
C1976 C 0.75228 0.15104 0.22724 0.0
C1977 C 0.75445 0.1744 0.21552 0.0
C1978 C 0.74745 0.20171 0.22127 0.0
C1979 C 0.76053 0.12206 0.22124 0.0
C1980 C 0.78754 0.11814 0.21369 0.0
C1981 C 0.74252 0.09821 0.22356 0.0
C1982 C 0.71298 0.10117 0.2302 0.0
C1983 C 0.69402 0.11983 0.22168 0.0
C1984 C 0.66635 0.1229 0.22814 0.0
C1985 C 0.6573 0.10728 0.24306 0.0
C1986 C 0.67589 0.08849 0.25151 0.0
C1987 C 0.70361 0.08536 0.24511 0.0
H1988 H 0.63587 0.10971 0.24806 0.0
H1989 H 0.90088 0.0807 0.17937 0.0
H1990 H 0.74923 0.10571 0.46032 0.0
H1991 H 0.70085 0.08887 0.46502 0.0
H1992 H 0.72821 0.00302 0.45559 0.0
H1993 H 0.7768 0.02013 0.45016 0.0
H1994 H 0.67773 0.01028 0.44146 0.0
H1995 H 0.71583 0.02962 0.4996 0.0
H1996 H 0.73753 0.05672 0.52395 0.0
H1997 H 0.67226 0.11976 0.5196 0.0
H1998 H 0.65013 0.09301 0.49521 0.0
H1999 H 0.55284 0.95132 0.484 0.0
H2000 H 0.6013 0.96397 0.47508 0.0
H2001 H 0.58082 0.0526 0.48029 0.0
H2002 H 0.53246 0.04019 0.48905 0.0
H2003 H 0.62869 0.04064 0.49681 0.0
H2004 H 0.58977 0.02091 0.43915 0.0
H2005 H 0.56568 0.99199 0.41655 0.0
H2006 H 0.6312 0.92913 0.42043 0.0
H2007 H 0.65548 0.9575 0.44325 0.0
C2008 C 0.74492 0.08327 0.45906 0.0
C2009 C 0.76688 0.06424 0.45497 0.0
C2010 C 0.71723 0.07359 0.46191 0.0
C2011 C 0.71082 0.04451 0.46117 0.0
C2012 C 0.73254 0.02552 0.45639 0.0
C2013 C 0.76032 0.0353 0.45328 0.0
C2014 C 0.68162 0.03416 0.46571 0.0
C2015 C 0.66718 0.01661 0.45369 0.0
C2016 C 0.6674 0.04267 0.4815 0.0
C2017 C 0.6815 0.05945 0.4955 0.0
C2018 C 0.70632 0.04943 0.5037 0.0
C2019 C 0.71864 0.0647 0.51754 0.0
C2020 C 0.7063 0.08999 0.52325 0.0
C2021 C 0.68175 0.10017 0.51512 0.0
C2022 C 0.66929 0.08495 0.50132 0.0
C2023 C 0.55854 0.97353 0.48305 0.0
C2024 C 0.53868 0.99472 0.48738 0.0
C2025 C 0.5863 0.98073 0.47791 0.0
C2026 C 0.59476 0.00928 0.47687 0.0
C2027 C 0.5749 0.03042 0.48103 0.0
C2028 C 0.54724 0.02327 0.48618 0.0
C2029 C 0.62461 0.01732 0.47244 0.0
C2030 C 0.63923 0.03431 0.48456 0.0
C2031 C 0.63882 0.00826 0.45678 0.0
C2032 C 0.62427 0.99119 0.44305 0.0
C2033 C 0.59891 0.0008 0.4353 0.0
C2034 C 0.58525 0.98453 0.42243 0.0
C2035 C 0.59686 0.9587 0.4171 0.0
C2036 C 0.6222 0.94912 0.42459 0.0
C2037 C 0.63593 0.9653 0.43749 0.0
H2038 H 0.58625 0.94613 0.40712 0.0
H2039 H 0.71553 0.10163 0.53406 0.0
H2040 H 0.20066 0.19427 0.47078 0.0
H2041 H 0.21382 0.14623 0.48021 0.0
H2042 H 0.30206 0.16658 0.47167 0.0
H2043 H 0.28906 0.2145 0.46224 0.0
H2044 H 0.28979 0.11837 0.45653 0.0
H2045 H 0.27243 0.15825 0.51418 0.0
H2046 H 0.24466 0.18299 0.53725 0.0
H2047 H 0.18104 0.11792 0.5356 0.0
H2048 H 0.20825 0.09297 0.51232 0.0
H2049 H 0.35413 0.99719 0.4923 0.0
H2050 H 0.33811 0.04599 0.48836 0.0
H2051 H 0.25185 0.01956 0.49834 0.0
H2052 H 0.26812 0.97051 0.50291 0.0
H2053 H 0.26061 0.0702 0.51285 0.0
H2054 H 0.2787 0.03089 0.45472 0.0
H2055 H 0.30572 0.00841 0.43041 0.0
H2056 H 0.36846 0.07425 0.43282 0.0
H2057 H 0.34194 0.09701 0.45726 0.0
C2058 C 0.2229 0.18864 0.47115 0.0
C2059 C 0.24379 0.20827 0.46563 0.0
C2060 C 0.23041 0.16113 0.47658 0.0
C2061 C 0.25899 0.1527 0.4768 0.0
C2062 C 0.27986 0.17244 0.47158 0.0
C2063 C 0.27238 0.19985 0.46609 0.0
C2064 C 0.26722 0.12294 0.48136 0.0
C2065 C 0.28375 0.10804 0.46899 0.0
C2066 C 0.2586 0.109 0.49734 0.0
C2067 C 0.24224 0.1239 0.51137 0.0
C2068 C 0.2524 0.14933 0.51862 0.0
C2069 C 0.23679 0.16337 0.53176 0.0
C2070 C 0.21106 0.15207 0.53785 0.0
C2071 C 0.20095 0.12666 0.53085 0.0
C2072 C 0.21647 0.11255 0.51769 0.0
C2073 C 0.33179 0.00179 0.49389 0.0
C2074 C 0.31238 0.97995 0.4978 0.0
C2075 C 0.32259 0.02973 0.49149 0.0
C2076 C 0.29362 0.03651 0.49256 0.0
C2077 C 0.27428 0.01493 0.4973 0.0
C2078 C 0.28358 0.98689 0.49993 0.0
C2079 C 0.28369 0.06585 0.48812 0.0
C2080 C 0.2667 0.08058 0.50042 0.0
C2081 C 0.29197 0.07984 0.47208 0.0
C2082 C 0.30846 0.0655 0.4579 0.0
C2083 C 0.29842 0.04038 0.45021 0.0
C2084 C 0.31363 0.02763 0.43638 0.0
C2085 C 0.3388 0.0399 0.43013 0.0
C2086 C 0.34896 0.0648 0.43772 0.0
C2087 C 0.33385 0.07763 0.45153 0.0
H2088 H 0.35041 0.03032 0.41933 0.0
H2089 H 0.19901 0.16297 0.54803 0.0
H2090 H 0.04524 0.02918 0.19271 0.0
H2091 H 0.09355 0.04102 0.20119 0.0
H2092 H 0.09599 0.96802 0.23624 0.0
H2093 H 0.04693 0.95683 0.22855 0.0
H2094 H 0.12041 0.01096 0.25207 0.0
H2095 H 0.13001 0.96903 0.19477 0.0
H2096 H 0.12035 0.96155 0.16284 0.0
H2097 H 0.14762 0.04651 0.15078 0.0
H2098 H 0.15703 0.05466 0.18269 0.0
H2099 H 0.2741 0.02436 0.25877 0.0
H2100 H 0.22621 0.00556 0.25322 0.0
H2101 H 0.20587 0.08102 0.22299 0.0
H2102 H 0.25299 0.09993 0.22866 0.0
H2103 H 0.19249 0.03106 0.20515 0.0
H2104 H 0.17933 0.07314 0.26324 0.0
H2105 H 0.18987 0.0795 0.29516 0.0
H2106 H 0.17073 0.99182 0.30545 0.0
H2107 H 0.16046 0.98485 0.27351 0.0
C2108 C 0.05581 0.01577 0.2024 0.0
C2109 C 0.04197 0.99197 0.20989 0.0
C2110 C 0.0837 0.02238 0.20707 0.0
C2111 C 0.09877 0.00515 0.21913 0.0
C2112 C 0.08497 0.98157 0.22682 0.0
C2113 C 0.05693 0.97504 0.22225 0.0
C2114 C 0.12878 0.01199 0.22374 0.0
C2115 C 0.13627 0.01484 0.24179 0.0
C2116 C 0.1496 0.01734 0.21039 0.0
C2117 C 0.144 0.01253 0.19116 0.0
C2118 C 0.13374 0.9862 0.18534 0.0
C2119 C 0.12834 0.98182 0.16724 0.0
C2120 C 0.1333 0.00356 0.1548 0.0
C2121 C 0.14375 0.0297 0.16044 0.0
C2122 C 0.14914 0.0342 0.17853 0.0
C2123 C 0.25926 0.03698 0.2511 0.0
C2124 C 0.26737 0.06358 0.24413 0.0
C2125 C 0.23195 0.02624 0.24793 0.0
C2126 C 0.21248 0.04186 0.23761 0.0
C2127 C 0.22053 0.06852 0.23088 0.0
C2128 C 0.24751 0.07935 0.23422 0.0
C2129 C 0.18382 0.03056 0.23338 0.0
C2130 C 0.17665 0.02684 0.21539 0.0
C2131 C 0.16344 0.02419 0.24676 0.0
C2132 C 0.16948 0.02839 0.26596 0.0
C2133 C 0.17763 0.05516 0.27228 0.0
C2134 C 0.1835 0.05889 0.29038 0.0
C2135 C 0.18107 0.03606 0.30232 0.0
C2136 C 0.17267 0.00947 0.29618 0.0
C2137 C 0.1668 0.00562 0.27808 0.0
H2138 H 0.18562 0.03899 0.31633 0.0
H2139 H 0.12911 0.00012 0.14079 0.0
H2140 H 0.14609 4e-05 0.98481 0.0
H2141 H 0.16467 0.95261 0.98014 0.0
H2142 H 0.24504 0.97802 1.0021 0.0
H2143 H 0.22657 0.02636 1.0063 0.0
H2144 H 0.25303 0.9471 0.97263 0.0
H2145 H 0.19845 0.93492 1.02599 0.0
H2146 H 0.15636 0.93926 1.04543 0.0
H2147 H 0.10769 0.88972 1.00881 0.0
H2148 H 0.14939 0.88542 0.98901 0.0
H2149 H 0.29882 0.80211 0.97209 0.0
H2150 H 0.28594 0.84975 0.98197 0.0
H2151 H 0.20176 0.83841 0.96103 0.0
H2152 H 0.21416 0.79052 0.95165 0.0
H2153 H 0.19947 0.86221 0.99322 0.0
H2154 H 0.25259 0.87828 0.93877 0.0
H2155 H 0.29431 0.87432 0.91896 0.0
H2156 H 0.34562 0.91646 0.95778 0.0
H2157 H 0.30424 0.92035 0.97792 0.0
C2158 C 0.1677 0.9956 0.98876 0.0
C2159 C 0.18486 0.01699 0.99595 0.0
C2160 C 0.17828 0.96832 0.98616 0.0
C2161 C 0.20617 0.96144 0.99101 0.0
C2162 C 0.22341 0.98273 0.99831 0.0
C2163 C 0.21282 0.01028 1.00081 0.0
C2164 C 0.21714 0.93217 0.98796 0.0
C2165 C 0.24163 0.92854 0.97746 0.0
C2166 C 0.20207 0.90782 0.99394 0.0
C2167 C 0.17703 0.90999 1.00596 0.0
C2168 C 0.17874 0.92507 1.02203 0.0
C2169 C 0.15495 0.92752 1.03312 0.0
C2170 C 0.12936 0.91481 1.02835 0.0
C2171 C 0.12753 0.89955 1.01249 0.0
C2172 C 0.15125 0.89707 1.00134 0.0
C2173 C 0.27748 0.80964 0.96972 0.0
C2174 C 0.25758 0.79241 0.96098 0.0
C2175 C 0.27022 0.83703 0.97524 0.0
C2176 C 0.24294 0.84789 0.97209 0.0
C2177 C 0.22297 0.83061 0.96358 0.0
C2178 C 0.23019 0.80327 0.95806 0.0
C2179 C 0.235 0.87717 0.97762 0.0
C2180 C 0.21107 0.88077 0.9886 0.0
C2181 C 0.2506 0.90144 0.97208 0.0
C2182 C 0.27541 0.89933 0.95993 0.0
C2183 C 0.27282 0.88652 0.94313 0.0
C2184 C 0.29639 0.88431 0.93184 0.0
C2185 C 0.32262 0.89505 0.93713 0.0
C2186 C 0.3253 0.9081 0.95371 0.0
C2187 C 0.30179 0.91034 0.96506 0.0
H2188 H 0.34085 0.89331 0.92837 0.0
H2189 H 0.11095 0.91675 1.03694 0.0
H2190 H 0.46108 0.96284 0.70162 0.0
H2191 H 0.41271 0.94972 0.71006 0.0
H2192 H 0.39723 0.03495 0.72799 0.0
H2193 H 0.44568 0.04831 0.7195 0.0
H2194 H 0.37537 0.99714 0.75132 0.0
H2195 H 0.37137 0.01181 0.68819 0.0
H2196 H 0.38535 0.00587 0.65668 0.0
H2197 H 0.36637 0.91695 0.66027 0.0
H2198 H 0.35275 0.92224 0.69191 0.0
H2199 H 0.22346 0.9766 0.75558 0.0
H2200 H 0.27166 0.99422 0.74949 0.0
H2201 H 0.29577 0.91167 0.73032 0.0
H2202 H 0.24791 0.8942 0.73617 0.0
H2203 H 0.31207 0.95178 0.7073 0.0
H2204 H 0.31835 0.93688 0.77088 0.0
H2205 H 0.30386 0.94304 0.80229 0.0
H2206 H 0.31767 0.0328 0.79755 0.0
H2207 H 0.33189 0.02721 0.76601 0.0
C2208 C 0.44735 0.97892 0.7072 0.0
C2209 C 0.45731 0.00673 0.70972 0.0
C2210 C 0.41965 0.97135 0.71207 0.0
C2211 C 0.40109 0.99142 0.71945 0.0
C2212 C 0.4111 0.01906 0.72232 0.0
C2213 C 0.43886 0.02665 0.71748 0.0
C2214 C 0.37128 0.9835 0.72408 0.0
C2215 C 0.36139 0.98761 0.74161 0.0
C2216 C 0.35305 0.97067 0.71153 0.0
C2217 C 0.3613 0.96739 0.69249 0.0
C2218 C 0.37042 0.99094 0.68232 0.0
C2219 C 0.37825 0.98769 0.66442 0.0
C2220 C 0.37682 0.96104 0.65649 0.0
C2221 C 0.36752 0.93757 0.66644 0.0
C2222 C 0.35973 0.94069 0.68435 0.0
C2223 C 0.23919 0.96217 0.7503 0.0
C2224 C 0.23187 0.93404 0.74633 0.0
C2225 C 0.26674 0.97224 0.74682 0.0
C2226 C 0.28744 0.95428 0.73942 0.0
C2227 C 0.28022 0.92601 0.73592 0.0
C2228 C 0.25284 0.916 0.73937 0.0
C2229 C 0.31634 0.96489 0.73461 0.0
C2230 C 0.32601 0.96139 0.717 0.0
C2231 C 0.33429 0.97829 0.74707 0.0
C2232 C 0.32588 0.98166 0.76604 0.0
C2233 C 0.31808 0.95796 0.77649 0.0
C2234 C 0.30995 0.96134 0.79433 0.0
C2235 C 0.30976 0.98831 0.80189 0.0
C2236 C 0.31778 0.01193 0.79166 0.0
C2237 C 0.3259 0.00867 0.77381 0.0
H2238 H 0.30346 0.99088 0.8157 0.0
H2239 H 0.38286 0.95857 0.64263 0.0
H2240 H 0.30932 0.07201 0.18288 0.0
H2241 H 0.28298 0.06602 0.15522 0.0
H2242 H 0.25268 0.15191 0.15889 0.0
H2243 H 0.27733 0.15696 0.18751 0.0
H2244 H 0.21364 0.1305 0.14374 0.0
H2245 H 0.30961 0.11735 0.12585 0.0
H2246 H 0.35773 0.09706 0.12635 0.0
H2247 H 0.32386 0.0147 0.11503 0.0
H2248 H 0.2754 0.03439 0.11487 0.0
H2249 H 0.17503 0.13732 1.04941 0.0
H2250 H 0.20025 0.14103 1.07789 0.0
H2251 H 0.19484 0.05065 1.08503 0.0
H2252 H 0.16859 0.04695 1.05667 0.0
H2253 H 0.25178 0.07366 1.09381 0.0
H2254 H 0.1546 0.09171 0.11082 0.0
H2255 H 0.10868 0.11639 0.10847 0.0
H2256 H 0.14958 0.19598 0.11851 0.0
H2257 H 0.19582 0.17181 0.1207 0.0
C2258 C 0.2973 0.08989 0.17783 0.0
C2259 C 0.29631 0.11522 0.18787 0.0
C2260 C 0.28212 0.08652 0.16152 0.0
C2261 C 0.26574 0.10865 0.1537 0.0
C2262 C 0.26473 0.13402 0.16385 0.0
C2263 C 0.2793 0.1371 0.18047 0.0
C2264 C 0.24947 0.10529 0.13555 0.0
C2265 C 0.22264 0.1183 0.13292 0.0
C2266 C 0.25975 0.08923 0.12065 0.0
C2267 C 0.28883 0.0773 0.12055 0.0
C2268 C 0.3124 0.09488 0.12356 0.0
C2269 C 0.33975 0.08348 0.12378 0.0
C2270 C 0.34388 0.0546 0.12073 0.0
C2271 C 0.32064 0.03706 0.11742 0.0
C2272 C 0.29321 0.04832 0.11728 0.0
C2273 C 0.1788 0.11807 1.05701 0.0
C2274 C 0.16897 0.09181 1.05028 0.0
C2275 C 0.19353 0.12026 1.07356 0.0
C2276 C 0.20008 0.09623 1.08425 0.0
C2277 C 0.19056 0.06985 1.07749 0.0
C2278 C 0.17513 0.06773 1.06109 0.0
C2279 C 0.21638 0.09886 0.10226 0.0
C2280 C 0.24309 0.08578 0.10477 0.0
C2281 C 0.20647 0.11551 0.11683 0.0
C2282 C 0.17868 0.12999 0.11578 0.0
C2283 C 0.15382 0.1145 0.11242 0.0
C2284 C 0.12774 0.12839 0.11113 0.0
C2285 C 0.12622 0.15774 0.1133 0.0
C2286 C 0.15079 0.17325 0.11682 0.0
C2287 C 0.17693 0.15947 0.11811 0.0
H2288 H 0.10601 0.16846 0.11228 0.0
H2289 H 0.36508 0.04582 0.12091 0.0
H2290 H 0.61847 0.4465 0.29517 0.0
H2291 H 0.61509 0.47094 0.32367 0.0
H2292 H 0.68525 0.4219 0.34359 0.0
H2293 H 0.68925 0.39795 0.3146 0.0
H2294 H 0.60175 0.46415 0.35518 0.0
H2295 H 0.71583 0.4509 0.38078 0.0
H2296 H 0.76457 0.44625 0.36901 0.0
H2297 H 0.74073 0.49086 0.32116 0.0
H2298 H 0.69194 0.49602 0.33272 0.0
H2299 H 0.60131 0.51057 0.44722 0.0
H2300 H 0.60625 0.4847 0.4191 0.0
H2301 H 0.6671 0.54628 0.40033 0.0
H2302 H 0.66238 0.57201 0.42857 0.0
H2303 H 0.68553 0.49883 0.38801 0.0
H2304 H 0.59274 0.53864 0.38424 0.0
H2305 H 0.54369 0.54885 0.39377 0.0
H2306 H 0.52464 0.4598 0.39449 0.0
H2307 H 0.5737 0.44905 0.38517 0.0
C2308 C 0.6334 0.44068 0.30549 0.0
C2309 C 0.65423 0.41971 0.30194 0.0
C2310 C 0.63134 0.45493 0.32218 0.0
C2311 C 0.65 0.44933 0.33655 0.0
C2312 C 0.67066 0.42797 0.33314 0.0
C2313 C 0.67284 0.41374 0.31631 0.0
C2314 C 0.64737 0.46561 0.35467 0.0
C2315 C 0.62035 0.4714 0.36223 0.0
C2316 C 0.67094 0.47632 0.36452 0.0
C2317 C 0.70021 0.47359 0.35754 0.0
C2318 C 0.72103 0.4598 0.36777 0.0
C2319 C 0.74865 0.45705 0.36114 0.0
C2320 C 0.75572 0.46818 0.34433 0.0
C2321 C 0.73521 0.48217 0.33415 0.0
C2322 C 0.70757 0.48499 0.34073 0.0
C2323 C 0.61559 0.51899 0.43712 0.0
C2324 C 0.63105 0.54412 0.44067 0.0
C2325 C 0.61843 0.50395 0.42069 0.0
C2326 C 0.63691 0.51305 0.40671 0.0
C2327 C 0.65256 0.53805 0.41034 0.0
C2328 C 0.64965 0.55316 0.42675 0.0
C2329 C 0.63995 0.4968 0.38863 0.0
C2330 C 0.66699 0.49122 0.38103 0.0
C2331 C 0.61639 0.48669 0.37856 0.0
C2332 C 0.58696 0.49304 0.3842 0.0
C2333 C 0.57814 0.52123 0.38656 0.0
C2334 C 0.55033 0.52712 0.3919 0.0
C2335 C 0.53108 0.50498 0.39478 0.0
C2336 C 0.53959 0.47692 0.39228 0.0
C2337 C 0.56739 0.47092 0.38696 0.0
H2338 H 0.50956 0.50958 0.39891 0.0
H2339 H 0.7771 0.46601 0.33921 0.0
H2340 H 0.19507 0.92903 0.68586 0.0
H2341 H 0.22162 0.93463 0.65806 0.0
H2342 H 0.2406 0.84527 0.65863 0.0
H2343 H 0.21619 0.84044 0.68759 0.0
H2344 H 0.28097 0.86215 0.64286 0.0
H2345 H 0.18742 0.89303 0.62721 0.0
H2346 H 0.14332 0.92112 0.62858 0.0
H2347 H 0.19107 0.99778 0.62062 0.0
H2348 H 0.23545 0.97021 0.61945 0.0
H2349 H 0.31653 0.86138 0.54795 0.0
H2350 H 0.29239 0.8578 0.57698 0.0
H2351 H 0.30851 0.94619 0.58611 0.0
H2352 H 0.3336 0.94967 0.5571 0.0
H2353 H 0.25103 0.93055 0.5961 0.0
H2354 H 0.34439 0.89579 0.60994 0.0
H2355 H 0.38599 0.8649 0.60567 0.0
H2356 H 0.33387 0.79123 0.61405 0.0
H2357 H 0.29188 0.82169 0.61816 0.0
C2358 C 0.20466 0.91035 0.68011 0.0
C2359 C 0.20264 0.88411 0.68942 0.0
C2360 C 0.21989 0.91351 0.66366 0.0
C2361 C 0.23308 0.89034 0.65487 0.0
C2362 C 0.23108 0.86402 0.66431 0.0
C2363 C 0.21666 0.86108 0.68115 0.0
C2364 C 0.24926 0.89355 0.63649 0.0
C2365 C 0.27368 0.87694 0.63274 0.0
C2366 C 0.24137 0.91296 0.62247 0.0
C2367 C 0.21477 0.92957 0.62343 0.0
C2368 C 0.18851 0.91589 0.62588 0.0
C2369 C 0.16348 0.93172 0.62661 0.0
C2370 C 0.16442 0.96121 0.62472 0.0
C2371 C 0.19039 0.97494 0.62211 0.0
C2372 C 0.21548 0.95924 0.62142 0.0
C2373 C 0.3154 0.88019 0.55611 0.0
C2374 C 0.32781 0.90581 0.5497 0.0
C2375 C 0.3013 0.87806 0.57299 0.0
C2376 C 0.29808 0.9016 0.58443 0.0
C2377 C 0.31023 0.92737 0.57802 0.0
C2378 C 0.325 0.92935 0.56124 0.0
C2379 C 0.28216 0.89912 0.60272 0.0
C2380 C 0.25795 0.91581 0.60637 0.0
C2381 C 0.28972 0.8793 0.61641 0.0
C2382 C 0.31497 0.861 0.61421 0.0
C2383 C 0.34178 0.873 0.61077 0.0
C2384 C 0.36543 0.85557 0.60839 0.0
C2385 C 0.36256 0.82612 0.60954 0.0
C2386 C 0.33606 0.81404 0.61314 0.0
C2387 C 0.31233 0.83138 0.61552 0.0
H2388 H 0.38089 0.81266 0.60768 0.0
H2389 H 0.14505 0.97344 0.62519 0.0
H2390 H 0.79635 0.58071 0.80697 0.0
H2391 H 0.79967 0.55411 0.83516 0.0
H2392 H 0.89051 0.55054 0.82915 0.0
H2393 H 0.88672 0.57504 0.80034 0.0
H2394 H 0.88279 0.5071 0.84459 0.0
H2395 H 0.84177 0.59463 0.8635 0.0
H2396 H 0.80736 0.63397 0.86413 0.0
H2397 H 0.74036 0.57538 0.87691 0.0
H2398 H 0.77434 0.53564 0.87616 0.0
H2399 H 0.90606 0.47019 0.93901 0.0
H2400 H 0.90157 0.49591 0.91034 0.0
H2401 H 0.81558 0.46673 0.90573 0.0
H2402 H 0.82032 0.44019 0.93397 0.0
H2403 H 0.82049 0.52619 0.89651 0.0
H2404 H 0.866 0.43934 0.87917 0.0
H2405 H 0.90328 0.40275 0.88012 0.0
H2406 H 0.96609 0.46531 0.86638 0.0
H2407 H 0.92921 0.50236 0.86558 0.0
C2408 C 0.81714 0.57459 0.81167 0.0
C2409 C 0.84123 0.58084 0.80095 0.0
C2410 C 0.8192 0.55927 0.82823 0.0
C2411 C 0.84559 0.55014 0.83547 0.0
C2412 C 0.8696 0.55664 0.82465 0.0
C2413 C 0.86745 0.5712 0.8079 0.0
C2414 C 0.84842 0.53354 0.85368 0.0
C2415 C 0.86924 0.51203 0.85586 0.0
C2416 C 0.831 0.5384 0.86912 0.0
C2417 C 0.81053 0.56215 0.86958 0.0
C2418 C 0.81967 0.59013 0.86635 0.0
C2419 C 0.80025 0.61249 0.86673 0.0
C2420 C 0.77168 0.60716 0.8705 0.0
C2421 C 0.76249 0.57947 0.87395 0.0
C2422 C 0.78181 0.55702 0.87356 0.0
C2423 C 0.8862 0.46885 0.9319 0.0
C2424 C 0.86376 0.45233 0.93924 0.0
C2425 C 0.88358 0.48384 0.91526 0.0
C2426 C 0.8581 0.48384 0.90524 0.0
C2427 C 0.83559 0.46765 0.91271 0.0
C2428 C 0.83845 0.45207 0.92906 0.0
C2429 C 0.85493 0.50039 0.88723 0.0
C2430 C 0.83403 0.52167 0.88514 0.0
C2431 C 0.87273 0.49589 0.87206 0.0
C2432 C 0.89489 0.47367 0.8725 0.0
C2433 C 0.8878 0.44534 0.8765 0.0
C2434 C 0.90885 0.42451 0.87698 0.0
C2435 C 0.93705 0.43172 0.87336 0.0
C2436 C 0.94425 0.45977 0.86921 0.0
C2437 C 0.92327 0.48069 0.86873 0.0
H2438 H 0.95332 0.41556 0.87374 0.0
H2439 H 0.75668 0.62451 0.87079 0.0
H2440 H 0.82084 0.86208 0.15194 0.0
H2441 H 0.7959 0.85857 0.1234 0.0
H2442 H 0.80451 0.94855 0.11543 0.0
H2443 H 0.83041 0.95204 0.14396 0.0
H2444 H 0.74763 0.9283 0.10614 0.0
H2445 H 0.84386 0.90313 1.09056 0.0
H2446 H 0.88794 0.87554 1.09383 0.0
H2447 H 0.84207 0.79844 1.08456 0.0
H2448 H 0.79763 0.82555 1.08147 0.0
H2449 H 0.69145 0.92898 1.01682 0.0
H2450 H 0.71782 0.9347 1.04447 0.0
H2451 H 0.74308 0.84703 1.04253 0.0
H2452 H 0.7184 0.8421 1.01389 0.0
H2453 H 0.78299 0.8667 1.05769 0.0
H2454 H 0.68791 0.88616 1.07463 0.0
H2455 H 0.6409 0.9089 1.07364 0.0
H2456 H 0.679 0.98989 1.08355 0.0
H2457 H 0.72636 0.96771 1.08421 0.0
C2458 C 0.81787 0.88129 0.14415 0.0
C2459 C 0.82847 0.90736 0.15072 0.0
C2460 C 0.80328 0.87921 0.12755 0.0
C2461 C 0.79772 0.90318 0.11658 0.0
C2462 C 0.80803 0.92939 0.12317 0.0
C2463 C 0.82328 0.93139 0.13966 0.0
C2464 C 0.78159 0.90061 1.09848 0.0
C2465 C 0.75576 0.91514 1.09549 0.0
C2466 C 0.79065 0.88259 1.08434 0.0
C2467 C 0.81739 0.86635 1.08592 0.0
C2468 C 0.84315 0.88027 1.08932 0.0
C2469 C 0.8682 0.86473 1.09113 0.0
C2470 C 0.8678 0.83525 1.08944 0.0
C2471 C 0.84235 0.82127 1.08588 0.0
C2472 C 0.81723 0.83672 1.08408 0.0
C2473 C 0.70236 0.91066 1.02223 0.0
C2474 C 0.70192 0.88484 1.01267 0.0
C2475 C 0.71756 0.91389 1.03855 0.0
C2476 C 0.73249 0.89121 1.04687 0.0
C2477 C 0.73215 0.86537 1.03718 0.0
C2478 C 0.71758 0.86236 1.02054 0.0
C2479 C 0.74866 0.89447 1.06507 0.0
C2480 C 0.7746 0.87999 1.06818 0.0
C2481 C 0.73913 0.91184 1.07958 0.0
C2482 C 0.71073 0.9253 1.07928 0.0
C2483 C 0.68629 0.90885 1.0765 0.0
C2484 C 0.65957 0.92164 1.076 0.0
C2485 C 0.65694 0.95082 1.07854 0.0
C2486 C 0.68106 0.96728 1.08157 0.0
C2487 C 0.70786 0.95462 1.08199 0.0
H2488 H 0.63622 0.96066 1.07818 0.0
H2489 H 0.88722 0.82325 1.09086 0.0
H2490 H 0.30592 0.59859 0.888 0.0
H2491 H 0.30981 0.57422 0.8591 0.0
H2492 H 0.3828 0.52869 0.87819 0.0
H2493 H 0.37923 0.55315 0.90669 0.0
H2494 H 0.39439 0.53741 0.84585 0.0
H2495 H 0.30901 0.50001 0.87175 0.0
H2496 H 0.26087 0.50168 0.88472 0.0
H2497 H 0.22955 0.54033 0.8366 0.0
H2498 H 0.2776 0.53922 0.82342 0.0
H2499 H 0.33602 0.42454 0.77431 0.0
H2500 H 0.33155 0.44986 0.80273 0.0
H2501 H 0.38736 0.51506 0.78258 0.0
H2502 H 0.39249 0.48935 0.75445 0.0
H2503 H 0.31139 0.49457 0.81628 0.0
H2504 H 0.4189 0.55403 0.81496 0.0
H2505 H 0.46793 0.54704 0.80422 0.0
H2506 H 0.45615 0.45678 0.80604 0.0
H2507 H 0.40719 0.46323 0.81699 0.0
C2508 C 0.32294 0.58351 0.88612 0.0
C2509 C 0.3422 0.57841 0.90027 0.0
C2510 C 0.32509 0.5691 0.86936 0.0
C2511 C 0.34654 0.54864 0.86578 0.0
C2512 C 0.36593 0.544 0.87988 0.0
C2513 C 0.36376 0.55826 0.89654 0.0
C2514 C 0.34915 0.5322 0.84776 0.0
C2515 C 0.37594 0.52849 0.83941 0.0
C2516 C 0.32582 0.51923 0.83883 0.0
C2517 C 0.29696 0.51985 0.84669 0.0
C2518 C 0.29189 0.50905 0.86399 0.0
C2519 C 0.26462 0.50987 0.87137 0.0
C2520 C 0.24218 0.52119 0.86151 0.0
C2521 C 0.24696 0.53163 0.84423 0.0
C2522 C 0.27421 0.53091 0.8368 0.0
C2523 C 0.34777 0.44408 0.77589 0.0
C2524 C 0.36514 0.45411 0.76162 0.0
C2525 C 0.34501 0.45893 0.7924 0.0
C2526 C 0.35939 0.48481 0.79572 0.0
C2527 C 0.37639 0.49503 0.7813 0.0
C2528 C 0.3793 0.4801 0.76485 0.0
C2529 C 0.35647 0.50093 0.81386 0.0
C2530 C 0.32973 0.50419 0.82239 0.0
C2531 C 0.37988 0.51323 0.82308 0.0
C2532 C 0.4093 0.50915 0.81659 0.0
C2533 C 0.42681 0.5327 0.81311 0.0
C2534 C 0.45458 0.52883 0.80698 0.0
C2535 C 0.46511 0.50149 0.80438 0.0
C2536 C 0.44793 0.47795 0.80798 0.0
C2537 C 0.42017 0.4817 0.81413 0.0
H2538 H 0.48661 0.49854 0.79962 0.0
H2539 H 0.22108 0.52181 0.86725 0.0
H2540 H 0.67968 0.1411 0.65272 0.0
H2541 H 0.70512 0.14481 0.62411 0.0
H2542 H 0.69443 0.05528 0.61623 0.0
H2543 H 0.66808 0.05163 0.64477 0.0
H2544 H 0.75129 0.07364 0.60683 0.0
H2545 H 0.65664 0.10269 0.59129 0.0
H2546 H 0.61332 0.13149 0.59438 0.0
H2547 H 0.66169 0.20742 0.58508 0.0
H2548 H 0.70539 0.17908 0.58216 0.0
H2549 H 0.80813 0.07261 0.51724 0.0
H2550 H 0.78296 0.06786 0.54557 0.0
H2551 H 0.75783 0.15555 0.54207 0.0
H2552 H 0.78098 0.15931 0.5127 0.0
H2553 H 0.71917 0.13813 0.55851 0.0
H2554 H 0.81337 0.11368 0.57557 0.0
H2555 H 0.85928 0.08865 0.57529 0.0
H2556 H 0.81666 0.00934 0.58451 0.0
H2557 H 0.77046 0.03386 0.58464 0.0
C2558 C 0.68234 0.12206 0.64493 0.0
C2559 C 0.67105 0.09605 0.65152 0.0
C2560 C 0.69717 0.12425 0.6283 0.0
C2561 C 0.70226 0.10044 0.61733 0.0
C2562 C 0.69128 0.0743 0.62396 0.0
C2563 C 0.6758 0.07222 0.64047 0.0
C2564 C 0.71871 0.103 0.59924 0.0
C2565 C 0.7439 0.08747 0.59619 0.0
C2566 C 0.71057 0.12177 0.58512 0.0
C2567 C 0.68431 0.13878 0.58666 0.0
C2568 C 0.65807 0.12554 0.59002 0.0
C2569 C 0.63344 0.14178 0.59172 0.0
C2570 C 0.63476 0.17127 0.58997 0.0
C2571 C 0.6607 0.18458 0.58645 0.0
C2572 C 0.6854 0.16843 0.58475 0.0
C2573 C 0.79752 0.09114 0.52247 0.0
C2574 C 0.79735 0.11652 0.51219 0.0
C2575 C 0.78315 0.08854 0.53926 0.0
C2576 C 0.76852 0.1115 0.54735 0.0
C2577 C 0.76851 0.137 0.53699 0.0
C2578 C 0.78216 0.13932 0.51988 0.0
C2579 C 0.75226 0.10865 0.56574 0.0
C2580 C 0.72696 0.12421 0.56896 0.0
C2581 C 0.7608 0.09044 0.58023 0.0
C2582 C 0.78845 0.07558 0.57994 0.0
C2583 C 0.81379 0.09088 0.57742 0.0
C2584 C 0.83985 0.07679 0.5773 0.0
C2585 C 0.84087 0.04743 0.57985 0.0
C2586 C 0.81583 0.03208 0.58251 0.0
C2587 C 0.7897 0.04606 0.58262 0.0
H2588 H 0.86108 0.03659 0.57985 0.0
H2589 H 0.61567 0.18381 0.5913 0.0
H2590 H 0.11136 0.4306 0.40371 0.0
H2591 H 0.1078 0.45557 0.37499 0.0
H2592 H 0.1959 0.43878 0.3645 0.0
H2593 H 0.19942 0.41314 0.39333 0.0
H2594 H 0.18288 0.4945 0.35429 0.0
H2595 H 0.14115 0.40399 0.34165 0.0
H2596 H 0.10789 0.3643 0.34667 0.0
H2597 H 0.03736 0.42088 0.34019 0.0
H2598 H 0.07023 0.461 0.33536 0.0
H2599 H 0.17937 0.5516 0.26457 0.0
H2600 H 0.1851 0.52472 0.29224 0.0
H2601 H 0.0948 0.51099 0.29473 0.0
H2602 H 0.08968 0.53563 0.26588 0.0
H2603 H 0.10993 0.46983 0.30978 0.0
H2604 H 0.14895 0.56111 0.3243 0.0
H2605 H 0.18046 0.60292 0.32285 0.0
H2606 H 0.25322 0.54913 0.3288 0.0
H2607 H 0.22222 0.50699 0.32998 0.0
C2608 C 0.1301 0.43178 0.39533 0.0
C2609 C 0.15567 0.41908 0.40131 0.0
C2610 C 0.12799 0.44632 0.3786 0.0
C2611 C 0.15143 0.4495 0.36685 0.0
C2612 C 0.17715 0.43707 0.37284 0.0
C2613 C 0.17915 0.422 0.38951 0.0
C2614 C 0.14895 0.46574 0.34867 0.0
C2615 C 0.16711 0.48875 0.34449 0.0
C2616 C 0.12791 0.45964 0.33563 0.0
C2617 C 0.10815 0.43552 0.33829 0.0
C2618 C 0.11855 0.40799 0.3414 0.0
C2619 C 0.09977 0.38542 0.3442 0.0
C2620 C 0.07053 0.39008 0.34379 0.0
C2621 C 0.06002 0.41731 0.34052 0.0
C2622 C 0.07871 0.43997 0.33773 0.0
C2623 C 0.16054 0.54307 0.27098 0.0
C2624 C 0.13391 0.54658 0.26256 0.0
C2625 C 0.1638 0.52768 0.28735 0.0
C2626 C 0.14045 0.51584 0.29694 0.0
C2627 C 0.11373 0.51938 0.28839 0.0
C2628 C 0.11062 0.53393 0.27163 0.0
C2629 C 0.14375 0.49932 0.31516 0.0
C2630 C 0.12573 0.47602 0.31943 0.0
C2631 C 0.16459 0.50564 0.3285 0.0
C2632 C 0.18326 0.53087 0.32702 0.0
C2633 C 0.17168 0.55819 0.3251 0.0
C2634 C 0.18945 0.58194 0.32435 0.0
C2635 C 0.21881 0.57865 0.32571 0.0
C2636 C 0.23048 0.55162 0.32771 0.0
C2637 C 0.21283 0.52781 0.3284 0.0
H2638 H 0.23256 0.59702 0.32531 0.0
H2639 H 0.05603 0.37258 0.34596 0.0
H2640 H 0.63513 0.57915 0.56745 0.0
H2641 H 0.65904 0.58389 0.5966 0.0
H2642 H 0.73679 0.60598 0.56964 0.0
H2643 H 0.71297 0.60223 0.54079 0.0
H2644 H 0.74787 0.56819 0.59844 0.0
H2645 H 0.69717 0.6565 0.5908 0.0
H2646 H 0.65431 0.68547 0.5861 0.0
H2647 H 0.6167 0.64993 0.63362 0.0
H2648 H 0.65922 0.62046 0.63848 0.0
H2649 H 0.83048 0.60974 0.67454 0.0
H2650 H 0.80601 0.60491 0.64601 0.0
H2651 H 0.72591 0.61873 0.67248 0.0
H2652 H 0.75089 0.62615 0.70067 0.0
H2653 H 0.71453 0.63661 0.64366 0.0
H2654 H 0.75982 0.54711 0.65206 0.0
H2655 H 0.79923 0.51391 0.65772 0.0
H2656 H 0.84236 0.54455 0.61071 0.0
H2657 H 0.80327 0.5781 0.60485 0.0
C2658 C 0.65732 0.58499 0.56761 0.0
C2659 C 0.67161 0.59032 0.5512 0.0
C2660 C 0.6712 0.58784 0.58453 0.0
C2661 C 0.70031 0.59548 0.58596 0.0
C2662 C 0.7146 0.60007 0.56954 0.0
C2663 C 0.70064 0.59795 0.55276 0.0
C2664 C 0.71581 0.59916 0.60417 0.0
C2665 C 0.74055 0.58341 0.60819 0.0
C2666 C 0.70662 0.61819 0.61771 0.0
C2667 C 0.68124 0.63609 0.61491 0.0
C2668 C 0.67967 0.65473 0.60018 0.0
C2669 C 0.65546 0.67126 0.5975 0.0
C2670 C 0.63277 0.66949 0.60953 0.0
C2671 C 0.63428 0.65125 0.6243 0.0
C2672 C 0.65844 0.63465 0.62704 0.0
C2673 C 0.80764 0.612 0.67436 0.0
C2674 C 0.79317 0.61868 0.6904 0.0
C2675 C 0.7932 0.60864 0.65776 0.0
C2676 C 0.76314 0.6103 0.65625 0.0
C2677 C 0.74879 0.61711 0.6724 0.0
C2678 C 0.76334 0.62142 0.68888 0.0
C2679 C 0.74688 0.60548 0.63823 0.0
C2680 C 0.72197 0.62114 0.63412 0.0
C2681 C 0.75542 0.58564 0.62482 0.0
C2682 C 0.77877 0.5653 0.62813 0.0
C2683 C 0.77776 0.54682 0.64297 0.0
C2684 C 0.80003 0.52795 0.64621 0.0
C2685 C 0.82332 0.52719 0.63461 0.0
C2686 C 0.82432 0.5452 0.61969 0.0
C2687 C 0.8021 0.56412 0.61639 0.0
H2688 H 0.84056 0.5126 0.63715 0.0
H2689 H 0.61403 0.6823 0.60742 0.0
H2690 H 0.17513 0.88828 0.81625 0.0
H2691 H 0.17111 0.91247 0.84533 0.0
H2692 H 0.13324 0.98459 0.81931 0.0
H2693 H 0.13638 0.96038 0.79061 0.0
H2694 H 0.17165 0.00344 0.8445 0.0
H2695 H 0.09346 0.93783 0.84523 0.0
H2696 H 0.07144 0.8905 0.84356 0.0
H2697 H 0.12098 0.86214 0.8882 0.0
H2698 H 0.14357 0.90924 0.88999 0.0
H2699 H 0.13201 0.08181 0.92334 0.0
H2700 H 0.13553 0.05743 0.89474 0.0
H2701 H 0.1388 0.97703 0.92253 0.0
H2702 H 0.13186 0.00151 0.95089 0.0
H2703 H 0.11952 0.96125 0.89576 0.0
H2704 H 0.19978 0.02517 0.89528 0.0
H2705 H 0.22456 0.07129 0.89636 0.0
H2706 H 0.17669 0.10091 0.85133 0.0
H2707 H 0.1513 0.05537 0.85022 0.0
C2708 C 0.16589 0.90926 0.81661 0.0
C2709 C 0.15601 0.92182 0.80052 0.0
C2710 C 0.16346 0.9233 0.8335 0.0
C2711 C 0.15166 0.95094 0.83518 0.0
C2712 C 0.14245 0.96358 0.81903 0.0
C2713 C 0.14422 0.94937 0.80233 0.0
C2714 C 0.14857 0.96665 0.85337 0.0
C2715 C 0.16007 0.99411 0.85564 0.0
C2716 C 0.13413 0.95513 0.86857 0.0
C2717 C 0.1204 0.92695 0.86763 0.0
C2718 C 0.0998 0.92144 0.85461 0.0
C2719 C 0.08719 0.89467 0.85365 0.0
C2720 C 0.09486 0.8733 0.86574 0.0
C2721 C 0.11509 0.8787 0.87884 0.0
C2722 C 0.12779 0.90543 0.87984 0.0
C2723 C 0.13328 0.05889 0.92343 0.0
C2724 C 0.13142 0.0441 0.93994 0.0
C2725 C 0.13597 0.04455 0.90673 0.0
C2726 C 0.13876 0.01451 0.90548 0.0
C2727 C 0.13685 -0.00012 0.92215 0.0
C2728 C 0.13291 0.01415 0.93876 0.0
C2729 C 0.14303 0.99838 0.88731 0.0
C2730 C 0.13155 0.97076 0.8849 0.0
C2731 C 0.15812 0.00956 0.87207 0.0
C2732 C 0.17342 0.03696 0.8728 0.0
C2733 C 0.19445 0.04162 0.88569 0.0
C2734 C 0.20857 0.06769 0.88632 0.0
C2735 C 0.20211 0.0891 0.87397 0.0
C2736 C 0.18159 0.08445 0.86095 0.0
C2737 C 0.16731 0.05852 0.86032 0.0
H2738 H 0.21304 0.10926 0.87443 0.0
H2739 H 0.08508 0.85258 0.86497 0.0
H2740 H 0.80074 0.37187 1.0448 0.0
H2741 H 0.77652 0.36881 1.07357 0.0
H2742 H 0.82763 0.43744 1.09302 0.0
H2743 H 0.85155 0.44109 1.06373 0.0
H2744 H 0.78356 0.3548 0.10486 0.0
H2745 H 0.79767 0.46901 0.13083 0.0
H2746 H 0.80259 0.51783 0.11907 0.0
H2747 H 0.75959 0.49407 1.07109 0.0
H2748 H 0.75407 0.44524 1.08266 0.0
H2749 H 0.73655 0.35261 0.19693 0.0
H2750 H 0.76274 0.35793 0.16871 0.0
H2751 H 0.70366 0.42184 0.1514 0.0
H2752 H 0.67777 0.41692 0.17982 0.0
H2753 H 0.75074 0.43873 0.13835 0.0
H2754 H 0.70875 0.34703 0.13439 0.0
H2755 H 0.69715 0.29802 0.14361 0.0
H2756 H 0.78564 0.27672 0.14354 0.0
H2757 H 0.79778 0.32572 0.13452 0.0
C2758 C 0.80713 0.38652 1.05507 0.0
C2759 C 0.82868 0.40681 1.05129 0.0
C2760 C 0.79299 0.38463 1.07191 0.0
C2761 C 0.79925 0.40295 1.08624 0.0
C2762 C 0.82115 0.4231 1.08262 0.0
C2763 C 0.83534 0.42507 1.06562 0.0
C2764 C 0.78304 0.40044 0.10453 0.0
C2765 C 0.77672 0.37343 0.11206 0.0
C2766 C 0.77279 0.42408 0.11454 0.0
C2767 C 0.77582 0.45339 0.10752 0.0
C2768 C 0.78922 0.47423 0.11779 0.0
C2769 C 0.79211 0.5019 0.11115 0.0
C2770 C 0.78152 0.50901 1.09431 0.0
C2771 C 0.76789 0.48851 1.0841 0.0
C2772 C 0.7649 0.46083 1.09068 0.0
C2773 C 0.72876 0.36768 0.18714 0.0
C2774 C 0.70428 0.38392 0.19113 0.0
C2775 C 0.74396 0.37072 0.17064 0.0
C2776 C 0.73558 0.39008 0.157 0.0
C2777 C 0.71128 0.40657 0.16112 0.0
C2778 C 0.69608 0.40355 0.17762 0.0
C2779 C 0.75184 0.39311 0.13878 0.0
C2780 C 0.75795 0.42016 0.13122 0.0
C2781 C 0.76135 0.36951 0.1285 0.0
C2782 C 0.75418 0.34011 0.13398 0.0
C2783 C 0.72574 0.33194 0.13647 0.0
C2784 C 0.71907 0.30416 0.14164 0.0
C2785 C 0.74065 0.28429 0.14422 0.0
C2786 C 0.76895 0.29215 0.14158 0.0
C2787 C 0.77574 0.31992 0.13643 0.0
H2788 H 0.73544 0.26279 0.14821 0.0
H2789 H 0.78381 0.53043 1.08919 0.0
H2790 H 0.31986 0.93797 0.43236 0.0
H2791 H 0.31492 0.96402 0.4043 0.0
H2792 H 0.40198 0.99102 0.40764 0.0
H2793 H 0.40601 0.96678 0.4367 0.0
H2794 H 0.38223 0.03078 0.39223 0.0
H2795 H 0.36486 0.93602 0.37417 0.0
H2796 H 0.3428 0.88859 0.37526 0.0
H2797 H 0.26105 0.92568 0.36599 0.0
H2798 H 0.28258 0.9734 0.36505 0.0
H2799 H 0.38758 0.07211 0.29834 0.0
H2800 H 0.39108 0.04639 0.32685 0.0
H2801 H 0.30082 0.05279 0.33397 0.0
H2802 H 0.29733 0.07949 0.30549 0.0
H2803 H 0.32205 0.99607 0.34305 0.0
H2804 H 0.3444 0.09201 0.35959 0.0
H2805 H 0.37059 0.13716 0.35711 0.0
H2806 H 0.44889 0.09348 0.36685 0.0
H2807 H 0.42319 0.04799 0.36915 0.0
C2808 C 0.33824 0.94911 0.42713 0.0
C2809 C 0.36355 0.9494 0.43724 0.0
C2810 C 0.3355 0.96406 0.41056 0.0
C2811 C 0.35824 0.97948 0.40255 0.0
C2812 C 0.38366 0.97965 0.41272 0.0
C2813 C 0.38613 0.96537 0.42962 0.0
C2814 C 0.35521 0.9962 0.38438 0.0
C2815 C 0.36925 0.02254 0.38158 0.0
C2816 C 0.33826 0.9869 0.36968 0.0
C2817 C 0.32529 0.95829 0.36975 0.0
C2818 C 0.34216 0.93406 0.37242 0.0
C2819 C 0.32976 0.90714 0.37302 0.0
C2820 C 0.30053 0.90415 0.37079 0.0
C2821 C 0.28368 0.92805 0.36777 0.0
C2822 C 0.29597 0.95504 0.36718 0.0
C2823 C 0.36831 0.0685 0.30596 0.0
C2824 C 0.34215 0.07872 0.29918 0.0
C2825 C 0.37039 0.05347 0.32252 0.0
C2826 C 0.34633 0.04705 0.33322 0.0
C2827 C 0.32004 0.05699 0.32643 0.0
C2828 C 0.31803 0.07271 0.30998 0.0
C2829 C 0.3489 0.03032 0.35121 0.0
C2830 C 0.33489 0.00405 0.35386 0.0
C2831 C 0.36648 0.03924 0.36556 0.0
C2832 C 0.3819 0.06657 0.36438 0.0
C2833 C 0.36723 0.09201 0.36108 0.0
C2834 C 0.38198 0.11766 0.35973 0.0
C2835 C 0.41139 0.11818 0.36178 0.0
C2836 C 0.42611 0.09304 0.36525 0.0
C2837 C 0.41146 0.06732 0.3666 0.0
H2838 H 0.42278 0.13806 0.36072 0.0
H2839 H 0.29097 0.88332 0.37145 0.0
H2840 H 0.34853 0.4417 0.63812 0.0
H2841 H 0.32424 0.4377 0.6092 0.0
H2842 H 0.27684 0.36618 0.62946 0.0
H2843 H 0.30147 0.36965 0.65788 0.0
H2844 H 0.28402 0.35347 0.59795 0.0
H2845 H 0.25001 0.44149 0.62068 0.0
H2846 H 0.25338 0.49005 0.63243 0.0
H2847 H 0.29544 0.51758 0.5843 0.0
H2848 H 0.29261 0.46908 0.57236 0.0
H2849 H 0.17497 0.41356 0.52402 0.0
H2850 H 0.2005 0.41841 0.55235 0.0
H2851 H 0.26229 0.35773 0.53447 0.0
H2852 H 0.23644 0.3524 0.50641 0.0
H2853 H 0.2466 0.43689 0.56515 0.0
H2854 H 0.29925 0.32617 0.56812 0.0
H2855 H 0.28944 0.27697 0.55907 0.0
H2856 H 0.20002 0.29391 0.55993 0.0
H2857 H 0.20929 0.34309 0.56919 0.0
C2858 C 0.33305 0.42499 0.63649 0.0
C2859 C 0.32754 0.40605 0.65092 0.0
C2860 C 0.31865 0.4228 0.61971 0.0
C2861 C 0.29767 0.40173 0.61644 0.0
C2862 C 0.29255 0.38273 0.63087 0.0
C2863 C 0.30692 0.38485 0.6475 0.0
C2864 C 0.28125 0.39901 0.5984 0.0
C2865 C 0.27617 0.37199 0.59089 0.0
C2866 C 0.26968 0.42246 0.58861 0.0
C2867 C 0.27137 0.45161 0.59571 0.0
C2868 C 0.26013 0.45787 0.61266 0.0
C2869 C 0.26193 0.48538 0.61934 0.0
C2870 C 0.27469 0.50687 0.60914 0.0
C2871 C 0.28561 0.5009 0.59221 0.0
C2872 C 0.2839 0.47341 0.58546 0.0
C2873 C 0.1938 0.40087 0.52609 0.0
C2874 C 0.20289 0.38215 0.51247 0.0
C2875 C 0.20879 0.40386 0.54253 0.0
C2876 C 0.23378 0.38826 0.54645 0.0
C2877 C 0.24298 0.36977 0.53271 0.0
C2878 C 0.22797 0.36673 0.5163 0.0
C2879 C 0.24998 0.39139 0.56454 0.0
C2880 C 0.25481 0.41843 0.57211 0.0
C2881 C 0.26078 0.36791 0.57463 0.0
C2882 C 0.255 0.33838 0.56914 0.0
C2883 C 0.2775 0.31936 0.56642 0.0
C2884 C 0.27203 0.29149 0.56125 0.0
C2885 C 0.24413 0.28235 0.55886 0.0
C2886 C 0.22163 0.30104 0.56171 0.0
C2887 C 0.22698 0.32893 0.5669 0.0
H2888 H 0.23995 0.26077 0.55484 0.0
H2889 H 0.27606 0.52815 0.61434 0.0
H2890 H 0.88709 0.06728 0.40263 0.0
H2891 H 0.8905 0.04277 0.37401 0.0
H2892 H 0.80271 0.06092 0.36385 0.0
H2893 H 0.79937 0.08612 0.39257 0.0
H2894 H 0.81508 0.00509 0.35373 0.0
H2895 H 0.85836 0.09534 0.34053 0.0
H2896 H 0.89233 0.13424 0.34541 0.0
H2897 H 0.96182 0.07645 0.3389 0.0
H2898 H 0.92824 0.03711 0.33422 0.0
H2899 H 0.81845 0.94857 0.26436 0.0
H2900 H 0.81283 0.9751 0.29193 0.0
H2901 H 0.90309 0.98916 0.2934 0.0
H2902 H 0.90804 0.965 0.26465 0.0
H2903 H 0.88855 0.02967 0.30872 0.0
H2904 H 0.84878 0.93869 0.32424 0.0
H2905 H 0.81705 0.89707 0.32327 0.0
H2906 H 0.74452 0.95131 0.32866 0.0
H2907 H 0.77575 0.99324 0.32941 0.0
C2908 C 0.86838 0.0665 0.39435 0.0
C2909 C 0.84297 0.07948 0.40041 0.0
C2910 C 0.87041 0.05222 0.37766 0.0
C2911 C 0.84702 0.04953 0.36601 0.0
C2912 C 0.82144 0.06223 0.37209 0.0
C2913 C 0.81954 0.07705 0.38871 0.0
C2914 C 0.8494 0.03355 0.34785 0.0
C2915 C 0.83098 0.01084 0.34383 0.0
C2916 C 0.8706 0.03956 0.33465 0.0
C2917 C 0.89078 0.06325 0.33716 0.0
C2918 C 0.88088 0.0909 0.34024 0.0
C2919 C 0.90007 0.11303 0.34296 0.0
C2920 C 0.92921 0.10781 0.3425 0.0
C2921 C 0.93924 0.08046 0.33926 0.0
C2922 C 0.92014 0.05824 0.33655 0.0
C2923 C 0.8373 0.95707 0.27054 0.0
C2924 C 0.86385 0.9538 0.26184 0.0
C2925 C 0.83411 0.97228 0.28686 0.0
C2926 C 0.85748 0.98416 0.29616 0.0
C2927 C 0.88412 0.98079 0.28733 0.0
C2928 C 0.88713 0.96647 0.27061 0.0
C2929 C 0.85431 0.00048 0.31436 0.0
C2930 C 0.87261 0.02348 0.31847 0.0
C2931 C 0.8334 0.99419 0.32789 0.0
C2932 C 0.8146 0.96912 0.32669 0.0
C2933 C 0.82605 0.94174 0.32503 0.0
C2934 C 0.80815 0.9181 0.32455 0.0
C2935 C 0.7788 0.92157 0.3259 0.0
C2936 C 0.76726 0.94867 0.3276 0.0
C2937 C 0.78503 0.97237 0.32804 0.0
H2938 H 0.76497 0.90328 0.32575 0.0
H2939 H 0.94403 0.12496 0.34463 0.0
H2940 H 0.13556 0.58232 0.13567 0.0
H2941 H 0.15941 0.58751 0.10659 0.0
H2942 H 0.23646 0.6117 0.13313 0.0
H2943 H 0.21183 0.60895 0.16181 0.0
H2944 H 0.24312 0.63731 0.10643 0.0
H2945 H 0.21512 0.53998 0.10728 0.0
H2946 H 0.18322 0.49858 0.1094 0.0
H2947 H 0.13587 0.52966 1.0645 0.0
H2948 H 0.16728 0.57141 1.06225 0.0
H2949 H 0.32916 0.59965 1.02592 0.0
H2950 H 0.30435 0.59571 1.05493 0.0
H2951 H 0.22886 0.62979 1.03117 0.0
H2952 H 0.2537 0.63444 1.0023 0.0
H2953 H 0.2231 0.57366 1.05603 0.0
H2954 H 0.25743 0.67154 1.05598 0.0
H2955 H 0.29543 0.70741 1.05419 0.0
H2956 H 0.33787 0.66759 1.09835 0.0
H2957 H 0.30031 0.63122 1.10023 0.0
C2958 C 0.15762 0.58866 0.13538 0.0
C2959 C 0.17132 0.59505 0.15163 0.0
C2960 C 0.17175 0.59138 0.11843 0.0
C2961 C 0.20084 0.59945 0.11673 0.0
C2962 C 0.21435 0.60559 0.13313 0.0
C2963 C 0.20001 0.60378 0.14992 0.0
C2964 C 0.21707 0.60202 1.09837 0.0
C2965 C 0.23846 0.62296 1.09563 0.0
C2966 C 0.2123 0.58395 1.08339 0.0
C2967 C 0.19329 0.55901 1.08477 0.0
C2968 C 0.19777 0.53808 1.09795 0.0
C2969 C 0.1798 0.51454 1.09916 0.0
C2970 C 0.15746 0.51156 1.08714 0.0
C2971 C 0.15311 0.53205 1.07384 0.0
C2972 C 0.17099 0.55566 1.0726 0.0
C2973 C 0.30733 0.6066 1.02675 0.0
C2974 C 0.29402 0.61773 1.01123 0.0
C2975 C 0.29292 0.60423 1.0436 0.0
C2976 C 0.26413 0.61222 1.04585 0.0
C2977 C 0.2508 0.62319 1.03035 0.0
C2978 C 0.26533 0.62606 1.0136 0.0
C2979 C 0.24813 0.60924 1.06407 0.0
C2980 C 0.22718 0.58813 1.06679 0.0
C2981 C 0.25387 0.62649 1.07915 0.0
C2982 C 0.27621 0.64852 1.07813 0.0
C2983 C 0.27499 0.67029 1.06521 0.0
C2984 C 0.29643 0.69074 1.0642 0.0
C2985 C 0.31909 0.68974 1.07612 0.0
C2986 C 0.32032 0.66833 1.08911 0.0
C2987 C 0.29895 0.64781 1.09016 0.0
H2988 H 0.33567 0.70559 1.07531 0.0
H2989 H 0.14358 0.49332 1.0881 0.0
H2990 H 0.66272 0.8842 0.88543 0.0
H2991 H 0.65763 0.90813 0.85637 0.0
H2992 H 0.64558 0.98784 0.88307 0.0
H2993 H 0.64793 0.96334 0.91184 0.0
H2994 H 0.61843 0.99729 0.85796 0.0
H2995 H 0.7113 0.95784 0.85292 0.0
H2996 H 0.7485 0.9211 0.85301 0.0
H2997 H 0.70524 0.87659 0.81147 0.0
H2998 H 0.66762 0.91292 0.81127 0.0
H2999 H 0.64782 0.08171 0.77704 0.0
H3000 H 0.65262 0.05591 0.80564 0.0
H3001 H 0.62321 0.97961 0.7808 0.0
H3002 H 0.61744 0.00555 0.75238 0.0
H3003 H 0.67146 0.96878 0.80384 0.0
H3004 H 0.58029 0.0151 0.80933 0.0
H3005 H 0.54845 0.05656 0.80937 0.0
H3006 H 0.59726 0.09421 0.85118 0.0
H3007 H 0.62961 0.05313 0.85122 0.0
C3008 C 0.65914 0.90687 0.88516 0.0
C3009 C 0.65594 0.92141 0.90151 0.0
C3010 C 0.6565 0.92102 0.8682 0.0
C3011 C 0.65177 0.95084 0.86651 0.0
C3012 C 0.64897 0.96516 0.88302 0.0
C3013 C 0.6506 0.9509 0.89987 0.0
C3014 C 0.64898 0.96706 0.84812 0.0
C3015 C 0.6307 0.9909 0.84642 0.0
C3016 C 0.66407 0.95983 0.8321 0.0
C3017 C 0.68649 0.93789 0.83224 0.0
C3018 C 0.70964 0.94011 0.84389 0.0
C3019 C 0.73081 0.91938 0.84395 0.0
C3020 C 0.72918 0.89648 0.8323 0.0
C3021 C 0.70643 0.89431 0.82052 0.0
C3022 C 0.68519 0.91496 0.82042 0.0
C3023 C 0.64202 0.05951 0.77757 0.0
C3024 C 0.63174 0.0463 0.76193 0.0
C3025 C 0.64487 0.0445 0.79418 0.0
C3026 C 0.63834 0.01522 0.79602 0.0
C3027 C 0.62855 0.00193 0.78031 0.0
C3028 C 0.62501 0.01708 0.76384 0.0
C3029 C 0.64139 0.99874 0.81407 0.0
C3030 C 0.65954 0.97495 0.81559 0.0
C3031 C 0.62706 0.00662 0.83009 0.0
C3032 C 0.6075 0.03117 0.83016 0.0
C3033 C 0.58434 0.03232 0.81844 0.0
C3034 C 0.56619 0.05573 0.81847 0.0
C3035 C 0.57087 0.07803 0.83024 0.0
C3036 C 0.59368 0.07693 0.84205 0.0
C3037 C 0.61191 0.05358 0.84207 0.0
H3038 H 0.5568 0.09614 0.83024 0.0
H3039 H 0.74559 0.88045 0.83237 0.0
loop_
_geom_bond_atom_site_label_1
_geom_bond_atom_site_label_2
_geom_bond_distance
_geom_bond_site_symmetry_2
_ccdc_geom_bond_type
Gd0 C3 2.818 . S
Gd0 O20 2.377 . S
Gd0 O22 2.448 . S
Gd0 O23 2.506 . S
Gd0 O24 2.435 . S
Gd0 O25 2.717 . S
Gd0 O27 2.395 . S
Gd0 O31 2.327 . S
Gd1 C12 2.818 . S
Gd1 O21 2.395 . S
Gd1 O25 2.327 . S
Gd1 O26 2.377 . S
Gd1 O28 2.448 . S
Gd1 O29 2.506 . S
Gd1 O30 2.435 . S
Gd1 O31 2.717 . S
C2 O20 1.240 . S
C2 O21 1.240 . S
C3 Gd0 2.818 . S
C3 C4 1.510 . S
C3 O22 1.249 . S
C3 O23 1.252 . S
C4 C3 1.510 . S
C4 C5 1.404 . S
C4 C6 1.352 . S
C5 C4 1.404 . S
C5 C9 1.389 . S
C5 H32 0.930 . S
C6 C4 1.352 . S
C6 C8 1.374 . S
C6 H33 0.931 . S
C7 C8 1.359 . S
C7 C9 1.364 . S
C8 C6 1.374 . S
C8 C7 1.359 . S
C8 H34 0.931 . S
C9 C5 1.389 . S
C9 C7 1.364 . S
C9 H35 0.931 . S
C10 O24 1.256 . S
C10 O25 1.257 . S
C11 O26 1.240 . S
C11 O27 1.240 . S
C12 Gd1 2.818 . S
C12 C13 1.510 . S
C12 O28 1.249 . S
C12 O29 1.252 . S
C13 C12 1.510 . S
C13 C14 1.404 . S
C13 C15 1.352 . S
C14 C13 1.404 . S
C14 C18 1.389 . S
C14 H36 0.930 . S
C15 C13 1.352 . S
C15 C17 1.374 . S
C15 H37 0.931 . S
C16 C17 1.359 . S
C16 C18 1.364 . S
C17 C15 1.374 . S
C17 C16 1.359 . S
C17 H38 0.931 . S
C18 C14 1.389 . S
C18 C16 1.364 . S
C18 H39 0.931 1_545 S
C19 O30 1.256 . S
C19 O31 1.257 . S
O20 Gd0 2.377 . S
O20 C2 1.240 . S
O21 Gd1 2.395 . S
O21 C2 1.240 . S
O22 Gd0 2.448 . S
O22 C3 1.249 . S
O23 Gd0 2.506 . S
O23 C3 1.252 . S
O24 Gd0 2.435 . S
O24 C10 1.256 . S
O25 Gd0 2.717 . S
O25 Gd1 2.327 . S
O25 C10 1.257 . S
O26 Gd1 2.377 . S
O26 C11 1.240 . S
O27 Gd0 2.395 . S
O27 C11 1.240 . S
O28 Gd1 2.448 . S
O28 C12 1.249 . S
O29 Gd1 2.506 . S
O29 C12 1.252 . S
O30 Gd1 2.435 . S
O30 C19 1.256 . S
O31 Gd0 2.327 . S
O31 Gd1 2.717 . S
O31 C19 1.257 . S
H32 C5 0.930 . S
H33 C6 0.931 . S
H34 C8 0.931 . S
H35 C9 0.931 . S
H36 C14 0.930 . S
H37 C15 0.931 . S
H38 C17 0.931 . S
H39 C18 0.931 1_565 S
Gd40 C43 2.818 . S
Gd40 O60 2.377 . S
Gd40 O62 2.448 . S
Gd40 O63 2.506 . S
Gd40 O64 2.435 . S
Gd40 O65 2.717 . S
Gd40 O67 2.395 . S
Gd40 O71 2.327 . S
Gd41 C52 2.818 . S
Gd41 O61 2.395 . S
Gd41 O65 2.327 . S
Gd41 O66 2.377 . S
Gd41 O68 2.448 . S
Gd41 O69 2.506 . S
Gd41 O70 2.435 . S
Gd41 O71 2.717 . S
C42 O60 1.240 . S
C42 O61 1.240 . S
C43 Gd40 2.818 . S
C43 C44 1.510 . S
C43 O62 1.249 . S
C43 O63 1.252 . S
C44 C43 1.510 . S
C44 C45 1.404 . S
C44 C46 1.352 . S
C45 C44 1.404 . S
C45 C49 1.389 . S
C45 H72 0.930 . S
C46 C44 1.352 . S
C46 C48 1.374 . S
C46 H73 0.931 . S
C47 C48 1.359 . S
C47 C49 1.364 . S
C48 C46 1.374 . S
C48 C47 1.359 . S
C48 H74 0.931 . S
C49 C45 1.389 . S
C49 C47 1.364 . S
C49 H75 0.931 . S
C50 O64 1.256 . S
C50 O65 1.257 . S
C51 O66 1.240 . S
C51 O67 1.240 . S
C52 Gd41 2.818 . S
C52 C53 1.510 . S
C52 O68 1.249 . S
C52 O69 1.252 . S
C53 C52 1.510 . S
C53 C54 1.404 . S
C53 C55 1.352 . S
C54 C53 1.404 . S
C54 C58 1.389 . S
C54 H76 0.930 . S
C55 C53 1.352 . S
C55 C57 1.374 . S
C55 H77 0.931 . S
C56 C57 1.359 . S
C56 C58 1.364 . S
C57 C55 1.374 . S
C57 C56 1.359 . S
C57 H78 0.931 . S
C58 C54 1.389 . S
C58 C56 1.364 . S
C58 H79 0.931 . S
C59 O70 1.256 . S
C59 O71 1.257 . S
O60 Gd40 2.377 . S
O60 C42 1.240 . S
O61 Gd41 2.395 . S
O61 C42 1.240 . S
O62 Gd40 2.448 . S
O62 C43 1.249 . S
O63 Gd40 2.506 . S
O63 C43 1.252 . S
O64 Gd40 2.435 . S
O64 C50 1.256 . S
O65 Gd40 2.717 . S
O65 Gd41 2.327 . S
O65 C50 1.257 . S
O66 Gd41 2.377 . S
O66 C51 1.240 . S
O67 Gd40 2.395 . S
O67 C51 1.240 . S
O68 Gd41 2.448 . S
O68 C52 1.249 . S
O69 Gd41 2.506 . S
O69 C52 1.252 . S
O70 Gd41 2.435 . S
O70 C59 1.256 . S
O71 Gd40 2.327 . S
O71 Gd41 2.717 . S
O71 C59 1.257 . S
H72 C45 0.930 . S
H73 C46 0.931 . S
H74 C48 0.931 . S
H75 C49 0.931 . S
H76 C54 0.930 . S
H77 C55 0.931 . S
H78 C57 0.931 . S
H79 C58 0.931 . S
Gd80 C83 2.818 . S
Gd80 O100 2.377 . S
Gd80 O102 2.448 . S
Gd80 O103 2.506 . S
Gd80 O104 2.435 . S
Gd80 O105 2.717 . S
Gd80 O107 2.395 . S
Gd80 O111 2.327 . S
Gd81 C92 2.818 . S
Gd81 O101 2.395 . S
Gd81 O105 2.327 . S
Gd81 O106 2.377 . S
Gd81 O108 2.448 . S
Gd81 O109 2.506 . S
Gd81 O110 2.435 . S
Gd81 O111 2.717 . S
C82 O100 1.240 . S
C82 O101 1.240 . S
C83 Gd80 2.818 . S
C83 C84 1.510 . S
C83 O102 1.249 . S
C83 O103 1.252 . S
C84 C83 1.510 . S
C84 C85 1.404 . S
C84 C86 1.352 . S
C85 C84 1.404 . S
C85 C89 1.389 . S
C85 H112 0.930 . S
C86 C84 1.352 . S
C86 C88 1.374 . S
C86 H113 0.931 . S
C87 C88 1.359 . S
C87 C89 1.364 . S
C88 C86 1.374 . S
C88 C87 1.359 . S
C88 H114 0.931 . S
C89 C85 1.389 . S
C89 C87 1.364 . S
C89 H115 0.931 . S
C90 O104 1.256 . S
C90 O105 1.257 . S
C91 O106 1.240 . S
C91 O107 1.240 . S
C92 Gd81 2.818 . S
C92 C93 1.510 . S
C92 O108 1.249 . S
C92 O109 1.252 . S
C93 C92 1.510 . S
C93 C94 1.404 . S
C93 C95 1.352 . S
C94 C93 1.404 . S
C94 C98 1.389 . S
C94 H116 0.930 . S
C95 C93 1.352 . S
C95 C97 1.374 . S
C95 H117 0.931 . S
C96 C97 1.359 . S
C96 C98 1.364 . S
C97 C95 1.374 . S
C97 C96 1.359 . S
C97 H118 0.931 . S
C98 C94 1.389 . S
C98 C96 1.364 . S
C98 H119 0.931 1_565 S
C99 O110 1.256 . S
C99 O111 1.257 . S
O100 Gd80 2.377 . S
O100 C82 1.240 . S
O101 Gd81 2.395 . S
O101 C82 1.240 . S
O102 Gd80 2.448 . S
O102 C83 1.249 . S
O103 Gd80 2.506 . S
O103 C83 1.252 . S
O104 Gd80 2.435 . S
O104 C90 1.256 . S
O105 Gd80 2.717 . S
O105 Gd81 2.327 . S
O105 C90 1.257 . S
O106 Gd81 2.377 . S
O106 C91 1.240 . S
O107 Gd80 2.395 . S
O107 C91 1.240 . S
O108 Gd81 2.448 . S
O108 C92 1.249 . S
O109 Gd81 2.506 . S
O109 C92 1.252 . S
O110 Gd81 2.435 . S
O110 C99 1.256 . S
O111 Gd80 2.327 . S
O111 Gd81 2.717 . S
O111 C99 1.257 . S
H112 C85 0.930 . S
H113 C86 0.931 . S
H114 C88 0.931 . S
H115 C89 0.931 . S
H116 C94 0.930 . S
H117 C95 0.931 . S
H118 C97 0.931 . S
H119 C98 0.931 1_545 S
Gd120 C123 2.818 . S
Gd120 O140 2.377 . S
Gd120 O142 2.448 . S
Gd120 O143 2.506 . S
Gd120 O144 2.435 . S
Gd120 O145 2.717 . S
Gd120 O147 2.395 . S
Gd120 O151 2.327 . S
Gd121 C132 2.818 . S
Gd121 O141 2.395 . S
Gd121 O145 2.327 . S
Gd121 O146 2.377 . S
Gd121 O148 2.448 . S
Gd121 O149 2.506 . S
Gd121 O150 2.435 . S
Gd121 O151 2.717 . S
C122 O140 1.240 . S
C122 O141 1.240 . S
C123 Gd120 2.818 . S
C123 C124 1.510 . S
C123 O142 1.249 . S
C123 O143 1.252 . S
C124 C123 1.510 . S
C124 C125 1.404 1_655 S
C124 C126 1.352 . S
C125 C124 1.404 1_455 S
C125 C129 1.389 . S
C125 H152 0.930 . S
C126 C124 1.352 . S
C126 C128 1.374 . S
C126 H153 0.931 . S
C127 C128 1.359 1_455 S
C127 C129 1.364 . S
C128 C126 1.374 . S
C128 C127 1.359 1_655 S
C128 H154 0.931 . S
C129 C125 1.389 . S
C129 C127 1.364 . S
C129 H155 0.931 . S
C130 O144 1.256 . S
C130 O145 1.257 . S
C131 O146 1.240 . S
C131 O147 1.240 . S
C132 Gd121 2.818 . S
C132 C133 1.510 . S
C132 O148 1.249 . S
C132 O149 1.252 . S
C133 C132 1.510 . S
C133 C134 1.404 . S
C133 C135 1.352 . S
C134 C133 1.404 . S
C134 C138 1.389 . S
C134 H156 0.930 . S
C135 C133 1.352 . S
C135 C137 1.374 . S
C135 H157 0.931 . S
C136 C137 1.359 . S
C136 C138 1.364 . S
C137 C135 1.374 . S
C137 C136 1.359 . S
C137 H158 0.931 . S
C138 C134 1.389 . S
C138 C136 1.364 . S
C138 H159 0.931 . S
C139 O150 1.256 . S
C139 O151 1.257 . S
O140 Gd120 2.377 . S
O140 C122 1.240 . S
O141 Gd121 2.395 . S
O141 C122 1.240 . S
O142 Gd120 2.448 . S
O142 C123 1.249 . S
O143 Gd120 2.506 . S
O143 C123 1.252 . S
O144 Gd120 2.435 . S
O144 C130 1.256 . S
O145 Gd120 2.717 . S
O145 Gd121 2.327 . S
O145 C130 1.257 . S
O146 Gd121 2.377 . S
O146 C131 1.240 . S
O147 Gd120 2.395 . S
O147 C131 1.240 . S
O148 Gd121 2.448 . S
O148 C132 1.249 . S
O149 Gd121 2.506 . S
O149 C132 1.252 . S
O150 Gd121 2.435 . S
O150 C139 1.256 . S
O151 Gd120 2.327 . S
O151 Gd121 2.717 . S
O151 C139 1.257 . S
H152 C125 0.930 . S
H153 C126 0.931 . S
H154 C128 0.931 . S
H155 C129 0.931 . S
H156 C134 0.930 . S
H157 C135 0.931 . S
H158 C137 0.931 . S
H159 C138 0.931 . S
Gd160 C163 2.818 . S
Gd160 O180 2.377 . S
Gd160 O182 2.448 . S
Gd160 O183 2.506 . S
Gd160 O184 2.435 . S
Gd160 O185 2.717 . S
Gd160 O187 2.395 . S
Gd160 O191 2.327 . S
Gd161 C172 2.818 . S
Gd161 O181 2.395 . S
Gd161 O185 2.327 . S
Gd161 O186 2.377 . S
Gd161 O188 2.448 . S
Gd161 O189 2.506 . S
Gd161 O190 2.435 . S
Gd161 O191 2.717 . S
C162 O180 1.240 . S
C162 O181 1.240 . S
C163 Gd160 2.818 . S
C163 C164 1.510 . S
C163 O182 1.249 . S
C163 O183 1.252 . S
C164 C163 1.510 . S
C164 C165 1.404 . S
C164 C166 1.352 . S
C165 C164 1.404 . S
C165 C169 1.389 . S
C165 H192 0.930 . S
C166 C164 1.352 . S
C166 C168 1.374 . S
C166 H193 0.931 . S
C167 C168 1.359 . S
C167 C169 1.364 . S
C168 C166 1.374 . S
C168 C167 1.359 . S
C168 H194 0.931 . S
C169 C165 1.389 . S
C169 C167 1.364 . S
C169 H195 0.931 1_565 S
C170 O184 1.256 . S
C170 O185 1.257 . S
C171 O186 1.240 . S
C171 O187 1.240 . S
C172 Gd161 2.818 . S
C172 C173 1.510 . S
C172 O188 1.249 . S
C172 O189 1.252 . S
C173 C172 1.510 . S
C173 C174 1.404 . S
C173 C175 1.352 . S
C174 C173 1.404 . S
C174 C178 1.389 . S
C174 H196 0.930 . S
C175 C173 1.352 . S
C175 C177 1.374 . S
C175 H197 0.931 . S
C176 C177 1.359 . S
C176 C178 1.364 . S
C177 C175 1.374 . S
C177 C176 1.359 . S
C177 H198 0.931 . S
C178 C174 1.389 . S
C178 C176 1.364 . S
C178 H199 0.931 . S
C179 O190 1.256 . S
C179 O191 1.257 . S
O180 Gd160 2.377 . S
O180 C162 1.240 . S
O181 Gd161 2.395 . S
O181 C162 1.240 . S
O182 Gd160 2.448 . S
O182 C163 1.249 . S
O183 Gd160 2.506 . S
O183 C163 1.252 . S
O184 Gd160 2.435 . S
O184 C170 1.256 . S
O185 Gd160 2.717 . S
O185 Gd161 2.327 . S
O185 C170 1.257 . S
O186 Gd161 2.377 . S
O186 C171 1.240 . S
O187 Gd160 2.395 . S
O187 C171 1.240 . S
O188 Gd161 2.448 . S
O188 C172 1.249 . S
O189 Gd161 2.506 . S
O189 C172 1.252 . S
O190 Gd161 2.435 . S
O190 C179 1.256 . S
O191 Gd160 2.327 . S
O191 Gd161 2.717 . S
O191 C179 1.257 . S
H192 C165 0.930 . S
H193 C166 0.931 . S
H194 C168 0.931 . S
H195 C169 0.931 1_545 S
H196 C174 0.930 . S
H197 C175 0.931 . S
H198 C177 0.931 . S
H199 C178 0.931 . S
Gd200 C203 2.818 . S
Gd200 O220 2.377 . S
Gd200 O222 2.448 . S
Gd200 O223 2.506 . S
Gd200 O224 2.435 . S
Gd200 O225 2.717 . S
Gd200 O227 2.395 . S
Gd200 O231 2.327 . S
Gd201 C212 2.818 . S
Gd201 O221 2.395 . S
Gd201 O225 2.327 . S
Gd201 O226 2.377 . S
Gd201 O228 2.448 . S
Gd201 O229 2.506 . S
Gd201 O230 2.435 . S
Gd201 O231 2.717 . S
C202 O220 1.240 . S
C202 O221 1.240 . S
C203 Gd200 2.818 . S
C203 C204 1.510 . S
C203 O222 1.249 . S
C203 O223 1.252 . S
C204 C203 1.510 . S
C204 C205 1.404 . S
C204 C206 1.352 . S
C205 C204 1.404 . S
C205 C209 1.389 . S
C205 H232 0.930 . S
C206 C204 1.352 . S
C206 C208 1.374 . S
C206 H233 0.931 . S
C207 C208 1.359 . S
C207 C209 1.364 . S
C208 C206 1.374 . S
C208 C207 1.359 . S
C208 H234 0.931 . S
C209 C205 1.389 . S
C209 C207 1.364 . S
C209 H235 0.931 . S
C210 O224 1.256 . S
C210 O225 1.257 . S
C211 O226 1.240 . S
C211 O227 1.240 . S
C212 Gd201 2.818 . S
C212 C213 1.510 . S
C212 O228 1.249 . S
C212 O229 1.252 . S
C213 C212 1.510 . S
C213 C214 1.404 . S
C213 C215 1.352 . S
C214 C213 1.404 . S
C214 C218 1.389 . S
C214 H236 0.930 . S
C215 C213 1.352 . S
C215 C217 1.374 . S
C215 H237 0.931 . S
C216 C217 1.359 . S
C216 C218 1.364 . S
C217 C215 1.374 . S
C217 C216 1.359 . S
C217 H238 0.931 . S
C218 C214 1.389 . S
C218 C216 1.364 . S
C218 H239 0.931 . S
C219 O230 1.256 . S
C219 O231 1.257 . S
O220 Gd200 2.377 . S
O220 C202 1.240 . S
O221 Gd201 2.395 . S
O221 C202 1.240 . S
O222 Gd200 2.448 . S
O222 C203 1.249 . S
O223 Gd200 2.506 . S
O223 C203 1.252 . S
O224 Gd200 2.435 . S
O224 C210 1.256 . S
O225 Gd200 2.717 . S
O225 Gd201 2.327 . S
O225 C210 1.257 . S
O226 Gd201 2.377 . S
O226 C211 1.240 . S
O227 Gd200 2.395 . S
O227 C211 1.240 . S
O228 Gd201 2.448 . S
O228 C212 1.249 . S
O229 Gd201 2.506 . S
O229 C212 1.252 . S
O230 Gd201 2.435 . S
O230 C219 1.256 . S
O231 Gd200 2.327 . S
O231 Gd201 2.717 . S
O231 C219 1.257 . S
H232 C205 0.930 . S
H233 C206 0.931 . S
H234 C208 0.931 . S
H235 C209 0.931 . S
H236 C214 0.930 . S
H237 C215 0.931 . S
H238 C217 0.931 . S
H239 C218 0.931 . S
Gd240 C243 2.818 . S
Gd240 O260 2.377 . S
Gd240 O262 2.448 . S
Gd240 O263 2.506 . S
Gd240 O264 2.435 . S
Gd240 O265 2.717 . S
Gd240 O267 2.395 . S
Gd240 O271 2.327 . S
Gd241 C252 2.818 . S
Gd241 O261 2.395 . S
Gd241 O265 2.327 . S
Gd241 O266 2.377 . S
Gd241 O268 2.448 . S
Gd241 O269 2.506 . S
Gd241 O270 2.435 . S
Gd241 O271 2.717 . S
C242 O260 1.240 . S
C242 O261 1.240 . S
C243 Gd240 2.818 . S
C243 C244 1.510 . S
C243 O262 1.249 . S
C243 O263 1.252 . S
C244 C243 1.510 . S
C244 C245 1.404 . S
C244 C246 1.352 . S
C245 C244 1.404 . S
C245 C249 1.389 . S
C245 H272 0.930 . S
C246 C244 1.352 . S
C246 C248 1.374 . S
C246 H273 0.931 . S
C247 C248 1.359 . S
C247 C249 1.364 . S
C248 C246 1.374 . S
C248 C247 1.359 . S
C248 H274 0.931 . S
C249 C245 1.389 . S
C249 C247 1.364 . S
C249 H275 0.931 1_545 S
C250 O264 1.256 . S
C250 O265 1.257 . S
C251 O266 1.240 . S
C251 O267 1.240 . S
C252 Gd241 2.818 . S
C252 C253 1.510 . S
C252 O268 1.249 . S
C252 O269 1.252 . S
C253 C252 1.510 . S
C253 C254 1.404 . S
C253 C255 1.352 . S
C254 C253 1.404 . S
C254 C258 1.389 . S
C254 H276 0.930 . S
C255 C253 1.352 . S
C255 C257 1.374 . S
C255 H277 0.931 . S
C256 C257 1.359 . S
C256 C258 1.364 . S
C257 C255 1.374 . S
C257 C256 1.359 . S
C257 H278 0.931 . S
C258 C254 1.389 . S
C258 C256 1.364 . S
C258 H279 0.931 . S
C259 O270 1.256 . S
C259 O271 1.257 . S
O260 Gd240 2.377 . S
O260 C242 1.240 . S
O261 Gd241 2.395 . S
O261 C242 1.240 . S
O262 Gd240 2.448 . S
O262 C243 1.249 . S
O263 Gd240 2.506 . S
O263 C243 1.252 . S
O264 Gd240 2.435 . S
O264 C250 1.256 . S
O265 Gd240 2.717 . S
O265 Gd241 2.327 . S
O265 C250 1.257 . S
O266 Gd241 2.377 . S
O266 C251 1.240 . S
O267 Gd240 2.395 . S
O267 C251 1.240 . S
O268 Gd241 2.448 . S
O268 C252 1.249 . S
O269 Gd241 2.506 . S
O269 C252 1.252 . S
O270 Gd241 2.435 . S
O270 C259 1.256 . S
O271 Gd240 2.327 . S
O271 Gd241 2.717 . S
O271 C259 1.257 . S
H272 C245 0.930 . S
H273 C246 0.931 . S
H274 C248 0.931 . S
H275 C249 0.931 1_565 S
H276 C254 0.930 . S
H277 C255 0.931 . S
H278 C257 0.931 . S
H279 C258 0.931 . S
Gd280 C283 2.818 . S
Gd280 O300 2.377 . S
Gd280 O302 2.448 . S
Gd280 O303 2.506 . S
Gd280 O304 2.435 . S
Gd280 O305 2.717 . S
Gd280 O307 2.395 . S
Gd280 O311 2.327 . S
Gd281 C292 2.818 . S
Gd281 O301 2.395 . S
Gd281 O305 2.327 . S
Gd281 O306 2.377 . S
Gd281 O308 2.448 . S
Gd281 O309 2.506 . S
Gd281 O310 2.435 . S
Gd281 O311 2.717 . S
C282 O300 1.240 . S
C282 O301 1.240 . S
C283 Gd280 2.818 . S
C283 C284 1.510 . S
C283 O302 1.249 . S
C283 O303 1.252 . S
C284 C283 1.510 . S
C284 C285 1.404 . S
C284 C286 1.352 . S
C285 C284 1.404 . S
C285 C289 1.389 . S
C285 H312 0.930 . S
C286 C284 1.352 . S
C286 C288 1.374 . S
C286 H313 0.931 . S
C287 C288 1.359 . S
C287 C289 1.364 . S
C288 C286 1.374 . S
C288 C287 1.359 . S
C288 H314 0.931 . S
C289 C285 1.389 . S
C289 C287 1.364 . S
C289 H315 0.931 . S
C290 O304 1.256 . S
C290 O305 1.257 . S
C291 O306 1.240 . S
C291 O307 1.240 . S
C292 Gd281 2.818 . S
C292 C293 1.510 . S
C292 O308 1.249 . S
C292 O309 1.252 . S
C293 C292 1.510 . S
C293 C294 1.404 1_455 S
C293 C295 1.352 . S
C294 C293 1.404 1_655 S
C294 C298 1.389 . S
C294 H316 0.930 . S
C295 C293 1.352 . S
C295 C297 1.374 . S
C295 H317 0.931 . S
C296 C297 1.359 1_655 S
C296 C298 1.364 . S
C297 C295 1.374 . S
C297 C296 1.359 1_455 S
C297 H318 0.931 . S
C298 C294 1.389 . S
C298 C296 1.364 . S
C298 H319 0.931 . S
C299 O310 1.256 . S
C299 O311 1.257 . S
O300 Gd280 2.377 . S
O300 C282 1.240 . S
O301 Gd281 2.395 . S
O301 C282 1.240 . S
O302 Gd280 2.448 . S
O302 C283 1.249 . S
O303 Gd280 2.506 . S
O303 C283 1.252 . S
O304 Gd280 2.435 . S
O304 C290 1.256 . S
O305 Gd280 2.717 . S
O305 Gd281 2.327 . S
O305 C290 1.257 . S
O306 Gd281 2.377 . S
O306 C291 1.240 . S
O307 Gd280 2.395 . S
O307 C291 1.240 . S
O308 Gd281 2.448 . S
O308 C292 1.249 . S
O309 Gd281 2.506 . S
O309 C292 1.252 . S
O310 Gd281 2.435 . S
O310 C299 1.256 . S
O311 Gd280 2.327 . S
O311 Gd281 2.717 . S
O311 C299 1.257 . S
H312 C285 0.930 . S
H313 C286 0.931 . S
H314 C288 0.931 . S
H315 C289 0.931 . S
H316 C294 0.930 . S
H317 C295 0.931 . S
H318 C297 0.931 . S
H319 C298 0.931 . S
Gd320 C323 2.818 . S
Gd320 O340 2.377 . S
Gd320 O342 2.448 . S
Gd320 O343 2.506 . S
Gd320 O344 2.435 . S
Gd320 O345 2.717 . S
Gd320 O347 2.395 . S
Gd320 O351 2.327 . S
Gd321 C332 2.818 . S
Gd321 O341 2.395 . S
Gd321 O345 2.327 . S
Gd321 O346 2.377 . S
Gd321 O348 2.448 . S
Gd321 O349 2.506 . S
Gd321 O350 2.435 . S
Gd321 O351 2.717 . S
C322 O340 1.240 . S
C322 O341 1.240 . S
C323 Gd320 2.818 . S
C323 C324 1.510 . S
C323 O342 1.249 . S
C323 O343 1.252 . S
C324 C323 1.510 . S
C324 C325 1.404 . S
C324 C326 1.352 . S
C325 C324 1.404 . S
C325 C329 1.389 . S
C325 H352 0.930 . S
C326 C324 1.352 . S
C326 C328 1.374 . S
C326 H353 0.931 . S
C327 C328 1.359 . S
C327 C329 1.364 . S
C328 C326 1.374 . S
C328 C327 1.359 . S
C328 H354 0.931 . S
C329 C325 1.389 . S
C329 C327 1.364 . S
C329 H355 0.931 . S
C330 O344 1.256 . S
C330 O345 1.257 . S
C331 O346 1.240 . S
C331 O347 1.240 . S
C332 Gd321 2.818 . S
C332 C333 1.510 . S
C332 O348 1.249 . S
C332 O349 1.252 . S
C333 C332 1.510 . S
C333 C334 1.404 . S
C333 C335 1.352 . S
C334 C333 1.404 . S
C334 C338 1.389 . S
C334 H356 0.930 . S
C335 C333 1.352 . S
C335 C337 1.374 . S
C335 H357 0.931 . S
C336 C337 1.359 . S
C336 C338 1.364 . S
C337 C335 1.374 . S
C337 C336 1.359 . S
C337 H358 0.931 . S
C338 C334 1.389 . S
C338 C336 1.364 . S
C338 H359 0.931 . S
C339 O350 1.256 . S
C339 O351 1.257 . S
O340 Gd320 2.377 . S
O340 C322 1.240 . S
O341 Gd321 2.395 . S
O341 C322 1.240 . S
O342 Gd320 2.448 . S
O342 C323 1.249 . S
O343 Gd320 2.506 . S
O343 C323 1.252 . S
O344 Gd320 2.435 . S
O344 C330 1.256 . S
O345 Gd320 2.717 . S
O345 Gd321 2.327 . S
O345 C330 1.257 . S
O346 Gd321 2.377 . S
O346 C331 1.240 . S
O347 Gd320 2.395 . S
O347 C331 1.240 . S
O348 Gd321 2.448 . S
O348 C332 1.249 . S
O349 Gd321 2.506 . S
O349 C332 1.252 . S
O350 Gd321 2.435 . S
O350 C339 1.256 . S
O351 Gd320 2.327 . S
O351 Gd321 2.717 . S
O351 C339 1.257 . S
H352 C325 0.930 . S
H353 C326 0.931 . S
H354 C328 0.931 . S
H355 C329 0.931 . S
H356 C334 0.930 . S
H357 C335 0.931 . S
H358 C337 0.931 . S
H359 C338 0.931 . S
Gd360 C363 2.818 . S
Gd360 O380 2.377 . S
Gd360 O382 2.448 . S
Gd360 O383 2.506 . S
Gd360 O384 2.435 . S
Gd360 O385 2.717 . S
Gd360 O387 2.395 . S
Gd360 O391 2.327 . S
Gd361 C372 2.818 . S
Gd361 O381 2.395 . S
Gd361 O385 2.327 . S
Gd361 O386 2.377 . S
Gd361 O388 2.448 . S
Gd361 O389 2.506 . S
Gd361 O390 2.435 . S
Gd361 O391 2.717 . S
C362 O380 1.240 . S
C362 O381 1.240 . S
C363 Gd360 2.818 . S
C363 C364 1.510 . S
C363 O382 1.249 . S
C363 O383 1.252 . S
C364 C363 1.510 . S
C364 C365 1.404 1_455 S
C364 C366 1.352 1_545 S
C365 C364 1.404 1_655 S
C365 C369 1.389 1_545 S
C365 H392 0.930 . S
C366 C364 1.352 1_565 S
C366 C368 1.374 . S
C366 H393 0.931 . S
C367 C368 1.359 1_655 S
C367 C369 1.364 . S
C368 C366 1.374 . S
C368 C367 1.359 1_455 S
C368 H394 0.931 . S
C369 C365 1.389 1_565 S
C369 C367 1.364 . S
C369 H395 0.931 1_565 S
C370 O384 1.256 . S
C370 O385 1.257 . S
C371 O386 1.240 . S
C371 O387 1.240 . S
C372 Gd361 2.818 . S
C372 C373 1.510 . S
C372 O388 1.249 . S
C372 O389 1.252 . S
C373 C372 1.510 . S
C373 C374 1.404 . S
C373 C375 1.352 . S
C374 C373 1.404 . S
C374 C378 1.389 . S
C374 H396 0.930 . S
C375 C373 1.352 . S
C375 C377 1.374 . S
C375 H397 0.931 . S
C376 C377 1.359 . S
C376 C378 1.364 . S
C377 C375 1.374 . S
C377 C376 1.359 . S
C377 H398 0.931 . S
C378 C374 1.389 . S
C378 C376 1.364 . S
C378 H399 0.931 . S
C379 O390 1.256 . S
C379 O391 1.257 . S
O380 Gd360 2.377 . S
O380 C362 1.240 . S
O381 Gd361 2.395 . S
O381 C362 1.240 . S
O382 Gd360 2.448 . S
O382 C363 1.249 . S
O383 Gd360 2.506 . S
O383 C363 1.252 . S
O384 Gd360 2.435 . S
O384 C370 1.256 . S
O385 Gd360 2.717 . S
O385 Gd361 2.327 . S
O385 C370 1.257 . S
O386 Gd361 2.377 . S
O386 C371 1.240 . S
O387 Gd360 2.395 . S
O387 C371 1.240 . S
O388 Gd361 2.448 . S
O388 C372 1.249 . S
O389 Gd361 2.506 . S
O389 C372 1.252 . S
O390 Gd361 2.435 . S
O390 C379 1.256 . S
O391 Gd360 2.327 . S
O391 Gd361 2.717 . S
O391 C379 1.257 . S
H392 C365 0.930 . S
H393 C366 0.931 . S
H394 C368 0.931 . S
H395 C369 0.931 1_545 S
H396 C374 0.930 . S
H397 C375 0.931 . S
H398 C377 0.931 . S
H399 C378 0.931 . S
Gd400 C403 2.818 . S
Gd400 O420 2.377 . S
Gd400 O422 2.448 . S
Gd400 O423 2.506 . S
Gd400 O424 2.435 . S
Gd400 O425 2.717 . S
Gd400 O427 2.395 . S
Gd400 O431 2.327 . S
Gd401 C412 2.818 . S
Gd401 O421 2.395 . S
Gd401 O425 2.327 . S
Gd401 O426 2.377 . S
Gd401 O428 2.448 . S
Gd401 O429 2.506 . S
Gd401 O430 2.435 . S
Gd401 O431 2.717 . S
C402 O420 1.240 . S
C402 O421 1.240 . S
C403 Gd400 2.818 . S
C403 C404 1.510 . S
C403 O422 1.249 . S
C403 O423 1.252 . S
C404 C403 1.510 . S
C404 C405 1.404 . S
C404 C406 1.352 . S
C405 C404 1.404 . S
C405 C409 1.389 . S
C405 H432 0.930 . S
C406 C404 1.352 . S
C406 C408 1.374 . S
C406 H433 0.931 . S
C407 C408 1.359 . S
C407 C409 1.364 . S
C408 C406 1.374 . S
C408 C407 1.359 . S
C408 H434 0.931 . S
C409 C405 1.389 . S
C409 C407 1.364 . S
C409 H435 0.931 . S
C410 O424 1.256 . S
C410 O425 1.257 . S
C411 O426 1.240 . S
C411 O427 1.240 . S
C412 Gd401 2.818 . S
C412 C413 1.510 . S
C412 O428 1.249 . S
C412 O429 1.252 . S
C413 C412 1.510 . S
C413 C414 1.404 . S
C413 C415 1.352 . S
C414 C413 1.404 . S
C414 C418 1.389 . S
C414 H436 0.930 . S
C415 C413 1.352 . S
C415 C417 1.374 . S
C415 H437 0.931 . S
C416 C417 1.359 . S
C416 C418 1.364 . S
C417 C415 1.374 . S
C417 C416 1.359 . S
C417 H438 0.931 . S
C418 C414 1.389 . S
C418 C416 1.364 . S
C418 H439 0.931 . S
C419 O430 1.256 . S
C419 O431 1.257 . S
O420 Gd400 2.377 . S
O420 C402 1.240 . S
O421 Gd401 2.395 . S
O421 C402 1.240 . S
O422 Gd400 2.448 . S
O422 C403 1.249 . S
O423 Gd400 2.506 . S
O423 C403 1.252 . S
O424 Gd400 2.435 . S
O424 C410 1.256 . S
O425 Gd400 2.717 . S
O425 Gd401 2.327 . S
O425 C410 1.257 . S
O426 Gd401 2.377 . S
O426 C411 1.240 . S
O427 Gd400 2.395 . S
O427 C411 1.240 . S
O428 Gd401 2.448 . S
O428 C412 1.249 . S
O429 Gd401 2.506 . S
O429 C412 1.252 . S
O430 Gd401 2.435 . S
O430 C419 1.256 . S
O431 Gd400 2.327 . S
O431 Gd401 2.717 . S
O431 C419 1.257 . S
H432 C405 0.930 . S
H433 C406 0.931 . S
H434 C408 0.931 . S
H435 C409 0.931 . S
H436 C414 0.930 . S
H437 C415 0.931 . S
H438 C417 0.931 . S
H439 C418 0.931 . S
Gd440 C443 2.818 . S
Gd440 O460 2.377 . S
Gd440 O462 2.448 . S
Gd440 O463 2.506 . S
Gd440 O464 2.435 . S
Gd440 O465 2.717 . S
Gd440 O467 2.395 . S
Gd440 O471 2.327 . S
Gd441 C452 2.818 . S
Gd441 O461 2.395 . S
Gd441 O465 2.327 . S
Gd441 O466 2.377 . S
Gd441 O468 2.448 . S
Gd441 O469 2.506 . S
Gd441 O470 2.435 . S
Gd441 O471 2.717 . S
C442 O460 1.240 . S
C442 O461 1.240 . S
C443 Gd440 2.818 . S
C443 C444 1.510 . S
C443 O462 1.249 . S
C443 O463 1.252 . S
C444 C443 1.510 . S
C444 C445 1.404 . S
C444 C446 1.352 1_565 S
C445 C444 1.404 . S
C445 C449 1.389 1_565 S
C445 H472 0.930 . S
C446 C444 1.352 1_545 S
C446 C448 1.374 . S
C446 H473 0.931 . S
C447 C448 1.359 . S
C447 C449 1.364 . S
C448 C446 1.374 . S
C448 C447 1.359 . S
C448 H474 0.931 . S
C449 C445 1.389 1_545 S
C449 C447 1.364 . S
C449 H475 0.931 1_545 S
C450 O464 1.256 . S
C450 O465 1.257 . S
C451 O466 1.240 . S
C451 O467 1.240 . S
C452 Gd441 2.818 . S
C452 C453 1.510 . S
C452 O468 1.249 . S
C452 O469 1.252 . S
C453 C452 1.510 . S
C453 C454 1.404 . S
C453 C455 1.352 . S
C454 C453 1.404 . S
C454 C458 1.389 . S
C454 H476 0.930 . S
C455 C453 1.352 . S
C455 C457 1.374 . S
C455 H477 0.931 . S
C456 C457 1.359 . S
C456 C458 1.364 . S
C457 C455 1.374 . S
C457 C456 1.359 . S
C457 H478 0.931 . S
C458 C454 1.389 . S
C458 C456 1.364 . S
C458 H479 0.931 . S
C459 O470 1.256 . S
C459 O471 1.257 . S
O460 Gd440 2.377 . S
O460 C442 1.240 . S
O461 Gd441 2.395 . S
O461 C442 1.240 . S
O462 Gd440 2.448 . S
O462 C443 1.249 . S
O463 Gd440 2.506 . S
O463 C443 1.252 . S
O464 Gd440 2.435 . S
O464 C450 1.256 . S
O465 Gd440 2.717 . S
O465 Gd441 2.327 . S
O465 C450 1.257 . S
O466 Gd441 2.377 . S
O466 C451 1.240 . S
O467 Gd440 2.395 . S
O467 C451 1.240 . S
O468 Gd441 2.448 . S
O468 C452 1.249 . S
O469 Gd441 2.506 . S
O469 C452 1.252 . S
O470 Gd441 2.435 . S
O470 C459 1.256 . S
O471 Gd440 2.327 . S
O471 Gd441 2.717 . S
O471 C459 1.257 . S
H472 C445 0.930 . S
H473 C446 0.931 . S
H474 C448 0.931 . S
H475 C449 0.931 1_565 S
H476 C454 0.930 . S
H477 C455 0.931 . S
H478 C457 0.931 . S
H479 C458 0.931 . S
Gd480 C483 2.818 . S
Gd480 O500 2.377 . S
Gd480 O502 2.448 . S
Gd480 O503 2.506 . S
Gd480 O504 2.435 . S
Gd480 O505 2.717 . S
Gd480 O507 2.395 . S
Gd480 O511 2.327 . S
Gd481 C492 2.818 . S
Gd481 O501 2.395 . S
Gd481 O505 2.327 . S
Gd481 O506 2.377 . S
Gd481 O508 2.448 . S
Gd481 O509 2.506 . S
Gd481 O510 2.435 . S
Gd481 O511 2.717 . S
C482 O500 1.240 . S
C482 O501 1.240 . S
C483 Gd480 2.818 . S
C483 C484 1.510 . S
C483 O502 1.249 . S
C483 O503 1.252 . S
C484 C483 1.510 . S
C484 C485 1.404 . S
C484 C486 1.352 . S
C485 C484 1.404 . S
C485 C489 1.389 . S
C485 H512 0.930 . S
C486 C484 1.352 . S
C486 C488 1.374 . S
C486 H513 0.931 . S
C487 C488 1.359 . S
C487 C489 1.364 . S
C488 C486 1.374 . S
C488 C487 1.359 . S
C488 H514 0.931 . S
C489 C485 1.389 . S
C489 C487 1.364 . S
C489 H515 0.931 . S
C490 O504 1.256 . S
C490 O505 1.257 . S
C491 O506 1.240 . S
C491 O507 1.240 . S
C492 Gd481 2.818 . S
C492 C493 1.510 . S
C492 O508 1.249 . S
C492 O509 1.252 . S
C493 C492 1.510 . S
C493 C494 1.404 . S
C493 C495 1.352 . S
C494 C493 1.404 . S
C494 C498 1.389 . S
C494 H516 0.930 . S
C495 C493 1.352 . S
C495 C497 1.374 . S
C495 H517 0.931 . S
C496 C497 1.359 . S
C496 C498 1.364 . S
C497 C495 1.374 . S
C497 C496 1.359 . S
C497 H518 0.931 . S
C498 C494 1.389 . S
C498 C496 1.364 . S
C498 H519 0.931 . S
C499 O510 1.256 . S
C499 O511 1.257 . S
O500 Gd480 2.377 . S
O500 C482 1.240 . S
O501 Gd481 2.395 . S
O501 C482 1.240 . S
O502 Gd480 2.448 . S
O502 C483 1.249 . S
O503 Gd480 2.506 . S
O503 C483 1.252 . S
O504 Gd480 2.435 . S
O504 C490 1.256 . S
O505 Gd480 2.717 . S
O505 Gd481 2.327 . S
O505 C490 1.257 . S
O506 Gd481 2.377 . S
O506 C491 1.240 . S
O507 Gd480 2.395 . S
O507 C491 1.240 . S
O508 Gd481 2.448 . S
O508 C492 1.249 . S
O509 Gd481 2.506 . S
O509 C492 1.252 . S
O510 Gd481 2.435 . S
O510 C499 1.256 . S
O511 Gd480 2.327 . S
O511 Gd481 2.717 . S
O511 C499 1.257 . S
H512 C485 0.930 . S
H513 C486 0.931 . S
H514 C488 0.931 . S
H515 C489 0.931 . S
H516 C494 0.930 . S
H517 C495 0.931 . S
H518 C497 0.931 . S
H519 C498 0.931 . S
Gd520 C523 2.818 . S
Gd520 O540 2.377 . S
Gd520 O542 2.448 . S
Gd520 O543 2.506 . S
Gd520 O544 2.435 . S
Gd520 O545 2.717 . S
Gd520 O547 2.395 . S
Gd520 O551 2.327 . S
Gd521 C532 2.818 . S
Gd521 O541 2.395 . S
Gd521 O545 2.327 . S
Gd521 O546 2.377 . S
Gd521 O548 2.448 . S
Gd521 O549 2.506 . S
Gd521 O550 2.435 . S
Gd521 O551 2.717 . S
C522 O540 1.240 . S
C522 O541 1.240 . S
C523 Gd520 2.818 . S
C523 C524 1.510 . S
C523 O542 1.249 . S
C523 O543 1.252 . S
C524 C523 1.510 . S
C524 C525 1.404 . S
C524 C526 1.352 . S
C525 C524 1.404 . S
C525 C529 1.389 . S
C525 H552 0.930 . S
C526 C524 1.352 . S
C526 C528 1.374 . S
C526 H553 0.931 . S
C527 C528 1.359 . S
C527 C529 1.364 . S
C528 C526 1.374 . S
C528 C527 1.359 . S
C528 H554 0.931 . S
C529 C525 1.389 . S
C529 C527 1.364 . S
C529 H555 0.931 . S
C530 O544 1.256 . S
C530 O545 1.257 . S
C531 O546 1.240 . S
C531 O547 1.240 . S
C532 Gd521 2.818 . S
C532 C533 1.510 . S
C532 O548 1.249 . S
C532 O549 1.252 . S
C533 C532 1.510 . S
C533 C534 1.404 1_655 S
C533 C535 1.352 1_565 S
C534 C533 1.404 1_455 S
C534 C538 1.389 1_565 S
C534 H556 0.930 . S
C535 C533 1.352 1_545 S
C535 C537 1.374 . S
C535 H557 0.931 . S
C536 C537 1.359 1_455 S
C536 C538 1.364 . S
C537 C535 1.374 . S
C537 C536 1.359 1_655 S
C537 H558 0.931 . S
C538 C534 1.389 1_545 S
C538 C536 1.364 . S
C538 H559 0.931 1_545 S
C539 O550 1.256 . S
C539 O551 1.257 . S
O540 Gd520 2.377 . S
O540 C522 1.240 . S
O541 Gd521 2.395 . S
O541 C522 1.240 . S
O542 Gd520 2.448 . S
O542 C523 1.249 . S
O543 Gd520 2.506 . S
O543 C523 1.252 . S
O544 Gd520 2.435 . S
O544 C530 1.256 . S
O545 Gd520 2.717 . S
O545 Gd521 2.327 . S
O545 C530 1.257 . S
O546 Gd521 2.377 . S
O546 C531 1.240 . S
O547 Gd520 2.395 . S
O547 C531 1.240 . S
O548 Gd521 2.448 . S
O548 C532 1.249 . S
O549 Gd521 2.506 . S
O549 C532 1.252 . S
O550 Gd521 2.435 . S
O550 C539 1.256 . S
O551 Gd520 2.327 . S
O551 Gd521 2.717 . S
O551 C539 1.257 . S
H552 C525 0.930 . S
H553 C526 0.931 . S
H554 C528 0.931 . S
H555 C529 0.931 . S
H556 C534 0.930 . S
H557 C535 0.931 . S
H558 C537 0.931 . S
H559 C538 0.931 1_565 S
Gd560 C563 2.818 . S
Gd560 O580 2.377 . S
Gd560 O582 2.448 . S
Gd560 O583 2.506 . S
Gd560 O584 2.435 . S
Gd560 O585 2.717 . S
Gd560 O587 2.395 . S
Gd560 O591 2.327 . S
Gd561 C572 2.818 . S
Gd561 O581 2.395 . S
Gd561 O585 2.327 . S
Gd561 O586 2.377 . S
Gd561 O588 2.448 . S
Gd561 O589 2.506 . S
Gd561 O590 2.435 . S
Gd561 O591 2.717 . S
C562 O580 1.240 . S
C562 O581 1.240 . S
C563 Gd560 2.818 . S
C563 C564 1.510 . S
C563 O582 1.249 . S
C563 O583 1.252 . S
C564 C563 1.510 . S
C564 C565 1.404 . S
C564 C566 1.352 . S
C565 C564 1.404 . S
C565 C569 1.389 . S
C565 H592 0.930 . S
C566 C564 1.352 . S
C566 C568 1.374 . S
C566 H593 0.931 . S
C567 C568 1.359 . S
C567 C569 1.364 . S
C568 C566 1.374 . S
C568 C567 1.359 . S
C568 H594 0.931 . S
C569 C565 1.389 . S
C569 C567 1.364 . S
C569 H595 0.931 . S
C570 O584 1.256 . S
C570 O585 1.257 . S
C571 O586 1.240 . S
C571 O587 1.240 . S
C572 Gd561 2.818 . S
C572 C573 1.510 . S
C572 O588 1.249 . S
C572 O589 1.252 . S
C573 C572 1.510 . S
C573 C574 1.404 . S
C573 C575 1.352 . S
C574 C573 1.404 . S
C574 C578 1.389 . S
C574 H596 0.930 . S
C575 C573 1.352 . S
C575 C577 1.374 . S
C575 H597 0.931 . S
C576 C577 1.359 . S
C576 C578 1.364 . S
C577 C575 1.374 . S
C577 C576 1.359 . S
C577 H598 0.931 . S
C578 C574 1.389 . S
C578 C576 1.364 . S
C578 H599 0.931 . S
C579 O590 1.256 . S
C579 O591 1.257 . S
O580 Gd560 2.377 . S
O580 C562 1.240 . S
O581 Gd561 2.395 . S
O581 C562 1.240 . S
O582 Gd560 2.448 . S
O582 C563 1.249 . S
O583 Gd560 2.506 . S
O583 C563 1.252 . S
O584 Gd560 2.435 . S
O584 C570 1.256 . S
O585 Gd560 2.717 . S
O585 Gd561 2.327 . S
O585 C570 1.257 . S
O586 Gd561 2.377 . S
O586 C571 1.240 . S
O587 Gd560 2.395 . S
O587 C571 1.240 . S
O588 Gd561 2.448 . S
O588 C572 1.249 . S
O589 Gd561 2.506 . S
O589 C572 1.252 . S
O590 Gd561 2.435 . S
O590 C579 1.256 . S
O591 Gd560 2.327 . S
O591 Gd561 2.717 . S
O591 C579 1.257 . S
H592 C565 0.930 . S
H593 C566 0.931 . S
H594 C568 0.931 . S
H595 C569 0.931 . S
H596 C574 0.930 . S
H597 C575 0.931 . S
H598 C577 0.931 . S
H599 C578 0.931 . S
Gd600 C603 2.818 . S
Gd600 O620 2.377 . S
Gd600 O622 2.448 . S
Gd600 O623 2.506 . S
Gd600 O624 2.435 . S
Gd600 O625 2.717 . S
Gd600 O627 2.395 . S
Gd600 O631 2.327 . S
Gd601 C612 2.818 . S
Gd601 O621 2.395 . S
Gd601 O625 2.327 . S
Gd601 O626 2.377 . S
Gd601 O628 2.448 . S
Gd601 O629 2.506 . S
Gd601 O630 2.435 . S
Gd601 O631 2.717 . S
C602 O620 1.240 . S
C602 O621 1.240 . S
C603 Gd600 2.818 . S
C603 C604 1.510 . S
C603 O622 1.249 . S
C603 O623 1.252 . S
C604 C603 1.510 . S
C604 C605 1.404 . S
C604 C606 1.352 . S
C605 C604 1.404 . S
C605 C609 1.389 . S
C605 H632 0.930 . S
C606 C604 1.352 . S
C606 C608 1.374 . S
C606 H633 0.931 . S
C607 C608 1.359 . S
C607 C609 1.364 . S
C608 C606 1.374 . S
C608 C607 1.359 . S
C608 H634 0.931 . S
C609 C605 1.389 . S
C609 C607 1.364 . S
C609 H635 0.931 . S
C610 O624 1.256 . S
C610 O625 1.257 . S
C611 O626 1.240 . S
C611 O627 1.240 . S
C612 Gd601 2.818 . S
C612 C613 1.510 . S
C612 O628 1.249 . S
C612 O629 1.252 . S
C613 C612 1.510 . S
C613 C614 1.404 . S
C613 C615 1.352 1_545 S
C614 C613 1.404 . S
C614 C618 1.389 1_545 S
C614 H636 0.930 . S
C615 C613 1.352 1_565 S
C615 C617 1.374 . S
C615 H637 0.931 . S
C616 C617 1.359 . S
C616 C618 1.364 . S
C617 C615 1.374 . S
C617 C616 1.359 . S
C617 H638 0.931 . S
C618 C614 1.389 1_565 S
C618 C616 1.364 . S
C618 H639 0.931 1_565 S
C619 O630 1.256 . S
C619 O631 1.257 . S
O620 Gd600 2.377 . S
O620 C602 1.240 . S
O621 Gd601 2.395 . S
O621 C602 1.240 . S
O622 Gd600 2.448 . S
O622 C603 1.249 . S
O623 Gd600 2.506 . S
O623 C603 1.252 . S
O624 Gd600 2.435 . S
O624 C610 1.256 . S
O625 Gd600 2.717 . S
O625 Gd601 2.327 . S
O625 C610 1.257 . S
O626 Gd601 2.377 . S
O626 C611 1.240 . S
O627 Gd600 2.395 . S
O627 C611 1.240 . S
O628 Gd601 2.448 . S
O628 C612 1.249 . S
O629 Gd601 2.506 . S
O629 C612 1.252 . S
O630 Gd601 2.435 . S
O630 C619 1.256 . S
O631 Gd600 2.327 . S
O631 Gd601 2.717 . S
O631 C619 1.257 . S
H632 C605 0.930 . S
H633 C606 0.931 . S
H634 C608 0.931 . S
H635 C609 0.931 . S
H636 C614 0.930 . S
H637 C615 0.931 . S
H638 C617 0.931 . S
H639 C618 0.931 1_545 S
H640 C658 0.951 . S
H641 C660 0.951 . S
H642 C662 0.950 . S
H643 C663 0.950 . S
H644 C665 0.950 . S
H645 C668 0.950 . S
H646 C669 0.950 . S
H647 C671 0.950 . S
H648 C672 0.950 . S
H649 C673 0.951 . S
H650 C675 0.951 . S
H651 C677 0.950 . S
H652 C678 0.950 . S
H653 C680 0.950 . S
H654 C683 0.950 . S
H655 C684 0.950 . S
H656 C686 0.950 . S
H657 C687 0.950 . S
C658 H640 0.951 . S
C658 C659 1.366 . S
C658 C660 1.388 . S
C659 C658 1.366 . S
C659 C663 1.385 . S
C660 H641 0.951 . S
C660 C658 1.388 . S
C660 C661 1.366 . S
C661 C660 1.366 . S
C661 C662 1.414 . S
C661 C664 1.499 . S
C662 H642 0.950 . S
C662 C661 1.414 . S
C662 C663 1.374 . S
C663 H643 0.950 . S
C663 C659 1.385 . S
C663 C662 1.374 . S
C664 C661 1.499 . S
C664 C665 1.373 . S
C664 C666 1.389 . S
C665 H644 0.950 . S
C665 C664 1.373 . S
C665 C681 1.377 . S
C666 C664 1.389 . S
C666 C667 1.524 . S
C666 C680 1.377 . S
C667 C666 1.524 . S
C667 C668 1.397 . S
C667 C672 1.363 . S
C668 H645 0.950 . S
C668 C667 1.397 . S
C668 C669 1.334 . S
C669 H646 0.950 . S
C669 C668 1.334 . S
C669 C670 1.287 . S
C670 C669 1.287 . S
C670 C671 1.524 . S
C670 H689 0.913 . S
C671 H647 0.950 . S
C671 C670 1.524 . S
C671 C672 1.415 . S
C672 H648 0.950 . S
C672 C667 1.363 . S
C672 C671 1.415 . S
C673 H649 0.951 . S
C673 C674 1.366 . S
C673 C675 1.388 . S
C674 C673 1.366 . S
C674 C678 1.385 . S
C675 H650 0.951 . S
C675 C673 1.388 . S
C675 C676 1.366 . S
C676 C675 1.366 . S
C676 C677 1.414 . S
C676 C679 1.499 . S
C677 H651 0.950 . S
C677 C676 1.414 . S
C677 C678 1.374 . S
C678 H652 0.950 . S
C678 C674 1.385 . S
C678 C677 1.374 . S
C679 C676 1.499 . S
C679 C680 1.373 . S
C679 C681 1.389 . S
C680 H653 0.950 . S
C680 C666 1.377 . S
C680 C679 1.373 . S
C681 C665 1.377 . S
C681 C679 1.389 . S
C681 C682 1.524 . S
C682 C681 1.524 . S
C682 C683 1.397 . S
C682 C687 1.363 . S
C683 H654 0.950 . S
C683 C682 1.397 . S
C683 C684 1.334 . S
C684 H655 0.950 . S
C684 C683 1.334 . S
C684 C685 1.287 . S
C685 C684 1.287 . S
C685 C686 1.524 . S
C685 H688 0.999 . S
C686 H656 0.950 . S
C686 C685 1.524 . S
C686 C687 1.415 . S
C687 H657 0.950 . S
C687 C682 1.363 . S
C687 C686 1.415 . S
H688 C685 0.999 . S
H689 C670 0.913 . S
H690 C708 0.951 . S
H691 C710 0.951 . S
H692 C712 0.950 . S
H693 C713 0.950 . S
H694 C715 0.950 . S
H695 C718 0.950 . S
H696 C719 0.950 . S
H697 C721 0.950 . S
H698 C722 0.950 . S
H699 C723 0.951 . S
H700 C725 0.951 . S
H701 C727 0.950 . S
H702 C728 0.950 . S
H703 C730 0.950 . S
H704 C733 0.950 . S
H705 C734 0.950 . S
H706 C736 0.950 . S
H707 C737 0.950 . S
C708 H690 0.951 . S
C708 C709 1.366 . S
C708 C710 1.388 . S
C709 C708 1.366 . S
C709 C713 1.385 . S
C710 H691 0.951 . S
C710 C708 1.388 . S
C710 C711 1.366 . S
C711 C710 1.366 . S
C711 C712 1.414 . S
C711 C714 1.499 . S
C712 H692 0.950 . S
C712 C711 1.414 . S
C712 C713 1.374 . S
C713 H693 0.950 . S
C713 C709 1.385 . S
C713 C712 1.374 . S
C714 C711 1.499 . S
C714 C715 1.373 . S
C714 C716 1.389 . S
C715 H694 0.950 . S
C715 C714 1.373 . S
C715 C731 1.377 . S
C716 C714 1.389 . S
C716 C717 1.524 . S
C716 C730 1.377 . S
C717 C716 1.524 . S
C717 C718 1.397 . S
C717 C722 1.363 . S
C718 H695 0.950 . S
C718 C717 1.397 . S
C718 C719 1.334 . S
C719 H696 0.950 . S
C719 C718 1.334 . S
C719 C720 1.287 . S
C720 C719 1.287 . S
C720 C721 1.524 . S
C720 H739 0.913 . S
C721 H697 0.950 . S
C721 C720 1.524 . S
C721 C722 1.415 . S
C722 H698 0.950 . S
C722 C717 1.363 . S
C722 C721 1.415 . S
C723 H699 0.951 . S
C723 C724 1.366 . S
C723 C725 1.388 . S
C724 C723 1.366 . S
C724 C728 1.385 . S
C725 H700 0.951 . S
C725 C723 1.388 . S
C725 C726 1.366 . S
C726 C725 1.366 . S
C726 C727 1.414 . S
C726 C729 1.499 . S
C727 H701 0.950 . S
C727 C726 1.414 . S
C727 C728 1.374 . S
C728 H702 0.950 . S
C728 C724 1.385 . S
C728 C727 1.374 . S
C729 C726 1.499 . S
C729 C730 1.373 . S
C729 C731 1.389 . S
C730 H703 0.950 . S
C730 C716 1.377 . S
C730 C729 1.373 . S
C731 C715 1.377 . S
C731 C729 1.389 . S
C731 C732 1.524 . S
C732 C731 1.524 . S
C732 C733 1.397 . S
C732 C737 1.363 . S
C733 H704 0.950 . S
C733 C732 1.397 . S
C733 C734 1.334 . S
C734 H705 0.950 . S
C734 C733 1.334 . S
C734 C735 1.287 . S
C735 C734 1.287 . S
C735 C736 1.524 . S
C735 H738 0.999 . S
C736 H706 0.950 . S
C736 C735 1.524 . S
C736 C737 1.415 . S
C737 H707 0.950 . S
C737 C732 1.363 . S
C737 C736 1.415 . S
H738 C735 0.999 . S
H739 C720 0.913 . S
H740 C758 0.951 . S
H741 C760 0.951 . S
H742 C762 0.950 . S
H743 C763 0.950 . S
H744 C765 0.950 . S
H745 C768 0.950 . S
H746 C769 0.950 . S
H747 C771 0.950 . S
H748 C772 0.950 . S
H749 C773 0.951 . S
H750 C775 0.951 . S
H751 C777 0.950 . S
H752 C778 0.950 . S
H753 C780 0.950 . S
H754 C783 0.950 . S
H755 C784 0.950 . S
H756 C786 0.950 . S
H757 C787 0.950 . S
C758 H740 0.951 . S
C758 C759 1.366 . S
C758 C760 1.388 . S
C759 C758 1.366 . S
C759 C763 1.385 . S
C760 H741 0.951 . S
C760 C758 1.388 . S
C760 C761 1.366 . S
C761 C760 1.366 . S
C761 C762 1.414 . S
C761 C764 1.499 . S
C762 H742 0.950 . S
C762 C761 1.414 . S
C762 C763 1.374 . S
C763 H743 0.950 . S
C763 C759 1.385 . S
C763 C762 1.374 . S
C764 C761 1.499 . S
C764 C765 1.373 . S
C764 C766 1.423 . S
C765 H744 0.950 . S
C765 C764 1.373 . S
C765 C781 1.342 1_455 S
C766 C764 1.423 . S
C766 C767 1.524 . S
C766 C780 1.342 1_455 S
C767 C766 1.524 . S
C767 C768 1.399 . S
C767 C772 1.361 1_455 S
C768 H745 0.950 . S
C768 C767 1.399 . S
C768 C769 1.334 . S
C769 H746 0.950 . S
C769 C768 1.334 . S
C769 C770 1.284 . S
C770 C769 1.284 . S
C770 C771 1.527 1_455 S
C770 H789 0.913 . S
C771 H747 0.950 . S
C771 C770 1.527 1_655 S
C771 C772 1.415 . S
C772 H748 0.950 . S
C772 C767 1.361 1_655 S
C772 C771 1.415 . S
C773 H749 0.951 . S
C773 C774 1.366 . S
C773 C775 1.388 . S
C774 C773 1.366 . S
C774 C778 1.385 . S
C775 H750 0.951 . S
C775 C773 1.388 . S
C775 C776 1.366 . S
C776 C775 1.366 . S
C776 C777 1.414 . S
C776 C779 1.499 . S
C777 H751 0.950 . S
C777 C776 1.414 . S
C777 C778 1.374 . S
C778 H752 0.950 . S
C778 C774 1.385 . S
C778 C777 1.374 . S
C779 C776 1.499 . S
C779 C780 1.373 . S
C779 C781 1.423 . S
C780 H753 0.950 . S
C780 C766 1.342 1_655 S
C780 C779 1.373 . S
C781 C765 1.342 1_655 S
C781 C779 1.423 . S
C781 C782 1.524 . S
C782 C781 1.524 . S
C782 C783 1.399 . S
C782 C787 1.361 1_655 S
C783 H754 0.950 . S
C783 C782 1.399 . S
C783 C784 1.334 . S
C784 H755 0.950 . S
C784 C783 1.334 . S
C784 C785 1.284 . S
C785 C784 1.284 . S
C785 C786 1.527 1_655 S
C785 H788 0.999 1_655 S
C786 H756 0.950 . S
C786 C785 1.527 1_455 S
C786 C787 1.415 . S
C787 H757 0.950 . S
C787 C782 1.361 1_455 S
C787 C786 1.415 . S
H788 C785 0.999 1_455 S
H789 C770 0.913 . S
H790 C808 0.951 . S
H791 C810 0.951 . S
H792 C812 0.950 . S
H793 C813 0.950 . S
H794 C815 0.950 . S
H795 C818 0.950 . S
H796 C819 0.950 . S
H797 C821 0.950 . S
H798 C822 0.950 . S
H799 C823 0.951 . S
H800 C825 0.951 . S
H801 C827 0.950 . S
H802 C828 0.950 . S
H803 C830 0.950 . S
H804 C833 0.950 . S
H805 C834 0.950 . S
H806 C836 0.950 . S
H807 C837 0.950 . S
C808 H790 0.951 . S
C808 C809 1.366 . S
C808 C810 1.388 . S
C809 C808 1.366 . S
C809 C813 1.385 . S
C810 H791 0.951 . S
C810 C808 1.388 . S
C810 C811 1.366 . S
C811 C810 1.366 . S
C811 C812 1.414 . S
C811 C814 1.499 . S
C812 H792 0.950 . S
C812 C811 1.414 . S
C812 C813 1.374 . S
C813 H793 0.950 . S
C813 C809 1.385 . S
C813 C812 1.374 . S
C814 C811 1.499 . S
C814 C815 1.373 1_455 S
C814 C816 1.389 . S
C815 H794 0.950 . S
C815 C814 1.373 1_655 S
C815 C831 1.377 . S
C816 C814 1.389 . S
C816 C817 1.524 . S
C816 C830 1.377 . S
C817 C816 1.524 . S
C817 C818 1.397 . S
C817 C822 1.363 . S
C818 H795 0.950 . S
C818 C817 1.397 . S
C818 C819 1.334 . S
C819 H796 0.950 . S
C819 C818 1.334 . S
C819 C820 1.287 . S
C820 C819 1.287 . S
C820 C821 1.524 . S
C820 H839 0.913 . S
C821 H797 0.950 . S
C821 C820 1.524 . S
C821 C822 1.415 . S
C822 H798 0.950 . S
C822 C817 1.363 . S
C822 C821 1.415 . S
C823 H799 0.951 . S
C823 C824 1.366 . S
C823 C825 1.388 . S
C824 C823 1.366 . S
C824 C828 1.385 . S
C825 H800 0.951 . S
C825 C823 1.388 . S
C825 C826 1.366 . S
C826 C825 1.366 . S
C826 C827 1.414 . S
C826 C829 1.499 . S
C827 H801 0.950 . S
C827 C826 1.414 . S
C827 C828 1.374 . S
C828 H802 0.950 . S
C828 C824 1.385 . S
C828 C827 1.374 . S
C829 C826 1.499 . S
C829 C830 1.373 1_655 S
C829 C831 1.389 . S
C830 H803 0.950 . S
C830 C816 1.377 . S
C830 C829 1.373 1_455 S
C831 C815 1.377 . S
C831 C829 1.389 . S
C831 C832 1.524 . S
C832 C831 1.524 . S
C832 C833 1.397 . S
C832 C837 1.363 . S
C833 H804 0.950 . S
C833 C832 1.397 . S
C833 C834 1.334 . S
C834 H805 0.950 . S
C834 C833 1.334 . S
C834 C835 1.287 . S
C835 C834 1.287 . S
C835 C836 1.524 . S
C835 H838 0.999 . S
C836 H806 0.950 . S
C836 C835 1.524 . S
C836 C837 1.415 . S
C837 H807 0.950 . S
C837 C832 1.363 . S
C837 C836 1.415 . S
H838 C835 0.999 . S
H839 C820 0.913 . S
H840 C858 0.951 . S
H841 C860 0.951 . S
H842 C862 0.950 . S
H843 C863 0.950 . S
H844 C865 0.950 . S
H845 C868 0.950 . S
H846 C869 0.950 . S
H847 C871 0.950 . S
H848 C872 0.950 . S
H849 C873 0.951 . S
H850 C875 0.951 . S
H851 C877 0.950 . S
H852 C878 0.950 . S
H853 C880 0.950 . S
H854 C883 0.950 . S
H855 C884 0.950 . S
H856 C886 0.950 . S
H857 C887 0.950 . S
C858 H840 0.951 . S
C858 C859 1.366 . S
C858 C860 1.388 . S
C859 C858 1.366 . S
C859 C863 1.385 . S
C860 H841 0.951 . S
C860 C858 1.388 . S
C860 C861 1.366 . S
C861 C860 1.366 . S
C861 C862 1.414 . S
C861 C864 1.499 . S
C862 H842 0.950 . S
C862 C861 1.414 . S
C862 C863 1.374 . S
C863 H843 0.950 . S
C863 C859 1.385 . S
C863 C862 1.374 . S
C864 C861 1.499 . S
C864 C865 1.373 . S
C864 C866 1.389 . S
C865 H844 0.950 . S
C865 C864 1.373 . S
C865 C881 1.377 . S
C866 C864 1.389 . S
C866 C867 1.524 . S
C866 C880 1.377 . S
C867 C866 1.524 . S
C867 C868 1.397 . S
C867 C872 1.363 . S
C868 H845 0.950 . S
C868 C867 1.397 . S
C868 C869 1.334 . S
C869 H846 0.950 . S
C869 C868 1.334 . S
C869 C870 1.287 . S
C870 C869 1.287 . S
C870 C871 1.524 . S
C870 H889 0.913 . S
C871 H847 0.950 . S
C871 C870 1.524 . S
C871 C872 1.415 . S
C872 H848 0.950 . S
C872 C867 1.363 . S
C872 C871 1.415 . S
C873 H849 0.951 . S
C873 C874 1.366 . S
C873 C875 1.388 . S
C874 C873 1.366 . S
C874 C878 1.385 . S
C875 H850 0.951 . S
C875 C873 1.388 . S
C875 C876 1.366 . S
C876 C875 1.366 . S
C876 C877 1.414 . S
C876 C879 1.499 . S
C877 H851 0.950 . S
C877 C876 1.414 . S
C877 C878 1.374 . S
C878 H852 0.950 . S
C878 C874 1.385 . S
C878 C877 1.374 . S
C879 C876 1.499 . S
C879 C880 1.373 . S
C879 C881 1.389 . S
C880 H853 0.950 . S
C880 C866 1.377 . S
C880 C879 1.373 . S
C881 C865 1.377 . S
C881 C879 1.389 . S
C881 C882 1.524 . S
C882 C881 1.524 . S
C882 C883 1.397 . S
C882 C887 1.363 . S
C883 H854 0.950 . S
C883 C882 1.397 . S
C883 C884 1.334 . S
C884 H855 0.950 . S
C884 C883 1.334 . S
C884 C885 1.287 . S
C885 C884 1.287 . S
C885 C886 1.524 . S
C885 H888 0.999 . S
C886 H856 0.950 . S
C886 C885 1.524 . S
C886 C887 1.415 . S
C887 H857 0.950 . S
C887 C882 1.363 . S
C887 C886 1.415 . S
H888 C885 0.999 . S
H889 C870 0.913 . S
H890 C908 0.951 . S
H891 C910 0.951 . S
H892 C912 0.950 . S
H893 C913 0.950 . S
H894 C915 0.950 . S
H895 C918 0.950 . S
H896 C919 0.950 . S
H897 C921 0.950 . S
H898 C922 0.950 . S
H899 C923 0.951 . S
H900 C925 0.951 . S
H901 C927 0.950 . S
H902 C928 0.950 . S
H903 C930 0.950 . S
H904 C933 0.950 . S
H905 C934 0.950 . S
H906 C936 0.950 . S
H907 C937 0.950 . S
C908 H890 0.951 . S
C908 C909 1.366 . S
C908 C910 1.388 . S
C909 C908 1.366 . S
C909 C913 1.385 . S
C910 H891 0.951 . S
C910 C908 1.388 . S
C910 C911 1.366 . S
C911 C910 1.366 . S
C911 C912 1.414 . S
C911 C914 1.499 . S
C912 H892 0.950 . S
C912 C911 1.414 . S
C912 C913 1.374 . S
C913 H893 0.950 . S
C913 C909 1.385 . S
C913 C912 1.374 . S
C914 C911 1.499 . S
C914 C915 1.373 . S
C914 C916 1.389 . S
C915 H894 0.950 . S
C915 C914 1.373 . S
C915 C931 1.377 . S
C916 C914 1.389 . S
C916 C917 1.524 . S
C916 C930 1.377 . S
C917 C916 1.524 . S
C917 C918 1.397 . S
C917 C922 1.363 . S
C918 H895 0.950 . S
C918 C917 1.397 . S
C918 C919 1.334 . S
C919 H896 0.950 . S
C919 C918 1.334 . S
C919 C920 1.287 . S
C920 C919 1.287 . S
C920 C921 1.524 . S
C920 H939 0.913 . S
C921 H897 0.950 . S
C921 C920 1.524 . S
C921 C922 1.415 . S
C922 H898 0.950 . S
C922 C917 1.363 . S
C922 C921 1.415 . S
C923 H899 0.951 . S
C923 C924 1.366 . S
C923 C925 1.388 . S
C924 C923 1.366 . S
C924 C928 1.385 . S
C925 H900 0.951 . S
C925 C923 1.388 . S
C925 C926 1.366 . S
C926 C925 1.366 . S
C926 C927 1.414 . S
C926 C929 1.499 . S
C927 H901 0.950 . S
C927 C926 1.414 . S
C927 C928 1.374 . S
C928 H902 0.950 . S
C928 C924 1.385 . S
C928 C927 1.374 . S
C929 C926 1.499 . S
C929 C930 1.373 . S
C929 C931 1.389 . S
C930 H903 0.950 . S
C930 C916 1.377 . S
C930 C929 1.373 . S
C931 C915 1.377 . S
C931 C929 1.389 . S
C931 C932 1.524 . S
C932 C931 1.524 . S
C932 C933 1.397 . S
C932 C937 1.363 . S
C933 H904 0.950 . S
C933 C932 1.397 . S
C933 C934 1.334 . S
C934 H905 0.950 . S
C934 C933 1.334 . S
C934 C935 1.287 . S
C935 C934 1.287 . S
C935 C936 1.524 . S
C935 H938 0.999 . S
C936 H906 0.950 . S
C936 C935 1.524 . S
C936 C937 1.415 . S
C937 H907 0.950 . S
C937 C932 1.363 . S
C937 C936 1.415 . S
H938 C935 0.999 . S
H939 C920 0.913 . S
H940 C958 0.951 . S
H941 C960 0.951 . S
H942 C962 0.950 . S
H943 C963 0.950 . S
H944 C965 0.950 . S
H945 C968 0.950 . S
H946 C969 0.950 . S
H947 C971 0.950 . S
H948 C972 0.950 . S
H949 C973 0.951 . S
H950 C975 0.951 . S
H951 C977 0.950 . S
H952 C978 0.950 . S
H953 C980 0.950 . S
H954 C983 0.950 . S
H955 C984 0.950 . S
H956 C986 0.950 . S
H957 C987 0.950 . S
C958 H940 0.951 . S
C958 C959 1.366 . S
C958 C960 1.388 . S
C959 C958 1.366 . S
C959 C963 1.385 . S
C960 H941 0.951 . S
C960 C958 1.388 . S
C960 C961 1.366 . S
C961 C960 1.366 . S
C961 C962 1.414 . S
C961 C964 1.499 . S
C962 H942 0.950 . S
C962 C961 1.414 . S
C962 C963 1.374 . S
C963 H943 0.950 . S
C963 C959 1.385 . S
C963 C962 1.374 . S
C964 C961 1.499 . S
C964 C965 1.373 . S
C964 C966 1.389 . S
C965 H944 0.950 . S
C965 C964 1.373 . S
C965 C981 1.377 1_455 S
C966 C964 1.389 . S
C966 C967 1.524 . S
C966 C980 1.377 1_455 S
C967 C966 1.524 . S
C967 C968 1.397 . S
C967 C972 1.363 1_455 S
C968 H945 0.950 . S
C968 C967 1.397 . S
C968 C969 1.334 . S
C969 H946 0.950 . S
C969 C968 1.334 . S
C969 C970 1.287 . S
C970 C969 1.287 . S
C970 C971 1.524 1_455 S
C970 H989 0.913 . S
C971 H947 0.950 . S
C971 C970 1.524 1_655 S
C971 C972 1.415 . S
C972 H948 0.950 . S
C972 C967 1.363 1_655 S
C972 C971 1.415 . S
C973 H949 0.951 . S
C973 C974 1.366 . S
C973 C975 1.388 . S
C974 C973 1.366 . S
C974 C978 1.385 . S
C975 H950 0.951 . S
C975 C973 1.388 . S
C975 C976 1.366 . S
C976 C975 1.366 . S
C976 C977 1.414 . S
C976 C979 1.499 . S
C977 H951 0.950 . S
C977 C976 1.414 . S
C977 C978 1.374 . S
C978 H952 0.950 . S
C978 C974 1.385 . S
C978 C977 1.374 . S
C979 C976 1.499 . S
C979 C980 1.373 . S
C979 C981 1.389 . S
C980 H953 0.950 . S
C980 C966 1.377 1_655 S
C980 C979 1.373 . S
C981 C965 1.377 1_655 S
C981 C979 1.389 . S
C981 C982 1.524 . S
C982 C981 1.524 . S
C982 C983 1.397 . S
C982 C987 1.363 1_655 S
C983 H954 0.950 . S
C983 C982 1.397 . S
C983 C984 1.334 . S
C984 H955 0.950 . S
C984 C983 1.334 . S
C984 C985 1.287 . S
C985 C984 1.287 . S
C985 C986 1.524 1_655 S
C985 H988 0.999 . S
C986 H956 0.950 . S
C986 C985 1.524 1_455 S
C986 C987 1.415 . S
C987 H957 0.950 . S
C987 C982 1.363 1_455 S
C987 C986 1.415 . S
H988 C985 0.999 . S
H989 C970 0.913 . S
H990 C1008 0.951 . S
H991 C1010 0.951 1_655 S
H992 C1012 0.950 . S
H993 C1013 0.950 . S
H994 C1015 0.950 . S
H995 C1018 0.950 1_455 S
H996 C1019 0.950 . S
H997 C1021 0.950 . S
H998 C1022 0.950 . S
H999 C1023 0.951 . S
H1000 C1025 0.951 1_455 S
H1001 C1027 0.950 . S
H1002 C1028 0.950 . S
H1003 C1030 0.950 . S
H1004 C1033 0.950 1_655 S
H1005 C1034 0.950 . S
H1006 C1036 0.950 . S
H1007 C1037 0.950 . S
C1008 H990 0.951 . S
C1008 C1009 1.366 . S
C1008 C1010 1.388 . S
C1009 C1008 1.366 . S
C1009 C1013 1.385 . S
C1010 H991 0.951 1_455 S
C1010 C1008 1.388 . S
C1010 C1011 1.366 . S
C1011 C1010 1.366 . S
C1011 C1012 1.414 . S
C1011 C1014 1.499 . S
C1012 H992 0.950 . S
C1012 C1011 1.414 . S
C1012 C1013 1.374 . S
C1013 H993 0.950 . S
C1013 C1009 1.385 . S
C1013 C1012 1.374 . S
C1014 C1011 1.499 . S
C1014 C1015 1.373 . S
C1014 C1016 1.389 1_455 S
C1015 H994 0.950 . S
C1015 C1014 1.373 . S
C1015 C1031 1.377 . S
C1016 C1014 1.389 1_655 S
C1016 C1017 1.524 . S
C1016 C1030 1.377 . S
C1017 C1016 1.524 . S
C1017 C1018 1.397 . S
C1017 C1022 1.363 . S
C1018 H995 0.950 1_655 S
C1018 C1017 1.397 . S
C1018 C1019 1.334 . S
C1019 H996 0.950 . S
C1019 C1018 1.334 . S
C1019 C1020 1.287 . S
C1020 C1019 1.287 . S
C1020 C1021 1.524 . S
C1020 H1039 0.913 . S
C1021 H997 0.950 . S
C1021 C1020 1.524 . S
C1021 C1022 1.415 . S
C1022 H998 0.950 . S
C1022 C1017 1.363 . S
C1022 C1021 1.415 . S
C1023 H999 0.951 . S
C1023 C1024 1.366 . S
C1023 C1025 1.388 . S
C1024 C1023 1.366 . S
C1024 C1028 1.385 . S
C1025 H1000 0.951 1_655 S
C1025 C1023 1.388 . S
C1025 C1026 1.366 . S
C1026 C1025 1.366 . S
C1026 C1027 1.414 . S
C1026 C1029 1.499 . S
C1027 H1001 0.950 . S
C1027 C1026 1.414 . S
C1027 C1028 1.374 . S
C1028 H1002 0.950 . S
C1028 C1024 1.385 . S
C1028 C1027 1.374 . S
C1029 C1026 1.499 . S
C1029 C1030 1.373 . S
C1029 C1031 1.389 1_655 S
C1030 H1003 0.950 . S
C1030 C1016 1.377 . S
C1030 C1029 1.373 . S
C1031 C1015 1.377 . S
C1031 C1029 1.389 1_455 S
C1031 C1032 1.524 . S
C1032 C1031 1.524 . S
C1032 C1033 1.397 . S
C1032 C1037 1.363 . S
C1033 H1004 0.950 1_455 S
C1033 C1032 1.397 . S
C1033 C1034 1.334 . S
C1034 H1005 0.950 . S
C1034 C1033 1.334 . S
C1034 C1035 1.287 . S
C1035 C1034 1.287 . S
C1035 C1036 1.524 . S
C1035 H1038 0.999 . S
C1036 H1006 0.950 . S
C1036 C1035 1.524 . S
C1036 C1037 1.415 . S
C1037 H1007 0.950 . S
C1037 C1032 1.363 . S
C1037 C1036 1.415 . S
H1038 C1035 0.999 . S
H1039 C1020 0.913 . S
H1040 C1058 0.951 . S
H1041 C1060 0.951 . S
H1042 C1062 0.964 1_556 S
H1043 C1063 0.950 1_565 S
H1044 C1065 0.950 . S
H1045 C1068 0.950 1_556 S
H1046 C1069 0.950 . S
H1047 C1071 0.950 . S
H1048 C1072 0.950 . S
H1049 C1073 0.951 . S
H1050 C1075 0.951 . S
H1051 C1077 0.964 1_554 S
H1052 C1078 0.950 1_545 S
H1053 C1080 0.950 . S
H1054 C1083 0.950 1_554 S
H1055 C1084 0.950 . S
H1056 C1086 0.950 . S
H1057 C1087 0.950 . S
C1058 H1040 0.951 . S
C1058 C1059 1.366 . S
C1058 C1060 1.388 . S
C1059 C1058 1.366 . S
C1059 C1063 1.385 . S
C1060 H1041 0.951 . S
C1060 C1058 1.388 . S
C1060 C1061 1.366 . S
C1061 C1060 1.366 . S
C1061 C1062 1.405 1_545 S
C1061 C1064 1.499 . S
C1062 H1042 0.964 1_554 S
C1062 C1061 1.405 1_565 S
C1062 C1063 1.371 1_565 S
C1063 H1043 0.950 1_545 S
C1063 C1059 1.385 . S
C1063 C1062 1.371 1_545 S
C1064 C1061 1.499 . S
C1064 C1065 1.373 1_544 S
C1064 C1066 1.389 . S
C1065 H1044 0.950 . S
C1065 C1064 1.373 1_566 S
C1065 C1081 1.377 . S
C1066 C1064 1.389 . S
C1066 C1067 1.524 . S
C1066 C1080 1.377 . S
C1067 C1066 1.524 . S
C1067 C1068 1.397 . S
C1067 C1072 1.363 . S
C1068 H1045 0.950 1_554 S
C1068 C1067 1.397 . S
C1068 C1069 1.334 . S
C1069 H1046 0.950 . S
C1069 C1068 1.334 . S
C1069 C1070 1.287 . S
C1070 C1069 1.287 . S
C1070 C1071 1.524 . S
C1070 H1089 0.913 . S
C1071 H1047 0.950 . S
C1071 C1070 1.524 . S
C1071 C1072 1.415 . S
C1072 H1048 0.950 . S
C1072 C1067 1.363 . S
C1072 C1071 1.415 . S
C1073 H1049 0.951 . S
C1073 C1074 1.366 . S
C1073 C1075 1.388 . S
C1074 C1073 1.366 . S
C1074 C1078 1.385 . S
C1075 H1050 0.951 . S
C1075 C1073 1.388 . S
C1075 C1076 1.366 . S
C1076 C1075 1.366 . S
C1076 C1077 1.405 1_565 S
C1076 C1079 1.499 . S
C1077 H1051 0.964 1_556 S
C1077 C1076 1.405 1_545 S
C1077 C1078 1.371 1_545 S
C1078 H1052 0.950 1_565 S
C1078 C1074 1.385 . S
C1078 C1077 1.371 1_565 S
C1079 C1076 1.499 . S
C1079 C1080 1.373 1_566 S
C1079 C1081 1.389 . S
C1080 H1053 0.950 . S
C1080 C1066 1.377 . S
C1080 C1079 1.373 1_544 S
C1081 C1065 1.377 . S
C1081 C1079 1.389 . S
C1081 C1082 1.524 . S
C1082 C1081 1.524 . S
C1082 C1083 1.397 . S
C1082 C1087 1.363 . S
C1083 H1054 0.950 1_556 S
C1083 C1082 1.397 . S
C1083 C1084 1.334 . S
C1084 H1055 0.950 . S
C1084 C1083 1.334 . S
C1084 C1085 1.287 . S
C1085 C1084 1.287 . S
C1085 C1086 1.524 . S
C1085 H1088 0.999 . S
C1086 H1056 0.950 . S
C1086 C1085 1.524 . S
C1086 C1087 1.415 . S
C1087 H1057 0.950 . S
C1087 C1082 1.363 . S
C1087 C1086 1.415 . S
H1088 C1085 0.999 . S
H1089 C1070 0.913 . S
H1090 C1108 0.951 . S
H1091 C1110 0.951 . S
H1092 C1112 0.950 . S
H1093 C1113 0.950 . S
H1094 C1115 0.950 . S
H1095 C1118 0.950 . S
H1096 C1119 0.950 . S
H1097 C1121 0.950 . S
H1098 C1122 0.950 . S
H1099 C1123 0.951 . S
H1100 C1125 0.951 . S
H1101 C1127 0.950 . S
H1102 C1128 0.950 . S
H1103 C1130 0.950 . S
H1104 C1133 0.950 . S
H1105 C1134 0.950 . S
H1106 C1136 0.950 . S
H1107 C1137 0.950 . S
C1108 H1090 0.951 . S
C1108 C1109 1.366 . S
C1108 C1110 1.388 . S
C1109 C1108 1.366 . S
C1109 C1113 1.385 . S
C1110 H1091 0.951 . S
C1110 C1108 1.388 . S
C1110 C1111 1.366 . S
C1111 C1110 1.366 . S
C1111 C1112 1.414 . S
C1111 C1114 1.499 . S
C1112 H1092 0.950 . S
C1112 C1111 1.414 . S
C1112 C1113 1.374 . S
C1113 H1093 0.950 . S
C1113 C1109 1.385 . S
C1113 C1112 1.374 . S
C1114 C1111 1.499 . S
C1114 C1115 1.373 . S
C1114 C1116 1.389 . S
C1115 H1094 0.950 . S
C1115 C1114 1.373 . S
C1115 C1131 1.377 . S
C1116 C1114 1.389 . S
C1116 C1117 1.524 . S
C1116 C1130 1.377 . S
C1117 C1116 1.524 . S
C1117 C1118 1.397 . S
C1117 C1122 1.363 . S
C1118 H1095 0.950 . S
C1118 C1117 1.397 . S
C1118 C1119 1.334 . S
C1119 H1096 0.950 . S
C1119 C1118 1.334 . S
C1119 C1120 1.287 . S
C1120 C1119 1.287 . S
C1120 C1121 1.524 . S
C1120 H1139 0.913 . S
C1121 H1097 0.950 . S
C1121 C1120 1.524 . S
C1121 C1122 1.415 . S
C1122 H1098 0.950 . S
C1122 C1117 1.363 . S
C1122 C1121 1.415 . S
C1123 H1099 0.951 . S
C1123 C1124 1.366 . S
C1123 C1125 1.388 . S
C1124 C1123 1.366 . S
C1124 C1128 1.385 . S
C1125 H1100 0.951 . S
C1125 C1123 1.388 . S
C1125 C1126 1.366 . S
C1126 C1125 1.366 . S
C1126 C1127 1.414 . S
C1126 C1129 1.499 . S
C1127 H1101 0.950 . S
C1127 C1126 1.414 . S
C1127 C1128 1.374 . S
C1128 H1102 0.950 . S
C1128 C1124 1.385 . S
C1128 C1127 1.374 . S
C1129 C1126 1.499 . S
C1129 C1130 1.373 . S
C1129 C1131 1.389 . S
C1130 H1103 0.950 . S
C1130 C1116 1.377 . S
C1130 C1129 1.373 . S
C1131 C1115 1.377 . S
C1131 C1129 1.389 . S
C1131 C1132 1.524 . S
C1132 C1131 1.524 . S
C1132 C1133 1.397 . S
C1132 C1137 1.363 . S
C1133 H1104 0.950 . S
C1133 C1132 1.397 . S
C1133 C1134 1.334 . S
C1134 H1105 0.950 . S
C1134 C1133 1.334 . S
C1134 C1135 1.287 . S
C1135 C1134 1.287 . S
C1135 C1136 1.524 . S
C1135 H1138 0.999 . S
C1136 H1106 0.950 . S
C1136 C1135 1.524 . S
C1136 C1137 1.415 . S
C1137 H1107 0.950 . S
C1137 C1132 1.363 . S
C1137 C1136 1.415 . S
H1138 C1135 0.999 . S
H1139 C1120 0.913 . S
H1140 C1158 0.951 1_545 S
H1141 C1160 0.953 . S
H1142 C1162 0.950 . S
H1143 C1163 0.950 . S
H1144 C1165 0.950 . S
H1145 C1168 0.950 . S
H1146 C1169 0.950 . S
H1147 C1171 0.950 . S
H1148 C1172 0.950 . S
H1149 C1173 0.951 1_565 S
H1150 C1175 0.953 . S
H1151 C1177 0.950 . S
H1152 C1178 0.950 . S
H1153 C1180 0.950 . S
H1154 C1183 0.950 . S
H1155 C1184 0.950 . S
H1156 C1186 0.950 . S
H1157 C1187 0.950 . S
C1158 H1140 0.951 1_565 S
C1158 C1159 1.366 . S
C1158 C1160 1.387 1_565 S
C1159 C1158 1.366 . S
C1159 C1163 1.385 . S
C1160 H1141 0.953 . S
C1160 C1158 1.387 1_545 S
C1160 C1161 1.365 1_545 S
C1161 C1160 1.365 1_565 S
C1161 C1162 1.414 . S
C1161 C1164 1.499 . S
C1162 H1142 0.950 . S
C1162 C1161 1.414 . S
C1162 C1163 1.374 . S
C1163 H1143 0.950 . S
C1163 C1159 1.385 . S
C1163 C1162 1.374 . S
C1164 C1161 1.499 . S
C1164 C1165 1.373 . S
C1164 C1166 1.389 1_565 S
C1165 H1144 0.950 . S
C1165 C1164 1.373 . S
C1165 C1181 1.377 1_455 S
C1166 C1164 1.389 1_545 S
C1166 C1167 1.524 . S
C1166 C1180 1.377 1_455 S
C1167 C1166 1.524 . S
C1167 C1168 1.397 . S
C1167 C1172 1.363 . S
C1168 H1145 0.950 . S
C1168 C1167 1.397 . S
C1168 C1169 1.334 . S
C1169 H1146 0.950 . S
C1169 C1168 1.334 . S
C1169 C1170 1.287 . S
C1170 C1169 1.287 . S
C1170 C1171 1.524 . S
C1170 H1189 0.913 . S
C1171 H1147 0.950 . S
C1171 C1170 1.524 . S
C1171 C1172 1.415 . S
C1172 H1148 0.950 . S
C1172 C1167 1.363 . S
C1172 C1171 1.415 . S
C1173 H1149 0.951 1_545 S
C1173 C1174 1.366 . S
C1173 C1175 1.387 1_545 S
C1174 C1173 1.366 . S
C1174 C1178 1.385 . S
C1175 H1150 0.953 . S
C1175 C1173 1.387 1_565 S
C1175 C1176 1.365 1_565 S
C1176 C1175 1.365 1_545 S
C1176 C1177 1.414 . S
C1176 C1179 1.499 . S
C1177 H1151 0.950 . S
C1177 C1176 1.414 . S
C1177 C1178 1.374 . S
C1178 H1152 0.950 . S
C1178 C1174 1.385 . S
C1178 C1177 1.374 . S
C1179 C1176 1.499 . S
C1179 C1180 1.373 . S
C1179 C1181 1.389 1_545 S
C1180 H1153 0.950 . S
C1180 C1166 1.377 1_655 S
C1180 C1179 1.373 . S
C1181 C1165 1.377 1_655 S
C1181 C1179 1.389 1_565 S
C1181 C1182 1.524 . S
C1182 C1181 1.524 . S
C1182 C1183 1.397 . S
C1182 C1187 1.363 . S
C1183 H1154 0.950 . S
C1183 C1182 1.397 . S
C1183 C1184 1.334 . S
C1184 H1155 0.950 . S
C1184 C1183 1.334 . S
C1184 C1185 1.287 . S
C1185 C1184 1.287 . S
C1185 C1186 1.524 . S
C1185 H1188 0.999 . S
C1186 H1156 0.950 . S
C1186 C1185 1.524 . S
C1186 C1187 1.415 . S
C1187 H1157 0.950 . S
C1187 C1182 1.363 . S
C1187 C1186 1.415 . S
H1188 C1185 0.999 . S
H1189 C1170 0.913 . S
H1190 C1208 0.951 . S
H1191 C1210 0.951 . S
H1192 C1212 0.950 . S
H1193 C1213 0.950 . S
H1194 C1215 0.950 . S
H1195 C1218 0.950 . S
H1196 C1219 0.950 . S
H1197 C1221 0.950 . S
H1198 C1222 0.950 . S
H1199 C1223 0.951 . S
H1200 C1225 0.951 . S
H1201 C1227 0.950 . S
H1202 C1228 0.950 . S
H1203 C1230 0.950 . S
H1204 C1233 0.950 . S
H1205 C1234 0.950 . S
H1206 C1236 0.950 . S
H1207 C1237 0.950 . S
C1208 H1190 0.951 . S
C1208 C1209 1.366 . S
C1208 C1210 1.388 . S
C1209 C1208 1.366 . S
C1209 C1213 1.385 . S
C1210 H1191 0.951 . S
C1210 C1208 1.388 . S
C1210 C1211 1.366 . S
C1211 C1210 1.366 . S
C1211 C1212 1.414 . S
C1211 C1214 1.499 . S
C1212 H1192 0.950 . S
C1212 C1211 1.414 . S
C1212 C1213 1.374 . S
C1213 H1193 0.950 . S
C1213 C1209 1.385 . S
C1213 C1212 1.374 . S
C1214 C1211 1.499 . S
C1214 C1215 1.373 . S
C1214 C1216 1.389 . S
C1215 H1194 0.950 . S
C1215 C1214 1.373 . S
C1215 C1231 1.377 . S
C1216 C1214 1.389 . S
C1216 C1217 1.524 . S
C1216 C1230 1.377 . S
C1217 C1216 1.524 . S
C1217 C1218 1.397 . S
C1217 C1222 1.363 . S
C1218 H1195 0.950 . S
C1218 C1217 1.397 . S
C1218 C1219 1.334 . S
C1219 H1196 0.950 . S
C1219 C1218 1.334 . S
C1219 C1220 1.287 . S
C1220 C1219 1.287 . S
C1220 C1221 1.524 . S
C1220 H1239 0.913 . S
C1221 H1197 0.950 . S
C1221 C1220 1.524 . S
C1221 C1222 1.415 . S
C1222 H1198 0.950 . S
C1222 C1217 1.363 . S
C1222 C1221 1.415 . S
C1223 H1199 0.951 . S
C1223 C1224 1.366 . S
C1223 C1225 1.388 . S
C1224 C1223 1.366 . S
C1224 C1228 1.385 . S
C1225 H1200 0.951 . S
C1225 C1223 1.388 . S
C1225 C1226 1.366 . S
C1226 C1225 1.366 . S
C1226 C1227 1.414 . S
C1226 C1229 1.499 . S
C1227 H1201 0.950 . S
C1227 C1226 1.414 . S
C1227 C1228 1.374 . S
C1228 H1202 0.950 . S
C1228 C1224 1.385 . S
C1228 C1227 1.374 . S
C1229 C1226 1.499 . S
C1229 C1230 1.373 . S
C1229 C1231 1.389 . S
C1230 H1203 0.950 . S
C1230 C1216 1.377 . S
C1230 C1229 1.373 . S
C1231 C1215 1.377 . S
C1231 C1229 1.389 . S
C1231 C1232 1.524 . S
C1232 C1231 1.524 . S
C1232 C1233 1.397 . S
C1232 C1237 1.363 . S
C1233 H1204 0.950 . S
C1233 C1232 1.397 . S
C1233 C1234 1.334 . S
C1234 H1205 0.950 . S
C1234 C1233 1.334 . S
C1234 C1235 1.287 . S
C1235 C1234 1.287 . S
C1235 C1236 1.524 . S
C1235 H1238 0.999 . S
C1236 H1206 0.950 . S
C1236 C1235 1.524 . S
C1236 C1237 1.415 . S
C1237 H1207 0.950 . S
C1237 C1232 1.363 . S
C1237 C1236 1.415 . S
H1238 C1235 0.999 . S
H1239 C1220 0.913 . S
H1240 C1258 0.951 . S
H1241 C1260 0.951 . S
H1242 C1262 0.950 . S
H1243 C1263 0.950 . S
H1244 C1265 0.950 . S
H1245 C1268 0.950 . S
H1246 C1269 0.950 . S
H1247 C1271 0.950 . S
H1248 C1272 0.950 . S
H1249 C1273 0.951 . S
H1250 C1275 0.951 . S
H1251 C1277 0.950 . S
H1252 C1278 0.950 . S
H1253 C1280 0.950 . S
H1254 C1283 0.950 . S
H1255 C1284 0.950 . S
H1256 C1286 0.950 . S
H1257 C1287 0.950 . S
C1258 H1240 0.951 . S
C1258 C1259 1.366 . S
C1258 C1260 1.388 . S
C1259 C1258 1.366 . S
C1259 C1263 1.385 . S
C1260 H1241 0.951 . S
C1260 C1258 1.388 . S
C1260 C1261 1.366 . S
C1261 C1260 1.366 . S
C1261 C1262 1.414 . S
C1261 C1264 1.499 . S
C1262 H1242 0.950 . S
C1262 C1261 1.414 . S
C1262 C1263 1.374 . S
C1263 H1243 0.950 . S
C1263 C1259 1.385 . S
C1263 C1262 1.374 . S
C1264 C1261 1.499 . S
C1264 C1265 1.373 . S
C1264 C1266 1.389 . S
C1265 H1244 0.950 . S
C1265 C1264 1.373 . S
C1265 C1281 1.377 . S
C1266 C1264 1.389 . S
C1266 C1267 1.524 . S
C1266 C1280 1.377 . S
C1267 C1266 1.524 . S
C1267 C1268 1.397 . S
C1267 C1272 1.363 . S
C1268 H1245 0.950 . S
C1268 C1267 1.397 . S
C1268 C1269 1.334 . S
C1269 H1246 0.950 . S
C1269 C1268 1.334 . S
C1269 C1270 1.287 . S
C1270 C1269 1.287 . S
C1270 C1271 1.524 . S
C1270 H1289 0.913 . S
C1271 H1247 0.950 . S
C1271 C1270 1.524 . S
C1271 C1272 1.415 . S
C1272 H1248 0.950 . S
C1272 C1267 1.363 . S
C1272 C1271 1.415 . S
C1273 H1249 0.951 . S
C1273 C1274 1.366 . S
C1273 C1275 1.388 . S
C1274 C1273 1.366 . S
C1274 C1278 1.385 . S
C1275 H1250 0.951 . S
C1275 C1273 1.388 . S
C1275 C1276 1.366 . S
C1276 C1275 1.366 . S
C1276 C1277 1.414 . S
C1276 C1279 1.499 . S
C1277 H1251 0.950 . S
C1277 C1276 1.414 . S
C1277 C1278 1.374 . S
C1278 H1252 0.950 . S
C1278 C1274 1.385 . S
C1278 C1277 1.374 . S
C1279 C1276 1.499 . S
C1279 C1280 1.373 . S
C1279 C1281 1.389 . S
C1280 H1253 0.950 . S
C1280 C1266 1.377 . S
C1280 C1279 1.373 . S
C1281 C1265 1.377 . S
C1281 C1279 1.389 . S
C1281 C1282 1.524 . S
C1282 C1281 1.524 . S
C1282 C1283 1.397 . S
C1282 C1287 1.363 . S
C1283 H1254 0.950 . S
C1283 C1282 1.397 . S
C1283 C1284 1.334 . S
C1284 H1255 0.950 . S
C1284 C1283 1.334 . S
C1284 C1285 1.287 . S
C1285 C1284 1.287 . S
C1285 C1286 1.524 . S
C1285 H1288 0.999 . S
C1286 H1256 0.950 . S
C1286 C1285 1.524 . S
C1286 C1287 1.415 . S
C1287 H1257 0.950 . S
C1287 C1282 1.363 . S
C1287 C1286 1.415 . S
H1288 C1285 0.999 . S
H1289 C1270 0.913 . S
H1290 C1308 0.951 . S
H1291 C1310 0.951 . S
H1292 C1312 0.950 . S
H1293 C1313 0.950 . S
H1294 C1315 0.950 . S
H1295 C1318 0.950 . S
H1296 C1319 0.950 . S
H1297 C1321 0.950 . S
H1298 C1322 0.950 . S
H1299 C1323 0.951 . S
H1300 C1325 0.951 . S
H1301 C1327 0.950 . S
H1302 C1328 0.950 . S
H1303 C1330 0.950 . S
H1304 C1333 0.950 . S
H1305 C1334 0.950 . S
H1306 C1336 0.950 . S
H1307 C1337 0.950 . S
C1308 H1290 0.951 . S
C1308 C1309 1.366 . S
C1308 C1310 1.388 . S
C1309 C1308 1.366 . S
C1309 C1313 1.385 . S
C1310 H1291 0.951 . S
C1310 C1308 1.388 . S
C1310 C1311 1.366 . S
C1311 C1310 1.366 . S
C1311 C1312 1.414 . S
C1311 C1314 1.499 . S
C1312 H1292 0.950 . S
C1312 C1311 1.414 . S
C1312 C1313 1.374 . S
C1313 H1293 0.950 . S
C1313 C1309 1.385 . S
C1313 C1312 1.374 . S
C1314 C1311 1.499 . S
C1314 C1315 1.373 . S
C1314 C1316 1.389 . S
C1315 H1294 0.950 . S
C1315 C1314 1.373 . S
C1315 C1331 1.377 . S
C1316 C1314 1.389 . S
C1316 C1317 1.524 . S
C1316 C1330 1.377 . S
C1317 C1316 1.524 . S
C1317 C1318 1.397 . S
C1317 C1322 1.363 . S
C1318 H1295 0.950 . S
C1318 C1317 1.397 . S
C1318 C1319 1.334 . S
C1319 H1296 0.950 . S
C1319 C1318 1.334 . S
C1319 C1320 1.287 . S
C1320 C1319 1.287 . S
C1320 C1321 1.524 . S
C1320 H1339 0.913 . S
C1321 H1297 0.950 . S
C1321 C1320 1.524 . S
C1321 C1322 1.415 . S
C1322 H1298 0.950 . S
C1322 C1317 1.363 . S
C1322 C1321 1.415 . S
C1323 H1299 0.951 . S
C1323 C1324 1.366 . S
C1323 C1325 1.388 . S
C1324 C1323 1.366 . S
C1324 C1328 1.385 . S
C1325 H1300 0.951 . S
C1325 C1323 1.388 . S
C1325 C1326 1.366 . S
C1326 C1325 1.366 . S
C1326 C1327 1.414 . S
C1326 C1329 1.499 . S
C1327 H1301 0.950 . S
C1327 C1326 1.414 . S
C1327 C1328 1.374 . S
C1328 H1302 0.950 . S
C1328 C1324 1.385 . S
C1328 C1327 1.374 . S
C1329 C1326 1.499 . S
C1329 C1330 1.373 . S
C1329 C1331 1.389 . S
C1330 H1303 0.950 . S
C1330 C1316 1.377 . S
C1330 C1329 1.373 . S
C1331 C1315 1.377 . S
C1331 C1329 1.389 . S
C1331 C1332 1.524 . S
C1332 C1331 1.524 . S
C1332 C1333 1.397 . S
C1332 C1337 1.363 . S
C1333 H1304 0.950 . S
C1333 C1332 1.397 . S
C1333 C1334 1.334 . S
C1334 H1305 0.950 . S
C1334 C1333 1.334 . S
C1334 C1335 1.287 . S
C1335 C1334 1.287 . S
C1335 C1336 1.524 . S
C1335 H1338 0.999 . S
C1336 H1306 0.950 . S
C1336 C1335 1.524 . S
C1336 C1337 1.415 . S
C1337 H1307 0.950 . S
C1337 C1332 1.363 . S
C1337 C1336 1.415 . S
H1338 C1335 0.999 . S
H1339 C1320 0.913 . S
H1340 C1358 0.951 . S
H1341 C1360 0.951 . S
H1342 C1362 0.950 . S
H1343 C1363 0.950 . S
H1344 C1365 0.950 . S
H1345 C1368 0.950 . S
H1346 C1369 0.950 . S
H1347 C1371 0.950 . S
H1348 C1372 0.950 . S
H1349 C1373 0.951 . S
H1350 C1375 0.951 . S
H1351 C1377 0.950 . S
H1352 C1378 0.950 . S
H1353 C1380 0.950 . S
H1354 C1383 0.950 . S
H1355 C1384 0.950 . S
H1356 C1386 0.950 . S
H1357 C1387 0.950 . S
C1358 H1340 0.951 . S
C1358 C1359 1.366 . S
C1358 C1360 1.388 . S
C1359 C1358 1.366 . S
C1359 C1363 1.385 . S
C1360 H1341 0.951 . S
C1360 C1358 1.388 . S
C1360 C1361 1.366 . S
C1361 C1360 1.366 . S
C1361 C1362 1.414 . S
C1361 C1364 1.499 . S
C1362 H1342 0.950 . S
C1362 C1361 1.414 . S
C1362 C1363 1.374 . S
C1363 H1343 0.950 . S
C1363 C1359 1.385 . S
C1363 C1362 1.374 . S
C1364 C1361 1.499 . S
C1364 C1365 1.373 . S
C1364 C1366 1.389 . S
C1365 H1344 0.950 . S
C1365 C1364 1.373 . S
C1365 C1381 1.377 1_455 S
C1366 C1364 1.389 . S
C1366 C1367 1.524 . S
C1366 C1380 1.377 1_455 S
C1367 C1366 1.524 . S
C1367 C1368 1.397 . S
C1367 C1372 1.363 . S
C1368 H1345 0.950 . S
C1368 C1367 1.397 . S
C1368 C1369 1.334 . S
C1369 H1346 0.950 . S
C1369 C1368 1.334 . S
C1369 C1370 1.287 . S
C1370 C1369 1.287 . S
C1370 C1371 1.524 . S
C1370 H1389 0.913 . S
C1371 H1347 0.950 . S
C1371 C1370 1.524 . S
C1371 C1372 1.415 . S
C1372 H1348 0.950 . S
C1372 C1367 1.363 . S
C1372 C1371 1.415 . S
C1373 H1349 0.951 . S
C1373 C1374 1.366 . S
C1373 C1375 1.388 . S
C1374 C1373 1.366 . S
C1374 C1378 1.385 . S
C1375 H1350 0.951 . S
C1375 C1373 1.388 . S
C1375 C1376 1.366 . S
C1376 C1375 1.366 . S
C1376 C1377 1.414 . S
C1376 C1379 1.499 . S
C1377 H1351 0.950 . S
C1377 C1376 1.414 . S
C1377 C1378 1.374 . S
C1378 H1352 0.950 . S
C1378 C1374 1.385 . S
C1378 C1377 1.374 . S
C1379 C1376 1.499 . S
C1379 C1380 1.373 . S
C1379 C1381 1.389 . S
C1380 H1353 0.950 . S
C1380 C1366 1.377 1_655 S
C1380 C1379 1.373 . S
C1381 C1365 1.377 1_655 S
C1381 C1379 1.389 . S
C1381 C1382 1.524 . S
C1382 C1381 1.524 . S
C1382 C1383 1.397 . S
C1382 C1387 1.363 . S
C1383 H1354 0.950 . S
C1383 C1382 1.397 . S
C1383 C1384 1.334 . S
C1384 H1355 0.950 . S
C1384 C1383 1.334 . S
C1384 C1385 1.287 . S
C1385 C1384 1.287 . S
C1385 C1386 1.524 . S
C1385 H1388 0.999 . S
C1386 H1356 0.950 . S
C1386 C1385 1.524 . S
C1386 C1387 1.415 . S
C1387 H1357 0.950 . S
C1387 C1382 1.363 . S
C1387 C1386 1.415 . S
H1388 C1385 0.999 . S
H1389 C1370 0.913 . S
H1390 C1408 0.951 . S
H1391 C1410 0.951 . S
H1392 C1412 0.950 1_556 S
H1393 C1413 0.950 . S
H1394 C1415 0.950 . S
H1395 C1418 0.950 . S
H1396 C1419 0.950 . S
H1397 C1421 0.950 . S
H1398 C1422 0.950 . S
H1399 C1423 0.951 . S
H1400 C1425 0.951 . S
H1401 C1427 0.950 1_554 S
H1402 C1428 0.950 . S
H1403 C1430 0.950 . S
H1404 C1433 0.950 . S
H1405 C1434 0.950 . S
H1406 C1436 0.950 . S
H1407 C1437 0.950 . S
C1408 H1390 0.951 . S
C1408 C1409 1.366 . S
C1408 C1410 1.388 . S
C1409 C1408 1.366 . S
C1409 C1413 1.385 . S
C1410 H1391 0.951 . S
C1410 C1408 1.388 . S
C1410 C1411 1.366 . S
C1411 C1410 1.366 . S
C1411 C1412 1.414 . S
C1411 C1414 1.499 . S
C1412 H1392 0.950 1_554 S
C1412 C1411 1.414 . S
C1412 C1413 1.374 . S
C1413 H1393 0.950 . S
C1413 C1409 1.385 . S
C1413 C1412 1.374 . S
C1414 C1411 1.499 . S
C1414 C1415 1.373 1_554 S
C1414 C1416 1.389 . S
C1415 H1394 0.950 . S
C1415 C1414 1.373 1_556 S
C1415 C1431 1.377 . S
C1416 C1414 1.389 . S
C1416 C1417 1.524 . S
C1416 C1430 1.377 . S
C1417 C1416 1.524 . S
C1417 C1418 1.397 . S
C1417 C1422 1.363 . S
C1418 H1395 0.950 . S
C1418 C1417 1.397 . S
C1418 C1419 1.334 . S
C1419 H1396 0.950 . S
C1419 C1418 1.334 . S
C1419 C1420 1.287 . S
C1420 C1419 1.287 . S
C1420 C1421 1.524 . S
C1420 H1439 0.913 . S
C1421 H1397 0.950 . S
C1421 C1420 1.524 . S
C1421 C1422 1.415 . S
C1422 H1398 0.950 . S
C1422 C1417 1.363 . S
C1422 C1421 1.415 . S
C1423 H1399 0.951 . S
C1423 C1424 1.366 . S
C1423 C1425 1.388 . S
C1424 C1423 1.366 . S
C1424 C1428 1.385 . S
C1425 H1400 0.951 . S
C1425 C1423 1.388 . S
C1425 C1426 1.366 . S
C1426 C1425 1.366 . S
C1426 C1427 1.414 . S
C1426 C1429 1.499 . S
C1427 H1401 0.950 1_556 S
C1427 C1426 1.414 . S
C1427 C1428 1.374 . S
C1428 H1402 0.950 . S
C1428 C1424 1.385 . S
C1428 C1427 1.374 . S
C1429 C1426 1.499 . S
C1429 C1430 1.373 1_556 S
C1429 C1431 1.389 . S
C1430 H1403 0.950 . S
C1430 C1416 1.377 . S
C1430 C1429 1.373 1_554 S
C1431 C1415 1.377 . S
C1431 C1429 1.389 . S
C1431 C1432 1.524 . S
C1432 C1431 1.524 . S
C1432 C1433 1.397 . S
C1432 C1437 1.363 . S
C1433 H1404 0.950 . S
C1433 C1432 1.397 . S
C1433 C1434 1.334 . S
C1434 H1405 0.950 . S
C1434 C1433 1.334 . S
C1434 C1435 1.287 . S
C1435 C1434 1.287 . S
C1435 C1436 1.524 . S
C1435 H1438 0.999 . S
C1436 H1406 0.950 . S
C1436 C1435 1.524 . S
C1436 C1437 1.415 . S
C1437 H1407 0.950 . S
C1437 C1432 1.363 . S
C1437 C1436 1.415 . S
H1438 C1435 0.999 . S
H1439 C1420 0.913 . S
H1440 C1458 0.951 . S
H1441 C1460 0.951 . S
H1442 C1462 0.950 . S
H1443 C1463 0.950 . S
H1444 C1465 0.950 . S
H1445 C1468 0.950 . S
H1446 C1469 0.950 . S
H1447 C1471 0.950 . S
H1448 C1472 0.950 . S
H1449 C1473 0.951 . S
H1450 C1475 0.951 . S
H1451 C1477 0.950 . S
H1452 C1478 0.950 . S
H1453 C1480 0.950 . S
H1454 C1483 0.950 . S
H1455 C1484 0.950 . S
H1456 C1486 0.950 . S
H1457 C1487 0.950 . S
C1458 H1440 0.951 . S
C1458 C1459 1.366 . S
C1458 C1460 1.388 . S
C1459 C1458 1.366 . S
C1459 C1463 1.385 . S
C1460 H1441 0.951 . S
C1460 C1458 1.388 . S
C1460 C1461 1.366 . S
C1461 C1460 1.366 . S
C1461 C1462 1.414 . S
C1461 C1464 1.499 . S
C1462 H1442 0.950 . S
C1462 C1461 1.414 . S
C1462 C1463 1.374 . S
C1463 H1443 0.950 . S
C1463 C1459 1.385 . S
C1463 C1462 1.374 . S
C1464 C1461 1.499 . S
C1464 C1465 1.373 . S
C1464 C1466 1.389 . S
C1465 H1444 0.950 . S
C1465 C1464 1.373 . S
C1465 C1481 1.377 . S
C1466 C1464 1.389 . S
C1466 C1467 1.524 . S
C1466 C1480 1.377 . S
C1467 C1466 1.524 . S
C1467 C1468 1.397 . S
C1467 C1472 1.363 . S
C1468 H1445 0.950 . S
C1468 C1467 1.397 . S
C1468 C1469 1.334 . S
C1469 H1446 0.950 . S
C1469 C1468 1.334 . S
C1469 C1470 1.287 . S
C1470 C1469 1.287 . S
C1470 C1471 1.524 . S
C1470 H1489 0.913 . S
C1471 H1447 0.950 . S
C1471 C1470 1.524 . S
C1471 C1472 1.415 . S
C1472 H1448 0.950 . S
C1472 C1467 1.363 . S
C1472 C1471 1.415 . S
C1473 H1449 0.951 . S
C1473 C1474 1.366 . S
C1473 C1475 1.388 . S
C1474 C1473 1.366 . S
C1474 C1478 1.385 . S
C1475 H1450 0.951 . S
C1475 C1473 1.388 . S
C1475 C1476 1.366 . S
C1476 C1475 1.366 . S
C1476 C1477 1.414 . S
C1476 C1479 1.499 . S
C1477 H1451 0.950 . S
C1477 C1476 1.414 . S
C1477 C1478 1.374 . S
C1478 H1452 0.950 . S
C1478 C1474 1.385 . S
C1478 C1477 1.374 . S
C1479 C1476 1.499 . S
C1479 C1480 1.373 . S
C1479 C1481 1.389 . S
C1480 H1453 0.950 . S
C1480 C1466 1.377 . S
C1480 C1479 1.373 . S
C1481 C1465 1.377 . S
C1481 C1479 1.389 . S
C1481 C1482 1.524 . S
C1482 C1481 1.524 . S
C1482 C1483 1.397 . S
C1482 C1487 1.363 . S
C1483 H1454 0.950 . S
C1483 C1482 1.397 . S
C1483 C1484 1.334 . S
C1484 H1455 0.950 . S
C1484 C1483 1.334 . S
C1484 C1485 1.287 . S
C1485 C1484 1.287 . S
C1485 C1486 1.524 . S
C1485 H1488 0.999 . S
C1486 H1456 0.950 . S
C1486 C1485 1.524 . S
C1486 C1487 1.415 . S
C1487 H1457 0.950 . S
C1487 C1482 1.363 . S
C1487 C1486 1.415 . S
H1488 C1485 0.999 . S
H1489 C1470 0.913 . S
H1490 C1508 0.951 . S
H1491 C1510 0.951 . S
H1492 C1512 0.950 . S
H1493 C1513 0.950 . S
H1494 C1515 0.950 . S
H1495 C1518 0.950 . S
H1496 C1519 0.950 . S
H1497 C1521 0.950 . S
H1498 C1522 0.950 . S
H1499 C1523 0.951 . S
H1500 C1525 0.951 . S
H1501 C1527 0.950 . S
H1502 C1528 0.950 . S
H1503 C1530 0.950 . S
H1504 C1533 0.950 . S
H1505 C1534 0.950 . S
H1506 C1536 0.950 . S
H1507 C1537 0.950 . S
C1508 H1490 0.951 . S
C1508 C1509 1.366 . S
C1508 C1510 1.388 . S
C1509 C1508 1.366 . S
C1509 C1513 1.385 . S
C1510 H1491 0.951 . S
C1510 C1508 1.388 . S
C1510 C1511 1.366 . S
C1511 C1510 1.366 . S
C1511 C1512 1.414 . S
C1511 C1514 1.499 . S
C1512 H1492 0.950 . S
C1512 C1511 1.414 . S
C1512 C1513 1.374 . S
C1513 H1493 0.950 . S
C1513 C1509 1.385 . S
C1513 C1512 1.374 . S
C1514 C1511 1.499 . S
C1514 C1515 1.373 . S
C1514 C1516 1.389 . S
C1515 H1494 0.950 . S
C1515 C1514 1.373 . S
C1515 C1531 1.377 . S
C1516 C1514 1.389 . S
C1516 C1517 1.524 . S
C1516 C1530 1.377 . S
C1517 C1516 1.524 . S
C1517 C1518 1.397 . S
C1517 C1522 1.363 . S
C1518 H1495 0.950 . S
C1518 C1517 1.397 . S
C1518 C1519 1.334 . S
C1519 H1496 0.950 . S
C1519 C1518 1.334 . S
C1519 C1520 1.287 . S
C1520 C1519 1.287 . S
C1520 C1521 1.524 . S
C1520 H1539 0.913 . S
C1521 H1497 0.950 . S
C1521 C1520 1.524 . S
C1521 C1522 1.415 . S
C1522 H1498 0.950 . S
C1522 C1517 1.363 . S
C1522 C1521 1.415 . S
C1523 H1499 0.951 . S
C1523 C1524 1.366 . S
C1523 C1525 1.388 . S
C1524 C1523 1.366 . S
C1524 C1528 1.385 . S
C1525 H1500 0.951 . S
C1525 C1523 1.388 . S
C1525 C1526 1.366 . S
C1526 C1525 1.366 . S
C1526 C1527 1.414 . S
C1526 C1529 1.499 . S
C1527 H1501 0.950 . S
C1527 C1526 1.414 . S
C1527 C1528 1.374 . S
C1528 H1502 0.950 . S
C1528 C1524 1.385 . S
C1528 C1527 1.374 . S
C1529 C1526 1.499 . S
C1529 C1530 1.373 . S
C1529 C1531 1.389 . S
C1530 H1503 0.950 . S
C1530 C1516 1.377 . S
C1530 C1529 1.373 . S
C1531 C1515 1.377 . S
C1531 C1529 1.389 . S
C1531 C1532 1.524 . S
C1532 C1531 1.524 . S
C1532 C1533 1.397 . S
C1532 C1537 1.363 . S
C1533 H1504 0.950 . S
C1533 C1532 1.397 . S
C1533 C1534 1.334 . S
C1534 H1505 0.950 . S
C1534 C1533 1.334 . S
C1534 C1535 1.287 . S
C1535 C1534 1.287 . S
C1535 C1536 1.524 . S
C1535 H1538 0.999 . S
C1536 H1506 0.950 . S
C1536 C1535 1.524 . S
C1536 C1537 1.415 . S
C1537 H1507 0.950 . S
C1537 C1532 1.363 . S
C1537 C1536 1.415 . S
H1538 C1535 0.999 . S
H1539 C1520 0.913 . S
H1540 C1558 0.951 . S
H1541 C1560 0.951 . S
H1542 C1562 0.950 . S
H1543 C1563 0.950 . S
H1544 C1565 0.950 . S
H1545 C1568 0.950 . S
H1546 C1569 0.950 . S
H1547 C1571 0.950 . S
H1548 C1572 0.950 . S
H1549 C1573 0.951 . S
H1550 C1575 0.951 . S
H1551 C1577 0.950 . S
H1552 C1578 0.950 . S
H1553 C1580 0.950 . S
H1554 C1583 0.950 . S
H1555 C1584 0.950 . S
H1556 C1586 0.950 . S
H1557 C1587 0.950 . S
C1558 H1540 0.951 . S
C1558 C1559 1.366 . S
C1558 C1560 1.388 . S
C1559 C1558 1.366 . S
C1559 C1563 1.385 . S
C1560 H1541 0.951 . S
C1560 C1558 1.388 . S
C1560 C1561 1.366 . S
C1561 C1560 1.366 . S
C1561 C1562 1.414 . S
C1561 C1564 1.499 . S
C1562 H1542 0.950 . S
C1562 C1561 1.414 . S
C1562 C1563 1.374 . S
C1563 H1543 0.950 . S
C1563 C1559 1.385 . S
C1563 C1562 1.374 . S
C1564 C1561 1.499 . S
C1564 C1565 1.373 . S
C1564 C1566 1.389 . S
C1565 H1544 0.950 . S
C1565 C1564 1.373 . S
C1565 C1581 1.377 . S
C1566 C1564 1.389 . S
C1566 C1567 1.524 . S
C1566 C1580 1.377 . S
C1567 C1566 1.524 . S
C1567 C1568 1.397 . S
C1567 C1572 1.363 . S
C1568 H1545 0.950 . S
C1568 C1567 1.397 . S
C1568 C1569 1.334 . S
C1569 H1546 0.950 . S
C1569 C1568 1.334 . S
C1569 C1570 1.287 . S
C1570 C1569 1.287 . S
C1570 C1571 1.524 . S
C1570 H1589 0.913 . S
C1571 H1547 0.950 . S
C1571 C1570 1.524 . S
C1571 C1572 1.415 . S
C1572 H1548 0.950 . S
C1572 C1567 1.363 . S
C1572 C1571 1.415 . S
C1573 H1549 0.951 . S
C1573 C1574 1.366 . S
C1573 C1575 1.388 . S
C1574 C1573 1.366 . S
C1574 C1578 1.385 . S
C1575 H1550 0.951 . S
C1575 C1573 1.388 . S
C1575 C1576 1.366 . S
C1576 C1575 1.366 . S
C1576 C1577 1.414 . S
C1576 C1579 1.499 . S
C1577 H1551 0.950 . S
C1577 C1576 1.414 . S
C1577 C1578 1.374 . S
C1578 H1552 0.950 . S
C1578 C1574 1.385 . S
C1578 C1577 1.374 . S
C1579 C1576 1.499 . S
C1579 C1580 1.373 . S
C1579 C1581 1.389 . S
C1580 H1553 0.950 . S
C1580 C1566 1.377 . S
C1580 C1579 1.373 . S
C1581 C1565 1.377 . S
C1581 C1579 1.389 . S
C1581 C1582 1.524 . S
C1582 C1581 1.524 . S
C1582 C1583 1.397 . S
C1582 C1587 1.363 . S
C1583 H1554 0.950 . S
C1583 C1582 1.397 . S
C1583 C1584 1.334 . S
C1584 H1555 0.950 . S
C1584 C1583 1.334 . S
C1584 C1585 1.287 . S
C1585 C1584 1.287 . S
C1585 C1586 1.524 . S
C1585 H1588 0.999 . S
C1586 H1556 0.950 . S
C1586 C1585 1.524 . S
C1586 C1587 1.415 . S
C1587 H1557 0.950 . S
C1587 C1582 1.363 . S
C1587 C1586 1.415 . S
H1588 C1585 0.999 . S
H1589 C1570 0.913 . S
H1590 C1608 0.951 . S
H1591 C1610 0.951 . S
H1592 C1612 0.950 . S
H1593 C1613 0.950 . S
H1594 C1615 0.950 . S
H1595 C1618 0.950 . S
H1596 C1619 0.950 . S
H1597 C1621 0.950 . S
H1598 C1622 0.950 . S
H1599 C1623 0.951 . S
H1600 C1625 0.951 . S
H1601 C1627 0.950 . S
H1602 C1628 0.950 . S
H1603 C1630 0.950 . S
H1604 C1633 0.950 . S
H1605 C1634 0.950 . S
H1606 C1636 0.950 . S
H1607 C1637 0.950 . S
C1608 H1590 0.951 . S
C1608 C1609 1.366 . S
C1608 C1610 1.388 . S
C1609 C1608 1.366 . S
C1609 C1613 1.385 . S
C1610 H1591 0.951 . S
C1610 C1608 1.388 . S
C1610 C1611 1.366 . S
C1611 C1610 1.366 . S
C1611 C1612 1.414 . S
C1611 C1614 1.499 . S
C1612 H1592 0.950 . S
C1612 C1611 1.414 . S
C1612 C1613 1.374 . S
C1613 H1593 0.950 . S
C1613 C1609 1.385 . S
C1613 C1612 1.374 . S
C1614 C1611 1.499 . S
C1614 C1615 1.373 . S
C1614 C1616 1.389 . S
C1615 H1594 0.950 . S
C1615 C1614 1.373 . S
C1615 C1631 1.377 . S
C1616 C1614 1.389 . S
C1616 C1617 1.524 . S
C1616 C1630 1.377 . S
C1617 C1616 1.524 . S
C1617 C1618 1.397 . S
C1617 C1622 1.363 . S
C1618 H1595 0.950 . S
C1618 C1617 1.397 . S
C1618 C1619 1.334 . S
C1619 H1596 0.950 . S
C1619 C1618 1.334 . S
C1619 C1620 1.287 . S
C1620 C1619 1.287 . S
C1620 C1621 1.524 . S
C1620 H1639 0.913 . S
C1621 H1597 0.950 . S
C1621 C1620 1.524 . S
C1621 C1622 1.415 . S
C1622 H1598 0.950 . S
C1622 C1617 1.363 . S
C1622 C1621 1.415 . S
C1623 H1599 0.951 . S
C1623 C1624 1.366 . S
C1623 C1625 1.388 . S
C1624 C1623 1.366 . S
C1624 C1628 1.385 . S
C1625 H1600 0.951 . S
C1625 C1623 1.388 . S
C1625 C1626 1.366 . S
C1626 C1625 1.366 . S
C1626 C1627 1.414 . S
C1626 C1629 1.499 . S
C1627 H1601 0.950 . S
C1627 C1626 1.414 . S
C1627 C1628 1.374 . S
C1628 H1602 0.950 . S
C1628 C1624 1.385 . S
C1628 C1627 1.374 . S
C1629 C1626 1.499 . S
C1629 C1630 1.373 . S
C1629 C1631 1.389 . S
C1630 H1603 0.950 . S
C1630 C1616 1.377 . S
C1630 C1629 1.373 . S
C1631 C1615 1.377 . S
C1631 C1629 1.389 . S
C1631 C1632 1.524 . S
C1632 C1631 1.524 . S
C1632 C1633 1.397 . S
C1632 C1637 1.363 . S
C1633 H1604 0.950 . S
C1633 C1632 1.397 . S
C1633 C1634 1.334 . S
C1634 H1605 0.950 . S
C1634 C1633 1.334 . S
C1634 C1635 1.287 . S
C1635 C1634 1.287 . S
C1635 C1636 1.524 . S
C1635 H1638 0.999 . S
C1636 H1606 0.950 . S
C1636 C1635 1.524 . S
C1636 C1637 1.415 . S
C1637 H1607 0.950 . S
C1637 C1632 1.363 . S
C1637 C1636 1.415 . S
H1638 C1635 0.999 . S
H1639 C1620 0.913 . S
H1640 C1658 0.951 . S
H1641 C1660 0.951 . S
H1642 C1662 0.950 . S
H1643 C1663 0.950 . S
H1644 C1665 0.950 . S
H1645 C1668 0.950 . S
H1646 C1669 0.950 . S
H1647 C1671 0.950 . S
H1648 C1672 0.950 . S
H1649 C1673 0.951 . S
H1650 C1675 0.951 . S
H1651 C1677 0.950 . S
H1652 C1678 0.950 . S
H1653 C1680 0.950 . S
H1654 C1683 0.950 . S
H1655 C1684 0.950 . S
H1656 C1686 0.950 . S
H1657 C1687 0.950 . S
C1658 H1640 0.951 . S
C1658 C1659 1.366 . S
C1658 C1660 1.388 . S
C1659 C1658 1.366 . S
C1659 C1663 1.385 . S
C1660 H1641 0.951 . S
C1660 C1658 1.388 . S
C1660 C1661 1.366 . S
C1661 C1660 1.366 . S
C1661 C1662 1.414 . S
C1661 C1664 1.499 . S
C1662 H1642 0.950 . S
C1662 C1661 1.414 . S
C1662 C1663 1.374 . S
C1663 H1643 0.950 . S
C1663 C1659 1.385 . S
C1663 C1662 1.374 . S
C1664 C1661 1.499 . S
C1664 C1665 1.373 . S
C1664 C1666 1.389 . S
C1665 H1644 0.950 . S
C1665 C1664 1.373 . S
C1665 C1681 1.377 . S
C1666 C1664 1.389 . S
C1666 C1667 1.524 . S
C1666 C1680 1.377 . S
C1667 C1666 1.524 . S
C1667 C1668 1.397 . S
C1667 C1672 1.363 . S
C1668 H1645 0.950 . S
C1668 C1667 1.397 . S
C1668 C1669 1.334 . S
C1669 H1646 0.950 . S
C1669 C1668 1.334 . S
C1669 C1670 1.287 . S
C1670 C1669 1.287 . S
C1670 C1671 1.524 . S
C1670 H1689 0.913 . S
C1671 H1647 0.950 . S
C1671 C1670 1.524 . S
C1671 C1672 1.415 . S
C1672 H1648 0.950 . S
C1672 C1667 1.363 . S
C1672 C1671 1.415 . S
C1673 H1649 0.951 . S
C1673 C1674 1.366 . S
C1673 C1675 1.388 . S
C1674 C1673 1.366 . S
C1674 C1678 1.385 . S
C1675 H1650 0.951 . S
C1675 C1673 1.388 . S
C1675 C1676 1.366 . S
C1676 C1675 1.366 . S
C1676 C1677 1.414 . S
C1676 C1679 1.499 . S
C1677 H1651 0.950 . S
C1677 C1676 1.414 . S
C1677 C1678 1.374 . S
C1678 H1652 0.950 . S
C1678 C1674 1.385 . S
C1678 C1677 1.374 . S
C1679 C1676 1.499 . S
C1679 C1680 1.373 . S
C1679 C1681 1.389 . S
C1680 H1653 0.950 . S
C1680 C1666 1.377 . S
C1680 C1679 1.373 . S
C1681 C1665 1.377 . S
C1681 C1679 1.389 . S
C1681 C1682 1.524 . S
C1682 C1681 1.524 . S
C1682 C1683 1.397 . S
C1682 C1687 1.363 . S
C1683 H1654 0.950 . S
C1683 C1682 1.397 . S
C1683 C1684 1.334 . S
C1684 H1655 0.950 . S
C1684 C1683 1.334 . S
C1684 C1685 1.287 . S
C1685 C1684 1.287 . S
C1685 C1686 1.524 . S
C1685 H1688 0.999 . S
C1686 H1656 0.950 . S
C1686 C1685 1.524 . S
C1686 C1687 1.415 . S
C1687 H1657 0.950 . S
C1687 C1682 1.363 . S
C1687 C1686 1.415 . S
H1688 C1685 0.999 . S
H1689 C1670 0.913 . S
H1690 C1708 0.951 . S
H1691 C1710 0.951 . S
H1692 C1712 0.950 . S
H1693 C1713 0.950 . S
H1694 C1715 0.950 . S
H1695 C1718 0.950 . S
H1696 C1719 0.950 . S
H1697 C1721 0.950 . S
H1698 C1722 0.950 . S
H1699 C1723 0.951 . S
H1700 C1725 0.951 . S
H1701 C1727 0.950 . S
H1702 C1728 0.950 . S
H1703 C1730 0.950 . S
H1704 C1733 0.950 . S
H1705 C1734 0.950 . S
H1706 C1736 0.950 . S
H1707 C1737 0.950 . S
C1708 H1690 0.951 . S
C1708 C1709 1.366 . S
C1708 C1710 1.388 . S
C1709 C1708 1.366 . S
C1709 C1713 1.385 . S
C1710 H1691 0.951 . S
C1710 C1708 1.388 . S
C1710 C1711 1.366 . S
C1711 C1710 1.366 . S
C1711 C1712 1.414 . S
C1711 C1714 1.499 . S
C1712 H1692 0.950 . S
C1712 C1711 1.414 . S
C1712 C1713 1.374 . S
C1713 H1693 0.950 . S
C1713 C1709 1.385 . S
C1713 C1712 1.374 . S
C1714 C1711 1.499 . S
C1714 C1715 1.373 . S
C1714 C1716 1.389 . S
C1715 H1694 0.950 . S
C1715 C1714 1.373 . S
C1715 C1731 1.377 . S
C1716 C1714 1.389 . S
C1716 C1717 1.524 . S
C1716 C1730 1.377 . S
C1717 C1716 1.524 . S
C1717 C1718 1.397 . S
C1717 C1722 1.363 . S
C1718 H1695 0.950 . S
C1718 C1717 1.397 . S
C1718 C1719 1.334 . S
C1719 H1696 0.950 . S
C1719 C1718 1.334 . S
C1719 C1720 1.287 . S
C1720 C1719 1.287 . S
C1720 C1721 1.524 . S
C1720 H1739 0.913 . S
C1721 H1697 0.950 . S
C1721 C1720 1.524 . S
C1721 C1722 1.415 . S
C1722 H1698 0.950 . S
C1722 C1717 1.363 . S
C1722 C1721 1.415 . S
C1723 H1699 0.951 . S
C1723 C1724 1.366 . S
C1723 C1725 1.388 . S
C1724 C1723 1.366 . S
C1724 C1728 1.385 . S
C1725 H1700 0.951 . S
C1725 C1723 1.388 . S
C1725 C1726 1.366 . S
C1726 C1725 1.366 . S
C1726 C1727 1.414 . S
C1726 C1729 1.499 . S
C1727 H1701 0.950 . S
C1727 C1726 1.414 . S
C1727 C1728 1.374 . S
C1728 H1702 0.950 . S
C1728 C1724 1.385 . S
C1728 C1727 1.374 . S
C1729 C1726 1.499 . S
C1729 C1730 1.373 . S
C1729 C1731 1.389 . S
C1730 H1703 0.950 . S
C1730 C1716 1.377 . S
C1730 C1729 1.373 . S
C1731 C1715 1.377 . S
C1731 C1729 1.389 . S
C1731 C1732 1.524 . S
C1732 C1731 1.524 . S
C1732 C1733 1.397 . S
C1732 C1737 1.363 . S
C1733 H1704 0.950 . S
C1733 C1732 1.397 . S
C1733 C1734 1.334 . S
C1734 H1705 0.950 . S
C1734 C1733 1.334 . S
C1734 C1735 1.287 . S
C1735 C1734 1.287 . S
C1735 C1736 1.524 . S
C1735 H1738 0.999 . S
C1736 H1706 0.950 . S
C1736 C1735 1.524 . S
C1736 C1737 1.415 . S
C1737 H1707 0.950 . S
C1737 C1732 1.363 . S
C1737 C1736 1.415 . S
H1738 C1735 0.999 . S
H1739 C1720 0.913 . S
H1740 C1758 0.951 . S
H1741 C1760 0.951 . S
H1742 C1762 0.950 . S
H1743 C1763 0.950 . S
H1744 C1765 0.950 . S
H1745 C1768 0.950 . S
H1746 C1769 0.950 . S
H1747 C1771 0.950 . S
H1748 C1772 0.950 . S
H1749 C1773 0.951 . S
H1750 C1775 0.951 . S
H1751 C1777 0.950 . S
H1752 C1778 0.950 . S
H1753 C1780 0.950 . S
H1754 C1783 0.950 . S
H1755 C1784 0.950 . S
H1756 C1786 0.950 . S
H1757 C1787 0.950 . S
C1758 H1740 0.951 . S
C1758 C1759 1.366 . S
C1758 C1760 1.388 . S
C1759 C1758 1.366 . S
C1759 C1763 1.385 . S
C1760 H1741 0.951 . S
C1760 C1758 1.388 . S
C1760 C1761 1.366 . S
C1761 C1760 1.366 . S
C1761 C1762 1.414 . S
C1761 C1764 1.499 . S
C1762 H1742 0.950 . S
C1762 C1761 1.414 . S
C1762 C1763 1.374 . S
C1763 H1743 0.950 . S
C1763 C1759 1.385 . S
C1763 C1762 1.374 . S
C1764 C1761 1.499 . S
C1764 C1765 1.373 . S
C1764 C1766 1.389 . S
C1765 H1744 0.950 . S
C1765 C1764 1.373 . S
C1765 C1781 1.377 . S
C1766 C1764 1.389 . S
C1766 C1767 1.524 . S
C1766 C1780 1.377 . S
C1767 C1766 1.524 . S
C1767 C1768 1.397 . S
C1767 C1772 1.363 . S
C1768 H1745 0.950 . S
C1768 C1767 1.397 . S
C1768 C1769 1.334 . S
C1769 H1746 0.950 . S
C1769 C1768 1.334 . S
C1769 C1770 1.287 . S
C1770 C1769 1.287 . S
C1770 C1771 1.524 . S
C1770 H1789 0.913 . S
C1771 H1747 0.950 . S
C1771 C1770 1.524 . S
C1771 C1772 1.415 . S
C1772 H1748 0.950 . S
C1772 C1767 1.363 . S
C1772 C1771 1.415 . S
C1773 H1749 0.951 . S
C1773 C1774 1.366 . S
C1773 C1775 1.388 . S
C1774 C1773 1.366 . S
C1774 C1778 1.385 . S
C1775 H1750 0.951 . S
C1775 C1773 1.388 . S
C1775 C1776 1.366 . S
C1776 C1775 1.366 . S
C1776 C1777 1.414 . S
C1776 C1779 1.499 . S
C1777 H1751 0.950 . S
C1777 C1776 1.414 . S
C1777 C1778 1.374 . S
C1778 H1752 0.950 . S
C1778 C1774 1.385 . S
C1778 C1777 1.374 . S
C1779 C1776 1.499 . S
C1779 C1780 1.373 . S
C1779 C1781 1.389 . S
C1780 H1753 0.950 . S
C1780 C1766 1.377 . S
C1780 C1779 1.373 . S
C1781 C1765 1.377 . S
C1781 C1779 1.389 . S
C1781 C1782 1.524 . S
C1782 C1781 1.524 . S
C1782 C1783 1.397 . S
C1782 C1787 1.363 . S
C1783 H1754 0.950 . S
C1783 C1782 1.397 . S
C1783 C1784 1.334 . S
C1784 H1755 0.950 . S
C1784 C1783 1.334 . S
C1784 C1785 1.287 . S
C1785 C1784 1.287 . S
C1785 C1786 1.524 . S
C1785 H1788 0.999 . S
C1786 H1756 0.950 . S
C1786 C1785 1.524 . S
C1786 C1787 1.415 . S
C1787 H1757 0.950 . S
C1787 C1782 1.363 . S
C1787 C1786 1.415 . S
H1788 C1785 0.999 . S
H1789 C1770 0.913 . S
H1790 C1808 0.951 . S
H1791 C1810 0.951 . S
H1792 C1812 0.950 . S
H1793 C1813 0.950 . S
H1794 C1815 0.950 . S
H1795 C1818 0.950 . S
H1796 C1819 0.950 . S
H1797 C1821 0.950 . S
H1798 C1822 0.950 . S
H1799 C1823 0.951 . S
H1800 C1825 0.951 . S
H1801 C1827 0.950 . S
H1802 C1828 0.950 . S
H1803 C1830 0.950 . S
H1804 C1833 0.950 . S
H1805 C1834 0.950 . S
H1806 C1836 0.950 . S
H1807 C1837 0.950 . S
C1808 H1790 0.951 . S
C1808 C1809 1.366 . S
C1808 C1810 1.388 . S
C1809 C1808 1.366 . S
C1809 C1813 1.385 . S
C1810 H1791 0.951 . S
C1810 C1808 1.388 . S
C1810 C1811 1.366 . S
C1811 C1810 1.366 . S
C1811 C1812 1.414 . S
C1811 C1814 1.499 . S
C1812 H1792 0.950 . S
C1812 C1811 1.414 . S
C1812 C1813 1.374 . S
C1813 H1793 0.950 . S
C1813 C1809 1.385 . S
C1813 C1812 1.374 . S
C1814 C1811 1.499 . S
C1814 C1815 1.373 . S
C1814 C1816 1.389 . S
C1815 H1794 0.950 . S
C1815 C1814 1.373 . S
C1815 C1831 1.377 . S
C1816 C1814 1.389 . S
C1816 C1817 1.524 . S
C1816 C1830 1.377 . S
C1817 C1816 1.524 . S
C1817 C1818 1.397 . S
C1817 C1822 1.363 . S
C1818 H1795 0.950 . S
C1818 C1817 1.397 . S
C1818 C1819 1.334 . S
C1819 H1796 0.950 . S
C1819 C1818 1.334 . S
C1819 C1820 1.287 . S
C1820 C1819 1.287 . S
C1820 C1821 1.524 . S
C1820 H1839 0.913 . S
C1821 H1797 0.950 . S
C1821 C1820 1.524 . S
C1821 C1822 1.415 . S
C1822 H1798 0.950 . S
C1822 C1817 1.363 . S
C1822 C1821 1.415 . S
C1823 H1799 0.951 . S
C1823 C1824 1.366 . S
C1823 C1825 1.388 . S
C1824 C1823 1.366 . S
C1824 C1828 1.385 . S
C1825 H1800 0.951 . S
C1825 C1823 1.388 . S
C1825 C1826 1.366 . S
C1826 C1825 1.366 . S
C1826 C1827 1.414 . S
C1826 C1829 1.499 . S
C1827 H1801 0.950 . S
C1827 C1826 1.414 . S
C1827 C1828 1.374 . S
C1828 H1802 0.950 . S
C1828 C1824 1.385 . S
C1828 C1827 1.374 . S
C1829 C1826 1.499 . S
C1829 C1830 1.373 . S
C1829 C1831 1.389 . S
C1830 H1803 0.950 . S
C1830 C1816 1.377 . S
C1830 C1829 1.373 . S
C1831 C1815 1.377 . S
C1831 C1829 1.389 . S
C1831 C1832 1.524 . S
C1832 C1831 1.524 . S
C1832 C1833 1.397 . S
C1832 C1837 1.363 . S
C1833 H1804 0.950 . S
C1833 C1832 1.397 . S
C1833 C1834 1.334 . S
C1834 H1805 0.950 . S
C1834 C1833 1.334 . S
C1834 C1835 1.287 . S
C1835 C1834 1.287 . S
C1835 C1836 1.524 . S
C1835 H1838 0.999 . S
C1836 H1806 0.950 . S
C1836 C1835 1.524 . S
C1836 C1837 1.415 . S
C1837 H1807 0.950 . S
C1837 C1832 1.363 . S
C1837 C1836 1.415 . S
H1838 C1835 0.999 . S
H1839 C1820 0.913 . S
H1840 C1858 0.951 . S
H1841 C1860 0.951 . S
H1842 C1862 0.950 . S
H1843 C1863 0.950 . S
H1844 C1865 0.950 . S
H1845 C1868 0.950 . S
H1846 C1869 0.950 . S
H1847 C1871 0.950 . S
H1848 C1872 0.950 . S
H1849 C1873 0.951 1_545 S
H1850 C1875 0.951 . S
H1851 C1877 0.950 . S
H1852 C1878 0.950 . S
H1853 C1880 0.950 . S
H1854 C1883 0.950 . S
H1855 C1884 0.950 . S
H1856 C1886 0.950 . S
H1857 C1887 0.950 . S
C1858 H1840 0.951 . S
C1858 C1859 1.366 . S
C1858 C1860 1.388 . S
C1859 C1858 1.366 . S
C1859 C1863 1.385 . S
C1860 H1841 0.951 . S
C1860 C1858 1.388 . S
C1860 C1861 1.366 . S
C1861 C1860 1.366 . S
C1861 C1862 1.414 . S
C1861 C1864 1.499 . S
C1862 H1842 0.950 . S
C1862 C1861 1.414 . S
C1862 C1863 1.374 . S
C1863 H1843 0.950 . S
C1863 C1859 1.385 . S
C1863 C1862 1.374 . S
C1864 C1861 1.499 . S
C1864 C1865 1.373 . S
C1864 C1866 1.389 . S
C1865 H1844 0.950 . S
C1865 C1864 1.373 . S
C1865 C1881 1.377 . S
C1866 C1864 1.389 . S
C1866 C1867 1.524 . S
C1866 C1880 1.377 . S
C1867 C1866 1.524 . S
C1867 C1868 1.397 . S
C1867 C1872 1.363 . S
C1868 H1845 0.950 . S
C1868 C1867 1.397 . S
C1868 C1869 1.334 . S
C1869 H1846 0.950 . S
C1869 C1868 1.334 . S
C1869 C1870 1.287 . S
C1870 C1869 1.287 . S
C1870 C1871 1.524 . S
C1870 H1889 0.913 . S
C1871 H1847 0.950 . S
C1871 C1870 1.524 . S
C1871 C1872 1.415 . S
C1872 H1848 0.950 . S
C1872 C1867 1.363 . S
C1872 C1871 1.415 . S
C1873 H1849 0.951 1_565 S
C1873 C1874 1.366 . S
C1873 C1875 1.388 . S
C1874 C1873 1.366 . S
C1874 C1878 1.385 . S
C1875 H1850 0.951 . S
C1875 C1873 1.388 . S
C1875 C1876 1.366 . S
C1876 C1875 1.366 . S
C1876 C1877 1.414 . S
C1876 C1879 1.499 . S
C1877 H1851 0.950 . S
C1877 C1876 1.414 . S
C1877 C1878 1.374 . S
C1878 H1852 0.950 . S
C1878 C1874 1.385 . S
C1878 C1877 1.374 . S
C1879 C1876 1.499 . S
C1879 C1880 1.373 . S
C1879 C1881 1.389 . S
C1880 H1853 0.950 . S
C1880 C1866 1.377 . S
C1880 C1879 1.373 . S
C1881 C1865 1.377 . S
C1881 C1879 1.389 . S
C1881 C1882 1.524 . S
C1882 C1881 1.524 . S
C1882 C1883 1.397 . S
C1882 C1887 1.363 . S
C1883 H1854 0.950 . S
C1883 C1882 1.397 . S
C1883 C1884 1.334 . S
C1884 H1855 0.950 . S
C1884 C1883 1.334 . S
C1884 C1885 1.287 . S
C1885 C1884 1.287 . S
C1885 C1886 1.524 . S
C1885 H1888 0.999 . S
C1886 H1856 0.950 . S
C1886 C1885 1.524 . S
C1886 C1887 1.415 . S
C1887 H1857 0.950 . S
C1887 C1882 1.363 . S
C1887 C1886 1.415 . S
H1888 C1885 0.999 . S
H1889 C1870 0.913 . S
H1890 C1908 0.951 . S
H1891 C1910 0.951 . S
H1892 C1912 0.950 . S
H1893 C1913 0.950 . S
H1894 C1915 0.950 . S
H1895 C1918 0.950 . S
H1896 C1919 0.953 . S
H1897 C1921 0.950 . S
H1898 C1922 0.950 . S
H1899 C1923 0.951 . S
H1900 C1925 0.951 . S
H1901 C1927 0.950 . S
H1902 C1928 0.950 . S
H1903 C1930 0.950 . S
H1904 C1933 0.950 . S
H1905 C1934 0.950 . S
H1906 C1936 0.950 . S
H1907 C1937 0.950 . S
C1908 H1890 0.951 . S
C1908 C1909 1.366 . S
C1908 C1910 1.388 . S
C1909 C1908 1.366 . S
C1909 C1913 1.385 . S
C1910 H1891 0.951 . S
C1910 C1908 1.388 . S
C1910 C1911 1.366 . S
C1911 C1910 1.366 . S
C1911 C1912 1.414 . S
C1911 C1914 1.499 . S
C1912 H1892 0.950 . S
C1912 C1911 1.414 . S
C1912 C1913 1.374 . S
C1913 H1893 0.950 . S
C1913 C1909 1.385 . S
C1913 C1912 1.374 . S
C1914 C1911 1.499 . S
C1914 C1915 1.373 . S
C1914 C1916 1.389 . S
C1915 H1894 0.950 . S
C1915 C1914 1.373 . S
C1915 C1931 1.377 . S
C1916 C1914 1.389 . S
C1916 C1917 1.524 . S
C1916 C1930 1.377 . S
C1917 C1916 1.524 . S
C1917 C1918 1.397 . S
C1917 C1922 1.363 . S
C1918 H1895 0.950 . S
C1918 C1917 1.397 . S
C1918 C1919 1.327 1_565 S
C1919 H1896 0.953 . S
C1919 C1918 1.327 1_545 S
C1919 C1920 1.291 . S
C1920 C1919 1.291 . S
C1920 C1921 1.524 . S
C1920 H1939 0.913 . S
C1921 H1897 0.950 . S
C1921 C1920 1.524 . S
C1921 C1922 1.415 1_545 S
C1922 H1898 0.950 . S
C1922 C1917 1.363 . S
C1922 C1921 1.415 1_565 S
C1923 H1899 0.951 . S
C1923 C1924 1.366 . S
C1923 C1925 1.388 . S
C1924 C1923 1.366 . S
C1924 C1928 1.385 . S
C1925 H1900 0.951 . S
C1925 C1923 1.388 . S
C1925 C1926 1.366 . S
C1926 C1925 1.366 . S
C1926 C1927 1.414 . S
C1926 C1929 1.499 . S
C1927 H1901 0.950 . S
C1927 C1926 1.414 . S
C1927 C1928 1.374 . S
C1928 H1902 0.950 . S
C1928 C1924 1.385 . S
C1928 C1927 1.374 . S
C1929 C1926 1.499 . S
C1929 C1930 1.373 . S
C1929 C1931 1.389 . S
C1930 H1903 0.950 . S
C1930 C1916 1.377 . S
C1930 C1929 1.373 . S
C1931 C1915 1.377 . S
C1931 C1929 1.389 . S
C1931 C1932 1.524 . S
C1932 C1931 1.524 . S
C1932 C1933 1.397 . S
C1932 C1937 1.363 . S
C1933 H1904 0.950 . S
C1933 C1932 1.397 . S
C1933 C1934 1.334 . S
C1934 H1905 0.950 . S
C1934 C1933 1.334 . S
C1934 C1935 1.287 . S
C1935 C1934 1.287 . S
C1935 C1936 1.524 . S
C1935 H1938 0.999 . S
C1936 H1906 0.950 . S
C1936 C1935 1.524 . S
C1936 C1937 1.415 . S
C1937 H1907 0.950 . S
C1937 C1932 1.363 . S
C1937 C1936 1.415 . S
H1938 C1935 0.999 . S
H1939 C1920 0.913 . S
H1940 C1958 0.951 . S
H1941 C1960 0.951 . S
H1942 C1962 0.950 . S
H1943 C1963 0.952 . S
H1944 C1965 0.950 . S
H1945 C1968 0.950 . S
H1946 C1969 0.950 . S
H1947 C1971 0.950 . S
H1948 C1972 0.950 . S
H1949 C1973 0.951 . S
H1950 C1975 0.951 . S
H1951 C1977 0.950 . S
H1952 C1978 0.950 . S
H1953 C1980 0.950 . S
H1954 C1983 0.950 . S
H1955 C1984 0.950 . S
H1956 C1986 0.950 . S
H1957 C1987 0.950 . S
C1958 H1940 0.951 . S
C1958 C1959 1.366 . S
C1958 C1960 1.388 . S
C1959 C1958 1.366 . S
C1959 C1963 1.385 . S
C1960 H1941 0.951 . S
C1960 C1958 1.388 . S
C1960 C1961 1.366 . S
C1961 C1960 1.366 . S
C1961 C1962 1.414 . S
C1961 C1964 1.499 . S
C1962 H1942 0.950 . S
C1962 C1961 1.414 . S
C1962 C1963 1.374 . S
C1963 H1943 0.952 . S
C1963 C1959 1.385 . S
C1963 C1962 1.374 . S
C1964 C1961 1.499 . S
C1964 C1965 1.373 . S
C1964 C1966 1.389 . S
C1965 H1944 0.950 . S
C1965 C1964 1.373 . S
C1965 C1981 1.377 . S
C1966 C1964 1.389 . S
C1966 C1967 1.524 . S
C1966 C1980 1.377 . S
C1967 C1966 1.524 . S
C1967 C1968 1.397 . S
C1967 C1972 1.363 . S
C1968 H1945 0.950 . S
C1968 C1967 1.397 . S
C1968 C1969 1.334 . S
C1969 H1946 0.950 . S
C1969 C1968 1.334 . S
C1969 C1970 1.287 . S
C1970 C1969 1.287 . S
C1970 C1971 1.524 . S
C1970 H1989 0.913 . S
C1971 H1947 0.950 . S
C1971 C1970 1.524 . S
C1971 C1972 1.415 . S
C1972 H1948 0.950 . S
C1972 C1967 1.363 . S
C1972 C1971 1.415 . S
C1973 H1949 0.951 . S
C1973 C1974 1.366 . S
C1973 C1975 1.388 . S
C1974 C1973 1.366 . S
C1974 C1978 1.385 . S
C1975 H1950 0.951 . S
C1975 C1973 1.388 . S
C1975 C1976 1.366 . S
C1976 C1975 1.366 . S
C1976 C1977 1.414 . S
C1976 C1979 1.499 . S
C1977 H1951 0.950 . S
C1977 C1976 1.414 . S
C1977 C1978 1.374 . S
C1978 H1952 0.950 . S
C1978 C1974 1.385 . S
C1978 C1977 1.374 . S
C1979 C1976 1.499 . S
C1979 C1980 1.373 . S
C1979 C1981 1.389 . S
C1980 H1953 0.950 . S
C1980 C1966 1.377 . S
C1980 C1979 1.373 . S
C1981 C1965 1.377 . S
C1981 C1979 1.389 . S
C1981 C1982 1.524 . S
C1982 C1981 1.524 . S
C1982 C1983 1.397 . S
C1982 C1987 1.363 . S
C1983 H1954 0.950 . S
C1983 C1982 1.397 . S
C1983 C1984 1.334 . S
C1984 H1955 0.950 . S
C1984 C1983 1.334 . S
C1984 C1985 1.287 . S
C1985 C1984 1.287 . S
C1985 C1986 1.524 . S
C1985 H1988 0.999 . S
C1986 H1956 0.950 . S
C1986 C1985 1.524 . S
C1986 C1987 1.415 . S
C1987 H1957 0.950 . S
C1987 C1982 1.363 . S
C1987 C1986 1.415 . S
H1988 C1985 0.999 . S
H1989 C1970 0.913 . S
H1990 C2008 0.951 . S
H1991 C2010 0.951 . S
H1992 C2012 0.950 . S
H1993 C2013 0.950 . S
H1994 C2015 0.950 . S
H1995 C2018 0.950 . S
H1996 C2019 0.950 . S
H1997 C2021 0.950 . S
H1998 C2022 0.950 . S
H1999 C2023 0.951 1_565 S
H2000 C2025 0.951 . S
H2001 C2027 0.950 . S
H2002 C2028 0.950 . S
H2003 C2030 0.950 . S
H2004 C2033 0.950 . S
H2005 C2034 0.950 . S
H2006 C2036 0.950 . S
H2007 C2037 0.950 . S
C2008 H1990 0.951 . S
C2008 C2009 1.366 . S
C2008 C2010 1.388 . S
C2009 C2008 1.366 . S
C2009 C2013 1.385 . S
C2010 H1991 0.951 . S
C2010 C2008 1.388 . S
C2010 C2011 1.366 . S
C2011 C2010 1.366 . S
C2011 C2012 1.414 . S
C2011 C2014 1.499 . S
C2012 H1992 0.950 . S
C2012 C2011 1.414 . S
C2012 C2013 1.374 . S
C2013 H1993 0.950 . S
C2013 C2009 1.385 . S
C2013 C2012 1.374 . S
C2014 C2011 1.499 . S
C2014 C2015 1.373 . S
C2014 C2016 1.389 . S
C2015 H1994 0.950 . S
C2015 C2014 1.373 . S
C2015 C2031 1.377 . S
C2016 C2014 1.389 . S
C2016 C2017 1.524 . S
C2016 C2030 1.377 . S
C2017 C2016 1.524 . S
C2017 C2018 1.397 . S
C2017 C2022 1.363 . S
C2018 H1995 0.950 . S
C2018 C2017 1.397 . S
C2018 C2019 1.334 . S
C2019 H1996 0.950 . S
C2019 C2018 1.334 . S
C2019 C2020 1.287 . S
C2020 C2019 1.287 . S
C2020 C2021 1.524 . S
C2020 H2039 0.913 . S
C2021 H1997 0.950 . S
C2021 C2020 1.524 . S
C2021 C2022 1.415 . S
C2022 H1998 0.950 . S
C2022 C2017 1.363 . S
C2022 C2021 1.415 . S
C2023 H1999 0.951 1_545 S
C2023 C2024 1.366 . S
C2023 C2025 1.388 . S
C2024 C2023 1.366 . S
C2024 C2028 1.385 . S
C2025 H2000 0.951 . S
C2025 C2023 1.388 . S
C2025 C2026 1.366 . S
C2026 C2025 1.366 . S
C2026 C2027 1.414 . S
C2026 C2029 1.499 . S
C2027 H2001 0.950 . S
C2027 C2026 1.414 . S
C2027 C2028 1.374 . S
C2028 H2002 0.950 . S
C2028 C2024 1.385 . S
C2028 C2027 1.374 . S
C2029 C2026 1.499 . S
C2029 C2030 1.373 . S
C2029 C2031 1.389 . S
C2030 H2003 0.950 . S
C2030 C2016 1.377 . S
C2030 C2029 1.373 . S
C2031 C2015 1.377 . S
C2031 C2029 1.389 . S
C2031 C2032 1.524 . S
C2032 C2031 1.524 . S
C2032 C2033 1.397 . S
C2032 C2037 1.363 1_545 S
C2033 H2004 0.950 . S
C2033 C2032 1.397 . S
C2033 C2034 1.334 1_545 S
C2034 H2005 0.950 . S
C2034 C2033 1.334 1_565 S
C2034 C2035 1.287 . S
C2035 C2034 1.287 . S
C2035 C2036 1.524 . S
C2035 H2038 0.999 . S
C2036 H2006 0.950 . S
C2036 C2035 1.524 . S
C2036 C2037 1.415 . S
C2037 H2007 0.950 . S
C2037 C2032 1.363 1_565 S
C2037 C2036 1.415 . S
H2038 C2035 0.999 . S
H2039 C2020 0.913 . S
H2040 C2058 0.951 . S
H2041 C2060 0.951 . S
H2042 C2062 0.950 . S
H2043 C2063 0.950 . S
H2044 C2065 0.950 . S
H2045 C2068 0.950 . S
H2046 C2069 0.950 . S
H2047 C2071 0.950 . S
H2048 C2072 0.950 . S
H2049 C2073 0.951 . S
H2050 C2075 0.951 . S
H2051 C2077 0.950 . S
H2052 C2078 0.950 1_565 S
H2053 C2080 0.950 . S
H2054 C2083 0.950 . S
H2055 C2084 0.950 . S
H2056 C2086 0.950 . S
H2057 C2087 0.950 . S
C2058 H2040 0.951 . S
C2058 C2059 1.366 . S
C2058 C2060 1.388 . S
C2059 C2058 1.366 . S
C2059 C2063 1.385 . S
C2060 H2041 0.951 . S
C2060 C2058 1.388 . S
C2060 C2061 1.366 . S
C2061 C2060 1.366 . S
C2061 C2062 1.414 . S
C2061 C2064 1.499 . S
C2062 H2042 0.950 . S
C2062 C2061 1.414 . S
C2062 C2063 1.374 . S
C2063 H2043 0.950 . S
C2063 C2059 1.385 . S
C2063 C2062 1.374 . S
C2064 C2061 1.499 . S
C2064 C2065 1.373 . S
C2064 C2066 1.389 . S
C2065 H2044 0.950 . S
C2065 C2064 1.373 . S
C2065 C2081 1.377 . S
C2066 C2064 1.389 . S
C2066 C2067 1.524 . S
C2066 C2080 1.377 . S
C2067 C2066 1.524 . S
C2067 C2068 1.397 . S
C2067 C2072 1.363 . S
C2068 H2045 0.950 . S
C2068 C2067 1.397 . S
C2068 C2069 1.334 . S
C2069 H2046 0.950 . S
C2069 C2068 1.334 . S
C2069 C2070 1.287 . S
C2070 C2069 1.287 . S
C2070 C2071 1.524 . S
C2070 H2089 0.913 . S
C2071 H2047 0.950 . S
C2071 C2070 1.524 . S
C2071 C2072 1.415 . S
C2072 H2048 0.950 . S
C2072 C2067 1.363 . S
C2072 C2071 1.415 . S
C2073 H2049 0.951 . S
C2073 C2074 1.366 . S
C2073 C2075 1.388 . S
C2074 C2073 1.366 . S
C2074 C2078 1.385 . S
C2075 H2050 0.951 . S
C2075 C2073 1.388 . S
C2075 C2076 1.366 . S
C2076 C2075 1.366 . S
C2076 C2077 1.414 . S
C2076 C2079 1.499 . S
C2077 H2051 0.950 . S
C2077 C2076 1.414 . S
C2077 C2078 1.374 . S
C2078 H2052 0.950 1_545 S
C2078 C2074 1.385 . S
C2078 C2077 1.374 . S
C2079 C2076 1.499 . S
C2079 C2080 1.373 . S
C2079 C2081 1.389 . S
C2080 H2053 0.950 . S
C2080 C2066 1.377 . S
C2080 C2079 1.373 . S
C2081 C2065 1.377 . S
C2081 C2079 1.389 . S
C2081 C2082 1.524 . S
C2082 C2081 1.524 . S
C2082 C2083 1.397 . S
C2082 C2087 1.363 . S
C2083 H2054 0.950 . S
C2083 C2082 1.397 . S
C2083 C2084 1.334 . S
C2084 H2055 0.950 . S
C2084 C2083 1.334 . S
C2084 C2085 1.287 . S
C2085 C2084 1.287 . S
C2085 C2086 1.524 . S
C2085 H2088 0.999 . S
C2086 H2056 0.950 . S
C2086 C2085 1.524 . S
C2086 C2087 1.415 . S
C2087 H2057 0.950 . S
C2087 C2082 1.363 . S
C2087 C2086 1.415 . S
H2088 C2085 0.999 . S
H2089 C2070 0.913 . S
H2090 C2108 0.951 . S
H2091 C2110 0.951 . S
H2092 C2112 0.950 . S
H2093 C2113 0.950 . S
H2094 C2115 0.950 . S
H2095 C2118 0.950 . S
H2096 C2119 0.950 . S
H2097 C2121 0.950 . S
H2098 C2122 0.950 . S
H2099 C2123 0.951 . S
H2100 C2125 0.951 . S
H2101 C2127 0.950 . S
H2102 C2128 0.950 . S
H2103 C2130 0.950 . S
H2104 C2133 0.950 . S
H2105 C2134 0.950 . S
H2106 C2136 0.950 . S
H2107 C2137 0.950 . S
C2108 H2090 0.951 . S
C2108 C2109 1.366 . S
C2108 C2110 1.388 . S
C2109 C2108 1.366 . S
C2109 C2113 1.385 . S
C2110 H2091 0.951 . S
C2110 C2108 1.388 . S
C2110 C2111 1.366 . S
C2111 C2110 1.366 . S
C2111 C2112 1.414 . S
C2111 C2114 1.499 . S
C2112 H2092 0.950 . S
C2112 C2111 1.414 . S
C2112 C2113 1.374 . S
C2113 H2093 0.950 . S
C2113 C2109 1.385 . S
C2113 C2112 1.374 . S
C2114 C2111 1.499 . S
C2114 C2115 1.373 . S
C2114 C2116 1.389 . S
C2115 H2094 0.950 . S
C2115 C2114 1.373 . S
C2115 C2131 1.377 . S
C2116 C2114 1.389 . S
C2116 C2117 1.524 . S
C2116 C2130 1.377 . S
C2117 C2116 1.524 . S
C2117 C2118 1.397 1_545 S
C2117 C2122 1.363 . S
C2118 H2095 0.950 . S
C2118 C2117 1.397 1_565 S
C2118 C2119 1.334 . S
C2119 H2096 0.950 . S
C2119 C2118 1.334 . S
C2119 C2120 1.287 . S
C2120 C2119 1.287 . S
C2120 C2121 1.524 . S
C2120 H2139 0.913 . S
C2121 H2097 0.950 . S
C2121 C2120 1.524 . S
C2121 C2122 1.415 1_565 S
C2122 H2098 0.950 . S
C2122 C2117 1.363 . S
C2122 C2121 1.415 1_545 S
C2123 H2099 0.951 . S
C2123 C2124 1.366 . S
C2123 C2125 1.388 . S
C2124 C2123 1.366 . S
C2124 C2128 1.385 . S
C2125 H2100 0.951 . S
C2125 C2123 1.388 . S
C2125 C2126 1.366 . S
C2126 C2125 1.366 . S
C2126 C2127 1.414 . S
C2126 C2129 1.499 . S
C2127 H2101 0.950 . S
C2127 C2126 1.414 . S
C2127 C2128 1.374 . S
C2128 H2102 0.950 . S
C2128 C2124 1.385 . S
C2128 C2127 1.374 . S
C2129 C2126 1.499 . S
C2129 C2130 1.373 . S
C2129 C2131 1.389 . S
C2130 H2103 0.950 . S
C2130 C2116 1.377 . S
C2130 C2129 1.373 . S
C2131 C2115 1.377 . S
C2131 C2129 1.389 . S
C2131 C2132 1.524 . S
C2132 C2131 1.524 . S
C2132 C2133 1.397 . S
C2132 C2137 1.363 . S
C2133 H2104 0.950 . S
C2133 C2132 1.397 . S
C2133 C2134 1.334 . S
C2134 H2105 0.950 . S
C2134 C2133 1.334 . S
C2134 C2135 1.287 . S
C2135 C2134 1.287 . S
C2135 C2136 1.524 . S
C2135 H2138 0.999 . S
C2136 H2106 0.950 . S
C2136 C2135 1.524 . S
C2136 C2137 1.415 . S
C2137 H2107 0.950 . S
C2137 C2132 1.363 . S
C2137 C2136 1.415 . S
H2138 C2135 0.999 . S
H2139 C2120 0.913 . S
H2140 C2158 0.951 . S
H2141 C2160 0.951 . S
H2142 C2162 0.950 . S
H2143 C2163 0.950 1_545 S
H2144 C2165 0.950 . S
H2145 C2168 0.950 . S
H2146 C2169 0.950 . S
H2147 C2171 0.950 . S
H2148 C2172 0.950 . S
H2149 C2173 0.951 . S
H2150 C2175 0.951 . S
H2151 C2177 0.950 . S
H2152 C2178 0.950 . S
H2153 C2180 0.950 . S
H2154 C2183 0.950 . S
H2155 C2184 0.950 . S
H2156 C2186 0.950 . S
H2157 C2187 0.950 . S
C2158 H2140 0.951 . S
C2158 C2159 1.366 . S
C2158 C2160 1.388 . S
C2159 C2158 1.366 . S
C2159 C2163 1.385 . S
C2160 H2141 0.951 . S
C2160 C2158 1.388 . S
C2160 C2161 1.366 . S
C2161 C2160 1.366 . S
C2161 C2162 1.414 . S
C2161 C2164 1.499 . S
C2162 H2142 0.950 . S
C2162 C2161 1.414 . S
C2162 C2163 1.374 . S
C2163 H2143 0.950 1_565 S
C2163 C2159 1.385 . S
C2163 C2162 1.374 . S
C2164 C2161 1.499 . S
C2164 C2165 1.373 . S
C2164 C2166 1.389 . S
C2165 H2144 0.950 . S
C2165 C2164 1.373 . S
C2165 C2181 1.377 . S
C2166 C2164 1.389 . S
C2166 C2167 1.524 . S
C2166 C2180 1.377 . S
C2167 C2166 1.524 . S
C2167 C2168 1.397 . S
C2167 C2172 1.363 . S
C2168 H2145 0.950 . S
C2168 C2167 1.397 . S
C2168 C2169 1.334 . S
C2169 H2146 0.950 . S
C2169 C2168 1.334 . S
C2169 C2170 1.287 . S
C2170 C2169 1.287 . S
C2170 C2171 1.524 . S
C2170 H2189 0.913 . S
C2171 H2147 0.950 . S
C2171 C2170 1.524 . S
C2171 C2172 1.415 . S
C2172 H2148 0.950 . S
C2172 C2167 1.363 . S
C2172 C2171 1.415 . S
C2173 H2149 0.951 . S
C2173 C2174 1.366 . S
C2173 C2175 1.388 . S
C2174 C2173 1.366 . S
C2174 C2178 1.385 . S
C2175 H2150 0.951 . S
C2175 C2173 1.388 . S
C2175 C2176 1.366 . S
C2176 C2175 1.366 . S
C2176 C2177 1.414 . S
C2176 C2179 1.499 . S
C2177 H2151 0.950 . S
C2177 C2176 1.414 . S
C2177 C2178 1.374 . S
C2178 H2152 0.950 . S
C2178 C2174 1.385 . S
C2178 C2177 1.374 . S
C2179 C2176 1.499 . S
C2179 C2180 1.373 . S
C2179 C2181 1.389 . S
C2180 H2153 0.950 . S
C2180 C2166 1.377 . S
C2180 C2179 1.373 . S
C2181 C2165 1.377 . S
C2181 C2179 1.389 . S
C2181 C2182 1.524 . S
C2182 C2181 1.524 . S
C2182 C2183 1.397 . S
C2182 C2187 1.363 . S
C2183 H2154 0.950 . S
C2183 C2182 1.397 . S
C2183 C2184 1.334 . S
C2184 H2155 0.950 . S
C2184 C2183 1.334 . S
C2184 C2185 1.287 . S
C2185 C2184 1.287 . S
C2185 C2186 1.524 . S
C2185 H2188 0.999 . S
C2186 H2156 0.950 . S
C2186 C2185 1.524 . S
C2186 C2187 1.415 . S
C2187 H2157 0.950 . S
C2187 C2182 1.363 . S
C2187 C2186 1.415 . S
H2188 C2185 0.999 . S
H2189 C2170 0.913 . S
H2190 C2208 0.951 . S
H2191 C2210 0.951 . S
H2192 C2212 0.950 . S
H2193 C2213 0.950 1_545 S
H2194 C2215 0.950 . S
H2195 C2218 0.950 . S
H2196 C2219 0.950 . S
H2197 C2221 0.950 . S
H2198 C2222 0.950 . S
H2199 C2223 0.951 . S
H2200 C2225 0.951 . S
H2201 C2227 0.950 . S
H2202 C2228 0.950 . S
H2203 C2230 0.950 . S
H2204 C2233 0.950 . S
H2205 C2234 0.950 . S
H2206 C2236 0.950 1_545 S
H2207 C2237 0.950 . S
C2208 H2190 0.951 . S
C2208 C2209 1.366 . S
C2208 C2210 1.388 . S
C2209 C2208 1.366 . S
C2209 C2213 1.385 . S
C2210 H2191 0.951 . S
C2210 C2208 1.388 . S
C2210 C2211 1.366 . S
C2211 C2210 1.366 . S
C2211 C2212 1.414 . S
C2211 C2214 1.499 . S
C2212 H2192 0.950 . S
C2212 C2211 1.414 . S
C2212 C2213 1.374 . S
C2213 H2193 0.950 1_565 S
C2213 C2209 1.385 . S
C2213 C2212 1.374 . S
C2214 C2211 1.499 . S
C2214 C2215 1.373 . S
C2214 C2216 1.389 . S
C2215 H2194 0.950 . S
C2215 C2214 1.373 . S
C2215 C2231 1.377 . S
C2216 C2214 1.389 . S
C2216 C2217 1.524 . S
C2216 C2230 1.377 . S
C2217 C2216 1.524 . S
C2217 C2218 1.397 . S
C2217 C2222 1.363 . S
C2218 H2195 0.950 . S
C2218 C2217 1.397 . S
C2218 C2219 1.334 . S
C2219 H2196 0.950 . S
C2219 C2218 1.334 . S
C2219 C2220 1.287 . S
C2220 C2219 1.287 . S
C2220 C2221 1.524 . S
C2220 H2239 0.913 . S
C2221 H2197 0.950 . S
C2221 C2220 1.524 . S
C2221 C2222 1.415 . S
C2222 H2198 0.950 . S
C2222 C2217 1.363 . S
C2222 C2221 1.415 . S
C2223 H2199 0.951 . S
C2223 C2224 1.366 . S
C2223 C2225 1.388 . S
C2224 C2223 1.366 . S
C2224 C2228 1.385 . S
C2225 H2200 0.951 . S
C2225 C2223 1.388 . S
C2225 C2226 1.366 . S
C2226 C2225 1.366 . S
C2226 C2227 1.414 . S
C2226 C2229 1.499 . S
C2227 H2201 0.950 . S
C2227 C2226 1.414 . S
C2227 C2228 1.374 . S
C2228 H2202 0.950 . S
C2228 C2224 1.385 . S
C2228 C2227 1.374 . S
C2229 C2226 1.499 . S
C2229 C2230 1.373 . S
C2229 C2231 1.389 . S
C2230 H2203 0.950 . S
C2230 C2216 1.377 . S
C2230 C2229 1.373 . S
C2231 C2215 1.377 . S
C2231 C2229 1.389 . S
C2231 C2232 1.524 . S
C2232 C2231 1.524 . S
C2232 C2233 1.397 . S
C2232 C2237 1.363 . S
C2233 H2204 0.950 . S
C2233 C2232 1.397 . S
C2233 C2234 1.334 . S
C2234 H2205 0.950 . S
C2234 C2233 1.334 . S
C2234 C2235 1.287 . S
C2235 C2234 1.287 . S
C2235 C2236 1.524 . S
C2235 H2238 0.999 . S
C2236 H2206 0.950 1_565 S
C2236 C2235 1.524 . S
C2236 C2237 1.415 . S
C2237 H2207 0.950 . S
C2237 C2232 1.363 . S
C2237 C2236 1.415 . S
H2238 C2235 0.999 . S
H2239 C2220 0.913 . S
H2240 C2258 0.951 . S
H2241 C2260 0.954 . S
H2242 C2262 0.950 . S
H2243 C2263 0.950 . S
H2244 C2265 0.950 . S
H2245 C2268 0.950 . S
H2246 C2269 0.950 . S
H2247 C2271 0.950 1_565 S
H2248 C2272 0.950 . S
H2249 C2273 0.951 . S
H2250 C2275 0.951 . S
H2251 C2277 0.950 . S
H2252 C2278 0.950 . S
H2253 C2280 0.950 . S
H2254 C2283 0.950 . S
H2255 C2284 0.950 . S
H2256 C2286 0.950 . S
H2257 C2287 0.950 . S
C2258 H2240 0.951 . S
C2258 C2259 1.366 . S
C2258 C2260 1.388 . S
C2259 C2258 1.366 . S
C2259 C2263 1.385 . S
C2260 H2241 0.954 . S
C2260 C2258 1.388 . S
C2260 C2261 1.366 1_554 S
C2261 C2260 1.366 1_556 S
C2261 C2262 1.414 . S
C2261 C2264 1.499 . S
C2262 H2242 0.950 . S
C2262 C2261 1.414 . S
C2262 C2263 1.374 1_556 S
C2263 H2243 0.950 . S
C2263 C2259 1.385 . S
C2263 C2262 1.374 1_554 S
C2264 C2261 1.499 . S
C2264 C2265 1.373 . S
C2264 C2266 1.389 . S
C2265 H2244 0.950 . S
C2265 C2264 1.373 . S
C2265 C2281 1.377 . S
C2266 C2264 1.389 . S
C2266 C2267 1.524 . S
C2266 C2280 1.377 . S
C2267 C2266 1.524 . S
C2267 C2268 1.397 . S
C2267 C2272 1.363 . S
C2268 H2245 0.950 . S
C2268 C2267 1.397 . S
C2268 C2269 1.334 . S
C2269 H2246 0.950 . S
C2269 C2268 1.334 . S
C2269 C2270 1.287 . S
C2270 C2269 1.287 . S
C2270 C2271 1.524 . S
C2270 H2289 0.913 1_545 S
C2271 H2247 0.950 1_545 S
C2271 C2270 1.524 . S
C2271 C2272 1.415 . S
C2272 H2248 0.950 . S
C2272 C2267 1.363 . S
C2272 C2271 1.415 . S
C2273 H2249 0.951 . S
C2273 C2274 1.366 . S
C2273 C2275 1.388 . S
C2274 C2273 1.366 . S
C2274 C2278 1.385 . S
C2275 H2250 0.951 . S
C2275 C2273 1.388 . S
C2275 C2276 1.366 . S
C2276 C2275 1.366 . S
C2276 C2277 1.414 . S
C2276 C2279 1.499 . S
C2277 H2251 0.950 . S
C2277 C2276 1.414 . S
C2277 C2278 1.374 . S
C2278 H2252 0.950 . S
C2278 C2274 1.385 . S
C2278 C2277 1.374 . S
C2279 C2276 1.499 . S
C2279 C2280 1.373 . S
C2279 C2281 1.389 . S
C2280 H2253 0.950 . S
C2280 C2266 1.377 . S
C2280 C2279 1.373 . S
C2281 C2265 1.377 . S
C2281 C2279 1.389 . S
C2281 C2282 1.524 . S
C2282 C2281 1.524 . S
C2282 C2283 1.397 . S
C2282 C2287 1.363 . S
C2283 H2254 0.950 . S
C2283 C2282 1.397 . S
C2283 C2284 1.334 . S
C2284 H2255 0.950 . S
C2284 C2283 1.334 . S
C2284 C2285 1.287 . S
C2285 C2284 1.287 . S
C2285 C2286 1.524 . S
C2285 H2288 0.999 . S
C2286 H2256 0.950 . S
C2286 C2285 1.524 . S
C2286 C2287 1.415 . S
C2287 H2257 0.950 . S
C2287 C2282 1.363 . S
C2287 C2286 1.415 . S
H2288 C2285 0.999 . S
H2289 C2270 0.913 1_565 S
H2290 C2308 0.951 . S
H2291 C2310 0.951 . S
H2292 C2312 0.950 . S
H2293 C2313 0.950 . S
H2294 C2315 0.950 . S
H2295 C2318 0.950 . S
H2296 C2319 0.950 . S
H2297 C2321 0.950 . S
H2298 C2322 0.950 . S
H2299 C2323 0.951 . S
H2300 C2325 0.951 . S
H2301 C2327 0.950 . S
H2302 C2328 0.950 . S
H2303 C2330 0.950 . S
H2304 C2333 0.950 . S
H2305 C2334 0.950 . S
H2306 C2336 0.950 . S
H2307 C2337 0.950 . S
C2308 H2290 0.951 . S
C2308 C2309 1.366 . S
C2308 C2310 1.388 . S
C2309 C2308 1.366 . S
C2309 C2313 1.385 . S
C2310 H2291 0.951 . S
C2310 C2308 1.388 . S
C2310 C2311 1.366 . S
C2311 C2310 1.366 . S
C2311 C2312 1.414 . S
C2311 C2314 1.499 . S
C2312 H2292 0.950 . S
C2312 C2311 1.414 . S
C2312 C2313 1.374 . S
C2313 H2293 0.950 . S
C2313 C2309 1.385 . S
C2313 C2312 1.374 . S
C2314 C2311 1.499 . S
C2314 C2315 1.373 . S
C2314 C2316 1.389 . S
C2315 H2294 0.950 . S
C2315 C2314 1.373 . S
C2315 C2331 1.377 . S
C2316 C2314 1.389 . S
C2316 C2317 1.524 . S
C2316 C2330 1.377 . S
C2317 C2316 1.524 . S
C2317 C2318 1.397 . S
C2317 C2322 1.363 . S
C2318 H2295 0.950 . S
C2318 C2317 1.397 . S
C2318 C2319 1.334 . S
C2319 H2296 0.950 . S
C2319 C2318 1.334 . S
C2319 C2320 1.287 . S
C2320 C2319 1.287 . S
C2320 C2321 1.524 . S
C2320 H2339 0.913 . S
C2321 H2297 0.950 . S
C2321 C2320 1.524 . S
C2321 C2322 1.415 . S
C2322 H2298 0.950 . S
C2322 C2317 1.363 . S
C2322 C2321 1.415 . S
C2323 H2299 0.951 . S
C2323 C2324 1.366 . S
C2323 C2325 1.388 . S
C2324 C2323 1.366 . S
C2324 C2328 1.385 . S
C2325 H2300 0.951 . S
C2325 C2323 1.388 . S
C2325 C2326 1.366 . S
C2326 C2325 1.366 . S
C2326 C2327 1.414 . S
C2326 C2329 1.499 . S
C2327 H2301 0.950 . S
C2327 C2326 1.414 . S
C2327 C2328 1.374 . S
C2328 H2302 0.950 . S
C2328 C2324 1.385 . S
C2328 C2327 1.374 . S
C2329 C2326 1.499 . S
C2329 C2330 1.373 . S
C2329 C2331 1.389 . S
C2330 H2303 0.950 . S
C2330 C2316 1.377 . S
C2330 C2329 1.373 . S
C2331 C2315 1.377 . S
C2331 C2329 1.389 . S
C2331 C2332 1.524 . S
C2332 C2331 1.524 . S
C2332 C2333 1.397 . S
C2332 C2337 1.363 . S
C2333 H2304 0.950 . S
C2333 C2332 1.397 . S
C2333 C2334 1.334 . S
C2334 H2305 0.950 . S
C2334 C2333 1.334 . S
C2334 C2335 1.287 . S
C2335 C2334 1.287 . S
C2335 C2336 1.524 . S
C2335 H2338 0.999 . S
C2336 H2306 0.950 . S
C2336 C2335 1.524 . S
C2336 C2337 1.415 . S
C2337 H2307 0.950 . S
C2337 C2332 1.363 . S
C2337 C2336 1.415 . S
H2338 C2335 0.999 . S
H2339 C2320 0.913 . S
H2340 C2358 0.951 . S
H2341 C2360 0.951 . S
H2342 C2362 0.950 . S
H2343 C2363 0.950 . S
H2344 C2365 0.950 . S
H2345 C2368 0.950 . S
H2346 C2369 0.950 . S
H2347 C2371 0.950 1_545 S
H2348 C2372 0.950 . S
H2349 C2373 0.951 . S
H2350 C2375 0.951 . S
H2351 C2377 0.950 . S
H2352 C2378 0.950 . S
H2353 C2380 0.950 . S
H2354 C2383 0.950 . S
H2355 C2384 0.950 . S
H2356 C2386 0.950 . S
H2357 C2387 0.950 . S
C2358 H2340 0.951 . S
C2358 C2359 1.366 . S
C2358 C2360 1.388 . S
C2359 C2358 1.366 . S
C2359 C2363 1.385 . S
C2360 H2341 0.951 . S
C2360 C2358 1.388 . S
C2360 C2361 1.366 . S
C2361 C2360 1.366 . S
C2361 C2362 1.414 . S
C2361 C2364 1.499 . S
C2362 H2342 0.950 . S
C2362 C2361 1.414 . S
C2362 C2363 1.374 . S
C2363 H2343 0.950 . S
C2363 C2359 1.385 . S
C2363 C2362 1.374 . S
C2364 C2361 1.499 . S
C2364 C2365 1.373 . S
C2364 C2366 1.389 . S
C2365 H2344 0.950 . S
C2365 C2364 1.373 . S
C2365 C2381 1.377 . S
C2366 C2364 1.389 . S
C2366 C2367 1.524 . S
C2366 C2380 1.377 . S
C2367 C2366 1.524 . S
C2367 C2368 1.397 . S
C2367 C2372 1.363 . S
C2368 H2345 0.950 . S
C2368 C2367 1.397 . S
C2368 C2369 1.334 . S
C2369 H2346 0.950 . S
C2369 C2368 1.334 . S
C2369 C2370 1.287 . S
C2370 C2369 1.287 . S
C2370 C2371 1.524 . S
C2370 H2389 0.913 1_565 S
C2371 H2347 0.950 1_565 S
C2371 C2370 1.524 . S
C2371 C2372 1.415 . S
C2372 H2348 0.950 . S
C2372 C2367 1.363 . S
C2372 C2371 1.415 . S
C2373 H2349 0.951 . S
C2373 C2374 1.366 . S
C2373 C2375 1.388 . S
C2374 C2373 1.366 . S
C2374 C2378 1.385 . S
C2375 H2350 0.951 . S
C2375 C2373 1.388 . S
C2375 C2376 1.366 . S
C2376 C2375 1.366 . S
C2376 C2377 1.414 . S
C2376 C2379 1.499 . S
C2377 H2351 0.950 . S
C2377 C2376 1.414 . S
C2377 C2378 1.374 . S
C2378 H2352 0.950 . S
C2378 C2374 1.385 . S
C2378 C2377 1.374 . S
C2379 C2376 1.499 . S
C2379 C2380 1.373 . S
C2379 C2381 1.389 . S
C2380 H2353 0.950 . S
C2380 C2366 1.377 . S
C2380 C2379 1.373 . S
C2381 C2365 1.377 . S
C2381 C2379 1.389 . S
C2381 C2382 1.524 . S
C2382 C2381 1.524 . S
C2382 C2383 1.397 . S
C2382 C2387 1.363 . S
C2383 H2354 0.950 . S
C2383 C2382 1.397 . S
C2383 C2384 1.334 . S
C2384 H2355 0.950 . S
C2384 C2383 1.334 . S
C2384 C2385 1.287 . S
C2385 C2384 1.287 . S
C2385 C2386 1.524 . S
C2385 H2388 0.999 . S
C2386 H2356 0.950 . S
C2386 C2385 1.524 . S
C2386 C2387 1.415 . S
C2387 H2357 0.950 . S
C2387 C2382 1.363 . S
C2387 C2386 1.415 . S
H2388 C2385 0.999 . S
H2389 C2370 0.913 1_545 S
H2390 C2408 0.951 . S
H2391 C2410 0.951 . S
H2392 C2412 0.950 . S
H2393 C2413 0.950 . S
H2394 C2415 0.950 . S
H2395 C2418 0.950 . S
H2396 C2419 0.950 . S
H2397 C2421 0.950 . S
H2398 C2422 0.950 . S
H2399 C2423 0.951 . S
H2400 C2425 0.951 . S
H2401 C2427 0.950 . S
H2402 C2428 0.950 . S
H2403 C2430 0.950 . S
H2404 C2433 0.950 . S
H2405 C2434 0.950 . S
H2406 C2436 0.950 . S
H2407 C2437 0.950 . S
C2408 H2390 0.951 . S
C2408 C2409 1.366 . S
C2408 C2410 1.388 . S
C2409 C2408 1.366 . S
C2409 C2413 1.385 . S
C2410 H2391 0.951 . S
C2410 C2408 1.388 . S
C2410 C2411 1.366 . S
C2411 C2410 1.366 . S
C2411 C2412 1.414 . S
C2411 C2414 1.499 . S
C2412 H2392 0.950 . S
C2412 C2411 1.414 . S
C2412 C2413 1.374 . S
C2413 H2393 0.950 . S
C2413 C2409 1.385 . S
C2413 C2412 1.374 . S
C2414 C2411 1.499 . S
C2414 C2415 1.373 . S
C2414 C2416 1.389 . S
C2415 H2394 0.950 . S
C2415 C2414 1.373 . S
C2415 C2431 1.377 . S
C2416 C2414 1.389 . S
C2416 C2417 1.524 . S
C2416 C2430 1.377 . S
C2417 C2416 1.524 . S
C2417 C2418 1.397 . S
C2417 C2422 1.363 . S
C2418 H2395 0.950 . S
C2418 C2417 1.397 . S
C2418 C2419 1.334 . S
C2419 H2396 0.950 . S
C2419 C2418 1.334 . S
C2419 C2420 1.287 . S
C2420 C2419 1.287 . S
C2420 C2421 1.524 . S
C2420 H2439 0.913 . S
C2421 H2397 0.950 . S
C2421 C2420 1.524 . S
C2421 C2422 1.415 . S
C2422 H2398 0.950 . S
C2422 C2417 1.363 . S
C2422 C2421 1.415 . S
C2423 H2399 0.951 . S
C2423 C2424 1.366 . S
C2423 C2425 1.388 . S
C2424 C2423 1.366 . S
C2424 C2428 1.385 . S
C2425 H2400 0.951 . S
C2425 C2423 1.388 . S
C2425 C2426 1.366 . S
C2426 C2425 1.366 . S
C2426 C2427 1.414 . S
C2426 C2429 1.499 . S
C2427 H2401 0.950 . S
C2427 C2426 1.414 . S
C2427 C2428 1.374 . S
C2428 H2402 0.950 . S
C2428 C2424 1.385 . S
C2428 C2427 1.374 . S
C2429 C2426 1.499 . S
C2429 C2430 1.373 . S
C2429 C2431 1.389 . S
C2430 H2403 0.950 . S
C2430 C2416 1.377 . S
C2430 C2429 1.373 . S
C2431 C2415 1.377 . S
C2431 C2429 1.389 . S
C2431 C2432 1.524 . S
C2432 C2431 1.524 . S
C2432 C2433 1.397 . S
C2432 C2437 1.363 . S
C2433 H2404 0.950 . S
C2433 C2432 1.397 . S
C2433 C2434 1.334 . S
C2434 H2405 0.950 . S
C2434 C2433 1.334 . S
C2434 C2435 1.287 . S
C2435 C2434 1.287 . S
C2435 C2436 1.524 . S
C2435 H2438 0.999 . S
C2436 H2406 0.950 . S
C2436 C2435 1.524 . S
C2436 C2437 1.415 . S
C2437 H2407 0.950 . S
C2437 C2432 1.363 . S
C2437 C2436 1.415 . S
H2438 C2435 0.999 . S
H2439 C2420 0.913 . S
H2440 C2458 0.951 . S
H2441 C2460 0.951 . S
H2442 C2462 0.950 . S
H2443 C2463 0.950 . S
H2444 C2465 0.950 . S
H2445 C2468 0.950 . S
H2446 C2469 0.950 . S
H2447 C2471 0.950 . S
H2448 C2472 0.950 . S
H2449 C2473 0.951 . S
H2450 C2475 0.951 . S
H2451 C2477 0.950 . S
H2452 C2478 0.950 . S
H2453 C2480 0.950 . S
H2454 C2483 0.950 . S
H2455 C2484 0.950 . S
H2456 C2486 0.950 1_545 S
H2457 C2487 0.950 . S
C2458 H2440 0.951 . S
C2458 C2459 1.366 . S
C2458 C2460 1.388 . S
C2459 C2458 1.366 . S
C2459 C2463 1.385 . S
C2460 H2441 0.951 . S
C2460 C2458 1.388 . S
C2460 C2461 1.366 . S
C2461 C2460 1.366 . S
C2461 C2462 1.414 . S
C2461 C2464 1.499 . S
C2462 H2442 0.950 . S
C2462 C2461 1.414 . S
C2462 C2463 1.374 . S
C2463 H2443 0.950 . S
C2463 C2459 1.385 . S
C2463 C2462 1.374 . S
C2464 C2461 1.499 . S
C2464 C2465 1.373 . S
C2464 C2466 1.389 . S
C2465 H2444 0.950 . S
C2465 C2464 1.373 . S
C2465 C2481 1.377 . S
C2466 C2464 1.389 . S
C2466 C2467 1.524 . S
C2466 C2480 1.377 . S
C2467 C2466 1.524 . S
C2467 C2468 1.397 . S
C2467 C2472 1.363 . S
C2468 H2445 0.950 . S
C2468 C2467 1.397 . S
C2468 C2469 1.334 . S
C2469 H2446 0.950 . S
C2469 C2468 1.334 . S
C2469 C2470 1.287 . S
C2470 C2469 1.287 . S
C2470 C2471 1.524 . S
C2470 H2489 0.913 . S
C2471 H2447 0.950 . S
C2471 C2470 1.524 . S
C2471 C2472 1.415 . S
C2472 H2448 0.950 . S
C2472 C2467 1.363 . S
C2472 C2471 1.415 . S
C2473 H2449 0.951 . S
C2473 C2474 1.366 . S
C2473 C2475 1.388 . S
C2474 C2473 1.366 . S
C2474 C2478 1.385 . S
C2475 H2450 0.951 . S
C2475 C2473 1.388 . S
C2475 C2476 1.366 1_556 S
C2476 C2475 1.366 1_554 S
C2476 C2477 1.414 . S
C2476 C2479 1.499 . S
C2477 H2451 0.950 . S
C2477 C2476 1.414 . S
C2477 C2478 1.374 1_554 S
C2478 H2452 0.950 . S
C2478 C2474 1.385 . S
C2478 C2477 1.374 1_556 S
C2479 C2476 1.499 . S
C2479 C2480 1.373 . S
C2479 C2481 1.389 . S
C2480 H2453 0.950 . S
C2480 C2466 1.377 . S
C2480 C2479 1.373 . S
C2481 C2465 1.377 . S
C2481 C2479 1.389 . S
C2481 C2482 1.524 . S
C2482 C2481 1.524 . S
C2482 C2483 1.397 . S
C2482 C2487 1.363 . S
C2483 H2454 0.950 . S
C2483 C2482 1.397 . S
C2483 C2484 1.334 . S
C2484 H2455 0.950 . S
C2484 C2483 1.334 . S
C2484 C2485 1.287 . S
C2485 C2484 1.287 . S
C2485 C2486 1.524 . S
C2485 H2488 0.999 1_565 S
C2486 H2456 0.950 1_565 S
C2486 C2485 1.524 . S
C2486 C2487 1.415 . S
C2487 H2457 0.950 . S
C2487 C2482 1.363 . S
C2487 C2486 1.415 . S
H2488 C2485 0.999 1_545 S
H2489 C2470 0.913 . S
H2490 C2508 0.951 . S
H2491 C2510 0.951 . S
H2492 C2512 0.950 . S
H2493 C2513 0.950 . S
H2494 C2515 0.950 . S
H2495 C2518 0.950 . S
H2496 C2519 0.950 . S
H2497 C2521 0.950 . S
H2498 C2522 0.950 . S
H2499 C2523 0.951 . S
H2500 C2525 0.951 . S
H2501 C2527 0.950 . S
H2502 C2528 0.950 . S
H2503 C2530 0.950 . S
H2504 C2533 0.950 . S
H2505 C2534 0.950 . S
H2506 C2536 0.950 . S
H2507 C2537 0.950 . S
C2508 H2490 0.951 . S
C2508 C2509 1.366 . S
C2508 C2510 1.388 . S
C2509 C2508 1.366 . S
C2509 C2513 1.385 . S
C2510 H2491 0.951 . S
C2510 C2508 1.388 . S
C2510 C2511 1.366 . S
C2511 C2510 1.366 . S
C2511 C2512 1.414 . S
C2511 C2514 1.499 . S
C2512 H2492 0.950 . S
C2512 C2511 1.414 . S
C2512 C2513 1.374 . S
C2513 H2493 0.950 . S
C2513 C2509 1.385 . S
C2513 C2512 1.374 . S
C2514 C2511 1.499 . S
C2514 C2515 1.373 . S
C2514 C2516 1.389 . S
C2515 H2494 0.950 . S
C2515 C2514 1.373 . S
C2515 C2531 1.377 . S
C2516 C2514 1.389 . S
C2516 C2517 1.524 . S
C2516 C2530 1.377 . S
C2517 C2516 1.524 . S
C2517 C2518 1.397 . S
C2517 C2522 1.363 . S
C2518 H2495 0.950 . S
C2518 C2517 1.397 . S
C2518 C2519 1.334 . S
C2519 H2496 0.950 . S
C2519 C2518 1.334 . S
C2519 C2520 1.287 . S
C2520 C2519 1.287 . S
C2520 C2521 1.524 . S
C2520 H2539 0.913 . S
C2521 H2497 0.950 . S
C2521 C2520 1.524 . S
C2521 C2522 1.415 . S
C2522 H2498 0.950 . S
C2522 C2517 1.363 . S
C2522 C2521 1.415 . S
C2523 H2499 0.951 . S
C2523 C2524 1.366 . S
C2523 C2525 1.388 . S
C2524 C2523 1.366 . S
C2524 C2528 1.385 . S
C2525 H2500 0.951 . S
C2525 C2523 1.388 . S
C2525 C2526 1.366 . S
C2526 C2525 1.366 . S
C2526 C2527 1.414 . S
C2526 C2529 1.499 . S
C2527 H2501 0.950 . S
C2527 C2526 1.414 . S
C2527 C2528 1.374 . S
C2528 H2502 0.950 . S
C2528 C2524 1.385 . S
C2528 C2527 1.374 . S
C2529 C2526 1.499 . S
C2529 C2530 1.373 . S
C2529 C2531 1.389 . S
C2530 H2503 0.950 . S
C2530 C2516 1.377 . S
C2530 C2529 1.373 . S
C2531 C2515 1.377 . S
C2531 C2529 1.389 . S
C2531 C2532 1.524 . S
C2532 C2531 1.524 . S
C2532 C2533 1.397 . S
C2532 C2537 1.363 . S
C2533 H2504 0.950 . S
C2533 C2532 1.397 . S
C2533 C2534 1.334 . S
C2534 H2505 0.950 . S
C2534 C2533 1.334 . S
C2534 C2535 1.287 . S
C2535 C2534 1.287 . S
C2535 C2536 1.524 . S
C2535 H2538 0.999 . S
C2536 H2506 0.950 . S
C2536 C2535 1.524 . S
C2536 C2537 1.415 . S
C2537 H2507 0.950 . S
C2537 C2532 1.363 . S
C2537 C2536 1.415 . S
H2538 C2535 0.999 . S
H2539 C2520 0.913 . S
H2540 C2558 0.951 . S
H2541 C2560 0.951 . S
H2542 C2562 0.950 . S
H2543 C2563 0.950 . S
H2544 C2565 0.950 . S
H2545 C2568 0.950 . S
H2546 C2569 0.950 . S
H2547 C2571 0.950 . S
H2548 C2572 0.950 . S
H2549 C2573 0.951 . S
H2550 C2575 0.951 . S
H2551 C2577 0.950 . S
H2552 C2578 0.950 . S
H2553 C2580 0.950 . S
H2554 C2583 0.950 . S
H2555 C2584 0.950 . S
H2556 C2586 0.950 1_565 S
H2557 C2587 0.950 . S
C2558 H2540 0.951 . S
C2558 C2559 1.366 . S
C2558 C2560 1.388 . S
C2559 C2558 1.366 . S
C2559 C2563 1.385 . S
C2560 H2541 0.951 . S
C2560 C2558 1.388 . S
C2560 C2561 1.366 . S
C2561 C2560 1.366 . S
C2561 C2562 1.414 . S
C2561 C2564 1.499 . S
C2562 H2542 0.950 . S
C2562 C2561 1.414 . S
C2562 C2563 1.374 . S
C2563 H2543 0.950 . S
C2563 C2559 1.385 . S
C2563 C2562 1.374 . S
C2564 C2561 1.499 . S
C2564 C2565 1.373 . S
C2564 C2566 1.389 . S
C2565 H2544 0.950 . S
C2565 C2564 1.373 . S
C2565 C2581 1.377 . S
C2566 C2564 1.389 . S
C2566 C2567 1.524 . S
C2566 C2580 1.377 . S
C2567 C2566 1.524 . S
C2567 C2568 1.397 . S
C2567 C2572 1.363 . S
C2568 H2545 0.950 . S
C2568 C2567 1.397 . S
C2568 C2569 1.334 . S
C2569 H2546 0.950 . S
C2569 C2568 1.334 . S
C2569 C2570 1.287 . S
C2570 C2569 1.287 . S
C2570 C2571 1.524 . S
C2570 H2589 0.913 . S
C2571 H2547 0.950 . S
C2571 C2570 1.524 . S
C2571 C2572 1.415 . S
C2572 H2548 0.950 . S
C2572 C2567 1.363 . S
C2572 C2571 1.415 . S
C2573 H2549 0.951 . S
C2573 C2574 1.366 . S
C2573 C2575 1.388 . S
C2574 C2573 1.366 . S
C2574 C2578 1.385 . S
C2575 H2550 0.951 . S
C2575 C2573 1.388 . S
C2575 C2576 1.366 . S
C2576 C2575 1.366 . S
C2576 C2577 1.414 . S
C2576 C2579 1.499 . S
C2577 H2551 0.950 . S
C2577 C2576 1.414 . S
C2577 C2578 1.374 . S
C2578 H2552 0.950 . S
C2578 C2574 1.385 . S
C2578 C2577 1.374 . S
C2579 C2576 1.499 . S
C2579 C2580 1.373 . S
C2579 C2581 1.389 . S
C2580 H2553 0.950 . S
C2580 C2566 1.377 . S
C2580 C2579 1.373 . S
C2581 C2565 1.377 . S
C2581 C2579 1.389 . S
C2581 C2582 1.524 . S
C2582 C2581 1.524 . S
C2582 C2583 1.397 . S
C2582 C2587 1.363 . S
C2583 H2554 0.950 . S
C2583 C2582 1.397 . S
C2583 C2584 1.334 . S
C2584 H2555 0.950 . S
C2584 C2583 1.334 . S
C2584 C2585 1.287 . S
C2585 C2584 1.287 . S
C2585 C2586 1.524 . S
C2585 H2588 0.999 1_545 S
C2586 H2556 0.950 1_545 S
C2586 C2585 1.524 . S
C2586 C2587 1.415 . S
C2587 H2557 0.950 . S
C2587 C2582 1.363 . S
C2587 C2586 1.415 . S
H2588 C2585 0.999 1_565 S
H2589 C2570 0.913 . S
H2590 C2608 0.951 . S
H2591 C2610 0.951 . S
H2592 C2612 0.950 . S
H2593 C2613 0.950 . S
H2594 C2615 0.950 . S
H2595 C2618 0.950 . S
H2596 C2619 0.950 . S
H2597 C2621 0.950 . S
H2598 C2622 0.950 . S
H2599 C2623 0.951 . S
H2600 C2625 0.951 . S
H2601 C2627 0.950 . S
H2602 C2628 0.950 . S
H2603 C2630 0.950 . S
H2604 C2633 0.950 . S
H2605 C2634 0.950 . S
H2606 C2636 0.950 . S
H2607 C2637 0.950 . S
C2608 H2590 0.951 . S
C2608 C2609 1.366 . S
C2608 C2610 1.388 . S
C2609 C2608 1.366 . S
C2609 C2613 1.385 . S
C2610 H2591 0.951 . S
C2610 C2608 1.388 . S
C2610 C2611 1.366 . S
C2611 C2610 1.366 . S
C2611 C2612 1.414 . S
C2611 C2614 1.499 . S
C2612 H2592 0.950 . S
C2612 C2611 1.414 . S
C2612 C2613 1.374 . S
C2613 H2593 0.950 . S
C2613 C2609 1.385 . S
C2613 C2612 1.374 . S
C2614 C2611 1.499 . S
C2614 C2615 1.373 . S
C2614 C2616 1.389 . S
C2615 H2594 0.950 . S
C2615 C2614 1.373 . S
C2615 C2631 1.377 . S
C2616 C2614 1.389 . S
C2616 C2617 1.524 . S
C2616 C2630 1.377 . S
C2617 C2616 1.524 . S
C2617 C2618 1.397 . S
C2617 C2622 1.363 . S
C2618 H2595 0.950 . S
C2618 C2617 1.397 . S
C2618 C2619 1.334 . S
C2619 H2596 0.950 . S
C2619 C2618 1.334 . S
C2619 C2620 1.287 . S
C2620 C2619 1.287 . S
C2620 C2621 1.524 . S
C2620 H2639 0.913 . S
C2621 H2597 0.950 . S
C2621 C2620 1.524 . S
C2621 C2622 1.415 . S
C2622 H2598 0.950 . S
C2622 C2617 1.363 . S
C2622 C2621 1.415 . S
C2623 H2599 0.951 . S
C2623 C2624 1.366 . S
C2623 C2625 1.388 . S
C2624 C2623 1.366 . S
C2624 C2628 1.385 . S
C2625 H2600 0.951 . S
C2625 C2623 1.388 . S
C2625 C2626 1.366 . S
C2626 C2625 1.366 . S
C2626 C2627 1.414 . S
C2626 C2629 1.499 . S
C2627 H2601 0.950 . S
C2627 C2626 1.414 . S
C2627 C2628 1.374 . S
C2628 H2602 0.950 . S
C2628 C2624 1.385 . S
C2628 C2627 1.374 . S
C2629 C2626 1.499 . S
C2629 C2630 1.373 . S
C2629 C2631 1.389 . S
C2630 H2603 0.950 . S
C2630 C2616 1.377 . S
C2630 C2629 1.373 . S
C2631 C2615 1.377 . S
C2631 C2629 1.389 . S
C2631 C2632 1.524 . S
C2632 C2631 1.524 . S
C2632 C2633 1.397 . S
C2632 C2637 1.363 . S
C2633 H2604 0.950 . S
C2633 C2632 1.397 . S
C2633 C2634 1.334 . S
C2634 H2605 0.950 . S
C2634 C2633 1.334 . S
C2634 C2635 1.287 . S
C2635 C2634 1.287 . S
C2635 C2636 1.524 . S
C2635 H2638 0.999 . S
C2636 H2606 0.950 . S
C2636 C2635 1.524 . S
C2636 C2637 1.415 . S
C2637 H2607 0.950 . S
C2637 C2632 1.363 . S
C2637 C2636 1.415 . S
H2638 C2635 0.999 . S
H2639 C2620 0.913 . S
H2640 C2658 0.951 . S
H2641 C2660 0.951 . S
H2642 C2662 0.950 . S
H2643 C2663 0.950 . S
H2644 C2665 0.950 . S
H2645 C2668 0.950 . S
H2646 C2669 0.950 . S
H2647 C2671 0.950 . S
H2648 C2672 0.950 . S
H2649 C2673 0.951 . S
H2650 C2675 0.951 . S
H2651 C2677 0.950 . S
H2652 C2678 0.950 . S
H2653 C2680 0.950 . S
H2654 C2683 0.950 . S
H2655 C2684 0.950 . S
H2656 C2686 0.950 . S
H2657 C2687 0.950 . S
C2658 H2640 0.951 . S
C2658 C2659 1.366 . S
C2658 C2660 1.388 . S
C2659 C2658 1.366 . S
C2659 C2663 1.385 . S
C2660 H2641 0.951 . S
C2660 C2658 1.388 . S
C2660 C2661 1.366 . S
C2661 C2660 1.366 . S
C2661 C2662 1.414 . S
C2661 C2664 1.499 . S
C2662 H2642 0.950 . S
C2662 C2661 1.414 . S
C2662 C2663 1.374 . S
C2663 H2643 0.950 . S
C2663 C2659 1.385 . S
C2663 C2662 1.374 . S
C2664 C2661 1.499 . S
C2664 C2665 1.373 . S
C2664 C2666 1.389 . S
C2665 H2644 0.950 . S
C2665 C2664 1.373 . S
C2665 C2681 1.377 . S
C2666 C2664 1.389 . S
C2666 C2667 1.524 . S
C2666 C2680 1.377 . S
C2667 C2666 1.524 . S
C2667 C2668 1.397 . S
C2667 C2672 1.363 . S
C2668 H2645 0.950 . S
C2668 C2667 1.397 . S
C2668 C2669 1.334 . S
C2669 H2646 0.950 . S
C2669 C2668 1.334 . S
C2669 C2670 1.287 . S
C2670 C2669 1.287 . S
C2670 C2671 1.524 . S
C2670 H2689 0.913 . S
C2671 H2647 0.950 . S
C2671 C2670 1.524 . S
C2671 C2672 1.415 . S
C2672 H2648 0.950 . S
C2672 C2667 1.363 . S
C2672 C2671 1.415 . S
C2673 H2649 0.951 . S
C2673 C2674 1.366 . S
C2673 C2675 1.388 . S
C2674 C2673 1.366 . S
C2674 C2678 1.385 . S
C2675 H2650 0.951 . S
C2675 C2673 1.388 . S
C2675 C2676 1.366 . S
C2676 C2675 1.366 . S
C2676 C2677 1.414 . S
C2676 C2679 1.499 . S
C2677 H2651 0.950 . S
C2677 C2676 1.414 . S
C2677 C2678 1.374 . S
C2678 H2652 0.950 . S
C2678 C2674 1.385 . S
C2678 C2677 1.374 . S
C2679 C2676 1.499 . S
C2679 C2680 1.373 . S
C2679 C2681 1.389 . S
C2680 H2653 0.950 . S
C2680 C2666 1.377 . S
C2680 C2679 1.373 . S
C2681 C2665 1.377 . S
C2681 C2679 1.389 . S
C2681 C2682 1.524 . S
C2682 C2681 1.524 . S
C2682 C2683 1.397 . S
C2682 C2687 1.363 . S
C2683 H2654 0.950 . S
C2683 C2682 1.397 . S
C2683 C2684 1.334 . S
C2684 H2655 0.950 . S
C2684 C2683 1.334 . S
C2684 C2685 1.287 . S
C2685 C2684 1.287 . S
C2685 C2686 1.524 . S
C2685 H2688 0.999 . S
C2686 H2656 0.950 . S
C2686 C2685 1.524 . S
C2686 C2687 1.415 . S
C2687 H2657 0.950 . S
C2687 C2682 1.363 . S
C2687 C2686 1.415 . S
H2688 C2685 0.999 . S
H2689 C2670 0.913 . S
H2690 C2708 0.951 . S
H2691 C2710 0.951 . S
H2692 C2712 0.950 . S
H2693 C2713 0.950 . S
H2694 C2715 0.950 . S
H2695 C2718 0.950 . S
H2696 C2719 0.950 . S
H2697 C2721 0.950 . S
H2698 C2722 0.950 . S
H2699 C2723 0.951 . S
H2700 C2725 0.951 . S
H2701 C2727 0.950 . S
H2702 C2728 0.950 . S
H2703 C2730 0.950 . S
H2704 C2733 0.925 1_565 S
H2705 C2734 0.950 . S
H2706 C2736 0.950 . S
H2707 C2737 0.950 . S
C2708 H2690 0.951 . S
C2708 C2709 1.366 . S
C2708 C2710 1.388 . S
C2709 C2708 1.366 . S
C2709 C2713 1.385 . S
C2710 H2691 0.951 . S
C2710 C2708 1.388 . S
C2710 C2711 1.366 . S
C2711 C2710 1.366 . S
C2711 C2712 1.414 . S
C2711 C2714 1.499 . S
C2712 H2692 0.950 . S
C2712 C2711 1.414 . S
C2712 C2713 1.374 . S
C2713 H2693 0.950 . S
C2713 C2709 1.385 . S
C2713 C2712 1.374 . S
C2714 C2711 1.499 . S
C2714 C2715 1.373 . S
C2714 C2716 1.389 . S
C2715 H2694 0.950 . S
C2715 C2714 1.373 . S
C2715 C2731 1.377 . S
C2716 C2714 1.389 . S
C2716 C2717 1.524 . S
C2716 C2730 1.377 . S
C2717 C2716 1.524 . S
C2717 C2718 1.397 . S
C2717 C2722 1.363 . S
C2718 H2695 0.950 . S
C2718 C2717 1.397 . S
C2718 C2719 1.334 . S
C2719 H2696 0.950 . S
C2719 C2718 1.334 . S
C2719 C2720 1.287 . S
C2720 C2719 1.287 . S
C2720 C2721 1.524 . S
C2720 H2739 0.913 . S
C2721 H2697 0.950 . S
C2721 C2720 1.524 . S
C2721 C2722 1.415 . S
C2722 H2698 0.950 . S
C2722 C2717 1.363 . S
C2722 C2721 1.415 . S
C2723 H2699 0.951 . S
C2723 C2724 1.366 . S
C2723 C2725 1.388 . S
C2724 C2723 1.366 . S
C2724 C2728 1.385 1_545 S
C2725 H2700 0.951 . S
C2725 C2723 1.388 . S
C2725 C2726 1.366 1_545 S
C2726 C2725 1.366 1_565 S
C2726 C2727 1.414 . S
C2726 C2729 1.499 . S
C2727 H2701 0.950 . S
C2727 C2726 1.414 . S
C2727 C2728 1.374 . S
C2728 H2702 0.950 . S
C2728 C2724 1.385 1_565 S
C2728 C2727 1.374 . S
C2729 C2726 1.499 . S
C2729 C2730 1.373 . S
C2729 C2731 1.389 . S
C2730 H2703 0.950 . S
C2730 C2716 1.377 . S
C2730 C2729 1.373 . S
C2731 C2715 1.377 . S
C2731 C2729 1.389 . S
C2731 C2732 1.524 1_565 S
C2732 C2731 1.524 1_545 S
C2732 C2733 1.399 . S
C2732 C2737 1.363 . S
C2733 H2704 0.925 1_545 S
C2733 C2732 1.399 . S
C2733 C2734 1.357 . S
C2734 H2705 0.950 . S
C2734 C2733 1.357 . S
C2734 C2735 1.287 . S
C2735 C2734 1.287 . S
C2735 C2736 1.524 . S
C2735 H2738 0.999 . S
C2736 H2706 0.950 . S
C2736 C2735 1.524 . S
C2736 C2737 1.415 . S
C2737 H2707 0.950 . S
C2737 C2732 1.363 . S
C2737 C2736 1.415 . S
H2738 C2735 0.999 . S
H2739 C2720 0.913 . S
H2740 C2758 0.951 . S
H2741 C2760 0.951 . S
H2742 C2762 0.950 . S
H2743 C2763 0.950 . S
H2744 C2765 0.950 . S
H2745 C2768 0.950 . S
H2746 C2769 0.950 . S
H2747 C2771 0.950 . S
H2748 C2772 0.950 . S
H2749 C2773 0.951 . S
H2750 C2775 0.951 . S
H2751 C2777 0.950 . S
H2752 C2778 0.950 . S
H2753 C2780 0.950 . S
H2754 C2783 0.950 . S
H2755 C2784 0.950 . S
H2756 C2786 0.950 . S
H2757 C2787 0.950 . S
C2758 H2740 0.951 . S
C2758 C2759 1.366 . S
C2758 C2760 1.388 . S
C2759 C2758 1.366 . S
C2759 C2763 1.385 . S
C2760 H2741 0.951 . S
C2760 C2758 1.388 . S
C2760 C2761 1.366 . S
C2761 C2760 1.366 . S
C2761 C2762 1.414 . S
C2761 C2764 1.499 . S
C2762 H2742 0.950 . S
C2762 C2761 1.414 . S
C2762 C2763 1.374 . S
C2763 H2743 0.950 . S
C2763 C2759 1.385 . S
C2763 C2762 1.374 . S
C2764 C2761 1.499 . S
C2764 C2765 1.373 . S
C2764 C2766 1.389 . S
C2765 H2744 0.950 . S
C2765 C2764 1.373 . S
C2765 C2781 1.377 . S
C2766 C2764 1.389 . S
C2766 C2767 1.524 . S
C2766 C2780 1.377 . S
C2767 C2766 1.524 . S
C2767 C2768 1.397 . S
C2767 C2772 1.363 . S
C2768 H2745 0.950 . S
C2768 C2767 1.397 . S
C2768 C2769 1.334 . S
C2769 H2746 0.950 . S
C2769 C2768 1.334 . S
C2769 C2770 1.287 . S
C2770 C2769 1.287 . S
C2770 C2771 1.524 . S
C2770 H2789 0.913 . S
C2771 H2747 0.950 . S
C2771 C2770 1.524 . S
C2771 C2772 1.415 . S
C2772 H2748 0.950 . S
C2772 C2767 1.363 . S
C2772 C2771 1.415 . S
C2773 H2749 0.951 . S
C2773 C2774 1.366 . S
C2773 C2775 1.387 1_554 S
C2774 C2773 1.366 . S
C2774 C2778 1.385 . S
C2775 H2750 0.951 . S
C2775 C2773 1.387 1_556 S
C2775 C2776 1.367 . S
C2776 C2775 1.367 . S
C2776 C2777 1.414 . S
C2776 C2779 1.499 . S
C2777 H2751 0.950 . S
C2777 C2776 1.414 . S
C2777 C2778 1.374 1_556 S
C2778 H2752 0.950 . S
C2778 C2774 1.385 . S
C2778 C2777 1.374 1_554 S
C2779 C2776 1.499 . S
C2779 C2780 1.373 . S
C2779 C2781 1.389 . S
C2780 H2753 0.950 . S
C2780 C2766 1.377 . S
C2780 C2779 1.373 . S
C2781 C2765 1.377 . S
C2781 C2779 1.389 . S
C2781 C2782 1.524 . S
C2782 C2781 1.524 . S
C2782 C2783 1.397 . S
C2782 C2787 1.363 . S
C2783 H2754 0.950 . S
C2783 C2782 1.397 . S
C2783 C2784 1.334 . S
C2784 H2755 0.950 . S
C2784 C2783 1.334 . S
C2784 C2785 1.287 . S
C2785 C2784 1.287 . S
C2785 C2786 1.524 . S
C2785 H2788 0.999 . S
C2786 H2756 0.950 . S
C2786 C2785 1.524 . S
C2786 C2787 1.415 . S
C2787 H2757 0.950 . S
C2787 C2782 1.363 . S
C2787 C2786 1.415 . S
H2788 C2785 0.999 . S
H2789 C2770 0.913 . S
H2790 C2808 0.951 . S
H2791 C2810 0.951 . S
H2792 C2812 0.950 . S
H2793 C2813 0.950 . S
H2794 C2815 0.950 . S
H2795 C2818 0.950 . S
H2796 C2819 0.950 . S
H2797 C2821 0.950 . S
H2798 C2822 0.950 . S
H2799 C2823 0.951 . S
H2800 C2825 0.951 . S
H2801 C2827 0.950 . S
H2802 C2828 0.950 . S
H2803 C2830 0.950 . S
H2804 C2833 0.950 . S
H2805 C2834 0.950 . S
H2806 C2836 0.950 . S
H2807 C2837 0.950 . S
C2808 H2790 0.951 . S
C2808 C2809 1.366 1_545 S
C2808 C2810 1.388 . S
C2809 C2808 1.366 1_565 S
C2809 C2813 1.385 . S
C2810 H2791 0.951 . S
C2810 C2808 1.388 . S
C2810 C2811 1.366 . S
C2811 C2810 1.366 . S
C2811 C2812 1.414 1_545 S
C2811 C2814 1.499 . S
C2812 H2792 0.950 . S
C2812 C2811 1.414 1_565 S
C2812 C2813 1.374 . S
C2813 H2793 0.950 . S
C2813 C2809 1.385 . S
C2813 C2812 1.374 . S
C2814 C2811 1.499 . S
C2814 C2815 1.373 . S
C2814 C2816 1.389 . S
C2815 H2794 0.950 . S
C2815 C2814 1.373 . S
C2815 C2831 1.377 . S
C2816 C2814 1.389 . S
C2816 C2817 1.524 . S
C2816 C2830 1.377 . S
C2817 C2816 1.524 . S
C2817 C2818 1.397 1_545 S
C2817 C2822 1.363 . S
C2818 H2795 0.950 . S
C2818 C2817 1.397 1_565 S
C2818 C2819 1.334 . S
C2819 H2796 0.950 . S
C2819 C2818 1.334 . S
C2819 C2820 1.287 . S
C2820 C2819 1.287 . S
C2820 C2821 1.524 1_565 S
C2820 H2839 0.913 . S
C2821 H2797 0.950 . S
C2821 C2820 1.524 1_545 S
C2821 C2822 1.415 . S
C2822 H2798 0.950 . S
C2822 C2817 1.363 . S
C2822 C2821 1.415 . S
C2823 H2799 0.951 . S
C2823 C2824 1.366 . S
C2823 C2825 1.388 . S
C2824 C2823 1.366 . S
C2824 C2828 1.385 . S
C2825 H2800 0.951 . S
C2825 C2823 1.388 . S
C2825 C2826 1.366 . S
C2826 C2825 1.366 . S
C2826 C2827 1.414 . S
C2826 C2829 1.499 . S
C2827 H2801 0.950 . S
C2827 C2826 1.414 . S
C2827 C2828 1.374 . S
C2828 H2802 0.950 . S
C2828 C2824 1.385 . S
C2828 C2827 1.374 . S
C2829 C2826 1.499 . S
C2829 C2830 1.373 . S
C2829 C2831 1.389 . S
C2830 H2803 0.950 . S
C2830 C2816 1.377 . S
C2830 C2829 1.373 . S
C2831 C2815 1.377 . S
C2831 C2829 1.389 . S
C2831 C2832 1.524 . S
C2832 C2831 1.524 . S
C2832 C2833 1.397 . S
C2832 C2837 1.363 . S
C2833 H2804 0.950 . S
C2833 C2832 1.397 . S
C2833 C2834 1.334 . S
C2834 H2805 0.950 . S
C2834 C2833 1.334 . S
C2834 C2835 1.287 . S
C2835 C2834 1.287 . S
C2835 C2836 1.524 . S
C2835 H2838 0.999 . S
C2836 H2806 0.950 . S
C2836 C2835 1.524 . S
C2836 C2837 1.415 . S
C2837 H2807 0.950 . S
C2837 C2832 1.363 . S
C2837 C2836 1.415 . S
H2838 C2835 0.999 . S
H2839 C2820 0.913 . S
H2840 C2858 0.951 . S
H2841 C2860 0.951 . S
H2842 C2862 0.950 . S
H2843 C2863 0.950 . S
H2844 C2865 0.950 . S
H2845 C2868 0.950 . S
H2846 C2869 0.950 . S
H2847 C2871 0.950 . S
H2848 C2872 0.950 . S
H2849 C2873 0.951 . S
H2850 C2875 0.951 . S
H2851 C2877 0.950 . S
H2852 C2878 0.950 . S
H2853 C2880 0.950 . S
H2854 C2883 0.950 . S
H2855 C2884 0.950 . S
H2856 C2886 0.950 . S
H2857 C2887 0.950 . S
C2858 H2840 0.951 . S
C2858 C2859 1.366 . S
C2858 C2860 1.388 . S
C2859 C2858 1.366 . S
C2859 C2863 1.385 . S
C2860 H2841 0.951 . S
C2860 C2858 1.388 . S
C2860 C2861 1.366 . S
C2861 C2860 1.366 . S
C2861 C2862 1.414 . S
C2861 C2864 1.499 . S
C2862 H2842 0.950 . S
C2862 C2861 1.414 . S
C2862 C2863 1.374 . S
C2863 H2843 0.950 . S
C2863 C2859 1.385 . S
C2863 C2862 1.374 . S
C2864 C2861 1.499 . S
C2864 C2865 1.373 . S
C2864 C2866 1.389 . S
C2865 H2844 0.950 . S
C2865 C2864 1.373 . S
C2865 C2881 1.377 . S
C2866 C2864 1.389 . S
C2866 C2867 1.524 . S
C2866 C2880 1.377 . S
C2867 C2866 1.524 . S
C2867 C2868 1.397 . S
C2867 C2872 1.363 . S
C2868 H2845 0.950 . S
C2868 C2867 1.397 . S
C2868 C2869 1.334 . S
C2869 H2846 0.950 . S
C2869 C2868 1.334 . S
C2869 C2870 1.287 . S
C2870 C2869 1.287 . S
C2870 C2871 1.524 . S
C2870 H2889 0.913 . S
C2871 H2847 0.950 . S
C2871 C2870 1.524 . S
C2871 C2872 1.415 . S
C2872 H2848 0.950 . S
C2872 C2867 1.363 . S
C2872 C2871 1.415 . S
C2873 H2849 0.951 . S
C2873 C2874 1.366 . S
C2873 C2875 1.388 . S
C2874 C2873 1.366 . S
C2874 C2878 1.385 . S
C2875 H2850 0.951 . S
C2875 C2873 1.388 . S
C2875 C2876 1.366 . S
C2876 C2875 1.366 . S
C2876 C2877 1.414 . S
C2876 C2879 1.499 . S
C2877 H2851 0.950 . S
C2877 C2876 1.414 . S
C2877 C2878 1.374 . S
C2878 H2852 0.950 . S
C2878 C2874 1.385 . S
C2878 C2877 1.374 . S
C2879 C2876 1.499 . S
C2879 C2880 1.373 . S
C2879 C2881 1.389 . S
C2880 H2853 0.950 . S
C2880 C2866 1.377 . S
C2880 C2879 1.373 . S
C2881 C2865 1.377 . S
C2881 C2879 1.389 . S
C2881 C2882 1.524 . S
C2882 C2881 1.524 . S
C2882 C2883 1.397 . S
C2882 C2887 1.363 . S
C2883 H2854 0.950 . S
C2883 C2882 1.397 . S
C2883 C2884 1.334 . S
C2884 H2855 0.950 . S
C2884 C2883 1.334 . S
C2884 C2885 1.287 . S
C2885 C2884 1.287 . S
C2885 C2886 1.524 . S
C2885 H2888 0.999 . S
C2886 H2856 0.950 . S
C2886 C2885 1.524 . S
C2886 C2887 1.415 . S
C2887 H2857 0.950 . S
C2887 C2882 1.363 . S
C2887 C2886 1.415 . S
H2888 C2885 0.999 . S
H2889 C2870 0.913 . S
H2890 C2908 0.951 . S
H2891 C2910 0.951 . S
H2892 C2912 0.950 . S
H2893 C2913 0.950 . S
H2894 C2915 0.950 . S
H2895 C2918 0.950 . S
H2896 C2919 0.950 . S
H2897 C2921 0.950 . S
H2898 C2922 0.950 . S
H2899 C2923 0.951 . S
H2900 C2925 0.951 . S
H2901 C2927 0.950 1_565 S
H2902 C2928 0.950 . S
H2903 C2930 0.950 . S
H2904 C2933 0.950 . S
H2905 C2934 0.950 . S
H2906 C2936 0.945 1_545 S
H2907 C2937 0.950 . S
C2908 H2890 0.951 . S
C2908 C2909 1.366 . S
C2908 C2910 1.388 . S
C2909 C2908 1.366 . S
C2909 C2913 1.385 . S
C2910 H2891 0.951 . S
C2910 C2908 1.388 . S
C2910 C2911 1.366 . S
C2911 C2910 1.366 . S
C2911 C2912 1.414 . S
C2911 C2914 1.499 . S
C2912 H2892 0.950 . S
C2912 C2911 1.414 . S
C2912 C2913 1.374 . S
C2913 H2893 0.950 . S
C2913 C2909 1.385 . S
C2913 C2912 1.374 . S
C2914 C2911 1.499 . S
C2914 C2915 1.373 . S
C2914 C2916 1.389 . S
C2915 H2894 0.950 . S
C2915 C2914 1.373 . S
C2915 C2931 1.377 . S
C2916 C2914 1.389 . S
C2916 C2917 1.524 . S
C2916 C2930 1.377 . S
C2917 C2916 1.524 . S
C2917 C2918 1.397 . S
C2917 C2922 1.363 . S
C2918 H2895 0.950 . S
C2918 C2917 1.397 . S
C2918 C2919 1.334 . S
C2919 H2896 0.950 . S
C2919 C2918 1.334 . S
C2919 C2920 1.287 . S
C2920 C2919 1.287 . S
C2920 C2921 1.524 . S
C2920 H2939 0.913 . S
C2921 H2897 0.950 . S
C2921 C2920 1.524 . S
C2921 C2922 1.415 . S
C2922 H2898 0.950 . S
C2922 C2917 1.363 . S
C2922 C2921 1.415 . S
C2923 H2899 0.951 . S
C2923 C2924 1.366 1_545 S
C2923 C2925 1.388 . S
C2924 C2923 1.366 1_565 S
C2924 C2928 1.385 . S
C2925 H2900 0.951 . S
C2925 C2923 1.388 . S
C2925 C2926 1.366 . S
C2926 C2925 1.366 . S
C2926 C2927 1.416 . S
C2926 C2929 1.499 . S
C2927 H2901 0.950 1_545 S
C2927 C2926 1.416 . S
C2927 C2928 1.372 1_545 S
C2928 H2902 0.950 . S
C2928 C2924 1.385 . S
C2928 C2927 1.372 1_565 S
C2929 C2926 1.499 . S
C2929 C2930 1.373 . S
C2929 C2931 1.389 . S
C2930 H2903 0.950 . S
C2930 C2916 1.377 . S
C2930 C2929 1.373 . S
C2931 C2915 1.377 . S
C2931 C2929 1.389 . S
C2931 C2932 1.524 . S
C2932 C2931 1.524 . S
C2932 C2933 1.397 1_545 S
C2932 C2937 1.363 . S
C2933 H2904 0.950 . S
C2933 C2932 1.397 1_565 S
C2933 C2934 1.334 . S
C2934 H2905 0.950 . S
C2934 C2933 1.334 . S
C2934 C2935 1.287 . S
C2935 C2934 1.287 . S
C2935 C2936 1.524 . S
C2935 H2938 0.999 . S
C2936 H2906 0.945 1_565 S
C2936 C2935 1.524 . S
C2936 C2937 1.415 1_565 S
C2937 H2907 0.950 . S
C2937 C2932 1.363 . S
C2937 C2936 1.415 1_545 S
H2938 C2935 0.999 . S
H2939 C2920 0.913 . S
H2940 C2958 0.951 . S
H2941 C2960 0.951 . S
H2942 C2962 0.950 . S
H2943 C2963 0.950 . S
H2944 C2965 0.950 . S
H2945 C2968 0.950 . S
H2946 C2969 0.950 . S
H2947 C2971 0.950 . S
H2948 C2972 0.950 . S
H2949 C2973 0.951 . S
H2950 C2975 0.951 . S
H2951 C2977 0.950 . S
H2952 C2978 0.950 . S
H2953 C2980 0.950 . S
H2954 C2983 0.950 . S
H2955 C2984 0.950 . S
H2956 C2986 0.950 . S
H2957 C2987 0.950 . S
C2958 H2940 0.951 . S
C2958 C2959 1.366 . S
C2958 C2960 1.388 . S
C2959 C2958 1.366 . S
C2959 C2963 1.385 . S
C2960 H2941 0.951 . S
C2960 C2958 1.388 . S
C2960 C2961 1.366 . S
C2961 C2960 1.366 . S
C2961 C2962 1.414 . S
C2961 C2964 1.499 . S
C2962 H2942 0.950 . S
C2962 C2961 1.414 . S
C2962 C2963 1.374 . S
C2963 H2943 0.950 . S
C2963 C2959 1.385 . S
C2963 C2962 1.374 . S
C2964 C2961 1.499 . S
C2964 C2965 1.373 . S
C2964 C2966 1.389 . S
C2965 H2944 0.950 . S
C2965 C2964 1.373 . S
C2965 C2981 1.377 . S
C2966 C2964 1.389 . S
C2966 C2967 1.524 . S
C2966 C2980 1.377 . S
C2967 C2966 1.524 . S
C2967 C2968 1.397 . S
C2967 C2972 1.363 . S
C2968 H2945 0.950 . S
C2968 C2967 1.397 . S
C2968 C2969 1.334 . S
C2969 H2946 0.950 . S
C2969 C2968 1.334 . S
C2969 C2970 1.287 . S
C2970 C2969 1.287 . S
C2970 C2971 1.524 . S
C2970 H2989 0.913 . S
C2971 H2947 0.950 . S
C2971 C2970 1.524 . S
C2971 C2972 1.415 . S
C2972 H2948 0.950 . S
C2972 C2967 1.363 . S
C2972 C2971 1.415 . S
C2973 H2949 0.951 . S
C2973 C2974 1.366 . S
C2973 C2975 1.388 1_556 S
C2974 C2973 1.366 . S
C2974 C2978 1.385 . S
C2975 H2950 0.951 . S
C2975 C2973 1.388 1_554 S
C2975 C2976 1.366 . S
C2976 C2975 1.366 . S
C2976 C2977 1.414 1_554 S
C2976 C2979 1.499 . S
C2977 H2951 0.950 . S
C2977 C2976 1.414 1_556 S
C2977 C2978 1.374 . S
C2978 H2952 0.950 . S
C2978 C2974 1.385 . S
C2978 C2977 1.374 . S
C2979 C2976 1.499 . S
C2979 C2980 1.373 . S
C2979 C2981 1.389 . S
C2980 H2953 0.950 . S
C2980 C2966 1.377 . S
C2980 C2979 1.373 . S
C2981 C2965 1.377 . S
C2981 C2979 1.389 . S
C2981 C2982 1.524 . S
C2982 C2981 1.524 . S
C2982 C2983 1.397 . S
C2982 C2987 1.363 . S
C2983 H2954 0.950 . S
C2983 C2982 1.397 . S
C2983 C2984 1.334 . S
C2984 H2955 0.950 . S
C2984 C2983 1.334 . S
C2984 C2985 1.287 . S
C2985 C2984 1.287 . S
C2985 C2986 1.524 . S
C2985 H2988 0.999 . S
C2986 H2956 0.950 . S
C2986 C2985 1.524 . S
C2986 C2987 1.415 . S
C2987 H2957 0.950 . S
C2987 C2982 1.363 . S
C2987 C2986 1.415 . S
H2988 C2985 0.999 . S
H2989 C2970 0.913 . S
H2990 C3008 0.951 . S
H2991 C3010 0.951 . S
H2992 C3012 0.950 . S
H2993 C3013 0.950 . S
H2994 C3015 0.950 . S
H2995 C3018 0.950 . S
H2996 C3019 0.950 . S
H2997 C3021 0.950 . S
H2998 C3022 0.950 . S
H2999 C3023 0.951 . S
H3000 C3025 0.951 . S
H3001 C3027 0.950 . S
H3002 C3028 0.950 . S
H3003 C3030 0.950 . S
H3004 C3033 0.950 . S
H3005 C3034 0.950 . S
H3006 C3036 0.950 . S
H3007 C3037 0.950 . S
C3008 H2990 0.951 . S
C3008 C3009 1.366 . S
C3008 C3010 1.388 . S
C3009 C3008 1.366 . S
C3009 C3013 1.385 . S
C3010 H2991 0.951 . S
C3010 C3008 1.388 . S
C3010 C3011 1.366 . S
C3011 C3010 1.366 . S
C3011 C3012 1.414 . S
C3011 C3014 1.499 . S
C3012 H2992 0.950 . S
C3012 C3011 1.414 . S
C3012 C3013 1.374 . S
C3013 H2993 0.950 . S
C3013 C3009 1.385 . S
C3013 C3012 1.374 . S
C3014 C3011 1.499 . S
C3014 C3015 1.373 . S
C3014 C3016 1.389 . S
C3015 H2994 0.950 . S
C3015 C3014 1.373 . S
C3015 C3031 1.377 . S
C3016 C3014 1.389 . S
C3016 C3017 1.524 . S
C3016 C3030 1.377 . S
C3017 C3016 1.524 . S
C3017 C3018 1.397 . S
C3017 C3022 1.363 . S
C3018 H2995 0.950 . S
C3018 C3017 1.397 . S
C3018 C3019 1.334 . S
C3019 H2996 0.950 . S
C3019 C3018 1.334 . S
C3019 C3020 1.287 . S
C3020 C3019 1.287 . S
C3020 C3021 1.524 . S
C3020 H3039 0.913 . S
C3021 H2997 0.950 . S
C3021 C3020 1.524 . S
C3021 C3022 1.415 . S
C3022 H2998 0.950 . S
C3022 C3017 1.363 . S
C3022 C3021 1.415 . S
C3023 H2999 0.951 . S
C3023 C3024 1.366 . S
C3023 C3025 1.388 . S
C3024 C3023 1.366 . S
C3024 C3028 1.385 1_545 S
C3025 H3000 0.951 . S
C3025 C3023 1.388 . S
C3025 C3026 1.366 1_545 S
C3026 C3025 1.366 1_565 S
C3026 C3027 1.414 . S
C3026 C3029 1.499 . S
C3027 H3001 0.950 . S
C3027 C3026 1.414 . S
C3027 C3028 1.374 . S
C3028 H3002 0.950 . S
C3028 C3024 1.385 1_565 S
C3028 C3027 1.374 . S
C3029 C3026 1.499 . S
C3029 C3030 1.373 . S
C3029 C3031 1.389 . S
C3030 H3003 0.950 . S
C3030 C3016 1.377 . S
C3030 C3029 1.373 . S
C3031 C3015 1.377 . S
C3031 C3029 1.389 . S
C3031 C3032 1.524 1_565 S
C3032 C3031 1.524 1_545 S
C3032 C3033 1.397 . S
C3032 C3037 1.363 . S
C3033 H3004 0.950 . S
C3033 C3032 1.397 . S
C3033 C3034 1.334 . S
C3034 H3005 0.950 . S
C3034 C3033 1.334 . S
C3034 C3035 1.287 . S
C3035 C3034 1.287 . S
C3035 C3036 1.524 . S
C3035 H3038 0.999 . S
C3036 H3006 0.950 . S
C3036 C3035 1.524 . S
C3036 C3037 1.415 . S
C3037 H3007 0.950 . S
C3037 C3032 1.363 . S
C3037 C3036 1.415 . S
H3038 C3035 0.999 . S
H3039 C3020 0.913 . S
C659 C10 2.355 . S
C674 C410 2.355 . S
C709 C50 2.354 . S
C724 C450 2.355 . S
C759 C90 2.355 . S
C774 C330 2.354 . S
C809 C370 2.354 . S
C824 C130 2.355 . S
C859 C179 2.355 . S
C874 C579 2.355 . S
C909 C619 2.354 . S
C924 C219 2.355 . S
C959 C499 2.355 . S
C974 C259 2.355 . S
C1009 C299 2.355 . S
C1024 C539 2.355 . S
C1059 C16 0.700 . S
C1074 C167 0.700 . S
C1109 C56 0.697 . S
C1124 C527 0.697 . S
C1159 C96 0.697 . S
C1174 C247 0.697 . S
C1209 C136 0.698 . S
C1224 C607 0.698 . S
C1259 C207 0.699 . S
C1274 C376 0.699 . S
C1309 C456 0.697 . S
C1324 C287 0.697 . S
C1359 C487 0.697 . S
C1374 C336 0.697 . S
C1409 C416 0.700 . S
C1424 C567 0.700 . S
C1459 C7 0.770 . S
C1474 C290 0.775 . S
C1509 C47 0.770 . S
C1524 C490 0.775 . S
C1559 C87 0.772 . S
C1574 C210 0.776 . S
C1609 C127 0.772 . S
C1624 C570 0.776 . S
C1659 C139 0.777 . S
C1674 C176 0.771 . S
C1709 C216 0.770 . S
C1724 C339 0.776 . S
C1759 C256 0.770 . S
C1774 C59 0.776 . S
C1809 C419 0.776 . S
C1824 C296 0.772 . S
C1859 C327 0.772 . S
C1874 C610 0.777 1_565 S
C1909 C170 0.776 . S
C1924 C367 0.771 . S
C1959 C530 0.775 1_545 S
C1974 C407 0.771 . S
C2009 C250 0.776 . S
C2024 C447 0.772 . S
C2059 C496 0.772 . S
C2074 C459 0.776 1_545 S
C2109 C536 0.771 . S
C2124 C19 0.775 . S
C2159 C379 0.775 1_565 S
C2174 C576 0.770 . S
C2209 C616 0.769 . S
C2224 C99 0.776 . S
C2259 C11 4.139 . S
C2274 C362 4.148 . S
C2309 C402 4.148 . S
C2324 C51 4.138 . S
C2359 C91 4.139 . S
C2374 C442 4.148 . S
C2409 C322 4.148 . S
C2424 C131 4.138 . S
C2459 C531 4.148 . S
C2474 C162 4.139 . S
C2509 C571 4.148 . S
C2524 C202 4.139 . S
C2559 C611 4.148 . S
C2574 C242 4.139 . S
C2609 C491 4.148 . S
C2624 C282 4.138 . S
C2659 C42 4.148 . S
C2674 C331 4.138 . S
C2709 C82 4.148 . S
C2724 C371 4.139 . S
C2759 C122 4.148 . S
C2774 C411 4.138 . S
C2809 C451 4.138 . S
C2824 C2 4.148 . S
C2859 C211 4.148 . S
C2874 C482 4.139 . S
C2909 C251 4.148 . S
C2924 C522 4.138 . S
C2959 C291 4.148 . S
C2974 C562 4.138 . S
C3009 C171 4.148 . S
C3024 C602 4.138 . S
