# Generated by pormake.
# Topology vby, (6)-cn, num edge types: 1
# Building blocks:
#     Node 0, Type 0, BuildingBlock: JUFBIX_clean_sbu_0, # of connection points: 6
#     Node 1, Type 0, BuildingBlock: JUFBIX_clean_sbu_0, # of connection points: 6
#     Node 2, Type 0, BuildingBlock: JUFBIX_clean_sbu_0, # of connection points: 6
#     Node 3, Type 0, BuildingBlock: JUFBIX_clean_sbu_0, # of connection points: 6
#     Node 4, Type 0, BuildingBlock: JUFBIX_clean_sbu_0, # of connection points: 6
#     Node 5, Type 0, BuildingBlock: JUFBIX_clean_sbu_0, # of connection points: 6
#     Node 6, Type 0, BuildingBlock: JUFBIX_clean_sbu_0, # of connection points: 6
#     Node 7, Type 0, BuildingBlock: JUFBIX_clean_sbu_0, # of connection points: 6
#     Edge 8, Type (0, 0), BuildingBlock: ZUJKAS_clean_linker_0, # of connection points: 2
#     Edge 9, Type (0, 0), BuildingBlock: ZUJKAS_clean_linker_0, # of connection points: 2
#     Edge 10, Type (0, 0), BuildingBlock: ZUJKAS_clean_linker_0, # of connection points: 2
#     Edge 11, Type (0, 0), BuildingBlock: ZUJKAS_clean_linker_0, # of connection points: 2
#     Edge 12, Type (0, 0), BuildingBlock: ZUJKAS_clean_linker_0, # of connection points: 2
#     Edge 13, Type (0, 0), BuildingBlock: ZUJKAS_clean_linker_0, # of connection points: 2
#     Edge 14, Type (0, 0), BuildingBlock: ZUJKAS_clean_linker_0, # of connection points: 2
#     Edge 15, Type (0, 0), BuildingBlock: ZUJKAS_clean_linker_0, # of connection points: 2
#     Edge 16, Type (0, 0), BuildingBlock: ZUJKAS_clean_linker_0, # of connection points: 2
#     Edge 17, Type (0, 0), BuildingBlock: ZUJKAS_clean_linker_0, # of connection points: 2
#     Edge 18, Type (0, 0), BuildingBlock: ZUJKAS_clean_linker_0, # of connection points: 2
#     Edge 19, Type (0, 0), BuildingBlock: ZUJKAS_clean_linker_0, # of connection points: 2
#     Edge 20, Type (0, 0), BuildingBlock: ZUJKAS_clean_linker_0, # of connection points: 2
#     Edge 21, Type (0, 0), BuildingBlock: ZUJKAS_clean_linker_0, # of connection points: 2
#     Edge 22, Type (0, 0), BuildingBlock: ZUJKAS_clean_linker_0, # of connection points: 2
#     Edge 23, Type (0, 0), BuildingBlock: ZUJKAS_clean_linker_0, # of connection points: 2
#     Edge 24, Type (0, 0), BuildingBlock: ZUJKAS_clean_linker_0, # of connection points: 2
#     Edge 25, Type (0, 0), BuildingBlock: ZUJKAS_clean_linker_0, # of connection points: 2
#     Edge 26, Type (0, 0), BuildingBlock: ZUJKAS_clean_linker_0, # of connection points: 2
#     Edge 27, Type (0, 0), BuildingBlock: ZUJKAS_clean_linker_0, # of connection points: 2
#     Edge 28, Type (0, 0), BuildingBlock: ZUJKAS_clean_linker_0, # of connection points: 2
#     Edge 29, Type (0, 0), BuildingBlock: ZUJKAS_clean_linker_0, # of connection points: 2
#     Edge 30, Type (0, 0), BuildingBlock: ZUJKAS_clean_linker_0, # of connection points: 2
#     Edge 31, Type (0, 0), BuildingBlock: ZUJKAS_clean_linker_0, # of connection points: 2
# Relax obj value: 0.127
# Max RMSD: 0.146
# Mean RMSD: 0.146
data_MOF--net-vby--node1-JUFBIX_clean_sbu_0--edge1-ZUJKAS_clean_linker_0
_symmetry_space_group_name_H-M    P1
_symmetry_Int_Tables_number       1
_symmetry_cell_setting            triclinic
loop_
_symmetry_equiv_pos_as_xyz
'x, y, z'
_cell_length_a     23.942314
_cell_length_b     72.745355
_cell_length_c     38.016447
_cell_angle_alpha  90.208993
_cell_angle_beta   93.646957
_cell_angle_gamma 89.97162
loop_
_atom_site_label
_atom_site_type_symbol
_atom_site_fract_x
_atom_site_fract_y
_atom_site_fract_z
_atom_type_partial_charge
Co0 Co 0.03403 0.37247 0.0215 0.0
C1 C 0.08677 0.37912 0.95996 0.0
Co2 Co 0.12026 0.383 0.03075 0.0
C3 C 0.91301 0.37022 0.0218 0.0
C4 C 0.94814 0.34878 0.99146 0.0
N5 N 0.96221 0.36341 1.01203 0.0
N6 N 0.86875 0.3605 1.00788 0.0
C7 C 0.89091 0.34696 0.98888 0.0
H8 H 0.90973 0.38243 0.03791 0.0
H9 H 0.97761 0.3402 0.97854 0.0
C10 C 0.06364 0.37634 0.092 0.0
N11 N 0.19228 0.39198 0.04021 0.0
C12 C 0.24111 0.3856 0.02896 0.0
C13 C 0.20704 0.4059 0.0624 0.0
N14 N 0.2858 0.3949 0.04349 0.0
C15 C 0.26425 0.40776 0.0644 0.0
C16 C 0.04136 0.41063 0.02585 0.0
O17 O 0.02409 0.37191 0.06982 0.0
O18 O 0.11063 0.38116 0.0809 0.0
O19 O 0.0927 0.40681 0.03128 0.0
O20 O 1.00627 0.39766 0.01954 0.0
O21 O 0.12773 0.38489 0.98017 0.0
H22 H 0.1781 0.41394 0.07684 0.0
H23 H 0.24384 0.37392 1.01144 0.0
O24 O 0.04342 0.37303 0.97333 0.0
O25 O 0.06372 0.3476 0.02365 0.0
O26 O 0.14827 0.35905 0.03044 0.0
C27 C 0.11652 0.34515 0.02726 0.0
H28 H 0.86752 0.33647 0.97404 0.0
H29 H 0.28803 0.41775 0.08027 0.0
Co30 Co 0.89933 0.63277 1.00712 0.0
C31 C 0.95401 0.63929 0.94501 0.0
Co32 Co 0.98539 0.64362 0.01514 0.0
C33 C 0.7785 0.62997 1.00959 0.0
C34 C 0.8127 0.60929 0.97707 0.0
N35 N 0.82738 0.62351 0.99855 0.0
N36 N 0.73388 0.62044 0.9956 0.0
C37 C 0.75552 0.60734 0.97529 0.0
H38 H 0.77565 0.64189 0.02649 0.0
H39 H 0.84163 0.60112 0.96287 0.0
C40 C 0.93477 0.63699 0.07754 0.0
N41 N 0.05712 0.65295 0.02374 0.0
C42 C 0.10638 0.64603 0.01428 0.0
C43 C 0.07111 0.66785 0.04357 0.0
N44 N 0.15058 0.65595 0.0277 0.0
C45 C 0.12833 0.66974 0.04602 0.0
C46 C 0.90193 0.67066 1.00979 0.0
O47 O 0.89343 0.63102 0.05788 0.0
O48 O 0.97734 0.64324 0.0635 0.0
O49 O 0.95484 0.66839 0.01281 0.0
O50 O 0.87057 0.65664 1.00737 0.0
O51 O 0.99401 0.64397 0.96666 0.0
H52 H 0.04163 0.67657 0.05618 0.0
H53 H 0.10978 0.63359 0.99886 0.0
O54 O 0.90751 0.63443 0.95678 0.0
O55 O 0.92763 0.60905 1.00663 0.0
O56 O 0.01397 0.61854 0.01725 0.0
C57 C 0.97918 0.60543 1.01151 0.0
H58 H 0.73183 0.59713 0.9599 0.0
H59 H 0.15165 0.68041 0.06039 0.0
Co60 Co 0.12346 0.63142 0.515 0.0
C61 C 0.06758 0.63615 0.57752 0.0
Co62 Co 0.03734 0.64236 0.50798 0.0
C63 C 0.24436 0.62897 0.51342 0.0
C64 C 0.20952 0.60706 0.54235 0.0
N65 N 0.19525 0.62201 0.52295 0.0
N66 N 0.28874 0.61903 0.52637 0.0
C67 C 0.26674 0.60517 0.54444 0.0
H68 H 0.24751 0.64148 0.49836 0.0
H69 H 0.18023 0.5983 0.55488 0.0
C70 C 0.08903 0.63754 0.44514 0.0
N71 N 0.96568 0.6518 0.50014 0.0
C72 C 0.91665 0.64484 0.50977 0.0
C73 C 0.95146 0.66697 0.48136 0.0
N74 N 0.87232 0.655 0.49749 0.0
C75 C 0.89427 0.66897 0.4797 0.0
C76 C 0.12064 0.66929 0.51718 0.0
O77 O 0.13086 0.63165 0.46438 0.0
O78 O 0.04569 0.64295 0.45957 0.0
O79 O 0.06784 0.66709 0.51254 0.0
O80 O 0.15193 0.65525 0.519 0.0
O81 O 0.02838 0.64174 0.55626 0.0
H82 H 0.98075 0.67582 0.46906 0.0
H83 H 0.91352 0.63225 0.52458 0.0
O84 O 0.11381 0.63114 0.56547 0.0
O85 O 0.09557 0.60773 0.51075 0.0
O86 O 1.0088 0.61733 0.50357 0.0
C87 C 0.04405 0.60417 0.50544 0.0
H88 H 0.29021 0.59445 0.55842 0.0
H89 H 0.87078 0.67988 0.46632 0.0
Co90 Co 0.98313 0.37187 0.52862 0.0
C91 C 0.93337 0.37671 0.59217 0.0
Co92 Co 0.89679 0.38262 0.52267 0.0
C93 C 0.10339 0.36922 0.52502 0.0
C94 C 0.06948 0.34725 0.55429 0.0
N95 N 0.05478 0.36241 0.53561 0.0
N96 N 0.14789 0.35891 0.53641 0.0
C97 C 0.12652 0.34505 0.55478 0.0
H98 H 0.10597 0.38155 0.50938 0.0
H99 H 0.04065 0.33857 0.56741 0.0
C100 C 0.95062 0.37795 0.45939 0.0
N101 N 0.82504 0.39206 0.51556 0.0
C102 C 0.77639 0.38526 0.52613 0.0
C103 C 0.81022 0.40698 0.49619 0.0
N104 N 0.7318 0.39534 0.51402 0.0
C105 C 0.75311 0.40906 0.49527 0.0
C106 C 0.97637 0.40999 0.531 0.0
O107 O 0.99057 0.37242 0.48014 0.0
O108 O 0.9048 0.38286 0.47208 0.0
O109 O 0.9248 0.40634 0.52644 0.0
O110 O 0.01179 0.39688 0.53251 0.0
O111 O 0.89092 0.38247 0.57336 0.0
H112 H 0.83901 0.41553 0.48276 0.0
H113 H 0.77379 0.37303 0.54207 0.0
O114 O 0.97632 0.37136 0.57722 0.0
O115 O 0.95265 0.34716 0.52458 0.0
O116 O 0.86815 0.35874 0.51919 0.0
C117 C 0.89986 0.34479 0.52073 0.0
H118 H 0.1505 0.3344 0.56863 0.0
H119 H 0.72904 0.41946 0.48077 0.0
Co120 Co 0.53782 0.8729 0.01418 0.0
C121 C 0.58174 0.88352 0.95151 0.0
Co122 Co 0.62419 0.88366 0.02099 0.0
C123 C 0.41757 0.8697 0.01829 0.0
C124 C 0.45106 0.84938 0.98464 0.0
N125 N 0.46607 0.86351 1.00628 0.0
N126 N 0.37288 0.86001 1.0049 0.0
C127 C 0.394 0.84718 0.98381 0.0
H128 H 0.41511 0.88123 0.03619 0.0
H129 H 0.47957 0.84154 0.96951 0.0
C130 C 0.57548 0.87361 0.08363 0.0
N131 N 0.69608 0.89299 0.02887 0.0
C132 C 0.74423 0.88709 0.01593 0.0
C133 C 0.71175 0.90656 0.05168 0.0
N134 N 0.78927 0.89641 0.02986 0.0
C135 C 0.76879 0.90873 0.05225 0.0
C136 C 0.54345 0.91067 0.02444 0.0
O137 O 0.53435 0.86932 0.06255 0.0
O138 O 0.61986 0.87996 0.07126 0.0
O139 O 0.59528 0.90717 0.02576 0.0
O140 O 0.5084 0.89763 0.0189 0.0
O141 O 0.62624 0.88744 0.97034 0.0
H142 H 0.68371 0.91399 0.06784 0.0
H143 H 0.74625 0.87595 0.9971 0.0
O144 O 0.5404 0.87669 0.96601 0.0
O145 O 0.56935 0.84837 1.00968 0.0
O146 O 0.65353 0.86008 0.01645 0.0
C147 C 0.6223 0.84615 1.01164 0.0
H148 H 0.36981 0.83736 0.96774 0.0
H149 H 0.79348 0.91809 0.06907 0.0
Co150 Co 0.39677 0.132 0.01897 0.0
C151 C 0.44488 0.14013 0.95531 0.0
Co152 Co 0.48232 0.1436 0.02471 0.0
C153 C 0.27677 0.12884 0.02481 0.0
C154 C 0.30897 0.1081 0.99156 0.0
N155 N 0.32482 0.12243 0.01248 0.0
N156 N 0.2316 0.11911 0.0123 0.0
C157 C 0.25192 0.10599 0.9915 0.0
H158 H 0.27491 0.14061 0.04218 0.0
H159 H 0.33688 0.10006 0.97635 0.0
C160 C 0.43798 0.1355 0.08864 0.0
N161 N 0.55407 0.15325 0.03126 0.0
C162 C 0.60256 0.14657 0.02005 0.0
C163 C 0.56915 0.16812 0.05089 0.0
N164 N 0.64732 0.15666 0.03202 0.0
C165 C 0.62622 0.17027 0.05134 0.0
C166 C 0.39741 0.16998 0.02347 0.0
O167 O 0.39512 0.12985 0.06996 0.0
O168 O 0.4791 0.14208 0.07348 0.0
O169 O 0.45046 0.16811 0.02546 0.0
O170 O 0.36696 0.15575 0.02071 0.0
O171 O 0.48591 0.14523 0.97577 0.0
H172 H 0.54066 0.17655 0.06493 0.0
H173 H 0.60496 0.13441 1.00375 0.0
O174 O 0.4008 0.134 0.96837 0.0
O175 O 0.42603 0.10851 0.01698 0.0
O176 O 0.51227 0.11868 0.02378 0.0
C177 C 0.47803 0.10533 0.0193 0.0
H178 H 0.22713 0.09606 0.97607 0.0
H179 H 0.65043 0.18065 0.06596 0.0
Co180 Co 0.62534 0.131 0.52776 0.0
C181 C 0.57361 0.13914 0.59042 0.0
Co182 Co 0.53942 0.14221 0.52054 0.0
C183 C 0.74616 0.12801 0.52477 0.0
C184 C 0.71199 0.1074 0.55714 0.0
N185 N 0.69729 0.1216 0.53583 0.0
N186 N 0.79078 0.11846 0.5386 0.0
C187 C 0.76914 0.10539 0.5588 0.0
H188 H 0.74902 0.13993 0.50802 0.0
H189 H 0.68313 0.09929 0.57141 0.0
C190 C 0.58748 0.13417 0.45759 0.0
N191 N 0.46769 0.15167 0.51243 0.0
C192 C 0.41853 0.145 0.5225 0.0
C193 C 0.45358 0.1664 0.49233 0.0
N194 N 0.37427 0.15491 0.5092 0.0
C195 C 0.39642 0.16843 0.49035 0.0
C196 C 0.62362 0.16891 0.52324 0.0
O197 O 0.62976 0.1287 0.47694 0.0
O198 O 0.54527 0.14054 0.47199 0.0
O199 O 0.57069 0.16679 0.52036 0.0
O200 O 0.65463 0.15484 0.52661 0.0
O201 O 0.53323 0.14401 0.56928 0.0
H202 H 0.48289 0.17487 0.47917 0.0
H203 H 0.41521 0.13273 0.53823 0.0
O204 O 0.61859 0.13317 0.57815 0.0
O205 O 0.59654 0.10741 0.52913 0.0
O206 O 0.51007 0.1172 0.52092 0.0
C207 C 0.5447 0.104 0.52597 0.0
H208 H 0.79282 0.09519 0.57407 0.0
H209 H 0.37307 0.17902 0.4759 0.0
Co210 Co 0.48847 0.87073 0.52066 0.0
C211 C 0.43659 0.87803 0.58228 0.0
Co212 Co 0.40235 0.88145 0.51145 0.0
C213 C 0.6095 0.86825 0.51987 0.0
C214 C 0.5744 0.84704 0.55049 0.0
N215 N 0.56031 0.86159 0.52992 0.0
N216 N 0.65378 0.8585 0.53361 0.0
C217 C 0.63161 0.8451 0.55277 0.0
H218 H 0.61276 0.88035 0.50367 0.0
H219 H 0.54499 0.83858 0.56359 0.0
C220 C 0.45818 0.87399 0.45015 0.0
N221 N 0.33033 0.89052 0.50213 0.0
C222 C 0.28138 0.88426 0.51334 0.0
C223 C 0.31575 0.90442 0.48004 0.0
N224 N 0.23681 0.89362 0.49889 0.0
C225 C 0.25857 0.90639 0.47808 0.0
C226 C 0.48168 0.90891 0.51575 0.0
O227 O 0.49759 0.86952 0.47233 0.0
O228 O 0.41167 0.87936 0.46126 0.0
O229 O 0.43021 0.90517 0.51082 0.0
O230 O 0.51669 0.8959 0.52178 0.0
O231 O 0.39532 0.88357 0.56212 0.0
H232 H 0.34478 0.91238 0.46563 0.0
H233 H 0.2785 0.87262 0.53078 0.0
O234 O 0.47987 0.87187 0.56882 0.0
O235 O 0.4582 0.84592 0.51938 0.0
O236 O 0.37399 0.85758 0.51182 0.0
C237 C 0.40536 0.84361 0.51544 0.0
H238 H 0.65497 0.83462 0.56751 0.0
H239 H 0.23497 0.91642 0.46231 0.0
H240 H 0.33179 0.37828 0.98802 0.0
H241 H 0.43112 0.37182 0.98186 0.0
H242 H 0.47216 0.39724 0.08281 0.0
H243 H 0.37333 0.40319 0.08974 0.0
H244 H 0.52063 0.39677 0.98167 0.0
H245 H 0.55085 0.34748 0.09229 0.0
H246 H 0.48242 0.3541 0.07393 0.0
H247 H 0.52088 0.36902 0.10452 0.0
C248 C 0.36183 0.3823 1.0091 0.0
C249 C 0.34433 0.39123 0.03941 0.0
C250 C 0.41862 0.3787 1.00544 0.0
C251 C 0.45891 0.38381 0.03212 0.0
C252 C 0.4417 0.39287 0.06219 0.0
H253 H 0.82128 0.37791 0.06183 0.0
H254 H 0.72152 0.38414 0.06691 0.0
C255 C 0.38508 0.39648 0.06588 0.0
C256 C 0.51914 0.3801 0.02827 0.0
H257 H 0.63315 0.35817 0.06706 0.0
C258 C 0.54519 0.38823 1.00018 0.0
C259 C 0.55108 0.369 0.05254 0.0
C260 C 0.52486 0.35925 0.08234 0.0
C261 C 0.60266 0.38588 0.99612 0.0
C262 C 0.63464 0.37487 0.02051 0.0
C263 C 0.60855 0.36668 0.04852 0.0
C264 C 0.69509 0.37141 0.01709 0.0
C265 C 0.62892 0.39552 0.96621 0.0
C266 C 0.71317 0.36205 0.98759 0.0
C267 C 0.77003 0.35854 0.98456 0.0
C268 C 0.81006 0.36423 1.01109 0.0
C269 C 0.79172 0.37355 0.04074 0.0
C270 C 0.73472 0.37702 0.04378 0.0
H271 H 0.60241 0.40701 0.95556 0.0
H272 H 0.67085 0.40102 0.97484 0.0
H273 H 0.63419 0.38555 0.9445 0.0
H274 H 0.68322 0.35734 0.96696 0.0
H275 H 0.78258 0.35151 0.96121 0.0
H276 H 0.1984 0.63773 0.97483 0.0
H277 H 0.2982 0.6313 0.97041 0.0
H278 H 0.33588 0.65949 0.06901 0.0
H279 H 0.23649 0.66552 0.07412 0.0
H280 H 0.38682 0.65713 0.96918 0.0
H281 H 0.41629 0.60992 0.08333 0.0
H282 H 0.34803 0.61571 0.06351 0.0
H283 H 0.38457 0.63156 0.09313 0.0
C284 C 0.22784 0.64236 0.99577 0.0
C285 C 0.20931 0.65213 0.02484 0.0
C286 C 0.28486 0.63877 0.99311 0.0
C287 C 0.32433 0.64471 0.01961 0.0
C288 C 0.30606 0.65452 0.04854 0.0
H289 H 0.68761 0.63787 0.05009 0.0
H290 H 0.58822 0.6445 0.0557 0.0
C291 C 0.24918 0.65815 0.05119 0.0
C292 C 0.38481 0.64112 0.01659 0.0
H293 H 0.49841 0.61968 0.05698 0.0
C294 C 0.41121 0.64886 0.98825 0.0
C295 C 0.41653 0.63044 0.04167 0.0
C296 C 0.38994 0.62128 0.07198 0.0
C297 C 0.46872 0.64642 0.98456 0.0
C298 C 0.50041 0.63564 1.00952 0.0
C299 C 0.47405 0.62796 0.03794 0.0
C300 C 0.56066 0.63179 1.00606 0.0
C301 C 0.49527 0.65569 0.95434 0.0
C302 C 0.57801 0.62227 0.97654 0.0
C303 C 0.63466 0.61857 0.97317 0.0
C304 C 0.6753 0.62418 0.99941 0.0
C305 C 0.65765 0.63356 0.02919 0.0
C306 C 0.60083 0.63726 0.03253 0.0
H307 H 0.46944 0.66734 0.94369 0.0
H308 H 0.53769 0.66091 0.96261 0.0
H309 H 0.49937 0.64559 0.93272 0.0
H310 H 0.54765 0.61763 0.95609 0.0
H311 H 0.6465 0.6115 0.9497 0.0
H312 H 0.82606 0.63607 0.54981 0.0
H313 H 0.72654 0.62978 0.55527 0.0
H314 H 0.68599 0.65925 0.4588 0.0
H315 H 0.78508 0.66549 0.45303 0.0
H316 H 0.61882 0.66895 0.5133 0.0
H317 H 0.62896 0.59313 0.49692 0.0
H318 H 0.67638 0.6023 0.53107 0.0
H319 H 0.68517 0.60816 0.48588 0.0
C320 C 0.79605 0.64104 0.52957 0.0
C321 C 0.81371 0.65127 0.50096 0.0
C322 C 0.73917 0.63744 0.53272 0.0
C323 C 0.69894 0.64385 0.50719 0.0
C324 C 0.71635 0.65416 0.47879 0.0
H325 H 0.33578 0.63809 0.47448 0.0
H326 H 0.43532 0.64463 0.46989 0.0
C327 C 0.77308 0.6578 0.47564 0.0
C328 C 0.63854 0.64013 0.51024 0.0
H329 H 0.54238 0.60556 0.51244 0.0
C330 C 0.60202 0.6551 0.513 0.0
C331 C 0.61681 0.62204 0.50983 0.0
C332 C 0.65368 0.60547 0.50545 0.0
C333 C 0.54439 0.65246 0.51593 0.0
C334 C 0.52266 0.63438 0.51547 0.0
C335 C 0.55919 0.61941 0.51277 0.0
C336 C 0.4622 0.63065 0.5182 0.0
C337 C 0.50747 0.66903 0.52025 0.0
C338 C 0.44441 0.62034 0.54648 0.0
C339 C 0.38765 0.61657 0.54915 0.0
C340 C 0.34738 0.62294 0.52345 0.0
C341 C 0.36545 0.63321 0.495 0.0
C342 C 0.42235 0.63696 0.49234 0.0
H343 H 0.53215 0.68137 0.52885 0.0
H344 H 0.48488 0.67221 0.4946 0.0
H345 H 0.47589 0.66632 0.53977 0.0
H346 H 0.47449 0.61533 0.56671 0.0
H347 H 0.37536 0.60887 0.57168 0.0
H348 H 0.68348 0.36216 0.52431 0.0
H349 H 0.58353 0.35588 0.52761 0.0
H350 H 0.54744 0.41367 0.51552 0.0
H351 H 0.64714 0.42008 0.51244 0.0
H352 H 0.50725 0.36961 0.57476 0.0
H353 H 0.44654 0.38975 0.43686 0.0
H354 H 0.51828 0.38553 0.45227 0.0
H355 H 0.48523 0.40698 0.46204 0.0
C356 C 0.65439 0.37356 0.52273 0.0
C357 C 0.67333 0.39162 0.51785 0.0
C358 C 0.59726 0.36993 0.52441 0.0
C359 C 0.55806 0.38426 0.5211 0.0
C360 C 0.57689 0.40235 0.51723 0.0
H361 H 0.19702 0.39194 0.526 0.0
H362 H 0.29698 0.3979 0.52189 0.0
C363 C 0.63391 0.40599 0.5155 0.0
C364 C 0.49745 0.38036 0.52207 0.0
H365 H 0.3725 0.38389 0.47395 0.0
C366 C 0.47778 0.37263 0.55268 0.0
C367 C 0.45918 0.38436 0.4932 0.0
C368 C 0.47828 0.39196 0.45909 0.0
C369 C 0.4206 0.36911 0.55549 0.0
C370 C 0.38231 0.37315 0.52666 0.0
C371 C 0.40198 0.38085 0.49602 0.0
C372 C 0.32164 0.36941 0.5278 0.0
C373 C 0.40149 0.36149 0.58959 0.0
C374 C 0.30234 0.35138 0.53158 0.0
C375 C 0.24529 0.34792 0.53378 0.0
C376 C 0.20633 0.36243 0.53204 0.0
C377 C 0.22572 0.38044 0.52717 0.0
C378 C 0.28287 0.38388 0.52501 0.0
H379 H 0.43344 0.36351 0.61176 0.0
H380 H 0.36179 0.36806 0.59659 0.0
H381 H 0.39393 0.34651 0.58648 0.0
H382 H 0.33145 0.33996 0.53291 0.0
H383 H 0.23172 0.33386 0.53676 0.0
H384 H 0.83661 0.86397 0.01226 0.0
H385 H 0.93647 0.85777 1.00801 0.0
H386 H 0.97401 0.91458 0.03198 0.0
H387 H 0.87439 0.9209 0.03616 0.0
H388 H 0.01468 0.87342 0.96486 0.0
H389 H 0.07204 0.88682 0.10642 0.0
H390 H 1.00053 0.88362 0.0895 0.0
H391 H 0.03489 0.90532 0.08425 0.0
C392 C 0.86601 0.8752 0.01621 0.0
C393 C 0.84754 0.89292 0.02485 0.0
C394 C 0.92309 0.8716 0.01397 0.0
C395 C 0.96268 0.88563 0.02042 0.0
C396 C 0.94426 0.90345 0.02783 0.0
H397 H 0.32459 0.89254 0.02103 0.0
H398 H 0.22463 0.89854 0.0251 0.0
C399 C 0.8873 0.90705 0.03015 0.0
C400 C 0.02328 0.88167 0.01936 0.0
H401 H 0.14706 0.88259 0.06928 0.0
C402 C 0.04363 0.87533 0.98771 0.0
C403 C 0.06089 0.88419 0.04925 0.0
C404 C 0.04105 0.8902 0.08439 0.0
C405 C 0.10083 0.87178 0.98492 0.0
C406 C 0.13845 0.87436 0.01478 0.0
C407 C 0.1181 0.88068 0.04644 0.0
C408 C 0.19909 0.87052 0.01367 0.0
C409 C 0.12072 0.8657 0.94984 0.0
C410 C 0.2179 0.85268 1.00682 0.0
C411 C 0.27496 0.84919 1.00467 0.0
C412 C 0.31443 0.86345 1.0095 0.0
C413 C 0.2955 0.88121 0.01745 0.0
C414 C 0.23834 0.88469 0.01958 0.0
H415 H 0.08947 0.86881 0.9278 0.0
H416 H 0.1609 0.87245 0.94453 0.0
H417 H 0.12765 0.85062 0.95028 0.0
H418 H 0.18839 0.84146 1.00305 0.0
H419 H 0.28815 0.83529 0.99922 0.0
H420 H 0.18424 0.1521 0.02607 0.0
H421 H 0.08457 0.15846 0.03089 0.0
H422 H 0.04688 0.10111 0.01304 0.0
H423 H 0.14639 0.09456 1.00911 0.0
H424 H 0.99824 0.15193 0.97837 0.0
H425 H 0.96207 0.11334 0.10052 0.0
H426 H 0.03123 0.11942 0.08812 0.0
H427 H 0.99503 0.10015 0.0676 0.0
C428 C 0.15491 0.14078 0.02387 0.0
C429 C 0.17338 0.1228 0.01727 0.0
C430 C 0.09791 0.14447 0.02636 0.0
C431 C 0.05839 0.13023 0.02268 0.0
C432 C 0.07671 0.11226 0.01651 0.0
H433 H 0.6957 0.1236 0.01993 0.0
H434 H 0.79549 0.1174 0.0156 0.0
C435 C 0.13359 0.10857 0.01392 0.0
C436 C 0.99775 0.13427 0.02365 0.0
H437 H 0.88135 0.12415 0.06732 0.0
C438 C 0.97269 0.14596 0.99793 0.0
C439 C 0.96452 0.12636 0.04908 0.0
C440 C 0.98955 0.11424 0.07811 0.0
C441 C 0.91504 0.14972 0.99658 0.0
C442 C 0.88179 0.14182 0.02202 0.0
C443 C 0.90688 0.13013 0.04776 0.0
C444 C 0.82105 0.14575 0.02285 0.0
C445 C 0.89003 0.16178 0.96744 0.0
C446 C 0.80228 0.16374 0.02834 0.0
C447 C 0.74528 0.16735 0.03057 0.0
C448 C 0.70578 0.15301 0.02762 0.0
C449 C 0.72473 0.135 0.02182 0.0
C450 C 0.78183 0.13141 0.01961 0.0
H451 H 0.91742 0.16255 0.94497 0.0
H452 H 0.84825 0.15664 0.95755 0.0
H453 H 0.88486 0.17592 0.97778 0.0
H454 H 0.83185 0.17498 0.0315 0.0
H455 H 0.73219 0.18138 0.03475 0.0
H456 H 0.28773 0.16448 0.46335 0.0
H457 H 0.18843 0.1586 0.46906 0.0
H458 H 0.22742 0.13047 0.56718 0.0
H459 H 0.32706 0.13679 0.56224 0.0
H460 H 0.13421 0.12477 0.47367 0.0
H461 H 0.10733 0.16767 0.59255 0.0
H462 H 0.16765 0.16959 0.56663 0.0
H463 H 0.16271 0.15103 0.59732 0.0
C464 C 0.27533 0.15728 0.48645 0.0
C465 C 0.31555 0.15126 0.51252 0.0
C466 C 0.21848 0.15381 0.48951 0.0
C467 C 0.20046 0.14433 0.51875 0.0
C468 C 0.24035 0.1381 0.54468 0.0
H469 H 0.8782 0.10944 0.58432 0.0
H470 H 0.97712 0.11547 0.57795 0.0
C471 C 0.29736 0.14156 0.54163 0.0
C472 C 0.13996 0.14068 0.52161 0.0
H473 H 0.03036 0.14908 0.57265 0.0
C474 C 0.11139 0.13013 0.49522 0.0
C475 C 0.11036 0.14772 0.54974 0.0
C476 C 0.13833 0.15977 0.57805 0.0
C477 C 0.05418 0.12611 0.49657 0.0
C478 C 0.02458 0.13313 0.52474 0.0
C479 C 0.05315 0.14372 0.55108 0.0
C480 C 0.96422 0.12932 0.52785 0.0
C481 C 0.02628 0.11402 0.4683 0.0
C482 C 0.92389 0.13523 0.5019 0.0
C483 C 0.86703 0.13164 0.50528 0.0
C484 C 0.84939 0.12215 0.5348 0.0
C485 C 0.89006 0.11645 0.56089 0.0
C486 C 0.94675 0.12002 0.55746 0.0
H487 H 0.05733 0.10612 0.45384 0.0
H488 H 0.99699 0.10419 0.47974 0.0
H489 H 1.0019 0.12274 0.44898 0.0
H490 H 0.93635 0.14273 0.47912 0.0
H491 H 0.83703 0.13618 0.48464 0.0
H492 H 0.70091 0.87603 0.47983 0.0
H493 H 0.8007 0.88186 0.47416 0.0
H494 H 0.83967 0.85506 0.57367 0.0
H495 H 0.74042 0.84931 0.57967 0.0
H496 H 0.87646 0.90145 0.51951 0.0
H497 H 0.94198 0.82861 0.50771 0.0
H498 H 0.86968 0.83571 0.50246 0.0
H499 H 0.90363 0.83339 0.54578 0.0
C500 C 0.73065 0.87144 0.50057 0.0
C501 C 0.71251 0.86205 0.53006 0.0
C502 C 0.7877 0.87471 0.49722 0.0
C503 C 0.82768 0.86859 0.52318 0.0
C504 C 0.80969 0.85948 0.55287 0.0
H505 H 0.19059 0.87681 0.55391 0.0
H506 H 0.09103 0.87097 0.5604 0.0
C507 C 0.7528 0.85619 0.55623 0.0
C508 C 0.88814 0.87211 0.51974 0.0
H509 H 0.01464 0.85077 0.51507 0.0
C510 C 0.90665 0.89038 0.51834 0.0
C511 C 0.92748 0.85763 0.51839 0.0
C512 C 0.90977 0.83772 0.51833 0.0
C513 C 0.96359 0.89458 0.51619 0.0
C514 C 1.0029 0.8801 0.51481 0.0
C515 C 0.98443 0.86183 0.51628 0.0
C516 C 0.06322 0.88363 0.51094 0.0
C517 C 0.98133 0.91448 0.51607 0.0
C518 C 0.08063 0.89239 0.48074 0.0
C519 C 0.13739 0.89565 0.47686 0.0
C520 C 0.17816 0.89015 0.50305 0.0
C521 C 0.16054 0.88113 0.53312 0.0
C522 C 0.10362 0.87786 0.53696 0.0
H523 H 0.94908 0.92364 0.52652 0.0
H524 H 0.02136 0.91651 0.53201 0.0
H525 H 0.98769 0.91872 0.48861 0.0
H526 H 0.05028 0.89656 0.45994 0.0
H527 H 0.14922 0.90223 0.45298 0.0
H528 H 0.06341 0.58716 0.05009 0.0
H529 H 0.07741 0.55354 0.05204 0.0
H530 H 0.94459 0.54663 0.97097 0.0
H531 H 0.93088 0.57972 0.96881 0.0
H532 H 0.99082 0.52847 0.06863 0.0
H533 H 0.06715 0.51302 0.93712 0.0
H534 H 0.07033 0.53578 0.95626 0.0
H535 H 1.0059 0.5273 0.93532 0.0
C536 C 0.03846 0.57842 0.03211 0.0
C537 C 0.99606 0.58598 1.00938 0.0
C538 C 0.04615 0.55928 0.03336 0.0
C539 C 0.01229 0.54762 1.0114 0.0
C540 C 0.9718 0.55533 0.98769 0.0
H541 H 0.95745 0.42906 0.98727 0.0
H542 H 0.94409 0.4627 0.9852 0.0
C543 C 0.96383 0.57426 0.98667 0.0
C544 C 0.01491 0.52735 0.01505 0.0
H545 H 0.03121 0.48768 0.96846 0.0
C546 C 1.00027 0.51954 0.04688 0.0
C547 C 0.02622 0.51575 0.98641 0.0
C548 C 0.04377 0.52337 0.95194 0.0
C549 C 0.99585 0.50041 0.05067 0.0
C550 C 1.00713 0.48881 0.02203 0.0
C551 C 0.02179 0.49662 0.99021 0.0
C552 C 1.00956 0.46854 0.02566 0.0
C553 C 0.97832 0.49279 0.08514 0.0
C554 C 0.05006 0.46078 0.04929 0.0
C555 C 0.05769 0.44183 0.05038 0.0
C556 C 0.02507 0.43015 0.02782 0.0
C557 C 0.9827 0.43776 1.00514 0.0
C558 C 0.97538 0.45692 1.00382 0.0
H559 H 0.95516 0.50316 0.10006 0.0
H560 H 0.95156 0.48042 0.08081 0.0
H561 H 0.01619 0.48877 0.10169 0.0
H562 H 0.0775 0.46945 0.06592 0.0
H563 H 0.09061 0.43634 0.06821 0.0
H564 H 0.06961 0.42729 0.50779 0.0
H565 H 0.08292 0.46079 0.5032 0.0
H566 H 0.9309 0.46988 0.55588 0.0
H567 H 0.9172 0.43684 0.56004 0.0
H568 H 0.9324 0.48788 0.49172 0.0
H569 H 0.12652 0.50123 0.57609 0.0
H570 H 0.13153 0.48343 0.54351 0.0
H571 H 0.08653 0.48031 0.57904 0.0
C572 C 0.04007 0.43651 0.51918 0.0
C573 C 0.99232 0.42953 0.5341 0.0
C574 C 0.04753 0.45559 0.5165 0.0
C575 C 1.0077 0.4678 0.52914 0.0
C576 C 0.96187 0.46074 0.54576 0.0
H577 H 0.95062 0.58675 0.52806 0.0
H578 H 0.93733 0.55323 0.53201 0.0
C579 C 0.95426 0.44184 0.54819 0.0
C580 C 0.01069 0.48788 0.523 0.0
H581 H 0.08808 0.52627 0.54323 0.0
C582 C 0.96641 0.49631 0.503 0.0
C583 C 0.05495 0.4988 0.53785 0.0
C584 C 0.10244 0.49058 0.56058 0.0
C585 C 0.96555 0.51535 0.49708 0.0
C586 C 1.00977 0.52627 0.51195 0.0
C587 C 0.05408 0.51784 0.53193 0.0
C588 C 0.01261 0.54637 0.506 0.0
C589 C 0.91804 0.52358 0.47437 0.0
C590 C 0.05845 0.55353 0.48954 0.0
C591 C 0.06606 0.57244 0.48746 0.0
C592 C 0.02796 0.58466 0.50177 0.0
C593 C 0.98016 0.5776 0.51649 0.0
C594 C 0.97272 0.5585 0.51881 0.0
H595 H 0.89409 0.51293 0.45877 0.0
H596 H 0.88884 0.53066 0.49146 0.0
H597 H 0.9339 0.5339 0.456 0.0
H598 H 0.08949 0.54445 0.4793 0.0
H599 H 0.10316 0.57753 0.47578 0.0
H600 H 0.59501 0.93525 0.06826 0.0
H601 H 0.5823 0.96847 0.06879 0.0
H602 H 0.44422 0.96332 0.99076 0.0
H603 H 0.45643 0.92969 0.99058 0.0
H604 H 0.59522 0.98976 1.01012 0.0
H605 H 0.38543 1.00018 0.0616 0.0
H606 H 0.42346 0.97882 0.06692 0.0
H607 H 0.38723 0.98427 0.02543 0.0
C608 C 0.56106 0.94115 0.05178 0.0
C609 C 0.52672 0.92996 0.02929 0.0
C610 C 0.554 0.96013 0.05205 0.0
C611 C 0.51251 0.96839 0.02978 0.0
C612 C 0.47609 0.9572 1.0085 0.0
H613 H 0.42951 0.07982 0.97633 0.0
H614 H 0.44355 0.04669 0.97817 0.0
C615 C 0.48291 0.93802 1.00844 0.0
C616 C 0.51106 0.98871 0.02706 0.0
H617 H 0.42963 0.02641 0.03911 0.0
C618 C 0.55909 0.9978 0.01659 0.0
C619 C 0.464 0.99913 0.03561 0.0
C620 C 0.41221 0.99017 0.04832 0.0
C621 C 0.56094 0.01703 0.01382 0.0
C622 C 0.51376 0.02744 0.02215 0.0
C623 C 0.46584 0.01836 0.0328 0.0
C624 C 0.51163 0.0477 0.01831 0.0
C625 C 0.6127 0.02603 1.00114 0.0
C626 C 0.54675 0.05937 0.03946 0.0
C627 C 0.53914 0.07851 0.0382 0.0
C628 C 0.49587 0.08604 0.01611 0.0
C629 C 0.46297 0.07434 0.99378 0.0
C630 C 0.47079 0.0554 0.99485 0.0
H631 H 0.64064 0.01595 0.98903 0.0
H632 H 0.60128 0.03691 0.98156 0.0
H633 H 0.63646 0.0326 0.02384 0.0
H634 H 0.57818 0.05365 0.05804 0.0
H635 H 0.56453 0.08725 0.05593 0.0
H636 H 0.59424 0.07863 0.56856 0.0
H637 H 0.58087 0.04548 0.56671 0.0
H638 H 0.44417 0.05198 0.4882 0.0
H639 H 0.45801 0.0856 0.48971 0.0
H640 H 0.49095 0.02234 0.57738 0.0
H641 H 0.5568 0.01874 0.43978 0.0
H642 H 0.56599 0.03915 0.46665 0.0
H643 H 0.49812 0.03343 0.4468 0.0
C644 C 0.56073 0.07305 0.55122 0.0
C645 C 0.52749 0.08463 0.52897 0.0
C646 C 0.55312 0.05409 0.55026 0.0
C647 C 0.51235 0.04624 0.52684 0.0
C648 C 0.47658 0.0578 0.50603 0.0
H649 H 0.43125 0.93464 0.4743 0.0
H650 H 0.44417 0.96777 0.47709 0.0
C651 C 0.48401 0.07696 0.50716 0.0
C652 C 0.5103 0.02594 0.52331 0.0
H653 H 0.53439 0.99073 0.46655 0.0
C654 C 0.5003 0.0154 0.55314 0.0
C655 C 0.52343 0.01696 0.49181 0.0
C656 C 0.53719 0.02758 0.45945 0.0
C657 C 0.50193 0.9961 0.55212 0.0
C658 C 0.51496 0.98713 0.52059 0.0
C659 C 0.52505 0.99767 0.49079 0.0
C660 C 0.51266 0.96683 0.51695 0.0
C661 C 0.48825 0.98547 0.58447 0.0
C662 C 0.54847 0.95518 0.53753 0.0
C663 C 0.5413 0.93602 0.53588 0.0
C664 C 0.49803 0.92842 0.51378 0.0
C665 C 0.46459 0.94013 0.49189 0.0
C666 C 0.47194 0.95908 0.49338 0.0
H667 H 0.4689 0.99432 0.60424 0.0
H668 H 0.45925 0.97395 0.57729 0.0
H669 H 0.5273 0.97954 0.59699 0.0
H670 H 0.58087 0.96093 0.55548 0.0
H671 H 0.56751 0.92729 0.55304 0.0
H672 H 0.22744 0.33703 0.03441 0.0
H673 H 0.27206 0.30706 0.03368 0.0
H674 H 0.11036 0.28097 0.02035 0.0
H675 H 0.06472 0.31128 0.02048 0.0
H676 H 0.26187 0.27776 0.07842 0.0
H677 H 0.19549 0.25857 0.94039 0.0
H678 H 0.18938 0.28171 0.95701 0.0
H679 H 0.13956 0.26447 0.96771 0.0
C680 C 0.20101 0.32498 0.03124 0.0
C681 C 0.1423 0.3266 0.02738 0.0
C682 C 0.22679 0.30781 0.03089 0.0
C683 C 0.19471 0.29178 0.02658 0.0
C684 C 0.136 0.29321 0.0231 0.0
H685 H 0.28564 0.17706 0.01853 0.0
H686 H 0.23865 0.20667 0.01992 0.0
C687 C 0.10995 0.31051 0.02339 0.0
C688 C 0.22351 0.2737 0.02618 0.0
H689 H 0.24648 0.23634 0.97437 0.0
C690 C 0.25852 0.26869 0.05567 0.0
C691 C 0.21935 0.26195 0.9964 0.0
C692 C 0.18434 0.26695 0.96342 0.0
C693 C 0.28894 0.25216 0.05636 0.0
C694 C 0.28492 0.24045 0.02655 0.0
C695 C 0.24971 0.2454 0.99713 0.0
C696 C 0.31489 0.22259 0.02588 0.0
C697 C 0.32421 0.24719 0.08926 0.0
C698 C 0.3737 0.22167 0.02853 0.0
C699 C 0.40109 0.20462 0.02779 0.0
C700 C 0.36999 0.18826 0.02425 0.0
C701 C 0.31112 0.18934 0.02136 0.0
C702 C 0.28399 0.20629 0.02208 0.0
H703 H 0.31297 0.2555 0.11236 0.0
H704 H 0.31955 0.2324 0.09558 0.0
H705 H 0.36891 0.24979 0.0849 0.0
H706 H 0.39839 0.23414 0.0309 0.0
H707 H 0.44641 0.20427 0.02993 0.0
H708 H 0.73361 0.83866 0.01244 0.0
H709 H 0.77937 0.80888 1.01064 0.0
H710 H 0.61861 0.78196 1.00429 0.0
H711 H 0.57177 0.81204 1.00573 0.0
H712 H 0.77259 0.78021 0.05842 0.0
H713 H 0.69962 0.75853 0.92287 0.0
H714 H 0.69447 0.78198 0.93804 0.0
H715 H 0.64534 0.76504 0.95102 0.0
C716 C 0.70761 0.82647 1.01045 0.0
C717 C 0.6488 0.82777 1.00919 0.0
C718 C 0.73406 0.80942 1.00948 0.0
C719 C 0.70254 0.7932 1.00706 0.0
C720 C 0.64376 0.79434 1.00561 0.0
H721 H 0.79065 0.67842 1.00423 0.0
H722 H 0.74528 0.70831 1.00393 0.0
C723 C 0.61704 0.81151 1.00658 0.0
C724 C 0.73196 0.77522 1.00712 0.0
H725 H 0.75247 0.73692 0.95736 0.0
C726 C 0.76829 0.77074 0.03631 0.0
C727 C 0.72647 0.76294 0.97818 0.0
C728 C 0.68977 0.76736 0.94557 0.0
C729 C 0.79855 0.75417 0.03763 0.0
C730 C 0.79314 0.7419 1.00867 0.0
C731 C 0.75681 0.74639 0.97946 0.0
C732 C 0.82232 0.72386 1.00888 0.0
C733 C 0.83487 0.74973 0.0704 0.0
C734 C 0.8811 0.72259 1.01153 0.0
C735 C 0.90758 0.70536 1.01184 0.0
C736 C 0.8756 0.68914 1.00928 0.0
C737 C 0.8168 0.69058 1.00629 0.0
C738 C 0.79059 0.70769 1.00604 0.0
H739 H 0.8244 0.75844 0.09314 0.0
H740 H 0.83047 0.73507 0.07774 0.0
H741 H 0.87934 0.75224 0.0653 0.0
H742 H 0.90647 0.73492 0.01313 0.0
H743 H 0.95286 0.70474 0.01403 0.0
H744 H 0.22998 0.67692 0.5345 0.0
H745 H 0.27672 0.70657 0.5355 0.0
H746 H 0.11999 0.73325 0.50573 0.0
H747 H 0.0721 0.70332 0.50504 0.0
H748 H 0.28414 0.73035 0.47954 0.0
H749 H 0.18205 0.764 0.59015 0.0
H750 H 0.17801 0.73955 0.58214 0.0
H751 H 0.13487 0.75504 0.55564 0.0
C752 C 0.20504 0.68906 0.5284 0.0
C753 C 0.14711 0.68772 0.51967 0.0
C754 C 0.23203 0.70603 0.52896 0.0
C755 C 0.20192 0.72214 0.52094 0.0
C756 C 0.14391 0.72099 0.51258 0.0
H757 H 0.2954 0.83563 0.50138 0.0
H758 H 0.24936 0.80592 0.50263 0.0
C759 C 0.11662 0.7039 0.51208 0.0
C760 C 0.23232 0.73991 0.52012 0.0
H761 H 0.2433 0.78234 0.55862 0.0
C762 C 0.27533 0.74172 0.49688 0.0
C763 C 0.22092 0.75467 0.54288 0.0
C764 C 0.1768 0.75326 0.56936 0.0
C765 C 0.30657 0.75801 0.4953 0.0
C766 C 0.29513 0.77279 0.51802 0.0
C767 C 0.25219 0.77096 0.54133 0.0
C768 C 0.32493 0.79065 0.51675 0.0
C769 C 0.35049 0.75943 0.46869 0.0
C770 C 0.38311 0.79202 0.52428 0.0
C771 C 0.41002 0.80914 0.52344 0.0
C772 C 0.37899 0.82516 0.51533 0.0
C773 C 0.3208 0.82363 0.50779 0.0
C774 C 0.29419 0.80662 0.50854 0.0
H775 H 0.34527 0.74864 0.44799 0.0
H776 H 0.34902 0.77311 0.45579 0.0
H777 H 0.39253 0.75773 0.48232 0.0
H778 H 0.40754 0.77989 0.53127 0.0
H779 H 0.45476 0.80988 0.5296 0.0
H780 H 0.78932 0.33661 0.50949 0.0
H781 H 0.74472 0.30658 0.50924 0.0
H782 H 0.90601 0.28067 0.52712 0.0
H783 H 0.95151 0.31097 0.52793 0.0
H784 H 0.75789 0.27629 0.46613 0.0
H785 H 0.8161 0.25995 0.60639 0.0
H786 H 0.82267 0.28276 0.58861 0.0
H787 H 0.87376 0.26545 0.58029 0.0
C788 C 0.81562 0.32457 0.51337 0.0
C789 C 0.87414 0.32623 0.51895 0.0
C790 C 0.78989 0.30738 0.51314 0.0
C791 C 0.82185 0.2914 0.51862 0.0
C792 C 0.88043 0.29288 0.52346 0.0
H793 H 0.73487 0.17665 0.53101 0.0
H794 H 0.78052 0.20646 0.52913 0.0
C795 C 0.90641 0.31017 0.52369 0.0
C796 C 0.79317 0.27332 0.51933 0.0
H797 H 0.76816 0.23689 0.57253 0.0
C798 C 0.76009 0.26766 0.48938 0.0
C799 C 0.79579 0.26216 0.54979 0.0
C800 C 0.82855 0.2679 0.58325 0.0
C801 C 0.73029 0.25101 0.48888 0.0
C802 C 0.73291 0.23987 0.51934 0.0
C803 C 0.76604 0.2455 0.54926 0.0
C804 C 0.70374 0.22188 0.52027 0.0
C805 C 0.69728 0.24529 0.45551 0.0
C806 C 0.64506 0.22062 0.51621 0.0
C807 C 0.61846 0.20345 0.51725 0.0
C808 C 0.65022 0.18732 0.52249 0.0
C809 C 0.70892 0.18875 0.52685 0.0
C810 C 0.73527 0.20581 0.52584 0.0
H811 H 0.70959 0.25324 0.43232 0.0
H812 H 0.70307 0.23042 0.45014 0.0
H813 H 0.65211 0.24775 0.4586 0.0
H814 H 0.61985 0.2329 0.51247 0.0
H815 H 0.57323 0.20283 0.51392 0.0
H816 H 0.13876 0.38206 0.14903 0.0
H817 H 0.11859 0.38247 0.21164 0.0
H818 H 0.94413 0.37233 0.18295 0.0
H819 H 0.96388 0.37139 0.12105 0.0
H820 H 0.04981 0.40486 0.24737 0.0
H821 H 0.97607 0.33293 0.2554 0.0
H822 H 0.01221 0.34131 0.21845 0.0
H823 H 0.93852 0.3456 0.22112 0.0
C824 C 0.09625 0.37975 0.15616 0.0
C825 C 0.05313 0.37648 0.13004 0.0
C826 C 0.08473 0.38003 0.1919 0.0
C827 C 0.02999 0.37704 0.20205 0.0
C828 C 0.98691 0.37412 0.17592 0.0
H829 H 0.8719 0.38263 0.4039 0.0
H830 H 0.88891 0.38339 0.34067 0.0
C831 C 0.99836 0.37369 0.14042 0.0
C832 C 0.01715 0.37745 0.2398 0.0
H833 H 0.9571 0.35257 0.30359 0.0
C834 C 0.02983 0.39339 0.25969 0.0
C835 C 0.99097 0.36247 0.25591 0.0
C836 C 0.97916 0.34455 0.23672 0.0
C837 C 0.01637 0.39482 0.29504 0.0
C838 C 0.98957 0.37996 0.31086 0.0
C839 C 0.97685 0.36404 0.2911 0.0
C840 C 0.97862 0.38012 0.34875 0.0
C841 C 0.03067 0.41221 0.31537 0.0
C842 C 0.02334 0.37792 0.37391 0.0
C843 C 0.01379 0.37729 0.40968 0.0
C844 C 0.95922 0.37895 0.42116 0.0
C845 C 0.91434 0.38135 0.39589 0.0
C846 C 0.92397 0.38177 0.35986 0.0
H847 H 0.04253 0.42357 0.29786 0.0
H848 H 0.99466 0.41671 0.33031 0.0
H849 H 0.0664 0.4095 0.33471 0.0
H850 H 0.06571 0.37647 0.3658 0.0
H851 H 0.04945 0.37552 0.42837 0.0
H852 H 0.98126 0.66216 0.12234 0.0
H853 H 1.00738 0.65835 0.18488 0.0
H854 H 0.92424 0.60576 0.18357 0.0
H855 H 0.89717 0.60965 0.12027 0.0
H856 H 0.91001 0.62759 0.2456 0.0
H857 H 0.1331 0.62226 0.21688 0.0
H858 H 0.10027 0.64245 0.19808 0.0
H859 H 0.07688 0.62007 0.18313 0.0
C860 C 0.96742 0.64994 0.1355 0.0
C861 C 0.93732 0.63617 0.11645 0.0
C862 C 0.98292 0.6477 0.17116 0.0
C863 C 0.96934 0.63153 0.18861 0.0
C864 C 0.93579 0.61825 0.17041 0.0
H865 H 0.13167 0.61146 0.40142 0.0
H866 H 0.1049 0.60741 0.33812 0.0
C867 C 0.91983 0.62055 0.13443 0.0
C868 C 0.99193 0.62864 0.22551 0.0
H869 H 0.11452 0.62943 0.27692 0.0
C870 C 0.95469 0.62767 0.25243 0.0
C871 C 0.05034 0.62838 0.23444 0.0
C872 C 0.09249 0.62815 0.20658 0.0
C873 C 0.97427 0.62769 0.28809 0.0
C874 C 0.03254 0.62901 0.29703 0.0
C875 C 0.06988 0.62872 0.2701 0.0
C876 C 0.05471 0.63217 0.33398 0.0
C877 C 0.93221 0.62664 0.31594 0.0
C878 C 0.03813 0.64791 0.35196 0.0
C879 C 0.05347 0.65025 0.38767 0.0
C880 C 0.08641 0.63703 0.4062 0.0
C881 C 0.10679 0.62195 0.38767 0.0
C882 C 0.09101 0.61954 0.35168 0.0
H883 H 0.89274 0.61999 0.30557 0.0
H884 H 0.94921 0.61888 0.33934 0.0
H885 H 0.92186 0.64077 0.32453 0.0
H886 H 0.01154 0.65811 0.33862 0.0
H887 H 0.03734 0.66206 0.40125 0.0
H888 H 0.87755 0.63298 0.8889 0.0
H889 H 0.89643 0.63155 0.82603 0.0
H890 H 0.07094 0.64256 0.85241 0.0
H891 H 0.05281 0.64421 0.91469 0.0
H892 H 0.96117 0.66268 0.78682 0.0
H893 H 0.05706 0.59291 0.78903 0.0
H894 H 1.00675 0.59988 0.82001 0.0
H895 H 0.07704 0.60844 0.82466 0.0
C896 C 0.91986 0.63514 0.88126 0.0
C897 C 0.96357 0.63875 0.90684 0.0
C898 C 0.93057 0.63429 0.84542 0.0
C899 C 0.98517 0.63678 0.83477 0.0
C900 C 0.02865 0.64044 0.86018 0.0
H901 H 0.14453 0.6317 0.63411 0.0
H902 H 0.1257 0.63204 0.69702 0.0
C903 C 0.01801 0.64146 0.89578 0.0
C904 C 0.99721 0.63602 0.79707 0.0
H905 H 0.06062 0.60985 0.73634 0.0
C906 C 0.98251 0.6511 0.77563 0.0
C907 C 0.02606 0.62103 0.78292 0.0
C908 C 0.04258 0.60454 0.80515 0.0
C909 C 0.99634 0.65168 0.74029 0.0
C910 C 0.02426 0.6365 0.72578 0.0
C911 C 0.03924 0.62145 0.74741 0.0
C912 C 0.03621 0.63577 0.68789 0.0
C913 C 0.9821 0.66876 0.71914 0.0
C914 C 0.99217 0.63726 0.66196 0.0
C915 C 1.00281 0.63724 0.62634 0.0
C916 C 0.05777 0.63542 0.61563 0.0
C917 C 0.10183 0.63323 0.64153 0.0
C918 C 0.0911 0.63342 0.67742 0.0
H919 H 0.97773 0.68094 0.73648 0.0
H920 H 0.01454 0.67177 0.70036 0.0
H921 H 0.9415 0.6667 0.70389 0.0
H922 H 0.94934 0.6385 0.66929 0.0
H923 H 0.96766 0.63865 0.60714 0.0
H924 H 0.98963 0.35298 0.63559 0.0
H925 H 0.01452 0.35681 0.69832 0.0
H926 H 0.91439 0.40609 0.69966 0.0
H927 H 0.88845 0.4021 0.63632 0.0
H928 H 0.07315 0.38714 0.7265 0.0
H929 H 0.86968 0.37799 0.78747 0.0
H930 H 0.88026 0.37062 0.74298 0.0
H931 H 0.87134 0.39458 0.75258 0.0
C932 C 0.97171 0.3644 0.64939 0.0
C933 C 0.93688 0.37721 0.63112 0.0
C934 C 0.98634 0.36665 0.68521 0.0
C935 C 0.96669 0.38178 0.70369 0.0
C936 C 0.92965 0.3942 0.686 0.0
H937 H 0.12116 0.40695 0.91739 0.0
H938 H 0.0957 0.41012 0.8538 0.0
C939 C 0.91455 0.39186 0.64991 0.0
C940 C 0.9879 0.38472 0.74091 0.0
H941 H 0.94902 0.38345 0.82569 0.0
C942 C 0.04598 0.38655 0.74824 0.0
C943 C 0.95241 0.38393 0.76916 0.0
C944 C 0.88997 0.38155 0.76291 0.0
C945 C 0.0697 0.38688 0.78304 0.0
C946 C 0.03433 0.38556 0.81128 0.0
C947 C 0.97608 0.38448 0.80396 0.0
C948 C 0.05665 0.38331 0.8484 0.0
C949 C 0.13249 0.3877 0.78934 0.0
C950 C 0.0446 0.36708 0.86614 0.0
C951 C 0.05899 0.36529 0.90204 0.0
C952 C 0.08603 0.37967 0.92113 0.0
C953 C 0.10133 0.39554 0.90311 0.0
C954 C 0.08643 0.39739 0.8669 0.0
H955 H 0.15424 0.38574 0.76464 0.0
H956 H 0.14463 0.40131 0.80066 0.0
H957 H 0.14728 0.37702 0.80855 0.0
H958 H 0.02209 0.35599 0.85242 0.0
H959 H 0.04647 0.35294 0.91534 0.0
H960 H 0.64371 0.88773 0.13825 0.0
H961 H 0.62675 0.88725 0.20138 0.0
H962 H 0.47506 0.85638 0.17841 0.0
H963 H 0.49169 0.85661 0.11593 0.0
H964 H 0.53049 0.90142 0.23332 0.0
H965 H 0.55715 0.82669 0.25749 0.0
H966 H 0.58241 0.83791 0.21929 0.0
H967 H 0.50964 0.832 0.22046 0.0
C968 C 0.60726 0.8806 0.14677 0.0
C969 C 0.56923 0.87215 0.12206 0.0
C970 C 0.59746 0.88043 0.18277 0.0
C971 C 0.54991 0.87162 0.19458 0.0
C972 C 0.51245 0.86299 0.16998 0.0
H973 H 0.38936 0.8857 0.39366 0.0
H974 H 0.4103 0.88552 0.33116 0.0
C975 C 0.52202 0.8632 0.13419 0.0
C976 C 0.53776 0.87193 0.23236 0.0
H977 H 0.51459 0.84396 0.30188 0.0
C978 C 0.52736 0.88889 0.24844 0.0
C979 C 0.53386 0.85555 0.252 0.0
C980 C 0.54684 0.83701 0.23658 0.0
C981 C 0.51225 0.88987 0.28354 0.0
C982 C 0.50673 0.87345 0.30284 0.0
C983 C 0.51804 0.85653 0.28688 0.0
C984 C 0.4927 0.87351 0.34032 0.0
C985 C 0.50325 0.90848 0.29989 0.0
C986 C 0.53135 0.86641 0.36596 0.0
C987 C 0.51943 0.86639 0.40137 0.0
C988 C 0.46833 0.87339 0.41207 0.0
C989 C 0.42906 0.88023 0.38629 0.0
C990 C 0.44116 0.88027 0.35065 0.0
H991 H 0.52088 0.91973 0.2843 0.0
H992 H 0.45768 0.91096 0.30111 0.0
H993 H 0.52265 0.90908 0.32719 0.0
H994 H 0.57122 0.86106 0.35859 0.0
H995 H 0.55071 0.86097 0.42042 0.0
H996 H 0.4966 0.15812 0.13354 0.0
H997 H 0.52207 0.15335 0.19583 0.0
H998 H 0.42074 0.10433 0.19452 0.0
H999 H 0.39408 0.10926 0.13147 0.0
H1000 H 0.41223 0.12543 0.25531 0.0
H1001 H 0.63492 0.11473 0.23106 0.0
H1002 H 0.60927 0.13596 0.21241 0.0
H1003 H 0.58034 0.1145 0.19601 0.0
C1004 C 0.47905 0.14642 0.14653 0.0
C1005 C 0.44361 0.13398 0.12754 0.0
C1006 C 0.49418 0.14361 0.1821 0.0
C1007 C 0.47498 0.12814 0.19958 0.0
C1008 C 0.43679 0.11622 0.18137 0.0
H1009 H 0.62758 0.10697 0.41499 0.0
H1010 H 0.60161 0.10255 0.35162 0.0
C1011 C 0.42117 0.11911 0.1455 0.0
C1012 C 0.49532 0.12478 0.23683 0.0
H1013 H 0.6154 0.12325 0.2906 0.0
C1014 C 0.45658 0.12462 0.26297 0.0
C1015 C 0.5532 0.12329 0.24694 0.0
C1016 C 0.59676 0.12192 0.22007 0.0
C1017 C 0.47433 0.12433 0.29894 0.0
C1018 C 0.53238 0.12458 0.30905 0.0
C1019 C 0.57099 0.1234 0.28292 0.0
C1020 C 0.55327 0.12767 0.34632 0.0
C1021 C 0.4306 0.12411 0.32582 0.0
C1022 C 0.53739 0.14367 0.36376 0.0
C1023 C 0.55214 0.14618 0.3995 0.0
C1024 C 0.58393 0.13291 0.41866 0.0
C1025 C 0.60346 0.11748 0.40077 0.0
C1026 C 0.58817 0.11488 0.36473 0.0
H1027 H 0.39095 0.11781 0.3148 0.0
H1028 H 0.44539 0.11641 0.34981 0.0
H1029 H 0.42122 0.13844 0.33361 0.0
H1030 H 0.51208 0.15402 0.34991 0.0
H1031 H 0.53683 0.15829 0.41253 0.0
H1032 H 0.50599 0.16431 0.91974 0.0
H1033 H 0.52508 0.16366 0.85748 0.0
H1034 H 0.42063 0.11558 0.84225 0.0
H1035 H 0.39907 0.11682 0.90448 0.0
H1036 H 0.57816 0.13927 0.82341 0.0
H1037 H 0.36454 0.14451 0.75913 0.0
H1038 H 0.3786 0.14828 0.80573 0.0
H1039 H 0.37231 0.12525 0.78832 0.0
C1040 C 0.48618 0.15381 0.90293 0.0
C1041 C 0.45069 0.1407 0.91684 0.0
C1042 C 0.49736 0.15339 0.86736 0.0
C1043 C 0.47407 0.13966 0.84487 0.0
C1044 C 0.43803 0.12661 0.85867 0.0
H1045 H 0.62119 0.11692 0.64221 0.0
H1046 H 0.59862 0.11597 0.70425 0.0
C1047 C 0.4258 0.12728 0.89427 0.0
C1048 C 0.49011 0.13869 0.80763 0.0
H1049 H 0.43763 0.13744 0.722 0.0
C1050 C 0.54734 0.13895 0.80123 0.0
C1051 C 0.45008 0.13839 0.77857 0.0
C1052 C 0.38799 0.13928 0.7832 0.0
C1053 C 0.56563 0.13922 0.76683 0.0
C1054 C 0.52564 0.13846 0.73778 0.0
C1055 C 0.46843 0.13792 0.74418 0.0
C1056 C 0.54163 0.13915 0.70052 0.0
C1057 C 0.62752 0.14103 0.76215 0.0
C1058 C 0.51656 0.15223 0.67745 0.0
C1059 C 0.52837 0.15247 0.64197 0.0
C1060 C 0.56622 0.13982 0.62874 0.0
C1061 C 0.59259 0.12702 0.65187 0.0
C1062 C 0.57979 0.12652 0.68736 0.0
H1063 H 0.6501 0.14696 0.78599 0.0
H1064 H 0.64536 0.1272 0.75764 0.0
H1065 H 0.63555 0.14985 0.73925 0.0
H1066 H 0.48717 0.16216 0.68681 0.0
H1067 H 0.50738 0.16249 0.62474 0.0
H1068 H 0.39553 0.90512 0.62462 0.0
H1069 H 0.41792 0.90883 0.68853 0.0
H1070 H 0.50587 0.85705 0.6904 0.0
H1071 H 0.4835 0.85328 0.62741 0.0
H1072 H 0.4406 0.86171 0.74736 0.0
H1073 H 0.57779 0.92218 0.72895 0.0
H1074 H 0.50683 0.92408 0.71074 0.0
H1075 H 0.553 0.90755 0.6928 0.0
C1076 C 0.41827 0.89436 0.639 0.0
C1077 C 0.43777 0.87892 0.62115 0.0
C1078 C 0.4318 0.8966 0.67531 0.0
C1079 C 0.46466 0.88338 0.69406 0.0
C1080 C 0.48094 0.86748 0.6765 0.0
H1081 H 0.6552 0.87892 0.89871 0.0
H1082 H 0.63033 0.88052 0.83463 0.0
C1083 C 0.4679 0.86532 0.6405 0.0
C1084 C 0.48393 0.88597 0.73171 0.0
H1085 H 0.56991 0.91196 0.78747 0.0
C1086 C 0.46865 0.87275 0.75611 0.0
C1087 C 0.52148 0.90018 0.74298 0.0
C1088 C 0.54128 0.91426 0.71756 0.0
C1089 C 0.48944 0.87342 0.79145 0.0
C1090 C 0.52619 0.88777 0.80285 0.0
C1091 C 0.54186 0.90096 0.77855 0.0
C1092 C 0.54536 0.88967 0.84055 0.0
C1093 C 0.47217 0.8587 0.81644 0.0
C1094 C 0.50662 0.89494 0.8647 0.0
C1095 C 0.52053 0.89397 0.90075 0.0
C1096 C 0.5737 0.88783 0.91357 0.0
C1097 C 0.61411 0.88379 0.88947 0.0
C1098 C 0.59986 0.88464 0.853 0.0
H1099 H 0.45271 0.84671 0.80224 0.0
H1100 H 0.50881 0.85386 0.8333 0.0
H1101 H 0.44124 0.8645 0.83399 0.0
H1102 H 0.46458 0.89899 0.85563 0.0
H1103 H 0.48868 0.89734 0.91876 0.0
loop_
_geom_bond_atom_site_label_1
_geom_bond_atom_site_label_2
_geom_bond_distance
_geom_bond_site_symmetry_2
_ccdc_geom_bond_type
Co0 N5 2.057 1_454 S
Co0 O17 2.021 . S
Co0 O20 2.062 1_455 S
Co0 O24 2.117 1_554 S
Co0 O25 2.020 . S
C1 O21 1.259 . S
C1 O24 1.258 . S
Co2 N11 2.057 . S
Co2 O18 2.117 . S
Co2 O19 2.020 . S
Co2 O21 2.021 1_554 S
Co2 O26 2.062 . S
C3 N5 1.316 1_554 S
C3 N6 1.350 . S
C3 H8 0.931 . S
C4 N5 1.375 . S
C4 C7 1.350 . S
C4 H9 0.930 . S
N5 Co0 2.057 1_656 S
N5 C3 1.316 1_556 S
N5 C4 1.375 . S
N6 C3 1.350 . S
N6 C7 1.367 1_554 S
C7 C4 1.350 . S
C7 N6 1.367 1_556 S
C7 H28 0.931 . S
H8 C3 0.931 . S
H9 C4 0.930 . S
C10 O17 1.259 . S
C10 O18 1.258 . S
N11 Co2 2.057 . S
N11 C12 1.316 1_554 S
N11 C13 1.375 . S
C12 N11 1.316 1_556 S
C12 N14 1.347 1_556 S
C12 H23 0.931 . S
C13 N11 1.375 . S
C13 C15 1.350 . S
C13 H22 0.930 . S
N14 C12 1.347 1_554 S
N14 C15 1.373 . S
C15 C13 1.350 . S
C15 N14 1.373 . S
C15 H29 0.931 . S
C16 O19 1.256 . S
C16 O20 1.255 1_455 S
O17 Co0 2.021 . S
O17 C10 1.259 . S
O18 Co2 2.117 . S
O18 C10 1.258 . S
O19 Co2 2.020 . S
O19 C16 1.256 . S
O20 Co0 2.062 1_655 S
O20 C16 1.255 1_655 S
O21 C1 1.259 . S
O21 Co2 2.021 1_556 S
H22 C13 0.930 . S
H23 C12 0.931 . S
O24 Co0 2.117 1_556 S
O24 C1 1.258 . S
O25 Co0 2.020 . S
O25 C27 1.256 . S
O26 Co2 2.062 . S
O26 C27 1.255 . S
C27 O25 1.256 . S
C27 O26 1.255 . S
H28 C7 0.931 . S
H29 C15 0.931 . S
Co30 N35 2.057 1_554 S
Co30 O47 2.021 . S
Co30 O50 2.062 . S
Co30 O54 2.117 1_554 S
Co30 O55 2.020 . S
C31 O51 1.259 . S
C31 O54 1.258 . S
Co32 N41 2.057 1_655 S
Co32 O48 2.117 . S
Co32 O49 2.020 . S
Co32 O51 2.021 1_554 S
Co32 O56 2.062 1_655 S
C33 N35 1.316 1_554 S
C33 N36 1.347 1_554 S
C33 H38 0.931 . S
C34 N35 1.375 . S
C34 C37 1.350 . S
C34 H39 0.930 . S
N35 Co30 2.057 1_556 S
N35 C33 1.316 1_556 S
N35 C34 1.375 . S
N36 C33 1.347 1_556 S
N36 C37 1.373 . S
C37 C34 1.350 . S
C37 N36 1.373 . S
C37 H58 0.931 . S
H38 C33 0.931 . S
H39 C34 0.930 . S
C40 O47 1.259 . S
C40 O48 1.258 . S
N41 Co32 2.057 1_455 S
N41 C42 1.316 1_554 S
N41 C43 1.375 . S
C42 N41 1.316 1_556 S
C42 N44 1.347 1_556 S
C42 H53 0.931 . S
C43 N41 1.375 . S
C43 C45 1.350 . S
C43 H52 0.930 . S
N44 C42 1.347 1_554 S
N44 C45 1.373 . S
C45 C43 1.350 . S
C45 N44 1.373 . S
C45 H59 0.931 . S
C46 O49 1.256 . S
C46 O50 1.255 . S
O47 Co30 2.021 . S
O47 C40 1.259 . S
O48 Co32 2.117 . S
O48 C40 1.258 . S
O49 Co32 2.020 . S
O49 C46 1.256 . S
O50 Co30 2.062 . S
O50 C46 1.255 . S
O51 C31 1.259 . S
O51 Co32 2.021 1_556 S
H52 C43 0.930 . S
H53 C42 0.931 . S
O54 Co30 2.117 1_556 S
O54 C31 1.258 . S
O55 Co30 2.020 . S
O55 C57 1.256 . S
O56 Co32 2.062 1_455 S
O56 C57 1.255 1_455 S
C57 O55 1.256 . S
C57 O56 1.255 1_655 S
H58 C37 0.931 . S
H59 C45 0.931 . S
Co60 N65 2.057 . S
Co60 O77 2.021 . S
Co60 O80 2.062 . S
Co60 O84 2.117 . S
Co60 O85 2.020 . S
C61 O81 1.259 . S
C61 O84 1.258 . S
Co62 N71 2.057 1_455 S
Co62 O78 2.117 . S
Co62 O79 2.020 . S
Co62 O81 2.021 . S
Co62 O86 2.062 1_455 S
C63 N65 1.316 . S
C63 N66 1.347 . S
C63 H68 0.931 . S
C64 N65 1.375 . S
C64 C67 1.350 . S
C64 H69 0.930 . S
N65 Co60 2.057 . S
N65 C63 1.316 . S
N65 C64 1.375 . S
N66 C63 1.347 . S
N66 C67 1.373 . S
C67 C64 1.350 . S
C67 N66 1.373 . S
C67 H88 0.931 . S
H68 C63 0.931 . S
H69 C64 0.930 . S
C70 O77 1.259 . S
C70 O78 1.258 . S
N71 Co62 2.057 1_655 S
N71 C72 1.316 . S
N71 C73 1.375 . S
C72 N71 1.316 . S
C72 N74 1.347 . S
C72 H83 0.931 . S
C73 N71 1.375 . S
C73 C75 1.350 . S
C73 H82 0.930 . S
N74 C72 1.347 . S
N74 C75 1.373 . S
C75 C73 1.350 . S
C75 N74 1.373 . S
C75 H89 0.931 . S
C76 O79 1.256 . S
C76 O80 1.255 . S
O77 Co60 2.021 . S
O77 C70 1.259 . S
O78 Co62 2.117 . S
O78 C70 1.258 . S
O79 Co62 2.020 . S
O79 C76 1.256 . S
O80 Co60 2.062 . S
O80 C76 1.255 . S
O81 C61 1.259 . S
O81 Co62 2.021 . S
H82 C73 0.930 . S
H83 C72 0.931 . S
O84 Co60 2.117 . S
O84 C61 1.258 . S
O85 Co60 2.020 . S
O85 C87 1.256 . S
O86 Co62 2.062 1_655 S
O86 C87 1.255 1_655 S
C87 O85 1.256 . S
C87 O86 1.255 1_455 S
H88 C67 0.931 . S
H89 C75 0.931 . S
Co90 N95 2.057 1_655 S
Co90 O107 2.021 . S
Co90 O110 2.062 1_655 S
Co90 O114 2.117 . S
Co90 O115 2.020 . S
C91 O111 1.259 . S
C91 O114 1.258 . S
Co92 N101 2.057 . S
Co92 O108 2.117 . S
Co92 O109 2.020 . S
Co92 O111 2.021 . S
Co92 O116 2.062 . S
C93 N95 1.316 . S
C93 N96 1.347 . S
C93 H98 0.931 . S
C94 N95 1.375 . S
C94 C97 1.350 . S
C94 H99 0.930 . S
N95 Co90 2.057 1_455 S
N95 C93 1.316 . S
N95 C94 1.375 . S
N96 C93 1.347 . S
N96 C97 1.373 . S
C97 C94 1.350 . S
C97 N96 1.373 . S
C97 H118 0.931 . S
H98 C93 0.931 . S
H99 C94 0.930 . S
C100 O107 1.259 . S
C100 O108 1.258 . S
N101 Co92 2.057 . S
N101 C102 1.316 . S
N101 C103 1.375 . S
C102 N101 1.316 . S
C102 N104 1.347 . S
C102 H113 0.931 . S
C103 N101 1.375 . S
C103 C105 1.350 . S
C103 H112 0.930 . S
N104 C102 1.347 . S
N104 C105 1.373 . S
C105 C103 1.350 . S
C105 N104 1.373 . S
C105 H119 0.931 . S
C106 O109 1.256 . S
C106 O110 1.255 1_655 S
O107 Co90 2.021 . S
O107 C100 1.259 . S
O108 Co92 2.117 . S
O108 C100 1.258 . S
O109 Co92 2.020 . S
O109 C106 1.256 . S
O110 Co90 2.062 1_455 S
O110 C106 1.255 1_455 S
O111 C91 1.259 . S
O111 Co92 2.021 . S
H112 C103 0.930 . S
H113 C102 0.931 . S
O114 Co90 2.117 . S
O114 C91 1.258 . S
O115 Co90 2.020 . S
O115 C117 1.256 . S
O116 Co92 2.062 . S
O116 C117 1.255 . S
C117 O115 1.256 . S
C117 O116 1.255 . S
H118 C97 0.931 . S
H119 C105 0.931 . S
Co120 N125 2.057 1_554 S
Co120 O137 2.021 . S
Co120 O140 2.062 . S
Co120 O144 2.117 1_554 S
Co120 O145 2.020 . S
C121 O141 1.259 . S
C121 O144 1.258 . S
Co122 N131 2.057 . S
Co122 O138 2.117 . S
Co122 O139 2.020 . S
Co122 O141 2.021 1_554 S
Co122 O146 2.062 . S
C123 N125 1.316 1_554 S
C123 N126 1.350 . S
C123 H128 0.931 . S
C124 N125 1.375 . S
C124 C127 1.350 . S
C124 H129 0.930 . S
N125 Co120 2.057 1_556 S
N125 C123 1.316 1_556 S
N125 C124 1.375 . S
N126 C123 1.350 . S
N126 C127 1.367 1_554 S
C127 C124 1.350 . S
C127 N126 1.367 1_556 S
C127 H148 0.931 . S
H128 C123 0.931 . S
H129 C124 0.930 . S
C130 O137 1.259 . S
C130 O138 1.258 . S
N131 Co122 2.057 . S
N131 C132 1.316 1_554 S
N131 C133 1.375 . S
C132 N131 1.316 1_556 S
C132 N134 1.347 1_556 S
C132 H143 0.931 . S
C133 N131 1.375 . S
C133 C135 1.350 . S
C133 H142 0.930 . S
N134 C132 1.347 1_554 S
N134 C135 1.373 . S
C135 C133 1.350 . S
C135 N134 1.373 . S
C135 H149 0.931 . S
C136 O139 1.256 . S
C136 O140 1.255 . S
O137 Co120 2.021 . S
O137 C130 1.259 . S
O138 Co122 2.117 . S
O138 C130 1.258 . S
O139 Co122 2.020 . S
O139 C136 1.256 . S
O140 Co120 2.062 . S
O140 C136 1.255 . S
O141 C121 1.259 . S
O141 Co122 2.021 1_556 S
H142 C133 0.930 . S
H143 C132 0.931 . S
O144 Co120 2.117 1_556 S
O144 C121 1.258 . S
O145 Co120 2.020 . S
O145 C147 1.256 . S
O146 Co122 2.062 . S
O146 C147 1.255 . S
C147 O145 1.256 . S
C147 O146 1.255 . S
H148 C127 0.931 . S
H149 C135 0.931 . S
Co150 N155 2.057 1_554 S
Co150 O167 2.021 . S
Co150 O170 2.062 . S
Co150 O174 2.117 1_554 S
Co150 O175 2.020 . S
C151 O171 1.259 . S
C151 O174 1.258 . S
Co152 N161 2.057 . S
Co152 O168 2.117 . S
Co152 O169 2.020 . S
Co152 O171 2.021 1_554 S
Co152 O176 2.062 . S
C153 N155 1.316 1_554 S
C153 N156 1.347 1_554 S
C153 H158 0.931 . S
C154 N155 1.375 . S
C154 C157 1.350 . S
C154 H159 0.930 . S
N155 Co150 2.057 1_556 S
N155 C153 1.316 1_556 S
N155 C154 1.375 . S
N156 C153 1.347 1_556 S
N156 C157 1.373 . S
C157 C154 1.350 . S
C157 N156 1.373 . S
C157 H178 0.931 . S
H158 C153 0.931 . S
H159 C154 0.930 . S
C160 O167 1.259 . S
C160 O168 1.258 . S
N161 Co152 2.057 . S
N161 C162 1.316 1_554 S
N161 C163 1.375 . S
C162 N161 1.316 1_556 S
C162 N164 1.347 1_556 S
C162 H173 0.931 . S
C163 N161 1.375 . S
C163 C165 1.350 . S
C163 H172 0.930 . S
N164 C162 1.347 1_554 S
N164 C165 1.373 . S
C165 C163 1.350 . S
C165 N164 1.373 . S
C165 H179 0.931 . S
C166 O169 1.256 . S
C166 O170 1.255 . S
O167 Co150 2.021 . S
O167 C160 1.259 . S
O168 Co152 2.117 . S
O168 C160 1.258 . S
O169 Co152 2.020 . S
O169 C166 1.256 . S
O170 Co150 2.062 . S
O170 C166 1.255 . S
O171 C151 1.259 . S
O171 Co152 2.021 1_556 S
H172 C163 0.930 . S
H173 C162 0.931 . S
O174 Co150 2.117 1_556 S
O174 C151 1.258 . S
O175 Co150 2.020 . S
O175 C177 1.256 . S
O176 Co152 2.062 . S
O176 C177 1.255 . S
C177 O175 1.256 . S
C177 O176 1.255 . S
H178 C157 0.931 . S
H179 C165 0.931 . S
Co180 N185 2.057 . S
Co180 O197 2.021 . S
Co180 O200 2.062 . S
Co180 O204 2.117 . S
Co180 O205 2.020 . S
C181 O201 1.259 . S
C181 O204 1.258 . S
Co182 N191 2.057 . S
Co182 O198 2.117 . S
Co182 O199 2.020 . S
Co182 O201 2.021 . S
Co182 O206 2.062 . S
C183 N185 1.316 . S
C183 N186 1.347 . S
C183 H188 0.931 . S
C184 N185 1.375 . S
C184 C187 1.350 . S
C184 H189 0.930 . S
N185 Co180 2.057 . S
N185 C183 1.316 . S
N185 C184 1.375 . S
N186 C183 1.347 . S
N186 C187 1.373 . S
C187 C184 1.350 . S
C187 N186 1.373 . S
C187 H208 0.931 . S
H188 C183 0.931 . S
H189 C184 0.930 . S
C190 O197 1.259 . S
C190 O198 1.258 . S
N191 Co182 2.057 . S
N191 C192 1.316 . S
N191 C193 1.375 . S
C192 N191 1.316 . S
C192 N194 1.347 . S
C192 H203 0.931 . S
C193 N191 1.375 . S
C193 C195 1.350 . S
C193 H202 0.930 . S
N194 C192 1.347 . S
N194 C195 1.373 . S
C195 C193 1.350 . S
C195 N194 1.373 . S
C195 H209 0.931 . S
C196 O199 1.256 . S
C196 O200 1.255 . S
O197 Co180 2.021 . S
O197 C190 1.259 . S
O198 Co182 2.117 . S
O198 C190 1.258 . S
O199 Co182 2.020 . S
O199 C196 1.256 . S
O200 Co180 2.062 . S
O200 C196 1.255 . S
O201 C181 1.259 . S
O201 Co182 2.021 . S
H202 C193 0.930 . S
H203 C192 0.931 . S
O204 Co180 2.117 . S
O204 C181 1.258 . S
O205 Co180 2.020 . S
O205 C207 1.256 . S
O206 Co182 2.062 . S
O206 C207 1.255 . S
C207 O205 1.256 . S
C207 O206 1.255 . S
H208 C187 0.931 . S
H209 C195 0.931 . S
Co210 N215 2.057 . S
Co210 O227 2.021 . S
Co210 O230 2.062 . S
Co210 O234 2.117 . S
Co210 O235 2.020 . S
C211 O231 1.259 . S
C211 O234 1.258 . S
Co212 N221 2.057 . S
Co212 O228 2.117 . S
Co212 O229 2.020 . S
Co212 O231 2.021 . S
Co212 O236 2.062 . S
C213 N215 1.316 . S
C213 N216 1.347 . S
C213 H218 0.931 . S
C214 N215 1.375 . S
C214 C217 1.350 . S
C214 H219 0.930 . S
N215 Co210 2.057 . S
N215 C213 1.316 . S
N215 C214 1.375 . S
N216 C213 1.347 . S
N216 C217 1.373 . S
C217 C214 1.350 . S
C217 N216 1.373 . S
C217 H238 0.931 . S
H218 C213 0.931 . S
H219 C214 0.930 . S
C220 O227 1.259 . S
C220 O228 1.258 . S
N221 Co212 2.057 . S
N221 C222 1.316 . S
N221 C223 1.375 . S
C222 N221 1.316 . S
C222 N224 1.347 . S
C222 H233 0.931 . S
C223 N221 1.375 . S
C223 C225 1.350 . S
C223 H232 0.930 . S
N224 C222 1.347 . S
N224 C225 1.373 . S
C225 C223 1.350 . S
C225 N224 1.373 . S
C225 H239 0.931 . S
C226 O229 1.256 . S
C226 O230 1.255 . S
O227 Co210 2.021 . S
O227 C220 1.259 . S
O228 Co212 2.117 . S
O228 C220 1.258 . S
O229 Co212 2.020 . S
O229 C226 1.256 . S
O230 Co210 2.062 . S
O230 C226 1.255 . S
O231 C211 1.259 . S
O231 Co212 2.021 . S
H232 C223 0.930 . S
H233 C222 0.931 . S
O234 Co210 2.117 . S
O234 C211 1.258 . S
O235 Co210 2.020 . S
O235 C237 1.256 . S
O236 Co212 2.062 . S
O236 C237 1.255 . S
C237 O235 1.256 . S
C237 O236 1.255 . S
H238 C217 0.931 . S
H239 C225 0.931 . S
H240 C248 0.929 . S
H241 C250 0.930 . S
H242 C252 0.930 . S
H243 C255 0.929 . S
H244 C258 0.930 . S
H245 C260 0.960 . S
H246 C260 0.960 . S
H247 C260 0.960 . S
C248 H240 0.929 . S
C248 C249 1.377 1_556 S
C248 C250 1.384 . S
C249 C248 1.377 1_554 S
C249 C255 1.390 . S
C250 H241 0.930 . S
C250 C248 1.384 . S
C250 C251 1.372 1_556 S
C251 C250 1.372 1_554 S
C251 C252 1.400 . S
C251 C256 1.490 . S
C252 H242 0.930 . S
C252 C251 1.400 . S
C252 C255 1.386 . S
H253 C269 0.930 . S
H254 C270 0.931 . S
C255 H243 0.929 . S
C255 C249 1.390 . S
C255 C252 1.386 . S
C256 C251 1.490 . S
C256 C258 1.395 1_554 S
C256 C259 1.403 . S
H257 C263 0.930 . S
C258 H244 0.930 . S
C258 C256 1.395 1_556 S
C258 C261 1.403 . S
C259 C256 1.403 . S
C259 C260 1.524 . S
C259 C263 1.400 . S
C260 H245 0.960 . S
C260 H246 0.960 . S
C260 H247 0.960 . S
C260 C259 1.524 . S
C261 C258 1.403 . S
C261 C262 1.392 1_556 S
C261 C265 1.495 . S
C262 C261 1.392 1_554 S
C262 C263 1.385 . S
C262 C264 1.478 . S
C263 H257 0.930 . S
C263 C259 1.400 . S
C263 C262 1.385 . S
C264 C262 1.478 . S
C264 C266 1.381 1_554 S
C264 C270 1.383 . S
C265 C261 1.495 . S
C265 H271 0.959 . S
C265 H272 0.961 . S
C265 H273 0.960 . S
C266 C264 1.381 1_556 S
C266 C267 1.394 . S
C266 H274 0.930 . S
C267 C266 1.394 . S
C267 C268 1.383 1_556 S
C267 H275 0.929 . S
C268 C267 1.383 1_554 S
C268 C269 1.377 . S
C269 H253 0.930 . S
C269 C268 1.377 . S
C269 C270 1.379 . S
C270 H254 0.931 . S
C270 C264 1.383 . S
C270 C269 1.379 . S
H271 C265 0.959 . S
H272 C265 0.961 . S
H273 C265 0.960 . S
H274 C266 0.930 . S
H275 C267 0.929 . S
H276 C284 0.929 . S
H277 C286 0.930 . S
H278 C288 0.930 . S
H279 C291 0.929 . S
H280 C294 0.930 . S
H281 C296 0.960 . S
H282 C296 0.960 . S
H283 C296 0.960 . S
C284 H276 0.929 . S
C284 C285 1.377 1_556 S
C284 C286 1.384 . S
C285 C284 1.377 1_554 S
C285 C291 1.390 . S
C286 H277 0.930 . S
C286 C284 1.384 . S
C286 C287 1.372 1_556 S
C287 C286 1.372 1_554 S
C287 C288 1.400 . S
C287 C292 1.490 . S
C288 H278 0.930 . S
C288 C287 1.400 . S
C288 C291 1.386 . S
H289 C305 0.930 . S
H290 C306 0.931 . S
C291 H279 0.929 . S
C291 C285 1.390 . S
C291 C288 1.386 . S
C292 C287 1.490 . S
C292 C294 1.395 1_554 S
C292 C295 1.403 . S
H293 C299 0.930 . S
C294 H280 0.930 . S
C294 C292 1.395 1_556 S
C294 C297 1.403 . S
C295 C292 1.403 . S
C295 C296 1.524 . S
C295 C299 1.400 . S
C296 H281 0.960 . S
C296 H282 0.960 . S
C296 H283 0.960 . S
C296 C295 1.524 . S
C297 C294 1.403 . S
C297 C298 1.394 . S
C297 C301 1.495 . S
C298 C297 1.394 . S
C298 C299 1.383 1_556 S
C298 C300 1.478 . S
C299 H293 0.930 . S
C299 C295 1.400 . S
C299 C298 1.383 1_554 S
C300 C298 1.478 . S
C300 C302 1.380 . S
C300 C306 1.383 1_556 S
C301 C297 1.495 . S
C301 H307 0.959 . S
C301 H308 0.961 . S
C301 H309 0.960 . S
C302 C300 1.380 . S
C302 C303 1.394 . S
C302 H310 0.930 . S
C303 C302 1.394 . S
C303 C304 1.383 1_556 S
C303 H311 0.929 . S
C304 C303 1.383 1_554 S
C304 C305 1.377 . S
C305 H289 0.930 . S
C305 C304 1.377 . S
C305 C306 1.379 . S
C306 H290 0.931 . S
C306 C300 1.383 1_554 S
C306 C305 1.379 . S
H307 C301 0.959 . S
H308 C301 0.961 . S
H309 C301 0.960 . S
H310 C302 0.930 . S
H311 C303 0.929 . S
H312 C320 0.929 . S
H313 C322 0.930 . S
H314 C324 0.930 . S
H315 C327 0.929 . S
H316 C330 0.930 . S
H317 C332 0.960 . S
H318 C332 0.960 . S
H319 C332 0.960 . S
C320 H312 0.929 . S
C320 C321 1.377 . S
C320 C322 1.384 . S
C321 C320 1.377 . S
C321 C327 1.390 . S
C322 H313 0.930 . S
C322 C320 1.384 . S
C322 C323 1.372 . S
C323 C322 1.372 . S
C323 C324 1.400 . S
C323 C328 1.490 . S
C324 H314 0.930 . S
C324 C323 1.400 . S
C324 C327 1.386 . S
H325 C341 0.930 . S
H326 C342 0.931 . S
C327 H315 0.929 . S
C327 C321 1.390 . S
C327 C324 1.386 . S
C328 C323 1.490 . S
C328 C330 1.395 . S
C328 C331 1.403 . S
H329 C335 0.930 . S
C330 H316 0.930 . S
C330 C328 1.395 . S
C330 C333 1.403 . S
C331 C328 1.403 . S
C331 C332 1.524 . S
C331 C335 1.400 . S
C332 H317 0.960 . S
C332 H318 0.960 . S
C332 H319 0.960 . S
C332 C331 1.524 . S
C333 C330 1.403 . S
C333 C334 1.392 . S
C333 C337 1.495 . S
C334 C333 1.392 . S
C334 C335 1.385 . S
C334 C336 1.478 . S
C335 H329 0.930 . S
C335 C331 1.400 . S
C335 C334 1.385 . S
C336 C334 1.478 . S
C336 C338 1.381 . S
C336 C342 1.383 . S
C337 C333 1.495 . S
C337 H343 0.959 . S
C337 H344 0.961 . S
C337 H345 0.960 . S
C338 C336 1.381 . S
C338 C339 1.394 . S
C338 H346 0.930 . S
C339 C338 1.394 . S
C339 C340 1.383 . S
C339 H347 0.929 . S
C340 C339 1.383 . S
C340 C341 1.377 . S
C341 H325 0.930 . S
C341 C340 1.377 . S
C341 C342 1.379 . S
C342 H326 0.931 . S
C342 C336 1.383 . S
C342 C341 1.379 . S
H343 C337 0.959 . S
H344 C337 0.961 . S
H345 C337 0.960 . S
H346 C338 0.930 . S
H347 C339 0.929 . S
H348 C356 0.929 . S
H349 C358 0.930 . S
H350 C360 0.930 . S
H351 C363 0.929 . S
H352 C366 0.930 . S
H353 C368 0.960 . S
H354 C368 0.960 . S
H355 C368 0.960 . S
C356 H348 0.929 . S
C356 C357 1.377 . S
C356 C358 1.384 . S
C357 C356 1.377 . S
C357 C363 1.390 . S
C358 H349 0.930 . S
C358 C356 1.384 . S
C358 C359 1.372 . S
C359 C358 1.372 . S
C359 C360 1.400 . S
C359 C364 1.490 . S
C360 H350 0.930 . S
C360 C359 1.400 . S
C360 C363 1.386 . S
H361 C377 0.930 . S
H362 C378 0.931 . S
C363 H351 0.929 . S
C363 C357 1.390 . S
C363 C360 1.386 . S
C364 C359 1.490 . S
C364 C366 1.395 . S
C364 C367 1.403 . S
H365 C371 0.930 . S
C366 H352 0.930 . S
C366 C364 1.395 . S
C366 C369 1.403 . S
C367 C364 1.403 . S
C367 C368 1.524 . S
C367 C371 1.400 . S
C368 H353 0.960 . S
C368 H354 0.960 . S
C368 H355 0.960 . S
C368 C367 1.524 . S
C369 C366 1.403 . S
C369 C370 1.392 . S
C369 C373 1.495 . S
C370 C369 1.392 . S
C370 C371 1.385 . S
C370 C372 1.478 . S
C371 H365 0.930 . S
C371 C367 1.400 . S
C371 C370 1.385 . S
C372 C370 1.478 . S
C372 C374 1.381 . S
C372 C378 1.383 . S
C373 C369 1.495 . S
C373 H379 0.959 . S
C373 H380 0.961 . S
C373 H381 0.960 . S
C374 C372 1.381 . S
C374 C375 1.394 . S
C374 H382 0.930 . S
C375 C374 1.394 . S
C375 C376 1.383 . S
C375 H383 0.929 . S
C376 C375 1.383 . S
C376 C377 1.377 . S
C377 H361 0.930 . S
C377 C376 1.377 . S
C377 C378 1.379 . S
C378 H362 0.931 . S
C378 C372 1.383 . S
C378 C377 1.379 . S
H379 C373 0.959 . S
H380 C373 0.961 . S
H381 C373 0.960 . S
H382 C374 0.930 . S
H383 C375 0.929 . S
H384 C392 0.929 . S
H385 C394 0.930 . S
H386 C396 0.922 1_556 S
H387 C399 0.925 1_556 S
H388 C402 0.931 . S
H389 C404 0.960 . S
H390 C404 0.969 . S
H391 C404 0.960 1_655 S
C392 H384 0.929 . S
C392 C393 1.377 . S
C392 C394 1.384 . S
C393 C392 1.377 . S
C393 C399 1.395 . S
C394 H385 0.930 . S
C394 C392 1.384 . S
C394 C395 1.372 . S
C395 C394 1.372 . S
C395 C396 1.407 . S
C395 C400 1.490 1_655 S
C396 H386 0.922 1_554 S
C396 C395 1.407 . S
C396 C399 1.386 . S
H397 C413 0.930 . S
H398 C414 0.931 . S
C399 H387 0.925 1_554 S
C399 C393 1.395 . S
C399 C396 1.386 . S
C400 C395 1.490 1_455 S
C400 C402 1.395 1_554 S
C400 C403 1.403 . S
H401 C407 0.930 . S
C402 H388 0.931 . S
C402 C400 1.395 1_556 S
C402 C405 1.403 . S
C403 C400 1.403 . S
C403 C404 1.524 . S
C403 C407 1.400 . S
C404 H389 0.960 . S
C404 H390 0.969 . S
C404 H391 0.960 1_455 S
C404 C403 1.524 . S
C405 C402 1.403 . S
C405 C406 1.392 1_556 S
C405 C409 1.495 . S
C406 C405 1.392 1_554 S
C406 C407 1.385 . S
C406 C408 1.478 . S
C407 H401 0.930 . S
C407 C403 1.400 . S
C407 C406 1.385 . S
C408 C406 1.478 . S
C408 C410 1.381 . S
C408 C414 1.383 1_554 S
C409 C405 1.495 . S
C409 H415 0.959 . S
C409 H416 0.961 . S
C409 H417 0.960 . S
C410 C408 1.381 . S
C410 C411 1.394 . S
C410 H418 0.930 . S
C411 C410 1.394 . S
C411 C412 1.383 . S
C411 H419 0.929 . S
C412 C411 1.383 . S
C412 C413 1.377 1_554 S
C413 H397 0.930 . S
C413 C412 1.377 1_556 S
C413 C414 1.379 . S
C414 H398 0.931 . S
C414 C408 1.383 1_556 S
C414 C413 1.379 . S
H415 C409 0.959 . S
H416 C409 0.961 . S
H417 C409 0.960 . S
H418 C410 0.930 . S
H419 C411 0.929 . S
H420 C428 0.929 . S
H421 C430 0.930 . S
H422 C432 0.930 . S
H423 C435 0.929 . S
H424 C438 0.930 . S
H425 C440 0.960 . S
H426 C440 0.960 1_455 S
H427 C440 0.960 1_455 S
C428 H420 0.929 . S
C428 C429 1.377 . S
C428 C430 1.384 . S
C429 C428 1.377 . S
C429 C435 1.390 1_554 S
C430 H421 0.930 . S
C430 C428 1.384 . S
C430 C431 1.372 . S
C431 C430 1.372 . S
C431 C432 1.400 1_554 S
C431 C436 1.490 1_455 S
C432 H422 0.930 . S
C432 C431 1.400 1_556 S
C432 C435 1.386 . S
H433 C449 0.930 . S
H434 C450 0.931 . S
C435 H423 0.929 . S
C435 C429 1.390 1_556 S
C435 C432 1.386 . S
C436 C431 1.490 1_655 S
C436 C438 1.395 1_554 S
C436 C439 1.403 . S
H437 C443 0.930 . S
C438 H424 0.930 . S
C438 C436 1.395 1_556 S
C438 C441 1.403 . S
C439 C436 1.403 . S
C439 C440 1.524 . S
C439 C443 1.400 . S
C440 H425 0.960 . S
C440 H426 0.960 1_655 S
C440 H427 0.960 1_655 S
C440 C439 1.524 . S
C441 C438 1.403 . S
C441 C442 1.392 1_556 S
C441 C445 1.495 . S
C442 C441 1.392 1_554 S
C442 C443 1.385 . S
C442 C444 1.478 . S
C443 H437 0.930 . S
C443 C439 1.400 . S
C443 C442 1.385 . S
C444 C442 1.478 . S
C444 C446 1.381 . S
C444 C450 1.383 1_554 S
C445 C441 1.495 . S
C445 H451 0.959 . S
C445 H452 0.961 . S
C445 H453 0.960 . S
C446 C444 1.381 . S
C446 C447 1.394 . S
C446 H454 0.930 . S
C447 C446 1.394 . S
C447 C448 1.383 . S
C447 H455 0.929 . S
C448 C447 1.383 . S
C448 C449 1.377 1_554 S
C449 H433 0.930 . S
C449 C448 1.377 1_556 S
C449 C450 1.379 . S
C450 H434 0.931 . S
C450 C444 1.383 1_556 S
C450 C449 1.379 . S
H451 C445 0.959 . S
H452 C445 0.961 . S
H453 C445 0.960 . S
H454 C446 0.930 . S
H455 C447 0.929 . S
H456 C464 0.929 . S
H457 C466 0.930 . S
H458 C468 0.930 . S
H459 C471 0.929 . S
H460 C474 0.930 . S
H461 C476 0.960 . S
H462 C476 0.960 . S
H463 C476 0.960 . S
C464 H456 0.929 . S
C464 C465 1.377 . S
C464 C466 1.384 . S
C465 C464 1.377 . S
C465 C471 1.390 . S
C466 H457 0.930 . S
C466 C464 1.384 . S
C466 C467 1.372 . S
C467 C466 1.372 . S
C467 C468 1.400 . S
C467 C472 1.490 . S
C468 H458 0.930 . S
C468 C467 1.400 . S
C468 C471 1.386 . S
H469 C485 0.930 . S
H470 C486 0.931 . S
C471 H459 0.929 . S
C471 C465 1.390 . S
C471 C468 1.386 . S
C472 C467 1.490 . S
C472 C474 1.395 . S
C472 C475 1.403 . S
H473 C479 0.930 . S
C474 H460 0.930 . S
C474 C472 1.395 . S
C474 C477 1.403 . S
C475 C472 1.403 . S
C475 C476 1.524 . S
C475 C479 1.400 . S
C476 H461 0.960 . S
C476 H462 0.960 . S
C476 H463 0.960 . S
C476 C475 1.524 . S
C477 C474 1.403 . S
C477 C478 1.392 . S
C477 C481 1.495 . S
C478 C477 1.392 . S
C478 C479 1.385 . S
C478 C480 1.478 1_455 S
C479 H473 0.930 . S
C479 C475 1.400 . S
C479 C478 1.385 . S
C480 C478 1.478 1_655 S
C480 C482 1.381 . S
C480 C486 1.383 . S
C481 C477 1.495 . S
C481 H487 0.959 . S
C481 H488 0.961 1_455 S
C481 H489 0.960 1_455 S
C482 C480 1.381 . S
C482 C483 1.394 . S
C482 H490 0.930 . S
C483 C482 1.394 . S
C483 C484 1.383 . S
C483 H491 0.929 . S
C484 C483 1.383 . S
C484 C485 1.377 . S
C485 H469 0.930 . S
C485 C484 1.377 . S
C485 C486 1.379 . S
C486 H470 0.931 . S
C486 C480 1.383 . S
C486 C485 1.379 . S
H487 C481 0.959 . S
H488 C481 0.961 1_655 S
H489 C481 0.960 1_655 S
H490 C482 0.930 . S
H491 C483 0.929 . S
H492 C500 0.929 . S
H493 C502 0.930 . S
H494 C504 0.930 . S
H495 C507 0.929 . S
H496 C510 0.930 . S
H497 C512 0.960 . S
H498 C512 0.960 . S
H499 C512 0.960 . S
C500 H492 0.929 . S
C500 C501 1.377 . S
C500 C502 1.384 . S
C501 C500 1.377 . S
C501 C507 1.390 . S
C502 H493 0.930 . S
C502 C500 1.384 . S
C502 C503 1.372 . S
C503 C502 1.372 . S
C503 C504 1.400 . S
C503 C508 1.490 . S
C504 H494 0.930 . S
C504 C503 1.400 . S
C504 C507 1.386 . S
H505 C521 0.930 . S
H506 C522 0.931 . S
C507 H495 0.929 . S
C507 C501 1.390 . S
C507 C504 1.386 . S
C508 C503 1.490 . S
C508 C510 1.395 . S
C508 C511 1.403 . S
H509 C515 0.936 . S
C510 H496 0.930 . S
C510 C508 1.395 . S
C510 C513 1.403 . S
C511 C508 1.403 . S
C511 C512 1.524 . S
C511 C515 1.400 . S
C512 H497 0.960 . S
C512 H498 0.960 . S
C512 H499 0.960 . S
C512 C511 1.524 . S
C513 C510 1.403 . S
C513 C514 1.392 . S
C513 C517 1.495 . S
C514 C513 1.392 . S
C514 C515 1.385 . S
C514 C516 1.478 1_655 S
C515 H509 0.936 . S
C515 C511 1.400 . S
C515 C514 1.385 . S
C516 C514 1.478 1_455 S
C516 C518 1.381 . S
C516 C522 1.383 . S
C517 C513 1.495 . S
C517 H523 0.959 . S
C517 H524 0.966 . S
C517 H525 0.960 1_655 S
C518 C516 1.381 . S
C518 C519 1.394 . S
C518 H526 0.930 . S
C519 C518 1.394 . S
C519 C520 1.383 . S
C519 H527 0.929 . S
C520 C519 1.383 . S
C520 C521 1.377 . S
C521 H505 0.930 . S
C521 C520 1.377 . S
C521 C522 1.379 . S
C522 H506 0.931 . S
C522 C516 1.383 . S
C522 C521 1.379 . S
H523 C517 0.959 . S
H524 C517 0.966 . S
H525 C517 0.960 1_455 S
H526 C518 0.930 . S
H527 C519 0.929 . S
H528 C536 0.929 . S
H529 C538 0.930 . S
H530 C540 0.930 . S
H531 C543 0.929 . S
H532 C546 0.930 . S
H533 C548 0.960 . S
H534 C548 0.960 . S
H535 C548 0.960 . S
C536 H528 0.929 . S
C536 C537 1.377 1_455 S
C536 C538 1.384 . S
C537 C536 1.377 1_655 S
C537 C543 1.390 1_554 S
C538 H529 0.930 . S
C538 C536 1.384 . S
C538 C539 1.372 1_455 S
C539 C538 1.372 1_655 S
C539 C540 1.400 1_554 S
C539 C544 1.490 . S
C540 H530 0.930 . S
C540 C539 1.400 1_556 S
C540 C543 1.386 . S
H541 C557 0.930 . S
H542 C558 0.931 . S
C543 H531 0.929 . S
C543 C537 1.390 1_556 S
C543 C540 1.386 . S
C544 C539 1.490 . S
C544 C546 1.395 . S
C544 C547 1.403 1_654 S
H545 C551 0.930 . S
C546 H532 0.930 . S
C546 C544 1.395 . S
C546 C549 1.403 . S
C547 C544 1.403 1_456 S
C547 C548 1.524 . S
C547 C551 1.400 . S
C548 H533 0.960 . S
C548 H534 0.960 . S
C548 H535 0.960 . S
C548 C547 1.524 . S
C549 C546 1.403 . S
C549 C550 1.392 1_655 S
C549 C553 1.495 . S
C550 C549 1.392 1_455 S
C550 C551 1.385 1_554 S
C550 C552 1.478 . S
C551 H545 0.930 . S
C551 C547 1.400 . S
C551 C550 1.385 1_556 S
C552 C550 1.478 . S
C552 C554 1.381 . S
C552 C558 1.383 1_454 S
C553 C549 1.495 . S
C553 H559 0.959 . S
C553 H560 0.961 . S
C553 H561 0.960 . S
C554 C552 1.381 . S
C554 C555 1.394 . S
C554 H562 0.930 . S
C555 C554 1.394 . S
C555 C556 1.383 . S
C555 H563 0.929 . S
C556 C555 1.383 . S
C556 C557 1.377 1_454 S
C557 H541 0.930 . S
C557 C556 1.377 1_656 S
C557 C558 1.379 . S
C558 H542 0.931 . S
C558 C552 1.383 1_656 S
C558 C557 1.379 . S
H559 C553 0.959 . S
H560 C553 0.961 . S
H561 C553 0.960 . S
H562 C554 0.930 . S
H563 C555 0.929 . S
H564 C572 0.929 . S
H565 C574 0.930 . S
H566 C576 0.930 . S
H567 C579 0.929 . S
H568 C582 0.930 . S
H569 C584 0.960 . S
H570 C584 0.960 . S
H571 C584 0.960 . S
C572 H564 0.929 . S
C572 C573 1.377 1_455 S
C572 C574 1.384 . S
C573 C572 1.377 1_655 S
C573 C579 1.390 . S
C574 H565 0.930 . S
C574 C572 1.384 . S
C574 C575 1.372 1_455 S
C575 C574 1.372 1_655 S
C575 C576 1.400 . S
C575 C580 1.490 . S
C576 H566 0.930 . S
C576 C575 1.400 . S
C576 C579 1.386 . S
H577 C593 0.930 . S
H578 C594 0.931 . S
C579 H567 0.929 . S
C579 C573 1.390 . S
C579 C576 1.386 . S
C580 C575 1.490 . S
C580 C582 1.395 . S
C580 C583 1.403 1_655 S
H581 C587 0.930 . S
C582 H568 0.930 . S
C582 C580 1.395 . S
C582 C585 1.403 . S
C583 C580 1.403 1_455 S
C583 C584 1.524 . S
C583 C587 1.400 . S
C584 H569 0.960 . S
C584 H570 0.960 . S
C584 H571 0.960 . S
C584 C583 1.524 . S
C585 C582 1.403 . S
C585 C586 1.392 1_655 S
C585 C589 1.495 . S
C586 C585 1.392 1_455 S
C586 C587 1.385 . S
C586 C588 1.478 . S
C587 H581 0.930 . S
C587 C583 1.400 . S
C587 C586 1.385 . S
C588 C586 1.478 . S
C588 C590 1.381 . S
C588 C594 1.383 1_455 S
C589 C585 1.495 . S
C589 H595 0.959 . S
C589 H596 0.961 . S
C589 H597 0.960 . S
C590 C588 1.381 . S
C590 C591 1.394 . S
C590 H598 0.930 . S
C591 C590 1.394 . S
C591 C592 1.383 . S
C591 H599 0.929 . S
C592 C591 1.383 . S
C592 C593 1.377 1_455 S
C593 H577 0.930 . S
C593 C592 1.377 1_655 S
C593 C594 1.379 . S
C594 H578 0.931 . S
C594 C588 1.383 1_655 S
C594 C593 1.379 . S
H595 C589 0.959 . S
H596 C589 0.961 . S
H597 C589 0.960 . S
H598 C590 0.930 . S
H599 C591 0.929 . S
H600 C608 0.929 . S
H601 C610 0.930 . S
H602 C612 0.930 . S
H603 C615 0.929 . S
H604 C618 0.930 1_556 S
H605 C620 0.960 . S
H606 C620 0.960 . S
H607 C620 0.960 . S
C608 H600 0.929 . S
C608 C609 1.377 . S
C608 C610 1.384 . S
C609 C608 1.377 . S
C609 C615 1.390 1_554 S
C610 H601 0.930 . S
C610 C608 1.384 . S
C610 C611 1.372 . S
C611 C610 1.372 . S
C611 C612 1.400 1_554 S
C611 C616 1.490 . S
C612 H602 0.930 . S
C612 C611 1.400 1_556 S
C612 C615 1.386 . S
H613 C629 0.930 . S
H614 C630 0.931 . S
C615 H603 0.929 . S
C615 C609 1.390 1_556 S
C615 C612 1.386 . S
C616 C611 1.490 . S
C616 C618 1.395 . S
C616 C619 1.403 . S
H617 C623 0.930 . S
C618 H604 0.930 1_554 S
C618 C616 1.395 . S
C618 C621 1.403 1_565 S
C619 C616 1.403 . S
C619 C620 1.524 . S
C619 C623 1.400 1_565 S
C620 H605 0.960 . S
C620 H606 0.960 . S
C620 H607 0.960 . S
C620 C619 1.524 . S
C621 C618 1.403 1_545 S
C621 C622 1.392 . S
C621 C625 1.495 1_554 S
C622 C621 1.392 . S
C622 C623 1.385 . S
C622 C624 1.478 . S
C623 H617 0.930 . S
C623 C619 1.400 1_545 S
C623 C622 1.385 . S
C624 C622 1.478 . S
C624 C626 1.381 . S
C624 C630 1.383 1_554 S
C625 C621 1.495 1_556 S
C625 H631 0.959 . S
C625 H632 0.961 . S
C625 H633 0.960 1_556 S
C626 C624 1.381 . S
C626 C627 1.394 . S
C626 H634 0.930 . S
C627 C626 1.394 . S
C627 C628 1.383 . S
C627 H635 0.929 . S
C628 C627 1.383 . S
C628 C629 1.377 1_554 S
C629 H613 0.930 . S
C629 C628 1.377 1_556 S
C629 C630 1.379 . S
C630 H614 0.931 . S
C630 C624 1.383 1_556 S
C630 C629 1.379 . S
H631 C625 0.959 . S
H632 C625 0.961 . S
H633 C625 0.960 1_554 S
H634 C626 0.930 . S
H635 C627 0.929 . S
H636 C644 0.929 . S
H637 C646 0.930 . S
H638 C648 0.930 . S
H639 C651 0.929 . S
H640 C654 0.930 . S
H641 C656 0.960 . S
H642 C656 0.960 . S
H643 C656 0.960 . S
C644 H636 0.929 . S
C644 C645 1.377 . S
C644 C646 1.384 . S
C645 C644 1.377 . S
C645 C651 1.390 . S
C646 H637 0.930 . S
C646 C644 1.384 . S
C646 C647 1.372 . S
C647 C646 1.372 . S
C647 C648 1.400 . S
C647 C652 1.490 . S
C648 H638 0.930 . S
C648 C647 1.400 . S
C648 C651 1.386 . S
H649 C665 0.930 . S
H650 C666 0.931 . S
C651 H639 0.929 . S
C651 C645 1.390 . S
C651 C648 1.386 . S
C652 C647 1.490 . S
C652 C654 1.395 . S
C652 C655 1.403 . S
H653 C659 0.930 . S
C654 H640 0.930 . S
C654 C652 1.395 . S
C654 C657 1.403 1_545 S
C655 C652 1.403 . S
C655 C656 1.524 . S
C655 C659 1.400 1_545 S
C656 H641 0.960 . S
C656 H642 0.960 . S
C656 H643 0.960 . S
C656 C655 1.524 . S
C657 C654 1.403 1_565 S
C657 C658 1.392 . S
C657 C661 1.495 . S
C658 C657 1.392 . S
C658 C659 1.385 . S
C658 C660 1.478 . S
C659 H653 0.930 . S
C659 C655 1.400 1_565 S
C659 C658 1.385 . S
C660 C658 1.478 . S
C660 C662 1.381 . S
C660 C666 1.383 . S
C661 C657 1.495 . S
C661 H667 0.959 . S
C661 H668 0.961 . S
C661 H669 0.960 . S
C662 C660 1.381 . S
C662 C663 1.394 . S
C662 H670 0.930 . S
C663 C662 1.394 . S
C663 C664 1.383 . S
C663 H671 0.929 . S
C664 C663 1.383 . S
C664 C665 1.377 . S
C665 H649 0.930 . S
C665 C664 1.377 . S
C665 C666 1.379 . S
C666 H650 0.931 . S
C666 C660 1.383 . S
C666 C665 1.379 . S
H667 C661 0.959 . S
H668 C661 0.961 . S
H669 C661 0.960 . S
H670 C662 0.930 . S
H671 C663 0.929 . S
H672 C680 0.929 . S
H673 C682 0.930 . S
H674 C684 0.930 . S
H675 C687 0.929 . S
H676 C690 0.930 . S
H677 C692 0.960 . S
H678 C692 0.960 1_556 S
H679 C692 0.960 . S
C680 H672 0.929 . S
C680 C681 1.377 1_556 S
C680 C682 1.384 . S
C681 C680 1.377 1_554 S
C681 C687 1.390 . S
C682 H673 0.930 . S
C682 C680 1.384 . S
C682 C683 1.372 1_556 S
C683 C682 1.372 1_554 S
C683 C684 1.400 . S
C683 C688 1.490 . S
C684 H674 0.930 . S
C684 C683 1.400 . S
C684 C687 1.386 . S
H685 C701 0.930 . S
H686 C702 0.931 . S
C687 H675 0.929 . S
C687 C681 1.390 . S
C687 C684 1.386 . S
C688 C683 1.490 . S
C688 C690 1.395 . S
C688 C691 1.403 . S
H689 C695 0.930 . S
C690 H676 0.930 . S
C690 C688 1.395 . S
C690 C693 1.403 . S
C691 C688 1.403 . S
C691 C692 1.524 . S
C691 C695 1.400 . S
C692 H677 0.960 . S
C692 H678 0.960 1_554 S
C692 H679 0.960 . S
C692 C691 1.524 . S
C693 C690 1.403 . S
C693 C694 1.392 . S
C693 C697 1.495 . S
C694 C693 1.392 . S
C694 C695 1.385 . S
C694 C696 1.478 . S
C695 H689 0.930 . S
C695 C691 1.400 . S
C695 C694 1.385 . S
C696 C694 1.478 . S
C696 C698 1.381 1_554 S
C696 C702 1.383 . S
C697 C693 1.495 . S
C697 H703 0.959 . S
C697 H704 0.961 . S
C697 H705 0.960 1_554 S
C698 C696 1.381 1_556 S
C698 C699 1.394 . S
C698 H706 0.930 . S
C699 C698 1.394 . S
C699 C700 1.383 1_556 S
C699 H707 0.929 . S
C700 C699 1.383 1_554 S
C700 C701 1.377 . S
C701 H685 0.930 . S
C701 C700 1.377 . S
C701 C702 1.379 . S
C702 H686 0.931 . S
C702 C696 1.383 . S
C702 C701 1.379 . S
H703 C697 0.959 . S
H704 C697 0.961 . S
H705 C697 0.960 1_556 S
H706 C698 0.930 . S
H707 C699 0.929 . S
H708 C716 0.929 . S
H709 C718 0.930 . S
H710 C720 0.930 . S
H711 C723 0.929 . S
H712 C726 0.930 . S
H713 C728 0.960 . S
H714 C728 0.960 . S
H715 C728 0.960 . S
C716 H708 0.929 . S
C716 C717 1.377 . S
C716 C718 1.384 . S
C717 C716 1.377 . S
C717 C723 1.390 . S
C718 H709 0.930 . S
C718 C716 1.384 . S
C718 C719 1.372 . S
C719 C718 1.372 . S
C719 C720 1.400 . S
C719 C724 1.490 . S
C720 H710 0.930 . S
C720 C719 1.400 . S
C720 C723 1.386 . S
H721 C737 0.930 . S
H722 C738 0.931 . S
C723 H711 0.929 . S
C723 C717 1.390 . S
C723 C720 1.386 . S
C724 C719 1.490 . S
C724 C726 1.395 . S
C724 C727 1.403 1_554 S
H725 C731 0.930 . S
C726 H712 0.930 . S
C726 C724 1.395 . S
C726 C729 1.403 . S
C727 C724 1.403 1_556 S
C727 C728 1.524 . S
C727 C731 1.400 . S
C728 H713 0.960 . S
C728 H714 0.960 . S
C728 H715 0.960 . S
C728 C727 1.524 . S
C729 C726 1.403 . S
C729 C730 1.392 . S
C729 C733 1.495 . S
C730 C729 1.392 . S
C730 C731 1.385 1_554 S
C730 C732 1.478 . S
C731 H725 0.930 . S
C731 C727 1.400 . S
C731 C730 1.385 1_556 S
C732 C730 1.478 . S
C732 C734 1.381 . S
C732 C738 1.383 . S
C733 C729 1.495 . S
C733 H739 0.959 . S
C733 H740 0.961 . S
C733 H741 0.960 . S
C734 C732 1.381 . S
C734 C735 1.394 . S
C734 H742 0.930 . S
C735 C734 1.394 . S
C735 C736 1.383 . S
C735 H743 0.933 . S
C736 C735 1.383 . S
C736 C737 1.377 . S
C737 H721 0.930 . S
C737 C736 1.377 . S
C737 C738 1.379 . S
C738 H722 0.931 . S
C738 C732 1.383 . S
C738 C737 1.379 . S
H739 C733 0.959 . S
H740 C733 0.961 . S
H741 C733 0.960 . S
H742 C734 0.930 . S
H743 C735 0.933 . S
H744 C752 0.929 . S
H745 C754 0.930 . S
H746 C756 0.930 . S
H747 C759 0.929 . S
H748 C762 0.930 . S
H749 C764 0.960 . S
H750 C764 0.960 . S
H751 C764 0.960 . S
C752 H744 0.929 . S
C752 C753 1.377 . S
C752 C754 1.384 . S
C753 C752 1.377 . S
C753 C759 1.390 . S
C754 H745 0.930 . S
C754 C752 1.384 . S
C754 C755 1.372 . S
C755 C754 1.372 . S
C755 C756 1.400 . S
C755 C760 1.490 . S
C756 H746 0.930 . S
C756 C755 1.400 . S
C756 C759 1.386 . S
H757 C773 0.930 . S
H758 C774 0.931 . S
C759 H747 0.929 . S
C759 C753 1.390 . S
C759 C756 1.386 . S
C760 C755 1.490 . S
C760 C762 1.395 . S
C760 C763 1.403 . S
H761 C767 0.930 . S
C762 H748 0.930 . S
C762 C760 1.395 . S
C762 C765 1.403 . S
C763 C760 1.403 . S
C763 C764 1.524 . S
C763 C767 1.400 . S
C764 H749 0.960 . S
C764 H750 0.960 . S
C764 H751 0.960 . S
C764 C763 1.524 . S
C765 C762 1.403 . S
C765 C766 1.392 . S
C765 C769 1.495 . S
C766 C765 1.392 . S
C766 C767 1.385 . S
C766 C768 1.478 . S
C767 H761 0.930 . S
C767 C763 1.400 . S
C767 C766 1.385 . S
C768 C766 1.478 . S
C768 C770 1.381 . S
C768 C774 1.383 . S
C769 C765 1.495 . S
C769 H775 0.959 . S
C769 H776 0.961 . S
C769 H777 0.960 . S
C770 C768 1.381 . S
C770 C771 1.394 . S
C770 H778 0.930 . S
C771 C770 1.394 . S
C771 C772 1.383 . S
C771 H779 0.929 . S
C772 C771 1.383 . S
C772 C773 1.377 . S
C773 H757 0.930 . S
C773 C772 1.377 . S
C773 C774 1.379 . S
C774 H758 0.931 . S
C774 C768 1.383 . S
C774 C773 1.379 . S
H775 C769 0.959 . S
H776 C769 0.961 . S
H777 C769 0.960 . S
H778 C770 0.930 . S
H779 C771 0.929 . S
H780 C788 0.929 . S
H781 C790 0.930 . S
H782 C792 0.930 . S
H783 C795 0.929 . S
H784 C798 0.930 . S
H785 C800 0.960 . S
H786 C800 0.960 . S
H787 C800 0.960 . S
C788 H780 0.929 . S
C788 C789 1.377 . S
C788 C790 1.384 . S
C789 C788 1.377 . S
C789 C795 1.390 . S
C790 H781 0.930 . S
C790 C788 1.384 . S
C790 C791 1.372 . S
C791 C790 1.372 . S
C791 C792 1.400 . S
C791 C796 1.490 . S
C792 H782 0.930 . S
C792 C791 1.400 . S
C792 C795 1.386 . S
H793 C809 0.930 . S
H794 C810 0.931 . S
C795 H783 0.929 . S
C795 C789 1.390 . S
C795 C792 1.386 . S
C796 C791 1.490 . S
C796 C798 1.395 . S
C796 C799 1.403 . S
H797 C803 0.930 . S
C798 H784 0.930 . S
C798 C796 1.395 . S
C798 C801 1.403 . S
C799 C796 1.403 . S
C799 C800 1.524 . S
C799 C803 1.400 . S
C800 H785 0.960 . S
C800 H786 0.960 . S
C800 H787 0.960 . S
C800 C799 1.524 . S
C801 C798 1.403 . S
C801 C802 1.392 . S
C801 C805 1.495 . S
C802 C801 1.392 . S
C802 C803 1.385 . S
C802 C804 1.478 . S
C803 H797 0.930 . S
C803 C799 1.400 . S
C803 C802 1.385 . S
C804 C802 1.478 . S
C804 C806 1.381 . S
C804 C810 1.383 . S
C805 C801 1.495 . S
C805 H811 0.959 . S
C805 H812 0.961 . S
C805 H813 0.960 . S
C806 C804 1.381 . S
C806 C807 1.394 . S
C806 H814 0.930 . S
C807 C806 1.394 . S
C807 C808 1.383 . S
C807 H815 0.929 . S
C808 C807 1.383 . S
C808 C809 1.377 . S
C809 H793 0.930 . S
C809 C808 1.377 . S
C809 C810 1.379 . S
C810 H794 0.931 . S
C810 C804 1.383 . S
C810 C809 1.379 . S
H811 C805 0.959 . S
H812 C805 0.961 . S
H813 C805 0.960 . S
H814 C806 0.930 . S
H815 C807 0.929 . S
H816 C824 0.929 . S
H817 C826 0.930 . S
H818 C828 0.930 1_655 S
H819 C831 0.929 . S
H820 C834 0.930 . S
H821 C836 0.960 . S
H822 C836 0.960 . S
H823 C836 0.960 . S
C824 H816 0.929 . S
C824 C825 1.377 . S
C824 C826 1.384 . S
C825 C824 1.377 . S
C825 C831 1.390 . S
C826 H817 0.930 . S
C826 C824 1.384 . S
C826 C827 1.372 . S
C827 C826 1.372 . S
C827 C828 1.400 . S
C827 C832 1.490 . S
C828 H818 0.930 1_455 S
C828 C827 1.400 . S
C828 C831 1.386 . S
H829 C845 0.930 . S
H830 C846 0.931 . S
C831 H819 0.929 . S
C831 C825 1.390 . S
C831 C828 1.386 . S
C832 C827 1.490 . S
C832 C834 1.395 . S
C832 C835 1.403 1_455 S
H833 C839 0.930 . S
C834 H820 0.930 . S
C834 C832 1.395 . S
C834 C837 1.403 . S
C835 C832 1.403 1_655 S
C835 C836 1.524 . S
C835 C839 1.400 . S
C836 H821 0.960 . S
C836 H822 0.960 . S
C836 H823 0.960 . S
C836 C835 1.524 . S
C837 C834 1.403 . S
C837 C838 1.392 1_455 S
C837 C841 1.495 . S
C838 C837 1.392 1_655 S
C838 C839 1.385 . S
C838 C840 1.478 . S
C839 H833 0.930 . S
C839 C835 1.400 . S
C839 C838 1.385 . S
C840 C838 1.478 . S
C840 C842 1.381 . S
C840 C846 1.383 . S
C841 C837 1.495 . S
C841 H847 0.959 . S
C841 H848 0.961 . S
C841 H849 0.960 . S
C842 C840 1.381 . S
C842 C843 1.394 . S
C842 H850 0.930 1_655 S
C843 C842 1.394 . S
C843 C844 1.383 . S
C843 H851 0.929 . S
C844 C843 1.383 . S
C844 C845 1.377 . S
C845 H829 0.930 . S
C845 C844 1.377 . S
C845 C846 1.379 . S
C846 H830 0.931 . S
C846 C840 1.383 . S
C846 C845 1.379 . S
H847 C841 0.959 . S
H848 C841 0.961 . S
H849 C841 0.960 . S
H850 C842 0.930 1_455 S
H851 C843 0.929 . S
H852 C860 0.929 . S
H853 C862 0.930 . S
H854 C864 0.930 . S
H855 C867 0.929 . S
H856 C870 0.930 . S
H857 C872 0.960 . S
H858 C872 0.960 . S
H859 C872 0.960 . S
C860 H852 0.929 . S
C860 C861 1.377 . S
C860 C862 1.384 . S
C861 C860 1.377 . S
C861 C867 1.390 . S
C862 H853 0.930 . S
C862 C860 1.384 . S
C862 C863 1.372 . S
C863 C862 1.372 . S
C863 C864 1.400 . S
C863 C868 1.490 . S
C864 H854 0.930 . S
C864 C863 1.400 . S
C864 C867 1.386 . S
H865 C881 0.930 . S
H866 C882 0.931 . S
C867 H855 0.929 . S
C867 C861 1.390 . S
C867 C864 1.386 . S
C868 C863 1.490 . S
C868 C870 1.395 . S
C868 C871 1.403 1_655 S
H869 C875 0.930 . S
C870 H856 0.930 . S
C870 C868 1.395 . S
C870 C873 1.403 . S
C871 C868 1.403 1_455 S
C871 C872 1.524 . S
C871 C875 1.400 . S
C872 H857 0.960 . S
C872 H858 0.960 . S
C872 H859 0.960 . S
C872 C871 1.524 . S
C873 C870 1.403 . S
C873 C874 1.392 1_655 S
C873 C877 1.495 . S
C874 C873 1.392 1_455 S
C874 C875 1.385 . S
C874 C876 1.478 . S
C875 H869 0.930 . S
C875 C871 1.400 . S
C875 C874 1.385 . S
C876 C874 1.478 . S
C876 C878 1.381 . S
C876 C882 1.383 . S
C877 C873 1.495 . S
C877 H883 0.959 . S
C877 H884 0.961 . S
C877 H885 0.960 . S
C878 C876 1.381 . S
C878 C879 1.394 . S
C878 H886 0.930 . S
C879 C878 1.394 . S
C879 C880 1.383 . S
C879 H887 0.929 . S
C880 C879 1.383 . S
C880 C881 1.377 . S
C881 H865 0.930 . S
C881 C880 1.377 . S
C881 C882 1.379 . S
C882 H866 0.931 . S
C882 C876 1.383 . S
C882 C881 1.379 . S
H883 C877 0.959 . S
H884 C877 0.961 . S
H885 C877 0.960 . S
H886 C878 0.930 . S
H887 C879 0.929 . S
H888 C896 0.929 . S
H889 C898 0.930 . S
H890 C900 0.930 . S
H891 C903 0.929 1_455 S
H892 C906 0.930 . S
H893 C908 0.960 . S
H894 C908 0.960 . S
H895 C908 0.960 . S
C896 H888 0.929 . S
C896 C897 1.377 . S
C896 C898 1.384 . S
C897 C896 1.377 . S
C897 C903 1.390 . S
C898 H889 0.930 . S
C898 C896 1.384 . S
C898 C899 1.372 . S
C899 C898 1.372 . S
C899 C900 1.400 1_655 S
C899 C904 1.490 . S
C900 H890 0.930 . S
C900 C899 1.400 1_455 S
C900 C903 1.386 1_455 S
H901 C917 0.930 . S
H902 C918 0.931 . S
C903 H891 0.929 1_655 S
C903 C897 1.390 . S
C903 C900 1.386 1_655 S
C904 C899 1.490 . S
C904 C906 1.395 . S
C904 C907 1.403 1_655 S
H905 C911 0.930 . S
C906 H892 0.930 . S
C906 C904 1.395 . S
C906 C909 1.403 . S
C907 C904 1.403 1_455 S
C907 C908 1.524 . S
C907 C911 1.400 . S
C908 H893 0.960 . S
C908 H894 0.960 . S
C908 H895 0.960 . S
C908 C907 1.524 . S
C909 C906 1.403 . S
C909 C910 1.392 1_655 S
C909 C913 1.495 . S
C910 C909 1.392 1_455 S
C910 C911 1.385 . S
C910 C912 1.478 . S
C911 H905 0.930 . S
C911 C907 1.400 . S
C911 C910 1.385 . S
C912 C910 1.478 . S
C912 C914 1.381 1_455 S
C912 C918 1.383 . S
C913 C909 1.495 . S
C913 H919 0.959 . S
C913 H920 0.961 . S
C913 H921 0.960 . S
C914 C912 1.381 1_655 S
C914 C915 1.400 . S
C914 H922 0.930 . S
C915 C914 1.400 . S
C915 C916 1.367 1_655 S
C915 H923 0.940 . S
C916 C915 1.367 1_455 S
C916 C917 1.377 . S
C917 H901 0.930 . S
C917 C916 1.377 . S
C917 C918 1.379 . S
C918 H902 0.931 . S
C918 C912 1.383 . S
C918 C917 1.379 . S
H919 C913 0.959 . S
H920 C913 0.961 . S
H921 C913 0.960 . S
H922 C914 0.930 . S
H923 C915 0.940 . S
H924 C932 0.929 . S
H925 C934 0.930 . S
H926 C936 0.930 . S
H927 C939 0.929 . S
H928 C942 0.930 . S
H929 C944 0.960 . S
H930 C944 0.960 . S
H931 C944 0.960 . S
C932 H924 0.929 . S
C932 C933 1.377 . S
C932 C934 1.384 . S
C933 C932 1.377 . S
C933 C939 1.390 . S
C934 H925 0.930 . S
C934 C932 1.384 . S
C934 C935 1.372 . S
C935 C934 1.372 . S
C935 C936 1.400 . S
C935 C940 1.490 . S
C936 H926 0.930 . S
C936 C935 1.400 . S
C936 C939 1.386 . S
H937 C953 0.930 . S
H938 C954 0.931 . S
C939 H927 0.929 . S
C939 C933 1.390 . S
C939 C936 1.386 . S
C940 C935 1.490 . S
C940 C942 1.395 1_655 S
C940 C943 1.403 . S
H941 C947 0.930 . S
C942 H928 0.930 . S
C942 C940 1.395 1_455 S
C942 C945 1.403 . S
C943 C940 1.403 . S
C943 C944 1.524 . S
C943 C947 1.400 . S
C944 H929 0.960 . S
C944 H930 0.960 . S
C944 H931 0.960 . S
C944 C943 1.524 . S
C945 C942 1.403 . S
C945 C946 1.392 . S
C945 C949 1.495 . S
C946 C945 1.392 . S
C946 C947 1.385 1_455 S
C946 C948 1.478 . S
C947 H941 0.930 . S
C947 C943 1.400 . S
C947 C946 1.385 1_655 S
C948 C946 1.478 . S
C948 C950 1.381 . S
C948 C954 1.383 . S
C949 C945 1.495 . S
C949 H955 0.959 . S
C949 H956 0.961 . S
C949 H957 0.960 . S
C950 C948 1.381 . S
C950 C951 1.394 . S
C950 H958 0.930 . S
C951 C950 1.394 . S
C951 C952 1.383 . S
C951 H959 0.929 . S
C952 C951 1.383 . S
C952 C953 1.377 . S
C953 H937 0.930 . S
C953 C952 1.377 . S
C953 C954 1.379 . S
C954 H938 0.931 . S
C954 C948 1.383 . S
C954 C953 1.379 . S
H955 C949 0.959 . S
H956 C949 0.961 . S
H957 C949 0.960 . S
H958 C950 0.930 . S
H959 C951 0.929 . S
H960 C968 0.929 . S
H961 C970 0.930 . S
H962 C972 0.930 . S
H963 C975 0.929 . S
H964 C978 0.930 . S
H965 C980 0.960 . S
H966 C980 0.960 . S
H967 C980 0.960 . S
C968 H960 0.929 . S
C968 C969 1.377 . S
C968 C970 1.384 . S
C969 C968 1.377 . S
C969 C975 1.390 . S
C970 H961 0.930 . S
C970 C968 1.384 . S
C970 C971 1.372 . S
C971 C970 1.372 . S
C971 C972 1.400 . S
C971 C976 1.490 . S
C972 H962 0.930 . S
C972 C971 1.400 . S
C972 C975 1.386 . S
H973 C989 0.930 . S
H974 C990 0.931 . S
C975 H963 0.929 . S
C975 C969 1.390 . S
C975 C972 1.386 . S
C976 C971 1.490 . S
C976 C978 1.395 . S
C976 C979 1.403 . S
H977 C983 0.930 . S
C978 H964 0.930 . S
C978 C976 1.395 . S
C978 C981 1.403 . S
C979 C976 1.403 . S
C979 C980 1.524 . S
C979 C983 1.400 . S
C980 H965 0.960 . S
C980 H966 0.960 . S
C980 H967 0.960 . S
C980 C979 1.524 . S
C981 C978 1.403 . S
C981 C982 1.392 . S
C981 C985 1.495 . S
C982 C981 1.392 . S
C982 C983 1.385 . S
C982 C984 1.478 . S
C983 H977 0.930 . S
C983 C979 1.400 . S
C983 C982 1.385 . S
C984 C982 1.478 . S
C984 C986 1.381 . S
C984 C990 1.383 . S
C985 C981 1.495 . S
C985 H991 0.959 . S
C985 H992 0.961 . S
C985 H993 0.960 . S
C986 C984 1.381 . S
C986 C987 1.394 . S
C986 H994 0.930 . S
C987 C986 1.394 . S
C987 C988 1.383 . S
C987 H995 0.929 . S
C988 C987 1.383 . S
C988 C989 1.377 . S
C989 H973 0.930 . S
C989 C988 1.377 . S
C989 C990 1.379 . S
C990 H974 0.931 . S
C990 C984 1.383 . S
C990 C989 1.379 . S
H991 C985 0.959 . S
H992 C985 0.961 . S
H993 C985 0.960 . S
H994 C986 0.930 . S
H995 C987 0.929 . S
H996 C1004 0.929 . S
H997 C1006 0.930 . S
H998 C1008 0.930 . S
H999 C1011 0.929 . S
H1000 C1014 0.930 . S
H1001 C1016 0.960 . S
H1002 C1016 0.960 . S
H1003 C1016 0.960 . S
C1004 H996 0.929 . S
C1004 C1005 1.377 . S
C1004 C1006 1.384 . S
C1005 C1004 1.377 . S
C1005 C1011 1.390 . S
C1006 H997 0.930 . S
C1006 C1004 1.384 . S
C1006 C1007 1.372 . S
C1007 C1006 1.372 . S
C1007 C1008 1.400 . S
C1007 C1012 1.490 . S
C1008 H998 0.930 . S
C1008 C1007 1.400 . S
C1008 C1011 1.386 . S
H1009 C1025 0.930 . S
H1010 C1026 0.931 . S
C1011 H999 0.929 . S
C1011 C1005 1.390 . S
C1011 C1008 1.386 . S
C1012 C1007 1.490 . S
C1012 C1014 1.395 . S
C1012 C1015 1.403 . S
H1013 C1019 0.930 . S
C1014 H1000 0.930 . S
C1014 C1012 1.395 . S
C1014 C1017 1.403 . S
C1015 C1012 1.403 . S
C1015 C1016 1.524 . S
C1015 C1019 1.400 . S
C1016 H1001 0.960 . S
C1016 H1002 0.960 . S
C1016 H1003 0.960 . S
C1016 C1015 1.524 . S
C1017 C1014 1.403 . S
C1017 C1018 1.392 . S
C1017 C1021 1.495 . S
C1018 C1017 1.392 . S
C1018 C1019 1.385 . S
C1018 C1020 1.478 . S
C1019 H1013 0.930 . S
C1019 C1015 1.400 . S
C1019 C1018 1.385 . S
C1020 C1018 1.478 . S
C1020 C1022 1.381 . S
C1020 C1026 1.383 . S
C1021 C1017 1.495 . S
C1021 H1027 0.959 . S
C1021 H1028 0.961 . S
C1021 H1029 0.960 . S
C1022 C1020 1.381 . S
C1022 C1023 1.394 . S
C1022 H1030 0.930 . S
C1023 C1022 1.394 . S
C1023 C1024 1.383 . S
C1023 H1031 0.929 . S
C1024 C1023 1.383 . S
C1024 C1025 1.377 . S
C1025 H1009 0.930 . S
C1025 C1024 1.377 . S
C1025 C1026 1.379 . S
C1026 H1010 0.931 . S
C1026 C1020 1.383 . S
C1026 C1025 1.379 . S
H1027 C1021 0.959 . S
H1028 C1021 0.961 . S
H1029 C1021 0.960 . S
H1030 C1022 0.930 . S
H1031 C1023 0.929 . S
H1032 C1040 0.929 . S
H1033 C1042 0.930 . S
H1034 C1044 0.930 . S
H1035 C1047 0.929 . S
H1036 C1050 0.930 . S
H1037 C1052 0.960 . S
H1038 C1052 0.960 . S
H1039 C1052 0.960 . S
C1040 H1032 0.929 . S
C1040 C1041 1.377 . S
C1040 C1042 1.384 . S
C1041 C1040 1.377 . S
C1041 C1047 1.390 . S
C1042 H1033 0.930 . S
C1042 C1040 1.384 . S
C1042 C1043 1.372 . S
C1043 C1042 1.372 . S
C1043 C1044 1.400 . S
C1043 C1048 1.490 . S
C1044 H1034 0.930 . S
C1044 C1043 1.400 . S
C1044 C1047 1.386 . S
H1045 C1061 0.930 . S
H1046 C1062 0.931 . S
C1047 H1035 0.929 . S
C1047 C1041 1.390 . S
C1047 C1044 1.386 . S
C1048 C1043 1.490 . S
C1048 C1050 1.395 . S
C1048 C1051 1.403 . S
H1049 C1055 0.930 . S
C1050 H1036 0.930 . S
C1050 C1048 1.395 . S
C1050 C1053 1.403 . S
C1051 C1048 1.403 . S
C1051 C1052 1.524 . S
C1051 C1055 1.400 . S
C1052 H1037 0.960 . S
C1052 H1038 0.960 . S
C1052 H1039 0.960 . S
C1052 C1051 1.524 . S
C1053 C1050 1.403 . S
C1053 C1054 1.392 . S
C1053 C1057 1.495 . S
C1054 C1053 1.392 . S
C1054 C1055 1.385 . S
C1054 C1056 1.478 . S
C1055 H1049 0.930 . S
C1055 C1051 1.400 . S
C1055 C1054 1.385 . S
C1056 C1054 1.478 . S
C1056 C1058 1.381 . S
C1056 C1062 1.383 . S
C1057 C1053 1.495 . S
C1057 H1063 0.959 . S
C1057 H1064 0.961 . S
C1057 H1065 0.960 . S
C1058 C1056 1.381 . S
C1058 C1059 1.394 . S
C1058 H1066 0.930 . S
C1059 C1058 1.394 . S
C1059 C1060 1.383 . S
C1059 H1067 0.929 . S
C1060 C1059 1.383 . S
C1060 C1061 1.377 . S
C1061 H1045 0.930 . S
C1061 C1060 1.377 . S
C1061 C1062 1.379 . S
C1062 H1046 0.931 . S
C1062 C1056 1.383 . S
C1062 C1061 1.379 . S
H1063 C1057 0.959 . S
H1064 C1057 0.961 . S
H1065 C1057 0.960 . S
H1066 C1058 0.930 . S
H1067 C1059 0.929 . S
H1068 C1076 0.929 . S
H1069 C1078 0.930 . S
H1070 C1080 0.930 . S
H1071 C1083 0.929 . S
H1072 C1086 0.930 . S
H1073 C1088 0.960 . S
H1074 C1088 0.960 . S
H1075 C1088 0.960 . S
C1076 H1068 0.929 . S
C1076 C1077 1.377 . S
C1076 C1078 1.384 . S
C1077 C1076 1.377 . S
C1077 C1083 1.390 . S
C1078 H1069 0.930 . S
C1078 C1076 1.384 . S
C1078 C1079 1.372 . S
C1079 C1078 1.372 . S
C1079 C1080 1.400 . S
C1079 C1084 1.490 . S
C1080 H1070 0.930 . S
C1080 C1079 1.400 . S
C1080 C1083 1.386 . S
H1081 C1097 0.930 . S
H1082 C1098 0.931 . S
C1083 H1071 0.929 . S
C1083 C1077 1.390 . S
C1083 C1080 1.386 . S
C1084 C1079 1.490 . S
C1084 C1086 1.395 . S
C1084 C1087 1.403 . S
H1085 C1091 0.930 . S
C1086 H1072 0.930 . S
C1086 C1084 1.395 . S
C1086 C1089 1.403 . S
C1087 C1084 1.403 . S
C1087 C1088 1.524 . S
C1087 C1091 1.400 . S
C1088 H1073 0.960 . S
C1088 H1074 0.960 . S
C1088 H1075 0.960 . S
C1088 C1087 1.524 . S
C1089 C1086 1.403 . S
C1089 C1090 1.392 . S
C1089 C1093 1.495 . S
C1090 C1089 1.392 . S
C1090 C1091 1.385 . S
C1090 C1092 1.478 . S
C1091 H1085 0.930 . S
C1091 C1087 1.400 . S
C1091 C1090 1.385 . S
C1092 C1090 1.478 . S
C1092 C1094 1.381 . S
C1092 C1098 1.383 . S
C1093 C1089 1.495 . S
C1093 H1099 0.959 . S
C1093 H1100 0.961 . S
C1093 H1101 0.960 . S
C1094 C1092 1.381 . S
C1094 C1095 1.394 . S
C1094 H1102 0.930 . S
C1095 C1094 1.394 . S
C1095 C1096 1.383 . S
C1095 H1103 0.929 . S
C1096 C1095 1.383 . S
C1096 C1097 1.377 . S
C1097 H1081 0.930 . S
C1097 C1096 1.377 . S
C1097 C1098 1.379 . S
C1098 H1082 0.931 . S
C1098 C1092 1.383 . S
C1098 C1097 1.379 . S
H1099 C1093 0.959 . S
H1100 C1093 0.961 . S
H1101 C1093 0.960 . S
H1102 C1094 0.930 . S
H1103 C1095 0.929 . S
C249 N14 1.027 . S
C268 N6 1.018 . S
C285 N44 1.024 . S
C304 N36 1.002 1_554 S
C321 N74 1.028 . S
C340 N66 1.030 . S
C357 N104 1.021 . S
C376 N96 0.996 . S
C393 N134 1.018 . S
C412 N126 1.000 . S
C429 N156 1.028 1_554 S
C448 N164 1.031 . S
C465 N194 1.019 . S
C484 N186 1.032 . S
C501 N216 1.023 . S
C520 N224 0.999 . S
C537 C57 1.598 . S
C556 C16 1.598 . S
C573 C106 1.598 . S
C592 C87 1.597 . S
C609 C136 1.597 . S
C628 C177 1.600 . S
C645 C207 1.596 . S
C664 C226 1.589 . S
C681 C27 1.733 . S
C700 C166 1.744 . S
C717 C147 1.730 . S
C736 C46 1.736 . S
C753 C76 1.733 . S
C772 C237 1.744 . S
C789 C117 1.729 . S
C808 C196 1.717 . S
C825 C10 1.658 . S
C844 C100 1.641 . S
C861 C40 1.573 . S
C880 C70 1.568 . S
C897 C31 1.662 . S
C916 C61 1.642 . S
C933 C91 1.575 . S
C952 C1 1.577 . S
C969 C130 1.662 . S
C988 C220 1.657 . S
C1005 C160 1.573 . S
C1024 C190 1.569 . S
C1041 C151 1.662 . S
C1060 C181 1.668 . S
C1077 C211 1.573 . S
C1096 C121 1.569 . S
