# Generated by pormake.
# Topology unp, (4)-cn, num edge types: 1
# Building blocks:
#     Node 0, Type 0, BuildingBlock: QUQFOY_clean_sbu_1, # of connection points: 4
#     Node 1, Type 0, BuildingBlock: QUQFOY_clean_sbu_1, # of connection points: 4
#     Node 2, Type 0, BuildingBlock: QUQFOY_clean_sbu_1, # of connection points: 4
#     Node 3, Type 0, BuildingBlock: QUQFOY_clean_sbu_1, # of connection points: 4
#     Node 4, Type 0, BuildingBlock: QUQFOY_clean_sbu_1, # of connection points: 4
#     Node 5, Type 0, BuildingBlock: QUQFOY_clean_sbu_1, # of connection points: 4
#     Node 6, Type 0, BuildingBlock: QUQFOY_clean_sbu_1, # of connection points: 4
#     Node 7, Type 0, BuildingBlock: QUQFOY_clean_sbu_1, # of connection points: 4
#     Node 8, Type 0, BuildingBlock: QUQFOY_clean_sbu_1, # of connection points: 4
#     Node 9, Type 0, BuildingBlock: QUQFOY_clean_sbu_1, # of connection points: 4
#     Node 10, Type 0, BuildingBlock: QUQFOY_clean_sbu_1, # of connection points: 4
#     Node 11, Type 0, BuildingBlock: QUQFOY_clean_sbu_1, # of connection points: 4
#     Node 12, Type 0, BuildingBlock: QUQFOY_clean_sbu_1, # of connection points: 4
#     Node 13, Type 0, BuildingBlock: QUQFOY_clean_sbu_1, # of connection points: 4
#     Node 14, Type 0, BuildingBlock: QUQFOY_clean_sbu_1, # of connection points: 4
#     Node 15, Type 0, BuildingBlock: QUQFOY_clean_sbu_1, # of connection points: 4
#     Node 16, Type 0, BuildingBlock: QUQFOY_clean_sbu_1, # of connection points: 4
#     Node 17, Type 0, BuildingBlock: QUQFOY_clean_sbu_1, # of connection points: 4
#     Edge 18, Type (0, 0), BuildingBlock: UVAHIK_clean_linker_0, # of connection points: 2
#     Edge 19, Type (0, 0), BuildingBlock: UVAHIK_clean_linker_0, # of connection points: 2
#     Edge 20, Type (0, 0), BuildingBlock: UVAHIK_clean_linker_0, # of connection points: 2
#     Edge 21, Type (0, 0), BuildingBlock: UVAHIK_clean_linker_0, # of connection points: 2
#     Edge 22, Type (0, 0), BuildingBlock: UVAHIK_clean_linker_0, # of connection points: 2
#     Edge 23, Type (0, 0), BuildingBlock: UVAHIK_clean_linker_0, # of connection points: 2
#     Edge 24, Type (0, 0), BuildingBlock: UVAHIK_clean_linker_0, # of connection points: 2
#     Edge 25, Type (0, 0), BuildingBlock: UVAHIK_clean_linker_0, # of connection points: 2
#     Edge 26, Type (0, 0), BuildingBlock: UVAHIK_clean_linker_0, # of connection points: 2
#     Edge 27, Type (0, 0), BuildingBlock: UVAHIK_clean_linker_0, # of connection points: 2
#     Edge 28, Type (0, 0), BuildingBlock: UVAHIK_clean_linker_0, # of connection points: 2
#     Edge 29, Type (0, 0), BuildingBlock: UVAHIK_clean_linker_0, # of connection points: 2
#     Edge 30, Type (0, 0), BuildingBlock: UVAHIK_clean_linker_0, # of connection points: 2
#     Edge 31, Type (0, 0), BuildingBlock: UVAHIK_clean_linker_0, # of connection points: 2
#     Edge 32, Type (0, 0), BuildingBlock: UVAHIK_clean_linker_0, # of connection points: 2
#     Edge 33, Type (0, 0), BuildingBlock: UVAHIK_clean_linker_0, # of connection points: 2
#     Edge 34, Type (0, 0), BuildingBlock: UVAHIK_clean_linker_0, # of connection points: 2
#     Edge 35, Type (0, 0), BuildingBlock: UVAHIK_clean_linker_0, # of connection points: 2
#     Edge 36, Type (0, 0), BuildingBlock: UVAHIK_clean_linker_0, # of connection points: 2
#     Edge 37, Type (0, 0), BuildingBlock: UVAHIK_clean_linker_0, # of connection points: 2
#     Edge 38, Type (0, 0), BuildingBlock: UVAHIK_clean_linker_0, # of connection points: 2
#     Edge 39, Type (0, 0), BuildingBlock: UVAHIK_clean_linker_0, # of connection points: 2
#     Edge 40, Type (0, 0), BuildingBlock: UVAHIK_clean_linker_0, # of connection points: 2
#     Edge 41, Type (0, 0), BuildingBlock: UVAHIK_clean_linker_0, # of connection points: 2
#     Edge 42, Type (0, 0), BuildingBlock: UVAHIK_clean_linker_0, # of connection points: 2
#     Edge 43, Type (0, 0), BuildingBlock: UVAHIK_clean_linker_0, # of connection points: 2
#     Edge 44, Type (0, 0), BuildingBlock: UVAHIK_clean_linker_0, # of connection points: 2
#     Edge 45, Type (0, 0), BuildingBlock: UVAHIK_clean_linker_0, # of connection points: 2
#     Edge 46, Type (0, 0), BuildingBlock: UVAHIK_clean_linker_0, # of connection points: 2
#     Edge 47, Type (0, 0), BuildingBlock: UVAHIK_clean_linker_0, # of connection points: 2
#     Edge 48, Type (0, 0), BuildingBlock: UVAHIK_clean_linker_0, # of connection points: 2
#     Edge 49, Type (0, 0), BuildingBlock: UVAHIK_clean_linker_0, # of connection points: 2
#     Edge 50, Type (0, 0), BuildingBlock: UVAHIK_clean_linker_0, # of connection points: 2
#     Edge 51, Type (0, 0), BuildingBlock: UVAHIK_clean_linker_0, # of connection points: 2
#     Edge 52, Type (0, 0), BuildingBlock: UVAHIK_clean_linker_0, # of connection points: 2
#     Edge 53, Type (0, 0), BuildingBlock: UVAHIK_clean_linker_0, # of connection points: 2
# Relax obj value: 0.378
# Max RMSD: 0.177
# Mean RMSD: 0.177
data_MOF--net-unp--node1-QUQFOY_clean_sbu_1--edge1-UVAHIK_clean_linker_0
_symmetry_space_group_name_H-M    P1
_symmetry_Int_Tables_number       1
_symmetry_cell_setting            triclinic
loop_
_symmetry_equiv_pos_as_xyz
'x, y, z'
_cell_length_a     61.476643
_cell_length_b     61.465451
_cell_length_c     92.026816
_cell_angle_alpha  89.989126
_cell_angle_beta   89.993113
_cell_angle_gamma 120.01427
loop_
_atom_site_label
_atom_site_type_symbol
_atom_site_fract_x
_atom_site_fract_y
_atom_site_fract_z
_atom_type_partial_charge
O0 O 0.16516 0.142 0.13141 0.0
Cd1 Cd 0.16825 0.17681 0.13245 0.0
Cd2 Cd 0.16027 0.17135 0.10254 0.0
O3 O 0.16093 0.13876 0.10756 0.0
O4 O 0.18967 0.19512 0.14933 0.0
O5 O 0.2006 0.20689 0.12644 0.0
C6 C 0.20606 0.21042 0.14013 0.0
C7 C 0.17167 0.18461 0.07837 0.0
C8 C 0.16256 0.12989 0.11974 0.0
C9 C 0.12275 0.17664 0.12226 0.0
O10 O 0.13022 0.17493 0.10965 0.0
O11 O 0.13533 0.17766 0.13342 0.0
O12 O 0.15058 0.16525 0.0817 0.0
O13 O 0.18694 0.19684 0.08881 0.0
O14 O 0.85021 0.02176 0.13128 0.0
Cd15 Cd 0.8156 0.98977 0.12993 0.0
Cd16 Cd 0.82341 0.99393 0.10019 0.0
O17 O 0.85362 0.02722 0.10754 0.0
O18 O 0.79483 0.98909 0.14662 0.0
O19 O 0.78652 0.99349 0.12368 0.0
C20 C 0.78108 0.99256 0.13734 0.0
C21 C 0.8119 0.99723 0.07626 0.0
C22 C 0.86209 0.03471 0.12027 0.0
C23 C 0.81933 0.94829 0.11628 0.0
O24 O 0.82278 0.96051 0.10453 0.0
O25 O 0.81527 0.9563 0.12811 0.0
O26 O 0.83263 0.99792 0.07926 0.0
O27 O 0.79699 0.99422 0.0869 0.0
O28 O 0.97121 0.82585 0.12794 0.0
Cd29 Cd 0.00296 0.82287 0.12977 0.0
Cd30 Cd 0.00642 0.82984 0.09984 0.0
O31 O 0.97325 0.82972 0.10407 0.0
O32 O 0.99926 0.80175 0.14694 0.0
O33 O 0.00098 0.79043 0.12427 0.0
C34 C 0.99854 0.7852 0.138 0.0
C35 C 0.00904 0.81768 0.07599 0.0
C36 C 0.96227 0.82838 0.11603 0.0
C37 C 0.04853 0.86825 0.11954 0.0
O38 O 0.03973 0.86023 0.10693 0.0
O39 O 0.03671 0.85598 0.13075 0.0
O40 O 0.01086 0.83895 0.0789 0.0
O41 O 0.00546 0.80265 0.08666 0.0
O42 O 0.14067 0.1639 0.87234 0.0
Cd43 Cd 0.17556 0.16714 0.87126 0.0
Cd44 Cd 0.17049 0.15992 0.90113 0.0
O45 O 0.13783 0.16041 0.89622 0.0
O46 O 0.19396 0.18866 0.8544 0.0
O47 O 0.20545 0.19959 0.87733 0.0
C48 C 0.20907 0.20512 0.86364 0.0
C49 C 0.18428 0.1718 0.92517 0.0
C50 C 0.12871 0.16158 0.88403 0.0
C51 C 0.17504 0.1216 0.88176 0.0
O52 O 0.17341 0.12939 0.89429 0.0
O53 O 0.17637 0.13413 0.8705 0.0
O54 O 0.16478 0.1507 0.92205 0.0
O55 O 0.19632 0.18684 0.91461 0.0
O56 O 0.82173 0.96587 0.87118 0.0
Cd57 Cd 0.8199 0.99835 0.87092 0.0
Cd58 Cd 0.82524 0.99738 0.90085 0.0
O59 O 0.82212 0.96334 0.89508 0.0
O60 O 0.79961 0.99738 0.85391 0.0
O61 O 0.78768 0.99645 0.87677 0.0
C62 C 0.78291 0.99581 0.86303 0.0
C63 C 0.81292 0.99912 0.92483 0.0
C64 C 0.82183 0.95432 0.8826 0.0
C65 C 0.86586 0.04105 0.88279 0.0
O66 O 0.85742 0.03026 0.89495 0.0
O67 O 0.85345 0.03163 0.87121 0.0
O68 O 0.83287 0.99821 0.9219 0.0
O69 O 0.79916 0.99848 0.91407 0.0
O70 O 0.0169 0.84786 0.86962 0.0
Cd71 Cd 0.98535 0.81286 0.86856 0.0
Cd72 Cd 0.9839 0.81784 0.89885 0.0
O73 O 0.01687 0.8505 0.89354 0.0
O74 O 0.98776 0.79577 0.85086 0.0
O75 O 0.98857 0.78278 0.87325 0.0
C76 C 0.98969 0.7801 0.85937 0.0
C77 C 0.98285 0.80499 0.92303 0.0
C78 C 0.02684 0.85971 0.88129 0.0
C79 C 0.94015 0.81231 0.8799 0.0
O80 O 0.94995 0.81407 0.89232 0.0
O81 O 0.95127 0.81149 0.86848 0.0
O82 O 0.98106 0.82431 0.91972 0.0
O83 O 0.98556 0.7926 0.91257 0.0
O84 O 0.83475 0.46997 0.46254 0.0
Cd85 Cd 0.83618 0.50422 0.46153 0.0
Cd86 Cd 0.82856 0.49325 0.43229 0.0
O87 O 0.83328 0.46377 0.43887 0.0
O88 O 0.85443 0.5233 0.47912 0.0
O89 O 0.86899 0.53501 0.45674 0.0
C90 C 0.87206 0.53884 0.4706 0.0
C91 C 0.84163 0.50815 0.40857 0.0
C92 C 0.83434 0.45686 0.45174 0.0
C93 C 0.78823 0.49693 0.44983 0.0
O94 O 0.79534 0.49178 0.438 0.0
O95 O 0.80247 0.50378 0.4609 0.0
O96 O 0.82228 0.48658 0.41114 0.0
O97 O 0.85437 0.52145 0.41956 0.0
O98 O 0.51483 0.35052 0.4664 0.0
Cd99 Cd 0.47954 0.31985 0.46397 0.0
Cd100 Cd 0.4888 0.32789 0.43463 0.0
O101 O 0.51824 0.36064 0.44318 0.0
O102 O 0.45798 0.31863 0.48037 0.0
O103 O 0.45194 0.32574 0.45747 0.0
C104 C 0.4455 0.32374 0.47101 0.0
C105 C 0.47841 0.333 0.41074 0.0
C106 C 0.52672 0.36553 0.45609 0.0
C107 C 0.4835 0.28006 0.4488 0.0
O108 O 0.48852 0.29428 0.43776 0.0
O109 O 0.47789 0.28605 0.46085 0.0
O110 O 0.49927 0.33411 0.41391 0.0
O111 O 0.46282 0.32876 0.4212 0.0
O112 O 0.63531 0.15714 0.45725 0.0
Cd113 Cd 0.6664 0.15306 0.45968 0.0
Cd114 Cd 0.67224 0.16263 0.43024 0.0
O115 O 0.63948 0.16362 0.43358 0.0
O116 O 0.66166 0.13383 0.47788 0.0
O117 O 0.66315 0.11936 0.45606 0.0
C118 C 0.66055 0.11598 0.46996 0.0
C119 C 0.67463 0.14628 0.40765 0.0
C120 C 0.6276 0.16128 0.44533 0.0
C121 C 0.71347 0.19896 0.45064 0.0
O122 O 0.70547 0.19262 0.43772 0.0
O123 O 0.70073 0.18545 0.4613 0.0
O124 O 0.67736 0.16833 0.40892 0.0
O125 O 0.67057 0.13312 0.41931 0.0
O126 O 0.80839 0.49766 0.20183 0.0
Cd127 Cd 0.84361 0.50206 0.20418 0.0
Cd128 Cd 0.83427 0.50119 0.2336 0.0
O129 O 0.80517 0.50495 0.22497 0.0
O130 O 0.86416 0.5204 0.187 0.0
O131 O 0.87195 0.53613 0.20934 0.0
C132 C 0.87746 0.53896 0.19564 0.0
C133 C 0.8449 0.51675 0.25747 0.0
C134 C 0.79664 0.50114 0.21207 0.0
C135 C 0.83885 0.45813 0.2197 0.0
O136 O 0.83377 0.46745 0.23064 0.0
O137 O 0.8449 0.46977 0.20766 0.0
O138 O 0.82379 0.49727 0.25431 0.0
O139 O 0.86057 0.52782 0.247 0.0
O140 O 0.48921 0.29791 0.20587 0.0
Cd141 Cd 0.48751 0.3306 0.20613 0.0
Cd142 Cd 0.49389 0.32836 0.2357 0.0
O143 O 0.48822 0.29352 0.22969 0.0
O144 O 0.4689 0.33069 0.18853 0.0
O145 O 0.45473 0.32847 0.21097 0.0
C146 C 0.45139 0.32877 0.1971 0.0
C147 C 0.4815 0.33105 0.25948 0.0
C148 C 0.48821 0.28526 0.21703 0.0
C149 C 0.53496 0.3716 0.21787 0.0
O150 O 0.52748 0.35966 0.22979 0.0
O151 O 0.52103 0.36398 0.20669 0.0
O152 O 0.50059 0.32845 0.25684 0.0
O153 O 0.46866 0.3316 0.24854 0.0
O154 O 0.68643 0.18315 0.20997 0.0
Cd155 Cd 0.65519 0.14821 0.20735 0.0
Cd156 Cd 0.64998 0.1502 0.23703 0.0
O157 O 0.68219 0.18456 0.23369 0.0
O158 O 0.65951 0.13342 0.18916 0.0
O159 O 0.65794 0.11753 0.21103 0.0
C160 C 0.66042 0.1166 0.19712 0.0
C161 C 0.64853 0.13191 0.25966 0.0
C162 C 0.69402 0.19462 0.222 0.0
C163 C 0.60808 0.14571 0.21727 0.0
O164 O 0.61607 0.14593 0.23004 0.0
O165 O 0.62104 0.1467 0.20629 0.0
O166 O 0.64517 0.15083 0.25838 0.0
O167 O 0.65275 0.12296 0.248 0.0
O168 O 0.49907 0.80762 0.79308 0.0
Cd169 Cd 0.50207 0.84243 0.7941 0.0
Cd170 Cd 0.49566 0.83734 0.7645 0.0
O171 O 0.49577 0.80439 0.7692 0.0
O172 O 0.52091 0.85924 0.81204 0.0
O173 O 0.53531 0.87295 0.78984 0.0
C174 C 0.53864 0.8753 0.80376 0.0
C175 C 0.5126 0.85519 0.7418 0.0
C176 C 0.49686 0.79547 0.78148 0.0
C177 C 0.45656 0.84159 0.7829 0.0
O178 O 0.46446 0.83976 0.77045 0.0
O179 O 0.46902 0.84317 0.79424 0.0
O180 O 0.49102 0.83521 0.74305 0.0
O181 O 0.5251 0.86532 0.75353 0.0
O182 O 0.18388 0.6879 0.79586 0.0
Cd183 Cd 0.14936 0.65566 0.79562 0.0
Cd184 Cd 0.15549 0.65699 0.76563 0.0
O185 O 0.1863 0.69067 0.77197 0.0
O186 O 0.12935 0.65625 0.81237 0.0
O187 O 0.11965 0.6583 0.78936 0.0
C188 C 0.11487 0.65849 0.80305 0.0
C189 C 0.14369 0.65844 0.74147 0.0
C190 C 0.19532 0.69955 0.78442 0.0
C191 C 0.15206 0.61281 0.78312 0.0
O192 O 0.15447 0.62373 0.771 0.0
O193 O 0.14922 0.62219 0.79477 0.0
O194 O 0.16415 0.65876 0.7447 0.0
O195 O 0.12918 0.65686 0.75203 0.0
O196 O 0.30502 0.49198 0.79579 0.0
Cd197 Cd 0.3368 0.489 0.79736 0.0
Cd198 Cd 0.33837 0.49399 0.76711 0.0
O199 O 0.30525 0.49367 0.77183 0.0
O200 O 0.33431 0.46976 0.81521 0.0
O201 O 0.33403 0.45583 0.79293 0.0
C202 C 0.33267 0.45215 0.80682 0.0
C203 C 0.34019 0.4813 0.74327 0.0
C204 C 0.29514 0.49335 0.78395 0.0
C205 C 0.38162 0.53366 0.78574 0.0
O206 O 0.37192 0.5249 0.7734 0.0
O207 O 0.37065 0.52207 0.79729 0.0
O208 O 0.34173 0.50246 0.74609 0.0
O209 O 0.33718 0.46658 0.75401 0.0
O210 O 0.47335 0.83159 0.54444 0.0
Cd211 Cd 0.50831 0.83524 0.54225 0.0
Cd212 Cd 0.5053 0.82763 0.57161 0.0
O213 O 0.47131 0.82625 0.56821 0.0
O214 O 0.52442 0.85581 0.52469 0.0
O215 O 0.53866 0.86824 0.54706 0.0
C216 C 0.54055 0.87289 0.53326 0.0
C217 C 0.52433 0.84465 0.59405 0.0
C218 C 0.46161 0.82799 0.55637 0.0
C219 C 0.50924 0.7898 0.55192 0.0
O220 O 0.50843 0.79729 0.56468 0.0
O221 O 0.50948 0.80243 0.54094 0.0
O222 O 0.50496 0.82259 0.59298 0.0
O223 O 0.53325 0.85751 0.58228 0.0
O224 O 0.15685 0.63717 0.5335 0.0
Cd225 Cd 0.15364 0.6687 0.53577 0.0
Cd226 Cd 0.15474 0.66005 0.56512 0.0
O227 O 0.14979 0.62657 0.55666 0.0
O228 O 0.13397 0.67058 0.51922 0.0
O229 O 0.12061 0.66428 0.54209 0.0
C230 C 0.11648 0.6663 0.5285 0.0
C231 C 0.14137 0.65778 0.58932 0.0
C232 C 0.15312 0.62175 0.54368 0.0
C233 C 0.19812 0.70734 0.55068 0.0
O234 O 0.18859 0.69294 0.5616 0.0
O235 O 0.18649 0.70195 0.53865 0.0
O236 O 0.16028 0.65535 0.58588 0.0
O237 O 0.12908 0.66077 0.57889 0.0
O238 O 0.35149 0.51748 0.53702 0.0
Cd239 Cd 0.31963 0.48245 0.53631 0.0
Cd240 Cd 0.31939 0.4889 0.5663 0.0
O241 O 0.35349 0.5199 0.56095 0.0
O242 O 0.32171 0.46511 0.51863 0.0
O243 O 0.32281 0.45233 0.54102 0.0
C244 C 0.32374 0.44952 0.52714 0.0
C245 C 0.31721 0.47509 0.59036 0.0
C246 C 0.3627 0.52897 0.54856 0.0
C247 C 0.27612 0.48507 0.5476 0.0
O248 O 0.28699 0.48852 0.55982 0.0
O249 O 0.2855 0.48109 0.53631 0.0
O250 O 0.31736 0.49552 0.58724 0.0
O251 O 0.31859 0.46211 0.57976 0.0
C252 C 0.40626 0.31706 0.19988 0.0
C253 C 0.42761 0.32537 0.19105 0.0
C254 C 0.38302 0.31072 0.19374 0.0
C255 C 0.34982 0.28888 0.15888 0.0
H256 H 0.29794 0.296 0.17853 0.0
C257 C 0.25016 0.24483 0.13522 0.0
C258 C 0.23096 0.23041 0.14519 0.0
C259 C 0.27448 0.26157 0.1401 0.0
C260 C 0.31226 0.29389 0.17291 0.0
H261 H 0.44174 0.33523 0.16902 0.0
H262 H 0.40141 0.32473 0.15837 0.0
H263 H 0.34046 0.31643 0.18854 0.0
H264 H 0.22187 0.22324 0.16812 0.0
H265 H 0.26421 0.25218 0.17658 0.0
H266 H 0.32161 0.26583 0.14348 0.0
C267 C 0.40241 0.32244 0.16998 0.0
C268 C 0.33659 0.30555 0.17866 0.0
C269 C 0.42556 0.32858 0.1761 0.0
C270 C 0.23627 0.234 0.16014 0.0
C271 C 0.26052 0.25075 0.16501 0.0
C272 C 0.32558 0.27731 0.15313 0.0
C273 C 0.38071 0.31274 0.17865 0.0
C274 C 0.35554 0.30277 0.17185 0.0
C275 C 0.28005 0.26427 0.15504 0.0
C276 C 0.30639 0.27926 0.16023 0.0
H277 H 0.40725 0.31438 0.21145 0.0
H278 H 0.36667 0.30311 0.20073 0.0
H279 H 0.36378 0.28594 0.15347 0.0
H280 H 0.24664 0.2426 0.12363 0.0
H281 H 0.28907 0.27197 0.13216 0.0
C282 C 0.75578 0.99674 0.15729 0.0
C283 C 0.76099 0.99735 0.14238 0.0
C284 C 0.73937 0.00458 0.16232 0.0
C285 C 0.71736 0.0477 0.152 0.0
H286 H 0.67334 0.01928 0.18531 0.0
C287 C 0.66487 0.09508 0.17524 0.0
C288 C 0.66538 0.09763 0.19043 0.0
C289 C 0.67189 0.07901 0.16873 0.0
C290 C 0.68564 0.0275 0.17604 0.0
H291 H 0.75191 0.00523 0.12096 0.0
H292 H 0.72311 0.01881 0.12973 0.0
H293 H 0.69354 0.99729 0.17484 0.0
H294 H 0.67268 0.08456 0.21073 0.0
H295 H 0.68551 0.05689 0.19936 0.0
H296 H 0.7103 0.07828 0.15342 0.0
C297 C 0.73201 0.01259 0.13756 0.0
C298 C 0.69716 0.01487 0.17003 0.0
C299 C 0.7484 0.00468 0.13252 0.0
C300 C 0.67209 0.08299 0.199 0.0
C301 C 0.67931 0.06702 0.19247 0.0
C302 C 0.70595 0.06033 0.15802 0.0
C303 C 0.72783 0.01325 0.15254 0.0
C304 C 0.71342 0.02502 0.15805 0.0
C305 C 0.67981 0.06525 0.17724 0.0
C306 C 0.6902 0.05058 0.17023 0.0
H307 H 0.76511 0.99111 0.16518 0.0
H308 H 0.73673 0.00505 0.17393 0.0
H309 H 0.73014 0.0563 0.14296 0.0
H310 H 0.6595 0.10588 0.16833 0.0
H311 H 0.67153 0.0777 0.15699 0.0
C312 C 0.90835 0.58489 0.19856 0.0
C313 C 0.89715 0.56335 0.18975 0.0
C314 C 0.92445 0.60849 0.19251 0.0
C315 C 0.93613 0.64134 0.15751 0.0
H316 H 0.99256 0.69522 0.17789 0.0
C317 C 0.98969 0.74122 0.13362 0.0
C318 C 0.99358 0.76043 0.14337 0.0
C319 C 0.98238 0.71707 0.13873 0.0
C320 C 0.97682 0.68036 0.17207 0.0
H321 H 0.89532 0.54943 0.16786 0.0
H322 H 0.92369 0.59046 0.15738 0.0
H323 H 0.9718 0.65276 0.18798 0.0
H324 H 0.99398 0.76967 0.16616 0.0
H325 H 0.98106 0.72765 0.17502 0.0
H326 H 0.94065 0.66893 0.14182 0.0
C327 C 0.9196 0.58925 0.16889 0.0
C328 C 0.96492 0.65605 0.17786 0.0
C329 C 0.90344 0.5657 0.17492 0.0
C330 C 0.99108 0.75528 0.15835 0.0
C331 C 0.98383 0.7312 0.16345 0.0
C332 C 0.94803 0.66559 0.15172 0.0
C333 C 0.92977 0.61101 0.17753 0.0
C334 C 0.94415 0.63633 0.17077 0.0
C335 C 0.97888 0.71167 0.15369 0.0
C336 C 0.96823 0.68548 0.15906 0.0
H337 H 0.90388 0.58371 0.21002 0.0
H338 H 0.93177 0.62487 0.19946 0.0
H339 H 0.91993 0.62673 0.15187 0.0
H340 H 0.99158 0.74461 0.12202 0.0
H341 H 0.97902 0.70251 0.13094 0.0
C342 C 0.32928 0.42539 0.82813 0.0
C343 C 0.32781 0.42793 0.81304 0.0
C344 C 0.32198 0.40195 0.83426 0.0
C345 C 0.3051 0.33608 0.82562 0.0
H346 H 0.26307 0.32083 0.85983 0.0
C347 C 0.2329 0.23544 0.84369 0.0
C348 C 0.2289 0.23016 0.85863 0.0
C349 C 0.24955 0.25977 0.83885 0.0
C350 C 0.27515 0.32487 0.85045 0.0
H351 H 0.31857 0.40806 0.79249 0.0
H352 H 0.30527 0.367 0.8032 0.0
H353 H 0.2839 0.36313 0.84994 0.0
H354 H 0.24017 0.24602 0.88022 0.0
H355 H 0.26932 0.28857 0.87175 0.0
H356 H 0.29545 0.2974 0.8259 0.0
C357 C 0.31243 0.38318 0.81031 0.0
C358 C 0.28714 0.34918 0.84476 0.0
C359 C 0.31994 0.40671 0.80415 0.0
C360 C 0.24275 0.2495 0.86864 0.0
C361 C 0.25934 0.27389 0.86379 0.0
C362 C 0.29299 0.31169 0.83129 0.0
C363 C 0.31282 0.38042 0.82547 0.0
C364 C 0.30199 0.35504 0.83215 0.0
C365 C 0.26252 0.27939 0.84884 0.0
C366 C 0.27758 0.30574 0.84365 0.0
H367 H 0.33554 0.44144 0.83527 0.0
H368 H 0.32304 0.40061 0.84595 0.0
H369 H 0.3167 0.34003 0.81603 0.0
H370 H 0.22258 0.22094 0.83569 0.0
H371 H 0.25137 0.2634 0.82727 0.0
C372 C 0.7388 0.9863 0.86762 0.0
C373 C 0.75836 0.99163 0.8578 0.0
C374 C 0.71472 0.97918 0.86253 0.0
C375 C 0.67817 0.97607 0.8296 0.0
H376 H 0.62582 0.91551 0.84778 0.0
C377 C 0.58411 0.90814 0.80147 0.0
C378 C 0.5626 0.8948 0.81015 0.0
C379 C 0.6074 0.92424 0.80785 0.0
C380 C 0.64002 0.93271 0.84273 0.0
H381 H 0.76833 0.99508 0.83496 0.0
H382 H 0.72637 0.98251 0.82612 0.0
H383 H 0.66773 0.93661 0.85814 0.0
H384 H 0.54827 0.88917 0.83219 0.0
H385 H 0.58867 0.91763 0.84326 0.0
H386 H 0.65045 0.97173 0.81396 0.0
C387 C 0.72961 0.98396 0.83774 0.0
C388 C 0.66411 0.94483 0.84869 0.0
C389 C 0.75365 0.991 0.84282 0.0
C390 C 0.56457 0.89894 0.82522 0.0
C391 C 0.58777 0.91516 0.83158 0.0
C392 C 0.65398 0.96396 0.82364 0.0
C393 C 0.70972 0.97734 0.84753 0.0
C394 C 0.68358 0.96639 0.84207 0.0
C395 C 0.6096 0.92746 0.82303 0.0
C396 C 0.63472 0.94189 0.83001 0.0
H397 H 0.74185 0.98675 0.87923 0.0
H398 H 0.69984 0.97453 0.87034 0.0
H399 H 0.69272 0.99282 0.82434 0.0
H400 H 0.58318 0.90533 0.78982 0.0
H401 H 0.62384 0.93323 0.80094 0.0
C402 C 0.09009 0.66367 0.82293 0.0
C403 C 0.09455 0.66297 0.80801 0.0
C404 C 0.07317 0.671 0.82776 0.0
C405 C 0.04754 0.71053 0.81616 0.0
H406 H 0.00595 0.68398 0.85055 0.0
C407 C 0.99289 0.75637 0.83823 0.0
C408 C 0.99456 0.76068 0.85328 0.0
C409 C 0.00022 0.7402 0.83218 0.0
C410 C 0.01755 0.69165 0.84096 0.0
H411 H 0.08368 0.66804 0.7864 0.0
H412 H 0.05399 0.6807 0.79484 0.0
H413 H 0.02732 0.66271 0.84069 0.0
H414 H 0.00416 0.75055 0.87389 0.0
H415 H 0.0175 0.72271 0.86331 0.0
H416 H 0.03861 0.7399 0.81663 0.0
C417 C 0.06387 0.67591 0.80281 0.0
C418 C 0.02974 0.67945 0.8353 0.0
C419 C 0.08078 0.66853 0.79798 0.0
C420 C 0.00264 0.7476 0.86225 0.0
C421 C 0.01017 0.73153 0.85618 0.0
C422 C 0.03544 0.72273 0.82182 0.0
C423 C 0.06035 0.67782 0.81776 0.0
C424 C 0.04517 0.68897 0.82295 0.0
C425 C 0.00961 0.72812 0.84103 0.0
C426 C 0.02057 0.71367 0.8344 0.0
H427 H 0.10034 0.65943 0.83095 0.0
H428 H 0.07108 0.67248 0.83934 0.0
H429 H 0.05965 0.71865 0.8068 0.0
H430 H 0.98646 0.76594 0.83104 0.0
H431 H 0.99903 0.73758 0.82051 0.0
C432 C 0.91706 0.57282 0.46795 0.0
C433 C 0.89569 0.55937 0.47673 0.0
C434 C 0.94019 0.58984 0.47419 0.0
C435 C 0.97325 0.60031 0.50894 0.0
H436 H 0.02454 0.66102 0.49031 0.0
C437 C 0.07207 0.65549 0.53341 0.0
C438 C 0.09171 0.66186 0.52348 0.0
C439 C 0.04781 0.64795 0.52846 0.0
C440 C 0.0104 0.64409 0.49564 0.0
H441 H 0.8814 0.55453 0.49876 0.0
H442 H 0.92156 0.58444 0.50956 0.0
H443 H 0.98221 0.63862 0.48003 0.0
H444 H 0.10163 0.66672 0.5006 0.0
H445 H 0.05937 0.65322 0.492 0.0
H446 H 0.00141 0.60516 0.52425 0.0
C447 C 0.92064 0.58142 0.49792 0.0
C448 C 0.98618 0.63126 0.48974 0.0
C449 C 0.89759 0.56435 0.49172 0.0
C450 C 0.08689 0.66186 0.50855 0.0
C451 C 0.06265 0.65427 0.5036 0.0
C452 C 0.99739 0.61308 0.51481 0.0
C453 C 0.94237 0.59381 0.48931 0.0
C454 C 0.96744 0.609 0.4962 0.0
C455 C 0.04268 0.64656 0.51348 0.0
C456 C 0.01639 0.63489 0.50811 0.0
H457 H 0.91618 0.5694 0.45637 0.0
H458 H 0.95659 0.59892 0.46724 0.0
H459 H 0.95943 0.58298 0.51406 0.0
H460 H 0.0752 0.65548 0.54499 0.0
H461 H 0.03291 0.64255 0.53636 0.0
C462 C 0.336 0.41648 0.53006 0.0
C463 C 0.32854 0.43004 0.52105 0.0
C464 C 0.34341 0.4003 0.52402 0.0
C465 C 0.36982 0.39201 0.49002 0.0
H466 H 0.35863 0.33025 0.50807 0.0
C467 C 0.41329 0.33636 0.46584 0.0
C468 C 0.42566 0.32904 0.47586 0.0
C469 C 0.39693 0.34445 0.47066 0.0
C470 C 0.36196 0.34749 0.50292 0.0
H471 H 0.32147 0.43607 0.49873 0.0
H472 H 0.33394 0.4076 0.48825 0.0
H473 H 0.33799 0.35222 0.51795 0.0
H474 H 0.42954 0.32321 0.49876 0.0
H475 H 0.40133 0.33759 0.50714 0.0
H476 H 0.39424 0.38777 0.47525 0.0
C477 C 0.33467 0.40989 0.49994 0.0
C478 C 0.35015 0.36008 0.50859 0.0
C479 C 0.3274 0.42612 0.50596 0.0
C480 C 0.42035 0.32877 0.49074 0.0
C481 C 0.40403 0.33689 0.49556 0.0
C482 C 0.38157 0.37946 0.48437 0.0
C483 C 0.3434 0.39729 0.50886 0.0
C484 C 0.3542 0.38266 0.5023 0.0
C485 C 0.39262 0.34542 0.48559 0.0
C486 C 0.37806 0.35722 0.49085 0.0
H487 H 0.33708 0.41911 0.54173 0.0
H488 H 0.35021 0.39104 0.5312 0.0
H489 H 0.37376 0.4096 0.48506 0.0
H490 H 0.41684 0.33662 0.45429 0.0
H491 H 0.3881 0.3505 0.46269 0.0
C492 C 0.64719 0.07025 0.46826 0.0
C493 C 0.65524 0.09198 0.47671 0.0
C494 C 0.63962 0.04706 0.47492 0.0
C495 C 0.6153 0.01522 0.51014 0.0
H496 H 0.62341 0.96243 0.49252 0.0
C497 C 0.57409 0.91783 0.5368 0.0
C498 C 0.55963 0.8976 0.52743 0.0
C499 C 0.58998 0.94184 0.53118 0.0
C500 C 0.62102 0.97702 0.49756 0.0
H501 H 0.66317 0.10679 0.49866 0.0
H502 H 0.65069 0.06662 0.51021 0.0
H503 H 0.64385 0.00426 0.48156 0.0
H504 H 0.55149 0.88642 0.50482 0.0
H505 H 0.57916 0.92823 0.49507 0.0
H506 H 0.59223 0.98796 0.526 0.0
C507 C 0.64945 0.06724 0.49849 0.0
C508 C 0.63264 0.00095 0.49126 0.0
C509 C 0.65674 0.09031 0.49186 0.0
C510 C 0.56231 0.90163 0.51233 0.0
C511 C 0.5783 0.92557 0.50673 0.0
C512 C 0.60384 0.99139 0.51646 0.0
C513 C 0.64018 0.0452 0.49015 0.0
C514 C 0.62962 0.02026 0.49737 0.0
C515 C 0.59187 0.94605 0.51609 0.0
C516 C 0.60625 0.97192 0.51013 0.0
H517 H 0.64579 0.07095 0.45656 0.0
H518 H 0.63237 0.03047 0.46815 0.0
H519 H 0.61211 0.02943 0.515 0.0
H520 H 0.57251 0.91532 0.54847 0.0
H521 H 0.60044 0.95723 0.53866 0.0
C522 C 0.08563 0.17724 0.1117 0.0
C523 C 0.09756 0.17393 0.12382 0.0
C524 C 0.06009 0.16956 0.11216 0.0
C525 C 0.00354 0.14429 0.13617 0.0
H526 H 0.97043 0.10465 0.10197 0.0
C527 C 0.90049 0.06241 0.13506 0.0
C528 C 0.88696 0.05761 0.12201 0.0
C529 C 0.92547 0.08191 0.13587 0.0
C530 C 0.97925 0.11603 0.1115 0.0
H531 H 0.09256 0.16187 0.14632 0.0
H532 H 0.04783 0.14785 0.14703 0.0
H533 H 0.01572 0.13017 0.10237 0.0
H534 H 0.88832 0.07084 0.09998 0.0
H535 H 0.93157 0.10505 0.1015 0.0
H536 H 0.96673 0.12913 0.14545 0.0
C537 C 0.05823 0.15668 0.1372 0.0
C538 C 0.00534 0.13077 0.11173 0.0
C539 C 0.0839 0.16466 0.13679 0.0
C540 C 0.89834 0.07377 0.11013 0.0
C541 C 0.92318 0.09334 0.11098 0.0
C542 C 0.97729 0.12944 0.13595 0.0
C543 C 0.04582 0.15807 0.1247 0.0
C544 C 0.01789 0.14484 0.12412 0.0
C545 C 0.93733 0.09709 0.12368 0.0
C546 C 0.96488 0.11488 0.12366 0.0
H547 H 0.09575 0.18468 0.1016 0.0
H548 H 0.05127 0.17155 0.10246 0.0
H549 H 0.0126 0.15507 0.14585 0.0
H550 H 0.89225 0.05031 0.14441 0.0
H551 H 0.93587 0.08417 0.1458 0.0
C552 C 0.82874 0.91812 0.12932 0.0
C553 C 0.82322 0.92638 0.11632 0.0
C554 C 0.83737 0.90093 0.12901 0.0
C555 C 0.87209 0.88275 0.10413 0.0
H556 H 0.86268 0.83467 0.13424 0.0
C557 C 0.92845 0.83179 0.10289 0.0
C558 C 0.93994 0.8316 0.11606 0.0
C559 C 0.90936 0.83781 0.10266 0.0
C560 C 0.86552 0.84807 0.12577 0.0
H561 H 0.82003 0.92125 0.09295 0.0
H562 H 0.83443 0.89087 0.09244 0.0
H563 H 0.83683 0.85467 0.13427 0.0
H564 H 0.93943 0.83627 0.1394 0.0
H565 H 0.90647 0.84731 0.13895 0.0
H566 H 0.90119 0.87692 0.09586 0.0
C567 C 0.83289 0.89824 0.10284 0.0
C568 C 0.85071 0.8595 0.12578 0.0
C569 C 0.8245 0.91556 0.10314 0.0
C570 C 0.93101 0.8363 0.12907 0.0
C571 C 0.91199 0.84249 0.12882 0.0
C572 C 0.88681 0.87136 0.10411 0.0
C573 C 0.84045 0.89154 0.1157 0.0
C574 C 0.85406 0.87723 0.11505 0.0
C575 C 0.90143 0.84398 0.11556 0.0
C576 C 0.88397 0.85413 0.11502 0.0
H577 H 0.82794 0.92609 0.13967 0.0
H578 H 0.84311 0.89628 0.13912 0.0
H579 H 0.87565 0.89673 0.09589 0.0
H580 H 0.93464 0.82793 0.09269 0.0
H581 H 0.90125 0.83826 0.09229 0.0
C582 C 0.15387 0.09107 0.13345 0.0
C583 C 0.15984 0.10457 0.12033 0.0
C584 C 0.14842 0.06608 0.13365 0.0
C585 C 0.12525 0.01188 0.10889 0.0
H586 H 0.13734 0.97981 0.14174 0.0
C587 C 0.08506 0.9061 0.1086 0.0
C588 C 0.07067 0.89376 0.12095 0.0
C589 C 0.10212 0.93186 0.10892 0.0
C590 C 0.13389 0.98854 0.13248 0.0
H591 H 0.16656 0.10303 0.09732 0.0
H592 H 0.1578 0.05979 0.09773 0.0
H593 H 0.15603 0.02554 0.14136 0.0
H594 H 0.0646 0.89838 0.14368 0.0
H595 H 0.0942 0.94349 0.14418 0.0
H596 H 0.10273 0.97509 0.10013 0.0
C597 C 0.1565 0.06817 0.1078 0.0
C598 C 0.14451 0.01471 0.13227 0.0
C599 C 0.16164 0.09302 0.10757 0.0
C600 C 0.07535 0.90733 0.13398 0.0
C601 C 0.09237 0.93321 0.13427 0.0
C602 C 0.11481 0.98587 0.10906 0.0
C603 C 0.14908 0.05413 0.12076 0.0
C604 C 0.14 0.02666 0.12055 0.0
C605 C 0.10509 0.94592 0.12156 0.0
C606 C 0.11869 0.97382 0.12093 0.0
H607 H 0.15232 0.09943 0.14348 0.0
H608 H 0.14256 0.05583 0.1438 0.0
H609 H 0.12083 0.02025 0.09983 0.0
H610 H 0.08218 0.89612 0.09844 0.0
H611 H 0.11209 0.94102 0.09904 0.0
C612 C 0.06282 0.89659 0.89343 0.0
C613 C 0.04935 0.8851 0.88069 0.0
C614 C 0.08245 0.92148 0.89323 0.0
C615 C 0.12386 0.97506 0.86889 0.0
H616 H 0.1215 0.01451 0.90106 0.0
C617 C 0.16302 0.08258 0.86733 0.0
C618 C 0.17155 0.09604 0.88042 0.0
C619 C 0.15397 0.05667 0.86703 0.0
C620 C 0.12288 0.00379 0.89213 0.0
H621 H 0.04672 0.89041 0.85759 0.0
H622 H 0.0805 0.93407 0.8573 0.0
H623 H 0.09435 0.96935 0.90124 0.0
H624 H 0.17986 0.09344 0.90306 0.0
H625 H 0.16463 0.04849 0.90244 0.0
H626 H 0.15184 0.00998 0.85956 0.0
C627 C 0.07621 0.92373 0.86742 0.0
C628 C 0.10724 0.97778 0.89223 0.0
C629 C 0.0567 0.89871 0.8676 0.0
C630 C 0.17305 0.08355 0.89284 0.0
C631 C 0.16419 0.05775 0.89251 0.0
C632 C 0.13952 0.00122 0.86877 0.0
C633 C 0.08892 0.93561 0.88031 0.0
C634 C 0.10728 0.96306 0.88056 0.0
C635 C 0.15345 0.04381 0.87979 0.0
C636 C 0.13899 0.01589 0.88034 0.0
H637 H 0.05787 0.88652 0.90367 0.0
H638 H 0.0922 0.92983 0.90329 0.0
H639 H 0.12459 0.96426 0.8598 0.0
H640 H 0.16163 0.09165 0.85757 0.0
H641 H 0.14579 0.0465 0.85705 0.0
C642 C 0.09122 0.15908 0.89634 0.0
C643 C 0.10318 0.15836 0.88349 0.0
C644 C 0.06609 0.15301 0.89616 0.0
C645 C 0.01228 0.14044 0.87202 0.0
H646 H 0.97345 0.09475 0.90305 0.0
C647 C 0.90539 0.06954 0.86913 0.0
C648 C 0.8916 0.06298 0.88216 0.0
C649 C 0.93121 0.08679 0.8692 0.0
C650 C 0.98396 0.10789 0.89445 0.0
H651 H 0.09849 0.15197 0.86023 0.0
H652 H 0.05445 0.14076 0.85997 0.0
H653 H 0.01879 0.11466 0.90339 0.0
H654 H 0.89352 0.07119 0.9052 0.0
H655 H 0.93829 0.10161 0.90525 0.0
H656 H 0.97703 0.13277 0.86286 0.0
C657 C 0.06458 0.14639 0.87017 0.0
C658 C 0.01007 0.11935 0.89465 0.0
C659 C 0.08982 0.15268 0.87033 0.0
C660 C 0.90369 0.07555 0.89501 0.0
C661 C 0.92938 0.09289 0.89506 0.0
C662 C 0.98602 0.12887 0.87181 0.0
C663 C 0.05222 0.14581 0.88315 0.0
C664 C 0.02458 0.13555 0.88338 0.0
C665 C 0.94365 0.09791 0.88228 0.0
C666 C 0.97156 0.11225 0.88296 0.0
H667 H 0.10107 0.16372 0.90664 0.0
H668 H 0.05733 0.15332 0.90631 0.0
H669 H 0.02292 0.15303 0.86324 0.0
H670 H 0.89662 0.06019 0.85904 0.0
H671 H 0.94164 0.09016 0.85917 0.0
C672 C 0.91189 0.82325 0.86598 0.0
C673 C 0.91743 0.81473 0.87887 0.0
C674 C 0.89401 0.83101 0.86597 0.0
C675 C 0.86927 0.85834 0.89187 0.0
H676 H 0.82878 0.85725 0.85928 0.0
C677 C 0.82047 0.91659 0.89386 0.0
C678 C 0.82366 0.93126 0.88147 0.0
C679 C 0.82548 0.89681 0.89331 0.0
C680 C 0.84002 0.85773 0.86847 0.0
H681 H 0.90668 0.80505 0.90143 0.0
H682 H 0.87511 0.81792 0.9013 0.0
H683 H 0.84869 0.83133 0.85862 0.0
H684 H 0.83321 0.93571 0.85855 0.0
H685 H 0.84259 0.90163 0.85768 0.0
H686 H 0.86163 0.88534 0.90151 0.0
C687 C 0.88512 0.81942 0.89133 0.0
C688 C 0.85139 0.84287 0.86809 0.0
C689 C 0.90312 0.81192 0.89138 0.0
C690 C 0.83061 0.9248 0.8683 0.0
C691 C 0.83585 0.90514 0.86778 0.0
C692 C 0.858 0.87315 0.89224 0.0
C693 C 0.88121 0.83017 0.87882 0.0
C694 C 0.86648 0.84332 0.87971 0.0
C695 C 0.83406 0.89139 0.88039 0.0
C696 C 0.84356 0.87337 0.88046 0.0
H697 H 0.92258 0.82563 0.85617 0.0
H698 H 0.89154 0.83925 0.85616 0.0
H699 H 0.88122 0.85966 0.90087 0.0
H700 H 0.81479 0.92083 0.90413 0.0
H701 H 0.82335 0.88624 0.90314 0.0
C702 C 0.75407 0.49959 0.46341 0.0
C703 C 0.76231 0.49261 0.45094 0.0
C704 C 0.7288 0.49295 0.4649 0.0
C705 C 0.6682 0.46581 0.44414 0.0
H706 H 0.63845 0.44138 0.48202 0.0
C707 C 0.5678 0.3862 0.46914 0.0
C708 C 0.5519 0.38741 0.45864 0.0
C709 C 0.59313 0.40478 0.46976 0.0
C710 C 0.64637 0.44794 0.47133 0.0
H711 H 0.75058 0.47379 0.43007 0.0
H712 H 0.70687 0.4615 0.43285 0.0
H713 H 0.68378 0.46283 0.47934 0.0
H714 H 0.54929 0.41005 0.44145 0.0
H715 H 0.59301 0.44333 0.44311 0.0
H716 H 0.63098 0.44901 0.43582 0.0
C717 C 0.71977 0.47271 0.44137 0.0
C718 C 0.67252 0.46071 0.46983 0.0
C719 C 0.74496 0.47962 0.43981 0.0
C720 C 0.56127 0.40852 0.44953 0.0
C721 C 0.58643 0.42746 0.4504 0.0
C722 C 0.64211 0.45259 0.44557 0.0
C723 C 0.7112 0.47894 0.45401 0.0
C724 C 0.68377 0.46911 0.45611 0.0
C725 C 0.60302 0.42535 0.4601 0.0
C726 C 0.63074 0.4428 0.45911 0.0
H727 H 0.76701 0.50975 0.47215 0.0
H728 H 0.72303 0.49846 0.47469 0.0
H729 H 0.67612 0.47261 0.43347 0.0
H730 H 0.56109 0.37004 0.47624 0.0
H731 H 0.60514 0.40211 0.47727 0.0
C732 C 0.49154 0.24796 0.46056 0.0
C733 C 0.48744 0.25823 0.4479 0.0
C734 C 0.5004 0.23101 0.4596 0.0
C735 C 0.53832 0.21727 0.43454 0.0
H736 H 0.52619 0.16483 0.46222 0.0
C737 C 0.59551 0.16718 0.43189 0.0
C738 C 0.60553 0.16492 0.44516 0.0
C739 C 0.57645 0.17325 0.43163 0.0
C740 C 0.52979 0.17947 0.45443 0.0
H741 H 0.48696 0.25687 0.42435 0.0
H742 H 0.50171 0.22684 0.42268 0.0
H743 H 0.4999 0.18434 0.46274 0.0
H744 H 0.60247 0.16604 0.4686 0.0
H745 H 0.56956 0.17716 0.46815 0.0
H746 H 0.56858 0.21311 0.42649 0.0
C747 C 0.49891 0.23249 0.43335 0.0
C748 C 0.51474 0.19062 0.45472 0.0
C749 C 0.49031 0.24959 0.4343 0.0
C750 C 0.59521 0.1677 0.45819 0.0
C751 C 0.57621 0.17392 0.45793 0.0
C752 C 0.55329 0.20617 0.43425 0.0
C753 C 0.50511 0.22384 0.44596 0.0
C754 C 0.51905 0.2099 0.44488 0.0
C755 C 0.56706 0.17738 0.44464 0.0
C756 C 0.54946 0.18736 0.4443 0.0
H757 H 0.4895 0.25423 0.4712 0.0
H758 H 0.50505 0.22481 0.46954 0.0
H759 H 0.54262 0.23245 0.42701 0.0
H760 H 0.60278 0.16484 0.42164 0.0
H761 H 0.56946 0.17527 0.42121 0.0
C762 C 0.83006 0.42233 0.46821 0.0
C763 C 0.83283 0.43229 0.45413 0.0
C764 C 0.82502 0.39767 0.47024 0.0
C765 C 0.82232 0.34268 0.4513 0.0
H766 H 0.76436 0.30425 0.47601 0.0
C767 C 0.74271 0.23341 0.46746 0.0
C768 C 0.73612 0.22375 0.45329 0.0
C769 C 0.76107 0.25852 0.46973 0.0
C770 C 0.78094 0.31465 0.46934 0.0
H771 H 0.83416 0.42469 0.43121 0.0
H772 H 0.82512 0.3818 0.43473 0.0
H773 H 0.78517 0.34978 0.47615 0.0
H774 H 0.74517 0.23237 0.43045 0.0
H775 H 0.77683 0.27602 0.43437 0.0
H776 H 0.81727 0.30734 0.44401 0.0
C777 C 0.827 0.393 0.44424 0.0
C778 C 0.7929 0.34085 0.46941 0.0
C779 C 0.83199 0.41759 0.44221 0.0
C780 C 0.74963 0.23921 0.44151 0.0
C781 C 0.76797 0.26427 0.44378 0.0
C782 C 0.81034 0.31644 0.45123 0.0
C783 C 0.82273 0.3825 0.45824 0.0
C784 C 0.81321 0.35515 0.46005 0.0
C785 C 0.77327 0.27447 0.45787 0.0
C786 C 0.78899 0.3021 0.45989 0.0
H787 H 0.83078 0.43319 0.47764 0.0
H788 H 0.82217 0.39024 0.48118 0.0
H789 H 0.83821 0.35319 0.44415 0.0
H790 H 0.73282 0.22196 0.4768 0.0
H791 H 0.76502 0.26571 0.48073 0.0
C792 C 0.72542 0.23262 0.23576 0.0
C793 C 0.7159 0.22046 0.2224 0.0
C794 C 0.74432 0.25781 0.23619 0.0
C795 C 0.79171 0.311 0.21389 0.0
H796 H 0.77783 0.35086 0.24095 0.0
C797 C 0.83079 0.41794 0.20799 0.0
C798 C 0.83447 0.43219 0.22064 0.0
C799 C 0.82165 0.39207 0.20891 0.0
C800 C 0.78242 0.34006 0.23353 0.0
H801 H 0.7197 0.22498 0.19898 0.0
H802 H 0.75238 0.26909 0.19974 0.0
H803 H 0.75182 0.30552 0.24124 0.0
H804 H 0.8338 0.43096 0.2442 0.0
H805 H 0.81853 0.38606 0.2458 0.0
H806 H 0.82198 0.34585 0.20593 0.0
C807 C 0.74542 0.25905 0.2099 0.0
C808 C 0.76742 0.31397 0.23369 0.0
C809 C 0.72656 0.23378 0.20946 0.0
C810 C 0.83081 0.42044 0.23424 0.0
C811 C 0.8219 0.39467 0.23515 0.0
C812 C 0.80681 0.33721 0.21374 0.0
C813 C 0.75409 0.27152 0.22327 0.0
C814 C 0.77164 0.29911 0.22376 0.0
C815 C 0.8162 0.37998 0.2225 0.0
C816 C 0.80212 0.35207 0.22345 0.0
H817 H 0.71787 0.22285 0.24594 0.0
H818 H 0.75093 0.26672 0.24667 0.0
H819 H 0.79563 0.30005 0.2062 0.0
H820 H 0.83344 0.42642 0.19734 0.0
H821 H 0.81738 0.38135 0.19893 0.0
C822 C 0.75561 0.4808 0.19897 0.0
C823 C 0.7715 0.49792 0.20947 0.0
C824 C 0.7303 0.47408 0.19832 0.0
C825 C 0.68126 0.47292 0.22243 0.0
H826 H 0.63973 0.44162 0.18859 0.0
C827 C 0.56938 0.40829 0.20434 0.0
C828 C 0.56096 0.39307 0.21683 0.0
C829 C 0.59469 0.42683 0.20292 0.0
C830 C 0.65095 0.45072 0.19812 0.0
H831 H 0.7741 0.52319 0.22664 0.0
H832 H 0.73039 0.51277 0.22494 0.0
H833 H 0.68507 0.46545 0.18598 0.0
H834 H 0.57241 0.3859 0.23776 0.0
H835 H 0.61623 0.41718 0.23507 0.0
H836 H 0.6472 0.45895 0.23448 0.0
C837 C 0.73697 0.50347 0.21766 0.0
C838 C 0.67711 0.46408 0.19667 0.0
C839 C 0.76213 0.50967 0.21856 0.0
C840 C 0.57818 0.39735 0.22802 0.0
C841 C 0.60343 0.41555 0.22651 0.0
C842 C 0.65516 0.46006 0.22382 0.0
C843 C 0.7204 0.48477 0.20795 0.0
C844 C 0.69268 0.47452 0.2089 0.0
C845 C 0.61217 0.43034 0.21386 0.0
C846 C 0.63964 0.44786 0.21182 0.0
H847 H 0.76231 0.47133 0.19188 0.0
H848 H 0.71829 0.4594 0.19081 0.0
H849 H 0.69236 0.48044 0.23219 0.0
H850 H 0.55653 0.40557 0.19556 0.0
H851 H 0.60059 0.43812 0.19313 0.0
C852 C 0.48412 0.2458 0.22743 0.0
C853 C 0.4894 0.26191 0.21548 0.0
C854 C 0.48896 0.22592 0.22678 0.0
C855 C 0.50772 0.1897 0.20224 0.0
H856 H 0.54418 0.18887 0.2364 0.0
C857 C 0.58118 0.15728 0.20244 0.0
C858 C 0.58526 0.14778 0.21542 0.0
C859 C 0.56292 0.16448 0.20178 0.0
C860 C 0.53355 0.18829 0.22688 0.0
H861 H 0.50234 0.26879 0.19313 0.0
H862 H 0.51145 0.23451 0.19212 0.0
H863 H 0.52391 0.21391 0.23646 0.0
H864 H 0.5716 0.13585 0.23736 0.0
H865 H 0.53936 0.14776 0.23609 0.0
H866 H 0.51841 0.16471 0.19252 0.0
C867 C 0.50321 0.23697 0.20194 0.0
C868 C 0.52188 0.20274 0.22691 0.0
C869 C 0.49811 0.25673 0.20254 0.0
C870 C 0.5692 0.14349 0.22727 0.0
C871 C 0.5508 0.15045 0.22657 0.0
C872 C 0.51947 0.17518 0.20221 0.0
C873 C 0.4995 0.22187 0.21423 0.0
C874 C 0.50918 0.204 0.21453 0.0
C875 C 0.54825 0.16212 0.21405 0.0
C876 C 0.5329 0.17466 0.21446 0.0
H877 H 0.47702 0.24904 0.23749 0.0
H878 H 0.4853 0.21427 0.23632 0.0
H879 H 0.49785 0.19004 0.19258 0.0
H880 H 0.59322 0.16078 0.1931 0.0
H881 H 0.56155 0.17349 0.19198 0.0
C882 C 0.23437 0.72877 0.7983 0.0
C883 C 0.22033 0.72251 0.78537 0.0
C884 C 0.25942 0.74822 0.79847 0.0
C885 C 0.31228 0.77913 0.77316 0.0
H886 H 0.34701 0.82223 0.80595 0.0
C887 C 0.4188 0.84021 0.77176 0.0
C888 C 0.43117 0.83852 0.78417 0.0
C889 C 0.39323 0.83243 0.77224 0.0
C890 C 0.33756 0.8103 0.79671 0.0
H891 H 0.22089 0.73313 0.76282 0.0
H892 H 0.26427 0.76724 0.76321 0.0
H893 H 0.30113 0.79644 0.80627 0.0
H894 H 0.42685 0.82917 0.80711 0.0
H895 H 0.38212 0.815 0.80787 0.0
H896 H 0.34839 0.79199 0.76379 0.0
C897 C 0.25621 0.75671 0.77311 0.0
C898 C 0.31131 0.79554 0.7969 0.0
C899 C 0.2313 0.7372 0.77291 0.0
C900 C 0.41787 0.83069 0.79735 0.0
C901 C 0.39219 0.82264 0.79779 0.0
C902 C 0.33839 0.79377 0.77298 0.0
C903 C 0.27085 0.76188 0.78574 0.0
C904 C 0.29841 0.77953 0.78519 0.0
C905 C 0.37937 0.82248 0.78509 0.0
C906 C 0.35143 0.80929 0.78482 0.0
H907 H 0.22645 0.71784 0.80809 0.0
H908 H 0.27019 0.75161 0.80836 0.0
H909 H 0.30306 0.76662 0.76408 0.0
H910 H 0.42861 0.84651 0.76148 0.0
H911 H 0.38408 0.8332 0.76235 0.0
C912 C 0.26477 0.50231 0.79719 0.0
C913 C 0.27272 0.4964 0.7842 0.0
C914 C 0.24564 0.50834 0.79705 0.0
C915 C 0.21821 0.5345 0.77198 0.0
H916 H 0.1709 0.52092 0.80331 0.0
C917 C 0.15581 0.57856 0.77084 0.0
C918 C 0.1558 0.59083 0.78372 0.0
C919 C 0.16411 0.56116 0.77087 0.0
C920 C 0.18401 0.52487 0.79448 0.0
H921 H 0.26555 0.4904 0.76105 0.0
H922 H 0.23195 0.50044 0.76085 0.0
H923 H 0.1968 0.50098 0.8034 0.0
H924 H 0.1627 0.59304 0.80693 0.0
H925 H 0.17769 0.56308 0.80694 0.0
H926 H 0.20624 0.55893 0.76327 0.0
C927 C 0.24093 0.50107 0.77109 0.0
C928 C 0.19886 0.51347 0.79454 0.0
C929 C 0.26013 0.49522 0.77122 0.0
C930 C 0.1625 0.58394 0.79682 0.0
C931 C 0.17102 0.56667 0.79683 0.0
C932 C 0.20344 0.54583 0.77192 0.0
C933 C 0.23397 0.50846 0.78392 0.0
C934 C 0.21637 0.51844 0.78337 0.0
C935 C 0.17284 0.55583 0.78375 0.0
C936 C 0.18639 0.54145 0.78325 0.0
H937 H 0.27405 0.50336 0.80738 0.0
H938 H 0.24089 0.51413 0.80711 0.0
H939 H 0.23185 0.53922 0.76336 0.0
H940 H 0.15042 0.58317 0.76059 0.0
H941 H 0.16466 0.55266 0.76067 0.0
C942 C 0.49505 0.75791 0.76962 0.0
C943 C 0.49393 0.77007 0.78229 0.0
C944 C 0.48973 0.73301 0.77013 0.0
C945 C 0.47881 0.68067 0.79525 0.0
H946 H 0.43502 0.63952 0.76416 0.0
C947 C 0.40945 0.57359 0.79925 0.0
C948 C 0.40384 0.55924 0.78646 0.0
C949 C 0.42654 0.59945 0.79895 0.0
C950 C 0.44766 0.65072 0.77279 0.0
H951 H 0.48742 0.76592 0.80556 0.0
H952 H 0.47743 0.7223 0.80639 0.0
H953 H 0.45338 0.6847 0.76311 0.0
H954 H 0.41373 0.56022 0.76374 0.0
H955 H 0.44377 0.6051 0.76331 0.0
H956 H 0.472 0.64622 0.80518 0.0
C957 C 0.48287 0.7321 0.79608 0.0
C958 C 0.45824 0.67674 0.77218 0.0
C959 C 0.48844 0.75711 0.79559 0.0
C960 C 0.41734 0.57081 0.77373 0.0
C961 C 0.43447 0.59656 0.77346 0.0
C962 C 0.46806 0.65451 0.79589 0.0
C963 C 0.48287 0.71955 0.7833 0.0
C964 C 0.4737 0.69207 0.78348 0.0
C965 C 0.43839 0.61137 0.78588 0.0
C966 C 0.45212 0.63923 0.78473 0.0
H967 H 0.49954 0.76746 0.75923 0.0
H968 H 0.49047 0.72413 0.76013 0.0
H969 H 0.49088 0.69193 0.80405 0.0
H970 H 0.39939 0.56524 0.80924 0.0
H971 H 0.4291 0.61032 0.80871 0.0
C972 C 0.50856 0.7517 0.562 0.0
C973 C 0.50612 0.76448 0.55001 0.0
C974 C 0.50027 0.72604 0.56116 0.0
C975 C 0.47513 0.6706 0.53638 0.0
H976 H 0.43249 0.63662 0.56947 0.0
C977 C 0.39209 0.56819 0.53486 0.0
C978 C 0.38571 0.55397 0.54773 0.0
C979 C 0.41183 0.59311 0.53474 0.0
C980 C 0.44469 0.64565 0.56026 0.0
H981 H 0.49508 0.7608 0.52735 0.0
H982 H 0.48014 0.71592 0.52599 0.0
H983 H 0.45912 0.68181 0.56989 0.0
H984 H 0.39632 0.55406 0.57022 0.0
H985 H 0.43103 0.59716 0.5699 0.0
H986 H 0.45986 0.63418 0.52659 0.0
C987 C 0.48867 0.72574 0.536 0.0
C988 C 0.46005 0.67168 0.56051 0.0
C989 C 0.49718 0.7515 0.5368 0.0
C990 C 0.40049 0.56463 0.56019 0.0
C991 C 0.42034 0.5894 0.56002 0.0
C992 C 0.45971 0.64441 0.53614 0.0
C993 C 0.48912 0.71251 0.54837 0.0
C994 C 0.47521 0.68456 0.54851 0.0
C995 C 0.42573 0.60422 0.54744 0.0
C996 C 0.44404 0.63167 0.54801 0.0
H997 H 0.51572 0.76123 0.57227 0.0
H998 H 0.50149 0.71653 0.57078 0.0
H999 H 0.48673 0.67994 0.527 0.0
H1000 H 0.38108 0.56051 0.52508 0.0
H1001 H 0.41533 0.60401 0.52489 0.0
C1002 C 0.23874 0.73927 0.53924 0.0
C1003 C 0.22407 0.7288 0.55177 0.0
C1004 C 0.26456 0.75613 0.54042 0.0
C1005 C 0.31576 0.76964 0.56583 0.0
H1006 H 0.35639 0.8233 0.53886 0.0
C1007 C 0.42308 0.82124 0.56958 0.0
C1008 C 0.43578 0.82406 0.5564 0.0
C1009 C 0.39782 0.81475 0.56964 0.0
C1010 C 0.34527 0.80833 0.54645 0.0
H1011 H 0.22445 0.72961 0.57533 0.0
H1012 H 0.26922 0.75941 0.57738 0.0
H1013 H 0.31056 0.80315 0.53786 0.0
H1014 H 0.4322 0.82354 0.53292 0.0
H1015 H 0.38801 0.81175 0.53304 0.0
H1016 H 0.35016 0.77414 0.57416 0.0
C1017 C 0.26101 0.75402 0.56664 0.0
C1018 C 0.31904 0.7968 0.54588 0.0
C1019 C 0.23532 0.73704 0.56547 0.0
C1020 C 0.42297 0.82145 0.54328 0.0
C1021 C 0.39765 0.81484 0.54334 0.0
C1022 C 0.34187 0.78113 0.5664 0.0
C1023 C 0.27613 0.76298 0.55415 0.0
C1024 C 0.30398 0.7771 0.55546 0.0
C1025 C 0.38461 0.81079 0.55653 0.0
C1026 C 0.35696 0.80039 0.55661 0.0
H1027 H 0.23063 0.7333 0.52852 0.0
H1028 H 0.27564 0.76257 0.53057 0.0
H1029 H 0.30481 0.75416 0.57316 0.0
H1030 H 0.43244 0.8234 0.57989 0.0
H1031 H 0.38846 0.81226 0.57999 0.0
C1032 C 0.24793 0.49935 0.55805 0.0
C1033 C 0.25402 0.48857 0.54642 0.0
C1034 C 0.22961 0.50619 0.55649 0.0
C1035 C 0.19808 0.52276 0.52784 0.0
H1036 H 0.16617 0.53177 0.56178 0.0
C1037 C 0.14229 0.57767 0.54937 0.0
C1038 C 0.15534 0.59932 0.54081 0.0
C1039 C 0.14713 0.55782 0.548 0.0
C1040 C 0.17428 0.52899 0.55201 0.0
H1041 H 0.24437 0.47495 0.52431 0.0
H1042 H 0.21148 0.48594 0.52175 0.0
H1043 H 0.18586 0.50641 0.56355 0.0
H1044 H 0.18297 0.61693 0.52373 0.0
H1045 H 0.1927 0.5834 0.52195 0.0
H1046 H 0.18553 0.54445 0.51614 0.0
C1047 C 0.22153 0.48992 0.53195 0.0
C1048 C 0.18614 0.51474 0.55313 0.0
C1049 C 0.24026 0.48342 0.53344 0.0
C1050 C 0.17251 0.60035 0.53041 0.0
C1051 C 0.17793 0.58089 0.52934 0.0
C1052 C 0.1856 0.53646 0.52661 0.0
C1053 C 0.21643 0.50205 0.54334 0.0
C1054 C 0.19931 0.51248 0.54127 0.0
C1055 C 0.1658 0.55957 0.53839 0.0
C1056 C 0.17455 0.54082 0.53885 0.0
H1057 H 0.2582 0.50371 0.5682 0.0
H1058 H 0.2268 0.51592 0.56545 0.0
H1059 H 0.20789 0.52149 0.51841 0.0
H1060 H 0.12871 0.5763 0.55736 0.0
H1061 H 0.13673 0.54148 0.55483 0.0
C1062 C 0.20231 0.20209 0.05759 0.0
C1063 C 0.1777 0.1917 0.06296 0.0
C1064 C 0.20675 0.2045 0.04254 0.0
C1065 C 0.17205 0.17384 0.00918 0.0
H1066 H 0.22956 0.22605 0.98859 0.0
C1067 C 0.18667 0.1585 0.95023 0.0
C1068 C 0.19175 0.17805 0.94051 0.0
C1069 C 0.1896 0.16295 0.96513 0.0
C1070 C 0.21336 0.2114 0.99422 0.0
H1071 H 0.13887 0.178 0.05705 0.0
H1072 H 0.14662 0.18306 0.03106 0.0
H1073 H 0.22501 0.23033 0.01482 0.0
H1074 H 0.20537 0.21792 0.93857 0.0
H1075 H 0.2097 0.22569 0.9649 0.0
H1076 H 0.15989 0.15511 0.98885 0.0
C1077 C 0.16242 0.18841 0.03828 0.0
C1078 C 0.21086 0.21376 0.00922 0.0
C1079 C 0.15798 0.18563 0.05318 0.0
C1080 C 0.20134 0.20255 0.94589 0.0
C1081 C 0.20386 0.20697 0.96094 0.0
C1082 C 0.17451 0.17152 0.99433 0.0
C1083 C 0.18664 0.19681 0.03273 0.0
C1084 C 0.19003 0.19502 0.01684 0.0
C1085 C 0.1971 0.18696 0.97073 0.0
C1086 C 0.19522 0.19013 0.98663 0.0
H1087 H 0.21784 0.20691 0.06494 0.0
H1088 H 0.22563 0.21105 0.03861 0.0
H1089 H 0.15602 0.15878 0.0147 0.0
H1090 H 0.17965 0.1395 0.94634 0.0
H1091 H 0.18499 0.14727 0.97232 0.0
C1092 C 0.82624 0.01038 0.95049 0.0
C1093 C 0.80697 0.00163 0.94009 0.0
C1094 C 0.82136 0.01265 0.965 0.0
C1095 C 0.77442 0.98634 0.99287 0.0
H1096 H 0.82255 0.04583 0.0139 0.0
C1097 C 0.78166 0.99297 0.0564 0.0
C1098 C 0.80619 0.00033 0.06104 0.0
C1099 C 0.77688 0.99525 0.04171 0.0
C1100 C 0.80877 0.02919 0.00819 0.0
H1101 H 0.76738 0.98832 0.93674 0.0
H1102 H 0.75862 0.99167 0.96254 0.0
H1103 H 0.82274 0.04601 0.98741 0.0
H1104 H 0.84494 0.01637 0.05404 0.0
H1105 H 0.8367 0.02058 0.02875 0.0
H1106 H 0.76152 0.96905 0.01378 0.0
C1107 C 0.77757 0.99704 0.95925 0.0
C1108 C 0.80887 0.02931 0.99304 0.0
C1109 C 0.78258 0.99519 0.94454 0.0
C1110 C 0.82581 0.01046 0.05084 0.0
C1111 C 0.82113 0.01307 0.03634 0.0
C1112 C 0.77435 0.9862 0.00812 0.0
C1113 C 0.79702 0.00595 0.96957 0.0
C1114 C 0.79248 0.00755 0.98525 0.0
C1115 C 0.79666 0.00544 0.03157 0.0
C1116 C 0.79233 0.00728 0.01587 0.0
H1117 H 0.84525 0.01558 0.94742 0.0
H1118 H 0.83663 0.0192 0.97275 0.0
H1119 H 0.76164 0.9693 0.9871 0.0
H1120 H 0.76618 0.98504 0.06403 0.0
H1121 H 0.75782 0.98915 0.03828 0.0
C1122 C 0.99602 0.78718 0.94365 0.0
C1123 C 0.98218 0.79811 0.93846 0.0
C1124 C 0.99835 0.7848 0.95867 0.0
C1125 C 0.99642 0.81638 0.9921 0.0
H1126 H 0.99918 0.76273 0.01265 0.0
C1127 C 0.02589 0.83054 0.0511 0.0
C1128 C 0.01058 0.81122 0.06074 0.0
C1129 C 0.02455 0.82609 0.0362 0.0
C1130 C 0.99837 0.77779 0.00703 0.0
H1131 H 0.95803 0.81284 0.94467 0.0
H1132 H 0.96133 0.80793 0.97061 0.0
H1133 H 0.99017 0.75872 0.98644 0.0
H1134 H 0.98302 0.77169 0.06258 0.0
H1135 H 0.97992 0.76395 0.03626 0.0
H1136 H 0.00387 0.83526 0.01243 0.0
C1137 C 0.97121 0.80208 0.96326 0.0
C1138 C 0.9934 0.77558 0.99204 0.0
C1139 C 0.96922 0.80479 0.94839 0.0
C1140 C 0.99503 0.78687 0.05532 0.0
C1141 C 0.99332 0.78247 0.04028 0.0
C1142 C 0.00132 0.81856 0.00694 0.0
C1143 C 0.98665 0.79309 0.96863 0.0
C1144 C 0.99217 0.79482 0.98446 0.0
C1145 C 0.00739 0.80233 0.03054 0.0
C1146 C 0.00247 0.79941 0.01462 0.0
H1147 H 0.00617 0.78186 0.93618 0.0
H1148 H 0.01036 0.77778 0.96246 0.0
H1149 H 0.9961 0.83179 0.98659 0.0
H1150 H 0.03834 0.84941 0.05504 0.0
H1151 H 0.03623 0.84162 0.02906 0.0
C1152 C 0.83048 0.51686 0.28266 0.0
C1153 C 0.8504 0.52553 0.2727 0.0
C1154 C 0.83502 0.52342 0.29727 0.0
C1155 C 0.88149 0.53947 0.32564 0.0
H1156 H 0.83336 0.54979 0.34743 0.0
C1157 C 0.87212 0.53644 0.38944 0.0
C1158 C 0.84794 0.51729 0.39344 0.0
C1159 C 0.87747 0.5443 0.3749 0.0
C1160 C 0.84719 0.54731 0.34149 0.0
H1161 H 0.89077 0.54826 0.2702 0.0
H1162 H 0.89884 0.55955 0.29609 0.0
H1163 H 0.83401 0.55233 0.32097 0.0
H1164 H 0.81038 0.49177 0.38546 0.0
H1165 H 0.81953 0.50583 0.36039 0.0
H1166 H 0.89381 0.53332 0.34631 0.0
C1167 C 0.87967 0.54774 0.29243 0.0
C1168 C 0.84752 0.54867 0.32636 0.0
C1169 C 0.87506 0.54138 0.27764 0.0
C1170 C 0.82922 0.50648 0.38274 0.0
C1171 C 0.83438 0.51464 0.36839 0.0
C1172 C 0.88126 0.53827 0.34086 0.0
C1173 C 0.85963 0.53872 0.30239 0.0
C1174 C 0.86381 0.54353 0.31824 0.0
C1175 C 0.8585 0.53355 0.3643 0.0
C1176 C 0.86332 0.54106 0.34883 0.0
H1177 H 0.81125 0.50467 0.27921 0.0
H1178 H 0.81919 0.51576 0.30467 0.0
H1179 H 0.8942 0.53536 0.31968 0.0
H1180 H 0.88691 0.54504 0.39748 0.0
H1181 H 0.89624 0.55886 0.37195 0.0
C1182 C 0.49444 0.34214 0.28521 0.0
C1183 C 0.47551 0.33414 0.27464 0.0
C1184 C 0.48949 0.34502 0.29962 0.0
C1185 C 0.44244 0.32113 0.32724 0.0
H1186 H 0.49074 0.38121 0.34775 0.0
C1187 C 0.44861 0.32864 0.39059 0.0
C1188 C 0.47312 0.33658 0.39552 0.0
C1189 C 0.44418 0.33087 0.37584 0.0
C1190 C 0.47693 0.36439 0.34218 0.0
H1191 H 0.43644 0.32276 0.27086 0.0
H1192 H 0.42751 0.3271 0.29649 0.0
H1193 H 0.49135 0.38027 0.32126 0.0
H1194 H 0.5122 0.35376 0.38898 0.0
H1195 H 0.50456 0.35777 0.36358 0.0
H1196 H 0.42916 0.30467 0.34828 0.0
C1197 C 0.44627 0.33144 0.29341 0.0
C1198 C 0.47725 0.3639 0.32704 0.0
C1199 C 0.45139 0.32903 0.2788 0.0
C1200 C 0.49308 0.34739 0.38555 0.0
C1201 C 0.48873 0.34991 0.37098 0.0
C1202 C 0.4422 0.32157 0.34248 0.0
C1203 C 0.4654 0.33963 0.3039 0.0
C1204 C 0.46074 0.34193 0.31946 0.0
C1205 C 0.46426 0.34153 0.3659 0.0
C1206 C 0.46024 0.34285 0.35008 0.0
H1207 H 0.51324 0.34631 0.28236 0.0
H1208 H 0.50449 0.35103 0.30753 0.0
H1209 H 0.42958 0.30394 0.32162 0.0
H1210 H 0.43287 0.32017 0.39804 0.0
H1211 H 0.42512 0.32423 0.37219 0.0
C1212 C 0.6885 0.15355 0.38186 0.0
C1213 C 0.67535 0.13655 0.3931 0.0
C1214 C 0.68694 0.14514 0.36762 0.0
C1215 C 0.64243 0.09781 0.3436 0.0
H1216 H 0.69805 0.12743 0.31637 0.0
C1217 C 0.63455 0.12486 0.28542 0.0
C1218 C 0.64828 0.12174 0.27423 0.0
C1219 C 0.6365 0.1184 0.29969 0.0
C1220 C 0.68235 0.11852 0.32383 0.0
H1221 H 0.65098 0.09727 0.39841 0.0
H1222 H 0.64763 0.0825 0.37324 0.0
H1223 H 0.7064 0.13194 0.34249 0.0
H1224 H 0.67409 0.10855 0.26904 0.0
H1225 H 0.67813 0.09786 0.29428 0.0
H1226 H 0.61834 0.08581 0.32494 0.0
C1227 C 0.65939 0.10233 0.37557 0.0
C1228 C 0.68713 0.12125 0.33877 0.0
C1229 C 0.66137 0.11075 0.38993 0.0
C1230 C 0.66325 0.11104 0.27748 0.0
C1231 C 0.66562 0.10503 0.29188 0.0
C1232 C 0.63765 0.09532 0.32866 0.0
C1233 C 0.67186 0.11954 0.36425 0.0
C1234 C 0.66719 0.11173 0.34878 0.0
C1235 C 0.65255 0.10906 0.30315 0.0
C1236 C 0.65754 0.10647 0.31864 0.0
H1237 H 0.6995 0.17354 0.384 0.0
H1238 H 0.6965 0.15889 0.35913 0.0
H1239 H 0.62669 0.0904 0.35105 0.0
H1240 H 0.62279 0.13298 0.28321 0.0
H1241 H 0.62646 0.12203 0.30814 0.0
C1242 C 0.54622 0.88035 0.61171 0.0
C1243 C 0.53514 0.85462 0.6085 0.0
C1244 C 0.55286 0.88882 0.62605 0.0
C1245 C 0.56355 0.8706 0.66262 0.0
H1246 H 0.52693 0.90233 0.67706 0.0
C1247 C 0.54817 0.878 0.72414 0.0
C1248 C 0.52233 0.86556 0.72724 0.0
C1249 C 0.55663 0.88472 0.70979 0.0
C1250 C 0.53766 0.89391 0.67317 0.0
H1251 H 0.5239 0.81788 0.61746 0.0
H1252 H 0.53597 0.83264 0.64228 0.0
H1253 H 0.53113 0.89889 0.65087 0.0
H1254 H 0.48526 0.85182 0.71806 0.0
H1255 H 0.49997 0.86403 0.69324 0.0
H1256 H 0.56877 0.86429 0.68492 0.0
C1257 C 0.5394 0.84629 0.63384 0.0
C1258 C 0.54021 0.89208 0.65819 0.0
C1259 C 0.5323 0.8378 0.61964 0.0
C1260 C 0.50528 0.86128 0.71596 0.0
C1261 C 0.51372 0.86845 0.70176 0.0
C1262 C 0.56127 0.87271 0.6776 0.0
C1263 C 0.5491 0.87175 0.63729 0.0
C1264 C 0.55218 0.87939 0.65278 0.0
C1265 C 0.5394 0.87969 0.69845 0.0
C1266 C 0.54731 0.88336 0.683 0.0
H1267 H 0.54852 0.89367 0.6033 0.0
H1268 H 0.56028 0.90854 0.62844 0.0
H1269 H 0.573 0.86085 0.65872 0.0
H1270 H 0.56168 0.88143 0.73265 0.0
H1271 H 0.57653 0.89331 0.70749 0.0
C1272 C 0.15287 0.66095 0.61543 0.0
C1273 C 0.13533 0.65848 0.60482 0.0
C1274 C 0.14855 0.66305 0.63006 0.0
C1275 C 0.10352 0.64599 0.65812 0.0
H1276 H 0.15787 0.70272 0.67812 0.0
C1277 C 0.11405 0.65576 0.7216 0.0
C1278 C 0.1379 0.66047 0.72608 0.0
C1279 C 0.10927 0.65759 0.70685 0.0
C1280 C 0.14239 0.6869 0.6727 0.0
H1281 H 0.09909 0.65559 0.60133 0.0
H1282 H 0.09119 0.65863 0.62734 0.0
H1283 H 0.15707 0.70163 0.65163 0.0
H1284 H 0.17541 0.67096 0.71864 0.0
H1285 H 0.16718 0.67427 0.69326 0.0
H1286 H 0.08982 0.63048 0.67932 0.0
C1287 C 0.10842 0.65923 0.62408 0.0
C1288 C 0.1419 0.68634 0.65757 0.0
C1289 C 0.11296 0.65754 0.60927 0.0
C1290 C 0.15682 0.6672 0.7156 0.0
C1291 C 0.15217 0.66931 0.70103 0.0
C1292 C 0.10406 0.6465 0.67337 0.0
C1293 C 0.12645 0.66242 0.63453 0.0
C1294 C 0.12308 0.66544 0.65016 0.0
C1295 C 0.12843 0.66461 0.69646 0.0
C1296 C 0.12417 0.66646 0.68075 0.0
H1297 H 0.17031 0.66177 0.61243 0.0
H1298 H 0.16259 0.6652 0.63794 0.0
H1299 H 0.08889 0.62964 0.6526 0.0
H1300 H 0.09909 0.65047 0.72945 0.0
H1301 H 0.09076 0.65378 0.70358 0.0
C1302 C 0.30423 0.47564 0.61578 0.0
C1303 C 0.31589 0.46762 0.60572 0.0
C1304 C 0.30577 0.4722 0.63061 0.0
C1305 C 0.32388 0.44144 0.659 0.0
H1306 H 0.33939 0.50219 0.68002 0.0
C1307 C 0.32502 0.45099 0.72236 0.0
C1308 C 0.3418 0.4748 0.72807 0.0
C1309 C 0.32351 0.44704 0.70728 0.0
C1310 C 0.33543 0.48515 0.67435 0.0
H1311 H 0.337 0.44832 0.60315 0.0
H1312 H 0.34044 0.44293 0.62937 0.0
H1313 H 0.33214 0.50014 0.65416 0.0
H1314 H 0.3718 0.51227 0.72287 0.0
H1315 H 0.37008 0.50515 0.69682 0.0
H1316 H 0.32774 0.42678 0.67946 0.0
C1317 C 0.32979 0.45157 0.6257 0.0
C1318 C 0.33082 0.48382 0.6595 0.0
C1319 C 0.32789 0.45469 0.61072 0.0
C1320 C 0.35845 0.49385 0.71869 0.0
C1321 C 0.35732 0.48979 0.70376 0.0
C1322 C 0.32858 0.4428 0.67401 0.0
C1323 C 0.31947 0.46112 0.6358 0.0
C1324 C 0.32474 0.46193 0.65163 0.0
C1325 C 0.339 0.46678 0.69779 0.0
C1326 C 0.33447 0.46476 0.68183 0.0
H1327 H 0.29445 0.48524 0.6122 0.0
H1328 H 0.29695 0.47909 0.63806 0.0
H1329 H 0.31922 0.4243 0.65322 0.0
H1330 H 0.31196 0.43605 0.72943 0.0
H1331 H 0.3092 0.42909 0.70303 0.0
loop_
_geom_bond_atom_site_label_1
_geom_bond_atom_site_label_2
_geom_bond_distance
_geom_bond_site_symmetry_2
_ccdc_geom_bond_type
O0 Cd1 2.223 . S
O0 C8 1.315 . S
Cd1 O0 2.223 . S
Cd1 O4 2.297 . S
Cd1 O5 2.439 . S
Cd1 O11 2.240 . S
Cd2 O3 2.240 . S
Cd2 O10 2.223 . S
Cd2 O12 2.297 . S
Cd2 O13 2.439 . S
O3 Cd2 2.240 . S
O3 C8 1.279 . S
O4 Cd1 2.297 . S
O4 C6 1.247 . S
O5 Cd1 2.439 . S
O5 C6 1.208 . S
C6 O4 1.247 . S
C6 O5 1.208 . S
C7 O12 1.247 . S
C7 O13 1.208 . S
C8 O0 1.315 . S
C8 O3 1.279 . S
C9 O10 1.315 . S
C9 O11 1.279 . S
O10 Cd2 2.223 . S
O10 C9 1.315 . S
O11 Cd1 2.240 . S
O11 C9 1.279 . S
O12 Cd2 2.297 . S
O12 C7 1.247 . S
O13 Cd2 2.439 . S
O13 C7 1.208 . S
O14 Cd15 2.223 1_545 S
O14 C22 1.315 . S
Cd15 O14 2.223 1_565 S
Cd15 O18 2.297 1_565 S
Cd15 O19 2.439 1_565 S
Cd15 O25 2.240 . S
Cd16 O17 2.240 . S
Cd16 O24 2.223 1_545 S
Cd16 O26 2.297 1_545 S
Cd16 O27 2.439 1_545 S
O17 Cd16 2.240 . S
O17 C22 1.279 . S
O18 Cd15 2.297 1_545 S
O18 C20 1.247 . S
O19 Cd15 2.439 1_545 S
O19 C20 1.208 . S
C20 O18 1.247 . S
C20 O19 1.208 . S
C21 O26 1.247 . S
C21 O27 1.208 . S
C22 O14 1.315 . S
C22 O17 1.279 . S
C23 O24 1.315 . S
C23 O25 1.279 . S
O24 Cd16 2.223 1_565 S
O24 C23 1.315 . S
O25 Cd15 2.240 . S
O25 C23 1.279 . S
O26 Cd16 2.297 1_565 S
O26 C21 1.247 . S
O27 Cd16 2.439 1_565 S
O27 C21 1.208 . S
O28 Cd29 2.199 1_655 S
O28 C36 1.315 . S
Cd29 O28 2.199 1_455 S
Cd29 O32 2.290 1_455 S
Cd29 O33 2.436 1_455 S
Cd29 O39 2.247 . S
Cd30 O31 2.240 . S
Cd30 O38 2.223 1_655 S
Cd30 O40 2.297 1_655 S
Cd30 O41 2.439 . S
O31 Cd30 2.240 . S
O31 C36 1.279 . S
O32 Cd29 2.290 1_655 S
O32 C34 1.247 . S
O33 Cd29 2.436 1_655 S
O33 C34 1.208 . S
C34 O32 1.247 . S
C34 O33 1.208 . S
C35 O40 1.247 . S
C35 O41 1.208 1_455 S
C36 O28 1.315 . S
C36 O31 1.279 . S
C37 O38 1.315 . S
C37 O39 1.279 . S
O38 Cd30 2.223 1_455 S
O38 C37 1.315 . S
O39 Cd29 2.247 . S
O39 C37 1.279 . S
O40 Cd30 2.297 1_455 S
O40 C35 1.247 . S
O41 Cd30 2.439 . S
O41 C35 1.208 1_655 S
O42 Cd43 2.223 . S
O42 C50 1.315 . S
Cd43 O42 2.223 . S
Cd43 O46 2.297 . S
Cd43 O47 2.439 . S
Cd43 O53 2.240 . S
Cd44 O45 2.240 . S
Cd44 O52 2.223 . S
Cd44 O54 2.297 . S
Cd44 O55 2.439 . S
O45 Cd44 2.240 . S
O45 C50 1.279 . S
O46 Cd43 2.297 . S
O46 C48 1.247 . S
O47 Cd43 2.439 . S
O47 C48 1.208 . S
C48 O46 1.247 . S
C48 O47 1.208 . S
C49 O54 1.247 . S
C49 O55 1.208 . S
C50 O42 1.315 . S
C50 O45 1.279 . S
C51 O52 1.315 . S
C51 O53 1.279 . S
O52 Cd44 2.223 . S
O52 C51 1.315 . S
O53 Cd43 2.240 . S
O53 C51 1.279 . S
O54 Cd44 2.297 . S
O54 C49 1.247 . S
O55 Cd44 2.439 . S
O55 C49 1.208 . S
O56 Cd57 2.200 1_565 S
O56 C64 1.315 . S
Cd57 O56 2.200 1_545 S
Cd57 O60 2.291 1_545 S
Cd57 O61 2.436 1_545 S
Cd57 O67 2.247 . S
Cd58 O59 2.240 . S
Cd58 O66 2.223 1_565 S
Cd58 O68 2.297 1_565 S
Cd58 O69 2.439 . S
O59 Cd58 2.240 . S
O59 C64 1.279 . S
O60 Cd57 2.291 1_565 S
O60 C62 1.247 . S
O61 Cd57 2.436 1_565 S
O61 C62 1.208 . S
C62 O60 1.247 . S
C62 O61 1.208 . S
C63 O68 1.247 . S
C63 O69 1.208 1_545 S
C64 O56 1.315 . S
C64 O59 1.279 . S
C65 O66 1.315 . S
C65 O67 1.279 . S
O66 Cd58 2.223 1_545 S
O66 C65 1.315 . S
O67 Cd57 2.247 . S
O67 C65 1.279 . S
O68 Cd58 2.297 1_545 S
O68 C63 1.247 . S
O69 Cd58 2.439 . S
O69 C63 1.208 1_565 S
O70 Cd71 2.223 1_455 S
O70 C78 1.315 . S
Cd71 O70 2.223 1_655 S
Cd71 O74 2.297 1_655 S
Cd71 O75 2.439 1_655 S
Cd71 O81 2.240 . S
Cd72 O73 2.240 . S
Cd72 O80 2.223 1_455 S
Cd72 O82 2.297 1_455 S
Cd72 O83 2.439 1_455 S
O73 Cd72 2.240 . S
O73 C78 1.279 . S
O74 Cd71 2.297 1_455 S
O74 C76 1.247 . S
O75 Cd71 2.439 1_455 S
O75 C76 1.208 . S
C76 O74 1.247 . S
C76 O75 1.208 . S
C77 O82 1.247 . S
C77 O83 1.208 . S
C78 O70 1.315 . S
C78 O73 1.279 . S
C79 O80 1.315 . S
C79 O81 1.279 . S
O80 Cd72 2.223 1_655 S
O80 C79 1.315 . S
O81 Cd71 2.240 . S
O81 C79 1.279 . S
O82 Cd72 2.297 1_655 S
O82 C77 1.247 . S
O83 Cd72 2.439 1_655 S
O83 C77 1.208 . S
O84 Cd85 2.223 . S
O84 C92 1.315 . S
Cd85 O84 2.223 . S
Cd85 O88 2.297 . S
Cd85 O89 2.439 . S
Cd85 O95 2.240 . S
Cd86 O87 2.240 . S
Cd86 O94 2.223 . S
Cd86 O96 2.297 . S
Cd86 O97 2.439 . S
O87 Cd86 2.240 . S
O87 C92 1.279 . S
O88 Cd85 2.297 . S
O88 C90 1.247 . S
O89 Cd85 2.439 . S
O89 C90 1.208 . S
C90 O88 1.247 . S
C90 O89 1.208 . S
C91 O96 1.247 . S
C91 O97 1.208 . S
C92 O84 1.315 . S
C92 O87 1.279 . S
C93 O94 1.315 . S
C93 O95 1.279 . S
O94 Cd86 2.223 . S
O94 C93 1.315 . S
O95 Cd85 2.240 . S
O95 C93 1.279 . S
O96 Cd86 2.297 . S
O96 C91 1.247 . S
O97 Cd86 2.439 . S
O97 C91 1.208 . S
O98 Cd99 2.223 . S
O98 C106 1.315 . S
Cd99 O98 2.223 . S
Cd99 O102 2.297 . S
Cd99 O103 2.439 . S
Cd99 O109 2.240 . S
Cd100 O101 2.240 . S
Cd100 O108 2.223 . S
Cd100 O110 2.297 . S
Cd100 O111 2.439 . S
O101 Cd100 2.240 . S
O101 C106 1.279 . S
O102 Cd99 2.297 . S
O102 C104 1.247 . S
O103 Cd99 2.439 . S
O103 C104 1.208 . S
C104 O102 1.247 . S
C104 O103 1.208 . S
C105 O110 1.247 . S
C105 O111 1.208 . S
C106 O98 1.315 . S
C106 O101 1.279 . S
C107 O108 1.315 . S
C107 O109 1.279 . S
O108 Cd100 2.223 . S
O108 C107 1.315 . S
O109 Cd99 2.240 . S
O109 C107 1.279 . S
O110 Cd100 2.297 . S
O110 C105 1.247 . S
O111 Cd100 2.439 . S
O111 C105 1.208 . S
O112 Cd113 2.223 . S
O112 C120 1.315 . S
Cd113 O112 2.223 . S
Cd113 O116 2.297 . S
Cd113 O117 2.439 . S
Cd113 O123 2.240 . S
Cd114 O115 2.240 . S
Cd114 O122 2.223 . S
Cd114 O124 2.297 . S
Cd114 O125 2.439 . S
O115 Cd114 2.240 . S
O115 C120 1.279 . S
O116 Cd113 2.297 . S
O116 C118 1.247 . S
O117 Cd113 2.439 . S
O117 C118 1.208 . S
C118 O116 1.247 . S
C118 O117 1.208 . S
C119 O124 1.247 . S
C119 O125 1.208 . S
C120 O112 1.315 . S
C120 O115 1.279 . S
C121 O122 1.315 . S
C121 O123 1.279 . S
O122 Cd114 2.223 . S
O122 C121 1.315 . S
O123 Cd113 2.240 . S
O123 C121 1.279 . S
O124 Cd114 2.297 . S
O124 C119 1.247 . S
O125 Cd114 2.439 . S
O125 C119 1.208 . S
O126 Cd127 2.223 . S
O126 C134 1.315 . S
Cd127 O126 2.223 . S
Cd127 O130 2.297 . S
Cd127 O131 2.439 . S
Cd127 O137 2.240 . S
Cd128 O129 2.240 . S
Cd128 O136 2.223 . S
Cd128 O138 2.297 . S
Cd128 O139 2.439 . S
O129 Cd128 2.240 . S
O129 C134 1.279 . S
O130 Cd127 2.297 . S
O130 C132 1.247 . S
O131 Cd127 2.439 . S
O131 C132 1.208 . S
C132 O130 1.247 . S
C132 O131 1.208 . S
C133 O138 1.247 . S
C133 O139 1.208 . S
C134 O126 1.315 . S
C134 O129 1.279 . S
C135 O136 1.315 . S
C135 O137 1.279 . S
O136 Cd128 2.223 . S
O136 C135 1.315 . S
O137 Cd127 2.240 . S
O137 C135 1.279 . S
O138 Cd128 2.297 . S
O138 C133 1.247 . S
O139 Cd128 2.439 . S
O139 C133 1.208 . S
O140 Cd141 2.223 . S
O140 C148 1.315 . S
Cd141 O140 2.223 . S
Cd141 O144 2.297 . S
Cd141 O145 2.439 . S
Cd141 O151 2.240 . S
Cd142 O143 2.240 . S
Cd142 O150 2.223 . S
Cd142 O152 2.297 . S
Cd142 O153 2.439 . S
O143 Cd142 2.240 . S
O143 C148 1.279 . S
O144 Cd141 2.297 . S
O144 C146 1.247 . S
O145 Cd141 2.439 . S
O145 C146 1.208 . S
C146 O144 1.247 . S
C146 O145 1.208 . S
C147 O152 1.247 . S
C147 O153 1.208 . S
C148 O140 1.315 . S
C148 O143 1.279 . S
C149 O150 1.315 . S
C149 O151 1.279 . S
O150 Cd142 2.223 . S
O150 C149 1.315 . S
O151 Cd141 2.240 . S
O151 C149 1.279 . S
O152 Cd142 2.297 . S
O152 C147 1.247 . S
O153 Cd142 2.439 . S
O153 C147 1.208 . S
O154 Cd155 2.223 . S
O154 C162 1.315 . S
Cd155 O154 2.223 . S
Cd155 O158 2.297 . S
Cd155 O159 2.439 . S
Cd155 O165 2.240 . S
Cd156 O157 2.240 . S
Cd156 O164 2.223 . S
Cd156 O166 2.297 . S
Cd156 O167 2.439 . S
O157 Cd156 2.240 . S
O157 C162 1.279 . S
O158 Cd155 2.297 . S
O158 C160 1.247 . S
O159 Cd155 2.439 . S
O159 C160 1.208 . S
C160 O158 1.247 . S
C160 O159 1.208 . S
C161 O166 1.247 . S
C161 O167 1.208 . S
C162 O154 1.315 . S
C162 O157 1.279 . S
C163 O164 1.315 . S
C163 O165 1.279 . S
O164 Cd156 2.223 . S
O164 C163 1.315 . S
O165 Cd155 2.240 . S
O165 C163 1.279 . S
O166 Cd156 2.297 . S
O166 C161 1.247 . S
O167 Cd156 2.439 . S
O167 C161 1.208 . S
O168 Cd169 2.223 . S
O168 C176 1.315 . S
Cd169 O168 2.223 . S
Cd169 O172 2.297 . S
Cd169 O173 2.439 . S
Cd169 O179 2.240 . S
Cd170 O171 2.240 . S
Cd170 O178 2.223 . S
Cd170 O180 2.297 . S
Cd170 O181 2.439 . S
O171 Cd170 2.240 . S
O171 C176 1.279 . S
O172 Cd169 2.297 . S
O172 C174 1.247 . S
O173 Cd169 2.439 . S
O173 C174 1.208 . S
C174 O172 1.247 . S
C174 O173 1.208 . S
C175 O180 1.247 . S
C175 O181 1.208 . S
C176 O168 1.315 . S
C176 O171 1.279 . S
C177 O178 1.315 . S
C177 O179 1.279 . S
O178 Cd170 2.223 . S
O178 C177 1.315 . S
O179 Cd169 2.240 . S
O179 C177 1.279 . S
O180 Cd170 2.297 . S
O180 C175 1.247 . S
O181 Cd170 2.439 . S
O181 C175 1.208 . S
O182 Cd183 2.223 . S
O182 C190 1.315 . S
Cd183 O182 2.223 . S
Cd183 O186 2.297 . S
Cd183 O187 2.439 . S
Cd183 O193 2.240 . S
Cd184 O185 2.240 . S
Cd184 O192 2.223 . S
Cd184 O194 2.297 . S
Cd184 O195 2.439 . S
O185 Cd184 2.240 . S
O185 C190 1.279 . S
O186 Cd183 2.297 . S
O186 C188 1.247 . S
O187 Cd183 2.439 . S
O187 C188 1.208 . S
C188 O186 1.247 . S
C188 O187 1.208 . S
C189 O194 1.247 . S
C189 O195 1.208 . S
C190 O182 1.315 . S
C190 O185 1.279 . S
C191 O192 1.315 . S
C191 O193 1.279 . S
O192 Cd184 2.223 . S
O192 C191 1.315 . S
O193 Cd183 2.240 . S
O193 C191 1.279 . S
O194 Cd184 2.297 . S
O194 C189 1.247 . S
O195 Cd184 2.439 . S
O195 C189 1.208 . S
O196 Cd197 2.223 . S
O196 C204 1.315 . S
Cd197 O196 2.223 . S
Cd197 O200 2.297 . S
Cd197 O201 2.439 . S
Cd197 O207 2.240 . S
Cd198 O199 2.240 . S
Cd198 O206 2.223 . S
Cd198 O208 2.297 . S
Cd198 O209 2.439 . S
O199 Cd198 2.240 . S
O199 C204 1.279 . S
O200 Cd197 2.297 . S
O200 C202 1.247 . S
O201 Cd197 2.439 . S
O201 C202 1.208 . S
C202 O200 1.247 . S
C202 O201 1.208 . S
C203 O208 1.247 . S
C203 O209 1.208 . S
C204 O196 1.315 . S
C204 O199 1.279 . S
C205 O206 1.315 . S
C205 O207 1.279 . S
O206 Cd198 2.223 . S
O206 C205 1.315 . S
O207 Cd197 2.240 . S
O207 C205 1.279 . S
O208 Cd198 2.297 . S
O208 C203 1.247 . S
O209 Cd198 2.439 . S
O209 C203 1.208 . S
O210 Cd211 2.223 . S
O210 C218 1.315 . S
Cd211 O210 2.223 . S
Cd211 O214 2.297 . S
Cd211 O215 2.439 . S
Cd211 O221 2.240 . S
Cd212 O213 2.240 . S
Cd212 O220 2.223 . S
Cd212 O222 2.297 . S
Cd212 O223 2.439 . S
O213 Cd212 2.240 . S
O213 C218 1.279 . S
O214 Cd211 2.297 . S
O214 C216 1.247 . S
O215 Cd211 2.439 . S
O215 C216 1.208 . S
C216 O214 1.247 . S
C216 O215 1.208 . S
C217 O222 1.247 . S
C217 O223 1.208 . S
C218 O210 1.315 . S
C218 O213 1.279 . S
C219 O220 1.315 . S
C219 O221 1.279 . S
O220 Cd212 2.223 . S
O220 C219 1.315 . S
O221 Cd211 2.240 . S
O221 C219 1.279 . S
O222 Cd212 2.297 . S
O222 C217 1.247 . S
O223 Cd212 2.439 . S
O223 C217 1.208 . S
O224 Cd225 2.223 . S
O224 C232 1.315 . S
Cd225 O224 2.223 . S
Cd225 O228 2.297 . S
Cd225 O229 2.439 . S
Cd225 O235 2.240 . S
Cd226 O227 2.240 . S
Cd226 O234 2.223 . S
Cd226 O236 2.297 . S
Cd226 O237 2.439 . S
O227 Cd226 2.240 . S
O227 C232 1.279 . S
O228 Cd225 2.297 . S
O228 C230 1.247 . S
O229 Cd225 2.439 . S
O229 C230 1.208 . S
C230 O228 1.247 . S
C230 O229 1.208 . S
C231 O236 1.247 . S
C231 O237 1.208 . S
C232 O224 1.315 . S
C232 O227 1.279 . S
C233 O234 1.315 . S
C233 O235 1.279 . S
O234 Cd226 2.223 . S
O234 C233 1.315 . S
O235 Cd225 2.240 . S
O235 C233 1.279 . S
O236 Cd226 2.297 . S
O236 C231 1.247 . S
O237 Cd226 2.439 . S
O237 C231 1.208 . S
O238 Cd239 2.223 . S
O238 C246 1.315 . S
Cd239 O238 2.223 . S
Cd239 O242 2.297 . S
Cd239 O243 2.439 . S
Cd239 O249 2.240 . S
Cd240 O241 2.240 . S
Cd240 O248 2.223 . S
Cd240 O250 2.297 . S
Cd240 O251 2.439 . S
O241 Cd240 2.240 . S
O241 C246 1.279 . S
O242 Cd239 2.297 . S
O242 C244 1.247 . S
O243 Cd239 2.439 . S
O243 C244 1.208 . S
C244 O242 1.247 . S
C244 O243 1.208 . S
C245 O250 1.247 . S
C245 O251 1.208 . S
C246 O238 1.315 . S
C246 O241 1.279 . S
C247 O248 1.315 . S
C247 O249 1.279 . S
O248 Cd240 2.223 . S
O248 C247 1.315 . S
O249 Cd239 2.240 . S
O249 C247 1.279 . S
O250 Cd240 2.297 . S
O250 C245 1.247 . S
O251 Cd240 2.439 . S
O251 C245 1.208 . S
C252 C253 1.349 . S
C252 C254 1.327 . S
C252 H277 0.950 . S
C253 C252 1.349 . S
C253 C269 1.349 . S
C254 C252 1.327 . S
C254 C273 1.429 . S
C254 H278 0.950 . S
C255 C272 1.574 . S
C255 C274 1.368 . S
C255 H279 0.949 . S
H256 C260 0.949 . S
C257 C258 1.349 . S
C257 C259 1.327 . S
C257 H280 0.950 . S
C258 C257 1.349 . S
C258 C270 1.349 . S
C259 C257 1.327 . S
C259 C275 1.429 . S
C259 H281 0.950 . S
C260 H256 0.949 . S
C260 C268 1.574 . S
C260 C276 1.368 . S
H261 C269 0.950 . S
H262 C267 0.950 . S
H263 C268 0.949 . S
H264 C270 0.950 . S
H265 C271 0.950 . S
H266 C272 0.949 . S
C267 H262 0.950 . S
C267 C269 1.327 . S
C267 C273 1.429 . S
C268 C260 1.574 . S
C268 H263 0.949 . S
C268 C274 1.368 . S
C269 C253 1.349 . S
C269 H261 0.950 . S
C269 C267 1.327 . S
C270 C258 1.349 . S
C270 H264 0.950 . S
C270 C271 1.327 . S
C271 H265 0.950 . S
C271 C270 1.327 . S
C271 C275 1.429 . S
C272 C255 1.574 . S
C272 H266 0.949 . S
C272 C276 1.368 . S
C273 C254 1.429 . S
C273 C267 1.429 . S
C273 C274 1.523 . S
C274 C255 1.368 . S
C274 C268 1.368 . S
C274 C273 1.523 . S
C275 C259 1.429 . S
C275 C271 1.429 . S
C275 C276 1.523 . S
C276 C260 1.368 . S
C276 C272 1.368 . S
C276 C275 1.523 . S
H277 C252 0.950 . S
H278 C254 0.950 . S
H279 C255 0.949 . S
H280 C257 0.950 . S
H281 C259 0.950 . S
C282 C283 1.349 . S
C282 C284 1.327 . S
C282 H307 0.950 . S
C283 C282 1.349 . S
C283 C299 1.349 . S
C284 C282 1.327 . S
C284 C303 1.429 . S
C284 H308 0.950 . S
C285 C302 1.574 . S
C285 C304 1.368 . S
C285 H309 0.949 . S
H286 C290 0.949 . S
C287 C288 1.349 . S
C287 C289 1.327 . S
C287 H310 0.950 . S
C288 C287 1.349 . S
C288 C300 1.349 . S
C289 C287 1.327 . S
C289 C305 1.429 . S
C289 H311 0.950 . S
C290 H286 0.949 . S
C290 C298 1.574 . S
C290 C306 1.368 . S
H291 C299 0.950 . S
H292 C297 0.950 . S
H293 C298 0.949 . S
H294 C300 0.950 . S
H295 C301 0.950 . S
H296 C302 0.949 . S
C297 H292 0.950 . S
C297 C299 1.327 . S
C297 C303 1.429 . S
C298 C290 1.574 . S
C298 H293 0.949 . S
C298 C304 1.368 . S
C299 C283 1.349 . S
C299 H291 0.950 . S
C299 C297 1.327 . S
C300 C288 1.349 . S
C300 H294 0.950 . S
C300 C301 1.327 . S
C301 H295 0.950 . S
C301 C300 1.327 . S
C301 C305 1.429 . S
C302 C285 1.574 . S
C302 H296 0.949 . S
C302 C306 1.368 . S
C303 C284 1.429 . S
C303 C297 1.429 . S
C303 C304 1.523 . S
C304 C285 1.368 . S
C304 C298 1.368 . S
C304 C303 1.523 . S
C305 C289 1.429 . S
C305 C301 1.429 . S
C305 C306 1.523 . S
C306 C290 1.368 . S
C306 C302 1.368 . S
C306 C305 1.523 . S
H307 C282 0.950 . S
H308 C284 0.950 . S
H309 C285 0.949 . S
H310 C287 0.950 . S
H311 C289 0.950 . S
C312 C313 1.349 . S
C312 C314 1.327 . S
C312 H337 0.950 . S
C313 C312 1.349 . S
C313 C329 1.349 . S
C314 C312 1.327 . S
C314 C333 1.429 . S
C314 H338 0.950 . S
C315 C332 1.574 . S
C315 C334 1.368 . S
C315 H339 0.949 . S
H316 C320 0.949 . S
C317 C318 1.349 . S
C317 C319 1.327 . S
C317 H340 0.950 . S
C318 C317 1.349 . S
C318 C330 1.349 . S
C319 C317 1.327 . S
C319 C335 1.429 . S
C319 H341 0.950 . S
C320 H316 0.949 . S
C320 C328 1.574 . S
C320 C336 1.368 . S
H321 C329 0.950 . S
H322 C327 0.950 . S
H323 C328 0.949 . S
H324 C330 0.950 . S
H325 C331 0.950 . S
H326 C332 0.949 . S
C327 H322 0.950 . S
C327 C329 1.327 . S
C327 C333 1.429 . S
C328 C320 1.574 . S
C328 H323 0.949 . S
C328 C334 1.368 . S
C329 C313 1.349 . S
C329 H321 0.950 . S
C329 C327 1.327 . S
C330 C318 1.349 . S
C330 H324 0.950 . S
C330 C331 1.327 . S
C331 H325 0.950 . S
C331 C330 1.327 . S
C331 C335 1.429 . S
C332 C315 1.574 . S
C332 H326 0.949 . S
C332 C336 1.368 . S
C333 C314 1.429 . S
C333 C327 1.429 . S
C333 C334 1.523 . S
C334 C315 1.368 . S
C334 C328 1.368 . S
C334 C333 1.523 . S
C335 C319 1.429 . S
C335 C331 1.429 . S
C335 C336 1.523 . S
C336 C320 1.368 . S
C336 C332 1.368 . S
C336 C335 1.523 . S
H337 C312 0.950 . S
H338 C314 0.950 . S
H339 C315 0.949 . S
H340 C317 0.950 . S
H341 C319 0.950 . S
C342 C343 1.349 . S
C342 C344 1.327 . S
C342 H367 0.950 . S
C343 C342 1.349 . S
C343 C359 1.349 . S
C344 C342 1.327 . S
C344 C363 1.429 . S
C344 H368 0.950 . S
C345 C362 1.574 . S
C345 C364 1.368 . S
C345 H369 0.949 . S
H346 C350 0.949 . S
C347 C348 1.349 . S
C347 C349 1.327 . S
C347 H370 0.950 . S
C348 C347 1.349 . S
C348 C360 1.349 . S
C349 C347 1.327 . S
C349 C365 1.429 . S
C349 H371 0.950 . S
C350 H346 0.949 . S
C350 C358 1.574 . S
C350 C366 1.368 . S
H351 C359 0.950 . S
H352 C357 0.950 . S
H353 C358 0.949 . S
H354 C360 0.950 . S
H355 C361 0.950 . S
H356 C362 0.949 . S
C357 H352 0.950 . S
C357 C359 1.327 . S
C357 C363 1.429 . S
C358 C350 1.574 . S
C358 H353 0.949 . S
C358 C364 1.368 . S
C359 C343 1.349 . S
C359 H351 0.950 . S
C359 C357 1.327 . S
C360 C348 1.349 . S
C360 H354 0.950 . S
C360 C361 1.327 . S
C361 H355 0.950 . S
C361 C360 1.327 . S
C361 C365 1.429 . S
C362 C345 1.574 . S
C362 H356 0.949 . S
C362 C366 1.368 . S
C363 C344 1.429 . S
C363 C357 1.429 . S
C363 C364 1.523 . S
C364 C345 1.368 . S
C364 C358 1.368 . S
C364 C363 1.523 . S
C365 C349 1.429 . S
C365 C361 1.429 . S
C365 C366 1.523 . S
C366 C350 1.368 . S
C366 C362 1.368 . S
C366 C365 1.523 . S
H367 C342 0.950 . S
H368 C344 0.950 . S
H369 C345 0.949 . S
H370 C347 0.950 . S
H371 C349 0.950 . S
C372 C373 1.349 . S
C372 C374 1.327 . S
C372 H397 0.950 . S
C373 C372 1.349 . S
C373 C389 1.349 . S
C374 C372 1.327 . S
C374 C393 1.429 . S
C374 H398 0.950 . S
C375 C392 1.574 . S
C375 C394 1.368 . S
C375 H399 0.949 . S
H376 C380 0.949 . S
C377 C378 1.349 . S
C377 C379 1.327 . S
C377 H400 0.950 . S
C378 C377 1.349 . S
C378 C390 1.349 . S
C379 C377 1.327 . S
C379 C395 1.429 . S
C379 H401 0.950 . S
C380 H376 0.949 . S
C380 C388 1.574 . S
C380 C396 1.368 . S
H381 C389 0.950 . S
H382 C387 0.950 . S
H383 C388 0.949 . S
H384 C390 0.950 . S
H385 C391 0.950 . S
H386 C392 0.949 . S
C387 H382 0.950 . S
C387 C389 1.327 . S
C387 C393 1.429 . S
C388 C380 1.574 . S
C388 H383 0.949 . S
C388 C394 1.368 . S
C389 C373 1.349 . S
C389 H381 0.950 . S
C389 C387 1.327 . S
C390 C378 1.349 . S
C390 H384 0.950 . S
C390 C391 1.327 . S
C391 H385 0.950 . S
C391 C390 1.327 . S
C391 C395 1.429 . S
C392 C375 1.574 . S
C392 H386 0.949 . S
C392 C396 1.368 . S
C393 C374 1.429 . S
C393 C387 1.429 . S
C393 C394 1.523 . S
C394 C375 1.368 . S
C394 C388 1.368 . S
C394 C393 1.523 . S
C395 C379 1.429 . S
C395 C391 1.429 . S
C395 C396 1.523 . S
C396 C380 1.368 . S
C396 C392 1.368 . S
C396 C395 1.523 . S
H397 C372 0.950 . S
H398 C374 0.950 . S
H399 C375 0.949 . S
H400 C377 0.950 . S
H401 C379 0.950 . S
C402 C403 1.349 . S
C402 C404 1.327 . S
C402 H427 0.950 . S
C403 C402 1.349 . S
C403 C419 1.349 . S
C404 C402 1.327 . S
C404 C423 1.429 . S
C404 H428 0.950 . S
C405 C422 1.574 . S
C405 C424 1.368 . S
C405 H429 0.949 . S
H406 C410 0.949 . S
C407 C408 1.349 . S
C407 C409 1.327 . S
C407 H430 0.950 . S
C408 C407 1.349 . S
C408 C420 1.349 . S
C409 C407 1.327 . S
C409 C425 1.429 . S
C409 H431 0.950 . S
C410 H406 0.949 . S
C410 C418 1.574 . S
C410 C426 1.368 . S
H411 C419 0.950 . S
H412 C417 0.950 . S
H413 C418 0.949 . S
H414 C420 0.950 . S
H415 C421 0.950 . S
H416 C422 0.949 . S
C417 H412 0.950 . S
C417 C419 1.327 . S
C417 C423 1.429 . S
C418 C410 1.574 . S
C418 H413 0.949 . S
C418 C424 1.368 . S
C419 C403 1.349 . S
C419 H411 0.950 . S
C419 C417 1.327 . S
C420 C408 1.349 . S
C420 H414 0.950 . S
C420 C421 1.327 . S
C421 H415 0.950 . S
C421 C420 1.327 . S
C421 C425 1.429 . S
C422 C405 1.574 . S
C422 H416 0.949 . S
C422 C426 1.368 . S
C423 C404 1.429 . S
C423 C417 1.429 . S
C423 C424 1.523 . S
C424 C405 1.368 . S
C424 C418 1.368 . S
C424 C423 1.523 . S
C425 C409 1.429 . S
C425 C421 1.429 . S
C425 C426 1.523 . S
C426 C410 1.368 . S
C426 C422 1.368 . S
C426 C425 1.523 . S
H427 C402 0.950 . S
H428 C404 0.950 . S
H429 C405 0.949 . S
H430 C407 0.950 . S
H431 C409 0.950 . S
C432 C433 1.349 . S
C432 C434 1.327 . S
C432 H457 0.950 . S
C433 C432 1.349 . S
C433 C449 1.349 . S
C434 C432 1.327 . S
C434 C453 1.429 . S
C434 H458 0.950 . S
C435 C452 1.612 . S
C435 C454 1.368 . S
C435 H459 0.949 . S
H436 C440 0.949 . S
C437 C438 1.349 . S
C437 C439 1.327 . S
C437 H460 0.950 . S
C438 C437 1.349 . S
C438 C450 1.349 . S
C439 C437 1.327 . S
C439 C455 1.429 . S
C439 H461 0.950 . S
C440 H436 0.949 . S
C440 C448 1.574 1_455 S
C440 C456 1.368 . S
H441 C449 0.950 . S
H442 C447 0.950 . S
H443 C448 0.949 . S
H444 C450 0.950 . S
H445 C451 0.950 . S
H446 C452 0.937 1_455 S
C447 H442 0.950 . S
C447 C449 1.327 . S
C447 C453 1.429 . S
C448 C440 1.574 1_655 S
C448 H443 0.949 . S
C448 C454 1.368 . S
C449 C433 1.349 . S
C449 H441 0.950 . S
C449 C447 1.327 . S
C450 C438 1.349 . S
C450 H444 0.950 . S
C450 C451 1.327 . S
C451 H445 0.950 . S
C451 C450 1.327 . S
C451 C455 1.429 . S
C452 C435 1.612 . S
C452 H446 0.937 1_655 S
C452 C456 1.346 1_655 S
C453 C434 1.429 . S
C453 C447 1.429 . S
C453 C454 1.523 . S
C454 C435 1.368 . S
C454 C448 1.368 . S
C454 C453 1.523 . S
C455 C439 1.429 . S
C455 C451 1.429 . S
C455 C456 1.523 . S
C456 C440 1.368 . S
C456 C452 1.346 1_455 S
C456 C455 1.523 . S
H457 C432 0.950 . S
H458 C434 0.950 . S
H459 C435 0.949 . S
H460 C437 0.950 . S
H461 C439 0.950 . S
C462 C463 1.349 . S
C462 C464 1.327 . S
C462 H487 0.950 . S
C463 C462 1.349 . S
C463 C479 1.349 . S
C464 C462 1.327 . S
C464 C483 1.429 . S
C464 H488 0.950 . S
C465 C482 1.574 . S
C465 C484 1.368 . S
C465 H489 0.949 . S
H466 C470 0.949 . S
C467 C468 1.349 . S
C467 C469 1.327 . S
C467 H490 0.950 . S
C468 C467 1.349 . S
C468 C480 1.349 . S
C469 C467 1.327 . S
C469 C485 1.429 . S
C469 H491 0.950 . S
C470 H466 0.949 . S
C470 C478 1.574 . S
C470 C486 1.368 . S
H471 C479 0.950 . S
H472 C477 0.950 . S
H473 C478 0.949 . S
H474 C480 0.950 . S
H475 C481 0.950 . S
H476 C482 0.949 . S
C477 H472 0.950 . S
C477 C479 1.327 . S
C477 C483 1.429 . S
C478 C470 1.574 . S
C478 H473 0.949 . S
C478 C484 1.368 . S
C479 C463 1.349 . S
C479 H471 0.950 . S
C479 C477 1.327 . S
C480 C468 1.349 . S
C480 H474 0.950 . S
C480 C481 1.327 . S
C481 H475 0.950 . S
C481 C480 1.327 . S
C481 C485 1.429 . S
C482 C465 1.574 . S
C482 H476 0.949 . S
C482 C486 1.368 . S
C483 C464 1.429 . S
C483 C477 1.429 . S
C483 C484 1.523 . S
C484 C465 1.368 . S
C484 C478 1.368 . S
C484 C483 1.523 . S
C485 C469 1.429 . S
C485 C481 1.429 . S
C485 C486 1.523 . S
C486 C470 1.368 . S
C486 C482 1.368 . S
C486 C485 1.523 . S
H487 C462 0.950 . S
H488 C464 0.950 . S
H489 C465 0.949 . S
H490 C467 0.950 . S
H491 C469 0.950 . S
C492 C493 1.349 . S
C492 C494 1.327 . S
C492 H517 0.950 . S
C493 C492 1.349 . S
C493 C509 1.349 . S
C494 C492 1.327 . S
C494 C513 1.429 . S
C494 H518 0.950 . S
C495 C512 1.574 1_545 S
C495 C514 1.368 . S
C495 H519 0.949 . S
H496 C500 0.949 . S
C497 C498 1.349 . S
C497 C499 1.327 . S
C497 H520 0.950 . S
C498 C497 1.349 . S
C498 C510 1.349 . S
C499 C497 1.327 . S
C499 C515 1.429 . S
C499 H521 0.950 . S
C500 H496 0.949 . S
C500 C508 1.607 . S
C500 C516 1.368 . S
H501 C509 0.950 . S
H502 C507 0.950 . S
H503 C508 0.951 1_545 S
H504 C510 0.950 . S
H505 C511 0.950 . S
H506 C512 0.949 . S
C507 H502 0.950 . S
C507 C509 1.327 . S
C507 C513 1.429 . S
C508 C500 1.607 . S
C508 H503 0.951 1_565 S
C508 C514 1.335 1_565 S
C509 C493 1.349 . S
C509 H501 0.950 . S
C509 C507 1.327 . S
C510 C498 1.349 . S
C510 H504 0.950 . S
C510 C511 1.327 . S
C511 H505 0.950 . S
C511 C510 1.327 . S
C511 C515 1.429 . S
C512 C495 1.574 1_565 S
C512 H506 0.949 . S
C512 C516 1.368 . S
C513 C494 1.429 . S
C513 C507 1.429 . S
C513 C514 1.523 . S
C514 C495 1.368 . S
C514 C508 1.335 1_545 S
C514 C513 1.523 . S
C515 C499 1.429 . S
C515 C511 1.429 . S
C515 C516 1.523 . S
C516 C500 1.368 . S
C516 C512 1.368 . S
C516 C515 1.523 . S
H517 C492 0.950 . S
H518 C494 0.950 . S
H519 C495 0.949 . S
H520 C497 0.950 . S
H521 C499 0.950 . S
C522 C523 1.349 . S
C522 C524 1.327 . S
C522 H547 0.950 . S
C523 C522 1.349 . S
C523 C539 1.349 . S
C524 C522 1.327 . S
C524 C543 1.429 . S
C524 H548 0.950 . S
C525 C542 1.574 1_455 S
C525 C544 1.368 . S
C525 H549 0.949 . S
H526 C530 0.949 . S
C527 C528 1.349 . S
C527 C529 1.327 . S
C527 H550 0.950 . S
C528 C527 1.349 . S
C528 C540 1.349 . S
C529 C527 1.327 . S
C529 C545 1.429 . S
C529 H551 0.950 . S
C530 H526 0.949 . S
C530 C538 1.574 1_655 S
C530 C546 1.368 . S
H531 C539 0.950 . S
H532 C537 0.950 . S
H533 C538 0.949 . S
H534 C540 0.950 . S
H535 C541 0.950 . S
H536 C542 0.949 . S
C537 H532 0.950 . S
C537 C539 1.327 . S
C537 C543 1.429 . S
C538 C530 1.574 1_455 S
C538 H533 0.949 . S
C538 C544 1.368 . S
C539 C523 1.349 . S
C539 H531 0.950 . S
C539 C537 1.327 . S
C540 C528 1.349 . S
C540 H534 0.950 . S
C540 C541 1.327 . S
C541 H535 0.950 . S
C541 C540 1.327 . S
C541 C545 1.429 . S
C542 C525 1.574 1_655 S
C542 H536 0.949 . S
C542 C546 1.368 . S
C543 C524 1.429 . S
C543 C537 1.429 . S
C543 C544 1.523 . S
C544 C525 1.368 . S
C544 C538 1.368 . S
C544 C543 1.523 . S
C545 C529 1.429 . S
C545 C541 1.429 . S
C545 C546 1.523 . S
C546 C530 1.368 . S
C546 C542 1.368 . S
C546 C545 1.523 . S
H547 C522 0.950 . S
H548 C524 0.950 . S
H549 C525 0.949 . S
H550 C527 0.950 . S
H551 C529 0.950 . S
C552 C553 1.349 . S
C552 C554 1.327 . S
C552 H577 0.950 . S
C553 C552 1.349 . S
C553 C569 1.349 . S
C554 C552 1.327 . S
C554 C573 1.429 . S
C554 H578 0.950 . S
C555 C572 1.574 . S
C555 C574 1.368 . S
C555 H579 0.949 . S
H556 C560 0.949 . S
C557 C558 1.349 . S
C557 C559 1.327 . S
C557 H580 0.950 . S
C558 C557 1.349 . S
C558 C570 1.349 . S
C559 C557 1.327 . S
C559 C575 1.429 . S
C559 H581 0.950 . S
C560 H556 0.949 . S
C560 C568 1.574 . S
C560 C576 1.368 . S
H561 C569 0.950 . S
H562 C567 0.950 . S
H563 C568 0.949 . S
H564 C570 0.950 . S
H565 C571 0.950 . S
H566 C572 0.949 . S
C567 H562 0.950 . S
C567 C569 1.327 . S
C567 C573 1.429 . S
C568 C560 1.574 . S
C568 H563 0.949 . S
C568 C574 1.368 . S
C569 C553 1.349 . S
C569 H561 0.950 . S
C569 C567 1.327 . S
C570 C558 1.349 . S
C570 H564 0.950 . S
C570 C571 1.327 . S
C571 H565 0.950 . S
C571 C570 1.327 . S
C571 C575 1.429 . S
C572 C555 1.574 . S
C572 H566 0.949 . S
C572 C576 1.368 . S
C573 C554 1.429 . S
C573 C567 1.429 . S
C573 C574 1.523 . S
C574 C555 1.368 . S
C574 C568 1.368 . S
C574 C573 1.523 . S
C575 C559 1.429 . S
C575 C571 1.429 . S
C575 C576 1.523 . S
C576 C560 1.368 . S
C576 C572 1.368 . S
C576 C575 1.523 . S
H577 C552 0.950 . S
H578 C554 0.950 . S
H579 C555 0.949 . S
H580 C557 0.950 . S
H581 C559 0.950 . S
C582 C583 1.349 . S
C582 C584 1.327 . S
C582 H607 0.950 . S
C583 C582 1.349 . S
C583 C599 1.349 . S
C584 C582 1.327 . S
C584 C603 1.429 . S
C584 H608 0.950 . S
C585 C602 1.574 1_545 S
C585 C604 1.368 . S
C585 H609 0.949 . S
H586 C590 0.949 . S
C587 C588 1.349 . S
C587 C589 1.327 . S
C587 H610 0.950 . S
C588 C587 1.349 . S
C588 C600 1.349 . S
C589 C587 1.327 . S
C589 C605 1.429 . S
C589 H611 0.950 . S
C590 H586 0.949 . S
C590 C598 1.574 1_565 S
C590 C606 1.368 . S
H591 C599 0.950 . S
H592 C597 0.950 . S
H593 C598 0.949 . S
H594 C600 0.950 . S
H595 C601 0.950 . S
H596 C602 0.949 . S
C597 H592 0.950 . S
C597 C599 1.327 . S
C597 C603 1.429 . S
C598 C590 1.574 1_545 S
C598 H593 0.949 . S
C598 C604 1.368 . S
C599 C583 1.349 . S
C599 H591 0.950 . S
C599 C597 1.327 . S
C600 C588 1.349 . S
C600 H594 0.950 . S
C600 C601 1.327 . S
C601 H595 0.950 . S
C601 C600 1.327 . S
C601 C605 1.429 . S
C602 C585 1.574 1_565 S
C602 H596 0.949 . S
C602 C606 1.368 . S
C603 C584 1.429 . S
C603 C597 1.429 . S
C603 C604 1.523 . S
C604 C585 1.368 . S
C604 C598 1.368 . S
C604 C603 1.523 . S
C605 C589 1.429 . S
C605 C601 1.429 . S
C605 C606 1.523 . S
C606 C590 1.368 . S
C606 C602 1.368 . S
C606 C605 1.523 . S
H607 C582 0.950 . S
H608 C584 0.950 . S
H609 C585 0.949 . S
H610 C587 0.950 . S
H611 C589 0.950 . S
C612 C613 1.349 . S
C612 C614 1.327 . S
C612 H637 0.950 . S
C613 C612 1.349 . S
C613 C629 1.349 . S
C614 C612 1.327 . S
C614 C633 1.429 . S
C614 H638 0.950 . S
C615 C632 1.574 1_565 S
C615 C634 1.368 . S
C615 H639 0.949 . S
H616 C620 0.949 . S
C617 C618 1.349 . S
C617 C619 1.327 . S
C617 H640 0.950 . S
C618 C617 1.349 . S
C618 C630 1.349 . S
C619 C617 1.327 . S
C619 C635 1.429 . S
C619 H641 0.950 . S
C620 H616 0.949 . S
C620 C628 1.574 1_545 S
C620 C636 1.368 . S
H621 C629 0.950 . S
H622 C627 0.950 . S
H623 C628 0.949 . S
H624 C630 0.950 . S
H625 C631 0.950 . S
H626 C632 0.949 . S
C627 H622 0.950 . S
C627 C629 1.327 . S
C627 C633 1.429 . S
C628 C620 1.574 1_565 S
C628 H623 0.949 . S
C628 C634 1.368 . S
C629 C613 1.349 . S
C629 H621 0.950 . S
C629 C627 1.327 . S
C630 C618 1.349 . S
C630 H624 0.950 . S
C630 C631 1.327 . S
C631 H625 0.950 . S
C631 C630 1.327 . S
C631 C635 1.429 . S
C632 C615 1.574 1_545 S
C632 H626 0.949 . S
C632 C636 1.368 . S
C633 C614 1.429 . S
C633 C627 1.429 . S
C633 C634 1.523 . S
C634 C615 1.368 . S
C634 C628 1.368 . S
C634 C633 1.523 . S
C635 C619 1.429 . S
C635 C631 1.429 . S
C635 C636 1.523 . S
C636 C620 1.368 . S
C636 C632 1.368 . S
C636 C635 1.523 . S
H637 C612 0.950 . S
H638 C614 0.950 . S
H639 C615 0.949 . S
H640 C617 0.950 . S
H641 C619 0.950 . S
C642 C643 1.349 . S
C642 C644 1.327 . S
C642 H667 0.950 . S
C643 C642 1.349 . S
C643 C659 1.349 . S
C644 C642 1.327 . S
C644 C663 1.429 . S
C644 H668 0.950 . S
C645 C662 1.574 1_455 S
C645 C664 1.368 . S
C645 H669 0.949 . S
H646 C650 0.949 . S
C647 C648 1.349 . S
C647 C649 1.327 . S
C647 H670 0.950 . S
C648 C647 1.349 . S
C648 C660 1.349 . S
C649 C647 1.327 . S
C649 C665 1.429 . S
C649 H671 0.950 . S
C650 H646 0.949 . S
C650 C658 1.574 1_655 S
C650 C666 1.368 . S
H651 C659 0.950 . S
H652 C657 0.950 . S
H653 C658 0.949 . S
H654 C660 0.950 . S
H655 C661 0.950 . S
H656 C662 0.949 . S
C657 H652 0.950 . S
C657 C659 1.327 . S
C657 C663 1.429 . S
C658 C650 1.574 1_455 S
C658 H653 0.949 . S
C658 C664 1.368 . S
C659 C643 1.349 . S
C659 H651 0.950 . S
C659 C657 1.327 . S
C660 C648 1.349 . S
C660 H654 0.950 . S
C660 C661 1.327 . S
C661 H655 0.950 . S
C661 C660 1.327 . S
C661 C665 1.429 . S
C662 C645 1.574 1_655 S
C662 H656 0.949 . S
C662 C666 1.368 . S
C663 C644 1.429 . S
C663 C657 1.429 . S
C663 C664 1.523 . S
C664 C645 1.368 . S
C664 C658 1.368 . S
C664 C663 1.523 . S
C665 C649 1.429 . S
C665 C661 1.429 . S
C665 C666 1.523 . S
C666 C650 1.368 . S
C666 C662 1.368 . S
C666 C665 1.523 . S
H667 C642 0.950 . S
H668 C644 0.950 . S
H669 C645 0.949 . S
H670 C647 0.950 . S
H671 C649 0.950 . S
C672 C673 1.349 . S
C672 C674 1.327 . S
C672 H697 0.950 . S
C673 C672 1.349 . S
C673 C689 1.349 . S
C674 C672 1.327 . S
C674 C693 1.429 . S
C674 H698 0.950 . S
C675 C692 1.574 . S
C675 C694 1.368 . S
C675 H699 0.949 . S
H676 C680 0.949 . S
C677 C678 1.349 . S
C677 C679 1.327 . S
C677 H700 0.950 . S
C678 C677 1.349 . S
C678 C690 1.349 . S
C679 C677 1.327 . S
C679 C695 1.429 . S
C679 H701 0.950 . S
C680 H676 0.949 . S
C680 C688 1.574 . S
C680 C696 1.368 . S
H681 C689 0.950 . S
H682 C687 0.950 . S
H683 C688 0.949 . S
H684 C690 0.950 . S
H685 C691 0.950 . S
H686 C692 0.949 . S
C687 H682 0.950 . S
C687 C689 1.327 . S
C687 C693 1.429 . S
C688 C680 1.574 . S
C688 H683 0.949 . S
C688 C694 1.368 . S
C689 C673 1.349 . S
C689 H681 0.950 . S
C689 C687 1.327 . S
C690 C678 1.349 . S
C690 H684 0.950 . S
C690 C691 1.327 . S
C691 H685 0.950 . S
C691 C690 1.327 . S
C691 C695 1.429 . S
C692 C675 1.574 . S
C692 H686 0.949 . S
C692 C696 1.368 . S
C693 C674 1.429 . S
C693 C687 1.429 . S
C693 C694 1.523 . S
C694 C675 1.368 . S
C694 C688 1.368 . S
C694 C693 1.523 . S
C695 C679 1.429 . S
C695 C691 1.429 . S
C695 C696 1.523 . S
C696 C680 1.368 . S
C696 C692 1.368 . S
C696 C695 1.523 . S
H697 C672 0.950 . S
H698 C674 0.950 . S
H699 C675 0.949 . S
H700 C677 0.950 . S
H701 C679 0.950 . S
C702 C703 1.349 . S
C702 C704 1.327 . S
C702 H727 0.950 . S
C703 C702 1.349 . S
C703 C719 1.349 . S
C704 C702 1.327 . S
C704 C723 1.429 . S
C704 H728 0.950 . S
C705 C722 1.574 . S
C705 C724 1.368 . S
C705 H729 0.949 . S
H706 C710 0.949 . S
C707 C708 1.349 . S
C707 C709 1.327 . S
C707 H730 0.950 . S
C708 C707 1.349 . S
C708 C720 1.349 . S
C709 C707 1.327 . S
C709 C725 1.429 . S
C709 H731 0.950 . S
C710 H706 0.949 . S
C710 C718 1.574 . S
C710 C726 1.368 . S
H711 C719 0.950 . S
H712 C717 0.950 . S
H713 C718 0.949 . S
H714 C720 0.950 . S
H715 C721 0.950 . S
H716 C722 0.949 . S
C717 H712 0.950 . S
C717 C719 1.327 . S
C717 C723 1.429 . S
C718 C710 1.574 . S
C718 H713 0.949 . S
C718 C724 1.368 . S
C719 C703 1.349 . S
C719 H711 0.950 . S
C719 C717 1.327 . S
C720 C708 1.349 . S
C720 H714 0.950 . S
C720 C721 1.327 . S
C721 H715 0.950 . S
C721 C720 1.327 . S
C721 C725 1.429 . S
C722 C705 1.574 . S
C722 H716 0.949 . S
C722 C726 1.368 . S
C723 C704 1.429 . S
C723 C717 1.429 . S
C723 C724 1.523 . S
C724 C705 1.368 . S
C724 C718 1.368 . S
C724 C723 1.523 . S
C725 C709 1.429 . S
C725 C721 1.429 . S
C725 C726 1.523 . S
C726 C710 1.368 . S
C726 C722 1.368 . S
C726 C725 1.523 . S
H727 C702 0.950 . S
H728 C704 0.950 . S
H729 C705 0.949 . S
H730 C707 0.950 . S
H731 C709 0.950 . S
C732 C733 1.349 . S
C732 C734 1.327 . S
C732 H757 0.950 . S
C733 C732 1.349 . S
C733 C749 1.349 . S
C734 C732 1.327 . S
C734 C753 1.429 . S
C734 H758 0.950 . S
C735 C752 1.574 . S
C735 C754 1.368 . S
C735 H759 0.949 . S
H736 C740 0.949 . S
C737 C738 1.349 . S
C737 C739 1.327 . S
C737 H760 0.950 . S
C738 C737 1.349 . S
C738 C750 1.349 . S
C739 C737 1.327 . S
C739 C755 1.429 . S
C739 H761 0.950 . S
C740 H736 0.949 . S
C740 C748 1.574 . S
C740 C756 1.368 . S
H741 C749 0.950 . S
H742 C747 0.950 . S
H743 C748 0.949 . S
H744 C750 0.950 . S
H745 C751 0.950 . S
H746 C752 0.949 . S
C747 H742 0.950 . S
C747 C749 1.327 . S
C747 C753 1.429 . S
C748 C740 1.574 . S
C748 H743 0.949 . S
C748 C754 1.368 . S
C749 C733 1.349 . S
C749 H741 0.950 . S
C749 C747 1.327 . S
C750 C738 1.349 . S
C750 H744 0.950 . S
C750 C751 1.327 . S
C751 H745 0.950 . S
C751 C750 1.327 . S
C751 C755 1.429 . S
C752 C735 1.574 . S
C752 H746 0.949 . S
C752 C756 1.368 . S
C753 C734 1.429 . S
C753 C747 1.429 . S
C753 C754 1.523 . S
C754 C735 1.368 . S
C754 C748 1.368 . S
C754 C753 1.523 . S
C755 C739 1.429 . S
C755 C751 1.429 . S
C755 C756 1.523 . S
C756 C740 1.368 . S
C756 C752 1.368 . S
C756 C755 1.523 . S
H757 C732 0.950 . S
H758 C734 0.950 . S
H759 C735 0.949 . S
H760 C737 0.950 . S
H761 C739 0.950 . S
C762 C763 1.349 . S
C762 C764 1.327 . S
C762 H787 0.950 . S
C763 C762 1.349 . S
C763 C779 1.349 . S
C764 C762 1.327 . S
C764 C783 1.429 . S
C764 H788 0.950 . S
C765 C782 1.574 . S
C765 C784 1.368 . S
C765 H789 0.949 . S
H766 C770 0.949 . S
C767 C768 1.349 . S
C767 C769 1.327 . S
C767 H790 0.950 . S
C768 C767 1.349 . S
C768 C780 1.349 . S
C769 C767 1.327 . S
C769 C785 1.429 . S
C769 H791 0.950 . S
C770 H766 0.949 . S
C770 C778 1.574 . S
C770 C786 1.368 . S
H771 C779 0.950 . S
H772 C777 0.950 . S
H773 C778 0.949 . S
H774 C780 0.950 . S
H775 C781 0.950 . S
H776 C782 0.949 . S
C777 H772 0.950 . S
C777 C779 1.327 . S
C777 C783 1.429 . S
C778 C770 1.574 . S
C778 H773 0.949 . S
C778 C784 1.368 . S
C779 C763 1.349 . S
C779 H771 0.950 . S
C779 C777 1.327 . S
C780 C768 1.349 . S
C780 H774 0.950 . S
C780 C781 1.327 . S
C781 H775 0.950 . S
C781 C780 1.327 . S
C781 C785 1.429 . S
C782 C765 1.574 . S
C782 H776 0.949 . S
C782 C786 1.368 . S
C783 C764 1.429 . S
C783 C777 1.429 . S
C783 C784 1.523 . S
C784 C765 1.368 . S
C784 C778 1.368 . S
C784 C783 1.523 . S
C785 C769 1.429 . S
C785 C781 1.429 . S
C785 C786 1.523 . S
C786 C770 1.368 . S
C786 C782 1.368 . S
C786 C785 1.523 . S
H787 C762 0.950 . S
H788 C764 0.950 . S
H789 C765 0.949 . S
H790 C767 0.950 . S
H791 C769 0.950 . S
C792 C793 1.349 . S
C792 C794 1.327 . S
C792 H817 0.950 . S
C793 C792 1.349 . S
C793 C809 1.349 . S
C794 C792 1.327 . S
C794 C813 1.429 . S
C794 H818 0.950 . S
C795 C812 1.574 . S
C795 C814 1.368 . S
C795 H819 0.949 . S
H796 C800 0.949 . S
C797 C798 1.349 . S
C797 C799 1.327 . S
C797 H820 0.950 . S
C798 C797 1.349 . S
C798 C810 1.349 . S
C799 C797 1.327 . S
C799 C815 1.429 . S
C799 H821 0.950 . S
C800 H796 0.949 . S
C800 C808 1.574 . S
C800 C816 1.368 . S
H801 C809 0.950 . S
H802 C807 0.950 . S
H803 C808 0.949 . S
H804 C810 0.950 . S
H805 C811 0.950 . S
H806 C812 0.949 . S
C807 H802 0.950 . S
C807 C809 1.327 . S
C807 C813 1.429 . S
C808 C800 1.574 . S
C808 H803 0.949 . S
C808 C814 1.368 . S
C809 C793 1.349 . S
C809 H801 0.950 . S
C809 C807 1.327 . S
C810 C798 1.349 . S
C810 H804 0.950 . S
C810 C811 1.327 . S
C811 H805 0.950 . S
C811 C810 1.327 . S
C811 C815 1.429 . S
C812 C795 1.574 . S
C812 H806 0.949 . S
C812 C816 1.368 . S
C813 C794 1.429 . S
C813 C807 1.429 . S
C813 C814 1.523 . S
C814 C795 1.368 . S
C814 C808 1.368 . S
C814 C813 1.523 . S
C815 C799 1.429 . S
C815 C811 1.429 . S
C815 C816 1.523 . S
C816 C800 1.368 . S
C816 C812 1.368 . S
C816 C815 1.523 . S
H817 C792 0.950 . S
H818 C794 0.950 . S
H819 C795 0.949 . S
H820 C797 0.950 . S
H821 C799 0.950 . S
C822 C823 1.349 . S
C822 C824 1.327 . S
C822 H847 0.950 . S
C823 C822 1.349 . S
C823 C839 1.349 . S
C824 C822 1.327 . S
C824 C843 1.429 . S
C824 H848 0.950 . S
C825 C842 1.574 . S
C825 C844 1.368 . S
C825 H849 0.949 . S
H826 C830 0.949 . S
C827 C828 1.349 . S
C827 C829 1.327 . S
C827 H850 0.950 . S
C828 C827 1.349 . S
C828 C840 1.349 . S
C829 C827 1.327 . S
C829 C845 1.429 . S
C829 H851 0.950 . S
C830 H826 0.949 . S
C830 C838 1.574 . S
C830 C846 1.368 . S
H831 C839 0.950 . S
H832 C837 0.950 . S
H833 C838 0.949 . S
H834 C840 0.950 . S
H835 C841 0.950 . S
H836 C842 0.949 . S
C837 H832 0.950 . S
C837 C839 1.327 . S
C837 C843 1.429 . S
C838 C830 1.574 . S
C838 H833 0.949 . S
C838 C844 1.368 . S
C839 C823 1.349 . S
C839 H831 0.950 . S
C839 C837 1.327 . S
C840 C828 1.349 . S
C840 H834 0.950 . S
C840 C841 1.327 . S
C841 H835 0.950 . S
C841 C840 1.327 . S
C841 C845 1.429 . S
C842 C825 1.574 . S
C842 H836 0.949 . S
C842 C846 1.368 . S
C843 C824 1.429 . S
C843 C837 1.429 . S
C843 C844 1.523 . S
C844 C825 1.368 . S
C844 C838 1.368 . S
C844 C843 1.523 . S
C845 C829 1.429 . S
C845 C841 1.429 . S
C845 C846 1.523 . S
C846 C830 1.368 . S
C846 C842 1.368 . S
C846 C845 1.523 . S
H847 C822 0.950 . S
H848 C824 0.950 . S
H849 C825 0.949 . S
H850 C827 0.950 . S
H851 C829 0.950 . S
C852 C853 1.349 . S
C852 C854 1.327 . S
C852 H877 0.950 . S
C853 C852 1.349 . S
C853 C869 1.349 . S
C854 C852 1.327 . S
C854 C873 1.429 . S
C854 H878 0.950 . S
C855 C872 1.574 . S
C855 C874 1.368 . S
C855 H879 0.949 . S
H856 C860 0.949 . S
C857 C858 1.349 . S
C857 C859 1.327 . S
C857 H880 0.950 . S
C858 C857 1.349 . S
C858 C870 1.349 . S
C859 C857 1.327 . S
C859 C875 1.429 . S
C859 H881 0.950 . S
C860 H856 0.949 . S
C860 C868 1.574 . S
C860 C876 1.368 . S
H861 C869 0.950 . S
H862 C867 0.950 . S
H863 C868 0.949 . S
H864 C870 0.950 . S
H865 C871 0.950 . S
H866 C872 0.949 . S
C867 H862 0.950 . S
C867 C869 1.327 . S
C867 C873 1.429 . S
C868 C860 1.574 . S
C868 H863 0.949 . S
C868 C874 1.368 . S
C869 C853 1.349 . S
C869 H861 0.950 . S
C869 C867 1.327 . S
C870 C858 1.349 . S
C870 H864 0.950 . S
C870 C871 1.327 . S
C871 H865 0.950 . S
C871 C870 1.327 . S
C871 C875 1.429 . S
C872 C855 1.574 . S
C872 H866 0.949 . S
C872 C876 1.368 . S
C873 C854 1.429 . S
C873 C867 1.429 . S
C873 C874 1.523 . S
C874 C855 1.368 . S
C874 C868 1.368 . S
C874 C873 1.523 . S
C875 C859 1.429 . S
C875 C871 1.429 . S
C875 C876 1.523 . S
C876 C860 1.368 . S
C876 C872 1.368 . S
C876 C875 1.523 . S
H877 C852 0.950 . S
H878 C854 0.950 . S
H879 C855 0.949 . S
H880 C857 0.950 . S
H881 C859 0.950 . S
C882 C883 1.349 . S
C882 C884 1.327 . S
C882 H907 0.950 . S
C883 C882 1.349 . S
C883 C899 1.349 . S
C884 C882 1.327 . S
C884 C903 1.429 . S
C884 H908 0.950 . S
C885 C902 1.574 . S
C885 C904 1.368 . S
C885 H909 0.949 . S
H886 C890 0.949 . S
C887 C888 1.349 . S
C887 C889 1.327 . S
C887 H910 0.950 . S
C888 C887 1.349 . S
C888 C900 1.349 . S
C889 C887 1.327 . S
C889 C905 1.429 . S
C889 H911 0.950 . S
C890 H886 0.949 . S
C890 C898 1.574 . S
C890 C906 1.368 . S
H891 C899 0.950 . S
H892 C897 0.950 . S
H893 C898 0.949 . S
H894 C900 0.950 . S
H895 C901 0.950 . S
H896 C902 0.949 . S
C897 H892 0.950 . S
C897 C899 1.327 . S
C897 C903 1.429 . S
C898 C890 1.574 . S
C898 H893 0.949 . S
C898 C904 1.368 . S
C899 C883 1.349 . S
C899 H891 0.950 . S
C899 C897 1.327 . S
C900 C888 1.349 . S
C900 H894 0.950 . S
C900 C901 1.327 . S
C901 H895 0.950 . S
C901 C900 1.327 . S
C901 C905 1.429 . S
C902 C885 1.574 . S
C902 H896 0.949 . S
C902 C906 1.368 . S
C903 C884 1.429 . S
C903 C897 1.429 . S
C903 C904 1.523 . S
C904 C885 1.368 . S
C904 C898 1.368 . S
C904 C903 1.523 . S
C905 C889 1.429 . S
C905 C901 1.429 . S
C905 C906 1.523 . S
C906 C890 1.368 . S
C906 C902 1.368 . S
C906 C905 1.523 . S
H907 C882 0.950 . S
H908 C884 0.950 . S
H909 C885 0.949 . S
H910 C887 0.950 . S
H911 C889 0.950 . S
C912 C913 1.349 . S
C912 C914 1.327 . S
C912 H937 0.950 . S
C913 C912 1.349 . S
C913 C929 1.349 . S
C914 C912 1.327 . S
C914 C933 1.429 . S
C914 H938 0.950 . S
C915 C932 1.574 . S
C915 C934 1.368 . S
C915 H939 0.949 . S
H916 C920 0.949 . S
C917 C918 1.349 . S
C917 C919 1.327 . S
C917 H940 0.950 . S
C918 C917 1.349 . S
C918 C930 1.349 . S
C919 C917 1.327 . S
C919 C935 1.429 . S
C919 H941 0.950 . S
C920 H916 0.949 . S
C920 C928 1.574 . S
C920 C936 1.368 . S
H921 C929 0.950 . S
H922 C927 0.950 . S
H923 C928 0.949 . S
H924 C930 0.950 . S
H925 C931 0.950 . S
H926 C932 0.949 . S
C927 H922 0.950 . S
C927 C929 1.327 . S
C927 C933 1.429 . S
C928 C920 1.574 . S
C928 H923 0.949 . S
C928 C934 1.368 . S
C929 C913 1.349 . S
C929 H921 0.950 . S
C929 C927 1.327 . S
C930 C918 1.349 . S
C930 H924 0.950 . S
C930 C931 1.327 . S
C931 H925 0.950 . S
C931 C930 1.327 . S
C931 C935 1.429 . S
C932 C915 1.574 . S
C932 H926 0.949 . S
C932 C936 1.368 . S
C933 C914 1.429 . S
C933 C927 1.429 . S
C933 C934 1.523 . S
C934 C915 1.368 . S
C934 C928 1.368 . S
C934 C933 1.523 . S
C935 C919 1.429 . S
C935 C931 1.429 . S
C935 C936 1.523 . S
C936 C920 1.368 . S
C936 C932 1.368 . S
C936 C935 1.523 . S
H937 C912 0.950 . S
H938 C914 0.950 . S
H939 C915 0.949 . S
H940 C917 0.950 . S
H941 C919 0.950 . S
C942 C943 1.349 . S
C942 C944 1.327 . S
C942 H967 0.950 . S
C943 C942 1.349 . S
C943 C959 1.349 . S
C944 C942 1.327 . S
C944 C963 1.429 . S
C944 H968 0.950 . S
C945 C962 1.574 . S
C945 C964 1.368 . S
C945 H969 0.949 . S
H946 C950 0.949 . S
C947 C948 1.349 . S
C947 C949 1.327 . S
C947 H970 0.950 . S
C948 C947 1.349 . S
C948 C960 1.349 . S
C949 C947 1.327 . S
C949 C965 1.429 . S
C949 H971 0.950 . S
C950 H946 0.949 . S
C950 C958 1.574 . S
C950 C966 1.368 . S
H951 C959 0.950 . S
H952 C957 0.950 . S
H953 C958 0.949 . S
H954 C960 0.950 . S
H955 C961 0.950 . S
H956 C962 0.949 . S
C957 H952 0.950 . S
C957 C959 1.327 . S
C957 C963 1.429 . S
C958 C950 1.574 . S
C958 H953 0.949 . S
C958 C964 1.368 . S
C959 C943 1.349 . S
C959 H951 0.950 . S
C959 C957 1.327 . S
C960 C948 1.349 . S
C960 H954 0.950 . S
C960 C961 1.327 . S
C961 H955 0.950 . S
C961 C960 1.327 . S
C961 C965 1.429 . S
C962 C945 1.574 . S
C962 H956 0.949 . S
C962 C966 1.368 . S
C963 C944 1.429 . S
C963 C957 1.429 . S
C963 C964 1.523 . S
C964 C945 1.368 . S
C964 C958 1.368 . S
C964 C963 1.523 . S
C965 C949 1.429 . S
C965 C961 1.429 . S
C965 C966 1.523 . S
C966 C950 1.368 . S
C966 C962 1.368 . S
C966 C965 1.523 . S
H967 C942 0.950 . S
H968 C944 0.950 . S
H969 C945 0.949 . S
H970 C947 0.950 . S
H971 C949 0.950 . S
C972 C973 1.349 . S
C972 C974 1.327 . S
C972 H997 0.950 . S
C973 C972 1.349 . S
C973 C989 1.349 . S
C974 C972 1.327 . S
C974 C993 1.429 . S
C974 H998 0.950 . S
C975 C992 1.574 . S
C975 C994 1.368 . S
C975 H999 0.949 . S
H976 C980 0.949 . S
C977 C978 1.349 . S
C977 C979 1.327 . S
C977 H1000 0.950 . S
C978 C977 1.349 . S
C978 C990 1.349 . S
C979 C977 1.327 . S
C979 C995 1.429 . S
C979 H1001 0.950 . S
C980 H976 0.949 . S
C980 C988 1.574 . S
C980 C996 1.368 . S
H981 C989 0.950 . S
H982 C987 0.950 . S
H983 C988 0.949 . S
H984 C990 0.950 . S
H985 C991 0.950 . S
H986 C992 0.949 . S
C987 H982 0.950 . S
C987 C989 1.327 . S
C987 C993 1.429 . S
C988 C980 1.574 . S
C988 H983 0.949 . S
C988 C994 1.368 . S
C989 C973 1.349 . S
C989 H981 0.950 . S
C989 C987 1.327 . S
C990 C978 1.349 . S
C990 H984 0.950 . S
C990 C991 1.327 . S
C991 H985 0.950 . S
C991 C990 1.327 . S
C991 C995 1.429 . S
C992 C975 1.574 . S
C992 H986 0.949 . S
C992 C996 1.368 . S
C993 C974 1.429 . S
C993 C987 1.429 . S
C993 C994 1.523 . S
C994 C975 1.368 . S
C994 C988 1.368 . S
C994 C993 1.523 . S
C995 C979 1.429 . S
C995 C991 1.429 . S
C995 C996 1.523 . S
C996 C980 1.368 . S
C996 C992 1.368 . S
C996 C995 1.523 . S
H997 C972 0.950 . S
H998 C974 0.950 . S
H999 C975 0.949 . S
H1000 C977 0.950 . S
H1001 C979 0.950 . S
C1002 C1003 1.349 . S
C1002 C1004 1.327 . S
C1002 H1027 0.950 . S
C1003 C1002 1.349 . S
C1003 C1019 1.349 . S
C1004 C1002 1.327 . S
C1004 C1023 1.429 . S
C1004 H1028 0.950 . S
C1005 C1022 1.574 . S
C1005 C1024 1.368 . S
C1005 H1029 0.949 . S
H1006 C1010 0.949 . S
C1007 C1008 1.349 . S
C1007 C1009 1.327 . S
C1007 H1030 0.950 . S
C1008 C1007 1.349 . S
C1008 C1020 1.349 . S
C1009 C1007 1.327 . S
C1009 C1025 1.429 . S
C1009 H1031 0.950 . S
C1010 H1006 0.949 . S
C1010 C1018 1.574 . S
C1010 C1026 1.368 . S
H1011 C1019 0.950 . S
H1012 C1017 0.950 . S
H1013 C1018 0.949 . S
H1014 C1020 0.950 . S
H1015 C1021 0.950 . S
H1016 C1022 0.949 . S
C1017 H1012 0.950 . S
C1017 C1019 1.327 . S
C1017 C1023 1.429 . S
C1018 C1010 1.574 . S
C1018 H1013 0.949 . S
C1018 C1024 1.368 . S
C1019 C1003 1.349 . S
C1019 H1011 0.950 . S
C1019 C1017 1.327 . S
C1020 C1008 1.349 . S
C1020 H1014 0.950 . S
C1020 C1021 1.327 . S
C1021 H1015 0.950 . S
C1021 C1020 1.327 . S
C1021 C1025 1.429 . S
C1022 C1005 1.574 . S
C1022 H1016 0.949 . S
C1022 C1026 1.368 . S
C1023 C1004 1.429 . S
C1023 C1017 1.429 . S
C1023 C1024 1.523 . S
C1024 C1005 1.368 . S
C1024 C1018 1.368 . S
C1024 C1023 1.523 . S
C1025 C1009 1.429 . S
C1025 C1021 1.429 . S
C1025 C1026 1.523 . S
C1026 C1010 1.368 . S
C1026 C1022 1.368 . S
C1026 C1025 1.523 . S
H1027 C1002 0.950 . S
H1028 C1004 0.950 . S
H1029 C1005 0.949 . S
H1030 C1007 0.950 . S
H1031 C1009 0.950 . S
C1032 C1033 1.349 . S
C1032 C1034 1.327 . S
C1032 H1057 0.950 . S
C1033 C1032 1.349 . S
C1033 C1049 1.349 . S
C1034 C1032 1.327 . S
C1034 C1053 1.429 . S
C1034 H1058 0.950 . S
C1035 C1052 1.574 . S
C1035 C1054 1.368 . S
C1035 H1059 0.949 . S
H1036 C1040 0.949 . S
C1037 C1038 1.349 . S
C1037 C1039 1.327 . S
C1037 H1060 0.950 . S
C1038 C1037 1.349 . S
C1038 C1050 1.349 . S
C1039 C1037 1.327 . S
C1039 C1055 1.429 . S
C1039 H1061 0.950 . S
C1040 H1036 0.949 . S
C1040 C1048 1.574 . S
C1040 C1056 1.368 . S
H1041 C1049 0.950 . S
H1042 C1047 0.950 . S
H1043 C1048 0.949 . S
H1044 C1050 0.950 . S
H1045 C1051 0.950 . S
H1046 C1052 0.949 . S
C1047 H1042 0.950 . S
C1047 C1049 1.327 . S
C1047 C1053 1.429 . S
C1048 C1040 1.574 . S
C1048 H1043 0.949 . S
C1048 C1054 1.368 . S
C1049 C1033 1.349 . S
C1049 H1041 0.950 . S
C1049 C1047 1.327 . S
C1050 C1038 1.349 . S
C1050 H1044 0.950 . S
C1050 C1051 1.327 . S
C1051 H1045 0.950 . S
C1051 C1050 1.327 . S
C1051 C1055 1.429 . S
C1052 C1035 1.574 . S
C1052 H1046 0.949 . S
C1052 C1056 1.368 . S
C1053 C1034 1.429 . S
C1053 C1047 1.429 . S
C1053 C1054 1.523 . S
C1054 C1035 1.368 . S
C1054 C1048 1.368 . S
C1054 C1053 1.523 . S
C1055 C1039 1.429 . S
C1055 C1051 1.429 . S
C1055 C1056 1.523 . S
C1056 C1040 1.368 . S
C1056 C1052 1.368 . S
C1056 C1055 1.523 . S
H1057 C1032 0.950 . S
H1058 C1034 0.950 . S
H1059 C1035 0.949 . S
H1060 C1037 0.950 . S
H1061 C1039 0.950 . S
C1062 C1063 1.349 . S
C1062 C1064 1.327 . S
C1062 H1087 0.950 . S
C1063 C1062 1.349 . S
C1063 C1079 1.349 . S
C1064 C1062 1.327 . S
C1064 C1083 1.429 . S
C1064 H1088 0.950 . S
C1065 C1082 1.574 1_554 S
C1065 C1084 1.368 . S
C1065 H1089 0.949 . S
H1066 C1070 0.949 . S
C1067 C1068 1.349 . S
C1067 C1069 1.327 . S
C1067 H1090 0.950 . S
C1068 C1067 1.349 . S
C1068 C1080 1.349 . S
C1069 C1067 1.327 . S
C1069 C1085 1.429 . S
C1069 H1091 0.950 . S
C1070 H1066 0.949 . S
C1070 C1078 1.574 1_556 S
C1070 C1086 1.368 . S
H1071 C1079 0.950 . S
H1072 C1077 0.950 . S
H1073 C1078 0.949 . S
H1074 C1080 0.950 . S
H1075 C1081 0.950 . S
H1076 C1082 0.949 . S
C1077 H1072 0.950 . S
C1077 C1079 1.327 . S
C1077 C1083 1.429 . S
C1078 C1070 1.574 1_554 S
C1078 H1073 0.949 . S
C1078 C1084 1.368 . S
C1079 C1063 1.349 . S
C1079 H1071 0.950 . S
C1079 C1077 1.327 . S
C1080 C1068 1.349 . S
C1080 H1074 0.950 . S
C1080 C1081 1.327 . S
C1081 H1075 0.950 . S
C1081 C1080 1.327 . S
C1081 C1085 1.429 . S
C1082 C1065 1.574 1_556 S
C1082 H1076 0.949 . S
C1082 C1086 1.368 . S
C1083 C1064 1.429 . S
C1083 C1077 1.429 . S
C1083 C1084 1.523 . S
C1084 C1065 1.368 . S
C1084 C1078 1.368 . S
C1084 C1083 1.523 . S
C1085 C1069 1.429 . S
C1085 C1081 1.429 . S
C1085 C1086 1.523 . S
C1086 C1070 1.368 . S
C1086 C1082 1.368 . S
C1086 C1085 1.523 . S
H1087 C1062 0.950 . S
H1088 C1064 0.950 . S
H1089 C1065 0.949 . S
H1090 C1067 0.950 . S
H1091 C1069 0.950 . S
C1092 C1093 1.349 1_565 S
C1092 C1094 1.327 . S
C1092 H1117 0.950 . S
C1093 C1092 1.349 1_545 S
C1093 C1109 1.349 . S
C1094 C1092 1.327 . S
C1094 C1113 1.429 1_565 S
C1094 H1118 0.950 . S
C1095 C1112 1.574 1_556 S
C1095 C1114 1.368 1_545 S
C1095 H1119 0.949 . S
H1096 C1100 0.949 . S
C1097 C1098 1.349 1_545 S
C1097 C1099 1.327 . S
C1097 H1120 0.950 . S
C1098 C1097 1.349 1_565 S
C1098 C1110 1.349 . S
C1099 C1097 1.327 . S
C1099 C1115 1.429 1_545 S
C1099 H1121 0.950 . S
C1100 H1096 0.949 . S
C1100 C1108 1.574 1_554 S
C1100 C1116 1.368 . S
H1101 C1109 0.950 . S
H1102 C1107 0.950 . S
H1103 C1108 0.949 . S
H1104 C1110 0.950 . S
H1105 C1111 0.950 . S
H1106 C1112 0.949 . S
C1107 H1102 0.950 . S
C1107 C1109 1.327 . S
C1107 C1113 1.429 . S
C1108 C1100 1.574 1_556 S
C1108 H1103 0.949 . S
C1108 C1114 1.368 . S
C1109 C1093 1.349 . S
C1109 H1101 0.950 . S
C1109 C1107 1.327 . S
C1110 C1098 1.349 . S
C1110 H1104 0.950 . S
C1110 C1111 1.327 . S
C1111 H1105 0.950 . S
C1111 C1110 1.327 . S
C1111 C1115 1.429 . S
C1112 C1095 1.574 1_554 S
C1112 H1106 0.949 . S
C1112 C1116 1.368 1_545 S
C1113 C1094 1.429 1_545 S
C1113 C1107 1.429 . S
C1113 C1114 1.523 1_545 S
C1114 C1095 1.368 1_565 S
C1114 C1108 1.368 . S
C1114 C1113 1.523 1_565 S
C1115 C1099 1.429 1_565 S
C1115 C1111 1.429 . S
C1115 C1116 1.523 . S
C1116 C1100 1.368 . S
C1116 C1112 1.368 1_565 S
C1116 C1115 1.523 . S
H1117 C1092 0.950 . S
H1118 C1094 0.950 . S
H1119 C1095 0.949 . S
H1120 C1097 0.950 . S
H1121 C1099 0.950 . S
C1122 C1123 1.349 . S
C1122 C1124 1.327 . S
C1122 H1147 0.950 . S
C1123 C1122 1.349 . S
C1123 C1139 1.349 . S
C1124 C1122 1.327 . S
C1124 C1143 1.429 . S
C1124 H1148 0.950 . S
C1125 C1142 1.574 1_556 S
C1125 C1144 1.368 . S
C1125 H1149 0.949 . S
H1126 C1130 0.925 1_455 S
C1127 C1128 1.349 . S
C1127 C1129 1.327 . S
C1127 H1150 0.950 . S
C1128 C1127 1.349 . S
C1128 C1140 1.349 . S
C1129 C1127 1.327 . S
C1129 C1145 1.429 . S
C1129 H1151 0.948 1_455 S
C1130 H1126 0.925 1_655 S
C1130 C1138 1.579 1_554 S
C1130 C1146 1.392 . S
H1131 C1139 0.950 . S
H1132 C1137 0.950 . S
H1133 C1138 0.949 . S
H1134 C1140 0.950 . S
H1135 C1141 0.950 . S
H1136 C1142 0.949 . S
C1137 H1132 0.950 . S
C1137 C1139 1.327 . S
C1137 C1143 1.429 . S
C1138 C1130 1.579 1_556 S
C1138 H1133 0.949 . S
C1138 C1144 1.368 . S
C1139 C1123 1.349 . S
C1139 H1131 0.950 . S
C1139 C1137 1.327 . S
C1140 C1128 1.349 . S
C1140 H1134 0.950 . S
C1140 C1141 1.327 . S
C1141 H1135 0.950 . S
C1141 C1140 1.327 . S
C1141 C1145 1.429 . S
C1142 C1125 1.574 1_554 S
C1142 H1136 0.949 . S
C1142 C1146 1.368 . S
C1143 C1124 1.429 . S
C1143 C1137 1.429 . S
C1143 C1144 1.523 . S
C1144 C1125 1.368 . S
C1144 C1138 1.368 . S
C1144 C1143 1.523 . S
C1145 C1129 1.429 . S
C1145 C1141 1.429 . S
C1145 C1146 1.523 1_455 S
C1146 C1130 1.392 . S
C1146 C1142 1.368 . S
C1146 C1145 1.523 1_655 S
H1147 C1122 0.950 . S
H1148 C1124 0.950 . S
H1149 C1125 0.949 . S
H1150 C1127 0.950 . S
H1151 C1129 0.948 1_655 S
C1152 C1153 1.349 . S
C1152 C1154 1.327 . S
C1152 H1177 0.950 . S
C1153 C1152 1.349 . S
C1153 C1169 1.349 . S
C1154 C1152 1.327 . S
C1154 C1173 1.429 . S
C1154 H1178 0.950 . S
C1155 C1172 1.574 . S
C1155 C1174 1.368 . S
C1155 H1179 0.949 . S
H1156 C1160 0.949 . S
C1157 C1158 1.349 . S
C1157 C1159 1.327 . S
C1157 H1180 0.950 . S
C1158 C1157 1.349 . S
C1158 C1170 1.349 . S
C1159 C1157 1.327 . S
C1159 C1175 1.429 . S
C1159 H1181 0.950 . S
C1160 H1156 0.949 . S
C1160 C1168 1.574 . S
C1160 C1176 1.368 . S
H1161 C1169 0.950 . S
H1162 C1167 0.950 . S
H1163 C1168 0.949 . S
H1164 C1170 0.950 . S
H1165 C1171 0.950 . S
H1166 C1172 0.949 . S
C1167 H1162 0.950 . S
C1167 C1169 1.327 . S
C1167 C1173 1.429 . S
C1168 C1160 1.574 . S
C1168 H1163 0.949 . S
C1168 C1174 1.368 . S
C1169 C1153 1.349 . S
C1169 H1161 0.950 . S
C1169 C1167 1.327 . S
C1170 C1158 1.349 . S
C1170 H1164 0.950 . S
C1170 C1171 1.327 . S
C1171 H1165 0.950 . S
C1171 C1170 1.327 . S
C1171 C1175 1.429 . S
C1172 C1155 1.574 . S
C1172 H1166 0.949 . S
C1172 C1176 1.368 . S
C1173 C1154 1.429 . S
C1173 C1167 1.429 . S
C1173 C1174 1.523 . S
C1174 C1155 1.368 . S
C1174 C1168 1.368 . S
C1174 C1173 1.523 . S
C1175 C1159 1.429 . S
C1175 C1171 1.429 . S
C1175 C1176 1.523 . S
C1176 C1160 1.368 . S
C1176 C1172 1.368 . S
C1176 C1175 1.523 . S
H1177 C1152 0.950 . S
H1178 C1154 0.950 . S
H1179 C1155 0.949 . S
H1180 C1157 0.950 . S
H1181 C1159 0.950 . S
C1182 C1183 1.349 . S
C1182 C1184 1.327 . S
C1182 H1207 0.950 . S
C1183 C1182 1.349 . S
C1183 C1199 1.349 . S
C1184 C1182 1.327 . S
C1184 C1203 1.429 . S
C1184 H1208 0.950 . S
C1185 C1202 1.574 . S
C1185 C1204 1.368 . S
C1185 H1209 0.949 . S
H1186 C1190 0.949 . S
C1187 C1188 1.349 . S
C1187 C1189 1.327 . S
C1187 H1210 0.950 . S
C1188 C1187 1.349 . S
C1188 C1200 1.349 . S
C1189 C1187 1.327 . S
C1189 C1205 1.429 . S
C1189 H1211 0.950 . S
C1190 H1186 0.949 . S
C1190 C1198 1.574 . S
C1190 C1206 1.368 . S
H1191 C1199 0.950 . S
H1192 C1197 0.950 . S
H1193 C1198 0.949 . S
H1194 C1200 0.950 . S
H1195 C1201 0.950 . S
H1196 C1202 0.949 . S
C1197 H1192 0.950 . S
C1197 C1199 1.327 . S
C1197 C1203 1.429 . S
C1198 C1190 1.574 . S
C1198 H1193 0.949 . S
C1198 C1204 1.368 . S
C1199 C1183 1.349 . S
C1199 H1191 0.950 . S
C1199 C1197 1.327 . S
C1200 C1188 1.349 . S
C1200 H1194 0.950 . S
C1200 C1201 1.327 . S
C1201 H1195 0.950 . S
C1201 C1200 1.327 . S
C1201 C1205 1.429 . S
C1202 C1185 1.574 . S
C1202 H1196 0.949 . S
C1202 C1206 1.368 . S
C1203 C1184 1.429 . S
C1203 C1197 1.429 . S
C1203 C1204 1.523 . S
C1204 C1185 1.368 . S
C1204 C1198 1.368 . S
C1204 C1203 1.523 . S
C1205 C1189 1.429 . S
C1205 C1201 1.429 . S
C1205 C1206 1.523 . S
C1206 C1190 1.368 . S
C1206 C1202 1.368 . S
C1206 C1205 1.523 . S
H1207 C1182 0.950 . S
H1208 C1184 0.950 . S
H1209 C1185 0.949 . S
H1210 C1187 0.950 . S
H1211 C1189 0.950 . S
C1212 C1213 1.349 . S
C1212 C1214 1.327 . S
C1212 H1237 0.950 . S
C1213 C1212 1.349 . S
C1213 C1229 1.349 . S
C1214 C1212 1.327 . S
C1214 C1233 1.429 . S
C1214 H1238 0.950 . S
C1215 C1232 1.574 . S
C1215 C1234 1.368 . S
C1215 H1239 0.949 . S
H1216 C1220 0.949 . S
C1217 C1218 1.349 . S
C1217 C1219 1.327 . S
C1217 H1240 0.950 . S
C1218 C1217 1.349 . S
C1218 C1230 1.349 . S
C1219 C1217 1.327 . S
C1219 C1235 1.429 . S
C1219 H1241 0.950 . S
C1220 H1216 0.949 . S
C1220 C1228 1.574 . S
C1220 C1236 1.368 . S
H1221 C1229 0.950 . S
H1222 C1227 0.950 . S
H1223 C1228 0.949 . S
H1224 C1230 0.950 . S
H1225 C1231 0.950 . S
H1226 C1232 0.949 . S
C1227 H1222 0.950 . S
C1227 C1229 1.327 . S
C1227 C1233 1.429 . S
C1228 C1220 1.574 . S
C1228 H1223 0.949 . S
C1228 C1234 1.368 . S
C1229 C1213 1.349 . S
C1229 H1221 0.950 . S
C1229 C1227 1.327 . S
C1230 C1218 1.349 . S
C1230 H1224 0.950 . S
C1230 C1231 1.327 . S
C1231 H1225 0.950 . S
C1231 C1230 1.327 . S
C1231 C1235 1.429 . S
C1232 C1215 1.574 . S
C1232 H1226 0.949 . S
C1232 C1236 1.368 . S
C1233 C1214 1.429 . S
C1233 C1227 1.429 . S
C1233 C1234 1.523 . S
C1234 C1215 1.368 . S
C1234 C1228 1.368 . S
C1234 C1233 1.523 . S
C1235 C1219 1.429 . S
C1235 C1231 1.429 . S
C1235 C1236 1.523 . S
C1236 C1220 1.368 . S
C1236 C1232 1.368 . S
C1236 C1235 1.523 . S
H1237 C1212 0.950 . S
H1238 C1214 0.950 . S
H1239 C1215 0.949 . S
H1240 C1217 0.950 . S
H1241 C1219 0.950 . S
C1242 C1243 1.349 . S
C1242 C1244 1.327 . S
C1242 H1267 0.950 . S
C1243 C1242 1.349 . S
C1243 C1259 1.349 . S
C1244 C1242 1.327 . S
C1244 C1263 1.429 . S
C1244 H1268 0.950 . S
C1245 C1262 1.574 . S
C1245 C1264 1.368 . S
C1245 H1269 0.949 . S
H1246 C1250 0.949 . S
C1247 C1248 1.349 . S
C1247 C1249 1.327 . S
C1247 H1270 0.950 . S
C1248 C1247 1.349 . S
C1248 C1260 1.349 . S
C1249 C1247 1.327 . S
C1249 C1265 1.429 . S
C1249 H1271 0.950 . S
C1250 H1246 0.949 . S
C1250 C1258 1.574 . S
C1250 C1266 1.368 . S
H1251 C1259 0.950 . S
H1252 C1257 0.950 . S
H1253 C1258 0.949 . S
H1254 C1260 0.950 . S
H1255 C1261 0.950 . S
H1256 C1262 0.949 . S
C1257 H1252 0.950 . S
C1257 C1259 1.327 . S
C1257 C1263 1.429 . S
C1258 C1250 1.574 . S
C1258 H1253 0.949 . S
C1258 C1264 1.368 . S
C1259 C1243 1.349 . S
C1259 H1251 0.950 . S
C1259 C1257 1.327 . S
C1260 C1248 1.349 . S
C1260 H1254 0.950 . S
C1260 C1261 1.327 . S
C1261 H1255 0.950 . S
C1261 C1260 1.327 . S
C1261 C1265 1.429 . S
C1262 C1245 1.574 . S
C1262 H1256 0.949 . S
C1262 C1266 1.368 . S
C1263 C1244 1.429 . S
C1263 C1257 1.429 . S
C1263 C1264 1.523 . S
C1264 C1245 1.368 . S
C1264 C1258 1.368 . S
C1264 C1263 1.523 . S
C1265 C1249 1.429 . S
C1265 C1261 1.429 . S
C1265 C1266 1.523 . S
C1266 C1250 1.368 . S
C1266 C1262 1.368 . S
C1266 C1265 1.523 . S
H1267 C1242 0.950 . S
H1268 C1244 0.950 . S
H1269 C1245 0.949 . S
H1270 C1247 0.950 . S
H1271 C1249 0.950 . S
C1272 C1273 1.349 . S
C1272 C1274 1.327 . S
C1272 H1297 0.950 . S
C1273 C1272 1.349 . S
C1273 C1289 1.349 . S
C1274 C1272 1.327 . S
C1274 C1293 1.429 . S
C1274 H1298 0.950 . S
C1275 C1292 1.574 . S
C1275 C1294 1.368 . S
C1275 H1299 0.949 . S
H1276 C1280 0.949 . S
C1277 C1278 1.349 . S
C1277 C1279 1.327 . S
C1277 H1300 0.950 . S
C1278 C1277 1.349 . S
C1278 C1290 1.349 . S
C1279 C1277 1.327 . S
C1279 C1295 1.429 . S
C1279 H1301 0.950 . S
C1280 H1276 0.949 . S
C1280 C1288 1.574 . S
C1280 C1296 1.368 . S
H1281 C1289 0.950 . S
H1282 C1287 0.950 . S
H1283 C1288 0.949 . S
H1284 C1290 0.950 . S
H1285 C1291 0.950 . S
H1286 C1292 0.949 . S
C1287 H1282 0.950 . S
C1287 C1289 1.327 . S
C1287 C1293 1.429 . S
C1288 C1280 1.574 . S
C1288 H1283 0.949 . S
C1288 C1294 1.368 . S
C1289 C1273 1.349 . S
C1289 H1281 0.950 . S
C1289 C1287 1.327 . S
C1290 C1278 1.349 . S
C1290 H1284 0.950 . S
C1290 C1291 1.327 . S
C1291 H1285 0.950 . S
C1291 C1290 1.327 . S
C1291 C1295 1.429 . S
C1292 C1275 1.574 . S
C1292 H1286 0.949 . S
C1292 C1296 1.368 . S
C1293 C1274 1.429 . S
C1293 C1287 1.429 . S
C1293 C1294 1.523 . S
C1294 C1275 1.368 . S
C1294 C1288 1.368 . S
C1294 C1293 1.523 . S
C1295 C1279 1.429 . S
C1295 C1291 1.429 . S
C1295 C1296 1.523 . S
C1296 C1280 1.368 . S
C1296 C1292 1.368 . S
C1296 C1295 1.523 . S
H1297 C1272 0.950 . S
H1298 C1274 0.950 . S
H1299 C1275 0.949 . S
H1300 C1277 0.950 . S
H1301 C1279 0.950 . S
C1302 C1303 1.349 . S
C1302 C1304 1.327 . S
C1302 H1327 0.950 . S
C1303 C1302 1.349 . S
C1303 C1319 1.349 . S
C1304 C1302 1.327 . S
C1304 C1323 1.429 . S
C1304 H1328 0.950 . S
C1305 C1322 1.574 . S
C1305 C1324 1.368 . S
C1305 H1329 0.949 . S
H1306 C1310 0.949 . S
C1307 C1308 1.349 . S
C1307 C1309 1.327 . S
C1307 H1330 0.950 . S
C1308 C1307 1.349 . S
C1308 C1320 1.349 . S
C1309 C1307 1.327 . S
C1309 C1325 1.429 . S
C1309 H1331 0.950 . S
C1310 H1306 0.949 . S
C1310 C1318 1.574 . S
C1310 C1326 1.368 . S
H1311 C1319 0.950 . S
H1312 C1317 0.950 . S
H1313 C1318 0.949 . S
H1314 C1320 0.950 . S
H1315 C1321 0.950 . S
H1316 C1322 0.949 . S
C1317 H1312 0.950 . S
C1317 C1319 1.327 . S
C1317 C1323 1.429 . S
C1318 C1310 1.574 . S
C1318 H1313 0.949 . S
C1318 C1324 1.368 . S
C1319 C1303 1.349 . S
C1319 H1311 0.950 . S
C1319 C1317 1.327 . S
C1320 C1308 1.349 . S
C1320 H1314 0.950 . S
C1320 C1321 1.327 . S
C1321 H1315 0.950 . S
C1321 C1320 1.327 . S
C1321 C1325 1.429 . S
C1322 C1305 1.574 . S
C1322 H1316 0.949 . S
C1322 C1326 1.368 . S
C1323 C1304 1.429 . S
C1323 C1317 1.429 . S
C1323 C1324 1.523 . S
C1324 C1305 1.368 . S
C1324 C1318 1.368 . S
C1324 C1323 1.523 . S
C1325 C1309 1.429 . S
C1325 C1321 1.429 . S
C1325 C1326 1.523 . S
C1326 C1310 1.368 . S
C1326 C1322 1.368 . S
C1326 C1325 1.523 . S
H1327 C1302 0.950 . S
H1328 C1304 0.950 . S
H1329 C1305 0.949 . S
H1330 C1307 0.950 . S
H1331 C1309 0.950 . S
C253 C146 1.009 . S
C258 C6 1.009 . S
C283 C20 1.009 . S
C288 C160 1.009 . S
C313 C132 1.009 . S
C318 C34 1.009 . S
C343 C202 1.009 . S
C348 C48 1.009 . S
C373 C62 1.009 . S
C378 C174 1.009 . S
C403 C188 1.009 . S
C408 C76 1.009 . S
C433 C90 1.009 . S
C438 C230 1.009 . S
C463 C244 1.009 . S
C468 C104 1.009 . S
C493 C118 1.009 . S
C498 C216 1.009 . S
C523 C9 1.026 . S
C528 C22 1.058 . S
C553 C23 1.026 . S
C558 C36 1.058 . S
C583 C8 1.058 . S
C588 C37 1.026 . S
C613 C78 1.058 . S
C618 C51 1.026 . S
C643 C50 1.058 . S
C648 C65 1.026 . S
C673 C79 1.026 . S
C678 C64 1.057 . S
C703 C93 1.026 . S
C708 C106 1.057 . S
C733 C107 1.026 . S
C738 C120 1.058 . S
C763 C92 1.057 . S
C768 C121 1.026 . S
C793 C162 1.058 . S
C798 C135 1.026 . S
C823 C134 1.057 . S
C828 C149 1.026 . S
C853 C148 1.058 . S
C858 C163 1.026 . S
C883 C190 1.058 . S
C888 C177 1.026 . S
C913 C204 1.058 . S
C918 C191 1.026 . S
C943 C176 1.057 . S
C948 C205 1.026 . S
C973 C219 1.026 . S
C978 C246 1.057 . S
C1003 C233 1.026 . S
C1008 C218 1.057 . S
C1033 C247 1.026 . S
C1038 C232 1.058 . S
C1063 C7 1.610 . S
C1068 C49 1.610 . S
C1093 C63 1.610 . S
C1098 C21 1.610 . S
C1123 C77 1.610 . S
C1128 C35 1.610 . S
C1153 C133 1.610 . S
C1158 C91 1.610 . S
C1183 C147 1.610 . S
C1188 C105 1.610 . S
C1213 C119 1.610 . S
C1218 C161 1.610 . S
C1243 C217 1.610 . S
C1248 C175 1.610 . S
C1273 C231 1.610 . S
C1278 C189 1.610 . S
C1303 C245 1.610 . S
C1308 C203 1.610 . S
