# Generated by pormake.
# Topology uoj, (4)-cn, num edge types: 1
# Building blocks:
#     Node 0, Type 0, BuildingBlock: ICAMEG_clean_sbu_1, # of connection points: 4
#     Node 1, Type 0, BuildingBlock: ICAMEG_clean_sbu_1, # of connection points: 4
#     Node 2, Type 0, BuildingBlock: ICAMEG_clean_sbu_1, # of connection points: 4
#     Node 3, Type 0, BuildingBlock: ICAMEG_clean_sbu_1, # of connection points: 4
#     Node 4, Type 0, BuildingBlock: ICAMEG_clean_sbu_1, # of connection points: 4
#     Node 5, Type 0, BuildingBlock: ICAMEG_clean_sbu_1, # of connection points: 4
#     Node 6, Type 0, BuildingBlock: ICAMEG_clean_sbu_1, # of connection points: 4
#     Node 7, Type 0, BuildingBlock: ICAMEG_clean_sbu_1, # of connection points: 4
#     Edge 8, Type (0, 0), BuildingBlock: ZUJKAS_clean_linker_0, # of connection points: 2
#     Edge 9, Type (0, 0), BuildingBlock: ZUJKAS_clean_linker_0, # of connection points: 2
#     Edge 10, Type (0, 0), BuildingBlock: ZUJKAS_clean_linker_0, # of connection points: 2
#     Edge 11, Type (0, 0), BuildingBlock: ZUJKAS_clean_linker_0, # of connection points: 2
#     Edge 12, Type (0, 0), BuildingBlock: ZUJKAS_clean_linker_0, # of connection points: 2
#     Edge 13, Type (0, 0), BuildingBlock: ZUJKAS_clean_linker_0, # of connection points: 2
#     Edge 14, Type (0, 0), BuildingBlock: ZUJKAS_clean_linker_0, # of connection points: 2
#     Edge 15, Type (0, 0), BuildingBlock: ZUJKAS_clean_linker_0, # of connection points: 2
#     Edge 16, Type (0, 0), BuildingBlock: ZUJKAS_clean_linker_0, # of connection points: 2
#     Edge 17, Type (0, 0), BuildingBlock: ZUJKAS_clean_linker_0, # of connection points: 2
#     Edge 18, Type (0, 0), BuildingBlock: ZUJKAS_clean_linker_0, # of connection points: 2
#     Edge 19, Type (0, 0), BuildingBlock: ZUJKAS_clean_linker_0, # of connection points: 2
#     Edge 20, Type (0, 0), BuildingBlock: ZUJKAS_clean_linker_0, # of connection points: 2
#     Edge 21, Type (0, 0), BuildingBlock: ZUJKAS_clean_linker_0, # of connection points: 2
#     Edge 22, Type (0, 0), BuildingBlock: ZUJKAS_clean_linker_0, # of connection points: 2
#     Edge 23, Type (0, 0), BuildingBlock: ZUJKAS_clean_linker_0, # of connection points: 2
# Relax obj value: 0.080
# Max RMSD: 0.094
# Mean RMSD: 0.093
data_MOF--net-uoj--node1-ICAMEG_clean_sbu_1--edge1-ZUJKAS_clean_linker_0
_symmetry_space_group_name_H-M    P1
_symmetry_Int_Tables_number       1
_symmetry_cell_setting            triclinic
loop_
_symmetry_equiv_pos_as_xyz
'x, y, z'
_cell_length_a     46.833213
_cell_length_b     46.851399
_cell_length_c     43.186903
_cell_angle_alpha  90.009551
_cell_angle_beta   89.997397
_cell_angle_gamma 89.935323
loop_
_atom_site_label
_atom_site_type_symbol
_atom_site_fract_x
_atom_site_fract_y
_atom_site_fract_z
_atom_type_partial_charge
Co0 Co 0.01662 0.29645 0.41831 0.0
Co1 Co 0.07759 0.30501 0.46213 0.0
O2 O 0.04411 0.28325 0.44916 0.0
C3 C 0.98135 0.28199 0.47294 0.0
O4 O 1.00002 0.29552 0.4902 0.0
C5 C 0.10175 0.25016 0.44123 0.0
O6 O 0.08625 0.2531 0.4161 0.0
O7 O 0.08914 0.31158 0.41835 0.0
O8 O 0.04776 0.31237 0.39205 0.0
H9 H 0.14582 0.38768 0.46018 0.0
H10 H 0.01583 0.23602 0.4387 0.0
O11 O 0.98472 0.2806 0.44373 0.0
H12 H 0.03337 0.23272 0.32616 0.0
H13 H 0.9287 0.28747 0.35194 0.0
H14 H 0.00919 0.34946 0.38171 0.0
H15 H 0.02665 0.2788 0.35279 0.0
H16 H 0.96431 0.27113 0.39015 0.0
O17 O 0.10065 0.26898 0.46251 0.0
H18 H 0.10326 0.36043 0.44418 0.0
H19 H 0.12417 0.2945 0.50776 0.0
H20 H 0.97421 0.36657 0.34324 0.0
H21 H 0.02219 0.18945 0.41294 0.0
H22 H 0.93361 0.33547 0.32812 0.0
H23 H 0.03113 0.18761 0.35628 0.0
O24 O 0.01256 0.33383 0.43966 0.0
H25 H 0.04479 0.24548 0.55208 0.0
H26 H 0.07092 0.34235 0.51767 0.0
H27 H 0.05557 0.33467 0.57165 0.0
H28 H 0.0424 0.28593 0.58917 0.0
H29 H 0.06003 0.25417 0.49822 0.0
H30 H 0.1671 0.32091 0.52427 0.0
H31 H 0.17808 0.36791 0.5005 0.0
O32 O 0.05528 0.34148 0.46183 0.0
C33 C 0.07475 0.31558 0.39366 0.0
C34 C 0.14121 0.36726 0.47078 0.0
C35 C 0.15318 0.32977 0.50672 0.0
N36 N 0.11112 0.32603 0.47521 0.0
C37 C 0.1171 0.35178 0.46188 0.0
C38 C 0.12888 0.31489 0.49724 0.0
C39 C 0.15932 0.35615 0.49338 0.0
C40 C 0.01941 0.23537 0.41398 0.0
N41 N 0.0207 0.26009 0.39725 0.0
C42 C 0.02312 0.20895 0.39955 0.0
C43 C 0.02818 0.20794 0.36776 0.0
C44 C 0.02946 0.23324 0.35085 0.0
C45 C 0.02569 0.25927 0.36607 0.0
C46 C 0.94633 0.30119 0.35829 0.0
C47 C 0.99168 0.33574 0.3751 0.0
C48 C 0.96652 0.29208 0.37995 0.0
N49 N 0.98892 0.30924 0.38795 0.0
C50 C 0.97189 0.34558 0.35337 0.0
C51 C 0.9491 0.32813 0.34493 0.0
C52 C 0.03032 0.3497 0.45396 0.0
C53 C 0.05055 0.2668 0.54474 0.0
C54 C 0.06514 0.3211 0.52509 0.0
C55 C 0.05653 0.31687 0.5557 0.0
C56 C 0.04917 0.28951 0.56553 0.0
N57 N 0.06645 0.29871 0.50484 0.0
C58 C 0.05931 0.27182 0.51431 0.0
Co59 Co 0.29643 0.98284 0.57839 0.0
Co60 Co 0.30519 0.92077 0.53666 0.0
O61 O 0.28323 0.95451 0.54852 0.0
C62 C 0.28086 0.01674 0.52306 0.0
O63 O 0.29473 0.99806 0.50609 0.0
C64 C 0.25021 0.89702 0.55765 0.0
O65 O 0.25301 0.91287 0.58254 0.0
O66 O 0.31141 0.91031 0.58081 0.0
O67 O 0.31318 0.95257 0.60531 0.0
H68 H 0.38795 0.85258 0.54143 0.0
H69 H 0.23571 0.98246 0.55895 0.0
O70 O 0.27976 0.0139 0.55235 0.0
H71 H 0.23413 0.96772 0.67199 0.0
H72 H 0.28709 0.07221 0.64239 0.0
H73 H 0.34988 0.99184 0.61385 0.0
H74 H 0.27978 0.97424 0.64445 0.0
H75 H 0.27072 0.03549 0.60551 0.0
O76 O 0.26918 0.89775 0.5365 0.0
H77 H 0.36048 0.89551 0.55595 0.0
H78 H 0.29518 0.87318 0.49218 0.0
H79 H 0.36703 0.02796 0.65099 0.0
H80 H 0.18956 0.97628 0.58561 0.0
H81 H 0.33553 0.06851 0.66549 0.0
H82 H 0.18858 0.96875 0.64253 0.0
O83 O 0.33348 0.98675 0.55634 0.0
H84 H 0.2464 0.95145 0.4452 0.0
H85 H 0.34305 0.92617 0.48139 0.0
H86 H 0.33583 0.94025 0.42692 0.0
H87 H 0.28721 0.95298 0.4085 0.0
H88 H 0.25462 0.93748 0.49955 0.0
H89 H 0.32182 0.82988 0.47715 0.0
H90 H 0.36862 0.81942 0.50175 0.0
O91 O 0.34166 0.94306 0.53676 0.0
C92 C 0.31603 0.92551 0.60478 0.0
C93 C 0.36763 0.85695 0.53046 0.0
C94 C 0.3305 0.8442 0.49441 0.0
N95 N 0.32639 0.88695 0.52473 0.0
C96 C 0.35203 0.88126 0.53853 0.0
C97 C 0.31549 0.86871 0.50306 0.0
C98 C 0.35676 0.83834 0.50822 0.0
C99 C 0.23544 0.97949 0.58376 0.0
N100 N 0.2604 0.97888 0.60013 0.0
C101 C 0.20925 0.97588 0.59872 0.0
C102 C 0.20872 0.97161 0.63065 0.0
C103 C 0.23427 0.97101 0.64719 0.0
C104 C 0.26006 0.97466 0.63145 0.0
C105 C 0.30099 0.05461 0.63631 0.0
C106 C 0.33598 0.00932 0.6202 0.0
C107 C 0.29186 0.03379 0.6154 0.0
N108 N 0.30925 0.01142 0.60774 0.0
C109 C 0.34584 0.02975 0.64117 0.0
C110 C 0.32817 0.05251 0.64926 0.0
C111 C 0.34964 0.96841 0.54327 0.0
C112 C 0.26767 0.94587 0.45292 0.0
C113 C 0.32184 0.93177 0.47358 0.0
C114 C 0.31788 0.93965 0.44269 0.0
C115 C 0.29059 0.94677 0.43236 0.0
N116 N 0.29925 0.93092 0.4936 0.0
C117 C 0.27243 0.93782 0.48363 0.0
Co118 Co 0.98217 0.7023 0.42192 0.0
Co119 Co 0.92029 0.69318 0.4639 0.0
O120 O 0.9538 0.71535 0.45188 0.0
C121 C 0.01614 0.71845 0.47702 0.0
O122 O 0.99764 0.70458 0.49418 0.0
C123 C 0.89636 0.74805 0.44294 0.0
O124 O 0.91253 0.74537 0.41827 0.0
O125 O 0.90976 0.68674 0.41983 0.0
O126 O 0.95196 0.6852 0.39518 0.0
H127 H 0.85293 0.60987 0.45967 0.0
H128 H 0.98125 0.76307 0.44112 0.0
O129 O 0.01317 0.71933 0.44774 0.0
H130 H 0.96585 0.7641 0.32817 0.0
H131 H 0.0712 0.71214 0.35746 0.0
H132 H 0.99159 0.64882 0.38666 0.0
H133 H 0.97309 0.71864 0.35583 0.0
H134 H 0.03443 0.72835 0.39443 0.0
O135 O 0.89688 0.72899 0.46398 0.0
H136 H 0.89554 0.63763 0.4449 0.0
H137 H 0.87269 0.70294 0.50849 0.0
H138 H 0.02778 0.63182 0.34945 0.0
H139 H 0.97434 0.80905 0.41431 0.0
H140 H 0.06794 0.66359 0.33462 0.0
H141 H 0.96647 0.80974 0.35745 0.0
O142 O 0.98655 0.66539 0.44411 0.0
H143 H 0.95056 0.75249 0.55508 0.0
H144 H 0.92623 0.65556 0.51929 0.0
H145 H 0.94034 0.66306 0.5737 0.0
H146 H 0.95259 0.71183 0.59192 0.0
H147 H 0.93656 0.74398 0.5008 0.0
H148 H 0.8297 0.676 0.52377 0.0
H149 H 0.81967 0.62905 0.49937 0.0
O150 O 0.94297 0.65692 0.46384 0.0
C151 C 0.92492 0.68212 0.39582 0.0
C152 C 0.85712 0.63025 0.47054 0.0
C153 C 0.84406 0.66739 0.50648 0.0
N154 N 0.88671 0.67174 0.47602 0.0
C155 C 0.88125 0.64603 0.46234 0.0
C156 C 0.8684 0.68257 0.4977 0.0
C157 C 0.83845 0.64104 0.4928 0.0
C158 C 0.97815 0.76322 0.41632 0.0
N159 N 0.97773 0.73821 0.40005 0.0
C160 C 0.97412 0.78931 0.40129 0.0
C161 C 0.96966 0.78968 0.36939 0.0
C162 C 0.96929 0.76408 0.35295 0.0
C163 C 0.97335 0.73839 0.36876 0.0
C164 C 0.05377 0.69813 0.36369 0.0
C165 C 0.00891 0.66283 0.38017 0.0
C166 C 0.03292 0.70716 0.38465 0.0
N167 N 0.01077 0.68962 0.39249 0.0
C168 C 0.02938 0.65306 0.35916 0.0
C169 C 0.05192 0.67088 0.35088 0.0
C170 C 0.9684 0.64913 0.45729 0.0
C171 C 0.94519 0.73116 0.54744 0.0
C172 C 0.93162 0.67682 0.52701 0.0
C173 C 0.93952 0.68095 0.55787 0.0
C174 C 0.94637 0.70832 0.56809 0.0
N175 N 0.93048 0.69933 0.50692 0.0
C176 C 0.93713 0.72623 0.51677 0.0
Co177 Co 0.70218 0.01904 0.57987 0.0
Co178 Co 0.69238 0.07938 0.53566 0.0
O179 O 0.71495 0.04663 0.54905 0.0
C180 C 0.71871 0.98338 0.52616 0.0
O181 O 0.70291 0.99996 0.50861 0.0
C182 C 0.74655 0.10495 0.55638 0.0
O183 O 0.74355 0.09011 0.58196 0.0
O184 O 0.68546 0.09118 0.5793 0.0
O185 O 0.6843 0.04972 0.60538 0.0
H186 H 0.60803 0.14575 0.53666 0.0
H187 H 0.76312 0.02054 0.56117 0.0
O188 O 0.72019 0.98777 0.5552 0.0
H189 H 0.76295 0.03909 0.67357 0.0
H190 H 0.71336 0.9321 0.64731 0.0
H191 H 0.6487 0.0098 0.61521 0.0
H192 H 0.71783 0.03029 0.64575 0.0
H193 H 0.72903 0.96799 0.60915 0.0
O194 O 0.72792 0.10312 0.53496 0.0
H195 H 0.6363 0.10399 0.55323 0.0
H196 H 0.70184 0.12568 0.48949 0.0
H197 H 0.63223 0.97449 0.65359 0.0
H198 H 0.80875 0.02898 0.58814 0.0
H199 H 0.66467 0.93529 0.66989 0.0
H200 H 0.80884 0.03844 0.64473 0.0
O201 O 0.66543 0.01343 0.5576 0.0
H202 H 0.75265 0.04657 0.4462 0.0
H203 H 0.65523 0.07145 0.48019 0.0
H204 H 0.66326 0.05563 0.42642 0.0
H205 H 0.71228 0.0431 0.40911 0.0
H206 H 0.74362 0.06227 0.49984 0.0
H207 H 0.6744 0.16782 0.47242 0.0
H208 H 0.62708 0.178 0.49597 0.0
O209 O 0.65646 0.05628 0.53628 0.0
C210 C 0.68088 0.07668 0.60378 0.0
C211 C 0.62858 0.14149 0.52615 0.0
C212 C 0.66585 0.1539 0.49012 0.0
N213 N 0.67056 0.11229 0.52215 0.0
C214 C 0.64464 0.11783 0.53537 0.0
C215 C 0.68131 0.13005 0.49993 0.0
C216 C 0.63929 0.15959 0.50334 0.0
C217 C 0.76301 0.02434 0.58585 0.0
N218 N 0.73785 0.02476 0.60187 0.0
C219 C 0.7889 0.02923 0.60098 0.0
C220 C 0.78893 0.03458 0.63272 0.0
C221 C 0.76319 0.03496 0.64891 0.0
C222 C 0.7377 0.03002 0.63301 0.0
C223 C 0.69905 0.94911 0.64044 0.0
C224 C 0.663 0.9929 0.62232 0.0
C225 C 0.70778 0.96946 0.6188 0.0
N226 N 0.68987 0.99109 0.61016 0.0
C227 C 0.65353 0.97292 0.644 0.0
C228 C 0.67173 0.95092 0.65311 0.0
C229 C 0.64898 0.03097 0.54368 0.0
C230 C 0.73121 0.05205 0.45345 0.0
C231 C 0.6766 0.06595 0.47286 0.0
C232 C 0.68103 0.05708 0.44236 0.0
C233 C 0.70854 0.05006 0.43266 0.0
N234 N 0.69895 0.06788 0.4931 0.0
C235 C 0.72599 0.06106 0.48375 0.0
Co236 Co 0.47789 0.79705 0.91871 0.0
Co237 Co 0.41726 0.80901 0.9616 0.0
O238 O 0.44984 0.78568 0.94954 0.0
C239 C 0.51517 0.78282 0.97232 0.0
O240 O 0.50235 0.80264 0.98874 0.0
C241 C 0.39135 0.75449 0.9426 0.0
O242 O 0.40587 0.757 0.91674 0.0
O243 O 0.40601 0.81466 0.91755 0.0
O244 O 0.44798 0.81521 0.8924 0.0
H245 H 0.35186 0.89397 0.95658 0.0
H246 H 0.47419 0.73661 0.9389 0.0
O247 O 0.50827 0.77847 0.94421 0.0
H248 H 0.45743 0.73491 0.82619 0.0
H249 H 0.56535 0.78215 0.85284 0.0
H250 H 0.48895 0.84946 0.88214 0.0
H251 H 0.46714 0.78032 0.85306 0.0
H252 H 0.52858 0.76827 0.89086 0.0
O253 O 0.39324 0.77368 0.96344 0.0
H254 H 0.3935 0.86475 0.94164 0.0
H255 H 0.37031 0.80152 0.00742 0.0
H256 H 0.52516 0.86415 0.84387 0.0
H257 H 0.46481 0.69071 0.9129 0.0
H258 H 0.5637 0.83036 0.82898 0.0
H259 H 0.45625 0.68968 0.85615 0.0
O260 O 0.48405 0.83423 0.94004 0.0
H261 H 0.44889 0.75159 0.05369 0.0
H262 H 0.42477 0.84789 0.01569 0.0
H263 H 0.4399 0.84156 0.06995 0.0
H264 H 0.45204 0.79311 0.08929 0.0
H265 H 0.43385 0.75892 0.99953 0.0
H266 H 0.32827 0.82994 0.02291 0.0
H267 H 0.31891 0.87658 0.99749 0.0
O268 O 0.44083 0.8446 0.95983 0.0
C269 C 0.42101 0.81883 0.89333 0.0
C270 C 0.35577 0.87373 0.96789 0.0
C271 C 0.34251 0.83777 0.00509 0.0
N272 N 0.38444 0.83159 0.97383 0.0
C273 C 0.37935 0.85713 0.95959 0.0
C274 C 0.3663 0.82175 0.99619 0.0
C275 C 0.33727 0.86394 0.99083 0.0
C276 C 0.47082 0.73631 0.91414 0.0
N277 N 0.47143 0.7611 0.8975 0.0
C278 C 0.46538 0.71026 0.89957 0.0
C279 C 0.46053 0.70971 0.86774 0.0
C280 C 0.46117 0.73508 0.85092 0.0
C281 C 0.46664 0.76074 0.86628 0.0
C282 C 0.54862 0.79704 0.85908 0.0
C283 C 0.50556 0.83458 0.87563 0.0
C284 C 0.52778 0.78932 0.88064 0.0
N285 N 0.50651 0.80796 0.8885 0.0
C286 C 0.52605 0.84305 0.85402 0.0
C287 C 0.54768 0.82409 0.8457 0.0
C288 C 0.46644 0.85142 0.95282 0.0
C289 C 0.44359 0.77279 0.04556 0.0
C290 C 0.43009 0.82676 0.02391 0.0
C291 C 0.43859 0.82329 0.05468 0.0
C292 C 0.44538 0.7961 0.06551 0.0
N293 N 0.42829 0.80377 0.00451 0.0
C294 C 0.43497 0.77706 0.01495 0.0
Co295 Co 0.81037 0.58358 0.03884 0.0
Co296 Co 0.79668 0.52197 0.07948 0.0
O297 O 0.78627 0.55099 0.04913 0.0
C298 C 0.75528 0.60907 0.05641 0.0
O299 O 0.75573 0.59211 0.08059 0.0
C300 C 0.78272 0.48608 0.02453 0.0
O301 O 0.80271 0.49907 0.00856 0.0
O302 O 0.83417 0.51575 0.05877 0.0
O303 O 0.84553 0.55933 0.04081 0.0
H304 H 0.86181 0.47195 0.15437 0.0
H305 H 0.76102 0.56903 0.99892 0.0
O306 O 0.77564 0.60853 0.03685 0.0
H307 H 0.84531 0.56351 0.93073 0.0
H308 H 0.8344 0.67385 0.98132 0.0
H309 H 0.86589 0.60571 0.0614 0.0
H310 H 0.85052 0.57694 0.98566 0.0
H311 H 0.80492 0.63192 0.99436 0.0
O312 O 0.77826 0.49245 0.05277 0.0
H313 H 0.84825 0.50929 0.11689 0.0
H314 H 0.76677 0.47104 0.1052 0.0
H315 H 0.89615 0.64721 0.0489 0.0
H316 H 0.75481 0.5557 0.94406 0.0
H317 H 0.88043 0.68163 0.0086 0.0
H318 H 0.79717 0.55284 0.90958 0.0
O319 O 0.81486 0.59352 0.08332 0.0
H320 H 0.69024 0.53552 0.08328 0.0
H321 H 0.77875 0.53156 0.145 0.0
H322 H 0.73286 0.54093 0.17109 0.0
H323 H 0.68817 0.54291 0.14019 0.0
H324 H 0.73662 0.52653 0.05806 0.0
H325 H 0.77952 0.43317 0.1424 0.0
H326 H 0.82731 0.43354 0.16735 0.0
O327 O 0.81466 0.55095 0.10718 0.0
C328 C 0.85185 0.53342 0.047 0.0
C329 C 0.84089 0.47161 0.14374 0.0
C330 C 0.79471 0.44983 0.13699 0.0
N331 N 0.80666 0.49249 0.10909 0.0
C332 C 0.83306 0.49275 0.12257 0.0
C333 C 0.78763 0.4713 0.1159 0.0
C334 C 0.82153 0.45005 0.15099 0.0
C335 C 0.77952 0.56802 0.984 0.0
N336 N 0.80607 0.5739 0.99543 0.0
C337 C 0.77589 0.56038 0.95299 0.0
C338 C 0.79967 0.55874 0.93366 0.0
C339 C 0.82669 0.56471 0.94552 0.0
C340 C 0.82951 0.57224 0.97666 0.0
C341 C 0.8415 0.65897 0.99887 0.0
C342 C 0.85901 0.6205 0.04369 0.0
C343 C 0.82488 0.63523 0.0064 0.0
N344 N 0.83381 0.61628 0.02843 0.0
C345 C 0.87619 0.644 0.03678 0.0
C346 C 0.86734 0.66332 0.01418 0.0
C347 C 0.81835 0.57791 0.10719 0.0
C348 C 0.70955 0.5346 0.09701 0.0
C349 C 0.75942 0.53247 0.13136 0.0
C350 C 0.73348 0.53772 0.14628 0.0
C351 C 0.70841 0.5388 0.12894 0.0
N352 N 0.76036 0.52836 0.10004 0.0
C353 C 0.73586 0.52937 0.08288 0.0
Co354 Co 0.51928 0.20475 0.91851 0.0
Co355 Co 0.58176 0.19361 0.95909 0.0
O356 O 0.54812 0.2165 0.94869 0.0
C357 C 0.48578 0.2192 0.97472 0.0
O358 O 0.50454 0.20509 0.99134 0.0
C359 C 0.6055 0.24946 0.94096 0.0
O360 O 0.58767 0.24923 0.91752 0.0
O361 O 0.59162 0.18895 0.9146 0.0
O362 O 0.54913 0.18867 0.89053 0.0
H363 H 0.64831 0.10987 0.94959 0.0
H364 H 0.52023 0.26469 0.94055 0.0
O365 O 0.48853 0.22082 0.94546 0.0
H366 H 0.53442 0.27031 0.82757 0.0
H367 H 0.42958 0.2175 0.8557 0.0
H368 H 0.50936 0.15277 0.8809 0.0
H369 H 0.52773 0.22375 0.85315 0.0
H370 H 0.46676 0.23208 0.89292 0.0
O371 O 0.6057 0.22897 0.96035 0.0
H372 H 0.60573 0.13866 0.93698 0.0
H373 H 0.6301 0.20101 0.00328 0.0
H374 H 0.47276 0.13741 0.84338 0.0
H375 H 0.52656 0.31173 0.91585 0.0
H376 H 0.43251 0.1699 0.83056 0.0
H377 H 0.53382 0.31473 0.85897 0.0
O378 O 0.51506 0.16697 0.93901 0.0
H379 H 0.5533 0.24962 0.05337 0.0
H380 H 0.57642 0.15393 0.01286 0.0
H381 H 0.56316 0.15948 0.0678 0.0
H382 H 0.55152 0.20761 0.0884 0.0
H383 H 0.56643 0.24305 0.9985 0.0
H384 H 0.67308 0.17302 0.01642 0.0
H385 H 0.68233 0.12704 0.98957 0.0
O386 O 0.5588 0.15762 0.95784 0.0
C387 C 0.57616 0.18548 0.8906 0.0
C388 C 0.64446 0.12983 0.96152 0.0
C389 C 0.65838 0.16529 0.999 0.0
N390 N 0.61532 0.17135 0.96956 0.0
C391 C 0.62035 0.14617 0.95454 0.0
C392 C 0.63404 0.18106 0.99142 0.0
C393 C 0.66356 0.13949 0.98394 0.0
C394 C 0.52306 0.26585 0.91574 0.0
N395 N 0.52348 0.24151 0.89831 0.0
C396 C 0.52676 0.29253 0.9019 0.0
C397 C 0.53089 0.2942 0.87 0.0
C398 C 0.53126 0.26928 0.85237 0.0
C399 C 0.52753 0.24297 0.867 0.0
C400 C 0.44704 0.20318 0.86105 0.0
C401 C 0.492 0.16708 0.8753 0.0
C402 C 0.46813 0.21129 0.88215 0.0
N403 N 0.49032 0.19337 0.88889 0.0
C404 C 0.4713 0.15824 0.8541 0.0
C405 C 0.44871 0.17647 0.84694 0.0
C406 C 0.53328 0.15018 0.95131 0.0
C407 C 0.5584 0.22855 0.04469 0.0
C408 C 0.57128 0.17492 0.02162 0.0
C409 C 0.56387 0.17795 0.05277 0.0
C410 C 0.55736 0.20496 0.06432 0.0
N411 N 0.57227 0.19817 0.00252 0.0
C412 C 0.56596 0.22472 0.01368 0.0
Co413 Co 0.19555 0.41927 0.04097 0.0
Co414 Co 0.204 0.48019 0.08471 0.0
O415 O 0.21731 0.45279 0.05384 0.0
C416 C 0.25078 0.39517 0.06096 0.0
O417 O 0.24798 0.41031 0.08636 0.0
C418 C 0.21925 0.51593 0.03057 0.0
O419 O 0.20547 0.49779 0.01287 0.0
O420 O 0.16684 0.48453 0.06296 0.0
O421 O 0.15892 0.44138 0.04194 0.0
H422 H 0.13336 0.52277 0.15915 0.0
H423 H 0.24588 0.4373 0.00427 0.0
O424 O 0.23174 0.39642 0.03991 0.0
H425 H 0.16445 0.44162 0.93202 0.0
H426 H 0.17937 0.33002 0.97853 0.0
H427 H 0.14047 0.39323 0.05957 0.0
H428 H 0.1575 0.42599 0.98602 0.0
H429 H 0.20577 0.37299 0.99492 0.0
O430 O 0.22039 0.51208 0.05972 0.0
H431 H 0.15063 0.48785 0.12071 0.0
H432 H 0.22943 0.53215 0.11354 0.0
H433 H 0.11325 0.35062 0.0437 0.0
H434 H 0.25384 0.45283 0.95038 0.0
H435 H 0.1327 0.31867 0.0029 0.0
H436 H 0.21292 0.45515 0.91387 0.0
O437 O 0.18952 0.40753 0.08479 0.0
H438 H 0.31095 0.47394 0.09127 0.0
H439 H 0.22095 0.46977 0.15038 0.0
H440 H 0.26675 0.46267 0.1775 0.0
H441 H 0.31218 0.46477 0.1479 0.0
H442 H 0.26466 0.48067 0.06502 0.0
H443 H 0.21294 0.56768 0.15173 0.0
H444 H 0.16462 0.56304 0.17491 0.0
O445 O 0.18759 0.44908 0.11064 0.0
C446 C 0.15076 0.46649 0.04935 0.0
C447 C 0.15449 0.52497 0.1493 0.0
C448 C 0.19914 0.5502 0.1451 0.0
N449 N 0.19109 0.50783 0.11509 0.0
C450 C 0.16442 0.50522 0.12759 0.0
C451 C 0.20834 0.53005 0.12344 0.0
C452 C 0.17203 0.54758 0.1581 0.0
C453 C 0.22802 0.43799 0.98843 0.0
N454 N 0.20128 0.43065 0.99824 0.0
C455 C 0.23264 0.44691 0.95798 0.0
C456 C 0.20966 0.44825 0.93753 0.0
C457 C 0.18245 0.44069 0.9477 0.0
C458 C 0.17863 0.43193 0.97833 0.0
C459 C 0.17065 0.3438 0.99629 0.0
C460 C 0.14898 0.37952 0.04167 0.0
C461 C 0.18552 0.36812 0.00571 0.0
N462 N 0.17454 0.3857 0.028 0.0
C463 C 0.13351 0.35538 0.03284 0.0
C464 C 0.14446 0.33745 0.00997 0.0
C465 C 0.1849 0.42205 0.10927 0.0
C466 C 0.29131 0.47307 0.10444 0.0
C467 C 0.24062 0.47066 0.13732 0.0
C468 C 0.26649 0.46668 0.15282 0.0
C469 C 0.29198 0.46788 0.1362 0.0
N470 N 0.24014 0.47578 0.10616 0.0
C471 C 0.26504 0.47698 0.08972 0.0
H472 H 0.16296 0.4456 0.16182 0.0
H473 H 0.15039 0.42166 0.20982 0.0
H474 H 0.176 0.34082 0.17081 0.0
H475 H 0.18799 0.36464 0.12195 0.0
H476 H 0.12653 0.33621 0.20095 0.0
H477 H 0.20276 0.39289 0.27633 0.0
H478 H 0.18109 0.41791 0.25552 0.0
H479 H 0.20484 0.39451 0.23463 0.0
C480 C 0.16605 0.42273 0.16334 0.0
C481 C 0.17666 0.40705 0.13805 0.0
C482 C 0.15909 0.40911 0.19098 0.0
C483 C 0.16304 0.37959 0.19424 0.0
C484 C 0.17313 0.3637 0.1689 0.0
H485 H 0.13221 0.31223 0.38154 0.0
H486 H 0.15644 0.32342 0.33272 0.0
C487 C 0.17988 0.37732 0.141 0.0
C488 C 0.15516 0.36545 0.2237 0.0
H489 H 0.16168 0.37218 0.30205 0.0
C490 C 0.13459 0.34371 0.22304 0.0
C491 C 0.1662 0.37467 0.25253 0.0
C492 C 0.19019 0.39605 0.25478 0.0
C493 C 0.12337 0.33233 0.2505 0.0
C494 C 0.13237 0.34362 0.2793 0.0
C495 C 0.15435 0.36393 0.27997 0.0
C496 C 0.1179 0.33617 0.30873 0.0
C497 C 0.10176 0.30855 0.24828 0.0
C498 C 0.08835 0.34025 0.31164 0.0
C499 C 0.07447 0.33372 0.33928 0.0
C500 C 0.08994 0.32346 0.36489 0.0
C501 C 0.11969 0.32011 0.36225 0.0
C502 C 0.13355 0.3264 0.33437 0.0
H503 H 0.10503 0.2957 0.22695 0.0
H504 H 0.10289 0.29413 0.26865 0.0
H505 H 0.07999 0.31787 0.24711 0.0
H506 H 0.07596 0.34873 0.29256 0.0
H507 H 0.05159 0.33688 0.34057 0.0
H508 H 0.33993 0.95021 0.65564 0.0
H509 H 0.35336 0.92747 0.70415 0.0
H510 H 0.32387 0.84633 0.66942 0.0
H511 H 0.31115 0.86886 0.6201 0.0
H512 H 0.32111 0.90037 0.74614 0.0
H513 H 0.40295 0.82613 0.69903 0.0
H514 H 0.38784 0.85468 0.67632 0.0
H515 H 0.36805 0.8223 0.68237 0.0
C516 C 0.33642 0.92748 0.65815 0.0
C517 C 0.32464 0.9113 0.63389 0.0
C518 C 0.34404 0.91452 0.68598 0.0
C519 C 0.3399 0.88516 0.69032 0.0
C520 C 0.32784 0.86892 0.66633 0.0
H521 H 0.36389 0.81654 0.87908 0.0
H522 H 0.34122 0.82997 0.83003 0.0
C523 C 0.32051 0.88183 0.6382 0.0
C524 C 0.34825 0.87198 0.72018 0.0
H525 H 0.39395 0.82374 0.75259 0.0
C526 C 0.33691 0.88348 0.7476 0.0
C527 C 0.36896 0.85005 0.72195 0.0
C528 C 0.38289 0.83769 0.6934 0.0
C529 C 0.34645 0.87439 0.77678 0.0
C530 C 0.3673 0.85259 0.77854 0.0
C531 C 0.37787 0.84037 0.75113 0.0
C532 C 0.38046 0.84396 0.80831 0.0
C533 C 0.33515 0.88921 0.80531 0.0
C534 C 0.41005 0.84678 0.81212 0.0
C535 C 0.42306 0.83878 0.83979 0.0
C536 C 0.40672 0.8279 0.86442 0.0
C537 C 0.37701 0.82514 0.86066 0.0
C538 C 0.36402 0.83288 0.8327 0.0
H539 H 0.32443 0.90971 0.79958 0.0
H540 H 0.31927 0.87524 0.81683 0.0
H541 H 0.35262 0.89358 0.82202 0.0
H542 H 0.42315 0.85534 0.79364 0.0
H543 H 0.44597 0.84125 0.84185 0.0
H544 H 0.94978 0.65947 0.34428 0.0
H545 H 0.92694 0.64629 0.29577 0.0
H546 H 0.8452 0.67235 0.3322 0.0
H547 H 0.86786 0.68489 0.38151 0.0
H548 H 0.84113 0.62277 0.30218 0.0
H549 H 0.90009 0.69878 0.22841 0.0
H550 H 0.92426 0.67664 0.24985 0.0
H551 H 0.90078 0.70075 0.27014 0.0
C552 C 0.92694 0.6625 0.34207 0.0
C553 C 0.91067 0.67343 0.36675 0.0
C554 C 0.91395 0.65517 0.31416 0.0
C555 C 0.8845 0.65909 0.31004 0.0
C556 C 0.86803 0.66946 0.33479 0.0
H557 H 0.81686 0.63481 0.1222 0.0
H558 H 0.82918 0.65663 0.17197 0.0
C559 C 0.88099 0.67655 0.36295 0.0
C560 C 0.87099 0.65125 0.2802 0.0
H561 H 0.87828 0.65896 0.20203 0.0
C562 C 0.84895 0.631 0.28029 0.0
C563 C 0.88069 0.66249 0.25165 0.0
C564 C 0.90253 0.68611 0.25 0.0
C565 C 0.83746 0.6205 0.25254 0.0
C566 C 0.84894 0.62991 0.22398 0.0
C567 C 0.86984 0.65135 0.22391 0.0
C568 C 0.84069 0.61677 0.19406 0.0
C569 C 0.81321 0.59937 0.25418 0.0
C570 C 0.8436 0.58723 0.18978 0.0
C571 C 0.83636 0.5747 0.16157 0.0
C572 C 0.82659 0.59154 0.13677 0.0
C573 C 0.82433 0.62125 0.14083 0.0
C574 C 0.83129 0.63374 0.16926 0.0
H575 H 0.80058 0.60223 0.27575 0.0
H576 H 0.79865 0.60149 0.23402 0.0
H577 H 0.82204 0.57739 0.25442 0.0
H578 H 0.85174 0.57382 0.2082 0.0
H579 H 0.83868 0.55181 0.15918 0.0
H580 H 0.63311 0.18805 0.87584 0.0
H581 H 0.65536 0.17623 0.82611 0.0
H582 H 0.57303 0.15264 0.78938 0.0
H583 H 0.5506 0.16521 0.83831 0.0
H584 H 0.65863 0.12724 0.79624 0.0
H585 H 0.60103 0.20363 0.72169 0.0
H586 H 0.60003 0.20581 0.7634 0.0
H587 H 0.57628 0.1821 0.74298 0.0
C588 C 0.61975 0.18049 0.85709 0.0
C589 C 0.59006 0.17775 0.861 0.0
C590 C 0.63247 0.17382 0.82868 0.0
C591 C 0.61576 0.16424 0.80376 0.0
C592 C 0.58624 0.16094 0.80788 0.0
H593 H 0.6583 0.05314 0.65602 0.0
H594 H 0.6454 0.07712 0.70397 0.0
C595 C 0.57348 0.16789 0.83605 0.0
C596 C 0.62916 0.15601 0.77396 0.0
H597 H 0.62163 0.16268 0.69568 0.0
C598 C 0.65086 0.13535 0.77427 0.0
C599 C 0.61956 0.16706 0.74526 0.0
C600 C 0.59818 0.19112 0.74332 0.0
C601 C 0.66199 0.12419 0.74666 0.0
C602 C 0.65046 0.13333 0.71802 0.0
C603 C 0.63005 0.15526 0.71765 0.0
C604 C 0.65803 0.11918 0.68844 0.0
C605 C 0.68584 0.10256 0.74853 0.0
C606 C 0.66816 0.13506 0.66315 0.0
C607 C 0.6751 0.12143 0.6353 0.0
C608 C 0.67205 0.09168 0.63237 0.0
C609 C 0.66127 0.07602 0.65756 0.0
C610 C 0.6541 0.08967 0.68515 0.0
H611 H 0.69869 0.10552 0.76992 0.0
H612 H 0.67657 0.08079 0.7493 0.0
H613 H 0.70027 0.10401 0.72819 0.0
H614 H 0.67103 0.15793 0.66509 0.0
H615 H 0.68334 0.1341 0.61632 0.0
H616 H 0.25892 0.06353 0.55179 0.0
H617 H 0.23106 0.10211 0.52892 0.0
H618 H 0.23926 0.06324 0.43887 0.0
H619 H 0.26746 0.02421 0.46164 0.0
H620 H 0.24856 0.13956 0.47477 0.0
H621 H 0.14999 0.07474 0.45757 0.0
H622 H 0.17696 0.06455 0.48536 0.0
H623 H 0.18384 0.0607 0.44476 0.0
C624 C 0.25495 0.06313 0.52709 0.0
C625 C 0.26533 0.04074 0.50852 0.0
C626 C 0.23907 0.08525 0.51408 0.0
C627 C 0.23301 0.08535 0.48233 0.0
C628 C 0.24364 0.06335 0.4635 0.0
H629 H 0.11188 0.20709 0.39961 0.0
H630 H 0.14529 0.16711 0.40517 0.0
C631 C 0.2598 0.0412 0.4765 0.0
C632 C 0.21511 0.10849 0.46952 0.0
H633 H 0.14651 0.1241 0.44888 0.0
C634 C 0.22635 0.13619 0.46863 0.0
C635 C 0.18625 0.10387 0.46142 0.0
C636 C 0.1733 0.07442 0.46232 0.0
C637 C 0.20919 0.15964 0.4608 0.0
C638 C 0.17985 0.15529 0.4545 0.0
C639 C 0.16896 0.12738 0.4539 0.0
C640 C 0.15979 0.17952 0.45079 0.0
C641 C 0.22256 0.18891 0.45974 0.0
C642 C 0.15645 0.19937 0.47485 0.0
C643 C 0.13749 0.22218 0.47177 0.0
C644 C 0.12124 0.22548 0.44462 0.0
C645 C 0.12417 0.20523 0.42076 0.0
C646 C 0.14325 0.18239 0.42387 0.0
H647 H 0.24584 0.1876 0.45497 0.0
H648 H 0.21242 0.20248 0.44175 0.0
H649 H 0.21977 0.19946 0.48254 0.0
H650 H 0.16841 0.19712 0.49618 0.0
H651 H 0.1356 0.23723 0.49071 0.0
H652 H 0.2068 0.88768 0.59905 0.0
H653 H 0.16663 0.85455 0.59359 0.0
H654 H 0.19714 0.83019 0.50313 0.0
H655 H 0.23743 0.8627 0.50852 0.0
H656 H 0.12389 0.85319 0.54965 0.0
H657 H 0.18685 0.75332 0.54511 0.0
H658 H 0.20188 0.78675 0.55801 0.0
H659 H 0.199 0.77899 0.51728 0.0
C660 C 0.20501 0.87517 0.57805 0.0
C661 C 0.22545 0.87766 0.55433 0.0
C662 C 0.18206 0.85625 0.57499 0.0
C663 C 0.17927 0.83945 0.54826 0.0
C664 C 0.19932 0.84236 0.52433 0.0
H665 H 0.06263 0.74051 0.44789 0.0
H666 H 0.10124 0.76851 0.47042 0.0
C667 C 0.22224 0.86114 0.52737 0.0
C668 C 0.15492 0.81955 0.54459 0.0
H669 H 0.13887 0.75079 0.52507 0.0
C670 C 0.12707 0.83068 0.5449 0.0
C671 C 0.15913 0.79014 0.53866 0.0
C672 C 0.18833 0.77653 0.54007 0.0
C673 C 0.10348 0.81349 0.53749 0.0
C674 C 0.10796 0.78453 0.52976 0.0
C675 C 0.1356 0.77308 0.53091 0.0
C676 C 0.08475 0.76666 0.51713 0.0
C677 C 0.07409 0.82663 0.5363 0.0
C678 C 0.06288 0.75607 0.53613 0.0
C679 C 0.04072 0.73982 0.52333 0.0
C680 C 0.04012 0.73417 0.49133 0.0
C681 C 0.06235 0.74457 0.47258 0.0
C682 C 0.08448 0.76053 0.4854 0.0
H683 H 0.07447 0.84994 0.54103 0.0
H684 H 0.06438 0.823 0.51317 0.0
H685 H 0.06016 0.8162 0.55374 0.0
H686 H 0.0629 0.76052 0.56074 0.0
H687 H 0.02385 0.73217 0.53834 0.0
H688 H 0.72055 0.96564 0.46546 0.0
H689 H 0.75004 0.92716 0.44362 0.0
H690 H 0.78532 0.91043 0.53402 0.0
H691 H 0.75623 0.94848 0.55598 0.0
H692 H 0.82637 0.91608 0.48305 0.0
H693 H 0.73817 0.83905 0.46041 0.0
H694 H 0.7342 0.87505 0.4464 0.0
H695 H 0.73429 0.86836 0.48727 0.0
C696 C 0.73452 0.95368 0.48067 0.0
C697 C 0.73591 0.96005 0.51248 0.0
C698 C 0.75128 0.93172 0.46817 0.0
C699 C 0.76969 0.91594 0.4873 0.0
C700 C 0.77122 0.92238 0.51892 0.0
H701 H 0.85678 0.75759 0.48818 0.0
H702 H 0.82603 0.7993 0.49459 0.0
C703 C 0.75447 0.94412 0.53142 0.0
C704 C 0.78763 0.89263 0.47482 0.0
H705 H 0.78503 0.82323 0.45092 0.0
C706 C 0.8174 0.89589 0.47554 0.0
C707 C 0.77572 0.86634 0.46536 0.0
C708 C 0.74386 0.8617 0.46487 0.0
C709 C 0.83567 0.87322 0.46787 0.0
C710 C 0.82378 0.84671 0.45908 0.0
C711 C 0.794 0.84368 0.45754 0.0
C712 C 0.84188 0.82123 0.45403 0.0
C713 C 0.86753 0.87732 0.4706 0.0
C714 C 0.86081 0.8197 0.42891 0.0
C715 C 0.87849 0.79585 0.42514 0.0
C716 C 0.87747 0.77317 0.44647 0.0
C717 C 0.8582 0.77472 0.4714 0.0
C718 C 0.84052 0.79847 0.47505 0.0
H719 H 0.87308 0.89771 0.48227 0.0
H720 H 0.87728 0.85942 0.48374 0.0
H721 H 0.87715 0.87748 0.44712 0.0
H722 H 0.86196 0.83698 0.4123 0.0
H723 H 0.89306 0.79529 0.40567 0.0
H724 H 0.76062 0.1362 0.50529 0.0
H725 H 0.80127 0.16815 0.49872 0.0
H726 H 0.82888 0.14991 0.59191 0.0
H727 H 0.78849 0.11733 0.59855 0.0
H728 H 0.8149 0.21672 0.53196 0.0
H729 H 0.90109 0.13532 0.54152 0.0
H730 H 0.86411 0.12578 0.53604 0.0
H731 H 0.8766 0.13681 0.5735 0.0
C732 C 0.77538 0.13884 0.52439 0.0
C733 C 0.77136 0.12412 0.55242 0.0
C734 C 0.79858 0.15717 0.5206 0.0
C735 C 0.81826 0.16117 0.5447 0.0
C736 C 0.81424 0.14671 0.57282 0.0
H737 H 0.97343 0.26758 0.53396 0.0
H738 H 0.93347 0.24031 0.55604 0.0
C739 C 0.79107 0.12822 0.57661 0.0
C740 C 0.84268 0.18082 0.54015 0.0
H741 H 0.91535 0.18298 0.53367 0.0
C742 C 0.83687 0.20939 0.5326 0.0
C743 C 0.87134 0.17124 0.54118 0.0
C744 C 0.8788 0.14058 0.54825 0.0
C745 C 0.8589 0.22844 0.52516 0.0
C746 C 0.88742 0.21858 0.52506 0.0
C747 C 0.8934 0.1904 0.5339 0.0
C748 C 0.91088 0.23625 0.51258 0.0
C749 C 0.85152 0.25883 0.51682 0.0
C750 C 0.91132 0.24278 0.48093 0.0
C751 C 0.93402 0.25804 0.46828 0.0
C752 C 0.95675 0.26719 0.48709 0.0
C753 C 0.95611 0.26099 0.51895 0.0
C754 C 0.93341 0.24539 0.53157 0.0
H755 H 0.83012 0.26501 0.5257 0.0
H756 H 0.86768 0.27387 0.52617 0.0
H757 H 0.85127 0.26103 0.49124 0.0
H758 H 0.8943 0.23555 0.46585 0.0
H759 H 0.93384 0.26247 0.44367 0.0
H760 H 0.24161 0.56138 0.06124 0.0
H761 H 0.26999 0.60027 0.04014 0.0
H762 H 0.26169 0.56461 0.9485 0.0
H763 H 0.23262 0.52555 0.96948 0.0
H764 H 0.32147 0.59471 0.01006 0.0
H765 H 0.24156 0.64873 0.93472 0.0
H766 H 0.2315 0.62307 0.96393 0.0
H767 H 0.24661 0.6112 0.92794 0.0
C768 C 0.24555 0.56185 0.03653 0.0
C769 C 0.23485 0.54035 0.01702 0.0
C770 C 0.26181 0.58413 0.02452 0.0
C771 C 0.2678 0.58546 0.99275 0.0
C772 C 0.25689 0.56426 0.97302 0.0
H773 H 0.37895 0.71137 0.90189 0.0
H774 H 0.34947 0.66904 0.91145 0.0
C775 C 0.24038 0.54193 0.98505 0.0
C776 C 0.28665 0.60844 0.98103 0.0
H777 H 0.28809 0.6681 0.93554 0.0
C778 C 0.31421 0.61065 0.99362 0.0
C779 C 0.27718 0.62912 0.95945 0.0
C780 C 0.24754 0.62818 0.94583 0.0
C781 C 0.33228 0.63335 0.98583 0.0
C782 C 0.32249 0.65447 0.96507 0.0
C783 C 0.2954 0.6518 0.95152 0.0
C784 C 0.33954 0.68035 0.95878 0.0
C785 C 0.36162 0.63486 0.00018 0.0
C786 C 0.34333 0.70076 0.98216 0.0
C787 C 0.35997 0.72495 0.9768 0.0
C788 C 0.3732 0.72914 0.94792 0.0
C789 C 0.3691 0.70874 0.9244 0.0
C790 C 0.35225 0.6846 0.92976 0.0
H791 H 0.36823 0.61406 0.01027 0.0
H792 H 0.37773 0.6415 0.98274 0.0
H793 H 0.36151 0.65102 0.01897 0.0
H794 H 0.33347 0.69788 0.00464 0.0
H795 H 0.36265 0.74023 0.9954 0.0
H796 H 0.701 0.60341 0.07859 0.0
H797 H 0.65979 0.63391 0.06733 0.0
H798 H 0.71357 0.68953 0.01315 0.0
H799 H 0.75443 0.65836 0.02302 0.0
H800 H 0.64641 0.68761 0.07836 0.0
H801 H 0.65298 0.67247 0.95144 0.0
H802 H 0.67437 0.65197 0.97806 0.0
H803 H 0.68517 0.68742 0.96688 0.0
C804 C 0.70398 0.62216 0.06427 0.0
C805 C 0.73079 0.62833 0.05131 0.0
C806 C 0.68045 0.63959 0.05789 0.0
C807 C 0.68341 0.66367 0.03877 0.0
C808 C 0.71052 0.67057 0.02708 0.0
H809 H 0.55316 0.79713 0.01801 0.0
H810 H 0.59377 0.76857 0.03623 0.0
C811 C 0.7339 0.65283 0.03288 0.0
C812 C 0.65807 0.68122 0.0306 0.0
H813 H 0.62134 0.70852 0.96917 0.0
C814 C 0.6408 0.69207 0.05448 0.0
C815 C 0.65046 0.68665 0.99943 0.0
C816 C 0.66654 0.67376 0.97251 0.0
C817 C 0.61625 0.70832 0.04805 0.0
C818 C 0.60935 0.71472 0.01689 0.0
C819 C 0.62668 0.70384 0.99309 0.0
C820 C 0.58379 0.73166 0.00797 0.0
C821 C 0.59759 0.71768 0.07467 0.0
C822 C 0.5649 0.72072 0.98569 0.0
C823 C 0.54237 0.73728 0.97465 0.0
C824 C 0.53786 0.765 0.98602 0.0
C825 C 0.55605 0.7757 0.0091 0.0
C826 C 0.57912 0.75931 0.01967 0.0
H827 H 0.60075 0.70392 0.09535 0.0
H828 H 0.60329 0.73984 0.0813 0.0
H829 H 0.57464 0.71722 0.06824 0.0
H830 H 0.56792 0.69947 0.97635 0.0
H831 H 0.52855 0.72841 0.95697 0.0
H832 H 0.7288 0.47133 0.04048 0.0
H833 H 0.70062 0.43149 0.02106 0.0
H834 H 0.76865 0.40899 0.95824 0.0
H835 H 0.79664 0.44996 0.97677 0.0
H836 H 0.71722 0.40137 0.93151 0.0
H837 H 0.71643 0.35111 0.04725 0.0
H838 H 0.70141 0.38627 0.04858 0.0
H839 H 0.73845 0.38157 0.0384 0.0
C840 C 0.73772 0.45804 0.02236 0.0
C841 C 0.76509 0.46346 0.01042 0.0
C842 C 0.72165 0.43516 0.01142 0.0
C843 C 0.73289 0.41668 0.98895 0.0
C844 C 0.75969 0.4228 0.97587 0.0
H845 H 0.65661 0.24843 0.97076 0.0
H846 H 0.68966 0.28799 0.97873 0.0
C847 C 0.77565 0.44616 0.98643 0.0
C848 C 0.71683 0.39065 0.97999 0.0
H849 H 0.68274 0.33294 0.0107 0.0
C850 C 0.7099 0.3862 0.94873 0.0
C851 C 0.70786 0.37048 0.00238 0.0
C852 C 0.71671 0.37241 0.03595 0.0
C853 C 0.6934 0.36265 0.93942 0.0
C854 C 0.68279 0.34358 0.96214 0.0
C855 C 0.69049 0.34767 0.99325 0.0
C856 C 0.66374 0.31917 0.95456 0.0
C857 C 0.68798 0.35828 0.90531 0.0
C858 C 0.63815 0.32335 0.93813 0.0
C859 C 0.61947 0.30053 0.93298 0.0
C860 C 0.62566 0.27335 0.94497 0.0
C861 C 0.6512 0.2692 0.96142 0.0
C862 C 0.67012 0.29181 0.96594 0.0
H863 H 0.70501 0.36825 0.89104 0.0
H864 H 0.68675 0.33526 0.89937 0.0
H865 H 0.66745 0.36856 0.89895 0.0
H866 H 0.63221 0.34437 0.92996 0.0
H867 H 0.59978 0.30436 0.92047 0.0
H868 H 0.43867 0.24102 0.94651 0.0
H869 H 0.39993 0.26832 0.96986 0.0
H870 H 0.43918 0.25956 0.05965 0.0
H871 H 0.47839 0.23191 0.03638 0.0
H872 H 0.36276 0.24998 0.02388 0.0
H873 H 0.42674 0.34891 0.04213 0.0
H874 H 0.43709 0.32234 0.01396 0.0
H875 H 0.44114 0.31507 0.05445 0.0
C876 C 0.43913 0.24476 0.97126 0.0
C877 C 0.46168 0.23437 0.9896 0.0
C878 C 0.41691 0.26032 0.98455 0.0
C879 C 0.41685 0.26607 0.01637 0.0
C880 C 0.43902 0.25543 0.03497 0.0
H881 H 0.29444 0.38493 0.10184 0.0
H882 H 0.33474 0.35206 0.09523 0.0
C883 C 0.46128 0.23957 0.02168 0.0
C884 C 0.39356 0.28363 0.02947 0.0
H885 H 0.37736 0.35181 0.05117 0.0
C886 C 0.36595 0.27214 0.03031 0.0
C887 C 0.39792 0.31243 0.03794 0.0
C888 C 0.42725 0.32566 0.03708 0.0
C889 C 0.34235 0.28898 0.03851 0.0
C890 C 0.34644 0.31826 0.04523 0.0
C891 C 0.37426 0.32941 0.04582 0.0
C892 C 0.32201 0.33803 0.04955 0.0
C893 C 0.31321 0.2753 0.03955 0.0
C894 C 0.30185 0.34147 0.0258 0.0
C895 C 0.27884 0.36012 0.02949 0.0
C896 C 0.27564 0.37597 0.05693 0.0
C897 C 0.2962 0.37295 0.08047 0.0
C898 C 0.31923 0.35418 0.07676 0.0
H899 H 0.31478 0.25198 0.04392 0.0
H900 H 0.29964 0.28506 0.0578 0.0
H901 H 0.3025 0.27831 0.01686 0.0
H902 H 0.304 0.32983 0.00426 0.0
H903 H 0.26356 0.36209 0.01077 0.0
H904 H 0.01873 0.62222 0.44275 0.0
H905 H 0.02959 0.57135 0.44714 0.0
H906 H 0.9473 0.5566 0.48885 0.0
H907 H 0.93624 0.60743 0.48495 0.0
H908 H 0.99326 0.52582 0.51711 0.0
H909 H 0.99042 0.513 0.3892 0.0
H910 H 0.01447 0.53999 0.40305 0.0
H911 H 0.97668 0.54432 0.40849 0.0
C912 C 0.00303 0.60829 0.45322 0.0
C913 C 0.97647 0.61898 0.46321 0.0
C914 C 0.00924 0.57917 0.45556 0.0
C915 C 0.98903 0.56019 0.46781 0.0
C916 C 0.96311 0.57091 0.47917 0.0
H917 H 0.98162 0.37773 0.43599 0.0
H918 H 0.97063 0.42841 0.44201 0.0
C919 C 0.95684 0.6 0.47686 0.0
C920 C 0.9943 0.52901 0.4674 0.0
H921 H 0.00439 0.47268 0.41845 0.0
C922 C 0.99571 0.51415 0.49558 0.0
C923 C 0.99701 0.51383 0.43923 0.0
C924 C 0.99433 0.52848 0.40823 0.0
C925 C 1.00026 0.4845 0.49633 0.0
C926 C 0.00369 0.46947 0.46816 0.0
C927 C 0.00188 0.4843 0.44001 0.0
C928 C 0.0093 0.43834 0.46717 0.0
C929 C 0.00091 0.46941 0.52717 0.0
C930 C 0.03462 0.4271 0.47952 0.0
C931 C 0.04103 0.39812 0.47612 0.0
C932 C 0.02225 0.37981 0.46017 0.0
C933 C 0.99655 0.39109 0.44849 0.0
C934 C 0.99023 0.42009 0.45184 0.0
H935 H 0.99104 0.48252 0.54577 0.0
H936 H 0.9896 0.44863 0.52587 0.0
H937 H 0.02343 0.46516 0.53373 0.0
H938 H 0.04987 0.44091 0.49095 0.0
H939 H 0.06105 0.39026 0.48534 0.0
H940 H 0.60778 0.06094 0.5124 0.0
H941 H 0.5571 0.04946 0.50796 0.0
H942 H 0.57111 0.97054 0.55697 0.0
H943 H 0.62188 0.9818 0.5618 0.0
H944 H 0.52748 0.00086 0.4827 0.0
H945 H 0.51085 0.01425 0.60934 0.0
H946 H 0.54252 0.0268 0.5898 0.0
H947 H 0.53854 0.98955 0.59864 0.0
C948 C 0.60024 0.04096 0.52199 0.0
C949 C 0.61897 0.02242 0.53773 0.0
C950 C 0.57123 0.03445 0.51937 0.0
C951 C 0.56033 0.00939 0.53255 0.0
C952 C 0.57908 0.99021 0.54705 0.0
H953 H 0.3911 0.93587 0.51553 0.0
H954 H 0.44184 0.9468 0.51064 0.0
C955 C 0.60813 0.99664 0.54964 0.0
C956 C 0.52916 0.00404 0.53239 0.0
H957 H 0.4714 0.99805 0.58013 0.0
C958 C 0.51516 1.00022 0.50396 0.0
C959 C 0.51315 0.00371 0.56016 0.0
C960 C 0.5269 0.00903 0.59124 0.0
C961 C 0.48554 0.99558 0.50262 0.0
C962 C 0.46966 0.99452 0.53046 0.0
C963 C 0.48365 0.99875 0.55883 0.0
C964 C 0.43851 0.9889 0.53092 0.0
C965 C 0.47141 0.9923 0.47143 0.0
C966 C 0.41976 0.0089 0.54406 0.0
C967 C 0.3907 0.00271 0.54705 0.0
C968 C 0.37983 0.97624 0.53716 0.0
C969 C 0.39863 0.95651 0.52332 0.0
C970 C 0.42768 0.96276 0.52033 0.0
H971 H 0.48495 0.0009 0.45248 0.0
H972 H 0.46774 0.9693 0.46679 0.0
H973 H 0.45042 0.00333 0.47093 0.0
H974 H 0.42773 0.02916 0.55251 0.0
H975 H 0.37695 0.0184 0.5579 0.0
H976 H 0.48321 0.12353 0.93541 0.0
H977 H 0.47171 0.07284 0.94033 0.0
H978 H 0.55342 0.05748 0.98321 0.0
H979 H 0.56509 0.10804 0.97873 0.0
H980 H 0.50269 0.02821 0.91338 0.0
H981 H 0.49759 0.01604 0.04112 0.0
H982 H 0.49586 0.05038 0.02221 0.0
H983 H 0.52963 0.03272 0.02717 0.0
C984 C 0.4986 0.10951 0.94633 0.0
C985 C 0.52508 0.11999 0.95671 0.0
C986 C 0.492 0.08051 0.94905 0.0
C987 C 0.51159 0.06146 0.96242 0.0
C988 C 0.53778 0.07188 0.97334 0.0
H989 H 0.51617 0.87745 0.93448 0.0
H990 H 0.52814 0.92815 0.93824 0.0
C991 C 0.54445 0.10084 0.97059 0.0
C992 C 0.50542 0.03042 0.96308 0.0
H993 H 0.49744 0.97325 0.01142 0.0
C994 C 0.50145 0.0162 0.93481 0.0
C995 C 0.50367 0.01487 0.99109 0.0
C996 C 0.50665 0.02927 0.02217 0.0
C997 C 0.4961 0.98675 0.93375 0.0
C998 C 0.49506 0.97105 0.9617 0.0
C999 C 0.49862 0.98531 0.99002 0.0
C1000 C 0.48916 0.93999 0.96189 0.0
C1001 C 0.49111 0.97274 0.90274 0.0
C1002 C 0.46377 0.92972 0.97495 0.0
C1003 C 0.45686 0.90078 0.97293 0.0
C1004 C 0.47534 0.88145 0.95795 0.0
C1005 C 0.50139 0.89167 0.94609 0.0
C1006 C 0.50822 0.92068 0.94805 0.0
H1007 H 0.48649 0.98865 0.88433 0.0
H1008 H 0.51052 0.96068 0.89593 0.0
H1009 H 0.47305 0.95744 0.90402 0.0
H1010 H 0.44885 0.94428 0.98585 0.0
H1011 H 0.43667 0.89374 0.98246 0.0
H1012 H 0.10986 0.43524 0.01909 0.0
H1013 H 0.05903 0.44604 0.01438 0.0
H1014 H 0.07181 0.52573 0.0623 0.0
H1015 H 0.12269 0.51514 0.06739 0.0
H1016 H 0.02762 0.49162 0.08677 0.0
H1017 H 0.01702 0.50474 0.95943 0.0
H1018 H 0.03462 0.47254 0.97167 0.0
H1019 H 0.05102 0.5065 0.9791 0.0
C1020 C 0.10202 0.45528 0.02828 0.0
C1021 C 0.12049 0.47432 0.04364 0.0
C1022 C 0.07292 0.46145 0.02543 0.0
C1023 C 0.06171 0.48679 0.03775 0.0
C1024 C 0.0801 0.5061 0.05253 0.0
H1025 H 0.89523 0.56373 0.02012 0.0
H1026 H 0.94555 0.55062 0.01676 0.0
C1027 C 0.10921 0.50002 0.05532 0.0
C1028 C 0.03055 0.49235 0.03704 0.0
H1029 H 0.97404 0.50367 0.98852 0.0
C1030 C 0.01589 0.49427 0.0653 0.0
C1031 C 0.01537 0.49593 0.00899 0.0
C1032 C 0.03027 0.49508 0.97803 0.0
C1033 C 0.98641 0.49957 0.06631 0.0
C1034 C 0.97111 0.50266 0.03826 0.0
C1035 C 0.98579 0.50093 0.00996 0.0
C1036 C 0.94014 0.5092 0.03801 0.0
C1037 C 0.97198 0.50248 0.09741 0.0
C1038 C 0.92025 0.48989 0.05032 0.0
C1039 C 0.89135 0.49728 0.05233 0.0
C1040 C 0.88182 0.52414 0.04197 0.0
C1041 C 0.90173 0.54292 0.02847 0.0
C1042 C 0.93055 0.53547 0.02646 0.0
H1043 H 0.98764 0.50566 0.11641 0.0
H1044 H 0.95678 0.52069 0.09739 0.0
H1045 H 0.95974 0.48274 0.1024 0.0
H1046 H 0.92719 0.4693 0.05892 0.0
H1047 H 0.87666 0.48224 0.06274 0.0
loop_
_geom_bond_atom_site_label_1
_geom_bond_atom_site_label_2
_geom_bond_distance
_geom_bond_site_symmetry_2
_ccdc_geom_bond_type
Co0 O2 2.143 . S
Co0 O8 2.074 . S
Co0 O11 2.093 1_455 S
Co0 O24 2.097 . S
Co0 N41 2.151 . S
Co0 N49 2.214 1_455 S
Co1 O2 2.160 . S
Co1 O7 2.058 . S
Co1 O17 2.057 . S
Co1 O32 2.037 . S
Co1 N36 2.145 . S
Co1 N57 2.257 . S
O2 Co0 2.143 . S
O2 Co1 2.160 . S
C3 O4 1.278 1_655 S
C3 O11 1.224 . S
O4 C3 1.278 1_455 S
C5 O6 1.245 . S
C5 O17 1.232 . S
O6 C5 1.245 . S
O7 Co1 2.058 . S
O7 C33 1.269 . S
O8 Co0 2.074 . S
O8 C33 1.257 . S
H9 C34 0.930 . S
H10 C40 0.930 . S
O11 Co0 2.093 1_655 S
O11 C3 1.224 . S
H12 C44 0.929 . S
H13 C46 0.930 . S
H14 C47 0.930 . S
H15 C45 0.929 . S
H16 C48 0.928 . S
O17 Co1 2.057 . S
O17 C5 1.232 . S
H18 C37 0.929 . S
H19 C38 0.929 . S
H20 C50 0.931 . S
H21 C42 0.929 . S
H22 C51 0.930 . S
H23 C43 0.931 . S
O24 Co0 2.097 . S
O24 C52 1.214 . S
H25 C53 0.929 . S
H26 C54 0.929 . S
H27 C55 0.930 . S
H28 C56 0.929 . S
H29 C58 0.930 . S
H30 C35 0.930 . S
H31 C39 0.930 . S
O32 Co1 2.037 . S
O32 C52 1.234 . S
C33 O7 1.269 . S
C33 O8 1.257 . S
C34 H9 0.930 . S
C34 C37 1.388 . S
C34 C39 1.418 . S
C35 H30 0.930 . S
C35 C38 1.404 . S
C35 C39 1.353 . S
N36 Co1 2.145 . S
N36 C37 1.397 . S
N36 C38 1.334 . S
C37 H18 0.929 . S
C37 C34 1.388 . S
C37 N36 1.397 . S
C38 H19 0.929 . S
C38 C35 1.404 . S
C38 N36 1.334 . S
C39 H31 0.930 . S
C39 C34 1.418 . S
C39 C35 1.353 . S
C40 H10 0.930 . S
C40 N41 1.330 . S
C40 C42 1.446 . S
N41 Co0 2.151 . S
N41 C40 1.330 . S
N41 C45 1.418 . S
C42 H21 0.929 . S
C42 C40 1.446 . S
C42 C43 1.332 . S
C43 H23 0.931 . S
C43 C42 1.332 . S
C43 C44 1.267 . S
C44 H12 0.929 . S
C44 C43 1.267 . S
C44 C45 1.251 . S
C45 H15 0.929 . S
C45 N41 1.418 . S
C45 C44 1.251 . S
C46 H13 0.930 . S
C46 C48 1.406 . S
C46 C51 1.261 . S
C47 H14 0.930 . S
C47 N49 1.325 1_455 S
C47 C50 1.357 1_455 S
C48 H16 0.928 . S
C48 C46 1.406 . S
C48 N49 1.261 . S
N49 Co0 2.214 1_655 S
N49 C47 1.325 1_655 S
N49 C48 1.261 . S
C50 H20 0.931 . S
C50 C47 1.357 1_655 S
C50 C51 1.312 . S
C51 H22 0.930 . S
C51 C46 1.261 . S
C51 C50 1.312 . S
C52 O24 1.214 . S
C52 O32 1.234 . S
C53 H25 0.929 . S
C53 C56 1.391 . S
C53 C58 1.391 . S
C54 H26 0.929 . S
C54 C55 1.390 . S
C54 N57 1.391 . S
C55 H27 0.930 . S
C55 C54 1.390 . S
C55 C56 1.392 . S
C56 H28 0.929 . S
C56 C53 1.391 . S
C56 C55 1.392 . S
N57 Co1 2.257 . S
N57 C54 1.391 . S
N57 C58 1.388 . S
C58 H29 0.930 . S
C58 C53 1.391 . S
C58 N57 1.388 . S
Co59 O61 2.143 . S
Co59 O67 2.074 . S
Co59 O70 2.093 1_565 S
Co59 O83 2.097 . S
Co59 N100 2.151 . S
Co59 N108 2.188 1_565 S
Co60 O61 2.160 . S
Co60 O66 2.058 . S
Co60 O76 2.057 . S
Co60 O91 2.037 . S
Co60 N95 2.145 . S
Co60 N116 2.257 . S
O61 Co59 2.143 . S
O61 Co60 2.160 . S
C62 O63 1.278 1_545 S
C62 O70 1.224 . S
O63 C62 1.278 1_565 S
C64 O65 1.245 . S
C64 O76 1.232 . S
O65 C64 1.245 . S
O66 Co60 2.058 . S
O66 C92 1.269 . S
O67 Co59 2.074 . S
O67 C92 1.257 . S
H68 C93 0.930 . S
H69 C99 0.930 . S
O70 Co59 2.093 1_545 S
O70 C62 1.224 . S
H71 C103 0.929 . S
H72 C105 0.930 . S
H73 C106 0.930 . S
H74 C104 0.929 . S
H75 C107 0.928 . S
O76 Co60 2.057 . S
O76 C64 1.232 . S
H77 C96 0.929 . S
H78 C97 0.929 . S
H79 C109 0.931 . S
H80 C101 0.929 . S
H81 C110 0.930 . S
H82 C102 0.931 . S
O83 Co59 2.097 . S
O83 C111 1.214 . S
H84 C112 0.929 . S
H85 C113 0.929 . S
H86 C114 0.930 . S
H87 C115 0.929 . S
H88 C117 0.930 . S
H89 C94 0.930 . S
H90 C98 0.930 . S
O91 Co60 2.037 . S
O91 C111 1.234 . S
C92 O66 1.269 . S
C92 O67 1.257 . S
C93 H68 0.930 . S
C93 C96 1.388 . S
C93 C98 1.418 . S
C94 H89 0.930 . S
C94 C97 1.404 . S
C94 C98 1.353 . S
N95 Co60 2.145 . S
N95 C96 1.397 . S
N95 C97 1.334 . S
C96 H77 0.929 . S
C96 C93 1.388 . S
C96 N95 1.397 . S
C97 H78 0.929 . S
C97 C94 1.404 . S
C97 N95 1.334 . S
C98 H90 0.930 . S
C98 C93 1.418 . S
C98 C94 1.353 . S
C99 H69 0.930 . S
C99 N100 1.330 . S
C99 C101 1.446 . S
N100 Co59 2.151 . S
N100 C99 1.330 . S
N100 C104 1.418 . S
C101 H80 0.929 . S
C101 C99 1.446 . S
C101 C102 1.332 . S
C102 H82 0.931 . S
C102 C101 1.332 . S
C102 C103 1.267 . S
C103 H71 0.929 . S
C103 C102 1.267 . S
C103 C104 1.251 . S
C104 H74 0.929 . S
C104 N100 1.418 . S
C104 C103 1.251 . S
C105 H72 0.930 . S
C105 C107 1.406 . S
C105 C110 1.261 . S
C106 H73 0.930 . S
C106 N108 1.318 1_565 S
C106 C109 1.357 1_565 S
C107 H75 0.928 . S
C107 C105 1.406 . S
C107 N108 1.295 . S
N108 Co59 2.188 1_545 S
N108 C106 1.318 1_545 S
N108 C107 1.295 . S
C109 H79 0.931 . S
C109 C106 1.357 1_545 S
C109 C110 1.312 . S
C110 H81 0.930 . S
C110 C105 1.261 . S
C110 C109 1.312 . S
C111 O83 1.214 . S
C111 O91 1.234 . S
C112 H84 0.929 . S
C112 C115 1.391 . S
C112 C117 1.391 . S
C113 H85 0.929 . S
C113 C114 1.390 . S
C113 N116 1.391 . S
C114 H86 0.930 . S
C114 C113 1.390 . S
C114 C115 1.392 . S
C115 H87 0.929 . S
C115 C112 1.391 . S
C115 C114 1.392 . S
N116 Co60 2.257 . S
N116 C113 1.391 . S
N116 C117 1.388 . S
C117 H88 0.930 . S
C117 C112 1.391 . S
C117 N116 1.388 . S
Co118 O120 2.143 . S
Co118 O126 2.074 . S
Co118 O129 2.093 1_655 S
Co118 O142 2.097 . S
Co118 N159 2.151 . S
Co118 N167 2.214 1_655 S
Co119 O120 2.160 . S
Co119 O125 2.058 . S
Co119 O135 2.057 . S
Co119 O150 2.037 . S
Co119 N154 2.145 . S
Co119 N175 2.257 . S
O120 Co118 2.143 . S
O120 Co119 2.160 . S
C121 O122 1.278 1_455 S
C121 O129 1.224 . S
O122 C121 1.278 1_655 S
C123 O124 1.245 . S
C123 O135 1.232 . S
O124 C123 1.245 . S
O125 Co119 2.058 . S
O125 C151 1.269 . S
O126 Co118 2.074 . S
O126 C151 1.257 . S
H127 C152 0.930 . S
H128 C158 0.930 . S
O129 Co118 2.093 1_455 S
O129 C121 1.224 . S
H130 C162 0.929 . S
H131 C164 0.930 . S
H132 C165 0.930 . S
H133 C163 0.929 . S
H134 C166 0.928 . S
O135 Co119 2.057 . S
O135 C123 1.232 . S
H136 C155 0.929 . S
H137 C156 0.929 . S
H138 C168 0.931 . S
H139 C160 0.929 . S
H140 C169 0.930 . S
H141 C161 0.931 . S
O142 Co118 2.097 . S
O142 C170 1.214 . S
H143 C171 0.929 . S
H144 C172 0.929 . S
H145 C173 0.930 . S
H146 C174 0.929 . S
H147 C176 0.930 . S
H148 C153 0.930 . S
H149 C157 0.930 . S
O150 Co119 2.037 . S
O150 C170 1.234 . S
C151 O125 1.269 . S
C151 O126 1.257 . S
C152 H127 0.930 . S
C152 C155 1.388 . S
C152 C157 1.418 . S
C153 H148 0.930 . S
C153 C156 1.404 . S
C153 C157 1.353 . S
N154 Co119 2.145 . S
N154 C155 1.397 . S
N154 C156 1.334 . S
C155 H136 0.929 . S
C155 C152 1.388 . S
C155 N154 1.397 . S
C156 H137 0.929 . S
C156 C153 1.404 . S
C156 N154 1.334 . S
C157 H149 0.930 . S
C157 C152 1.418 . S
C157 C153 1.353 . S
C158 H128 0.930 . S
C158 N159 1.330 . S
C158 C160 1.446 . S
N159 Co118 2.151 . S
N159 C158 1.330 . S
N159 C163 1.418 . S
C160 H139 0.929 . S
C160 C158 1.446 . S
C160 C161 1.332 . S
C161 H141 0.931 . S
C161 C160 1.332 . S
C161 C162 1.267 . S
C162 H130 0.929 . S
C162 C161 1.267 . S
C162 C163 1.251 . S
C163 H133 0.929 . S
C163 N159 1.418 . S
C163 C162 1.251 . S
C164 H131 0.930 . S
C164 C166 1.406 . S
C164 C169 1.261 . S
C165 H132 0.930 . S
C165 N167 1.325 1_655 S
C165 C168 1.357 1_655 S
C166 H134 0.928 . S
C166 C164 1.406 . S
C166 N167 1.261 . S
N167 Co118 2.214 1_455 S
N167 C165 1.325 1_455 S
N167 C166 1.261 . S
C168 H138 0.931 . S
C168 C165 1.357 1_455 S
C168 C169 1.312 . S
C169 H140 0.930 . S
C169 C164 1.261 . S
C169 C168 1.312 . S
C170 O142 1.214 . S
C170 O150 1.234 . S
C171 H143 0.929 . S
C171 C174 1.391 . S
C171 C176 1.391 . S
C172 H144 0.929 . S
C172 C173 1.390 . S
C172 N175 1.391 . S
C173 H145 0.930 . S
C173 C172 1.390 . S
C173 C174 1.392 . S
C174 H146 0.929 . S
C174 C171 1.391 . S
C174 C173 1.392 . S
N175 Co119 2.257 . S
N175 C172 1.391 . S
N175 C176 1.388 . S
C176 H147 0.930 . S
C176 C171 1.391 . S
C176 N175 1.388 . S
Co177 O179 2.143 . S
Co177 O185 2.074 . S
Co177 O188 2.093 1_545 S
Co177 O201 2.097 . S
Co177 N218 2.151 . S
Co177 N226 2.188 1_545 S
Co178 O179 2.160 . S
Co178 O184 2.058 . S
Co178 O194 2.057 . S
Co178 O209 2.037 . S
Co178 N213 2.145 . S
Co178 N234 2.257 . S
O179 Co177 2.143 . S
O179 Co178 2.160 . S
C180 O181 1.278 1_565 S
C180 O188 1.224 . S
O181 C180 1.278 1_545 S
C182 O183 1.245 . S
C182 O194 1.232 . S
O183 C182 1.245 . S
O184 Co178 2.058 . S
O184 C210 1.269 . S
O185 Co177 2.074 . S
O185 C210 1.257 . S
H186 C211 0.930 . S
H187 C217 0.930 . S
O188 Co177 2.093 1_565 S
O188 C180 1.224 . S
H189 C221 0.929 . S
H190 C223 0.930 . S
H191 C224 0.930 . S
H192 C222 0.929 . S
H193 C225 0.928 . S
O194 Co178 2.057 . S
O194 C182 1.232 . S
H195 C214 0.929 . S
H196 C215 0.929 . S
H197 C227 0.931 . S
H198 C219 0.929 . S
H199 C228 0.930 . S
H200 C220 0.931 . S
O201 Co177 2.097 . S
O201 C229 1.214 . S
H202 C230 0.929 . S
H203 C231 0.929 . S
H204 C232 0.930 . S
H205 C233 0.929 . S
H206 C235 0.930 . S
H207 C212 0.930 . S
H208 C216 0.930 . S
O209 Co178 2.037 . S
O209 C229 1.234 . S
C210 O184 1.269 . S
C210 O185 1.257 . S
C211 H186 0.930 . S
C211 C214 1.388 . S
C211 C216 1.418 . S
C212 H207 0.930 . S
C212 C215 1.404 . S
C212 C216 1.353 . S
N213 Co178 2.145 . S
N213 C214 1.397 . S
N213 C215 1.334 . S
C214 H195 0.929 . S
C214 C211 1.388 . S
C214 N213 1.397 . S
C215 H196 0.929 . S
C215 C212 1.404 . S
C215 N213 1.334 . S
C216 H208 0.930 . S
C216 C211 1.418 . S
C216 C212 1.353 . S
C217 H187 0.930 . S
C217 N218 1.330 . S
C217 C219 1.446 . S
N218 Co177 2.151 . S
N218 C217 1.330 . S
N218 C222 1.418 . S
C219 H198 0.929 . S
C219 C217 1.446 . S
C219 C220 1.332 . S
C220 H200 0.931 . S
C220 C219 1.332 . S
C220 C221 1.267 . S
C221 H189 0.929 . S
C221 C220 1.267 . S
C221 C222 1.251 . S
C222 H192 0.929 . S
C222 N218 1.418 . S
C222 C221 1.251 . S
C223 H190 0.930 . S
C223 C225 1.406 . S
C223 C228 1.261 . S
C224 H191 0.930 . S
C224 N226 1.318 1_545 S
C224 C227 1.357 1_545 S
C225 H193 0.928 . S
C225 C223 1.406 . S
C225 N226 1.295 . S
N226 Co177 2.188 1_565 S
N226 C224 1.318 1_565 S
N226 C225 1.295 . S
C227 H197 0.931 . S
C227 C224 1.357 1_565 S
C227 C228 1.312 . S
C228 H199 0.930 . S
C228 C223 1.261 . S
C228 C227 1.312 . S
C229 O201 1.214 . S
C229 O209 1.234 . S
C230 H202 0.929 . S
C230 C233 1.391 . S
C230 C235 1.391 . S
C231 H203 0.929 . S
C231 C232 1.390 . S
C231 N234 1.391 . S
C232 H204 0.930 . S
C232 C231 1.390 . S
C232 C233 1.392 . S
C233 H205 0.929 . S
C233 C230 1.391 . S
C233 C232 1.392 . S
N234 Co178 2.257 . S
N234 C231 1.391 . S
N234 C235 1.388 . S
C235 H206 0.930 . S
C235 C230 1.391 . S
C235 N234 1.388 . S
Co236 O238 2.143 . S
Co236 O244 2.074 . S
Co236 O247 2.093 . S
Co236 O260 2.097 . S
Co236 N277 2.151 . S
Co236 N285 2.214 . S
Co237 O238 2.160 . S
Co237 O243 2.058 . S
Co237 O253 2.057 . S
Co237 O268 2.037 . S
Co237 N272 2.145 . S
Co237 N293 2.257 1_556 S
O238 Co236 2.143 . S
O238 Co237 2.160 . S
C239 O240 1.276 1_556 S
C239 O247 1.224 . S
O240 C239 1.276 1_554 S
C241 O242 1.245 . S
C241 O253 1.232 . S
O242 C241 1.245 . S
O243 Co237 2.058 . S
O243 C269 1.269 . S
O244 Co236 2.074 . S
O244 C269 1.257 . S
H245 C270 0.930 . S
H246 C276 0.930 . S
O247 Co236 2.093 . S
O247 C239 1.224 . S
H248 C280 0.929 . S
H249 C282 0.930 . S
H250 C283 0.930 . S
H251 C281 0.929 . S
H252 C284 0.928 . S
O253 Co237 2.057 . S
O253 C241 1.232 . S
H254 C273 0.929 . S
H255 C274 0.929 . S
H256 C286 0.931 . S
H257 C278 0.929 . S
H258 C287 0.930 . S
H259 C279 0.931 . S
O260 Co236 2.097 . S
O260 C288 1.214 . S
H261 C289 0.929 . S
H262 C290 0.929 . S
H263 C291 0.930 . S
H264 C292 0.929 . S
H265 C294 0.930 . S
H266 C271 0.930 . S
H267 C275 0.930 . S
O268 Co237 2.037 . S
O268 C288 1.234 . S
C269 O243 1.269 . S
C269 O244 1.257 . S
C270 H245 0.930 . S
C270 C273 1.388 . S
C270 C275 1.418 1_556 S
C271 H266 0.930 . S
C271 C274 1.404 . S
C271 C275 1.353 . S
N272 Co237 2.145 . S
N272 C273 1.397 . S
N272 C274 1.334 1_556 S
C273 H254 0.929 . S
C273 C270 1.388 . S
C273 N272 1.397 . S
C274 H255 0.929 . S
C274 C271 1.404 . S
C274 N272 1.334 1_554 S
C275 H267 0.930 . S
C275 C270 1.418 1_554 S
C275 C271 1.353 . S
C276 H246 0.930 . S
C276 N277 1.330 . S
C276 C278 1.446 . S
N277 Co236 2.151 . S
N277 C276 1.330 . S
N277 C281 1.418 . S
C278 H257 0.929 . S
C278 C276 1.446 . S
C278 C279 1.332 . S
C279 H259 0.931 . S
C279 C278 1.332 . S
C279 C280 1.267 . S
C280 H248 0.929 . S
C280 C279 1.267 . S
C280 C281 1.251 . S
C281 H251 0.929 . S
C281 N277 1.418 . S
C281 C280 1.251 . S
C282 H249 0.930 . S
C282 C284 1.406 . S
C282 C287 1.261 . S
C283 H250 0.930 . S
C283 N285 1.325 . S
C283 C286 1.357 . S
C284 H252 0.928 . S
C284 C282 1.406 . S
C284 N285 1.261 . S
N285 Co236 2.214 . S
N285 C283 1.325 . S
N285 C284 1.261 . S
C286 H256 0.931 . S
C286 C283 1.357 . S
C286 C287 1.312 . S
C287 H258 0.930 . S
C287 C282 1.261 . S
C287 C286 1.312 . S
C288 O260 1.214 . S
C288 O268 1.234 . S
C289 H261 0.929 . S
C289 C292 1.391 . S
C289 C294 1.391 . S
C290 H262 0.929 . S
C290 C291 1.390 . S
C290 N293 1.391 . S
C291 H263 0.930 . S
C291 C290 1.390 . S
C291 C292 1.392 . S
C292 H264 0.929 . S
C292 C289 1.391 . S
C292 C291 1.392 . S
N293 Co237 2.257 1_554 S
N293 C290 1.391 . S
N293 C294 1.388 . S
C294 H265 0.930 . S
C294 C289 1.391 . S
C294 N293 1.388 . S
Co295 O297 2.143 . S
Co295 O303 2.074 . S
Co295 O306 2.093 . S
Co295 O319 2.097 . S
Co295 N336 2.151 1_554 S
Co295 N344 2.214 . S
Co296 O297 2.160 . S
Co296 O302 2.058 . S
Co296 O312 2.057 . S
Co296 O327 2.037 . S
Co296 N331 2.145 . S
Co296 N352 2.257 . S
O297 Co295 2.143 . S
O297 Co296 2.160 . S
C298 O299 1.278 . S
C298 O306 1.224 . S
O299 C298 1.278 . S
C300 O301 1.245 1_554 S
C300 O312 1.232 . S
O301 C300 1.245 1_556 S
O302 Co296 2.058 . S
O302 C328 1.269 . S
O303 Co295 2.074 . S
O303 C328 1.257 . S
H304 C329 0.930 . S
H305 C335 0.930 . S
O306 Co295 2.093 . S
O306 C298 1.224 . S
H307 C339 0.929 . S
H308 C341 0.930 1_556 S
H309 C342 0.930 . S
H310 C340 0.929 . S
H311 C343 0.928 1_556 S
O312 Co296 2.057 . S
O312 C300 1.232 . S
H313 C332 0.929 . S
H314 C333 0.929 . S
H315 C345 0.931 . S
H316 C337 0.929 . S
H317 C346 0.930 . S
H318 C338 0.931 . S
O319 Co295 2.097 . S
O319 C347 1.214 . S
H320 C348 0.929 . S
H321 C349 0.929 . S
H322 C350 0.930 . S
H323 C351 0.929 . S
H324 C353 0.930 . S
H325 C330 0.930 . S
H326 C334 0.930 . S
O327 Co296 2.037 . S
O327 C347 1.234 . S
C328 O302 1.269 . S
C328 O303 1.257 . S
C329 H304 0.930 . S
C329 C332 1.388 . S
C329 C334 1.418 . S
C330 H325 0.930 . S
C330 C333 1.404 . S
C330 C334 1.353 . S
N331 Co296 2.145 . S
N331 C332 1.397 . S
N331 C333 1.334 . S
C332 H313 0.929 . S
C332 C329 1.388 . S
C332 N331 1.397 . S
C333 H314 0.929 . S
C333 C330 1.404 . S
C333 N331 1.334 . S
C334 H326 0.930 . S
C334 C329 1.418 . S
C334 C330 1.353 . S
C335 H305 0.930 . S
C335 N336 1.330 . S
C335 C337 1.446 . S
N336 Co295 2.151 1_556 S
N336 C335 1.330 . S
N336 C340 1.418 . S
C337 H316 0.929 . S
C337 C335 1.446 . S
C337 C338 1.332 . S
C338 H318 0.931 . S
C338 C337 1.332 . S
C338 C339 1.267 . S
C339 H307 0.929 . S
C339 C338 1.267 . S
C339 C340 1.251 . S
C340 H310 0.929 . S
C340 N336 1.418 . S
C340 C339 1.251 . S
C341 H308 0.930 1_554 S
C341 C343 1.406 . S
C341 C346 1.261 . S
C342 H309 0.930 . S
C342 N344 1.325 . S
C342 C345 1.357 . S
C343 H311 0.928 1_554 S
C343 C341 1.406 . S
C343 N344 1.261 . S
N344 Co295 2.214 . S
N344 C342 1.325 . S
N344 C343 1.261 . S
C345 H315 0.931 . S
C345 C342 1.357 . S
C345 C346 1.312 . S
C346 H317 0.930 . S
C346 C341 1.261 . S
C346 C345 1.312 . S
C347 O319 1.214 . S
C347 O327 1.234 . S
C348 H320 0.929 . S
C348 C351 1.391 . S
C348 C353 1.391 . S
C349 H321 0.929 . S
C349 C350 1.390 . S
C349 N352 1.391 . S
C350 H322 0.930 . S
C350 C349 1.390 . S
C350 C351 1.392 . S
C351 H323 0.929 . S
C351 C348 1.391 . S
C351 C350 1.392 . S
N352 Co296 2.257 . S
N352 C349 1.391 . S
N352 C353 1.388 . S
C353 H324 0.930 . S
C353 C348 1.391 . S
C353 N352 1.388 . S
Co354 O356 2.143 . S
Co354 O362 2.074 . S
Co354 O365 2.093 . S
Co354 O378 2.097 . S
Co354 N395 2.151 . S
Co354 N403 2.214 . S
Co355 O356 2.160 . S
Co355 O361 2.058 . S
Co355 O371 2.057 . S
Co355 O386 2.037 . S
Co355 N390 2.145 . S
Co355 N411 2.257 1_556 S
O356 Co354 2.143 . S
O356 Co355 2.160 . S
C357 O358 1.276 1_556 S
C357 O365 1.224 . S
O358 C357 1.276 1_554 S
C359 O360 1.245 . S
C359 O371 1.232 . S
O360 C359 1.245 . S
O361 Co355 2.058 . S
O361 C387 1.269 . S
O362 Co354 2.074 . S
O362 C387 1.257 . S
H363 C388 0.930 . S
H364 C394 0.930 . S
O365 Co354 2.093 . S
O365 C357 1.224 . S
H366 C398 0.929 . S
H367 C400 0.930 . S
H368 C401 0.930 . S
H369 C399 0.929 . S
H370 C402 0.928 . S
O371 Co355 2.057 . S
O371 C359 1.232 . S
H372 C391 0.929 . S
H373 C392 0.929 . S
H374 C404 0.931 . S
H375 C396 0.929 . S
H376 C405 0.930 . S
H377 C397 0.931 . S
O378 Co354 2.097 . S
O378 C406 1.214 . S
H379 C407 0.929 . S
H380 C408 0.929 . S
H381 C409 0.930 . S
H382 C410 0.929 . S
H383 C412 0.930 . S
H384 C389 0.930 . S
H385 C393 0.930 . S
O386 Co355 2.037 . S
O386 C406 1.234 . S
C387 O361 1.269 . S
C387 O362 1.257 . S
C388 H363 0.930 . S
C388 C391 1.388 . S
C388 C393 1.418 1_556 S
C389 H384 0.930 . S
C389 C392 1.404 . S
C389 C393 1.353 . S
N390 Co355 2.145 . S
N390 C391 1.397 . S
N390 C392 1.334 1_556 S
C391 H372 0.929 . S
C391 C388 1.388 . S
C391 N390 1.397 . S
C392 H373 0.929 . S
C392 C389 1.404 . S
C392 N390 1.334 1_554 S
C393 H385 0.930 . S
C393 C388 1.418 1_554 S
C393 C389 1.353 . S
C394 H364 0.930 . S
C394 N395 1.330 . S
C394 C396 1.446 . S
N395 Co354 2.151 . S
N395 C394 1.330 . S
N395 C399 1.418 . S
C396 H375 0.929 . S
C396 C394 1.446 . S
C396 C397 1.332 . S
C397 H377 0.931 . S
C397 C396 1.332 . S
C397 C398 1.267 . S
C398 H366 0.929 . S
C398 C397 1.267 . S
C398 C399 1.251 . S
C399 H369 0.929 . S
C399 N395 1.418 . S
C399 C398 1.251 . S
C400 H367 0.930 . S
C400 C402 1.406 . S
C400 C405 1.261 . S
C401 H368 0.930 . S
C401 N403 1.325 . S
C401 C404 1.357 . S
C402 H370 0.928 . S
C402 C400 1.406 . S
C402 N403 1.261 . S
N403 Co354 2.214 . S
N403 C401 1.325 . S
N403 C402 1.261 . S
C404 H374 0.931 . S
C404 C401 1.357 . S
C404 C405 1.312 . S
C405 H376 0.930 . S
C405 C400 1.261 . S
C405 C404 1.312 . S
C406 O378 1.214 . S
C406 O386 1.234 . S
C407 H379 0.929 . S
C407 C410 1.391 . S
C407 C412 1.391 . S
C408 H380 0.929 . S
C408 C409 1.390 . S
C408 N411 1.391 . S
C409 H381 0.930 . S
C409 C408 1.390 . S
C409 C410 1.392 . S
C410 H382 0.929 . S
C410 C407 1.391 . S
C410 C409 1.392 . S
N411 Co355 2.257 1_554 S
N411 C408 1.391 . S
N411 C412 1.388 . S
C412 H383 0.930 . S
C412 C407 1.391 . S
C412 N411 1.388 . S
Co413 O415 2.143 . S
Co413 O421 2.074 . S
Co413 O424 2.093 . S
Co413 O437 2.097 . S
Co413 N454 2.151 1_554 S
Co413 N462 2.214 . S
Co414 O415 2.160 . S
Co414 O420 2.058 . S
Co414 O430 2.057 . S
Co414 O445 2.037 . S
Co414 N449 2.145 . S
Co414 N470 2.257 . S
O415 Co413 2.143 . S
O415 Co414 2.160 . S
C416 O417 1.278 . S
C416 O424 1.224 . S
O417 C416 1.278 . S
C418 O419 1.245 1_554 S
C418 O430 1.232 . S
O419 C418 1.245 1_556 S
O420 Co414 2.058 . S
O420 C446 1.269 . S
O421 Co413 2.074 . S
O421 C446 1.257 . S
H422 C447 0.930 . S
H423 C453 0.930 . S
O424 Co413 2.093 . S
O424 C416 1.224 . S
H425 C457 0.929 . S
H426 C459 0.930 1_556 S
H427 C460 0.930 . S
H428 C458 0.929 . S
H429 C461 0.928 1_556 S
O430 Co414 2.057 . S
O430 C418 1.232 . S
H431 C450 0.929 . S
H432 C451 0.929 . S
H433 C463 0.931 . S
H434 C455 0.929 . S
H435 C464 0.930 . S
H436 C456 0.931 . S
O437 Co413 2.097 . S
O437 C465 1.214 . S
H438 C466 0.929 . S
H439 C467 0.929 . S
H440 C468 0.930 . S
H441 C469 0.929 . S
H442 C471 0.930 . S
H443 C448 0.930 . S
H444 C452 0.930 . S
O445 Co414 2.037 . S
O445 C465 1.234 . S
C446 O420 1.269 . S
C446 O421 1.257 . S
C447 H422 0.930 . S
C447 C450 1.388 . S
C447 C452 1.418 . S
C448 H443 0.930 . S
C448 C451 1.404 . S
C448 C452 1.353 . S
N449 Co414 2.145 . S
N449 C450 1.397 . S
N449 C451 1.334 . S
C450 H431 0.929 . S
C450 C447 1.388 . S
C450 N449 1.397 . S
C451 H432 0.929 . S
C451 C448 1.404 . S
C451 N449 1.334 . S
C452 H444 0.930 . S
C452 C447 1.418 . S
C452 C448 1.353 . S
C453 H423 0.930 . S
C453 N454 1.330 . S
C453 C455 1.446 . S
N454 Co413 2.151 1_556 S
N454 C453 1.330 . S
N454 C458 1.418 . S
C455 H434 0.929 . S
C455 C453 1.446 . S
C455 C456 1.332 . S
C456 H436 0.931 . S
C456 C455 1.332 . S
C456 C457 1.267 . S
C457 H425 0.929 . S
C457 C456 1.267 . S
C457 C458 1.251 . S
C458 H428 0.929 . S
C458 N454 1.418 . S
C458 C457 1.251 . S
C459 H426 0.930 1_554 S
C459 C461 1.406 . S
C459 C464 1.261 . S
C460 H427 0.930 . S
C460 N462 1.325 . S
C460 C463 1.357 . S
C461 H429 0.928 1_554 S
C461 C459 1.406 . S
C461 N462 1.261 . S
N462 Co413 2.214 . S
N462 C460 1.325 . S
N462 C461 1.261 . S
C463 H433 0.931 . S
C463 C460 1.357 . S
C463 C464 1.312 . S
C464 H435 0.930 . S
C464 C459 1.261 . S
C464 C463 1.312 . S
C465 O437 1.214 . S
C465 O445 1.234 . S
C466 H438 0.929 . S
C466 C469 1.391 . S
C466 C471 1.391 . S
C467 H439 0.929 . S
C467 C468 1.390 . S
C467 N470 1.391 . S
C468 H440 0.930 . S
C468 C467 1.390 . S
C468 C469 1.392 . S
C469 H441 0.929 . S
C469 C466 1.391 . S
C469 C468 1.392 . S
N470 Co414 2.257 . S
N470 C467 1.391 . S
N470 C471 1.388 . S
C471 H442 0.930 . S
C471 C466 1.391 . S
C471 N470 1.388 . S
H472 C480 0.929 . S
H473 C482 0.930 . S
H474 C484 0.930 . S
H475 C487 0.929 . S
H476 C490 0.930 . S
H477 C492 0.960 . S
H478 C492 0.960 . S
H479 C492 0.960 . S
C480 H472 0.929 . S
C480 C481 1.377 . S
C480 C482 1.384 . S
C481 C480 1.377 . S
C481 C487 1.390 . S
C482 H473 0.930 . S
C482 C480 1.384 . S
C482 C483 1.372 . S
C483 C482 1.372 . S
C483 C484 1.400 . S
C483 C488 1.490 . S
C484 H474 0.930 . S
C484 C483 1.400 . S
C484 C487 1.386 . S
H485 C501 0.930 . S
H486 C502 0.931 . S
C487 H475 0.929 . S
C487 C481 1.390 . S
C487 C484 1.386 . S
C488 C483 1.490 . S
C488 C490 1.395 . S
C488 C491 1.403 . S
H489 C495 0.930 . S
C490 H476 0.930 . S
C490 C488 1.395 . S
C490 C493 1.403 . S
C491 C488 1.403 . S
C491 C492 1.524 . S
C491 C495 1.400 . S
C492 H477 0.960 . S
C492 H478 0.960 . S
C492 H479 0.960 . S
C492 C491 1.524 . S
C493 C490 1.403 . S
C493 C494 1.392 . S
C493 C497 1.495 . S
C494 C493 1.392 . S
C494 C495 1.385 . S
C494 C496 1.478 . S
C495 H489 0.930 . S
C495 C491 1.400 . S
C495 C494 1.385 . S
C496 C494 1.478 . S
C496 C498 1.381 . S
C496 C502 1.383 . S
C497 C493 1.495 . S
C497 H503 0.959 . S
C497 H504 0.961 . S
C497 H505 0.960 . S
C498 C496 1.381 . S
C498 C499 1.394 . S
C498 H506 0.930 . S
C499 C498 1.394 . S
C499 C500 1.383 . S
C499 H507 0.929 . S
C500 C499 1.383 . S
C500 C501 1.377 . S
C501 H485 0.930 . S
C501 C500 1.377 . S
C501 C502 1.379 . S
C502 H486 0.931 . S
C502 C496 1.383 . S
C502 C501 1.379 . S
H503 C497 0.959 . S
H504 C497 0.961 . S
H505 C497 0.960 . S
H506 C498 0.930 . S
H507 C499 0.929 . S
H508 C516 0.929 . S
H509 C518 0.930 . S
H510 C520 0.930 . S
H511 C523 0.929 . S
H512 C526 0.930 . S
H513 C528 0.960 . S
H514 C528 0.960 . S
H515 C528 0.960 . S
C516 H508 0.929 . S
C516 C517 1.377 . S
C516 C518 1.384 . S
C517 C516 1.377 . S
C517 C523 1.390 . S
C518 H509 0.930 . S
C518 C516 1.384 . S
C518 C519 1.372 . S
C519 C518 1.372 . S
C519 C520 1.400 . S
C519 C524 1.490 . S
C520 H510 0.930 . S
C520 C519 1.400 . S
C520 C523 1.386 . S
H521 C537 0.930 . S
H522 C538 0.931 . S
C523 H511 0.929 . S
C523 C517 1.390 . S
C523 C520 1.386 . S
C524 C519 1.490 . S
C524 C526 1.395 . S
C524 C527 1.403 . S
H525 C531 0.930 . S
C526 H512 0.930 . S
C526 C524 1.395 . S
C526 C529 1.403 . S
C527 C524 1.403 . S
C527 C528 1.524 . S
C527 C531 1.400 . S
C528 H513 0.960 . S
C528 H514 0.960 . S
C528 H515 0.960 . S
C528 C527 1.524 . S
C529 C526 1.403 . S
C529 C530 1.392 . S
C529 C533 1.495 . S
C530 C529 1.392 . S
C530 C531 1.385 . S
C530 C532 1.478 . S
C531 H525 0.930 . S
C531 C527 1.400 . S
C531 C530 1.385 . S
C532 C530 1.478 . S
C532 C534 1.381 . S
C532 C538 1.383 . S
C533 C529 1.495 . S
C533 H539 0.959 . S
C533 H540 0.961 . S
C533 H541 0.960 . S
C534 C532 1.381 . S
C534 C535 1.394 . S
C534 H542 0.930 . S
C535 C534 1.394 . S
C535 C536 1.383 . S
C535 H543 0.929 . S
C536 C535 1.383 . S
C536 C537 1.377 . S
C537 H521 0.930 . S
C537 C536 1.377 . S
C537 C538 1.379 . S
C538 H522 0.931 . S
C538 C532 1.383 . S
C538 C537 1.379 . S
H539 C533 0.959 . S
H540 C533 0.961 . S
H541 C533 0.960 . S
H542 C534 0.930 . S
H543 C535 0.929 . S
H544 C552 0.929 . S
H545 C554 0.930 . S
H546 C556 0.930 . S
H547 C559 0.929 . S
H548 C562 0.930 . S
H549 C564 0.960 . S
H550 C564 0.960 . S
H551 C564 0.960 . S
C552 H544 0.929 . S
C552 C553 1.377 . S
C552 C554 1.384 . S
C553 C552 1.377 . S
C553 C559 1.390 . S
C554 H545 0.930 . S
C554 C552 1.384 . S
C554 C555 1.372 . S
C555 C554 1.372 . S
C555 C556 1.400 . S
C555 C560 1.490 . S
C556 H546 0.930 . S
C556 C555 1.400 . S
C556 C559 1.386 . S
H557 C573 0.930 . S
H558 C574 0.931 . S
C559 H547 0.929 . S
C559 C553 1.390 . S
C559 C556 1.386 . S
C560 C555 1.490 . S
C560 C562 1.395 . S
C560 C563 1.403 . S
H561 C567 0.930 . S
C562 H548 0.930 . S
C562 C560 1.395 . S
C562 C565 1.403 . S
C563 C560 1.403 . S
C563 C564 1.524 . S
C563 C567 1.400 . S
C564 H549 0.960 . S
C564 H550 0.960 . S
C564 H551 0.960 . S
C564 C563 1.524 . S
C565 C562 1.403 . S
C565 C566 1.392 . S
C565 C569 1.495 . S
C566 C565 1.392 . S
C566 C567 1.385 . S
C566 C568 1.478 . S
C567 H561 0.930 . S
C567 C563 1.400 . S
C567 C566 1.385 . S
C568 C566 1.478 . S
C568 C570 1.381 . S
C568 C574 1.383 . S
C569 C565 1.495 . S
C569 H575 0.959 . S
C569 H576 0.961 . S
C569 H577 0.960 . S
C570 C568 1.381 . S
C570 C571 1.394 . S
C570 H578 0.930 . S
C571 C570 1.394 . S
C571 C572 1.383 . S
C571 H579 0.929 . S
C572 C571 1.383 . S
C572 C573 1.377 . S
C573 H557 0.930 . S
C573 C572 1.377 . S
C573 C574 1.379 . S
C574 H558 0.931 . S
C574 C568 1.383 . S
C574 C573 1.379 . S
H575 C569 0.959 . S
H576 C569 0.961 . S
H577 C569 0.960 . S
H578 C570 0.930 . S
H579 C571 0.929 . S
H580 C588 0.929 . S
H581 C590 0.930 . S
H582 C592 0.930 . S
H583 C595 0.929 . S
H584 C598 0.930 . S
H585 C600 0.960 . S
H586 C600 0.960 . S
H587 C600 0.960 . S
C588 H580 0.929 . S
C588 C589 1.377 . S
C588 C590 1.384 . S
C589 C588 1.377 . S
C589 C595 1.390 . S
C590 H581 0.930 . S
C590 C588 1.384 . S
C590 C591 1.372 . S
C591 C590 1.372 . S
C591 C592 1.400 . S
C591 C596 1.490 . S
C592 H582 0.930 . S
C592 C591 1.400 . S
C592 C595 1.386 . S
H593 C609 0.930 . S
H594 C610 0.931 . S
C595 H583 0.929 . S
C595 C589 1.390 . S
C595 C592 1.386 . S
C596 C591 1.490 . S
C596 C598 1.395 . S
C596 C599 1.403 . S
H597 C603 0.930 . S
C598 H584 0.930 . S
C598 C596 1.395 . S
C598 C601 1.403 . S
C599 C596 1.403 . S
C599 C600 1.524 . S
C599 C603 1.400 . S
C600 H585 0.960 . S
C600 H586 0.960 . S
C600 H587 0.960 . S
C600 C599 1.524 . S
C601 C598 1.403 . S
C601 C602 1.392 . S
C601 C605 1.495 . S
C602 C601 1.392 . S
C602 C603 1.385 . S
C602 C604 1.478 . S
C603 H597 0.930 . S
C603 C599 1.400 . S
C603 C602 1.385 . S
C604 C602 1.478 . S
C604 C606 1.381 . S
C604 C610 1.383 . S
C605 C601 1.495 . S
C605 H611 0.959 . S
C605 H612 0.961 . S
C605 H613 0.960 . S
C606 C604 1.381 . S
C606 C607 1.394 . S
C606 H614 0.930 . S
C607 C606 1.394 . S
C607 C608 1.383 . S
C607 H615 0.929 . S
C608 C607 1.383 . S
C608 C609 1.377 . S
C609 H593 0.930 . S
C609 C608 1.377 . S
C609 C610 1.379 . S
C610 H594 0.931 . S
C610 C604 1.383 . S
C610 C609 1.379 . S
H611 C605 0.959 . S
H612 C605 0.961 . S
H613 C605 0.960 . S
H614 C606 0.930 . S
H615 C607 0.929 . S
H616 C624 0.929 . S
H617 C626 0.930 . S
H618 C628 0.930 . S
H619 C631 0.929 . S
H620 C634 0.930 . S
H621 C636 0.960 . S
H622 C636 0.960 . S
H623 C636 0.960 . S
C624 H616 0.929 . S
C624 C625 1.377 . S
C624 C626 1.384 . S
C625 C624 1.377 . S
C625 C631 1.390 . S
C626 H617 0.930 . S
C626 C624 1.384 . S
C626 C627 1.372 . S
C627 C626 1.372 . S
C627 C628 1.400 . S
C627 C632 1.490 . S
C628 H618 0.930 . S
C628 C627 1.400 . S
C628 C631 1.386 . S
H629 C645 0.930 . S
H630 C646 0.931 . S
C631 H619 0.929 . S
C631 C625 1.390 . S
C631 C628 1.386 . S
C632 C627 1.490 . S
C632 C634 1.395 . S
C632 C635 1.403 . S
H633 C639 0.930 . S
C634 H620 0.930 . S
C634 C632 1.395 . S
C634 C637 1.403 . S
C635 C632 1.403 . S
C635 C636 1.524 . S
C635 C639 1.400 . S
C636 H621 0.960 . S
C636 H622 0.960 . S
C636 H623 0.960 . S
C636 C635 1.524 . S
C637 C634 1.403 . S
C637 C638 1.392 . S
C637 C641 1.495 . S
C638 C637 1.392 . S
C638 C639 1.385 . S
C638 C640 1.478 . S
C639 H633 0.930 . S
C639 C635 1.400 . S
C639 C638 1.385 . S
C640 C638 1.478 . S
C640 C642 1.381 . S
C640 C646 1.383 . S
C641 C637 1.495 . S
C641 H647 0.959 . S
C641 H648 0.961 . S
C641 H649 0.960 . S
C642 C640 1.381 . S
C642 C643 1.394 . S
C642 H650 0.930 . S
C643 C642 1.394 . S
C643 C644 1.383 . S
C643 H651 0.929 . S
C644 C643 1.383 . S
C644 C645 1.377 . S
C645 H629 0.930 . S
C645 C644 1.377 . S
C645 C646 1.379 . S
C646 H630 0.931 . S
C646 C640 1.383 . S
C646 C645 1.379 . S
H647 C641 0.959 . S
H648 C641 0.961 . S
H649 C641 0.960 . S
H650 C642 0.930 . S
H651 C643 0.929 . S
H652 C660 0.929 . S
H653 C662 0.930 . S
H654 C664 0.930 . S
H655 C667 0.929 . S
H656 C670 0.930 . S
H657 C672 0.960 . S
H658 C672 0.960 . S
H659 C672 0.960 . S
C660 H652 0.929 . S
C660 C661 1.377 . S
C660 C662 1.384 . S
C661 C660 1.377 . S
C661 C667 1.390 . S
C662 H653 0.930 . S
C662 C660 1.384 . S
C662 C663 1.372 . S
C663 C662 1.372 . S
C663 C664 1.400 . S
C663 C668 1.490 . S
C664 H654 0.930 . S
C664 C663 1.400 . S
C664 C667 1.386 . S
H665 C681 0.930 . S
H666 C682 0.931 . S
C667 H655 0.929 . S
C667 C661 1.390 . S
C667 C664 1.386 . S
C668 C663 1.490 . S
C668 C670 1.395 . S
C668 C671 1.403 . S
H669 C675 0.930 . S
C670 H656 0.930 . S
C670 C668 1.395 . S
C670 C673 1.403 . S
C671 C668 1.403 . S
C671 C672 1.524 . S
C671 C675 1.400 . S
C672 H657 0.960 . S
C672 H658 0.960 . S
C672 H659 0.960 . S
C672 C671 1.524 . S
C673 C670 1.403 . S
C673 C674 1.392 . S
C673 C677 1.495 . S
C674 C673 1.392 . S
C674 C675 1.385 . S
C674 C676 1.478 . S
C675 H669 0.930 . S
C675 C671 1.400 . S
C675 C674 1.385 . S
C676 C674 1.478 . S
C676 C678 1.381 . S
C676 C682 1.383 . S
C677 C673 1.495 . S
C677 H683 0.959 . S
C677 H684 0.961 . S
C677 H685 0.960 . S
C678 C676 1.381 . S
C678 C679 1.394 . S
C678 H686 0.930 . S
C679 C678 1.394 . S
C679 C680 1.383 . S
C679 H687 0.929 . S
C680 C679 1.383 . S
C680 C681 1.377 . S
C681 H665 0.930 . S
C681 C680 1.377 . S
C681 C682 1.379 . S
C682 H666 0.931 . S
C682 C676 1.383 . S
C682 C681 1.379 . S
H683 C677 0.959 . S
H684 C677 0.961 . S
H685 C677 0.960 . S
H686 C678 0.930 . S
H687 C679 0.929 . S
H688 C696 0.929 . S
H689 C698 0.930 . S
H690 C700 0.930 . S
H691 C703 0.929 . S
H692 C706 0.930 . S
H693 C708 0.960 . S
H694 C708 0.960 . S
H695 C708 0.960 . S
C696 H688 0.929 . S
C696 C697 1.377 . S
C696 C698 1.384 . S
C697 C696 1.377 . S
C697 C703 1.390 . S
C698 H689 0.930 . S
C698 C696 1.384 . S
C698 C699 1.372 . S
C699 C698 1.372 . S
C699 C700 1.400 . S
C699 C704 1.490 . S
C700 H690 0.930 . S
C700 C699 1.400 . S
C700 C703 1.386 . S
H701 C717 0.930 . S
H702 C718 0.931 . S
C703 H691 0.929 . S
C703 C697 1.390 . S
C703 C700 1.386 . S
C704 C699 1.490 . S
C704 C706 1.395 . S
C704 C707 1.403 . S
H705 C711 0.930 . S
C706 H692 0.930 . S
C706 C704 1.395 . S
C706 C709 1.403 . S
C707 C704 1.403 . S
C707 C708 1.524 . S
C707 C711 1.400 . S
C708 H693 0.960 . S
C708 H694 0.960 . S
C708 H695 0.960 . S
C708 C707 1.524 . S
C709 C706 1.403 . S
C709 C710 1.392 . S
C709 C713 1.495 . S
C710 C709 1.392 . S
C710 C711 1.385 . S
C710 C712 1.478 . S
C711 H705 0.930 . S
C711 C707 1.400 . S
C711 C710 1.385 . S
C712 C710 1.478 . S
C712 C714 1.381 . S
C712 C718 1.383 . S
C713 C709 1.495 . S
C713 H719 0.959 . S
C713 H720 0.961 . S
C713 H721 0.960 . S
C714 C712 1.381 . S
C714 C715 1.394 . S
C714 H722 0.930 . S
C715 C714 1.394 . S
C715 C716 1.383 . S
C715 H723 0.929 . S
C716 C715 1.383 . S
C716 C717 1.377 . S
C717 H701 0.930 . S
C717 C716 1.377 . S
C717 C718 1.379 . S
C718 H702 0.931 . S
C718 C712 1.383 . S
C718 C717 1.379 . S
H719 C713 0.959 . S
H720 C713 0.961 . S
H721 C713 0.960 . S
H722 C714 0.930 . S
H723 C715 0.929 . S
H724 C732 0.929 . S
H725 C734 0.930 . S
H726 C736 0.930 . S
H727 C739 0.929 . S
H728 C742 0.930 . S
H729 C744 0.960 . S
H730 C744 0.960 . S
H731 C744 0.960 . S
C732 H724 0.929 . S
C732 C733 1.377 . S
C732 C734 1.384 . S
C733 C732 1.377 . S
C733 C739 1.390 . S
C734 H725 0.930 . S
C734 C732 1.384 . S
C734 C735 1.372 . S
C735 C734 1.372 . S
C735 C736 1.400 . S
C735 C740 1.490 . S
C736 H726 0.930 . S
C736 C735 1.400 . S
C736 C739 1.386 . S
H737 C753 0.930 . S
H738 C754 0.931 . S
C739 H727 0.929 . S
C739 C733 1.390 . S
C739 C736 1.386 . S
C740 C735 1.490 . S
C740 C742 1.395 . S
C740 C743 1.403 . S
H741 C747 0.930 . S
C742 H728 0.930 . S
C742 C740 1.395 . S
C742 C745 1.403 . S
C743 C740 1.403 . S
C743 C744 1.524 . S
C743 C747 1.400 . S
C744 H729 0.960 . S
C744 H730 0.960 . S
C744 H731 0.960 . S
C744 C743 1.524 . S
C745 C742 1.403 . S
C745 C746 1.392 . S
C745 C749 1.495 . S
C746 C745 1.392 . S
C746 C747 1.385 . S
C746 C748 1.478 . S
C747 H741 0.930 . S
C747 C743 1.400 . S
C747 C746 1.385 . S
C748 C746 1.478 . S
C748 C750 1.381 . S
C748 C754 1.383 . S
C749 C745 1.495 . S
C749 H755 0.959 . S
C749 H756 0.961 . S
C749 H757 0.960 . S
C750 C748 1.381 . S
C750 C751 1.394 . S
C750 H758 0.930 . S
C751 C750 1.394 . S
C751 C752 1.383 . S
C751 H759 0.929 . S
C752 C751 1.383 . S
C752 C753 1.377 . S
C753 H737 0.930 . S
C753 C752 1.377 . S
C753 C754 1.379 . S
C754 H738 0.931 . S
C754 C748 1.383 . S
C754 C753 1.379 . S
H755 C749 0.959 . S
H756 C749 0.961 . S
H757 C749 0.960 . S
H758 C750 0.930 . S
H759 C751 0.929 . S
H760 C768 0.929 . S
H761 C770 0.930 . S
H762 C772 0.930 . S
H763 C775 0.929 . S
H764 C778 0.930 . S
H765 C780 0.960 . S
H766 C780 0.960 . S
H767 C780 0.960 . S
C768 H760 0.929 . S
C768 C769 1.377 . S
C768 C770 1.384 . S
C769 C768 1.377 . S
C769 C775 1.390 1_554 S
C770 H761 0.930 . S
C770 C768 1.384 . S
C770 C771 1.372 . S
C771 C770 1.372 . S
C771 C772 1.400 1_554 S
C771 C776 1.490 . S
C772 H762 0.930 . S
C772 C771 1.400 1_556 S
C772 C775 1.386 . S
H773 C789 0.930 . S
H774 C790 0.931 . S
C775 H763 0.929 . S
C775 C769 1.390 1_556 S
C775 C772 1.386 . S
C776 C771 1.490 . S
C776 C778 1.395 . S
C776 C779 1.403 1_554 S
H777 C783 0.930 . S
C778 H764 0.930 . S
C778 C776 1.395 . S
C778 C781 1.403 . S
C779 C776 1.403 1_556 S
C779 C780 1.524 . S
C779 C783 1.400 . S
C780 H765 0.960 . S
C780 H766 0.960 . S
C780 H767 0.960 . S
C780 C779 1.524 . S
C781 C778 1.403 . S
C781 C782 1.392 . S
C781 C785 1.495 . S
C782 C781 1.392 . S
C782 C783 1.386 1_554 S
C782 C784 1.478 1_554 S
C783 H777 0.930 . S
C783 C779 1.400 . S
C783 C782 1.386 1_556 S
C784 C782 1.478 1_556 S
C784 C786 1.381 1_556 S
C784 C790 1.383 . S
C785 C781 1.495 . S
C785 H791 0.959 . S
C785 H792 0.961 . S
C785 H793 0.960 . S
C786 C784 1.381 1_554 S
C786 C787 1.394 . S
C786 H794 0.930 . S
C787 C786 1.394 . S
C787 C788 1.383 1_554 S
C787 H795 0.929 . S
C788 C787 1.383 1_556 S
C788 C789 1.377 . S
C789 H773 0.930 . S
C789 C788 1.377 . S
C789 C790 1.379 . S
C790 H774 0.931 . S
C790 C784 1.383 . S
C790 C789 1.379 . S
H791 C785 0.959 . S
H792 C785 0.961 . S
H793 C785 0.960 . S
H794 C786 0.930 . S
H795 C787 0.929 . S
H796 C804 0.929 1_556 S
H797 C806 0.930 . S
H798 C808 0.930 . S
H799 C811 0.929 . S
H800 C814 0.930 . S
H801 C816 0.960 . S
H802 C816 0.960 . S
H803 C816 0.960 . S
C804 H796 0.929 1_554 S
C804 C805 1.377 . S
C804 C806 1.384 1_554 S
C805 C804 1.377 . S
C805 C811 1.390 . S
C806 H797 0.930 . S
C806 C804 1.384 1_556 S
C806 C807 1.372 1_556 S
C807 C806 1.372 1_554 S
C807 C808 1.400 . S
C807 C812 1.490 . S
C808 H798 0.930 . S
C808 C807 1.400 . S
C808 C811 1.386 . S
H809 C825 0.930 . S
H810 C826 0.931 . S
C811 H799 0.929 . S
C811 C805 1.390 . S
C811 C808 1.386 . S
C812 C807 1.490 . S
C812 C814 1.395 . S
C812 C815 1.403 1_554 S
H813 C819 0.930 . S
C814 H800 0.930 . S
C814 C812 1.395 . S
C814 C817 1.403 . S
C815 C812 1.403 1_556 S
C815 C816 1.524 . S
C815 C819 1.400 . S
C816 H801 0.960 . S
C816 H802 0.960 . S
C816 H803 0.960 . S
C816 C815 1.524 . S
C817 C814 1.403 . S
C817 C818 1.392 . S
C817 C821 1.495 . S
C818 C817 1.392 . S
C818 C819 1.385 1_554 S
C818 C820 1.478 1_554 S
C819 H813 0.930 . S
C819 C815 1.400 . S
C819 C818 1.385 1_556 S
C820 C818 1.478 1_556 S
C820 C822 1.381 . S
C820 C826 1.383 1_556 S
C821 C817 1.495 . S
C821 H827 0.959 . S
C821 H828 0.961 . S
C821 H829 0.960 . S
C822 C820 1.381 . S
C822 C823 1.394 . S
C822 H830 0.930 . S
C823 C822 1.394 . S
C823 C824 1.383 . S
C823 H831 0.929 . S
C824 C823 1.383 . S
C824 C825 1.377 1_556 S
C825 H809 0.930 . S
C825 C824 1.377 1_554 S
C825 C826 1.379 . S
C826 H810 0.931 . S
C826 C820 1.383 1_554 S
C826 C825 1.379 . S
H827 C821 0.959 . S
H828 C821 0.961 . S
H829 C821 0.960 . S
H830 C822 0.930 . S
H831 C823 0.929 . S
H832 C840 0.929 . S
H833 C842 0.930 . S
H834 C844 0.930 . S
H835 C847 0.929 . S
H836 C850 0.930 . S
H837 C852 0.960 . S
H838 C852 0.960 . S
H839 C852 0.960 . S
C840 H832 0.929 . S
C840 C841 1.377 . S
C840 C842 1.384 . S
C841 C840 1.377 . S
C841 C847 1.390 1_554 S
C842 H833 0.930 . S
C842 C840 1.384 . S
C842 C843 1.372 . S
C843 C842 1.372 . S
C843 C844 1.400 1_554 S
C843 C848 1.490 . S
C844 H834 0.930 . S
C844 C843 1.400 1_556 S
C844 C847 1.386 . S
H845 C861 0.930 . S
H846 C862 0.931 . S
C847 H835 0.929 . S
C847 C841 1.390 1_556 S
C847 C844 1.386 . S
C848 C843 1.490 . S
C848 C850 1.395 1_554 S
C848 C851 1.403 . S
H849 C855 0.930 . S
C850 H836 0.930 . S
C850 C848 1.395 1_556 S
C850 C853 1.403 . S
C851 C848 1.403 . S
C851 C852 1.524 . S
C851 C855 1.400 . S
C852 H837 0.960 . S
C852 H838 0.960 . S
C852 H839 0.960 . S
C852 C851 1.524 . S
C853 C850 1.403 . S
C853 C854 1.392 . S
C853 C857 1.495 . S
C854 C853 1.392 . S
C854 C855 1.385 1_556 S
C854 C856 1.478 . S
C855 H849 0.930 . S
C855 C851 1.400 . S
C855 C854 1.385 1_554 S
C856 C854 1.478 . S
C856 C858 1.381 1_556 S
C856 C862 1.383 . S
C857 C853 1.495 . S
C857 H863 0.959 . S
C857 H864 0.961 . S
C857 H865 0.960 . S
C858 C856 1.381 1_554 S
C858 C859 1.393 1_554 S
C858 H866 0.930 . S
C859 C858 1.393 1_556 S
C859 C860 1.395 . S
C859 H867 0.919 1_556 S
C860 C859 1.395 . S
C860 C861 1.377 . S
C861 H845 0.930 . S
C861 C860 1.377 . S
C861 C862 1.379 . S
C862 H846 0.931 . S
C862 C856 1.383 . S
C862 C861 1.379 . S
H863 C857 0.959 . S
H864 C857 0.961 . S
H865 C857 0.960 . S
H866 C858 0.930 . S
H867 C859 0.919 1_554 S
H868 C876 0.929 . S
H869 C878 0.930 . S
H870 C880 0.930 . S
H871 C883 0.929 . S
H872 C886 0.930 . S
H873 C888 0.960 . S
H874 C888 0.960 . S
H875 C888 0.960 1_554 S
C876 H868 0.929 . S
C876 C877 1.377 . S
C876 C878 1.384 . S
C877 C876 1.377 . S
C877 C883 1.390 1_556 S
C878 H869 0.930 . S
C878 C876 1.384 . S
C878 C879 1.372 . S
C879 C878 1.372 . S
C879 C880 1.400 1_556 S
C879 C884 1.490 . S
C880 H870 0.930 . S
C880 C879 1.400 1_554 S
C880 C883 1.386 . S
H881 C897 0.930 . S
H882 C898 0.931 . S
C883 H871 0.929 . S
C883 C877 1.390 1_554 S
C883 C880 1.386 . S
C884 C879 1.490 . S
C884 C886 1.395 . S
C884 C887 1.405 . S
H885 C891 0.930 . S
C886 H872 0.930 . S
C886 C884 1.395 . S
C886 C889 1.403 1_556 S
C887 C884 1.405 . S
C887 C888 1.527 . S
C887 C891 1.396 1_556 S
C888 H873 0.960 . S
C888 H874 0.960 . S
C888 H875 0.960 1_556 S
C888 C887 1.527 . S
C889 C886 1.403 1_554 S
C889 C890 1.392 . S
C889 C893 1.495 . S
C890 C889 1.392 . S
C890 C891 1.385 . S
C890 C892 1.478 . S
C891 H885 0.930 . S
C891 C887 1.396 1_554 S
C891 C890 1.385 . S
C892 C890 1.478 . S
C892 C894 1.381 1_554 S
C892 C898 1.383 . S
C893 C889 1.495 . S
C893 H899 0.959 . S
C893 H900 0.961 . S
C893 H901 0.960 1_554 S
C894 C892 1.381 1_556 S
C894 C895 1.394 . S
C894 H902 0.930 . S
C895 C894 1.394 . S
C895 C896 1.383 1_556 S
C895 H903 0.929 . S
C896 C895 1.383 1_554 S
C896 C897 1.377 . S
C897 H881 0.930 . S
C897 C896 1.377 . S
C897 C898 1.379 . S
C898 H882 0.931 . S
C898 C892 1.383 . S
C898 C897 1.379 . S
H899 C893 0.959 . S
H900 C893 0.961 . S
H901 C893 0.960 1_556 S
H902 C894 0.930 . S
H903 C895 0.929 . S
H904 C912 0.929 . S
H905 C914 0.930 . S
H906 C916 0.930 . S
H907 C919 0.929 . S
H908 C922 0.930 . S
H909 C924 0.960 . S
H910 C924 0.960 . S
H911 C924 0.960 . S
C912 H904 0.929 . S
C912 C913 1.377 . S
C912 C914 1.384 . S
C913 C912 1.377 . S
C913 C919 1.390 . S
C914 H905 0.930 . S
C914 C912 1.384 . S
C914 C915 1.372 . S
C915 C914 1.372 . S
C915 C916 1.400 . S
C915 C920 1.490 . S
C916 H906 0.930 . S
C916 C915 1.400 . S
C916 C919 1.386 . S
H917 C933 0.930 . S
H918 C934 0.931 . S
C919 H907 0.929 . S
C919 C913 1.390 . S
C919 C916 1.386 . S
C920 C915 1.490 . S
C920 C922 1.395 . S
C920 C923 1.403 1_655 S
H921 C927 0.930 . S
C922 H908 0.930 . S
C922 C920 1.395 . S
C922 C925 1.403 . S
C923 C920 1.403 1_455 S
C923 C924 1.524 . S
C923 C927 1.400 . S
C924 H909 0.960 . S
C924 H910 0.960 . S
C924 H911 0.960 . S
C924 C923 1.524 . S
C925 C922 1.403 . S
C925 C926 1.392 1_655 S
C925 C929 1.495 . S
C926 C925 1.392 1_455 S
C926 C927 1.385 . S
C926 C928 1.478 . S
C927 H921 0.930 . S
C927 C923 1.400 . S
C927 C926 1.385 . S
C928 C926 1.478 . S
C928 C930 1.381 . S
C928 C934 1.383 . S
C929 C925 1.495 . S
C929 H935 0.959 . S
C929 H936 0.961 . S
C929 H937 0.960 . S
C930 C928 1.381 . S
C930 C931 1.394 . S
C930 H938 0.930 . S
C931 C930 1.394 . S
C931 C932 1.383 . S
C931 H939 0.929 . S
C932 C931 1.383 . S
C932 C933 1.377 . S
C933 H917 0.930 . S
C933 C932 1.377 . S
C933 C934 1.379 . S
C934 H918 0.931 . S
C934 C928 1.383 . S
C934 C933 1.379 . S
H935 C929 0.959 . S
H936 C929 0.961 . S
H937 C929 0.960 . S
H938 C930 0.930 . S
H939 C931 0.929 . S
H940 C948 0.929 . S
H941 C950 0.930 . S
H942 C952 0.930 . S
H943 C955 0.929 . S
H944 C958 0.930 . S
H945 C960 0.960 . S
H946 C960 0.960 . S
H947 C960 0.960 . S
C948 H940 0.929 . S
C948 C949 1.377 . S
C948 C950 1.384 . S
C949 C948 1.377 . S
C949 C955 1.390 . S
C950 H941 0.930 . S
C950 C948 1.384 . S
C950 C951 1.372 . S
C951 C950 1.372 . S
C951 C952 1.400 . S
C951 C956 1.490 . S
C952 H942 0.930 . S
C952 C951 1.400 . S
C952 C955 1.386 . S
H953 C969 0.930 . S
H954 C970 0.931 . S
C955 H943 0.929 . S
C955 C949 1.390 . S
C955 C952 1.386 . S
C956 C951 1.490 . S
C956 C958 1.395 1_545 S
C956 C959 1.403 . S
H957 C963 0.930 . S
C958 H944 0.930 . S
C958 C956 1.395 1_565 S
C958 C961 1.403 . S
C959 C956 1.403 . S
C959 C960 1.524 . S
C959 C963 1.400 . S
C960 H945 0.960 . S
C960 H946 0.960 . S
C960 H947 0.960 . S
C960 C959 1.524 . S
C961 C958 1.403 . S
C961 C962 1.392 . S
C961 C965 1.495 . S
C962 C961 1.392 . S
C962 C963 1.385 1_565 S
C962 C964 1.478 . S
C963 H957 0.930 . S
C963 C959 1.400 . S
C963 C962 1.385 1_545 S
C964 C962 1.478 . S
C964 C966 1.381 . S
C964 C970 1.383 . S
C965 C961 1.495 . S
C965 H971 0.959 . S
C965 H972 0.961 . S
C965 H973 0.960 . S
C966 C964 1.381 . S
C966 C967 1.394 . S
C966 H974 0.930 . S
C967 C966 1.394 . S
C967 C968 1.383 . S
C967 H975 0.929 . S
C968 C967 1.383 . S
C968 C969 1.377 . S
C969 H953 0.930 . S
C969 C968 1.377 . S
C969 C970 1.379 . S
C970 H954 0.931 . S
C970 C964 1.383 . S
C970 C969 1.379 . S
H971 C965 0.959 . S
H972 C965 0.961 . S
H973 C965 0.960 . S
H974 C966 0.930 . S
H975 C967 0.929 . S
H976 C984 0.929 . S
H977 C986 0.930 . S
H978 C988 0.930 . S
H979 C991 0.929 . S
H980 C994 0.930 . S
H981 C996 0.960 . S
H982 C996 0.960 . S
H983 C996 0.960 . S
C984 H976 0.929 . S
C984 C985 1.377 . S
C984 C986 1.384 . S
C985 C984 1.377 . S
C985 C991 1.390 . S
C986 H977 0.930 . S
C986 C984 1.384 . S
C986 C987 1.372 . S
C987 C986 1.372 . S
C987 C988 1.400 . S
C987 C992 1.490 . S
C988 H978 0.930 . S
C988 C987 1.400 . S
C988 C991 1.386 . S
H989 C1005 0.930 . S
H990 C1006 0.931 . S
C991 H979 0.929 . S
C991 C985 1.390 . S
C991 C988 1.386 . S
C992 C987 1.490 . S
C992 C994 1.395 . S
C992 C995 1.403 . S
H993 C999 0.930 1_554 S
C994 H980 0.930 . S
C994 C992 1.395 . S
C994 C997 1.403 1_545 S
C995 C992 1.403 . S
C995 C996 1.524 1_556 S
C995 C999 1.400 1_545 S
C996 H981 0.960 . S
C996 H982 0.960 . S
C996 H983 0.960 . S
C996 C995 1.524 1_554 S
C997 C994 1.403 1_565 S
C997 C998 1.392 . S
C997 C1001 1.495 . S
C998 C997 1.392 . S
C998 C999 1.385 . S
C998 C1000 1.478 . S
C999 H993 0.930 1_556 S
C999 C995 1.400 1_565 S
C999 C998 1.385 . S
C1000 C998 1.478 . S
C1000 C1002 1.381 . S
C1000 C1006 1.383 . S
C1001 C997 1.495 . S
C1001 H1007 0.981 . S
C1001 H1008 0.961 . S
C1001 H1009 0.960 . S
C1002 C1000 1.381 . S
C1002 C1003 1.394 . S
C1002 H1010 0.930 . S
C1003 C1002 1.394 . S
C1003 C1004 1.383 . S
C1003 H1011 0.929 . S
C1004 C1003 1.383 . S
C1004 C1005 1.377 . S
C1005 H989 0.930 . S
C1005 C1004 1.377 . S
C1005 C1006 1.379 . S
C1006 H990 0.931 . S
C1006 C1000 1.383 . S
C1006 C1005 1.379 . S
H1007 C1001 0.981 . S
H1008 C1001 0.961 . S
H1009 C1001 0.960 . S
H1010 C1002 0.930 . S
H1011 C1003 0.929 . S
H1012 C1020 0.929 . S
H1013 C1022 0.930 . S
H1014 C1024 0.930 . S
H1015 C1027 0.929 . S
H1016 C1030 0.930 . S
H1017 C1032 0.960 . S
H1018 C1032 0.960 . S
H1019 C1032 0.960 . S
C1020 H1012 0.929 . S
C1020 C1021 1.377 . S
C1020 C1022 1.384 . S
C1021 C1020 1.377 . S
C1021 C1027 1.390 . S
C1022 H1013 0.930 . S
C1022 C1020 1.384 . S
C1022 C1023 1.372 . S
C1023 C1022 1.372 . S
C1023 C1024 1.400 . S
C1023 C1028 1.490 . S
C1024 H1014 0.930 . S
C1024 C1023 1.400 . S
C1024 C1027 1.386 . S
H1025 C1041 0.930 . S
H1026 C1042 0.931 . S
C1027 H1015 0.929 . S
C1027 C1021 1.390 . S
C1027 C1024 1.386 . S
C1028 C1023 1.490 . S
C1028 C1030 1.395 . S
C1028 C1031 1.403 . S
H1029 C1035 0.930 1_556 S
C1030 H1016 0.930 . S
C1030 C1028 1.395 . S
C1030 C1033 1.403 1_455 S
C1031 C1028 1.403 . S
C1031 C1032 1.524 1_554 S
C1031 C1035 1.400 1_455 S
C1032 H1017 0.960 . S
C1032 H1018 0.960 . S
C1032 H1019 0.960 . S
C1032 C1031 1.524 1_556 S
C1033 C1030 1.403 1_655 S
C1033 C1034 1.392 . S
C1033 C1037 1.495 . S
C1034 C1033 1.392 . S
C1034 C1035 1.385 . S
C1034 C1036 1.478 . S
C1035 H1029 0.930 1_554 S
C1035 C1031 1.400 1_655 S
C1035 C1034 1.385 . S
C1036 C1034 1.478 . S
C1036 C1038 1.381 . S
C1036 C1042 1.383 . S
C1037 C1033 1.495 . S
C1037 H1043 0.959 . S
C1037 H1044 0.961 . S
C1037 H1045 0.960 . S
C1038 C1036 1.381 . S
C1038 C1039 1.394 . S
C1038 H1046 0.930 . S
C1039 C1038 1.394 . S
C1039 C1040 1.383 . S
C1039 H1047 0.929 . S
C1040 C1039 1.383 . S
C1040 C1041 1.377 . S
C1041 H1025 0.930 . S
C1041 C1040 1.377 . S
C1041 C1042 1.379 . S
C1042 H1026 0.931 . S
C1042 C1036 1.383 . S
C1042 C1041 1.379 . S
H1043 C1037 0.959 . S
H1044 C1037 0.961 . S
H1045 C1037 0.960 . S
H1046 C1038 0.930 . S
H1047 C1039 0.929 . S
C481 C465 1.602 . S
C500 C33 1.596 . S
C517 C92 1.609 . S
C536 C269 1.608 . S
C553 C151 1.606 . S
C572 C347 1.592 . S
C589 C387 1.607 . S
C608 C210 1.605 . S
C625 C62 1.493 . S
C644 C5 1.495 . S
C661 C64 1.488 . S
C680 C121 1.500 . S
C697 C180 1.495 . S
C716 C123 1.482 . S
C733 C182 1.490 . S
C752 C3 1.486 . S
C769 C418 1.498 . S
C788 C241 1.485 . S
C805 C298 1.489 . S
C824 C239 1.504 . S
C841 C300 1.496 . S
C860 C359 1.467 . S
C877 C357 1.495 . S
C896 C416 1.484 . S
C913 C170 1.202 . S
C932 C52 1.195 . S
C949 C229 1.203 . S
C968 C111 1.210 . S
C985 C406 1.199 . S
C1004 C288 1.191 . S
C1021 C446 1.197 . S
C1040 C328 1.174 . S
