# Generated by pormake.
# Topology can, (4)-cn, num edge types: 1
# Building blocks:
#     Node 0, Type 0, BuildingBlock: ICAMEG_clean_sbu_1, # of connection points: 4
#     Node 1, Type 0, BuildingBlock: ICAMEG_clean_sbu_1, # of connection points: 4
#     Node 2, Type 0, BuildingBlock: ICAMEG_clean_sbu_1, # of connection points: 4
#     Node 3, Type 0, BuildingBlock: ICAMEG_clean_sbu_1, # of connection points: 4
#     Node 4, Type 0, BuildingBlock: ICAMEG_clean_sbu_1, # of connection points: 4
#     Node 5, Type 0, BuildingBlock: ICAMEG_clean_sbu_1, # of connection points: 4
#     Node 6, Type 0, BuildingBlock: ICAMEG_clean_sbu_1, # of connection points: 4
#     Node 7, Type 0, BuildingBlock: ICAMEG_clean_sbu_1, # of connection points: 4
#     Node 8, Type 0, BuildingBlock: ICAMEG_clean_sbu_1, # of connection points: 4
#     Node 9, Type 0, BuildingBlock: ICAMEG_clean_sbu_1, # of connection points: 4
#     Node 10, Type 0, BuildingBlock: ICAMEG_clean_sbu_1, # of connection points: 4
#     Node 11, Type 0, BuildingBlock: ICAMEG_clean_sbu_1, # of connection points: 4
#     Edge 12, Type (0, 0), BuildingBlock: CIFDUS_clean_linker_0, # of connection points: 2
#     Edge 13, Type (0, 0), BuildingBlock: CIFDUS_clean_linker_0, # of connection points: 2
#     Edge 14, Type (0, 0), BuildingBlock: CIFDUS_clean_linker_0, # of connection points: 2
#     Edge 15, Type (0, 0), BuildingBlock: CIFDUS_clean_linker_0, # of connection points: 2
#     Edge 16, Type (0, 0), BuildingBlock: CIFDUS_clean_linker_0, # of connection points: 2
#     Edge 17, Type (0, 0), BuildingBlock: CIFDUS_clean_linker_0, # of connection points: 2
#     Edge 18, Type (0, 0), BuildingBlock: CIFDUS_clean_linker_0, # of connection points: 2
#     Edge 19, Type (0, 0), BuildingBlock: CIFDUS_clean_linker_0, # of connection points: 2
#     Edge 20, Type (0, 0), BuildingBlock: CIFDUS_clean_linker_0, # of connection points: 2
#     Edge 21, Type (0, 0), BuildingBlock: CIFDUS_clean_linker_0, # of connection points: 2
#     Edge 22, Type (0, 0), BuildingBlock: CIFDUS_clean_linker_0, # of connection points: 2
#     Edge 23, Type (0, 0), BuildingBlock: CIFDUS_clean_linker_0, # of connection points: 2
#     Edge 24, Type (0, 0), BuildingBlock: CIFDUS_clean_linker_0, # of connection points: 2
#     Edge 25, Type (0, 0), BuildingBlock: CIFDUS_clean_linker_0, # of connection points: 2
#     Edge 26, Type (0, 0), BuildingBlock: CIFDUS_clean_linker_0, # of connection points: 2
#     Edge 27, Type (0, 0), BuildingBlock: CIFDUS_clean_linker_0, # of connection points: 2
#     Edge 28, Type (0, 0), BuildingBlock: CIFDUS_clean_linker_0, # of connection points: 2
#     Edge 29, Type (0, 0), BuildingBlock: CIFDUS_clean_linker_0, # of connection points: 2
#     Edge 30, Type (0, 0), BuildingBlock: CIFDUS_clean_linker_0, # of connection points: 2
#     Edge 31, Type (0, 0), BuildingBlock: CIFDUS_clean_linker_0, # of connection points: 2
#     Edge 32, Type (0, 0), BuildingBlock: CIFDUS_clean_linker_0, # of connection points: 2
#     Edge 33, Type (0, 0), BuildingBlock: CIFDUS_clean_linker_0, # of connection points: 2
#     Edge 34, Type (0, 0), BuildingBlock: CIFDUS_clean_linker_0, # of connection points: 2
#     Edge 35, Type (0, 0), BuildingBlock: CIFDUS_clean_linker_0, # of connection points: 2
# Relax obj value: 0.058
# Max RMSD: 0.076
# Mean RMSD: 0.076
data_MOF--net-can--node1-ICAMEG_clean_sbu_1--edge1-CIFDUS_clean_linker_0
_symmetry_space_group_name_H-M    P1
_symmetry_Int_Tables_number       1
_symmetry_cell_setting            triclinic
loop_
_symmetry_equiv_pos_as_xyz
'x, y, z'
_cell_length_a     50.06879
_cell_length_b     50.100957
_cell_length_c     26.667271
_cell_angle_alpha  90.032466
_cell_angle_beta   89.910624
_cell_angle_gamma 119.99885
loop_
_atom_site_label
_atom_site_type_symbol
_atom_site_fract_x
_atom_site_fract_y
_atom_site_fract_z
_atom_type_partial_charge
Co0 Co 0.02023 0.37312 0.24464 0.0
Co1 Co 0.09653 0.42541 0.21496 0.0
O2 O 0.065 0.39054 0.25423 0.0
C3 C 0.02871 0.38671 0.35349 0.0
O4 O 0.05393 0.41258 0.34256 0.0
C5 C 0.12233 0.38216 0.23029 0.0
O6 O 0.09832 0.36296 0.25697 0.0
O7 O 0.07574 0.4047 0.15063 0.0
O8 O 0.02548 0.37808 0.17035 0.0
H9 H 0.13182 0.50538 0.079 0.0
H10 H 0.04093 0.33774 0.30634 0.0
O11 O 0.01307 0.36778 0.31891 0.0
H12 H 0.98464 0.26971 0.16433 0.0
H13 H 0.90801 0.29865 0.27914 0.0
H14 H 0.98182 0.38928 0.18106 0.0
H15 H 0.98979 0.32113 0.17171 0.0
H16 H 0.96404 0.32036 0.28974 0.0
O17 O 0.12372 0.40601 0.21029 0.0
H18 H 0.09358 0.46242 0.13087 0.0
H19 H 0.16553 0.46146 0.21364 0.0
H20 H 0.92599 0.36814 0.16895 0.0
H21 H 0.03603 0.28631 0.30076 0.0
H22 H 0.88866 0.3225 0.21823 0.0
H23 H 1.0078 0.25196 0.22924 0.0
O24 O 0.02449 0.41458 0.25022 0.0
H25 H 0.13709 0.43278 0.39105 0.0
H26 H 0.12316 0.48961 0.25239 0.0
H27 H 0.148 0.51696 0.33035 0.0
H28 H 0.15536 0.48861 0.40036 0.0
H29 H 0.11186 0.40626 0.31317 0.0
H30 H 0.20451 0.50422 0.16239 0.0
H31 H 0.18773 0.52656 0.09464 0.0
O32 O 0.07171 0.44679 0.21904 0.0
C33 C 0.0473 0.38898 0.13831 0.0
C34 C 0.13942 0.4959 0.10852 0.0
C35 C 0.18021 0.49521 0.15525 0.0
N36 N 0.12728 0.45956 0.17544 0.0
C37 C 0.11788 0.47164 0.13809 0.0
C38 C 0.15802 0.47092 0.18404 0.0
C39 C 0.17078 0.50775 0.11727 0.0
C40 C 0.02847 0.32284 0.27528 0.0
N41 N 0.0158 0.33248 0.23932 0.0
C42 C 0.02584 0.29378 0.27224 0.0
C43 C 0.01002 0.27453 0.23207 0.0
C44 C 0.99707 0.2845 0.1956 0.0
C45 C 1.0002 0.31372 0.19985 0.0
C46 C 0.92404 0.3185 0.25737 0.0
C47 C 0.96572 0.36929 0.20241 0.0
C48 C 0.9558 0.33093 0.26327 0.0
N49 N 0.97618 0.35591 0.23573 0.0
C50 C 0.93413 0.35748 0.19549 0.0
C51 C 0.9132 0.33189 0.22318 0.0
C52 C 0.04556 0.44111 0.23612 0.0
C53 C 0.13443 0.4455 0.36054 0.0
C54 C 0.12641 0.47702 0.28239 0.0
C55 C 0.14047 0.49269 0.32658 0.0
C56 C 0.14457 0.47679 0.36583 0.0
N57 N 0.11683 0.44635 0.27704 0.0
C58 C 0.12044 0.43059 0.31579 0.0
Co59 Co 0.6518 0.02099 0.74369 0.0
Co60 Co 0.66915 0.094 0.71024 0.0
O61 O 0.67719 0.06599 0.75102 0.0
C62 C 0.65141 0.02979 0.85345 0.0
O63 O 0.64826 0.0538 0.84432 0.0
C64 C 0.7393 0.1269 0.72287 0.0
O65 O 0.73842 0.10166 0.73851 0.0
O66 O 0.67402 0.07483 0.64781 0.0
O67 O 0.64758 0.0249 0.66932 0.0
H68 H 0.61997 0.1197 0.56829 0.0
H69 H 0.7118 0.0459 0.79533 0.0
O70 O 0.6547 0.01497 0.81745 0.0
H71 H 0.71848 0.98872 0.64983 0.0
H72 H 0.62167 0.91056 0.77787 0.0
H73 H 0.59447 0.97974 0.68828 0.0
H74 H 0.67119 0.99103 0.66589 0.0
H75 H 0.65423 0.96698 0.78562 0.0
O76 O 0.71457 0.12632 0.70909 0.0
H77 H 0.62992 0.08545 0.62167 0.0
H78 H 0.69217 0.16175 0.71055 0.0
H79 H 0.56142 0.92345 0.67907 0.0
H80 H 0.75948 0.04388 0.78105 0.0
H81 H 0.57497 0.88845 0.7241 0.0
H82 H 0.76304 0.0152 0.70773 0.0
O83 O 0.61419 0.02347 0.75741 0.0
H84 H 0.69766 0.13887 0.88395 0.0
H85 H 0.62243 0.11001 0.74651 0.0
H86 H 0.61482 0.13189 0.8243 0.0
H87 H 0.65268 0.14666 0.89367 0.0
H88 H 0.70404 0.11631 0.806 0.0
H89 H 0.6831 0.19686 0.65784 0.0
H90 H 0.64668 0.17585 0.58623 0.0
O91 O 0.62331 0.06407 0.71019 0.0
C92 C 0.66 0.04622 0.63638 0.0
C93 C 0.63586 0.12913 0.59943 0.0
C94 C 0.67132 0.17243 0.64964 0.0
N95 N 0.66155 0.12155 0.66928 0.0
C96 C 0.64155 0.10983 0.62985 0.0
C97 C 0.67645 0.15245 0.67925 0.0
C98 C 0.65087 0.16063 0.60949 0.0
C99 C 0.71316 0.03325 0.76352 0.0
N100 N 0.68882 0.01876 0.73138 0.0
C101 C 0.74022 0.03225 0.75554 0.0
C102 C 0.74222 0.01619 0.71437 0.0
C103 C 0.71725 1.00136 0.68182 0.0
C104 C 0.69057 1.00289 0.69097 0.0
C105 C 0.61557 0.92557 0.75797 0.0
C106 C 0.60061 0.96465 0.70771 0.0
C107 C 0.63388 0.95754 0.76228 0.0
N108 N 0.62639 0.97663 0.73707 0.0
C109 C 0.58177 0.9328 0.70247 0.0
C110 C 0.58937 0.91318 0.72778 0.0
C111 C 0.60556 0.04091 0.73733 0.0
C112 C 0.68111 0.13273 0.85386 0.0
C113 C 0.63899 0.11625 0.77651 0.0
C114 C 0.63458 0.12872 0.82047 0.0
C115 C 0.65584 0.13702 0.85935 0.0
N116 N 0.66391 0.11218 0.77127 0.0
C117 C 0.68477 0.12017 0.80936 0.0
Co118 Co 0.64293 0.6538 0.25958 0.0
Co119 Co 0.59023 0.67037 0.20961 0.0
O120 O 0.62323 0.67916 0.25794 0.0
C121 C 0.6289 0.65296 0.36722 0.0
O122 O 0.60013 0.6439 0.35557 0.0
C123 C 0.62672 0.74037 0.22073 0.0
O124 O 0.65042 0.73948 0.2396 0.0
O125 O 0.61849 0.67446 0.153 0.0
O126 O 0.63804 0.64684 0.18597 0.0
H127 H 0.52522 0.61865 0.05802 0.0
H128 H 0.676 0.71559 0.30654 0.0
O129 O 0.64899 0.65986 0.33309 0.0
H130 H 0.74604 0.71719 0.17489 0.0
H131 H 0.72144 0.62546 0.31663 0.0
H132 H 0.62885 0.59434 0.21335 0.0
H133 H 0.69577 0.67052 0.18957 0.0
H134 H 0.69758 0.65814 0.31231 0.0
O135 O 0.60325 0.71567 0.20501 0.0
H136 H 0.56564 0.62974 0.12067 0.0
H137 H 0.54579 0.69306 0.19426 0.0
H138 H 0.65214 0.5611 0.21627 0.0
H139 H 0.72632 0.76267 0.29368 0.0
H140 H 0.69878 0.57661 0.2682 0.0
H141 H 0.76168 0.76371 0.22726 0.0
O142 O 0.60202 0.6165 0.27095 0.0
H143 H 0.56324 0.69977 0.37466 0.0
H144 H 0.52495 0.62471 0.23593 0.0
H145 H 0.49059 0.61781 0.30697 0.0
H146 H 0.50962 0.65559 0.37694 0.0
H147 H 0.59698 0.70555 0.30331 0.0
H148 H 0.50537 0.68288 0.13211 0.0
H149 H 0.49476 0.64533 0.0635 0.0
O150 O 0.5744 0.62462 0.21344 0.0
C151 C 0.63289 0.65947 0.14873 0.0
C152 C 0.5296 0.63504 0.08777 0.0
C153 C 0.5185 0.67113 0.1293 0.0
N154 N 0.55807 0.662 0.16113 0.0
C155 C 0.55244 0.64139 0.1234 0.0
C156 C 0.54152 0.67691 0.16425 0.0
C157 C 0.51254 0.65003 0.09084 0.0
C158 C 0.69132 0.71582 0.27774 0.0
N159 N 0.68278 0.69042 0.24852 0.0
C160 C 0.71976 0.74257 0.27055 0.0
C161 C 0.73957 0.74315 0.23325 0.0
C162 C 0.73079 0.71708 0.2038 0.0
C163 C 0.70217 0.69076 0.21205 0.0
C164 C 0.70116 0.61849 0.29378 0.0
C165 C 0.64924 0.60134 0.23582 0.0
C166 C 0.6875 0.63687 0.29125 0.0
N167 N 0.66198 0.62829 0.26227 0.0
C168 C 0.66229 0.58238 0.23742 0.0
C169 C 0.68844 0.59108 0.26659 0.0
C170 C 0.57743 0.6074 0.24557 0.0
C171 C 0.55461 0.68326 0.34424 0.0
C172 C 0.53348 0.64127 0.26619 0.0
C173 C 0.51386 0.63725 0.30633 0.0
C174 C 0.52455 0.65844 0.34555 0.0
N175 N 0.56291 0.6658 0.26495 0.0
C176 C 0.57358 0.68653 0.3035 0.0
Co177 Co 0.99377 0.63842 0.7654 0.0
Co178 Co 0.9257 0.58529 0.71361 0.0
O179 O 0.94871 0.61825 0.76271 0.0
C180 C 0.97945 0.62465 0.87286 0.0
O181 O 0.95936 0.59605 0.86099 0.0
C182 C 0.89156 0.62125 0.72155 0.0
O183 O 0.91714 0.64667 0.73269 0.0
O184 O 0.94959 0.61443 0.65796 0.0
O185 O 0.99653 0.63349 0.6917 0.0
H186 H 0.91522 0.5227 0.55993 0.0
H187 H 0.9636 0.67073 0.80994 0.0
O188 O 0.99315 0.64465 0.83883 0.0
H189 H 0.03388 0.74148 0.68076 0.0
H190 H 0.1 0.71733 0.82445 0.0
H191 H 0.03976 0.62465 0.72072 0.0
H192 H 0.03062 0.69146 0.69623 0.0
H193 H 0.04345 0.69327 0.81874 0.0
O194 O 0.89231 0.59684 0.71013 0.0
H195 H 0.94333 0.56269 0.62377 0.0
H196 H 0.85911 0.53922 0.69741 0.0
H197 H 0.09631 0.64815 0.725 0.0
H198 H 0.96646 0.72081 0.79629 0.0
H199 H 0.12682 0.69483 0.77718 0.0
H200 H 1.0017 0.75651 0.73112 0.0
O201 O 0.99018 0.59764 0.77785 0.0
H202 H 0.86785 0.55515 0.8772 0.0
H203 H 0.90871 0.52054 0.73892 0.0
H204 H 0.8819 0.48538 0.80939 0.0
H205 H 0.86112 0.50257 0.87913 0.0
H206 H 0.89525 0.58976 0.80641 0.0
H207 H 0.83006 0.49915 0.63412 0.0
H208 H 0.85816 0.49059 0.56485 0.0
O209 O 0.95694 0.57093 0.71671 0.0
C210 C 0.97903 0.62882 0.65417 0.0
C211 C 0.90272 0.52618 0.58996 0.0
C212 C 0.85492 0.513 0.63155 0.0
N213 N 0.9029 0.55331 0.66432 0.0
C214 C 0.91851 0.54878 0.62627 0.0
C215 C 0.87149 0.53584 0.66716 0.0
C216 C 0.8707 0.5082 0.59271 0.0
C217 C 0.97912 0.68624 0.78172 0.0
N218 N 0.99672 0.67805 0.75365 0.0
C219 C 0.98058 0.71452 0.77407 0.0
C220 C 1.00032 0.73452 0.73746 0.0
C221 C 0.01834 0.72608 0.70913 0.0
C222 C 0.01625 0.69761 0.71783 0.0
C223 C 0.08697 0.69704 0.8015 0.0
C224 C 0.05289 0.64507 0.74327 0.0
C225 C 0.05493 0.68327 0.7982 0.0
N226 N 0.03833 0.65771 0.7691 0.0
C227 C 0.0849 0.65823 0.74565 0.0
C228 C 0.102 0.6844 0.77496 0.0
C229 C 0.97582 0.57351 0.75109 0.0
C230 C 0.87667 0.54734 0.84692 0.0
C231 C 0.8998 0.52826 0.76912 0.0
C232 C 0.88458 0.5082 0.80891 0.0
C233 C 0.87294 0.51786 0.84802 0.0
N234 N 0.90334 0.55716 0.76822 0.0
C235 C 0.89207 0.5668 0.80655 0.0
Co236 Co 0.36456 0.99084 0.24678 0.0
Co237 Co 0.34605 0.91773 0.21276 0.0
O238 O 0.33851 0.94592 0.25414 0.0
C239 C 0.3644 0.98196 0.35666 0.0
O240 O 0.36689 0.95754 0.34775 0.0
C241 C 0.27587 0.88576 0.22483 0.0
O242 O 0.2768 0.91174 0.23582 0.0
O243 O 0.34075 0.93696 0.15086 0.0
O244 O 0.36872 0.98679 0.17232 0.0
H245 H 0.39308 0.89127 0.06819 0.0
H246 H 0.30448 0.96667 0.29812 0.0
O247 O 0.36167 0.99701 0.32052 0.0
H248 H 0.29953 0.0251 0.15316 0.0
H249 H 0.3968 0.10184 0.28077 0.0
H250 H 0.42224 0.03121 0.19134 0.0
H251 H 0.34626 0.0218 0.16924 0.0
H252 H 0.36332 0.04552 0.28863 0.0
O253 O 0.3006 0.88563 0.21328 0.0
H254 H 0.38402 0.92581 0.12247 0.0
H255 H 0.32311 0.85 0.2136 0.0
H256 H 0.4562 0.08738 0.182 0.0
H257 H 0.25737 0.96968 0.28383 0.0
H258 H 0.44354 0.1231 0.22695 0.0
H259 H 0.25467 0.99898 0.21079 0.0
O260 O 0.40161 0.98737 0.26064 0.0
H261 H 0.31856 0.87294 0.38658 0.0
H262 H 0.39296 0.90159 0.24752 0.0
H263 H 0.40111 0.87994 0.32505 0.0
H264 H 0.36367 0.8653 0.39523 0.0
H265 H 0.31166 0.89532 0.30885 0.0
H266 H 0.33131 0.81459 0.16006 0.0
H267 H 0.36661 0.83521 0.08683 0.0
O268 O 0.39196 0.94746 0.21126 0.0
C269 C 0.35548 0.96558 0.13941 0.0
C270 C 0.37766 0.88201 0.1 0.0
C271 C 0.34296 0.83897 0.15151 0.0
N272 N 0.35304 0.88996 0.17118 0.0
C273 C 0.37246 0.90147 0.13092 0.0
C274 C 0.3383 0.85912 0.18158 0.0
C275 C 0.36279 0.85055 0.11046 0.0
C276 C 0.30351 0.9796 0.26644 0.0
N277 N 0.32801 0.99391 0.23447 0.0
C278 C 0.27676 0.98116 0.25846 0.0
C279 C 0.27524 0.99758 0.21743 0.0
C280 C 0.30039 0.0122 0.18505 0.0
C281 C 0.32674 0.01011 0.1942 0.0
C282 C 0.40252 0.08651 0.26091 0.0
C283 C 0.41648 0.04662 0.21074 0.0
C284 C 0.38368 0.0546 0.26529 0.0
N285 N 0.3907 0.03511 0.24011 0.0
C286 C 0.43584 0.07839 0.20543 0.0
C287 C 0.42874 0.09842 0.2307 0.0
C288 C 0.40984 0.96992 0.23944 0.0
C289 C 0.33495 0.87908 0.35617 0.0
C290 C 0.37661 0.89545 0.27792 0.0
C291 C 0.38131 0.88309 0.32171 0.0
C292 C 0.3603 0.87486 0.36105 0.0
N293 N 0.3517 0.89957 0.27338 0.0
C294 C 0.33102 0.89156 0.31184 0.0
Co295 Co 0.38419 0.3639 0.7577 0.0
Co296 Co 0.43338 0.34367 0.70271 0.0
O297 O 0.4028 0.33751 0.75463 0.0
C298 C 0.40463 0.36542 0.86206 0.0
O299 O 0.43031 0.36814 0.8442 0.0
C300 C 0.39499 0.27414 0.7186 0.0
O301 O 0.37197 0.27644 0.73724 0.0
O302 O 0.40333 0.33865 0.64915 0.0
O303 O 0.38439 0.36686 0.68259 0.0
H304 H 0.49218 0.38817 0.54267 0.0
H305 H 0.35347 0.30488 0.81319 0.0
O306 O 0.38327 0.36217 0.83259 0.0
H307 H 0.27592 0.29849 0.6926 0.0
H308 H 0.31191 0.39819 0.82409 0.0
H309 H 0.39604 0.42082 0.70489 0.0
H310 H 0.32742 0.34492 0.69665 0.0
H311 H 0.33424 0.36416 0.81872 0.0
O312 O 0.41888 0.298 0.70164 0.0
H313 H 0.45513 0.38093 0.60958 0.0
H314 H 0.47561 0.31859 0.68477 0.0
H315 H 0.37416 0.45529 0.70868 0.0
H316 H 0.30205 0.25812 0.81097 0.0
H317 H 0.3318 0.44407 0.76865 0.0
H318 H 0.2629 0.25468 0.75017 0.0
O319 O 0.42588 0.40094 0.76155 0.0
H320 H 0.46686 0.31705 0.86391 0.0
H321 H 0.4995 0.3898 0.72205 0.0
H322 H 0.53658 0.39794 0.78914 0.0
H323 H 0.52041 0.36132 0.86063 0.0
H324 H 0.43032 0.31013 0.79663 0.0
H325 H 0.51275 0.32501 0.6185 0.0
H326 H 0.5213 0.36008 0.54685 0.0
O327 O 0.45031 0.38959 0.70219 0.0
C328 C 0.38905 0.35375 0.6452 0.0
C329 C 0.48868 0.37283 0.57371 0.0
C330 C 0.50018 0.33736 0.61622 0.0
N331 N 0.46314 0.34932 0.65106 0.0
C332 C 0.46773 0.36865 0.61176 0.0
C333 C 0.47901 0.33371 0.65355 0.0
C334 C 0.50499 0.35705 0.57606 0.0
C335 C 0.33648 0.3036 0.78686 0.0
N336 N 0.34352 0.32751 0.75487 0.0
C337 C 0.30744 0.27704 0.78567 0.0
C338 C 0.2855 0.27511 0.7515 0.0
C339 C 0.29281 0.29966 0.71913 0.0
C340 C 0.32209 0.32583 0.72137 0.0
C341 C 0.33031 0.40328 0.79772 0.0
C342 C 0.37746 0.41566 0.73083 0.0
C343 C 0.34309 0.38413 0.79457 0.0
N344 N 0.36625 0.39037 0.76122 0.0
C345 C 0.36523 0.43531 0.73291 0.0
C346 C 0.34148 0.42902 0.7666 0.0
C347 C 0.44876 0.4084 0.73267 0.0
C348 C 0.47425 0.33306 0.8328 0.0
C349 C 0.49217 0.3738 0.7531 0.0
C350 C 0.51334 0.3785 0.79093 0.0
C351 C 0.50426 0.35794 0.831 0.0
N352 N 0.46276 0.34929 0.75503 0.0
C353 C 0.45369 0.3291 0.79431 0.0
Co354 Co 0.63704 0.9963 0.2549 0.0
Co355 Co 0.58396 0.9222 0.28647 0.0
O356 O 0.61928 0.95178 0.24615 0.0
C357 C 0.62859 0.98816 0.14488 0.0
O358 O 0.60196 0.96327 0.15337 0.0
C359 C 0.62701 0.89661 0.2902 0.0
O360 O 0.64948 0.92359 0.3048 0.0
O361 O 0.60748 0.94132 0.34942 0.0
O362 O 0.62891 0.99129 0.32918 0.0
H363 H 0.50783 0.88992 0.4283 0.0
H364 H 0.67323 0.97259 0.2033 0.0
O365 O 0.64604 1.00336 0.18126 0.0
H366 H 0.73681 0.03169 0.34765 0.0
H367 H 0.71383 0.10823 0.22342 0.0
H368 H 0.61845 0.03505 0.31222 0.0
H369 H 0.68658 0.02801 0.33174 0.0
H370 H 0.69218 0.05216 0.21394 0.0
O371 O 0.60003 0.89253 0.28348 0.0
H372 H 0.5513 0.92689 0.37591 0.0
H373 H 0.54303 0.85382 0.28409 0.0
H374 H 0.63948 0.09094 0.3232 0.0
H375 H 0.72348 0.97587 0.21753 0.0
H376 H 0.6875 0.12794 0.27858 0.0
H377 H 0.7556 1.00554 0.29024 0.0
O378 O 0.59597 0.99182 0.24206 0.0
H379 H 0.56985 0.87882 0.11222 0.0
H380 H 0.52064 0.90409 0.25028 0.0
H381 H 0.49185 0.88208 0.17198 0.0
H382 H 0.51641 0.86916 0.1023 0.0
H383 H 0.59805 0.90144 0.19081 0.0
H384 H 0.49962 0.81605 0.33571 0.0
H385 H 0.48167 0.83404 0.40829 0.0
O386 O 0.56582 0.95027 0.28883 0.0
C387 C 0.62105 0.96983 0.36153 0.0
C388 C 0.51539 0.8818 0.39669 0.0
C389 C 0.51081 0.84034 0.34476 0.0
N390 N 0.54958 0.89257 0.32679 0.0
C391 C 0.53994 0.90264 0.36681 0.0
C392 C 0.53546 0.86184 0.31574 0.0
C393 C 0.50074 0.85045 0.38547 0.0
C394 C 0.68721 0.98572 0.23478 0.0
N395 N 0.67704 1.00015 0.26656 0.0
C396 C 0.71558 0.98742 0.24275 0.0
C397 C 0.73357 1.00404 0.28359 0.0
C398 C 0.72304 0.0187 0.31584 0.0
C399 C 0.69453 0.01646 0.30673 0.0
C400 C 0.69293 0.09233 0.24315 0.0
C401 C 0.63947 0.05102 0.29295 0.0
C402 C 0.68053 0.06056 0.23785 0.0
N403 N 0.65422 0.04037 0.26285 0.0
C404 C 0.65122 0.08263 0.29919 0.0
C405 C 0.67815 0.10338 0.27411 0.0
C406 C 0.57019 0.97335 0.26234 0.0
C407 C 0.55887 0.88428 0.14235 0.0
C408 C 0.53162 0.89878 0.22003 0.0
C409 C 0.51513 0.88619 0.17584 0.0
C410 C 0.52891 0.87892 0.13678 0.0
N411 N 0.56104 0.90407 0.2252 0.0
C412 C 0.57467 0.89695 0.18707 0.0
Co413 Co 0.64536 0.62888 0.75452 0.0
Co414 Co 0.67101 0.58392 0.80903 0.0
O415 O 0.67288 0.61155 0.75494 0.0
C416 C 0.64852 0.61274 0.64694 0.0
O417 O 0.66465 0.59942 0.65746 0.0
C418 C 0.73928 0.62791 0.79681 0.0
O419 O 0.7347 0.65144 0.80075 0.0
O420 O 0.67774 0.61583 0.86044 0.0
O421 O 0.64717 0.63236 0.82883 0.0
H422 H 0.63782 0.53145 0.97653 0.0
H423 H 0.70246 0.65753 0.69308 0.0
O424 O 0.64125 0.626 0.68032 0.0
H425 H 0.71099 0.74062 0.8028 0.0
H426 H 0.60356 0.69558 0.69127 0.0
H427 H 0.59131 0.61753 0.81587 0.0
H428 H 0.66525 0.68868 0.80697 0.0
H429 H 0.63928 0.67512 0.6921 0.0
O430 O 0.71675 0.6005 0.80167 0.0
H431 H 0.63924 0.56478 0.90738 0.0
H432 H 0.70095 0.54596 0.82589 0.0
H433 H 0.55525 0.6376 0.81667 0.0
H434 H 0.74845 0.70921 0.6872 0.0
H435 H 0.56127 0.67691 0.75402 0.0
H436 H 0.75298 0.75122 0.74242 0.0
O437 O 0.60942 0.58667 0.7579 0.0
H438 H 0.6925 0.54452 0.64926 0.0
H439 H 0.62554 0.51673 0.79846 0.0
H440 H 0.61574 0.47706 0.73513 0.0
H441 H 0.64942 0.49081 0.65992 0.0
H442 H 0.70113 0.58366 0.71301 0.0
H443 H 0.70029 0.51253 0.89427 0.0
H444 H 0.6685 0.50503 0.97022 0.0
O445 O 0.62491 0.56529 0.81643 0.0
C446 C 0.6625 0.62995 0.86477 0.0
C447 C 0.65171 0.53447 0.94358 0.0
C448 C 0.68681 0.5239 0.89744 0.0
N449 N 0.67005 0.55723 0.86254 0.0
C450 C 0.65256 0.55328 0.90425 0.0
C451 C 0.68714 0.54292 0.85889 0.0
C452 C 0.66895 0.51968 0.94003 0.0
C453 C 0.70406 0.6757 0.71684 0.0
N454 N 0.68102 0.67006 0.75006 0.0
C455 C 0.73025 0.70492 0.71352 0.0
C456 C 0.73281 0.72846 0.74457 0.0
C457 C 0.70927 0.72253 0.77848 0.0
C458 C 0.68345 0.69302 0.78079 0.0
C459 C 0.60075 0.67852 0.71883 0.0
C460 C 0.5942 0.63479 0.78871 0.0
C461 C 0.62087 0.6668 0.71944 0.0
N462 N 0.61756 0.64536 0.75433 0.0
C463 C 0.57366 0.646 0.78925 0.0
C464 C 0.57703 0.66803 0.75406 0.0
C465 C 0.6042 0.5649 0.788 0.0
C466 C 0.67765 0.53824 0.68185 0.0
C467 C 0.6401 0.52305 0.76559 0.0
C468 C 0.63453 0.50041 0.72997 0.0
C469 C 0.65346 0.50812 0.68783 0.0
N470 N 0.66379 0.55262 0.75935 0.0
C471 C 0.68249 0.56029 0.7182 0.0
Co472 Co 0.02234 0.63682 0.26074 0.0
Co473 Co 0.09426 0.66699 0.31307 0.0
O474 O 0.06681 0.66652 0.25985 0.0
C475 C 0.04058 0.64204 0.15174 0.0
O476 O 0.0697 0.66173 0.16064 0.0
C477 C 0.11593 0.73509 0.30022 0.0
O478 O 0.08772 0.73025 0.30443 0.0
O479 O 0.06822 0.67194 0.36544 0.0
O480 O 0.02128 0.63935 0.33496 0.0
H481 H 0.11826 0.63728 0.47981 0.0
H482 H 0.04809 0.69425 0.1997 0.0
O483 O 0.02062 0.63198 0.18656 0.0
H484 H 0.9695 0.69643 0.3082 0.0
H485 H 0.91259 0.58814 0.19979 0.0
H486 H 0.98253 0.58261 0.32399 0.0
H487 H 0.97934 0.65301 0.31237 0.0
H488 H 0.96813 0.62649 0.19912 0.0
O489 O 0.12126 0.71289 0.30512 0.0
H490 H 0.08448 0.63614 0.41165 0.0
H491 H 0.16259 0.70062 0.32804 0.0
H492 H 0.92709 0.54396 0.32631 0.0
H493 H 0.03873 0.73787 0.19374 0.0
H494 H 0.89171 0.54659 0.26388 0.0
H495 H 0.99921 0.73926 0.24835 0.0
O496 O 0.03117 0.60247 0.26478 0.0
H497 H 0.15265 0.69074 0.15032 0.0
H498 H 0.12145 0.62601 0.30217 0.0
H499 H 0.15233 0.61858 0.23754 0.0
H500 H 0.16827 0.65119 0.16095 0.0
H501 H 0.12126 0.69697 0.21552 0.0
H502 H 0.19717 0.70258 0.39543 0.0
H503 H 0.17505 0.67067 0.47192 0.0
O504 O 0.06946 0.62085 0.3209 0.0
C505 C 0.03893 0.65555 0.37041 0.0
C506 C 0.12818 0.65123 0.44661 0.0
C507 C 0.17246 0.68792 0.39928 0.0
N508 N 0.12152 0.66817 0.36579 0.0
C509 C 0.10917 0.65064 0.40784 0.0
C510 C 0.15274 0.68677 0.3613 0.0
C511 C 0.16004 0.67 0.44218 0.0
C512 C 0.03058 0.69434 0.22311 0.0
N513 N 0.01406 0.67077 0.25594 0.0
C514 C 0.0255 0.71927 0.21979 0.0
C515 C 1.00338 0.72007 0.2505 0.0
C516 C 0.98672 0.69607 0.2841 0.0
C517 C 0.99247 0.67155 0.2864 0.0
C518 C 0.92776 0.5868 0.22727 0.0
C519 C 0.96725 0.58403 0.29692 0.0
C520 C 0.95924 0.60841 0.22701 0.0
N521 N 0.97852 0.60697 0.26181 0.0
C522 C 0.93589 0.56203 0.29832 0.0
C523 C 0.91606 0.56349 0.26325 0.0
C524 C 0.04928 0.59897 0.29397 0.0
C525 C 0.14578 0.67633 0.18344 0.0
C526 C 0.12783 0.63994 0.26866 0.0
C527 C 0.14554 0.63579 0.23232 0.0
C528 C 0.15452 0.65412 0.18941 0.0
N529 N 0.11916 0.66163 0.26243 0.0
C530 C 0.12802 0.67977 0.22055 0.0
Co531 Co 0.37945 0.01589 0.7581 0.0
Co532 Co 0.43226 0.08995 0.7898 0.0
O533 O 0.39696 0.06041 0.74946 0.0
C534 C 0.38737 0.02406 0.64793 0.0
O535 O 0.41391 0.0491 0.65607 0.0
C536 C 0.38962 0.11623 0.79337 0.0
O537 O 0.36681 0.08957 0.8085 0.0
O538 O 0.40848 0.07079 0.8526 0.0
O539 O 0.38781 0.0209 0.83233 0.0
H540 H 0.50773 0.12205 0.9322 0.0
H541 H 0.34286 0.03942 0.70769 0.0
O542 O 0.37015 0.0088 0.68456 0.0
H543 H 0.27976 0.97954 0.85215 0.0
H544 H 0.30323 0.90378 0.72693 0.0
H545 H 0.39868 0.97747 0.81463 0.0
H546 H 0.33011 0.98364 0.83533 0.0
H547 H 0.32441 0.95979 0.71764 0.0
O548 O 0.41638 0.11974 0.78658 0.0
H549 H 0.46451 0.08514 0.87949 0.0
H550 H 0.47333 0.15833 0.78748 0.0
H551 H 0.37815 0.92165 0.8254 0.0
H552 H 0.29246 0.03573 0.72284 0.0
H553 H 0.33009 0.88438 0.78133 0.0
H554 H 0.26059 1.00566 0.79559 0.0
O555 O 0.42061 0.02077 0.74436 0.0
H556 H 0.44689 0.1331 0.6153 0.0
H557 H 0.49581 0.10835 0.75411 0.0
H558 H 0.52484 0.13027 0.67586 0.0
H559 H 0.50042 0.14292 0.60579 0.0
H560 H 0.41843 0.11054 0.69385 0.0
H561 H 0.5165 0.19602 0.83939 0.0
H562 H 0.53405 0.17794 0.91224 0.0
O563 O 0.45033 0.06183 0.79226 0.0
C564 C 0.39522 0.04228 0.8647 0.0
C565 C 0.50035 0.1302 0.90047 0.0
C566 C 0.50525 0.17173 0.84842 0.0
N567 N 0.46653 0.11952 0.83025 0.0
C568 C 0.47594 0.10941 0.87041 0.0
C569 C 0.48074 0.15027 0.81923 0.0
C570 C 0.51509 0.16156 0.88928 0.0
C571 C 0.32899 0.02614 0.73921 0.0
N572 N 0.33936 0.01172 0.77051 0.0
C573 C 0.30053 0.0242 0.74769 0.0
C574 C 0.28268 0.00735 0.78856 0.0
C575 C 0.29343 0.99271 0.82033 0.0
C576 C 0.32201 0.99519 0.81071 0.0
C577 C 0.32415 0.91979 0.74642 0.0
C578 C 0.37765 0.96139 0.79561 0.0
C579 C 0.33629 0.95152 0.74122 0.0
N580 N 0.36261 0.97186 0.76593 0.0
C581 C 0.36618 0.92981 0.80173 0.0
C582 C 0.33923 0.90892 0.77696 0.0
C583 C 0.44625 0.03917 0.76493 0.0
C584 C 0.4578 0.12774 0.64559 0.0
C585 C 0.4849 0.11355 0.7237 0.0
C586 C 0.50152 0.12609 0.67953 0.0
C587 C 0.48782 0.1332 0.64026 0.0
N588 N 0.45539 0.1081 0.72859 0.0
C589 C 0.44186 0.11511 0.69028 0.0
Co590 Co 0.37725 0.38352 0.24695 0.0
Co591 Co 0.34996 0.42773 0.30009 0.0
O592 O 0.34731 0.39799 0.24929 0.0
C593 C 0.37475 0.40043 0.14147 0.0
O594 O 0.37479 0.42516 0.15779 0.0
C595 C 0.28144 0.38531 0.2789 0.0
O596 O 0.28753 0.36918 0.24689 0.0
O597 O 0.34949 0.40006 0.35461 0.0
O598 O 0.3813 0.38537 0.32174 0.0
H599 H 0.39156 0.49062 0.45706 0.0
H600 H 0.31807 0.34669 0.19355 0.0
O601 O 0.37459 0.38096 0.17218 0.0
H602 H 0.32168 0.27594 0.31827 0.0
H603 H 0.42097 0.3185 0.18363 0.0
H604 H 0.43666 0.40257 0.29787 0.0
H605 H 0.36465 0.32935 0.3108 0.0
H606 H 0.38257 0.33554 0.18847 0.0
O607 O 0.30312 0.40726 0.30386 0.0
H608 H 0.38832 0.45481 0.39071 0.0
H609 H 0.31624 0.46192 0.3197 0.0
H610 H 0.47552 0.38605 0.29456 0.0
H611 H 0.27466 0.29331 0.19933 0.0
H612 H 0.46778 0.34373 0.23711 0.0
H613 H 0.27626 0.25756 0.26219 0.0
O614 O 0.41109 0.42674 0.24096 0.0
H615 H 0.31789 0.45414 0.13633 0.0
H616 H 0.38776 0.49516 0.28143 0.0
H617 H 0.3908 0.53055 0.21488 0.0
H618 H 0.35555 0.51018 0.14175 0.0
H619 H 0.3161 0.41955 0.20287 0.0
H620 H 0.31856 0.49763 0.38549 0.0
H621 H 0.35651 0.5123 0.4547 0.0
O622 O 0.39667 0.45032 0.2976 0.0
C623 C 0.36683 0.38822 0.35886 0.0
C624 C 0.37499 0.48448 0.42701 0.0
C625 C 0.33398 0.48837 0.38689 0.0
N626 N 0.35227 0.45643 0.35119 0.0
C627 C 0.37311 0.46428 0.38927 0.0
C628 C 0.33272 0.46806 0.34983 0.0
C629 C 0.35529 0.49661 0.4257 0.0
C630 C 0.31893 0.33125 0.22094 0.0
N631 N 0.34371 0.34125 0.25216 0.0
C632 C 0.29429 0.30106 0.22407 0.0
C633 C 0.29519 0.28102 0.25936 0.0
C634 C 0.32064 0.29133 0.29089 0.0
C635 C 0.34484 0.32169 0.28671 0.0
C636 C 0.42456 0.33691 0.20892 0.0
C637 C 0.43304 0.38399 0.27303 0.0
C638 C 0.40292 0.34669 0.21177 0.0
N639 N 0.40724 0.36984 0.24378 0.0
C640 C 0.45516 0.3748 0.27121 0.0
C641 C 0.45082 0.35107 0.23894 0.0
C642 C 0.41638 0.45001 0.26738 0.0
C643 C 0.33311 0.46338 0.16833 0.0
C644 C 0.37218 0.48599 0.24995 0.0
C645 C 0.37406 0.50622 0.21229 0.0
C646 C 0.35431 0.49479 0.17129 0.0
N647 N 0.35109 0.45517 0.24719 0.0
C648 C 0.33191 0.44383 0.20669 0.0
Co649 Co 0.99859 0.37039 0.75603 0.0
Co650 Co 0.92473 0.34968 0.789 0.0
O651 O 0.95396 0.34413 0.74739 0.0
C652 C 0.9902 0.37227 0.64629 0.0
O653 O 0.96565 0.37447 0.65574 0.0
C654 C 0.89815 0.28079 0.79057 0.0
O655 O 0.92502 0.28467 0.80449 0.0
O656 O 0.94382 0.34404 0.85089 0.0
O657 O 0.99386 0.37254 0.83068 0.0
H658 H 0.89354 0.39191 0.93446 0.0
H659 H 0.97411 0.31115 0.70223 0.0
O660 O 1.00536 0.36932 0.68203 0.0
H661 H 0.03324 0.30399 0.84418 0.0
H662 H 0.11023 0.40479 0.72244 0.0
H663 H 0.03801 0.42676 0.81495 0.0
H664 H 0.03011 0.35105 0.8308 0.0
H665 H 0.05402 0.37102 0.71311 0.0
O666 O 0.89458 0.30407 0.78471 0.0
H667 H 0.93009 0.38578 0.88032 0.0
H668 H 0.8564 0.32299 0.78753 0.0
H669 H 0.09405 0.46096 0.82579 0.0
H670 H 0.97683 0.2637 0.71395 0.0
H671 H 0.13057 0.45005 0.77931 0.0
H672 H 1.00651 0.25991 0.78543 0.0
O673 O 0.99458 0.40742 0.74525 0.0
H674 H 0.88089 0.32327 0.61479 0.0
H675 H 0.90719 0.39585 0.75583 0.0
H676 H 0.88524 0.40404 0.67865 0.0
H677 H 0.87181 0.36753 0.60748 0.0
H678 H 0.90344 0.31626 0.69232 0.0
H679 H 0.81904 0.32828 0.84088 0.0
H680 H 0.83756 0.36304 0.91484 0.0
O681 O 0.95323 0.3958 0.79283 0.0
C682 C 0.97236 0.35844 0.86289 0.0
C683 C 0.88519 0.37677 0.90225 0.0
C684 C 0.84337 0.34102 0.84977 0.0
N685 N 0.89543 0.35422 0.83062 0.0
C686 C 0.90579 0.37325 0.87139 0.0
C687 C 0.86464 0.33806 0.81977 0.0
C688 C 0.85378 0.36054 0.89125 0.0
C689 C 0.98725 0.30972 0.73319 0.0
N690 N 1.00199 0.33384 0.76568 0.0
C691 C 0.98863 0.28278 0.73973 0.0
C692 C 1.00525 0.28065 0.77989 0.0
C693 C 0.02024 0.30537 0.81289 0.0
C694 C 0.01831 0.33193 0.8052 0.0
C695 C 0.09455 0.40975 0.74298 0.0
C696 C 0.05377 0.42176 0.79485 0.0
C697 C 0.0627 0.39075 0.73777 0.0
N698 N 0.04277 0.39679 0.7638 0.0
C699 C 0.08547 0.44125 0.80103 0.0
C700 C 0.10595 0.43513 0.7749 0.0
C701 C 0.97636 0.41473 0.76655 0.0
C702 C 0.88657 0.3393 0.64559 0.0
C703 C 0.90165 0.37998 0.72493 0.0
C704 C 0.88909 0.38467 0.68137 0.0
C705 C 0.88153 0.36416 0.64148 0.0
N706 N 0.90661 0.35558 0.72865 0.0
C707 C 0.8992 0.33535 0.6897 0.0
H708 H 0.98937 0.35742 0.0982 0.0
H709 H 0.08542 0.41004 0.0558 0.0
H710 H 0.07066 0.40461 0.96744 0.0
H711 H 0.03059 0.3864 0.90238 0.0
H712 H 0.93456 0.33435 0.94509 0.0
H713 H 0.94941 0.33826 0.03317 0.0
C714 C 1.00722 0.36761 0.0698 0.0
C715 C 0.03859 0.38414 0.08411 0.0
C716 C 0.99858 0.36464 0.01898 0.0
C717 C 0.06116 0.39712 0.04628 0.0
C718 C 0.05272 0.3941 0.99561 0.0
C719 C 0.01279 0.37574 0.93078 0.0
C720 C 0.98138 0.36005 0.91667 0.0
C721 C 0.02149 0.37813 0.98154 0.0
C722 C 0.95886 0.34652 0.95445 0.0
C723 C 0.96735 0.34877 0.00497 0.0
H724 H 0.65088 0.02804 0.40064 0.0
H725 H 0.60458 0.93222 0.4445 0.0
H726 H 0.61313 0.94743 0.53277 0.0
H727 H 0.63273 0.98781 0.59755 0.0
H728 H 0.67897 0.08358 0.55326 0.0
H729 H 0.67147 0.06831 0.46513 0.0
C730 C 0.64273 0.01034 0.42932 0.0
C731 C 0.62708 0.9789 0.41549 0.0
C732 C 0.64769 0.01924 0.48009 0.0
C733 C 0.61673 0.95653 0.45366 0.0
C734 C 0.62158 0.96523 0.50428 0.0
C735 C 0.64136 1.00546 0.56876 0.0
C736 C 0.65649 0.03692 0.58248 0.0
C737 C 0.63691 0.99652 0.51795 0.0
C738 C 0.66735 0.05925 0.54422 0.0
C739 C 0.66301 0.05052 0.49366 0.0
H740 H 0.62495 0.67834 0.05591 0.0
H741 H 0.66393 0.62876 0.12935 0.0
H742 H 0.67897 0.61771 0.04921 0.0
H743 H 0.67864 0.61912 0.9574 0.0
H744 H 0.63833 0.66721 0.88345 0.0
H745 H 0.62694 0.68193 0.96384 0.0
C746 C 0.63693 0.66535 0.05441 0.0
C747 C 0.6431 0.65448 0.09895 0.0
C748 C 0.64549 0.65867 0.00774 0.0
C749 C 0.6587 0.63757 0.09599 0.0
C750 C 0.66742 0.63112 0.04996 0.0
C751 C 0.66781 0.63321 0.95883 0.0
C752 C 0.65948 0.64193 0.91415 0.0
C753 C 0.66062 0.64119 0.00549 0.0
C754 C 0.6452 0.66008 0.917 0.0
C755 C 0.63844 0.66847 0.96315 0.0
H756 H 0.06581 0.67356 0.46319 0.0
H757 H 0.97732 0.62966 0.38902 0.0
H758 H 0.9511 0.61927 0.46902 0.0
H759 H 0.95254 0.61915 0.56099 0.0
H760 H 0.04093 0.66107 0.63544 0.0
H761 H 0.0673 0.67541 0.55531 0.0
C762 C 0.04084 0.66216 0.46449 0.0
C763 C 0.02383 0.65267 0.41975 0.0
C764 C 0.02554 0.65545 0.51111 0.0
C765 C 0.99133 0.63757 0.42249 0.0
C766 C 0.9761 0.63135 0.46848 0.0
C767 C 0.97754 0.63168 0.55973 0.0
C768 C 0.99445 0.63891 0.60452 0.0
C769 C 0.99289 0.63967 0.51315 0.0
C770 C 0.02699 0.6551 0.60184 0.0
C771 C 0.0423 0.66337 0.55583 0.0
H772 H 0.36504 0.98402 0.9037 0.0
H773 H 0.41184 0.07981 0.94777 0.0
H774 H 0.40314 0.0645 0.03601 0.0
H775 H 0.38327 0.02404 0.1007 0.0
H776 H 0.33617 0.92831 0.05621 0.0
H777 H 0.34394 0.94367 0.96811 0.0
C778 C 0.37325 1.00169 0.93242 0.0
C779 C 0.3891 0.03315 0.91865 0.0
C780 C 0.36813 0.99273 0.98317 0.0
C781 C 0.39953 0.05548 0.95688 0.0
C782 C 0.39459 0.04672 0.00748 0.0
C783 C 0.3745 0.00643 0.07188 0.0
C784 C 0.35906 0.97494 0.08553 0.0
C785 C 0.37905 0.01542 0.02108 0.0
C786 C 0.34802 0.95265 0.04722 0.0
C787 C 0.35252 0.96144 0.99668 0.0
H788 H 0.3455 0.39417 0.45089 0.0
H789 H 0.39969 0.35946 0.37994 0.0
H790 H 0.40946 0.34387 0.46088 0.0
H791 H 0.40462 0.34169 0.55266 0.0
H792 H 0.35231 0.37831 0.62416 0.0
H793 H 0.3398 0.39103 0.54279 0.0
C794 C 0.35926 0.38301 0.45303 0.0
C795 C 0.37163 0.378 0.40892 0.0
C796 C 0.36524 0.3743 0.50014 0.0
C797 C 0.38963 0.36363 0.41287 0.0
C798 C 0.39535 0.35466 0.45936 0.0
C799 C 0.3902 0.35213 0.55051 0.0
C800 C 0.37941 0.35882 0.59486 0.0
C801 C 0.38349 0.36006 0.50335 0.0
C802 C 0.36094 0.37267 0.59096 0.0
C803 C 0.3538 0.38013 0.54425 0.0
H804 H 0.96789 0.58612 0.95201 0.0
H805 H 0.01831 0.6821 0.90915 0.0
H806 H 0.04417 0.69563 0.99005 0.0
H807 H 0.05309 0.68026 0.07302 0.0
H808 H 1.0007 0.58504 0.1179 0.0
H809 H 0.97548 0.57101 0.03591 0.0
C810 C 0.9842 0.61003 0.96063 0.0
C811 C 0.9912 0.63298 0.92452 0.0
C812 C 0.99917 0.61772 0.00721 0.0
C813 C 0.01253 0.66389 0.93623 0.0
C814 C 0.02752 0.6717 0.98239 0.0
C815 C 0.0366 0.65642 0.06422 0.0
C816 C 0.02911 0.63356 0.10046 0.0
C817 C 0.02136 0.64877 0.01789 0.0
C818 C 1.00701 0.60284 0.0898 0.0
C819 C 0.99244 0.59488 0.04327 0.0
H820 H 0.34836 0.94988 0.44428 0.0
H821 H 0.39009 0.04202 0.38418 0.0
H822 H 0.40108 0.06342 0.46892 0.0
H823 H 0.40057 0.05604 0.56043 0.0
H824 H 0.35491 0.96381 0.62071 0.0
H825 H 0.34361 0.94238 0.53597 0.0
C826 C 0.35967 0.97461 0.44989 0.0
C827 C 0.36856 0.99434 0.40815 0.0
C828 C 0.36529 0.98676 0.4988 0.0
C829 C 0.3829 0.02634 0.41579 0.0
C830 C 0.38933 0.03862 0.46422 0.0
C831 C 0.38801 0.03127 0.55486 0.0
C832 C 0.37878 0.01154 0.59661 0.0
C833 C 0.3809 0.01908 0.50602 0.0
C834 C 0.36218 0.97947 0.58907 0.0
C835 C 0.35581 0.96719 0.54064 0.0
H836 H 0.37382 0.39071 0.90567 0.0
H837 H 0.4285 0.34843 0.93938 0.0
H838 H 0.42286 0.35444 0.02936 0.0
H839 H 0.40281 0.37226 0.09799 0.0
H840 H 0.3522 0.41882 0.06402 0.0
H841 H 0.3558 0.41067 0.97418 0.0
C842 C 0.38433 0.38265 0.9328 0.0
C843 C 0.40125 0.36883 0.91621 0.0
C844 C 0.38177 0.38705 0.98415 0.0
C845 C 0.41532 0.35906 0.95148 0.0
C846 C 0.41207 0.36248 1.00279 0.0
C847 C 0.39244 0.38047 0.07086 0.0
C848 C 0.37698 0.39583 0.08737 0.0
C849 C 0.39539 0.37648 0.01949 0.0
C850 C 0.36417 0.40692 0.052 0.0
C851 C 0.36619 0.40221 1.00078 0.0
H852 H 0.95709 0.35473 0.55983 0.0
H853 H 0.05002 0.39811 0.61689 0.0
H854 H 0.07039 0.40701 0.5314 0.0
H855 H 0.06183 0.40343 0.43997 0.0
H856 H 0.96879 0.3559 0.38313 0.0
H857 H 0.94843 0.34755 0.4686 0.0
C858 C 0.98178 0.36604 0.5534 0.0
C859 C 1.00203 0.37593 0.59446 0.0
C860 C 0.99332 0.37036 0.50414 0.0
C861 C 0.03396 0.39021 0.5858 0.0
C862 C 0.04564 0.3954 0.53694 0.0
C863 C 0.03712 0.39119 0.44646 0.0
C864 C 0.01684 0.38049 0.40545 0.0
C865 C 0.02556 0.38574 0.49578 0.0
C866 C 0.98486 0.36429 0.4142 0.0
C867 C 0.9732 0.35959 0.46304 0.0
H868 H 0.66716 0.06201 0.94087 0.0
H869 H 0.62612 0.96982 0.88122 0.0
H870 H 0.61516 0.94854 0.96607 0.0
H871 H 0.61553 0.95605 0.05757 0.0
H872 H 0.66063 0.04836 0.11737 0.0
H873 H 0.67182 0.06967 0.03251 0.0
C874 C 0.656 0.03729 0.94661 0.0
C875 C 0.64729 0.01751 0.90498 0.0
C876 C 0.65042 0.02523 0.99557 0.0
C877 C 0.63316 0.98553 0.91276 0.0
C878 C 0.62675 0.97332 0.96125 0.0
C879 C 0.62794 0.98081 0.05186 0.0
C880 C 0.63705 1.00061 0.09349 0.0
C881 C 0.63501 0.99292 1.00295 0.0
C882 C 0.65346 0.03266 0.0858 0.0
C883 C 0.65977 0.04486 0.03731 0.0
H884 H 0.59075 0.62552 0.44671 0.0
H885 H 0.68672 0.67284 0.40299 0.0
H886 H 0.701 0.6616 0.48412 0.0
H887 H 0.68634 0.63805 0.5678 0.0
H888 H 0.59113 0.59352 0.61348 0.0
H889 H 0.57628 0.60327 0.53104 0.0
C890 C 0.61481 0.6337 0.45516 0.0
C891 C 0.63755 0.64988 0.41881 0.0
C892 C 0.62294 0.62706 0.50188 0.0
C893 C 0.66866 0.66023 0.43029 0.0
C894 C 0.67691 0.65367 0.47658 0.0
C895 C 0.66234 0.62999 0.559 0.0
C896 C 0.63968 0.61452 0.59551 0.0
C897 C 0.65422 0.63679 0.51242 0.0
C898 C 0.60873 0.605 0.58503 0.0
C899 C 0.60032 0.61083 0.53827 0.0
H900 H 0.01382 0.54805 0.23627 0.0
H901 H 0.08342 0.58212 0.35211 0.0
H902 H 0.08836 0.5364 0.34389 0.0
H903 H 0.07508 0.48794 0.30084 0.0
H904 H 1.00403 0.45213 0.18829 0.0
H905 H 0.99732 0.49721 0.19827 0.0
C906 C 0.0298 0.54536 0.26021 0.0
C907 C 0.04862 0.56895 0.29411 0.0
C908 C 0.03246 0.51878 0.25556 0.0
C909 C 0.06896 0.56473 0.32509 0.0
C910 C 0.07186 0.53854 0.32044 0.0
C911 C 0.05821 0.49017 0.27851 0.0
C912 C 0.04044 0.46731 0.24328 0.0
C913 C 0.0542 0.51575 0.28515 0.0
C914 C 0.01807 0.46976 0.21533 0.0
C915 C 0.01427 0.49546 0.22109 0.0
H916 H 0.48231 0.02718 0.82649 0.0
H917 H 0.47134 0.04681 0.67313 0.0
H918 H 0.51971 0.04892 0.65011 0.0
H919 H 0.56648 0.04752 0.67465 0.0
H920 H 0.57526 0.02317 0.82627 0.0
H921 H 0.52644 0.02017 0.84897 0.0
C922 C 0.49044 0.03147 0.788 0.0
C923 C 0.47352 0.03681 0.75144 0.0
C924 C 0.51787 0.03181 0.7748 0.0
C925 C 0.48402 0.04236 0.70165 0.0
C926 C 0.51171 0.04372 0.68856 0.0
C927 C 0.55743 0.04118 0.71245 0.0
C928 C 0.57437 0.03559 0.74875 0.0
C929 C 0.529 0.03879 0.72492 0.0
C930 C 0.56243 0.02728 0.79758 0.0
C931 C 0.53463 0.02576 0.81066 0.0
H932 H 0.5251 0.57656 0.18982 0.0
H933 H 0.56925 0.5678 0.32272 0.0
H934 H 0.52333 0.51844 0.34198 0.0
H935 H 0.46947 0.47811 0.32235 0.0
H936 H 0.42657 0.48692 0.18836 0.0
H937 H 0.47285 0.53593 0.16855 0.0
C938 C 0.52484 0.56383 0.22288 0.0
C939 C 0.55071 0.57604 0.25473 0.0
C940 C 0.49835 0.5355 0.23383 0.0
C941 C 0.54982 0.55898 0.29728 0.0
C942 C 0.52346 0.53078 0.30854 0.0
C943 C 0.47046 0.49091 0.28892 0.0
C944 C 0.4448 0.47929 0.25692 0.0
C945 C 0.49743 0.51892 0.27737 0.0
C946 C 0.44617 0.49568 0.21346 0.0
C947 C 0.47259 0.52361 0.20213 0.0
H948 H 0.98455 0.53699 0.68536 0.0
H949 H 0.97363 0.54909 0.84255 0.0
H950 H 0.97265 0.50087 0.86198 0.0
H951 H 0.9725 0.45377 0.83352 0.0
H952 H 0.98885 0.44446 0.67749 0.0
H953 H 0.99038 0.49296 0.65825 0.0
C954 C 0.98241 0.5292 0.72387 0.0
C955 C 0.9792 0.54648 0.7625 0.0
C956 C 0.98277 0.50188 0.7349 0.0
C957 C 0.97647 0.53629 0.81229 0.0
C958 C 0.97571 0.50863 0.82337 0.0
C959 C 0.97677 0.46265 0.79548 0.0
C960 C 0.98054 0.44565 0.75695 0.0
C961 C 0.97852 0.49104 0.78493 0.0
C962 C 0.98617 0.45734 0.70781 0.0
C963 C 0.98687 0.48497 0.69675 0.0
H964 H 0.45651 0.9803 0.17569 0.0
H965 H 0.43016 0.96666 0.33145 0.0
H966 H 0.47758 0.96649 0.3532 0.0
H967 H 0.52564 0.96788 0.32704 0.0
H968 H 0.5545 0.98667 0.17256 0.0
H969 H 0.50741 0.98749 0.15104 0.0
C970 C 0.46152 0.97775 0.21439 0.0
C971 C 0.44012 0.97357 0.25202 0.0
C972 C 0.48925 0.97855 0.22675 0.0
C973 C 0.44661 0.97026 0.30207 0.0
C974 C 0.47359 0.96998 0.31444 0.0
C975 C 0.52169 0.97253 0.28886 0.0
C976 C 0.54338 0.9772 0.25141 0.0
C977 C 0.49496 0.9738 0.27703 0.0
C978 C 0.53819 0.98331 0.20207 0.0
C979 C 0.51121 0.9836 0.1897 0.0
H980 H 0.5677 0.53876 0.70751 0.0
H981 H 0.57239 0.52779 0.867 0.0
H982 H 0.52278 0.47954 0.86454 0.0
H983 H 0.47938 0.43907 0.81596 0.0
H984 H 0.47842 0.44723 0.65524 0.0
H985 H 0.52511 0.49807 0.65896 0.0
C986 C 0.55758 0.52601 0.74182 0.0
C987 C 0.57334 0.53697 0.78752 0.0
C988 C 0.52979 0.49776 0.73971 0.0
C989 C 0.5605 0.51985 0.8315 0.0
C990 C 0.5322 0.49229 0.83005 0.0
C991 C 0.48923 0.45231 0.78197 0.0
C992 C 0.47538 0.4399 0.73546 0.0
C993 C 0.51679 0.48085 0.78428 0.0
C994 C 0.48867 0.45664 0.6914 0.0
C995 C 0.51534 0.48559 0.69355 0.0
H996 H 0.15377 0.38073 0.31176 0.0
H997 H 0.15466 0.37935 0.15031 0.0
H998 H 0.20276 0.37755 0.15134 0.0
H999 H 0.24565 0.37837 0.19832 0.0
H1000 H 0.24824 0.38658 0.3593 0.0
H1001 H 0.19783 0.38367 0.35869 0.0
C1002 C 0.16439 0.37964 0.27691 0.0
C1003 C 0.15048 0.37951 0.23097 0.0
C1004 C 0.19272 0.37996 0.27788 0.0
C1005 C 0.16482 0.37907 0.18601 0.0
C1006 C 0.19232 0.37812 0.18666 0.0
C1007 C 0.23493 0.37911 0.23328 0.0
C1008 C 0.25031 0.38207 0.27894 0.0
C1009 C 0.2066 0.37875 0.23236 0.0
C1010 C 0.23667 0.38398 0.32382 0.0
C1011 C 0.2079 0.38237 0.32342 0.0
H1012 H 0.84495 0.26621 0.74159 0.0
H1013 H 0.89181 0.22453 0.81493 0.0
H1014 H 0.84763 0.17321 0.79862 0.0
H1015 H 0.79465 0.14009 0.76573 0.0
H1016 H 0.74913 0.18286 0.69103 0.0
H1017 H 0.79378 0.23352 0.70542 0.0
C1018 C 0.84558 0.24595 0.75415 0.0
C1019 C 0.87168 0.24938 0.77997 0.0
C1020 C 0.82024 0.21653 0.74426 0.0
C1021 C 0.87208 0.2227 0.79518 0.0
C1022 C 0.84676 0.19329 0.78583 0.0
C1023 C 0.79459 0.16045 0.75214 0.0
C1024 C 0.76822 0.15739 0.72756 0.0
C1025 C 0.82058 0.18988 0.76062 0.0
C1026 C 0.76879 0.18424 0.71034 0.0
C1027 C 0.7944 0.21338 0.7186 0.0
H1028 H 0.6671 0.79525 0.26646 0.0
H1029 H 0.58121 0.75006 0.18475 0.0
H1030 H 0.57394 0.79397 0.19916 0.0
H1031 H 0.59048 0.84423 0.23767 0.0
H1032 H 0.67675 0.89076 0.31778 0.0
H1033 H 0.68525 0.84745 0.30125 0.0
C1034 C 0.64696 0.79512 0.25129 0.0
C1035 C 0.62465 0.76904 0.22478 0.0
C1036 C 0.64279 0.82065 0.25981 0.0
C1037 C 0.59872 0.76951 0.20553 0.0
C1038 C 0.59446 0.79468 0.21384 0.0
C1039 C 0.61117 0.84497 0.25165 0.0
C1040 C 0.63277 0.87069 0.27949 0.0
C1041 C 0.61607 0.82016 0.24154 0.0
C1042 C 0.65965 0.87129 0.29649 0.0
C1043 C 0.66453 0.84648 0.287 0.0
H1044 H 0.87906 0.66621 0.75395 0.0
H1045 H 0.83457 0.5711 0.70652 0.0
H1046 H 0.78439 0.56496 0.72607 0.0
H1047 H 0.75275 0.58557 0.75914 0.0
H1048 H 0.79578 0.68088 0.80413 0.0
H1049 H 0.84659 0.68784 0.78317 0.0
C1050 C 0.85839 0.64422 0.74741 0.0
C1051 C 0.86093 0.61914 0.7289 0.0
C1052 C 0.82918 0.64074 0.75875 0.0
C1053 C 0.83367 0.59086 0.72078 0.0
C1054 C 0.80479 0.58724 0.73212 0.0
C1055 C 0.77321 0.60791 0.76455 0.0
C1056 C 0.77034 0.63258 0.7838 0.0
C1057 C 0.80226 0.61185 0.75169 0.0
C1058 C 0.7972 0.66143 0.78964 0.0
C1059 C 0.82631 0.66542 0.7776 0.0
H1060 H 0.21903 0.87451 0.25933 0.0
H1061 H 0.2672 0.82844 0.20674 0.0
H1062 H 0.22256 0.77871 0.22564 0.0
H1063 H 0.17071 0.74789 0.25967 0.0
H1064 H 0.12032 0.79204 0.30954 0.0
H1065 H 0.16476 0.84266 0.28905 0.0
C1066 C 0.21967 0.8536 0.25156 0.0
C1067 C 0.24687 0.85556 0.23199 0.0
C1068 C 0.19351 0.8246 0.26237 0.0
C1069 C 0.24698 0.828 0.22212 0.0
C1070 C 0.22135 0.79937 0.23298 0.0
C1071 C 0.16932 0.76854 0.26621 0.0
C1072 C 0.14222 0.76608 0.28677 0.0
C1073 C 0.19469 0.79738 0.2537 0.0
C1074 C 0.14086 0.79318 0.29401 0.0
C1075 C 0.16632 0.82216 0.28228 0.0
H1076 H 0.35386 0.22068 0.76761 0.0
H1077 H 0.43839 0.26163 0.68172 0.0
H1078 H 0.4439 0.21683 0.69733 0.0
H1079 H 0.42635 0.16707 0.73794 0.0
H1080 H 0.34137 0.12444 0.82219 0.0
H1081 H 0.33447 0.16867 0.80457 0.0
C1082 C 0.3733 0.21967 0.75181 0.0
C1083 C 0.39579 0.24486 0.72377 0.0
C1084 C 0.37645 0.19357 0.76099 0.0
C1085 C 0.4208 0.24293 0.70372 0.0
C1086 C 0.42404 0.21723 0.71268 0.0
C1087 C 0.40628 0.16737 0.75259 0.0
C1088 C 0.38459 0.14251 0.78191 0.0
C1089 C 0.40231 0.19266 0.74186 0.0
C1090 C 0.3585 0.14324 0.79973 0.0
C1091 C 0.35456 0.16857 0.78964 0.0
loop_
_geom_bond_atom_site_label_1
_geom_bond_atom_site_label_2
_geom_bond_distance
_geom_bond_site_symmetry_2
_ccdc_geom_bond_type
Co0 O2 2.143 1_655 S
Co0 O8 2.074 1_655 S
Co0 O11 2.093 . S
Co0 O24 2.097 1_655 S
Co0 N41 2.151 . S
Co0 N49 2.214 . S
Co1 O2 2.160 . S
Co1 O7 2.058 . S
Co1 O17 2.057 . S
Co1 O32 2.037 . S
Co1 N36 2.145 . S
Co1 N57 2.257 . S
O2 Co0 2.143 1_455 S
O2 Co1 2.160 . S
C3 O4 1.278 . S
C3 O11 1.224 1_455 S
O4 C3 1.278 . S
C5 O6 1.245 . S
C5 O17 1.232 . S
O6 C5 1.245 . S
O7 Co1 2.058 . S
O7 C33 1.269 . S
O8 Co0 2.074 1_455 S
O8 C33 1.257 . S
H9 C34 0.930 . S
H10 C40 0.941 . S
O11 Co0 2.093 . S
O11 C3 1.224 1_655 S
H12 C44 0.929 . S
H13 C46 0.930 . S
H14 C47 0.930 . S
H15 C45 0.929 . S
H16 C48 0.928 . S
O17 Co1 2.057 . S
O17 C5 1.232 . S
H18 C37 0.929 . S
H19 C38 0.929 . S
H20 C50 0.931 . S
H21 C42 0.929 . S
H22 C51 0.930 . S
H23 C43 0.931 . S
O24 Co0 2.097 1_455 S
O24 C52 1.214 . S
H25 C53 0.929 . S
H26 C54 0.929 . S
H27 C55 0.930 . S
H28 C56 0.929 . S
H29 C58 0.930 . S
H30 C35 0.930 . S
H31 C39 0.930 . S
O32 Co1 2.037 . S
O32 C52 1.234 . S
C33 O7 1.269 . S
C33 O8 1.257 . S
C34 H9 0.930 . S
C34 C37 1.388 . S
C34 C39 1.418 . S
C35 H30 0.930 . S
C35 C38 1.404 . S
C35 C39 1.353 . S
N36 Co1 2.145 . S
N36 C37 1.397 . S
N36 C38 1.334 . S
C37 H18 0.929 . S
C37 C34 1.388 . S
C37 N36 1.397 . S
C38 H19 0.929 . S
C38 C35 1.404 . S
C38 N36 1.334 . S
C39 H31 0.930 . S
C39 C34 1.418 . S
C39 C35 1.353 . S
C40 H10 0.941 . S
C40 N41 1.330 . S
C40 C42 1.446 . S
N41 Co0 2.151 . S
N41 C40 1.330 . S
N41 C45 1.418 . S
C42 H21 0.929 . S
C42 C40 1.446 . S
C42 C43 1.332 . S
C43 H23 0.931 . S
C43 C42 1.332 . S
C43 C44 1.267 . S
C44 H12 0.929 . S
C44 C43 1.267 . S
C44 C45 1.251 . S
C45 H15 0.929 . S
C45 N41 1.418 . S
C45 C44 1.251 . S
C46 H13 0.930 . S
C46 C48 1.406 . S
C46 C51 1.261 . S
C47 H14 0.930 . S
C47 N49 1.325 . S
C47 C50 1.357 . S
C48 H16 0.928 . S
C48 C46 1.406 . S
C48 N49 1.261 . S
N49 Co0 2.214 . S
N49 C47 1.325 . S
N49 C48 1.261 . S
C50 H20 0.931 . S
C50 C47 1.357 . S
C50 C51 1.312 . S
C51 H22 0.930 . S
C51 C46 1.261 . S
C51 C50 1.312 . S
C52 O24 1.214 . S
C52 O32 1.234 . S
C53 H25 0.929 . S
C53 C56 1.391 . S
C53 C58 1.391 . S
C54 H26 0.929 . S
C54 C55 1.390 . S
C54 N57 1.391 . S
C55 H27 0.930 . S
C55 C54 1.390 . S
C55 C56 1.392 . S
C56 H28 0.929 . S
C56 C53 1.391 . S
C56 C55 1.392 . S
N57 Co1 2.257 . S
N57 C54 1.391 . S
N57 C58 1.388 . S
C58 H29 0.930 . S
C58 C53 1.391 . S
C58 N57 1.388 . S
Co59 O61 2.143 1_565 S
Co59 O67 2.074 1_565 S
Co59 O70 2.093 . S
Co59 O83 2.097 1_565 S
Co59 N100 2.151 . S
Co59 N108 2.214 . S
Co60 O61 2.160 . S
Co60 O66 2.058 . S
Co60 O76 2.057 . S
Co60 O91 2.037 . S
Co60 N95 2.145 . S
Co60 N116 2.257 . S
O61 Co59 2.143 1_545 S
O61 Co60 2.160 . S
C62 O63 1.278 . S
C62 O70 1.224 1_545 S
O63 C62 1.278 . S
C64 O65 1.245 . S
C64 O76 1.232 . S
O65 C64 1.245 . S
O66 Co60 2.058 . S
O66 C92 1.269 . S
O67 Co59 2.074 1_545 S
O67 C92 1.257 . S
H68 C93 0.930 . S
H69 C99 0.947 . S
O70 Co59 2.093 . S
O70 C62 1.224 1_565 S
H71 C103 0.929 . S
H72 C105 0.930 . S
H73 C106 0.930 . S
H74 C104 0.929 . S
H75 C107 0.928 . S
O76 Co60 2.057 . S
O76 C64 1.232 . S
H77 C96 0.929 . S
H78 C97 0.929 . S
H79 C109 0.931 . S
H80 C101 0.929 . S
H81 C110 0.930 . S
H82 C102 0.931 . S
O83 Co59 2.097 1_545 S
O83 C111 1.214 . S
H84 C112 0.929 . S
H85 C113 0.929 . S
H86 C114 0.930 . S
H87 C115 0.929 . S
H88 C117 0.930 . S
H89 C94 0.930 . S
H90 C98 0.930 . S
O91 Co60 2.037 . S
O91 C111 1.234 . S
C92 O66 1.269 . S
C92 O67 1.257 . S
C93 H68 0.930 . S
C93 C96 1.388 . S
C93 C98 1.418 . S
C94 H89 0.930 . S
C94 C97 1.404 . S
C94 C98 1.353 . S
N95 Co60 2.145 . S
N95 C96 1.397 . S
N95 C97 1.334 . S
C96 H77 0.929 . S
C96 C93 1.388 . S
C96 N95 1.397 . S
C97 H78 0.929 . S
C97 C94 1.404 . S
C97 N95 1.334 . S
C98 H90 0.930 . S
C98 C93 1.418 . S
C98 C94 1.353 . S
C99 H69 0.947 . S
C99 N100 1.330 . S
C99 C101 1.446 . S
N100 Co59 2.151 . S
N100 C99 1.330 . S
N100 C104 1.418 . S
C101 H80 0.929 . S
C101 C99 1.446 . S
C101 C102 1.332 . S
C102 H82 0.931 . S
C102 C101 1.332 . S
C102 C103 1.267 . S
C103 H71 0.929 . S
C103 C102 1.267 . S
C103 C104 1.251 . S
C104 H74 0.929 . S
C104 N100 1.418 . S
C104 C103 1.251 . S
C105 H72 0.930 . S
C105 C107 1.406 . S
C105 C110 1.261 . S
C106 H73 0.930 . S
C106 N108 1.325 . S
C106 C109 1.357 . S
C107 H75 0.928 . S
C107 C105 1.406 . S
C107 N108 1.261 . S
N108 Co59 2.214 . S
N108 C106 1.325 . S
N108 C107 1.261 . S
C109 H79 0.931 . S
C109 C106 1.357 . S
C109 C110 1.312 . S
C110 H81 0.930 . S
C110 C105 1.261 . S
C110 C109 1.312 . S
C111 O83 1.214 . S
C111 O91 1.234 . S
C112 H84 0.929 . S
C112 C115 1.391 . S
C112 C117 1.391 . S
C113 H85 0.929 . S
C113 C114 1.390 . S
C113 N116 1.391 . S
C114 H86 0.930 . S
C114 C113 1.390 . S
C114 C115 1.392 . S
C115 H87 0.929 . S
C115 C112 1.391 . S
C115 C114 1.392 . S
N116 Co60 2.257 . S
N116 C113 1.391 . S
N116 C117 1.388 . S
C117 H88 0.930 . S
C117 C112 1.391 . S
C117 N116 1.388 . S
Co118 O120 2.143 . S
Co118 O126 2.074 . S
Co118 O129 2.093 . S
Co118 O142 2.097 . S
Co118 N159 2.151 . S
Co118 N167 2.214 . S
Co119 O120 2.160 . S
Co119 O125 2.058 . S
Co119 O135 2.057 . S
Co119 O150 2.037 . S
Co119 N154 2.145 . S
Co119 N175 2.257 . S
O120 Co118 2.143 . S
O120 Co119 2.160 . S
C121 O122 1.278 . S
C121 O129 1.224 . S
O122 C121 1.278 . S
C123 O124 1.245 . S
C123 O135 1.232 . S
O124 C123 1.245 . S
O125 Co119 2.058 . S
O125 C151 1.269 . S
O126 Co118 2.074 . S
O126 C151 1.257 . S
H127 C152 0.930 . S
H128 C158 0.930 . S
O129 Co118 2.093 . S
O129 C121 1.224 . S
H130 C162 0.929 . S
H131 C164 0.930 . S
H132 C165 0.930 . S
H133 C163 0.929 . S
H134 C166 0.928 . S
O135 Co119 2.057 . S
O135 C123 1.232 . S
H136 C155 0.929 . S
H137 C156 0.929 . S
H138 C168 0.931 . S
H139 C160 0.929 . S
H140 C169 0.930 . S
H141 C161 0.931 . S
O142 Co118 2.097 . S
O142 C170 1.214 . S
H143 C171 0.929 . S
H144 C172 0.929 . S
H145 C173 0.930 . S
H146 C174 0.929 . S
H147 C176 0.930 . S
H148 C153 0.930 . S
H149 C157 0.930 . S
O150 Co119 2.037 . S
O150 C170 1.234 . S
C151 O125 1.269 . S
C151 O126 1.257 . S
C152 H127 0.930 . S
C152 C155 1.388 . S
C152 C157 1.418 . S
C153 H148 0.930 . S
C153 C156 1.404 . S
C153 C157 1.353 . S
N154 Co119 2.145 . S
N154 C155 1.397 . S
N154 C156 1.334 . S
C155 H136 0.929 . S
C155 C152 1.388 . S
C155 N154 1.397 . S
C156 H137 0.929 . S
C156 C153 1.404 . S
C156 N154 1.334 . S
C157 H149 0.930 . S
C157 C152 1.418 . S
C157 C153 1.353 . S
C158 H128 0.930 . S
C158 N159 1.330 . S
C158 C160 1.446 . S
N159 Co118 2.151 . S
N159 C158 1.330 . S
N159 C163 1.418 . S
C160 H139 0.929 . S
C160 C158 1.446 . S
C160 C161 1.332 . S
C161 H141 0.931 . S
C161 C160 1.332 . S
C161 C162 1.267 . S
C162 H130 0.929 . S
C162 C161 1.267 . S
C162 C163 1.251 . S
C163 H133 0.929 . S
C163 N159 1.418 . S
C163 C162 1.251 . S
C164 H131 0.930 . S
C164 C166 1.406 . S
C164 C169 1.261 . S
C165 H132 0.930 . S
C165 N167 1.325 . S
C165 C168 1.357 . S
C166 H134 0.928 . S
C166 C164 1.406 . S
C166 N167 1.261 . S
N167 Co118 2.214 . S
N167 C165 1.325 . S
N167 C166 1.261 . S
C168 H138 0.931 . S
C168 C165 1.357 . S
C168 C169 1.312 . S
C169 H140 0.930 . S
C169 C164 1.261 . S
C169 C168 1.312 . S
C170 O142 1.214 . S
C170 O150 1.234 . S
C171 H143 0.929 . S
C171 C174 1.391 . S
C171 C176 1.391 . S
C172 H144 0.929 . S
C172 C173 1.390 . S
C172 N175 1.391 . S
C173 H145 0.930 . S
C173 C172 1.390 . S
C173 C174 1.392 . S
C174 H146 0.929 . S
C174 C171 1.391 . S
C174 C173 1.392 . S
N175 Co119 2.257 . S
N175 C172 1.391 . S
N175 C176 1.388 . S
C176 H147 0.930 . S
C176 C171 1.391 . S
C176 N175 1.388 . S
Co177 O179 2.143 1_455 S
Co177 O185 2.074 1_455 S
Co177 O188 2.093 . S
Co177 O201 2.097 1_455 S
Co177 N218 2.151 . S
Co177 N226 2.214 . S
Co178 O179 2.160 . S
Co178 O184 2.058 . S
Co178 O194 2.057 . S
Co178 O209 2.037 . S
Co178 N213 2.145 . S
Co178 N234 2.257 . S
O179 Co177 2.143 1_655 S
O179 Co178 2.160 . S
C180 O181 1.278 . S
C180 O188 1.224 1_655 S
O181 C180 1.278 . S
C182 O183 1.245 . S
C182 O194 1.232 . S
O183 C182 1.245 . S
O184 Co178 2.058 . S
O184 C210 1.269 . S
O185 Co177 2.074 1_655 S
O185 C210 1.257 . S
H186 C211 0.930 . S
H187 C217 0.941 . S
O188 Co177 2.093 . S
O188 C180 1.224 1_455 S
H189 C221 0.929 . S
H190 C223 0.930 . S
H191 C224 0.930 . S
H192 C222 0.929 . S
H193 C225 0.928 . S
O194 Co178 2.057 . S
O194 C182 1.232 . S
H195 C214 0.929 . S
H196 C215 0.929 . S
H197 C227 0.931 . S
H198 C219 0.929 . S
H199 C228 0.930 . S
H200 C220 0.931 . S
O201 Co177 2.097 1_655 S
O201 C229 1.214 . S
H202 C230 0.929 . S
H203 C231 0.929 . S
H204 C232 0.930 . S
H205 C233 0.929 . S
H206 C235 0.930 . S
H207 C212 0.930 . S
H208 C216 0.930 . S
O209 Co178 2.037 . S
O209 C229 1.234 . S
C210 O184 1.269 . S
C210 O185 1.257 . S
C211 H186 0.930 . S
C211 C214 1.388 . S
C211 C216 1.418 . S
C212 H207 0.930 . S
C212 C215 1.404 . S
C212 C216 1.353 . S
N213 Co178 2.145 . S
N213 C214 1.397 . S
N213 C215 1.334 . S
C214 H195 0.929 . S
C214 C211 1.388 . S
C214 N213 1.397 . S
C215 H196 0.929 . S
C215 C212 1.404 . S
C215 N213 1.334 . S
C216 H208 0.930 . S
C216 C211 1.418 . S
C216 C212 1.353 . S
C217 H187 0.941 . S
C217 N218 1.330 . S
C217 C219 1.446 . S
N218 Co177 2.151 . S
N218 C217 1.330 . S
N218 C222 1.418 . S
C219 H198 0.929 . S
C219 C217 1.446 . S
C219 C220 1.332 . S
C220 H200 0.931 . S
C220 C219 1.332 . S
C220 C221 1.267 . S
C221 H189 0.929 . S
C221 C220 1.267 . S
C221 C222 1.251 . S
C222 H192 0.929 . S
C222 N218 1.418 . S
C222 C221 1.251 . S
C223 H190 0.930 . S
C223 C225 1.406 . S
C223 C228 1.261 . S
C224 H191 0.930 . S
C224 N226 1.325 . S
C224 C227 1.357 . S
C225 H193 0.928 . S
C225 C223 1.406 . S
C225 N226 1.261 . S
N226 Co177 2.214 . S
N226 C224 1.325 . S
N226 C225 1.261 . S
C227 H197 0.931 . S
C227 C224 1.357 . S
C227 C228 1.312 . S
C228 H199 0.930 . S
C228 C223 1.261 . S
C228 C227 1.312 . S
C229 O201 1.214 . S
C229 O209 1.234 . S
C230 H202 0.929 . S
C230 C233 1.391 . S
C230 C235 1.391 . S
C231 H203 0.929 . S
C231 C232 1.390 . S
C231 N234 1.391 . S
C232 H204 0.930 . S
C232 C231 1.390 . S
C232 C233 1.392 . S
C233 H205 0.929 . S
C233 C230 1.391 . S
C233 C232 1.392 . S
N234 Co178 2.257 . S
N234 C231 1.391 . S
N234 C235 1.388 . S
C235 H206 0.930 . S
C235 C230 1.391 . S
C235 N234 1.388 . S
Co236 O238 2.143 1_545 S
Co236 O244 2.074 1_545 S
Co236 O247 2.093 . S
Co236 O260 2.097 1_545 S
Co236 N277 2.151 . S
Co236 N285 2.214 . S
Co237 O238 2.160 . S
Co237 O243 2.058 . S
Co237 O253 2.057 . S
Co237 O268 2.037 . S
Co237 N272 2.145 . S
Co237 N293 2.257 . S
O238 Co236 2.143 1_565 S
O238 Co237 2.160 . S
C239 O240 1.278 . S
C239 O247 1.224 1_565 S
O240 C239 1.278 . S
C241 O242 1.245 . S
C241 O253 1.232 . S
O242 C241 1.245 . S
O243 Co237 2.058 . S
O243 C269 1.269 . S
O244 Co236 2.074 1_565 S
O244 C269 1.257 . S
H245 C270 0.930 . S
H246 C276 0.947 . S
O247 Co236 2.093 . S
O247 C239 1.224 1_545 S
H248 C280 0.929 . S
H249 C282 0.930 . S
H250 C283 0.930 . S
H251 C281 0.929 . S
H252 C284 0.928 . S
O253 Co237 2.057 . S
O253 C241 1.232 . S
H254 C273 0.929 . S
H255 C274 0.929 . S
H256 C286 0.931 . S
H257 C278 0.929 . S
H258 C287 0.930 . S
H259 C279 0.931 . S
O260 Co236 2.097 1_565 S
O260 C288 1.214 . S
H261 C289 0.929 . S
H262 C290 0.929 . S
H263 C291 0.930 . S
H264 C292 0.929 . S
H265 C294 0.930 . S
H266 C271 0.930 . S
H267 C275 0.930 . S
O268 Co237 2.037 . S
O268 C288 1.234 . S
C269 O243 1.269 . S
C269 O244 1.257 . S
C270 H245 0.930 . S
C270 C273 1.388 . S
C270 C275 1.418 . S
C271 H266 0.930 . S
C271 C274 1.404 . S
C271 C275 1.353 . S
N272 Co237 2.145 . S
N272 C273 1.397 . S
N272 C274 1.334 . S
C273 H254 0.929 . S
C273 C270 1.388 . S
C273 N272 1.397 . S
C274 H255 0.929 . S
C274 C271 1.404 . S
C274 N272 1.334 . S
C275 H267 0.930 . S
C275 C270 1.418 . S
C275 C271 1.353 . S
C276 H246 0.947 . S
C276 N277 1.330 . S
C276 C278 1.446 . S
N277 Co236 2.151 . S
N277 C276 1.330 . S
N277 C281 1.418 . S
C278 H257 0.929 . S
C278 C276 1.446 . S
C278 C279 1.332 . S
C279 H259 0.931 . S
C279 C278 1.332 . S
C279 C280 1.267 . S
C280 H248 0.929 . S
C280 C279 1.267 . S
C280 C281 1.251 . S
C281 H251 0.929 . S
C281 N277 1.418 . S
C281 C280 1.251 . S
C282 H249 0.930 . S
C282 C284 1.406 . S
C282 C287 1.261 . S
C283 H250 0.930 . S
C283 N285 1.325 . S
C283 C286 1.357 . S
C284 H252 0.928 . S
C284 C282 1.406 . S
C284 N285 1.261 . S
N285 Co236 2.214 . S
N285 C283 1.325 . S
N285 C284 1.261 . S
C286 H256 0.931 . S
C286 C283 1.357 . S
C286 C287 1.312 . S
C287 H258 0.930 . S
C287 C282 1.261 . S
C287 C286 1.312 . S
C288 O260 1.214 . S
C288 O268 1.234 . S
C289 H261 0.929 . S
C289 C292 1.391 . S
C289 C294 1.391 . S
C290 H262 0.929 . S
C290 C291 1.390 . S
C290 N293 1.391 . S
C291 H263 0.930 . S
C291 C290 1.390 . S
C291 C292 1.392 . S
C292 H264 0.929 . S
C292 C289 1.391 . S
C292 C291 1.392 . S
N293 Co237 2.257 . S
N293 C290 1.391 . S
N293 C294 1.388 . S
C294 H265 0.930 . S
C294 C289 1.391 . S
C294 N293 1.388 . S
Co295 O297 2.143 . S
Co295 O303 2.074 . S
Co295 O306 2.093 . S
Co295 O319 2.097 . S
Co295 N336 2.151 . S
Co295 N344 2.214 . S
Co296 O297 2.160 . S
Co296 O302 2.058 . S
Co296 O312 2.057 . S
Co296 O327 2.037 . S
Co296 N331 2.145 . S
Co296 N352 2.257 . S
O297 Co295 2.143 . S
O297 Co296 2.160 . S
C298 O299 1.278 . S
C298 O306 1.224 . S
O299 C298 1.278 . S
C300 O301 1.245 . S
C300 O312 1.232 . S
O301 C300 1.245 . S
O302 Co296 2.058 . S
O302 C328 1.269 . S
O303 Co295 2.074 . S
O303 C328 1.257 . S
H304 C329 0.930 . S
H305 C335 0.930 . S
O306 Co295 2.093 . S
O306 C298 1.224 . S
H307 C339 0.929 . S
H308 C341 0.930 . S
H309 C342 0.930 . S
H310 C340 0.929 . S
H311 C343 0.928 . S
O312 Co296 2.057 . S
O312 C300 1.232 . S
H313 C332 0.929 . S
H314 C333 0.929 . S
H315 C345 0.931 . S
H316 C337 0.929 . S
H317 C346 0.930 . S
H318 C338 0.931 . S
O319 Co295 2.097 . S
O319 C347 1.214 . S
H320 C348 0.929 . S
H321 C349 0.929 . S
H322 C350 0.930 . S
H323 C351 0.929 . S
H324 C353 0.930 . S
H325 C330 0.930 . S
H326 C334 0.930 . S
O327 Co296 2.037 . S
O327 C347 1.234 . S
C328 O302 1.269 . S
C328 O303 1.257 . S
C329 H304 0.930 . S
C329 C332 1.388 . S
C329 C334 1.418 . S
C330 H325 0.930 . S
C330 C333 1.404 . S
C330 C334 1.353 . S
N331 Co296 2.145 . S
N331 C332 1.397 . S
N331 C333 1.334 . S
C332 H313 0.929 . S
C332 C329 1.388 . S
C332 N331 1.397 . S
C333 H314 0.929 . S
C333 C330 1.404 . S
C333 N331 1.334 . S
C334 H326 0.930 . S
C334 C329 1.418 . S
C334 C330 1.353 . S
C335 H305 0.930 . S
C335 N336 1.330 . S
C335 C337 1.446 . S
N336 Co295 2.151 . S
N336 C335 1.330 . S
N336 C340 1.418 . S
C337 H316 0.929 . S
C337 C335 1.446 . S
C337 C338 1.332 . S
C338 H318 0.931 . S
C338 C337 1.332 . S
C338 C339 1.267 . S
C339 H307 0.929 . S
C339 C338 1.267 . S
C339 C340 1.251 . S
C340 H310 0.929 . S
C340 N336 1.418 . S
C340 C339 1.251 . S
C341 H308 0.930 . S
C341 C343 1.406 . S
C341 C346 1.261 . S
C342 H309 0.930 . S
C342 N344 1.325 . S
C342 C345 1.357 . S
C343 H311 0.928 . S
C343 C341 1.406 . S
C343 N344 1.261 . S
N344 Co295 2.214 . S
N344 C342 1.325 . S
N344 C343 1.261 . S
C345 H315 0.931 . S
C345 C342 1.357 . S
C345 C346 1.312 . S
C346 H317 0.930 . S
C346 C341 1.261 . S
C346 C345 1.312 . S
C347 O319 1.214 . S
C347 O327 1.234 . S
C348 H320 0.929 . S
C348 C351 1.391 . S
C348 C353 1.391 . S
C349 H321 0.929 . S
C349 C350 1.390 . S
C349 N352 1.391 . S
C350 H322 0.930 . S
C350 C349 1.390 . S
C350 C351 1.392 . S
C351 H323 0.929 . S
C351 C348 1.391 . S
C351 C350 1.392 . S
N352 Co296 2.257 . S
N352 C349 1.391 . S
N352 C353 1.388 . S
C353 H324 0.930 . S
C353 C348 1.391 . S
C353 N352 1.388 . S
Co354 O356 2.143 1_545 S
Co354 O362 2.074 1_545 S
Co354 O365 2.093 . S
Co354 O378 2.097 1_545 S
Co354 N395 2.151 . S
Co354 N403 2.214 . S
Co355 O356 2.160 . S
Co355 O361 2.058 . S
Co355 O371 2.057 . S
Co355 O386 2.037 . S
Co355 N390 2.145 . S
Co355 N411 2.257 . S
O356 Co354 2.143 1_565 S
O356 Co355 2.160 . S
C357 O358 1.278 . S
C357 O365 1.224 1_565 S
O358 C357 1.278 . S
C359 O360 1.245 . S
C359 O371 1.232 . S
O360 C359 1.245 . S
O361 Co355 2.058 . S
O361 C387 1.269 . S
O362 Co354 2.074 1_565 S
O362 C387 1.257 . S
H363 C388 0.930 . S
H364 C394 0.941 . S
O365 Co354 2.093 . S
O365 C357 1.224 1_545 S
H366 C398 0.929 . S
H367 C400 0.930 . S
H368 C401 0.930 . S
H369 C399 0.929 . S
H370 C402 0.928 . S
O371 Co355 2.057 . S
O371 C359 1.232 . S
H372 C391 0.929 . S
H373 C392 0.929 . S
H374 C404 0.931 . S
H375 C396 0.929 . S
H376 C405 0.930 . S
H377 C397 0.931 . S
O378 Co354 2.097 1_565 S
O378 C406 1.214 . S
H379 C407 0.929 . S
H380 C408 0.929 . S
H381 C409 0.930 . S
H382 C410 0.929 . S
H383 C412 0.930 . S
H384 C389 0.930 . S
H385 C393 0.930 . S
O386 Co355 2.037 . S
O386 C406 1.234 . S
C387 O361 1.269 . S
C387 O362 1.257 . S
C388 H363 0.930 . S
C388 C391 1.388 . S
C388 C393 1.418 . S
C389 H384 0.930 . S
C389 C392 1.404 . S
C389 C393 1.353 . S
N390 Co355 2.145 . S
N390 C391 1.397 . S
N390 C392 1.334 . S
C391 H372 0.929 . S
C391 C388 1.388 . S
C391 N390 1.397 . S
C392 H373 0.929 . S
C392 C389 1.404 . S
C392 N390 1.334 . S
C393 H385 0.930 . S
C393 C388 1.418 . S
C393 C389 1.353 . S
C394 H364 0.941 . S
C394 N395 1.330 . S
C394 C396 1.446 . S
N395 Co354 2.151 . S
N395 C394 1.330 . S
N395 C399 1.418 . S
C396 H375 0.929 . S
C396 C394 1.446 . S
C396 C397 1.332 . S
C397 H377 0.931 . S
C397 C396 1.332 . S
C397 C398 1.267 . S
C398 H366 0.929 . S
C398 C397 1.267 . S
C398 C399 1.251 . S
C399 H369 0.929 . S
C399 N395 1.418 . S
C399 C398 1.251 . S
C400 H367 0.930 . S
C400 C402 1.406 . S
C400 C405 1.261 . S
C401 H368 0.930 . S
C401 N403 1.325 . S
C401 C404 1.357 . S
C402 H370 0.928 . S
C402 C400 1.406 . S
C402 N403 1.261 . S
N403 Co354 2.214 . S
N403 C401 1.325 . S
N403 C402 1.261 . S
C404 H374 0.931 . S
C404 C401 1.357 . S
C404 C405 1.312 . S
C405 H376 0.930 . S
C405 C400 1.261 . S
C405 C404 1.312 . S
C406 O378 1.214 . S
C406 O386 1.234 . S
C407 H379 0.929 . S
C407 C410 1.391 . S
C407 C412 1.391 . S
C408 H380 0.929 . S
C408 C409 1.390 . S
C408 N411 1.391 . S
C409 H381 0.930 . S
C409 C408 1.390 . S
C409 C410 1.392 . S
C410 H382 0.929 . S
C410 C407 1.391 . S
C410 C409 1.392 . S
N411 Co355 2.257 . S
N411 C408 1.391 . S
N411 C412 1.388 . S
C412 H383 0.930 . S
C412 C407 1.391 . S
C412 N411 1.388 . S
Co413 O415 2.143 . S
Co413 O421 2.074 . S
Co413 O424 2.093 . S
Co413 O437 2.097 . S
Co413 N454 2.151 . S
Co413 N462 2.214 . S
Co414 O415 2.160 . S
Co414 O420 2.058 . S
Co414 O430 2.057 . S
Co414 O445 2.037 . S
Co414 N449 2.145 . S
Co414 N470 2.257 . S
O415 Co413 2.143 . S
O415 Co414 2.160 . S
C416 O417 1.278 . S
C416 O424 1.224 . S
O417 C416 1.278 . S
C418 O419 1.245 . S
C418 O430 1.232 . S
O419 C418 1.245 . S
O420 Co414 2.058 . S
O420 C446 1.269 . S
O421 Co413 2.074 . S
O421 C446 1.257 . S
H422 C447 0.930 . S
H423 C453 0.930 . S
O424 Co413 2.093 . S
O424 C416 1.224 . S
H425 C457 0.929 . S
H426 C459 0.930 . S
H427 C460 0.930 . S
H428 C458 0.929 . S
H429 C461 0.928 . S
O430 Co414 2.057 . S
O430 C418 1.232 . S
H431 C450 0.929 . S
H432 C451 0.929 . S
H433 C463 0.931 . S
H434 C455 0.929 . S
H435 C464 0.930 . S
H436 C456 0.931 . S
O437 Co413 2.097 . S
O437 C465 1.214 . S
H438 C466 0.929 . S
H439 C467 0.929 . S
H440 C468 0.930 . S
H441 C469 0.929 . S
H442 C471 0.930 . S
H443 C448 0.930 . S
H444 C452 0.930 . S
O445 Co414 2.037 . S
O445 C465 1.234 . S
C446 O420 1.269 . S
C446 O421 1.257 . S
C447 H422 0.930 . S
C447 C450 1.388 . S
C447 C452 1.418 . S
C448 H443 0.930 . S
C448 C451 1.404 . S
C448 C452 1.353 . S
N449 Co414 2.145 . S
N449 C450 1.397 . S
N449 C451 1.334 . S
C450 H431 0.929 . S
C450 C447 1.388 . S
C450 N449 1.397 . S
C451 H432 0.929 . S
C451 C448 1.404 . S
C451 N449 1.334 . S
C452 H444 0.930 . S
C452 C447 1.418 . S
C452 C448 1.353 . S
C453 H423 0.930 . S
C453 N454 1.330 . S
C453 C455 1.446 . S
N454 Co413 2.151 . S
N454 C453 1.330 . S
N454 C458 1.418 . S
C455 H434 0.929 . S
C455 C453 1.446 . S
C455 C456 1.332 . S
C456 H436 0.931 . S
C456 C455 1.332 . S
C456 C457 1.267 . S
C457 H425 0.929 . S
C457 C456 1.267 . S
C457 C458 1.251 . S
C458 H428 0.929 . S
C458 N454 1.418 . S
C458 C457 1.251 . S
C459 H426 0.930 . S
C459 C461 1.406 . S
C459 C464 1.261 . S
C460 H427 0.930 . S
C460 N462 1.325 . S
C460 C463 1.357 . S
C461 H429 0.928 . S
C461 C459 1.406 . S
C461 N462 1.261 . S
N462 Co413 2.214 . S
N462 C460 1.325 . S
N462 C461 1.261 . S
C463 H433 0.931 . S
C463 C460 1.357 . S
C463 C464 1.312 . S
C464 H435 0.930 . S
C464 C459 1.261 . S
C464 C463 1.312 . S
C465 O437 1.214 . S
C465 O445 1.234 . S
C466 H438 0.929 . S
C466 C469 1.391 . S
C466 C471 1.391 . S
C467 H439 0.929 . S
C467 C468 1.390 . S
C467 N470 1.391 . S
C468 H440 0.930 . S
C468 C467 1.390 . S
C468 C469 1.392 . S
C469 H441 0.929 . S
C469 C466 1.391 . S
C469 C468 1.392 . S
N470 Co414 2.257 . S
N470 C467 1.391 . S
N470 C471 1.388 . S
C471 H442 0.930 . S
C471 C466 1.391 . S
C471 N470 1.388 . S
Co472 O474 2.143 1_655 S
Co472 O480 2.074 1_655 S
Co472 O483 2.093 . S
Co472 O496 2.097 1_655 S
Co472 N513 2.151 . S
Co472 N521 2.214 . S
Co473 O474 2.160 . S
Co473 O479 2.058 . S
Co473 O489 2.057 . S
Co473 O504 2.037 . S
Co473 N508 2.145 . S
Co473 N529 2.257 . S
O474 Co472 2.143 1_455 S
O474 Co473 2.160 . S
C475 O476 1.278 . S
C475 O483 1.224 1_455 S
O476 C475 1.278 . S
C477 O478 1.245 . S
C477 O489 1.232 . S
O478 C477 1.245 . S
O479 Co473 2.058 . S
O479 C505 1.269 . S
O480 Co472 2.074 1_455 S
O480 C505 1.257 . S
H481 C506 0.930 . S
H482 C512 0.947 . S
O483 Co472 2.093 . S
O483 C475 1.224 1_655 S
H484 C516 0.929 . S
H485 C518 0.930 . S
H486 C519 0.930 . S
H487 C517 0.929 . S
H488 C520 0.928 . S
O489 Co473 2.057 . S
O489 C477 1.232 . S
H490 C509 0.929 . S
H491 C510 0.929 . S
H492 C522 0.931 . S
H493 C514 0.929 . S
H494 C523 0.930 . S
H495 C515 0.931 . S
O496 Co472 2.097 1_455 S
O496 C524 1.214 . S
H497 C525 0.929 . S
H498 C526 0.929 . S
H499 C527 0.930 . S
H500 C528 0.929 . S
H501 C530 0.930 . S
H502 C507 0.930 . S
H503 C511 0.930 . S
O504 Co473 2.037 . S
O504 C524 1.234 . S
C505 O479 1.269 . S
C505 O480 1.257 . S
C506 H481 0.930 . S
C506 C509 1.388 . S
C506 C511 1.418 . S
C507 H502 0.930 . S
C507 C510 1.404 . S
C507 C511 1.353 . S
N508 Co473 2.145 . S
N508 C509 1.397 . S
N508 C510 1.334 . S
C509 H490 0.929 . S
C509 C506 1.388 . S
C509 N508 1.397 . S
C510 H491 0.929 . S
C510 C507 1.404 . S
C510 N508 1.334 . S
C511 H503 0.930 . S
C511 C506 1.418 . S
C511 C507 1.353 . S
C512 H482 0.947 . S
C512 N513 1.330 . S
C512 C514 1.446 . S
N513 Co472 2.151 . S
N513 C512 1.330 . S
N513 C517 1.418 . S
C514 H493 0.929 . S
C514 C512 1.446 . S
C514 C515 1.332 . S
C515 H495 0.931 . S
C515 C514 1.332 . S
C515 C516 1.267 . S
C516 H484 0.929 . S
C516 C515 1.267 . S
C516 C517 1.251 . S
C517 H487 0.929 . S
C517 N513 1.418 . S
C517 C516 1.251 . S
C518 H485 0.930 . S
C518 C520 1.406 . S
C518 C523 1.261 . S
C519 H486 0.930 . S
C519 N521 1.325 . S
C519 C522 1.357 . S
C520 H488 0.928 . S
C520 C518 1.406 . S
C520 N521 1.261 . S
N521 Co472 2.214 . S
N521 C519 1.325 . S
N521 C520 1.261 . S
C522 H492 0.931 . S
C522 C519 1.357 . S
C522 C523 1.312 . S
C523 H494 0.930 . S
C523 C518 1.261 . S
C523 C522 1.312 . S
C524 O496 1.214 . S
C524 O504 1.234 . S
C525 H497 0.929 . S
C525 C528 1.391 . S
C525 C530 1.391 . S
C526 H498 0.929 . S
C526 C527 1.390 . S
C526 N529 1.391 . S
C527 H499 0.930 . S
C527 C526 1.390 . S
C527 C528 1.392 . S
C528 H500 0.929 . S
C528 C525 1.391 . S
C528 C527 1.392 . S
N529 Co473 2.257 . S
N529 C526 1.391 . S
N529 C530 1.388 . S
C530 H501 0.930 . S
C530 C525 1.391 . S
C530 N529 1.388 . S
Co531 O533 2.143 1_565 S
Co531 O539 2.074 1_565 S
Co531 O542 2.093 . S
Co531 O555 2.097 1_565 S
Co531 N572 2.151 . S
Co531 N580 2.214 . S
Co532 O533 2.160 . S
Co532 O538 2.058 . S
Co532 O548 2.057 . S
Co532 O563 2.037 . S
Co532 N567 2.145 . S
Co532 N588 2.257 . S
O533 Co531 2.143 1_545 S
O533 Co532 2.160 . S
C534 O535 1.278 . S
C534 O542 1.224 1_545 S
O535 C534 1.278 . S
C536 O537 1.245 . S
C536 O548 1.232 . S
O537 C536 1.245 . S
O538 Co532 2.058 . S
O538 C564 1.269 . S
O539 Co531 2.074 1_545 S
O539 C564 1.257 . S
H540 C565 0.930 . S
H541 C571 0.941 . S
O542 Co531 2.093 . S
O542 C534 1.224 1_565 S
H543 C575 0.929 . S
H544 C577 0.930 . S
H545 C578 0.930 . S
H546 C576 0.929 . S
H547 C579 0.928 . S
O548 Co532 2.057 . S
O548 C536 1.232 . S
H549 C568 0.929 . S
H550 C569 0.929 . S
H551 C581 0.931 . S
H552 C573 0.929 . S
H553 C582 0.930 . S
H554 C574 0.931 . S
O555 Co531 2.097 1_545 S
O555 C583 1.214 . S
H556 C584 0.929 . S
H557 C585 0.929 . S
H558 C586 0.930 . S
H559 C587 0.929 . S
H560 C589 0.930 . S
H561 C566 0.930 . S
H562 C570 0.930 . S
O563 Co532 2.037 . S
O563 C583 1.234 . S
C564 O538 1.269 . S
C564 O539 1.257 . S
C565 H540 0.930 . S
C565 C568 1.388 . S
C565 C570 1.418 . S
C566 H561 0.930 . S
C566 C569 1.404 . S
C566 C570 1.353 . S
N567 Co532 2.145 . S
N567 C568 1.397 . S
N567 C569 1.334 . S
C568 H549 0.929 . S
C568 C565 1.388 . S
C568 N567 1.397 . S
C569 H550 0.929 . S
C569 C566 1.404 . S
C569 N567 1.334 . S
C570 H562 0.930 . S
C570 C565 1.418 . S
C570 C566 1.353 . S
C571 H541 0.941 . S
C571 N572 1.330 . S
C571 C573 1.446 . S
N572 Co531 2.151 . S
N572 C571 1.330 . S
N572 C576 1.418 . S
C573 H552 0.929 . S
C573 C571 1.446 . S
C573 C574 1.332 . S
C574 H554 0.931 . S
C574 C573 1.332 . S
C574 C575 1.267 . S
C575 H543 0.929 . S
C575 C574 1.267 . S
C575 C576 1.251 . S
C576 H546 0.929 . S
C576 N572 1.418 . S
C576 C575 1.251 . S
C577 H544 0.930 . S
C577 C579 1.406 . S
C577 C582 1.261 . S
C578 H545 0.930 . S
C578 N580 1.325 . S
C578 C581 1.357 . S
C579 H547 0.928 . S
C579 C577 1.406 . S
C579 N580 1.261 . S
N580 Co531 2.214 . S
N580 C578 1.325 . S
N580 C579 1.261 . S
C581 H551 0.931 . S
C581 C578 1.357 . S
C581 C582 1.312 . S
C582 H553 0.930 . S
C582 C577 1.261 . S
C582 C581 1.312 . S
C583 O555 1.214 . S
C583 O563 1.234 . S
C584 H556 0.929 . S
C584 C587 1.391 . S
C584 C589 1.391 . S
C585 H557 0.929 . S
C585 C586 1.390 . S
C585 N588 1.391 . S
C586 H558 0.930 . S
C586 C585 1.390 . S
C586 C587 1.392 . S
C587 H559 0.929 . S
C587 C584 1.391 . S
C587 C586 1.392 . S
N588 Co532 2.257 . S
N588 C585 1.391 . S
N588 C589 1.388 . S
C589 H560 0.930 . S
C589 C584 1.391 . S
C589 N588 1.388 . S
Co590 O592 2.143 . S
Co590 O598 2.074 . S
Co590 O601 2.093 . S
Co590 O614 2.097 . S
Co590 N631 2.151 . S
Co590 N639 2.214 . S
Co591 O592 2.160 . S
Co591 O597 2.058 . S
Co591 O607 2.057 . S
Co591 O622 2.037 . S
Co591 N626 2.145 . S
Co591 N647 2.257 . S
O592 Co590 2.143 . S
O592 Co591 2.160 . S
C593 O594 1.278 . S
C593 O601 1.224 . S
O594 C593 1.278 . S
C595 O596 1.245 . S
C595 O607 1.232 . S
O596 C595 1.245 . S
O597 Co591 2.058 . S
O597 C623 1.269 . S
O598 Co590 2.074 . S
O598 C623 1.257 . S
H599 C624 0.930 . S
H600 C630 0.930 . S
O601 Co590 2.093 . S
O601 C593 1.224 . S
H602 C634 0.929 . S
H603 C636 0.930 . S
H604 C637 0.930 . S
H605 C635 0.929 . S
H606 C638 0.928 . S
O607 Co591 2.057 . S
O607 C595 1.232 . S
H608 C627 0.929 . S
H609 C628 0.929 . S
H610 C640 0.931 . S
H611 C632 0.929 . S
H612 C641 0.930 . S
H613 C633 0.931 . S
O614 Co590 2.097 . S
O614 C642 1.214 . S
H615 C643 0.929 . S
H616 C644 0.929 . S
H617 C645 0.930 . S
H618 C646 0.929 . S
H619 C648 0.930 . S
H620 C625 0.930 . S
H621 C629 0.930 . S
O622 Co591 2.037 . S
O622 C642 1.234 . S
C623 O597 1.269 . S
C623 O598 1.257 . S
C624 H599 0.930 . S
C624 C627 1.388 . S
C624 C629 1.418 . S
C625 H620 0.930 . S
C625 C628 1.404 . S
C625 C629 1.353 . S
N626 Co591 2.145 . S
N626 C627 1.397 . S
N626 C628 1.334 . S
C627 H608 0.929 . S
C627 C624 1.388 . S
C627 N626 1.397 . S
C628 H609 0.929 . S
C628 C625 1.404 . S
C628 N626 1.334 . S
C629 H621 0.930 . S
C629 C624 1.418 . S
C629 C625 1.353 . S
C630 H600 0.930 . S
C630 N631 1.330 . S
C630 C632 1.446 . S
N631 Co590 2.151 . S
N631 C630 1.330 . S
N631 C635 1.418 . S
C632 H611 0.929 . S
C632 C630 1.446 . S
C632 C633 1.332 . S
C633 H613 0.931 . S
C633 C632 1.332 . S
C633 C634 1.267 . S
C634 H602 0.929 . S
C634 C633 1.267 . S
C634 C635 1.251 . S
C635 H605 0.929 . S
C635 N631 1.418 . S
C635 C634 1.251 . S
C636 H603 0.930 . S
C636 C638 1.406 . S
C636 C641 1.261 . S
C637 H604 0.930 . S
C637 N639 1.325 . S
C637 C640 1.357 . S
C638 H606 0.928 . S
C638 C636 1.406 . S
C638 N639 1.261 . S
N639 Co590 2.214 . S
N639 C637 1.325 . S
N639 C638 1.261 . S
C640 H610 0.931 . S
C640 C637 1.357 . S
C640 C641 1.312 . S
C641 H612 0.930 . S
C641 C636 1.261 . S
C641 C640 1.312 . S
C642 O614 1.214 . S
C642 O622 1.234 . S
C643 H615 0.929 . S
C643 C646 1.391 . S
C643 C648 1.391 . S
C644 H616 0.929 . S
C644 C645 1.390 . S
C644 N647 1.391 . S
C645 H617 0.930 . S
C645 C644 1.390 . S
C645 C646 1.392 . S
C646 H618 0.929 . S
C646 C643 1.391 . S
C646 C645 1.392 . S
N647 Co591 2.257 . S
N647 C644 1.391 . S
N647 C648 1.388 . S
C648 H619 0.930 . S
C648 C643 1.391 . S
C648 N647 1.388 . S
Co649 O651 2.143 1_455 S
Co649 O657 2.074 1_455 S
Co649 O660 2.093 . S
Co649 O673 2.097 1_455 S
Co649 N690 2.151 . S
Co649 N698 2.214 . S
Co650 O651 2.160 . S
Co650 O656 2.058 . S
Co650 O666 2.057 . S
Co650 O681 2.037 . S
Co650 N685 2.145 . S
Co650 N706 2.257 . S
O651 Co649 2.143 1_655 S
O651 Co650 2.160 . S
C652 O653 1.278 . S
C652 O660 1.224 1_655 S
O653 C652 1.278 . S
C654 O655 1.245 . S
C654 O666 1.232 . S
O655 C654 1.245 . S
O656 Co650 2.058 . S
O656 C682 1.269 . S
O657 Co649 2.074 1_655 S
O657 C682 1.257 . S
H658 C683 0.930 . S
H659 C689 0.947 . S
O660 Co649 2.093 . S
O660 C652 1.224 1_455 S
H661 C693 0.929 . S
H662 C695 0.930 . S
H663 C696 0.930 . S
H664 C694 0.929 . S
H665 C697 0.928 . S
O666 Co650 2.057 . S
O666 C654 1.232 . S
H667 C686 0.929 . S
H668 C687 0.929 . S
H669 C699 0.931 . S
H670 C691 0.929 . S
H671 C700 0.930 . S
H672 C692 0.931 . S
O673 Co649 2.097 1_655 S
O673 C701 1.214 . S
H674 C702 0.929 . S
H675 C703 0.929 . S
H676 C704 0.930 . S
H677 C705 0.929 . S
H678 C707 0.930 . S
H679 C684 0.930 . S
H680 C688 0.930 . S
O681 Co650 2.037 . S
O681 C701 1.234 . S
C682 O656 1.269 . S
C682 O657 1.257 . S
C683 H658 0.930 . S
C683 C686 1.388 . S
C683 C688 1.418 . S
C684 H679 0.930 . S
C684 C687 1.404 . S
C684 C688 1.353 . S
N685 Co650 2.145 . S
N685 C686 1.397 . S
N685 C687 1.334 . S
C686 H667 0.929 . S
C686 C683 1.388 . S
C686 N685 1.397 . S
C687 H668 0.929 . S
C687 C684 1.404 . S
C687 N685 1.334 . S
C688 H680 0.930 . S
C688 C683 1.418 . S
C688 C684 1.353 . S
C689 H659 0.947 . S
C689 N690 1.330 . S
C689 C691 1.446 . S
N690 Co649 2.151 . S
N690 C689 1.330 . S
N690 C694 1.418 . S
C691 H670 0.929 . S
C691 C689 1.446 . S
C691 C692 1.332 . S
C692 H672 0.931 . S
C692 C691 1.332 . S
C692 C693 1.267 . S
C693 H661 0.929 . S
C693 C692 1.267 . S
C693 C694 1.251 . S
C694 H664 0.929 . S
C694 N690 1.418 . S
C694 C693 1.251 . S
C695 H662 0.930 . S
C695 C697 1.406 . S
C695 C700 1.261 . S
C696 H663 0.930 . S
C696 N698 1.325 . S
C696 C699 1.357 . S
C697 H665 0.928 . S
C697 C695 1.406 . S
C697 N698 1.261 . S
N698 Co649 2.214 . S
N698 C696 1.325 . S
N698 C697 1.261 . S
C699 H669 0.931 . S
C699 C696 1.357 . S
C699 C700 1.312 . S
C700 H671 0.930 . S
C700 C695 1.261 . S
C700 C699 1.312 . S
C701 O673 1.214 . S
C701 O681 1.234 . S
C702 H674 0.929 . S
C702 C705 1.391 . S
C702 C707 1.391 . S
C703 H675 0.929 . S
C703 C704 1.390 . S
C703 N706 1.391 . S
C704 H676 0.930 . S
C704 C703 1.390 . S
C704 C705 1.392 . S
C705 H677 0.929 . S
C705 C702 1.391 . S
C705 C704 1.392 . S
N706 Co650 2.257 . S
N706 C703 1.391 . S
N706 C707 1.388 . S
C707 H678 0.930 . S
C707 C702 1.391 . S
C707 N706 1.388 . S
H708 C714 0.930 . S
H709 C717 0.930 . S
H710 C718 0.930 1_556 S
H711 C719 0.930 . S
H712 C722 0.930 . S
H713 C723 0.930 1_554 S
C714 H708 0.930 . S
C714 C715 1.355 1_655 S
C714 C716 1.415 . S
C715 C714 1.355 1_455 S
C715 C717 1.419 . S
C716 C714 1.415 . S
C716 C721 1.425 1_654 S
C716 C723 1.409 1_554 S
C717 H709 0.930 . S
C717 C715 1.419 . S
C717 C718 1.362 . S
C718 H710 0.930 1_554 S
C718 C717 1.362 . S
C718 C721 1.409 1_554 S
C719 H711 0.930 . S
C719 C720 1.355 1_455 S
C719 C721 1.415 . S
C720 C719 1.355 1_655 S
C720 C722 1.419 . S
C721 C716 1.425 1_456 S
C721 C718 1.409 1_556 S
C721 C719 1.415 . S
C722 H712 0.930 . S
C722 C720 1.419 . S
C722 C723 1.362 . S
C723 H713 0.930 1_556 S
C723 C716 1.409 1_556 S
C723 C722 1.362 . S
H724 C730 0.930 . S
H725 C733 0.930 . S
H726 C734 0.930 . S
H727 C735 0.930 . S
H728 C738 0.930 . S
H729 C739 0.930 . S
C730 H724 0.930 . S
C730 C731 1.355 . S
C730 C732 1.415 . S
C731 C730 1.355 . S
C731 C733 1.419 1_565 S
C732 C730 1.415 . S
C732 C737 1.425 1_565 S
C732 C739 1.409 . S
C733 H725 0.930 . S
C733 C731 1.419 1_545 S
C733 C734 1.362 . S
C734 H726 0.930 . S
C734 C733 1.362 . S
C734 C737 1.409 . S
C735 H727 0.930 . S
C735 C736 1.355 . S
C735 C737 1.415 . S
C736 C735 1.355 . S
C736 C738 1.419 1_545 S
C737 C732 1.425 1_545 S
C737 C734 1.409 . S
C737 C735 1.415 . S
C738 H728 0.930 . S
C738 C736 1.419 1_565 S
C738 C739 1.362 . S
C739 H729 0.930 . S
C739 C732 1.409 . S
C739 C738 1.362 . S
H740 C746 0.930 . S
H741 C749 0.930 . S
H742 C750 0.930 . S
H743 C751 0.930 . S
H744 C754 0.930 . S
H745 C755 0.930 . S
C746 H740 0.930 . S
C746 C747 1.355 . S
C746 C748 1.415 . S
C747 C746 1.355 . S
C747 C749 1.419 . S
C748 C746 1.415 . S
C748 C753 1.425 1_554 S
C748 C755 1.409 1_554 S
C749 H741 0.930 . S
C749 C747 1.419 . S
C749 C750 1.362 . S
C750 H742 0.930 . S
C750 C749 1.362 . S
C750 C753 1.409 1_554 S
C751 H743 0.930 . S
C751 C752 1.355 . S
C751 C753 1.415 . S
C752 C751 1.355 . S
C752 C754 1.419 . S
C753 C748 1.425 1_556 S
C753 C750 1.409 1_556 S
C753 C751 1.415 . S
C754 H744 0.930 . S
C754 C752 1.419 . S
C754 C755 1.362 . S
C755 H745 0.930 . S
C755 C748 1.409 1_556 S
C755 C754 1.362 . S
H756 C762 0.930 . S
H757 C765 0.930 . S
H758 C766 0.930 . S
H759 C767 0.930 . S
H760 C770 0.930 . S
H761 C771 0.930 . S
C762 H756 0.930 . S
C762 C763 1.355 . S
C762 C764 1.415 . S
C763 C762 1.355 . S
C763 C765 1.419 1_455 S
C764 C762 1.415 . S
C764 C769 1.425 1_455 S
C764 C771 1.409 . S
C765 H757 0.930 . S
C765 C763 1.419 1_655 S
C765 C766 1.362 . S
C766 H758 0.930 . S
C766 C765 1.362 . S
C766 C769 1.409 . S
C767 H759 0.930 . S
C767 C768 1.355 . S
C767 C769 1.415 . S
C768 C767 1.355 . S
C768 C770 1.419 1_655 S
C769 C764 1.425 1_655 S
C769 C766 1.409 . S
C769 C767 1.415 . S
C770 H760 0.930 . S
C770 C768 1.419 1_455 S
C770 C771 1.362 . S
C771 H761 0.930 . S
C771 C764 1.409 . S
C771 C770 1.362 . S
H772 C778 0.930 . S
H773 C781 0.930 . S
H774 C782 0.930 . S
H775 C783 0.930 . S
H776 C786 0.930 . S
H777 C787 0.930 . S
C778 H772 0.930 . S
C778 C779 1.355 . S
C778 C780 1.415 . S
C779 C778 1.355 . S
C779 C781 1.419 1_545 S
C780 C778 1.415 . S
C780 C785 1.425 1_546 S
C780 C787 1.409 1_556 S
C781 H773 0.930 . S
C781 C779 1.419 1_565 S
C781 C782 1.362 . S
C782 H774 0.930 . S
C782 C781 1.362 . S
C782 C785 1.409 1_556 S
C783 H775 0.930 . S
C783 C784 1.355 . S
C783 C785 1.415 . S
C784 C783 1.355 . S
C784 C786 1.419 1_565 S
C785 C780 1.425 1_564 S
C785 C782 1.409 1_554 S
C785 C783 1.415 . S
C786 H776 0.930 . S
C786 C784 1.419 1_545 S
C786 C787 1.362 . S
C787 H777 0.930 . S
C787 C780 1.409 1_554 S
C787 C786 1.362 . S
H788 C794 0.930 . S
H789 C797 0.930 . S
H790 C798 0.930 . S
H791 C799 0.930 . S
H792 C802 0.930 . S
H793 C803 0.930 . S
C794 H788 0.930 . S
C794 C795 1.355 . S
C794 C796 1.415 . S
C795 C794 1.355 . S
C795 C797 1.419 . S
C796 C794 1.415 . S
C796 C801 1.425 . S
C796 C803 1.409 . S
C797 H789 0.930 . S
C797 C795 1.419 . S
C797 C798 1.362 . S
C798 H790 0.930 . S
C798 C797 1.362 . S
C798 C801 1.409 . S
C799 H791 0.930 . S
C799 C800 1.355 . S
C799 C801 1.415 . S
C800 C799 1.355 . S
C800 C802 1.419 . S
C801 C796 1.425 . S
C801 C798 1.409 . S
C801 C799 1.415 . S
C802 H792 0.930 . S
C802 C800 1.419 . S
C802 C803 1.362 . S
C803 H793 0.930 . S
C803 C796 1.409 . S
C803 C802 1.362 . S
H804 C810 0.930 . S
H805 C813 0.930 . S
H806 C814 0.930 . S
H807 C815 0.930 . S
H808 C818 0.930 . S
H809 C819 0.930 . S
C810 H804 0.930 . S
C810 C811 1.355 . S
C810 C812 1.417 . S
C811 C810 1.355 . S
C811 C813 1.419 . S
C812 C810 1.417 . S
C812 C817 1.453 1_656 S
C812 C819 1.394 1_656 S
C813 H805 0.930 . S
C813 C811 1.419 . S
C813 C814 1.362 . S
C814 H806 0.930 . S
C814 C813 1.362 . S
C814 C817 1.395 1_656 S
C815 H807 0.930 . S
C815 C816 1.355 . S
C815 C817 1.417 . S
C816 C815 1.355 . S
C816 C818 1.419 . S
C817 C812 1.453 1_454 S
C817 C814 1.395 1_454 S
C817 C815 1.417 . S
C818 H808 0.930 . S
C818 C816 1.419 . S
C818 C819 1.362 . S
C819 H809 0.930 . S
C819 C812 1.394 1_454 S
C819 C818 1.362 . S
H820 C826 0.930 . S
H821 C829 0.930 . S
H822 C830 0.930 . S
H823 C831 0.930 . S
H824 C834 0.930 . S
H825 C835 0.930 . S
C826 H820 0.930 . S
C826 C827 1.355 . S
C826 C828 1.415 . S
C827 C826 1.355 . S
C827 C829 1.419 1_565 S
C828 C826 1.415 . S
C828 C833 1.425 1_565 S
C828 C835 1.409 . S
C829 H821 0.930 . S
C829 C827 1.419 1_545 S
C829 C830 1.362 . S
C830 H822 0.930 . S
C830 C829 1.362 . S
C830 C833 1.409 . S
C831 H823 0.930 . S
C831 C832 1.355 . S
C831 C833 1.415 . S
C832 C831 1.355 . S
C832 C834 1.419 1_545 S
C833 C828 1.425 1_545 S
C833 C830 1.409 . S
C833 C831 1.415 . S
C834 H824 0.930 . S
C834 C832 1.419 1_565 S
C834 C835 1.362 . S
C835 H825 0.930 . S
C835 C828 1.409 . S
C835 C834 1.362 . S
H836 C842 0.930 . S
H837 C845 0.930 . S
H838 C846 0.930 . S
H839 C847 0.930 . S
H840 C850 0.930 . S
H841 C851 0.930 . S
C842 H836 0.930 . S
C842 C843 1.355 . S
C842 C844 1.415 . S
C843 C842 1.355 . S
C843 C845 1.419 . S
C844 C842 1.415 . S
C844 C849 1.425 1_556 S
C844 C851 1.409 1_556 S
C845 H837 0.930 . S
C845 C843 1.419 . S
C845 C846 1.362 . S
C846 H838 0.930 . S
C846 C845 1.362 . S
C846 C849 1.409 1_556 S
C847 H839 0.930 . S
C847 C848 1.355 . S
C847 C849 1.415 . S
C848 C847 1.355 . S
C848 C850 1.419 . S
C849 C844 1.425 1_554 S
C849 C846 1.409 1_554 S
C849 C847 1.415 . S
C850 H840 0.930 . S
C850 C848 1.419 . S
C850 C851 1.362 . S
C851 H841 0.930 . S
C851 C844 1.409 1_554 S
C851 C850 1.362 . S
H852 C858 0.930 . S
H853 C861 0.930 . S
H854 C862 0.930 . S
H855 C863 0.930 . S
H856 C866 0.930 . S
H857 C867 0.930 . S
C858 H852 0.930 . S
C858 C859 1.355 . S
C858 C860 1.415 . S
C859 C858 1.355 . S
C859 C861 1.419 1_655 S
C860 C858 1.415 . S
C860 C865 1.425 1_655 S
C860 C867 1.409 . S
C861 H853 0.930 . S
C861 C859 1.419 1_455 S
C861 C862 1.362 . S
C862 H854 0.930 . S
C862 C861 1.362 . S
C862 C865 1.409 . S
C863 H855 0.930 . S
C863 C864 1.355 . S
C863 C865 1.415 . S
C864 C863 1.355 . S
C864 C866 1.419 1_455 S
C865 C860 1.425 1_455 S
C865 C862 1.409 . S
C865 C863 1.415 . S
C866 H856 0.930 . S
C866 C864 1.419 1_655 S
C866 C867 1.362 . S
C867 H857 0.930 . S
C867 C860 1.409 . S
C867 C866 1.362 . S
H868 C874 0.930 . S
H869 C877 0.930 . S
H870 C878 0.930 . S
H871 C879 0.930 . S
H872 C882 0.930 . S
H873 C883 0.930 . S
C874 H868 0.930 . S
C874 C875 1.355 . S
C874 C876 1.415 . S
C875 C874 1.355 . S
C875 C877 1.419 1_545 S
C876 C874 1.415 . S
C876 C881 1.425 1_546 S
C876 C883 1.409 1_556 S
C877 H869 0.930 . S
C877 C875 1.419 1_565 S
C877 C878 1.362 . S
C878 H870 0.930 . S
C878 C877 1.362 . S
C878 C881 1.409 1_556 S
C879 H871 0.930 . S
C879 C880 1.355 . S
C879 C881 1.415 . S
C880 C879 1.355 . S
C880 C882 1.419 1_565 S
C881 C876 1.425 1_564 S
C881 C878 1.409 1_554 S
C881 C879 1.415 . S
C882 H872 0.930 . S
C882 C880 1.419 1_545 S
C882 C883 1.362 . S
C883 H873 0.930 . S
C883 C876 1.409 1_554 S
C883 C882 1.362 . S
H884 C890 0.930 . S
H885 C893 0.930 . S
H886 C894 0.930 . S
H887 C895 0.930 . S
H888 C898 0.930 . S
H889 C899 0.930 . S
C890 H884 0.930 . S
C890 C891 1.355 . S
C890 C892 1.415 . S
C891 C890 1.355 . S
C891 C893 1.419 . S
C892 C890 1.415 . S
C892 C897 1.425 . S
C892 C899 1.409 . S
C893 H885 0.930 . S
C893 C891 1.419 . S
C893 C894 1.362 . S
C894 H886 0.930 . S
C894 C893 1.362 . S
C894 C897 1.409 . S
C895 H887 0.930 . S
C895 C896 1.355 . S
C895 C897 1.415 . S
C896 C895 1.355 . S
C896 C898 1.419 . S
C897 C892 1.425 . S
C897 C894 1.409 . S
C897 C895 1.415 . S
C898 H888 0.930 . S
C898 C896 1.419 . S
C898 C899 1.362 . S
C899 H889 0.930 . S
C899 C892 1.409 . S
C899 C898 1.362 . S
H900 C906 0.930 1_655 S
H901 C909 0.930 . S
H902 C910 0.930 . S
H903 C911 0.930 . S
H904 C914 0.930 . S
H905 C915 0.930 . S
C906 H900 0.930 1_455 S
C906 C907 1.355 . S
C906 C908 1.415 . S
C907 C906 1.355 . S
C907 C909 1.419 . S
C908 C906 1.415 . S
C908 C913 1.425 . S
C908 C915 1.409 1_455 S
C909 H901 0.930 . S
C909 C907 1.419 . S
C909 C910 1.362 . S
C910 H902 0.930 . S
C910 C909 1.362 . S
C910 C913 1.409 . S
C911 H903 0.930 . S
C911 C912 1.355 . S
C911 C913 1.415 . S
C912 C911 1.355 . S
C912 C914 1.419 1_455 S
C913 C908 1.425 . S
C913 C910 1.409 . S
C913 C911 1.415 . S
C914 H904 0.930 . S
C914 C912 1.419 1_655 S
C914 C915 1.362 . S
C915 H905 0.930 . S
C915 C908 1.409 1_655 S
C915 C914 1.362 . S
H916 C922 0.930 . S
H917 C925 0.930 . S
H918 C926 0.930 . S
H919 C927 0.930 . S
H920 C930 0.930 . S
H921 C931 0.930 . S
C922 H916 0.930 . S
C922 C923 1.355 . S
C922 C924 1.415 . S
C923 C922 1.355 . S
C923 C925 1.419 . S
C924 C922 1.415 . S
C924 C929 1.425 . S
C924 C931 1.409 . S
C925 H917 0.930 . S
C925 C923 1.419 . S
C925 C926 1.362 . S
C926 H918 0.930 . S
C926 C925 1.362 . S
C926 C929 1.409 . S
C927 H919 0.930 . S
C927 C928 1.355 . S
C927 C929 1.415 . S
C928 C927 1.355 . S
C928 C930 1.419 . S
C929 C924 1.425 . S
C929 C926 1.409 . S
C929 C927 1.415 . S
C930 H920 0.930 . S
C930 C928 1.419 . S
C930 C931 1.362 . S
C931 H921 0.930 . S
C931 C924 1.409 . S
C931 C930 1.362 . S
H932 C938 0.930 . S
H933 C941 0.930 . S
H934 C942 0.930 . S
H935 C943 0.930 . S
H936 C946 0.930 . S
H937 C947 0.930 . S
C938 H932 0.930 . S
C938 C939 1.355 . S
C938 C940 1.415 . S
C939 C938 1.355 . S
C939 C941 1.419 . S
C940 C938 1.415 . S
C940 C945 1.425 . S
C940 C947 1.409 . S
C941 H933 0.930 . S
C941 C939 1.419 . S
C941 C942 1.362 . S
C942 H934 0.930 . S
C942 C941 1.362 . S
C942 C945 1.409 . S
C943 H935 0.930 . S
C943 C944 1.355 . S
C943 C945 1.415 . S
C944 C943 1.355 . S
C944 C946 1.419 . S
C945 C940 1.425 . S
C945 C942 1.409 . S
C945 C943 1.415 . S
C946 H936 0.930 . S
C946 C944 1.419 . S
C946 C947 1.362 . S
C947 H937 0.930 . S
C947 C940 1.409 . S
C947 C946 1.362 . S
H948 C954 0.930 . S
H949 C957 0.930 . S
H950 C958 0.930 . S
H951 C959 0.930 . S
H952 C962 0.930 . S
H953 C963 0.930 . S
C954 H948 0.930 . S
C954 C955 1.355 . S
C954 C956 1.415 . S
C955 C954 1.355 . S
C955 C957 1.419 . S
C956 C954 1.415 . S
C956 C961 1.425 . S
C956 C963 1.409 . S
C957 H949 0.930 . S
C957 C955 1.419 . S
C957 C958 1.362 . S
C958 H950 0.930 . S
C958 C957 1.362 . S
C958 C961 1.409 . S
C959 H951 0.930 . S
C959 C960 1.355 . S
C959 C961 1.415 . S
C960 C959 1.355 . S
C960 C962 1.419 . S
C961 C956 1.425 . S
C961 C958 1.409 . S
C961 C959 1.415 . S
C962 H952 0.930 . S
C962 C960 1.419 . S
C962 C963 1.362 . S
C963 H953 0.930 . S
C963 C956 1.409 . S
C963 C962 1.362 . S
H964 C970 0.930 . S
H965 C973 0.930 . S
H966 C974 0.930 . S
H967 C975 0.930 . S
H968 C978 0.930 . S
H969 C979 0.910 1_545 S
C970 H964 0.930 . S
C970 C971 1.355 . S
C970 C972 1.415 . S
C971 C970 1.355 . S
C971 C973 1.419 . S
C972 C970 1.415 . S
C972 C977 1.425 . S
C972 C979 1.409 . S
C973 H965 0.930 . S
C973 C971 1.419 . S
C973 C974 1.362 . S
C974 H966 0.930 . S
C974 C973 1.362 . S
C974 C977 1.409 . S
C975 H967 0.930 . S
C975 C976 1.355 . S
C975 C977 1.415 . S
C976 C975 1.355 . S
C976 C978 1.419 . S
C977 C972 1.425 . S
C977 C974 1.409 . S
C977 C975 1.415 . S
C978 H968 0.930 . S
C978 C976 1.419 . S
C978 C979 1.362 . S
C979 H969 0.910 1_565 S
C979 C972 1.409 . S
C979 C978 1.362 . S
H980 C986 0.930 . S
H981 C989 0.930 . S
H982 C990 0.930 . S
H983 C991 0.930 . S
H984 C994 0.930 . S
H985 C995 0.930 . S
C986 H980 0.930 . S
C986 C987 1.355 . S
C986 C988 1.415 . S
C987 C986 1.355 . S
C987 C989 1.419 . S
C988 C986 1.415 . S
C988 C993 1.425 . S
C988 C995 1.409 . S
C989 H981 0.930 . S
C989 C987 1.419 . S
C989 C990 1.362 . S
C990 H982 0.930 . S
C990 C989 1.362 . S
C990 C993 1.409 . S
C991 H983 0.930 . S
C991 C992 1.355 . S
C991 C993 1.415 . S
C992 C991 1.355 . S
C992 C994 1.419 . S
C993 C988 1.425 . S
C993 C990 1.409 . S
C993 C991 1.415 . S
C994 H984 0.930 . S
C994 C992 1.419 . S
C994 C995 1.362 . S
C995 H985 0.930 . S
C995 C988 1.409 . S
C995 C994 1.362 . S
H996 C1002 0.930 . S
H997 C1005 0.930 . S
H998 C1006 0.930 . S
H999 C1007 0.930 . S
H1000 C1010 0.930 . S
H1001 C1011 0.930 . S
C1002 H996 0.930 . S
C1002 C1003 1.355 . S
C1002 C1004 1.415 . S
C1003 C1002 1.355 . S
C1003 C1005 1.419 . S
C1004 C1002 1.415 . S
C1004 C1009 1.425 . S
C1004 C1011 1.409 . S
C1005 H997 0.930 . S
C1005 C1003 1.419 . S
C1005 C1006 1.362 . S
C1006 H998 0.930 . S
C1006 C1005 1.362 . S
C1006 C1009 1.409 . S
C1007 H999 0.930 . S
C1007 C1008 1.355 . S
C1007 C1009 1.415 . S
C1008 C1007 1.355 . S
C1008 C1010 1.419 . S
C1009 C1004 1.425 . S
C1009 C1006 1.409 . S
C1009 C1007 1.415 . S
C1010 H1000 0.930 . S
C1010 C1008 1.419 . S
C1010 C1011 1.362 . S
C1011 H1001 0.930 . S
C1011 C1004 1.409 . S
C1011 C1010 1.362 . S
H1012 C1018 0.930 . S
H1013 C1021 0.930 . S
H1014 C1022 0.930 . S
H1015 C1023 0.930 . S
H1016 C1026 0.930 . S
H1017 C1027 0.930 . S
C1018 H1012 0.930 . S
C1018 C1019 1.355 . S
C1018 C1020 1.415 . S
C1019 C1018 1.355 . S
C1019 C1021 1.419 . S
C1020 C1018 1.415 . S
C1020 C1025 1.425 . S
C1020 C1027 1.409 . S
C1021 H1013 0.930 . S
C1021 C1019 1.419 . S
C1021 C1022 1.362 . S
C1022 H1014 0.930 . S
C1022 C1021 1.362 . S
C1022 C1025 1.409 . S
C1023 H1015 0.930 . S
C1023 C1024 1.355 . S
C1023 C1025 1.415 . S
C1024 C1023 1.355 . S
C1024 C1026 1.419 . S
C1025 C1020 1.425 . S
C1025 C1022 1.409 . S
C1025 C1023 1.415 . S
C1026 H1016 0.930 . S
C1026 C1024 1.419 . S
C1026 C1027 1.362 . S
C1027 H1017 0.930 . S
C1027 C1020 1.409 . S
C1027 C1026 1.362 . S
H1028 C1034 0.930 . S
H1029 C1037 0.930 . S
H1030 C1038 0.930 . S
H1031 C1039 0.930 . S
H1032 C1042 0.930 . S
H1033 C1043 0.930 . S
C1034 H1028 0.930 . S
C1034 C1035 1.355 . S
C1034 C1036 1.415 . S
C1035 C1034 1.355 . S
C1035 C1037 1.419 . S
C1036 C1034 1.415 . S
C1036 C1041 1.425 . S
C1036 C1043 1.409 . S
C1037 H1029 0.930 . S
C1037 C1035 1.419 . S
C1037 C1038 1.362 . S
C1038 H1030 0.930 . S
C1038 C1037 1.362 . S
C1038 C1041 1.409 . S
C1039 H1031 0.930 . S
C1039 C1040 1.355 . S
C1039 C1041 1.415 . S
C1040 C1039 1.355 . S
C1040 C1042 1.419 . S
C1041 C1036 1.425 . S
C1041 C1038 1.409 . S
C1041 C1039 1.415 . S
C1042 H1032 0.930 . S
C1042 C1040 1.419 . S
C1042 C1043 1.362 . S
C1043 H1033 0.930 . S
C1043 C1036 1.409 . S
C1043 C1042 1.362 . S
H1044 C1050 0.930 . S
H1045 C1053 0.930 . S
H1046 C1054 0.930 . S
H1047 C1055 0.930 . S
H1048 C1058 0.930 . S
H1049 C1059 0.930 . S
C1050 H1044 0.930 . S
C1050 C1051 1.355 . S
C1050 C1052 1.415 . S
C1051 C1050 1.355 . S
C1051 C1053 1.419 . S
C1052 C1050 1.415 . S
C1052 C1057 1.425 . S
C1052 C1059 1.409 . S
C1053 H1045 0.930 . S
C1053 C1051 1.419 . S
C1053 C1054 1.362 . S
C1054 H1046 0.930 . S
C1054 C1053 1.362 . S
C1054 C1057 1.409 . S
C1055 H1047 0.930 . S
C1055 C1056 1.355 . S
C1055 C1057 1.415 . S
C1056 C1055 1.355 . S
C1056 C1058 1.419 . S
C1057 C1052 1.425 . S
C1057 C1054 1.409 . S
C1057 C1055 1.415 . S
C1058 H1048 0.930 . S
C1058 C1056 1.419 . S
C1058 C1059 1.362 . S
C1059 H1049 0.930 . S
C1059 C1052 1.409 . S
C1059 C1058 1.362 . S
H1060 C1066 0.930 . S
H1061 C1069 0.930 . S
H1062 C1070 0.930 . S
H1063 C1071 0.930 . S
H1064 C1074 0.930 . S
H1065 C1075 0.930 . S
C1066 H1060 0.930 . S
C1066 C1067 1.355 . S
C1066 C1068 1.415 . S
C1067 C1066 1.355 . S
C1067 C1069 1.419 . S
C1068 C1066 1.415 . S
C1068 C1073 1.425 . S
C1068 C1075 1.409 . S
C1069 H1061 0.930 . S
C1069 C1067 1.419 . S
C1069 C1070 1.362 . S
C1070 H1062 0.930 . S
C1070 C1069 1.362 . S
C1070 C1073 1.409 . S
C1071 H1063 0.930 . S
C1071 C1072 1.355 . S
C1071 C1073 1.415 . S
C1072 C1071 1.355 . S
C1072 C1074 1.419 . S
C1073 C1068 1.425 . S
C1073 C1070 1.409 . S
C1073 C1071 1.415 . S
C1074 H1064 0.930 . S
C1074 C1072 1.419 . S
C1074 C1075 1.362 . S
C1075 H1065 0.930 . S
C1075 C1068 1.409 . S
C1075 C1074 1.362 . S
H1076 C1082 0.930 . S
H1077 C1085 0.930 . S
H1078 C1086 0.930 . S
H1079 C1087 0.930 . S
H1080 C1090 0.930 . S
H1081 C1091 0.930 . S
C1082 H1076 0.930 . S
C1082 C1083 1.355 . S
C1082 C1084 1.415 . S
C1083 C1082 1.355 . S
C1083 C1085 1.419 . S
C1084 C1082 1.415 . S
C1084 C1089 1.425 . S
C1084 C1091 1.409 . S
C1085 H1077 0.930 . S
C1085 C1083 1.419 . S
C1085 C1086 1.362 . S
C1086 H1078 0.930 . S
C1086 C1085 1.362 . S
C1086 C1089 1.409 . S
C1087 H1079 0.930 . S
C1087 C1088 1.355 . S
C1087 C1089 1.415 . S
C1088 C1087 1.355 . S
C1088 C1090 1.419 . S
C1089 C1084 1.425 . S
C1089 C1086 1.409 . S
C1089 C1087 1.415 . S
C1090 H1080 0.930 . S
C1090 C1088 1.419 . S
C1090 C1091 1.362 . S
C1091 H1081 0.930 . S
C1091 C1084 1.409 . S
C1091 C1090 1.362 . S
C715 C33 1.693 . S
C720 C682 1.686 . S
C731 C387 1.693 . S
C736 C92 1.707 . S
C747 C151 1.705 . S
C752 C446 1.705 . S
C763 C505 1.706 . S
C768 C210 1.704 . S
C779 C564 1.693 . S
C784 C269 1.707 . S
C795 C623 1.703 . S
C800 C328 1.707 . S
C811 C180 1.149 . S
C816 C475 1.092 . S
C827 C239 1.147 . S
C832 C534 1.121 . S
C843 C298 1.099 . S
C848 C593 1.131 . S
C859 C652 1.105 . S
C864 C3 1.155 . S
C875 C62 1.147 . S
C880 C357 1.121 . S
C891 C121 1.153 . S
C896 C416 1.092 . S
C907 C524 1.801 . S
C912 C52 1.816 . S
C923 C583 1.786 . S
C928 C111 1.789 . S
C939 C170 1.797 . S
C944 C642 1.784 . S
C955 C229 1.784 . S
C960 C701 1.795 . S
C971 C288 1.785 . S
C976 C406 1.799 . S
C987 C465 1.815 . S
C992 C347 1.797 . S
C1003 C5 1.745 . S
C1008 C595 1.742 . S
C1019 C654 1.750 . S
C1024 C64 1.733 . S
C1035 C123 1.731 . S
C1040 C359 1.746 . S
C1051 C182 1.739 . S
C1056 C418 1.736 . S
C1067 C241 1.736 . S
C1072 C477 1.739 . S
C1083 C300 1.731 . S
C1088 C536 1.749 . S
