# Generated by pormake.
# Topology nov, (5)-cn, num edge types: 1
# Building blocks:
#     Node 0, Type 0, BuildingBlock: XOMCOT_clean_sbu_1, # of connection points: 5
#     Node 1, Type 0, BuildingBlock: XOMCOT_clean_sbu_1, # of connection points: 5
#     Node 2, Type 0, BuildingBlock: XOMCOT_clean_sbu_1, # of connection points: 5
#     Node 3, Type 0, BuildingBlock: XOMCOT_clean_sbu_1, # of connection points: 5
#     Node 4, Type 0, BuildingBlock: XOMCOT_clean_sbu_1, # of connection points: 5
#     Node 5, Type 0, BuildingBlock: XOMCOT_clean_sbu_1, # of connection points: 5
#     Node 6, Type 0, BuildingBlock: XOMCOT_clean_sbu_1, # of connection points: 5
#     Node 7, Type 0, BuildingBlock: XOMCOT_clean_sbu_1, # of connection points: 5
#     Edge 8, Type (0, 0), BuildingBlock: AJUNOK_clean_linker_0, # of connection points: 2
#     Edge 9, Type (0, 0), BuildingBlock: AJUNOK_clean_linker_0, # of connection points: 2
#     Edge 10, Type (0, 0), BuildingBlock: AJUNOK_clean_linker_0, # of connection points: 2
#     Edge 11, Type (0, 0), BuildingBlock: AJUNOK_clean_linker_0, # of connection points: 2
#     Edge 12, Type (0, 0), BuildingBlock: AJUNOK_clean_linker_0, # of connection points: 2
#     Edge 13, Type (0, 0), BuildingBlock: AJUNOK_clean_linker_0, # of connection points: 2
#     Edge 14, Type (0, 0), BuildingBlock: AJUNOK_clean_linker_0, # of connection points: 2
#     Edge 15, Type (0, 0), BuildingBlock: AJUNOK_clean_linker_0, # of connection points: 2
#     Edge 16, Type (0, 0), BuildingBlock: AJUNOK_clean_linker_0, # of connection points: 2
#     Edge 17, Type (0, 0), BuildingBlock: AJUNOK_clean_linker_0, # of connection points: 2
#     Edge 18, Type (0, 0), BuildingBlock: AJUNOK_clean_linker_0, # of connection points: 2
#     Edge 19, Type (0, 0), BuildingBlock: AJUNOK_clean_linker_0, # of connection points: 2
#     Edge 20, Type (0, 0), BuildingBlock: AJUNOK_clean_linker_0, # of connection points: 2
#     Edge 21, Type (0, 0), BuildingBlock: AJUNOK_clean_linker_0, # of connection points: 2
#     Edge 22, Type (0, 0), BuildingBlock: AJUNOK_clean_linker_0, # of connection points: 2
#     Edge 23, Type (0, 0), BuildingBlock: AJUNOK_clean_linker_0, # of connection points: 2
#     Edge 24, Type (0, 0), BuildingBlock: AJUNOK_clean_linker_0, # of connection points: 2
#     Edge 25, Type (0, 0), BuildingBlock: AJUNOK_clean_linker_0, # of connection points: 2
#     Edge 26, Type (0, 0), BuildingBlock: AJUNOK_clean_linker_0, # of connection points: 2
#     Edge 27, Type (0, 0), BuildingBlock: AJUNOK_clean_linker_0, # of connection points: 2
# Relax obj value: 0.125
# Max RMSD: 0.160
# Mean RMSD: 0.160
data_MOF--net-nov--node1-XOMCOT_clean_sbu_1--edge1-AJUNOK_clean_linker_0
_symmetry_space_group_name_H-M    P1
_symmetry_Int_Tables_number       1
_symmetry_cell_setting            triclinic
loop_
_symmetry_equiv_pos_as_xyz
'x, y, z'
_cell_length_a     18.651681
_cell_length_b     40.501582
_cell_length_c     22.751373
_cell_angle_alpha  89.997216
_cell_angle_beta   89.834161
_cell_angle_gamma 91.235358
loop_
_atom_site_label
_atom_site_type_symbol
_atom_site_fract_x
_atom_site_fract_y
_atom_site_fract_z
_atom_type_partial_charge
C0 C 0.11744 0.15484 0.00782 0.0
C1 C 0.12245 0.12498 0.97998 0.0
N2 N 0.10378 0.1009 0.01832 0.0
N3 N 0.09467 0.15001 0.06352 0.0
C4 C 0.08744 0.11683 0.06888 0.0
H5 H 0.13215 0.1786 0.98916 0.0
Co6 Co 0.09103 0.18414 0.11906 0.0
C7 C 0.94779 0.14782 0.15481 0.0
O8 O 0.93719 0.12708 0.11117 0.0
N9 N 0.08817 0.2184 0.17459 0.0
C10 C 1.04758 0.25964 0.22902 0.0
C11 C 1.03192 0.23827 0.18385 0.0
C12 C 0.1371 0.22796 0.21538 0.0
N13 N 0.1135 0.25302 0.24888 0.0
O14 O 0.14772 0.15889 0.17209 0.0
H15 H 0.98175 0.23675 0.16019 0.0
H16 H 0.18851 0.2166 0.22113 0.0
O17 O 1.00258 0.16728 0.15469 0.0
C18 C 0.21332 0.15779 0.15606 0.0
O19 O 0.23144 0.17091 0.10518 0.0
N20 N 1.04206 0.21023 0.06493 0.0
C21 C 1.00281 0.24672 0.967 0.0
C22 C 0.96107 0.21927 0.98503 0.0
C23 C 0.98148 0.20133 0.03475 0.0
C24 C 0.0811 0.23768 0.04926 0.0
C25 C 1.0617 0.2566 0.00112 0.0
H26 H 0.95216 0.17896 0.04582 0.0
H27 H 0.13037 0.24377 0.07217 0.0
H28 H 1.07156 0.10478 0.10945 0.0
H29 H 0.14134 0.12124 0.93553 0.0
H30 H 1.01205 0.27768 0.24772 0.0
H31 H 0.91584 0.21068 0.95901 0.0
H32 H 0.09615 0.27717 0.9878 0.0
C33 C 0.55995 0.90797 0.50928 0.0
C34 C 0.55767 0.93654 0.47686 0.0
N35 N 0.58414 0.96163 0.50988 0.0
N36 N 0.58718 0.91482 0.56285 0.0
C37 C 0.60068 0.94772 0.56208 0.0
H38 H 0.54087 0.88377 0.49541 0.0
Co39 Co 0.59644 0.88445 0.62457 0.0
C40 C 0.73923 0.92405 0.64834 0.0
O41 O 0.75785 0.93514 0.59614 0.0
N42 N 0.60857 0.85481 0.68766 0.0
C43 C 0.65882 0.81701 0.74444 0.0
C44 C 0.66932 0.83803 0.69783 0.0
C45 C 0.56354 0.84491 0.73118 0.0
N46 N 0.59204 0.82123 0.76485 0.0
O47 O 0.53231 0.91017 0.67337 0.0
H48 H 0.71793 0.84039 0.67198 0.0
H49 H 0.51161 0.85498 0.73892 0.0
O50 O 0.68192 0.90664 0.65482 0.0
C51 C 0.4676 0.90834 0.65424 0.0
O52 O 0.45653 0.89544 0.60207 0.0
N53 N 0.64788 0.85615 0.5739 0.0
C54 C 0.66824 0.81369 0.47878 0.0
C55 C 0.705 0.84438 0.48138 0.0
C56 C 0.69506 0.86516 0.5303 0.0
C57 C 0.61612 0.82547 0.57309 0.0
C58 C 0.62885 0.80337 0.52805 0.0
H59 H 0.7177 0.88985 0.52903 0.0
H60 H 0.57522 0.81875 0.60488 0.0
H61 H 0.62117 0.96127 0.59969 0.0
H62 H 0.53475 0.93869 0.43352 0.0
H63 H 0.6971 0.79992 0.76207 0.0
H64 H 0.73522 0.85359 0.44392 0.0
H65 H 0.60034 0.77977 0.5285 0.0
C66 C 0.16914 0.91262 0.9509 0.0
C67 C 0.17512 0.94173 0.98186 0.0
N68 N 0.12915 0.96344 0.95873 0.0
N69 N 0.12023 0.91593 0.90795 0.0
C70 C 0.09725 0.94721 0.91355 0.0
H71 H 0.19863 0.89039 0.95916 0.0
Co72 Co 0.09272 0.88317 0.854 0.0
C73 C 0.94302 0.91037 0.83906 0.0
O74 O 0.91833 0.89548 0.88627 0.0
N75 N 1.06361 0.85105 0.7981 0.0
C76 C 0.99475 0.81573 0.74729 0.0
C77 C 0.99614 0.83856 0.7917 0.0
C78 C 0.10209 0.83522 0.75682 0.0
N79 N 1.06158 0.8135 0.72581 0.0
O80 O 0.15483 0.90411 0.79608 0.0
H81 H 0.95069 0.84496 0.81849 0.0
H82 H 0.15788 0.84014 0.74814 0.0
O83 O 1.00978 0.90865 0.82625 0.0
C84 C 0.2177 0.89323 0.8058 0.0
O85 O 0.22542 0.87181 0.84856 0.0
N86 N 1.04324 0.85935 0.91513 0.0
C87 C 1.02801 0.82077 0.0166 0.0
C88 C 1.00835 0.85398 0.01709 0.0
C89 C 1.01649 0.87296 0.96569 0.0
C90 C 1.05957 0.82656 0.9147 0.0
C91 C 1.04921 0.80673 0.96363 0.0
H92 H 1.00761 0.89918 0.96847 0.0
H93 H 0.08835 0.81576 0.87861 0.0
H94 H 1.05721 0.95782 0.88536 0.0
H95 H 0.21212 0.94662 0.01742 0.0
H96 H 0.9483 0.80184 0.73179 0.0
H97 H 0.99347 0.86589 0.05782 0.0
H98 H 1.06624 0.78131 0.96185 0.0
C99 C 0.5257 0.15027 0.46091 0.0
C100 C 0.52713 0.11997 0.48748 0.0
N101 N 0.56774 0.09986 0.45462 0.0
N102 N 0.56503 0.14962 0.41123 0.0
C103 C 0.59039 0.11863 0.4085 0.0
H104 H 0.49654 0.17144 0.47618 0.0
Co105 Co 0.57097 0.18587 0.36105 0.0
C106 C 0.72025 0.18431 0.31505 0.0
O107 O 0.73041 0.21445 0.33478 0.0
N108 N 0.5743 0.22355 0.30952 0.0
C109 C 0.59426 0.27346 0.27 0.0
C110 C 0.60826 0.25326 0.31663 0.0
C111 C 0.54032 0.22678 0.25714 0.0
N112 N 0.55155 0.25679 0.23254 0.0
O113 O 0.51284 0.16216 0.30537 0.0
H114 H 0.64259 0.26027 0.35283 0.0
H115 H 0.50711 0.20779 0.23716 0.0
O116 O 0.65973 0.16937 0.32342 0.0
C117 C 0.44668 0.16357 0.31959 0.0
O118 O 0.43011 0.17907 0.36835 0.0
N119 N 0.61974 0.20904 0.42047 0.0
C120 C 0.66341 0.24241 0.52139 0.0
C121 C 0.70255 0.21564 0.50056 0.0
C122 C 0.67936 0.19899 0.4498 0.0
C123 C 0.5791 0.23366 0.44275 0.0
C124 C 0.6012 0.25138 0.49188 0.0
H125 H 0.70724 0.17725 0.4356 0.0
H126 H 0.52858 0.23934 0.42224 0.0
H127 H 0.62484 0.11026 0.37343 0.0
H128 H 0.49846 0.11303 0.52713 0.0
H129 H 0.61547 0.29828 0.26334 0.0
H130 H 0.74886 0.2071 0.52431 0.0
H131 H 0.56776 0.27084 0.50862 0.0
C132 C 0.64363 0.65814 0.01079 0.0
C133 C 0.64737 0.6295 0.97887 0.0
N134 N 0.61586 0.60483 0.01011 0.0
N135 N 0.6106 0.65183 0.06243 0.0
C136 C 0.59513 0.61909 0.06115 0.0
H137 H 0.66573 0.682 -0.002 0.0
Co138 Co 0.5999 0.68374 0.12103 0.0
C139 C 0.45526 0.64476 0.14917 0.0
O140 O 0.43941 0.62887 0.10043 0.0
N141 N 0.58846 0.7158 0.17987 0.0
C142 C 0.53343 0.75313 0.234 0.0
C143 C 0.52743 0.73275 0.18648 0.0
C144 C 0.63069 0.7261 0.22501 0.0
N145 N 0.59801 0.74886 0.25888 0.0
O146 O 0.65759 0.65842 0.17298 0.0
H147 H 0.48044 0.72995 0.15904 0.0
H148 H 0.68271 0.71608 0.23434 0.0
O149 O 0.51176 0.66312 0.15184 0.0
C150 C 0.72341 0.66196 0.15796 0.0
O151 O 0.73874 0.67981 0.11117 0.0
N152 N 0.55198 0.71034 0.06743 0.0
C153 C 0.51984 0.75006 0.97183 0.0
C154 C 0.47905 0.72119 0.98324 0.0
C155 C 0.49593 0.70155 0.03188 0.0
C156 C 0.59011 0.73892 0.05779 0.0
C157 C 0.57398 0.75945 0.0111 0.0
H158 H 0.46807 0.67823 0.03792 0.0
H159 H 0.63652 0.7448 0.08452 0.0
H160 H 0.5705 0.6059 0.09753 0.0
H161 H 0.67468 0.62705 0.9372 0.0
H162 H 0.49235 0.7694 0.24984 0.0
H163 H 0.43768 0.71293 0.95299 0.0
H164 H 0.60787 0.78104 0.00287 0.0
C165 C 1.0692 0.40683 0.5074 0.0
C166 C 1.06648 0.43676 0.47923 0.0
N167 N 0.0802 0.46049 0.51901 0.0
N168 N 0.08551 0.41165 0.56467 0.0
C169 C 0.09034 0.44488 0.57063 0.0
H170 H 1.0578 0.38305 0.48755 0.0
Co171 Co 0.08762 0.37783 0.6211 0.0
C172 C 0.23092 0.41426 0.64926 0.0
O173 O 0.23805 0.43108 0.60018 0.0
N174 N 0.08916 0.34407 0.6773 0.0
C175 C 0.12901 0.30279 0.73164 0.0
C176 C 0.14616 0.32497 0.68806 0.0
C177 C 1.03825 0.33339 0.71579 0.0
N178 N 1.06121 0.30806 0.74883 0.0
O179 O 1.02986 0.40354 0.67309 0.0
H180 H 0.19746 0.3273 0.66598 0.0
H181 H 0.98573 0.34397 0.71997 0.0
O182 O 0.17646 0.3951 0.65756 0.0
C183 C 0.9642 0.40332 0.65708 0.0
O184 O 0.94761 0.38927 0.6067 0.0
N185 N 0.13636 0.35068 0.56752 0.0
C186 C 0.17088 0.31241 0.47007 0.0
C187 C 0.21516 0.33924 0.48667 0.0
C188 C 0.1974 0.35794 0.53633 0.0
C189 C 0.09465 0.32385 0.55301 0.0
C190 C 0.11157 0.30409 0.50517 0.0
H191 H 0.22939 0.37956 0.54624 0.0
H192 H 1.04501 0.319 0.57647 0.0
H193 H 0.09938 0.45739 0.61211 0.0
H194 H 1.05334 0.44092 0.43355 0.0
H195 H 0.1644 0.28492 0.75084 0.0
H196 H 0.26066 0.34671 0.45973 0.0
H197 H 1.07503 0.28412 0.49284 0.0
C198 C 0.63324 0.41254 0.9642 0.0
C199 C 0.63733 0.44275 -0.00882 0.0
N200 N 0.61351 0.46584 0.95366 0.0
N201 N 0.60654 0.41607 0.90969 0.0
C202 C 0.59578 0.44883 0.90417 0.0
H203 H 0.65106 0.38952 0.98257 0.0
Co204 Co 0.60104 0.38139 0.85541 0.0
C205 C 0.45721 0.41512 0.82651 0.0
O206 O 0.44737 0.43084 0.87627 0.0
N207 N 0.59617 0.34658 0.80184 0.0
C208 C 0.55271 0.30385 0.75114 0.0
C209 C 0.5373 0.32732 0.79238 0.0
C210 C 0.64658 0.33457 0.76527 0.0
N211 N 0.62127 0.30848 0.73417 0.0
O212 O 0.6594 0.40651 0.80106 0.0
H213 H 0.48603 0.33036 0.81382 0.0
H214 H 0.70044 0.34473 0.76111 0.0
O215 O 0.51255 0.39745 0.81915 0.0
C216 C 0.72492 0.40581 0.81733 0.0
O217 O 0.73936 0.39121 0.86736 0.0
N218 N 0.55292 0.35493 0.91104 0.0
C219 C 0.5172 0.31467 0.00647 0.0
C220 C 0.47022 0.33914 0.98754 0.0
C221 C 0.48901 0.35905 0.93918 0.0
C222 C 0.59789 0.33069 0.92811 0.0
C223 C 0.58096 0.31019 0.97525 0.0
H224 H 0.45383 0.37844 0.9267 0.0
H225 H 0.64934 0.32839 0.9066 0.0
H226 H 0.57544 0.45962 0.86436 0.0
H227 H 0.6587 0.44735 0.03463 0.0
H228 H 0.51565 0.28555 0.73321 0.0
H229 H 0.42094 0.34361 0.01125 0.0
H230 H 0.61994 0.29246 -0.0105 0.0
C231 C 1.02022 0.64782 0.45214 0.0
C232 C 1.0144 0.61862 0.48261 0.0
N233 N 1.05722 0.59657 0.45667 0.0
N234 N 1.06649 0.64431 0.40697 0.0
C235 C 0.08786 0.61268 0.41058 0.0
H236 H 0.99288 0.67039 0.46247 0.0
Co237 Co 0.08938 0.67781 0.35265 0.0
C238 C 0.2451 0.65819 0.33848 0.0
O239 O 0.26519 0.6754 0.38452 0.0
N240 N 0.11194 0.71077 0.29657 0.0
C241 C 0.17279 0.74911 0.24617 0.0
C242 C 0.17622 0.72648 0.29054 0.0
C243 C 1.07033 0.72432 0.25469 0.0
N244 N 0.10629 0.74777 0.22344 0.0
O245 O 1.03334 0.65447 0.29488 0.0
H246 H 0.2224 0.7227 0.31793 0.0
H247 H 1.01542 0.71668 0.24637 0.0
O248 O 0.17816 0.65565 0.32593 0.0
C249 C 0.96825 0.66115 0.30715 0.0
O250 O 0.95621 0.68179 0.35045 0.0
N251 N 0.13363 0.70342 0.41391 0.0
C252 C 0.13848 0.74097 0.51733 0.0
C253 C 0.16174 0.70822 0.51703 0.0
C254 C 0.16033 0.69008 0.46454 0.0
C255 C 0.11386 0.73575 0.41392 0.0
C256 C 0.12003 0.75524 0.4637 0.0
H257 H 0.1738 0.66428 0.46636 0.0
H258 H 0.08622 0.74638 0.3772 0.0
H259 H 0.12383 0.60151 0.37932 0.0
H260 H 0.98154 0.61398 0.52115 0.0
H261 H 0.21603 0.76549 0.23186 0.0
H262 H 0.1751 0.69565 0.55735 0.0
H263 H 0.10286 0.78059 0.46124 0.0
C264 C 0.09994 1.021 0.93377 0.0
C265 C 0.11884 0.99742 0.97605 0.0
C266 C 0.09305 0.05435 0.94855 0.0
C267 C 0.10518 0.06583 0.00621 0.0
H268 H 0.09213 1.01387 0.88838 0.0
H269 H 0.0787 0.0714 0.91411 0.0
S270 S 0.15118 1.01384 0.13458 0.0
N271 N 0.14425 0.98754 0.07937 0.0
N272 N 0.13507 0.05049 0.10644 0.0
C273 C 0.12234 0.04242 0.04942 0.0
C274 C 0.12853 1.00824 0.03448 0.0
C275 C 0.57697 0.05399 0.52559 0.0
C276 C 0.57976 0.06536 0.46706 0.0
C277 C 0.58007 1.02035 0.53919 0.0
C278 C 0.587 0.99639 0.49493 0.0
H279 H 0.57105 0.07124 0.56152 0.0
H280 H 0.57463 1.01312 0.58477 0.0
S281 S 0.60511 1.01306 0.33485 0.0
N282 N 0.59377 0.04978 0.36445 0.0
N283 N 0.60419 0.98675 0.39025 0.0
C284 C 0.59387 1.00744 0.43632 0.0
C285 C 0.58945 0.04182 0.42236 0.0
C286 C 0.60813 0.54584 0.03842 0.0
C287 C 0.61073 0.57017 -0.00563 0.0
C288 C 0.60708 0.51215 0.02448 0.0
C289 C 0.60986 0.50097 0.96578 0.0
H290 H 0.60846 0.5527 0.08436 0.0
H291 H 0.60442 0.49477 0.06053 0.0
S292 S 0.61147 0.55472 0.83324 0.0
N293 N 0.60907 0.58068 0.889 0.0
N294 N 0.61305 0.51759 0.86289 0.0
C295 C 0.61086 0.52507 0.92104 0.0
C296 C 0.61012 0.55952 0.9353 0.0
C297 C 1.01071 0.51101 0.51101 0.0
C298 C 0.07681 0.49526 0.50834 0.0
C299 C 1.00492 0.54419 0.49444 0.0
C300 C 1.06495 0.56257 0.47393 0.0
H301 H 0.96313 0.49729 0.5249 0.0
H302 H 0.95273 0.55535 0.49632 0.0
S303 S 0.25063 0.53229 0.46142 0.0
N304 N 0.20346 0.50001 0.48553 0.0
N305 N 0.19327 0.56259 0.45451 0.0
C306 C 0.13161 0.547 0.47189 0.0
C307 C 0.13735 0.51326 0.48911 0.0
C308 C 0.31626 0.15552 0.29833 0.0
C309 C 0.38798 0.15368 0.27885 0.0
C310 C 0.2588 0.15358 0.25887 0.0
C311 C 0.27089 0.15002 0.1983 0.0
H312 H 0.30428 0.16036 0.3441 0.0
H313 H 0.20515 0.15739 0.27555 0.0
S314 S 0.4467 0.13635 0.12629 0.0
N315 N 0.46664 0.14233 0.19619 0.0
N316 N 0.35866 0.13895 0.12184 0.0
C317 C 0.3416 0.14472 0.17899 0.0
C318 C 0.40018 0.14648 0.2193 0.0
C319 C 0.37196 0.93362 0.71866 0.0
C320 C 0.40608 0.90584 0.69523 0.0
C321 C 0.30836 0.92992 0.75243 0.0
C322 C 0.27881 0.89833 0.76482 0.0
H323 H 0.39358 0.95817 0.70993 0.0
H324 H 0.28344 0.95169 0.77019 0.0
S325 S 0.34829 0.81835 0.71253 0.0
N326 N 0.40173 0.8464 0.68221 0.0
N327 N 0.29084 0.8391 0.75256 0.0
C328 C 0.31365 0.87066 0.74217 0.0
C329 C 0.37488 0.87453 0.7054 0.0
C330 C 0.91381 0.92702 0.73507 0.0
C331 C 0.89075 0.92072 0.7932 0.0
C332 C 0.86443 0.93011 0.68878 0.0
C333 C 0.79003 0.92676 0.69863 0.0
H334 H 0.97048 0.92789 0.72453 0.0
H335 H 0.88502 0.9333 0.64454 0.0
S336 S 0.70087 0.91535 0.8435 0.0
N337 N 0.78738 0.91541 0.85856 0.0
N338 N 0.69551 0.92062 0.77176 0.0
C339 C 0.76614 0.92273 0.75695 0.0
C340 C 0.81618 0.91992 0.8041 0.0
C341 C 0.76435 0.15058 0.22974 0.0
C342 C 0.77897 0.16939 0.28047 0.0
C343 C 0.8197 0.14217 0.19048 0.0
C344 C 0.89154 0.15218 0.20074 0.0
H345 H 0.70947 0.144 0.21851 0.0
H346 H 0.80547 0.12915 0.15046 0.0
S347 S 0.95909 0.19654 0.33307 0.0
N348 N 0.87135 0.19413 0.34256 0.0
N349 N 0.97479 0.17793 0.26995 0.0
C350 C 0.90712 0.1688 0.2537 0.0
C351 C 0.85101 0.1775 0.29321 0.0
C352 C 0.9141 0.65065 0.20847 0.0
C353 C 0.90684 0.65118 0.2698 0.0
C354 C 0.85334 0.65119 0.17227 0.0
C355 C 0.78342 0.65203 0.19616 0.0
H356 H 0.96674 0.65266 0.18836 0.0
H357 H 0.8615 0.65312 0.12522 0.0
S358 S 0.73617 0.64746 0.35428 0.0
N359 N 0.82472 0.64778 0.35298 0.0
N360 N 0.71079 0.6487 0.28487 0.0
C361 C 0.77552 0.64908 0.25726 0.0
C362 C 0.8373 0.64875 0.29411 0.0
C363 C 0.83378 0.41174 0.67697 0.0
C364 C 0.90506 0.41213 0.69783 0.0
C365 C 0.77505 0.41264 0.71562 0.0
C366 C 0.7853 0.41385 0.77671 0.0
H367 H 0.82291 0.40887 0.63049 0.0
H368 H 0.72151 0.41002 0.69762 0.0
S369 S 0.96053 0.42111 0.85353 0.0
N370 N 0.98207 0.41813 0.78334 0.0
N371 N 0.87204 0.42003 0.85593 0.0
C372 C 0.85614 0.41723 0.79784 0.0
C373 C 0.91594 0.41635 0.75845 0.0
C374 C 0.32806 0.41878 0.79623 0.0
C375 C 0.40073 0.4157 0.78034 0.0
C376 C 0.27338 0.41803 0.75369 0.0
C377 C 0.28941 0.41529 0.69346 0.0
H378 H 0.31306 0.42104 0.84206 0.0
H379 H 0.21816 0.41994 0.768 0.0
S380 S 0.47062 0.40645 0.62846 0.0
N381 N 0.48529 0.40918 0.69988 0.0
N382 N 0.383 0.40919 0.62005 0.0
C383 C 0.36176 0.41262 0.67687 0.0
C384 C 0.41724 0.41243 0.72024 0.0
C385 C 0.28041 0.63849 0.23714 0.0
C386 C 0.3007 0.64962 0.29356 0.0
C387 C 0.33099 0.63567 0.19135 0.0
C388 C 0.40396 0.64414 0.19977 0.0
H389 H 0.22455 0.63312 0.22744 0.0
H390 H 0.31206 0.62808 0.14836 0.0
S391 S 0.48724 0.67084 0.34051 0.0
N392 N 0.40117 0.66614 0.35619 0.0
N393 N 0.49495 0.66125 0.27035 0.0
C394 C 0.42562 0.65368 0.2566 0.0
C395 C 0.37445 0.65626 0.30333 0.0
C396 C 1.00664 0.31124 0.84715 0.0
C397 C 1.0265 0.2924 0.79814 0.0
C398 C 0.99197 0.29601 0.90148 0.0
C399 C 0.99534 0.26147 0.90786 0.0
H400 H 1.00851 0.33796 0.84467 0.0
H401 H 0.98279 0.31141 0.93958 0.0
S402 S 1.03585 0.20134 0.79021 0.0
N403 N 1.042 0.23771 0.75754 0.0
N404 N 1.01329 0.2089 0.85908 0.0
C405 C 1.00882 0.24235 0.85769 0.0
C406 C 1.02479 0.25788 0.8029 0.0
C407 C 0.58445 0.78612 0.40872 0.0
C408 C 0.65542 0.79584 0.42233 0.0
C409 C 0.56752 0.76977 0.3567 0.0
C410 C 0.62014 0.763 0.31437 0.0
H411 H 0.54063 0.79163 0.43825 0.0
H412 H 0.512 0.76261 0.34948 0.0
S413 S 0.8148 0.78232 0.32826 0.0
N414 N 0.77976 0.79642 0.38994 0.0
N415 N 0.74717 0.76657 0.28984 0.0
C416 C 0.6918 0.77211 0.32713 0.0
C417 C 0.70944 0.7886 0.38126 0.0
C418 C 0.1142 0.79108 0.07847 0.0
C419 C 1.04436 0.80281 0.0714 0.0
C420 C 0.13303 0.77286 0.12768 0.0
C421 C 0.08319 0.76576 0.17254 0.0
H422 H 0.15498 0.796 0.04537 0.0
H423 H 0.18726 0.76399 0.1303 0.0
S424 S 0.89336 0.79142 0.1759 0.0
N425 N 0.92487 0.8064 0.11314 0.0
N426 N 0.96074 0.77237 0.20736 0.0
C427 C 1.01297 0.77747 0.16649 0.0
C428 C 0.99362 0.79616 0.11573 0.0
C429 C 0.64798 0.257 0.68285 0.0
C430 C 0.65443 0.29159 0.68622 0.0
C431 C 0.66035 0.24039 0.62993 0.0
C432 C 0.67842 0.25801 0.57866 0.0
H433 H 0.62809 0.24305 0.72033 0.0
H434 H 0.64889 0.21407 0.62781 0.0
S435 S 0.711 0.34828 0.56637 0.0
N436 N 0.68814 0.34245 0.63587 0.0
N437 N 0.70989 0.31128 0.53571 0.0
C438 C 0.6912 0.29224 0.58272 0.0
C439 C 0.67965 0.30906 0.63684 0.0
C440 C 0.53259 0.81956 0.86158 0.0
C441 C 0.55844 0.80307 0.81186 0.0
C442 C 0.51315 0.80188 0.91249 0.0
C443 C 0.51765 0.7672 0.91449 0.0
H444 H 0.5324 0.84629 0.86242 0.0
H445 H 0.49893 0.81547 0.95168 0.0
S446 S 0.57306 0.71273 0.79235 0.0
N447 N 0.58069 0.75046 0.76517 0.0
N448 N 0.54353 0.71709 0.86036 0.0
C449 C 0.53769 0.75044 0.86317 0.0
C450 C 0.55841 0.76845 0.81192 0.0
C451 C 0.16419 0.31646 0.36135 0.0
C452 C 0.17661 0.29699 0.4113 0.0
C453 C 0.14824 0.30184 0.30697 0.0
C454 C 0.14567 0.26734 0.30046 0.0
H455 H 0.16105 0.34305 0.36535 0.0
H456 H 0.13402 0.31748 0.27039 0.0
S457 S 0.1817 0.20561 0.4161 0.0
N458 N 0.19066 0.24159 0.44988 0.0
N459 N 0.16233 0.21417 0.34701 0.0
C460 C 0.16343 0.24768 0.34885 0.0
C461 C 0.17844 0.26252 0.40452 0.0
C462 C 0.49893 0.31614 0.11487 0.0
C463 C 0.50711 0.29737 0.06343 0.0
C464 C 0.50924 0.30208 0.17037 0.0
C465 C 0.52761 0.26874 0.17648 0.0
H466 H 0.48983 0.34243 0.11216 0.0
H467 H 0.50621 0.31779 0.20877 0.0
S468 S 0.54581 0.20807 0.05562 0.0
N469 N 0.52656 0.24294 0.02216 0.0
N470 N 0.54692 0.2166 0.1266 0.0
C471 C 0.53026 0.24907 0.12568 0.0
C472 C 0.51984 0.2634 0.0691 0.0
C473 C 1.05798 0.77728 0.57512 0.0
C474 C 0.12139 0.75889 0.57266 0.0
C475 C 1.03931 0.79501 0.62514 0.0
C476 C 0.08247 0.79481 0.67532 0.0
H477 H 1.02148 0.77782 0.53823 0.0
H478 H 0.99075 0.80919 0.62451 0.0
S479 S 0.24726 0.74685 0.69641 0.0
N480 N 0.22442 0.73968 0.62744 0.0
N481 N 0.1868 0.77217 0.72288 0.0
C482 C 0.14434 0.77566 0.67501 0.0
C483 C 0.16411 0.75773 0.62351 0.0
loop_
_geom_bond_atom_site_label_1
_geom_bond_atom_site_label_2
_geom_bond_distance
_geom_bond_site_symmetry_2
_ccdc_geom_bond_type
C0 C1 1.351 . S
C0 N3 1.368 . S
C0 H5 0.931 . S
C1 C0 1.351 . S
C1 N2 1.373 . S
C1 H29 0.930 . S
N2 C1 1.373 . S
N2 C4 1.340 1_455 S
N3 C0 1.368 . S
N3 C4 1.321 1_455 S
N3 Co6 2.135 . S
C4 N2 1.340 1_655 S
C4 N3 1.321 1_655 S
C4 H28 0.930 . S
H5 C0 0.931 . S
Co6 N3 2.135 . S
Co6 N9 2.121 1_455 S
Co6 O14 2.055 . S
Co6 O17 2.039 1_455 S
Co6 N20 2.140 . S
C7 O8 1.227 . S
C7 O17 1.265 . S
O8 C7 1.227 . S
N9 Co6 2.121 1_655 S
N9 C11 1.375 . S
N9 C12 1.313 1_655 S
C10 C11 1.338 . S
C10 N13 1.377 1_655 S
C10 H30 0.930 . S
C11 N9 1.375 . S
C11 C10 1.338 . S
C11 H15 0.931 . S
C12 N9 1.313 1_455 S
C12 N13 1.344 . S
C12 H16 0.930 . S
N13 C10 1.377 1_455 S
N13 C12 1.344 . S
O14 Co6 2.055 . S
O14 C18 1.253 . S
H15 C11 0.931 . S
H16 C12 0.930 . S
O17 Co6 2.039 1_655 S
O17 C7 1.265 . S
C18 O14 1.253 . S
C18 O19 1.227 . S
O19 C18 1.227 . S
N20 Co6 2.140 . S
N20 C23 1.346 1_455 S
N20 C24 1.345 . S
C21 C22 1.387 1_455 S
C21 C25 1.391 . S
C22 C21 1.387 1_655 S
C22 C23 1.369 . S
C22 H31 0.929 1_554 S
C23 N20 1.346 1_655 S
C23 C22 1.369 . S
C23 H26 0.928 . S
C24 N20 1.345 . S
C24 C25 1.371 . S
C24 H27 0.931 . S
C25 C21 1.391 . S
C25 C24 1.371 . S
C25 H32 0.930 . S
H26 C23 0.928 . S
H27 C24 0.931 . S
H28 C4 0.930 . S
H29 C1 0.930 . S
H30 C10 0.930 . S
H31 C22 0.929 1_556 S
H32 C25 0.930 . S
C33 C34 1.351 . S
C33 N36 1.368 . S
C33 H38 0.931 . S
C34 C33 1.351 . S
C34 N35 1.373 . S
C34 H62 0.930 . S
N35 C34 1.373 . S
N35 C37 1.340 . S
N36 C33 1.368 . S
N36 C37 1.321 . S
N36 Co39 2.135 . S
C37 N35 1.340 . S
C37 N36 1.321 . S
C37 H61 0.930 . S
H38 C33 0.931 . S
Co39 N36 2.135 . S
Co39 N42 2.121 . S
Co39 O47 2.055 . S
Co39 O50 2.039 . S
Co39 N53 2.140 . S
C40 O41 1.227 . S
C40 O50 1.265 . S
O41 C40 1.227 . S
N42 Co39 2.121 . S
N42 C44 1.375 . S
N42 C45 1.313 . S
C43 C44 1.338 . S
C43 N46 1.377 . S
C43 H63 0.930 . S
C44 N42 1.375 . S
C44 C43 1.338 . S
C44 H48 0.931 . S
C45 N42 1.313 . S
C45 N46 1.344 . S
C45 H49 0.930 . S
N46 C43 1.377 . S
N46 C45 1.344 . S
O47 Co39 2.055 . S
O47 C51 1.253 . S
H48 C44 0.931 . S
H49 C45 0.930 . S
O50 Co39 2.039 . S
O50 C40 1.265 . S
C51 O47 1.253 . S
C51 O52 1.227 . S
O52 C51 1.227 . S
N53 Co39 2.140 . S
N53 C56 1.346 . S
N53 C57 1.345 . S
C54 C55 1.387 . S
C54 C58 1.391 . S
C55 C54 1.387 . S
C55 C56 1.369 . S
C55 H64 0.929 . S
C56 N53 1.346 . S
C56 C55 1.369 . S
C56 H59 0.928 . S
C57 N53 1.345 . S
C57 C58 1.371 . S
C57 H60 0.931 . S
C58 C54 1.391 . S
C58 C57 1.371 . S
C58 H65 0.930 . S
H59 C56 0.928 . S
H60 C57 0.931 . S
H61 C37 0.930 . S
H62 C34 0.930 . S
H63 C43 0.930 . S
H64 C55 0.929 . S
H65 C58 0.930 . S
C66 C67 1.351 . S
C66 N69 1.368 . S
C66 H71 0.931 . S
C67 C66 1.351 . S
C67 N68 1.373 . S
C67 H95 0.930 . S
N68 C67 1.373 . S
N68 C70 1.340 1_455 S
N69 C66 1.368 . S
N69 C70 1.321 1_455 S
N69 Co72 2.135 . S
C70 N68 1.340 1_655 S
C70 N69 1.321 1_655 S
C70 H94 0.930 . S
H71 C66 0.931 . S
Co72 N69 2.135 . S
Co72 N75 2.121 1_455 S
Co72 O80 2.055 . S
Co72 O83 2.039 1_455 S
Co72 N86 2.140 . S
C73 O74 1.227 . S
C73 O83 1.265 . S
O74 C73 1.227 . S
N75 Co72 2.121 1_655 S
N75 C77 1.375 . S
N75 C78 1.313 1_655 S
C76 C77 1.338 . S
C76 N79 1.377 1_655 S
C76 H96 0.930 . S
C77 N75 1.375 . S
C77 C76 1.338 . S
C77 H81 0.931 . S
C78 N75 1.313 1_455 S
C78 N79 1.344 . S
C78 H82 0.930 . S
N79 C76 1.377 1_455 S
N79 C78 1.344 . S
O80 Co72 2.055 . S
O80 C84 1.253 . S
H81 C77 0.931 . S
H82 C78 0.930 . S
O83 Co72 2.039 1_655 S
O83 C73 1.265 . S
C84 O80 1.253 . S
C84 O85 1.227 . S
O85 C84 1.227 . S
N86 Co72 2.140 . S
N86 C89 1.346 1_455 S
N86 C90 1.345 . S
C87 C88 1.387 1_455 S
C87 C91 1.391 . S
C88 C87 1.387 1_655 S
C88 C89 1.369 . S
C88 H97 0.929 1_556 S
C89 N86 1.346 1_655 S
C89 C88 1.369 . S
C89 H92 0.928 . S
C90 N86 1.345 . S
C90 C91 1.371 . S
C90 H93 0.931 . S
C91 C87 1.391 . S
C91 C90 1.371 . S
C91 H98 0.930 . S
H92 C89 0.928 . S
H93 C90 0.931 . S
H94 C70 0.930 . S
H95 C67 0.930 . S
H96 C76 0.930 . S
H97 C88 0.929 1_554 S
H98 C91 0.930 . S
C99 C100 1.351 . S
C99 N102 1.368 . S
C99 H104 0.931 . S
C100 C99 1.351 . S
C100 N101 1.373 . S
C100 H128 0.930 . S
N101 C100 1.373 . S
N101 C103 1.340 . S
N102 C99 1.368 . S
N102 C103 1.321 . S
N102 Co105 2.135 . S
C103 N101 1.340 . S
C103 N102 1.321 . S
C103 H127 0.930 . S
H104 C99 0.931 . S
Co105 N102 2.135 . S
Co105 N108 2.121 . S
Co105 O113 2.055 . S
Co105 O116 2.039 . S
Co105 N119 2.140 . S
C106 O107 1.227 . S
C106 O116 1.265 . S
O107 C106 1.227 . S
N108 Co105 2.121 . S
N108 C110 1.375 . S
N108 C111 1.313 . S
C109 C110 1.338 . S
C109 N112 1.377 . S
C109 H129 0.930 . S
C110 N108 1.375 . S
C110 C109 1.338 . S
C110 H114 0.931 . S
C111 N108 1.313 . S
C111 N112 1.344 . S
C111 H115 0.930 . S
N112 C109 1.377 . S
N112 C111 1.344 . S
O113 Co105 2.055 . S
O113 C117 1.253 . S
H114 C110 0.931 . S
H115 C111 0.930 . S
O116 Co105 2.039 . S
O116 C106 1.265 . S
C117 O113 1.253 . S
C117 O118 1.227 . S
O118 C117 1.227 . S
N119 Co105 2.140 . S
N119 C122 1.346 . S
N119 C123 1.345 . S
C120 C121 1.387 . S
C120 C124 1.391 . S
C121 C120 1.387 . S
C121 C122 1.369 . S
C121 H130 0.929 . S
C122 N119 1.346 . S
C122 C121 1.369 . S
C122 H125 0.928 . S
C123 N119 1.345 . S
C123 C124 1.371 . S
C123 H126 0.931 . S
C124 C120 1.391 . S
C124 C123 1.371 . S
C124 H131 0.930 . S
H125 C122 0.928 . S
H126 C123 0.931 . S
H127 C103 0.930 . S
H128 C100 0.930 . S
H129 C109 0.930 . S
H130 C121 0.929 . S
H131 C124 0.930 . S
C132 C133 1.351 . S
C132 N135 1.368 . S
C132 H137 0.931 . S
C133 C132 1.351 . S
C133 N134 1.373 . S
C133 H161 0.930 . S
N134 C133 1.373 . S
N134 C136 1.340 . S
N135 C132 1.368 . S
N135 C136 1.321 . S
N135 Co138 2.135 . S
C136 N134 1.340 . S
C136 N135 1.321 . S
C136 H160 0.930 . S
H137 C132 0.931 . S
Co138 N135 2.135 . S
Co138 N141 2.121 . S
Co138 O146 2.055 . S
Co138 O149 2.039 . S
Co138 N152 2.140 . S
C139 O140 1.227 . S
C139 O149 1.265 . S
O140 C139 1.227 . S
N141 Co138 2.121 . S
N141 C143 1.375 . S
N141 C144 1.313 . S
C142 C143 1.338 . S
C142 N145 1.377 . S
C142 H162 0.930 . S
C143 N141 1.375 . S
C143 C142 1.338 . S
C143 H147 0.931 . S
C144 N141 1.313 . S
C144 N145 1.344 . S
C144 H148 0.930 . S
N145 C142 1.377 . S
N145 C144 1.344 . S
O146 Co138 2.055 . S
O146 C150 1.253 . S
H147 C143 0.931 . S
H148 C144 0.930 . S
O149 Co138 2.039 . S
O149 C139 1.265 . S
C150 O146 1.253 . S
C150 O151 1.227 . S
O151 C150 1.227 . S
N152 Co138 2.140 . S
N152 C155 1.346 . S
N152 C156 1.345 . S
C153 C154 1.387 . S
C153 C157 1.391 . S
C154 C153 1.387 . S
C154 C155 1.369 . S
C154 H163 0.929 1_554 S
C155 N152 1.346 . S
C155 C154 1.369 . S
C155 H158 0.928 . S
C156 N152 1.345 . S
C156 C157 1.371 . S
C156 H159 0.931 . S
C157 C153 1.391 . S
C157 C156 1.371 . S
C157 H164 0.930 . S
H158 C155 0.928 . S
H159 C156 0.931 . S
H160 C136 0.930 . S
H161 C133 0.930 . S
H162 C142 0.930 . S
H163 C154 0.929 1_556 S
H164 C157 0.930 . S
C165 C166 1.351 . S
C165 N168 1.368 1_655 S
C165 H170 0.931 . S
C166 C165 1.351 . S
C166 N167 1.373 1_655 S
C166 H194 0.930 . S
N167 C166 1.373 1_455 S
N167 C169 1.340 . S
N168 C165 1.368 1_455 S
N168 C169 1.321 . S
N168 Co171 2.135 . S
C169 N167 1.340 . S
C169 N168 1.321 . S
C169 H193 0.930 . S
H170 C165 0.931 . S
Co171 N168 2.135 . S
Co171 N174 2.121 . S
Co171 O179 2.055 1_455 S
Co171 O182 2.039 . S
Co171 N185 2.140 . S
C172 O173 1.227 . S
C172 O182 1.265 . S
O173 C172 1.227 . S
N174 Co171 2.121 . S
N174 C176 1.375 . S
N174 C177 1.313 1_455 S
C175 C176 1.338 . S
C175 N178 1.377 . S
C175 H195 0.930 . S
C176 N174 1.375 . S
C176 C175 1.338 . S
C176 H180 0.931 . S
C177 N174 1.313 1_655 S
C177 N178 1.344 1_655 S
C177 H181 0.930 . S
N178 C175 1.377 . S
N178 C177 1.344 1_455 S
O179 Co171 2.055 1_655 S
O179 C183 1.253 . S
H180 C176 0.931 . S
H181 C177 0.930 . S
O182 Co171 2.039 . S
O182 C172 1.265 . S
C183 O179 1.253 . S
C183 O184 1.227 . S
O184 C183 1.227 . S
N185 Co171 2.140 . S
N185 C188 1.346 . S
N185 C189 1.345 1_455 S
C186 C187 1.387 . S
C186 C190 1.391 1_455 S
C187 C186 1.387 . S
C187 C188 1.369 . S
C187 H196 0.929 . S
C188 N185 1.346 . S
C188 C187 1.369 . S
C188 H191 0.928 . S
C189 N185 1.345 1_655 S
C189 C190 1.371 . S
C189 H192 0.931 . S
C190 C186 1.391 1_655 S
C190 C189 1.371 . S
C190 H197 0.930 . S
H191 C188 0.928 . S
H192 C189 0.931 . S
H193 C169 0.930 . S
H194 C166 0.930 . S
H195 C175 0.930 . S
H196 C187 0.929 . S
H197 C190 0.930 . S
C198 C199 1.351 . S
C198 N201 1.368 . S
C198 H203 0.931 . S
C199 C198 1.351 . S
C199 N200 1.373 . S
C199 H227 0.930 . S
N200 C199 1.373 . S
N200 C202 1.340 . S
N201 C198 1.368 . S
N201 C202 1.321 . S
N201 Co204 2.135 . S
C202 N200 1.340 . S
C202 N201 1.321 . S
C202 H226 0.930 . S
H203 C198 0.931 . S
Co204 N201 2.135 . S
Co204 N207 2.121 . S
Co204 O212 2.055 . S
Co204 O215 2.039 . S
Co204 N218 2.140 . S
C205 O206 1.227 . S
C205 O215 1.265 . S
O206 C205 1.227 . S
N207 Co204 2.121 . S
N207 C209 1.375 . S
N207 C210 1.313 . S
C208 C209 1.338 . S
C208 N211 1.377 . S
C208 H228 0.930 . S
C209 N207 1.375 . S
C209 C208 1.338 . S
C209 H213 0.931 . S
C210 N207 1.313 . S
C210 N211 1.344 . S
C210 H214 0.930 . S
N211 C208 1.377 . S
N211 C210 1.344 . S
O212 Co204 2.055 . S
O212 C216 1.253 . S
H213 C209 0.931 . S
H214 C210 0.930 . S
O215 Co204 2.039 . S
O215 C205 1.265 . S
C216 O212 1.253 . S
C216 O217 1.227 . S
O217 C216 1.227 . S
N218 Co204 2.140 . S
N218 C221 1.346 . S
N218 C222 1.345 . S
C219 C220 1.387 . S
C219 C223 1.391 . S
C220 C219 1.387 . S
C220 C221 1.369 . S
C220 H229 0.929 1_556 S
C221 N218 1.346 . S
C221 C220 1.369 . S
C221 H224 0.928 . S
C222 N218 1.345 . S
C222 C223 1.371 . S
C222 H225 0.931 . S
C223 C219 1.391 . S
C223 C222 1.371 . S
C223 H230 0.930 . S
H224 C221 0.928 . S
H225 C222 0.931 . S
H226 C202 0.930 . S
H227 C199 0.930 . S
H228 C208 0.930 . S
H229 C220 0.929 1_554 S
H230 C223 0.930 . S
C231 C232 1.351 . S
C231 N234 1.368 1_655 S
C231 H236 0.931 . S
C232 C231 1.351 . S
C232 N233 1.373 1_655 S
C232 H260 0.930 . S
N233 C232 1.373 1_455 S
N233 C235 1.340 . S
N234 C231 1.368 1_455 S
N234 C235 1.321 . S
N234 Co237 2.135 . S
C235 N233 1.340 . S
C235 N234 1.321 . S
C235 H259 0.930 . S
H236 C231 0.931 . S
Co237 N234 2.135 . S
Co237 N240 2.121 . S
Co237 O245 2.055 1_455 S
Co237 O248 2.039 . S
Co237 N251 2.140 . S
C238 O239 1.227 . S
C238 O248 1.265 . S
O239 C238 1.227 . S
N240 Co237 2.121 . S
N240 C242 1.375 . S
N240 C243 1.313 1_455 S
C241 C242 1.338 . S
C241 N244 1.377 . S
C241 H261 0.930 . S
C242 N240 1.375 . S
C242 C241 1.338 . S
C242 H246 0.931 . S
C243 N240 1.313 1_655 S
C243 N244 1.344 1_655 S
C243 H247 0.930 . S
N244 C241 1.377 . S
N244 C243 1.344 1_455 S
O245 Co237 2.055 1_655 S
O245 C249 1.253 . S
H246 C242 0.931 . S
H247 C243 0.930 . S
O248 Co237 2.039 . S
O248 C238 1.265 . S
C249 O245 1.253 . S
C249 O250 1.227 . S
O250 C249 1.227 . S
N251 Co237 2.140 . S
N251 C254 1.346 . S
N251 C255 1.345 1_455 S
C252 C253 1.387 . S
C252 C256 1.391 1_455 S
C253 C252 1.387 . S
C253 C254 1.369 . S
C253 H262 0.929 . S
C254 N251 1.346 . S
C254 C253 1.369 . S
C254 H257 0.928 . S
C255 N251 1.345 1_655 S
C255 C256 1.371 . S
C255 H258 0.931 . S
C256 C252 1.391 1_655 S
C256 C255 1.371 . S
C256 H263 0.930 . S
H257 C254 0.928 . S
H258 C255 0.931 . S
H259 C235 0.930 . S
H260 C232 0.930 . S
H261 C241 0.930 . S
H262 C253 0.929 . S
H263 C256 0.930 . S
C264 C265 1.369 . S
C264 C266 1.419 1_565 S
C264 H268 0.930 . S
C265 C264 1.369 . S
C265 C274 1.429 1_656 S
C266 C264 1.419 1_545 S
C266 C267 1.363 1_556 S
C266 H269 0.929 . S
C267 C266 1.363 1_554 S
C267 C273 1.428 1_655 S
H268 C264 0.930 . S
H269 C266 0.929 . S
S270 N271 1.613 . S
S270 N272 1.610 1_565 S
N271 S270 1.613 . S
N271 C274 1.350 . S
N272 S270 1.610 1_545 S
N272 C273 1.351 . S
C273 C267 1.428 1_455 S
C273 N272 1.351 . S
C273 C274 1.434 1_545 S
C274 C265 1.429 1_454 S
C274 N271 1.350 . S
C274 C273 1.434 1_565 S
C275 C276 1.369 . S
C275 C277 1.419 1_545 S
C275 H279 0.930 . S
C276 C275 1.369 . S
C276 C285 1.453 . S
C277 C275 1.419 1_565 S
C277 C278 1.363 . S
C277 H280 0.929 . S
C278 C277 1.363 . S
C278 C284 1.428 . S
H279 C275 0.930 . S
H280 C277 0.929 . S
S281 N282 1.613 . S
S281 N283 1.610 . S
N282 S281 1.613 . S
N282 C285 1.347 1_565 S
N283 S281 1.610 . S
N283 C284 1.351 . S
C284 C278 1.428 . S
C284 N283 1.351 . S
C284 C285 1.410 1_565 S
C285 C276 1.453 . S
C285 N282 1.347 1_545 S
C285 C284 1.410 1_545 S
C286 C287 1.369 . S
C286 C288 1.419 . S
C286 H290 0.930 . S
C287 C286 1.369 . S
C287 C296 1.429 1_554 S
C288 C286 1.419 . S
C288 C289 1.363 1_554 S
C288 H291 0.929 . S
C289 C288 1.363 1_556 S
C289 C295 1.428 . S
H290 C286 0.930 . S
H291 C288 0.929 . S
S292 N293 1.613 . S
S292 N294 1.610 . S
N293 S292 1.613 . S
N293 C296 1.350 . S
N294 S292 1.610 . S
N294 C295 1.351 . S
C295 C289 1.428 . S
C295 N294 1.351 . S
C295 C296 1.434 . S
C296 C287 1.429 1_556 S
C296 N293 1.350 . S
C296 C295 1.434 . S
C297 C298 1.369 1_655 S
C297 C299 1.419 . S
C297 H301 0.930 . S
C298 C297 1.369 1_455 S
C298 C307 1.429 . S
C299 C297 1.419 . S
C299 C300 1.363 1_655 S
C299 H302 0.929 . S
C300 C299 1.363 1_455 S
C300 C306 1.428 . S
H301 C297 0.930 . S
H302 C299 0.929 . S
S303 N304 1.613 . S
S303 N305 1.610 . S
N304 S303 1.613 . S
N304 C307 1.350 . S
N305 S303 1.610 . S
N305 C306 1.351 . S
C306 C300 1.428 . S
C306 N305 1.351 . S
C306 C307 1.434 . S
C307 C298 1.429 . S
C307 N304 1.350 . S
C307 C306 1.434 . S
C308 C309 1.369 . S
C308 C310 1.419 . S
C308 H312 0.930 . S
C309 C308 1.369 . S
C309 C318 1.429 . S
C310 C308 1.419 . S
C310 C311 1.363 . S
C310 H313 0.929 . S
C311 C310 1.363 . S
C311 C317 1.428 . S
H312 C308 0.930 . S
H313 C310 0.929 . S
S314 N315 1.613 . S
S314 N316 1.610 . S
N315 S314 1.613 . S
N315 C318 1.350 . S
N316 S314 1.610 . S
N316 C317 1.351 . S
C317 C311 1.428 . S
C317 N316 1.351 . S
C317 C318 1.434 . S
C318 C309 1.429 . S
C318 N315 1.350 . S
C318 C317 1.434 . S
C319 C320 1.369 . S
C319 C321 1.419 . S
C319 H323 0.930 . S
C320 C319 1.369 . S
C320 C329 1.429 . S
C321 C319 1.419 . S
C321 C322 1.363 . S
C321 H324 0.929 . S
C322 C321 1.363 . S
C322 C328 1.428 . S
H323 C319 0.930 . S
H324 C321 0.929 . S
S325 N326 1.613 . S
S325 N327 1.610 . S
N326 S325 1.613 . S
N326 C329 1.350 . S
N327 S325 1.610 . S
N327 C328 1.351 . S
C328 C322 1.428 . S
C328 N327 1.351 . S
C328 C329 1.434 . S
C329 C320 1.429 . S
C329 N326 1.350 . S
C329 C328 1.434 . S
C330 C331 1.369 . S
C330 C332 1.419 . S
C330 H334 0.930 . S
C331 C330 1.369 . S
C331 C340 1.429 . S
C332 C330 1.419 . S
C332 C333 1.363 . S
C332 H335 0.929 . S
C333 C332 1.363 . S
C333 C339 1.428 . S
H334 C330 0.930 . S
H335 C332 0.929 . S
S336 N337 1.613 . S
S336 N338 1.610 . S
N337 S336 1.613 . S
N337 C340 1.350 . S
N338 S336 1.610 . S
N338 C339 1.351 . S
C339 C333 1.428 . S
C339 N338 1.351 . S
C339 C340 1.434 . S
C340 C331 1.429 . S
C340 N337 1.350 . S
C340 C339 1.434 . S
C341 C342 1.369 . S
C341 C343 1.419 . S
C341 H345 0.930 . S
C342 C341 1.369 . S
C342 C351 1.429 . S
C343 C341 1.419 . S
C343 C344 1.363 . S
C343 H346 0.929 . S
C344 C343 1.363 . S
C344 C350 1.428 . S
H345 C341 0.930 . S
H346 C343 0.929 . S
S347 N348 1.613 . S
S347 N349 1.610 . S
N348 S347 1.613 . S
N348 C351 1.350 . S
N349 S347 1.610 . S
N349 C350 1.351 . S
C350 C344 1.428 . S
C350 N349 1.351 . S
C350 C351 1.434 . S
C351 C342 1.429 . S
C351 N348 1.350 . S
C351 C350 1.434 . S
C352 C353 1.369 . S
C352 C354 1.419 . S
C352 H356 0.930 . S
C353 C352 1.369 . S
C353 C362 1.429 . S
C354 C352 1.419 . S
C354 C355 1.363 . S
C354 H357 0.929 . S
C355 C354 1.363 . S
C355 C361 1.428 . S
H356 C352 0.930 . S
H357 C354 0.929 . S
S358 N359 1.613 . S
S358 N360 1.610 . S
N359 S358 1.613 . S
N359 C362 1.350 . S
N360 S358 1.610 . S
N360 C361 1.351 . S
C361 C355 1.428 . S
C361 N360 1.351 . S
C361 C362 1.434 . S
C362 C353 1.429 . S
C362 N359 1.350 . S
C362 C361 1.434 . S
C363 C364 1.369 . S
C363 C365 1.419 . S
C363 H367 0.930 . S
C364 C363 1.369 . S
C364 C373 1.429 . S
C365 C363 1.419 . S
C365 C366 1.363 . S
C365 H368 0.929 . S
C366 C365 1.363 . S
C366 C372 1.428 . S
H367 C363 0.930 . S
H368 C365 0.929 . S
S369 N370 1.613 . S
S369 N371 1.610 . S
N370 S369 1.613 . S
N370 C373 1.350 . S
N371 S369 1.610 . S
N371 C372 1.351 . S
C372 C366 1.428 . S
C372 N371 1.351 . S
C372 C373 1.434 . S
C373 C364 1.429 . S
C373 N370 1.350 . S
C373 C372 1.434 . S
C374 C375 1.369 . S
C374 C376 1.419 . S
C374 H378 0.930 . S
C375 C374 1.369 . S
C375 C384 1.429 . S
C376 C374 1.419 . S
C376 C377 1.363 . S
C376 H379 0.929 . S
C377 C376 1.363 . S
C377 C383 1.428 . S
H378 C374 0.930 . S
H379 C376 0.929 . S
S380 N381 1.613 . S
S380 N382 1.610 . S
N381 S380 1.613 . S
N381 C384 1.350 . S
N382 S380 1.610 . S
N382 C383 1.351 . S
C383 C377 1.428 . S
C383 N382 1.351 . S
C383 C384 1.434 . S
C384 C375 1.429 . S
C384 N381 1.350 . S
C384 C383 1.434 . S
C385 C386 1.369 . S
C385 C387 1.419 . S
C385 H389 0.930 . S
C386 C385 1.369 . S
C386 C395 1.429 . S
C387 C385 1.419 . S
C387 C388 1.363 . S
C387 H390 0.929 . S
C388 C387 1.363 . S
C388 C394 1.428 . S
H389 C385 0.930 . S
H390 C387 0.929 . S
S391 N392 1.613 . S
S391 N393 1.610 . S
N392 S391 1.613 . S
N392 C395 1.350 . S
N393 S391 1.610 . S
N393 C394 1.351 . S
C394 C388 1.428 . S
C394 N393 1.351 . S
C394 C395 1.434 . S
C395 C386 1.429 . S
C395 N392 1.350 . S
C395 C394 1.434 . S
C396 C397 1.364 1_655 S
C396 C398 1.419 . S
C396 H400 0.930 . S
C397 C396 1.364 1_455 S
C397 C406 1.434 . S
C398 C396 1.419 . S
C398 C399 1.363 1_655 S
C398 H401 0.929 . S
C399 C398 1.363 1_455 S
C399 C405 1.428 . S
H400 C396 0.930 . S
H401 C398 0.929 . S
S402 N403 1.613 . S
S402 N404 1.610 . S
N403 S402 1.613 . S
N403 C406 1.350 . S
N404 S402 1.610 . S
N404 C405 1.351 . S
C405 C399 1.428 . S
C405 N404 1.351 . S
C405 C406 1.434 . S
C406 C397 1.434 . S
C406 N403 1.350 . S
C406 C405 1.434 . S
C407 C408 1.369 . S
C407 C409 1.419 . S
C407 H411 0.930 . S
C408 C407 1.369 . S
C408 C417 1.429 . S
C409 C407 1.419 . S
C409 C410 1.363 . S
C409 H412 0.929 . S
C410 C409 1.363 . S
C410 C416 1.428 . S
H411 C407 0.930 . S
H412 C409 0.929 . S
S413 N414 1.613 . S
S413 N415 1.610 . S
N414 S413 1.613 . S
N414 C417 1.350 . S
N415 S413 1.610 . S
N415 C416 1.351 . S
C416 C410 1.428 . S
C416 N415 1.351 . S
C416 C417 1.434 . S
C417 C408 1.429 . S
C417 N414 1.350 . S
C417 C416 1.434 . S
C418 C419 1.376 . S
C418 C420 1.419 . S
C418 H422 0.930 . S
C419 C418 1.376 . S
C419 C428 1.421 1_455 S
C420 C418 1.419 . S
C420 C421 1.356 1_455 S
C420 H423 0.929 . S
C421 C420 1.356 1_655 S
C421 C427 1.436 . S
H422 C418 0.930 . S
H423 C420 0.929 . S
S424 N425 1.613 . S
S424 N426 1.610 . S
N425 S424 1.613 . S
N425 C428 1.350 . S
N426 S424 1.610 . S
N426 C427 1.351 . S
C427 C421 1.436 . S
C427 N426 1.351 . S
C427 C428 1.434 . S
C428 C419 1.421 1_655 S
C428 N425 1.350 . S
C428 C427 1.434 . S
C429 C430 1.369 . S
C429 C431 1.419 . S
C429 H433 0.930 . S
C430 C429 1.369 . S
C430 C439 1.429 . S
C431 C429 1.419 . S
C431 C432 1.363 . S
C431 H434 0.929 . S
C432 C431 1.363 . S
C432 C438 1.428 . S
H433 C429 0.930 . S
H434 C431 0.929 . S
S435 N436 1.613 . S
S435 N437 1.610 . S
N436 S435 1.613 . S
N436 C439 1.350 . S
N437 S435 1.610 . S
N437 C438 1.351 . S
C438 C432 1.428 . S
C438 N437 1.351 . S
C438 C439 1.434 . S
C439 C430 1.429 . S
C439 N436 1.350 . S
C439 C438 1.434 . S
C440 C441 1.369 . S
C440 C442 1.419 . S
C440 H444 0.930 . S
C441 C440 1.369 . S
C441 C450 1.429 . S
C442 C440 1.419 . S
C442 C443 1.363 . S
C442 H445 0.929 . S
C443 C442 1.363 . S
C443 C449 1.428 . S
H444 C440 0.930 . S
H445 C442 0.929 . S
S446 N447 1.613 . S
S446 N448 1.610 . S
N447 S446 1.613 . S
N447 C450 1.350 . S
N448 S446 1.610 . S
N448 C449 1.351 . S
C449 C443 1.428 . S
C449 N448 1.351 . S
C449 C450 1.434 . S
C450 C441 1.429 . S
C450 N447 1.350 . S
C450 C449 1.434 . S
C451 C452 1.369 1_655 S
C451 C453 1.419 . S
C451 H455 0.930 . S
C452 C451 1.369 1_455 S
C452 C461 1.429 . S
C453 C451 1.419 . S
C453 C454 1.357 1_655 S
C453 H456 0.935 . S
C454 C453 1.357 1_455 S
C454 C460 1.428 . S
H455 C451 0.930 . S
H456 C453 0.935 . S
S457 N458 1.613 . S
S457 N459 1.610 . S
N458 S457 1.613 . S
N458 C461 1.350 . S
N459 S457 1.610 . S
N459 C460 1.351 . S
C460 C454 1.428 . S
C460 N459 1.351 . S
C460 C461 1.434 . S
C461 C452 1.429 . S
C461 N458 1.350 . S
C461 C460 1.434 . S
C462 C463 1.369 . S
C462 C464 1.419 . S
C462 H466 0.930 . S
C463 C462 1.369 . S
C463 C472 1.429 . S
C464 C462 1.419 . S
C464 C465 1.363 . S
C464 H467 0.929 . S
C465 C464 1.363 . S
C465 C471 1.428 . S
H466 C462 0.930 . S
H467 C464 0.929 . S
S468 N469 1.618 . S
S468 N470 1.610 . S
N469 S468 1.618 . S
N469 C472 1.362 . S
N470 S468 1.610 . S
N470 C471 1.351 . S
C471 C465 1.428 . S
C471 N470 1.351 . S
C471 C472 1.434 . S
C472 C463 1.429 . S
C472 N469 1.362 . S
C472 C471 1.434 . S
C473 C474 1.369 1_655 S
C473 C475 1.419 . S
C473 H477 0.930 . S
C474 C473 1.369 1_455 S
C474 C483 1.429 . S
C475 C473 1.419 . S
C475 C476 1.363 1_655 S
C475 H478 0.929 . S
C476 C475 1.363 1_455 S
C476 C482 1.428 . S
H477 C473 0.930 . S
H478 C475 0.929 . S
S479 N480 1.613 . S
S479 N481 1.610 . S
N480 S479 1.613 . S
N480 C483 1.350 . S
N481 S479 1.610 . S
N481 C482 1.351 . S
C482 C476 1.428 . S
C482 N481 1.351 . S
C482 C483 1.434 . S
C483 C474 1.429 . S
C483 N480 1.350 . S
C483 C482 1.434 . S
C265 N68 1.413 1_655 S
C267 N2 1.410 1_655 S
C276 N101 1.410 . S
C278 N35 1.413 . S
C287 N134 1.417 . S
C289 N200 1.416 . S
C298 N167 1.416 . S
C300 N233 1.416 . S
C309 C117 1.532 . S
C311 C18 1.530 . S
C320 C51 1.529 . S
C322 C84 1.533 . S
C331 C73 1.344 . S
C333 C40 1.346 . S
C342 C106 1.344 . S
C344 C7 1.346 . S
C353 C249 1.534 . S
C355 C150 1.535 . S
C364 C183 1.536 . S
C366 C216 1.532 . S
C375 C205 1.344 . S
C377 C172 1.343 . S
C386 C238 1.343 . S
C388 C139 1.345 . S
C397 N178 1.490 . S
C399 C21 1.545 1_556 S
C408 C54 1.545 . S
C410 N145 1.491 . S
C419 C87 1.545 1_554 S
C421 N244 1.490 1_655 S
C430 N211 1.484 . S
C432 C120 1.544 . S
C441 N46 1.491 . S
C443 C153 1.545 1_556 S
C452 C186 1.545 . S
C454 N13 1.490 . S
C463 C219 1.545 1_554 S
C465 N112 1.490 . S
C474 C252 1.545 . S
C476 N79 1.492 . S
