# Generated by pormake.
# Topology uos, (4)-cn, num edge types: 1
# Building blocks:
#     Node 0, Type 0, BuildingBlock: TATPOV_clean_sbu_0, # of connection points: 4
#     Node 1, Type 0, BuildingBlock: TATPOV_clean_sbu_0, # of connection points: 4
#     Node 2, Type 0, BuildingBlock: TATPOV_clean_sbu_0, # of connection points: 4
#     Node 3, Type 0, BuildingBlock: TATPOV_clean_sbu_0, # of connection points: 4
#     Node 4, Type 0, BuildingBlock: TATPOV_clean_sbu_0, # of connection points: 4
#     Node 5, Type 0, BuildingBlock: TATPOV_clean_sbu_0, # of connection points: 4
#     Node 6, Type 0, BuildingBlock: TATPOV_clean_sbu_0, # of connection points: 4
#     Node 7, Type 0, BuildingBlock: TATPOV_clean_sbu_0, # of connection points: 4
#     Node 8, Type 0, BuildingBlock: TATPOV_clean_sbu_0, # of connection points: 4
#     Node 9, Type 0, BuildingBlock: TATPOV_clean_sbu_0, # of connection points: 4
#     Node 10, Type 0, BuildingBlock: TATPOV_clean_sbu_0, # of connection points: 4
#     Node 11, Type 0, BuildingBlock: TATPOV_clean_sbu_0, # of connection points: 4
#     Node 12, Type 0, BuildingBlock: TATPOV_clean_sbu_0, # of connection points: 4
#     Node 13, Type 0, BuildingBlock: TATPOV_clean_sbu_0, # of connection points: 4
#     Node 14, Type 0, BuildingBlock: TATPOV_clean_sbu_0, # of connection points: 4
#     Node 15, Type 0, BuildingBlock: TATPOV_clean_sbu_0, # of connection points: 4
#     Node 16, Type 0, BuildingBlock: TATPOV_clean_sbu_0, # of connection points: 4
#     Node 17, Type 0, BuildingBlock: TATPOV_clean_sbu_0, # of connection points: 4
#     Node 18, Type 0, BuildingBlock: TATPOV_clean_sbu_0, # of connection points: 4
#     Node 19, Type 0, BuildingBlock: TATPOV_clean_sbu_0, # of connection points: 4
#     Node 20, Type 0, BuildingBlock: TATPOV_clean_sbu_0, # of connection points: 4
#     Node 21, Type 0, BuildingBlock: TATPOV_clean_sbu_0, # of connection points: 4
#     Node 22, Type 0, BuildingBlock: TATPOV_clean_sbu_0, # of connection points: 4
#     Node 23, Type 0, BuildingBlock: TATPOV_clean_sbu_0, # of connection points: 4
#     Node 24, Type 0, BuildingBlock: TATPOV_clean_sbu_0, # of connection points: 4
#     Node 25, Type 0, BuildingBlock: TATPOV_clean_sbu_0, # of connection points: 4
#     Node 26, Type 0, BuildingBlock: TATPOV_clean_sbu_0, # of connection points: 4
#     Node 27, Type 0, BuildingBlock: TATPOV_clean_sbu_0, # of connection points: 4
#     Node 28, Type 0, BuildingBlock: TATPOV_clean_sbu_0, # of connection points: 4
#     Node 29, Type 0, BuildingBlock: TATPOV_clean_sbu_0, # of connection points: 4
#     Node 30, Type 0, BuildingBlock: TATPOV_clean_sbu_0, # of connection points: 4
#     Node 31, Type 0, BuildingBlock: TATPOV_clean_sbu_0, # of connection points: 4
#     Edge 32, Type (0, 0), BuildingBlock: OJICUG_clean_linker_0, # of connection points: 2
#     Edge 33, Type (0, 0), BuildingBlock: OJICUG_clean_linker_0, # of connection points: 2
#     Edge 34, Type (0, 0), BuildingBlock: OJICUG_clean_linker_0, # of connection points: 2
#     Edge 35, Type (0, 0), BuildingBlock: OJICUG_clean_linker_0, # of connection points: 2
#     Edge 36, Type (0, 0), BuildingBlock: OJICUG_clean_linker_0, # of connection points: 2
#     Edge 37, Type (0, 0), BuildingBlock: OJICUG_clean_linker_0, # of connection points: 2
#     Edge 38, Type (0, 0), BuildingBlock: OJICUG_clean_linker_0, # of connection points: 2
#     Edge 39, Type (0, 0), BuildingBlock: OJICUG_clean_linker_0, # of connection points: 2
#     Edge 40, Type (0, 0), BuildingBlock: OJICUG_clean_linker_0, # of connection points: 2
#     Edge 41, Type (0, 0), BuildingBlock: OJICUG_clean_linker_0, # of connection points: 2
#     Edge 42, Type (0, 0), BuildingBlock: OJICUG_clean_linker_0, # of connection points: 2
#     Edge 43, Type (0, 0), BuildingBlock: OJICUG_clean_linker_0, # of connection points: 2
#     Edge 44, Type (0, 0), BuildingBlock: OJICUG_clean_linker_0, # of connection points: 2
#     Edge 45, Type (0, 0), BuildingBlock: OJICUG_clean_linker_0, # of connection points: 2
#     Edge 46, Type (0, 0), BuildingBlock: OJICUG_clean_linker_0, # of connection points: 2
#     Edge 47, Type (0, 0), BuildingBlock: OJICUG_clean_linker_0, # of connection points: 2
#     Edge 48, Type (0, 0), BuildingBlock: OJICUG_clean_linker_0, # of connection points: 2
#     Edge 49, Type (0, 0), BuildingBlock: OJICUG_clean_linker_0, # of connection points: 2
#     Edge 50, Type (0, 0), BuildingBlock: OJICUG_clean_linker_0, # of connection points: 2
#     Edge 51, Type (0, 0), BuildingBlock: OJICUG_clean_linker_0, # of connection points: 2
#     Edge 52, Type (0, 0), BuildingBlock: OJICUG_clean_linker_0, # of connection points: 2
#     Edge 53, Type (0, 0), BuildingBlock: OJICUG_clean_linker_0, # of connection points: 2
#     Edge 54, Type (0, 0), BuildingBlock: OJICUG_clean_linker_0, # of connection points: 2
#     Edge 55, Type (0, 0), BuildingBlock: OJICUG_clean_linker_0, # of connection points: 2
#     Edge 56, Type (0, 0), BuildingBlock: OJICUG_clean_linker_0, # of connection points: 2
#     Edge 57, Type (0, 0), BuildingBlock: OJICUG_clean_linker_0, # of connection points: 2
#     Edge 58, Type (0, 0), BuildingBlock: OJICUG_clean_linker_0, # of connection points: 2
#     Edge 59, Type (0, 0), BuildingBlock: OJICUG_clean_linker_0, # of connection points: 2
#     Edge 60, Type (0, 0), BuildingBlock: OJICUG_clean_linker_0, # of connection points: 2
#     Edge 61, Type (0, 0), BuildingBlock: OJICUG_clean_linker_0, # of connection points: 2
#     Edge 62, Type (0, 0), BuildingBlock: OJICUG_clean_linker_0, # of connection points: 2
#     Edge 63, Type (0, 0), BuildingBlock: OJICUG_clean_linker_0, # of connection points: 2
#     Edge 64, Type (0, 0), BuildingBlock: OJICUG_clean_linker_0, # of connection points: 2
#     Edge 65, Type (0, 0), BuildingBlock: OJICUG_clean_linker_0, # of connection points: 2
#     Edge 66, Type (0, 0), BuildingBlock: OJICUG_clean_linker_0, # of connection points: 2
#     Edge 67, Type (0, 0), BuildingBlock: OJICUG_clean_linker_0, # of connection points: 2
#     Edge 68, Type (0, 0), BuildingBlock: OJICUG_clean_linker_0, # of connection points: 2
#     Edge 69, Type (0, 0), BuildingBlock: OJICUG_clean_linker_0, # of connection points: 2
#     Edge 70, Type (0, 0), BuildingBlock: OJICUG_clean_linker_0, # of connection points: 2
#     Edge 71, Type (0, 0), BuildingBlock: OJICUG_clean_linker_0, # of connection points: 2
#     Edge 72, Type (0, 0), BuildingBlock: OJICUG_clean_linker_0, # of connection points: 2
#     Edge 73, Type (0, 0), BuildingBlock: OJICUG_clean_linker_0, # of connection points: 2
#     Edge 74, Type (0, 0), BuildingBlock: OJICUG_clean_linker_0, # of connection points: 2
#     Edge 75, Type (0, 0), BuildingBlock: OJICUG_clean_linker_0, # of connection points: 2
#     Edge 76, Type (0, 0), BuildingBlock: OJICUG_clean_linker_0, # of connection points: 2
#     Edge 77, Type (0, 0), BuildingBlock: OJICUG_clean_linker_0, # of connection points: 2
#     Edge 78, Type (0, 0), BuildingBlock: OJICUG_clean_linker_0, # of connection points: 2
#     Edge 79, Type (0, 0), BuildingBlock: OJICUG_clean_linker_0, # of connection points: 2
#     Edge 80, Type (0, 0), BuildingBlock: OJICUG_clean_linker_0, # of connection points: 2
#     Edge 81, Type (0, 0), BuildingBlock: OJICUG_clean_linker_0, # of connection points: 2
#     Edge 82, Type (0, 0), BuildingBlock: OJICUG_clean_linker_0, # of connection points: 2
#     Edge 83, Type (0, 0), BuildingBlock: OJICUG_clean_linker_0, # of connection points: 2
#     Edge 84, Type (0, 0), BuildingBlock: OJICUG_clean_linker_0, # of connection points: 2
#     Edge 85, Type (0, 0), BuildingBlock: OJICUG_clean_linker_0, # of connection points: 2
#     Edge 86, Type (0, 0), BuildingBlock: OJICUG_clean_linker_0, # of connection points: 2
#     Edge 87, Type (0, 0), BuildingBlock: OJICUG_clean_linker_0, # of connection points: 2
#     Edge 88, Type (0, 0), BuildingBlock: OJICUG_clean_linker_0, # of connection points: 2
#     Edge 89, Type (0, 0), BuildingBlock: OJICUG_clean_linker_0, # of connection points: 2
#     Edge 90, Type (0, 0), BuildingBlock: OJICUG_clean_linker_0, # of connection points: 2
#     Edge 91, Type (0, 0), BuildingBlock: OJICUG_clean_linker_0, # of connection points: 2
#     Edge 92, Type (0, 0), BuildingBlock: OJICUG_clean_linker_0, # of connection points: 2
#     Edge 93, Type (0, 0), BuildingBlock: OJICUG_clean_linker_0, # of connection points: 2
#     Edge 94, Type (0, 0), BuildingBlock: OJICUG_clean_linker_0, # of connection points: 2
#     Edge 95, Type (0, 0), BuildingBlock: OJICUG_clean_linker_0, # of connection points: 2
# Relax obj value: 0.054
# Max RMSD: 0.083
# Mean RMSD: 0.083
data_MOF--net-uos--node1-TATPOV_clean_sbu_0--edge1-OJICUG_clean_linker_0
_symmetry_space_group_name_H-M    P1
_symmetry_Int_Tables_number       1
_symmetry_cell_setting            triclinic
loop_
_symmetry_equiv_pos_as_xyz
'x, y, z'
_cell_length_a     61.097913
_cell_length_b     61.186266
_cell_length_c     17.720387
_cell_angle_alpha  89.998552
_cell_angle_beta   90.009102
_cell_angle_gamma 90.001368
loop_
_atom_site_label
_atom_site_type_symbol
_atom_site_fract_x
_atom_site_fract_y
_atom_site_fract_z
_atom_type_partial_charge
Zn0 Zn 0.16951 0.17293 0.25162 0.0
Zn1 Zn 0.15829 0.15141 0.13707 0.0
O2 O 0.16076 0.18242 0.0905 0.0
O3 O 0.17832 0.19777 0.18505 0.0
O4 O 0.14638 0.13211 0.05359 0.0
O5 O 0.14093 0.17287 0.30484 0.0
O6 O 0.13408 0.14825 0.21775 0.0
C7 C 0.17117 0.19858 0.11814 0.0
C8 C 0.19839 0.1383 0.23091 0.0
O9 O 0.1884 0.13783 0.16751 0.0
O10 O 0.19166 0.15086 0.28249 0.0
C11 C 0.15042 0.13446 0.98366 0.0
O12 O 0.16389 0.14998 0.96203 0.0
C13 C 0.12867 0.15814 0.27835 0.0
Zn14 Zn 0.06315 0.91938 0.51166 0.0
Zn15 Zn 0.08387 0.90662 0.39754 0.0
O16 O 0.05282 0.90987 0.35169 0.0
O17 O 0.03848 0.92877 0.44497 0.0
O18 O 0.10256 0.89364 0.31435 0.0
O19 O 0.06212 0.89118 0.56699 0.0
O20 O 0.08622 0.88276 0.47966 0.0
C21 C 0.03715 0.92112 0.37882 0.0
C22 C 0.09872 0.94677 0.48794 0.0
O23 O 0.09856 0.93639 0.42531 0.0
O24 O 0.08616 0.94077 0.54063 0.0
C25 C 0.10138 0.89875 0.24491 0.0
O26 O 0.08753 0.91398 0.22367 0.0
C27 C 0.07622 0.87813 0.54085 0.0
Zn28 Zn 0.31514 0.81253 0.74906 0.0
Zn29 Zn 0.32654 0.83386 0.63502 0.0
O30 O 0.32401 0.80278 0.5891 0.0
O31 O 0.30583 0.78778 0.68282 0.0
O32 O 0.33846 0.85301 0.55112 0.0
O33 O 0.34381 0.81208 0.80178 0.0
O34 O 0.35088 0.83683 0.71533 0.0
C35 C 0.31328 0.78677 0.61634 0.0
C36 C 0.28663 0.84736 0.72927 0.0
O37 O 0.2965 0.84764 0.66564 0.0
O38 O 0.29338 0.83483 0.78092 0.0
C39 C 0.33508 0.84997 0.48108 0.0
O40 O 0.32231 0.83384 0.4597 0.0
C41 C 0.35624 0.82671 0.77556 0.0
Zn42 Zn 0.42317 0.06467 0.00779 0.0
Zn43 Zn 0.40199 0.07707 0.89377 0.0
O44 O 0.43306 0.07452 0.8477 0.0
O45 O 0.44801 0.05597 0.94072 0.0
O46 O 0.38299 0.08962 0.81068 0.0
O47 O 0.42346 0.09291 0.063 0.0
O48 O 0.3992 0.10091 0.97571 0.0
C49 C 0.44906 0.06368 0.87459 0.0
C50 C 0.38802 0.03664 0.98429 0.0
O51 O 0.38783 0.04707 0.92178 0.0
O52 O 0.40066 0.04274 0.03662 0.0
C53 C 0.3846 0.08486 0.74106 0.0
O54 O 0.39912 0.07029 0.71965 0.0
C55 C 0.40912 0.1057 0.03689 0.0
Zn56 Zn 0.16946 0.81185 0.75336 0.0
Zn57 Zn 0.15824 0.83276 0.86825 0.0
O58 O 0.16144 0.80165 0.91361 0.0
O59 O 0.17945 0.78716 0.81853 0.0
O60 O 0.1464 0.85175 0.95279 0.0
O61 O 0.14062 0.81098 0.70187 0.0
O62 O 0.13364 0.83561 0.78877 0.0
C63 C 0.17234 0.7859 0.8854 0.0
C64 C 0.19764 0.84693 0.77258 0.0
O65 O 0.188 0.84692 0.83664 0.0
O66 O 0.1908 0.8345 0.72079 0.0
C67 C 0.14974 0.8486 0.0228 0.0
O68 O 0.16241 0.83237 0.04398 0.0
C69 C 0.12817 0.8255 0.72864 0.0
Zn70 Zn 0.42304 0.91955 0.99288 0.0
Zn71 Zn 0.40194 0.9072 0.10719 0.0
O72 O 0.43297 0.91005 0.15351 0.0
O73 O 0.44786 0.92838 0.05983 0.0
O74 O 0.38299 0.89453 0.19018 0.0
O75 O 0.4234 0.89134 0.93756 0.0
O76 O 0.3992 0.8834 0.02504 0.0
C77 C 0.44891 0.9209 0.12628 0.0
C78 C 0.38785 0.94755 0.01662 0.0
O79 O 0.3877 0.93715 0.0792 0.0
O80 O 0.40045 0.94142 0.96423 0.0
C81 C 0.38413 0.89966 0.25961 0.0
O82 O 0.39814 0.91473 0.28098 0.0
C83 C 0.40905 0.87859 0.96375 0.0
Zn84 Zn 0.3164 0.17345 0.25247 0.0
Zn85 Zn 0.32775 0.15155 0.36642 0.0
O86 O 0.32549 0.18249 0.41356 0.0
O87 O 0.30784 0.1982 0.31992 0.0
O88 O 0.33964 0.13216 0.44962 0.0
O89 O 0.34497 0.17327 0.19909 0.0
O90 O 0.35192 0.14853 0.28568 0.0
C91 C 0.31515 0.19879 0.38667 0.0
C92 C 0.28755 0.1387 0.27265 0.0
O93 O 0.29763 0.13801 0.33584 0.0
O94 O 0.29414 0.1515 0.22154 0.0
C95 C 0.33563 0.13459 0.51953 0.0
O96 O 0.32222 0.15018 0.54102 0.0
C97 C 0.35727 0.15852 0.22524 0.0
Zn98 Zn 0.06367 0.06357 0.49533 0.0
Zn99 Zn 0.08459 0.07614 0.60948 0.0
O100 O 0.05347 0.07337 0.6551 0.0
O101 O 0.03882 0.05462 0.56201 0.0
O102 O 0.10344 0.08886 0.69275 0.0
O103 O 0.06313 0.09179 0.44004 0.0
O104 O 0.08725 0.1 0.52751 0.0
C105 C 0.03761 0.06237 0.62805 0.0
C106 C 0.09893 0.03578 0.51918 0.0
O107 O 0.09895 0.0462 0.5817 0.0
O108 O 0.08636 0.04183 0.46659 0.0
C109 C 0.10161 0.08439 0.76254 0.0
O110 O 0.08692 0.07 0.78413 0.0
C111 C 0.07733 0.10471 0.46626 0.0
Zn112 Zn 0.81676 0.81233 0.75536 0.0
Zn113 Zn 0.8277 0.83348 0.87026 0.0
O114 O 0.82526 0.8023 0.91557 0.0
O115 O 0.80752 0.78738 0.82063 0.0
O116 O 0.83929 0.85268 0.95464 0.0
O117 O 0.84552 0.8122 0.70337 0.0
O118 O 0.85213 0.83687 0.79049 0.0
C119 C 0.81473 0.78629 0.88741 0.0
C120 C 0.78787 0.84682 0.77526 0.0
O121 O 0.79761 0.84705 0.83912 0.0
O122 O 0.79483 0.83448 0.72343 0.0
C123 C 0.83607 0.84951 0.02469 0.0
O124 O 0.82367 0.83309 0.0461 0.0
C125 C 0.85772 0.82694 0.73015 0.0
Zn126 Zn 0.92322 0.06529 0.495 0.0
Zn127 Zn 0.90244 0.07774 0.60958 0.0
O128 O 0.93353 0.07456 0.65523 0.0
O129 O 0.94799 0.05598 0.56138 0.0
O130 O 0.88367 0.09043 0.69306 0.0
O131 O 0.92398 0.09361 0.44038 0.0
O132 O 0.89989 0.10173 0.52803 0.0
C133 C 0.94928 0.06348 0.62773 0.0
C134 C 0.88777 0.03768 0.51836 0.0
O135 O 0.88786 0.04798 0.58113 0.0
O136 O 0.90034 0.04377 0.46582 0.0
C137 C 0.88536 0.08576 0.76273 0.0
O138 O 0.89987 0.07117 0.78414 0.0
C139 C 0.90981 0.10653 0.46686 0.0
Zn140 Zn 0.67092 0.17338 0.25247 0.0
Zn141 Zn 0.65919 0.15178 0.36612 0.0
O142 O 0.66199 0.18267 0.41321 0.0
O143 O 0.68014 0.19792 0.31987 0.0
O144 O 0.64702 0.13259 0.44942 0.0
O145 O 0.64233 0.17396 0.19918 0.0
O146 O 0.63493 0.14923 0.2854 0.0
C147 C 0.67276 0.19872 0.38648 0.0
C148 C 0.69916 0.13823 0.27226 0.0
O149 O 0.68913 0.1378 0.33556 0.0
O150 O 0.69267 0.15101 0.22094 0.0
C151 C 0.65103 0.13507 0.51933 0.0
O152 O 0.6646 0.15054 0.54064 0.0
C153 C 0.62974 0.15942 0.22515 0.0
Zn154 Zn 0.5632 0.92144 0.99553 0.0
Zn155 Zn 0.58421 0.90883 0.10945 0.0
O156 O 0.55308 0.91132 0.15517 0.0
O157 O 0.5383 0.9301 0.06238 0.0
O158 O 0.60311 0.89606 0.19243 0.0
O159 O 0.56285 0.89334 0.93956 0.0
O160 O 0.58703 0.88516 0.02692 0.0
C161 C 0.53714 0.92225 0.12829 0.0
C162 C 0.59831 0.94941 0.01996 0.0
O163 O 0.59839 0.93891 0.08235 0.0
O164 O 0.58577 0.94335 0.9673 0.0
C165 C 0.6018 0.90096 0.26201 0.0
O166 O 0.58764 0.91587 0.28358 0.0
C167 C 0.57715 0.88048 0.96554 0.0
Zn168 Zn 0.81654 0.17313 0.25253 0.0
Zn169 Zn 0.82814 0.15197 0.13803 0.0
O170 O 0.82536 0.18302 0.09208 0.0
O171 O 0.80725 0.19788 0.18629 0.0
O172 O 0.84025 0.1329 0.05429 0.0
O173 O 0.84515 0.1736 0.30566 0.0
O174 O 0.85242 0.14909 0.21861 0.0
C175 C 0.81459 0.19896 0.11966 0.0
C176 C 0.78821 0.13815 0.23162 0.0
O177 O 0.79818 0.13798 0.16819 0.0
O178 O 0.7948 0.15068 0.28353 0.0
C179 C 0.83635 0.13544 0.98434 0.0
O180 O 0.82292 0.15102 0.96289 0.0
C181 C 0.85767 0.1591 0.27916 0.0
Zn182 Zn 0.56299 0.06659 0.00893 0.0
Zn183 Zn 0.58419 0.0786 0.89457 0.0
O184 O 0.55316 0.0757 0.84818 0.0
O185 O 0.53823 0.05754 0.94214 0.0
O186 O 0.60323 0.09092 0.81116 0.0
O187 O 0.56257 0.09499 0.06307 0.0
O188 O 0.58694 0.10265 0.97584 0.0
C189 C 0.53721 0.0649 0.87554 0.0
C190 C 0.59816 0.03849 0.98681 0.0
O191 O 0.59836 0.04872 0.9239 0.0
O192 O 0.58551 0.04478 0.03885 0.0
C193 C 0.60156 0.08611 0.74159 0.0
O194 O 0.58691 0.07163 0.72039 0.0
C195 C 0.57698 0.10765 0.03676 0.0
Zn196 Zn 0.66959 0.81229 0.75083 0.0
Zn197 Zn 0.65862 0.83411 0.63659 0.0
O198 O 0.66086 0.8031 0.58981 0.0
O199 O 0.67828 0.78746 0.68409 0.0
O200 O 0.64694 0.85354 0.55303 0.0
O201 O 0.64094 0.81252 0.80358 0.0
O202 O 0.63434 0.83735 0.71694 0.0
C203 C 0.67112 0.7868 0.61717 0.0
C204 C 0.69869 0.84681 0.73131 0.0
O205 O 0.68878 0.84748 0.66778 0.0
O206 O 0.69185 0.83414 0.78241 0.0
C207 C 0.65052 0.85075 0.48299 0.0
O208 O 0.66336 0.8347 0.46137 0.0
C209 C 0.6288 0.82738 0.77726 0.0
Zn210 Zn 0.92286 0.92109 0.51191 0.0
Zn211 Zn 0.90194 0.90821 0.39811 0.0
O212 O 0.933 0.91103 0.35218 0.0
O213 O 0.94763 0.92999 0.4448 0.0
O214 O 0.88317 0.89513 0.31534 0.0
O215 O 0.92354 0.89304 0.56816 0.0
O216 O 0.89944 0.88457 0.48086 0.0
C217 C 0.94884 0.92214 0.3789 0.0
C218 C 0.88745 0.94869 0.48729 0.0
O219 O 0.88746 0.93815 0.42498 0.0
O220 O 0.90005 0.94277 0.53999 0.0
C221 C 0.88421 0.90022 0.24587 0.0
O222 O 0.89794 0.91553 0.22435 0.0
C223 C 0.90937 0.88002 0.54225 0.0
Zn224 Zn 0.66903 0.67345 0.75126 0.0
Zn225 Zn 0.65762 0.65187 0.63651 0.0
O226 O 0.66017 0.68284 0.58986 0.0
O227 O 0.67775 0.69825 0.68427 0.0
O228 O 0.64573 0.63261 0.55307 0.0
O229 O 0.64039 0.67332 0.8043 0.0
O230 O 0.63339 0.64883 0.71693 0.0
C231 C 0.67058 0.69901 0.61736 0.0
C232 C 0.69772 0.6386 0.73016 0.0
O233 O 0.68762 0.63813 0.66698 0.0
O234 O 0.69118 0.65129 0.78167 0.0
C235 C 0.64985 0.63501 0.48322 0.0
O236 O 0.66332 0.65055 0.46188 0.0
C237 C 0.62803 0.6587 0.77759 0.0
Zn238 Zn 0.56363 0.42072 0.0165 0.0
Zn239 Zn 0.58408 0.4074 0.90232 0.0
O240 O 0.55309 0.411 0.85659 0.0
O241 O 0.53902 0.43022 0.94959 0.0
O242 O 0.6025 0.39401 0.81938 0.0
O243 O 0.56237 0.39265 0.07264 0.0
O244 O 0.58619 0.38372 0.98502 0.0
C245 C 0.53757 0.42249 0.88358 0.0
C246 C 0.5996 0.44754 0.99115 0.0
O247 O 0.59923 0.437 0.92889 0.0
O248 O 0.58701 0.44188 0.0442 0.0
C249 C 0.60209 0.39973 0.75042 0.0
O250 O 0.58923 0.41585 0.72962 0.0
C251 C 0.57625 0.37936 0.04654 0.0
Zn252 Zn 0.81537 0.31221 0.25652 0.0
Zn253 Zn 0.82727 0.33391 0.14312 0.0
O254 O 0.8247 0.30301 0.09583 0.0
O255 O 0.80656 0.28758 0.1889 0.0
O256 O 0.83968 0.35314 0.06029 0.0
O257 O 0.84374 0.31189 0.31112 0.0
O258 O 0.85127 0.33656 0.22484 0.0
C259 C 0.81403 0.28686 0.12239 0.0
C260 C 0.78701 0.34728 0.23563 0.0
O261 O 0.7972 0.3478 0.17264 0.0
O262 O 0.79339 0.33447 0.287 0.0
C263 C 0.83526 0.35125 0.99045 0.0
O264 O 0.82109 0.33637 0.96877 0.0
C265 C 0.85631 0.32647 0.28545 0.0
Zn266 Zn 0.9239 0.56605 0.50039 0.0
Zn267 Zn 0.90225 0.57713 0.38605 0.0
O268 O 0.93338 0.57497 0.33978 0.0
O269 O 0.94888 0.55742 0.43404 0.0
O270 O 0.88287 0.58874 0.30219 0.0
O271 O 0.92364 0.59463 0.55334 0.0
O272 O 0.89889 0.60137 0.46646 0.0
C273 C 0.94965 0.56468 0.36728 0.0
C274 C 0.8894 0.53702 0.48022 0.0
O275 O 0.88883 0.54698 0.41681 0.0
O276 O 0.90201 0.54379 0.53163 0.0
C277 C 0.8856 0.585 0.23221 0.0
O278 O 0.9016 0.57208 0.21077 0.0
C279 C 0.90882 0.60682 0.52697 0.0
Zn280 Zn 0.66945 0.31268 0.25812 0.0
Zn281 Zn 0.65843 0.33366 0.37324 0.0
O282 O 0.66134 0.30251 0.41838 0.0
O283 O 0.67923 0.28788 0.32329 0.0
O284 O 0.64691 0.35273 0.45802 0.0
O285 O 0.64051 0.31212 0.20713 0.0
O286 O 0.63375 0.33674 0.29424 0.0
C287 C 0.6721 0.28667 0.39015 0.0
C288 C 0.69795 0.34747 0.27736 0.0
O289 O 0.68829 0.34755 0.34139 0.0
O290 O 0.69101 0.33512 0.22551 0.0
C291 C 0.64974 0.34906 0.52799 0.0
O292 O 0.66163 0.33223 0.54887 0.0
C293 C 0.62816 0.32669 0.23415 0.0
Zn294 Zn 0.92395 0.41906 0.50161 0.0
Zn295 Zn 0.90237 0.40778 0.61575 0.0
O296 O 0.93345 0.41009 0.66228 0.0
O297 O 0.94885 0.4278 0.56816 0.0
O298 O 0.88303 0.39591 0.69929 0.0
O299 O 0.92391 0.39058 0.44808 0.0
O300 O 0.89918 0.38364 0.53483 0.0
C301 C 0.94966 0.42052 0.63488 0.0
C302 C 0.88933 0.44792 0.52212 0.0
O303 O 0.88882 0.43791 0.58545 0.0
O304 O 0.90193 0.44121 0.47057 0.0
C305 C 0.88532 0.40003 0.76919 0.0
O306 O 0.90081 0.41355 0.79078 0.0
C307 C 0.90914 0.37831 0.47425 0.0
Zn308 Zn 0.8153 0.67332 0.74595 0.0
Zn309 Zn 0.8275 0.6514 0.85915 0.0
O310 O 0.82506 0.68218 0.90721 0.0
O311 O 0.80698 0.69792 0.81456 0.0
O312 O 0.84011 0.63209 0.9413 0.0
O313 O 0.84349 0.67338 0.69023 0.0
O314 O 0.85126 0.64882 0.77667 0.0
C315 C 0.81449 0.69844 0.88107 0.0
C316 C 0.78688 0.63827 0.76813 0.0
O317 O 0.79734 0.63759 0.83058 0.0
O318 O 0.79306 0.65117 0.71672 0.0
C319 C 0.83519 0.63338 0.01088 0.0
O320 O 0.82035 0.64761 0.03251 0.0
C321 C 0.85613 0.65883 0.71575 0.0
Zn322 Zn 0.56427 0.56354 0.99389 0.0
Zn323 Zn 0.58469 0.57654 0.10825 0.0
O324 O 0.55357 0.57332 0.15323 0.0
O325 O 0.53953 0.55407 0.06028 0.0
O326 O 0.60323 0.5895 0.1917 0.0
O327 O 0.56319 0.59178 0.93871 0.0
O328 O 0.58708 0.60044 0.02643 0.0
C329 C 0.538 0.56193 0.12609 0.0
C330 C 0.59991 0.5364 0.01859 0.0
O331 O 0.59954 0.54684 0.08106 0.0
O332 O 0.58745 0.54227 0.96544 0.0
C333 C 0.60154 0.58479 0.26133 0.0
O334 O 0.58719 0.57002 0.28255 0.0
C335 C 0.57711 0.60498 0.96512 0.0
Zn336 Zn 0.31825 0.31223 0.25472 0.0
Zn337 Zn 0.32907 0.33378 0.36969 0.0
O338 O 0.32658 0.30274 0.41602 0.0
O339 O 0.3093 0.28736 0.3209 0.0
O340 O 0.3406 0.35315 0.45362 0.0
O341 O 0.34703 0.31239 0.20275 0.0
O342 O 0.35349 0.33708 0.28992 0.0
C343 C 0.31627 0.28656 0.38803 0.0
C344 C 0.28919 0.34675 0.27441 0.0
O345 O 0.29901 0.34725 0.33811 0.0
O346 O 0.2961 0.33422 0.22302 0.0
C347 C 0.33721 0.35012 0.52365 0.0
O348 O 0.32469 0.33381 0.54511 0.0
C349 C 0.35913 0.32719 0.22958 0.0
Zn350 Zn 0.42353 0.56549 0.99202 0.0
Zn351 Zn 0.40301 0.57818 0.10658 0.0
O352 O 0.43405 0.57452 0.15207 0.0
O353 O 0.4481 0.55559 0.05835 0.0
O354 O 0.38443 0.59094 0.19032 0.0
O355 O 0.42486 0.59391 0.93803 0.0
O356 O 0.40083 0.60232 0.0255 0.0
C357 C 0.44957 0.56312 0.12464 0.0
C358 C 0.3877 0.53843 0.01494 0.0
O359 O 0.38802 0.54867 0.07782 0.0
O360 O 0.40028 0.54442 0.96228 0.0
C361 C 0.38624 0.58619 0.2599 0.0
O362 O 0.40074 0.57154 0.28082 0.0
C363 C 0.4109 0.60703 0.96454 0.0
Zn364 Zn 0.17281 0.67239 0.74841 0.0
Zn365 Zn 0.16066 0.65091 0.86189 0.0
O366 O 0.16325 0.68184 0.90872 0.0
O367 O 0.1817 0.69704 0.81597 0.0
O368 O 0.14821 0.63179 0.94484 0.0
O369 O 0.14443 0.67283 0.69377 0.0
O370 O 0.13667 0.64829 0.78024 0.0
C371 C 0.17407 0.6979 0.88225 0.0
C372 C 0.20097 0.63725 0.77004 0.0
O373 O 0.19071 0.6369 0.83291 0.0
O374 O 0.19467 0.64998 0.71829 0.0
C375 C 0.15247 0.6339 0.0147 0.0
O376 O 0.16649 0.64894 0.03625 0.0
C377 C 0.13172 0.65838 0.71955 0.0
Zn378 Zn 0.0631 0.41979 0.49892 0.0
Zn379 Zn 0.08488 0.40804 0.61277 0.0
O380 O 0.0539 0.41032 0.65991 0.0
O381 O 0.03827 0.42814 0.56649 0.0
O382 O 0.10423 0.39585 0.69565 0.0
O383 O 0.06327 0.39148 0.44419 0.0
O384 O 0.08787 0.38413 0.53106 0.0
C385 C 0.03761 0.42074 0.63308 0.0
C386 C 0.09791 0.44847 0.52076 0.0
O387 O 0.09852 0.43819 0.58353 0.0
O388 O 0.08515 0.44208 0.46921 0.0
C389 C 0.10236 0.40032 0.76544 0.0
O390 O 0.08737 0.41438 0.7871 0.0
C391 C 0.07794 0.37904 0.47017 0.0
Zn392 Zn 0.3178 0.6732 0.75114 0.0
Zn393 Zn 0.32951 0.65209 0.63657 0.0
O394 O 0.32614 0.68301 0.59021 0.0
O395 O 0.30801 0.69772 0.68464 0.0
O396 O 0.34168 0.63312 0.55275 0.0
O397 O 0.34654 0.67413 0.80349 0.0
O398 O 0.35396 0.64962 0.71661 0.0
C399 C 0.31517 0.6988 0.61778 0.0
C400 C 0.28994 0.63779 0.73107 0.0
O401 O 0.29983 0.6377 0.6675 0.0
O402 O 0.29644 0.65044 0.78278 0.0
C403 C 0.33751 0.63557 0.48295 0.0
O404 O 0.3238 0.65096 0.46193 0.0
C405 C 0.3592 0.65975 0.77691 0.0
Zn406 Zn 0.06314 0.56647 0.50337 0.0
Zn407 Zn 0.08492 0.57786 0.38904 0.0
O408 O 0.05392 0.57553 0.34199 0.0
O409 O 0.03825 0.55808 0.43616 0.0
O410 O 0.10431 0.58977 0.30586 0.0
O411 O 0.06348 0.59492 0.55726 0.0
O412 O 0.08809 0.60191 0.47014 0.0
C413 C 0.03761 0.56526 0.36927 0.0
C414 C 0.09785 0.53759 0.48208 0.0
O415 O 0.09849 0.54776 0.41907 0.0
O416 O 0.08511 0.54413 0.53348 0.0
C417 C 0.10236 0.58529 0.23611 0.0
O418 O 0.0872 0.57139 0.2146 0.0
C419 C 0.07824 0.60719 0.53096 0.0
Zn420 Zn 0.17117 0.31181 0.2532 0.0
Zn421 Zn 0.15962 0.33363 0.13942 0.0
O422 O 0.16181 0.30268 0.09235 0.0
O423 O 0.1796 0.28701 0.18577 0.0
O424 O 0.14757 0.35299 0.05638 0.0
O425 O 0.14274 0.312 0.30739 0.0
O426 O 0.13559 0.33669 0.22078 0.0
C427 C 0.17219 0.28638 0.11916 0.0
C428 C 0.2 0.34651 0.23224 0.0
O429 O 0.18983 0.34717 0.16922 0.0
O430 O 0.19347 0.33376 0.28356 0.0
C431 C 0.15178 0.35083 0.98649 0.0
O432 O 0.1655 0.33554 0.96483 0.0
C433 C 0.13037 0.32672 0.28144 0.0
Zn434 Zn 0.4226 0.42245 0.01182 0.0
Zn435 Zn 0.40238 0.4092 0.89772 0.0
O436 O 0.43357 0.4123 0.85311 0.0
O437 O 0.44741 0.43185 0.94567 0.0
O438 O 0.38396 0.39594 0.81446 0.0
O439 O 0.42376 0.39441 0.06807 0.0
O440 O 0.39995 0.38552 0.98039 0.0
C441 C 0.44908 0.4238 0.88018 0.0
C442 C 0.38703 0.44954 0.98598 0.0
O443 O 0.38753 0.43902 0.92367 0.0
O444 O 0.39936 0.44371 0.03954 0.0
C445 C 0.38508 0.40101 0.74499 0.0
O446 O 0.39875 0.41639 0.72364 0.0
C447 C 0.40987 0.38115 0.04193 0.0
C448 C 0.25172 0.12659 0.32481 0.0
C449 C 0.26574 0.12872 0.26264 0.0
H450 H 0.21854 0.12746 0.3629 0.0
C451 C 0.25697 0.12686 0.18941 0.0
H452 H 0.25801 0.12772 0.38184 0.0
C453 C 0.23433 0.12667 0.17843 0.0
C454 C 0.22028 0.12848 0.24065 0.0
H455 H 0.2675 0.12802 0.14038 0.0
H456 H 0.22803 0.12787 0.12142 0.0
C457 C 0.22908 0.12654 0.31383 0.0
C458 C 0.11116 0.97792 0.56731 0.0
C459 C 0.1091 0.96846 0.49518 0.0
H460 H 0.11008 0.00744 0.63194 0.0
C461 C 0.11117 0.98185 0.43139 0.0
H462 H 0.11009 0.96788 0.61756 0.0
C463 C 0.11116 0.00456 0.43975 0.0
C464 C 0.10918 0.01402 0.51189 0.0
H465 H 0.10994 0.97504 0.37512 0.0
H466 H 0.1101 0.01459 0.3895 0.0
C467 C 0.11125 0.00062 0.57566 0.0
C468 C 0.23351 0.85922 0.82402 0.0
C469 C 0.21938 0.85704 0.76214 0.0
H470 H 0.26675 0.85839 0.8615 0.0
C471 C 0.22803 0.85894 0.68874 0.0
H472 H 0.22732 0.8581 0.88119 0.0
C473 C 0.25066 0.85912 0.67733 0.0
C474 C 0.2648 0.8573 0.73929 0.0
H475 H 0.21742 0.85777 0.63989 0.0
H476 H 0.25685 0.85789 0.62021 0.0
C477 C 0.25613 0.8593 0.81262 0.0
C478 C 0.37572 0.00143 0.92825 0.0
C479 C 0.37781 0.01488 0.99187 0.0
H480 H 0.37673 0.96865 0.88671 0.0
C481 C 0.37583 0.00549 0.06412 0.0
H482 H 0.3769 0.0082 0.8719 0.0
C483 C 0.37571 0.9828 0.07273 0.0
C484 C 0.37769 0.96934 0.00909 0.0
H485 H 0.37692 0.01558 0.11425 0.0
H486 H 0.37689 0.97603 0.12908 0.0
C487 C 0.37571 0.97874 0.93685 0.0
C488 C 0.75734 0.85861 0.6916 0.0
C489 C 0.76598 0.85663 0.765 0.0
H490 H 0.72855 0.85759 0.62285 0.0
C491 C 0.75181 0.85848 0.82686 0.0
H492 H 0.76799 0.85767 0.6428 0.0
C493 C 0.72919 0.85841 0.81531 0.0
C494 C 0.72055 0.85662 0.74185 0.0
H495 H 0.75798 0.85725 0.88403 0.0
H496 H 0.71855 0.8573 0.86408 0.0
C497 C 0.73472 0.85867 0.68005 0.0
C498 C 0.87537 0.98382 0.43024 0.0
C499 C 0.87717 0.97043 0.49412 0.0
H500 H 0.8768 0.01654 0.3883 0.0
C501 C 0.87499 0.97992 0.56616 0.0
H502 H 0.8767 0.97698 0.37404 0.0
C503 C 0.87506 0.00262 0.57446 0.0
C504 C 0.8774 0.01599 0.51073 0.0
H505 H 0.87585 0.96988 0.61645 0.0
H506 H 0.87612 0.00944 0.63077 0.0
C507 C 0.87553 0.00653 0.43855 0.0
C508 C 0.72977 0.12628 0.18939 0.0
C509 C 0.72093 0.12813 0.26252 0.0
H510 H 0.75875 0.12745 0.12172 0.0
C511 C 0.7349 0.12601 0.32483 0.0
H512 H 0.71927 0.12742 0.14024 0.0
C513 C 0.75756 0.12606 0.3141 0.0
C514 C 0.7664 0.1281 0.24103 0.0
H515 H 0.72857 0.12712 0.3818 0.0
H516 H 0.76805 0.12703 0.36329 0.0
C517 C 0.75242 0.1262 0.17866 0.0
C518 C 0.61001 0.0074 0.06761 0.0
C519 C 0.60833 0.01673 0.99517 0.0
H520 H 0.6087 0.97798 0.13278 0.0
C521 C 0.61074 0.00323 0.9318 0.0
H522 H 0.60868 0.01752 0.11758 0.0
C523 C 0.61075 0.98054 0.94062 0.0
C524 C 0.60848 0.97119 0.01284 0.0
H525 H 0.6098 0.00995 0.87532 0.0
H526 H 0.60998 0.97041 0.89054 0.0
C527 C 0.61014 0.98471 0.07644 0.0
C528 C 0.72854 0.62682 0.81249 0.0
C529 C 0.71952 0.62856 0.73957 0.0
H530 H 0.75772 0.62794 0.87922 0.0
C531 C 0.73332 0.62623 0.67689 0.0
H532 H 0.71819 0.62812 0.86192 0.0
C533 C 0.756 0.62615 0.68692 0.0
C534 C 0.76505 0.62825 0.75967 0.0
H535 H 0.72684 0.62723 0.62008 0.0
H536 H 0.76637 0.62696 0.63741 0.0
C537 C 0.75122 0.62659 0.82252 0.0
C538 C 0.61241 0.47882 0.06908 0.0
C539 C 0.61024 0.46912 0.99739 0.0
H540 H 0.61137 0.50856 0.13247 0.0
C541 C 0.61235 0.48228 0.93302 0.0
H542 H 0.61134 0.46897 0.11976 0.0
C543 C 0.61237 0.50501 0.94041 0.0
C544 C 0.61037 0.51472 0.01215 0.0
H545 H 0.61107 0.47527 0.87705 0.0
H546 H 0.61128 0.51487 0.88973 0.0
C547 C 0.61252 0.50155 0.07647 0.0
C548 C 0.72856 0.35914 0.19382 0.0
C549 C 0.71978 0.3574 0.2671 0.0
H550 H 0.75748 0.35784 0.12584 0.0
C551 C 0.73383 0.35959 0.3292 0.0
H552 H 0.71801 0.35796 0.14481 0.0
C553 C 0.75647 0.35951 0.31819 0.0
C554 C 0.76524 0.35738 0.24506 0.0
H555 H 0.72756 0.35859 0.38628 0.0
H556 H 0.76702 0.3586 0.36726 0.0
C557 C 0.7512 0.35919 0.18282 0.0
C558 C 0.87753 0.47854 0.43916 0.0
C559 C 0.87949 0.46977 0.51236 0.0
H560 H 0.87861 0.50741 0.37106 0.0
C561 C 0.87764 0.48381 0.57455 0.0
H562 H 0.87848 0.468 0.39012 0.0
C563 C 0.87774 0.50642 0.56351 0.0
C564 C 0.87956 0.51517 0.49025 0.0
H565 H 0.87885 0.47753 0.63156 0.0
H566 H 0.87885 0.51695 0.61253 0.0
C567 C 0.8775 0.50115 0.42812 0.0
C568 C 0.25854 0.3582 0.19073 0.0
C569 C 0.26729 0.35652 0.26405 0.0
H570 H 0.22963 0.3569 0.12262 0.0
C571 C 0.25323 0.35866 0.3261 0.0
H572 H 0.2691 0.35704 0.14177 0.0
C573 C 0.23059 0.35855 0.315 0.0
C574 C 0.22184 0.35645 0.24182 0.0
H575 H 0.25949 0.35767 0.38319 0.0
H576 H 0.22003 0.35764 0.36402 0.0
C577 C 0.2359 0.35824 0.17963 0.0
C578 C 0.37536 0.50726 0.9354 0.0
C579 C 0.3771 0.51685 0.00743 0.0
H580 H 0.37659 0.4776 0.87161 0.0
C581 C 0.37444 0.50362 0.07137 0.0
H582 H 0.37684 0.51717 0.88498 0.0
C583 C 0.37426 0.4809 0.06359 0.0
C584 C 0.37666 0.47127 0.99187 0.0
H585 H 0.37536 0.51053 0.12755 0.0
H586 H 0.37491 0.47096 0.11416 0.0
C587 C 0.3751 0.48454 0.92762 0.0
C588 C 0.2544 0.62512 0.67819 0.0
C589 C 0.26826 0.6275 0.74071 0.0
H590 H 0.22131 0.62583 0.63909 0.0
C591 C 0.25932 0.62568 0.81372 0.0
H592 H 0.26081 0.62616 0.62131 0.0
C593 C 0.23665 0.62546 0.82402 0.0
C594 C 0.22276 0.62715 0.76133 0.0
H595 H 0.26972 0.627 0.86305 0.0
H596 H 0.23021 0.62679 0.8808 0.0
C597 C 0.23173 0.62501 0.68849 0.0
C598 C 0.10987 0.47929 0.43902 0.0
C599 C 0.10785 0.47031 0.51188 0.0
H600 H 0.10883 0.50836 0.37197 0.0
C601 C 0.10968 0.48415 0.57459 0.0
H602 H 0.10893 0.4689 0.38961 0.0
C603 C 0.10957 0.50679 0.56438 0.0
C604 C 0.10778 0.51576 0.49143 0.0
H605 H 0.10842 0.4777 0.63137 0.0
H606 H 0.10841 0.51717 0.61376 0.0
C607 C 0.1099 0.50193 0.42881 0.0
C608 C 0.14219 0.12414 0.84942 0.0
C609 C 0.13893 0.12073 0.92706 0.0
H610 H 0.13309 0.11537 0.73676 0.0
C611 C 0.12394 0.10458 0.95004 0.0
H612 H 0.15363 0.1364 0.82967 0.0
C613 C 0.11215 0.0925 0.8967 0.0
C614 C 0.11504 0.09627 0.81908 0.0
H615 H 0.12103 0.10148 0.00938 0.0
H616 H 0.1005 0.08044 0.91645 0.0
C617 C 0.13039 0.11207 0.79608 0.0
C618 C 0.14081 0.85799 0.15729 0.0
C619 C 0.13835 0.86227 0.07981 0.0
H620 H 0.13117 0.8661 0.27 0.0
C621 C 0.12427 0.87926 0.05729 0.0
H622 H 0.15152 0.84505 0.1767 0.0
C623 C 0.11258 0.89136 0.11087 0.0
C624 C 0.11468 0.88676 0.18826 0.0
H625 H 0.122 0.88305 0.99809 0.0
H626 H 0.10166 0.90412 0.09144 0.0
C627 C 0.12911 0.87007 0.21085 0.0
C628 C 0.37272 0.89239 0.39351 0.0
C629 C 0.37063 0.88784 0.31609 0.0
H630 H 0.36315 0.88413 0.50618 0.0
C631 C 0.356 0.87134 0.2933 0.0
H632 H 0.38379 0.90501 0.41309 0.0
C633 C 0.34413 0.85937 0.34671 0.0
C634 C 0.34661 0.86359 0.42423 0.0
H635 H 0.35393 0.86742 0.23413 0.0
H636 H 0.33328 0.84657 0.32716 0.0
C637 C 0.36086 0.88041 0.44695 0.0
C638 C 0.35586 0.11255 0.70729 0.0
C639 C 0.3711 0.09663 0.68444 0.0
H640 H 0.33267 0.13689 0.67348 0.0
C641 C 0.37382 0.09263 0.60689 0.0
H642 H 0.35329 0.11602 0.76657 0.0
C643 C 0.36199 0.10463 0.55344 0.0
C644 C 0.34712 0.12091 0.57626 0.0
H645 H 0.38537 0.08047 0.58726 0.0
H646 H 0.36477 0.10136 0.49413 0.0
C647 C 0.34401 0.12453 0.65385 0.0
C648 C 0.86122 0.88048 0.0587 0.0
C649 C 0.84736 0.86335 0.08149 0.0
H650 H 0.88362 0.90558 0.09241 0.0
C651 C 0.84504 0.85907 0.15903 0.0
H652 H 0.86337 0.88427 0.99945 0.0
C653 C 0.85669 0.87129 0.21237 0.0
C654 C 0.87092 0.88811 0.18949 0.0
H655 H 0.83449 0.84603 0.17865 0.0
H656 H 0.85474 0.86732 0.27155 0.0
C657 C 0.87286 0.89272 0.11205 0.0
C658 C 0.86281 0.10557 0.95039 0.0
C659 C 0.84793 0.12184 0.92758 0.0
H660 H 0.88619 0.08141 0.91655 0.0
C661 C 0.84483 0.12549 0.84998 0.0
H662 H 0.86558 0.10229 0.00968 0.0
C663 C 0.85669 0.11351 0.79653 0.0
C664 C 0.87191 0.09758 0.81937 0.0
H665 H 0.83349 0.13784 0.83036 0.0
H666 H 0.85411 0.11699 0.73726 0.0
C667 C 0.87465 0.09358 0.89693 0.0
C668 C 0.63055 0.11349 0.7074 0.0
C669 C 0.61515 0.09769 0.68479 0.0
H670 H 0.65398 0.13755 0.67324 0.0
C671 C 0.61238 0.09362 0.60729 0.0
H672 H 0.63316 0.11701 0.76663 0.0
C673 C 0.62433 0.10544 0.55366 0.0
C674 C 0.63937 0.12159 0.57624 0.0
H675 H 0.60071 0.08155 0.58784 0.0
H676 H 0.62152 0.10212 0.4944 0.0
C677 C 0.64252 0.12528 0.65379 0.0
C678 C 0.6418 0.8606 0.34872 0.0
C679 C 0.6391 0.86453 0.42633 0.0
H680 H 0.63225 0.86899 0.23616 0.0
C681 C 0.62471 0.88121 0.44927 0.0
H682 H 0.65276 0.84792 0.32899 0.0
C683 C 0.61293 0.89333 0.39596 0.0
C684 C 0.61524 0.88904 0.31842 0.0
H685 H 0.62226 0.88472 0.50858 0.0
H686 H 0.60176 0.90582 0.4157 0.0
C687 C 0.63001 0.8727 0.29543 0.0
C688 C 0.64167 0.62485 0.34886 0.0
C689 C 0.63846 0.62127 0.42642 0.0
H690 H 0.63263 0.61617 0.23607 0.0
C691 C 0.62364 0.60494 0.44915 0.0
H692 H 0.65297 0.63726 0.32931 0.0
C693 C 0.61197 0.59281 0.39562 0.0
C694 C 0.61481 0.59674 0.31808 0.0
H695 H 0.6208 0.6017 0.50844 0.0
H696 H 0.60047 0.58059 0.41516 0.0
C697 C 0.62998 0.61275 0.29534 0.0
C698 C 0.62873 0.37009 0.71607 0.0
C699 C 0.6152 0.38755 0.69378 0.0
H700 H 0.65028 0.34438 0.68158 0.0
C701 C 0.61385 0.39279 0.61668 0.0
H702 H 0.63021 0.36563 0.77499 0.0
C703 C 0.62538 0.38057 0.56301 0.0
C704 C 0.63855 0.36283 0.58519 0.0
H705 H 0.60363 0.40615 0.5975 0.0
H706 H 0.6237 0.38486 0.504 0.0
C707 C 0.64027 0.3579 0.66244 0.0
C708 C 0.87492 0.39192 0.90348 0.0
C709 C 0.87155 0.38858 0.82584 0.0
H710 H 0.86612 0.38287 0.01618 0.0
C711 C 0.85543 0.37356 0.80291 0.0
H712 H 0.88716 0.40338 0.92319 0.0
C713 C 0.84334 0.36179 0.85629 0.0
C714 C 0.84708 0.36474 0.93391 0.0
H715 H 0.85235 0.37061 0.74358 0.0
H716 H 0.8313 0.35011 0.83656 0.0
C717 C 0.86284 0.38014 0.95686 0.0
C718 C 0.85498 0.61061 0.19823 0.0
C719 C 0.87175 0.59629 0.17541 0.0
H720 H 0.83026 0.63341 0.16448 0.0
C721 C 0.87568 0.59355 0.09783 0.0
H722 H 0.85145 0.61308 0.25751 0.0
C723 C 0.86352 0.60524 0.04442 0.0
C724 C 0.84711 0.61995 0.06731 0.0
H725 H 0.88843 0.58264 0.0782 0.0
H726 H 0.86725 0.60298 0.98518 0.0
C727 C 0.8428 0.62228 0.14482 0.0
C728 C 0.34599 0.35983 0.65797 0.0
C729 C 0.34845 0.364 0.58043 0.0
H730 H 0.35552 0.3682 0.77055 0.0
C731 C 0.36242 0.38106 0.55763 0.0
H732 H 0.33537 0.34685 0.67758 0.0
C733 C 0.37399 0.39334 0.61103 0.0
C734 C 0.3719 0.38884 0.68849 0.0
H735 H 0.36468 0.38476 0.49837 0.0
H736 H 0.38483 0.40614 0.59141 0.0
C737 C 0.35758 0.37209 0.71134 0.0
C738 C 0.36409 0.60589 0.44821 0.0
C739 C 0.34905 0.62207 0.42585 0.0
H740 H 0.38752 0.58186 0.41367 0.0
C741 C 0.34574 0.6257 0.34836 0.0
H742 H 0.36702 0.60262 0.50743 0.0
C743 C 0.35753 0.61381 0.29456 0.0
C744 C 0.3729 0.59795 0.31694 0.0
H745 H 0.33427 0.638 0.32909 0.0
H746 H 0.35478 0.61727 0.23537 0.0
C747 C 0.37586 0.59397 0.3944 0.0
C748 C 0.12517 0.60479 0.04847 0.0
C749 C 0.14065 0.62047 0.07136 0.0
H750 H 0.10105 0.58135 0.08222 0.0
C751 C 0.1441 0.62375 0.14897 0.0
H752 H 0.12212 0.60179 0.98915 0.0
C753 C 0.13199 0.61203 0.20239 0.0
C754 C 0.11614 0.59672 0.17949 0.0
H755 H 0.15592 0.63566 0.16864 0.0
H756 H 0.13484 0.61524 0.26169 0.0
C757 C 0.11307 0.59304 0.10189 0.0
C758 C 0.13161 0.37313 0.79894 0.0
C759 C 0.11601 0.38867 0.82195 0.0
H760 H 0.15517 0.34911 0.83252 0.0
C761 C 0.11302 0.39236 0.89958 0.0
H762 H 0.13439 0.3699 0.73961 0.0
C763 C 0.12495 0.38041 0.95291 0.0
C764 C 0.14018 0.36449 0.92992 0.0
H765 H 0.10119 0.40423 0.91934 0.0
H766 H 0.12196 0.38343 0.01225 0.0
C767 C 0.14356 0.3612 0.85228 0.0
C768 C 0.15392 0.25419 0.06211 0.0
C769 C 0.17337 0.26534 0.07965 0.0
H770 H 0.13805 0.22291 0.05878 0.0
C771 C 0.19305 0.25363 0.08387 0.0
H772 H 0.13853 0.26294 0.05931 0.0
C773 C 0.19279 0.23087 0.0835 0.0
C774 C 0.17283 0.21964 0.07896 0.0
H775 H 0.20823 0.26194 0.09735 0.0
H776 H 0.20776 0.22218 0.09676 0.0
C777 C 0.15365 0.23128 0.06177 0.0
C778 C 0.98185 0.94315 0.34688 0.0
C779 C 0.97013 0.92353 0.34074 0.0
H780 H 0.01332 0.95776 0.36128 0.0
C781 C 0.98132 0.90425 0.32167 0.0
H782 H 0.97351 0.95821 0.36135 0.0
C783 C 0.00427 0.90399 0.32163 0.0
C784 C 0.0159 0.923 0.34064 0.0
H785 H 0.97256 0.8889 0.31723 0.0
H786 H 0.01266 0.88844 0.31718 0.0
C787 C 0.00464 0.94289 0.34682 0.0
C788 C 0.29246 0.75365 0.58475 0.0
C789 C 0.31198 0.76554 0.57801 0.0
H790 H 0.27819 0.72211 0.60023 0.0
C791 C 0.33136 0.75453 0.55868 0.0
H792 H 0.27733 0.76186 0.59948 0.0
C793 C 0.33186 0.73162 0.55911 0.0
C794 C 0.31297 0.71985 0.57883 0.0
H795 H 0.34664 0.76342 0.55381 0.0
H796 H 0.3475 0.72339 0.55456 0.0
C797 C 0.29295 0.73091 0.58517 0.0
C798 C 0.48147 0.08179 0.81796 0.0
C799 C 0.47031 0.06242 0.8362 0.0
H800 H 0.51277 0.09769 0.81449 0.0
C801 C 0.48208 0.04281 0.84172 0.0
H802 H 0.47268 0.09712 0.81407 0.0
C803 C 0.50486 0.04313 0.84192 0.0
C804 C 0.51608 0.06306 0.83661 0.0
H805 H 0.47376 0.02769 0.85563 0.0
H806 H 0.51358 0.02825 0.85602 0.0
C807 C 0.50442 0.08211 0.81818 0.0
C808 C 0.15553 0.75287 0.94214 0.0
C809 C 0.17447 0.7647 0.92343 0.0
H810 H 0.14067 0.72109 0.94534 0.0
C811 C 0.19447 0.75363 0.91663 0.0
H812 H 0.1399 0.76112 0.94699 0.0
C813 C 0.1949 0.73088 0.91558 0.0
C814 C 0.17535 0.719 0.92139 0.0
H815 H 0.20926 0.76248 0.90229 0.0
H816 H 0.21004 0.72273 0.90055 0.0
C817 C 0.15598 0.72996 0.94116 0.0
C818 C 0.48124 0.94266 0.16019 0.0
C819 C 0.47004 0.92271 0.16519 0.0
H820 H 0.51232 0.95817 0.14713 0.0
C821 C 0.48172 0.90366 0.18354 0.0
H822 H 0.47251 0.95754 0.14617 0.0
C823 C 0.50467 0.90402 0.18411 0.0
C824 C 0.51582 0.92343 0.16627 0.0
H825 H 0.47338 0.88807 0.187 0.0
H826 H 0.51347 0.88869 0.18798 0.0
C827 C 0.50402 0.94302 0.16076 0.0
C828 C 0.29426 0.23155 0.42175 0.0
C829 C 0.31393 0.21982 0.42629 0.0
H830 H 0.27962 0.26301 0.40869 0.0
C831 C 0.33336 0.23094 0.44427 0.0
H832 H 0.27911 0.22325 0.40793 0.0
C833 C 0.33365 0.25385 0.44468 0.0
C834 C 0.31452 0.26551 0.42717 0.0
H835 H 0.34874 0.22217 0.44732 0.0
H836 H 0.34926 0.2622 0.44801 0.0
C837 C 0.29456 0.2543 0.42222 0.0
C838 C 0.98176 0.04167 0.65965 0.0
C839 C 0.97051 0.06157 0.66595 0.0
H840 H 0.01287 0.02631 0.64517 0.0
C841 C 0.98217 0.08056 0.68509 0.0
H842 H 0.97305 0.02683 0.64506 0.0
C843 C 0.00512 0.08027 0.68516 0.0
C844 C 0.0163 0.06098 0.66605 0.0
H845 H 0.97379 0.09611 0.6896 0.0
H846 H 0.01389 0.0956 0.68973 0.0
C847 C 0.00454 0.04138 0.65971 0.0
C848 C 0.79331 0.73088 0.91769 0.0
C849 C 0.8131 0.71933 0.92146 0.0
H850 H 0.77831 0.76225 0.90678 0.0
C851 C 0.83241 0.73056 0.94011 0.0
H852 H 0.77823 0.7225 0.90343 0.0
C853 C 0.83246 0.75347 0.94205 0.0
C854 C 0.8132 0.76502 0.92533 0.0
H855 H 0.84788 0.72194 0.94264 0.0
H856 H 0.84798 0.76197 0.94589 0.0
C857 C 0.79335 0.75363 0.91969 0.0
C858 C 0.65509 0.23092 0.44584 0.0
C859 C 0.67433 0.21975 0.42595 0.0
H860 H 0.63939 0.26226 0.45185 0.0
C861 C 0.69402 0.2314 0.42011 0.0
H862 H 0.63969 0.22223 0.45004 0.0
C863 C 0.69385 0.25414 0.42122 0.0
C864 C 0.67399 0.26545 0.42812 0.0
H865 H 0.70904 0.22306 0.40496 0.0
H866 H 0.70875 0.26282 0.40682 0.0
C867 C 0.65492 0.25384 0.44692 0.0
C868 C 0.79289 0.25423 0.08764 0.0
C869 C 0.81262 0.26584 0.08281 0.0
H870 H 0.77805 0.22284 0.1005 0.0
C871 C 0.83194 0.25461 0.06421 0.0
H872 H 0.77781 0.2626 0.10186 0.0
C873 C 0.83208 0.2317 0.06342 0.0
C874 C 0.8129 0.22013 0.08123 0.0
H875 H 0.84737 0.26328 0.06087 0.0
H876 H 0.84762 0.22325 0.05953 0.0
C877 C 0.79302 0.23148 0.08683 0.0
C878 C 0.65297 0.73156 0.56029 0.0
C879 C 0.67218 0.72005 0.57803 0.0
H880 H 0.63766 0.76312 0.55699 0.0
C881 C 0.69207 0.73141 0.58269 0.0
H882 H 0.63742 0.72308 0.55717 0.0
C883 C 0.69221 0.75416 0.58255 0.0
C884 C 0.67246 0.76575 0.5778 0.0
H885 H 0.70707 0.72282 0.59634 0.0
H886 H 0.70732 0.76258 0.59614 0.0
C887 C 0.65311 0.75447 0.56017 0.0
C888 C 0.50472 0.4057 0.82478 0.0
C889 C 0.51635 0.42458 0.84536 0.0
H890 H 0.47299 0.39075 0.818 0.0
C891 C 0.50512 0.44447 0.85222 0.0
H892 H 0.51308 0.39015 0.81969 0.0
C893 C 0.48234 0.44482 0.85121 0.0
C894 C 0.47057 0.42527 0.84342 0.0
H895 H 0.51381 0.45924 0.86777 0.0
H896 H 0.474 0.45985 0.86604 0.0
C897 C 0.48177 0.40604 0.82378 0.0
C898 C 0.98213 0.58279 0.31145 0.0
C899 C 0.97082 0.56342 0.32839 0.0
H900 H 0.01355 0.59849 0.30944 0.0
C901 C 0.98244 0.5437 0.33298 0.0
H902 H 0.97346 0.59821 0.30842 0.0
C903 C 0.00523 0.54386 0.33357 0.0
C904 C 0.01659 0.56374 0.32955 0.0
H905 H 0.974 0.52859 0.34605 0.0
H906 H 0.01382 0.52886 0.34707 0.0
C907 C 0.00508 0.58295 0.31204 0.0
C908 C 0.98223 0.44177 0.66942 0.0
C909 C 0.9708 0.42195 0.67389 0.0
H910 H 0.01347 0.45692 0.65539 0.0
C911 C 0.98229 0.40268 0.69075 0.0
H912 H 0.97365 0.45681 0.65642 0.0
C913 C 0.00524 0.40274 0.69017 0.0
C914 C 0.01657 0.42206 0.67271 0.0
H915 H 0.97376 0.38718 0.69369 0.0
H916 H 0.01386 0.38727 0.69272 0.0
C917 C 0.00502 0.44183 0.66881 0.0
C918 C 0.48246 0.57982 0.18341 0.0
C919 C 0.47081 0.56096 0.16263 0.0
H920 H 0.51417 0.5948 0.18973 0.0
C921 C 0.48206 0.5411 0.15503 0.0
H922 H 0.47408 0.59534 0.18906 0.0
C923 C 0.50484 0.54079 0.15541 0.0
C924 C 0.51659 0.56034 0.16336 0.0
H925 H 0.47336 0.52634 0.1393 0.0
H926 H 0.51317 0.5258 0.13997 0.0
C927 C 0.5054 0.57951 0.1838 0.0
C928 C 0.09544 0.13501 0.2936 0.0
C929 C 0.11075 0.14947 0.32498 0.0
H930 H 0.07214 0.10975 0.31466 0.0
C931 C 0.1113 0.15239 0.40368 0.0
H932 H 0.0945 0.13267 0.23308 0.0
C933 C 0.09882 0.13899 0.45051 0.0
C934 C 0.08529 0.12284 0.41918 0.0
H935 H 0.12284 0.16356 0.4295 0.0
H936 H 0.10093 0.14022 0.51107 0.0
C937 C 0.08261 0.12193 0.34043 0.0
C938 C 0.09755 0.84379 0.55702 0.0
C939 C 0.08412 0.86003 0.5882 0.0
H940 H 0.12171 0.81936 0.57809 0.0
C941 C 0.08164 0.86116 0.66699 0.0
H942 H 0.0995 0.84238 0.49644 0.0
C943 C 0.09465 0.84827 0.71387 0.0
C944 C 0.10995 0.83379 0.68249 0.0
H945 H 0.07124 0.87342 0.69266 0.0
H946 H 0.09391 0.85084 0.77432 0.0
C947 C 0.11022 0.83057 0.60392 0.0
C948 C 0.38693 0.84474 0.94751 0.0
C949 C 0.40071 0.86069 0.91636 0.0
H950 H 0.36232 0.82075 0.92636 0.0
C951 C 0.4032 0.86179 0.83757 0.0
H952 H 0.38494 0.84337 0.00809 0.0
C953 C 0.38996 0.84915 0.79066 0.0
C954 C 0.37442 0.83493 0.822 0.0
H955 H 0.41385 0.87384 0.81192 0.0
H956 H 0.39079 0.85167 0.73021 0.0
C957 C 0.37402 0.83176 0.90058 0.0
C958 C 0.38729 0.13975 0.05289 0.0
C959 C 0.40099 0.12373 0.08409 0.0
H960 H 0.36301 0.16406 0.0741 0.0
C961 C 0.40367 0.12278 0.16283 0.0
H962 H 0.38516 0.141 0.99234 0.0
C963 C 0.39071 0.13569 0.20976 0.0
C964 C 0.37525 0.15002 0.17849 0.0
H965 H 0.41427 0.11069 0.18851 0.0
H966 H 0.39167 0.13332 0.27027 0.0
C967 C 0.37466 0.15299 0.09983 0.0
C968 C 0.88815 0.84563 0.55859 0.0
C969 C 0.90142 0.862 0.58979 0.0
H970 H 0.86424 0.82095 0.57958 0.0
C971 C 0.90378 0.86324 0.6686 0.0
H972 H 0.88629 0.84414 0.49799 0.0
C973 C 0.89086 0.85025 0.71544 0.0
C974 C 0.87577 0.83556 0.68401 0.0
H975 H 0.91405 0.87562 0.69426 0.0
H976 H 0.89154 0.85285 0.77587 0.0
C977 C 0.87558 0.83232 0.60545 0.0
C978 C 0.89134 0.13659 0.29429 0.0
C979 C 0.8758 0.15079 0.32569 0.0
H980 H 0.91504 0.1117 0.31532 0.0
C981 C 0.87528 0.15378 0.40435 0.0
H982 H 0.89227 0.13422 0.23378 0.0
C983 C 0.88801 0.14061 0.45119 0.0
C984 C 0.90174 0.12464 0.41987 0.0
H985 H 0.86358 0.16478 0.43018 0.0
H986 H 0.8859 0.14183 0.51175 0.0
C987 C 0.90441 0.12374 0.34111 0.0
C988 C 0.61221 0.15434 0.09972 0.0
C989 C 0.61157 0.15136 0.17837 0.0
H990 H 0.60151 0.14258 0.99217 0.0
C991 C 0.59578 0.13739 0.20956 0.0
H992 H 0.62411 0.16516 0.07406 0.0
C993 C 0.58255 0.12477 0.16257 0.0
C994 C 0.58529 0.12564 0.08384 0.0
H995 H 0.59476 0.13503 0.27006 0.0
H996 H 0.5717 0.11289 0.18822 0.0
C997 C 0.59931 0.14139 0.05271 0.0
C998 C 0.59563 0.85061 0.79246 0.0
C999 C 0.61086 0.83606 0.82379 0.0
H1000 H 0.5723 0.87584 0.81368 0.0
C1001 C 0.61128 0.83298 0.90242 0.0
H1002 H 0.59479 0.85308 0.73198 0.0
C1003 C 0.59873 0.84629 0.94933 0.0
C1004 C 0.58525 0.86249 0.91813 0.0
H1005 H 0.62276 0.82173 0.92819 0.0
H1006 H 0.60073 0.84492 0.0099 0.0
C1007 C 0.58272 0.86359 0.83935 0.0
C1008 C 0.59815 0.63953 0.94955 0.0
C1009 C 0.58478 0.62326 0.91817 0.0
H1010 H 0.62202 0.66426 0.92864 0.0
C1011 C 0.58207 0.62238 0.83944 0.0
H1012 H 0.60027 0.64076 0.01012 0.0
C1013 C 0.5948 0.63556 0.79266 0.0
C1014 C 0.61005 0.65008 0.82409 0.0
H1015 H 0.57169 0.61012 0.81363 0.0
H1016 H 0.59388 0.63321 0.73213 0.0
C1017 C 0.61055 0.65302 0.90276 0.0
C1018 C 0.59482 0.34975 0.21983 0.0
C1019 C 0.60988 0.33504 0.18838 0.0
H1020 H 0.57161 0.37509 0.19864 0.0
C1021 C 0.60987 0.3316 0.10992 0.0
H1022 H 0.59429 0.35249 0.28022 0.0
C1023 C 0.59719 0.3448 0.06305 0.0
C1024 C 0.58403 0.36128 0.09418 0.0
H1025 H 0.62116 0.32019 0.08404 0.0
H1026 H 0.59894 0.34321 0.00246 0.0
C1027 C 0.5818 0.36265 0.17301 0.0
C1028 C 0.90352 0.36104 0.3487 0.0
C1029 C 0.90056 0.3604 0.42737 0.0
H1030 H 0.89155 0.35058 0.24112 0.0
C1031 C 0.88623 0.34494 0.45852 0.0
H1032 H 0.9146 0.37271 0.32306 0.0
C1033 C 0.87335 0.33197 0.41147 0.0
C1034 C 0.87431 0.33467 0.33274 0.0
H1035 H 0.88385 0.34394 0.51901 0.0
H1036 H 0.86126 0.32135 0.43706 0.0
C1037 C 0.8903 0.34842 0.30166 0.0
C1038 C 0.87282 0.65305 0.58934 0.0
C1039 C 0.87403 0.65059 0.66813 0.0
H1040 H 0.88312 0.64085 0.48188 0.0
C1041 C 0.89019 0.63703 0.69917 0.0
H1042 H 0.86059 0.66352 0.56381 0.0
C1043 C 0.90337 0.62437 0.65214 0.0
C1044 C 0.9002 0.62476 0.57355 0.0
H1045 H 0.89162 0.63506 0.75973 0.0
H1046 H 0.9146 0.61286 0.67785 0.0
C1047 C 0.88567 0.64004 0.54233 0.0
C1048 C 0.37682 0.33287 0.10477 0.0
C1049 C 0.37709 0.336 0.18338 0.0
H1050 H 0.38721 0.34501 0.99737 0.0
C1051 C 0.39204 0.35083 0.21484 0.0
H1052 H 0.36559 0.32141 0.07889 0.0
C1053 C 0.4047 0.36407 0.16804 0.0
C1054 C 0.40222 0.36294 0.08925 0.0
H1055 H 0.39276 0.35334 0.27531 0.0
H1056 H 0.41485 0.37653 0.19378 0.0
C1057 C 0.38915 0.34642 0.05796 0.0
C1058 C 0.40592 0.62447 0.83895 0.0
C1059 C 0.40316 0.62531 0.91767 0.0
H1060 H 0.39391 0.63501 0.73156 0.0
C1061 C 0.38953 0.64138 0.94893 0.0
H1062 H 0.4165 0.61237 0.81323 0.0
C1063 C 0.3769 0.65463 0.90202 0.0
C1064 C 0.37742 0.65162 0.82337 0.0
H1065 H 0.38736 0.64258 0.00947 0.0
H1066 H 0.36522 0.66566 0.9278 0.0
C1067 C 0.39296 0.63739 0.79206 0.0
C1068 C 0.11444 0.65319 0.59375 0.0
C1069 C 0.11359 0.65038 0.67245 0.0
H1070 H 0.10365 0.64147 0.48623 0.0
C1071 C 0.09753 0.63672 0.70362 0.0
H1072 H 0.12657 0.66375 0.56811 0.0
C1073 C 0.08412 0.62429 0.65664 0.0
C1074 C 0.08696 0.625 0.57793 0.0
H1075 H 0.09636 0.6345 0.76415 0.0
H1076 H 0.073 0.61267 0.68232 0.0
C1077 C 0.10135 0.6404 0.54675 0.0
C1078 C 0.09676 0.34928 0.29727 0.0
C1079 C 0.11244 0.33519 0.32846 0.0
H1080 H 0.07283 0.37393 0.3186 0.0
C1081 C 0.11318 0.33232 0.40716 0.0
H1082 H 0.09569 0.35158 0.23675 0.0
C1083 C 0.1004 0.3454 0.45415 0.0
C1084 C 0.0864 0.36116 0.42298 0.0
H1085 H 0.12501 0.32143 0.43282 0.0
H1086 H 0.10261 0.34423 0.51468 0.0
C1087 C 0.08364 0.36202 0.34425 0.0
loop_
_geom_bond_atom_site_label_1
_geom_bond_atom_site_label_2
_geom_bond_distance
_geom_bond_site_symmetry_2
_ccdc_geom_bond_type
Zn0 O3 2.031 . S
Zn0 O5 2.049 . S
Zn0 O10 2.067 . S
Zn1 O2 1.962 . S
Zn1 O4 1.986 . S
Zn1 O6 1.996 . S
Zn1 O9 1.943 . S
O2 Zn1 1.962 . S
O2 C7 1.254 . S
O3 Zn0 2.031 . S
O3 C7 1.269 . S
O4 Zn1 1.986 . S
O4 C11 1.262 . S
O5 Zn0 2.049 . S
O5 C13 1.260 . S
O6 Zn1 1.996 . S
O6 C13 1.257 . S
C7 O2 1.254 . S
C7 O3 1.269 . S
C8 O9 1.249 . S
C8 O10 1.270 . S
O9 Zn1 1.943 . S
O9 C8 1.249 . S
O10 Zn0 2.067 . S
O10 C8 1.270 . S
C11 O4 1.262 . S
C11 O12 1.232 1_554 S
O12 C11 1.232 1_556 S
C13 O5 1.260 . S
C13 O6 1.257 . S
Zn14 O17 2.031 . S
Zn14 O19 2.049 . S
Zn14 O24 2.067 . S
Zn15 O16 1.962 . S
Zn15 O18 1.986 . S
Zn15 O20 1.996 . S
Zn15 O23 1.943 . S
O16 Zn15 1.962 . S
O16 C21 1.254 . S
O17 Zn14 2.031 . S
O17 C21 1.269 . S
O18 Zn15 1.986 . S
O18 C25 1.262 . S
O19 Zn14 2.049 . S
O19 C27 1.260 . S
O20 Zn15 1.996 . S
O20 C27 1.257 . S
C21 O16 1.254 . S
C21 O17 1.269 . S
C22 O23 1.249 . S
C22 O24 1.270 . S
O23 Zn15 1.943 . S
O23 C22 1.249 . S
O24 Zn14 2.067 . S
O24 C22 1.270 . S
C25 O18 1.262 . S
C25 O26 1.232 . S
O26 C25 1.232 . S
C27 O19 1.260 . S
C27 O20 1.257 . S
Zn28 O31 2.031 . S
Zn28 O33 2.049 . S
Zn28 O38 2.067 . S
Zn29 O30 1.962 . S
Zn29 O32 1.986 . S
Zn29 O34 1.996 . S
Zn29 O37 1.943 . S
O30 Zn29 1.962 . S
O30 C35 1.254 . S
O31 Zn28 2.031 . S
O31 C35 1.269 . S
O32 Zn29 1.986 . S
O32 C39 1.262 . S
O33 Zn28 2.049 . S
O33 C41 1.260 . S
O34 Zn29 1.996 . S
O34 C41 1.257 . S
C35 O30 1.254 . S
C35 O31 1.269 . S
C36 O37 1.249 . S
C36 O38 1.270 . S
O37 Zn29 1.943 . S
O37 C36 1.249 . S
O38 Zn28 2.067 . S
O38 C36 1.270 . S
C39 O32 1.262 . S
C39 O40 1.232 . S
O40 C39 1.232 . S
C41 O33 1.260 . S
C41 O34 1.257 . S
Zn42 O45 2.031 1_554 S
Zn42 O47 2.049 . S
Zn42 O52 2.067 . S
Zn43 O44 1.962 . S
Zn43 O46 1.986 . S
Zn43 O48 1.996 . S
Zn43 O51 1.943 . S
O44 Zn43 1.962 . S
O44 C49 1.254 . S
O45 Zn42 2.031 1_556 S
O45 C49 1.269 . S
O46 Zn43 1.986 . S
O46 C53 1.262 . S
O47 Zn42 2.049 . S
O47 C55 1.260 . S
O48 Zn43 1.996 . S
O48 C55 1.257 1_556 S
C49 O44 1.254 . S
C49 O45 1.269 . S
C50 O51 1.249 . S
C50 O52 1.270 1_556 S
O51 Zn43 1.943 . S
O51 C50 1.249 . S
O52 Zn42 2.067 . S
O52 C50 1.270 1_554 S
C53 O46 1.262 . S
C53 O54 1.232 . S
O54 C53 1.232 . S
C55 O47 1.260 . S
C55 O48 1.257 1_554 S
Zn56 O59 2.031 . S
Zn56 O61 2.049 . S
Zn56 O66 2.067 . S
Zn57 O58 1.962 . S
Zn57 O60 1.986 . S
Zn57 O62 1.996 . S
Zn57 O65 1.943 . S
O58 Zn57 1.962 . S
O58 C63 1.254 . S
O59 Zn56 2.031 . S
O59 C63 1.269 . S
O60 Zn57 1.986 . S
O60 C67 1.262 . S
O61 Zn56 2.049 . S
O61 C69 1.260 . S
O62 Zn57 1.996 . S
O62 C69 1.257 . S
C63 O58 1.254 . S
C63 O59 1.269 . S
C64 O65 1.249 . S
C64 O66 1.270 . S
O65 Zn57 1.943 . S
O65 C64 1.249 . S
O66 Zn56 2.067 . S
O66 C64 1.270 . S
C67 O60 1.262 . S
C67 O68 1.232 1_556 S
O68 C67 1.232 1_554 S
C69 O61 1.260 . S
C69 O62 1.257 . S
Zn70 O73 2.031 1_556 S
Zn70 O75 2.049 . S
Zn70 O80 2.067 . S
Zn71 O72 1.962 . S
Zn71 O74 1.986 . S
Zn71 O76 1.996 . S
Zn71 O79 1.943 . S
O72 Zn71 1.962 . S
O72 C77 1.254 . S
O73 Zn70 2.031 1_554 S
O73 C77 1.269 . S
O74 Zn71 1.986 . S
O74 C81 1.262 . S
O75 Zn70 2.049 . S
O75 C83 1.260 . S
O76 Zn71 1.996 . S
O76 C83 1.257 1_554 S
C77 O72 1.254 . S
C77 O73 1.269 . S
C78 O79 1.249 . S
C78 O80 1.270 1_554 S
O79 Zn71 1.943 . S
O79 C78 1.249 . S
O80 Zn70 2.067 . S
O80 C78 1.270 1_556 S
C81 O74 1.262 . S
C81 O82 1.232 . S
O82 C81 1.232 . S
C83 O75 1.260 . S
C83 O76 1.257 1_556 S
Zn84 O87 2.031 . S
Zn84 O89 2.049 . S
Zn84 O94 2.067 . S
Zn85 O86 1.962 . S
Zn85 O88 1.986 . S
Zn85 O90 1.996 . S
Zn85 O93 1.943 . S
O86 Zn85 1.962 . S
O86 C91 1.254 . S
O87 Zn84 2.031 . S
O87 C91 1.269 . S
O88 Zn85 1.986 . S
O88 C95 1.262 . S
O89 Zn84 2.049 . S
O89 C97 1.260 . S
O90 Zn85 1.996 . S
O90 C97 1.257 . S
C91 O86 1.254 . S
C91 O87 1.269 . S
C92 O93 1.249 . S
C92 O94 1.270 . S
O93 Zn85 1.943 . S
O93 C92 1.249 . S
O94 Zn84 2.067 . S
O94 C92 1.270 . S
C95 O88 1.262 . S
C95 O96 1.232 . S
O96 C95 1.232 . S
C97 O89 1.260 . S
C97 O90 1.257 . S
Zn98 O101 2.031 . S
Zn98 O103 2.049 . S
Zn98 O108 2.067 . S
Zn99 O100 1.962 . S
Zn99 O102 1.986 . S
Zn99 O104 1.996 . S
Zn99 O107 1.943 . S
O100 Zn99 1.962 . S
O100 C105 1.254 . S
O101 Zn98 2.031 . S
O101 C105 1.269 . S
O102 Zn99 1.986 . S
O102 C109 1.262 . S
O103 Zn98 2.049 . S
O103 C111 1.260 . S
O104 Zn99 1.996 . S
O104 C111 1.257 . S
C105 O100 1.254 . S
C105 O101 1.269 . S
C106 O107 1.249 . S
C106 O108 1.270 . S
O107 Zn99 1.943 . S
O107 C106 1.249 . S
O108 Zn98 2.067 . S
O108 C106 1.270 . S
C109 O102 1.262 . S
C109 O110 1.232 . S
O110 C109 1.232 . S
C111 O103 1.260 . S
C111 O104 1.257 . S
Zn112 O115 2.031 . S
Zn112 O117 2.049 . S
Zn112 O122 2.067 . S
Zn113 O114 1.962 . S
Zn113 O116 1.986 . S
Zn113 O118 1.996 . S
Zn113 O121 1.943 . S
O114 Zn113 1.962 . S
O114 C119 1.254 . S
O115 Zn112 2.031 . S
O115 C119 1.269 . S
O116 Zn113 1.986 . S
O116 C123 1.262 . S
O117 Zn112 2.049 . S
O117 C125 1.260 . S
O118 Zn113 1.996 . S
O118 C125 1.257 . S
C119 O114 1.254 . S
C119 O115 1.269 . S
C120 O121 1.249 . S
C120 O122 1.270 . S
O121 Zn113 1.943 . S
O121 C120 1.249 . S
O122 Zn112 2.067 . S
O122 C120 1.270 . S
C123 O116 1.262 . S
C123 O124 1.232 1_556 S
O124 C123 1.232 1_554 S
C125 O117 1.260 . S
C125 O118 1.257 . S
Zn126 O129 2.031 . S
Zn126 O131 2.049 . S
Zn126 O136 2.067 . S
Zn127 O128 1.962 . S
Zn127 O130 1.986 . S
Zn127 O132 1.996 . S
Zn127 O135 1.943 . S
O128 Zn127 1.962 . S
O128 C133 1.254 . S
O129 Zn126 2.031 . S
O129 C133 1.269 . S
O130 Zn127 1.986 . S
O130 C137 1.262 . S
O131 Zn126 2.049 . S
O131 C139 1.260 . S
O132 Zn127 1.996 . S
O132 C139 1.257 . S
C133 O128 1.254 . S
C133 O129 1.269 . S
C134 O135 1.249 . S
C134 O136 1.270 . S
O135 Zn127 1.943 . S
O135 C134 1.249 . S
O136 Zn126 2.067 . S
O136 C134 1.270 . S
C137 O130 1.262 . S
C137 O138 1.232 . S
O138 C137 1.232 . S
C139 O131 1.260 . S
C139 O132 1.257 . S
Zn140 O143 2.031 . S
Zn140 O145 2.049 . S
Zn140 O150 2.067 . S
Zn141 O142 1.962 . S
Zn141 O144 1.986 . S
Zn141 O146 1.996 . S
Zn141 O149 1.943 . S
O142 Zn141 1.962 . S
O142 C147 1.254 . S
O143 Zn140 2.031 . S
O143 C147 1.269 . S
O144 Zn141 1.986 . S
O144 C151 1.262 . S
O145 Zn140 2.049 . S
O145 C153 1.260 . S
O146 Zn141 1.996 . S
O146 C153 1.257 . S
C147 O142 1.254 . S
C147 O143 1.269 . S
C148 O149 1.249 . S
C148 O150 1.270 . S
O149 Zn141 1.943 . S
O149 C148 1.249 . S
O150 Zn140 2.067 . S
O150 C148 1.270 . S
C151 O144 1.262 . S
C151 O152 1.232 . S
O152 C151 1.232 . S
C153 O145 1.260 . S
C153 O146 1.257 . S
Zn154 O157 2.031 1_556 S
Zn154 O159 2.049 . S
Zn154 O164 2.067 . S
Zn155 O156 1.962 . S
Zn155 O158 1.986 . S
Zn155 O160 1.996 . S
Zn155 O163 1.943 . S
O156 Zn155 1.962 . S
O156 C161 1.254 . S
O157 Zn154 2.031 1_554 S
O157 C161 1.269 . S
O158 Zn155 1.986 . S
O158 C165 1.262 . S
O159 Zn154 2.049 . S
O159 C167 1.260 . S
O160 Zn155 1.996 . S
O160 C167 1.257 1_554 S
C161 O156 1.254 . S
C161 O157 1.269 . S
C162 O163 1.249 . S
C162 O164 1.270 1_554 S
O163 Zn155 1.943 . S
O163 C162 1.249 . S
O164 Zn154 2.067 . S
O164 C162 1.270 1_556 S
C165 O158 1.262 . S
C165 O166 1.232 . S
O166 C165 1.232 . S
C167 O159 1.260 . S
C167 O160 1.257 1_556 S
Zn168 O171 2.031 . S
Zn168 O173 2.049 . S
Zn168 O178 2.067 . S
Zn169 O170 1.962 . S
Zn169 O172 1.986 . S
Zn169 O174 1.996 . S
Zn169 O177 1.943 . S
O170 Zn169 1.962 . S
O170 C175 1.254 . S
O171 Zn168 2.031 . S
O171 C175 1.269 . S
O172 Zn169 1.986 . S
O172 C179 1.262 . S
O173 Zn168 2.049 . S
O173 C181 1.260 . S
O174 Zn169 1.996 . S
O174 C181 1.257 . S
C175 O170 1.254 . S
C175 O171 1.269 . S
C176 O177 1.249 . S
C176 O178 1.270 . S
O177 Zn169 1.943 . S
O177 C176 1.249 . S
O178 Zn168 2.067 . S
O178 C176 1.270 . S
C179 O172 1.262 . S
C179 O180 1.232 1_554 S
O180 C179 1.232 1_556 S
C181 O173 1.260 . S
C181 O174 1.257 . S
Zn182 O185 2.031 1_554 S
Zn182 O187 2.049 . S
Zn182 O192 2.067 . S
Zn183 O184 1.962 . S
Zn183 O186 1.986 . S
Zn183 O188 1.996 . S
Zn183 O191 1.943 . S
O184 Zn183 1.962 . S
O184 C189 1.254 . S
O185 Zn182 2.031 1_556 S
O185 C189 1.269 . S
O186 Zn183 1.986 . S
O186 C193 1.262 . S
O187 Zn182 2.049 . S
O187 C195 1.260 . S
O188 Zn183 1.996 . S
O188 C195 1.257 1_556 S
C189 O184 1.254 . S
C189 O185 1.269 . S
C190 O191 1.249 . S
C190 O192 1.270 1_556 S
O191 Zn183 1.943 . S
O191 C190 1.249 . S
O192 Zn182 2.067 . S
O192 C190 1.270 1_554 S
C193 O186 1.262 . S
C193 O194 1.232 . S
O194 C193 1.232 . S
C195 O187 1.260 . S
C195 O188 1.257 1_554 S
Zn196 O199 2.031 . S
Zn196 O201 2.049 . S
Zn196 O206 2.067 . S
Zn197 O198 1.962 . S
Zn197 O200 1.986 . S
Zn197 O202 1.996 . S
Zn197 O205 1.943 . S
O198 Zn197 1.962 . S
O198 C203 1.254 . S
O199 Zn196 2.031 . S
O199 C203 1.269 . S
O200 Zn197 1.986 . S
O200 C207 1.262 . S
O201 Zn196 2.049 . S
O201 C209 1.260 . S
O202 Zn197 1.996 . S
O202 C209 1.257 . S
C203 O198 1.254 . S
C203 O199 1.269 . S
C204 O205 1.249 . S
C204 O206 1.270 . S
O205 Zn197 1.943 . S
O205 C204 1.249 . S
O206 Zn196 2.067 . S
O206 C204 1.270 . S
C207 O200 1.262 . S
C207 O208 1.232 . S
O208 C207 1.232 . S
C209 O201 1.260 . S
C209 O202 1.257 . S
Zn210 O213 2.031 . S
Zn210 O215 2.049 . S
Zn210 O220 2.067 . S
Zn211 O212 1.962 . S
Zn211 O214 1.986 . S
Zn211 O216 1.996 . S
Zn211 O219 1.943 . S
O212 Zn211 1.962 . S
O212 C217 1.254 . S
O213 Zn210 2.031 . S
O213 C217 1.269 . S
O214 Zn211 1.986 . S
O214 C221 1.262 . S
O215 Zn210 2.049 . S
O215 C223 1.260 . S
O216 Zn211 1.996 . S
O216 C223 1.257 . S
C217 O212 1.254 . S
C217 O213 1.269 . S
C218 O219 1.249 . S
C218 O220 1.270 . S
O219 Zn211 1.943 . S
O219 C218 1.249 . S
O220 Zn210 2.067 . S
O220 C218 1.270 . S
C221 O214 1.262 . S
C221 O222 1.232 . S
O222 C221 1.232 . S
C223 O215 1.260 . S
C223 O216 1.257 . S
Zn224 O227 2.031 . S
Zn224 O229 2.049 . S
Zn224 O234 2.067 . S
Zn225 O226 1.962 . S
Zn225 O228 1.986 . S
Zn225 O230 1.996 . S
Zn225 O233 1.943 . S
O226 Zn225 1.962 . S
O226 C231 1.254 . S
O227 Zn224 2.031 . S
O227 C231 1.269 . S
O228 Zn225 1.986 . S
O228 C235 1.262 . S
O229 Zn224 2.049 . S
O229 C237 1.260 . S
O230 Zn225 1.996 . S
O230 C237 1.257 . S
C231 O226 1.254 . S
C231 O227 1.269 . S
C232 O233 1.249 . S
C232 O234 1.270 . S
O233 Zn225 1.943 . S
O233 C232 1.249 . S
O234 Zn224 2.067 . S
O234 C232 1.270 . S
C235 O228 1.262 . S
C235 O236 1.232 . S
O236 C235 1.232 . S
C237 O229 1.260 . S
C237 O230 1.257 . S
Zn238 O241 2.031 1_554 S
Zn238 O243 2.049 . S
Zn238 O248 2.067 . S
Zn239 O240 1.962 . S
Zn239 O242 1.986 . S
Zn239 O244 1.996 . S
Zn239 O247 1.943 . S
O240 Zn239 1.962 . S
O240 C245 1.254 . S
O241 Zn238 2.031 1_556 S
O241 C245 1.269 . S
O242 Zn239 1.986 . S
O242 C249 1.262 . S
O243 Zn238 2.049 . S
O243 C251 1.260 . S
O244 Zn239 1.996 . S
O244 C251 1.257 1_556 S
C245 O240 1.254 . S
C245 O241 1.269 . S
C246 O247 1.249 . S
C246 O248 1.270 1_556 S
O247 Zn239 1.943 . S
O247 C246 1.249 . S
O248 Zn238 2.067 . S
O248 C246 1.270 1_554 S
C249 O242 1.262 . S
C249 O250 1.232 . S
O250 C249 1.232 . S
C251 O243 1.260 . S
C251 O244 1.257 1_554 S
Zn252 O255 2.031 . S
Zn252 O257 2.049 . S
Zn252 O262 2.067 . S
Zn253 O254 1.962 . S
Zn253 O256 1.986 . S
Zn253 O258 1.996 . S
Zn253 O261 1.943 . S
O254 Zn253 1.962 . S
O254 C259 1.254 . S
O255 Zn252 2.031 . S
O255 C259 1.269 . S
O256 Zn253 1.986 . S
O256 C263 1.262 . S
O257 Zn252 2.049 . S
O257 C265 1.260 . S
O258 Zn253 1.996 . S
O258 C265 1.257 . S
C259 O254 1.254 . S
C259 O255 1.269 . S
C260 O261 1.249 . S
C260 O262 1.270 . S
O261 Zn253 1.943 . S
O261 C260 1.249 . S
O262 Zn252 2.067 . S
O262 C260 1.270 . S
C263 O256 1.262 . S
C263 O264 1.232 1_554 S
O264 C263 1.232 1_556 S
C265 O257 1.260 . S
C265 O258 1.257 . S
Zn266 O269 2.031 . S
Zn266 O271 2.049 . S
Zn266 O276 2.067 . S
Zn267 O268 1.962 . S
Zn267 O270 1.986 . S
Zn267 O272 1.996 . S
Zn267 O275 1.943 . S
O268 Zn267 1.962 . S
O268 C273 1.254 . S
O269 Zn266 2.031 . S
O269 C273 1.269 . S
O270 Zn267 1.986 . S
O270 C277 1.262 . S
O271 Zn266 2.049 . S
O271 C279 1.260 . S
O272 Zn267 1.996 . S
O272 C279 1.257 . S
C273 O268 1.254 . S
C273 O269 1.269 . S
C274 O275 1.249 . S
C274 O276 1.270 . S
O275 Zn267 1.943 . S
O275 C274 1.249 . S
O276 Zn266 2.067 . S
O276 C274 1.270 . S
C277 O270 1.262 . S
C277 O278 1.232 . S
O278 C277 1.232 . S
C279 O271 1.260 . S
C279 O272 1.257 . S
Zn280 O283 2.031 . S
Zn280 O285 2.049 . S
Zn280 O290 2.067 . S
Zn281 O282 1.962 . S
Zn281 O284 1.986 . S
Zn281 O286 1.996 . S
Zn281 O289 1.943 . S
O282 Zn281 1.962 . S
O282 C287 1.254 . S
O283 Zn280 2.031 . S
O283 C287 1.269 . S
O284 Zn281 1.986 . S
O284 C291 1.262 . S
O285 Zn280 2.049 . S
O285 C293 1.260 . S
O286 Zn281 1.996 . S
O286 C293 1.257 . S
C287 O282 1.254 . S
C287 O283 1.269 . S
C288 O289 1.249 . S
C288 O290 1.270 . S
O289 Zn281 1.943 . S
O289 C288 1.249 . S
O290 Zn280 2.067 . S
O290 C288 1.270 . S
C291 O284 1.262 . S
C291 O292 1.232 . S
O292 C291 1.232 . S
C293 O285 1.260 . S
C293 O286 1.257 . S
Zn294 O297 2.031 . S
Zn294 O299 2.049 . S
Zn294 O304 2.067 . S
Zn295 O296 1.962 . S
Zn295 O298 1.986 . S
Zn295 O300 1.996 . S
Zn295 O303 1.943 . S
O296 Zn295 1.962 . S
O296 C301 1.254 . S
O297 Zn294 2.031 . S
O297 C301 1.269 . S
O298 Zn295 1.986 . S
O298 C305 1.262 . S
O299 Zn294 2.049 . S
O299 C307 1.260 . S
O300 Zn295 1.996 . S
O300 C307 1.257 . S
C301 O296 1.254 . S
C301 O297 1.269 . S
C302 O303 1.249 . S
C302 O304 1.270 . S
O303 Zn295 1.943 . S
O303 C302 1.249 . S
O304 Zn294 2.067 . S
O304 C302 1.270 . S
C305 O298 1.262 . S
C305 O306 1.232 . S
O306 C305 1.232 . S
C307 O299 1.260 . S
C307 O300 1.257 . S
Zn308 O311 2.031 . S
Zn308 O313 2.049 . S
Zn308 O318 2.067 . S
Zn309 O310 1.962 . S
Zn309 O312 1.986 . S
Zn309 O314 1.996 . S
Zn309 O317 1.943 . S
O310 Zn309 1.962 . S
O310 C315 1.254 . S
O311 Zn308 2.031 . S
O311 C315 1.269 . S
O312 Zn309 1.986 . S
O312 C319 1.262 . S
O313 Zn308 2.049 . S
O313 C321 1.260 . S
O314 Zn309 1.996 . S
O314 C321 1.257 . S
C315 O310 1.254 . S
C315 O311 1.269 . S
C316 O317 1.249 . S
C316 O318 1.270 . S
O317 Zn309 1.943 . S
O317 C316 1.249 . S
O318 Zn308 2.067 . S
O318 C316 1.270 . S
C319 O312 1.262 . S
C319 O320 1.232 1_556 S
O320 C319 1.232 1_554 S
C321 O313 1.260 . S
C321 O314 1.257 . S
Zn322 O325 2.031 1_556 S
Zn322 O327 2.049 . S
Zn322 O332 2.067 . S
Zn323 O324 1.962 . S
Zn323 O326 1.986 . S
Zn323 O328 1.996 . S
Zn323 O331 1.943 . S
O324 Zn323 1.962 . S
O324 C329 1.254 . S
O325 Zn322 2.031 1_554 S
O325 C329 1.269 . S
O326 Zn323 1.986 . S
O326 C333 1.262 . S
O327 Zn322 2.049 . S
O327 C335 1.260 . S
O328 Zn323 1.996 . S
O328 C335 1.257 1_554 S
C329 O324 1.254 . S
C329 O325 1.269 . S
C330 O331 1.249 . S
C330 O332 1.270 1_554 S
O331 Zn323 1.943 . S
O331 C330 1.249 . S
O332 Zn322 2.067 . S
O332 C330 1.270 1_556 S
C333 O326 1.262 . S
C333 O334 1.232 . S
O334 C333 1.232 . S
C335 O327 1.260 . S
C335 O328 1.257 1_556 S
Zn336 O339 2.031 . S
Zn336 O341 2.049 . S
Zn336 O346 2.067 . S
Zn337 O338 1.962 . S
Zn337 O340 1.986 . S
Zn337 O342 1.996 . S
Zn337 O345 1.943 . S
O338 Zn337 1.962 . S
O338 C343 1.254 . S
O339 Zn336 2.031 . S
O339 C343 1.269 . S
O340 Zn337 1.986 . S
O340 C347 1.262 . S
O341 Zn336 2.049 . S
O341 C349 1.260 . S
O342 Zn337 1.996 . S
O342 C349 1.257 . S
C343 O338 1.254 . S
C343 O339 1.269 . S
C344 O345 1.249 . S
C344 O346 1.270 . S
O345 Zn337 1.943 . S
O345 C344 1.249 . S
O346 Zn336 2.067 . S
O346 C344 1.270 . S
C347 O340 1.262 . S
C347 O348 1.232 . S
O348 C347 1.232 . S
C349 O341 1.260 . S
C349 O342 1.257 . S
Zn350 O353 2.031 1_556 S
Zn350 O355 2.049 . S
Zn350 O360 2.067 . S
Zn351 O352 1.962 . S
Zn351 O354 1.986 . S
Zn351 O356 1.996 . S
Zn351 O359 1.943 . S
O352 Zn351 1.962 . S
O352 C357 1.254 . S
O353 Zn350 2.031 1_554 S
O353 C357 1.269 . S
O354 Zn351 1.986 . S
O354 C361 1.262 . S
O355 Zn350 2.049 . S
O355 C363 1.260 . S
O356 Zn351 1.996 . S
O356 C363 1.257 1_554 S
C357 O352 1.254 . S
C357 O353 1.269 . S
C358 O359 1.249 . S
C358 O360 1.270 1_554 S
O359 Zn351 1.943 . S
O359 C358 1.249 . S
O360 Zn350 2.067 . S
O360 C358 1.270 1_556 S
C361 O354 1.262 . S
C361 O362 1.232 . S
O362 C361 1.232 . S
C363 O355 1.260 . S
C363 O356 1.257 1_556 S
Zn364 O367 2.031 . S
Zn364 O369 2.049 . S
Zn364 O374 2.067 . S
Zn365 O366 1.962 . S
Zn365 O368 1.986 . S
Zn365 O370 1.996 . S
Zn365 O373 1.943 . S
O366 Zn365 1.962 . S
O366 C371 1.254 . S
O367 Zn364 2.031 . S
O367 C371 1.269 . S
O368 Zn365 1.986 . S
O368 C375 1.262 . S
O369 Zn364 2.049 . S
O369 C377 1.260 . S
O370 Zn365 1.996 . S
O370 C377 1.257 . S
C371 O366 1.254 . S
C371 O367 1.269 . S
C372 O373 1.249 . S
C372 O374 1.270 . S
O373 Zn365 1.943 . S
O373 C372 1.249 . S
O374 Zn364 2.067 . S
O374 C372 1.270 . S
C375 O368 1.262 . S
C375 O376 1.232 1_556 S
O376 C375 1.232 1_554 S
C377 O369 1.260 . S
C377 O370 1.257 . S
Zn378 O381 2.031 . S
Zn378 O383 2.049 . S
Zn378 O388 2.067 . S
Zn379 O380 1.962 . S
Zn379 O382 1.986 . S
Zn379 O384 1.996 . S
Zn379 O387 1.943 . S
O380 Zn379 1.962 . S
O380 C385 1.254 . S
O381 Zn378 2.031 . S
O381 C385 1.269 . S
O382 Zn379 1.986 . S
O382 C389 1.262 . S
O383 Zn378 2.049 . S
O383 C391 1.260 . S
O384 Zn379 1.996 . S
O384 C391 1.257 . S
C385 O380 1.254 . S
C385 O381 1.269 . S
C386 O387 1.249 . S
C386 O388 1.270 . S
O387 Zn379 1.943 . S
O387 C386 1.249 . S
O388 Zn378 2.067 . S
O388 C386 1.270 . S
C389 O382 1.262 . S
C389 O390 1.232 . S
O390 C389 1.232 . S
C391 O383 1.260 . S
C391 O384 1.257 . S
Zn392 O395 2.031 . S
Zn392 O397 2.049 . S
Zn392 O402 2.067 . S
Zn393 O394 1.962 . S
Zn393 O396 1.986 . S
Zn393 O398 1.996 . S
Zn393 O401 1.943 . S
O394 Zn393 1.962 . S
O394 C399 1.254 . S
O395 Zn392 2.031 . S
O395 C399 1.269 . S
O396 Zn393 1.986 . S
O396 C403 1.262 . S
O397 Zn392 2.049 . S
O397 C405 1.260 . S
O398 Zn393 1.996 . S
O398 C405 1.257 . S
C399 O394 1.254 . S
C399 O395 1.269 . S
C400 O401 1.249 . S
C400 O402 1.270 . S
O401 Zn393 1.943 . S
O401 C400 1.249 . S
O402 Zn392 2.067 . S
O402 C400 1.270 . S
C403 O396 1.262 . S
C403 O404 1.232 . S
O404 C403 1.232 . S
C405 O397 1.260 . S
C405 O398 1.257 . S
Zn406 O409 2.031 . S
Zn406 O411 2.049 . S
Zn406 O416 2.067 . S
Zn407 O408 1.962 . S
Zn407 O410 1.986 . S
Zn407 O412 1.996 . S
Zn407 O415 1.943 . S
O408 Zn407 1.962 . S
O408 C413 1.254 . S
O409 Zn406 2.031 . S
O409 C413 1.269 . S
O410 Zn407 1.986 . S
O410 C417 1.262 . S
O411 Zn406 2.049 . S
O411 C419 1.260 . S
O412 Zn407 1.996 . S
O412 C419 1.257 . S
C413 O408 1.254 . S
C413 O409 1.269 . S
C414 O415 1.249 . S
C414 O416 1.270 . S
O415 Zn407 1.943 . S
O415 C414 1.249 . S
O416 Zn406 2.067 . S
O416 C414 1.270 . S
C417 O410 1.262 . S
C417 O418 1.232 . S
O418 C417 1.232 . S
C419 O411 1.260 . S
C419 O412 1.257 . S
Zn420 O423 2.031 . S
Zn420 O425 2.049 . S
Zn420 O430 2.067 . S
Zn421 O422 1.962 . S
Zn421 O424 1.986 . S
Zn421 O426 1.996 . S
Zn421 O429 1.943 . S
O422 Zn421 1.962 . S
O422 C427 1.254 . S
O423 Zn420 2.031 . S
O423 C427 1.269 . S
O424 Zn421 1.986 . S
O424 C431 1.262 . S
O425 Zn420 2.049 . S
O425 C433 1.260 . S
O426 Zn421 1.996 . S
O426 C433 1.257 . S
C427 O422 1.254 . S
C427 O423 1.269 . S
C428 O429 1.249 . S
C428 O430 1.270 . S
O429 Zn421 1.943 . S
O429 C428 1.249 . S
O430 Zn420 2.067 . S
O430 C428 1.270 . S
C431 O424 1.262 . S
C431 O432 1.232 1_554 S
O432 C431 1.232 1_556 S
C433 O425 1.260 . S
C433 O426 1.257 . S
Zn434 O437 2.031 1_554 S
Zn434 O439 2.049 . S
Zn434 O444 2.067 . S
Zn435 O436 1.962 . S
Zn435 O438 1.986 . S
Zn435 O440 1.996 . S
Zn435 O443 1.943 . S
O436 Zn435 1.962 . S
O436 C441 1.254 . S
O437 Zn434 2.031 1_556 S
O437 C441 1.269 . S
O438 Zn435 1.986 . S
O438 C445 1.262 . S
O439 Zn434 2.049 . S
O439 C447 1.260 . S
O440 Zn435 1.996 . S
O440 C447 1.257 1_556 S
C441 O436 1.254 . S
C441 O437 1.269 . S
C442 O443 1.249 . S
C442 O444 1.270 1_556 S
O443 Zn435 1.943 . S
O443 C442 1.249 . S
O444 Zn434 2.067 . S
O444 C442 1.270 1_554 S
C445 O438 1.262 . S
C445 O446 1.232 . S
O446 C445 1.232 . S
C447 O439 1.260 . S
C447 O440 1.257 1_554 S
C448 C449 1.387 . S
C448 H452 0.950 . S
C448 C457 1.390 . S
C449 C448 1.387 . S
C449 C451 1.387 . S
H450 C457 0.950 . S
C451 C449 1.387 . S
C451 C453 1.390 . S
C451 H455 0.950 . S
H452 C448 0.950 . S
C453 C451 1.390 . S
C453 C454 1.387 . S
C453 H456 0.950 . S
C454 C453 1.387 . S
C454 C457 1.387 . S
H455 C451 0.950 . S
H456 C453 0.950 . S
C457 C448 1.390 . S
C457 H450 0.950 . S
C457 C454 1.387 . S
C458 C459 1.387 . S
C458 H462 0.950 . S
C458 C467 1.390 1_565 S
C459 C458 1.387 . S
C459 C461 1.387 . S
H460 C467 0.950 . S
C461 C459 1.387 . S
C461 C463 1.390 1_565 S
C461 H465 0.950 . S
H462 C458 0.950 . S
C463 C461 1.390 1_545 S
C463 C464 1.387 . S
C463 H466 0.950 . S
C464 C463 1.387 . S
C464 C467 1.387 . S
H465 C461 0.950 . S
H466 C463 0.950 . S
C467 C458 1.390 1_545 S
C467 H460 0.950 . S
C467 C464 1.387 . S
C468 C469 1.387 . S
C468 H472 0.950 . S
C468 C477 1.390 . S
C469 C468 1.387 . S
C469 C471 1.387 . S
H470 C477 0.950 . S
C471 C469 1.387 . S
C471 C473 1.390 . S
C471 H475 0.950 . S
H472 C468 0.950 . S
C473 C471 1.390 . S
C473 C474 1.387 . S
C473 H476 0.950 . S
C474 C473 1.387 . S
C474 C477 1.387 . S
H475 C471 0.950 . S
H476 C473 0.950 . S
C477 C468 1.390 . S
C477 H470 0.950 . S
C477 C474 1.387 . S
C478 C479 1.387 . S
C478 H482 0.950 . S
C478 C487 1.390 1_546 S
C479 C478 1.387 . S
C479 C481 1.387 . S
H480 C487 0.950 . S
C481 C479 1.387 . S
C481 C483 1.390 1_546 S
C481 H485 0.950 . S
H482 C478 0.950 . S
C483 C481 1.390 1_564 S
C483 C484 1.387 . S
C483 H486 0.950 . S
C484 C483 1.387 . S
C484 C487 1.387 . S
H485 C481 0.950 . S
H486 C483 0.950 . S
C487 C478 1.390 1_564 S
C487 H480 0.950 . S
C487 C484 1.387 . S
C488 C489 1.387 . S
C488 H492 0.950 . S
C488 C497 1.390 . S
C489 C488 1.387 . S
C489 C491 1.387 . S
H490 C497 0.950 . S
C491 C489 1.387 . S
C491 C493 1.390 . S
C491 H495 0.950 . S
H492 C488 0.950 . S
C493 C491 1.390 . S
C493 C494 1.387 . S
C493 H496 0.950 . S
C494 C493 1.387 . S
C494 C497 1.387 . S
H495 C491 0.950 . S
H496 C493 0.950 . S
C497 C488 1.390 . S
C497 H490 0.950 . S
C497 C494 1.387 . S
C498 C499 1.387 . S
C498 H502 0.950 . S
C498 C507 1.390 1_565 S
C499 C498 1.387 . S
C499 C501 1.387 . S
H500 C507 0.950 . S
C501 C499 1.387 . S
C501 C503 1.390 1_565 S
C501 H505 0.950 . S
H502 C498 0.950 . S
C503 C501 1.390 1_545 S
C503 C504 1.387 . S
C503 H506 0.950 . S
C504 C503 1.387 . S
C504 C507 1.387 . S
H505 C501 0.950 . S
H506 C503 0.950 . S
C507 C498 1.390 1_545 S
C507 H500 0.950 . S
C507 C504 1.387 . S
C508 C509 1.387 . S
C508 H512 0.950 . S
C508 C517 1.390 . S
C509 C508 1.387 . S
C509 C511 1.387 . S
H510 C517 0.950 . S
C511 C509 1.387 . S
C511 C513 1.390 . S
C511 H515 0.950 . S
H512 C508 0.950 . S
C513 C511 1.390 . S
C513 C514 1.387 . S
C513 H516 0.950 . S
C514 C513 1.387 . S
C514 C517 1.387 . S
H515 C511 0.950 . S
H516 C513 0.950 . S
C517 C508 1.390 . S
C517 H510 0.950 . S
C517 C514 1.387 . S
C518 C519 1.387 . S
C518 H522 0.950 . S
C518 C527 1.390 1_546 S
C519 C518 1.387 . S
C519 C521 1.387 . S
H520 C527 0.950 . S
C521 C519 1.387 . S
C521 C523 1.390 1_546 S
C521 H525 0.950 . S
H522 C518 0.950 . S
C523 C521 1.390 1_564 S
C523 C524 1.387 . S
C523 H526 0.950 . S
C524 C523 1.387 . S
C524 C527 1.387 . S
H525 C521 0.950 . S
H526 C523 0.950 . S
C527 C518 1.390 1_564 S
C527 H520 0.950 . S
C527 C524 1.387 . S
C528 C529 1.387 . S
C528 H532 0.950 . S
C528 C537 1.390 . S
C529 C528 1.387 . S
C529 C531 1.387 . S
H530 C537 0.950 . S
C531 C529 1.387 . S
C531 C533 1.390 . S
C531 H535 0.950 . S
H532 C528 0.950 . S
C533 C531 1.390 . S
C533 C534 1.387 . S
C533 H536 0.950 . S
C534 C533 1.387 . S
C534 C537 1.387 . S
H535 C531 0.950 . S
H536 C533 0.950 . S
C537 C528 1.390 . S
C537 H530 0.950 . S
C537 C534 1.387 . S
C538 C539 1.387 . S
C538 H542 0.950 . S
C538 C547 1.390 1_556 S
C539 C538 1.387 . S
C539 C541 1.387 . S
H540 C547 0.950 . S
C541 C539 1.387 . S
C541 C543 1.390 1_556 S
C541 H545 0.950 . S
H542 C538 0.950 . S
C543 C541 1.390 1_554 S
C543 C544 1.387 . S
C543 H546 0.950 . S
C544 C543 1.387 . S
C544 C547 1.387 . S
H545 C541 0.950 . S
H546 C543 0.950 . S
C547 C538 1.390 1_554 S
C547 H540 0.950 . S
C547 C544 1.387 . S
C548 C549 1.387 . S
C548 H552 0.950 . S
C548 C557 1.390 . S
C549 C548 1.387 . S
C549 C551 1.387 . S
H550 C557 0.950 . S
C551 C549 1.387 . S
C551 C553 1.390 . S
C551 H555 0.950 . S
H552 C548 0.950 . S
C553 C551 1.390 . S
C553 C554 1.387 . S
C553 H556 0.950 . S
C554 C553 1.387 . S
C554 C557 1.387 . S
H555 C551 0.950 . S
H556 C553 0.950 . S
C557 C548 1.390 . S
C557 H550 0.950 . S
C557 C554 1.387 . S
C558 C559 1.387 . S
C558 H562 0.950 . S
C558 C567 1.390 . S
C559 C558 1.387 . S
C559 C561 1.387 . S
H560 C567 0.950 . S
C561 C559 1.387 . S
C561 C563 1.390 . S
C561 H565 0.950 . S
H562 C558 0.950 . S
C563 C561 1.390 . S
C563 C564 1.387 . S
C563 H566 0.950 . S
C564 C563 1.387 . S
C564 C567 1.387 . S
H565 C561 0.950 . S
H566 C563 0.950 . S
C567 C558 1.390 . S
C567 H560 0.950 . S
C567 C564 1.387 . S
C568 C569 1.387 . S
C568 H572 0.950 . S
C568 C577 1.390 . S
C569 C568 1.387 . S
C569 C571 1.387 . S
H570 C577 0.950 . S
C571 C569 1.387 . S
C571 C573 1.390 . S
C571 H575 0.950 . S
H572 C568 0.950 . S
C573 C571 1.390 . S
C573 C574 1.387 . S
C573 H576 0.950 . S
C574 C573 1.387 . S
C574 C577 1.387 . S
H575 C571 0.950 . S
H576 C573 0.950 . S
C577 C568 1.390 . S
C577 H570 0.950 . S
C577 C574 1.387 . S
C578 C579 1.387 . S
C578 H582 0.950 . S
C578 C587 1.390 1_554 S
C579 C578 1.387 . S
C579 C581 1.387 . S
H580 C587 0.950 . S
C581 C579 1.387 . S
C581 C583 1.390 1_554 S
C581 H585 0.950 . S
H582 C578 0.950 . S
C583 C581 1.390 1_556 S
C583 C584 1.387 . S
C583 H586 0.950 . S
C584 C583 1.387 . S
C584 C587 1.387 . S
H585 C581 0.950 . S
H586 C583 0.950 . S
C587 C578 1.390 1_556 S
C587 H580 0.950 . S
C587 C584 1.387 . S
C588 C589 1.387 . S
C588 H592 0.950 . S
C588 C597 1.390 . S
C589 C588 1.387 . S
C589 C591 1.387 . S
H590 C597 0.950 . S
C591 C589 1.387 . S
C591 C593 1.390 . S
C591 H595 0.950 . S
H592 C588 0.950 . S
C593 C591 1.390 . S
C593 C594 1.387 . S
C593 H596 0.950 . S
C594 C593 1.387 . S
C594 C597 1.387 . S
H595 C591 0.950 . S
H596 C593 0.950 . S
C597 C588 1.390 . S
C597 H590 0.950 . S
C597 C594 1.387 . S
C598 C599 1.387 . S
C598 H602 0.950 . S
C598 C607 1.390 . S
C599 C598 1.387 . S
C599 C601 1.387 . S
H600 C607 0.950 . S
C601 C599 1.387 . S
C601 C603 1.390 . S
C601 H605 0.950 . S
H602 C598 0.950 . S
C603 C601 1.390 . S
C603 C604 1.387 . S
C603 H606 0.950 . S
C604 C603 1.387 . S
C604 C607 1.387 . S
H605 C601 0.950 . S
H606 C603 0.950 . S
C607 C598 1.390 . S
C607 H600 0.950 . S
C607 C604 1.387 . S
C608 C609 1.387 . S
C608 H612 0.950 . S
C608 C617 1.390 . S
C609 C608 1.387 . S
C609 C611 1.387 . S
H610 C617 0.950 . S
C611 C609 1.387 . S
C611 C613 1.390 . S
C611 H615 0.950 . S
H612 C608 0.950 . S
C613 C611 1.390 . S
C613 C614 1.387 . S
C613 H616 0.950 . S
C614 C613 1.387 . S
C614 C617 1.387 . S
H615 C611 0.950 . S
H616 C613 0.950 . S
C617 C608 1.390 . S
C617 H610 0.950 . S
C617 C614 1.387 . S
C618 C619 1.387 . S
C618 H622 0.950 . S
C618 C627 1.390 . S
C619 C618 1.387 . S
C619 C621 1.387 . S
H620 C627 0.950 . S
C621 C619 1.387 . S
C621 C623 1.390 . S
C621 H625 0.950 . S
H622 C618 0.950 . S
C623 C621 1.390 . S
C623 C624 1.387 . S
C623 H626 0.950 . S
C624 C623 1.387 . S
C624 C627 1.387 . S
H625 C621 0.950 . S
H626 C623 0.950 . S
C627 C618 1.390 . S
C627 H620 0.950 . S
C627 C624 1.387 . S
C628 C629 1.387 . S
C628 H632 0.950 . S
C628 C637 1.390 . S
C629 C628 1.387 . S
C629 C631 1.387 . S
H630 C637 0.950 . S
C631 C629 1.387 . S
C631 C633 1.390 . S
C631 H635 0.950 . S
H632 C628 0.950 . S
C633 C631 1.390 . S
C633 C634 1.387 . S
C633 H636 0.950 . S
C634 C633 1.387 . S
C634 C637 1.387 . S
H635 C631 0.950 . S
H636 C633 0.950 . S
C637 C628 1.390 . S
C637 H630 0.950 . S
C637 C634 1.387 . S
C638 C639 1.387 . S
C638 H642 0.950 . S
C638 C647 1.390 . S
C639 C638 1.387 . S
C639 C641 1.387 . S
H640 C647 0.950 . S
C641 C639 1.387 . S
C641 C643 1.390 . S
C641 H645 0.950 . S
H642 C638 0.950 . S
C643 C641 1.390 . S
C643 C644 1.387 . S
C643 H646 0.950 . S
C644 C643 1.387 . S
C644 C647 1.387 . S
H645 C641 0.950 . S
H646 C643 0.950 . S
C647 C638 1.390 . S
C647 H640 0.950 . S
C647 C644 1.387 . S
C648 C649 1.387 . S
C648 H652 0.950 . S
C648 C657 1.390 . S
C649 C648 1.387 . S
C649 C651 1.387 . S
H650 C657 0.950 . S
C651 C649 1.387 . S
C651 C653 1.390 . S
C651 H655 0.950 . S
H652 C648 0.950 . S
C653 C651 1.390 . S
C653 C654 1.387 . S
C653 H656 0.950 . S
C654 C653 1.387 . S
C654 C657 1.387 . S
H655 C651 0.950 . S
H656 C653 0.950 . S
C657 C648 1.390 . S
C657 H650 0.950 . S
C657 C654 1.387 . S
C658 C659 1.387 . S
C658 H662 0.950 . S
C658 C667 1.390 . S
C659 C658 1.387 . S
C659 C661 1.387 . S
H660 C667 0.950 . S
C661 C659 1.387 . S
C661 C663 1.390 . S
C661 H665 0.950 . S
H662 C658 0.950 . S
C663 C661 1.390 . S
C663 C664 1.387 . S
C663 H666 0.950 . S
C664 C663 1.387 . S
C664 C667 1.387 . S
H665 C661 0.950 . S
H666 C663 0.950 . S
C667 C658 1.390 . S
C667 H660 0.950 . S
C667 C664 1.387 . S
C668 C669 1.387 . S
C668 H672 0.950 . S
C668 C677 1.390 . S
C669 C668 1.387 . S
C669 C671 1.387 . S
H670 C677 0.950 . S
C671 C669 1.387 . S
C671 C673 1.390 . S
C671 H675 0.950 . S
H672 C668 0.950 . S
C673 C671 1.390 . S
C673 C674 1.387 . S
C673 H676 0.950 . S
C674 C673 1.387 . S
C674 C677 1.387 . S
H675 C671 0.950 . S
H676 C673 0.950 . S
C677 C668 1.390 . S
C677 H670 0.950 . S
C677 C674 1.387 . S
C678 C679 1.387 . S
C678 H682 0.950 . S
C678 C687 1.390 . S
C679 C678 1.387 . S
C679 C681 1.387 . S
H680 C687 0.950 . S
C681 C679 1.387 . S
C681 C683 1.390 . S
C681 H685 0.950 . S
H682 C678 0.950 . S
C683 C681 1.390 . S
C683 C684 1.387 . S
C683 H686 0.950 . S
C684 C683 1.387 . S
C684 C687 1.387 . S
H685 C681 0.950 . S
H686 C683 0.950 . S
C687 C678 1.390 . S
C687 H680 0.950 . S
C687 C684 1.387 . S
C688 C689 1.387 . S
C688 H692 0.950 . S
C688 C697 1.390 . S
C689 C688 1.387 . S
C689 C691 1.387 . S
H690 C697 0.950 . S
C691 C689 1.387 . S
C691 C693 1.390 . S
C691 H695 0.950 . S
H692 C688 0.950 . S
C693 C691 1.390 . S
C693 C694 1.387 . S
C693 H696 0.950 . S
C694 C693 1.387 . S
C694 C697 1.387 . S
H695 C691 0.950 . S
H696 C693 0.950 . S
C697 C688 1.390 . S
C697 H690 0.950 . S
C697 C694 1.387 . S
C698 C699 1.387 . S
C698 H702 0.950 . S
C698 C707 1.390 . S
C699 C698 1.387 . S
C699 C701 1.387 . S
H700 C707 0.950 . S
C701 C699 1.387 . S
C701 C703 1.390 . S
C701 H705 0.950 . S
H702 C698 0.950 . S
C703 C701 1.390 . S
C703 C704 1.387 . S
C703 H706 0.950 . S
C704 C703 1.387 . S
C704 C707 1.387 . S
H705 C701 0.950 . S
H706 C703 0.950 . S
C707 C698 1.390 . S
C707 H700 0.950 . S
C707 C704 1.387 . S
C708 C709 1.387 . S
C708 H712 0.950 . S
C708 C717 1.390 . S
C709 C708 1.387 . S
C709 C711 1.387 . S
H710 C717 0.950 . S
C711 C709 1.387 . S
C711 C713 1.390 . S
C711 H715 0.950 . S
H712 C708 0.950 . S
C713 C711 1.390 . S
C713 C714 1.387 . S
C713 H716 0.950 . S
C714 C713 1.387 . S
C714 C717 1.387 . S
H715 C711 0.950 . S
H716 C713 0.950 . S
C717 C708 1.390 . S
C717 H710 0.950 . S
C717 C714 1.387 . S
C718 C719 1.387 . S
C718 H722 0.950 . S
C718 C727 1.390 . S
C719 C718 1.387 . S
C719 C721 1.387 . S
H720 C727 0.950 . S
C721 C719 1.387 . S
C721 C723 1.390 . S
C721 H725 0.950 . S
H722 C718 0.950 . S
C723 C721 1.390 . S
C723 C724 1.387 . S
C723 H726 0.950 . S
C724 C723 1.387 . S
C724 C727 1.387 . S
H725 C721 0.950 . S
H726 C723 0.950 . S
C727 C718 1.390 . S
C727 H720 0.950 . S
C727 C724 1.387 . S
C728 C729 1.387 . S
C728 H732 0.950 . S
C728 C737 1.390 . S
C729 C728 1.387 . S
C729 C731 1.387 . S
H730 C737 0.950 . S
C731 C729 1.387 . S
C731 C733 1.390 . S
C731 H735 0.950 . S
H732 C728 0.950 . S
C733 C731 1.390 . S
C733 C734 1.387 . S
C733 H736 0.950 . S
C734 C733 1.387 . S
C734 C737 1.387 . S
H735 C731 0.950 . S
H736 C733 0.950 . S
C737 C728 1.390 . S
C737 H730 0.950 . S
C737 C734 1.387 . S
C738 C739 1.387 . S
C738 H742 0.950 . S
C738 C747 1.390 . S
C739 C738 1.387 . S
C739 C741 1.387 . S
H740 C747 0.950 . S
C741 C739 1.387 . S
C741 C743 1.390 . S
C741 H745 0.950 . S
H742 C738 0.950 . S
C743 C741 1.390 . S
C743 C744 1.387 . S
C743 H746 0.950 . S
C744 C743 1.387 . S
C744 C747 1.387 . S
H745 C741 0.950 . S
H746 C743 0.950 . S
C747 C738 1.390 . S
C747 H740 0.950 . S
C747 C744 1.387 . S
C748 C749 1.387 . S
C748 H752 0.950 . S
C748 C757 1.390 . S
C749 C748 1.387 . S
C749 C751 1.387 . S
H750 C757 0.950 . S
C751 C749 1.387 . S
C751 C753 1.390 . S
C751 H755 0.950 . S
H752 C748 0.950 . S
C753 C751 1.390 . S
C753 C754 1.387 . S
C753 H756 0.950 . S
C754 C753 1.387 . S
C754 C757 1.387 . S
H755 C751 0.950 . S
H756 C753 0.950 . S
C757 C748 1.390 . S
C757 H750 0.950 . S
C757 C754 1.387 . S
C758 C759 1.387 . S
C758 H762 0.950 . S
C758 C767 1.390 . S
C759 C758 1.387 . S
C759 C761 1.387 . S
H760 C767 0.950 . S
C761 C759 1.387 . S
C761 C763 1.390 . S
C761 H765 0.950 . S
H762 C758 0.950 . S
C763 C761 1.390 . S
C763 C764 1.387 . S
C763 H766 0.950 . S
C764 C763 1.387 . S
C764 C767 1.387 . S
H765 C761 0.950 . S
H766 C763 0.950 . S
C767 C758 1.390 . S
C767 H760 0.950 . S
C767 C764 1.387 . S
C768 C769 1.387 . S
C768 H772 0.950 . S
C768 C777 1.390 . S
C769 C768 1.387 . S
C769 C771 1.387 . S
H770 C777 0.950 . S
C771 C769 1.387 . S
C771 C773 1.390 . S
C771 H775 0.950 . S
H772 C768 0.950 . S
C773 C771 1.390 . S
C773 C774 1.387 . S
C773 H776 0.950 . S
C774 C773 1.387 . S
C774 C777 1.387 . S
H775 C771 0.950 . S
H776 C773 0.950 . S
C777 C768 1.390 . S
C777 H770 0.950 . S
C777 C774 1.387 . S
C778 C779 1.387 . S
C778 H782 0.950 . S
C778 C787 1.390 1_655 S
C779 C778 1.387 . S
C779 C781 1.387 . S
H780 C787 0.950 . S
C781 C779 1.387 . S
C781 C783 1.390 1_655 S
C781 H785 0.950 . S
H782 C778 0.950 . S
C783 C781 1.390 1_455 S
C783 C784 1.387 . S
C783 H786 0.950 . S
C784 C783 1.387 . S
C784 C787 1.387 . S
H785 C781 0.950 . S
H786 C783 0.950 . S
C787 C778 1.390 1_455 S
C787 H780 0.950 . S
C787 C784 1.387 . S
C788 C789 1.387 . S
C788 H792 0.950 . S
C788 C797 1.390 . S
C789 C788 1.387 . S
C789 C791 1.387 . S
H790 C797 0.950 . S
C791 C789 1.387 . S
C791 C793 1.390 . S
C791 H795 0.950 . S
H792 C788 0.950 . S
C793 C791 1.390 . S
C793 C794 1.387 . S
C793 H796 0.950 . S
C794 C793 1.387 . S
C794 C797 1.387 . S
H795 C791 0.950 . S
H796 C793 0.950 . S
C797 C788 1.390 . S
C797 H790 0.950 . S
C797 C794 1.387 . S
C798 C799 1.387 . S
C798 H802 0.950 . S
C798 C807 1.390 . S
C799 C798 1.387 . S
C799 C801 1.387 . S
H800 C807 0.950 . S
C801 C799 1.387 . S
C801 C803 1.390 . S
C801 H805 0.950 . S
H802 C798 0.950 . S
C803 C801 1.390 . S
C803 C804 1.387 . S
C803 H806 0.950 . S
C804 C803 1.387 . S
C804 C807 1.387 . S
H805 C801 0.950 . S
H806 C803 0.950 . S
C807 C798 1.390 . S
C807 H800 0.950 . S
C807 C804 1.387 . S
C808 C809 1.387 . S
C808 H812 0.950 . S
C808 C817 1.390 . S
C809 C808 1.387 . S
C809 C811 1.387 . S
H810 C817 0.950 . S
C811 C809 1.387 . S
C811 C813 1.390 . S
C811 H815 0.950 . S
H812 C808 0.950 . S
C813 C811 1.390 . S
C813 C814 1.387 . S
C813 H816 0.950 . S
C814 C813 1.387 . S
C814 C817 1.387 . S
H815 C811 0.950 . S
H816 C813 0.950 . S
C817 C808 1.390 . S
C817 H810 0.950 . S
C817 C814 1.387 . S
C818 C819 1.387 . S
C818 H822 0.950 . S
C818 C827 1.390 . S
C819 C818 1.387 . S
C819 C821 1.387 . S
H820 C827 0.950 . S
C821 C819 1.387 . S
C821 C823 1.390 . S
C821 H825 0.950 1_554 S
H822 C818 0.950 . S
C823 C821 1.390 . S
C823 C824 1.387 . S
C823 H826 0.950 1_554 S
C824 C823 1.387 . S
C824 C827 1.387 . S
H825 C821 0.950 1_556 S
H826 C823 0.950 1_556 S
C827 C818 1.390 . S
C827 H820 0.950 . S
C827 C824 1.387 . S
C828 C829 1.387 . S
C828 H832 0.950 . S
C828 C837 1.390 . S
C829 C828 1.387 . S
C829 C831 1.387 . S
H830 C837 0.950 . S
C831 C829 1.387 . S
C831 C833 1.390 . S
C831 H835 0.950 . S
H832 C828 0.950 . S
C833 C831 1.390 . S
C833 C834 1.387 . S
C833 H836 0.950 . S
C834 C833 1.387 . S
C834 C837 1.387 . S
H835 C831 0.950 . S
H836 C833 0.950 . S
C837 C828 1.390 . S
C837 H830 0.950 . S
C837 C834 1.387 . S
C838 C839 1.387 . S
C838 H842 0.950 . S
C838 C847 1.390 1_655 S
C839 C838 1.387 . S
C839 C841 1.387 . S
H840 C847 0.950 . S
C841 C839 1.387 . S
C841 C843 1.390 1_655 S
C841 H845 0.950 . S
H842 C838 0.950 . S
C843 C841 1.390 1_455 S
C843 C844 1.387 . S
C843 H846 0.950 . S
C844 C843 1.387 . S
C844 C847 1.387 . S
H845 C841 0.950 . S
H846 C843 0.950 . S
C847 C838 1.390 1_455 S
C847 H840 0.950 . S
C847 C844 1.387 . S
C848 C849 1.387 . S
C848 H852 0.950 . S
C848 C857 1.390 . S
C849 C848 1.387 . S
C849 C851 1.387 . S
H850 C857 0.950 . S
C851 C849 1.387 . S
C851 C853 1.390 . S
C851 H855 0.950 . S
H852 C848 0.950 . S
C853 C851 1.390 . S
C853 C854 1.387 . S
C853 H856 0.950 . S
C854 C853 1.387 . S
C854 C857 1.387 . S
H855 C851 0.950 . S
H856 C853 0.950 . S
C857 C848 1.390 . S
C857 H850 0.950 . S
C857 C854 1.387 . S
C858 C859 1.387 . S
C858 H862 0.950 . S
C858 C867 1.390 . S
C859 C858 1.387 . S
C859 C861 1.387 . S
H860 C867 0.950 . S
C861 C859 1.387 . S
C861 C863 1.390 . S
C861 H865 0.950 . S
H862 C858 0.950 . S
C863 C861 1.390 . S
C863 C864 1.387 . S
C863 H866 0.950 . S
C864 C863 1.387 . S
C864 C867 1.387 . S
H865 C861 0.950 . S
H866 C863 0.950 . S
C867 C858 1.390 . S
C867 H860 0.950 . S
C867 C864 1.387 . S
C868 C869 1.387 . S
C868 H872 0.950 . S
C868 C877 1.390 . S
C869 C868 1.387 . S
C869 C871 1.387 . S
H870 C877 0.950 . S
C871 C869 1.387 . S
C871 C873 1.390 . S
C871 H875 0.950 . S
H872 C868 0.950 . S
C873 C871 1.390 . S
C873 C874 1.387 . S
C873 H876 0.950 . S
C874 C873 1.387 . S
C874 C877 1.387 . S
H875 C871 0.950 . S
H876 C873 0.950 . S
C877 C868 1.390 . S
C877 H870 0.950 . S
C877 C874 1.387 . S
C878 C879 1.387 . S
C878 H882 0.950 . S
C878 C887 1.390 . S
C879 C878 1.387 . S
C879 C881 1.387 . S
H880 C887 0.950 . S
C881 C879 1.387 . S
C881 C883 1.390 . S
C881 H885 0.950 . S
H882 C878 0.950 . S
C883 C881 1.390 . S
C883 C884 1.387 . S
C883 H886 0.950 . S
C884 C883 1.387 . S
C884 C887 1.387 . S
H885 C881 0.950 . S
H886 C883 0.950 . S
C887 C878 1.390 . S
C887 H880 0.950 . S
C887 C884 1.387 . S
C888 C889 1.387 . S
C888 H892 0.950 . S
C888 C897 1.390 . S
C889 C888 1.387 . S
C889 C891 1.387 . S
H890 C897 0.950 . S
C891 C889 1.387 . S
C891 C893 1.390 . S
C891 H895 0.950 1_556 S
H892 C888 0.950 . S
C893 C891 1.390 . S
C893 C894 1.387 . S
C893 H896 0.950 1_556 S
C894 C893 1.387 . S
C894 C897 1.387 . S
H895 C891 0.950 1_554 S
H896 C893 0.950 1_554 S
C897 C888 1.390 . S
C897 H890 0.950 . S
C897 C894 1.387 . S
C898 C899 1.387 . S
C898 H902 0.950 . S
C898 C907 1.390 1_655 S
C899 C898 1.387 . S
C899 C901 1.387 . S
H900 C907 0.950 . S
C901 C899 1.387 . S
C901 C903 1.390 1_655 S
C901 H905 0.950 . S
H902 C898 0.950 . S
C903 C901 1.390 1_455 S
C903 C904 1.387 . S
C903 H906 0.950 . S
C904 C903 1.387 . S
C904 C907 1.387 . S
H905 C901 0.950 . S
H906 C903 0.950 . S
C907 C898 1.390 1_455 S
C907 H900 0.950 . S
C907 C904 1.387 . S
C908 C909 1.387 . S
C908 H912 0.950 . S
C908 C917 1.390 1_655 S
C909 C908 1.387 . S
C909 C911 1.387 . S
H910 C917 0.950 . S
C911 C909 1.387 . S
C911 C913 1.390 1_655 S
C911 H915 0.950 . S
H912 C908 0.950 . S
C913 C911 1.390 1_455 S
C913 C914 1.387 . S
C913 H916 0.950 . S
C914 C913 1.387 . S
C914 C917 1.387 . S
H915 C911 0.950 . S
H916 C913 0.950 . S
C917 C908 1.390 1_455 S
C917 H910 0.950 . S
C917 C914 1.387 . S
C918 C919 1.387 . S
C918 H922 0.950 1_554 S
C918 C927 1.390 . S
C919 C918 1.387 . S
C919 C921 1.387 . S
H920 C927 0.950 1_556 S
C921 C919 1.387 . S
C921 C923 1.390 . S
C921 H925 0.950 . S
H922 C918 0.950 1_556 S
C923 C921 1.390 . S
C923 C924 1.387 . S
C923 H926 0.950 . S
C924 C923 1.387 . S
C924 C927 1.387 . S
H925 C921 0.950 . S
H926 C923 0.950 . S
C927 C918 1.390 . S
C927 H920 0.950 1_554 S
C927 C924 1.387 . S
C928 C929 1.387 . S
C928 H932 0.950 . S
C928 C937 1.390 . S
C929 C928 1.387 . S
C929 C931 1.387 . S
H930 C937 0.950 . S
C931 C929 1.387 . S
C931 C933 1.390 . S
C931 H935 0.950 . S
H932 C928 0.950 . S
C933 C931 1.390 . S
C933 C934 1.387 . S
C933 H936 0.950 . S
C934 C933 1.387 . S
C934 C937 1.387 . S
H935 C931 0.950 . S
H936 C933 0.950 . S
C937 C928 1.390 . S
C937 H930 0.950 . S
C937 C934 1.387 . S
C938 C939 1.387 . S
C938 H942 0.950 . S
C938 C947 1.390 . S
C939 C938 1.387 . S
C939 C941 1.387 . S
H940 C947 0.950 . S
C941 C939 1.387 . S
C941 C943 1.390 . S
C941 H945 0.950 . S
H942 C938 0.950 . S
C943 C941 1.390 . S
C943 C944 1.387 . S
C943 H946 0.950 . S
C944 C943 1.387 . S
C944 C947 1.387 . S
H945 C941 0.950 . S
H946 C943 0.950 . S
C947 C938 1.390 . S
C947 H940 0.950 . S
C947 C944 1.387 . S
C948 C949 1.387 . S
C948 H952 0.950 . S
C948 C957 1.390 . S
C949 C948 1.387 . S
C949 C951 1.387 . S
H950 C957 0.950 . S
C951 C949 1.387 . S
C951 C953 1.390 . S
C951 H955 0.950 . S
H952 C948 0.950 . S
C953 C951 1.390 . S
C953 C954 1.387 . S
C953 H956 0.950 . S
C954 C953 1.387 . S
C954 C957 1.387 . S
H955 C951 0.950 . S
H956 C953 0.950 . S
C957 C948 1.390 . S
C957 H950 0.950 . S
C957 C954 1.387 . S
C958 C959 1.387 . S
C958 H962 0.950 . S
C958 C967 1.390 . S
C959 C958 1.387 . S
C959 C961 1.387 . S
H960 C967 0.950 . S
C961 C959 1.387 . S
C961 C963 1.390 . S
C961 H965 0.950 . S
H962 C958 0.950 . S
C963 C961 1.390 . S
C963 C964 1.387 . S
C963 H966 0.950 . S
C964 C963 1.387 . S
C964 C967 1.387 . S
H965 C961 0.950 . S
H966 C963 0.950 . S
C967 C958 1.390 . S
C967 H960 0.950 . S
C967 C964 1.387 . S
C968 C969 1.387 . S
C968 H972 0.950 . S
C968 C977 1.390 . S
C969 C968 1.387 . S
C969 C971 1.387 . S
H970 C977 0.950 . S
C971 C969 1.387 . S
C971 C973 1.390 . S
C971 H975 0.950 . S
H972 C968 0.950 . S
C973 C971 1.390 . S
C973 C974 1.387 . S
C973 H976 0.950 . S
C974 C973 1.387 . S
C974 C977 1.387 . S
H975 C971 0.950 . S
H976 C973 0.950 . S
C977 C968 1.390 . S
C977 H970 0.950 . S
C977 C974 1.387 . S
C978 C979 1.387 . S
C978 H982 0.950 . S
C978 C987 1.390 . S
C979 C978 1.387 . S
C979 C981 1.387 . S
H980 C987 0.950 . S
C981 C979 1.387 . S
C981 C983 1.390 . S
C981 H985 0.950 . S
H982 C978 0.950 . S
C983 C981 1.390 . S
C983 C984 1.387 . S
C983 H986 0.950 . S
C984 C983 1.387 . S
C984 C987 1.387 . S
H985 C981 0.950 . S
H986 C983 0.950 . S
C987 C978 1.390 . S
C987 H980 0.950 . S
C987 C984 1.387 . S
C988 C989 1.387 . S
C988 H992 0.950 . S
C988 C997 1.390 . S
C989 C988 1.387 . S
C989 C991 1.387 . S
H990 C997 0.950 . S
C991 C989 1.387 . S
C991 C993 1.390 . S
C991 H995 0.950 . S
H992 C988 0.950 . S
C993 C991 1.390 . S
C993 C994 1.387 . S
C993 H996 0.950 . S
C994 C993 1.387 . S
C994 C997 1.387 . S
H995 C991 0.950 . S
H996 C993 0.950 . S
C997 C988 1.390 . S
C997 H990 0.950 . S
C997 C994 1.387 . S
C998 C999 1.387 . S
C998 H1002 0.950 . S
C998 C1007 1.390 . S
C999 C998 1.387 . S
C999 C1001 1.387 . S
H1000 C1007 0.950 . S
C1001 C999 1.387 . S
C1001 C1003 1.390 . S
C1001 H1005 0.950 . S
H1002 C998 0.950 . S
C1003 C1001 1.390 . S
C1003 C1004 1.387 . S
C1003 H1006 0.950 . S
C1004 C1003 1.387 . S
C1004 C1007 1.387 . S
H1005 C1001 0.950 . S
H1006 C1003 0.950 . S
C1007 C998 1.390 . S
C1007 H1000 0.950 . S
C1007 C1004 1.387 . S
C1008 C1009 1.387 . S
C1008 H1012 0.950 . S
C1008 C1017 1.390 . S
C1009 C1008 1.387 . S
C1009 C1011 1.387 . S
H1010 C1017 0.950 . S
C1011 C1009 1.387 . S
C1011 C1013 1.390 . S
C1011 H1015 0.950 . S
H1012 C1008 0.950 . S
C1013 C1011 1.390 . S
C1013 C1014 1.387 . S
C1013 H1016 0.950 . S
C1014 C1013 1.387 . S
C1014 C1017 1.387 . S
H1015 C1011 0.950 . S
H1016 C1013 0.950 . S
C1017 C1008 1.390 . S
C1017 H1010 0.950 . S
C1017 C1014 1.387 . S
C1018 C1019 1.387 . S
C1018 H1022 0.950 . S
C1018 C1027 1.390 . S
C1019 C1018 1.387 . S
C1019 C1021 1.387 . S
H1020 C1027 0.950 . S
C1021 C1019 1.387 . S
C1021 C1023 1.390 . S
C1021 H1025 0.950 . S
H1022 C1018 0.950 . S
C1023 C1021 1.390 . S
C1023 C1024 1.387 . S
C1023 H1026 0.950 . S
C1024 C1023 1.387 . S
C1024 C1027 1.387 . S
H1025 C1021 0.950 . S
H1026 C1023 0.950 . S
C1027 C1018 1.390 . S
C1027 H1020 0.950 . S
C1027 C1024 1.387 . S
C1028 C1029 1.387 . S
C1028 H1032 0.950 . S
C1028 C1037 1.390 . S
C1029 C1028 1.387 . S
C1029 C1031 1.387 . S
H1030 C1037 0.950 . S
C1031 C1029 1.387 . S
C1031 C1033 1.390 . S
C1031 H1035 0.950 . S
H1032 C1028 0.950 . S
C1033 C1031 1.390 . S
C1033 C1034 1.387 . S
C1033 H1036 0.950 . S
C1034 C1033 1.387 . S
C1034 C1037 1.387 . S
H1035 C1031 0.950 . S
H1036 C1033 0.950 . S
C1037 C1028 1.390 . S
C1037 H1030 0.950 . S
C1037 C1034 1.387 . S
C1038 C1039 1.387 . S
C1038 H1042 0.950 . S
C1038 C1047 1.390 . S
C1039 C1038 1.387 . S
C1039 C1041 1.387 . S
H1040 C1047 0.950 . S
C1041 C1039 1.387 . S
C1041 C1043 1.390 . S
C1041 H1045 0.950 . S
H1042 C1038 0.950 . S
C1043 C1041 1.390 . S
C1043 C1044 1.387 . S
C1043 H1046 0.950 . S
C1044 C1043 1.387 . S
C1044 C1047 1.387 . S
H1045 C1041 0.950 . S
H1046 C1043 0.950 . S
C1047 C1038 1.390 . S
C1047 H1040 0.950 . S
C1047 C1044 1.387 . S
C1048 C1049 1.387 . S
C1048 H1052 0.950 . S
C1048 C1057 1.390 . S
C1049 C1048 1.387 . S
C1049 C1051 1.387 . S
H1050 C1057 0.950 . S
C1051 C1049 1.387 . S
C1051 C1053 1.390 . S
C1051 H1055 0.950 . S
H1052 C1048 0.950 . S
C1053 C1051 1.390 . S
C1053 C1054 1.387 . S
C1053 H1056 0.950 . S
C1054 C1053 1.387 . S
C1054 C1057 1.387 . S
H1055 C1051 0.950 . S
H1056 C1053 0.950 . S
C1057 C1048 1.390 . S
C1057 H1050 0.950 . S
C1057 C1054 1.387 . S
C1058 C1059 1.387 . S
C1058 H1062 0.950 . S
C1058 C1067 1.390 . S
C1059 C1058 1.387 . S
C1059 C1061 1.387 . S
H1060 C1067 0.950 . S
C1061 C1059 1.387 . S
C1061 C1063 1.390 . S
C1061 H1065 0.950 . S
H1062 C1058 0.950 . S
C1063 C1061 1.390 . S
C1063 C1064 1.387 . S
C1063 H1066 0.950 . S
C1064 C1063 1.387 . S
C1064 C1067 1.387 . S
H1065 C1061 0.950 . S
H1066 C1063 0.950 . S
C1067 C1058 1.390 . S
C1067 H1060 0.950 . S
C1067 C1064 1.387 . S
C1068 C1069 1.387 . S
C1068 H1072 0.950 . S
C1068 C1077 1.390 . S
C1069 C1068 1.387 . S
C1069 C1071 1.387 . S
H1070 C1077 0.950 . S
C1071 C1069 1.387 . S
C1071 C1073 1.390 . S
C1071 H1075 0.950 . S
H1072 C1068 0.950 . S
C1073 C1071 1.390 . S
C1073 C1074 1.387 . S
C1073 H1076 0.950 . S
C1074 C1073 1.387 . S
C1074 C1077 1.387 . S
H1075 C1071 0.950 . S
H1076 C1073 0.950 . S
C1077 C1068 1.390 . S
C1077 H1070 0.950 . S
C1077 C1074 1.387 . S
C1078 C1079 1.387 . S
C1078 H1082 0.950 . S
C1078 C1087 1.390 . S
C1079 C1078 1.387 . S
C1079 C1081 1.387 . S
H1080 C1087 0.950 . S
C1081 C1079 1.387 . S
C1081 C1083 1.390 . S
C1081 H1085 0.950 . S
H1082 C1078 0.950 . S
C1083 C1081 1.390 . S
C1083 C1084 1.387 . S
C1083 H1086 0.950 . S
C1084 C1083 1.387 . S
C1084 C1087 1.387 . S
H1085 C1081 0.950 . S
H1086 C1083 0.950 . S
C1087 C1078 1.390 . S
C1087 H1080 0.950 . S
C1087 C1084 1.387 . S
C449 C92 1.401 . S
C454 C8 1.401 . S
C459 C22 1.401 . S
C464 C106 1.401 . S
C469 C64 1.401 . S
C474 C36 1.401 . S
C479 C50 1.401 . S
C484 C78 1.401 . S
C489 C120 1.405 . S
C494 C204 1.405 . S
C499 C218 1.405 . S
C504 C134 1.405 . S
C509 C148 1.405 . S
C514 C176 1.405 . S
C519 C190 1.401 . S
C524 C162 1.401 . S
C529 C232 1.405 . S
C534 C316 1.405 . S
C539 C246 1.405 . S
C544 C330 1.405 . S
C549 C288 1.401 . S
C554 C260 1.401 . S
C559 C302 1.401 . S
C564 C274 1.401 . S
C569 C344 1.401 . S
C574 C428 1.401 . S
C579 C358 1.401 . S
C584 C442 1.401 . S
C589 C400 1.401 . S
C594 C372 1.401 . S
C599 C386 1.401 . S
C604 C414 1.401 . S
C609 C11 1.589 1_556 S
C614 C109 1.590 . S
C619 C67 1.589 1_554 S
C624 C25 1.589 . S
C629 C81 1.589 . S
C634 C39 1.590 . S
C639 C53 1.590 . S
C644 C95 1.589 . S
C649 C123 1.589 1_554 S
C654 C221 1.590 . S
C659 C179 1.589 1_556 S
C664 C137 1.590 . S
C669 C193 1.589 . S
C674 C151 1.590 . S
C679 C207 1.590 . S
C684 C165 1.589 . S
C689 C235 1.589 . S
C694 C333 1.590 . S
C699 C249 1.589 . S
C704 C291 1.589 . S
C709 C305 1.589 . S
C714 C263 1.590 1_556 S
C719 C277 1.590 . S
C724 C319 1.589 1_554 S
C729 C347 1.590 . S
C734 C445 1.589 . S
C739 C403 1.589 . S
C744 C361 1.590 . S
C749 C375 1.589 1_554 S
C754 C417 1.590 . S
C759 C389 1.589 . S
C764 C431 1.589 1_556 S
C769 C427 1.490 . S
C774 C7 1.490 . S
C779 C217 1.490 . S
C784 C21 1.490 . S
C789 C35 1.489 . S
C794 C399 1.491 . S
C799 C49 1.491 . S
C804 C189 1.489 . S
C809 C63 1.491 . S
C814 C371 1.489 . S
C819 C77 1.490 . S
C824 C161 1.490 . S
C829 C91 1.490 . S
C834 C343 1.490 . S
C839 C133 1.490 . S
C844 C105 1.490 . S
C849 C315 1.490 . S
C854 C119 1.490 . S
C859 C147 1.489 . S
C864 C287 1.491 . S
C869 C259 1.489 . S
C874 C175 1.491 . S
C879 C231 1.490 . S
C884 C203 1.490 . S
C889 C245 1.490 . S
C894 C441 1.490 . S
C899 C273 1.491 . S
C904 C413 1.489 . S
C909 C301 1.490 . S
C914 C385 1.490 . S
C919 C357 1.490 . S
C924 C329 1.490 . S
C929 C13 1.042 . S
C934 C111 1.042 . S
C939 C27 1.042 . S
C944 C69 1.043 . S
C949 C83 1.042 . S
C954 C41 1.042 . S
C959 C55 1.042 . S
C964 C97 1.043 . S
C969 C223 1.048 . S
C974 C125 1.047 . S
C979 C181 1.045 . S
C984 C139 1.043 . S
C989 C153 1.046 . S
C994 C195 1.047 . S
C999 C209 1.044 . S
C1004 C167 1.043 . S
C1009 C335 1.044 . S
C1014 C237 1.045 . S
C1019 C293 1.048 . S
C1024 C251 1.048 . S
C1029 C307 1.042 . S
C1034 C265 1.042 . S
C1039 C321 1.048 . S
C1044 C279 1.047 . S
C1049 C349 1.047 . S
C1054 C447 1.047 . S
C1059 C363 1.046 . S
C1064 C405 1.047 . S
C1069 C377 1.046 . S
C1074 C419 1.047 . S
C1079 C433 1.043 . S
C1084 C391 1.042 . S
