# Generated by pormake.
# Topology vmf, (6)-cn, num edge types: 1
# Building blocks:
#     Node 0, Type 0, BuildingBlock: IZENUY_clean_sbu_0, # of connection points: 6
#     Node 1, Type 0, BuildingBlock: IZENUY_clean_sbu_0, # of connection points: 6
#     Node 2, Type 0, BuildingBlock: IZENUY_clean_sbu_0, # of connection points: 6
#     Node 3, Type 0, BuildingBlock: IZENUY_clean_sbu_0, # of connection points: 6
#     Node 4, Type 0, BuildingBlock: IZENUY_clean_sbu_0, # of connection points: 6
#     Node 5, Type 0, BuildingBlock: IZENUY_clean_sbu_0, # of connection points: 6
#     Node 6, Type 0, BuildingBlock: IZENUY_clean_sbu_0, # of connection points: 6
#     Node 7, Type 0, BuildingBlock: IZENUY_clean_sbu_0, # of connection points: 6
#     Edge 8, Type (0, 0), BuildingBlock: EYOCIG_clean_linker_4, # of connection points: 2
#     Edge 9, Type (0, 0), BuildingBlock: EYOCIG_clean_linker_4, # of connection points: 2
#     Edge 10, Type (0, 0), BuildingBlock: EYOCIG_clean_linker_4, # of connection points: 2
#     Edge 11, Type (0, 0), BuildingBlock: EYOCIG_clean_linker_4, # of connection points: 2
#     Edge 12, Type (0, 0), BuildingBlock: EYOCIG_clean_linker_4, # of connection points: 2
#     Edge 13, Type (0, 0), BuildingBlock: EYOCIG_clean_linker_4, # of connection points: 2
#     Edge 14, Type (0, 0), BuildingBlock: EYOCIG_clean_linker_4, # of connection points: 2
#     Edge 15, Type (0, 0), BuildingBlock: EYOCIG_clean_linker_4, # of connection points: 2
#     Edge 16, Type (0, 0), BuildingBlock: EYOCIG_clean_linker_4, # of connection points: 2
#     Edge 17, Type (0, 0), BuildingBlock: EYOCIG_clean_linker_4, # of connection points: 2
#     Edge 18, Type (0, 0), BuildingBlock: EYOCIG_clean_linker_4, # of connection points: 2
#     Edge 19, Type (0, 0), BuildingBlock: EYOCIG_clean_linker_4, # of connection points: 2
#     Edge 20, Type (0, 0), BuildingBlock: EYOCIG_clean_linker_4, # of connection points: 2
#     Edge 21, Type (0, 0), BuildingBlock: EYOCIG_clean_linker_4, # of connection points: 2
#     Edge 22, Type (0, 0), BuildingBlock: EYOCIG_clean_linker_4, # of connection points: 2
#     Edge 23, Type (0, 0), BuildingBlock: EYOCIG_clean_linker_4, # of connection points: 2
#     Edge 24, Type (0, 0), BuildingBlock: EYOCIG_clean_linker_4, # of connection points: 2
#     Edge 25, Type (0, 0), BuildingBlock: EYOCIG_clean_linker_4, # of connection points: 2
#     Edge 26, Type (0, 0), BuildingBlock: EYOCIG_clean_linker_4, # of connection points: 2
#     Edge 27, Type (0, 0), BuildingBlock: EYOCIG_clean_linker_4, # of connection points: 2
#     Edge 28, Type (0, 0), BuildingBlock: EYOCIG_clean_linker_4, # of connection points: 2
#     Edge 29, Type (0, 0), BuildingBlock: EYOCIG_clean_linker_4, # of connection points: 2
#     Edge 30, Type (0, 0), BuildingBlock: EYOCIG_clean_linker_4, # of connection points: 2
#     Edge 31, Type (0, 0), BuildingBlock: EYOCIG_clean_linker_4, # of connection points: 2
# Relax obj value: 0.281
# Max RMSD: 0.266
# Mean RMSD: 0.266
data_MOF--net-vmf--node1-IZENUY_clean_sbu_0--edge1-EYOCIG_clean_linker_4
_symmetry_space_group_name_H-M    P1
_symmetry_Int_Tables_number       1
_symmetry_cell_setting            triclinic
loop_
_symmetry_equiv_pos_as_xyz
'x, y, z'
_cell_length_a     22.662846
_cell_length_b     34.333362
_cell_length_c     22.608187
_cell_angle_alpha  90.015119
_cell_angle_beta   107.93711
_cell_angle_gamma 89.9928
loop_
_atom_site_label
_atom_site_type_symbol
_atom_site_fract_x
_atom_site_fract_y
_atom_site_fract_z
_atom_type_partial_charge
Fe0 Fe 0.25547 0.3719 0.20775 0.0
Fe1 Fe 0.24891 0.29295 0.26885 0.0
O2 O 0.22257 0.34183 0.25347 0.0
Fe3 Fe 0.16339 0.3601 0.28242 0.0
O4 O 0.12481 0.38898 0.21153 0.0
O5 O 0.18123 0.3776 0.14919 0.0
O6 O 0.26938 0.33209 0.16066 0.0
C7 C 0.24365 0.29931 0.1481 0.0
C8 C 0.2352 0.42577 0.29496 0.0
O9 O 0.22349 0.28121 0.18645 0.0
C10 C 0.2413 0.31387 0.38215 0.0
O11 O 0.33321 0.36708 0.26285 0.0
O12 O 0.32815 0.30326 0.26747 0.0
O13 O 0.21048 0.40116 0.32115 0.0
O14 O 0.24625 0.41787 0.24497 0.0
C15 C 0.12064 0.28554 0.2574 0.0
O16 O 0.27556 0.30177 0.35147 0.0
O17 O 0.19201 0.33319 0.35692 0.0
C18 C 0.35969 0.33426 0.27361 0.0
O19 O 0.17546 0.27269 0.27421 0.0
O20 O 0.10989 0.3212 0.24699 0.0
C21 C 0.13111 0.38779 0.15753 0.0
Fe22 Fe 0.78703 0.37193 0.83468 0.0
Fe23 Fe 0.79363 0.29296 0.77357 0.0
O24 O 0.81994 0.34184 0.78895 0.0
Fe25 Fe 0.87911 0.36011 0.76001 0.0
O26 O 0.91768 0.38901 0.8309 0.0
O27 O 0.86127 0.37764 0.89323 0.0
O28 O 0.77315 0.33212 0.88177 0.0
C29 C 0.7989 0.29935 0.89432 0.0
C30 C 0.80725 0.42577 0.74746 0.0
O31 O 0.81906 0.28124 0.85597 0.0
C32 C 0.80122 0.31386 0.66027 0.0
O33 O 0.70929 0.36709 0.77958 0.0
O34 O 0.71439 0.30327 0.77496 0.0
O35 O 0.832 0.40116 0.72127 0.0
O36 O 0.79621 0.41789 0.79746 0.0
C37 C 0.92189 0.28556 0.78501 0.0
O38 O 0.76696 0.30177 0.69095 0.0
O39 O 0.8505 0.33319 0.6855 0.0
C40 C 0.68283 0.33426 0.76882 0.0
O41 O 0.86708 0.27271 0.7682 0.0
O42 O 0.93263 0.32122 0.79543 0.0
C43 C 0.91138 0.38783 0.8849 0.0
Fe44 Fe 0.79335 0.74932 0.77336 0.0
Fe45 Fe 0.78679 0.67038 0.83447 0.0
O46 O 0.81969 0.70045 0.78874 0.0
Fe47 Fe 0.87888 0.68218 0.75981 0.0
O48 O 0.93237 0.72109 0.79524 0.0
O49 O 0.86679 0.76958 0.768 0.0
O50 O 0.81874 0.76107 0.85575 0.0
C51 C 0.79857 0.74298 0.89409 0.0
C52 C 0.80099 0.72841 0.66006 0.0
O53 O 0.77286 0.71019 0.88154 0.0
C54 C 0.80708 0.61651 0.74727 0.0
O55 O 0.7141 0.739 0.77472 0.0
O56 O 0.70906 0.67519 0.77935 0.0
O57 O 0.85027 0.70908 0.6853 0.0
O58 O 0.76671 0.7405 0.69074 0.0
C59 C 0.91115 0.6545 0.8847 0.0
O60 O 0.79602 0.6244 0.79726 0.0
O61 O 0.8318 0.64112 0.72107 0.0
C62 C 0.68257 0.70801 0.76857 0.0
O63 O 0.86102 0.66469 0.89303 0.0
O64 O 0.91746 0.6533 0.83071 0.0
C65 C 0.92161 0.75675 0.78482 0.0
Fe66 Fe 0.25524 0.67034 0.20756 0.0
Fe67 Fe 0.16316 0.68216 0.28223 0.0
O68 O 0.22233 0.70042 0.25328 0.0
Fe69 Fe 0.24864 0.74931 0.26864 0.0
O70 O 0.22322 0.76101 0.18625 0.0
O71 O 0.26913 0.71013 0.16046 0.0
O72 O 0.181 0.66462 0.149 0.0
C73 C 0.13089 0.65444 0.15734 0.0
C74 C 0.35944 0.708 0.27342 0.0
O75 O 0.12459 0.65326 0.21134 0.0
C76 C 0.24105 0.72843 0.38195 0.0
O77 O 0.24605 0.62437 0.24479 0.0
O78 O 0.21027 0.64112 0.32097 0.0
O79 O 0.32788 0.739 0.26727 0.0
O80 O 0.33298 0.67518 0.26266 0.0
C81 C 0.12038 0.75672 0.2572 0.0
O82 O 0.19177 0.70909 0.35673 0.0
O83 O 0.2753 0.74051 0.35127 0.0
C84 C 0.23502 0.6165 0.29479 0.0
O85 O 0.10964 0.72105 0.2468 0.0
O86 O 0.17519 0.76956 0.27401 0.0
C87 C 0.24339 0.74291 0.1479 0.0
Fe88 Fe 0.75521 0.8719 0.20759 0.0
Fe89 Fe 0.74863 0.79295 0.26868 0.0
O90 O 0.72232 0.84183 0.25332 0.0
Fe91 Fe 0.66316 0.86012 0.28229 0.0
O92 O 0.62457 0.889 0.21142 0.0
O93 O 0.68097 0.87761 0.14905 0.0
O94 O 0.76909 0.83209 0.16049 0.0
C95 C 0.74335 0.79932 0.14793 0.0
C96 C 0.73501 0.92577 0.29483 0.0
O97 O 0.72319 0.78122 0.18628 0.0
C98 C 0.74106 0.81386 0.382 0.0
O99 O 0.83296 0.86707 0.26268 0.0
O100 O 0.82787 0.80325 0.26729 0.0
O101 O 0.71028 0.90116 0.32103 0.0
O102 O 0.74603 0.91788 0.24483 0.0
C103 C 0.62038 0.78556 0.25726 0.0
O104 O 0.77531 0.80177 0.3513 0.0
O105 O 0.69178 0.8332 0.35679 0.0
C106 C 0.85942 0.83424 0.27343 0.0
O107 O 0.67519 0.77271 0.27406 0.0
O108 O 0.60963 0.82122 0.24687 0.0
C109 C 0.63086 0.88781 0.15741 0.0
Fe110 Fe 0.29335 0.79295 0.77336 0.0
Fe111 Fe 0.37887 0.86009 0.75987 0.0
O112 O 0.31968 0.84182 0.78878 0.0
Fe113 Fe 0.28677 0.8719 0.83452 0.0
O114 O 0.27286 0.83209 0.88157 0.0
O115 O 0.31875 0.78121 0.85575 0.0
O116 O 0.36679 0.77269 0.76799 0.0
C117 C 0.42161 0.78553 0.78483 0.0
C118 C 0.18256 0.83426 0.76862 0.0
O119 O 0.43237 0.82119 0.79528 0.0
C120 C 0.30706 0.92576 0.74736 0.0
O121 O 0.2667 0.80178 0.69075 0.0
O122 O 0.35027 0.83318 0.68534 0.0
O123 O 0.20904 0.86708 0.77941 0.0
O124 O 0.2141 0.80326 0.77473 0.0
C125 C 0.41113 0.88778 0.88477 0.0
O126 O 0.33179 0.90115 0.72115 0.0
O127 O 0.29599 0.91787 0.79733 0.0
C128 C 0.30098 0.81387 0.66008 0.0
O129 O 0.41744 0.88897 0.83078 0.0
O130 O 0.361 0.8776 0.89309 0.0
C131 C 0.29858 0.7993 0.8941 0.0
Fe132 Fe 0.29362 0.24932 0.77353 0.0
Fe133 Fe 0.28705 0.17037 0.83462 0.0
O134 O 0.31994 0.20044 0.78889 0.0
Fe135 Fe 0.37911 0.18216 0.75994 0.0
O136 O 0.43263 0.22106 0.79536 0.0
O137 O 0.36706 0.26957 0.76816 0.0
O138 O 0.31904 0.26105 0.85592 0.0
C139 C 0.29887 0.24297 0.89427 0.0
C140 C 0.30122 0.22841 0.66022 0.0
O141 O 0.27315 0.21018 0.88171 0.0
C142 C 0.30727 0.1165 0.74739 0.0
O143 O 0.21438 0.23901 0.7749 0.0
O144 O 0.20931 0.17519 0.77952 0.0
O145 O 0.3505 0.20907 0.68544 0.0
O146 O 0.26696 0.2405 0.6909 0.0
C147 C 0.4114 0.15448 0.88482 0.0
O148 O 0.29625 0.1244 0.7974 0.0
O149 O 0.332 0.14111 0.7212 0.0
C150 C 0.18283 0.20802 0.76876 0.0
O151 O 0.36129 0.16467 0.89317 0.0
O152 O 0.4177 0.15328 0.83082 0.0
C153 C 0.42188 0.25672 0.78497 0.0
Fe154 Fe 0.74893 0.24932 0.26886 0.0
Fe155 Fe 0.7555 0.17036 0.20772 0.0
O156 O 0.72259 0.20044 0.25345 0.0
Fe157 Fe 0.66339 0.18218 0.28237 0.0
O158 O 0.6099 0.22109 0.24695 0.0
O159 O 0.67548 0.26958 0.27422 0.0
O160 O 0.72353 0.26105 0.18647 0.0
C161 C 0.74371 0.24296 0.14812 0.0
C162 C 0.74129 0.22841 0.38214 0.0
O163 O 0.76941 0.21017 0.16066 0.0
C164 C 0.73521 0.11651 0.29489 0.0
O165 O 0.82817 0.239 0.26749 0.0
O166 O 0.83323 0.17518 0.26283 0.0
O167 O 0.692 0.20909 0.35688 0.0
O168 O 0.77557 0.2405 0.35147 0.0
C169 C 0.63114 0.15448 0.15747 0.0
O170 O 0.74627 0.12439 0.24491 0.0
O171 O 0.71048 0.14112 0.32109 0.0
C172 C 0.85971 0.208 0.27362 0.0
O173 O 0.68127 0.16467 0.14915 0.0
O174 O 0.62482 0.1533 0.21146 0.0
C175 C 0.62066 0.25675 0.25739 0.0
C176 C 0.52738 0.3007 0.26633 0.0
C177 C 0.57104 0.28156 0.2627 0.0
C178 C 0.47344 0.31923 0.27232 0.0
C179 C 0.42299 0.3302 0.27338 0.0
C180 C 0.56909 0.31922 0.77009 0.0
C181 C 0.61953 0.33019 0.76904 0.0
C182 C 0.51515 0.30068 0.77606 0.0
C183 C 0.4715 0.28153 0.77968 0.0
C184 C 0.51488 0.74157 0.77588 0.0
C185 C 0.47123 0.76072 0.77951 0.0
C186 C 0.56883 0.72304 0.76988 0.0
C187 C 0.61927 0.71207 0.76881 0.0
C188 C 0.47318 0.72306 0.27214 0.0
C189 C 0.42274 0.71208 0.2732 0.0
C190 C 0.52711 0.7416 0.26616 0.0
C191 C 0.57076 0.76075 0.26255 0.0
C192 C 0.0271 0.80067 0.26613 0.0
C193 C 0.07075 0.78152 0.2625 0.0
C194 C 0.97316 0.81921 0.27213 0.0
C195 C 0.92272 0.83018 0.27319 0.0
C196 C 1.01488 0.8007 0.7759 0.0
C197 C 0.97123 0.78155 0.77952 0.0
C198 C 0.06882 0.81923 0.76991 0.0
C199 C 0.11926 0.8302 0.76885 0.0
C200 C 1.01516 0.2416 0.77607 0.0
C201 C 0.97151 0.26075 0.77971 0.0
C202 C 0.0691 0.22307 0.77007 0.0
C203 C 0.11954 0.21209 0.769 0.0
C204 C 0.02738 0.24158 0.26633 0.0
C205 C 0.07103 0.26073 0.2627 0.0
C206 C 0.97345 0.22304 0.27232 0.0
C207 C 0.92301 0.21207 0.27338 0.0
C208 C 1.00024 0.40131 0.99048 0.0
C209 C 0.96298 0.39606 0.93963 0.0
C210 C 0.04227 0.4013 0.05196 0.0
C211 C 0.07953 0.39604 0.1028 0.0
C212 C 0.04202 0.64097 0.05176 0.0
C213 C 0.07928 0.64621 0.10261 0.0
C214 C 0.99999 0.64099 0.99028 0.0
C215 C 0.96273 0.64625 0.93944 0.0
C216 C 0.54199 0.90129 0.05184 0.0
C217 C 0.57925 0.89604 0.10269 0.0
C218 C 0.49996 0.90128 0.99037 0.0
C219 C 0.46271 0.89603 0.93951 0.0
C220 C 0.5423 0.141 0.05187 0.0
C221 C 0.57956 0.14625 0.10272 0.0
C222 C 0.50026 0.14099 0.99039 0.0
C223 C 0.463 0.14624 0.93955 0.0
C224 C 0.246 0.54182 0.32505 0.0
C225 C 0.23983 0.57641 0.31474 0.0
C226 C 0.24604 0.50048 0.3251 0.0
C227 C 0.23993 0.46588 0.31486 0.0
C228 C 0.79624 0.54179 0.71714 0.0
C229 C 0.80234 0.5764 0.72737 0.0
C230 C 0.79627 0.50045 0.71719 0.0
C231 C 0.80244 0.46586 0.72751 0.0
C232 C 0.746 1.00047 0.32506 0.0
C233 C 0.73982 0.96587 0.31478 0.0
C234 C 0.74604 0.04181 0.32506 0.0
C235 C 0.73994 0.0764 0.31479 0.0
C236 C 0.29623 1.00047 0.71719 0.0
C237 C 0.30233 0.96587 0.72746 0.0
C238 C 0.29628 0.0418 0.71718 0.0
C239 C 0.30246 0.0764 0.72745 0.0
C240 C 0.27854 0.26074 0.54952 0.0
C241 C 0.29127 0.24502 0.59961 0.0
C242 C 0.26397 0.28153 0.49284 0.0
C243 C 0.25124 0.29725 0.44275 0.0
C244 C 0.77853 0.28152 0.54956 0.0
C245 C 0.79126 0.29724 0.59966 0.0
C246 C 0.76396 0.26073 0.49286 0.0
C247 C 0.75123 0.24502 0.44275 0.0
C248 C 0.76376 0.78152 0.49269 0.0
C249 C 0.75102 0.79725 0.4426 0.0
C250 C 0.77832 0.76073 0.54936 0.0
C251 C 0.79105 0.74501 0.59946 0.0
C252 C 0.2783 0.78155 0.54936 0.0
C253 C 0.29103 0.79726 0.59947 0.0
C254 C 0.26373 0.76076 0.49267 0.0
C255 C 0.251 0.74504 0.44256 0.0
C256 C 0.26182 0.2734 0.04766 0.0
C257 C 0.24938 0.28059 0.09425 0.0
C258 C 0.28075 0.26887 0.99473 0.0
C259 C 0.29317 0.26168 0.94813 0.0
C260 C 0.76186 0.26888 0.0477 0.0
C261 C 0.74943 0.26167 0.09428 0.0
C262 C 0.78077 0.27344 0.99476 0.0
C263 C 0.79318 0.28064 0.94817 0.0
C264 C 0.7804 0.76888 0.99453 0.0
C265 C 0.79284 0.76169 0.94794 0.0
C266 C 0.76148 0.77342 0.04747 0.0
C267 C 0.74905 0.7806 0.09406 0.0
C268 C 0.26149 0.76881 0.04744 0.0
C269 C 0.24909 0.76161 0.09404 0.0
C270 C 0.2804 0.77337 0.99451 0.0
C271 C 0.29284 0.78058 0.94793 0.0
loop_
_geom_bond_atom_site_label_1
_geom_bond_atom_site_label_2
_geom_bond_distance
_geom_bond_site_symmetry_2
_ccdc_geom_bond_type
Fe0 O2 1.918 . S
Fe0 O5 1.997 . S
Fe0 O6 2.002 . S
Fe0 O11 1.976 . S
Fe0 O14 1.996 . S
Fe1 O2 1.918 . S
Fe1 O9 1.997 . S
Fe1 O12 1.996 . S
Fe1 O16 1.976 . S
Fe1 O19 2.002 . S
O2 Fe0 1.918 . S
O2 Fe1 1.918 . S
O2 Fe3 1.918 . S
Fe3 O2 1.918 . S
Fe3 O4 2.002 . S
Fe3 O13 1.976 . S
Fe3 O17 1.996 . S
Fe3 O20 1.997 . S
O4 Fe3 2.002 . S
O4 C21 1.295 . S
O5 Fe0 1.997 . S
O5 C21 1.235 . S
O6 Fe0 2.002 . S
O6 C7 1.295 . S
C7 O6 1.295 . S
C7 O9 1.235 . S
C8 O13 1.287 . S
C8 O14 1.255 . S
O9 Fe1 1.997 . S
O9 C7 1.235 . S
C10 O16 1.287 . S
C10 O17 1.255 . S
O11 Fe0 1.976 . S
O11 C18 1.287 . S
O12 Fe1 1.996 . S
O12 C18 1.255 . S
O13 Fe3 1.976 . S
O13 C8 1.287 . S
O14 Fe0 1.996 . S
O14 C8 1.255 . S
C15 O19 1.295 . S
C15 O20 1.235 . S
O16 Fe1 1.976 . S
O16 C10 1.287 . S
O17 Fe3 1.996 . S
O17 C10 1.255 . S
C18 O11 1.287 . S
C18 O12 1.255 . S
O19 Fe1 2.002 . S
O19 C15 1.295 . S
O20 Fe3 1.997 . S
O20 C15 1.235 . S
C21 O4 1.295 . S
C21 O5 1.235 . S
Fe22 O24 1.918 . S
Fe22 O27 1.997 . S
Fe22 O28 2.002 . S
Fe22 O33 1.976 . S
Fe22 O36 1.996 . S
Fe23 O24 1.918 . S
Fe23 O31 1.997 . S
Fe23 O34 1.996 . S
Fe23 O38 1.976 . S
Fe23 O41 2.002 . S
O24 Fe22 1.918 . S
O24 Fe23 1.918 . S
O24 Fe25 1.918 . S
Fe25 O24 1.918 . S
Fe25 O26 2.002 . S
Fe25 O35 1.976 . S
Fe25 O39 1.996 . S
Fe25 O42 1.997 . S
O26 Fe25 2.002 . S
O26 C43 1.295 . S
O27 Fe22 1.997 . S
O27 C43 1.235 . S
O28 Fe22 2.002 . S
O28 C29 1.295 . S
C29 O28 1.295 . S
C29 O31 1.235 . S
C30 O35 1.287 . S
C30 O36 1.255 . S
O31 Fe23 1.997 . S
O31 C29 1.235 . S
C32 O38 1.287 . S
C32 O39 1.255 . S
O33 Fe22 1.976 . S
O33 C40 1.287 . S
O34 Fe23 1.996 . S
O34 C40 1.255 . S
O35 Fe25 1.976 . S
O35 C30 1.287 . S
O36 Fe22 1.996 . S
O36 C30 1.255 . S
C37 O41 1.295 . S
C37 O42 1.235 . S
O38 Fe23 1.976 . S
O38 C32 1.287 . S
O39 Fe25 1.996 . S
O39 C32 1.255 . S
C40 O33 1.287 . S
C40 O34 1.255 . S
O41 Fe23 2.002 . S
O41 C37 1.295 . S
O42 Fe25 1.997 . S
O42 C37 1.235 . S
C43 O26 1.295 . S
C43 O27 1.235 . S
Fe44 O46 1.918 . S
Fe44 O49 1.997 . S
Fe44 O50 2.002 . S
Fe44 O55 1.976 . S
Fe44 O58 1.996 . S
Fe45 O46 1.918 . S
Fe45 O53 1.997 . S
Fe45 O56 1.996 . S
Fe45 O60 1.976 . S
Fe45 O63 2.002 . S
O46 Fe44 1.918 . S
O46 Fe45 1.918 . S
O46 Fe47 1.918 . S
Fe47 O46 1.918 . S
Fe47 O48 2.002 . S
Fe47 O57 1.976 . S
Fe47 O61 1.996 . S
Fe47 O64 1.997 . S
O48 Fe47 2.002 . S
O48 C65 1.295 . S
O49 Fe44 1.997 . S
O49 C65 1.235 . S
O50 Fe44 2.002 . S
O50 C51 1.295 . S
C51 O50 1.295 . S
C51 O53 1.235 . S
C52 O57 1.287 . S
C52 O58 1.255 . S
O53 Fe45 1.997 . S
O53 C51 1.235 . S
C54 O60 1.287 . S
C54 O61 1.255 . S
O55 Fe44 1.976 . S
O55 C62 1.287 . S
O56 Fe45 1.996 . S
O56 C62 1.255 . S
O57 Fe47 1.976 . S
O57 C52 1.287 . S
O58 Fe44 1.996 . S
O58 C52 1.255 . S
C59 O63 1.295 . S
C59 O64 1.235 . S
O60 Fe45 1.976 . S
O60 C54 1.287 . S
O61 Fe47 1.996 . S
O61 C54 1.255 . S
C62 O55 1.287 . S
C62 O56 1.255 . S
O63 Fe45 2.002 . S
O63 C59 1.295 . S
O64 Fe47 1.997 . S
O64 C59 1.235 . S
C65 O48 1.295 . S
C65 O49 1.235 . S
Fe66 O68 1.918 . S
Fe66 O71 1.997 . S
Fe66 O72 2.002 . S
Fe66 O77 1.976 . S
Fe66 O80 1.996 . S
Fe67 O68 1.918 . S
Fe67 O75 1.997 . S
Fe67 O78 1.996 . S
Fe67 O82 1.976 . S
Fe67 O85 2.002 . S
O68 Fe66 1.918 . S
O68 Fe67 1.918 . S
O68 Fe69 1.918 . S
Fe69 O68 1.918 . S
Fe69 O70 2.002 . S
Fe69 O79 1.976 . S
Fe69 O83 1.996 . S
Fe69 O86 1.997 . S
O70 Fe69 2.002 . S
O70 C87 1.295 . S
O71 Fe66 1.997 . S
O71 C87 1.235 . S
O72 Fe66 2.002 . S
O72 C73 1.295 . S
C73 O72 1.295 . S
C73 O75 1.235 . S
C74 O79 1.287 . S
C74 O80 1.255 . S
O75 Fe67 1.997 . S
O75 C73 1.235 . S
C76 O82 1.287 . S
C76 O83 1.255 . S
O77 Fe66 1.976 . S
O77 C84 1.287 . S
O78 Fe67 1.996 . S
O78 C84 1.255 . S
O79 Fe69 1.976 . S
O79 C74 1.287 . S
O80 Fe66 1.996 . S
O80 C74 1.255 . S
C81 O85 1.295 . S
C81 O86 1.235 . S
O82 Fe67 1.976 . S
O82 C76 1.287 . S
O83 Fe69 1.996 . S
O83 C76 1.255 . S
C84 O77 1.287 . S
C84 O78 1.255 . S
O85 Fe67 2.002 . S
O85 C81 1.295 . S
O86 Fe69 1.997 . S
O86 C81 1.235 . S
C87 O70 1.295 . S
C87 O71 1.235 . S
Fe88 O90 1.918 . S
Fe88 O93 1.997 . S
Fe88 O94 2.002 . S
Fe88 O99 1.976 . S
Fe88 O102 1.996 . S
Fe89 O90 1.918 . S
Fe89 O97 1.997 . S
Fe89 O100 1.996 . S
Fe89 O104 1.976 . S
Fe89 O107 2.002 . S
O90 Fe88 1.918 . S
O90 Fe89 1.918 . S
O90 Fe91 1.918 . S
Fe91 O90 1.918 . S
Fe91 O92 2.002 . S
Fe91 O101 1.976 . S
Fe91 O105 1.996 . S
Fe91 O108 1.997 . S
O92 Fe91 2.002 . S
O92 C109 1.295 . S
O93 Fe88 1.997 . S
O93 C109 1.235 . S
O94 Fe88 2.002 . S
O94 C95 1.295 . S
C95 O94 1.295 . S
C95 O97 1.235 . S
C96 O101 1.287 . S
C96 O102 1.255 . S
O97 Fe89 1.997 . S
O97 C95 1.235 . S
C98 O104 1.287 . S
C98 O105 1.255 . S
O99 Fe88 1.976 . S
O99 C106 1.287 . S
O100 Fe89 1.996 . S
O100 C106 1.255 . S
O101 Fe91 1.976 . S
O101 C96 1.287 . S
O102 Fe88 1.996 . S
O102 C96 1.255 . S
C103 O107 1.295 . S
C103 O108 1.235 . S
O104 Fe89 1.976 . S
O104 C98 1.287 . S
O105 Fe91 1.996 . S
O105 C98 1.255 . S
C106 O99 1.287 . S
C106 O100 1.255 . S
O107 Fe89 2.002 . S
O107 C103 1.295 . S
O108 Fe91 1.997 . S
O108 C103 1.235 . S
C109 O92 1.295 . S
C109 O93 1.235 . S
Fe110 O112 1.918 . S
Fe110 O115 1.997 . S
Fe110 O116 2.002 . S
Fe110 O121 1.976 . S
Fe110 O124 1.996 . S
Fe111 O112 1.918 . S
Fe111 O119 1.997 . S
Fe111 O122 1.996 . S
Fe111 O126 1.976 . S
Fe111 O129 2.002 . S
O112 Fe110 1.918 . S
O112 Fe111 1.918 . S
O112 Fe113 1.918 . S
Fe113 O112 1.918 . S
Fe113 O114 2.002 . S
Fe113 O123 1.976 . S
Fe113 O127 1.996 . S
Fe113 O130 1.997 . S
O114 Fe113 2.002 . S
O114 C131 1.295 . S
O115 Fe110 1.997 . S
O115 C131 1.235 . S
O116 Fe110 2.002 . S
O116 C117 1.295 . S
C117 O116 1.295 . S
C117 O119 1.235 . S
C118 O123 1.287 . S
C118 O124 1.255 . S
O119 Fe111 1.997 . S
O119 C117 1.235 . S
C120 O126 1.287 . S
C120 O127 1.255 . S
O121 Fe110 1.976 . S
O121 C128 1.287 . S
O122 Fe111 1.996 . S
O122 C128 1.255 . S
O123 Fe113 1.976 . S
O123 C118 1.287 . S
O124 Fe110 1.996 . S
O124 C118 1.255 . S
C125 O129 1.295 . S
C125 O130 1.235 . S
O126 Fe111 1.976 . S
O126 C120 1.287 . S
O127 Fe113 1.996 . S
O127 C120 1.255 . S
C128 O121 1.287 . S
C128 O122 1.255 . S
O129 Fe111 2.002 . S
O129 C125 1.295 . S
O130 Fe113 1.997 . S
O130 C125 1.235 . S
C131 O114 1.295 . S
C131 O115 1.235 . S
Fe132 O134 1.918 . S
Fe132 O137 1.997 . S
Fe132 O138 2.002 . S
Fe132 O143 1.976 . S
Fe132 O146 1.996 . S
Fe133 O134 1.918 . S
Fe133 O141 1.997 . S
Fe133 O144 1.996 . S
Fe133 O148 1.976 . S
Fe133 O151 2.002 . S
O134 Fe132 1.918 . S
O134 Fe133 1.918 . S
O134 Fe135 1.918 . S
Fe135 O134 1.918 . S
Fe135 O136 2.002 . S
Fe135 O145 1.976 . S
Fe135 O149 1.996 . S
Fe135 O152 1.997 . S
O136 Fe135 2.002 . S
O136 C153 1.295 . S
O137 Fe132 1.997 . S
O137 C153 1.235 . S
O138 Fe132 2.002 . S
O138 C139 1.295 . S
C139 O138 1.295 . S
C139 O141 1.235 . S
C140 O145 1.287 . S
C140 O146 1.255 . S
O141 Fe133 1.997 . S
O141 C139 1.235 . S
C142 O148 1.287 . S
C142 O149 1.255 . S
O143 Fe132 1.976 . S
O143 C150 1.287 . S
O144 Fe133 1.996 . S
O144 C150 1.255 . S
O145 Fe135 1.976 . S
O145 C140 1.287 . S
O146 Fe132 1.996 . S
O146 C140 1.255 . S
C147 O151 1.295 . S
C147 O152 1.235 . S
O148 Fe133 1.976 . S
O148 C142 1.287 . S
O149 Fe135 1.996 . S
O149 C142 1.255 . S
C150 O143 1.287 . S
C150 O144 1.255 . S
O151 Fe133 2.002 . S
O151 C147 1.295 . S
O152 Fe135 1.997 . S
O152 C147 1.235 . S
C153 O136 1.295 . S
C153 O137 1.235 . S
Fe154 O156 1.918 . S
Fe154 O159 1.997 . S
Fe154 O160 2.002 . S
Fe154 O165 1.976 . S
Fe154 O168 1.996 . S
Fe155 O156 1.918 . S
Fe155 O163 1.997 . S
Fe155 O166 1.996 . S
Fe155 O170 1.976 . S
Fe155 O173 2.002 . S
O156 Fe154 1.918 . S
O156 Fe155 1.918 . S
O156 Fe157 1.918 . S
Fe157 O156 1.918 . S
Fe157 O158 2.002 . S
Fe157 O167 1.976 . S
Fe157 O171 1.996 . S
Fe157 O174 1.997 . S
O158 Fe157 2.002 . S
O158 C175 1.295 . S
O159 Fe154 1.997 . S
O159 C175 1.235 . S
O160 Fe154 2.002 . S
O160 C161 1.295 . S
C161 O160 1.295 . S
C161 O163 1.235 . S
C162 O167 1.287 . S
C162 O168 1.255 . S
O163 Fe155 1.997 . S
O163 C161 1.235 . S
C164 O170 1.287 . S
C164 O171 1.255 . S
O165 Fe154 1.976 . S
O165 C172 1.287 . S
O166 Fe155 1.996 . S
O166 C172 1.255 . S
O167 Fe157 1.976 . S
O167 C162 1.287 . S
O168 Fe154 1.996 . S
O168 C162 1.255 . S
C169 O173 1.295 . S
C169 O174 1.235 . S
O170 Fe155 1.976 . S
O170 C164 1.287 . S
O171 Fe157 1.996 . S
O171 C164 1.255 . S
C172 O165 1.287 . S
C172 O166 1.255 . S
O173 Fe155 2.002 . S
O173 C169 1.295 . S
O174 Fe157 1.997 . S
O174 C169 1.235 . S
C175 O158 1.295 . S
C175 O159 1.235 . S
C176 C177 1.170 . S
C176 C178 1.380 . S
C177 C176 1.170 . S
C178 C176 1.380 . S
C178 C179 1.170 . S
C179 C178 1.170 . S
C180 C181 1.170 . S
C180 C182 1.380 . S
C181 C180 1.170 . S
C182 C180 1.380 . S
C182 C183 1.170 . S
C183 C182 1.170 . S
C184 C185 1.170 . S
C184 C186 1.380 . S
C185 C184 1.170 . S
C186 C184 1.380 . S
C186 C187 1.170 . S
C187 C186 1.170 . S
C188 C189 1.170 . S
C188 C190 1.380 . S
C189 C188 1.170 . S
C190 C188 1.380 . S
C190 C191 1.170 . S
C191 C190 1.170 . S
C192 C193 1.170 . S
C192 C194 1.380 1_455 S
C193 C192 1.170 . S
C194 C192 1.380 1_655 S
C194 C195 1.170 . S
C195 C194 1.170 . S
C196 C197 1.170 . S
C196 C198 1.380 1_655 S
C197 C196 1.170 . S
C198 C196 1.380 1_455 S
C198 C199 1.170 . S
C199 C198 1.170 . S
C200 C201 1.170 . S
C200 C202 1.380 1_655 S
C201 C200 1.170 . S
C202 C200 1.380 1_455 S
C202 C203 1.170 . S
C203 C202 1.170 . S
C204 C205 1.170 . S
C204 C206 1.380 1_455 S
C205 C204 1.170 . S
C206 C204 1.380 1_655 S
C206 C207 1.170 . S
C207 C206 1.170 . S
C208 C209 1.170 . S
C208 C210 1.380 1_656 S
C209 C208 1.170 . S
C210 C208 1.380 1_454 S
C210 C211 1.170 . S
C211 C210 1.170 . S
C212 C213 1.170 . S
C212 C214 1.380 1_454 S
C213 C212 1.170 . S
C214 C212 1.380 1_656 S
C214 C215 1.170 . S
C215 C214 1.170 . S
C216 C217 1.170 . S
C216 C218 1.380 1_554 S
C217 C216 1.170 . S
C218 C216 1.380 1_556 S
C218 C219 1.170 . S
C219 C218 1.170 . S
C220 C221 1.170 . S
C220 C222 1.380 1_554 S
C221 C220 1.170 . S
C222 C220 1.380 1_556 S
C222 C223 1.170 . S
C223 C222 1.170 . S
C224 C225 1.170 . S
C224 C226 1.380 . S
C225 C224 1.170 . S
C226 C224 1.380 . S
C226 C227 1.170 . S
C227 C226 1.170 . S
C228 C229 1.170 . S
C228 C230 1.380 . S
C229 C228 1.170 . S
C230 C228 1.380 . S
C230 C231 1.170 . S
C231 C230 1.170 . S
C232 C233 1.170 . S
C232 C234 1.380 1_565 S
C233 C232 1.170 . S
C234 C232 1.380 1_545 S
C234 C235 1.170 . S
C235 C234 1.170 . S
C236 C237 1.170 . S
C236 C238 1.380 1_565 S
C237 C236 1.170 . S
C238 C236 1.380 1_545 S
C238 C239 1.170 . S
C239 C238 1.170 . S
C240 C241 1.170 . S
C240 C242 1.380 . S
C241 C240 1.170 . S
C242 C240 1.380 . S
C242 C243 1.170 . S
C243 C242 1.170 . S
C244 C245 1.170 . S
C244 C246 1.380 . S
C245 C244 1.170 . S
C246 C244 1.380 . S
C246 C247 1.170 . S
C247 C246 1.170 . S
C248 C249 1.170 . S
C248 C250 1.380 . S
C249 C248 1.170 . S
C250 C248 1.380 . S
C250 C251 1.170 . S
C251 C250 1.170 . S
C252 C253 1.170 . S
C252 C254 1.380 . S
C253 C252 1.170 . S
C254 C252 1.380 . S
C254 C255 1.170 . S
C255 C254 1.170 . S
C256 C257 1.170 . S
C256 C258 1.380 1_554 S
C257 C256 1.170 . S
C258 C256 1.380 1_556 S
C258 C259 1.170 . S
C259 C258 1.170 . S
C260 C261 1.170 . S
C260 C262 1.380 1_554 S
C261 C260 1.170 . S
C262 C260 1.380 1_556 S
C262 C263 1.170 . S
C263 C262 1.170 . S
C264 C265 1.170 . S
C264 C266 1.380 1_556 S
C265 C264 1.170 . S
C266 C264 1.380 1_554 S
C266 C267 1.170 . S
C267 C266 1.170 . S
C268 C269 1.170 . S
C268 C270 1.380 1_554 S
C269 C268 1.170 . S
C270 C268 1.380 1_556 S
C270 C271 1.170 . S
C271 C270 1.170 . S
C177 C175 1.430 . S
C179 C18 1.407 . S
C181 C40 1.418 . S
C183 C153 1.433 . S
C185 C117 1.420 . S
C187 C62 1.424 . S
C189 C74 1.420 . S
C191 C103 1.430 . S
C193 C81 1.407 . S
C195 C106 1.386 . S
C197 C65 1.411 . S
C199 C118 1.384 . S
C201 C37 1.427 . S
C203 C150 1.392 . S
C205 C15 1.424 . S
C207 C172 1.395 . S
C209 C43 1.636 . S
C211 C21 1.640 . S
C213 C73 1.639 . S
C215 C59 1.640 . S
C217 C109 1.635 . S
C219 C125 1.634 . S
C221 C169 1.639 . S
C223 C147 1.639 . S
C225 C84 1.471 . S
C227 C8 1.473 . S
C229 C54 1.472 . S
C231 C30 1.473 . S
C233 C96 1.466 . S
C235 C164 1.456 . S
C237 C120 1.469 . S
C239 C142 1.460 . S
C241 C140 1.834 . S
C243 C10 1.826 . S
C245 C32 1.847 . S
C247 C162 1.811 . S
C249 C98 1.814 . S
C251 C52 1.829 . S
C253 C128 1.849 . S
C255 C76 1.799 . S
C257 C7 1.128 . S
C259 C139 1.136 . S
C261 C161 1.096 . S
C263 C29 1.147 . S
C265 C51 1.099 . S
C267 C95 1.131 . S
C269 C87 1.129 . S
C271 C131 1.134 . S
