# Generated by pormake.
# Topology umc, (4)-cn, num edge types: 1
# Building blocks:
#     Node 0, Type 0, BuildingBlock: NAWXER_clean_sbu_0, # of connection points: 4
#     Node 1, Type 0, BuildingBlock: NAWXER_clean_sbu_0, # of connection points: 4
#     Node 2, Type 0, BuildingBlock: NAWXER_clean_sbu_0, # of connection points: 4
#     Node 3, Type 0, BuildingBlock: NAWXER_clean_sbu_0, # of connection points: 4
#     Node 4, Type 0, BuildingBlock: NAWXER_clean_sbu_0, # of connection points: 4
#     Node 5, Type 0, BuildingBlock: NAWXER_clean_sbu_0, # of connection points: 4
#     Node 6, Type 0, BuildingBlock: NAWXER_clean_sbu_0, # of connection points: 4
#     Node 7, Type 0, BuildingBlock: NAWXER_clean_sbu_0, # of connection points: 4
#     Node 8, Type 0, BuildingBlock: NAWXER_clean_sbu_0, # of connection points: 4
#     Node 9, Type 0, BuildingBlock: NAWXER_clean_sbu_0, # of connection points: 4
#     Node 10, Type 0, BuildingBlock: NAWXER_clean_sbu_0, # of connection points: 4
#     Node 11, Type 0, BuildingBlock: NAWXER_clean_sbu_0, # of connection points: 4
#     Node 12, Type 0, BuildingBlock: NAWXER_clean_sbu_0, # of connection points: 4
#     Node 13, Type 0, BuildingBlock: NAWXER_clean_sbu_0, # of connection points: 4
#     Node 14, Type 0, BuildingBlock: NAWXER_clean_sbu_0, # of connection points: 4
#     Node 15, Type 0, BuildingBlock: NAWXER_clean_sbu_0, # of connection points: 4
#     Edge 16, Type (0, 0), BuildingBlock: UVAHIK_clean_linker_0, # of connection points: 2
#     Edge 17, Type (0, 0), BuildingBlock: UVAHIK_clean_linker_0, # of connection points: 2
#     Edge 18, Type (0, 0), BuildingBlock: UVAHIK_clean_linker_0, # of connection points: 2
#     Edge 19, Type (0, 0), BuildingBlock: UVAHIK_clean_linker_0, # of connection points: 2
#     Edge 20, Type (0, 0), BuildingBlock: UVAHIK_clean_linker_0, # of connection points: 2
#     Edge 21, Type (0, 0), BuildingBlock: UVAHIK_clean_linker_0, # of connection points: 2
#     Edge 22, Type (0, 0), BuildingBlock: UVAHIK_clean_linker_0, # of connection points: 2
#     Edge 23, Type (0, 0), BuildingBlock: UVAHIK_clean_linker_0, # of connection points: 2
#     Edge 24, Type (0, 0), BuildingBlock: UVAHIK_clean_linker_0, # of connection points: 2
#     Edge 25, Type (0, 0), BuildingBlock: UVAHIK_clean_linker_0, # of connection points: 2
#     Edge 26, Type (0, 0), BuildingBlock: UVAHIK_clean_linker_0, # of connection points: 2
#     Edge 27, Type (0, 0), BuildingBlock: UVAHIK_clean_linker_0, # of connection points: 2
#     Edge 28, Type (0, 0), BuildingBlock: UVAHIK_clean_linker_0, # of connection points: 2
#     Edge 29, Type (0, 0), BuildingBlock: UVAHIK_clean_linker_0, # of connection points: 2
#     Edge 30, Type (0, 0), BuildingBlock: UVAHIK_clean_linker_0, # of connection points: 2
#     Edge 31, Type (0, 0), BuildingBlock: UVAHIK_clean_linker_0, # of connection points: 2
#     Edge 32, Type (0, 0), BuildingBlock: UVAHIK_clean_linker_0, # of connection points: 2
#     Edge 33, Type (0, 0), BuildingBlock: UVAHIK_clean_linker_0, # of connection points: 2
#     Edge 34, Type (0, 0), BuildingBlock: UVAHIK_clean_linker_0, # of connection points: 2
#     Edge 35, Type (0, 0), BuildingBlock: UVAHIK_clean_linker_0, # of connection points: 2
#     Edge 36, Type (0, 0), BuildingBlock: UVAHIK_clean_linker_0, # of connection points: 2
#     Edge 37, Type (0, 0), BuildingBlock: UVAHIK_clean_linker_0, # of connection points: 2
#     Edge 38, Type (0, 0), BuildingBlock: UVAHIK_clean_linker_0, # of connection points: 2
#     Edge 39, Type (0, 0), BuildingBlock: UVAHIK_clean_linker_0, # of connection points: 2
#     Edge 40, Type (0, 0), BuildingBlock: UVAHIK_clean_linker_0, # of connection points: 2
#     Edge 41, Type (0, 0), BuildingBlock: UVAHIK_clean_linker_0, # of connection points: 2
#     Edge 42, Type (0, 0), BuildingBlock: UVAHIK_clean_linker_0, # of connection points: 2
#     Edge 43, Type (0, 0), BuildingBlock: UVAHIK_clean_linker_0, # of connection points: 2
#     Edge 44, Type (0, 0), BuildingBlock: UVAHIK_clean_linker_0, # of connection points: 2
#     Edge 45, Type (0, 0), BuildingBlock: UVAHIK_clean_linker_0, # of connection points: 2
#     Edge 46, Type (0, 0), BuildingBlock: UVAHIK_clean_linker_0, # of connection points: 2
#     Edge 47, Type (0, 0), BuildingBlock: UVAHIK_clean_linker_0, # of connection points: 2
# Relax obj value: 0.015
# Max RMSD: 0.104
# Mean RMSD: 0.104
data_MOF--net-umc--node1-NAWXER_clean_sbu_0--edge1-UVAHIK_clean_linker_0
_symmetry_space_group_name_H-M    P1
_symmetry_Int_Tables_number       1
_symmetry_cell_setting            triclinic
loop_
_symmetry_equiv_pos_as_xyz
'x, y, z'
_cell_length_a     70.545903
_cell_length_b     28.145909
_cell_length_c     74.004469
_cell_angle_alpha  89.765094
_cell_angle_beta   90.010467
_cell_angle_gamma 90.469416
loop_
_atom_site_label
_atom_site_type_symbol
_atom_site_fract_x
_atom_site_fract_y
_atom_site_fract_z
_atom_type_partial_charge
C0 C 0.3944 0.15252 0.41363 0.0
C1 C 0.38904 0.11782 0.34895 0.0
O2 O 0.40063 0.17893 0.40089 0.0
Zn3 Zn 0.39148 0.13909 0.38112 0.0
O4 O 0.38508 0.11455 0.40988 0.0
Zn5 Zn 0.37543 0.07525 0.38703 0.0
O6 O 0.38813 0.01509 0.39068 0.0
O7 O 0.40761 0.07573 0.38558 0.0
O8 O 0.38087 0.08749 0.35932 0.0
O9 O 0.39686 0.15452 0.35575 0.0
O10 O 0.36169 0.14873 0.3832 0.0
O11 O 0.34809 0.0794 0.38883 0.0
C12 C 0.40492 0.03149 0.38907 0.0
C13 C 0.34671 0.12391 0.38619 0.0
C14 C 0.65668 0.80737 0.37796 0.0
C15 C 0.59091 0.85664 0.38206 0.0
O16 O 0.65544 0.85148 0.3821 0.0
Zn17 Zn 0.6329 0.90161 0.38638 0.0
O18 O 0.64167 0.78357 0.37498 0.0
Zn19 Zn 0.62375 0.8334 0.37925 0.0
O20 O 0.62745 0.88252 0.35666 0.0
O21 O 0.6369 0.95032 0.36854 0.0
O22 O 0.59731 0.81651 0.37734 0.0
O23 O 0.60252 0.89069 0.38564 0.0
O24 O 0.63662 0.91996 0.41098 0.0
O25 O 0.62644 0.84608 0.40823 0.0
C26 C 0.63236 0.92634 0.35471 0.0
C27 C 0.63144 0.8811 0.4183 0.0
C28 C 0.38085 0.91088 0.10229 0.0
C29 C 0.38354 0.95806 0.16531 0.0
O30 O 0.38583 0.8762 0.11253 0.0
Zn31 Zn 0.39011 0.86436 0.14119 0.0
O32 O 0.37706 0.9508 0.10929 0.0
Zn33 Zn 0.38189 0.93357 0.13389 0.0
O34 O 0.41204 0.92127 0.13368 0.0
O35 O 0.41675 0.84719 0.1422 0.0
O36 O 0.37941 0.98287 0.15153 0.0
O37 O 0.38757 0.91394 0.16337 0.0
O38 O 0.37114 0.81615 0.14669 0.0
O39 O 0.35869 0.8855 0.13989 0.0
C40 C 0.42345 0.88711 0.13711 0.0
C41 C 0.35656 0.84173 0.14446 0.0
C42 C 0.62672 0.13039 0.17552 0.0
C43 C 0.62378 0.18843 0.11269 0.0
O44 O 0.61873 0.16847 0.17031 0.0
Zn45 Zn 0.62488 0.16304 0.14444 0.0
O46 O 0.63555 0.10497 0.16401 0.0
Zn47 Zn 0.64206 0.10341 0.13611 0.0
O48 O 0.66966 0.1117 0.13579 0.0
O49 O 0.65464 0.17684 0.14366 0.0
O50 O 0.63368 0.15092 0.115 0.0
O51 O 0.61556 0.20756 0.12613 0.0
O52 O 0.60957 0.10097 0.13665 0.0
O53 O 0.62932 0.04386 0.1291 0.0
C54 C 0.67017 0.15539 0.14021 0.0
C55 C 0.61242 0.05853 0.13118 0.0
C56 C 0.62825 0.91143 0.61109 0.0
C57 C 0.62842 0.94984 0.6759 0.0
O58 O 0.63798 0.94825 0.6155 0.0
Zn59 Zn 0.64649 0.98737 0.63877 0.0
O60 O 0.6204 0.88625 0.62339 0.0
Zn61 Zn 0.62878 0.92531 0.64384 0.0
O62 O 0.61421 0.99005 0.63793 0.0
O63 O 0.63477 0.04892 0.63382 0.0
O64 O 0.62101 0.91272 0.66899 0.0
O65 O 0.63803 0.97835 0.66593 0.0
O66 O 0.67401 0.97846 0.63926 0.0
O67 O 0.65831 0.91157 0.64396 0.0
C68 C 0.61768 0.03393 0.63446 0.0
C69 C 0.67409 0.93379 0.64203 0.0
C70 C 0.39121 0.17692 0.6051 0.0
C71 C 0.38796 0.12879 0.66814 0.0
O72 O 0.38642 0.13713 0.61192 0.0
Zn73 Zn 0.38889 0.1545 0.63669 0.0
O74 O 0.39525 0.21184 0.61559 0.0
Zn75 Zn 0.39671 0.22347 0.64464 0.0
O76 O 0.42323 0.24146 0.6476 0.0
O77 O 0.41896 0.1676 0.63859 0.0
O78 O 0.39235 0.17308 0.6667 0.0
O79 O 0.38471 0.10488 0.65397 0.0
O80 O 0.36547 0.20192 0.6405 0.0
O81 O 0.37743 0.27136 0.64836 0.0
C82 C 0.43017 0.20194 0.64278 0.0
C83 C 0.36306 0.24558 0.64478 0.0
C84 C 0.62937 0.15152 0.92483 0.0
C85 C 0.63194 0.10186 0.86132 0.0
O86 O 0.63711 0.11093 0.92242 0.0
Zn87 Zn 0.64517 0.06546 0.90052 0.0
O88 O 0.62446 0.17623 0.91119 0.0
Zn89 Zn 0.63176 0.13072 0.89272 0.0
O90 O 0.61315 0.07205 0.89876 0.0
O91 O 0.63005 0.00877 0.90581 0.0
O92 O 0.62612 0.14166 0.86715 0.0
O93 O 0.63927 0.07217 0.8724 0.0
O94 O 0.67287 0.06446 0.90148 0.0
O95 O 0.66186 0.13456 0.89361 0.0
C96 C 0.61399 0.02817 0.90339 0.0
C97 C 0.67594 0.10753 0.89704 0.0
C98 C 0.38118 0.87287 0.9083 0.0
C99 C 0.38424 0.90543 0.84407 0.0
O100 O 0.37555 0.90859 0.89935 0.0
Zn101 Zn 0.3824 0.88611 0.87613 0.0
O102 O 0.38845 0.83747 0.89991 0.0
Zn103 Zn 0.39454 0.82037 0.8716 0.0
O104 O 0.42146 0.81066 0.87227 0.0
O105 O 0.41315 0.88427 0.87821 0.0
O106 O 0.39078 0.86376 0.84734 0.0
O107 O 0.37783 0.92983 0.857 0.0
O108 O 0.36223 0.8286 0.87205 0.0
O109 O 0.37929 0.7646 0.86752 0.0
C110 C 0.42612 0.85284 0.87647 0.0
C111 C 0.36317 0.78376 0.86905 0.0
C112 C 0.88587 0.68559 0.4227 0.0
C113 C 0.89026 0.6213 0.36069 0.0
O114 O 0.89228 0.70816 0.40901 0.0
Zn115 Zn 0.88798 0.65726 0.39129 0.0
O116 O 0.87972 0.64289 0.42083 0.0
Zn117 Zn 0.87664 0.58959 0.40041 0.0
O118 O 0.89403 0.54084 0.40908 0.0
O119 O 0.90821 0.60767 0.4007 0.0
O120 O 0.88366 0.5921 0.37245 0.0
O121 O 0.89448 0.6635 0.3655 0.0
O122 O 0.85785 0.65112 0.3908 0.0
O123 O 0.84927 0.57938 0.39996 0.0
C124 C 0.90912 0.5655 0.40715 0.0
C125 C 0.84478 0.62052 0.39427 0.0
C126 C 0.12117 0.27858 0.41447 0.0
C127 C 0.11988 0.3431 0.35225 0.0
O128 O 0.11458 0.2562 0.40086 0.0
Zn129 Zn 0.11968 0.30713 0.38301 0.0
O130 O 0.12748 0.32106 0.41254 0.0
Zn131 Zn 0.13145 0.37442 0.39244 0.0
O132 O 0.11405 0.42339 0.40061 0.0
O133 O 0.09958 0.35794 0.39145 0.0
O134 O 0.12604 0.37179 0.36432 0.0
O135 O 0.11479 0.30125 0.35686 0.0
O136 O 0.14975 0.31148 0.3841 0.0
O137 O 0.15891 0.38255 0.39338 0.0
C138 C 0.09879 0.39995 0.39796 0.0
C139 C 0.16304 0.34075 0.38823 0.0
C140 C 0.88862 0.40838 0.11166 0.0
C141 C 0.88881 0.45092 0.17666 0.0
O142 O 0.89602 0.3829 0.12407 0.0
Zn143 Zn 0.88837 0.42329 0.14462 0.0
O144 O 0.87955 0.44588 0.11601 0.0
Zn145 Zn 0.87171 0.4868 0.13891 0.0
O146 O 0.88496 0.54687 0.13334 0.0
O147 O 0.90405 0.48594 0.13802 0.0
O148 O 0.87975 0.47898 0.1662 0.0
O149 O 0.89577 0.41291 0.17022 0.0
O150 O 0.85867 0.41201 0.14468 0.0
O151 O 0.84396 0.47933 0.13925 0.0
C152 C 0.90165 0.5298 0.13404 0.0
C153 C 0.84323 0.43485 0.14245 0.0
C154 C 0.09679 0.62774 0.1446 0.0
C155 C 0.16499 0.65499 0.1501 0.0
O156 O 0.10627 0.59011 0.14103 0.0
Zn157 Zn 0.13596 0.56939 0.14103 0.0
O158 O 0.10554 0.66499 0.14964 0.0
Zn159 Zn 0.13077 0.63958 0.14808 0.0
O160 O 0.13349 0.62632 0.11905 0.0
O161 O 0.13931 0.54981 0.11655 0.0
O162 O 0.15134 0.68308 0.1529 0.0
O163 O 0.16134 0.61174 0.14576 0.0
O164 O 0.13689 0.51975 0.15893 0.0
O165 O 0.13126 0.58986 0.17073 0.0
C166 C 0.13676 0.58995 0.1091 0.0
C167 C 0.13364 0.5449 0.17274 0.0
C168 C 0.12805 0.31054 0.60358 0.0
C169 C 0.12553 0.37152 0.66589 0.0
O170 O 0.13236 0.35463 0.60526 0.0
Zn171 Zn 0.1345 0.40803 0.62556 0.0
O172 O 0.12347 0.28626 0.61749 0.0
Zn173 Zn 0.12673 0.3377 0.63511 0.0
O174 O 0.10361 0.38208 0.62796 0.0
O175 O 0.11429 0.4517 0.61847 0.0
O176 O 0.12269 0.32858 0.66115 0.0
O177 O 0.12989 0.40262 0.65388 0.0
O178 O 0.16141 0.42555 0.62439 0.0
O179 O 0.15649 0.35203 0.63384 0.0
C180 C 0.10039 0.42387 0.62185 0.0
C181 C 0.16799 0.38588 0.62972 0.0
C182 C 0.8484 0.66731 0.64139 0.0
C183 C 0.90948 0.5893 0.62941 0.0
O184 O 0.86323 0.69212 0.64493 0.0
Zn185 Zn 0.89323 0.68729 0.64499 0.0
O186 O 0.85022 0.62434 0.63633 0.0
Zn187 Zn 0.87811 0.6231 0.63619 0.0
O188 O 0.88507 0.62384 0.66398 0.0
O189 O 0.89961 0.69075 0.67108 0.0
O190 O 0.89331 0.56923 0.62761 0.0
O191 O 0.91053 0.63146 0.63574 0.0
O192 O 0.89993 0.73583 0.62651 0.0
O193 O 0.88385 0.67443 0.61571 0.0
C194 C 0.89307 0.65022 0.67583 0.0
C195 C 0.89198 0.71475 0.61324 0.0
C196 C 0.14407 0.5649 0.9156 0.0
C197 C 0.13909 0.52408 0.85098 0.0
O198 O 0.15158 0.52536 0.91108 0.0
Zn199 Zn 0.1566 0.48278 0.8878 0.0
O200 O 0.13691 0.59144 0.90342 0.0
Zn201 Zn 0.14203 0.54941 0.8829 0.0
O202 O 0.12455 0.49022 0.88997 0.0
O203 O 0.14179 0.42556 0.89369 0.0
O204 O 0.13358 0.56281 0.85803 0.0
O205 O 0.1477 0.49358 0.8608 0.0
O206 O 0.18429 0.48287 0.88598 0.0
O207 O 0.17199 0.55342 0.8809 0.0
C208 C 0.12571 0.44587 0.8937 0.0
C209 C 0.18655 0.52677 0.88229 0.0
C210 C 0.89073 0.38801 0.91791 0.0
C211 C 0.8901 0.43485 0.85414 0.0
O212 O 0.88706 0.42795 0.91073 0.0
Zn213 Zn 0.88959 0.40908 0.88601 0.0
O214 O 0.89422 0.35235 0.90764 0.0
Zn215 Zn 0.89594 0.3403 0.87833 0.0
O216 O 0.92136 0.31778 0.87581 0.0
O217 O 0.9197 0.39204 0.885 0.0
O218 O 0.89351 0.39025 0.85582 0.0
O219 O 0.88682 0.45891 0.86822 0.0
O220 O 0.86498 0.36262 0.88263 0.0
O221 O 0.87651 0.29373 0.87422 0.0
C222 C 0.92965 0.35556 0.88092 0.0
C223 C 0.86232 0.31895 0.87821 0.0
C224 C 0.40261 0.20934 0.43887 0.0
C225 C 0.39809 0.16329 0.43286 0.0
C226 C 0.40496 0.21826 0.45741 0.0
C227 C 0.41477 0.15671 0.50061 0.0
H228 H 0.38464 0.25443 0.52331 0.0
C229 C 0.39143 0.14195 0.57413 0.0
C230 C 0.39309 0.18207 0.58526 0.0
C231 C 0.39431 0.14579 0.55554 0.0
C232 C 0.39338 0.22752 0.51713 0.0
H233 H 0.39308 0.09039 0.44147 0.0
H234 H 0.39723 0.10581 0.47334 0.0
H235 H 0.38674 0.2511 0.49025 0.0
H236 H 0.39864 0.25803 0.5855 0.0
H237 H 0.40346 0.26472 0.55279 0.0
H238 H 0.42083 0.13186 0.52731 0.0
C239 C 0.39901 0.13509 0.46393 0.0
C240 C 0.39463 0.22572 0.49825 0.0
C241 C 0.39645 0.12636 0.44561 0.0
C242 C 0.39728 0.22642 0.57729 0.0
C243 C 0.40001 0.23032 0.55858 0.0
C244 C 0.41348 0.1584 0.51939 0.0
C245 C 0.40318 0.18106 0.47009 0.0
C246 C 0.40481 0.18924 0.48982 0.0
C247 C 0.39883 0.18986 0.54758 0.0
C248 C 0.40226 0.19279 0.52783 0.0
H249 H 0.40392 0.23847 0.42934 0.0
H250 H 0.40818 0.25407 0.46183 0.0
H251 H 0.42301 0.12873 0.49449 0.0
H252 H 0.38818 0.10727 0.57978 0.0
H253 H 0.39296 0.11412 0.54735 0.0
C254 C 0.61875 0.85715 0.5853 0.0
C255 C 0.62594 0.90085 0.59158 0.0
C256 C 0.61704 0.84877 0.56663 0.0
C257 C 0.61301 0.91354 0.52339 0.0
H258 H 0.63572 0.80378 0.50079 0.0
C259 C 0.63445 0.91695 0.44907 0.0
C260 C 0.63024 0.87728 0.43828 0.0
C261 C 0.63218 0.91482 0.46779 0.0
C262 C 0.62906 0.83426 0.50693 0.0
H263 H 0.63679 0.96997 0.58314 0.0
H264 H 0.63371 0.95547 0.55112 0.0
H265 H 0.63392 0.80823 0.53387 0.0
H266 H 0.62081 0.8037 0.43884 0.0
H267 H 0.61694 0.80002 0.47172 0.0
H268 H 0.60854 0.94033 0.49668 0.0
C269 C 0.62933 0.9277 0.56044 0.0
C270 C 0.62799 0.83672 0.52584 0.0
C271 C 0.63122 0.93582 0.57888 0.0
C272 C 0.62416 0.83494 0.44676 0.0
C273 C 0.62198 0.83275 0.46558 0.0
C274 C 0.61407 0.91111 0.50461 0.0
C275 C 0.62217 0.88428 0.55406 0.0
C276 C 0.62048 0.87713 0.53424 0.0
C277 C 0.62568 0.87296 0.47626 0.0
C278 C 0.62263 0.87219 0.49615 0.0
H279 H 0.61461 0.82948 0.59475 0.0
H280 H 0.6115 0.81491 0.56205 0.0
H281 H 0.60681 0.94472 0.52948 0.0
H282 H 0.63925 0.95006 0.44305 0.0
H283 H 0.63554 0.94615 0.47566 0.0
C284 C 0.37365 0.94174 0.07126 0.0
C285 C 0.37994 0.90463 0.08246 0.0
C286 C 0.37333 0.93641 0.05251 0.0
C287 C 0.37399 0.84631 0.01618 0.0
H288 H 0.39027 0.95337 0.98674 0.0
C289 C 0.38659 0.83489 0.93867 0.0
C290 C 0.37998 0.87328 0.92828 0.0
C291 C 0.38623 0.83686 0.95757 0.0
C292 C 0.38551 0.92328 0.99476 0.0
H293 H 0.39064 0.83256 0.08271 0.0
H294 H 0.39033 0.82354 0.04996 0.0
H295 H 0.39029 0.96039 0.0195 0.0
H296 H 0.36739 0.94333 0.92963 0.0
H297 H 0.36671 0.94654 0.96243 0.0
H298 H 0.36936 0.80918 0.9913 0.0
C299 C 0.3854 0.85655 0.0557 0.0
C300 C 0.38549 0.92733 0.01355 0.0
C301 C 0.38568 0.86183 0.07448 0.0
C302 C 0.3727 0.9132 0.93719 0.0
C303 C 0.3724 0.91521 0.95601 0.0
C304 C 0.37408 0.84221 0.99734 0.0
C305 C 0.37935 0.89391 0.04449 0.0
C306 C 0.3796 0.88904 0.02449 0.0
C307 C 0.37935 0.87733 0.96643 0.0
C308 C 0.3797 0.88081 0.98644 0.0
H309 H 0.36902 0.97507 0.07697 0.0
H310 H 0.36827 0.96561 0.0443 0.0
H311 H 0.36919 0.81629 0.02421 0.0
H312 H 0.39229 0.80363 0.93222 0.0
H313 H 0.39178 0.80722 0.96525 0.0
C314 C 0.62348 0.21588 0.94778 0.0
C315 C 0.62556 0.16754 0.94353 0.0
C316 C 0.62049 0.22995 0.96575 0.0
C317 C 0.60314 0.18638 1.00975 0.0
H318 H 0.63943 0.27297 0.03158 0.0
C319 C 0.63794 0.20694 0.08279 0.0
C320 C 0.622 0.20735 0.09414 0.0
C321 C 0.63612 0.21567 0.06429 0.0
C322 C 0.62901 0.24929 0.02561 0.0
H323 H 0.62554 0.0961 0.95466 0.0
H324 H 0.61996 0.1205 0.98569 0.0
H325 H 0.63979 0.26072 0.9988 0.0
H326 H 0.59174 0.21884 0.09527 0.0
H327 H 0.58839 0.23304 0.06259 0.0
H328 H 0.59283 0.17342 0.03656 0.0
C329 C 0.62076 0.14756 0.97525 0.0
C330 C 0.62917 0.24246 1.00687 0.0
C331 C 0.62412 0.13364 0.95748 0.0
C332 C 0.60426 0.21889 0.0868 0.0
C333 C 0.60235 0.22665 0.06813 0.0
C334 C 0.6028 0.19373 0.02843 0.0
C335 C 0.61905 0.19581 0.97963 0.0
C336 C 0.61666 0.20969 0.99884 0.0
C337 C 0.61823 0.22403 0.05664 0.0
C338 C 0.61614 0.22405 0.03664 0.0
H339 H 0.62454 0.24278 0.93732 0.0
H340 H 0.61925 0.2674 0.96879 0.0
H341 H 0.59327 0.16109 1.00389 0.0
H342 H 0.65177 0.19792 0.08813 0.0
H343 H 0.64858 0.21286 0.05582 0.0
C344 C 0.87507 0.72784 0.58442 0.0
C345 C 0.89164 0.73444 0.59465 0.0
C346 C 0.87528 0.73367 0.56571 0.0
C347 C 0.89959 0.77853 0.52538 0.0
H348 H 0.87959 0.66263 0.50426 0.0
C349 C 0.90127 0.73322 0.44764 0.0
C350 C 0.88591 0.70616 0.44111 0.0
C351 C 0.90265 0.74397 0.46617 0.0
C352 C 0.88496 0.69564 0.50982 0.0
H353 H 0.92119 0.75553 0.59345 0.0
H354 H 0.92156 0.76607 0.56031 0.0
H355 H 0.88088 0.67054 0.53682 0.0
H356 H 0.85926 0.67262 0.44844 0.0
H357 H 0.86116 0.69294 0.48024 0.0
H358 H 0.90334 0.80379 0.4981 0.0
C359 C 0.90839 0.75655 0.56696 0.0
C360 C 0.8858 0.70001 0.52855 0.0
C361 C 0.90816 0.75077 0.5859 0.0
C362 C 0.87138 0.69304 0.45312 0.0
C363 C 0.8726 0.70432 0.47142 0.0
C364 C 0.89858 0.77431 0.50643 0.0
C365 C 0.89211 0.74598 0.55666 0.0
C366 C 0.89278 0.74172 0.5366 0.0
C367 C 0.8886 0.72817 0.47839 0.0
C368 C 0.89087 0.73307 0.49842 0.0
H369 H 0.86211 0.71541 0.59081 0.0
H370 H 0.86244 0.72605 0.55819 0.0
H371 H 0.90511 0.81102 0.53123 0.0
H372 H 0.91274 0.74349 0.43868 0.0
H373 H 0.91516 0.76246 0.47102 0.0
C374 C 0.1407 0.30927 0.57232 0.0
C375 C 0.12816 0.29003 0.58518 0.0
C376 C 0.13921 0.29696 0.55417 0.0
C377 C 0.11834 0.21399 0.5208 0.0
H378 H 0.12423 0.32438 0.48968 0.0
C379 C 0.1061 0.23659 0.44107 0.0
C380 C 0.12203 0.25776 0.43281 0.0
C381 C 0.10573 0.22966 0.45993 0.0
C382 C 0.1225 0.29322 0.49819 0.0
H383 H 0.10485 0.24062 0.58927 0.0
H384 H 0.10198 0.2194 0.55711 0.0
H385 H 0.12556 0.33395 0.52225 0.0
H386 H 0.15056 0.28412 0.43734 0.0
H387 H 0.14996 0.27174 0.4699 0.0
H388 H 0.11524 0.17358 0.49624 0.0
C389 C 0.11308 0.24382 0.56124 0.0
C390 C 0.1234 0.29858 0.51687 0.0
C391 C 0.11473 0.25588 0.57962 0.0
C392 C 0.13808 0.26788 0.44337 0.0
C393 C 0.13774 0.2609 0.46201 0.0
C394 C 0.1173 0.20865 0.50191 0.0
C395 C 0.12492 0.2656 0.54824 0.0
C396 C 0.12193 0.25897 0.52844 0.0
C397 C 0.12131 0.24377 0.47057 0.0
C398 C 0.11988 0.24821 0.49049 0.0
H399 H 0.15138 0.33514 0.57623 0.0
H400 H 0.14897 0.31327 0.54465 0.0
H401 H 0.11706 0.18282 0.52935 0.0
H402 H 0.09347 0.22903 0.43323 0.0
H403 H 0.09287 0.21659 0.46628 0.0
C404 C 0.8881 0.42306 0.94889 0.0
C405 C 0.89158 0.38338 0.93794 0.0
C406 C 0.88963 0.4199 0.96768 0.0
C407 C 0.88963 0.33647 1.00642 0.0
H408 H 0.91189 0.44496 0.03088 0.0
C409 C 0.89798 0.35465 0.08558 0.0
C410 C 0.89092 0.39802 0.09207 0.0
C411 C 0.89995 0.34708 0.06685 0.0
C412 C 0.90567 0.4143 0.02426 0.0
H413 H 0.89908 0.30879 0.93834 0.0
H414 H 0.90178 0.30333 0.9713 0.0
H415 H 0.91153 0.44273 0.99802 0.0
H416 H 0.88047 0.46727 0.08379 0.0
H417 H 0.88402 0.4542 0.05177 0.0
H418 H 0.88351 0.30867 0.03294 0.0
C419 C 0.8978 0.33689 0.96525 0.0
C420 C 0.90537 0.41312 1.00541 0.0
C421 C 0.89631 0.34009 0.94635 0.0
C422 C 0.88594 0.43333 0.07945 0.0
C423 C 0.8881 0.42604 0.06098 0.0
C424 C 0.88997 0.33763 0.02541 0.0
C425 C 0.89471 0.37698 0.97613 0.0
C426 C 0.89684 0.37493 0.99621 0.0
C427 C 0.89522 0.38309 0.05439 0.0
C428 C 0.89751 0.37728 0.03451 0.0
H429 H 0.88431 0.45691 0.94295 0.0
H430 H 0.88674 0.45126 0.97561 0.0
H431 H 0.88295 0.3065 0.99977 0.0
H432 H 0.90191 0.3267 0.09492 0.0
H433 H 0.90546 0.31355 0.06213 0.0
C434 C 0.13209 0.63667 0.08028 0.0
C435 C 0.13702 0.59408 0.08908 0.0
C436 C 0.13155 0.63924 0.06134 0.0
C437 C 0.12769 0.56095 0.02127 0.0
H438 H 0.14799 0.66842 0.99434 0.0
C439 C 0.14983 0.54366 0.94785 0.0
C440 C 0.14298 0.57665 0.93514 0.0
C441 C 0.14775 0.55131 0.96631 0.0
C442 C 0.14202 0.63854 1.00172 0.0
H443 H 0.14579 0.52128 0.08479 0.0
H444 H 0.14516 0.52596 0.05205 0.0
H445 H 0.14708 0.67102 0.0275 0.0
H446 H 0.12914 0.64472 0.93207 0.0
H447 H 0.12577 0.65853 0.96478 0.0
H448 H 0.12323 0.5278 0.99565 0.0
C449 C 0.14126 0.55714 0.05969 0.0
C450 C 0.1415 0.63995 0.02068 0.0
C451 C 0.14176 0.55455 0.07852 0.0
C452 C 0.13453 0.61856 0.94149 0.0
C453 C 0.13263 0.6265 0.96017 0.0
C454 C 0.12833 0.55945 1.00244 0.0
C455 C 0.13591 0.59925 0.05082 0.0
C456 C 0.13478 0.60057 0.03069 0.0
C457 C 0.13889 0.59234 0.97271 0.0
C458 C 0.13593 0.59765 0.99247 0.0
H459 H 0.12834 0.6678 0.08802 0.0
H460 H 0.12731 0.67218 0.05496 0.0
H461 H 0.12191 0.53055 0.02847 0.0
H462 H 0.15653 0.51107 0.94359 0.0
H463 H 0.15301 0.52475 0.97565 0.0
C464 C 0.55703 0.82894 0.37907 0.0
C465 C 0.57028 0.86412 0.38411 0.0
C466 C 0.53758 0.83633 0.38149 0.0
C467 C 0.50416 0.90945 0.4076 0.0
H468 H 0.46947 0.89088 0.36753 0.0
C469 C 0.43872 0.02188 0.39733 0.0
C470 C 0.42163 1.00101 0.39158 0.0
C471 C 0.4551 0.99497 0.39875 0.0
C472 C 0.47888 0.89519 0.37899 0.0
H473 H 0.57346 0.93459 0.3956 0.0
H474 H 0.53976 0.94736 0.39972 0.0
H475 H 0.50211 0.86252 0.36522 0.0
H476 H 0.40814 0.93539 0.38307 0.0
H477 H 0.43727 0.888 0.38515 0.0
H478 H 0.48129 0.9441 0.42102 0.0
C479 C 0.54435 0.91387 0.3941 0.0
C480 C 0.49756 0.87907 0.37766 0.0
C481 C 0.56368 0.9067 0.39158 0.0
C482 C 0.42115 0.95223 0.38759 0.0
C483 C 0.43776 0.92527 0.38871 0.0
C484 C 0.48558 0.92555 0.40891 0.0
C485 C 0.53108 0.87877 0.38917 0.0
C486 C 0.51056 0.88777 0.39169 0.0
C487 C 0.45489 0.94659 0.39425 0.0
C488 C 0.47298 0.92023 0.39435 0.0
H489 H 0.56168 0.79574 0.37328 0.0
H490 H 0.52765 0.80869 0.37756 0.0
H491 H 0.51375 0.91565 0.41879 0.0
H492 H 0.4395 0.05934 0.40061 0.0
H493 H 0.46814 0.01254 0.40281 0.0
C494 C 0.4574 0.86016 0.14014 0.0
C495 C 0.44419 0.89472 0.1348 0.0
C496 C 0.47692 0.86827 0.13787 0.0
C497 C 0.51089 0.94307 0.11185 0.0
H498 H 0.54558 0.92143 0.15163 0.0
C499 C 0.57915 0.05004 0.12084 0.0
C500 C 0.59563 0.02833 0.12741 0.0
C501 C 0.56222 0.02451 0.11941 0.0
C502 C 0.53617 0.92674 0.14025 0.0
H503 H 0.44125 0.96484 0.12285 0.0
H504 H 0.47499 0.97882 0.11897 0.0
H505 H 0.51262 0.89412 0.15401 0.0
H506 H 0.60747 0.96241 0.13727 0.0
H507 H 0.57745 0.91734 0.13503 0.0
H508 H 0.53416 0.97716 0.09834 0.0
C509 C 0.47035 0.94524 0.12473 0.0
C510 C 0.51727 0.91119 0.14162 0.0
C511 C 0.45095 0.93734 0.1271 0.0
C512 C 0.59499 0.97984 0.13201 0.0
C513 C 0.57781 0.95427 0.13087 0.0
C514 C 0.5297 0.95855 0.11048 0.0
C515 C 0.48361 0.91087 0.13004 0.0
C516 C 0.50427 0.92064 0.12767 0.0
C517 C 0.56119 0.97661 0.12473 0.0
C518 C 0.54241 0.95201 0.12489 0.0
H519 H 0.45267 0.82695 0.14613 0.0
H520 H 0.48677 0.84105 0.14207 0.0
H521 H 0.50137 0.9499 0.10067 0.0
H522 H 0.57922 0.08738 0.11719 0.0
H523 H 0.54968 0.04304 0.11486 0.0
C524 C 0.6011 0.11246 0.63783 0.0
C525 C 0.60136 0.06556 0.6314 0.0
C526 C 0.58425 0.13878 0.63724 0.0
C527 C 0.53655 0.14126 0.61587 0.0
H528 H 0.51914 0.19317 0.66135 0.0
C529 C 0.45793 0.15422 0.63277 0.0
C530 C 0.45096 0.19533 0.64111 0.0
C531 C 0.47736 0.14775 0.6305 0.0
C532 C 0.52392 0.17966 0.64846 0.0
H533 H 0.58467 0.01035 0.61849 0.0
H534 H 0.55568 0.05599 0.61718 0.0
H535 H 0.552 0.16673 0.65841 0.0
H536 H 0.4591 0.2617 0.65384 0.0
H537 H 0.49334 0.24986 0.65008 0.0
H538 H 0.50836 0.15216 0.60612 0.0
C539 C 0.56827 0.07274 0.62272 0.0
C540 C 0.54275 0.16464 0.64676 0.0
C541 C 0.58487 0.04642 0.62357 0.0
C542 C 0.46401 0.22966 0.64734 0.0
C543 C 0.48359 0.22288 0.64523 0.0
C544 C 0.5178 0.15609 0.61758 0.0
C545 C 0.56758 0.11885 0.62987 0.0
C546 C 0.54906 0.14369 0.63063 0.0
C547 C 0.49043 0.18201 0.6366 0.0
C548 C 0.51108 0.17388 0.63407 0.0
H549 H 0.61359 0.12786 0.64407 0.0
H550 H 0.58415 0.17429 0.64281 0.0
H551 H 0.54107 0.12611 0.60316 0.0
H552 H 0.44836 0.12697 0.6278 0.0
H553 H 0.48217 0.11546 0.6241 0.0
C554 C 0.57916 0.0259 0.90836 0.0
C555 C 0.59601 1.00111 0.90509 0.0
C556 C 0.56167 1.00266 0.90778 0.0
C557 C 0.53785 0.90228 0.8863 0.0
H558 H 0.49683 0.9371 0.9184 0.0
C559 C 0.4606 0.83132 0.87812 0.0
C560 C 0.44622 0.86523 0.88017 0.0
C561 C 0.47944 0.8426 0.8824 0.0
C562 C 0.50811 0.92718 0.90926 0.0
H563 H 0.60782 0.93205 0.89924 0.0
H564 H 0.57694 0.89102 0.8981 0.0
H565 H 0.52902 0.96415 0.92487 0.0
H566 H 0.44045 0.93781 0.88812 0.0
H567 H 0.47322 0.95749 0.89542 0.0
H568 H 0.51679 0.86625 0.87045 0.0
C569 C 0.5774 0.92864 0.90109 0.0
C570 C 0.52656 0.94252 0.91301 0.0
C571 C 0.59505 0.95197 0.90189 0.0
C572 C 0.45114 0.91078 0.88641 0.0
C573 C 0.46992 0.92196 0.89075 0.0
C574 C 0.51935 0.88685 0.88255 0.0
C575 C 0.56051 0.95399 0.90379 0.0
C576 C 0.54157 0.93132 0.90133 0.0
C577 C 0.48428 0.88793 0.88893 0.0
C578 C 0.5042 0.90018 0.89375 0.0
H579 H 0.57944 0.06377 0.91093 0.0
H580 H 0.54897 0.02341 0.9097 0.0
H581 H 0.54907 0.89343 0.87694 0.0
H582 H 0.4573 0.79586 0.87337 0.0
H583 H 0.49015 0.81554 0.88093 0.0
C584 C 0.94258 0.57956 0.41606 0.0
C585 C 0.92799 0.54706 0.41196 0.0
C586 C 0.96117 0.56432 0.41818 0.0
C587 C 0.99158 0.45881 0.42406 0.0
H588 H 0.02837 0.53681 0.39828 0.0
C589 C 0.06395 0.38919 0.40174 0.0
C590 C 0.07996 0.41926 0.40259 0.0
C591 C 0.04596 0.40619 0.40569 0.0
C592 C 0.01837 0.51511 0.40584 0.0
H593 H 0.92119 0.47276 0.40782 0.0
H594 H 0.95399 0.44583 0.41121 0.0
H595 H 0.99559 0.56242 0.40024 0.0
H596 H 0.0896 0.49079 0.40857 0.0
H597 H 0.05786 0.52088 0.41544 0.0
H598 H 0.01438 0.41088 0.42922 0.0
C599 C 0.95094 0.48318 0.41297 0.0
C600 C 0.99955 0.52971 0.40695 0.0
C601 C 0.93218 0.49849 0.411 0.0
C602 C 0.07755 0.46682 0.40774 0.0
C603 C 0.0594 0.48401 0.41162 0.0
C604 C 0.01043 0.44417 0.42293 0.0
C605 C 0.9657 0.51622 0.41608 0.0
C606 C 0.98588 0.5015 0.4159 0.0
C607 C 0.04342 0.45379 0.41057 0.0
C608 C 0.02396 0.47182 0.41356 0.0
H609 H 0.93971 0.61719 0.4172 0.0
H610 H 0.97209 0.59051 0.42104 0.0
H611 H 0.98146 0.43665 0.43126 0.0
H612 H 0.06523 0.35226 0.39789 0.0
H613 H 0.03396 0.38219 0.40444 0.0
C614 C 0.06486 0.66502 0.14931 0.0
C615 C 0.07589 0.62792 0.14231 0.0
C616 C 0.04516 0.6652 0.14688 0.0
C617 C 1.0075 0.61739 0.11748 0.0
H618 H 0.97427 0.63193 0.15879 0.0
C619 C 0.93317 0.5373 0.11986 0.0
C620 C 0.91878 0.55832 0.13009 0.0
C621 C 0.95124 0.5575 0.11913 0.0
C622 C 0.98327 0.62899 0.147 0.0
H623 H 0.07482 0.56212 0.12718 0.0
H624 H 0.04058 0.56274 0.1228 0.0
H625 H 1.00842 0.64381 0.16237 0.0
H626 H 0.91164 0.61816 0.14695 0.0
H627 H 0.94354 0.65419 0.14565 0.0
H628 H 0.98254 0.60176 0.10215 0.0
C629 C 0.04717 0.59172 0.13014 0.0
C630 C 1.00287 0.63554 0.14909 0.0
C631 C 0.06678 0.59118 0.13278 0.0
C632 C 0.92247 0.60165 0.13878 0.0
C633 C 0.94076 0.62184 0.13821 0.0
C634 C 0.98795 0.61129 0.11535 0.0
C635 C 0.03612 0.62871 0.13714 0.0
C636 C 0.01523 0.62825 0.13448 0.0
C637 C 0.95549 0.5992 0.12875 0.0
C638 C 0.97563 0.61531 0.13021 0.0
H639 H 0.07144 0.69384 0.15674 0.0
H640 H 0.03701 0.69419 0.1524 0.0
H641 H 0.01664 0.61251 0.10589 0.0
H642 H 0.93069 0.50369 0.11312 0.0
H643 H 0.96218 0.53858 0.11192 0.0
C644 C 0.92976 0.51678 0.62453 0.0
C645 C 0.92741 0.56627 0.62405 0.0
C646 C 0.94772 0.49707 0.62147 0.0
C647 C 0.99583 0.52569 0.6032 0.0
H648 H 0.01314 0.43401 0.6386 0.0
C649 C 0.07551 0.48572 0.61528 0.0
C650 C 0.08039 0.43849 0.61922 0.0
C651 C 0.05639 0.49876 0.61388 0.0
C652 C 1.00849 0.45909 0.62842 0.0
H653 H 0.9417 0.6336 0.61896 0.0
H654 H 0.97259 0.5996 0.61366 0.0
H655 H 0.98013 0.45872 0.63874 0.0
H656 H 0.06896 0.36766 0.6241 0.0
H657 H 0.03599 0.39021 0.62144 0.0
H658 H 0.0243 0.52674 0.5931 0.0
C659 C 0.96079 0.57576 0.61638 0.0
C660 C 0.98951 0.47312 0.62847 0.0
C661 C 0.94305 0.5953 0.61959 0.0
C662 C 0.06578 0.40453 0.62125 0.0
C663 C 0.04679 0.41747 0.61982 0.0
C664 C 0.01481 0.51166 0.60314 0.0
C665 C 0.96349 0.52653 0.6176 0.0
C666 C 0.98301 0.50714 0.61605 0.0
C667 C 0.0418 0.46481 0.61636 0.0
C668 C 0.02145 0.47861 0.61589 0.0
H669 H 0.91796 0.49358 0.62796 0.0
H670 H 0.94933 0.4589 0.62238 0.0
H671 H 0.99122 0.55155 0.59329 0.0
H672 H 0.0864 0.51273 0.61366 0.0
H673 H 0.05305 0.53567 0.61133 0.0
C674 C 0.10394 0.37537 0.8901 0.0
C675 C 0.10789 0.4201 0.8976 0.0
C676 C 0.0854 0.35682 0.89062 0.0
C677 C 0.03778 0.37487 0.91155 0.0
H678 H 0.01844 0.33676 0.86471 0.0
C679 C 0.95945 0.39443 0.89216 0.0
C680 C 0.95054 0.35668 0.88304 0.0
C681 C 0.97902 0.39426 0.89509 0.0
C682 C 0.02366 0.34664 0.87795 0.0
H683 H 0.09616 0.47887 0.91259 0.0
H684 H 0.06421 0.44678 0.91368 0.0
H685 H 0.05256 0.34683 0.86907 0.0
H686 H 0.9553 0.28949 0.86955 0.0
H687 H 0.98957 0.28966 0.87446 0.0
H688 H 1.00884 0.37676 0.92019 0.0
C689 C 0.07514 0.42568 0.9074 0.0
C690 C 0.04322 0.35214 0.88048 0.0
C691 C 0.09346 0.44427 0.9067 0.0
C692 C 0.96172 0.31914 0.87664 0.0
C693 C 0.98134 0.31922 0.87941 0.0
C694 C 0.01827 0.3697 0.90898 0.0
C695 C 0.0707 0.38249 0.89888 0.0
C696 C 0.05047 0.3677 0.89718 0.0
C697 C 0.99017 0.35656 0.88883 0.0
C698 C 0.01096 0.35681 0.89202 0.0
H699 H 0.11482 0.3563 0.88287 0.0
H700 H 0.08244 0.32325 0.88405 0.0
H701 H 0.04291 0.38605 0.92467 0.0
H702 H 0.95127 0.42386 0.89729 0.0
H703 H 0.98546 0.42392 0.90215 0.0
C704 C 0.18608 0.27482 0.38528 0.0
C705 C 0.18281 0.32351 0.38803 0.0
C706 C 0.20434 0.25667 0.38598 0.0
C707 C 0.25406 0.28534 0.38006 0.0
H708 H 0.26165 0.17068 0.40837 0.0
C709 C 0.32747 0.19793 0.38708 0.0
C710 C 0.32817 0.148 0.38695 0.0
C711 C 0.31015 0.22134 0.388 0.0
C712 C 0.25974 0.20234 0.40023 0.0
H713 H 0.19632 0.39153 0.39328 0.0
H714 H 0.22865 0.35946 0.39417 0.0
H715 H 0.23091 0.20948 0.40869 0.0
H716 H 0.3112 0.08348 0.38754 0.0
H717 H 0.28084 0.12437 0.38868 0.0
H718 H 0.28269 0.27747 0.37111 0.0
C719 C 0.21684 0.33562 0.39161 0.0
C720 C 0.24218 0.22473 0.40052 0.0
C721 C 0.19839 0.35389 0.39113 0.0
C722 C 0.31113 0.12196 0.3877 0.0
C723 C 0.29375 0.14545 0.38847 0.0
C724 C 0.27163 0.26269 0.37964 0.0
C725 C 0.21988 0.28668 0.38929 0.0
C726 C 0.23909 0.26606 0.39026 0.0
C727 C 0.29306 0.19546 0.38867 0.0
C728 C 0.27461 0.22056 0.38956 0.0
H729 H 0.17447 0.25023 0.38285 0.0
H730 H 0.2063 0.21896 0.38385 0.0
H731 H 0.25197 0.3169 0.3719 0.0
H732 H 0.34034 0.21914 0.38667 0.0
H733 H 0.31019 0.2598 0.38843 0.0
C734 C 0.69217 0.81151 0.37771 0.0
C735 C 0.67544 0.78409 0.37743 0.0
C736 C 0.70987 0.78962 0.37798 0.0
C737 C 0.73367 0.68027 0.3916 0.0
H738 H 0.77429 0.72804 0.36112 0.0
C739 C 0.80979 0.60109 0.39274 0.0
C740 C 0.82472 0.63438 0.39168 0.0
C741 C 0.79099 0.61534 0.38988 0.0
C742 C 0.76317 0.71449 0.36986 0.0
H743 H 0.6642 0.71209 0.37716 0.0
H744 H 0.69522 0.6739 0.37786 0.0
H745 H 0.74263 0.76097 0.35814 0.0
H746 H 0.83152 0.70891 0.38719 0.0
H747 H 0.79911 0.73357 0.38268 0.0
H748 H 0.75436 0.63485 0.40375 0.0
C749 C 0.69456 0.71234 0.37782 0.0
C750 C 0.74501 0.73332 0.3681 0.0
C751 C 0.67682 0.73424 0.37731 0.0
C752 C 0.82044 0.6821 0.38793 0.0
C753 C 0.80178 0.69628 0.38519 0.0
C754 C 0.75192 0.66167 0.3935 0.0
C755 C 0.71126 0.73983 0.37819 0.0
C756 C 0.73014 0.717 0.37914 0.0
C757 C 0.7868 0.66314 0.38596 0.0
C758 C 0.76698 0.67924 0.38288 0.0
H759 H 0.6916 0.84995 0.37781 0.0
H760 H 0.72251 0.81173 0.37844 0.0
H761 H 0.72248 0.66719 0.40037 0.0
H762 H 0.81262 0.56405 0.39559 0.0
H763 H 0.7798 0.58883 0.39049 0.0
C764 C 0.18876 0.72144 0.15303 0.0
C765 C 0.1849 0.67261 0.15108 0.0
C766 C 0.20743 0.73858 0.15301 0.0
C767 C 0.25721 0.70388 0.16022 0.0
H768 H 0.26834 0.81536 0.13105 0.0
C769 C 0.3342 0.77198 0.1479 0.0
C770 C 0.33717 0.82134 0.14656 0.0
C771 C 0.31579 0.753 0.14896 0.0
C772 C 0.2655 0.78464 0.13951 0.0
H773 H 0.19779 0.60343 0.14798 0.0
H774 H 0.23044 0.63343 0.1481 0.0
H775 H 0.23612 0.78408 0.13225 0.0
H776 H 0.32305 0.88948 0.14585 0.0
H777 H 0.29116 0.85672 0.14821 0.0
H778 H 0.28655 0.70479 0.1677 0.0
C779 C 0.21895 0.65839 0.14965 0.0
C780 C 0.24698 0.76661 0.14014 0.0
C781 C 0.20023 0.64124 0.1495 0.0
C782 C 0.32131 0.85126 0.14671 0.0
C783 C 0.30296 0.83237 0.14793 0.0
C784 C 0.27575 0.72218 0.15972 0.0
C785 C 0.22276 0.70735 0.1512 0.0
C786 C 0.24258 0.72609 0.15053 0.0
C787 C 0.29988 0.78293 0.14885 0.0
C788 C 0.28016 0.76294 0.14939 0.0
H789 H 0.17733 0.74666 0.1543 0.0
H790 H 0.20987 0.77642 0.15446 0.0
H791 H 0.25425 0.67285 0.16848 0.0
H792 H 0.34609 0.74787 0.14775 0.0
H793 H 0.31405 0.71476 0.14945 0.0
C794 C 0.70597 0.16083 0.13943 0.0
C795 C 0.68823 0.18295 0.14077 0.0
C796 C 0.72275 0.18802 0.13982 0.0
C797 C 0.74103 0.30968 0.13155 0.0
H798 H 0.78313 0.27121 0.16171 0.0
C799 C 0.80736 0.43062 0.14197 0.0
C800 C 0.825 0.4079 0.14289 0.0
C801 C 0.79045 0.40384 0.14208 0.0
C802 C 0.77163 0.28228 0.15301 0.0
H803 H 0.67431 0.25115 0.14347 0.0
H804 H 0.70336 0.29798 0.14404 0.0
H805 H 0.75462 0.22184 0.16048 0.0
H806 H 0.83861 0.33901 0.14442 0.0
H807 H 0.80953 0.293 0.14414 0.0
H808 H 0.75808 0.36968 0.12381 0.0
C809 C 0.70436 0.25979 0.14264 0.0
C810 C 0.75527 0.25387 0.15233 0.0
C811 C 0.68769 0.23274 0.14244 0.0
C812 C 0.82532 0.35796 0.14387 0.0
C813 C 0.80854 0.33136 0.14384 0.0
C814 C 0.75746 0.3379 0.13209 0.0
C815 C 0.7221 0.23787 0.14132 0.0
C816 C 0.73976 0.26726 0.14162 0.0
C817 C 0.79084 0.35377 0.14299 0.0
C818 C 0.77302 0.3246 0.14282 0.0
H819 H 0.70689 0.12262 0.13811 0.0
H820 H 0.73622 0.17011 0.13868 0.0
H821 H 0.72939 0.32076 0.12301 0.0
H822 H 0.8066 0.46899 0.14122 0.0
H823 H 0.77709 0.42245 0.1416 0.0
C824 C 0.70983 0.92872 0.64241 0.0
C825 C 0.69198 0.90624 0.64236 0.0
C826 C 0.72647 0.90172 0.64243 0.0
C827 C 0.7442 0.77877 0.65128 0.0
H828 H 0.78788 0.8237 0.62426 0.0
C829 C 0.81253 0.66645 0.63911 0.0
C830 C 0.82966 0.69104 0.64218 0.0
C831 C 0.79521 0.69086 0.63911 0.0
C832 C 0.7758 0.81075 0.63193 0.0
H833 H 0.67769 0.83759 0.64211 0.0
H834 H 0.70642 0.79106 0.64167 0.0
H835 H 0.75903 0.87066 0.62447 0.0
H836 H 0.84186 0.76062 0.64786 0.0
H837 H 0.81201 0.80242 0.64772 0.0
H838 H 0.76108 0.71844 0.65848 0.0
C839 C 0.70773 0.82939 0.64218 0.0
C840 C 0.75928 0.83786 0.63215 0.0
C841 C 0.69117 0.85625 0.64231 0.0
C842 C 0.82902 0.74028 0.64542 0.0
C843 C 0.81188 0.76452 0.64522 0.0
C844 C 0.7607 0.75142 0.6509 0.0
C845 C 0.72563 0.85161 0.64225 0.0
C846 C 0.74327 0.8225 0.64195 0.0
C847 C 0.79478 0.74033 0.64192 0.0
C848 C 0.77675 0.76736 0.64137 0.0
H849 H 0.71096 0.96712 0.6425 0.0
H850 H 0.73998 0.92019 0.64276 0.0
H851 H 0.73229 0.76598 0.6592 0.0
H852 H 0.81251 0.62859 0.63657 0.0
H853 H 0.78222 0.67129 0.63652 0.0
C854 C 0.19518 0.33122 0.6348 0.0
C855 C 0.1887 0.37754 0.63143 0.0
C856 C 0.21442 0.32223 0.63715 0.0
C857 C 0.26265 0.37018 0.62884 0.0
H858 H 0.27599 0.27394 0.6642 0.0
C859 C 0.34061 0.31485 0.64496 0.0
C860 C 0.34363 0.26548 0.64502 0.0
C861 C 0.32215 0.33304 0.6443 0.0
C862 C 0.27251 0.30081 0.65424 0.0
H863 H 0.1976 0.45076 0.62758 0.0
H864 H 0.23148 0.43506 0.63193 0.0
H865 H 0.24313 0.29836 0.6612 0.0
H866 H 0.32959 0.19663 0.64474 0.0
H867 H 0.29758 0.22824 0.64387 0.0
H868 H 0.29224 0.37231 0.62197 0.0
C869 C 0.22152 0.40564 0.6326 0.0
C870 C 0.25364 0.31475 0.65246 0.0
C871 C 0.20211 0.41468 0.63016 0.0
C872 C 0.3278 0.23482 0.64471 0.0
C873 C 0.30943 0.25294 0.6443 0.0
C874 C 0.28163 0.35643 0.63074 0.0
C875 C 0.22788 0.35927 0.63635 0.0
C876 C 0.24835 0.34869 0.63941 0.0
C877 C 0.30636 0.30222 0.644 0.0
C878 C 0.28667 0.32075 0.64318 0.0
H879 H 0.18535 0.30153 0.63566 0.0
H880 H 0.21876 0.28589 0.63949 0.0
H881 H 0.25911 0.39625 0.61861 0.0
H882 H 0.3525 0.33944 0.64511 0.0
H883 H 0.32022 0.37118 0.64417 0.0
C884 C 0.69819 0.17674 0.89434 0.0
C885 C 0.69546 0.12729 0.89556 0.0
C886 C 0.71632 0.19624 0.89225 0.0
C887 C 0.7676 0.169 0.89689 0.0
H888 H 0.77321 0.28124 0.86668 0.0
C889 C 0.84082 0.24761 0.87704 0.0
C890 C 0.84308 0.29712 0.87876 0.0
C891 C 0.82292 0.2263 0.87864 0.0
C892 C 0.77185 0.25013 0.87527 0.0
H893 H 0.70979 0.05949 0.89567 0.0
H894 H 0.74155 0.09348 0.89159 0.0
H895 H 0.7421 0.24418 0.87023 0.0
H896 H 0.82815 0.36309 0.88317 0.0
H897 H 0.79681 0.32585 0.88573 0.0
H898 H 0.79751 0.17477 0.90163 0.0
C899 C 0.72962 0.11731 0.89257 0.0
C900 C 0.75399 0.22887 0.87737 0.0
C901 C 0.71141 0.09774 0.89485 0.0
C902 C 0.82692 0.3249 0.88175 0.0
C903 C 0.80896 0.30359 0.88316 0.0
C904 C 0.78551 0.19004 0.89464 0.0
C905 C 0.7323 0.16688 0.89111 0.0
C906 C 0.75156 0.18826 0.88835 0.0
C907 C 0.80679 0.25398 0.88181 0.0
C908 C 0.78781 0.23106 0.88391 0.0
H909 H 0.68626 0.20067 0.89504 0.0
H910 H 0.71777 0.23454 0.89166 0.0
H911 H 0.76629 0.13823 0.90564 0.0
H912 H 0.85294 0.22504 0.87475 0.0
H913 H 0.82169 0.18808 0.87732 0.0
C914 C 0.22224 0.52114 0.88002 0.0
C915 C 0.20563 0.54842 0.87975 0.0
C916 C 0.24004 0.54293 0.87752 0.0
C917 C 0.26209 0.65444 0.85976 0.0
H918 H 0.30491 0.61953 0.88968 0.0
C919 C 0.32773 0.7756 0.86836 0.0
C920 C 0.34567 0.75427 0.86826 0.0
C921 C 0.31123 0.74769 0.86844 0.0
C922 C 0.29314 0.62929 0.88107 0.0
H923 H 0.19482 0.62015 0.87691 0.0
H924 H 0.22548 0.65763 0.87293 0.0
H925 H 0.27514 0.57493 0.89226 0.0
H926 H 0.36031 0.68673 0.86806 0.0
H927 H 0.33147 0.63812 0.86828 0.0
H928 H 0.2799 0.7095 0.84891 0.0
C929 C 0.2249 0.6194 0.87462 0.0
C930 C 0.2761 0.60365 0.88251 0.0
C931 C 0.20724 0.59779 0.87705 0.0
C932 C 0.34672 0.70436 0.8681 0.0
C933 C 0.33021 0.67645 0.86835 0.0
C934 C 0.27905 0.68017 0.85841 0.0
C935 C 0.24154 0.59237 0.87469 0.0
C936 C 0.26025 0.61646 0.87209 0.0
C937 C 0.31228 0.6978 0.86857 0.0
C938 C 0.29468 0.66838 0.86923 0.0
H939 H 0.2215 0.48306 0.88207 0.0
H940 H 0.25258 0.52102 0.87757 0.0
H941 H 0.25033 0.66463 0.85121 0.0
H942 H 0.3264 0.81391 0.86853 0.0
H943 H 0.29763 0.76523 0.86881 0.0
C944 C 0.38588 0.06137 0.32344 0.0
C945 C 0.38944 0.108 0.32932 0.0
C946 C 0.38505 0.0508 0.30513 0.0
C947 C 0.39823 0.09262 0.25956 0.0
H948 H 0.36024 0.99909 0.24573 0.0
C949 C 0.38417 0.0295 0.18553 0.0
C950 C 0.38381 0.9798 0.18349 0.0
C951 C 0.38456 0.04982 0.20276 0.0
C952 C 0.37093 0.02519 0.2494 0.0
H953 H 0.3955 0.18003 0.32051 0.0
H954 H 0.39371 0.16157 0.28809 0.0
H955 H 0.36127 0.02774 0.27668 0.0
H956 H 0.38353 0.91255 0.1979 0.0
H957 H 0.38382 0.94804 0.22791 0.0
H958 H 0.40773 0.08985 0.232 0.0
C959 C 0.3917 0.13319 0.29784 0.0
C960 C 0.37158 0.04155 0.26713 0.0
C961 C 0.39269 0.1438 0.31636 0.0
C962 C 0.3838 0.95091 0.199 0.0
C963 C 0.38388 0.97121 0.21619 0.0
C964 C 0.39743 0.07655 0.24167 0.0
C965 C 0.38753 0.08661 0.29206 0.0
C966 C 0.38559 0.07436 0.2726 0.0
C967 C 0.38425 0.02082 0.21824 0.0
C968 C 0.38407 0.04174 0.23658 0.0
H969 H 0.38368 0.03267 0.33304 0.0
H970 H 0.38245 0.01428 0.30122 0.0
H971 H 0.40921 0.1178 0.26333 0.0
H972 H 0.38428 0.0527 0.17382 0.0
H973 H 0.38477 0.08816 0.204 0.0
C974 C 0.62786 0.06442 0.19792 0.0
C975 C 0.62568 0.1132 0.19447 0.0
C976 C 0.6282 0.04692 0.21555 0.0
C977 C 0.61718 0.07601 0.26338 0.0
H978 H 0.65114 0.97073 0.27236 0.0
C979 C 0.63297 0.99919 0.33499 0.0
C980 C 0.63207 0.94936 0.33662 0.0
C981 C 0.63215 0.02114 0.318 0.0
C982 C 0.6415 0.9999 0.27005 0.0
H983 H 0.62164 0.18187 0.20689 0.0
H984 H 0.62278 0.1514 0.23803 0.0
H985 H 0.64992 0.0067 0.24247 0.0
H986 H 0.62972 0.88361 0.3216 0.0
H987 H 0.62865 0.92195 0.29192 0.0
H988 H 0.60916 0.06943 0.29128 0.0
C989 C 0.62395 0.12655 0.22697 0.0
C990 C 0.64071 0.02052 0.25287 0.0
C991 C 0.62333 0.1441 0.20915 0.0
C992 C 0.63048 0.92202 0.32084 0.0
C993 C 0.62993 0.94397 0.30383 0.0
C994 C 0.61816 0.05567 0.2807 0.0
C995 C 0.6267 0.07771 0.23038 0.0
C996 C 0.62829 0.0583 0.24916 0.0
C997 C 0.63068 0.99378 0.30223 0.0
C998 C 0.63013 0.01692 0.28413 0.0
H999 H 0.62935 0.03945 0.18692 0.0
H1000 H 0.62968 0.00899 0.21751 0.0
H1001 H 0.60735 0.10474 0.26106 0.0
H1002 H 0.63412 0.02136 0.34688 0.0
H1003 H 0.63291 0.05955 0.31719 0.0
C1004 C 0.63134 0.03956 0.83741 0.0
C1005 C 0.62962 0.08772 0.84215 0.0
C1006 C 0.62921 0.02501 0.81952 0.0
C1007 C 0.63421 0.06687 0.77315 0.0
H1008 H 0.6046 0.95469 0.76096 0.0
C1009 C 0.62486 0.01186 0.69932 0.0
C1010 C 0.62532 0.96334 0.69496 0.0
C1011 C 0.62353 0.02657 0.71721 0.0
C1012 C 0.61312 0.98571 0.76413 0.0
H1013 H 0.62416 0.15836 0.83174 0.0
H1014 H 0.6208 0.1329 0.80019 0.0
H1015 H 0.60564 0.98234 0.79221 0.0
H1016 H 0.6241 0.892 0.70592 0.0
H1017 H 0.62244 0.91767 0.73755 0.0
H1018 H 0.64233 0.06962 0.7454 0.0
C1019 C 0.62374 0.1065 0.81049 0.0
C1020 C 0.61362 1.00172 0.78203 0.0
C1021 C 0.62562 0.12106 0.82852 0.0
C1022 C 0.62377 0.92962 0.70892 0.0
C1023 C 0.62276 0.94444 0.72701 0.0
C1024 C 0.63391 0.05061 0.75534 0.0
C1025 C 0.6255 0.05826 0.80583 0.0
C1026 C 0.62417 0.04249 0.78672 0.0
C1027 C 0.62299 0.99324 0.73139 0.0
C1028 C 0.6233 0.0099 0.75053 0.0
H1029 H 0.6343 0.01279 0.84756 0.0
H1030 H 0.63086 0.98773 0.81634 0.0
H1031 H 0.64275 0.09783 0.77641 0.0
H1032 H 0.62565 0.03875 0.68881 0.0
H1033 H 0.62309 0.06434 0.7199 0.0
C1034 C 0.38154 0.97502 0.82318 0.0
C1035 C 0.38463 0.9261 0.82561 0.0
C1036 C 0.38223 0.99547 0.80598 0.0
C1037 C 0.37649 0.97003 0.75798 0.0
H1038 H 0.40544 0.08646 0.75115 0.0
C1039 C 0.38661 0.05535 0.68737 0.0
C1040 C 0.38721 0.1052 0.68609 0.0
C1041 C 0.38646 0.03275 0.70423 0.0
C1042 C 0.39703 0.05439 0.75283 0.0
H1043 H 0.39066 0.86017 0.81178 0.0
H1044 H 0.39155 0.89604 0.78151 0.0
H1045 H 0.40493 0.04793 0.78068 0.0
H1046 H 0.38778 0.17042 0.70155 0.0
H1047 H 0.38689 0.13116 0.73096 0.0
H1048 H 0.3681 0.97701 0.73033 0.0
C1049 C 0.38868 0.91841 0.79305 0.0
C1050 C 0.39685 0.03216 0.76975 0.0
C1051 C 0.38825 0.89795 0.81036 0.0
C1052 C 0.38743 0.13196 0.70207 0.0
C1053 C 0.38706 0.10935 0.71895 0.0
C1054 C 0.37647 0.99257 0.74108 0.0
C1055 C 0.38582 0.96747 0.79073 0.0
C1056 C 0.38654 0.98984 0.77253 0.0
C1057 C 0.3867 0.05939 0.72028 0.0
C1058 C 0.38671 0.03517 0.73827 0.0
H1059 H 0.37875 0.99782 0.83461 0.0
H1060 H 0.37977 0.03325 0.80459 0.0
H1061 H 0.36824 0.93773 0.75979 0.0
H1062 H 0.38658 0.03361 0.67533 0.0
H1063 H 0.38652 0.9943 0.70463 0.0
C1064 C 0.89099 0.5146 0.1998 0.0
C1065 C 0.89171 0.46589 0.19572 0.0
C1066 C 0.89248 0.53053 0.21756 0.0
C1067 C 0.90613 0.49504 0.26438 0.0
H1068 H 0.87519 0.60343 0.27686 0.0
C1069 C 0.89252 0.55561 0.33809 0.0
C1070 C 0.89277 0.60468 0.34177 0.0
C1071 C 0.8939 0.53887 0.32038 0.0
C1072 C 0.88411 0.57355 0.27357 0.0
H1073 H 0.8951 0.39564 0.2072 0.0
H1074 H 0.89715 0.42336 0.23861 0.0
H1075 H 0.8742 0.57215 0.24632 0.0
H1076 H 0.89497 0.6746 0.32958 0.0
H1077 H 0.89712 0.64529 0.29846 0.0
H1078 H 0.91552 0.49591 0.29197 0.0
C1079 C 0.89572 0.4494 0.2279 0.0
C1080 C 0.88359 0.5555 0.25598 0.0
C1081 C 0.89449 0.43338 0.20991 0.0
C1082 C 0.89474 0.63664 0.32724 0.0
C1083 C 0.89587 0.61983 0.30942 0.0
C1084 C 0.90648 0.51285 0.28207 0.0
C1085 C 0.89442 0.49827 0.23198 0.0
C1086 C 0.8947 0.51618 0.25104 0.0
C1087 C 0.89535 0.5707 0.30578 0.0
C1088 C 0.89553 0.55249 0.28685 0.0
H1089 H 0.88925 0.54083 0.18918 0.0
H1090 H 0.89206 0.56843 0.21995 0.0
H1091 H 0.91505 0.46516 0.26112 0.0
H1092 H 0.89111 0.52986 0.34894 0.0
H1093 H 0.89328 0.50091 0.31809 0.0
C1094 C 0.1189 0.3286 0.31849 0.0
C1095 C 0.11921 0.36002 0.33321 0.0
C1096 C 0.12012 0.34613 0.30068 0.0
C1097 C 0.13595 0.45445 0.27553 0.0
H1098 H 0.10785 0.40038 0.23548 0.0
C1099 C 0.13029 0.55 0.20654 0.0
C1100 C 0.1322 0.52227 0.1909 0.0
C1101 C 0.12877 0.52848 0.22358 0.0
C1102 C 0.11592 0.41561 0.24651 0.0
H1103 H 0.11994 0.43451 0.34069 0.0
H1104 H 0.12151 0.46466 0.31005 0.0
H1105 H 0.10472 0.36522 0.26564 0.0
H1106 H 0.13389 0.44993 0.181 0.0
H1107 H 0.13121 0.41256 0.21071 0.0
H1108 H 0.14696 0.50512 0.25653 0.0
C1109 C 0.12102 0.42654 0.31207 0.0
C1110 C 0.11416 0.39537 0.2638 0.0
C1111 C 0.11997 0.40915 0.32971 0.0
C1112 C 0.13247 0.47246 0.19274 0.0
C1113 C 0.1308 0.45095 0.20977 0.0
C1114 C 0.13761 0.47477 0.25833 0.0
C1115 C 0.12155 0.39539 0.29729 0.0
C1116 C 0.12399 0.4149 0.2786 0.0
C1117 C 0.12899 0.47868 0.22542 0.0
C1118 C 0.1275 0.45593 0.24362 0.0
H1119 H 0.11836 0.29057 0.32073 0.0
H1120 H 0.12052 0.32104 0.28964 0.0
H1121 H 0.14414 0.46979 0.28645 0.0
H1122 H 0.12997 0.5884 0.20563 0.0
H1123 H 0.12718 0.55091 0.23533 0.0
C1124 C 0.12995 0.54602 0.81893 0.0
C1125 C 0.13514 0.51176 0.83185 0.0
C1126 C 0.12688 0.53284 0.80085 0.0
C1127 C 0.11598 0.42852 0.77209 0.0
H1128 H 0.14118 0.49978 0.73407 0.0
C1129 C 0.12451 0.35447 0.69942 0.0
C1130 C 0.12398 0.38698 0.68498 0.0
C1131 C 0.12427 0.37062 0.71735 0.0
C1132 C 0.13376 0.47979 0.74444 0.0
H1133 H 0.14069 0.43663 0.83593 0.0
H1134 H 0.13528 0.41408 0.80479 0.0
H1135 H 0.14283 0.52809 0.76511 0.0
H1136 H 0.1219 0.46182 0.67809 0.0
H1137 H 0.12095 0.48956 0.70903 0.0
H1138 H 0.10689 0.38017 0.75152 0.0
C1139 C 0.13355 0.45099 0.8085 0.0
C1140 C 0.13472 0.49614 0.76226 0.0
C1141 C 0.13682 0.46413 0.82637 0.0
C1142 C 0.1226 0.43573 0.68887 0.0
C1143 C 0.12218 0.45176 0.70668 0.0
C1144 C 0.11488 0.41233 0.75426 0.0
C1145 C 0.12865 0.48508 0.79548 0.0
C1146 C 0.12606 0.47036 0.77633 0.0
C1147 C 0.12331 0.41961 0.7212 0.0
C1148 C 0.12393 0.43746 0.74019 0.0
H1149 H 0.12853 0.58294 0.82272 0.0
H1150 H 0.12305 0.5599 0.79109 0.0
H1151 H 0.10897 0.40811 0.78262 0.0
H1152 H 0.12563 0.31672 0.69688 0.0
H1153 H 0.12535 0.34476 0.72816 0.0
C1154 C 0.89676 0.66152 0.7097 0.0
C1155 C 0.8946 0.63163 0.69465 0.0
C1156 C 0.89657 0.64247 0.72735 0.0
C1157 C 0.88135 0.53245 0.75237 0.0
H1158 H 0.91242 0.58275 0.79111 0.0
C1159 C 0.89147 0.43178 0.8201 0.0
C1160 C 0.89045 0.45852 0.83607 0.0
C1161 C 0.89195 0.45435 0.80316 0.0
C1162 C 0.90354 0.5685 0.78045 0.0
H1163 H 0.89159 0.55807 0.68638 0.0
H1164 H 0.8919 0.52524 0.71662 0.0
H1165 H 0.91363 0.62005 0.76121 0.0
H1166 H 0.88932 0.53025 0.84665 0.0
H1167 H 0.8903 0.56942 0.81715 0.0
H1168 H 0.87153 0.48045 0.77149 0.0
C1169 C 0.89299 0.56344 0.71509 0.0
C1170 C 0.90418 0.59002 0.76329 0.0
C1171 C 0.89297 0.58237 0.69763 0.0
C1172 C 0.89005 0.50843 0.83465 0.0
C1173 C 0.89075 0.53099 0.81773 0.0
C1174 C 0.88086 0.51075 0.76941 0.0
C1175 C 0.89437 0.5931 0.73028 0.0
C1176 C 0.89322 0.572 0.74892 0.0
C1177 C 0.89164 0.50427 0.80175 0.0
C1178 C 0.89203 0.52822 0.78367 0.0
H1179 H 0.89802 0.69961 0.70788 0.0
H1180 H 0.89761 0.66658 0.73867 0.0
H1181 H 0.87227 0.51817 0.74188 0.0
H1182 H 0.89185 0.39335 0.82065 0.0
H1183 H 0.89281 0.43266 0.79114 0.0
loop_
_geom_bond_atom_site_label_1
_geom_bond_atom_site_label_2
_geom_bond_distance
_geom_bond_site_symmetry_2
_ccdc_geom_bond_type
C0 O2 1.247 . S
C0 O4 1.258 . S
C1 O8 1.247 . S
C1 O9 1.258 . S
O2 C0 1.247 . S
O2 Zn3 2.028 . S
Zn3 O2 2.028 . S
Zn3 O7 2.035 . S
Zn3 O9 2.035 . S
Zn3 O10 2.028 . S
O4 C0 1.258 . S
O4 Zn5 2.035 . S
Zn5 O4 2.035 . S
Zn5 O6 2.028 . S
Zn5 O8 2.028 . S
Zn5 O11 2.035 . S
O6 Zn5 2.028 . S
O6 C12 1.247 . S
O7 Zn3 2.035 . S
O7 C12 1.258 . S
O8 C1 1.247 . S
O8 Zn5 2.028 . S
O9 C1 1.258 . S
O9 Zn3 2.035 . S
O10 Zn3 2.028 . S
O10 C13 1.247 . S
O11 Zn5 2.035 . S
O11 C13 1.258 . S
C12 O6 1.247 . S
C12 O7 1.258 . S
C13 O10 1.247 . S
C13 O11 1.258 . S
C14 O16 1.247 . S
C14 O18 1.258 . S
C15 O22 1.247 . S
C15 O23 1.258 . S
O16 C14 1.247 . S
O16 Zn17 2.028 . S
Zn17 O16 2.028 . S
Zn17 O21 2.035 . S
Zn17 O23 2.035 . S
Zn17 O24 2.028 . S
O18 C14 1.258 . S
O18 Zn19 2.035 . S
Zn19 O18 2.035 . S
Zn19 O20 2.028 . S
Zn19 O22 2.028 . S
Zn19 O25 2.035 . S
O20 Zn19 2.028 . S
O20 C26 1.247 . S
O21 Zn17 2.035 . S
O21 C26 1.258 . S
O22 C15 1.247 . S
O22 Zn19 2.028 . S
O23 C15 1.258 . S
O23 Zn17 2.035 . S
O24 Zn17 2.028 . S
O24 C27 1.247 . S
O25 Zn19 2.035 . S
O25 C27 1.258 . S
C26 O20 1.247 . S
C26 O21 1.258 . S
C27 O24 1.247 . S
C27 O25 1.258 . S
C28 O30 1.247 . S
C28 O32 1.258 . S
C29 O36 1.247 . S
C29 O37 1.258 . S
O30 C28 1.247 . S
O30 Zn31 2.028 . S
Zn31 O30 2.028 . S
Zn31 O35 2.035 . S
Zn31 O37 2.035 . S
Zn31 O38 2.028 . S
O32 C28 1.258 . S
O32 Zn33 2.035 . S
Zn33 O32 2.035 . S
Zn33 O34 2.028 . S
Zn33 O36 2.028 . S
Zn33 O39 2.035 . S
O34 Zn33 2.028 . S
O34 C40 1.247 . S
O35 Zn31 2.035 . S
O35 C40 1.258 . S
O36 C29 1.247 . S
O36 Zn33 2.028 . S
O37 C29 1.258 . S
O37 Zn31 2.035 . S
O38 Zn31 2.028 . S
O38 C41 1.247 . S
O39 Zn33 2.035 . S
O39 C41 1.258 . S
C40 O34 1.247 . S
C40 O35 1.258 . S
C41 O38 1.247 . S
C41 O39 1.258 . S
C42 O44 1.247 . S
C42 O46 1.258 . S
C43 O50 1.247 . S
C43 O51 1.258 . S
O44 C42 1.247 . S
O44 Zn45 2.028 . S
Zn45 O44 2.028 . S
Zn45 O49 2.035 . S
Zn45 O51 2.035 . S
Zn45 O52 2.028 . S
O46 C42 1.258 . S
O46 Zn47 2.035 . S
Zn47 O46 2.035 . S
Zn47 O48 2.028 . S
Zn47 O50 2.028 . S
Zn47 O53 2.035 . S
O48 Zn47 2.028 . S
O48 C54 1.247 . S
O49 Zn45 2.035 . S
O49 C54 1.258 . S
O50 C43 1.247 . S
O50 Zn47 2.028 . S
O51 C43 1.258 . S
O51 Zn45 2.035 . S
O52 Zn45 2.028 . S
O52 C55 1.247 . S
O53 Zn47 2.035 . S
O53 C55 1.258 . S
C54 O48 1.247 . S
C54 O49 1.258 . S
C55 O52 1.247 . S
C55 O53 1.258 . S
C56 O58 1.247 . S
C56 O60 1.258 . S
C57 O64 1.247 . S
C57 O65 1.258 . S
O58 C56 1.247 . S
O58 Zn59 2.028 . S
Zn59 O58 2.028 . S
Zn59 O63 2.035 . S
Zn59 O65 2.035 . S
Zn59 O66 2.028 . S
O60 C56 1.258 . S
O60 Zn61 2.035 . S
Zn61 O60 2.035 . S
Zn61 O62 2.028 . S
Zn61 O64 2.028 . S
Zn61 O67 2.035 . S
O62 Zn61 2.028 . S
O62 C68 1.247 . S
O63 Zn59 2.035 . S
O63 C68 1.258 . S
O64 C57 1.247 . S
O64 Zn61 2.028 . S
O65 C57 1.258 . S
O65 Zn59 2.035 . S
O66 Zn59 2.028 . S
O66 C69 1.247 . S
O67 Zn61 2.035 . S
O67 C69 1.258 . S
C68 O62 1.247 . S
C68 O63 1.258 . S
C69 O66 1.247 . S
C69 O67 1.258 . S
C70 O72 1.247 . S
C70 O74 1.258 . S
C71 O78 1.247 . S
C71 O79 1.258 . S
O72 C70 1.247 . S
O72 Zn73 2.028 . S
Zn73 O72 2.028 . S
Zn73 O77 2.035 . S
Zn73 O79 2.035 . S
Zn73 O80 2.028 . S
O74 C70 1.258 . S
O74 Zn75 2.035 . S
Zn75 O74 2.035 . S
Zn75 O76 2.028 . S
Zn75 O78 2.028 . S
Zn75 O81 2.035 . S
O76 Zn75 2.028 . S
O76 C82 1.247 . S
O77 Zn73 2.035 . S
O77 C82 1.258 . S
O78 C71 1.247 . S
O78 Zn75 2.028 . S
O79 C71 1.258 . S
O79 Zn73 2.035 . S
O80 Zn73 2.028 . S
O80 C83 1.247 . S
O81 Zn75 2.035 . S
O81 C83 1.258 . S
C82 O76 1.247 . S
C82 O77 1.258 . S
C83 O80 1.247 . S
C83 O81 1.258 . S
C84 O86 1.247 . S
C84 O88 1.258 . S
C85 O92 1.247 . S
C85 O93 1.258 . S
O86 C84 1.247 . S
O86 Zn87 2.028 . S
Zn87 O86 2.028 . S
Zn87 O91 2.035 . S
Zn87 O93 2.035 . S
Zn87 O94 2.028 . S
O88 C84 1.258 . S
O88 Zn89 2.035 . S
Zn89 O88 2.035 . S
Zn89 O90 2.028 . S
Zn89 O92 2.028 . S
Zn89 O95 2.035 . S
O90 Zn89 2.028 . S
O90 C96 1.247 . S
O91 Zn87 2.035 . S
O91 C96 1.258 . S
O92 C85 1.247 . S
O92 Zn89 2.028 . S
O93 C85 1.258 . S
O93 Zn87 2.035 . S
O94 Zn87 2.028 . S
O94 C97 1.247 . S
O95 Zn89 2.035 . S
O95 C97 1.258 . S
C96 O90 1.247 . S
C96 O91 1.258 . S
C97 O94 1.247 . S
C97 O95 1.258 . S
C98 O100 1.247 . S
C98 O102 1.258 . S
C99 O106 1.247 . S
C99 O107 1.258 . S
O100 C98 1.247 . S
O100 Zn101 2.028 . S
Zn101 O100 2.028 . S
Zn101 O105 2.035 . S
Zn101 O107 2.035 . S
Zn101 O108 2.028 . S
O102 C98 1.258 . S
O102 Zn103 2.035 . S
Zn103 O102 2.035 . S
Zn103 O104 2.028 . S
Zn103 O106 2.028 . S
Zn103 O109 2.035 . S
O104 Zn103 2.028 . S
O104 C110 1.247 . S
O105 Zn101 2.035 . S
O105 C110 1.258 . S
O106 C99 1.247 . S
O106 Zn103 2.028 . S
O107 C99 1.258 . S
O107 Zn101 2.035 . S
O108 Zn101 2.028 . S
O108 C111 1.247 . S
O109 Zn103 2.035 . S
O109 C111 1.258 . S
C110 O104 1.247 . S
C110 O105 1.258 . S
C111 O108 1.247 . S
C111 O109 1.258 . S
C112 O114 1.247 . S
C112 O116 1.258 . S
C113 O120 1.247 . S
C113 O121 1.258 . S
O114 C112 1.247 . S
O114 Zn115 2.028 . S
Zn115 O114 2.028 . S
Zn115 O119 2.035 . S
Zn115 O121 2.035 . S
Zn115 O122 2.028 . S
O116 C112 1.258 . S
O116 Zn117 2.035 . S
Zn117 O116 2.035 . S
Zn117 O118 2.028 . S
Zn117 O120 2.028 . S
Zn117 O123 2.035 . S
O118 Zn117 2.028 . S
O118 C124 1.247 . S
O119 Zn115 2.035 . S
O119 C124 1.258 . S
O120 C113 1.247 . S
O120 Zn117 2.028 . S
O121 C113 1.258 . S
O121 Zn115 2.035 . S
O122 Zn115 2.028 . S
O122 C125 1.247 . S
O123 Zn117 2.035 . S
O123 C125 1.258 . S
C124 O118 1.247 . S
C124 O119 1.258 . S
C125 O122 1.247 . S
C125 O123 1.258 . S
C126 O128 1.247 . S
C126 O130 1.258 . S
C127 O134 1.247 . S
C127 O135 1.258 . S
O128 C126 1.247 . S
O128 Zn129 2.028 . S
Zn129 O128 2.028 . S
Zn129 O133 2.035 . S
Zn129 O135 2.035 . S
Zn129 O136 2.028 . S
O130 C126 1.258 . S
O130 Zn131 2.035 . S
Zn131 O130 2.035 . S
Zn131 O132 2.028 . S
Zn131 O134 2.028 . S
Zn131 O137 2.035 . S
O132 Zn131 2.028 . S
O132 C138 1.247 . S
O133 Zn129 2.035 . S
O133 C138 1.258 . S
O134 C127 1.247 . S
O134 Zn131 2.028 . S
O135 C127 1.258 . S
O135 Zn129 2.035 . S
O136 Zn129 2.028 . S
O136 C139 1.247 . S
O137 Zn131 2.035 . S
O137 C139 1.258 . S
C138 O132 1.247 . S
C138 O133 1.258 . S
C139 O136 1.247 . S
C139 O137 1.258 . S
C140 O142 1.247 . S
C140 O144 1.258 . S
C141 O148 1.247 . S
C141 O149 1.258 . S
O142 C140 1.247 . S
O142 Zn143 2.028 . S
Zn143 O142 2.028 . S
Zn143 O147 2.035 . S
Zn143 O149 2.035 . S
Zn143 O150 2.028 . S
O144 C140 1.258 . S
O144 Zn145 2.035 . S
Zn145 O144 2.035 . S
Zn145 O146 2.028 . S
Zn145 O148 2.028 . S
Zn145 O151 2.035 . S
O146 Zn145 2.028 . S
O146 C152 1.247 . S
O147 Zn143 2.035 . S
O147 C152 1.258 . S
O148 C141 1.247 . S
O148 Zn145 2.028 . S
O149 C141 1.258 . S
O149 Zn143 2.035 . S
O150 Zn143 2.028 . S
O150 C153 1.247 . S
O151 Zn145 2.035 . S
O151 C153 1.258 . S
C152 O146 1.247 . S
C152 O147 1.258 . S
C153 O150 1.247 . S
C153 O151 1.258 . S
C154 O156 1.247 . S
C154 O158 1.258 . S
C155 O162 1.247 . S
C155 O163 1.258 . S
O156 C154 1.247 . S
O156 Zn157 2.028 . S
Zn157 O156 2.028 . S
Zn157 O161 2.035 . S
Zn157 O163 2.035 . S
Zn157 O164 2.028 . S
O158 C154 1.258 . S
O158 Zn159 2.035 . S
Zn159 O158 2.035 . S
Zn159 O160 2.028 . S
Zn159 O162 2.028 . S
Zn159 O165 2.035 . S
O160 Zn159 2.028 . S
O160 C166 1.247 . S
O161 Zn157 2.035 . S
O161 C166 1.258 . S
O162 C155 1.247 . S
O162 Zn159 2.028 . S
O163 C155 1.258 . S
O163 Zn157 2.035 . S
O164 Zn157 2.028 . S
O164 C167 1.247 . S
O165 Zn159 2.035 . S
O165 C167 1.258 . S
C166 O160 1.247 . S
C166 O161 1.258 . S
C167 O164 1.247 . S
C167 O165 1.258 . S
C168 O170 1.247 . S
C168 O172 1.258 . S
C169 O176 1.247 . S
C169 O177 1.258 . S
O170 C168 1.247 . S
O170 Zn171 2.028 . S
Zn171 O170 2.028 . S
Zn171 O175 2.035 . S
Zn171 O177 2.035 . S
Zn171 O178 2.028 . S
O172 C168 1.258 . S
O172 Zn173 2.035 . S
Zn173 O172 2.035 . S
Zn173 O174 2.028 . S
Zn173 O176 2.028 . S
Zn173 O179 2.035 . S
O174 Zn173 2.028 . S
O174 C180 1.247 . S
O175 Zn171 2.035 . S
O175 C180 1.258 . S
O176 C169 1.247 . S
O176 Zn173 2.028 . S
O177 C169 1.258 . S
O177 Zn171 2.035 . S
O178 Zn171 2.028 . S
O178 C181 1.247 . S
O179 Zn173 2.035 . S
O179 C181 1.258 . S
C180 O174 1.247 . S
C180 O175 1.258 . S
C181 O178 1.247 . S
C181 O179 1.258 . S
C182 O184 1.247 . S
C182 O186 1.258 . S
C183 O190 1.247 . S
C183 O191 1.258 . S
O184 C182 1.247 . S
O184 Zn185 2.028 . S
Zn185 O184 2.028 . S
Zn185 O189 2.035 . S
Zn185 O191 2.035 . S
Zn185 O192 2.028 . S
O186 C182 1.258 . S
O186 Zn187 2.035 . S
Zn187 O186 2.035 . S
Zn187 O188 2.028 . S
Zn187 O190 2.028 . S
Zn187 O193 2.035 . S
O188 Zn187 2.028 . S
O188 C194 1.247 . S
O189 Zn185 2.035 . S
O189 C194 1.258 . S
O190 C183 1.247 . S
O190 Zn187 2.028 . S
O191 C183 1.258 . S
O191 Zn185 2.035 . S
O192 Zn185 2.028 . S
O192 C195 1.247 . S
O193 Zn187 2.035 . S
O193 C195 1.258 . S
C194 O188 1.247 . S
C194 O189 1.258 . S
C195 O192 1.247 . S
C195 O193 1.258 . S
C196 O198 1.247 . S
C196 O200 1.258 . S
C197 O204 1.247 . S
C197 O205 1.258 . S
O198 C196 1.247 . S
O198 Zn199 2.028 . S
Zn199 O198 2.028 . S
Zn199 O203 2.035 . S
Zn199 O205 2.035 . S
Zn199 O206 2.028 . S
O200 C196 1.258 . S
O200 Zn201 2.035 . S
Zn201 O200 2.035 . S
Zn201 O202 2.028 . S
Zn201 O204 2.028 . S
Zn201 O207 2.035 . S
O202 Zn201 2.028 . S
O202 C208 1.247 . S
O203 Zn199 2.035 . S
O203 C208 1.258 . S
O204 C197 1.247 . S
O204 Zn201 2.028 . S
O205 C197 1.258 . S
O205 Zn199 2.035 . S
O206 Zn199 2.028 . S
O206 C209 1.247 . S
O207 Zn201 2.035 . S
O207 C209 1.258 . S
C208 O202 1.247 . S
C208 O203 1.258 . S
C209 O206 1.247 . S
C209 O207 1.258 . S
C210 O212 1.247 . S
C210 O214 1.258 . S
C211 O218 1.247 . S
C211 O219 1.258 . S
O212 C210 1.247 . S
O212 Zn213 2.028 . S
Zn213 O212 2.028 . S
Zn213 O217 2.035 . S
Zn213 O219 2.035 . S
Zn213 O220 2.028 . S
O214 C210 1.258 . S
O214 Zn215 2.035 . S
Zn215 O214 2.035 . S
Zn215 O216 2.028 . S
Zn215 O218 2.028 . S
Zn215 O221 2.035 . S
O216 Zn215 2.028 . S
O216 C222 1.247 . S
O217 Zn213 2.035 . S
O217 C222 1.258 . S
O218 C211 1.247 . S
O218 Zn215 2.028 . S
O219 C211 1.258 . S
O219 Zn213 2.035 . S
O220 Zn213 2.028 . S
O220 C223 1.247 . S
O221 Zn215 2.035 . S
O221 C223 1.258 . S
C222 O216 1.247 . S
C222 O217 1.258 . S
C223 O220 1.247 . S
C223 O221 1.258 . S
C224 C225 1.349 . S
C224 C226 1.327 . S
C224 H249 0.950 . S
C225 C224 1.349 . S
C225 C241 1.349 . S
C226 C224 1.327 . S
C226 C245 1.429 . S
C226 H250 0.950 . S
C227 C244 1.574 . S
C227 C246 1.368 . S
C227 H251 0.949 . S
H228 C232 0.949 . S
C229 C230 1.349 . S
C229 C231 1.327 . S
C229 H252 0.950 . S
C230 C229 1.349 . S
C230 C242 1.349 . S
C231 C229 1.327 . S
C231 C247 1.429 . S
C231 H253 0.950 . S
C232 H228 0.949 . S
C232 C240 1.574 . S
C232 C248 1.368 . S
H233 C241 0.950 . S
H234 C239 0.950 . S
H235 C240 0.949 . S
H236 C242 0.950 . S
H237 C243 0.950 . S
H238 C244 0.949 . S
C239 H234 0.950 . S
C239 C241 1.327 . S
C239 C245 1.429 . S
C240 C232 1.574 . S
C240 H235 0.949 . S
C240 C246 1.368 . S
C241 C225 1.349 . S
C241 H233 0.950 . S
C241 C239 1.327 . S
C242 C230 1.349 . S
C242 H236 0.950 . S
C242 C243 1.327 . S
C243 H237 0.950 . S
C243 C242 1.327 . S
C243 C247 1.429 . S
C244 C227 1.574 . S
C244 H238 0.949 . S
C244 C248 1.368 . S
C245 C226 1.429 . S
C245 C239 1.429 . S
C245 C246 1.523 . S
C246 C227 1.368 . S
C246 C240 1.368 . S
C246 C245 1.523 . S
C247 C231 1.429 . S
C247 C243 1.429 . S
C247 C248 1.523 . S
C248 C232 1.368 . S
C248 C244 1.368 . S
C248 C247 1.523 . S
H249 C224 0.950 . S
H250 C226 0.950 . S
H251 C227 0.949 . S
H252 C229 0.950 . S
H253 C231 0.950 . S
C254 C255 1.349 . S
C254 C256 1.327 . S
C254 H279 0.950 . S
C255 C254 1.349 . S
C255 C271 1.349 . S
C256 C254 1.327 . S
C256 C275 1.429 . S
C256 H280 0.950 . S
C257 C274 1.574 . S
C257 C276 1.368 . S
C257 H281 0.949 . S
H258 C262 0.949 . S
C259 C260 1.349 . S
C259 C261 1.327 . S
C259 H282 0.950 . S
C260 C259 1.349 . S
C260 C272 1.349 . S
C261 C259 1.327 . S
C261 C277 1.429 . S
C261 H283 0.950 . S
C262 H258 0.949 . S
C262 C270 1.574 . S
C262 C278 1.368 . S
H263 C271 0.950 . S
H264 C269 0.950 . S
H265 C270 0.949 . S
H266 C272 0.950 . S
H267 C273 0.950 . S
H268 C274 0.949 . S
C269 H264 0.950 . S
C269 C271 1.327 . S
C269 C275 1.429 . S
C270 C262 1.574 . S
C270 H265 0.949 . S
C270 C276 1.368 . S
C271 C255 1.349 . S
C271 H263 0.950 . S
C271 C269 1.327 . S
C272 C260 1.349 . S
C272 H266 0.950 . S
C272 C273 1.327 . S
C273 H267 0.950 . S
C273 C272 1.327 . S
C273 C277 1.429 . S
C274 C257 1.574 . S
C274 H268 0.949 . S
C274 C278 1.368 . S
C275 C256 1.429 . S
C275 C269 1.429 . S
C275 C276 1.523 . S
C276 C257 1.368 . S
C276 C270 1.368 . S
C276 C275 1.523 . S
C277 C261 1.429 . S
C277 C273 1.429 . S
C277 C278 1.523 . S
C278 C262 1.368 . S
C278 C274 1.368 . S
C278 C277 1.523 . S
H279 C254 0.950 . S
H280 C256 0.950 . S
H281 C257 0.949 . S
H282 C259 0.950 . S
H283 C261 0.950 . S
C284 C285 1.349 . S
C284 C286 1.327 . S
C284 H309 0.950 . S
C285 C284 1.349 . S
C285 C301 1.349 . S
C286 C284 1.327 . S
C286 C305 1.429 . S
C286 H310 0.950 . S
C287 C304 1.574 1_554 S
C287 C306 1.368 . S
C287 H311 0.949 . S
H288 C292 0.949 . S
C289 C290 1.349 . S
C289 C291 1.327 . S
C289 H312 0.950 . S
C290 C289 1.349 . S
C290 C302 1.349 . S
C291 C289 1.327 . S
C291 C307 1.429 . S
C291 H313 0.950 . S
C292 H288 0.949 . S
C292 C300 1.574 1_556 S
C292 C308 1.368 . S
H293 C301 0.950 . S
H294 C299 0.950 . S
H295 C300 0.949 . S
H296 C302 0.950 . S
H297 C303 0.950 . S
H298 C304 0.949 . S
C299 H294 0.950 . S
C299 C301 1.327 . S
C299 C305 1.429 . S
C300 C292 1.574 1_554 S
C300 H295 0.949 . S
C300 C306 1.368 . S
C301 C285 1.349 . S
C301 H293 0.950 . S
C301 C299 1.327 . S
C302 C290 1.349 . S
C302 H296 0.950 . S
C302 C303 1.327 . S
C303 H297 0.950 . S
C303 C302 1.327 . S
C303 C307 1.429 . S
C304 C287 1.574 1_556 S
C304 H298 0.949 . S
C304 C308 1.368 . S
C305 C286 1.429 . S
C305 C299 1.429 . S
C305 C306 1.523 . S
C306 C287 1.368 . S
C306 C300 1.368 . S
C306 C305 1.523 . S
C307 C291 1.429 . S
C307 C303 1.429 . S
C307 C308 1.523 . S
C308 C292 1.368 . S
C308 C304 1.368 . S
C308 C307 1.523 . S
H309 C284 0.950 . S
H310 C286 0.950 . S
H311 C287 0.949 . S
H312 C289 0.950 . S
H313 C291 0.950 . S
C314 C315 1.349 . S
C314 C316 1.327 . S
C314 H339 0.950 . S
C315 C314 1.349 . S
C315 C331 1.349 . S
C316 C314 1.327 . S
C316 C335 1.429 . S
C316 H340 0.950 . S
C317 C334 1.574 1_556 S
C317 C336 1.368 . S
C317 H341 0.949 . S
H318 C322 0.949 . S
C319 C320 1.349 . S
C319 C321 1.327 . S
C319 H342 0.950 . S
C320 C319 1.349 . S
C320 C332 1.349 . S
C321 C319 1.327 . S
C321 C337 1.429 . S
C321 H343 0.950 . S
C322 H318 0.949 . S
C322 C330 1.574 1_554 S
C322 C338 1.368 . S
H323 C331 0.950 . S
H324 C329 0.950 . S
H325 C330 0.949 . S
H326 C332 0.950 . S
H327 C333 0.950 . S
H328 C334 0.949 . S
C329 H324 0.950 . S
C329 C331 1.327 . S
C329 C335 1.429 . S
C330 C322 1.574 1_556 S
C330 H325 0.949 . S
C330 C336 1.368 . S
C331 C315 1.349 . S
C331 H323 0.950 . S
C331 C329 1.327 . S
C332 C320 1.349 . S
C332 H326 0.950 . S
C332 C333 1.327 . S
C333 H327 0.950 . S
C333 C332 1.327 . S
C333 C337 1.429 . S
C334 C317 1.574 1_554 S
C334 H328 0.949 . S
C334 C338 1.368 . S
C335 C316 1.429 . S
C335 C329 1.429 . S
C335 C336 1.523 . S
C336 C317 1.368 . S
C336 C330 1.368 . S
C336 C335 1.523 . S
C337 C321 1.429 . S
C337 C333 1.429 . S
C337 C338 1.523 . S
C338 C322 1.368 . S
C338 C334 1.368 . S
C338 C337 1.523 . S
H339 C314 0.950 . S
H340 C316 0.950 . S
H341 C317 0.949 . S
H342 C319 0.950 . S
H343 C321 0.950 . S
C344 C345 1.349 . S
C344 C346 1.327 . S
C344 H369 0.950 . S
C345 C344 1.349 . S
C345 C361 1.349 . S
C346 C344 1.327 . S
C346 C365 1.429 . S
C346 H370 0.950 . S
C347 C364 1.574 . S
C347 C366 1.368 . S
C347 H371 0.949 . S
H348 C352 0.949 . S
C349 C350 1.349 . S
C349 C351 1.327 . S
C349 H372 0.950 . S
C350 C349 1.349 . S
C350 C362 1.349 . S
C351 C349 1.327 . S
C351 C367 1.429 . S
C351 H373 0.950 . S
C352 H348 0.949 . S
C352 C360 1.574 . S
C352 C368 1.368 . S
H353 C361 0.950 . S
H354 C359 0.950 . S
H355 C360 0.949 . S
H356 C362 0.950 . S
H357 C363 0.950 . S
H358 C364 0.949 . S
C359 H354 0.950 . S
C359 C361 1.327 . S
C359 C365 1.429 . S
C360 C352 1.574 . S
C360 H355 0.949 . S
C360 C366 1.368 . S
C361 C345 1.349 . S
C361 H353 0.950 . S
C361 C359 1.327 . S
C362 C350 1.349 . S
C362 H356 0.950 . S
C362 C363 1.327 . S
C363 H357 0.950 . S
C363 C362 1.327 . S
C363 C367 1.429 . S
C364 C347 1.574 . S
C364 H358 0.949 . S
C364 C368 1.368 . S
C365 C346 1.429 . S
C365 C359 1.429 . S
C365 C366 1.523 . S
C366 C347 1.368 . S
C366 C360 1.368 . S
C366 C365 1.523 . S
C367 C351 1.429 . S
C367 C363 1.429 . S
C367 C368 1.523 . S
C368 C352 1.368 . S
C368 C364 1.368 . S
C368 C367 1.523 . S
H369 C344 0.950 . S
H370 C346 0.950 . S
H371 C347 0.949 . S
H372 C349 0.950 . S
H373 C351 0.950 . S
C374 C375 1.349 . S
C374 C376 1.327 . S
C374 H399 0.950 . S
C375 C374 1.349 . S
C375 C391 1.349 . S
C376 C374 1.327 . S
C376 C395 1.429 . S
C376 H400 0.950 . S
C377 C394 1.574 . S
C377 C396 1.368 . S
C377 H401 0.949 . S
H378 C382 0.949 . S
C379 C380 1.349 . S
C379 C381 1.327 . S
C379 H402 0.950 . S
C380 C379 1.349 . S
C380 C392 1.349 . S
C381 C379 1.327 . S
C381 C397 1.429 . S
C381 H403 0.950 . S
C382 H378 0.949 . S
C382 C390 1.574 . S
C382 C398 1.368 . S
H383 C391 0.950 . S
H384 C389 0.950 . S
H385 C390 0.949 . S
H386 C392 0.950 . S
H387 C393 0.950 . S
H388 C394 0.949 . S
C389 H384 0.950 . S
C389 C391 1.327 . S
C389 C395 1.429 . S
C390 C382 1.574 . S
C390 H385 0.949 . S
C390 C396 1.368 . S
C391 C375 1.349 . S
C391 H383 0.950 . S
C391 C389 1.327 . S
C392 C380 1.349 . S
C392 H386 0.950 . S
C392 C393 1.327 . S
C393 H387 0.950 . S
C393 C392 1.327 . S
C393 C397 1.429 . S
C394 C377 1.574 . S
C394 H388 0.949 . S
C394 C398 1.368 . S
C395 C376 1.429 . S
C395 C389 1.429 . S
C395 C396 1.523 . S
C396 C377 1.368 . S
C396 C390 1.368 . S
C396 C395 1.523 . S
C397 C381 1.429 . S
C397 C393 1.429 . S
C397 C398 1.523 . S
C398 C382 1.368 . S
C398 C394 1.368 . S
C398 C397 1.523 . S
H399 C374 0.950 . S
H400 C376 0.950 . S
H401 C377 0.949 . S
H402 C379 0.950 . S
H403 C381 0.950 . S
C404 C405 1.349 . S
C404 C406 1.327 . S
C404 H429 0.950 . S
C405 C404 1.349 . S
C405 C421 1.349 . S
C406 C404 1.327 . S
C406 C425 1.429 . S
C406 H430 0.950 . S
C407 C424 1.574 1_556 S
C407 C426 1.368 . S
C407 H431 0.949 . S
H408 C412 0.949 . S
C409 C410 1.349 . S
C409 C411 1.327 . S
C409 H432 0.950 . S
C410 C409 1.349 . S
C410 C422 1.349 . S
C411 C409 1.327 . S
C411 C427 1.429 . S
C411 H433 0.950 . S
C412 H408 0.949 . S
C412 C420 1.574 1_554 S
C412 C428 1.368 . S
H413 C421 0.950 . S
H414 C419 0.950 . S
H415 C420 0.949 . S
H416 C422 0.950 . S
H417 C423 0.950 . S
H418 C424 0.949 . S
C419 H414 0.950 . S
C419 C421 1.327 . S
C419 C425 1.429 . S
C420 C412 1.574 1_556 S
C420 H415 0.949 . S
C420 C426 1.368 . S
C421 C405 1.349 . S
C421 H413 0.950 . S
C421 C419 1.327 . S
C422 C410 1.349 . S
C422 H416 0.950 . S
C422 C423 1.327 . S
C423 H417 0.950 . S
C423 C422 1.327 . S
C423 C427 1.429 . S
C424 C407 1.574 1_554 S
C424 H418 0.949 . S
C424 C428 1.368 . S
C425 C406 1.429 . S
C425 C419 1.429 . S
C425 C426 1.523 . S
C426 C407 1.368 . S
C426 C420 1.368 . S
C426 C425 1.523 . S
C427 C411 1.429 . S
C427 C423 1.429 . S
C427 C428 1.523 . S
C428 C412 1.368 . S
C428 C424 1.368 . S
C428 C427 1.523 . S
H429 C404 0.950 . S
H430 C406 0.950 . S
H431 C407 0.949 . S
H432 C409 0.950 . S
H433 C411 0.950 . S
C434 C435 1.349 . S
C434 C436 1.327 . S
C434 H459 0.950 . S
C435 C434 1.349 . S
C435 C451 1.349 . S
C436 C434 1.327 . S
C436 C455 1.429 . S
C436 H460 0.950 . S
C437 C454 1.574 1_554 S
C437 C456 1.368 . S
C437 H461 0.949 . S
H438 C442 0.949 . S
C439 C440 1.349 . S
C439 C441 1.327 . S
C439 H462 0.950 . S
C440 C439 1.349 . S
C440 C452 1.349 . S
C441 C439 1.327 . S
C441 C457 1.429 . S
C441 H463 0.950 . S
C442 H438 0.949 . S
C442 C450 1.574 1_556 S
C442 C458 1.368 . S
H443 C451 0.950 . S
H444 C449 0.950 . S
H445 C450 0.949 . S
H446 C452 0.950 . S
H447 C453 0.950 . S
H448 C454 0.949 . S
C449 H444 0.950 . S
C449 C451 1.327 . S
C449 C455 1.429 . S
C450 C442 1.574 1_554 S
C450 H445 0.949 . S
C450 C456 1.368 . S
C451 C435 1.349 . S
C451 H443 0.950 . S
C451 C449 1.327 . S
C452 C440 1.349 . S
C452 H446 0.950 . S
C452 C453 1.327 . S
C453 H447 0.950 . S
C453 C452 1.327 . S
C453 C457 1.429 . S
C454 C437 1.574 1_556 S
C454 H448 0.949 . S
C454 C458 1.368 . S
C455 C436 1.429 . S
C455 C449 1.429 . S
C455 C456 1.523 . S
C456 C437 1.368 . S
C456 C450 1.368 . S
C456 C455 1.523 . S
C457 C441 1.429 . S
C457 C453 1.429 . S
C457 C458 1.523 . S
C458 C442 1.368 . S
C458 C454 1.368 . S
C458 C457 1.523 . S
H459 C434 0.950 . S
H460 C436 0.950 . S
H461 C437 0.949 . S
H462 C439 0.950 . S
H463 C441 0.950 . S
C464 C465 1.349 . S
C464 C466 1.327 . S
C464 H489 0.950 . S
C465 C464 1.349 . S
C465 C481 1.349 . S
C466 C464 1.327 . S
C466 C485 1.429 . S
C466 H490 0.950 . S
C467 C484 1.574 . S
C467 C486 1.368 1_545 S
C467 H491 0.949 . S
H468 C472 0.949 . S
C469 C470 1.349 . S
C469 C471 1.327 . S
C469 H492 0.950 . S
C470 C469 1.349 . S
C470 C482 1.349 . S
C471 C469 1.327 . S
C471 C487 1.429 . S
C471 H493 0.950 . S
C472 H468 0.949 . S
C472 C480 1.574 . S
C472 C488 1.368 1_565 S
H473 C481 0.950 . S
H474 C479 0.950 1_545 S
H475 C480 0.949 . S
H476 C482 0.950 . S
H477 C483 0.950 1_565 S
H478 C484 0.949 . S
C479 H474 0.950 1_565 S
C479 C481 1.327 . S
C479 C485 1.429 . S
C480 C472 1.574 . S
C480 H475 0.949 . S
C480 C486 1.368 . S
C481 C465 1.349 . S
C481 H473 0.950 . S
C481 C479 1.327 . S
C482 C470 1.349 . S
C482 H476 0.950 . S
C482 C483 1.327 . S
C483 H477 0.950 1_545 S
C483 C482 1.327 . S
C483 C487 1.429 . S
C484 C467 1.574 . S
C484 H478 0.949 . S
C484 C488 1.368 . S
C485 C466 1.429 . S
C485 C479 1.429 . S
C485 C486 1.523 . S
C486 C467 1.368 1_565 S
C486 C480 1.368 . S
C486 C485 1.523 . S
C487 C471 1.429 . S
C487 C483 1.429 . S
C487 C488 1.523 . S
C488 C472 1.368 1_545 S
C488 C484 1.368 . S
C488 C487 1.523 . S
H489 C464 0.950 . S
H490 C466 0.950 . S
H491 C467 0.949 . S
H492 C469 0.950 . S
H493 C471 0.950 . S
C494 C495 1.349 . S
C494 C496 1.327 . S
C494 H519 0.950 . S
C495 C494 1.349 . S
C495 C511 1.349 . S
C496 C494 1.327 . S
C496 C515 1.429 . S
C496 H520 0.950 . S
C497 C514 1.574 . S
C497 C516 1.368 1_545 S
C497 H521 0.949 . S
H498 C502 0.949 . S
C499 C500 1.349 . S
C499 C501 1.327 . S
C499 H522 0.950 . S
C500 C499 1.349 . S
C500 C512 1.349 . S
C501 C499 1.327 . S
C501 C517 1.429 . S
C501 H523 0.950 . S
C502 H498 0.949 . S
C502 C510 1.574 . S
C502 C518 1.368 1_565 S
H503 C511 0.950 . S
H504 C509 0.950 1_545 S
H505 C510 0.949 . S
H506 C512 0.950 . S
H507 C513 0.950 1_565 S
H508 C514 0.949 . S
C509 H504 0.950 1_565 S
C509 C511 1.327 . S
C509 C515 1.429 . S
C510 C502 1.574 . S
C510 H505 0.949 . S
C510 C516 1.368 . S
C511 C495 1.349 . S
C511 H503 0.950 . S
C511 C509 1.327 . S
C512 C500 1.349 . S
C512 H506 0.950 . S
C512 C513 1.327 . S
C513 H507 0.950 1_545 S
C513 C512 1.327 . S
C513 C517 1.429 . S
C514 C497 1.574 . S
C514 H508 0.949 . S
C514 C518 1.368 . S
C515 C496 1.429 . S
C515 C509 1.429 . S
C515 C516 1.523 . S
C516 C497 1.368 1_565 S
C516 C510 1.368 . S
C516 C515 1.523 . S
C517 C501 1.429 . S
C517 C513 1.429 . S
C517 C518 1.523 . S
C518 C502 1.368 1_545 S
C518 C514 1.368 . S
C518 C517 1.523 . S
H519 C494 0.950 . S
H520 C496 0.950 . S
H521 C497 0.949 . S
H522 C499 0.950 . S
H523 C501 0.950 . S
C524 C525 1.349 . S
C524 C526 1.327 . S
C524 H549 0.950 . S
C525 C524 1.349 . S
C525 C541 1.349 . S
C526 C524 1.327 . S
C526 C545 1.429 . S
C526 H550 0.950 1_565 S
C527 C544 1.574 . S
C527 C546 1.368 . S
C527 H551 0.949 . S
H528 C532 0.949 . S
C529 C530 1.349 . S
C529 C531 1.327 . S
C529 H552 0.950 . S
C530 C529 1.349 . S
C530 C542 1.349 . S
C531 C529 1.327 . S
C531 C547 1.429 . S
C531 H553 0.950 1_545 S
C532 H528 0.949 . S
C532 C540 1.574 . S
C532 C548 1.368 . S
H533 C541 0.950 . S
H534 C539 0.950 . S
H535 C540 0.949 . S
H536 C542 0.950 . S
H537 C543 0.950 . S
H538 C544 0.949 . S
C539 H534 0.950 . S
C539 C541 1.327 . S
C539 C545 1.429 . S
C540 C532 1.574 . S
C540 H535 0.949 . S
C540 C546 1.368 1_545 S
C541 C525 1.349 . S
C541 H533 0.950 . S
C541 C539 1.327 . S
C542 C530 1.349 . S
C542 H536 0.950 . S
C542 C543 1.327 . S
C543 H537 0.950 . S
C543 C542 1.327 . S
C543 C547 1.429 . S
C544 C527 1.574 . S
C544 H538 0.949 . S
C544 C548 1.368 1_565 S
C545 C526 1.429 . S
C545 C539 1.429 . S
C545 C546 1.523 . S
C546 C527 1.368 . S
C546 C540 1.368 1_565 S
C546 C545 1.523 . S
C547 C531 1.429 . S
C547 C543 1.429 . S
C547 C548 1.523 . S
C548 C532 1.368 . S
C548 C544 1.368 1_545 S
C548 C547 1.523 . S
H549 C524 0.950 . S
H550 C526 0.950 1_545 S
H551 C527 0.949 . S
H552 C529 0.950 . S
H553 C531 0.950 1_565 S
C554 C555 1.349 . S
C554 C556 1.327 . S
C554 H579 0.950 . S
C555 C554 1.349 . S
C555 C571 1.349 . S
C556 C554 1.327 . S
C556 C575 1.429 . S
C556 H580 0.950 . S
C557 C574 1.574 . S
C557 C576 1.368 1_565 S
C557 H581 0.949 . S
H558 C562 0.949 . S
C559 C560 1.349 . S
C559 C561 1.327 . S
C559 H582 0.950 . S
C560 C559 1.349 . S
C560 C572 1.349 . S
C561 C559 1.327 . S
C561 C577 1.429 . S
C561 H583 0.950 . S
C562 H558 0.949 . S
C562 C570 1.574 . S
C562 C578 1.368 1_545 S
H563 C571 0.950 . S
H564 C569 0.950 1_565 S
H565 C570 0.949 . S
H566 C572 0.950 . S
H567 C573 0.950 1_545 S
H568 C574 0.949 . S
C569 H564 0.950 1_545 S
C569 C571 1.327 . S
C569 C575 1.429 . S
C570 C562 1.574 . S
C570 H565 0.949 . S
C570 C576 1.368 . S
C571 C555 1.349 . S
C571 H563 0.950 . S
C571 C569 1.327 . S
C572 C560 1.349 . S
C572 H566 0.950 . S
C572 C573 1.327 . S
C573 H567 0.950 1_565 S
C573 C572 1.327 . S
C573 C577 1.429 . S
C574 C557 1.574 . S
C574 H568 0.949 . S
C574 C578 1.368 . S
C575 C556 1.429 . S
C575 C569 1.429 . S
C575 C576 1.523 . S
C576 C557 1.368 1_545 S
C576 C570 1.368 . S
C576 C575 1.523 . S
C577 C561 1.429 . S
C577 C573 1.429 . S
C577 C578 1.523 . S
C578 C562 1.368 1_565 S
C578 C574 1.368 . S
C578 C577 1.523 . S
H579 C554 0.950 . S
H580 C556 0.950 . S
H581 C557 0.949 . S
H582 C559 0.950 . S
H583 C561 0.950 . S
C584 C585 1.349 . S
C584 C586 1.327 . S
C584 H609 0.950 . S
C585 C584 1.349 . S
C585 C601 1.349 . S
C586 C584 1.327 . S
C586 C605 1.429 . S
C586 H610 0.950 . S
C587 C604 1.574 1_655 S
C587 C606 1.368 . S
C587 H611 0.949 . S
H588 C592 0.949 . S
C589 C590 1.349 . S
C589 C591 1.327 . S
C589 H612 0.950 . S
C590 C589 1.349 . S
C590 C602 1.349 . S
C591 C589 1.327 . S
C591 C607 1.429 . S
C591 H613 0.950 . S
C592 H588 0.949 . S
C592 C600 1.574 1_455 S
C592 C608 1.368 . S
H593 C601 0.950 . S
H594 C599 0.950 . S
H595 C600 0.949 . S
H596 C602 0.950 . S
H597 C603 0.950 . S
H598 C604 0.949 . S
C599 H594 0.950 . S
C599 C601 1.327 . S
C599 C605 1.429 . S
C600 C592 1.574 1_655 S
C600 H595 0.949 . S
C600 C606 1.368 . S
C601 C585 1.349 . S
C601 H593 0.950 . S
C601 C599 1.327 . S
C602 C590 1.349 . S
C602 H596 0.950 . S
C602 C603 1.327 . S
C603 H597 0.950 . S
C603 C602 1.327 . S
C603 C607 1.429 . S
C604 C587 1.574 1_455 S
C604 H598 0.949 . S
C604 C608 1.368 . S
C605 C586 1.429 . S
C605 C599 1.429 . S
C605 C606 1.523 . S
C606 C587 1.368 . S
C606 C600 1.368 . S
C606 C605 1.523 . S
C607 C591 1.429 . S
C607 C603 1.429 . S
C607 C608 1.523 . S
C608 C592 1.368 . S
C608 C604 1.368 . S
C608 C607 1.523 . S
H609 C584 0.950 . S
H610 C586 0.950 . S
H611 C587 0.949 . S
H612 C589 0.950 . S
H613 C591 0.950 . S
C614 C615 1.349 . S
C614 C616 1.327 . S
C614 H639 0.950 . S
C615 C614 1.349 . S
C615 C631 1.349 . S
C616 C614 1.327 . S
C616 C635 1.429 . S
C616 H640 0.950 . S
C617 C634 1.574 1_455 S
C617 C636 1.368 . S
C617 H641 0.949 . S
H618 C622 0.949 . S
C619 C620 1.349 . S
C619 C621 1.327 . S
C619 H642 0.950 . S
C620 C619 1.349 . S
C620 C632 1.349 . S
C621 C619 1.327 . S
C621 C637 1.429 . S
C621 H643 0.950 . S
C622 H618 0.949 . S
C622 C630 1.574 1_655 S
C622 C638 1.368 . S
H623 C631 0.950 . S
H624 C629 0.950 . S
H625 C630 0.949 . S
H626 C632 0.950 . S
H627 C633 0.950 . S
H628 C634 0.949 . S
C629 H624 0.950 . S
C629 C631 1.327 . S
C629 C635 1.429 . S
C630 C622 1.574 1_455 S
C630 H625 0.949 . S
C630 C636 1.368 . S
C631 C615 1.349 . S
C631 H623 0.950 . S
C631 C629 1.327 . S
C632 C620 1.349 . S
C632 H626 0.950 . S
C632 C633 1.327 . S
C633 H627 0.950 . S
C633 C632 1.327 . S
C633 C637 1.429 . S
C634 C617 1.574 1_655 S
C634 H628 0.949 . S
C634 C638 1.368 . S
C635 C616 1.429 . S
C635 C629 1.429 . S
C635 C636 1.523 . S
C636 C617 1.368 . S
C636 C630 1.368 . S
C636 C635 1.523 . S
C637 C621 1.429 . S
C637 C633 1.429 . S
C637 C638 1.523 . S
C638 C622 1.368 . S
C638 C634 1.368 . S
C638 C637 1.523 . S
H639 C614 0.950 . S
H640 C616 0.950 . S
H641 C617 0.949 . S
H642 C619 0.950 . S
H643 C621 0.950 . S
C644 C645 1.349 . S
C644 C646 1.327 . S
C644 H669 0.950 . S
C645 C644 1.349 . S
C645 C661 1.349 . S
C646 C644 1.327 . S
C646 C665 1.429 . S
C646 H670 0.950 . S
C647 C664 1.574 1_655 S
C647 C666 1.368 . S
C647 H671 0.949 . S
H648 C652 0.949 . S
C649 C650 1.349 . S
C649 C651 1.327 . S
C649 H672 0.950 . S
C650 C649 1.349 . S
C650 C662 1.349 . S
C651 C649 1.327 . S
C651 C667 1.429 . S
C651 H673 0.950 . S
C652 H648 0.949 . S
C652 C660 1.574 1_455 S
C652 C668 1.368 . S
H653 C661 0.950 . S
H654 C659 0.950 . S
H655 C660 0.949 . S
H656 C662 0.950 . S
H657 C663 0.950 . S
H658 C664 0.949 . S
C659 H654 0.950 . S
C659 C661 1.327 . S
C659 C665 1.429 . S
C660 C652 1.574 1_655 S
C660 H655 0.949 . S
C660 C666 1.368 . S
C661 C645 1.349 . S
C661 H653 0.950 . S
C661 C659 1.327 . S
C662 C650 1.349 . S
C662 H656 0.950 . S
C662 C663 1.327 . S
C663 H657 0.950 . S
C663 C662 1.327 . S
C663 C667 1.429 . S
C664 C647 1.574 1_455 S
C664 H658 0.949 . S
C664 C668 1.368 . S
C665 C646 1.429 . S
C665 C659 1.429 . S
C665 C666 1.523 . S
C666 C647 1.368 . S
C666 C660 1.368 . S
C666 C665 1.523 . S
C667 C651 1.429 . S
C667 C663 1.429 . S
C667 C668 1.523 . S
C668 C652 1.368 . S
C668 C664 1.368 . S
C668 C667 1.523 . S
H669 C644 0.950 . S
H670 C646 0.950 . S
H671 C647 0.949 . S
H672 C649 0.950 . S
H673 C651 0.950 . S
C674 C675 1.349 . S
C674 C676 1.327 . S
C674 H699 0.950 . S
C675 C674 1.349 . S
C675 C691 1.349 . S
C676 C674 1.327 . S
C676 C695 1.429 . S
C676 H700 0.950 . S
C677 C694 1.574 1_455 S
C677 C696 1.368 . S
C677 H701 0.949 . S
H678 C682 0.949 . S
C679 C680 1.349 . S
C679 C681 1.327 . S
C679 H702 0.950 . S
C680 C679 1.349 . S
C680 C692 1.349 . S
C681 C679 1.327 . S
C681 C697 1.429 . S
C681 H703 0.950 . S
C682 H678 0.949 . S
C682 C690 1.574 1_655 S
C682 C698 1.368 . S
H683 C691 0.950 . S
H684 C689 0.950 . S
H685 C690 0.949 . S
H686 C692 0.950 . S
H687 C693 0.950 . S
H688 C694 0.949 . S
C689 H684 0.950 . S
C689 C691 1.327 . S
C689 C695 1.429 . S
C690 C682 1.574 1_455 S
C690 H685 0.949 . S
C690 C696 1.368 . S
C691 C675 1.349 . S
C691 H683 0.950 . S
C691 C689 1.327 . S
C692 C680 1.349 . S
C692 H686 0.950 . S
C692 C693 1.327 . S
C693 H687 0.950 . S
C693 C692 1.327 . S
C693 C697 1.429 . S
C694 C677 1.574 1_655 S
C694 H688 0.949 . S
C694 C698 1.368 . S
C695 C676 1.429 . S
C695 C689 1.429 . S
C695 C696 1.523 . S
C696 C677 1.368 . S
C696 C690 1.368 . S
C696 C695 1.523 . S
C697 C681 1.429 . S
C697 C693 1.429 . S
C697 C698 1.523 . S
C698 C682 1.368 . S
C698 C694 1.368 . S
C698 C697 1.523 . S
H699 C674 0.950 . S
H700 C676 0.950 . S
H701 C677 0.949 . S
H702 C679 0.950 . S
H703 C681 0.950 . S
C704 C705 1.349 . S
C704 C706 1.327 . S
C704 H729 0.950 . S
C705 C704 1.349 . S
C705 C721 1.349 . S
C706 C704 1.327 . S
C706 C725 1.429 . S
C706 H730 0.950 . S
C707 C724 1.574 . S
C707 C726 1.368 . S
C707 H731 0.949 . S
H708 C712 0.949 . S
C709 C710 1.349 . S
C709 C711 1.327 . S
C709 H732 0.950 . S
C710 C709 1.349 . S
C710 C722 1.349 . S
C711 C709 1.327 . S
C711 C727 1.429 . S
C711 H733 0.950 . S
C712 H708 0.949 . S
C712 C720 1.574 . S
C712 C728 1.368 . S
H713 C721 0.950 . S
H714 C719 0.950 . S
H715 C720 0.949 . S
H716 C722 0.950 . S
H717 C723 0.950 . S
H718 C724 0.949 . S
C719 H714 0.950 . S
C719 C721 1.327 . S
C719 C725 1.429 . S
C720 C712 1.574 . S
C720 H715 0.949 . S
C720 C726 1.368 . S
C721 C705 1.349 . S
C721 H713 0.950 . S
C721 C719 1.327 . S
C722 C710 1.349 . S
C722 H716 0.950 . S
C722 C723 1.327 . S
C723 H717 0.950 . S
C723 C722 1.327 . S
C723 C727 1.429 . S
C724 C707 1.574 . S
C724 H718 0.949 . S
C724 C728 1.368 . S
C725 C706 1.429 . S
C725 C719 1.429 . S
C725 C726 1.523 . S
C726 C707 1.368 . S
C726 C720 1.368 . S
C726 C725 1.523 . S
C727 C711 1.429 . S
C727 C723 1.429 . S
C727 C728 1.523 . S
C728 C712 1.368 . S
C728 C724 1.368 . S
C728 C727 1.523 . S
H729 C704 0.950 . S
H730 C706 0.950 . S
H731 C707 0.949 . S
H732 C709 0.950 . S
H733 C711 0.950 . S
C734 C735 1.349 . S
C734 C736 1.327 . S
C734 H759 0.950 . S
C735 C734 1.349 . S
C735 C751 1.349 . S
C736 C734 1.327 . S
C736 C755 1.429 . S
C736 H760 0.950 . S
C737 C754 1.574 . S
C737 C756 1.368 . S
C737 H761 0.949 . S
H738 C742 0.949 . S
C739 C740 1.349 . S
C739 C741 1.327 . S
C739 H762 0.950 . S
C740 C739 1.349 . S
C740 C752 1.349 . S
C741 C739 1.327 . S
C741 C757 1.429 . S
C741 H763 0.950 . S
C742 H738 0.949 . S
C742 C750 1.574 . S
C742 C758 1.368 . S
H743 C751 0.950 . S
H744 C749 0.950 . S
H745 C750 0.949 . S
H746 C752 0.950 . S
H747 C753 0.950 . S
H748 C754 0.949 . S
C749 H744 0.950 . S
C749 C751 1.327 . S
C749 C755 1.429 . S
C750 C742 1.574 . S
C750 H745 0.949 . S
C750 C756 1.368 . S
C751 C735 1.349 . S
C751 H743 0.950 . S
C751 C749 1.327 . S
C752 C740 1.349 . S
C752 H746 0.950 . S
C752 C753 1.327 . S
C753 H747 0.950 . S
C753 C752 1.327 . S
C753 C757 1.429 . S
C754 C737 1.574 . S
C754 H748 0.949 . S
C754 C758 1.368 . S
C755 C736 1.429 . S
C755 C749 1.429 . S
C755 C756 1.523 . S
C756 C737 1.368 . S
C756 C750 1.368 . S
C756 C755 1.523 . S
C757 C741 1.429 . S
C757 C753 1.429 . S
C757 C758 1.523 . S
C758 C742 1.368 . S
C758 C754 1.368 . S
C758 C757 1.523 . S
H759 C734 0.950 . S
H760 C736 0.950 . S
H761 C737 0.949 . S
H762 C739 0.950 . S
H763 C741 0.950 . S
C764 C765 1.349 . S
C764 C766 1.327 . S
C764 H789 0.950 . S
C765 C764 1.349 . S
C765 C781 1.349 . S
C766 C764 1.327 . S
C766 C785 1.429 . S
C766 H790 0.950 . S
C767 C784 1.574 . S
C767 C786 1.368 . S
C767 H791 0.949 . S
H768 C772 0.949 . S
C769 C770 1.349 . S
C769 C771 1.327 . S
C769 H792 0.950 . S
C770 C769 1.349 . S
C770 C782 1.349 . S
C771 C769 1.327 . S
C771 C787 1.429 . S
C771 H793 0.950 . S
C772 H768 0.949 . S
C772 C780 1.574 . S
C772 C788 1.368 . S
H773 C781 0.950 . S
H774 C779 0.950 . S
H775 C780 0.949 . S
H776 C782 0.950 . S
H777 C783 0.950 . S
H778 C784 0.949 . S
C779 H774 0.950 . S
C779 C781 1.327 . S
C779 C785 1.429 . S
C780 C772 1.574 . S
C780 H775 0.949 . S
C780 C786 1.368 . S
C781 C765 1.349 . S
C781 H773 0.950 . S
C781 C779 1.327 . S
C782 C770 1.349 . S
C782 H776 0.950 . S
C782 C783 1.327 . S
C783 H777 0.950 . S
C783 C782 1.327 . S
C783 C787 1.429 . S
C784 C767 1.574 . S
C784 H778 0.949 . S
C784 C788 1.368 . S
C785 C766 1.429 . S
C785 C779 1.429 . S
C785 C786 1.523 . S
C786 C767 1.368 . S
C786 C780 1.368 . S
C786 C785 1.523 . S
C787 C771 1.429 . S
C787 C783 1.429 . S
C787 C788 1.523 . S
C788 C772 1.368 . S
C788 C784 1.368 . S
C788 C787 1.523 . S
H789 C764 0.950 . S
H790 C766 0.950 . S
H791 C767 0.949 . S
H792 C769 0.950 . S
H793 C771 0.950 . S
C794 C795 1.349 . S
C794 C796 1.327 . S
C794 H819 0.950 . S
C795 C794 1.349 . S
C795 C811 1.349 . S
C796 C794 1.327 . S
C796 C815 1.429 . S
C796 H820 0.950 . S
C797 C814 1.574 . S
C797 C816 1.368 . S
C797 H821 0.949 . S
H798 C802 0.949 . S
C799 C800 1.349 . S
C799 C801 1.327 . S
C799 H822 0.950 . S
C800 C799 1.349 . S
C800 C812 1.349 . S
C801 C799 1.327 . S
C801 C817 1.429 . S
C801 H823 0.950 . S
C802 H798 0.949 . S
C802 C810 1.574 . S
C802 C818 1.368 . S
H803 C811 0.950 . S
H804 C809 0.950 . S
H805 C810 0.949 . S
H806 C812 0.950 . S
H807 C813 0.950 . S
H808 C814 0.949 . S
C809 H804 0.950 . S
C809 C811 1.327 . S
C809 C815 1.429 . S
C810 C802 1.574 . S
C810 H805 0.949 . S
C810 C816 1.368 . S
C811 C795 1.349 . S
C811 H803 0.950 . S
C811 C809 1.327 . S
C812 C800 1.349 . S
C812 H806 0.950 . S
C812 C813 1.327 . S
C813 H807 0.950 . S
C813 C812 1.327 . S
C813 C817 1.429 . S
C814 C797 1.574 . S
C814 H808 0.949 . S
C814 C818 1.368 . S
C815 C796 1.429 . S
C815 C809 1.429 . S
C815 C816 1.523 . S
C816 C797 1.368 . S
C816 C810 1.368 . S
C816 C815 1.523 . S
C817 C801 1.429 . S
C817 C813 1.429 . S
C817 C818 1.523 . S
C818 C802 1.368 . S
C818 C814 1.368 . S
C818 C817 1.523 . S
H819 C794 0.950 . S
H820 C796 0.950 . S
H821 C797 0.949 . S
H822 C799 0.950 . S
H823 C801 0.950 . S
C824 C825 1.349 . S
C824 C826 1.327 . S
C824 H849 0.950 . S
C825 C824 1.349 . S
C825 C841 1.349 . S
C826 C824 1.327 . S
C826 C845 1.429 . S
C826 H850 0.950 . S
C827 C844 1.574 . S
C827 C846 1.368 . S
C827 H851 0.949 . S
H828 C832 0.949 . S
C829 C830 1.349 . S
C829 C831 1.327 . S
C829 H852 0.950 . S
C830 C829 1.349 . S
C830 C842 1.349 . S
C831 C829 1.327 . S
C831 C847 1.429 . S
C831 H853 0.950 . S
C832 H828 0.949 . S
C832 C840 1.574 . S
C832 C848 1.368 . S
H833 C841 0.950 . S
H834 C839 0.950 . S
H835 C840 0.949 . S
H836 C842 0.950 . S
H837 C843 0.950 . S
H838 C844 0.949 . S
C839 H834 0.950 . S
C839 C841 1.327 . S
C839 C845 1.429 . S
C840 C832 1.574 . S
C840 H835 0.949 . S
C840 C846 1.368 . S
C841 C825 1.349 . S
C841 H833 0.950 . S
C841 C839 1.327 . S
C842 C830 1.349 . S
C842 H836 0.950 . S
C842 C843 1.327 . S
C843 H837 0.950 . S
C843 C842 1.327 . S
C843 C847 1.429 . S
C844 C827 1.574 . S
C844 H838 0.949 . S
C844 C848 1.368 . S
C845 C826 1.429 . S
C845 C839 1.429 . S
C845 C846 1.523 . S
C846 C827 1.368 . S
C846 C840 1.368 . S
C846 C845 1.523 . S
C847 C831 1.429 . S
C847 C843 1.429 . S
C847 C848 1.523 . S
C848 C832 1.368 . S
C848 C844 1.368 . S
C848 C847 1.523 . S
H849 C824 0.950 . S
H850 C826 0.950 . S
H851 C827 0.949 . S
H852 C829 0.950 . S
H853 C831 0.950 . S
C854 C855 1.349 . S
C854 C856 1.327 . S
C854 H879 0.950 . S
C855 C854 1.349 . S
C855 C871 1.349 . S
C856 C854 1.327 . S
C856 C875 1.429 . S
C856 H880 0.950 . S
C857 C874 1.574 . S
C857 C876 1.368 . S
C857 H881 0.949 . S
H858 C862 0.949 . S
C859 C860 1.349 . S
C859 C861 1.327 . S
C859 H882 0.950 . S
C860 C859 1.349 . S
C860 C872 1.349 . S
C861 C859 1.327 . S
C861 C877 1.429 . S
C861 H883 0.950 . S
C862 H858 0.949 . S
C862 C870 1.574 . S
C862 C878 1.368 . S
H863 C871 0.950 . S
H864 C869 0.950 . S
H865 C870 0.949 . S
H866 C872 0.950 . S
H867 C873 0.950 . S
H868 C874 0.949 . S
C869 H864 0.950 . S
C869 C871 1.327 . S
C869 C875 1.429 . S
C870 C862 1.574 . S
C870 H865 0.949 . S
C870 C876 1.368 . S
C871 C855 1.349 . S
C871 H863 0.950 . S
C871 C869 1.327 . S
C872 C860 1.349 . S
C872 H866 0.950 . S
C872 C873 1.327 . S
C873 H867 0.950 . S
C873 C872 1.327 . S
C873 C877 1.429 . S
C874 C857 1.574 . S
C874 H868 0.949 . S
C874 C878 1.368 . S
C875 C856 1.429 . S
C875 C869 1.429 . S
C875 C876 1.523 . S
C876 C857 1.368 . S
C876 C870 1.368 . S
C876 C875 1.523 . S
C877 C861 1.429 . S
C877 C873 1.429 . S
C877 C878 1.523 . S
C878 C862 1.368 . S
C878 C874 1.368 . S
C878 C877 1.523 . S
H879 C854 0.950 . S
H880 C856 0.950 . S
H881 C857 0.949 . S
H882 C859 0.950 . S
H883 C861 0.950 . S
C884 C885 1.349 . S
C884 C886 1.327 . S
C884 H909 0.950 . S
C885 C884 1.349 . S
C885 C901 1.349 . S
C886 C884 1.327 . S
C886 C905 1.429 . S
C886 H910 0.950 . S
C887 C904 1.574 . S
C887 C906 1.368 . S
C887 H911 0.949 . S
H888 C892 0.949 . S
C889 C890 1.349 . S
C889 C891 1.327 . S
C889 H912 0.950 . S
C890 C889 1.349 . S
C890 C902 1.349 . S
C891 C889 1.327 . S
C891 C907 1.429 . S
C891 H913 0.950 . S
C892 H888 0.949 . S
C892 C900 1.574 . S
C892 C908 1.368 . S
H893 C901 0.950 . S
H894 C899 0.950 . S
H895 C900 0.949 . S
H896 C902 0.950 . S
H897 C903 0.950 . S
H898 C904 0.949 . S
C899 H894 0.950 . S
C899 C901 1.327 . S
C899 C905 1.429 . S
C900 C892 1.574 . S
C900 H895 0.949 . S
C900 C906 1.368 . S
C901 C885 1.349 . S
C901 H893 0.950 . S
C901 C899 1.327 . S
C902 C890 1.349 . S
C902 H896 0.950 . S
C902 C903 1.327 . S
C903 H897 0.950 . S
C903 C902 1.327 . S
C903 C907 1.429 . S
C904 C887 1.574 . S
C904 H898 0.949 . S
C904 C908 1.368 . S
C905 C886 1.429 . S
C905 C899 1.429 . S
C905 C906 1.523 . S
C906 C887 1.368 . S
C906 C900 1.368 . S
C906 C905 1.523 . S
C907 C891 1.429 . S
C907 C903 1.429 . S
C907 C908 1.523 . S
C908 C892 1.368 . S
C908 C904 1.368 . S
C908 C907 1.523 . S
H909 C884 0.950 . S
H910 C886 0.950 . S
H911 C887 0.949 . S
H912 C889 0.950 . S
H913 C891 0.950 . S
C914 C915 1.349 . S
C914 C916 1.327 . S
C914 H939 0.950 . S
C915 C914 1.349 . S
C915 C931 1.349 . S
C916 C914 1.327 . S
C916 C935 1.429 . S
C916 H940 0.950 . S
C917 C934 1.574 . S
C917 C936 1.368 . S
C917 H941 0.949 . S
H918 C922 0.949 . S
C919 C920 1.349 . S
C919 C921 1.327 . S
C919 H942 0.950 . S
C920 C919 1.349 . S
C920 C932 1.349 . S
C921 C919 1.327 . S
C921 C937 1.429 . S
C921 H943 0.950 . S
C922 H918 0.949 . S
C922 C930 1.574 . S
C922 C938 1.368 . S
H923 C931 0.950 . S
H924 C929 0.950 . S
H925 C930 0.949 . S
H926 C932 0.950 . S
H927 C933 0.950 . S
H928 C934 0.949 . S
C929 H924 0.950 . S
C929 C931 1.327 . S
C929 C935 1.429 . S
C930 C922 1.574 . S
C930 H925 0.949 . S
C930 C936 1.368 . S
C931 C915 1.349 . S
C931 H923 0.950 . S
C931 C929 1.327 . S
C932 C920 1.349 . S
C932 H926 0.950 . S
C932 C933 1.327 . S
C933 H927 0.950 . S
C933 C932 1.327 . S
C933 C937 1.429 . S
C934 C917 1.574 . S
C934 H928 0.949 . S
C934 C938 1.368 . S
C935 C916 1.429 . S
C935 C929 1.429 . S
C935 C936 1.523 . S
C936 C917 1.368 . S
C936 C930 1.368 . S
C936 C935 1.523 . S
C937 C921 1.429 . S
C937 C933 1.429 . S
C937 C938 1.523 . S
C938 C922 1.368 . S
C938 C934 1.368 . S
C938 C937 1.523 . S
H939 C914 0.950 . S
H940 C916 0.950 . S
H941 C917 0.949 . S
H942 C919 0.950 . S
H943 C921 0.950 . S
C944 C945 1.349 . S
C944 C946 1.327 . S
C944 H969 0.950 . S
C945 C944 1.349 . S
C945 C961 1.349 . S
C946 C944 1.327 . S
C946 C965 1.429 . S
C946 H970 0.950 1_545 S
C947 C964 1.574 . S
C947 C966 1.368 . S
C947 H971 0.949 . S
H948 C952 0.949 . S
C949 C950 1.349 . S
C949 C951 1.327 . S
C949 H972 0.950 . S
C950 C949 1.349 . S
C950 C962 1.349 . S
C951 C949 1.327 . S
C951 C967 1.429 . S
C951 H973 0.950 1_565 S
C952 H948 0.949 . S
C952 C960 1.574 . S
C952 C968 1.368 . S
H953 C961 0.950 . S
H954 C959 0.950 . S
H955 C960 0.949 . S
H956 C962 0.950 . S
H957 C963 0.950 . S
H958 C964 0.949 . S
C959 H954 0.950 . S
C959 C961 1.327 . S
C959 C965 1.429 . S
C960 C952 1.574 . S
C960 H955 0.949 . S
C960 C966 1.368 1_565 S
C961 C945 1.349 . S
C961 H953 0.950 . S
C961 C959 1.327 . S
C962 C950 1.349 . S
C962 H956 0.950 . S
C962 C963 1.327 . S
C963 H957 0.950 . S
C963 C962 1.327 . S
C963 C967 1.429 . S
C964 C947 1.574 . S
C964 H958 0.949 . S
C964 C968 1.368 1_545 S
C965 C946 1.429 . S
C965 C959 1.429 . S
C965 C966 1.523 . S
C966 C947 1.368 . S
C966 C960 1.368 1_545 S
C966 C965 1.523 . S
C967 C951 1.429 . S
C967 C963 1.429 . S
C967 C968 1.523 . S
C968 C952 1.368 . S
C968 C964 1.368 1_565 S
C968 C967 1.523 . S
H969 C944 0.950 . S
H970 C946 0.950 1_565 S
H971 C947 0.949 . S
H972 C949 0.950 . S
H973 C951 0.950 1_545 S
C974 C975 1.349 . S
C974 C976 1.327 . S
C974 H999 0.950 . S
C975 C974 1.349 . S
C975 C991 1.349 . S
C976 C974 1.327 . S
C976 C995 1.429 . S
C976 H1000 0.950 1_545 S
C977 C994 1.574 . S
C977 C996 1.368 . S
C977 H1001 0.949 . S
H978 C982 0.949 . S
C979 C980 1.349 . S
C979 C981 1.327 . S
C979 H1002 0.950 . S
C980 C979 1.349 . S
C980 C992 1.349 . S
C981 C979 1.327 . S
C981 C997 1.429 . S
C981 H1003 0.950 1_565 S
C982 H978 0.949 . S
C982 C990 1.574 . S
C982 C998 1.368 . S
H983 C991 0.950 . S
H984 C989 0.950 . S
H985 C990 0.949 . S
H986 C992 0.950 . S
H987 C993 0.950 . S
H988 C994 0.949 . S
C989 H984 0.950 . S
C989 C991 1.327 . S
C989 C995 1.429 . S
C990 C982 1.574 . S
C990 H985 0.949 . S
C990 C996 1.368 1_565 S
C991 C975 1.349 . S
C991 H983 0.950 . S
C991 C989 1.327 . S
C992 C980 1.349 . S
C992 H986 0.950 . S
C992 C993 1.327 . S
C993 H987 0.950 . S
C993 C992 1.327 . S
C993 C997 1.429 . S
C994 C977 1.574 . S
C994 H988 0.949 . S
C994 C998 1.368 1_545 S
C995 C976 1.429 . S
C995 C989 1.429 . S
C995 C996 1.523 . S
C996 C977 1.368 . S
C996 C990 1.368 1_545 S
C996 C995 1.523 . S
C997 C981 1.429 . S
C997 C993 1.429 . S
C997 C998 1.523 . S
C998 C982 1.368 . S
C998 C994 1.368 1_565 S
C998 C997 1.523 . S
H999 C974 0.950 . S
H1000 C976 0.950 1_565 S
H1001 C977 0.949 . S
H1002 C979 0.950 . S
H1003 C981 0.950 1_545 S
C1004 C1005 1.349 . S
C1004 C1006 1.327 . S
C1004 H1029 0.950 . S
C1005 C1004 1.349 . S
C1005 C1021 1.349 . S
C1006 C1004 1.327 . S
C1006 C1025 1.429 . S
C1006 H1030 0.950 1_545 S
C1007 C1024 1.574 . S
C1007 C1026 1.368 . S
C1007 H1031 0.949 . S
H1008 C1012 0.949 . S
C1009 C1010 1.349 . S
C1009 C1011 1.327 . S
C1009 H1032 0.950 . S
C1010 C1009 1.349 . S
C1010 C1022 1.349 . S
C1011 C1009 1.327 . S
C1011 C1027 1.429 . S
C1011 H1033 0.950 1_565 S
C1012 H1008 0.949 . S
C1012 C1020 1.574 . S
C1012 C1028 1.368 . S
H1013 C1021 0.950 . S
H1014 C1019 0.950 . S
H1015 C1020 0.949 . S
H1016 C1022 0.950 . S
H1017 C1023 0.950 . S
H1018 C1024 0.949 . S
C1019 H1014 0.950 . S
C1019 C1021 1.327 . S
C1019 C1025 1.429 . S
C1020 C1012 1.574 . S
C1020 H1015 0.949 . S
C1020 C1026 1.368 1_565 S
C1021 C1005 1.349 . S
C1021 H1013 0.950 . S
C1021 C1019 1.327 . S
C1022 C1010 1.349 . S
C1022 H1016 0.950 . S
C1022 C1023 1.327 . S
C1023 H1017 0.950 . S
C1023 C1022 1.327 . S
C1023 C1027 1.429 . S
C1024 C1007 1.574 . S
C1024 H1018 0.949 . S
C1024 C1028 1.368 1_545 S
C1025 C1006 1.429 . S
C1025 C1019 1.429 . S
C1025 C1026 1.523 . S
C1026 C1007 1.368 . S
C1026 C1020 1.368 1_545 S
C1026 C1025 1.523 . S
C1027 C1011 1.429 . S
C1027 C1023 1.429 . S
C1027 C1028 1.523 . S
C1028 C1012 1.368 . S
C1028 C1024 1.368 1_565 S
C1028 C1027 1.523 . S
H1029 C1004 0.950 . S
H1030 C1006 0.950 1_565 S
H1031 C1007 0.949 . S
H1032 C1009 0.950 . S
H1033 C1011 0.950 1_545 S
C1034 C1035 1.349 . S
C1034 C1036 1.327 . S
C1034 H1059 0.950 . S
C1035 C1034 1.349 . S
C1035 C1051 1.349 . S
C1036 C1034 1.327 . S
C1036 C1055 1.429 . S
C1036 H1060 0.950 . S
C1037 C1054 1.574 . S
C1037 C1056 1.368 . S
C1037 H1061 0.949 . S
H1038 C1042 0.949 . S
C1039 C1040 1.349 . S
C1039 C1041 1.327 . S
C1039 H1062 0.950 . S
C1040 C1039 1.349 . S
C1040 C1052 1.349 . S
C1041 C1039 1.327 . S
C1041 C1057 1.429 . S
C1041 H1063 0.950 . S
C1042 H1038 0.949 . S
C1042 C1050 1.574 . S
C1042 C1058 1.368 . S
H1043 C1051 0.950 . S
H1044 C1049 0.950 . S
H1045 C1050 0.949 . S
H1046 C1052 0.950 . S
H1047 C1053 0.950 . S
H1048 C1054 0.949 . S
C1049 H1044 0.950 . S
C1049 C1051 1.327 . S
C1049 C1055 1.429 . S
C1050 C1042 1.574 . S
C1050 H1045 0.949 . S
C1050 C1056 1.368 1_545 S
C1051 C1035 1.349 . S
C1051 H1043 0.950 . S
C1051 C1049 1.327 . S
C1052 C1040 1.349 . S
C1052 H1046 0.950 . S
C1052 C1053 1.327 . S
C1053 H1047 0.950 . S
C1053 C1052 1.327 . S
C1053 C1057 1.429 . S
C1054 C1037 1.574 . S
C1054 H1048 0.949 . S
C1054 C1058 1.368 1_565 S
C1055 C1036 1.429 . S
C1055 C1049 1.429 . S
C1055 C1056 1.523 . S
C1056 C1037 1.368 . S
C1056 C1050 1.368 1_565 S
C1056 C1055 1.523 . S
C1057 C1041 1.429 . S
C1057 C1053 1.429 . S
C1057 C1058 1.523 . S
C1058 C1042 1.368 . S
C1058 C1054 1.368 1_545 S
C1058 C1057 1.523 . S
H1059 C1034 0.950 . S
H1060 C1036 0.950 . S
H1061 C1037 0.949 . S
H1062 C1039 0.950 . S
H1063 C1041 0.950 . S
C1064 C1065 1.349 . S
C1064 C1066 1.327 . S
C1064 H1089 0.950 . S
C1065 C1064 1.349 . S
C1065 C1081 1.349 . S
C1066 C1064 1.327 . S
C1066 C1085 1.429 . S
C1066 H1090 0.950 . S
C1067 C1084 1.574 . S
C1067 C1086 1.368 . S
C1067 H1091 0.949 . S
H1068 C1072 0.949 . S
C1069 C1070 1.349 . S
C1069 C1071 1.327 . S
C1069 H1092 0.950 . S
C1070 C1069 1.349 . S
C1070 C1082 1.349 . S
C1071 C1069 1.327 . S
C1071 C1087 1.429 . S
C1071 H1093 0.950 . S
C1072 H1068 0.949 . S
C1072 C1080 1.574 . S
C1072 C1088 1.368 . S
H1073 C1081 0.950 . S
H1074 C1079 0.950 . S
H1075 C1080 0.949 . S
H1076 C1082 0.950 . S
H1077 C1083 0.950 . S
H1078 C1084 0.949 . S
C1079 H1074 0.950 . S
C1079 C1081 1.327 . S
C1079 C1085 1.429 . S
C1080 C1072 1.574 . S
C1080 H1075 0.949 . S
C1080 C1086 1.368 . S
C1081 C1065 1.349 . S
C1081 H1073 0.950 . S
C1081 C1079 1.327 . S
C1082 C1070 1.349 . S
C1082 H1076 0.950 . S
C1082 C1083 1.327 . S
C1083 H1077 0.950 . S
C1083 C1082 1.327 . S
C1083 C1087 1.429 . S
C1084 C1067 1.574 . S
C1084 H1078 0.949 . S
C1084 C1088 1.368 . S
C1085 C1066 1.429 . S
C1085 C1079 1.429 . S
C1085 C1086 1.523 . S
C1086 C1067 1.368 . S
C1086 C1080 1.368 . S
C1086 C1085 1.523 . S
C1087 C1071 1.429 . S
C1087 C1083 1.429 . S
C1087 C1088 1.523 . S
C1088 C1072 1.368 . S
C1088 C1084 1.368 . S
C1088 C1087 1.523 . S
H1089 C1064 0.950 . S
H1090 C1066 0.950 . S
H1091 C1067 0.949 . S
H1092 C1069 0.950 . S
H1093 C1071 0.950 . S
C1094 C1095 1.349 . S
C1094 C1096 1.327 . S
C1094 H1119 0.950 . S
C1095 C1094 1.349 . S
C1095 C1111 1.349 . S
C1096 C1094 1.327 . S
C1096 C1115 1.429 . S
C1096 H1120 0.950 . S
C1097 C1114 1.574 . S
C1097 C1116 1.368 . S
C1097 H1121 0.949 . S
H1098 C1102 0.949 . S
C1099 C1100 1.349 . S
C1099 C1101 1.327 . S
C1099 H1122 0.950 . S
C1100 C1099 1.349 . S
C1100 C1112 1.349 . S
C1101 C1099 1.327 . S
C1101 C1117 1.429 . S
C1101 H1123 0.950 . S
C1102 H1098 0.949 . S
C1102 C1110 1.574 . S
C1102 C1118 1.368 . S
H1103 C1111 0.950 . S
H1104 C1109 0.950 . S
H1105 C1110 0.949 . S
H1106 C1112 0.950 . S
H1107 C1113 0.950 . S
H1108 C1114 0.949 . S
C1109 H1104 0.950 . S
C1109 C1111 1.327 . S
C1109 C1115 1.429 . S
C1110 C1102 1.574 . S
C1110 H1105 0.949 . S
C1110 C1116 1.368 . S
C1111 C1095 1.349 . S
C1111 H1103 0.950 . S
C1111 C1109 1.327 . S
C1112 C1100 1.349 . S
C1112 H1106 0.950 . S
C1112 C1113 1.327 . S
C1113 H1107 0.950 . S
C1113 C1112 1.327 . S
C1113 C1117 1.429 . S
C1114 C1097 1.574 . S
C1114 H1108 0.949 . S
C1114 C1118 1.368 . S
C1115 C1096 1.429 . S
C1115 C1109 1.429 . S
C1115 C1116 1.523 . S
C1116 C1097 1.368 . S
C1116 C1110 1.368 . S
C1116 C1115 1.523 . S
C1117 C1101 1.429 . S
C1117 C1113 1.429 . S
C1117 C1118 1.523 . S
C1118 C1102 1.368 . S
C1118 C1114 1.368 . S
C1118 C1117 1.523 . S
H1119 C1094 0.950 . S
H1120 C1096 0.950 . S
H1121 C1097 0.949 . S
H1122 C1099 0.950 . S
H1123 C1101 0.950 . S
C1124 C1125 1.349 . S
C1124 C1126 1.327 . S
C1124 H1149 0.950 . S
C1125 C1124 1.349 . S
C1125 C1141 1.349 . S
C1126 C1124 1.327 . S
C1126 C1145 1.429 . S
C1126 H1150 0.950 . S
C1127 C1144 1.574 . S
C1127 C1146 1.368 . S
C1127 H1151 0.949 . S
H1128 C1132 0.949 . S
C1129 C1130 1.349 . S
C1129 C1131 1.327 . S
C1129 H1152 0.950 . S
C1130 C1129 1.349 . S
C1130 C1142 1.349 . S
C1131 C1129 1.327 . S
C1131 C1147 1.429 . S
C1131 H1153 0.950 . S
C1132 H1128 0.949 . S
C1132 C1140 1.574 . S
C1132 C1148 1.368 . S
H1133 C1141 0.950 . S
H1134 C1139 0.950 . S
H1135 C1140 0.949 . S
H1136 C1142 0.950 . S
H1137 C1143 0.950 . S
H1138 C1144 0.949 . S
C1139 H1134 0.950 . S
C1139 C1141 1.327 . S
C1139 C1145 1.429 . S
C1140 C1132 1.574 . S
C1140 H1135 0.949 . S
C1140 C1146 1.368 . S
C1141 C1125 1.349 . S
C1141 H1133 0.950 . S
C1141 C1139 1.327 . S
C1142 C1130 1.349 . S
C1142 H1136 0.950 . S
C1142 C1143 1.327 . S
C1143 H1137 0.950 . S
C1143 C1142 1.327 . S
C1143 C1147 1.429 . S
C1144 C1127 1.574 . S
C1144 H1138 0.949 . S
C1144 C1148 1.368 . S
C1145 C1126 1.429 . S
C1145 C1139 1.429 . S
C1145 C1146 1.523 . S
C1146 C1127 1.368 . S
C1146 C1140 1.368 . S
C1146 C1145 1.523 . S
C1147 C1131 1.429 . S
C1147 C1143 1.429 . S
C1147 C1148 1.523 . S
C1148 C1132 1.368 . S
C1148 C1144 1.368 . S
C1148 C1147 1.523 . S
H1149 C1124 0.950 . S
H1150 C1126 0.950 . S
H1151 C1127 0.949 . S
H1152 C1129 0.950 . S
H1153 C1131 0.950 . S
C1154 C1155 1.349 . S
C1154 C1156 1.327 . S
C1154 H1179 0.950 . S
C1155 C1154 1.349 . S
C1155 C1171 1.349 . S
C1156 C1154 1.327 . S
C1156 C1175 1.429 . S
C1156 H1180 0.950 . S
C1157 C1174 1.574 . S
C1157 C1176 1.368 . S
C1157 H1181 0.949 . S
H1158 C1162 0.949 . S
C1159 C1160 1.349 . S
C1159 C1161 1.327 . S
C1159 H1182 0.950 . S
C1160 C1159 1.349 . S
C1160 C1172 1.349 . S
C1161 C1159 1.327 . S
C1161 C1177 1.429 . S
C1161 H1183 0.950 . S
C1162 H1158 0.949 . S
C1162 C1170 1.574 . S
C1162 C1178 1.368 . S
H1163 C1171 0.950 . S
H1164 C1169 0.950 . S
H1165 C1170 0.949 . S
H1166 C1172 0.950 . S
H1167 C1173 0.950 . S
H1168 C1174 0.949 . S
C1169 H1164 0.950 . S
C1169 C1171 1.327 . S
C1169 C1175 1.429 . S
C1170 C1162 1.574 . S
C1170 H1165 0.949 . S
C1170 C1176 1.368 . S
C1171 C1155 1.349 . S
C1171 H1163 0.950 . S
C1171 C1169 1.327 . S
C1172 C1160 1.349 . S
C1172 H1166 0.950 . S
C1172 C1173 1.327 . S
C1173 H1167 0.950 . S
C1173 C1172 1.327 . S
C1173 C1177 1.429 . S
C1174 C1157 1.574 . S
C1174 H1168 0.949 . S
C1174 C1178 1.368 . S
C1175 C1156 1.429 . S
C1175 C1169 1.429 . S
C1175 C1176 1.523 . S
C1176 C1157 1.368 . S
C1176 C1170 1.368 . S
C1176 C1175 1.523 . S
C1177 C1161 1.429 . S
C1177 C1173 1.429 . S
C1177 C1178 1.523 . S
C1178 C1162 1.368 . S
C1178 C1174 1.368 . S
C1178 C1177 1.523 . S
H1179 C1154 0.950 . S
H1180 C1156 0.950 . S
H1181 C1157 0.949 . S
H1182 C1159 0.950 . S
H1183 C1161 0.950 . S
C225 C0 1.633 . S
C230 C70 1.632 . S
C255 C56 1.632 . S
C260 C27 1.632 . S
C285 C28 1.633 . S
C290 C98 1.632 . S
C315 C84 1.632 . S
C320 C43 1.632 . S
C345 C195 1.633 . S
C350 C112 1.633 . S
C375 C168 1.632 . S
C380 C126 1.633 . S
C405 C210 1.632 . S
C410 C140 1.633 . S
C435 C166 1.633 . S
C440 C196 1.632 . S
C465 C15 1.504 . S
C470 C12 1.505 . S
C495 C40 1.505 . S
C500 C55 1.504 . S
C525 C68 1.504 . S
C530 C82 1.504 . S
C555 C96 1.504 . S
C560 C110 1.504 . S
C585 C124 1.505 . S
C590 C138 1.505 . S
C615 C154 1.505 . S
C620 C152 1.505 . S
C645 C183 1.505 . S
C650 C180 1.504 . S
C675 C208 1.504 . S
C680 C222 1.504 . S
C705 C139 1.504 . S
C710 C13 1.504 . S
C735 C14 1.505 . S
C740 C125 1.504 . S
C765 C155 1.504 . S
C770 C41 1.504 . S
C795 C54 1.504 . S
C800 C153 1.504 . S
C825 C69 1.505 . S
C830 C182 1.504 . S
C855 C181 1.505 . S
C860 C83 1.505 . S
C885 C97 1.504 . S
C890 C223 1.504 . S
C915 C209 1.504 . S
C920 C111 1.504 . S
C945 C1 1.650 . S
C950 C29 1.650 . S
C975 C42 1.651 . S
C980 C26 1.651 . S
C1005 C85 1.651 . S
C1010 C57 1.651 . S
C1035 C99 1.651 . S
C1040 C71 1.651 . S
C1065 C141 1.650 . S
C1070 C113 1.650 . S
C1095 C127 1.649 . S
C1100 C167 1.649 . S
C1125 C197 1.651 . S
C1130 C169 1.651 . S
C1155 C194 1.650 . S
C1160 C211 1.651 . S
