# Generated by pormake.
# Topology uod, (4)-cn, num edge types: 1
# Building blocks:
#     Node 0, Type 0, BuildingBlock: GALJAG_clean_sbu_0, # of connection points: 4
#     Node 1, Type 0, BuildingBlock: GALJAG_clean_sbu_0, # of connection points: 4
#     Node 2, Type 0, BuildingBlock: GALJAG_clean_sbu_0, # of connection points: 4
#     Node 3, Type 0, BuildingBlock: GALJAG_clean_sbu_0, # of connection points: 4
#     Node 4, Type 0, BuildingBlock: GALJAG_clean_sbu_0, # of connection points: 4
#     Node 5, Type 0, BuildingBlock: GALJAG_clean_sbu_0, # of connection points: 4
#     Node 6, Type 0, BuildingBlock: GALJAG_clean_sbu_0, # of connection points: 4
#     Node 7, Type 0, BuildingBlock: GALJAG_clean_sbu_0, # of connection points: 4
#     Node 8, Type 0, BuildingBlock: GALJAG_clean_sbu_0, # of connection points: 4
#     Node 9, Type 0, BuildingBlock: GALJAG_clean_sbu_0, # of connection points: 4
#     Node 10, Type 0, BuildingBlock: GALJAG_clean_sbu_0, # of connection points: 4
#     Node 11, Type 0, BuildingBlock: GALJAG_clean_sbu_0, # of connection points: 4
#     Node 12, Type 0, BuildingBlock: GALJAG_clean_sbu_0, # of connection points: 4
#     Node 13, Type 0, BuildingBlock: GALJAG_clean_sbu_0, # of connection points: 4
#     Node 14, Type 0, BuildingBlock: GALJAG_clean_sbu_0, # of connection points: 4
#     Node 15, Type 0, BuildingBlock: GALJAG_clean_sbu_0, # of connection points: 4
#     Node 16, Type 0, BuildingBlock: GALJAG_clean_sbu_0, # of connection points: 4
#     Node 17, Type 0, BuildingBlock: GALJAG_clean_sbu_0, # of connection points: 4
#     Node 18, Type 0, BuildingBlock: GALJAG_clean_sbu_0, # of connection points: 4
#     Node 19, Type 0, BuildingBlock: GALJAG_clean_sbu_0, # of connection points: 4
#     Node 20, Type 0, BuildingBlock: GALJAG_clean_sbu_0, # of connection points: 4
#     Node 21, Type 0, BuildingBlock: GALJAG_clean_sbu_0, # of connection points: 4
#     Node 22, Type 0, BuildingBlock: GALJAG_clean_sbu_0, # of connection points: 4
#     Node 23, Type 0, BuildingBlock: GALJAG_clean_sbu_0, # of connection points: 4
#     Node 24, Type 0, BuildingBlock: GALJAG_clean_sbu_0, # of connection points: 4
#     Node 25, Type 0, BuildingBlock: GALJAG_clean_sbu_0, # of connection points: 4
#     Node 26, Type 0, BuildingBlock: GALJAG_clean_sbu_0, # of connection points: 4
#     Node 27, Type 0, BuildingBlock: GALJAG_clean_sbu_0, # of connection points: 4
#     Node 28, Type 0, BuildingBlock: GALJAG_clean_sbu_0, # of connection points: 4
#     Node 29, Type 0, BuildingBlock: GALJAG_clean_sbu_0, # of connection points: 4
#     Node 30, Type 0, BuildingBlock: GALJAG_clean_sbu_0, # of connection points: 4
#     Node 31, Type 0, BuildingBlock: GALJAG_clean_sbu_0, # of connection points: 4
#     Edge 32, Type (0, 0), BuildingBlock: OJICUG_clean_linker_0, # of connection points: 2
#     Edge 33, Type (0, 0), BuildingBlock: OJICUG_clean_linker_0, # of connection points: 2
#     Edge 34, Type (0, 0), BuildingBlock: OJICUG_clean_linker_0, # of connection points: 2
#     Edge 35, Type (0, 0), BuildingBlock: OJICUG_clean_linker_0, # of connection points: 2
#     Edge 36, Type (0, 0), BuildingBlock: OJICUG_clean_linker_0, # of connection points: 2
#     Edge 37, Type (0, 0), BuildingBlock: OJICUG_clean_linker_0, # of connection points: 2
#     Edge 38, Type (0, 0), BuildingBlock: OJICUG_clean_linker_0, # of connection points: 2
#     Edge 39, Type (0, 0), BuildingBlock: OJICUG_clean_linker_0, # of connection points: 2
#     Edge 40, Type (0, 0), BuildingBlock: OJICUG_clean_linker_0, # of connection points: 2
#     Edge 41, Type (0, 0), BuildingBlock: OJICUG_clean_linker_0, # of connection points: 2
#     Edge 42, Type (0, 0), BuildingBlock: OJICUG_clean_linker_0, # of connection points: 2
#     Edge 43, Type (0, 0), BuildingBlock: OJICUG_clean_linker_0, # of connection points: 2
#     Edge 44, Type (0, 0), BuildingBlock: OJICUG_clean_linker_0, # of connection points: 2
#     Edge 45, Type (0, 0), BuildingBlock: OJICUG_clean_linker_0, # of connection points: 2
#     Edge 46, Type (0, 0), BuildingBlock: OJICUG_clean_linker_0, # of connection points: 2
#     Edge 47, Type (0, 0), BuildingBlock: OJICUG_clean_linker_0, # of connection points: 2
#     Edge 48, Type (0, 0), BuildingBlock: OJICUG_clean_linker_0, # of connection points: 2
#     Edge 49, Type (0, 0), BuildingBlock: OJICUG_clean_linker_0, # of connection points: 2
#     Edge 50, Type (0, 0), BuildingBlock: OJICUG_clean_linker_0, # of connection points: 2
#     Edge 51, Type (0, 0), BuildingBlock: OJICUG_clean_linker_0, # of connection points: 2
#     Edge 52, Type (0, 0), BuildingBlock: OJICUG_clean_linker_0, # of connection points: 2
#     Edge 53, Type (0, 0), BuildingBlock: OJICUG_clean_linker_0, # of connection points: 2
#     Edge 54, Type (0, 0), BuildingBlock: OJICUG_clean_linker_0, # of connection points: 2
#     Edge 55, Type (0, 0), BuildingBlock: OJICUG_clean_linker_0, # of connection points: 2
#     Edge 56, Type (0, 0), BuildingBlock: OJICUG_clean_linker_0, # of connection points: 2
#     Edge 57, Type (0, 0), BuildingBlock: OJICUG_clean_linker_0, # of connection points: 2
#     Edge 58, Type (0, 0), BuildingBlock: OJICUG_clean_linker_0, # of connection points: 2
#     Edge 59, Type (0, 0), BuildingBlock: OJICUG_clean_linker_0, # of connection points: 2
#     Edge 60, Type (0, 0), BuildingBlock: OJICUG_clean_linker_0, # of connection points: 2
#     Edge 61, Type (0, 0), BuildingBlock: OJICUG_clean_linker_0, # of connection points: 2
#     Edge 62, Type (0, 0), BuildingBlock: OJICUG_clean_linker_0, # of connection points: 2
#     Edge 63, Type (0, 0), BuildingBlock: OJICUG_clean_linker_0, # of connection points: 2
#     Edge 64, Type (0, 0), BuildingBlock: OJICUG_clean_linker_0, # of connection points: 2
#     Edge 65, Type (0, 0), BuildingBlock: OJICUG_clean_linker_0, # of connection points: 2
#     Edge 66, Type (0, 0), BuildingBlock: OJICUG_clean_linker_0, # of connection points: 2
#     Edge 67, Type (0, 0), BuildingBlock: OJICUG_clean_linker_0, # of connection points: 2
#     Edge 68, Type (0, 0), BuildingBlock: OJICUG_clean_linker_0, # of connection points: 2
#     Edge 69, Type (0, 0), BuildingBlock: OJICUG_clean_linker_0, # of connection points: 2
#     Edge 70, Type (0, 0), BuildingBlock: OJICUG_clean_linker_0, # of connection points: 2
#     Edge 71, Type (0, 0), BuildingBlock: OJICUG_clean_linker_0, # of connection points: 2
#     Edge 72, Type (0, 0), BuildingBlock: OJICUG_clean_linker_0, # of connection points: 2
#     Edge 73, Type (0, 0), BuildingBlock: OJICUG_clean_linker_0, # of connection points: 2
#     Edge 74, Type (0, 0), BuildingBlock: OJICUG_clean_linker_0, # of connection points: 2
#     Edge 75, Type (0, 0), BuildingBlock: OJICUG_clean_linker_0, # of connection points: 2
#     Edge 76, Type (0, 0), BuildingBlock: OJICUG_clean_linker_0, # of connection points: 2
#     Edge 77, Type (0, 0), BuildingBlock: OJICUG_clean_linker_0, # of connection points: 2
#     Edge 78, Type (0, 0), BuildingBlock: OJICUG_clean_linker_0, # of connection points: 2
#     Edge 79, Type (0, 0), BuildingBlock: OJICUG_clean_linker_0, # of connection points: 2
#     Edge 80, Type (0, 0), BuildingBlock: OJICUG_clean_linker_0, # of connection points: 2
#     Edge 81, Type (0, 0), BuildingBlock: OJICUG_clean_linker_0, # of connection points: 2
#     Edge 82, Type (0, 0), BuildingBlock: OJICUG_clean_linker_0, # of connection points: 2
#     Edge 83, Type (0, 0), BuildingBlock: OJICUG_clean_linker_0, # of connection points: 2
#     Edge 84, Type (0, 0), BuildingBlock: OJICUG_clean_linker_0, # of connection points: 2
#     Edge 85, Type (0, 0), BuildingBlock: OJICUG_clean_linker_0, # of connection points: 2
#     Edge 86, Type (0, 0), BuildingBlock: OJICUG_clean_linker_0, # of connection points: 2
#     Edge 87, Type (0, 0), BuildingBlock: OJICUG_clean_linker_0, # of connection points: 2
#     Edge 88, Type (0, 0), BuildingBlock: OJICUG_clean_linker_0, # of connection points: 2
#     Edge 89, Type (0, 0), BuildingBlock: OJICUG_clean_linker_0, # of connection points: 2
#     Edge 90, Type (0, 0), BuildingBlock: OJICUG_clean_linker_0, # of connection points: 2
#     Edge 91, Type (0, 0), BuildingBlock: OJICUG_clean_linker_0, # of connection points: 2
#     Edge 92, Type (0, 0), BuildingBlock: OJICUG_clean_linker_0, # of connection points: 2
#     Edge 93, Type (0, 0), BuildingBlock: OJICUG_clean_linker_0, # of connection points: 2
#     Edge 94, Type (0, 0), BuildingBlock: OJICUG_clean_linker_0, # of connection points: 2
#     Edge 95, Type (0, 0), BuildingBlock: OJICUG_clean_linker_0, # of connection points: 2
# Relax obj value: 0.120
# Max RMSD: 0.152
# Mean RMSD: 0.152
data_MOF--net-uod--node1-GALJAG_clean_sbu_0--edge1-OJICUG_clean_linker_0
_symmetry_space_group_name_H-M    P1
_symmetry_Int_Tables_number       1
_symmetry_cell_setting            triclinic
loop_
_symmetry_equiv_pos_as_xyz
'x, y, z'
_cell_length_a     68.697445
_cell_length_b     20.923078
_cell_length_c     38.828793
_cell_angle_alpha  90.011757
_cell_angle_beta   90.034703
_cell_angle_gamma 89.980398
loop_
_atom_site_label
_atom_site_type_symbol
_atom_site_fract_x
_atom_site_fract_y
_atom_site_fract_z
_atom_type_partial_charge
In0 In 0.05952 0.35491 0.08743 0.0
O1 O 0.05207 0.37981 0.03167 0.0
O2 O 0.03009 0.38949 0.07051 0.0
C3 C 0.09677 0.32762 0.10202 0.0
C4 C 0.0623 0.47491 0.10764 0.0
C5 C 0.04531 0.24009 0.10297 0.0
O6 O 0.09064 0.33039 0.07108 0.0
O7 O 0.08397 0.3372 0.12489 0.0
O8 O 0.04507 0.28581 0.12448 0.0
O9 O 0.05205 0.25358 0.07349 0.0
C10 C 0.03498 0.39843 0.03949 0.0
O11 O 0.0506 0.43669 0.12249 0.0
O12 O 0.07295 0.45125 0.08439 0.0
In13 In 0.21752 0.85993 0.08572 0.0
O14 O 0.22709 0.78003 0.12157 0.0
O15 O 0.2038 0.76378 0.08549 0.0
C16 C 0.23194 0.97497 0.1005 0.0
C17 C 0.24123 0.8141 0.03706 0.0
C18 C 0.1804 0.88828 0.10057 0.0
O19 O 0.23233 0.92947 0.12212 0.0
O20 O 0.22501 0.96111 0.0712 0.0
O21 O 0.18633 0.88415 0.06957 0.0
O22 O 0.19333 0.87951 0.12332 0.0
C23 C 0.21492 0.74131 0.10838 0.0
O24 O 0.22406 0.83272 0.02982 0.0
O25 O 0.24658 0.82413 0.06773 0.0
In26 In 0.0619 0.86144 0.15264 0.0
O27 O 0.05649 0.82984 0.20841 0.0
O28 O 0.03328 0.82419 0.17177 0.0
C29 C 0.09912 0.88993 0.13836 0.0
C30 C 0.06347 0.74523 0.12604 0.0
C31 C 0.0469 0.97664 0.13958 0.0
O32 O 0.09318 0.88369 0.16923 0.0
O33 O 0.08615 0.88344 0.11548 0.0
O34 O 0.04661 0.93198 0.1175 0.0
O35 O 0.05417 0.96209 0.16851 0.0
C36 C 0.0392 0.81175 0.20182 0.0
O37 O 0.05104 0.78556 0.11535 0.0
O38 O 0.07538 0.76505 0.14835 0.0
In39 In 0.21574 0.35346 0.15194 0.0
O40 O 0.22254 0.38294 0.20752 0.0
O41 O 0.24492 0.38925 0.1693 0.0
C42 C 0.17835 0.32599 0.13837 0.0
C43 C 0.2137 0.47114 0.12759 0.0
C44 C 0.23036 0.23831 0.13768 0.0
O45 O 0.18457 0.33114 0.16915 0.0
O46 O 0.19113 0.33304 0.11522 0.0
O47 O 0.23047 0.28339 0.11583 0.0
O48 O 0.22342 0.2524 0.16692 0.0
C49 C 0.23972 0.40082 0.19987 0.0
O50 O 0.22563 0.43107 0.11495 0.0
O51 O 0.20246 0.45039 0.15072 0.0
In52 In 0.96547 0.61183 0.90303 0.0
O53 O 0.97119 0.5794 0.95862 0.0
O54 O 0.99422 0.5746 0.92166 0.0
C55 C 0.92813 0.64001 0.88933 0.0
C56 C 0.96407 0.49609 0.87579 0.0
C57 C 0.98045 0.72716 0.89021 0.0
O58 O 0.93421 0.63319 0.92009 0.0
O59 O 0.94102 0.63431 0.86628 0.0
O60 O 0.98063 0.6827 0.86801 0.0
O61 O 0.97321 0.71243 0.91912 0.0
C62 C 0.98847 0.56163 0.95172 0.0
O63 O 0.97637 0.5369 0.86524 0.0
O64 O 0.95217 0.51523 0.89828 0.0
In65 In 0.81287 0.10483 0.90198 0.0
O66 O 0.8067 0.13723 0.9574 0.0
O67 O 0.78395 0.14193 0.91984 0.0
C68 C 0.85029 0.07673 0.88893 0.0
C69 C 0.81452 0.22066 0.87497 0.0
C70 C 0.79802 -0.01055 0.88883 0.0
O71 O 0.84406 0.08353 0.91959 0.0
O72 O 0.83751 0.0824 0.86567 0.0
O73 O 0.79792 0.03393 0.86665 0.0
O74 O 0.8051 0.00419 0.91789 0.0
C75 C 0.78946 0.15492 0.95006 0.0
O76 O 0.80232 0.17988 0.86397 0.0
O77 O 0.8262 0.20146 0.89782 0.0
In78 In 0.96906 0.10554 0.83799 0.0
O79 O 0.97659 0.12971 0.78222 0.0
O80 O 0.99851 0.14003 0.82119 0.0
C81 C 0.93186 0.07844 0.85276 0.0
C82 C 0.96607 0.22585 0.85748 0.0
C83 C 0.98311 -0.00938 0.85375 0.0
O84 O 0.93795 0.08065 0.8218 0.0
O85 O 0.94467 0.08852 0.87558 0.0
O86 O 0.98343 0.03644 0.87521 0.0
O87 O 0.97643 0.00413 0.82421 0.0
C88 C 0.99365 0.14854 0.7901 0.0
O89 O 0.97778 0.18807 0.87268 0.0
O90 O 0.95553 0.20162 0.83422 0.0
In91 In 0.80958 0.61094 0.8368 0.0
O92 O 0.80216 0.58621 0.78103 0.0
O93 O 0.78018 0.57618 0.81986 0.0
C94 C 0.84672 0.63825 0.85197 0.0
C95 C 0.8126 0.49085 0.8566 0.0
C96 C 0.79549 0.72594 0.85228 0.0
O97 O 0.84074 0.63578 0.82093 0.0
O98 O 0.83383 0.62832 0.87464 0.0
O99 O 0.7951 0.68019 0.87377 0.0
O100 O 0.80225 0.71231 0.82282 0.0
C101 C 0.7851 0.56736 0.78883 0.0
O102 O 0.80081 0.52867 0.87157 0.0
O103 O 0.82319 0.51493 0.83341 0.0
In104 In 0.06066 0.85478 0.58831 0.0
O105 O 0.05312 0.87988 0.53261 0.0
O106 O 0.03122 0.88957 0.57159 0.0
C107 C 0.09791 0.82734 0.60277 0.0
C108 C 0.06354 0.97473 0.60853 0.0
C109 C 0.04644 0.73999 0.60381 0.0
O110 O 0.09176 0.83017 0.57185 0.0
O111 O 0.08514 0.83694 0.62569 0.0
O112 O 0.04623 0.78566 0.62536 0.0
O113 O 0.05315 0.75352 0.57432 0.0
C114 C 0.03606 0.89858 0.54056 0.0
O115 O 0.05184 0.93656 0.62343 0.0
O116 O 0.07414 0.95105 0.58522 0.0
In117 In 0.21862 0.3597 0.58663 0.0
O118 O 0.22508 0.33253 0.53071 0.0
O119 O 0.24765 0.32381 0.56852 0.0
C120 C 0.18152 0.38815 0.60154 0.0
C121 C 0.21601 0.24103 0.60918 0.0
C122 C 0.23311 0.47464 0.60135 0.0
O123 O 0.18743 0.38411 0.57053 0.0
O124 O 0.19444 0.37927 0.62427 0.0
O125 O 0.23348 0.42918 0.62299 0.0
O126 O 0.22616 0.46078 0.57207 0.0
C127 C 0.24225 0.31385 0.53786 0.0
O128 O 0.22819 0.27968 0.62239 0.0
O129 O 0.20487 0.26361 0.58635 0.0
In130 In 0.06298 0.36123 0.65331 0.0
O131 O 0.05234 0.28539 0.61583 0.0
O132 O 0.07649 0.26485 0.6493 0.0
C133 C 0.04802 0.47648 0.6403 0.0
C134 C 0.04 0.31136 0.70202 0.0
C135 C 0.10021 0.38977 0.63921 0.0
O136 O 0.04776 0.43189 0.61818 0.0
O137 O 0.05526 0.46184 0.66925 0.0
O138 O 0.09424 0.3834 0.67005 0.0
O139 O 0.08727 0.38339 0.61627 0.0
C140 C 0.06471 0.24505 0.62676 0.0
O141 O 0.05726 0.32944 0.70896 0.0
O142 O 0.03426 0.3239 0.67188 0.0
In143 In 0.21691 0.85316 0.65238 0.0
O144 O 0.22672 0.93075 0.61532 0.0
O145 O 0.2036 0.95003 0.6512 0.0
C146 C 0.23155 0.73803 0.63826 0.0
C147 C 0.24094 0.90074 0.70015 0.0
C148 C 0.17952 0.82557 0.6389 0.0
O149 O 0.23165 0.783 0.61634 0.0
O150 O 0.22461 0.75222 0.66749 0.0
O151 O 0.18576 0.83081 0.66966 0.0
O152 O 0.19228 0.83259 0.61571 0.0
C153 C 0.2148 0.9708 0.62802 0.0
O154 O 0.22377 0.88287 0.70788 0.0
O155 O 0.2461 0.88905 0.66958 0.0
In156 In 0.96627 0.11202 0.40464 0.0
O157 O 0.97216 0.07995 0.46022 0.0
O158 O 0.99507 0.07491 0.42303 0.0
C159 C 0.92892 0.14017 0.39099 0.0
C160 C 0.96471 -0.00402 0.37782 0.0
C161 C 0.98119 0.22732 0.39159 0.0
O162 O 0.93503 0.13362 0.42175 0.0
O163 O 0.94179 0.13421 0.36791 0.0
O164 O 0.98136 0.18277 0.36945 0.0
O165 O 0.97401 0.21268 0.42057 0.0
C166 C 0.98941 0.06211 0.45317 0.0
O167 O 0.97697 0.03663 0.36694 0.0
O168 O 0.95293 0.0154 0.40042 0.0
In169 In 0.81333 0.60402 0.40497 0.0
O170 O 0.80706 0.63534 0.46053 0.0
O171 O 0.78437 0.64059 0.42285 0.0
C172 C 0.8507 0.57624 0.39143 0.0
C173 C 0.81498 0.72058 0.37889 0.0
C174 C 0.79854 0.4887 0.39152 0.0
O175 O 0.84457 0.58246 0.42219 0.0
O176 O 0.83785 0.58238 0.36831 0.0
O177 O 0.79837 0.53343 0.36948 0.0
O178 O 0.80566 0.50317 0.42058 0.0
C179 C 0.78983 0.65308 0.45316 0.0
O180 O 0.80288 0.67996 0.36739 0.0
O181 O 0.82659 0.70089 0.40175 0.0
In182 In 0.9693 0.60558 0.33937 0.0
O183 O 0.97833 0.68776 0.37409 0.0
O184 O 0.95572 0.70172 0.33635 0.0
C185 C 0.9835 0.49074 0.35497 0.0
C186 C 0.99349 0.64887 0.2909 0.0
C187 C 0.93215 0.57821 0.35444 0.0
O188 O 0.98385 0.53657 0.37642 0.0
O189 O 0.97671 0.5042 0.32551 0.0
O190 O 0.93814 0.58068 0.32343 0.0
O191 O 0.94502 0.58817 0.37715 0.0
C192 C 0.96647 0.7257 0.35937 0.0
O193 O 0.97636 0.63004 0.28344 0.0
O194 O 0.99859 0.64021 0.32185 0.0
In195 In 0.81032 0.1104 0.33894 0.0
O196 O 0.80342 0.08522 0.28296 0.0
O197 O 0.7811 0.07541 0.32114 0.0
C198 C 0.84748 0.13809 0.35389 0.0
C199 C 0.81313 -0.00925 0.35983 0.0
C200 C 0.79612 0.22534 0.35448 0.0
O201 O 0.84147 0.13514 0.32289 0.0
O202 O 0.83462 0.12844 0.37663 0.0
O203 O 0.79576 0.17953 0.37591 0.0
O204 O 0.80288 0.2118 0.32502 0.0
C205 C 0.78628 0.06644 0.29028 0.0
O206 O 0.80114 0.0289 0.374 0.0
O207 O 0.82399 0.01427 0.33686 0.0
In208 In 0.56035 0.3551 0.58387 0.0
O209 O 0.55403 0.38427 0.52813 0.0
O210 O 0.53138 0.39159 0.56581 0.0
C211 C 0.59745 0.32648 0.59885 0.0
C212 C 0.56283 0.47288 0.60781 0.0
C213 C 0.54579 0.23984 0.59767 0.0
O214 O 0.5916 0.33139 0.56784 0.0
O215 O 0.58446 0.33452 0.62154 0.0
O216 O 0.54532 0.28494 0.61952 0.0
O217 O 0.5529 0.25417 0.56859 0.0
C218 C 0.53685 0.40273 0.53533 0.0
O219 O 0.55058 0.43375 0.62033 0.0
O220 O 0.5741 0.45119 0.58496 0.0
In221 In 0.71791 0.86066 0.58713 0.0
O222 O 0.72563 0.83494 0.53158 0.0
O223 O 0.74738 0.82553 0.57087 0.0
C224 C 0.6806 0.88823 0.60091 0.0
C225 C 0.71497 0.74107 0.60791 0.0
C226 C 0.73214 0.97549 0.60263 0.0
O227 O 0.68686 0.88487 0.57009 0.0
O228 O 0.69329 0.87917 0.62405 0.0
O229 O 0.73224 0.92994 0.62424 0.0
O230 O 0.72551 0.96183 0.57308 0.0
C231 C 0.74266 0.81625 0.5398 0.0
O232 O 0.72665 0.77945 0.62269 0.0
O233 O 0.70441 0.76437 0.58441 0.0
In234 In 0.5615 0.86172 0.64964 0.0
O235 O 0.55459 0.83411 0.70537 0.0
O236 O 0.53228 0.82646 0.66704 0.0
C237 C 0.59889 0.8892 0.63617 0.0
C238 C 0.5637 0.74314 0.62665 0.0
C239 C 0.54689 0.97647 0.63461 0.0
O240 O 0.5926 0.88493 0.66692 0.0
O241 O 0.58619 0.88121 0.61295 0.0
O242 O 0.5469 0.9311 0.61292 0.0
O243 O 0.5537 0.96284 0.66403 0.0
C244 C 0.53743 0.81598 0.69777 0.0
O245 O 0.55184 0.7827 0.61331 0.0
O246 O 0.57481 0.76483 0.64977 0.0
In247 In 0.71581 0.35424 0.65205 0.0
O248 O 0.72161 0.38571 0.70773 0.0
O249 O 0.74456 0.39146 0.67061 0.0
C250 C 0.67866 0.3256 0.63737 0.0
C251 C 0.71396 0.47076 0.6261 0.0
C252 C 0.73078 0.23903 0.63909 0.0
O253 O 0.68452 0.33158 0.66832 0.0
O254 O 0.69167 0.33245 0.61462 0.0
O255 O 0.73112 0.28368 0.617 0.0
O256 O 0.72347 0.25364 0.66798 0.0
C257 C 0.73885 0.40385 0.70079 0.0
O258 O 0.72629 0.43063 0.61484 0.0
O259 O 0.70227 0.4506 0.64867 0.0
In260 In 0.46701 0.61235 0.39846 0.0
O261 O 0.47361 0.58492 0.45433 0.0
O262 O 0.49611 0.57673 0.41641 0.0
C263 C 0.42977 0.64032 0.38403 0.0
C264 C 0.46469 0.49358 0.37587 0.0
C265 C 0.48167 0.72703 0.38359 0.0
O266 O 0.43586 0.63647 0.41494 0.0
O267 O 0.4426 0.63158 0.36112 0.0
O268 O 0.48182 0.68158 0.36193 0.0
O269 O 0.47475 0.71342 0.41291 0.0
C270 C 0.49079 0.56644 0.44705 0.0
O271 O 0.47668 0.53269 0.36256 0.0
O272 O 0.45353 0.51581 0.39875 0.0
In273 In 0.31158 0.10602 0.39928 0.0
O274 O 0.30162 0.18521 0.36332 0.0
O275 O 0.32512 0.20251 0.39876 0.0
C276 C 0.29682 -0.00869 0.3847 0.0
C277 C 0.28817 0.15229 0.4483 0.0
C278 C 0.34875 0.07779 0.38449 0.0
O279 O 0.29658 0.03668 0.36302 0.0
O280 O 0.30388 0.00502 0.41392 0.0
O281 O 0.3428 0.082 0.41546 0.0
O282 O 0.33582 0.0863 0.36171 0.0
C283 C 0.31376 0.22443 0.3761 0.0
O284 O 0.30539 0.13382 0.45526 0.0
O285 O 0.28264 0.1419 0.41777 0.0
In286 In 0.46732 0.10573 0.33284 0.0
O287 O 0.47388 0.1353 0.27724 0.0
O288 O 0.49636 0.14225 0.3153 0.0
C289 C 0.4301 0.07739 0.34701 0.0
C290 C 0.46492 0.22327 0.35721 0.0
C291 C 0.48191 -0.00955 0.34672 0.0
O292 O 0.43611 0.08276 0.31612 0.0
O293 O 0.44299 0.08476 0.36996 0.0
O294 O 0.48222 0.03545 0.36863 0.0
O295 O 0.47489 0.00482 0.31756 0.0
C296 C 0.49104 0.15361 0.28476 0.0
O297 O 0.47708 0.18377 0.36971 0.0
O298 O 0.45367 0.20204 0.33418 0.0
In299 In 0.31094 0.61263 0.33366 0.0
O300 O 0.3039 0.58353 0.27818 0.0
O301 O 0.28172 0.57648 0.31674 0.0
C302 C 0.34824 0.64071 0.34745 0.0
C303 C 0.31352 0.49472 0.35737 0.0
C304 C 0.29647 0.72788 0.34784 0.0
O305 O 0.34208 0.63563 0.31663 0.0
O306 O 0.33545 0.63318 0.37054 0.0
O307 O 0.29625 0.68283 0.36973 0.0
O308 O 0.30336 0.71358 0.31858 0.0
C309 C 0.28679 0.5653 0.28605 0.0
O310 O 0.30153 0.53413 0.37046 0.0
O311 O 0.32452 0.51621 0.33407 0.0
In312 In 0.56154 0.85529 0.08422 0.0
O313 O 0.55151 0.933 0.12107 0.0
O314 O 0.57521 0.95145 0.08625 0.0
C315 C 0.54688 0.74003 0.0978 0.0
C316 C 0.53818 0.90353 0.03562 0.0
C317 C 0.59873 0.82703 0.09877 0.0
O318 O 0.5465 0.78495 0.11975 0.0
O319 O 0.55401 0.75447 0.06875 0.0
O320 O 0.59279 0.83241 0.06784 0.0
O321 O 0.58578 0.83425 0.1216 0.0
C322 C 0.56381 0.9725 0.10906 0.0
O323 O 0.55537 0.88508 0.02849 0.0
O324 O 0.53265 0.89217 0.06603 0.0
In325 In 0.71808 0.36428 0.08424 0.0
O326 O 0.72741 0.28454 0.12036 0.0
O327 O 0.70478 0.26748 0.0831 0.0
C328 C 0.73225 0.47951 0.09935 0.0
C329 C 0.74251 0.31925 0.03649 0.0
C330 C 0.68071 0.39111 0.09824 0.0
O331 O 0.73255 0.43398 0.12094 0.0
O332 O 0.72543 0.46574 0.06995 0.0
O333 O 0.68687 0.38716 0.06738 0.0
O334 O 0.69352 0.38309 0.12128 0.0
C335 C 0.71564 0.24533 0.10647 0.0
O336 O 0.72537 0.33733 0.0286 0.0
O337 O 0.74747 0.32947 0.06735 0.0
In338 In 0.56193 0.36193 0.14931 0.0
O339 O 0.55251 0.28189 0.11351 0.0
O340 O 0.57528 0.26523 0.15056 0.0
C341 C 0.54731 0.47659 0.13439 0.0
C342 C 0.53778 0.31666 0.19741 0.0
C343 C 0.59918 0.38958 0.13488 0.0
O344 O 0.54717 0.43116 0.11272 0.0
O345 O 0.55423 0.46299 0.16373 0.0
O346 O 0.5931 0.38594 0.1658 0.0
O347 O 0.58634 0.38077 0.11197 0.0
C348 C 0.5643 0.2428 0.12744 0.0
O349 O 0.55492 0.335 0.20507 0.0
O350 O 0.53268 0.32676 0.16661 0.0
In351 In 0.71722 0.85785 0.15117 0.0
O352 O 0.72763 0.93549 0.1146 0.0
O353 O 0.70365 0.95432 0.1487 0.0
C354 C 0.73196 0.7428 0.13693 0.0
C355 C 0.74029 0.90545 0.20045 0.0
C356 C 0.68004 0.82921 0.13661 0.0
O357 O 0.73225 0.78807 0.11521 0.0
O358 O 0.7249 0.75677 0.1661 0.0
O359 O 0.68599 0.83437 0.16755 0.0
O360 O 0.69296 0.8371 0.1138 0.0
C361 C 0.7153 0.97523 0.12625 0.0
O362 O 0.72301 0.88732 0.20713 0.0
O363 O 0.74602 0.89407 0.17017 0.0
In364 In 0.46792 0.11066 0.89848 0.0
O365 O 0.47478 0.08452 0.95438 0.0
O366 O 0.49712 0.07555 0.9162 0.0
C367 C 0.43075 0.13886 0.88377 0.0
C368 C 0.46538 -0.00875 0.87707 0.0
C369 C 0.48248 0.22521 0.88324 0.0
O370 O 0.4368 0.13556 0.91473 0.0
O371 O 0.44357 0.12929 0.86095 0.0
O372 O 0.48264 0.1796 0.86168 0.0
O373 O 0.47562 0.21176 0.91264 0.0
C374 C 0.49193 0.06598 0.94699 0.0
O375 O 0.47728 0.02988 0.86309 0.0
O376 O 0.45441 0.01424 0.90002 0.0
In377 In 0.31131 0.60819 0.8989 0.0
O378 O 0.30473 0.6349 0.95486 0.0
O379 O 0.28223 0.64374 0.91691 0.0
C380 C 0.34844 0.57967 0.8841 0.0
C381 C 0.31382 0.72721 0.87686 0.0
C382 C 0.29668 0.49359 0.88386 0.0
O383 O 0.34246 0.58335 0.91508 0.0
O384 O 0.33557 0.58901 0.86132 0.0
O385 O 0.29647 0.53914 0.86227 0.0
O386 O 0.3036 0.50715 0.91321 0.0
C387 C 0.28756 0.65352 0.94762 0.0
O388 O 0.30177 0.68848 0.86334 0.0
O389 O 0.32493 0.7045 0.8997 0.0
In390 In 0.46714 0.60405 0.83309 0.0
O391 O 0.47723 0.68094 0.87041 0.0
O392 O 0.45365 0.70056 0.83548 0.0
C393 C 0.48179 0.48864 0.84655 0.0
C394 C 0.49073 0.65254 0.78494 0.0
C395 C 0.42984 0.57622 0.84693 0.0
O396 O 0.48209 0.53341 0.86858 0.0
O397 O 0.47468 0.50322 0.81748 0.0
O398 O 0.43591 0.58211 0.81612 0.0
O399 O 0.44272 0.58264 0.86997 0.0
C400 C 0.46505 0.72096 0.85849 0.0
O401 O 0.47353 0.63451 0.77754 0.0
O402 O 0.49614 0.64067 0.81537 0.0
In403 In 0.31188 0.11471 0.83343 0.0
O404 O 0.30504 0.08444 0.77802 0.0
O405 O 0.28272 0.0783 0.81636 0.0
C406 C 0.34924 0.14233 0.84706 0.0
C407 C 0.31417 -0.00252 0.85824 0.0
C408 C 0.29734 0.23013 0.84711 0.0
O409 O 0.34307 0.1367 0.81627 0.0
O410 O 0.33642 0.13576 0.87018 0.0
O411 O 0.2971 0.18533 0.86912 0.0
O412 O 0.30434 0.21559 0.81797 0.0
C413 C 0.2879 0.06643 0.78581 0.0
O414 O 0.30215 0.03741 0.87073 0.0
O415 O 0.32535 0.01813 0.83499 0.0
C416 C 0.08018 0.64374 0.11324 0.0
C417 C 0.06273 0.67734 0.11768 0.0
H418 H 0.09361 0.55232 0.10656 0.0
C419 C 0.04507 0.64399 0.11996 0.0
H420 H 0.09397 0.66882 0.11208 0.0
C421 C 0.04495 0.57728 0.11838 0.0
C422 C 0.06244 0.5438 0.11372 0.0
H423 H 0.03153 0.66931 0.1243 0.0
H424 H 0.03122 0.55202 0.12005 0.0
C425 C 0.08 0.57743 0.11065 0.0
C426 C 0.19705 0.64009 0.11608 0.0
C427 C 0.21483 0.67286 0.11557 0.0
H428 H 0.18286 0.54939 0.12029 0.0
C429 C 0.23237 0.63862 0.1171 0.0
H430 H 0.18339 0.66584 0.11439 0.0
C431 C 0.23207 0.57193 0.11887 0.0
C432 C 0.21423 0.53938 0.11995 0.0
H433 H 0.24622 0.66325 0.11591 0.0
H434 H 0.24569 0.546 0.12052 0.0
C435 C 0.19675 0.57382 0.1189 0.0
C436 C 0.98309 0.32875 0.86835 0.0
C437 C 0.96572 0.29479 0.86334 0.0
H438 H 0.99622 0.42114 0.87457 0.0
C439 C 0.94809 0.32795 0.85985 0.0
H440 H 0.99688 0.30387 0.87036 0.0
C441 C 0.94771 0.39425 0.86243 0.0
C442 C 0.96503 0.42832 0.86726 0.0
H443 H 0.93458 0.30247 0.85551 0.0
H444 H 0.93386 0.41896 0.86101 0.0
C445 C 0.98278 0.39546 0.8699 0.0
C446 C 0.79553 0.38794 0.867 0.0
C447 C 0.81293 0.42196 0.86257 0.0
H448 H 0.78237 0.29551 0.87275 0.0
C449 C 0.83061 0.38888 0.85968 0.0
H450 H 0.78171 0.41278 0.86853 0.0
C451 C 0.83099 0.32258 0.86226 0.0
C452 C 0.81362 0.28845 0.86649 0.0
H453 H 0.84415 0.41442 0.85578 0.0
H454 H 0.84486 0.29792 0.8613 0.0
C455 C 0.79585 0.32124 0.86855 0.0
C456 C 0.0462 0.07712 0.61915 0.0
C457 C 0.06369 0.04361 0.61459 0.0
H458 H 0.03277 0.16918 0.62493 0.0
C459 C 0.08126 0.07722 0.61156 0.0
H460 H 0.03246 0.05188 0.62077 0.0
C461 C 0.08145 0.14353 0.6141 0.0
C462 C 0.06399 0.17716 0.61843 0.0
H463 H 0.09487 0.05207 0.60755 0.0
H464 H 0.09524 0.1686 0.61299 0.0
C465 C 0.04632 0.14384 0.62066 0.0
C466 C 0.19784 0.07347 0.61939 0.0
C467 C 0.21533 0.03905 0.62041 0.0
H468 H 0.18448 0.16549 0.61501 0.0
C469 C 0.23316 0.07162 0.61942 0.0
H470 H 0.18396 0.04901 0.62073 0.0
C471 C 0.23346 0.13832 0.61776 0.0
C472 C 0.21592 0.17254 0.61626 0.0
H473 H 0.24679 0.04569 0.62107 0.0
H474 H 0.24731 0.16296 0.61665 0.0
C475 C 0.19814 0.13975 0.61668 0.0
C476 C 0.94819 0.89409 0.36518 0.0
C477 C 0.96558 0.92813 0.36939 0.0
H478 H 0.93497 0.80235 0.35868 0.0
C479 C 0.98334 0.89523 0.37143 0.0
H480 H 0.93434 0.91883 0.36422 0.0
C481 C 0.98362 0.82852 0.36984 0.0
C482 C 0.96619 0.7946 0.36541 0.0
H483 H 0.99684 0.92088 0.37561 0.0
H484 H 0.99743 0.8036 0.37133 0.0
C485 C 0.94853 0.8278 0.36257 0.0
C486 C 0.83158 0.82284 0.36742 0.0
C487 C 0.81417 0.78853 0.37066 0.0
H488 H 0.84476 0.91477 0.36143 0.0
C489 C 0.79634 0.82115 0.37163 0.0
H490 H 0.84548 0.79834 0.36727 0.0
C491 C 0.79598 0.88785 0.36989 0.0
C492 C 0.81343 0.92202 0.36633 0.0
H493 H 0.78281 0.7953 0.37503 0.0
H494 H 0.78212 0.91254 0.37048 0.0
C495 C 0.83118 0.88911 0.36464 0.0
C496 C 0.5455 0.64214 0.61714 0.0
C497 C 0.56331 0.67464 0.61959 0.0
H498 H 0.53141 0.55086 0.61309 0.0
C499 C 0.58078 0.6401 0.62013 0.0
H500 H 0.53186 0.66813 0.61751 0.0
C501 C 0.58053 0.57381 0.61743 0.0
C502 C 0.56277 0.54114 0.61544 0.0
H503 H 0.59464 0.66447 0.62256 0.0
H504 H 0.59421 0.54798 0.61685 0.0
C505 C 0.54523 0.57544 0.61548 0.0
C506 C 0.69726 0.63867 0.61156 0.0
C507 C 0.71484 0.67228 0.61419 0.0
H508 H 0.6833 0.54726 0.61323 0.0
C509 C 0.73237 0.6388 0.6184 0.0
H510 H 0.68362 0.66381 0.60781 0.0
C511 C 0.73227 0.57209 0.61989 0.0
C512 C 0.71459 0.53875 0.618 0.0
H513 H 0.74612 0.66406 0.6197 0.0
H514 H 0.74585 0.54676 0.62383 0.0
C515 C 0.6971 0.57236 0.61409 0.0
C516 C 0.44736 0.39096 0.36951 0.0
C517 C 0.46492 0.42501 0.36897 0.0
H518 H 0.43371 0.29922 0.36623 0.0
C519 C 0.48265 0.39199 0.36662 0.0
H520 H 0.43357 0.41573 0.37185 0.0
C521 C 0.48276 0.32528 0.36502 0.0
C522 C 0.46513 0.29148 0.36493 0.0
H523 H 0.49635 0.4176 0.36699 0.0
H524 H 0.49652 0.3003 0.36266 0.0
C525 C 0.44745 0.32466 0.36686 0.0
C526 C 0.29571 0.39285 0.36604 0.0
C527 C 0.31336 0.4264 0.36485 0.0
H528 H 0.28204 0.30074 0.36896 0.0
C529 C 0.33103 0.39296 0.36564 0.0
H530 H 0.28194 0.41803 0.3646 0.0
C531 C 0.33109 0.32667 0.36831 0.0
C532 C 0.31348 0.29289 0.36894 0.0
H533 H 0.34478 0.4182 0.36417 0.0
H534 H 0.34489 0.30169 0.36983 0.0
C535 C 0.29577 0.32615 0.36767 0.0
C536 C 0.58149 0.1396 0.12256 0.0
C537 C 0.56403 0.17411 0.12087 0.0
H538 H 0.59498 0.04749 0.12019 0.0
C539 C 0.54628 0.14155 0.11752 0.0
H540 H 0.59529 0.16401 0.12567 0.0
C541 C 0.54605 0.07485 0.11599 0.0
C542 C 0.56359 0.0406 0.11699 0.0
H543 H 0.53263 0.16752 0.11698 0.0
H544 H 0.53229 0.05022 0.11278 0.0
C545 C 0.5813 0.0733 0.12 0.0
C546 C 0.73337 0.07689 0.11863 0.0
C547 C 0.71569 0.04336 0.11829 0.0
H548 H 0.74712 0.16898 0.11668 0.0
C549 C 0.69809 0.07677 0.11555 0.0
H550 H 0.74706 0.05175 0.12158 0.0
C551 C 0.69812 0.14302 0.11256 0.0
C552 C 0.71573 0.17681 0.11355 0.0
H553 H 0.68431 0.05157 0.11582 0.0
H554 H 0.68439 0.16797 0.10963 0.0
C555 C 0.73337 0.14358 0.11668 0.0
C556 C 0.48312 0.82262 0.86558 0.0
C557 C 0.46548 0.78897 0.8666 0.0
H558 H 0.49682 0.91482 0.86659 0.0
C559 C 0.44788 0.82227 0.86972 0.0
H560 H 0.4968 0.79753 0.86228 0.0
C561 C 0.44789 0.88857 0.87235 0.0
C562 C 0.46545 0.9225 0.87062 0.0
H563 H 0.43412 0.79694 0.8699 0.0
H564 H 0.43417 0.91345 0.8755 0.0
C565 C 0.4831 0.88933 0.86718 0.0
C566 C 0.33136 0.8295 0.87088 0.0
C567 C 0.31373 0.79585 0.87014 0.0
H568 H 0.34521 0.92094 0.8677 0.0
C569 C 0.29608 0.82925 0.86764 0.0
H570 H 0.3451 0.80442 0.87331 0.0
C571 C 0.29611 0.89596 0.86605 0.0
C572 C 0.31381 0.92936 0.86612 0.0
H573 H 0.28232 0.80395 0.86784 0.0
H574 H 0.28241 0.92124 0.86353 0.0
C575 C 0.33142 0.8958 0.86824 0.0
C576 C 0.99337 0.50119 0.00696 0.0
C577 C 1.00044 0.52134 0.97487 0.0
H578 H 0.99862 0.44551 0.05227 0.0
C579 C 0.0186 0.49823 0.9635 0.0
H580 H 0.97935 0.51746 0.01623 0.0
C581 C 0.02953 0.45633 0.98384 0.0
C582 C 0.02256 0.43663 0.01607 0.0
H583 H 0.02438 0.51221 0.93867 0.0
H584 H 0.04357 0.4403 0.97457 0.0
C585 C 1.00434 0.45937 0.02737 0.0
C586 C 0.28247 0.7109 0.00364 0.0
C587 C 0.27539 0.69199 0.97133 0.0
H588 H 0.27738 0.7653 0.04941 0.0
C589 C 0.25718 0.71529 0.96028 0.0
H590 H 0.29652 0.69444 0.01271 0.0
C591 C 0.24629 0.75653 0.98108 0.0
C592 C 0.25337 0.77547 0.01339 0.0
H593 H 0.25139 0.70214 0.93531 0.0
H594 H 0.23224 0.773 0.97202 0.0
C595 C 0.27158 0.75215 0.02445 0.0
C596 C 1.00923 0.7481 0.21432 0.0
C597 C 0.02742 0.77162 0.22531 0.0
H598 H 0.98443 0.6899 0.22601 0.0
C599 C 0.03471 0.75195 0.25734 0.0
H600 H 1.00328 0.76171 0.18954 0.0
C601 C 0.02395 0.71018 0.27808 0.0
C602 C 1.0057 0.68702 0.26715 0.0
H603 H 0.04876 0.76854 0.26632 0.0
H604 H 0.02984 0.6967 0.30292 0.0
C605 C 0.9985 0.70626 0.23499 0.0
C606 C 0.27022 0.46282 0.21109 0.0
C607 C 0.25205 0.44039 0.2228 0.0
H608 H 0.29529 0.52075 0.22149 0.0
C609 C 0.24518 0.46114 0.25492 0.0
H610 H 0.27585 0.44826 0.18625 0.0
C611 C 0.25626 0.50332 0.27489 0.0
C612 C 0.27443 0.52576 0.26316 0.0
H613 H 0.23117 0.44539 0.26446 0.0
H614 H 0.25063 0.51788 0.29974 0.0
C615 C 0.28128 0.50502 0.23105 0.0
C616 C 0.78428 0.21625 0.00491 0.0
C617 C 0.77731 0.19525 0.9729 0.0
H618 H 0.77888 0.27293 0.04979 0.0
C619 C 0.75911 0.21768 0.96127 0.0
H620 H 0.79832 0.20054 0.01437 0.0
C621 C 0.74807 0.25981 0.98128 0.0
C622 C 0.75497 0.28049 0.0134 0.0
H623 H 0.7534 0.20299 0.93649 0.0
H624 H 0.73401 0.27536 0.97183 0.0
C625 C 0.77322 0.25835 0.02496 0.0
C626 C 0.02422 0.20977 0.77795 0.0
C627 C 1.00605 0.1866 0.76661 0.0
H628 H 0.04912 0.26814 0.76674 0.0
C629 C 0.9991 0.20578 0.73427 0.0
H630 H 0.02993 0.19633 0.80293 0.0
C631 C 1.00997 0.2476 0.71384 0.0
C632 C 0.02808 0.27116 0.72524 0.0
H633 H 0.98509 0.1894 0.72497 0.0
H634 H 1.0042 0.26118 0.68893 0.0
C635 C 0.03514 0.25152 0.75745 0.0
C636 C 0.76889 0.46763 0.71268 0.0
C637 C 0.75078 0.44409 0.72403 0.0
H638 H 0.79374 0.52601 0.72382 0.0
C639 C 0.7437 0.46386 0.75619 0.0
H640 H 0.77468 0.45393 0.68781 0.0
C641 C 0.75458 0.50579 0.77666 0.0
C642 C 0.77274 0.529 0.76536 0.0
H643 H 0.72971 0.44726 0.76545 0.0
H644 H 0.74885 0.51937 0.8016 0.0
C645 C 0.77974 0.50962 0.73309 0.0
C646 C 0.99444 0.00169 0.50838 0.0
C647 C 1.00144 0.02183 0.47624 0.0
H648 H 0.99976 0.94591 0.55362 0.0
C649 C 0.01956 -0.00135 0.46473 0.0
H650 H 0.98044 0.018 0.51775 0.0
C651 C 0.03051 0.95667 0.48498 0.0
C652 C 0.02361 0.93693 0.51724 0.0
H653 H 0.02529 0.01263 0.43987 0.0
H654 H 0.04453 0.94056 0.47561 0.0
C655 C 1.00543 0.95977 0.52869 0.0
C656 C 0.25791 0.21442 0.46115 0.0
C657 C 0.27615 0.19116 0.47204 0.0
H658 H 0.23303 0.2723 0.47303 0.0
C659 C 0.28338 0.2104 0.5042 0.0
H660 H 0.252 0.20103 0.43631 0.0
C661 C 0.27257 0.25188 0.52503 0.0
C662 C 0.25433 0.27511 0.51414 0.0
H663 H 0.29746 0.19398 0.51313 0.0
H664 H 0.27847 0.26526 0.54989 0.0
C665 C 0.24711 0.25591 0.48197 0.0
C666 C 0.27145 0.96274 0.71123 0.0
C667 C 0.25326 0.94051 0.72297 0.0
H668 H 0.29652 0.02081 0.72149 0.0
C669 C 0.24637 0.96172 0.75497 0.0
H670 H 0.27711 0.94781 0.68648 0.0
C671 C 0.25741 0.00419 0.7748 0.0
C672 C 0.27559 0.02646 0.76305 0.0
H673 H 0.23234 0.94613 0.76453 0.0
H674 H 0.25175 0.01914 0.79956 0.0
C675 C 0.2825 0.00522 0.73106 0.0
C676 C 0.75954 0.71608 0.46428 0.0
C677 C 0.77764 0.69307 0.47608 0.0
H678 H 0.73449 0.774 0.47474 0.0
C679 C 0.78446 0.71321 0.50836 0.0
H680 H 0.75395 0.70208 0.43931 0.0
C681 C 0.77334 0.75504 0.52849 0.0
C682 C 0.75521 0.77779 0.51673 0.0
H683 H 0.79842 0.69701 0.51796 0.0
H684 H 0.77888 0.76895 0.55352 0.0
C685 C 0.74846 0.75798 0.48436 0.0
C686 C 0.77045 0.968 0.21333 0.0
C687 C 0.75222 0.9447 0.22419 0.0
H688 H 0.79534 0.02568 0.2253 0.0
C689 C 0.74499 0.96393 0.25634 0.0
H690 H 0.77636 0.95467 0.18849 0.0
C691 C 0.75582 0.00525 0.27725 0.0
C692 C 0.77408 0.02835 0.26643 0.0
H693 H 0.73091 0.94749 0.26523 0.0
H694 H 0.74995 0.0185 0.30214 0.0
C695 C 0.78125 0.00937 0.23421 0.0
C696 C 0.49577 0.50747 0.50261 0.0
C697 C 0.50292 0.52736 0.47054 0.0
H698 H 0.50073 0.45149 0.54787 0.0
C699 C 0.52115 0.50435 0.45943 0.0
H700 H 0.48171 0.52368 0.51171 0.0
C701 C 0.53198 0.46234 0.47992 0.0
C702 C 0.5248 0.44233 0.51196 0.0
H703 H 0.527 0.51827 0.43464 0.0
H704 H 0.54603 0.44607 0.47081 0.0
C705 C 0.5066 0.46545 0.52309 0.0
C706 C 0.53209 0.75678 0.75311 0.0
C707 C 0.52511 0.7771 0.72099 0.0
H708 H 0.52685 0.7005 0.79813 0.0
C709 C 0.50687 0.75468 0.70957 0.0
H710 H 0.54615 0.77255 0.76245 0.0
C711 C 0.49587 0.71276 0.7298 0.0
C712 C 0.50289 0.69226 0.76187 0.0
H713 H 0.50114 0.76896 0.68474 0.0
H714 H 0.48182 0.69691 0.72046 0.0
C715 C 0.5211 0.71484 0.77333 0.0
C716 C 0.49627 0.21325 0.22946 0.0
C717 C 0.50323 0.19319 0.26165 0.0
H718 H 0.50158 0.26903 0.18426 0.0
C719 C 0.52139 0.21614 0.27317 0.0
H720 H 0.48226 0.19712 0.22005 0.0
C721 C 0.53237 0.25799 0.25291 0.0
C722 C 0.52545 0.27789 0.22067 0.0
H723 H 0.52709 0.20215 0.29807 0.0
H724 H 0.5464 0.27405 0.2623 0.0
C725 C 0.50727 0.2551 0.20918 0.0
C726 C 0.52239 0.00444 0.95947 0.0
C727 C 0.50417 0.02748 0.97058 0.0
H728 H 0.54731 0.94639 0.97095 0.0
C729 C 0.49709 0.00805 0.00279 0.0
H730 H 0.52819 0.01804 0.93459 0.0
C731 C 0.50796 0.96634 0.02337 0.0
C732 C 0.52615 0.94311 0.01221 0.0
H733 H 0.48303 0.02431 0.0119 0.0
H734 H 0.50213 0.95268 0.04821 0.0
C735 C 0.53327 0.96276 0.98007 0.0
C736 C 0.14309 0.31922 0.15507 0.0
C737 C 0.15748 0.31847 0.12944 0.0
H738 H 0.11262 0.32222 0.16645 0.0
C739 C 0.15169 0.31546 0.09467 0.0
H740 H 0.14707 0.32152 0.18204 0.0
C741 C 0.13195 0.31595 0.08567 0.0
C742 C 0.11757 0.31947 0.11125 0.0
H743 H 0.16243 0.31467 0.07426 0.0
H744 H 0.12799 0.3156 0.05867 0.0
C745 C 0.12335 0.31971 0.14607 0.0
C746 C 0.13445 0.89755 0.15438 0.0
C747 C 0.1199 0.89773 0.12901 0.0
H748 H 0.16499 0.89499 0.16522 0.0
C749 C 0.12546 0.90032 0.09412 0.0
H750 H 0.13066 0.89563 0.18143 0.0
C751 C 0.14513 0.8998 0.08476 0.0
C752 C 0.15967 0.89676 0.1101 0.0
H753 H 0.11458 0.90067 0.0739 0.0
H754 H 0.14892 0.8997 0.05768 0.0
C755 C 0.15412 0.89712 0.14502 0.0
C756 C 0.8731 0.64518 0.89641 0.0
C757 C 0.86747 0.64649 0.86153 0.0
H758 H 0.89668 0.64253 0.93265 0.0
C759 C 0.88193 0.65117 0.83617 0.0
H760 H 0.8623 0.64175 0.91663 0.0
C761 C 0.90163 0.65176 0.84542 0.0
C762 C 0.90729 0.64762 0.88022 0.0
H763 H 0.87808 0.65238 0.80912 0.0
H764 H 0.91245 0.65345 0.82515 0.0
C765 C 0.89281 0.64572 0.90566 0.0
C766 C 0.9053 0.07192 0.89685 0.0
C767 C 0.91108 0.07027 0.86205 0.0
H768 H 0.88157 0.07483 0.93274 0.0
C769 C 0.89671 0.06527 0.8365 0.0
H770 H 0.91602 0.0756 0.91721 0.0
C771 C 0.87698 0.0647 0.84546 0.0
C772 C 0.87117 0.06915 0.88017 0.0
H773 H 0.90067 0.06379 0.80951 0.0
H774 H 0.86624 0.06274 0.82504 0.0
C775 C 0.88556 0.07138 0.90581 0.0
C776 C 0.14428 0.81883 0.65569 0.0
C777 C 0.15865 0.81805 0.63003 0.0
H778 H 0.11381 0.8219 0.66716 0.0
C779 C 0.15282 0.81503 0.59527 0.0
H780 H 0.14827 0.82114 0.68266 0.0
C781 C 0.13308 0.81556 0.58633 0.0
C782 C 0.11872 0.81911 0.61195 0.0
H783 H 0.16354 0.81422 0.57483 0.0
H784 H 0.12909 0.81521 0.55933 0.0
C785 C 0.12453 0.81935 0.64675 0.0
C786 C 0.12658 0.40048 0.59505 0.0
C787 C 0.121 0.39761 0.62992 0.0
H788 H 0.15006 0.40009 0.55865 0.0
C789 C 0.13554 0.39715 0.65531 0.0
H790 H 0.11572 0.40105 0.57482 0.0
C791 C 0.15522 0.39672 0.64599 0.0
C792 C 0.16078 0.39664 0.61107 0.0
H793 H 0.13173 0.395 0.68235 0.0
H794 H 0.16608 0.39438 0.66619 0.0
C795 C 0.14626 0.39996 0.58572 0.0
C796 C 0.87391 0.14561 0.39822 0.0
C797 C 0.86824 0.14648 0.36335 0.0
H798 H 0.89751 0.14334 0.4344 0.0
C799 C 0.88268 0.15084 0.33793 0.0
H800 H 0.86312 0.14245 0.41848 0.0
C801 C 0.90239 0.1515 0.34712 0.0
C802 C 0.90808 0.14776 0.38192 0.0
H803 H 0.8788 0.15172 0.3109 0.0
H804 H 0.91318 0.15291 0.32682 0.0
C805 C 0.89362 0.14621 0.40741 0.0
C806 C 0.89694 0.56537 0.33848 0.0
C807 C 0.91139 0.56994 0.36391 0.0
H808 H 0.86644 0.56314 0.32732 0.0
C809 C 0.90573 0.57111 0.39877 0.0
H810 H 0.90082 0.56426 0.31145 0.0
C811 C 0.88602 0.57052 0.40793 0.0
C812 C 0.87155 0.56873 0.38242 0.0
H813 H 0.91652 0.57446 0.41904 0.0
H814 H 0.88212 0.57359 0.43491 0.0
C815 C 0.87724 0.56475 0.34764 0.0
C816 C 0.63278 0.31589 0.5833 0.0
C817 C 0.61818 0.31811 0.60852 0.0
H818 H 0.66335 0.31587 0.57271 0.0
C819 C 0.62365 0.31716 0.64349 0.0
H820 H 0.62905 0.31647 0.55619 0.0
C821 C 0.6433 0.31696 0.65302 0.0
C822 C 0.65791 0.3176 0.62779 0.0
H823 H 0.61274 0.31865 0.6636 0.0
H824 H 0.64703 0.31841 0.68012 0.0
C825 C 0.65243 0.31558 0.59283 0.0
C826 C 0.63407 0.89748 0.65323 0.0
C827 C 0.61977 0.89688 0.62741 0.0
H828 H 0.6645 0.89572 0.66504 0.0
C829 C 0.62568 0.89879 0.59269 0.0
H830 H 0.63 0.89607 0.68017 0.0
C831 C 0.64545 0.89853 0.58396 0.0
C832 C 0.65974 0.89633 0.60976 0.0
H833 H 0.61501 0.89853 0.57214 0.0
H834 H 0.64951 0.89797 0.55701 0.0
C835 C 0.65384 0.8972 0.6445 0.0
C836 C 0.39456 0.65101 0.40035 0.0
C837 C 0.40897 0.64841 0.37479 0.0
H838 H 0.36407 0.65122 0.41167 0.0
C839 C 0.40322 0.64878 0.33996 0.0
H840 H 0.39849 0.65087 0.42737 0.0
C841 C 0.38349 0.6489 0.3309 0.0
C842 C 0.36908 0.64867 0.35649 0.0
H843 H 0.41398 0.64697 0.3196 0.0
H844 H 0.37955 0.64705 0.3039 0.0
C845 C 0.37483 0.65116 0.39129 0.0
C846 C 0.39479 0.06907 0.33084 0.0
C847 C 0.40931 0.06935 0.35627 0.0
H848 H 0.36425 0.07096 0.31988 0.0
C849 C 0.40371 0.06689 0.39114 0.0
H850 H 0.39861 0.07089 0.3038 0.0
C851 C 0.38402 0.06705 0.40042 0.0
C852 C 0.36951 0.06962 0.37503 0.0
H853 H 0.41455 0.06687 0.4114 0.0
H854 H 0.3802 0.06724 0.42748 0.0
C855 C 0.3751 0.06917 0.34012 0.0
C856 C 0.64476 0.81857 0.15251 0.0
C857 C 0.65929 0.82061 0.12716 0.0
H858 H 0.61422 0.81835 0.16334 0.0
C859 C 0.65373 0.81913 0.09224 0.0
H860 H 0.64856 0.81955 0.17958 0.0
C861 C 0.63405 0.81857 0.08287 0.0
C862 C 0.61951 0.81938 0.10822 0.0
H863 H 0.66459 0.82046 0.07203 0.0
H864 H 0.63025 0.81961 0.0558 0.0
C865 C 0.62508 0.81791 0.14314 0.0
C866 C 0.65414 0.40046 0.14214 0.0
C867 C 0.65986 0.39855 0.10732 0.0
H868 H 0.6305 0.39954 0.17823 0.0
C869 C 0.64542 0.39897 0.08175 0.0
H870 H 0.66491 0.40035 0.16252 0.0
C871 C 0.6257 0.39856 0.09082 0.0
C872 C 0.61998 0.39772 0.12566 0.0
H873 H 0.64934 0.39755 0.05474 0.0
H874 H 0.61492 0.39695 0.07046 0.0
C875 C 0.63441 0.40006 0.15121 0.0
C876 C 0.39557 0.15169 0.89994 0.0
C877 C 0.40998 0.14758 0.87443 0.0
H878 H 0.36509 0.15391 0.91121 0.0
C879 C 0.40425 0.14731 0.83959 0.0
H880 H 0.3995 0.15211 0.92696 0.0
C881 C 0.38453 0.14828 0.83049 0.0
C882 C 0.3701 0.14958 0.85606 0.0
H883 H 0.41501 0.14434 0.81926 0.0
H884 H 0.38059 0.14587 0.80351 0.0
C885 C 0.37585 0.1527 0.89085 0.0
C886 C 0.40334 0.5659 0.89089 0.0
C887 C 0.409 0.5689 0.85606 0.0
H888 H 0.37979 0.5666 0.92714 0.0
C889 C 0.39451 0.57002 0.83058 0.0
H890 H 0.41416 0.56481 0.91119 0.0
C891 C 0.37481 0.57097 0.83978 0.0
C892 C 0.36918 0.57086 0.87466 0.0
H893 H 0.39838 0.57232 0.80357 0.0
H894 H 0.36401 0.57381 0.81951 0.0
C895 C 0.38365 0.5669 0.90009 0.0
C896 C 0.03993 0.0615 0.09617 0.0
C897 C 0.0419 0.04325 0.13079 0.0
H898 H 0.03935 0.13892 0.06018 0.0
C899 C 0.04171 0.09058 0.15648 0.0
H900 H 0.03996 0.02606 0.07583 0.0
C901 C 0.04113 0.15525 0.14753 0.0
C902 C 0.041 0.17349 0.11274 0.0
H903 H 0.04308 0.07779 0.18341 0.0
H904 H 0.04219 0.19077 0.16774 0.0
C905 C 0.03961 0.12612 0.08721 0.0
C906 C 0.23662 0.0598 0.14494 0.0
C907 C 0.23622 0.0417 0.11012 0.0
H908 H 0.2351 0.13699 0.18104 0.0
C909 C 0.23703 0.08925 0.08461 0.0
H910 H 0.23602 0.02415 0.16514 0.0
C911 C 0.23669 0.15383 0.09371 0.0
C912 C 0.23528 0.17184 0.12845 0.0
H913 H 0.23686 0.07659 0.05756 0.0
H914 H 0.23622 0.18939 0.07345 0.0
C915 C 0.23602 0.12439 0.15403 0.0
C916 C 0.98797 0.81191 0.84705 0.0
C917 C 0.98563 0.79369 0.8816 0.0
H918 H 0.98915 0.88934 0.81112 0.0
C919 C 0.98577 0.84096 0.90732 0.0
H920 H 0.98801 0.77651 0.82669 0.0
C921 C 0.98666 0.90563 0.89842 0.0
C922 C 0.98717 0.9239 0.86364 0.0
H923 H 0.98412 0.8282 0.9342 0.0
H924 H 0.98554 0.94117 0.91861 0.0
C925 C 0.98861 0.87651 0.83814 0.0
C926 C 0.79263 0.87564 0.90582 0.0
C927 C 0.7929 0.92291 0.88011 0.0
H928 H 0.79277 0.77544 0.91709 0.0
C929 C 0.79074 0.90469 0.84552 0.0
H930 H 0.79414 0.88841 0.93273 0.0
C931 C 0.79014 0.84008 0.83658 0.0
C932 C 0.79143 0.79269 0.8621 0.0
H933 H 0.79082 0.94009 0.82516 0.0
H934 H 0.78973 0.82725 0.80955 0.0
C935 C 0.79177 0.81098 0.89689 0.0
C936 C 0.04072 0.62605 0.58801 0.0
C937 C 0.04213 0.67338 0.61356 0.0
H938 H 0.04106 0.52602 0.57658 0.0
C939 C 0.04228 0.65508 0.64835 0.0
H940 H 0.04045 0.6389 0.56099 0.0
C941 C 0.04285 0.5904 0.65727 0.0
C942 C 0.04303 0.54311 0.63155 0.0
H943 H 0.04335 0.69057 0.66857 0.0
H944 H 0.04423 0.57757 0.68419 0.0
C945 C 0.04104 0.56142 0.59694 0.0
C946 C 0.2378 0.55956 0.64572 0.0
C947 C 0.23742 0.54136 0.61092 0.0
H948 H 0.23626 0.63687 0.68175 0.0
C949 C 0.23828 0.58881 0.58537 0.0
H950 H 0.23717 0.52398 0.66596 0.0
C951 C 0.23795 0.65342 0.5944 0.0
C952 C 0.23649 0.67154 0.62912 0.0
H953 H 0.23813 0.57606 0.55833 0.0
H954 H 0.2375 0.6889 0.57411 0.0
C955 C 0.23721 0.62418 0.65475 0.0
C956 C 0.98901 0.37664 0.33933 0.0
C957 C 0.98765 0.42407 0.36483 0.0
H958 H 0.98844 0.27661 0.32794 0.0
C959 C 0.98731 0.40584 0.39962 0.0
H960 H 0.98942 0.38943 0.3123 0.0
C961 C 0.98652 0.34119 0.40857 0.0
C962 C 0.9863 0.29386 0.38288 0.0
H963 H 0.98626 0.44141 0.41981 0.0
H964 H 0.985 0.32846 0.43548 0.0
C965 C 0.98847 0.31205 0.34829 0.0
C966 C 0.7908 0.33961 0.33893 0.0
C967 C 0.79203 0.29206 0.36438 0.0
H968 H 0.79149 0.43969 0.3277 0.0
C969 C 0.7923 0.31015 0.3992 0.0
H970 H 0.79045 0.32694 0.31188 0.0
C971 C 0.79313 0.37476 0.40824 0.0
C972 C 0.79345 0.4222 0.38262 0.0
H973 H 0.79326 0.27449 0.41935 0.0
H974 H 0.79458 0.38737 0.43519 0.0
C975 C 0.79137 0.40417 0.34799 0.0
C976 C 0.54126 0.06092 0.59033 0.0
C977 C 0.54203 0.04283 0.62512 0.0
H978 H 0.54175 0.1383 0.55428 0.0
C979 C 0.54078 0.09019 0.65068 0.0
H980 H 0.54215 0.02542 0.57008 0.0
C981 C 0.54033 0.15479 0.64164 0.0
C982 C 0.54139 0.17301 0.6069 0.0
H983 H 0.5412 0.0775 0.67772 0.0
H984 H 0.54052 0.19034 0.66192 0.0
C985 C 0.54107 0.12555 0.58129 0.0
C986 C 0.73767 0.15402 0.59573 0.0
C987 C 0.73573 0.17238 0.63033 0.0
H988 H 0.73816 0.0765 0.55978 0.0
C989 C 0.73588 0.12512 0.65605 0.0
H990 H 0.73766 0.18941 0.57537 0.0
C991 C 0.73639 0.06043 0.64714 0.0
C992 C 0.73649 0.04209 0.61236 0.0
H993 H 0.73454 0.13799 0.68297 0.0
H994 H 0.73531 0.02497 0.66737 0.0
C995 C 0.73792 0.08937 0.5868 0.0
C996 C 0.48752 0.84087 0.39964 0.0
C997 C 0.48637 0.79349 0.37407 0.0
H998 H 0.48746 0.941 0.41091 0.0
C999 C 0.48699 0.81164 0.33928 0.0
H1000 H 0.48721 0.82814 0.42668 0.0
C1001 C 0.48693 0.87629 0.33026 0.0
C1002 C 0.48649 0.92371 0.35589 0.0
H1003 H 0.48616 0.77612 0.31903 0.0
H1004 H 0.48613 0.88904 0.30325 0.0
C1005 C 0.48771 0.90548 0.39062 0.0
C1006 C 0.2913 0.842 0.33149 0.0
C1007 C 0.29192 0.7946 0.35711 0.0
H1008 H 0.29193 0.94214 0.32024 0.0
C1009 C 0.29091 0.81284 0.39186 0.0
H1010 H 0.29192 0.82923 0.30447 0.0
C1011 C 0.29112 0.87746 0.40088 0.0
C1012 C 0.29208 0.92483 0.37529 0.0
H1013 H 0.29131 0.77733 0.41214 0.0
H1014 H 0.2916 0.89021 0.42791 0.0
C1015 C 0.29125 0.90664 0.34051 0.0
C1016 C 0.54129 0.59028 0.15052 0.0
C1017 C 0.54254 0.54301 0.12491 0.0
H1018 H 0.54123 0.69036 0.1619 0.0
C1019 C 0.54194 0.56126 0.09013 0.0
H1020 H 0.54157 0.57746 0.17755 0.0
C1021 C 0.54195 0.62593 0.08118 0.0
C1022 C 0.5423 0.67326 0.10686 0.0
H1023 H 0.54284 0.52582 0.06986 0.0
H1024 H 0.54278 0.63879 0.05419 0.0
C1025 C 0.54104 0.65491 0.14156 0.0
C1026 C 0.73739 0.564 0.14382 0.0
C1027 C 0.73672 0.54611 0.10899 0.0
H1028 H 0.73647 0.64107 0.18007 0.0
C1029 C 0.73766 0.59374 0.08354 0.0
H1030 H 0.73672 0.5283 0.16399 0.0
C1031 C 0.73773 0.65829 0.09274 0.0
C1032 C 0.7366 0.6762 0.12753 0.0
H1033 H 0.73729 0.58124 0.05647 0.0
H1034 H 0.73733 0.69398 0.07254 0.0
C1035 C 0.7372 0.62857 0.15302 0.0
C1036 C 0.48716 0.30992 0.83878 0.0
C1037 C 0.487 0.2917 0.87357 0.0
H1038 H 0.48568 0.38737 0.80284 0.0
C1039 C 0.48834 0.33905 0.89912 0.0
H1040 H 0.48616 0.2744 0.81855 0.0
C1041 C 0.48825 0.40367 0.89014 0.0
C1042 C 0.48657 0.42193 0.85548 0.0
H1043 H 0.48838 0.32627 0.92616 0.0
H1044 H 0.48816 0.43914 0.91047 0.0
C1045 C 0.48682 0.37458 0.8298 0.0
C1046 C 0.2922 0.34417 0.83045 0.0
C1047 C 0.29258 0.29683 0.85611 0.0
H1048 H 0.29276 0.44434 0.8192 0.0
C1049 C 0.29104 0.31508 0.8908 0.0
H1050 H 0.29324 0.33138 0.80348 0.0
C1051 C 0.29095 0.37971 0.8998 0.0
C1052 C 0.29215 0.42707 0.87424 0.0
H1053 H 0.29123 0.27962 0.91112 0.0
H1054 H 0.29102 0.3925 0.92683 0.0
C1055 C 0.29186 0.40883 0.83944 0.0
loop_
_geom_bond_atom_site_label_1
_geom_bond_atom_site_label_2
_geom_bond_distance
_geom_bond_site_symmetry_2
_ccdc_geom_bond_type
In0 O1 2.294 . S
In0 O2 2.326 . S
In0 O6 2.266 . S
In0 O7 2.326 . S
In0 O8 2.266 . S
In0 O9 2.326 . S
In0 O11 2.294 . S
In0 O12 2.326 . S
O1 In0 2.294 . S
O1 C10 1.240 . S
O2 In0 2.326 . S
O2 C10 1.252 . S
C3 O6 1.252 . S
C3 O7 1.260 . S
C4 O11 1.240 . S
C4 O12 1.252 . S
C5 O8 1.252 . S
C5 O9 1.260 . S
O6 In0 2.266 . S
O6 C3 1.252 . S
O7 In0 2.326 . S
O7 C3 1.260 . S
O8 In0 2.266 . S
O8 C5 1.252 . S
O9 In0 2.326 . S
O9 C5 1.260 . S
C10 O1 1.240 . S
C10 O2 1.252 . S
O11 In0 2.294 . S
O11 C4 1.240 . S
O12 In0 2.326 . S
O12 C4 1.252 . S
In13 O14 2.294 . S
In13 O15 2.326 . S
In13 O19 2.266 . S
In13 O20 2.326 . S
In13 O21 2.266 . S
In13 O22 2.326 . S
In13 O24 2.294 . S
In13 O25 2.326 . S
O14 In13 2.294 . S
O14 C23 1.240 . S
O15 In13 2.326 . S
O15 C23 1.252 . S
C16 O19 1.252 . S
C16 O20 1.260 . S
C17 O24 1.240 . S
C17 O25 1.252 . S
C18 O21 1.252 . S
C18 O22 1.260 . S
O19 In13 2.266 . S
O19 C16 1.252 . S
O20 In13 2.326 . S
O20 C16 1.260 . S
O21 In13 2.266 . S
O21 C18 1.252 . S
O22 In13 2.326 . S
O22 C18 1.260 . S
C23 O14 1.240 . S
C23 O15 1.252 . S
O24 In13 2.294 . S
O24 C17 1.240 . S
O25 In13 2.326 . S
O25 C17 1.252 . S
In26 O27 2.294 . S
In26 O28 2.326 . S
In26 O32 2.266 . S
In26 O33 2.326 . S
In26 O34 2.266 . S
In26 O35 2.326 . S
In26 O37 2.294 . S
In26 O38 2.326 . S
O27 In26 2.294 . S
O27 C36 1.240 . S
O28 In26 2.326 . S
O28 C36 1.252 . S
C29 O32 1.252 . S
C29 O33 1.260 . S
C30 O37 1.240 . S
C30 O38 1.252 . S
C31 O34 1.252 . S
C31 O35 1.260 . S
O32 In26 2.266 . S
O32 C29 1.252 . S
O33 In26 2.326 . S
O33 C29 1.260 . S
O34 In26 2.266 . S
O34 C31 1.252 . S
O35 In26 2.326 . S
O35 C31 1.260 . S
C36 O27 1.240 . S
C36 O28 1.252 . S
O37 In26 2.294 . S
O37 C30 1.240 . S
O38 In26 2.326 . S
O38 C30 1.252 . S
In39 O40 2.294 . S
In39 O41 2.326 . S
In39 O45 2.266 . S
In39 O46 2.326 . S
In39 O47 2.266 . S
In39 O48 2.326 . S
In39 O50 2.294 . S
In39 O51 2.326 . S
O40 In39 2.294 . S
O40 C49 1.240 . S
O41 In39 2.326 . S
O41 C49 1.252 . S
C42 O45 1.252 . S
C42 O46 1.260 . S
C43 O50 1.240 . S
C43 O51 1.252 . S
C44 O47 1.252 . S
C44 O48 1.260 . S
O45 In39 2.266 . S
O45 C42 1.252 . S
O46 In39 2.326 . S
O46 C42 1.260 . S
O47 In39 2.266 . S
O47 C44 1.252 . S
O48 In39 2.326 . S
O48 C44 1.260 . S
C49 O40 1.240 . S
C49 O41 1.252 . S
O50 In39 2.294 . S
O50 C43 1.240 . S
O51 In39 2.326 . S
O51 C43 1.252 . S
In52 O53 2.294 . S
In52 O54 2.326 . S
In52 O58 2.266 . S
In52 O59 2.326 . S
In52 O60 2.266 . S
In52 O61 2.326 . S
In52 O63 2.294 . S
In52 O64 2.326 . S
O53 In52 2.294 . S
O53 C62 1.240 . S
O54 In52 2.326 . S
O54 C62 1.252 . S
C55 O58 1.252 . S
C55 O59 1.260 . S
C56 O63 1.240 . S
C56 O64 1.252 . S
C57 O60 1.252 . S
C57 O61 1.260 . S
O58 In52 2.266 . S
O58 C55 1.252 . S
O59 In52 2.326 . S
O59 C55 1.260 . S
O60 In52 2.266 . S
O60 C57 1.252 . S
O61 In52 2.326 . S
O61 C57 1.260 . S
C62 O53 1.240 . S
C62 O54 1.252 . S
O63 In52 2.294 . S
O63 C56 1.240 . S
O64 In52 2.326 . S
O64 C56 1.252 . S
In65 O66 2.294 . S
In65 O67 2.326 . S
In65 O71 2.266 . S
In65 O72 2.326 . S
In65 O73 2.266 . S
In65 O74 2.326 . S
In65 O76 2.294 . S
In65 O77 2.326 . S
O66 In65 2.294 . S
O66 C75 1.240 . S
O67 In65 2.326 . S
O67 C75 1.252 . S
C68 O71 1.252 . S
C68 O72 1.260 . S
C69 O76 1.240 . S
C69 O77 1.252 . S
C70 O73 1.252 . S
C70 O74 1.260 . S
O71 In65 2.266 . S
O71 C68 1.252 . S
O72 In65 2.326 . S
O72 C68 1.260 . S
O73 In65 2.266 . S
O73 C70 1.252 . S
O74 In65 2.326 . S
O74 C70 1.260 . S
C75 O66 1.240 . S
C75 O67 1.252 . S
O76 In65 2.294 . S
O76 C69 1.240 . S
O77 In65 2.326 . S
O77 C69 1.252 . S
In78 O79 2.294 . S
In78 O80 2.326 . S
In78 O84 2.266 . S
In78 O85 2.326 . S
In78 O86 2.266 . S
In78 O87 2.326 . S
In78 O89 2.294 . S
In78 O90 2.326 . S
O79 In78 2.294 . S
O79 C88 1.240 . S
O80 In78 2.326 . S
O80 C88 1.252 . S
C81 O84 1.252 . S
C81 O85 1.260 . S
C82 O89 1.240 . S
C82 O90 1.252 . S
C83 O86 1.252 . S
C83 O87 1.260 . S
O84 In78 2.266 . S
O84 C81 1.252 . S
O85 In78 2.326 . S
O85 C81 1.260 . S
O86 In78 2.266 . S
O86 C83 1.252 . S
O87 In78 2.326 . S
O87 C83 1.260 . S
C88 O79 1.240 . S
C88 O80 1.252 . S
O89 In78 2.294 . S
O89 C82 1.240 . S
O90 In78 2.326 . S
O90 C82 1.252 . S
In91 O92 2.294 . S
In91 O93 2.326 . S
In91 O97 2.266 . S
In91 O98 2.326 . S
In91 O99 2.266 . S
In91 O100 2.326 . S
In91 O102 2.294 . S
In91 O103 2.326 . S
O92 In91 2.294 . S
O92 C101 1.240 . S
O93 In91 2.326 . S
O93 C101 1.252 . S
C94 O97 1.252 . S
C94 O98 1.260 . S
C95 O102 1.240 . S
C95 O103 1.252 . S
C96 O99 1.252 . S
C96 O100 1.260 . S
O97 In91 2.266 . S
O97 C94 1.252 . S
O98 In91 2.326 . S
O98 C94 1.260 . S
O99 In91 2.266 . S
O99 C96 1.252 . S
O100 In91 2.326 . S
O100 C96 1.260 . S
C101 O92 1.240 . S
C101 O93 1.252 . S
O102 In91 2.294 . S
O102 C95 1.240 . S
O103 In91 2.326 . S
O103 C95 1.252 . S
In104 O105 2.294 . S
In104 O106 2.326 . S
In104 O110 2.266 . S
In104 O111 2.326 . S
In104 O112 2.266 . S
In104 O113 2.326 . S
In104 O115 2.294 . S
In104 O116 2.326 1_565 S
O105 In104 2.294 . S
O105 C114 1.240 . S
O106 In104 2.326 . S
O106 C114 1.252 . S
C107 O110 1.252 . S
C107 O111 1.260 . S
C108 O115 1.240 1_545 S
C108 O116 1.252 . S
C109 O112 1.252 . S
C109 O113 1.260 . S
O110 In104 2.266 . S
O110 C107 1.252 . S
O111 In104 2.326 . S
O111 C107 1.260 . S
O112 In104 2.266 . S
O112 C109 1.252 . S
O113 In104 2.326 . S
O113 C109 1.260 . S
C114 O105 1.240 . S
C114 O106 1.252 . S
O115 In104 2.294 . S
O115 C108 1.240 1_565 S
O116 In104 2.326 1_545 S
O116 C108 1.252 . S
In117 O118 2.294 . S
In117 O119 2.326 . S
In117 O123 2.266 . S
In117 O124 2.326 . S
In117 O125 2.266 . S
In117 O126 2.326 . S
In117 O128 2.294 . S
In117 O129 2.326 . S
O118 In117 2.294 . S
O118 C127 1.240 . S
O119 In117 2.326 . S
O119 C127 1.252 . S
C120 O123 1.252 . S
C120 O124 1.260 . S
C121 O128 1.240 . S
C121 O129 1.252 . S
C122 O125 1.252 . S
C122 O126 1.260 . S
O123 In117 2.266 . S
O123 C120 1.252 . S
O124 In117 2.326 . S
O124 C120 1.260 . S
O125 In117 2.266 . S
O125 C122 1.252 . S
O126 In117 2.326 . S
O126 C122 1.260 . S
C127 O118 1.240 . S
C127 O119 1.252 . S
O128 In117 2.294 . S
O128 C121 1.240 . S
O129 In117 2.326 . S
O129 C121 1.252 . S
In130 O131 2.294 . S
In130 O132 2.326 . S
In130 O136 2.266 . S
In130 O137 2.326 . S
In130 O138 2.266 . S
In130 O139 2.326 . S
In130 O141 2.294 . S
In130 O142 2.326 . S
O131 In130 2.294 . S
O131 C140 1.240 . S
O132 In130 2.326 . S
O132 C140 1.252 . S
C133 O136 1.252 . S
C133 O137 1.260 . S
C134 O141 1.240 . S
C134 O142 1.252 . S
C135 O138 1.252 . S
C135 O139 1.260 . S
O136 In130 2.266 . S
O136 C133 1.252 . S
O137 In130 2.326 . S
O137 C133 1.260 . S
O138 In130 2.266 . S
O138 C135 1.252 . S
O139 In130 2.326 . S
O139 C135 1.260 . S
C140 O131 1.240 . S
C140 O132 1.252 . S
O141 In130 2.294 . S
O141 C134 1.240 . S
O142 In130 2.326 . S
O142 C134 1.252 . S
In143 O144 2.294 . S
In143 O145 2.326 1_565 S
In143 O149 2.266 . S
In143 O150 2.326 . S
In143 O151 2.266 . S
In143 O152 2.326 . S
In143 O154 2.294 . S
In143 O155 2.326 . S
O144 In143 2.294 . S
O144 C153 1.240 1_565 S
O145 In143 2.326 1_545 S
O145 C153 1.252 . S
C146 O149 1.252 . S
C146 O150 1.260 . S
C147 O154 1.240 . S
C147 O155 1.252 . S
C148 O151 1.252 . S
C148 O152 1.260 . S
O149 In143 2.266 . S
O149 C146 1.252 . S
O150 In143 2.326 . S
O150 C146 1.260 . S
O151 In143 2.266 . S
O151 C148 1.252 . S
O152 In143 2.326 . S
O152 C148 1.260 . S
C153 O144 1.240 1_545 S
C153 O145 1.252 . S
O154 In143 2.294 . S
O154 C147 1.240 . S
O155 In143 2.326 . S
O155 C147 1.252 . S
In156 O157 2.294 . S
In156 O158 2.326 . S
In156 O162 2.266 . S
In156 O163 2.326 . S
In156 O164 2.266 . S
In156 O165 2.326 . S
In156 O167 2.294 . S
In156 O168 2.326 1_545 S
O157 In156 2.294 . S
O157 C166 1.240 . S
O158 In156 2.326 . S
O158 C166 1.252 . S
C159 O162 1.252 . S
C159 O163 1.260 . S
C160 O167 1.240 1_565 S
C160 O168 1.252 . S
C161 O164 1.252 . S
C161 O165 1.260 . S
O162 In156 2.266 . S
O162 C159 1.252 . S
O163 In156 2.326 . S
O163 C159 1.260 . S
O164 In156 2.266 . S
O164 C161 1.252 . S
O165 In156 2.326 . S
O165 C161 1.260 . S
C166 O157 1.240 . S
C166 O158 1.252 . S
O167 In156 2.294 . S
O167 C160 1.240 1_545 S
O168 In156 2.326 1_565 S
O168 C160 1.252 . S
In169 O170 2.294 . S
In169 O171 2.326 . S
In169 O175 2.266 . S
In169 O176 2.326 . S
In169 O177 2.266 . S
In169 O178 2.326 . S
In169 O180 2.294 . S
In169 O181 2.326 . S
O170 In169 2.294 . S
O170 C179 1.240 . S
O171 In169 2.326 . S
O171 C179 1.252 . S
C172 O175 1.252 . S
C172 O176 1.260 . S
C173 O180 1.240 . S
C173 O181 1.252 . S
C174 O177 1.252 . S
C174 O178 1.260 . S
O175 In169 2.266 . S
O175 C172 1.252 . S
O176 In169 2.326 . S
O176 C172 1.260 . S
O177 In169 2.266 . S
O177 C174 1.252 . S
O178 In169 2.326 . S
O178 C174 1.260 . S
C179 O170 1.240 . S
C179 O171 1.252 . S
O180 In169 2.294 . S
O180 C173 1.240 . S
O181 In169 2.326 . S
O181 C173 1.252 . S
In182 O183 2.294 . S
In182 O184 2.326 . S
In182 O188 2.266 . S
In182 O189 2.326 . S
In182 O190 2.266 . S
In182 O191 2.326 . S
In182 O193 2.294 . S
In182 O194 2.326 . S
O183 In182 2.294 . S
O183 C192 1.240 . S
O184 In182 2.326 . S
O184 C192 1.252 . S
C185 O188 1.252 . S
C185 O189 1.260 . S
C186 O193 1.240 . S
C186 O194 1.252 . S
C187 O190 1.252 . S
C187 O191 1.260 . S
O188 In182 2.266 . S
O188 C185 1.252 . S
O189 In182 2.326 . S
O189 C185 1.260 . S
O190 In182 2.266 . S
O190 C187 1.252 . S
O191 In182 2.326 . S
O191 C187 1.260 . S
C192 O183 1.240 . S
C192 O184 1.252 . S
O193 In182 2.294 . S
O193 C186 1.240 . S
O194 In182 2.326 . S
O194 C186 1.252 . S
In195 O196 2.294 . S
In195 O197 2.326 . S
In195 O201 2.266 . S
In195 O202 2.326 . S
In195 O203 2.266 . S
In195 O204 2.326 . S
In195 O206 2.294 . S
In195 O207 2.326 1_545 S
O196 In195 2.294 . S
O196 C205 1.240 . S
O197 In195 2.326 . S
O197 C205 1.252 . S
C198 O201 1.252 . S
C198 O202 1.260 . S
C199 O206 1.240 1_565 S
C199 O207 1.252 . S
C200 O203 1.252 . S
C200 O204 1.260 . S
O201 In195 2.266 . S
O201 C198 1.252 . S
O202 In195 2.326 . S
O202 C198 1.260 . S
O203 In195 2.266 . S
O203 C200 1.252 . S
O204 In195 2.326 . S
O204 C200 1.260 . S
C205 O196 1.240 . S
C205 O197 1.252 . S
O206 In195 2.294 . S
O206 C199 1.240 1_545 S
O207 In195 2.326 1_565 S
O207 C199 1.252 . S
In208 O209 2.294 . S
In208 O210 2.326 . S
In208 O214 2.266 . S
In208 O215 2.326 . S
In208 O216 2.266 . S
In208 O217 2.326 . S
In208 O219 2.294 . S
In208 O220 2.326 . S
O209 In208 2.294 . S
O209 C218 1.240 . S
O210 In208 2.326 . S
O210 C218 1.252 . S
C211 O214 1.252 . S
C211 O215 1.260 . S
C212 O219 1.240 . S
C212 O220 1.252 . S
C213 O216 1.252 . S
C213 O217 1.260 . S
O214 In208 2.266 . S
O214 C211 1.252 . S
O215 In208 2.326 . S
O215 C211 1.260 . S
O216 In208 2.266 . S
O216 C213 1.252 . S
O217 In208 2.326 . S
O217 C213 1.260 . S
C218 O209 1.240 . S
C218 O210 1.252 . S
O219 In208 2.294 . S
O219 C212 1.240 . S
O220 In208 2.326 . S
O220 C212 1.252 . S
In221 O222 2.294 . S
In221 O223 2.326 . S
In221 O227 2.266 . S
In221 O228 2.326 . S
In221 O229 2.266 . S
In221 O230 2.326 . S
In221 O232 2.294 . S
In221 O233 2.326 . S
O222 In221 2.294 . S
O222 C231 1.240 . S
O223 In221 2.326 . S
O223 C231 1.252 . S
C224 O227 1.252 . S
C224 O228 1.260 . S
C225 O232 1.240 . S
C225 O233 1.252 . S
C226 O229 1.252 . S
C226 O230 1.260 . S
O227 In221 2.266 . S
O227 C224 1.252 . S
O228 In221 2.326 . S
O228 C224 1.260 . S
O229 In221 2.266 . S
O229 C226 1.252 . S
O230 In221 2.326 . S
O230 C226 1.260 . S
C231 O222 1.240 . S
C231 O223 1.252 . S
O232 In221 2.294 . S
O232 C225 1.240 . S
O233 In221 2.326 . S
O233 C225 1.252 . S
In234 O235 2.294 . S
In234 O236 2.326 . S
In234 O240 2.266 . S
In234 O241 2.326 . S
In234 O242 2.266 . S
In234 O243 2.326 . S
In234 O245 2.294 . S
In234 O246 2.326 . S
O235 In234 2.294 . S
O235 C244 1.240 . S
O236 In234 2.326 . S
O236 C244 1.252 . S
C237 O240 1.252 . S
C237 O241 1.260 . S
C238 O245 1.240 . S
C238 O246 1.252 . S
C239 O242 1.252 . S
C239 O243 1.260 . S
O240 In234 2.266 . S
O240 C237 1.252 . S
O241 In234 2.326 . S
O241 C237 1.260 . S
O242 In234 2.266 . S
O242 C239 1.252 . S
O243 In234 2.326 . S
O243 C239 1.260 . S
C244 O235 1.240 . S
C244 O236 1.252 . S
O245 In234 2.294 . S
O245 C238 1.240 . S
O246 In234 2.326 . S
O246 C238 1.252 . S
In247 O248 2.294 . S
In247 O249 2.326 . S
In247 O253 2.266 . S
In247 O254 2.326 . S
In247 O255 2.266 . S
In247 O256 2.326 . S
In247 O258 2.294 . S
In247 O259 2.326 . S
O248 In247 2.294 . S
O248 C257 1.240 . S
O249 In247 2.326 . S
O249 C257 1.252 . S
C250 O253 1.252 . S
C250 O254 1.260 . S
C251 O258 1.240 . S
C251 O259 1.252 . S
C252 O255 1.252 . S
C252 O256 1.260 . S
O253 In247 2.266 . S
O253 C250 1.252 . S
O254 In247 2.326 . S
O254 C250 1.260 . S
O255 In247 2.266 . S
O255 C252 1.252 . S
O256 In247 2.326 . S
O256 C252 1.260 . S
C257 O248 1.240 . S
C257 O249 1.252 . S
O258 In247 2.294 . S
O258 C251 1.240 . S
O259 In247 2.326 . S
O259 C251 1.252 . S
In260 O261 2.294 . S
In260 O262 2.326 . S
In260 O266 2.266 . S
In260 O267 2.326 . S
In260 O268 2.266 . S
In260 O269 2.326 . S
In260 O271 2.294 . S
In260 O272 2.326 . S
O261 In260 2.294 . S
O261 C270 1.240 . S
O262 In260 2.326 . S
O262 C270 1.252 . S
C263 O266 1.252 . S
C263 O267 1.260 . S
C264 O271 1.240 . S
C264 O272 1.252 . S
C265 O268 1.252 . S
C265 O269 1.260 . S
O266 In260 2.266 . S
O266 C263 1.252 . S
O267 In260 2.326 . S
O267 C263 1.260 . S
O268 In260 2.266 . S
O268 C265 1.252 . S
O269 In260 2.326 . S
O269 C265 1.260 . S
C270 O261 1.240 . S
C270 O262 1.252 . S
O271 In260 2.294 . S
O271 C264 1.240 . S
O272 In260 2.326 . S
O272 C264 1.252 . S
In273 O274 2.294 . S
In273 O275 2.326 . S
In273 O279 2.266 . S
In273 O280 2.326 . S
In273 O281 2.266 . S
In273 O282 2.326 . S
In273 O284 2.294 . S
In273 O285 2.326 . S
O274 In273 2.294 . S
O274 C283 1.240 . S
O275 In273 2.326 . S
O275 C283 1.252 . S
C276 O279 1.252 . S
C276 O280 1.260 . S
C277 O284 1.240 . S
C277 O285 1.252 . S
C278 O281 1.252 . S
C278 O282 1.260 . S
O279 In273 2.266 . S
O279 C276 1.252 . S
O280 In273 2.326 . S
O280 C276 1.260 . S
O281 In273 2.266 . S
O281 C278 1.252 . S
O282 In273 2.326 . S
O282 C278 1.260 . S
C283 O274 1.240 . S
C283 O275 1.252 . S
O284 In273 2.294 . S
O284 C277 1.240 . S
O285 In273 2.326 . S
O285 C277 1.252 . S
In286 O287 2.294 . S
In286 O288 2.326 . S
In286 O292 2.266 . S
In286 O293 2.326 . S
In286 O294 2.266 . S
In286 O295 2.326 . S
In286 O297 2.294 . S
In286 O298 2.326 . S
O287 In286 2.294 . S
O287 C296 1.240 . S
O288 In286 2.326 . S
O288 C296 1.252 . S
C289 O292 1.252 . S
C289 O293 1.260 . S
C290 O297 1.240 . S
C290 O298 1.252 . S
C291 O294 1.252 . S
C291 O295 1.260 . S
O292 In286 2.266 . S
O292 C289 1.252 . S
O293 In286 2.326 . S
O293 C289 1.260 . S
O294 In286 2.266 . S
O294 C291 1.252 . S
O295 In286 2.326 . S
O295 C291 1.260 . S
C296 O287 1.240 . S
C296 O288 1.252 . S
O297 In286 2.294 . S
O297 C290 1.240 . S
O298 In286 2.326 . S
O298 C290 1.252 . S
In299 O300 2.294 . S
In299 O301 2.326 . S
In299 O305 2.266 . S
In299 O306 2.326 . S
In299 O307 2.266 . S
In299 O308 2.326 . S
In299 O310 2.294 . S
In299 O311 2.326 . S
O300 In299 2.294 . S
O300 C309 1.240 . S
O301 In299 2.326 . S
O301 C309 1.252 . S
C302 O305 1.252 . S
C302 O306 1.260 . S
C303 O310 1.240 . S
C303 O311 1.252 . S
C304 O307 1.252 . S
C304 O308 1.260 . S
O305 In299 2.266 . S
O305 C302 1.252 . S
O306 In299 2.326 . S
O306 C302 1.260 . S
O307 In299 2.266 . S
O307 C304 1.252 . S
O308 In299 2.326 . S
O308 C304 1.260 . S
C309 O300 1.240 . S
C309 O301 1.252 . S
O310 In299 2.294 . S
O310 C303 1.240 . S
O311 In299 2.326 . S
O311 C303 1.252 . S
In312 O313 2.294 . S
In312 O314 2.326 1_565 S
In312 O318 2.266 . S
In312 O319 2.326 . S
In312 O320 2.266 . S
In312 O321 2.326 . S
In312 O323 2.294 . S
In312 O324 2.326 . S
O313 In312 2.294 . S
O313 C322 1.240 1_565 S
O314 In312 2.326 1_545 S
O314 C322 1.252 . S
C315 O318 1.252 . S
C315 O319 1.260 . S
C316 O323 1.240 . S
C316 O324 1.252 . S
C317 O320 1.252 . S
C317 O321 1.260 . S
O318 In312 2.266 . S
O318 C315 1.252 . S
O319 In312 2.326 . S
O319 C315 1.260 . S
O320 In312 2.266 . S
O320 C317 1.252 . S
O321 In312 2.326 . S
O321 C317 1.260 . S
C322 O313 1.240 1_545 S
C322 O314 1.252 . S
O323 In312 2.294 . S
O323 C316 1.240 . S
O324 In312 2.326 . S
O324 C316 1.252 . S
In325 O326 2.294 . S
In325 O327 2.326 . S
In325 O331 2.266 . S
In325 O332 2.326 . S
In325 O333 2.266 . S
In325 O334 2.326 . S
In325 O336 2.294 . S
In325 O337 2.326 . S
O326 In325 2.294 . S
O326 C335 1.240 . S
O327 In325 2.326 . S
O327 C335 1.252 . S
C328 O331 1.252 . S
C328 O332 1.260 . S
C329 O336 1.240 . S
C329 O337 1.252 . S
C330 O333 1.252 . S
C330 O334 1.260 . S
O331 In325 2.266 . S
O331 C328 1.252 . S
O332 In325 2.326 . S
O332 C328 1.260 . S
O333 In325 2.266 . S
O333 C330 1.252 . S
O334 In325 2.326 . S
O334 C330 1.260 . S
C335 O326 1.240 . S
C335 O327 1.252 . S
O336 In325 2.294 . S
O336 C329 1.240 . S
O337 In325 2.326 . S
O337 C329 1.252 . S
In338 O339 2.294 . S
In338 O340 2.326 . S
In338 O344 2.266 . S
In338 O345 2.326 . S
In338 O346 2.266 . S
In338 O347 2.326 . S
In338 O349 2.294 . S
In338 O350 2.326 . S
O339 In338 2.294 . S
O339 C348 1.240 . S
O340 In338 2.326 . S
O340 C348 1.252 . S
C341 O344 1.252 . S
C341 O345 1.260 . S
C342 O349 1.240 . S
C342 O350 1.252 . S
C343 O346 1.252 . S
C343 O347 1.260 . S
O344 In338 2.266 . S
O344 C341 1.252 . S
O345 In338 2.326 . S
O345 C341 1.260 . S
O346 In338 2.266 . S
O346 C343 1.252 . S
O347 In338 2.326 . S
O347 C343 1.260 . S
C348 O339 1.240 . S
C348 O340 1.252 . S
O349 In338 2.294 . S
O349 C342 1.240 . S
O350 In338 2.326 . S
O350 C342 1.252 . S
In351 O352 2.294 . S
In351 O353 2.326 1_565 S
In351 O357 2.266 . S
In351 O358 2.326 . S
In351 O359 2.266 . S
In351 O360 2.326 . S
In351 O362 2.294 . S
In351 O363 2.326 . S
O352 In351 2.294 . S
O352 C361 1.240 1_565 S
O353 In351 2.326 1_545 S
O353 C361 1.252 . S
C354 O357 1.252 . S
C354 O358 1.260 . S
C355 O362 1.240 . S
C355 O363 1.252 . S
C356 O359 1.252 . S
C356 O360 1.260 . S
O357 In351 2.266 . S
O357 C354 1.252 . S
O358 In351 2.326 . S
O358 C354 1.260 . S
O359 In351 2.266 . S
O359 C356 1.252 . S
O360 In351 2.326 . S
O360 C356 1.260 . S
C361 O352 1.240 1_545 S
C361 O353 1.252 . S
O362 In351 2.294 . S
O362 C355 1.240 . S
O363 In351 2.326 . S
O363 C355 1.252 . S
In364 O365 2.294 . S
In364 O366 2.326 . S
In364 O370 2.266 . S
In364 O371 2.326 . S
In364 O372 2.266 . S
In364 O373 2.326 . S
In364 O375 2.294 . S
In364 O376 2.326 1_545 S
O365 In364 2.294 . S
O365 C374 1.240 . S
O366 In364 2.326 . S
O366 C374 1.252 . S
C367 O370 1.252 . S
C367 O371 1.260 . S
C368 O375 1.240 1_565 S
C368 O376 1.252 . S
C369 O372 1.252 . S
C369 O373 1.260 . S
O370 In364 2.266 . S
O370 C367 1.252 . S
O371 In364 2.326 . S
O371 C367 1.260 . S
O372 In364 2.266 . S
O372 C369 1.252 . S
O373 In364 2.326 . S
O373 C369 1.260 . S
C374 O365 1.240 . S
C374 O366 1.252 . S
O375 In364 2.294 . S
O375 C368 1.240 1_545 S
O376 In364 2.326 1_565 S
O376 C368 1.252 . S
In377 O378 2.294 . S
In377 O379 2.326 . S
In377 O383 2.266 . S
In377 O384 2.326 . S
In377 O385 2.266 . S
In377 O386 2.326 . S
In377 O388 2.294 . S
In377 O389 2.326 . S
O378 In377 2.294 . S
O378 C387 1.240 . S
O379 In377 2.326 . S
O379 C387 1.252 . S
C380 O383 1.252 . S
C380 O384 1.260 . S
C381 O388 1.240 . S
C381 O389 1.252 . S
C382 O385 1.252 . S
C382 O386 1.260 . S
O383 In377 2.266 . S
O383 C380 1.252 . S
O384 In377 2.326 . S
O384 C380 1.260 . S
O385 In377 2.266 . S
O385 C382 1.252 . S
O386 In377 2.326 . S
O386 C382 1.260 . S
C387 O378 1.240 . S
C387 O379 1.252 . S
O388 In377 2.294 . S
O388 C381 1.240 . S
O389 In377 2.326 . S
O389 C381 1.252 . S
In390 O391 2.294 . S
In390 O392 2.326 . S
In390 O396 2.266 . S
In390 O397 2.326 . S
In390 O398 2.266 . S
In390 O399 2.326 . S
In390 O401 2.294 . S
In390 O402 2.326 . S
O391 In390 2.294 . S
O391 C400 1.240 . S
O392 In390 2.326 . S
O392 C400 1.252 . S
C393 O396 1.252 . S
C393 O397 1.260 . S
C394 O401 1.240 . S
C394 O402 1.252 . S
C395 O398 1.252 . S
C395 O399 1.260 . S
O396 In390 2.266 . S
O396 C393 1.252 . S
O397 In390 2.326 . S
O397 C393 1.260 . S
O398 In390 2.266 . S
O398 C395 1.252 . S
O399 In390 2.326 . S
O399 C395 1.260 . S
C400 O391 1.240 . S
C400 O392 1.252 . S
O401 In390 2.294 . S
O401 C394 1.240 . S
O402 In390 2.326 . S
O402 C394 1.252 . S
In403 O404 2.294 . S
In403 O405 2.326 . S
In403 O409 2.266 . S
In403 O410 2.326 . S
In403 O411 2.266 . S
In403 O412 2.326 . S
In403 O414 2.294 . S
In403 O415 2.326 1_545 S
O404 In403 2.294 . S
O404 C413 1.240 . S
O405 In403 2.326 . S
O405 C413 1.252 . S
C406 O409 1.252 . S
C406 O410 1.260 . S
C407 O414 1.240 1_565 S
C407 O415 1.252 . S
C408 O411 1.252 . S
C408 O412 1.260 . S
O409 In403 2.266 . S
O409 C406 1.252 . S
O410 In403 2.326 . S
O410 C406 1.260 . S
O411 In403 2.266 . S
O411 C408 1.252 . S
O412 In403 2.326 . S
O412 C408 1.260 . S
C413 O404 1.240 . S
C413 O405 1.252 . S
O414 In403 2.294 . S
O414 C407 1.240 1_545 S
O415 In403 2.326 1_565 S
O415 C407 1.252 . S
C416 C417 1.387 . S
C416 H420 0.950 . S
C416 C425 1.390 . S
C417 C416 1.387 . S
C417 C419 1.387 . S
H418 C425 0.950 . S
C419 C417 1.387 . S
C419 C421 1.390 . S
C419 H423 0.950 . S
H420 C416 0.950 . S
C421 C419 1.390 . S
C421 C422 1.387 . S
C421 H424 0.950 . S
C422 C421 1.387 . S
C422 C425 1.387 . S
H423 C419 0.950 . S
H424 C421 0.950 . S
C425 C416 1.390 . S
C425 H418 0.950 . S
C425 C422 1.387 . S
C426 C427 1.387 . S
C426 H430 0.950 . S
C426 C435 1.390 . S
C427 C426 1.387 . S
C427 C429 1.387 . S
H428 C435 0.950 . S
C429 C427 1.387 . S
C429 C431 1.390 . S
C429 H433 0.950 . S
H430 C426 0.950 . S
C431 C429 1.390 . S
C431 C432 1.387 . S
C431 H434 0.950 . S
C432 C431 1.387 . S
C432 C435 1.387 . S
H433 C429 0.950 . S
H434 C431 0.950 . S
C435 C426 1.390 . S
C435 H428 0.950 . S
C435 C432 1.387 . S
C436 C437 1.387 . S
C436 H440 0.950 . S
C436 C445 1.390 . S
C437 C436 1.387 . S
C437 C439 1.387 . S
H438 C445 0.950 . S
C439 C437 1.387 . S
C439 C441 1.390 . S
C439 H443 0.950 . S
H440 C436 0.950 . S
C441 C439 1.390 . S
C441 C442 1.387 . S
C441 H444 0.950 . S
C442 C441 1.387 . S
C442 C445 1.387 . S
H443 C439 0.950 . S
H444 C441 0.950 . S
C445 C436 1.390 . S
C445 H438 0.950 . S
C445 C442 1.387 . S
C446 C447 1.387 . S
C446 H450 0.950 . S
C446 C455 1.390 . S
C447 C446 1.387 . S
C447 C449 1.387 . S
H448 C455 0.950 . S
C449 C447 1.387 . S
C449 C451 1.390 . S
C449 H453 0.950 . S
H450 C446 0.950 . S
C451 C449 1.390 . S
C451 C452 1.387 . S
C451 H454 0.950 . S
C452 C451 1.387 . S
C452 C455 1.387 . S
H453 C449 0.950 . S
H454 C451 0.950 . S
C455 C446 1.390 . S
C455 H448 0.950 . S
C455 C452 1.387 . S
C456 C457 1.387 . S
C456 H460 0.950 . S
C456 C465 1.390 . S
C457 C456 1.387 . S
C457 C459 1.387 . S
H458 C465 0.950 . S
C459 C457 1.387 . S
C459 C461 1.390 . S
C459 H463 0.950 . S
H460 C456 0.950 . S
C461 C459 1.390 . S
C461 C462 1.387 . S
C461 H464 0.950 . S
C462 C461 1.387 . S
C462 C465 1.387 . S
H463 C459 0.950 . S
H464 C461 0.950 . S
C465 C456 1.390 . S
C465 H458 0.950 . S
C465 C462 1.387 . S
C466 C467 1.387 . S
C466 H470 0.950 . S
C466 C475 1.390 . S
C467 C466 1.387 . S
C467 C469 1.387 . S
H468 C475 0.950 . S
C469 C467 1.387 . S
C469 C471 1.390 . S
C469 H473 0.950 . S
H470 C466 0.950 . S
C471 C469 1.390 . S
C471 C472 1.387 . S
C471 H474 0.950 . S
C472 C471 1.387 . S
C472 C475 1.387 . S
H473 C469 0.950 . S
H474 C471 0.950 . S
C475 C466 1.390 . S
C475 H468 0.950 . S
C475 C472 1.387 . S
C476 C477 1.387 . S
C476 H480 0.950 . S
C476 C485 1.390 . S
C477 C476 1.387 . S
C477 C479 1.387 . S
H478 C485 0.950 . S
C479 C477 1.387 . S
C479 C481 1.390 . S
C479 H483 0.950 . S
H480 C476 0.950 . S
C481 C479 1.390 . S
C481 C482 1.387 . S
C481 H484 0.950 . S
C482 C481 1.387 . S
C482 C485 1.387 . S
H483 C479 0.950 . S
H484 C481 0.950 . S
C485 C476 1.390 . S
C485 H478 0.950 . S
C485 C482 1.387 . S
C486 C487 1.387 . S
C486 H490 0.950 . S
C486 C495 1.390 . S
C487 C486 1.387 . S
C487 C489 1.387 . S
H488 C495 0.950 . S
C489 C487 1.387 . S
C489 C491 1.390 . S
C489 H493 0.950 . S
H490 C486 0.950 . S
C491 C489 1.390 . S
C491 C492 1.387 . S
C491 H494 0.950 . S
C492 C491 1.387 . S
C492 C495 1.387 . S
H493 C489 0.950 . S
H494 C491 0.950 . S
C495 C486 1.390 . S
C495 H488 0.950 . S
C495 C492 1.387 . S
C496 C497 1.387 . S
C496 H500 0.950 . S
C496 C505 1.390 . S
C497 C496 1.387 . S
C497 C499 1.387 . S
H498 C505 0.950 . S
C499 C497 1.387 . S
C499 C501 1.390 . S
C499 H503 0.950 . S
H500 C496 0.950 . S
C501 C499 1.390 . S
C501 C502 1.387 . S
C501 H504 0.950 . S
C502 C501 1.387 . S
C502 C505 1.387 . S
H503 C499 0.950 . S
H504 C501 0.950 . S
C505 C496 1.390 . S
C505 H498 0.950 . S
C505 C502 1.387 . S
C506 C507 1.387 . S
C506 H510 0.950 . S
C506 C515 1.390 . S
C507 C506 1.387 . S
C507 C509 1.387 . S
H508 C515 0.950 . S
C509 C507 1.387 . S
C509 C511 1.390 . S
C509 H513 0.950 . S
H510 C506 0.950 . S
C511 C509 1.390 . S
C511 C512 1.387 . S
C511 H514 0.950 . S
C512 C511 1.387 . S
C512 C515 1.387 . S
H513 C509 0.950 . S
H514 C511 0.950 . S
C515 C506 1.390 . S
C515 H508 0.950 . S
C515 C512 1.387 . S
C516 C517 1.387 . S
C516 H520 0.950 . S
C516 C525 1.390 . S
C517 C516 1.387 . S
C517 C519 1.387 . S
H518 C525 0.950 . S
C519 C517 1.387 . S
C519 C521 1.390 . S
C519 H523 0.950 . S
H520 C516 0.950 . S
C521 C519 1.390 . S
C521 C522 1.387 . S
C521 H524 0.950 . S
C522 C521 1.387 . S
C522 C525 1.387 . S
H523 C519 0.950 . S
H524 C521 0.950 . S
C525 C516 1.390 . S
C525 H518 0.950 . S
C525 C522 1.387 . S
C526 C527 1.387 . S
C526 H530 0.950 . S
C526 C535 1.390 . S
C527 C526 1.387 . S
C527 C529 1.387 . S
H528 C535 0.950 . S
C529 C527 1.387 . S
C529 C531 1.390 . S
C529 H533 0.950 . S
H530 C526 0.950 . S
C531 C529 1.390 . S
C531 C532 1.387 . S
C531 H534 0.950 . S
C532 C531 1.387 . S
C532 C535 1.387 . S
H533 C529 0.950 . S
H534 C531 0.950 . S
C535 C526 1.390 . S
C535 H528 0.950 . S
C535 C532 1.387 . S
C536 C537 1.387 . S
C536 H540 0.950 . S
C536 C545 1.390 . S
C537 C536 1.387 . S
C537 C539 1.387 . S
H538 C545 0.950 . S
C539 C537 1.387 . S
C539 C541 1.390 . S
C539 H543 0.950 . S
H540 C536 0.950 . S
C541 C539 1.390 . S
C541 C542 1.387 . S
C541 H544 0.950 . S
C542 C541 1.387 . S
C542 C545 1.387 . S
H543 C539 0.950 . S
H544 C541 0.950 . S
C545 C536 1.390 . S
C545 H538 0.950 . S
C545 C542 1.387 . S
C546 C547 1.387 . S
C546 H550 0.950 . S
C546 C555 1.390 . S
C547 C546 1.387 . S
C547 C549 1.387 . S
H548 C555 0.950 . S
C549 C547 1.387 . S
C549 C551 1.390 . S
C549 H553 0.950 . S
H550 C546 0.950 . S
C551 C549 1.390 . S
C551 C552 1.387 . S
C551 H554 0.950 . S
C552 C551 1.387 . S
C552 C555 1.387 . S
H553 C549 0.950 . S
H554 C551 0.950 . S
C555 C546 1.390 . S
C555 H548 0.950 . S
C555 C552 1.387 . S
C556 C557 1.387 . S
C556 H560 0.950 . S
C556 C565 1.390 . S
C557 C556 1.387 . S
C557 C559 1.387 . S
H558 C565 0.950 . S
C559 C557 1.387 . S
C559 C561 1.390 . S
C559 H563 0.950 . S
H560 C556 0.950 . S
C561 C559 1.390 . S
C561 C562 1.387 . S
C561 H564 0.950 . S
C562 C561 1.387 . S
C562 C565 1.387 . S
H563 C559 0.950 . S
H564 C561 0.950 . S
C565 C556 1.390 . S
C565 H558 0.950 . S
C565 C562 1.387 . S
C566 C567 1.387 . S
C566 H570 0.950 . S
C566 C575 1.390 . S
C567 C566 1.387 . S
C567 C569 1.387 . S
H568 C575 0.950 . S
C569 C567 1.387 . S
C569 C571 1.390 . S
C569 H573 0.950 . S
H570 C566 0.950 . S
C571 C569 1.390 . S
C571 C572 1.387 . S
C571 H574 0.950 . S
C572 C571 1.387 . S
C572 C575 1.387 . S
H573 C569 0.950 . S
H574 C571 0.950 . S
C575 C566 1.390 . S
C575 H568 0.950 . S
C575 C572 1.387 . S
C576 C577 1.387 1_554 S
C576 H580 0.950 . S
C576 C585 1.390 . S
C577 C576 1.387 1_556 S
C577 C579 1.387 1_655 S
H578 C585 0.950 . S
C579 C577 1.387 1_455 S
C579 C581 1.390 . S
C579 H583 0.950 . S
H580 C576 0.950 . S
C581 C579 1.390 . S
C581 C582 1.387 1_556 S
C581 H584 0.950 . S
C582 C581 1.387 1_554 S
C582 C585 1.387 1_455 S
H583 C579 0.950 . S
H584 C581 0.950 . S
C585 C576 1.390 . S
C585 H578 0.950 . S
C585 C582 1.387 1_655 S
C586 C587 1.387 1_554 S
C586 H590 0.950 . S
C586 C595 1.390 . S
C587 C586 1.387 1_556 S
C587 C589 1.387 . S
H588 C595 0.950 . S
C589 C587 1.387 . S
C589 C591 1.390 . S
C589 H593 0.950 . S
H590 C586 0.950 . S
C591 C589 1.390 . S
C591 C592 1.387 1_556 S
C591 H594 0.950 . S
C592 C591 1.387 1_554 S
C592 C595 1.387 . S
H593 C589 0.950 . S
H594 C591 0.950 . S
C595 C586 1.390 . S
C595 H588 0.950 . S
C595 C592 1.387 . S
C596 C597 1.387 1_655 S
C596 H600 0.950 . S
C596 C605 1.390 . S
C597 C596 1.387 1_455 S
C597 C599 1.387 . S
H598 C605 0.950 . S
C599 C597 1.387 . S
C599 C601 1.390 . S
C599 H603 0.950 . S
H600 C596 0.950 . S
C601 C599 1.390 . S
C601 C602 1.387 1_455 S
C601 H604 0.950 . S
C602 C601 1.387 1_655 S
C602 C605 1.387 . S
H603 C599 0.950 . S
H604 C601 0.950 . S
C605 C596 1.390 . S
C605 H598 0.950 . S
C605 C602 1.387 . S
C606 C607 1.387 . S
C606 H610 0.950 . S
C606 C615 1.390 . S
C607 C606 1.387 . S
C607 C609 1.387 . S
H608 C615 0.950 . S
C609 C607 1.387 . S
C609 C611 1.390 . S
C609 H613 0.950 . S
H610 C606 0.950 . S
C611 C609 1.390 . S
C611 C612 1.387 . S
C611 H614 0.950 . S
C612 C611 1.387 . S
C612 C615 1.387 . S
H613 C609 0.950 . S
H614 C611 0.950 . S
C615 C606 1.390 . S
C615 H608 0.950 . S
C615 C612 1.387 . S
C616 C617 1.387 1_554 S
C616 H620 0.950 . S
C616 C625 1.390 . S
C617 C616 1.387 1_556 S
C617 C619 1.387 . S
H618 C625 0.950 . S
C619 C617 1.387 . S
C619 C621 1.390 . S
C619 H623 0.950 . S
H620 C616 0.950 . S
C621 C619 1.390 . S
C621 C622 1.387 1_556 S
C621 H624 0.950 . S
C622 C621 1.387 1_554 S
C622 C625 1.387 . S
H623 C619 0.950 . S
H624 C621 0.950 . S
C625 C616 1.390 . S
C625 H618 0.950 . S
C625 C622 1.387 . S
C626 C627 1.387 . S
C626 H630 0.950 . S
C626 C635 1.390 1_655 S
C627 C626 1.387 . S
C627 C629 1.387 . S
H628 C635 0.950 . S
C629 C627 1.387 . S
C629 C631 1.390 1_655 S
C629 H633 0.950 . S
H630 C626 0.950 . S
C631 C629 1.390 1_455 S
C631 C632 1.387 . S
C631 H634 0.950 . S
C632 C631 1.387 . S
C632 C635 1.387 . S
H633 C629 0.950 . S
H634 C631 0.950 . S
C635 C626 1.390 1_455 S
C635 H628 0.950 . S
C635 C632 1.387 . S
C636 C637 1.387 . S
C636 H640 0.950 . S
C636 C645 1.390 . S
C637 C636 1.387 . S
C637 C639 1.387 . S
H638 C645 0.950 . S
C639 C637 1.387 . S
C639 C641 1.390 . S
C639 H643 0.950 . S
H640 C636 0.950 . S
C641 C639 1.390 . S
C641 C642 1.387 . S
C641 H644 0.950 . S
C642 C641 1.387 . S
C642 C645 1.387 . S
H643 C639 0.950 . S
H644 C641 0.950 . S
C645 C636 1.390 . S
C645 H638 0.950 . S
C645 C642 1.387 . S
C646 C647 1.419 . S
C646 H650 0.955 . S
C646 C655 1.357 1_655 S
C647 C646 1.419 . S
C647 C649 1.387 1_545 S
H648 C655 0.950 . S
C649 C647 1.387 1_565 S
C649 C651 1.357 1_655 S
C649 H653 0.950 . S
H650 C646 0.955 . S
C651 C649 1.357 1_455 S
C651 C652 1.419 . S
C651 H654 0.955 . S
C652 C651 1.419 . S
C652 C655 1.387 1_565 S
H653 C649 0.950 . S
H654 C651 0.955 . S
C655 C646 1.357 1_455 S
C655 H648 0.950 . S
C655 C652 1.387 1_545 S
C656 C657 1.387 . S
C656 H660 0.950 . S
C656 C665 1.390 . S
C657 C656 1.387 . S
C657 C659 1.387 . S
H658 C665 0.950 . S
C659 C657 1.387 . S
C659 C661 1.390 . S
C659 H663 0.950 . S
H660 C656 0.950 . S
C661 C659 1.390 . S
C661 C662 1.387 . S
C661 H664 0.950 . S
C662 C661 1.387 . S
C662 C665 1.387 . S
H663 C659 0.950 . S
H664 C661 0.950 . S
C665 C656 1.390 . S
C665 H658 0.950 . S
C665 C662 1.387 . S
C666 C667 1.387 1_545 S
C666 H670 0.950 . S
C666 C675 1.390 . S
C667 C666 1.387 1_565 S
C667 C669 1.387 . S
H668 C675 0.950 . S
C669 C667 1.387 . S
C669 C671 1.390 . S
C669 H673 0.950 . S
H670 C666 0.950 . S
C671 C669 1.390 . S
C671 C672 1.387 1_565 S
C671 H674 0.950 . S
C672 C671 1.387 1_545 S
C672 C675 1.387 . S
H673 C669 0.950 . S
H674 C671 0.950 . S
C675 C666 1.390 . S
C675 H668 0.950 . S
C675 C672 1.387 . S
C676 C677 1.387 . S
C676 H680 0.950 . S
C676 C685 1.390 . S
C677 C676 1.387 . S
C677 C679 1.387 . S
H678 C685 0.950 . S
C679 C677 1.387 . S
C679 C681 1.390 . S
C679 H683 0.950 . S
H680 C676 0.950 . S
C681 C679 1.390 . S
C681 C682 1.387 . S
C681 H684 0.950 . S
C682 C681 1.387 . S
C682 C685 1.387 . S
H683 C679 0.950 . S
H684 C681 0.950 . S
C685 C676 1.390 . S
C685 H678 0.950 . S
C685 C682 1.387 . S
C686 C687 1.387 . S
C686 H690 0.950 . S
C686 C695 1.390 . S
C687 C686 1.387 . S
C687 C689 1.387 1_565 S
H688 C695 0.950 . S
C689 C687 1.387 1_545 S
C689 C691 1.390 . S
C689 H693 0.950 . S
H690 C686 0.950 . S
C691 C689 1.390 . S
C691 C692 1.387 . S
C691 H694 0.950 . S
C692 C691 1.387 . S
C692 C695 1.387 1_545 S
H693 C689 0.950 . S
H694 C691 0.950 . S
C695 C686 1.390 . S
C695 H688 0.950 . S
C695 C692 1.387 1_565 S
C696 C697 1.387 . S
C696 H700 0.950 . S
C696 C705 1.390 . S
C697 C696 1.387 . S
C697 C699 1.387 . S
H698 C705 0.950 . S
C699 C697 1.387 . S
C699 C701 1.390 . S
C699 H703 0.950 . S
H700 C696 0.950 . S
C701 C699 1.390 . S
C701 C702 1.387 . S
C701 H704 0.950 . S
C702 C701 1.387 . S
C702 C705 1.387 . S
H703 C699 0.950 . S
H704 C701 0.950 . S
C705 C696 1.390 . S
C705 H698 0.950 . S
C705 C702 1.387 . S
C706 C707 1.387 . S
C706 H710 0.950 . S
C706 C715 1.390 . S
C707 C706 1.387 . S
C707 C709 1.387 . S
H708 C715 0.950 . S
C709 C707 1.387 . S
C709 C711 1.390 . S
C709 H713 0.950 . S
H710 C706 0.950 . S
C711 C709 1.390 . S
C711 C712 1.387 . S
C711 H714 0.950 . S
C712 C711 1.387 . S
C712 C715 1.387 . S
H713 C709 0.950 . S
H714 C711 0.950 . S
C715 C706 1.390 . S
C715 H708 0.950 . S
C715 C712 1.387 . S
C716 C717 1.387 . S
C716 H720 0.950 . S
C716 C725 1.390 . S
C717 C716 1.387 . S
C717 C719 1.387 . S
H718 C725 0.950 . S
C719 C717 1.387 . S
C719 C721 1.390 . S
C719 H723 0.950 . S
H720 C716 0.950 . S
C721 C719 1.390 . S
C721 C722 1.387 . S
C721 H724 0.950 . S
C722 C721 1.387 . S
C722 C725 1.387 . S
H723 C719 0.950 . S
H724 C721 0.950 . S
C725 C716 1.390 . S
C725 H718 0.950 . S
C725 C722 1.387 . S
C726 C727 1.387 1_565 S
C726 H730 0.950 . S
C726 C735 1.390 . S
C727 C726 1.387 1_545 S
C727 C729 1.387 1_556 S
H728 C735 0.950 . S
C729 C727 1.387 1_554 S
C729 C731 1.390 . S
C729 H733 0.950 . S
H730 C726 0.950 . S
C731 C729 1.390 . S
C731 C732 1.387 1_545 S
C731 H734 0.950 . S
C732 C731 1.387 1_565 S
C732 C735 1.387 1_554 S
H733 C729 0.950 . S
H734 C731 0.950 . S
C735 C726 1.390 . S
C735 H728 0.950 . S
C735 C732 1.387 1_556 S
C736 C737 1.387 . S
C736 H740 0.950 . S
C736 C745 1.390 . S
C737 C736 1.387 . S
C737 C739 1.387 . S
H738 C745 0.950 . S
C739 C737 1.387 . S
C739 C741 1.390 . S
C739 H743 0.950 . S
H740 C736 0.950 . S
C741 C739 1.390 . S
C741 C742 1.387 . S
C741 H744 0.950 . S
C742 C741 1.387 . S
C742 C745 1.387 . S
H743 C739 0.950 . S
H744 C741 0.950 . S
C745 C736 1.390 . S
C745 H738 0.950 . S
C745 C742 1.387 . S
C746 C747 1.387 . S
C746 H750 0.950 . S
C746 C755 1.390 . S
C747 C746 1.387 . S
C747 C749 1.387 . S
H748 C755 0.950 . S
C749 C747 1.387 . S
C749 C751 1.390 . S
C749 H753 0.950 . S
H750 C746 0.950 . S
C751 C749 1.390 . S
C751 C752 1.387 . S
C751 H754 0.950 . S
C752 C751 1.387 . S
C752 C755 1.387 . S
H753 C749 0.950 . S
H754 C751 0.950 . S
C755 C746 1.390 . S
C755 H748 0.950 . S
C755 C752 1.387 . S
C756 C757 1.387 . S
C756 H760 0.950 . S
C756 C765 1.390 . S
C757 C756 1.387 . S
C757 C759 1.387 . S
H758 C765 0.950 . S
C759 C757 1.387 . S
C759 C761 1.390 . S
C759 H763 0.950 . S
H760 C756 0.950 . S
C761 C759 1.390 . S
C761 C762 1.387 . S
C761 H764 0.950 . S
C762 C761 1.387 . S
C762 C765 1.387 . S
H763 C759 0.950 . S
H764 C761 0.950 . S
C765 C756 1.390 . S
C765 H758 0.950 . S
C765 C762 1.387 . S
C766 C767 1.387 . S
C766 H770 0.950 . S
C766 C775 1.390 . S
C767 C766 1.387 . S
C767 C769 1.387 . S
H768 C775 0.950 . S
C769 C767 1.387 . S
C769 C771 1.390 . S
C769 H773 0.950 . S
H770 C766 0.950 . S
C771 C769 1.390 . S
C771 C772 1.387 . S
C771 H774 0.950 . S
C772 C771 1.387 . S
C772 C775 1.387 . S
H773 C769 0.950 . S
H774 C771 0.950 . S
C775 C766 1.390 . S
C775 H768 0.950 . S
C775 C772 1.387 . S
C776 C777 1.387 . S
C776 H780 0.950 . S
C776 C785 1.390 . S
C777 C776 1.387 . S
C777 C779 1.387 . S
H778 C785 0.950 . S
C779 C777 1.387 . S
C779 C781 1.390 . S
C779 H783 0.950 . S
H780 C776 0.950 . S
C781 C779 1.390 . S
C781 C782 1.387 . S
C781 H784 0.950 . S
C782 C781 1.387 . S
C782 C785 1.387 . S
H783 C779 0.950 . S
H784 C781 0.950 . S
C785 C776 1.390 . S
C785 H778 0.950 . S
C785 C782 1.387 . S
C786 C787 1.387 . S
C786 H790 0.950 . S
C786 C795 1.390 . S
C787 C786 1.387 . S
C787 C789 1.387 . S
H788 C795 0.950 . S
C789 C787 1.387 . S
C789 C791 1.390 . S
C789 H793 0.950 . S
H790 C786 0.950 . S
C791 C789 1.390 . S
C791 C792 1.387 . S
C791 H794 0.950 . S
C792 C791 1.387 . S
C792 C795 1.387 . S
H793 C789 0.950 . S
H794 C791 0.950 . S
C795 C786 1.390 . S
C795 H788 0.950 . S
C795 C792 1.387 . S
C796 C797 1.387 . S
C796 H800 0.950 . S
C796 C805 1.390 . S
C797 C796 1.387 . S
C797 C799 1.387 . S
H798 C805 0.950 . S
C799 C797 1.387 . S
C799 C801 1.390 . S
C799 H803 0.950 . S
H800 C796 0.950 . S
C801 C799 1.390 . S
C801 C802 1.387 . S
C801 H804 0.950 . S
C802 C801 1.387 . S
C802 C805 1.387 . S
H803 C799 0.950 . S
H804 C801 0.950 . S
C805 C796 1.390 . S
C805 H798 0.950 . S
C805 C802 1.387 . S
C806 C807 1.387 . S
C806 H810 0.950 . S
C806 C815 1.390 . S
C807 C806 1.387 . S
C807 C809 1.387 . S
H808 C815 0.950 . S
C809 C807 1.387 . S
C809 C811 1.390 . S
C809 H813 0.950 . S
H810 C806 0.950 . S
C811 C809 1.390 . S
C811 C812 1.387 . S
C811 H814 0.950 . S
C812 C811 1.387 . S
C812 C815 1.387 . S
H813 C809 0.950 . S
H814 C811 0.950 . S
C815 C806 1.390 . S
C815 H808 0.950 . S
C815 C812 1.387 . S
C816 C817 1.387 . S
C816 H820 0.950 . S
C816 C825 1.390 . S
C817 C816 1.387 . S
C817 C819 1.387 . S
H818 C825 0.950 . S
C819 C817 1.387 . S
C819 C821 1.390 . S
C819 H823 0.950 . S
H820 C816 0.950 . S
C821 C819 1.390 . S
C821 C822 1.387 . S
C821 H824 0.950 . S
C822 C821 1.387 . S
C822 C825 1.387 . S
H823 C819 0.950 . S
H824 C821 0.950 . S
C825 C816 1.390 . S
C825 H818 0.950 . S
C825 C822 1.387 . S
C826 C827 1.387 . S
C826 H830 0.950 . S
C826 C835 1.390 . S
C827 C826 1.387 . S
C827 C829 1.387 . S
H828 C835 0.950 . S
C829 C827 1.387 . S
C829 C831 1.390 . S
C829 H833 0.950 . S
H830 C826 0.950 . S
C831 C829 1.390 . S
C831 C832 1.387 . S
C831 H834 0.950 . S
C832 C831 1.387 . S
C832 C835 1.387 . S
H833 C829 0.950 . S
H834 C831 0.950 . S
C835 C826 1.390 . S
C835 H828 0.950 . S
C835 C832 1.387 . S
C836 C837 1.387 . S
C836 H840 0.950 . S
C836 C845 1.390 . S
C837 C836 1.387 . S
C837 C839 1.387 . S
H838 C845 0.950 . S
C839 C837 1.387 . S
C839 C841 1.390 . S
C839 H843 0.950 . S
H840 C836 0.950 . S
C841 C839 1.390 . S
C841 C842 1.387 . S
C841 H844 0.950 . S
C842 C841 1.387 . S
C842 C845 1.387 . S
H843 C839 0.950 . S
H844 C841 0.950 . S
C845 C836 1.390 . S
C845 H838 0.950 . S
C845 C842 1.387 . S
C846 C847 1.387 . S
C846 H850 0.950 . S
C846 C855 1.390 . S
C847 C846 1.387 . S
C847 C849 1.387 . S
H848 C855 0.950 . S
C849 C847 1.387 . S
C849 C851 1.390 . S
C849 H853 0.950 . S
H850 C846 0.950 . S
C851 C849 1.390 . S
C851 C852 1.387 . S
C851 H854 0.950 . S
C852 C851 1.387 . S
C852 C855 1.387 . S
H853 C849 0.950 . S
H854 C851 0.950 . S
C855 C846 1.390 . S
C855 H848 0.950 . S
C855 C852 1.387 . S
C856 C857 1.387 . S
C856 H860 0.950 . S
C856 C865 1.390 . S
C857 C856 1.387 . S
C857 C859 1.387 . S
H858 C865 0.950 . S
C859 C857 1.387 . S
C859 C861 1.390 . S
C859 H863 0.950 . S
H860 C856 0.950 . S
C861 C859 1.390 . S
C861 C862 1.387 . S
C861 H864 0.950 . S
C862 C861 1.387 . S
C862 C865 1.387 . S
H863 C859 0.950 . S
H864 C861 0.950 . S
C865 C856 1.390 . S
C865 H858 0.950 . S
C865 C862 1.387 . S
C866 C867 1.387 . S
C866 H870 0.950 . S
C866 C875 1.390 . S
C867 C866 1.387 . S
C867 C869 1.387 . S
H868 C875 0.950 . S
C869 C867 1.387 . S
C869 C871 1.390 . S
C869 H873 0.950 . S
H870 C866 0.950 . S
C871 C869 1.390 . S
C871 C872 1.387 . S
C871 H874 0.950 . S
C872 C871 1.387 . S
C872 C875 1.387 . S
H873 C869 0.950 . S
H874 C871 0.950 . S
C875 C866 1.390 . S
C875 H868 0.950 . S
C875 C872 1.387 . S
C876 C877 1.387 . S
C876 H880 0.950 . S
C876 C885 1.390 . S
C877 C876 1.387 . S
C877 C879 1.387 . S
H878 C885 0.950 . S
C879 C877 1.387 . S
C879 C881 1.390 . S
C879 H883 0.950 . S
H880 C876 0.950 . S
C881 C879 1.390 . S
C881 C882 1.387 . S
C881 H884 0.950 . S
C882 C881 1.387 . S
C882 C885 1.387 . S
H883 C879 0.950 . S
H884 C881 0.950 . S
C885 C876 1.390 . S
C885 H878 0.950 . S
C885 C882 1.387 . S
C886 C887 1.387 . S
C886 H890 0.950 . S
C886 C895 1.390 . S
C887 C886 1.387 . S
C887 C889 1.387 . S
H888 C895 0.950 . S
C889 C887 1.387 . S
C889 C891 1.390 . S
C889 H893 0.950 . S
H890 C886 0.950 . S
C891 C889 1.390 . S
C891 C892 1.387 . S
C891 H894 0.950 . S
C892 C891 1.387 . S
C892 C895 1.387 . S
H893 C889 0.950 . S
H894 C891 0.950 . S
C895 C886 1.390 . S
C895 H888 0.950 . S
C895 C892 1.387 . S
C896 C897 1.387 . S
C896 H900 0.950 . S
C896 C905 1.390 . S
C897 C896 1.387 . S
C897 C899 1.387 . S
H898 C905 0.950 . S
C899 C897 1.387 . S
C899 C901 1.390 . S
C899 H903 0.950 . S
H900 C896 0.950 . S
C901 C899 1.390 . S
C901 C902 1.387 . S
C901 H904 0.950 . S
C902 C901 1.387 . S
C902 C905 1.387 . S
H903 C899 0.950 . S
H904 C901 0.950 . S
C905 C896 1.390 . S
C905 H898 0.950 . S
C905 C902 1.387 . S
C906 C907 1.387 . S
C906 H910 0.950 . S
C906 C915 1.390 . S
C907 C906 1.387 . S
C907 C909 1.387 . S
H908 C915 0.950 . S
C909 C907 1.387 . S
C909 C911 1.390 . S
C909 H913 0.950 . S
H910 C906 0.950 . S
C911 C909 1.390 . S
C911 C912 1.387 . S
C911 H914 0.950 . S
C912 C911 1.387 . S
C912 C915 1.387 . S
H913 C909 0.950 . S
H914 C911 0.950 . S
C915 C906 1.390 . S
C915 H908 0.950 . S
C915 C912 1.387 . S
C916 C917 1.387 . S
C916 H920 0.950 . S
C916 C925 1.390 . S
C917 C916 1.387 . S
C917 C919 1.387 . S
H918 C925 0.950 . S
C919 C917 1.387 . S
C919 C921 1.390 . S
C919 H923 0.950 . S
H920 C916 0.950 . S
C921 C919 1.390 . S
C921 C922 1.387 . S
C921 H924 0.950 . S
C922 C921 1.387 . S
C922 C925 1.387 . S
H923 C919 0.950 . S
H924 C921 0.950 . S
C925 C916 1.390 . S
C925 H918 0.950 . S
C925 C922 1.387 . S
C926 C927 1.387 . S
C926 H930 0.950 . S
C926 C935 1.390 . S
C927 C926 1.387 . S
C927 C929 1.387 . S
H928 C935 0.950 . S
C929 C927 1.387 . S
C929 C931 1.390 . S
C929 H933 0.950 . S
H930 C926 0.950 . S
C931 C929 1.390 . S
C931 C932 1.387 . S
C931 H934 0.950 . S
C932 C931 1.387 . S
C932 C935 1.387 . S
H933 C929 0.950 . S
H934 C931 0.950 . S
C935 C926 1.390 . S
C935 H928 0.950 . S
C935 C932 1.387 . S
C936 C937 1.387 . S
C936 H940 0.950 . S
C936 C945 1.390 . S
C937 C936 1.387 . S
C937 C939 1.387 . S
H938 C945 0.950 . S
C939 C937 1.387 . S
C939 C941 1.390 . S
C939 H943 0.950 . S
H940 C936 0.950 . S
C941 C939 1.390 . S
C941 C942 1.387 . S
C941 H944 0.950 . S
C942 C941 1.387 . S
C942 C945 1.387 . S
H943 C939 0.950 . S
H944 C941 0.950 . S
C945 C936 1.390 . S
C945 H938 0.950 . S
C945 C942 1.387 . S
C946 C947 1.387 . S
C946 H950 0.950 . S
C946 C955 1.390 . S
C947 C946 1.387 . S
C947 C949 1.387 . S
H948 C955 0.950 . S
C949 C947 1.387 . S
C949 C951 1.390 . S
C949 H953 0.950 . S
H950 C946 0.950 . S
C951 C949 1.390 . S
C951 C952 1.387 . S
C951 H954 0.950 . S
C952 C951 1.387 . S
C952 C955 1.387 . S
H953 C949 0.950 . S
H954 C951 0.950 . S
C955 C946 1.390 . S
C955 H948 0.950 . S
C955 C952 1.387 . S
C956 C957 1.387 . S
C956 H960 0.950 . S
C956 C965 1.390 . S
C957 C956 1.387 . S
C957 C959 1.387 . S
H958 C965 0.950 . S
C959 C957 1.387 . S
C959 C961 1.390 . S
C959 H963 0.950 . S
H960 C956 0.950 . S
C961 C959 1.390 . S
C961 C962 1.387 . S
C961 H964 0.950 . S
C962 C961 1.387 . S
C962 C965 1.387 . S
H963 C959 0.950 . S
H964 C961 0.950 . S
C965 C956 1.390 . S
C965 H958 0.950 . S
C965 C962 1.387 . S
C966 C967 1.387 . S
C966 H970 0.950 . S
C966 C975 1.390 . S
C967 C966 1.387 . S
C967 C969 1.387 . S
H968 C975 0.950 . S
C969 C967 1.387 . S
C969 C971 1.390 . S
C969 H973 0.950 . S
H970 C966 0.950 . S
C971 C969 1.390 . S
C971 C972 1.387 . S
C971 H974 0.950 . S
C972 C971 1.387 . S
C972 C975 1.387 . S
H973 C969 0.950 . S
H974 C971 0.950 . S
C975 C966 1.390 . S
C975 H968 0.950 . S
C975 C972 1.387 . S
C976 C977 1.387 . S
C976 H980 0.950 . S
C976 C985 1.390 . S
C977 C976 1.387 . S
C977 C979 1.387 . S
H978 C985 0.950 . S
C979 C977 1.387 . S
C979 C981 1.390 . S
C979 H983 0.950 . S
H980 C976 0.950 . S
C981 C979 1.390 . S
C981 C982 1.387 . S
C981 H984 0.950 . S
C982 C981 1.387 . S
C982 C985 1.387 . S
H983 C979 0.950 . S
H984 C981 0.950 . S
C985 C976 1.390 . S
C985 H978 0.950 . S
C985 C982 1.387 . S
C986 C987 1.387 . S
C986 H990 0.950 . S
C986 C995 1.390 . S
C987 C986 1.387 . S
C987 C989 1.387 . S
H988 C995 0.950 . S
C989 C987 1.387 . S
C989 C991 1.390 . S
C989 H993 0.950 . S
H990 C986 0.950 . S
C991 C989 1.390 . S
C991 C992 1.387 . S
C991 H994 0.950 . S
C992 C991 1.387 . S
C992 C995 1.387 . S
H993 C989 0.950 . S
H994 C991 0.950 . S
C995 C986 1.390 . S
C995 H988 0.950 . S
C995 C992 1.387 . S
C996 C997 1.387 . S
C996 H1000 0.950 . S
C996 C1005 1.390 . S
C997 C996 1.387 . S
C997 C999 1.387 . S
H998 C1005 0.950 . S
C999 C997 1.387 . S
C999 C1001 1.390 . S
C999 H1003 0.950 . S
H1000 C996 0.950 . S
C1001 C999 1.390 . S
C1001 C1002 1.387 . S
C1001 H1004 0.950 . S
C1002 C1001 1.387 . S
C1002 C1005 1.387 . S
H1003 C999 0.950 . S
H1004 C1001 0.950 . S
C1005 C996 1.390 . S
C1005 H998 0.950 . S
C1005 C1002 1.387 . S
C1006 C1007 1.387 . S
C1006 H1010 0.950 . S
C1006 C1015 1.390 . S
C1007 C1006 1.387 . S
C1007 C1009 1.387 . S
H1008 C1015 0.950 . S
C1009 C1007 1.387 . S
C1009 C1011 1.390 . S
C1009 H1013 0.950 . S
H1010 C1006 0.950 . S
C1011 C1009 1.390 . S
C1011 C1012 1.387 . S
C1011 H1014 0.950 . S
C1012 C1011 1.387 . S
C1012 C1015 1.387 . S
H1013 C1009 0.950 . S
H1014 C1011 0.950 . S
C1015 C1006 1.390 . S
C1015 H1008 0.950 . S
C1015 C1012 1.387 . S
C1016 C1017 1.387 . S
C1016 H1020 0.950 . S
C1016 C1025 1.390 . S
C1017 C1016 1.387 . S
C1017 C1019 1.387 . S
H1018 C1025 0.950 . S
C1019 C1017 1.387 . S
C1019 C1021 1.390 . S
C1019 H1023 0.950 . S
H1020 C1016 0.950 . S
C1021 C1019 1.390 . S
C1021 C1022 1.387 . S
C1021 H1024 0.950 . S
C1022 C1021 1.387 . S
C1022 C1025 1.387 . S
H1023 C1019 0.950 . S
H1024 C1021 0.950 . S
C1025 C1016 1.390 . S
C1025 H1018 0.950 . S
C1025 C1022 1.387 . S
C1026 C1027 1.387 . S
C1026 H1030 0.950 . S
C1026 C1035 1.390 . S
C1027 C1026 1.387 . S
C1027 C1029 1.387 . S
H1028 C1035 0.950 . S
C1029 C1027 1.387 . S
C1029 C1031 1.390 . S
C1029 H1033 0.950 . S
H1030 C1026 0.950 . S
C1031 C1029 1.390 . S
C1031 C1032 1.387 . S
C1031 H1034 0.950 . S
C1032 C1031 1.387 . S
C1032 C1035 1.387 . S
H1033 C1029 0.950 . S
H1034 C1031 0.950 . S
C1035 C1026 1.390 . S
C1035 H1028 0.950 . S
C1035 C1032 1.387 . S
C1036 C1037 1.387 . S
C1036 H1040 0.950 . S
C1036 C1045 1.390 . S
C1037 C1036 1.387 . S
C1037 C1039 1.387 . S
H1038 C1045 0.950 . S
C1039 C1037 1.387 . S
C1039 C1041 1.390 . S
C1039 H1043 0.950 . S
H1040 C1036 0.950 . S
C1041 C1039 1.390 . S
C1041 C1042 1.387 . S
C1041 H1044 0.950 . S
C1042 C1041 1.387 . S
C1042 C1045 1.387 . S
H1043 C1039 0.950 . S
H1044 C1041 0.950 . S
C1045 C1036 1.390 . S
C1045 H1038 0.950 . S
C1045 C1042 1.387 . S
C1046 C1047 1.387 . S
C1046 H1050 0.950 . S
C1046 C1055 1.390 . S
C1047 C1046 1.387 . S
C1047 C1049 1.387 . S
H1048 C1055 0.950 . S
C1049 C1047 1.387 . S
C1049 C1051 1.390 . S
C1049 H1053 0.950 . S
H1050 C1046 0.950 . S
C1051 C1049 1.390 . S
C1051 C1052 1.387 . S
C1051 H1054 0.950 . S
C1052 C1051 1.387 . S
C1052 C1055 1.387 . S
H1053 C1049 0.950 . S
H1054 C1051 0.950 . S
C1055 C1046 1.390 . S
C1055 H1048 0.950 . S
C1055 C1052 1.387 . S
C417 C30 1.028 . S
C422 C4 1.028 . S
C427 C23 1.028 . S
C432 C43 1.028 . S
C437 C82 1.028 . S
C442 C56 1.028 . S
C447 C95 1.028 . S
C452 C69 1.028 . S
C457 C108 1.023 . S
C462 C140 1.023 . S
C467 C153 1.028 . S
C472 C121 1.028 . S
C477 C160 1.023 . S
C482 C192 1.023 . S
C487 C173 1.023 . S
C492 C199 1.023 . S
C497 C238 1.023 . S
C502 C212 1.023 . S
C507 C225 1.028 . S
C512 C251 1.028 . S
C517 C264 1.023 . S
C522 C290 1.023 . S
C527 C303 1.028 . S
C532 C283 1.028 . S
C537 C348 1.028 . S
C542 C322 1.028 . S
C547 C361 1.023 . S
C552 C335 1.023 . S
C557 C400 1.028 . S
C562 C368 1.028 . S
C567 C381 1.023 . S
C572 C407 1.023 . S
C577 C62 1.600 . S
C582 C10 1.600 . S
C587 C387 1.598 . S
C592 C17 1.598 . S
C597 C36 1.599 . S
C602 C186 1.599 . S
C607 C49 1.599 . S
C612 C309 1.599 . S
C617 C75 1.599 . S
C622 C329 1.599 . S
C627 C88 1.597 . S
C632 C134 1.597 . S
C637 C257 1.600 . S
C642 C101 1.600 . S
C647 C166 1.599 . S
C652 C114 1.599 . S
C657 C277 1.598 . S
C662 C127 1.598 . S
C667 C147 1.599 . S
C672 C413 1.599 . S
C677 C179 1.598 . S
C682 C231 1.598 . S
C687 C355 1.599 . S
C692 C205 1.599 . S
C697 C270 1.599 . S
C702 C218 1.599 . S
C707 C244 1.597 . S
C712 C394 1.597 . S
C717 C296 1.598 . S
C722 C342 1.598 . S
C727 C374 1.599 . S
C732 C316 1.599 . S
C737 C42 1.561 . S
C742 C3 1.561 . S
C747 C29 1.559 . S
C752 C18 1.559 . S
C757 C94 1.560 . S
C762 C55 1.560 . S
C767 C81 1.559 . S
C772 C68 1.559 . S
C777 C148 1.561 . S
C782 C107 1.561 . S
C787 C135 1.561 . S
C792 C120 1.561 . S
C797 C198 1.560 . S
C802 C159 1.560 . S
C807 C187 1.561 . S
C812 C172 1.561 . S
C817 C211 1.561 . S
C822 C250 1.561 . S
C827 C237 1.561 . S
C832 C224 1.561 . S
C837 C263 1.560 . S
C842 C302 1.560 . S
C847 C289 1.559 . S
C852 C278 1.559 . S
C857 C356 1.560 . S
C862 C317 1.560 . S
C867 C330 1.561 . S
C872 C343 1.561 . S
C877 C367 1.561 . S
C882 C406 1.561 . S
C887 C395 1.561 . S
C892 C380 1.561 . S
C897 C31 1.475 1_545 S
C902 C5 1.475 . S
C907 C16 1.473 1_545 S
C912 C44 1.473 . S
C917 C57 1.473 . S
C922 C83 1.473 1_565 S
C927 C70 1.475 1_565 S
C932 C96 1.475 . S
C937 C109 1.475 . S
C942 C133 1.475 . S
C947 C122 1.473 . S
C952 C146 1.473 . S
C957 C185 1.473 . S
C962 C161 1.473 . S
C967 C200 1.473 . S
C972 C174 1.473 . S
C977 C239 1.473 1_545 S
C982 C213 1.473 . S
C987 C252 1.475 . S
C992 C226 1.475 1_545 S
C997 C265 1.473 . S
C1002 C291 1.473 1_565 S
C1007 C304 1.475 . S
C1012 C276 1.475 1_565 S
C1017 C341 1.475 . S
C1022 C315 1.475 . S
C1027 C328 1.475 . S
C1032 C354 1.475 . S
C1037 C369 1.475 . S
C1042 C393 1.475 . S
C1047 C408 1.475 . S
C1052 C382 1.475 . S
