# Generated by pormake.
# Topology uns, (4)-cn, num edge types: 1
# Building blocks:
#     Node 0, Type 0, BuildingBlock: ICAMEG_clean_sbu_1, # of connection points: 4
#     Node 1, Type 0, BuildingBlock: ICAMEG_clean_sbu_1, # of connection points: 4
#     Node 2, Type 0, BuildingBlock: ICAMEG_clean_sbu_1, # of connection points: 4
#     Node 3, Type 0, BuildingBlock: ICAMEG_clean_sbu_1, # of connection points: 4
#     Node 4, Type 0, BuildingBlock: ICAMEG_clean_sbu_1, # of connection points: 4
#     Node 5, Type 0, BuildingBlock: ICAMEG_clean_sbu_1, # of connection points: 4
#     Node 6, Type 0, BuildingBlock: ICAMEG_clean_sbu_1, # of connection points: 4
#     Node 7, Type 0, BuildingBlock: ICAMEG_clean_sbu_1, # of connection points: 4
#     Node 8, Type 0, BuildingBlock: ICAMEG_clean_sbu_1, # of connection points: 4
#     Node 9, Type 0, BuildingBlock: ICAMEG_clean_sbu_1, # of connection points: 4
#     Node 10, Type 0, BuildingBlock: ICAMEG_clean_sbu_1, # of connection points: 4
#     Node 11, Type 0, BuildingBlock: ICAMEG_clean_sbu_1, # of connection points: 4
#     Node 12, Type 0, BuildingBlock: ICAMEG_clean_sbu_1, # of connection points: 4
#     Node 13, Type 0, BuildingBlock: ICAMEG_clean_sbu_1, # of connection points: 4
#     Node 14, Type 0, BuildingBlock: ICAMEG_clean_sbu_1, # of connection points: 4
#     Node 15, Type 0, BuildingBlock: ICAMEG_clean_sbu_1, # of connection points: 4
#     Node 16, Type 0, BuildingBlock: ICAMEG_clean_sbu_1, # of connection points: 4
#     Node 17, Type 0, BuildingBlock: ICAMEG_clean_sbu_1, # of connection points: 4
#     Node 18, Type 0, BuildingBlock: ICAMEG_clean_sbu_1, # of connection points: 4
#     Node 19, Type 0, BuildingBlock: ICAMEG_clean_sbu_1, # of connection points: 4
#     Node 20, Type 0, BuildingBlock: ICAMEG_clean_sbu_1, # of connection points: 4
#     Node 21, Type 0, BuildingBlock: ICAMEG_clean_sbu_1, # of connection points: 4
#     Node 22, Type 0, BuildingBlock: ICAMEG_clean_sbu_1, # of connection points: 4
#     Node 23, Type 0, BuildingBlock: ICAMEG_clean_sbu_1, # of connection points: 4
#     Node 24, Type 0, BuildingBlock: ICAMEG_clean_sbu_1, # of connection points: 4
#     Node 25, Type 0, BuildingBlock: ICAMEG_clean_sbu_1, # of connection points: 4
#     Node 26, Type 0, BuildingBlock: ICAMEG_clean_sbu_1, # of connection points: 4
#     Node 27, Type 0, BuildingBlock: ICAMEG_clean_sbu_1, # of connection points: 4
#     Node 28, Type 0, BuildingBlock: ICAMEG_clean_sbu_1, # of connection points: 4
#     Node 29, Type 0, BuildingBlock: ICAMEG_clean_sbu_1, # of connection points: 4
#     Node 30, Type 0, BuildingBlock: ICAMEG_clean_sbu_1, # of connection points: 4
#     Node 31, Type 0, BuildingBlock: ICAMEG_clean_sbu_1, # of connection points: 4
#     Node 32, Type 0, BuildingBlock: ICAMEG_clean_sbu_1, # of connection points: 4
#     Node 33, Type 0, BuildingBlock: ICAMEG_clean_sbu_1, # of connection points: 4
#     Node 34, Type 0, BuildingBlock: ICAMEG_clean_sbu_1, # of connection points: 4
#     Node 35, Type 0, BuildingBlock: ICAMEG_clean_sbu_1, # of connection points: 4
#     Edge 36, Type (0, 0), BuildingBlock: KIFKEQ_clean_linker_1, # of connection points: 2
#     Edge 37, Type (0, 0), BuildingBlock: KIFKEQ_clean_linker_1, # of connection points: 2
#     Edge 38, Type (0, 0), BuildingBlock: KIFKEQ_clean_linker_1, # of connection points: 2
#     Edge 39, Type (0, 0), BuildingBlock: KIFKEQ_clean_linker_1, # of connection points: 2
#     Edge 40, Type (0, 0), BuildingBlock: KIFKEQ_clean_linker_1, # of connection points: 2
#     Edge 41, Type (0, 0), BuildingBlock: KIFKEQ_clean_linker_1, # of connection points: 2
#     Edge 42, Type (0, 0), BuildingBlock: KIFKEQ_clean_linker_1, # of connection points: 2
#     Edge 43, Type (0, 0), BuildingBlock: KIFKEQ_clean_linker_1, # of connection points: 2
#     Edge 44, Type (0, 0), BuildingBlock: KIFKEQ_clean_linker_1, # of connection points: 2
#     Edge 45, Type (0, 0), BuildingBlock: KIFKEQ_clean_linker_1, # of connection points: 2
#     Edge 46, Type (0, 0), BuildingBlock: KIFKEQ_clean_linker_1, # of connection points: 2
#     Edge 47, Type (0, 0), BuildingBlock: KIFKEQ_clean_linker_1, # of connection points: 2
#     Edge 48, Type (0, 0), BuildingBlock: KIFKEQ_clean_linker_1, # of connection points: 2
#     Edge 49, Type (0, 0), BuildingBlock: KIFKEQ_clean_linker_1, # of connection points: 2
#     Edge 50, Type (0, 0), BuildingBlock: KIFKEQ_clean_linker_1, # of connection points: 2
#     Edge 51, Type (0, 0), BuildingBlock: KIFKEQ_clean_linker_1, # of connection points: 2
#     Edge 52, Type (0, 0), BuildingBlock: KIFKEQ_clean_linker_1, # of connection points: 2
#     Edge 53, Type (0, 0), BuildingBlock: KIFKEQ_clean_linker_1, # of connection points: 2
#     Edge 54, Type (0, 0), BuildingBlock: KIFKEQ_clean_linker_1, # of connection points: 2
#     Edge 55, Type (0, 0), BuildingBlock: KIFKEQ_clean_linker_1, # of connection points: 2
#     Edge 56, Type (0, 0), BuildingBlock: KIFKEQ_clean_linker_1, # of connection points: 2
#     Edge 57, Type (0, 0), BuildingBlock: KIFKEQ_clean_linker_1, # of connection points: 2
#     Edge 58, Type (0, 0), BuildingBlock: KIFKEQ_clean_linker_1, # of connection points: 2
#     Edge 59, Type (0, 0), BuildingBlock: KIFKEQ_clean_linker_1, # of connection points: 2
#     Edge 60, Type (0, 0), BuildingBlock: KIFKEQ_clean_linker_1, # of connection points: 2
#     Edge 61, Type (0, 0), BuildingBlock: KIFKEQ_clean_linker_1, # of connection points: 2
#     Edge 62, Type (0, 0), BuildingBlock: KIFKEQ_clean_linker_1, # of connection points: 2
#     Edge 63, Type (0, 0), BuildingBlock: KIFKEQ_clean_linker_1, # of connection points: 2
#     Edge 64, Type (0, 0), BuildingBlock: KIFKEQ_clean_linker_1, # of connection points: 2
#     Edge 65, Type (0, 0), BuildingBlock: KIFKEQ_clean_linker_1, # of connection points: 2
#     Edge 66, Type (0, 0), BuildingBlock: KIFKEQ_clean_linker_1, # of connection points: 2
#     Edge 67, Type (0, 0), BuildingBlock: KIFKEQ_clean_linker_1, # of connection points: 2
#     Edge 68, Type (0, 0), BuildingBlock: KIFKEQ_clean_linker_1, # of connection points: 2
#     Edge 69, Type (0, 0), BuildingBlock: KIFKEQ_clean_linker_1, # of connection points: 2
#     Edge 70, Type (0, 0), BuildingBlock: KIFKEQ_clean_linker_1, # of connection points: 2
#     Edge 71, Type (0, 0), BuildingBlock: KIFKEQ_clean_linker_1, # of connection points: 2
#     Edge 72, Type (0, 0), BuildingBlock: KIFKEQ_clean_linker_1, # of connection points: 2
#     Edge 73, Type (0, 0), BuildingBlock: KIFKEQ_clean_linker_1, # of connection points: 2
#     Edge 74, Type (0, 0), BuildingBlock: KIFKEQ_clean_linker_1, # of connection points: 2
#     Edge 75, Type (0, 0), BuildingBlock: KIFKEQ_clean_linker_1, # of connection points: 2
#     Edge 76, Type (0, 0), BuildingBlock: KIFKEQ_clean_linker_1, # of connection points: 2
#     Edge 77, Type (0, 0), BuildingBlock: KIFKEQ_clean_linker_1, # of connection points: 2
#     Edge 78, Type (0, 0), BuildingBlock: KIFKEQ_clean_linker_1, # of connection points: 2
#     Edge 79, Type (0, 0), BuildingBlock: KIFKEQ_clean_linker_1, # of connection points: 2
#     Edge 80, Type (0, 0), BuildingBlock: KIFKEQ_clean_linker_1, # of connection points: 2
#     Edge 81, Type (0, 0), BuildingBlock: KIFKEQ_clean_linker_1, # of connection points: 2
#     Edge 82, Type (0, 0), BuildingBlock: KIFKEQ_clean_linker_1, # of connection points: 2
#     Edge 83, Type (0, 0), BuildingBlock: KIFKEQ_clean_linker_1, # of connection points: 2
#     Edge 84, Type (0, 0), BuildingBlock: KIFKEQ_clean_linker_1, # of connection points: 2
#     Edge 85, Type (0, 0), BuildingBlock: KIFKEQ_clean_linker_1, # of connection points: 2
#     Edge 86, Type (0, 0), BuildingBlock: KIFKEQ_clean_linker_1, # of connection points: 2
#     Edge 87, Type (0, 0), BuildingBlock: KIFKEQ_clean_linker_1, # of connection points: 2
#     Edge 88, Type (0, 0), BuildingBlock: KIFKEQ_clean_linker_1, # of connection points: 2
#     Edge 89, Type (0, 0), BuildingBlock: KIFKEQ_clean_linker_1, # of connection points: 2
#     Edge 90, Type (0, 0), BuildingBlock: KIFKEQ_clean_linker_1, # of connection points: 2
#     Edge 91, Type (0, 0), BuildingBlock: KIFKEQ_clean_linker_1, # of connection points: 2
#     Edge 92, Type (0, 0), BuildingBlock: KIFKEQ_clean_linker_1, # of connection points: 2
#     Edge 93, Type (0, 0), BuildingBlock: KIFKEQ_clean_linker_1, # of connection points: 2
#     Edge 94, Type (0, 0), BuildingBlock: KIFKEQ_clean_linker_1, # of connection points: 2
#     Edge 95, Type (0, 0), BuildingBlock: KIFKEQ_clean_linker_1, # of connection points: 2
#     Edge 96, Type (0, 0), BuildingBlock: KIFKEQ_clean_linker_1, # of connection points: 2
#     Edge 97, Type (0, 0), BuildingBlock: KIFKEQ_clean_linker_1, # of connection points: 2
#     Edge 98, Type (0, 0), BuildingBlock: KIFKEQ_clean_linker_1, # of connection points: 2
#     Edge 99, Type (0, 0), BuildingBlock: KIFKEQ_clean_linker_1, # of connection points: 2
#     Edge 100, Type (0, 0), BuildingBlock: KIFKEQ_clean_linker_1, # of connection points: 2
#     Edge 101, Type (0, 0), BuildingBlock: KIFKEQ_clean_linker_1, # of connection points: 2
#     Edge 102, Type (0, 0), BuildingBlock: KIFKEQ_clean_linker_1, # of connection points: 2
#     Edge 103, Type (0, 0), BuildingBlock: KIFKEQ_clean_linker_1, # of connection points: 2
#     Edge 104, Type (0, 0), BuildingBlock: KIFKEQ_clean_linker_1, # of connection points: 2
#     Edge 105, Type (0, 0), BuildingBlock: KIFKEQ_clean_linker_1, # of connection points: 2
#     Edge 106, Type (0, 0), BuildingBlock: KIFKEQ_clean_linker_1, # of connection points: 2
#     Edge 107, Type (0, 0), BuildingBlock: KIFKEQ_clean_linker_1, # of connection points: 2
# Relax obj value: 0.028
# Max RMSD: 0.153
# Mean RMSD: 0.153
data_MOF--net-uns--node1-ICAMEG_clean_sbu_1--edge1-KIFKEQ_clean_linker_1
_symmetry_space_group_name_H-M    P1
_symmetry_Int_Tables_number       1
_symmetry_cell_setting            triclinic
loop_
_symmetry_equiv_pos_as_xyz
'x, y, z'
_cell_length_a     58.870377
_cell_length_b     58.874545
_cell_length_c     64.636001
_cell_angle_alpha  90.026419
_cell_angle_beta   89.963478
_cell_angle_gamma 120.00166
loop_
_atom_site_label
_atom_site_type_symbol
_atom_site_fract_x
_atom_site_fract_y
_atom_site_fract_z
_atom_type_partial_charge
Co0 Co 0.24655 0.18601 0.08694 0.0
Co1 Co 0.27194 0.19201 0.0379 0.0
O2 O 0.2615 0.1749 0.06488 0.0
C3 C 0.29163 0.18626 0.10685 0.0
O4 O 0.30575 0.20052 0.09118 0.0
C5 C 0.23596 0.13632 0.02881 0.0
O6 O 0.22089 0.13686 0.04353 0.0
O7 O 0.23743 0.1897 0.03435 0.0
O8 O 0.22578 0.1941 0.06663 0.0
H9 H 0.28154 0.25667 0.98304 0.0
H10 H 0.24309 0.13413 0.09017 0.0
O11 O 0.26717 0.17841 0.10766 0.0
H12 H 0.15154 0.11539 0.0901 0.0
H13 H 0.20825 0.1796 0.15779 0.0
H14 H 0.23643 0.23015 0.0928 0.0
H15 H 0.18823 0.16095 0.08815 0.0
H16 H 0.22625 0.16565 0.12916 0.0
O17 O 0.25752 0.15686 0.02431 0.0
H18 H 0.26893 0.2354 0.01728 0.0
H19 H 0.29635 0.18354 0.00045 0.0
H20 H 0.21836 0.2447 0.12096 0.0
H21 H 0.207 0.08829 0.09238 0.0
H22 H 0.20412 0.21934 0.15374 0.0
H23 H 0.16083 0.07869 0.09227 0.0
O24 O 0.27585 0.22263 0.08467 0.0
H25 H 0.33142 0.15665 0.05586 0.0
H26 H 0.32761 0.23463 0.03313 0.0
H27 H 0.37063 0.23792 0.03851 0.0
H28 H 0.37271 0.19872 0.04993 0.0
H29 H 0.28881 0.1543 0.05046 0.0
H30 H 0.30907 0.20409 0.96596 0.0
H31 H 0.30177 0.24101 0.95711 0.0
O32 O 0.28642 0.2276 0.05085 0.0
C33 C 0.22282 0.19307 0.04703 0.0
C34 C 0.28492 0.24067 0.98674 0.0
C35 C 0.30033 0.21114 0.97714 0.0
N36 N 0.28216 0.20845 0.01091 0.0
C37 C 0.2779 0.22862 0.00612 0.0
C38 C 0.29306 0.19955 0.99668 0.0
C39 C 0.29624 0.23186 0.97219 0.0
C40 C 0.22306 0.13012 0.09036 0.0
N41 N 0.21778 0.1502 0.0891 0.0
C42 C 0.2027 0.10412 0.09151 0.0
C43 C 0.1768 0.09874 0.0914 0.0
C44 C 0.17158 0.11933 0.09016 0.0
C45 C 0.19243 0.14508 0.089 0.0
C46 C 0.21432 0.19077 0.14356 0.0
C47 C 0.2301 0.21891 0.10696 0.0
C48 C 0.22456 0.18299 0.12731 0.0
N49 N 0.23213 0.19693 0.10926 0.0
C50 C 0.21996 0.22729 0.12287 0.0
C51 C 0.212 0.21307 0.14127 0.0
C52 C 0.28814 0.23668 0.06909 0.0
C53 C 0.33076 0.17385 0.05082 0.0
C54 C 0.32835 0.2175 0.03814 0.0
C55 C 0.35277 0.21947 0.04112 0.0
C56 C 0.35393 0.19747 0.04752 0.0
N57 N 0.30573 0.19425 0.04138 0.0
C58 C 0.3067 0.1726 0.04765 0.0
Co59 Co 0.81297 0.06025 0.08631 0.0
Co60 Co 0.80774 0.08309 0.03851 0.0
O61 O 0.82492 0.08741 0.06514 0.0
C62 C 0.81478 0.10537 0.10725 0.0
O63 O 0.80245 0.10717 0.09098 0.0
C64 C 0.86241 0.09966 0.02705 0.0
O65 O 0.86012 0.08004 0.03827 0.0
O66 O 0.80812 0.05006 0.03324 0.0
O67 O 0.80429 0.03241 0.06488 0.0
H68 H 0.74199 0.03353 0.98265 0.0
H69 H 0.86553 0.10765 0.0899 0.0
O70 O 0.821 0.08752 0.10811 0.0
H71 H 0.88167 0.03319 0.08705 0.0
H72 H 0.81789 0.02406 0.15563 0.0
H73 H 0.76788 0.00623 0.09067 0.0
H74 H 0.83653 0.02566 0.08596 0.0
H75 H 0.83277 0.05752 0.1281 0.0
O76 O 0.84316 0.10372 0.02529 0.0
H77 H 0.76313 0.03911 0.01667 0.0
H78 H 0.8177 0.11868 0.00265 0.0
H79 H 0.75241 0.97213 0.1177 0.0
H80 H 0.91098 0.11606 0.09118 0.0
H81 H 0.77749 0.98097 0.15047 0.0
H82 H 0.91927 0.07866 0.08971 0.0
O83 O 0.77672 0.05407 0.08455 0.0
H84 H 0.84703 0.17735 0.06011 0.0
H85 H 0.76682 0.09874 0.03586 0.0
H86 H 0.7656 0.13919 0.04338 0.0
H87 H 0.80592 0.17887 0.05558 0.0
H88 H 0.84733 0.13642 0.0526 0.0
H89 H 0.7973 0.11391 0.9684 0.0
H90 H 0.75909 0.07112 0.95825 0.0
O91 O 0.77199 0.06238 0.05134 0.0
C92 C 0.80463 0.03133 0.04515 0.0
C93 C 0.75856 0.0523 0.98692 0.0
C94 C 0.78962 0.09741 0.97892 0.0
N95 N 0.79143 0.07926 0.01171 0.0
C96 C 0.77054 0.0556 0.00619 0.0
C97 C 0.80112 0.09998 0.99831 0.0
C98 C 0.76818 0.07339 0.97323 0.0
C99 C 0.86898 0.09127 0.08944 0.0
N100 N 0.84842 0.0662 0.08798 0.0
C101 C 0.89476 0.09615 0.09009 0.0
C102 C 0.8994 0.07516 0.08923 0.0
C103 C 0.87831 0.04964 0.08773 0.0
C104 C 0.8528 0.04551 0.08708 0.0
C105 C 0.80683 0.01995 0.1414 0.0
C106 C 0.779 0.01013 0.10482 0.0
C107 C 0.81514 0.03883 0.12578 0.0
N108 N 0.80134 0.03371 0.10773 0.0
C109 C 0.7701 0.99079 0.1201 0.0
C110 C 0.78417 0.99577 0.13849 0.0
C111 C 0.76284 0.05392 0.0694 0.0
C112 C 0.82936 0.16021 0.05473 0.0
C113 C 0.78443 0.1159 0.04121 0.0
C114 C 0.78364 0.13877 0.0454 0.0
C115 C 0.80627 0.16104 0.05223 0.0
N116 N 0.80715 0.11525 0.04371 0.0
C117 C 0.82944 0.13702 0.05036 0.0
Co118 Co 0.93753 0.75329 0.08436 0.0
Co119 Co 0.91503 0.72291 0.03687 0.0
O120 O 0.91046 0.73649 0.06322 0.0
C121 C 0.8936 0.70866 0.10566 0.0
O122 O 0.89164 0.69463 0.08926 0.0
C123 C 0.89919 0.7615 0.02597 0.0
O124 O 0.91537 0.77657 0.04041 0.0
O125 O 0.94905 0.75528 0.03172 0.0
O126 O 0.96459 0.77392 0.06277 0.0
H127 H 0.96423 0.7027 0.98323 0.0
H128 H 0.88787 0.75427 0.08829 0.0
O129 O 0.91104 0.73287 0.10638 0.0
H130 H 0.95767 0.84708 0.08566 0.0
H131 H 0.97248 0.79575 0.15355 0.0
H132 H 0.99298 0.76648 0.08822 0.0
H133 H 0.96862 0.81177 0.08428 0.0
H134 H 0.93893 0.77511 0.12628 0.0
O135 O 0.89647 0.73902 0.02227 0.0
H136 H 0.95848 0.71956 0.0166 0.0
H137 H 0.88026 0.69775 0.00052 0.0
H138 H 0.02719 0.78723 0.11501 0.0
H139 H 0.87604 0.78895 0.08991 0.0
H140 H 0.01701 0.80202 0.14796 0.0
H141 H 0.91109 0.83575 0.08851 0.0
O142 O 0.94641 0.72489 0.08258 0.0
H143 H 0.81991 0.6718 0.05698 0.0
H144 H 0.89704 0.66576 0.03526 0.0
H145 H 0.85535 0.62525 0.04269 0.0
H146 H 0.81642 0.62814 0.05363 0.0
H147 H 0.86202 0.71181 0.04955 0.0
H148 H 0.8852 0.68084 0.96688 0.0
H149 H 0.9274 0.68317 0.9581 0.0
O150 O 0.93403 0.707 0.05085 0.0
C151 C 0.96671 0.77288 0.04316 0.0
C152 C 0.94571 0.70147 0.98691 0.0
C153 C 0.90137 0.68924 0.97772 0.0
N154 N 0.919 0.70939 0.01058 0.0
C155 C 0.94231 0.71089 0.00582 0.0
C156 C 0.8987 0.69888 0.99677 0.0
C157 C 0.92505 0.69055 0.97281 0.0
C158 C 0.90324 0.7746 0.08788 0.0
N159 N 0.92891 0.781 0.08623 0.0
C160 C 0.89642 0.79414 0.08872 0.0
C161 C 0.91609 0.82039 0.0879 0.0
C162 C 0.94223 0.82677 0.08627 0.0
C163 C 0.94831 0.80669 0.08543 0.0
C164 C 0.97717 0.78944 0.13925 0.0
C165 C 0.98847 0.77303 0.10247 0.0
C166 C 0.95824 0.7777 0.12377 0.0
N167 N 0.96408 0.76981 0.10562 0.0
C168 C 0.00789 0.78469 0.1176 0.0
C169 C 0.00216 0.79296 0.13609 0.0
C170 C 0.94473 0.70901 0.06843 0.0
C171 C 0.83671 0.67029 0.05216 0.0
C172 C 0.88018 0.66716 0.04002 0.0
C173 C 0.85662 0.64416 0.04418 0.0
C174 C 0.83478 0.64579 0.05031 0.0
N175 N 0.8819 0.69111 0.04186 0.0
C176 C 0.86057 0.69286 0.04783 0.0
Co177 Co 0.18473 0.24606 0.41434 0.0
Co178 Co 0.19169 0.27387 0.46254 0.0
O179 O 0.17422 0.26213 0.43586 0.0
C180 C 0.18588 0.29099 0.39349 0.0
O181 O 0.20012 0.30518 0.40914 0.0
C182 C 0.13643 0.23743 0.47274 0.0
O183 O 0.13771 0.2213 0.45939 0.0
O184 O 0.18991 0.2397 0.46718 0.0
O185 O 0.19243 0.22567 0.43529 0.0
H186 H 0.25735 0.28669 0.51753 0.0
H187 H 0.13333 0.24364 0.41115 0.0
O188 O 0.17756 0.26641 0.39301 0.0
H189 H 0.11273 0.15154 0.41343 0.0
H190 H 0.1768 0.20487 0.34451 0.0
H191 H 0.22807 0.23459 0.40909 0.0
H192 H 0.15865 0.18766 0.41435 0.0
H193 H 0.16373 0.22448 0.37253 0.0
O194 O 0.15656 0.25977 0.47617 0.0
H195 H 0.23566 0.27234 0.48356 0.0
H196 H 0.18332 0.29963 0.49911 0.0
H197 H 0.24172 0.21492 0.38154 0.0
H198 H 0.08714 0.20812 0.41003 0.0
H199 H 0.216 0.19989 0.34897 0.0
H200 H 0.07661 0.16169 0.41125 0.0
O201 O 0.22165 0.27491 0.41608 0.0
H202 H 0.15533 0.33188 0.4425 0.0
H203 H 0.23404 0.32983 0.4658 0.0
H204 H 0.23686 0.37241 0.45909 0.0
H205 H 0.1973 0.3736 0.44737 0.0
H206 H 0.15343 0.28972 0.44922 0.0
H207 H 0.20428 0.31408 0.53333 0.0
H208 H 0.24165 0.30773 0.54268 0.0
O209 O 0.22714 0.28802 0.44935 0.0
C210 C 0.19235 0.22405 0.45499 0.0
C211 C 0.24115 0.28966 0.51361 0.0
C212 C 0.21134 0.305 0.52248 0.0
N213 N 0.20844 0.2854 0.4893 0.0
C214 C 0.22886 0.28166 0.49437 0.0
C215 C 0.19952 0.29674 0.50311 0.0
C216 C 0.23232 0.30144 0.52772 0.0
C217 C 0.12891 0.22348 0.41145 0.0
N218 N 0.14866 0.21773 0.41271 0.0
C219 C 0.10271 0.20345 0.41091 0.0
C220 C 0.09682 0.1774 0.41163 0.0
C221 C 0.11707 0.1717 0.41287 0.0
C222 C 0.14303 0.19223 0.41343 0.0
C223 C 0.18813 0.21127 0.35865 0.0
C224 C 0.21667 0.22792 0.39502 0.0
C225 C 0.18085 0.22242 0.37456 0.0
N226 N 0.19498 0.23041 0.3925 0.0
C227 C 0.22455 0.21688 0.37945 0.0
C228 C 0.21012 0.20848 0.36117 0.0
C229 C 0.23595 0.28833 0.43121 0.0
C230 C 0.17268 0.33161 0.44766 0.0
C231 C 0.21675 0.33019 0.46067 0.0
C232 C 0.21845 0.35436 0.45693 0.0
C233 C 0.19624 0.35502 0.45037 0.0
N234 N 0.19355 0.30732 0.458 0.0
C235 C 0.1717 0.30781 0.45157 0.0
Co236 Co 0.75323 0.93844 0.4154 0.0
Co237 Co 0.72454 0.91622 0.46329 0.0
O238 O 0.73736 0.91145 0.43669 0.0
C239 C 0.70932 0.89373 0.39438 0.0
O240 O 0.69516 0.89179 0.41069 0.0
C241 C 0.76274 0.89978 0.47395 0.0
O242 O 0.77855 0.91744 0.46061 0.0
O243 O 0.75766 0.94959 0.4683 0.0
O244 O 0.77318 0.96607 0.43672 0.0
H245 H 0.70785 0.96652 0.51825 0.0
H246 H 0.75654 0.89001 0.41174 0.0
O247 O 0.73343 0.91142 0.39362 0.0
H248 H 0.84818 0.96244 0.41447 0.0
H249 H 0.79481 0.97374 0.34601 0.0
H250 H 0.76393 0.99305 0.41104 0.0
H251 H 0.81158 0.97151 0.4156 0.0
H252 H 0.7754 0.94037 0.37355 0.0
O253 O 0.73993 0.89652 0.47713 0.0
H254 H 0.72345 0.9604 0.48441 0.0
H255 H 0.69919 0.88131 0.49956 0.0
H256 H 0.78342 0.02707 0.38399 0.0
H257 H 0.79255 0.88006 0.41042 0.0
H258 H 0.79901 0.01749 0.35119 0.0
H259 H 0.83876 0.91643 0.41185 0.0
O260 O 0.72386 0.94579 0.41719 0.0
H261 H 0.67061 0.82143 0.44285 0.0
H262 H 0.66779 0.89987 0.46582 0.0
H263 H 0.62642 0.85895 0.45864 0.0
H264 H 0.62768 0.81935 0.44707 0.0
H265 H 0.71152 0.86282 0.45003 0.0
H266 H 0.6835 0.88661 0.53364 0.0
H267 H 0.6877 0.92943 0.54314 0.0
O268 O 0.70917 0.93622 0.45 0.0
C269 C 0.77387 0.96781 0.45644 0.0
C270 C 0.70581 0.94773 0.51426 0.0
C271 C 0.69217 0.90289 0.52291 0.0
N272 N 0.71195 0.92045 0.48993 0.0
C273 C 0.71451 0.94412 0.49509 0.0
C274 C 0.70112 0.90001 0.5036 0.0
C275 C 0.69453 0.92692 0.52822 0.0
C276 C 0.7766 0.90595 0.41215 0.0
N277 N 0.78195 0.9313 0.41363 0.0
C278 C 0.79691 0.90019 0.41149 0.0
C279 C 0.82283 0.92061 0.41233 0.0
C280 C 0.82813 0.94643 0.41381 0.0
C281 C 0.80732 0.95144 0.41448 0.0
C282 C 0.78815 0.97817 0.36025 0.0
C283 C 0.77084 0.98881 0.39687 0.0
C284 C 0.7771 0.95934 0.37588 0.0
N285 N 0.76877 0.96487 0.39394 0.0
C286 C 0.78178 0.00812 0.38158 0.0
C287 C 0.7905 0.00272 0.36317 0.0
C288 C 0.70942 0.94539 0.43205 0.0
C289 C 0.66981 0.83853 0.44794 0.0
C290 C 0.6685 0.88274 0.46076 0.0
C291 C 0.64501 0.85961 0.45676 0.0
C292 C 0.64573 0.83739 0.45028 0.0
N293 N 0.69204 0.88369 0.45844 0.0
C294 C 0.6929 0.86198 0.45213 0.0
Co295 Co 0.06195 0.81612 0.41422 0.0
Co296 Co 0.08421 0.808 0.46168 0.0
O297 O 0.08898 0.82625 0.43541 0.0
C298 C 0.10564 0.81464 0.39335 0.0
O299 O 0.10716 0.80254 0.40987 0.0
C300 C 0.10041 0.86254 0.47268 0.0
O301 O 0.08453 0.8617 0.4581 0.0
O302 O 0.05029 0.80665 0.46673 0.0
O303 O 0.03491 0.80993 0.43569 0.0
H304 H 0.0342 0.73811 0.51472 0.0
H305 H 0.11191 0.86645 0.41 0.0
O306 O 0.08847 0.82177 0.39234 0.0
H307 H 0.04283 0.89045 0.41315 0.0
H308 H 0.02765 0.82417 0.34493 0.0
H309 H 0.00638 0.77414 0.41013 0.0
H310 H 0.0314 0.84405 0.41462 0.0
H311 H 0.061 0.83672 0.37232 0.0
O312 O 0.10278 0.84258 0.47645 0.0
H313 H 0.04046 0.76103 0.48145 0.0
H314 H 0.11848 0.81722 0.49832 0.0
H315 H 0.97237 0.76103 0.38323 0.0
H316 H 0.1242 0.91308 0.40831 0.0
H317 H 0.98293 0.78614 0.35034 0.0
H318 H 0.08953 0.92533 0.40996 0.0
O319 O 0.05252 0.77876 0.41608 0.0
H320 H 0.17944 0.85177 0.44193 0.0
H321 H 0.10207 0.76871 0.46349 0.0
H322 H 0.14373 0.76977 0.45625 0.0
H323 H 0.18279 0.81153 0.44538 0.0
H324 H 0.13733 0.84978 0.44918 0.0
H325 H 0.11301 0.79503 0.53185 0.0
H326 H 0.07065 0.75511 0.54019 0.0
O327 O 0.06539 0.77317 0.44748 0.0
C328 C 0.03275 0.80686 0.45529 0.0
C329 C 0.05278 0.75543 0.51124 0.0
C330 C 0.097 0.7874 0.52086 0.0
N331 N 0.07988 0.79029 0.48789 0.0
C332 C 0.05646 0.76844 0.4924 0.0
C333 C 0.09997 0.79991 0.50188 0.0
C334 C 0.07323 0.765 0.52553 0.0
C335 C 0.0967 0.87162 0.4105 0.0
N336 N 0.07097 0.85256 0.41229 0.0
C337 C 0.10378 0.89805 0.40963 0.0
C338 C 0.08432 0.90491 0.41059 0.0
C339 C 0.05812 0.88535 0.4124 0.0
C340 C 0.05177 0.85912 0.41327 0.0
C341 C 0.02279 0.81312 0.35921 0.0
C342 C 0.01106 0.78527 0.39592 0.0
C343 C 0.0416 0.82011 0.37476 0.0
N344 N 0.03554 0.80633 0.39288 0.0
C345 C 0.99175 0.7777 0.38072 0.0
C346 C 0.9977 0.79178 0.36226 0.0
C347 C 0.05436 0.76442 0.42999 0.0
C348 C 0.16258 0.83348 0.44672 0.0
C349 C 0.11897 0.78695 0.45876 0.0
C350 C 0.14252 0.78744 0.45471 0.0
C351 C 0.16443 0.81088 0.44863 0.0
N352 N 0.11732 0.8092 0.45686 0.0
C353 C 0.13872 0.83226 0.45094 0.0
Co354 Co 0.75304 0.81478 0.91349 0.0
Co355 Co 0.72624 0.80767 0.96215 0.0
O356 O 0.73728 0.82523 0.93538 0.0
C357 C 0.70794 0.8139 0.89309 0.0
O358 O 0.69372 0.79944 0.90865 0.0
C359 C 0.76188 0.86324 0.97192 0.0
O360 O 0.7773 0.86293 0.9574 0.0
O361 O 0.76072 0.81001 0.96618 0.0
O362 O 0.77371 0.80694 0.93404 0.0
H363 H 0.71542 0.74204 0.01654 0.0
H364 H 0.75554 0.86625 0.91041 0.0
O365 O 0.73248 0.82214 0.89252 0.0
H366 H 0.84761 0.88665 0.91173 0.0
H367 H 0.79321 0.82292 0.84317 0.0
H368 H 0.76428 0.77138 0.90767 0.0
H369 H 0.81144 0.84078 0.91307 0.0
H370 H 0.77405 0.83593 0.87157 0.0
O371 O 0.74025 0.84259 0.97608 0.0
H372 H 0.72889 0.76399 0.9826 0.0
H373 H 0.70084 0.81537 0.99931 0.0
H374 H 0.78351 0.75778 0.87974 0.0
H375 H 0.79111 0.91237 0.9088 0.0
H376 H 0.79814 0.78365 0.84721 0.0
H377 H 0.83753 0.92282 0.90955 0.0
O378 O 0.72414 0.7779 0.91529 0.0
H379 H 0.66701 0.84309 0.94355 0.0
H380 H 0.67052 0.76485 0.96598 0.0
H381 H 0.62758 0.76153 0.95999 0.0
H382 H 0.62565 0.80085 0.94872 0.0
H383 H 0.70954 0.84549 0.94955 0.0
H384 H 0.68727 0.79414 0.03351 0.0
H385 H 0.69443 0.75712 0.04227 0.0
O386 O 0.71218 0.77233 0.94883 0.0
C387 C 0.77598 0.80736 0.9537 0.0
C388 C 0.71209 0.75808 0.01288 0.0
C389 C 0.69633 0.78735 0.02241 0.0
N390 N 0.7154 0.79074 0.98892 0.0
C391 C 0.7196 0.77052 0.99366 0.0
C392 C 0.70409 0.79932 0.00304 0.0
C393 C 0.70035 0.76657 0.02731 0.0
C394 C 0.77569 0.87062 0.91049 0.0
N395 N 0.78141 0.85084 0.91175 0.0
C396 C 0.79575 0.89678 0.90968 0.0
C397 C 0.82179 0.90263 0.91014 0.0
C398 C 0.82746 0.88235 0.91138 0.0
C399 C 0.8069 0.85641 0.9122 0.0
C400 C 0.78698 0.81154 0.8573 0.0
C401 C 0.77077 0.78284 0.89362 0.0
C402 C 0.77609 0.81878 0.87341 0.0
N403 N 0.76831 0.80458 0.89133 0.0
C404 C 0.78157 0.77499 0.87783 0.0
C405 C 0.78974 0.7895 0.85957 0.0
C406 C 0.71127 0.76355 0.93058 0.0
C407 C 0.6676 0.82584 0.94852 0.0
C408 C 0.66984 0.78204 0.96104 0.0
C409 C 0.64547 0.78005 0.95771 0.0
C410 C 0.6444 0.80213 0.9514 0.0
N411 N 0.6925 0.80539 0.95822 0.0
C412 C 0.69162 0.82711 0.95202 0.0
Co413 Co 0.18518 0.9391 0.91511 0.0
Co414 Co 0.1922 0.91708 0.96271 0.0
O415 O 0.17449 0.91215 0.93629 0.0
C416 C 0.18554 0.89535 0.89358 0.0
O417 O 0.1999 0.89516 0.90903 0.0
C418 C 0.13758 0.89959 0.97472 0.0
O419 O 0.13941 0.91898 0.96345 0.0
O420 O 0.19104 0.94969 0.96811 0.0
O421 O 0.19343 0.96687 0.93648 0.0
H422 H 0.25843 0.96798 0.01795 0.0
H423 H 0.13337 0.89058 0.91211 0.0
O424 O 0.17742 0.91177 0.89341 0.0
H425 H 0.11416 0.96298 0.9155 0.0
H426 H 0.17722 0.9738 0.84599 0.0
H427 H 0.22892 0.99376 0.91023 0.0
H428 H 0.15986 0.97209 0.91595 0.0
H429 H 0.164 0.94065 0.87363 0.0
O430 O 0.15705 0.89584 0.97627 0.0
H431 H 0.23658 0.96177 0.98417 0.0
H432 H 0.18367 0.88189 0.99855 0.0
H433 H 0.24274 0.02757 0.88307 0.0
H434 H 0.08738 0.8806 0.91145 0.0
H435 H 0.21679 0.01766 0.85067 0.0
H436 H 0.07754 0.91696 0.91321 0.0
O437 O 0.22199 0.94671 0.91645 0.0
H438 H 0.15478 0.82307 0.94104 0.0
H439 H 0.23415 0.90283 0.9649 0.0
H440 H 0.23645 0.86299 0.95719 0.0
H441 H 0.19655 0.82273 0.94518 0.0
H442 H 0.15341 0.8634 0.94874 0.0
H443 H 0.20479 0.88727 0.03257 0.0
H444 H 0.24253 0.93054 0.04241 0.0
O445 O 0.22759 0.93846 0.9495 0.0
C446 C 0.19364 0.9681 0.95621 0.0
C447 C 0.24207 0.949 0.0138 0.0
C448 C 0.21194 0.90371 0.02202 0.0
N449 N 0.20907 0.92143 0.98932 0.0
C450 C 0.22969 0.94535 0.99467 0.0
C451 C 0.20004 0.90079 0.00276 0.0
C452 C 0.23312 0.92799 0.02753 0.0
C453 C 0.12924 0.90651 0.91268 0.0
N454 N 0.14926 0.93188 0.91394 0.0
C455 C 0.10316 0.90074 0.91239 0.0
C456 C 0.09766 0.92115 0.9134 0.0
C457 C 0.11819 0.94698 0.9147 0.0
C458 C 0.14403 0.95201 0.91499 0.0
C459 C 0.18864 0.97838 0.86006 0.0
C460 C 0.21743 0.98938 0.89624 0.0
C461 C 0.18128 0.95967 0.87574 0.0
N462 N 0.19554 0.96538 0.8936 0.0
C463 C 0.2254 0.00857 0.88088 0.0
C464 C 0.21085 0.00298 0.8627 0.0
C465 C 0.23634 0.94727 0.93142 0.0
C466 C 0.17228 0.84047 0.94631 0.0
C467 C 0.21672 0.8854 0.95964 0.0
C468 C 0.21813 0.86289 0.95534 0.0
C469 C 0.19573 0.8403 0.94862 0.0
N470 N 0.19363 0.8854 0.95737 0.0
C471 C 0.17159 0.86333 0.95079 0.0
Co472 Co 0.06111 0.24503 0.91645 0.0
Co473 Co 0.08398 0.27763 0.96305 0.0
O474 O 0.08846 0.26332 0.93711 0.0
C475 C 0.1028 0.29038 0.89407 0.0
O476 O 0.10315 0.30477 0.90971 0.0
C477 C 0.09996 0.23945 0.97487 0.0
O478 O 0.08371 0.22405 0.96061 0.0
O479 O 0.04996 0.24538 0.96873 0.0
O480 O 0.03492 0.22421 0.93845 0.0
H481 H 0.03505 0.30007 0.01533 0.0
H482 H 0.112 0.24651 0.91219 0.0
O483 O 0.08697 0.2657 0.89409 0.0
H484 H 0.04528 0.1527 0.9166 0.0
H485 H 0.02626 0.20014 0.84801 0.0
H486 H 0.00486 0.22916 0.91306 0.0
H487 H 0.03229 0.18655 0.91755 0.0
H488 H 0.06007 0.22272 0.87482 0.0
O489 O 0.10263 0.26199 0.97821 0.0
H490 H 0.04073 0.28213 0.98249 0.0
H491 H 0.11867 0.30361 0.99929 0.0
H492 H 0.9704 0.20648 0.88674 0.0
H493 H 0.12584 0.21331 0.91098 0.0
H494 H 0.98102 0.19181 0.85393 0.0
H495 H 0.09236 0.16602 0.91328 0.0
O496 O 0.05031 0.27214 0.918 0.0
H497 H 0.17896 0.32821 0.94248 0.0
H498 H 0.10194 0.3348 0.96359 0.0
H499 H 0.14357 0.3751 0.95564 0.0
H500 H 0.18246 0.37195 0.94501 0.0
H501 H 0.13689 0.28839 0.95043 0.0
H502 H 0.11378 0.3216 0.0324 0.0
H503 H 0.07175 0.31998 0.04056 0.0
O504 O 0.06501 0.29304 0.94841 0.0
C505 C 0.03273 0.22653 0.95789 0.0
C506 C 0.05348 0.30096 0.01193 0.0
C507 C 0.09766 0.31301 0.02152 0.0
N508 N 0.08005 0.29198 0.98893 0.0
C509 C 0.05683 0.2909 0.99333 0.0
C510 C 0.10029 0.30274 0.00277 0.0
C511 C 0.07407 0.3121 0.02609 0.0
C512 C 0.09729 0.22596 0.91299 0.0
N513 N 0.07136 0.21847 0.91488 0.0
C514 C 0.10526 0.20725 0.91238 0.0
C515 C 0.08647 0.18073 0.9137 0.0
C516 C 0.06005 0.17324 0.91559 0.0
C517 C 0.05281 0.19249 0.91618 0.0
C518 C 0.02137 0.20639 0.86226 0.0
C519 C 0.00958 0.22267 0.89888 0.0
C520 C 0.04044 0.21922 0.87748 0.0
N521 N 0.03436 0.22703 0.89555 0.0
C522 C 0.99001 0.20992 0.88401 0.0
C523 C 0.99599 0.20171 0.8656 0.0
C524 C 0.05274 0.28922 0.93134 0.0
C525 C 0.16218 0.32984 0.94716 0.0
C526 C 0.11878 0.33327 0.95897 0.0
C527 C 0.1423 0.35616 0.95451 0.0
C528 C 0.16412 0.35437 0.94856 0.0
N529 N 0.11706 0.30929 0.9576 0.0
C530 C 0.13835 0.30738 0.95177 0.0
Co531 Co 0.81717 0.75491 0.58567 0.0
Co532 Co 0.80832 0.72468 0.53819 0.0
O533 O 0.82662 0.73758 0.56445 0.0
C534 C 0.81479 0.70977 0.60718 0.0
O535 O 0.80034 0.6955 0.59164 0.0
C536 C 0.863 0.76172 0.52681 0.0
O537 O 0.86169 0.77786 0.54013 0.0
O538 O 0.80886 0.75815 0.53299 0.0
O539 O 0.81038 0.77546 0.56432 0.0
H540 H 0.74039 0.70854 0.48429 0.0
H541 H 0.86764 0.75536 0.58881 0.0
O542 O 0.82362 0.73444 0.60738 0.0
H543 H 0.8915 0.84837 0.58519 0.0
H544 H 0.8273 0.79842 0.65477 0.0
H545 H 0.77538 0.76865 0.5905 0.0
H546 H 0.84507 0.81338 0.58481 0.0
H547 H 0.83898 0.77709 0.62718 0.0
O548 O 0.84307 0.73908 0.52382 0.0
H549 H 0.7631 0.72439 0.51775 0.0
H550 H 0.81618 0.69812 0.50191 0.0
H551 H 0.76314 0.79009 0.61761 0.0
H552 H 0.91432 0.78973 0.58938 0.0
H553 H 0.7892 0.80513 0.65002 0.0
H554 H 0.92649 0.83661 0.58749 0.0
O555 O 0.77973 0.7269 0.58441 0.0
H556 H 0.84744 0.66918 0.55856 0.0
H557 H 0.76685 0.66828 0.53642 0.0
H558 H 0.76536 0.62646 0.54382 0.0
H559 H 0.80588 0.62675 0.55496 0.0
H560 H 0.848 0.71056 0.55115 0.0
H561 H 0.7942 0.68217 0.46821 0.0
H562 H 0.75595 0.68725 0.45926 0.0
O563 O 0.77339 0.71037 0.55212 0.0
C564 C 0.80836 0.77537 0.54464 0.0
C565 C 0.75696 0.70611 0.48805 0.0
C566 C 0.78719 0.69134 0.47901 0.0
N567 N 0.79073 0.7119 0.51186 0.0
C568 C 0.76983 0.71495 0.507 0.0
C569 C 0.79958 0.70044 0.4981 0.0
C570 C 0.76572 0.69419 0.474 0.0
C571 C 0.87279 0.77573 0.5882 0.0
N572 N 0.85366 0.78236 0.58689 0.0
C573 C 0.89925 0.7951 0.58844 0.0
C574 C 0.90607 0.8214 0.58734 0.0
C575 C 0.88644 0.82801 0.58604 0.0
C576 C 0.86019 0.80811 0.5858 0.0
C577 C 0.81584 0.79201 0.6407 0.0
C578 C 0.78692 0.77532 0.60451 0.0
C579 C 0.82233 0.77988 0.62504 0.0
N580 N 0.80802 0.77188 0.60718 0.0
C581 C 0.77984 0.78736 0.61983 0.0
C582 C 0.79446 0.79577 0.63802 0.0
C583 C 0.76505 0.71194 0.57002 0.0
C584 C 0.82968 0.66879 0.55365 0.0
C585 C 0.78455 0.66857 0.54128 0.0
C586 C 0.7836 0.64482 0.54542 0.0
C587 C 0.80634 0.645 0.55166 0.0
N588 N 0.80753 0.69182 0.54324 0.0
C589 C 0.8299 0.69215 0.54935 0.0
Co590 Co 0.24534 0.06086 0.58651 0.0
Co591 Co 0.27356 0.08205 0.53826 0.0
O592 O 0.26123 0.08748 0.56488 0.0
C593 C 0.29025 0.10555 0.60666 0.0
O594 O 0.30386 0.10689 0.59015 0.0
C595 C 0.23602 0.09955 0.52807 0.0
O596 O 0.22097 0.08377 0.54272 0.0
O597 O 0.24012 0.04878 0.53377 0.0
O598 O 0.22466 0.03294 0.56559 0.0
H599 H 0.28967 0.03019 0.48437 0.0
H600 H 0.24331 0.11 0.59026 0.0
O601 O 0.26606 0.08816 0.60789 0.0
H602 H 0.15101 0.0389 0.58847 0.0
H603 H 0.20496 0.02756 0.65657 0.0
H604 H 0.23374 0.006 0.59148 0.0
H605 H 0.18693 0.02884 0.58683 0.0
H606 H 0.22421 0.06025 0.62854 0.0
O607 O 0.25808 0.10144 0.52403 0.0
H608 H 0.2745 0.03731 0.51807 0.0
H609 H 0.29824 0.11583 0.50129 0.0
H610 H 0.21442 0.97266 0.61903 0.0
H611 H 0.208 0.12093 0.59213 0.0
H612 H 0.19987 0.98337 0.65186 0.0
H613 H 0.16147 0.08523 0.59116 0.0
O614 O 0.27396 0.05254 0.58449 0.0
H615 H 0.32811 0.17724 0.55732 0.0
H616 H 0.33023 0.09813 0.53522 0.0
H617 H 0.3718 0.13913 0.5417 0.0
H618 H 0.3709 0.17906 0.55283 0.0
H619 H 0.287 0.13577 0.55082 0.0
H620 H 0.31346 0.10949 0.46734 0.0
H621 H 0.30931 0.06645 0.45874 0.0
O622 O 0.28912 0.06236 0.5519 0.0
C623 C 0.22385 0.03103 0.5459 0.0
C624 C 0.29167 0.04906 0.48796 0.0
C625 C 0.30498 0.09356 0.4784 0.0
N626 N 0.2857 0.07702 0.51169 0.0
C627 C 0.28318 0.05323 0.50704 0.0
C628 C 0.29629 0.09701 0.49762 0.0
C629 C 0.30266 0.06941 0.47358 0.0
C630 C 0.22311 0.09435 0.59007 0.0
N631 N 0.21719 0.06882 0.58854 0.0
C632 C 0.2032 0.10066 0.59103 0.0
C633 C 0.17709 0.08062 0.59045 0.0
C634 C 0.17121 0.05462 0.58892 0.0
C635 C 0.19163 0.04905 0.58795 0.0
C636 C 0.21115 0.02263 0.64231 0.0
C637 C 0.22725 0.01072 0.60566 0.0
C638 C 0.22209 0.04106 0.6264 0.0
N639 N 0.22982 0.03492 0.60832 0.0
C640 C 0.21642 0.9918 0.62123 0.0
C641 C 0.20829 0.99784 0.63966 0.0
C642 C 0.28853 0.05286 0.56978 0.0
C643 C 0.32876 0.15999 0.55241 0.0
C644 C 0.32967 0.11541 0.54009 0.0
C645 C 0.35328 0.13858 0.5437 0.0
C646 C 0.35276 0.16099 0.54993 0.0
N647 N 0.30622 0.1146 0.54255 0.0
C648 C 0.30555 0.13649 0.54862 0.0
Co649 Co 0.93766 0.1843 0.58462 0.0
Co650 Co 0.91509 0.19285 0.53753 0.0
O651 O 0.91055 0.17439 0.56361 0.0
C652 C 0.89411 0.18547 0.60589 0.0
O653 O 0.89267 0.19793 0.58957 0.0
C654 C 0.89934 0.13871 0.52575 0.0
O655 O 0.91701 0.14041 0.53901 0.0
O656 O 0.94892 0.19407 0.53204 0.0
O657 O 0.96459 0.1909 0.56298 0.0
H658 H 0.9645 0.26273 0.48433 0.0
H659 H 0.88781 0.13378 0.58836 0.0
O660 O 0.9112 0.17823 0.60667 0.0
H661 H 0.95715 0.11023 0.58427 0.0
H662 H 0.97236 0.17545 0.65348 0.0
H663 H 0.99319 0.22636 0.58875 0.0
H664 H 0.96841 0.1566 0.58364 0.0
H665 H 0.93889 0.16314 0.62621 0.0
O666 O 0.89596 0.15824 0.5229 0.0
H667 H 0.95868 0.23973 0.51751 0.0
H668 H 0.88028 0.18387 0.50133 0.0
H669 H 0.02732 0.23924 0.61552 0.0
H670 H 0.87568 0.08716 0.58916 0.0
H671 H 0.01698 0.2137 0.64817 0.0
H672 H 0.91049 0.07514 0.58704 0.0
O673 O 0.94697 0.22164 0.58316 0.0
H674 H 0.82015 0.14961 0.55813 0.0
H675 H 0.89763 0.23245 0.53636 0.0
H676 H 0.85624 0.23172 0.54413 0.0
H677 H 0.81713 0.19007 0.5551 0.0
H678 H 0.86198 0.15127 0.55036 0.0
H679 H 0.8853 0.20613 0.46789 0.0
H680 H 0.92763 0.24592 0.45926 0.0
O681 O 0.93437 0.22764 0.55176 0.0
C682 C 0.96661 0.19399 0.54337 0.0
C683 C 0.94593 0.24546 0.48794 0.0
C684 C 0.90149 0.21367 0.47871 0.0
N685 N 0.9191 0.21064 0.51141 0.0
C686 C 0.9425 0.23241 0.50673 0.0
C687 C 0.89878 0.20113 0.49764 0.0
C688 C 0.92525 0.236 0.47388 0.0
C689 C 0.90308 0.1287 0.58765 0.0
N690 N 0.92879 0.14788 0.58608 0.0
C691 C 0.89609 0.10228 0.58802 0.0
C692 C 0.91563 0.09554 0.58679 0.0
C693 C 0.94181 0.11522 0.58523 0.0
C694 C 0.94807 0.14144 0.58485 0.0
C695 C 0.97713 0.1867 0.6393 0.0
C696 C 0.98862 0.21504 0.60285 0.0
C697 C 0.95825 0.17984 0.62382 0.0
N698 N 0.96418 0.19387 0.60584 0.0
C699 C 0.00799 0.22248 0.61798 0.0
C700 C 0.00216 0.20815 0.63631 0.0
C701 C 0.94534 0.23618 0.5693 0.0
C702 C 0.83704 0.16786 0.5533 0.0
C703 C 0.8807 0.21426 0.54114 0.0
C704 C 0.85731 0.21396 0.54549 0.0
C705 C 0.83537 0.19058 0.55163 0.0
N706 N 0.88218 0.19189 0.54281 0.0
C707 C 0.86074 0.16889 0.54879 0.0
Co708 Co 0.9127 0.5187 0.41987 0.0
Co709 Co 0.94159 0.52544 0.37201 0.0
O710 O 0.9286 0.50768 0.39848 0.0
C711 C 0.95682 0.51808 0.44054 0.0
O712 O 0.97075 0.53043 0.42418 0.0
C713 C 0.90353 0.47079 0.36106 0.0
O714 O 0.88759 0.47238 0.37443 0.0
O715 O 0.9084 0.52567 0.367 0.0
O716 O 0.89285 0.52662 0.39867 0.0
H717 H 0.95928 0.59347 0.3178 0.0
H718 H 0.90957 0.467 0.42335 0.0
O719 O 0.93266 0.51146 0.44151 0.0
H720 H 0.81784 0.44753 0.42044 0.0
H721 H 0.87112 0.51173 0.48938 0.0
H722 H 0.90201 0.56259 0.42468 0.0
H723 H 0.85436 0.49326 0.41954 0.0
H724 H 0.89052 0.49804 0.46161 0.0
O725 O 0.92626 0.4905 0.35795 0.0
H726 H 0.94334 0.57129 0.35144 0.0
H727 H 0.96681 0.51604 0.33555 0.0
H728 H 0.88256 0.57687 0.45196 0.0
H729 H 0.87364 0.42099 0.42444 0.0
H730 H 0.86696 0.55135 0.48459 0.0
H731 H 0.8274 0.41102 0.42291 0.0
O732 O 0.94183 0.55545 0.41817 0.0
H733 H 0.99526 0.48425 0.39224 0.0
H734 H 0.9984 0.56575 0.36958 0.0
H735 H 0.03969 0.56602 0.37672 0.0
H736 H 0.03827 0.52504 0.38813 0.0
H737 H 0.95444 0.4849 0.3851 0.0
H738 H 0.9828 0.53747 0.30166 0.0
H739 H 0.97918 0.57655 0.29265 0.0
O740 O 0.9571 0.56072 0.38561 0.0
C741 C 0.89228 0.52768 0.37897 0.0
C742 C 0.96105 0.57652 0.32158 0.0
C743 C 0.97422 0.54506 0.31251 0.0
N744 N 0.95436 0.54255 0.3455 0.0
C745 C 0.95213 0.56393 0.34062 0.0
C746 C 0.96509 0.53298 0.33169 0.0
C747 C 0.97219 0.56699 0.30746 0.0
C748 C 0.88948 0.46282 0.42291 0.0
N749 N 0.88406 0.48278 0.4215 0.0
C750 C 0.86923 0.43673 0.42344 0.0
C751 C 0.84329 0.43115 0.42254 0.0
C752 C 0.83791 0.45162 0.42114 0.0
C753 C 0.85867 0.47747 0.4206 0.0
C754 C 0.87778 0.52296 0.4752 0.0
C755 C 0.89506 0.55128 0.43876 0.0
C756 C 0.8888 0.51533 0.45944 0.0
N757 N 0.89711 0.52936 0.44146 0.0
C758 C 0.88416 0.55951 0.45419 0.0
C759 C 0.87544 0.5452 0.47251 0.0
C760 C 0.95656 0.56965 0.40351 0.0
C761 C 0.99613 0.5022 0.38721 0.0
C762 C 0.99762 0.54785 0.37458 0.0
C763 C 0.02107 0.54811 0.37855 0.0
C764 C 0.02026 0.52511 0.38494 0.0
N765 N 0.97404 0.5253 0.37684 0.0
C766 C 0.97309 0.50266 0.38306 0.0
Co767 Co 0.48155 0.39326 0.41858 0.0
Co768 Co 0.47428 0.41546 0.37111 0.0
O769 O 0.49218 0.42025 0.39743 0.0
C770 C 0.48136 0.43701 0.4403 0.0
O771 O 0.46707 0.43734 0.42485 0.0
C772 C 0.52871 0.43253 0.3587 0.0
O773 O 0.52685 0.41307 0.3699 0.0
O774 O 0.47507 0.38267 0.36559 0.0
O775 O 0.47313 0.36551 0.39714 0.0
H776 H 0.4073 0.36495 0.31624 0.0
H777 H 0.53342 0.44172 0.42149 0.0
O778 O 0.48946 0.42056 0.44037 0.0
H779 H 0.55247 0.36923 0.41765 0.0
H780 H 0.48984 0.35838 0.48752 0.0
H781 H 0.43777 0.33863 0.42349 0.0
H782 H 0.50678 0.36019 0.41746 0.0
H783 H 0.50295 0.39159 0.45994 0.0
O784 O 0.50934 0.43646 0.35735 0.0
H785 H 0.42947 0.37098 0.34985 0.0
H786 H 0.48277 0.45072 0.33533 0.0
H787 H 0.42405 0.30477 0.4506 0.0
H788 H 0.57939 0.45163 0.42188 0.0
H789 H 0.45018 0.31457 0.48289 0.0
H790 H 0.58914 0.41523 0.4199 0.0
O791 O 0.44475 0.38573 0.41743 0.0
H792 H 0.51264 0.50957 0.39282 0.0
H793 H 0.43266 0.43019 0.3693 0.0
H794 H 0.43084 0.47025 0.37716 0.0
H795 H 0.47104 0.51032 0.38899 0.0
H796 H 0.51354 0.46902 0.38497 0.0
H797 H 0.46132 0.44551 0.30148 0.0
H798 H 0.42323 0.4024 0.2918 0.0
O799 O 0.43898 0.39435 0.38453 0.0
C800 C 0.47262 0.36425 0.37741 0.0
C801 C 0.42381 0.38386 0.32032 0.0
C802 C 0.45416 0.42906 0.31202 0.0
N803 N 0.45719 0.41124 0.34462 0.0
C804 C 0.43638 0.38741 0.33935 0.0
C805 C 0.46625 0.43188 0.33119 0.0
C806 C 0.43278 0.40487 0.3066 0.0
C807 C 0.53751 0.42577 0.42082 0.0
N808 N 0.51746 0.40041 0.41958 0.0
C809 C 0.56358 0.4315 0.42097 0.0
C810 C 0.56903 0.41107 0.41982 0.0
C811 C 0.54846 0.38526 0.41855 0.0
C812 C 0.52264 0.38026 0.41841 0.0
C813 C 0.47833 0.35385 0.47349 0.0
C814 C 0.44934 0.34296 0.43744 0.0
C815 C 0.48564 0.37259 0.45784 0.0
N816 N 0.47127 0.36694 0.44005 0.0
C817 C 0.44143 0.32375 0.45276 0.0
C818 C 0.45608 0.32927 0.47088 0.0
C819 C 0.43034 0.38543 0.40261 0.0
C820 C 0.49501 0.49226 0.38762 0.0
C821 C 0.45022 0.44753 0.37448 0.0
C822 C 0.44908 0.47017 0.37887 0.0
C823 C 0.47166 0.49265 0.38549 0.0
N824 N 0.47322 0.44731 0.37657 0.0
C825 C 0.49543 0.46928 0.38306 0.0
Co826 Co 0.6058 0.08742 0.41861 0.0
Co827 Co 0.58369 0.057 0.3711 0.0
O828 O 0.5789 0.07055 0.39736 0.0
C829 C 0.56198 0.04242 0.43942 0.0
O830 O 0.56039 0.0287 0.42293 0.0
C831 C 0.56791 0.09563 0.36014 0.0
O832 O 0.58393 0.11064 0.37468 0.0
O833 O 0.61778 0.08934 0.36613 0.0
O834 O 0.63289 0.1083 0.39716 0.0
H835 H 0.63333 0.03676 0.31789 0.0
H836 H 0.55584 0.08786 0.42239 0.0
O837 O 0.57923 0.06667 0.44043 0.0
H838 H 0.62506 0.18092 0.42013 0.0
H839 H 0.63992 0.12958 0.48802 0.0
H840 H 0.66139 0.10116 0.42271 0.0
H841 H 0.63644 0.14591 0.41872 0.0
H842 H 0.60663 0.10883 0.46058 0.0
O843 O 0.56534 0.07322 0.35635 0.0
H844 H 0.62728 0.05356 0.35119 0.0
H845 H 0.5493 0.03204 0.33452 0.0
H846 H 0.69536 0.12203 0.44966 0.0
H847 H 0.54359 0.12223 0.42404 0.0
H848 H 0.68469 0.1364 0.4826 0.0
H849 H 0.57834 0.16915 0.42283 0.0
O850 O 0.61504 0.05927 0.41685 0.0
H851 H 0.48837 0.00604 0.39065 0.0
H852 H 0.56556 0.99982 0.36943 0.0
H853 H 0.52374 0.95936 0.37663 0.0
H854 H 0.48478 0.96233 0.38733 0.0
H855 H 0.5306 0.046 0.38344 0.0
H856 H 0.55455 0.0152 0.30096 0.0
H857 H 0.59678 0.01742 0.2925 0.0
O858 O 0.60244 0.04096 0.38527 0.0
C859 C 0.63522 0.10713 0.3776 0.0
C860 C 0.6148 0.03558 0.32143 0.0
C861 C 0.5706 0.02352 0.31191 0.0
N862 N 0.58789 0.04353 0.34487 0.0
C863 C 0.61123 0.04497 0.34029 0.0
C864 C 0.56775 0.03312 0.33092 0.0
C865 C 0.59429 0.02476 0.30718 0.0
C866 C 0.57108 0.10824 0.42206 0.0
N867 N 0.59683 0.11488 0.42051 0.0
C868 C 0.56402 0.12761 0.42292 0.0
C869 C 0.58353 0.15393 0.4222 0.0
C870 C 0.60974 0.16055 0.42066 0.0
C871 C 0.61607 0.14064 0.41981 0.0
C872 C 0.64482 0.12346 0.47372 0.0
C873 C 0.65667 0.10752 0.43695 0.0
C874 C 0.62604 0.11165 0.45815 0.0
N875 N 0.63215 0.104 0.44 0.0
C876 C 0.67595 0.11925 0.45217 0.0
C877 C 0.66994 0.12728 0.47066 0.0
C878 C 0.61323 0.04317 0.40285 0.0
C879 C 0.50518 0.00449 0.38593 0.0
C880 C 0.54868 0.00127 0.37408 0.0
C881 C 0.52505 0.97829 0.37811 0.0
C882 C 0.50319 0.97997 0.3841 0.0
N883 N 0.55046 0.02523 0.37589 0.0
C884 C 0.52911 0.02704 0.38174 0.0
Co885 Co 0.8511 0.57869 0.74828 0.0
Co886 Co 0.85851 0.60788 0.79607 0.0
O887 O 0.84064 0.59511 0.7696 0.0
C888 C 0.85136 0.62316 0.72739 0.0
O889 O 0.86387 0.63712 0.74368 0.0
C890 C 0.80371 0.57046 0.80696 0.0
O891 O 0.80519 0.55437 0.79369 0.0
O892 O 0.85822 0.57449 0.80112 0.0
O893 O 0.85831 0.55838 0.76959 0.0
H894 H 0.92571 0.62389 0.85061 0.0
H895 H 0.79993 0.57668 0.74484 0.0
O896 O 0.84436 0.5989 0.72654 0.0
H897 H 0.77859 0.48438 0.74781 0.0
H898 H 0.84329 0.53644 0.67894 0.0
H899 H 0.8941 0.56665 0.74371 0.0
H900 H 0.82462 0.52026 0.74865 0.0
H901 H 0.83026 0.55663 0.70653 0.0
O902 O 0.82357 0.59308 0.81009 0.0
H903 H 0.90359 0.60831 0.81691 0.0
H904 H 0.8498 0.63382 0.83237 0.0
H905 H 0.90769 0.54637 0.7166 0.0
H906 H 0.75362 0.5414 0.74381 0.0
H907 H 0.88219 0.5311 0.68394 0.0
H908 H 0.74272 0.49487 0.74537 0.0
O909 O 0.88812 0.60747 0.74988 0.0
H910 H 0.81884 0.6629 0.77575 0.0
H911 H 0.89959 0.66441 0.79833 0.0
H912 H 0.90073 0.7061 0.79109 0.0
H913 H 0.86013 0.7055 0.77972 0.0
H914 H 0.81862 0.62167 0.783 0.0
H915 H 0.87119 0.64949 0.86631 0.0
H916 H 0.90951 0.64466 0.87557 0.0
O917 O 0.89373 0.62269 0.78254 0.0
C918 C 0.85963 0.5579 0.78929 0.0
C919 C 0.90911 0.62621 0.84671 0.0
C920 C 0.87848 0.64055 0.85554 0.0
N921 N 0.87564 0.62043 0.8226 0.0
C922 C 0.89657 0.61752 0.82763 0.0
C923 C 0.86643 0.63161 0.83632 0.0
C924 C 0.89998 0.63783 0.86072 0.0
C925 C 0.79533 0.55647 0.7453 0.0
N926 N 0.81494 0.55053 0.74669 0.0
C927 C 0.76908 0.53658 0.74481 0.0
C928 C 0.76298 0.51048 0.74572 0.0
C929 C 0.78309 0.50458 0.7471 0.0
C930 C 0.80912 0.52498 0.7476 0.0
C931 C 0.85451 0.54296 0.69313 0.0
C932 C 0.88281 0.55989 0.72959 0.0
C933 C 0.84726 0.55444 0.70878 0.0
N934 N 0.86128 0.56258 0.72677 0.0
C935 C 0.89064 0.5485 0.71427 0.0
C936 C 0.87634 0.53996 0.69594 0.0
C937 C 0.90242 0.62201 0.76458 0.0
C938 C 0.83663 0.66342 0.78076 0.0
C939 C 0.88185 0.66399 0.79336 0.0
C940 C 0.88261 0.68766 0.78932 0.0
C941 C 0.85982 0.68731 0.78296 0.0
N942 N 0.85903 0.64064 0.79118 0.0
C943 C 0.8366 0.64014 0.78498 0.0
Co944 Co 0.42237 0.27196 0.7485 0.0
Co945 Co 0.38909 0.24848 0.79472 0.0
O946 O 0.40411 0.24449 0.76904 0.0
C947 C 0.37745 0.23011 0.72608 0.0
O948 O 0.36309 0.22962 0.74179 0.0
C949 C 0.42808 0.23391 0.80744 0.0
O950 O 0.444 0.25159 0.79417 0.0
O951 O 0.42089 0.28283 0.80069 0.0
O952 O 0.44264 0.29812 0.77063 0.0
H953 H 0.36446 0.29602 0.84666 0.0
H954 H 0.42158 0.22137 0.74459 0.0
O955 O 0.40211 0.24606 0.72605 0.0
H956 H 0.51507 0.28886 0.74973 0.0
H957 H 0.46793 0.30732 0.68037 0.0
H958 H 0.43772 0.32808 0.7451 0.0
H959 H 0.48083 0.30134 0.75001 0.0
H960 H 0.44531 0.27338 0.70709 0.0
O961 O 0.40493 0.23005 0.80996 0.0
H962 H 0.38328 0.29103 0.81403 0.0
H963 H 0.36297 0.21336 0.83071 0.0
H964 H 0.46043 0.36267 0.71887 0.0
H965 H 0.45517 0.20802 0.74409 0.0
H966 H 0.47571 0.35236 0.68622 0.0
H967 H 0.50229 0.24188 0.74676 0.0
O968 O 0.39497 0.28238 0.74976 0.0
H969 H 0.34018 0.15359 0.77372 0.0
H970 H 0.33173 0.22959 0.79467 0.0
H971 H 0.29197 0.18766 0.78633 0.0
H972 H 0.29606 0.14929 0.77579 0.0
H973 H 0.37944 0.19594 0.78204 0.0
H974 H 0.3441 0.21757 0.86361 0.0
H975 H 0.34469 0.25911 0.87172 0.0
O976 O 0.37343 0.26708 0.77987 0.0
C977 C 0.43985 0.30024 0.79001 0.0
C978 C 0.36402 0.2778 0.84328 0.0
C979 C 0.35263 0.23378 0.85281 0.0
N980 N 0.37407 0.25188 0.82043 0.0
C981 C 0.37458 0.27483 0.82481 0.0
C982 C 0.3634 0.23153 0.83418 0.0
C983 C 0.35296 0.25709 0.85734 0.0
C984 C 0.44206 0.23624 0.74555 0.0
N985 N 0.44925 0.26212 0.74725 0.0
C986 C 0.46099 0.22855 0.74534 0.0
C987 C 0.48742 0.24756 0.74687 0.0
C988 C 0.4946 0.27392 0.74855 0.0
C989 C 0.47513 0.28087 0.74874 0.0
C990 C 0.46142 0.31206 0.69455 0.0
C991 C 0.44447 0.3235 0.73099 0.0
C992 C 0.44856 0.29292 0.70971 0.0
N993 N 0.44042 0.29882 0.7277 0.0
C994 C 0.45724 0.34314 0.71617 0.0
C995 C 0.46578 0.33734 0.69784 0.0
C996 C 0.37747 0.27953 0.76285 0.0
C997 C 0.33814 0.17015 0.77836 0.0
C998 C 0.33366 0.21298 0.79008 0.0
C999 C 0.31108 0.18928 0.7854 0.0
C1000 C 0.31339 0.16776 0.7795 0.0
N1001 N 0.35786 0.21515 0.78896 0.0
C1002 C 0.36029 0.19414 0.78317 0.0
Co1003 Co 0.72781 0.15049 0.74804 0.0
Co1004 Co 0.75087 0.14135 0.79457 0.0
O1005 O 0.7551 0.16003 0.76875 0.0
C1006 C 0.77024 0.14835 0.72583 0.0
O1007 O 0.77034 0.13402 0.74134 0.0
C1008 C 0.76684 0.19522 0.8078 0.0
O1009 O 0.7474 0.19327 0.79654 0.0
O1010 O 0.7173 0.1405 0.8007 0.0
O1011 O 0.7011 0.14354 0.76995 0.0
H1012 H 0.70205 0.07148 0.84792 0.0
H1013 H 0.77772 0.20105 0.74458 0.0
O1014 O 0.75427 0.15705 0.72582 0.0
H1015 H 0.70849 0.22465 0.74992 0.0
H1016 H 0.69274 0.16078 0.67984 0.0
H1017 H 0.67216 0.10868 0.74393 0.0
H1018 H 0.69718 0.17825 0.74996 0.0
H1019 H 0.72641 0.17241 0.70685 0.0
O1020 O 0.77097 0.17598 0.80908 0.0
H1021 H 0.70737 0.09469 0.81492 0.0
H1022 H 0.78638 0.14977 0.83015 0.0
H1023 H 0.63785 0.09647 0.71741 0.0
H1024 H 0.78989 0.24769 0.74434 0.0
H1025 H 0.64806 0.12262 0.68509 0.0
H1026 H 0.75514 0.25973 0.74707 0.0
O1027 O 0.71827 0.11299 0.74903 0.0
H1028 H 0.84519 0.18334 0.77243 0.0
H1029 H 0.76753 0.10113 0.79498 0.0
H1030 H 0.80838 0.10117 0.7864 0.0
H1031 H 0.84759 0.1425 0.77505 0.0
H1032 H 0.80388 0.18238 0.78098 0.0
H1033 H 0.78187 0.12727 0.86339 0.0
H1034 H 0.73948 0.08777 0.87241 0.0
O1035 O 0.73083 0.10665 0.78033 0.0
C1036 C 0.69937 0.14045 0.78956 0.0
C1037 C 0.72064 0.08862 0.84413 0.0
C1038 C 0.76543 0.11996 0.85283 0.0
N1039 N 0.74722 0.12341 0.82056 0.0
C1040 C 0.72379 0.10179 0.82545 0.0
C1041 C 0.76786 0.13264 0.83401 0.0
C1042 C 0.74165 0.09779 0.85788 0.0
C1043 C 0.76247 0.20614 0.74558 0.0
N1044 N 0.73677 0.18697 0.74715 0.0
C1045 C 0.76949 0.23258 0.74552 0.0
C1046 C 0.74998 0.23932 0.74708 0.0
C1047 C 0.7238 0.21965 0.74869 0.0
C1048 C 0.71752 0.19341 0.74873 0.0
C1049 C 0.68804 0.14927 0.69388 0.0
C1050 C 0.67669 0.12026 0.72996 0.0
C1051 C 0.70702 0.15574 0.7092 0.0
N1052 N 0.70116 0.14138 0.72701 0.0
C1053 C 0.65721 0.1132 0.71498 0.0
C1054 C 0.66297 0.12787 0.69684 0.0
C1055 C 0.71972 0.09826 0.76281 0.0
C1056 C 0.82826 0.16522 0.77741 0.0
C1057 C 0.7845 0.11918 0.79002 0.0
C1058 C 0.80759 0.1191 0.78522 0.0
C1059 C 0.82958 0.1423 0.77886 0.0
N1060 N 0.78337 0.14176 0.78859 0.0
C1061 C 0.80485 0.16458 0.78236 0.0
Co1062 Co 0.4215 0.14665 0.24684 0.0
Co1063 Co 0.39342 0.14052 0.29501 0.0
O1064 O 0.40553 0.15774 0.26817 0.0
C1065 C 0.37689 0.14635 0.22612 0.0
O1066 O 0.36303 0.1342 0.24256 0.0
C1067 C 0.43017 0.19602 0.30456 0.0
O1068 O 0.44543 0.19534 0.29006 0.0
O1069 O 0.42718 0.14147 0.29979 0.0
O1070 O 0.44198 0.1396 0.26804 0.0
H1071 H 0.3786 0.07425 0.35004 0.0
H1072 H 0.42378 0.19786 0.24238 0.0
O1073 O 0.40107 0.15307 0.22515 0.0
H1074 H 0.51596 0.21875 0.2449 0.0
H1075 H 0.46238 0.15265 0.17716 0.0
H1076 H 0.43282 0.10312 0.24254 0.0
H1077 H 0.47992 0.17286 0.24681 0.0
H1078 H 0.44303 0.16658 0.20479 0.0
O1079 O 0.40832 0.17565 0.30875 0.0
H1080 H 0.39345 0.09581 0.31606 0.0
H1081 H 0.36825 0.14984 0.33156 0.0
H1082 H 0.45223 0.08861 0.2154 0.0
H1083 H 0.45921 0.24401 0.24022 0.0
H1084 H 0.46717 0.11346 0.18242 0.0
H1085 H 0.50569 0.2547 0.24155 0.0
O1086 O 0.39275 0.1098 0.24908 0.0
H1087 H 0.33749 0.17918 0.27475 0.0
H1088 H 0.337 0.09926 0.29827 0.0
H1089 H 0.29503 0.0977 0.29145 0.0
H1090 H 0.29511 0.13787 0.27961 0.0
H1091 H 0.37902 0.17981 0.2816 0.0
H1092 H 0.35334 0.12902 0.36577 0.0
H1093 H 0.35839 0.09087 0.37516 0.0
O1094 O 0.37839 0.10496 0.2819 0.0
C1095 C 0.44317 0.13936 0.28774 0.0
C1096 C 0.37622 0.0908 0.3461 0.0
C1097 C 0.36207 0.12157 0.35494 0.0
N1098 N 0.3815 0.12389 0.32178 0.0
C1099 C 0.38451 0.10303 0.32687 0.0
C1100 C 0.37059 0.1333 0.33557 0.0
C1101 C 0.3649 0.10015 0.3602 0.0
C1102 C 0.44396 0.20234 0.24273 0.0
N1103 N 0.44977 0.18269 0.24463 0.0
C1104 C 0.46394 0.22851 0.2416 0.0
C1105 C 0.49001 0.2345 0.24239 0.0
C1106 C 0.49579 0.21434 0.24429 0.0
C1107 C 0.4753 0.1884 0.24542 0.0
C1108 C 0.45602 0.14171 0.19149 0.0
C1109 C 0.43947 0.11415 0.2283 0.0
C1110 C 0.44503 0.14948 0.20717 0.0
N1111 N 0.43708 0.13583 0.22534 0.0
C1112 C 0.45036 0.10579 0.21296 0.0
C1113 C 0.4587 0.11972 0.19445 0.0
C1114 C 0.37862 0.09574 0.26405 0.0
C1115 C 0.3372 0.16157 0.27997 0.0
C1116 C 0.3372 0.11681 0.29309 0.0
C1117 C 0.31337 0.11582 0.28929 0.0
C1118 C 0.31343 0.13837 0.28267 0.0
N1119 N 0.36043 0.13964 0.29042 0.0
C1120 C 0.36065 0.16184 0.28396 0.0
Co1121 Co 0.85042 0.27207 0.24897 0.0
Co1122 Co 0.85983 0.25042 0.29605 0.0
O1123 O 0.84108 0.24531 0.27011 0.0
C1124 C 0.85225 0.22914 0.2273 0.0
O1125 O 0.86679 0.22933 0.24276 0.0
C1126 C 0.80587 0.23385 0.30923 0.0
O1127 O 0.80751 0.25301 0.29778 0.0
O1128 O 0.85972 0.28354 0.30164 0.0
O1129 O 0.85771 0.29942 0.27046 0.0
H1130 H 0.92866 0.3014 0.34959 0.0
H1131 H 0.79971 0.22223 0.24632 0.0
O1132 O 0.8435 0.24505 0.22716 0.0
H1133 H 0.77656 0.29187 0.25042 0.0
H1134 H 0.83951 0.30557 0.18022 0.0
H1135 H 0.89231 0.32754 0.24401 0.0
H1136 H 0.8229 0.30298 0.25033 0.0
H1137 H 0.8281 0.27254 0.20774 0.0
O1138 O 0.82526 0.22994 0.31052 0.0
H1139 H 0.90548 0.29503 0.31643 0.0
H1140 H 0.85229 0.2156 0.33193 0.0
H1141 H 0.9043 0.36124 0.21698 0.0
H1142 H 0.75312 0.21025 0.24623 0.0
H1143 H 0.8778 0.35032 0.18481 0.0
H1144 H 0.7413 0.24521 0.24834 0.0
O1145 O 0.88783 0.2813 0.24979 0.0
H1146 H 0.81994 0.1559 0.27502 0.0
H1147 H 0.90111 0.23518 0.29692 0.0
H1148 H 0.90223 0.19478 0.28893 0.0
H1149 H 0.86142 0.15476 0.27791 0.0
H1150 H 0.81974 0.19677 0.28299 0.0
H1151 H 0.87476 0.22115 0.36534 0.0
H1152 H 0.91331 0.26428 0.3743 0.0
O1153 O 0.89454 0.27099 0.2819 0.0
C1154 C 0.86012 0.30134 0.29013 0.0
C1155 C 0.91196 0.28248 0.34582 0.0
C1156 C 0.88169 0.23745 0.35467 0.0
N1157 N 0.87777 0.25489 0.32216 0.0
C1158 C 0.89883 0.27874 0.32704 0.0
C1159 C 0.86903 0.23443 0.33575 0.0
C1160 C 0.90332 0.26165 0.35969 0.0
C1161 C 0.79472 0.23756 0.24706 0.0
N1162 N 0.81399 0.26327 0.2482 0.0
C1163 C 0.76831 0.23066 0.24708 0.0
C1164 C 0.76169 0.25028 0.24829 0.0
C1165 C 0.78147 0.27646 0.24947 0.0
C1166 C 0.80767 0.28263 0.24945 0.0
C1167 C 0.85118 0.31058 0.19419 0.0
C1168 C 0.88059 0.32271 0.23011 0.0
C1169 C 0.84484 0.29195 0.2098 0.0
N1170 N 0.85939 0.29821 0.22752 0.0
C1171 C 0.88752 0.34184 0.21483 0.0
C1172 C 0.87266 0.33569 0.19678 0.0
C1173 C 0.90266 0.28091 0.26399 0.0
C1174 C 0.83783 0.17318 0.27987 0.0
C1175 C 0.88328 0.21785 0.29211 0.0
C1176 C 0.88403 0.19502 0.28764 0.0
C1177 C 0.86112 0.17257 0.28146 0.0
N1178 N 0.86034 0.21829 0.29053 0.0
C1179 C 0.83781 0.19635 0.28449 0.0
Co1180 Co 0.72858 0.57896 0.24878 0.0
Co1181 Co 0.75042 0.6099 0.29609 0.0
O1182 O 0.75551 0.59659 0.26985 0.0
C1183 C 0.77104 0.62425 0.22687 0.0
O1184 O 0.77114 0.63869 0.24239 0.0
C1185 C 0.7678 0.57255 0.30707 0.0
O1186 O 0.75155 0.55709 0.29284 0.0
O1187 O 0.71695 0.57698 0.30138 0.0
O1188 O 0.70159 0.55812 0.27037 0.0
H1189 H 0.69984 0.62855 0.34954 0.0
H1190 H 0.77897 0.57932 0.24511 0.0
O1191 O 0.75513 0.59959 0.22684 0.0
H1192 H 0.71077 0.48594 0.24838 0.0
H1193 H 0.69478 0.53547 0.17974 0.0
H1194 H 0.67274 0.56431 0.24458 0.0
H1195 H 0.69871 0.52047 0.24937 0.0
H1196 H 0.72805 0.55706 0.20708 0.0
O1197 O 0.76992 0.5948 0.31075 0.0
H1198 H 0.70621 0.61199 0.31625 0.0
H1199 H 0.78492 0.63592 0.33242 0.0
H1200 H 0.63881 0.54261 0.21772 0.0
H1201 H 0.79189 0.54543 0.24384 0.0
H1202 H 0.64976 0.52804 0.18502 0.0
H1203 H 0.75767 0.49836 0.24557 0.0
O1204 O 0.71867 0.60667 0.25025 0.0
H1205 H 0.84534 0.66335 0.27586 0.0
H1206 H 0.76671 0.66665 0.29756 0.0
H1207 H 0.8077 0.70787 0.29013 0.0
H1208 H 0.84739 0.70637 0.27921 0.0
H1209 H 0.80389 0.6226 0.2833 0.0
H1210 H 0.77937 0.65254 0.36598 0.0
H1211 H 0.7366 0.64899 0.37468 0.0
O1212 O 0.73052 0.62476 0.28198 0.0
C1213 C 0.69945 0.55915 0.28997 0.0
C1214 C 0.7186 0.63031 0.3459 0.0
C1215 C 0.76322 0.64373 0.35514 0.0
N1216 N 0.74597 0.62322 0.32232 0.0
C1217 C 0.72234 0.62106 0.32704 0.0
C1218 C 0.76623 0.63424 0.33613 0.0
C1219 C 0.73922 0.64174 0.36001 0.0
C1220 C 0.76395 0.55887 0.24565 0.0
N1221 N 0.73811 0.55187 0.24727 0.0
C1222 C 0.77139 0.53977 0.24501 0.0
C1223 C 0.75218 0.51336 0.24602 0.0
C1224 C 0.72586 0.50638 0.24762 0.0
C1225 C 0.71916 0.52602 0.24825 0.0
C1226 C 0.68975 0.54168 0.19394 0.0
C1227 C 0.67759 0.55785 0.23045 0.0
C1228 C 0.70852 0.55395 0.20946 0.0
N1229 N 0.70225 0.56172 0.22747 0.0
C1230 C 0.65833 0.54566 0.21527 0.0
C1231 C 0.66449 0.53751 0.19691 0.0
C1232 C 0.71976 0.62237 0.26435 0.0
C1233 C 0.8282 0.66426 0.28066 0.0
C1234 C 0.7839 0.66584 0.29279 0.0
C1235 C 0.80706 0.68925 0.28864 0.0
C1236 C 0.82933 0.68839 0.28252 0.0
N1237 N 0.78297 0.64227 0.29099 0.0
C1238 C 0.80471 0.64126 0.28498 0.0
Co1239 Co 0.48262 0.08879 0.91894 0.0
Co1240 Co 0.47442 0.05949 0.87115 0.0
O1241 O 0.49231 0.07181 0.89761 0.0
C1242 C 0.47981 0.04319 0.93995 0.0
O1243 O 0.46552 0.02926 0.92424 0.0
C1244 C 0.52949 0.09621 0.86055 0.0
O1245 O 0.52819 0.11231 0.87392 0.0
O1246 O 0.4754 0.09323 0.86623 0.0
O1247 O 0.47614 0.10976 0.89776 0.0
H1248 H 0.40762 0.04493 0.81666 0.0
H1249 H 0.533 0.08909 0.92233 0.0
O1250 O 0.48871 0.06788 0.94046 0.0
H1251 H 0.55707 0.1822 0.91962 0.0
H1252 H 0.49192 0.13108 0.98848 0.0
H1253 H 0.44083 0.10254 0.92376 0.0
H1254 H 0.51062 0.14728 0.9187 0.0
H1255 H 0.50389 0.11019 0.96073 0.0
O1256 O 0.50939 0.07382 0.85717 0.0
H1257 H 0.42978 0.06002 0.85039 0.0
H1258 H 0.48262 0.0334 0.83472 0.0
H1259 H 0.42829 0.12354 0.95102 0.0
H1260 H 0.57968 0.12338 0.92343 0.0
H1261 H 0.45393 0.13798 0.98366 0.0
H1262 H 0.59197 0.17032 0.922 0.0
O1263 O 0.44521 0.06087 0.91726 0.0
H1264 H 0.51236 0.00291 0.89141 0.0
H1265 H 0.43261 0.00328 0.86862 0.0
H1266 H 0.43055 0.96112 0.87571 0.0
H1267 H 0.47064 0.96077 0.88717 0.0
H1268 H 0.5135 0.04463 0.8843 0.0
H1269 H 0.46119 0.0182 0.80074 0.0
H1270 H 0.42333 0.02384 0.79157 0.0
O1271 O 0.43926 0.04521 0.88471 0.0
C1272 C 0.47458 0.11015 0.87806 0.0
C1273 C 0.42403 0.04226 0.82051 0.0
C1274 C 0.45411 0.02729 0.81156 0.0
N1275 N 0.45726 0.04732 0.84459 0.0
C1276 C 0.43658 0.05067 0.83961 0.0
C1277 C 0.46619 0.03596 0.83081 0.0
C1278 C 0.43287 0.03046 0.80643 0.0
C1279 C 0.53818 0.10948 0.92192 0.0
N1280 N 0.51911 0.11618 0.92056 0.0
C1281 C 0.56465 0.1288 0.92246 0.0
C1282 C 0.57153 0.15513 0.92162 0.0
C1283 C 0.55196 0.16181 0.92027 0.0
C1284 C 0.5257 0.14196 0.91972 0.0
C1285 C 0.48064 0.12494 0.9743 0.0
C1286 C 0.45218 0.10894 0.93787 0.0
C1287 C 0.4873 0.11307 0.95856 0.0
N1288 N 0.47322 0.1054 0.94058 0.0
C1289 C 0.44494 0.12074 0.95327 0.0
C1290 C 0.45932 0.12881 0.97159 0.0
C1291 C 0.4307 0.04635 0.90262 0.0
C1292 C 0.49478 0.0028 0.88636 0.0
C1293 C 0.45013 0.00328 0.87363 0.0
C1294 C 0.44885 0.97935 0.87758 0.0
C1295 C 0.47136 0.97917 0.88401 0.0
N1296 N 0.47319 0.02638 0.87593 0.0
C1297 C 0.49534 0.02636 0.88222 0.0
Co1298 Co 0.91121 0.39438 0.91814 0.0
Co1299 Co 0.9437 0.41776 0.87156 0.0
O1300 O 0.92898 0.4218 0.89743 0.0
C1301 C 0.95577 0.43748 0.94007 0.0
O1302 O 0.96995 0.4393 0.92381 0.0
C1303 C 0.90482 0.43269 0.85924 0.0
O1304 O 0.88887 0.41502 0.8725 0.0
O1305 O 0.91172 0.38348 0.86574 0.0
O1306 O 0.89091 0.36804 0.89613 0.0
H1307 H 0.96721 0.36994 0.81902 0.0
H1308 H 0.91136 0.44463 0.92202 0.0
O1309 O 0.93145 0.42031 0.94057 0.0
H1310 H 0.8181 0.37632 0.91767 0.0
H1311 H 0.86658 0.3588 0.98656 0.0
H1312 H 0.89668 0.3385 0.92156 0.0
H1313 H 0.85273 0.36438 0.91713 0.0
H1314 H 0.88849 0.39273 0.95971 0.0
O1315 O 0.92788 0.43634 0.85659 0.0
H1316 H 0.94891 0.37504 0.85189 0.0
H1317 H 0.96961 0.4529 0.83553 0.0
H1318 H 0.87468 0.30392 0.94792 0.0
H1319 H 0.87737 0.45745 0.92278 0.0
H1320 H 0.85947 0.314 0.98069 0.0
H1321 H 0.83036 0.42316 0.92052 0.0
O1322 O 0.93897 0.38454 0.9167 0.0
H1323 H 0.99324 0.51264 0.89254 0.0
H1324 H 0.00101 0.43637 0.87119 0.0
H1325 H 0.04098 0.47819 0.87939 0.0
H1326 H 0.03723 0.51669 0.89015 0.0
H1327 H 0.95377 0.47041 0.88434 0.0
H1328 H 0.98796 0.44859 0.8024 0.0
H1329 H 0.98691 0.4069 0.79401 0.0
O1330 O 0.95943 0.399 0.8861 0.0
C1331 C 0.89317 0.36596 0.87666 0.0
C1332 C 0.96785 0.38823 0.82253 0.0
C1333 C 0.97946 0.43236 0.81318 0.0
N1334 N 0.95835 0.41429 0.84567 0.0
C1335 C 0.95758 0.39125 0.84114 0.0
C1336 C 0.96899 0.43467 0.83194 0.0
C1337 C 0.97887 0.40897 0.80849 0.0
C1338 C 0.89093 0.42959 0.92124 0.0
N1339 N 0.88403 0.40378 0.9196 0.0
C1340 C 0.87178 0.43697 0.92159 0.0
C1341 C 0.84541 0.41772 0.92029 0.0
C1342 C 0.83852 0.39144 0.91868 0.0
C1343 C 0.85821 0.38479 0.91833 0.0
C1344 C 0.87307 0.35415 0.97232 0.0
C1345 C 0.88995 0.34297 0.93573 0.0
C1346 C 0.88552 0.37329 0.95708 0.0
N1347 N 0.89364 0.36751 0.93903 0.0
C1348 C 0.87758 0.32334 0.95062 0.0
C1349 C 0.86908 0.32902 0.96902 0.0
C1350 C 0.95598 0.38703 0.90329 0.0
C1351 C 0.99514 0.49603 0.8878 0.0
C1352 C 0.99922 0.45304 0.87587 0.0
C1353 C 0.02193 0.47667 0.88046 0.0
C1354 C 0.01981 0.49827 0.88649 0.0
N1355 N 0.9751 0.45101 0.87717 0.0
C1356 C 0.97286 0.4721 0.88305 0.0
Co1357 Co 0.60523 0.51787 0.91906 0.0
Co1358 Co 0.58231 0.52483 0.87173 0.0
O1359 O 0.57798 0.50705 0.89809 0.0
C1360 C 0.5611 0.5177 0.94041 0.0
O1361 O 0.55957 0.53031 0.92422 0.0
C1362 C 0.56584 0.47043 0.85972 0.0
O1363 O 0.58534 0.47258 0.87101 0.0
O1364 O 0.61552 0.52492 0.86608 0.0
O1365 O 0.63243 0.52534 0.89737 0.0
H1366 H 0.63165 0.59178 0.81654 0.0
H1367 H 0.55648 0.46636 0.9227 0.0
O1368 O 0.57849 0.51085 0.94111 0.0
H1369 H 0.62826 0.44623 0.91905 0.0
H1370 H 0.64106 0.51082 0.98793 0.0
H1371 H 0.66017 0.56124 0.92307 0.0
H1372 H 0.63778 0.49206 0.91821 0.0
H1373 H 0.60737 0.49735 0.96071 0.0
O1374 O 0.56181 0.4897 0.85805 0.0
H1375 H 0.62619 0.56996 0.85024 0.0
H1376 H 0.54662 0.51558 0.8361 0.0
H1377 H 0.69451 0.57528 0.9498 0.0
H1378 H 0.54608 0.42024 0.92373 0.0
H1379 H 0.68503 0.54998 0.98251 0.0
H1380 H 0.58212 0.40995 0.92185 0.0
O1381 O 0.61307 0.55476 0.91755 0.0
H1382 H 0.48804 0.48466 0.89362 0.0
H1383 H 0.5664 0.56559 0.87005 0.0
H1384 H 0.52586 0.56644 0.87805 0.0
H1385 H 0.4863 0.52576 0.88993 0.0
H1386 H 0.52905 0.48474 0.88563 0.0
H1387 H 0.55126 0.53668 0.80217 0.0
H1388 H 0.594 0.57513 0.79225 0.0
O1389 O 0.60289 0.56018 0.88504 0.0
C1390 C 0.63386 0.52662 0.87764 0.0
C1391 C 0.6129 0.57512 0.82073 0.0
C1392 C 0.56778 0.54417 0.81265 0.0
N1393 N 0.58603 0.54174 0.84522 0.0
C1394 C 0.60966 0.56275 0.83981 0.0
C1395 C 0.56528 0.53229 0.83187 0.0
C1396 C 0.59177 0.56574 0.80709 0.0
C1397 C 0.57227 0.46203 0.92207 0.0
N1398 N 0.5977 0.48186 0.92053 0.0
C1399 C 0.56626 0.43588 0.92257 0.0
C1400 C 0.58649 0.43012 0.92149 0.0
C1401 C 0.61238 0.45047 0.91991 0.0
C1402 C 0.61765 0.47638 0.91941 0.0
C1403 C 0.64545 0.52196 0.97373 0.0
C1404 C 0.65598 0.55004 0.93721 0.0
C1405 C 0.62644 0.51446 0.95828 0.0
N1406 N 0.63191 0.52837 0.94026 0.0
C1407 C 0.67546 0.55812 0.95231 0.0
C1408 C 0.67012 0.54394 0.97067 0.0
C1409 C 0.61256 0.56899 0.90291 0.0
C1410 C 0.50512 0.50249 0.8884 0.0
C1411 C 0.54929 0.54782 0.87524 0.0
C1412 C 0.52637 0.54841 0.87971 0.0
C1413 C 0.50417 0.52557 0.88636 0.0
N1414 N 0.55005 0.52511 0.87728 0.0
C1415 C 0.52836 0.50263 0.88376 0.0
Co1416 Co 0.57846 0.85232 0.75193 0.0
Co1417 Co 0.60763 0.85927 0.7041 0.0
O1418 O 0.59481 0.84156 0.73068 0.0
C1419 C 0.6228 0.85244 0.77295 0.0
O1420 O 0.63684 0.86474 0.75662 0.0
C1421 C 0.57047 0.80418 0.69374 0.0
O1422 O 0.55506 0.80491 0.70807 0.0
O1423 O 0.5742 0.85892 0.69902 0.0
O1424 O 0.55831 0.85962 0.73059 0.0
H1425 H 0.62454 0.92703 0.64984 0.0
H1426 H 0.57624 0.8011 0.75606 0.0
O1427 O 0.5986 0.84566 0.77376 0.0
H1428 H 0.48405 0.78005 0.75274 0.0
H1429 H 0.53643 0.84522 0.82127 0.0
H1430 H 0.56692 0.89568 0.75636 0.0
H1431 H 0.52005 0.82601 0.75139 0.0
H1432 H 0.55629 0.83176 0.79372 0.0
O1433 O 0.5926 0.82439 0.68993 0.0
H1434 H 0.60874 0.90478 0.68348 0.0
H1435 H 0.63321 0.85027 0.66768 0.0
H1436 H 0.547 0.90973 0.78342 0.0
H1437 H 0.54084 0.75489 0.75765 0.0
H1438 H 0.53159 0.88441 0.81617 0.0
H1439 H 0.49436 0.74413 0.75591 0.0
O1440 O 0.6072 0.88924 0.75013 0.0
H1441 H 0.66215 0.8191 0.72452 0.0
H1442 H 0.66429 0.90007 0.70168 0.0
H1443 H 0.70583 0.90088 0.7089 0.0
H1444 H 0.70492 0.86018 0.7204 0.0
H1445 H 0.62106 0.81921 0.71729 0.0
H1446 H 0.64907 0.87177 0.6338 0.0
H1447 H 0.64487 0.91051 0.62474 0.0
O1448 O 0.62277 0.89456 0.71766 0.0
C1449 C 0.55779 0.86055 0.71089 0.0
C1450 C 0.62656 0.91022 0.65364 0.0
C1451 C 0.6403 0.87918 0.64462 0.0
N1452 N 0.62027 0.87641 0.67759 0.0
C1453 C 0.61772 0.8976 0.67268 0.0
C1454 C 0.63124 0.86706 0.6638 0.0
C1455 C 0.63794 0.90093 0.63955 0.0
C1456 C 0.55606 0.79658 0.75553 0.0
N1457 N 0.55022 0.81622 0.75374 0.0
C1458 C 0.5361 0.77037 0.75634 0.0
C1459 C 0.51002 0.76435 0.75532 0.0
C1460 C 0.50422 0.7845 0.75353 0.0
C1461 C 0.52469 0.81048 0.75272 0.0
C1462 C 0.54299 0.85637 0.80705 0.0
C1463 C 0.56006 0.88445 0.77049 0.0
C1464 C 0.55427 0.84886 0.79141 0.0
N1465 N 0.56248 0.86277 0.77337 0.0
C1466 C 0.54889 0.89255 0.78579 0.0
C1467 C 0.54028 0.87836 0.80417 0.0
C1468 C 0.62194 0.90349 0.7355 0.0
C1469 C 0.6628 0.83694 0.71946 0.0
C1470 C 0.66373 0.88229 0.70671 0.0
C1471 C 0.68732 0.88286 0.71074 0.0
C1472 C 0.68679 0.86001 0.71717 0.0
N1473 N 0.64028 0.85958 0.70898 0.0
C1474 C 0.63961 0.83709 0.71525 0.0
Co1475 Co 0.14793 0.72756 0.7526 0.0
Co1476 Co 0.14079 0.74911 0.70456 0.0
O1477 O 0.15846 0.75442 0.73121 0.0
C1478 C 0.14712 0.77167 0.77332 0.0
O1479 O 0.13497 0.7733 0.75686 0.0
C1480 C 0.19592 0.767 0.69445 0.0
O1481 O 0.1952 0.75116 0.70902 0.0
O1482 O 0.14112 0.71602 0.69982 0.0
O1483 O 0.14129 0.70007 0.73137 0.0
H1484 H 0.07381 0.69735 0.65004 0.0
H1485 H 0.19878 0.77697 0.75669 0.0
O1486 O 0.15408 0.75439 0.77428 0.0
H1487 H 0.22102 0.70662 0.75429 0.0
H1488 H 0.15506 0.69335 0.82222 0.0
H1489 H 0.10519 0.67238 0.75696 0.0
H1490 H 0.17489 0.69605 0.75262 0.0
H1491 H 0.16824 0.72653 0.79461 0.0
O1492 O 0.17571 0.76883 0.69043 0.0
H1493 H 0.09577 0.70427 0.68384 0.0
H1494 H 0.1497 0.78337 0.66796 0.0
H1495 H 0.09145 0.63853 0.78408 0.0
H1496 H 0.24515 0.78839 0.75859 0.0
H1497 H 0.11647 0.64894 0.81699 0.0
H1498 H 0.25652 0.75307 0.75732 0.0
O1499 O 0.11085 0.71901 0.75063 0.0
H1500 H 0.18072 0.84403 0.72425 0.0
H1501 H 0.09988 0.76476 0.70181 0.0
H1502 H 0.09892 0.8055 0.70865 0.0
H1503 H 0.13955 0.84551 0.71995 0.0
H1504 H 0.18075 0.80282 0.7174 0.0
H1505 H 0.12846 0.77726 0.63391 0.0
H1506 H 0.09016 0.73403 0.62481 0.0
O1507 O 0.10551 0.72897 0.71802 0.0
C1508 C 0.13998 0.6982 0.71167 0.0
C1509 C 0.0904 0.71631 0.65386 0.0
C1510 C 0.1211 0.76116 0.6448 0.0
N1511 N 0.12377 0.74427 0.67795 0.0
C1512 C 0.10285 0.72037 0.67301 0.0
C1513 C 0.13306 0.76449 0.66409 0.0
C1514 C 0.09961 0.73689 0.6397 0.0
C1515 C 0.20356 0.76148 0.75636 0.0
N1516 N 0.18415 0.73588 0.75464 0.0
C1517 C 0.22985 0.76807 0.75735 0.0
C1518 C 0.23622 0.74825 0.75659 0.0
C1519 C 0.21631 0.72218 0.75487 0.0
C1520 C 0.19023 0.71632 0.75388 0.0
C1521 C 0.14404 0.68856 0.80793 0.0
C1522 C 0.11628 0.67699 0.77119 0.0
C1523 C 0.15138 0.70727 0.79226 0.0
N1524 N 0.13764 0.7013 0.77413 0.0
C1525 C 0.10836 0.65777 0.78651 0.0
C1526 C 0.12239 0.66364 0.80498 0.0
C1527 C 0.09668 0.71943 0.73591 0.0
C1528 C 0.16291 0.82675 0.71927 0.0
C1529 C 0.11764 0.78209 0.70675 0.0
C1530 C 0.11698 0.80511 0.71056 0.0
C1531 C 0.13979 0.82755 0.71689 0.0
N1532 N 0.14039 0.78147 0.70911 0.0
C1533 C 0.16284 0.8034 0.71528 0.0
Co1534 Co 0.27271 0.42048 0.75401 0.0
Co1535 Co 0.2509 0.39267 0.70576 0.0
O1536 O 0.24578 0.40479 0.73259 0.0
C1537 C 0.22795 0.37588 0.77451 0.0
O1538 O 0.22634 0.36209 0.75804 0.0
C1539 C 0.23272 0.42985 0.69622 0.0
O1540 O 0.24857 0.44492 0.71082 0.0
O1541 O 0.28392 0.42628 0.70111 0.0
O1542 O 0.3005 0.44098 0.73288 0.0
H1543 H 0.30232 0.37751 0.65085 0.0
H1544 H 0.22395 0.42314 0.75835 0.0
O1545 O 0.24557 0.40001 0.7756 0.0
H1546 H 0.29575 0.51512 0.75626 0.0
H1547 H 0.3072 0.46073 0.8239 0.0
H1548 H 0.32741 0.43142 0.75847 0.0
H1549 H 0.30526 0.47885 0.75426 0.0
H1550 H 0.27413 0.44176 0.79613 0.0
O1551 O 0.23104 0.40793 0.69198 0.0
H1552 H 0.29556 0.39234 0.68483 0.0
H1553 H 0.21658 0.36789 0.66908 0.0
H1554 H 0.36114 0.45045 0.78575 0.0
H1555 H 0.21357 0.4588 0.7606 0.0
H1556 H 0.35111 0.46526 0.81876 0.0
H1557 H 0.24962 0.50518 0.75948 0.0
O1558 O 0.28056 0.39156 0.75174 0.0
H1559 H 0.15609 0.33737 0.7257 0.0
H1560 H 0.23526 0.33614 0.7024 0.0
H1561 H 0.19457 0.29435 0.70907 0.0
H1562 H 0.15461 0.2948 0.7208 0.0
H1563 H 0.19726 0.37871 0.719 0.0
H1564 H 0.22254 0.353 0.63487 0.0
H1565 H 0.26564 0.35768 0.62561 0.0
O1566 O 0.27108 0.37731 0.7189 0.0
C1567 C 0.30203 0.44218 0.71317 0.0
C1568 C 0.28343 0.37528 0.65473 0.0
C1569 C 0.23866 0.36156 0.64575 0.0
N1570 N 0.25564 0.38076 0.67899 0.0
C1571 C 0.27946 0.38357 0.67397 0.0
C1572 C 0.23541 0.37007 0.66513 0.0
C1573 C 0.26284 0.36418 0.64057 0.0
C1574 C 0.23976 0.44327 0.75809 0.0
N1575 N 0.26518 0.44891 0.75627 0.0
C1576 C 0.23376 0.46338 0.75927 0.0
C1577 C 0.25399 0.4894 0.7586 0.0
C1578 C 0.27987 0.49499 0.75677 0.0
C1579 C 0.28514 0.47438 0.75559 0.0
C1580 C 0.31184 0.45443 0.80956 0.0
C1581 C 0.32299 0.43802 0.77272 0.0
C1582 C 0.29318 0.44365 0.7938 0.0
N1583 N 0.29895 0.43577 0.77562 0.0
C1584 C 0.34212 0.44869 0.78814 0.0
C1585 C 0.33647 0.45697 0.80667 0.0
C1586 C 0.28043 0.37742 0.73675 0.0
C1587 C 0.17335 0.33692 0.72053 0.0
C1588 C 0.21797 0.3365 0.70753 0.0
C1589 C 0.19497 0.31277 0.71125 0.0
C1590 C 0.17255 0.31304 0.71781 0.0
N1591 N 0.21859 0.35984 0.71022 0.0
C1592 C 0.19668 0.36026 0.71662 0.0
Co1593 Co 0.51817 0.91217 0.08009 0.0
Co1594 Co 0.52372 0.94037 0.12789 0.0
O1595 O 0.50638 0.92746 0.10132 0.0
C1596 C 0.51618 0.95539 0.05931 0.0
O1597 O 0.52867 0.96952 0.07554 0.0
C1598 C 0.46905 0.90242 0.13932 0.0
O1599 O 0.47129 0.88509 0.12804 0.0
O1600 O 0.52334 0.90696 0.13312 0.0
O1601 O 0.52704 0.89311 0.10144 0.0
H1602 H 0.58984 0.95672 0.18345 0.0
H1603 H 0.46558 0.907 0.07677 0.0
O1604 O 0.50996 0.93133 0.05837 0.0
H1605 H 0.44945 0.81641 0.07972 0.0
H1606 H 0.51261 0.87074 0.01077 0.0
H1607 H 0.56323 0.90323 0.07544 0.0
H1608 H 0.4946 0.85402 0.08054 0.0
H1609 H 0.498 0.88948 0.0384 0.0
O1610 O 0.48838 0.92566 0.14121 0.0
H1611 H 0.56846 0.94104 0.14952 0.0
H1612 H 0.51401 0.96611 0.16382 0.0
H1613 H 0.57843 0.88445 0.0483 0.0
H1614 H 0.42011 0.86996 0.07576 0.0
H1615 H 0.55304 0.86804 0.01568 0.0
H1616 H 0.41183 0.82427 0.07729 0.0
O1617 O 0.55444 0.94225 0.08169 0.0
H1618 H 0.4844 0.99538 0.10654 0.0
H1619 H 0.5647 0.99693 0.13043 0.0
H1620 H 0.56594 0.03861 0.12296 0.0
H1621 H 0.52557 0.038 0.11093 0.0
H1622 H 0.48409 0.95415 0.11399 0.0
H1623 H 0.53466 0.98187 0.19799 0.0
H1624 H 0.57293 0.97731 0.20795 0.0
O1625 O 0.55938 0.95534 0.11491 0.0
C1626 C 0.52682 0.89174 0.12117 0.0
C1627 C 0.57325 0.95891 0.17926 0.0
C1628 C 0.54225 0.97299 0.18743 0.0
N1629 N 0.5402 0.95292 0.15463 0.0
C1630 C 0.56112 0.95015 0.16004 0.0
C1631 C 0.53061 0.964 0.16808 0.0
C1632 C 0.56373 0.97044 0.193 0.0
C1633 C 0.46213 0.88716 0.07725 0.0
N1634 N 0.4827 0.88266 0.07858 0.0
C1635 C 0.43634 0.86628 0.07675 0.0
C1636 C 0.43171 0.84065 0.07764 0.0
C1637 C 0.45281 0.83622 0.07901 0.0
C1638 C 0.47833 0.85759 0.07951 0.0
C1639 C 0.5238 0.87776 0.02493 0.0
C1640 C 0.55198 0.89595 0.06135 0.0
C1641 C 0.51565 0.88842 0.04061 0.0
N1642 N 0.52962 0.89719 0.05858 0.0
C1643 C 0.56073 0.88542 0.04601 0.0
C1644 C 0.54648 0.87624 0.02771 0.0
C1645 C 0.56842 0.95601 0.0968 0.0
C1646 C 0.50209 0.99591 0.11183 0.0
C1647 C 0.54707 0.99649 0.12515 0.0
C1648 C 0.54787 0.02016 0.12099 0.0
C1649 C 0.52521 0.01981 0.11426 0.0
N1650 N 0.52432 0.97313 0.12273 0.0
C1651 C 0.50201 0.97263 0.11617 0.0
Co1652 Co 0.086 0.60411 0.08187 0.0
Co1653 Co 0.05587 0.58296 0.12954 0.0
O1654 O 0.06881 0.57751 0.10324 0.0
C1655 C 0.04054 0.56114 0.06053 0.0
O1656 O 0.02624 0.56125 0.07608 0.0
C1657 C 0.09346 0.56589 0.14038 0.0
O1658 O 0.10878 0.58212 0.12607 0.0
O1659 O 0.08885 0.61653 0.13439 0.0
O1660 O 0.10703 0.63151 0.10312 0.0
H1661 H 0.03793 0.63424 0.18281 0.0
H1662 H 0.08595 0.55384 0.07862 0.0
O1663 O 0.06518 0.57713 0.06027 0.0
H1664 H 0.17923 0.62251 0.08087 0.0
H1665 H 0.12852 0.63695 0.01237 0.0
H1666 H 0.10026 0.65978 0.07714 0.0
H1667 H 0.1445 0.63429 0.08193 0.0
H1668 H 0.10739 0.60409 0.04007 0.0
O1669 O 0.07121 0.5637 0.14417 0.0
H1670 H 0.054 0.62742 0.14944 0.0
H1671 H 0.03045 0.54898 0.16624 0.0
H1672 H 0.12151 0.69331 0.04993 0.0
H1673 H 0.12004 0.54119 0.07729 0.0
H1674 H 0.1358 0.68196 0.01726 0.0
H1675 H 0.16706 0.57565 0.0785 0.0
O1676 O 0.05812 0.61379 0.08341 0.0
H1677 H 0.0022 0.48779 0.11014 0.0
H1678 H 0.99913 0.56664 0.13148 0.0
H1679 H 0.95783 0.52555 0.12452 0.0
H1680 H 0.95921 0.48574 0.11378 0.0
H1681 H 0.04303 0.52934 0.11711 0.0
H1682 H 0.01431 0.55498 0.19988 0.0
H1683 H 0.01791 0.59784 0.2083 0.0
O1684 O 0.04077 0.60262 0.11542 0.0
C1685 C 0.10638 0.63392 0.12273 0.0
C1686 C 0.03615 0.61544 0.17929 0.0
C1687 C 0.02293 0.57097 0.18888 0.0
N1688 N 0.04294 0.58777 0.15583 0.0
C1689 C 0.04513 0.61144 0.16039 0.0
C1690 C 0.03215 0.5677 0.16983 0.0
C1691 C 0.02495 0.59502 0.19359 0.0
C1692 C 0.10638 0.56896 0.07894 0.0
N1693 N 0.11323 0.59478 0.08031 0.0
C1694 C 0.12559 0.56167 0.07826 0.0
C1695 C 0.15197 0.58102 0.07898 0.0
C1696 C 0.15881 0.60731 0.08033 0.0
C1697 C 0.13906 0.61387 0.081 0.0
C1698 C 0.12243 0.64215 0.02655 0.0
C1699 C 0.10659 0.65476 0.06302 0.0
C1700 C 0.11041 0.62361 0.04227 0.0
N1701 N 0.10282 0.6301 0.06026 0.0
C1702 C 0.11853 0.67379 0.04764 0.0
C1703 C 0.12652 0.6674 0.02931 0.0
C1704 C 0.04272 0.61295 0.09768 0.0
C1705 C 0.00134 0.50498 0.11487 0.0
C1706 C -0.00011 0.54941 0.1268 0.0
C1707 C 0.97644 0.52619 0.12291 0.0
C1708 C 0.97722 0.50385 0.11689 0.0
N1709 N 0.02345 0.55033 0.12483 0.0
C1710 C 0.02439 0.52852 0.11893 0.0
Co1711 Co 0.39541 0.48349 0.08263 0.0
Co1712 Co 0.41771 0.47378 0.12943 0.0
O1713 O 0.42245 0.49249 0.10347 0.0
C1714 C 0.43746 0.48028 0.06058 0.0
O1715 O 0.43743 0.46596 0.07614 0.0
C1716 C 0.43372 0.52783 0.14146 0.0
O1717 O 0.41602 0.52613 0.12825 0.0
O1718 O 0.38406 0.47276 0.13509 0.0
O1719 O 0.36873 0.47747 0.10444 0.0
H1720 H 0.36804 0.40387 0.18258 0.0
H1721 H 0.44606 0.5333 0.07928 0.0
O1722 O 0.42174 0.48927 0.06053 0.0
H1723 H 0.37849 0.55928 0.08342 0.0
H1724 H 0.36139 0.49412 0.01402 0.0
H1725 H 0.33936 0.44276 0.07859 0.0
H1726 H 0.36599 0.51256 0.08366 0.0
H1727 H 0.39482 0.50526 0.04115 0.0
O1728 O 0.43717 0.50831 0.1442 0.0
H1729 H 0.37388 0.42712 0.14953 0.0
H1730 H 0.45264 0.48214 0.16539 0.0
H1731 H 0.30527 0.43107 0.05195 0.0
H1732 H 0.45943 0.58025 0.07883 0.0
H1733 H 0.31622 0.45685 0.01939 0.0
H1734 H 0.42552 0.5935 0.081 0.0
O1735 O 0.38511 0.44574 0.08384 0.0
H1736 H 0.51249 0.51615 0.10856 0.0
H1737 H 0.43443 0.43364 0.13006 0.0
H1738 H 0.47551 0.43384 0.12204 0.0
H1739 H 0.51492 0.47533 0.11122 0.0
H1740 H 0.47097 0.51502 0.11658 0.0
H1741 H 0.44763 0.45963 0.1987 0.0
H1742 H 0.4051 0.42013 0.20743 0.0
O1743 O 0.3979 0.43918 0.11506 0.0
C1744 C 0.36663 0.47365 0.12397 0.0
C1745 C 0.3867 0.42099 0.17892 0.0
C1746 C 0.43135 0.45232 0.18798 0.0
N1747 N 0.41364 0.45577 0.15546 0.0
C1748 C 0.39014 0.43417 0.16019 0.0
C1749 C 0.43407 0.465 0.16911 0.0
C1750 C 0.40749 0.43015 0.19286 0.0
C1751 C 0.43117 0.53891 0.08002 0.0
N1752 N 0.40527 0.52022 0.08144 0.0
C1753 C 0.43887 0.56552 0.07985 0.0
C1754 C 0.41983 0.57294 0.0811 0.0
C1755 C 0.39344 0.55376 0.08247 0.0
C1756 C 0.38648 0.52733 0.08265 0.0
C1757 C 0.35637 0.48278 0.02816 0.0
C1758 C 0.34421 0.45417 0.06452 0.0
C1759 C 0.37522 0.48896 0.04356 0.0
N1760 N 0.36896 0.4748 0.06149 0.0
C1761 C 0.32486 0.44741 0.04946 0.0
C1762 C 0.33102 0.46187 0.03119 0.0
C1763 C 0.3866 0.43098 0.09758 0.0
C1764 C 0.49548 0.49797 0.11333 0.0
C1765 C 0.4515 0.45176 0.12535 0.0
C1766 C 0.47471 0.45177 0.12086 0.0
C1767 C 0.49682 0.47505 0.11479 0.0
N1768 N 0.45037 0.47434 0.12392 0.0
C1769 C 0.47195 0.49724 0.11797 0.0
Co1770 Co 0.08808 0.48226 0.58184 0.0
Co1771 Co 0.05781 0.47418 0.62924 0.0
O1772 O 0.07123 0.49238 0.60302 0.0
C1773 C 0.04342 0.48086 0.5604 0.0
O1774 O 0.02912 0.46669 0.57603 0.0
C1775 C 0.09565 0.52853 0.64085 0.0
O1776 O 0.11175 0.52697 0.62763 0.0
O1777 O 0.09095 0.47399 0.63462 0.0
O1778 O 0.10803 0.47474 0.60323 0.0
H1779 H 0.03902 0.40519 0.68284 0.0
H1780 H 0.08983 0.53335 0.57854 0.0
O1781 O 0.06801 0.48925 0.5601 0.0
H1782 H 0.18221 0.55512 0.58249 0.0
H1783 H 0.13137 0.49138 0.51279 0.0
H1784 H 0.10039 0.43945 0.57699 0.0
H1785 H 0.14648 0.509 0.58286 0.0
H1786 H 0.11068 0.50382 0.54039 0.0
O1787 O 0.07277 0.5089 0.64363 0.0
H1788 H 0.05574 0.42802 0.64953 0.0
H1789 H 0.03176 0.48287 0.66547 0.0
H1790 H 0.12113 0.42642 0.54987 0.0
H1791 H 0.12495 0.57972 0.57798 0.0
H1792 H 0.1368 0.45249 0.51749 0.0
H1793 H 0.17152 0.59085 0.58004 0.0
O1794 O 0.05963 0.44509 0.58318 0.0
H1795 H 0.00427 0.51529 0.60842 0.0
H1796 H 0.00102 0.43368 0.63089 0.0
H1797 H 0.9598 0.43331 0.62323 0.0
H1798 H 0.96127 0.47434 0.61192 0.0
H1799 H 0.04503 0.51474 0.61607 0.0
H1800 H 0.01499 0.46078 0.69903 0.0
H1801 H 0.01848 0.42157 0.70786 0.0
O1802 O 0.04278 0.43922 0.61527 0.0
C1803 C 0.10784 0.47293 0.62291 0.0
C1804 C 0.03732 0.4222 0.67915 0.0
C1805 C 0.02386 0.45343 0.68825 0.0
N1806 N 0.04452 0.4566 0.65551 0.0
C1807 C 0.04667 0.43516 0.66029 0.0
C1808 C 0.03344 0.46588 0.66925 0.0
C1809 C 0.02581 0.43142 0.69318 0.0
C1810 C 0.11006 0.53803 0.57921 0.0
N1811 N 0.11611 0.5185 0.58061 0.0
C1812 C 0.12985 0.56433 0.57899 0.0
C1813 C 0.15598 0.57056 0.58018 0.0
C1814 C 0.16199 0.55052 0.58157 0.0
C1815 C 0.14168 0.52445 0.5818 0.0
C1816 C 0.1247 0.47992 0.52685 0.0
C1817 C 0.10735 0.451 0.56301 0.0
C1818 C 0.11294 0.48684 0.54251 0.0
N1819 N 0.10461 0.47253 0.56036 0.0
C1820 C 0.11899 0.44348 0.54767 0.0
C1821 C 0.12774 0.45809 0.5295 0.0
C1822 C 0.04431 0.43059 0.59748 0.0
C1823 C 0.00337 0.49731 0.61339 0.0
C1824 C 0.00182 0.4516 0.62595 0.0
C1825 C 0.97841 0.45128 0.62167 0.0
C1826 C 0.97925 0.47431 0.61533 0.0
N1827 N 0.0254 0.47425 0.62403 0.0
C1828 C 0.02638 0.4969 0.61783 0.0
Co1829 Co 0.52023 0.60544 0.58113 0.0
Co1830 Co 0.52585 0.58495 0.62991 0.0
O1831 O 0.50877 0.57893 0.60292 0.0
C1832 C 0.51938 0.56012 0.561 0.0
O1833 O 0.53146 0.55842 0.57748 0.0
C1834 C 0.47019 0.56567 0.6392 0.0
O1835 O 0.47076 0.5813 0.6245 0.0
O1836 O 0.52405 0.61738 0.63393 0.0
O1837 O 0.52817 0.63387 0.60186 0.0
H1838 H 0.59091 0.63863 0.68501 0.0
H1839 H 0.46833 0.55722 0.57731 0.0
O1840 O 0.51296 0.5778 0.55988 0.0
H1841 H 0.44985 0.63018 0.57846 0.0
H1842 H 0.51471 0.63908 0.51081 0.0
H1843 H 0.56463 0.65969 0.57602 0.0
H1844 H 0.49536 0.63888 0.5804 0.0
H1845 H 0.50031 0.60647 0.53896 0.0
O1846 O 0.49066 0.56444 0.64354 0.0
H1847 H 0.56961 0.63074 0.65083 0.0
H1848 H 0.517 0.55139 0.66696 0.0
H1849 H 0.57962 0.69295 0.54835 0.0
H1850 H 0.42254 0.54764 0.57511 0.0
H1851 H 0.55458 0.68272 0.51546 0.0
H1852 H 0.41306 0.58428 0.57576 0.0
O1853 O 0.55671 0.61244 0.58335 0.0
H1854 H 0.48908 0.49012 0.61118 0.0
H1855 H 0.56795 0.57106 0.63402 0.0
H1856 H 0.57051 0.53101 0.62809 0.0
H1857 H 0.53086 0.49016 0.6166 0.0
H1858 H 0.48745 0.53068 0.61713 0.0
H1859 H 0.53756 0.55846 0.70139 0.0
H1860 H 0.57487 0.60231 0.71055 0.0
O1861 O 0.56155 0.60588 0.61698 0.0
C1862 C 0.5273 0.63553 0.6215 0.0
C1863 C 0.57474 0.6194 0.68116 0.0
C1864 C 0.54477 0.57442 0.69037 0.0
N1865 N 0.54229 0.59057 0.65684 0.0
C1866 C 0.56267 0.6148 0.66181 0.0
C1867 C 0.53319 0.57054 0.67087 0.0
C1868 C 0.56571 0.59903 0.6955 0.0
C1869 C 0.46437 0.57327 0.57735 0.0
N1870 N 0.48449 0.59857 0.5789 0.0
C1871 C 0.4384 0.56773 0.57621 0.0
C1872 C 0.4331 0.58829 0.57662 0.0
C1873 C 0.45373 0.61405 0.57815 0.0
C1874 C 0.47945 0.61885 0.57931 0.0
C1875 C 0.52575 0.64379 0.52509 0.0
C1876 C 0.55353 0.65517 0.56181 0.0
C1877 C 0.51771 0.6254 0.54107 0.0
N1878 N 0.53148 0.63128 0.55918 0.0
C1879 C 0.56216 0.67405 0.54617 0.0
C1880 C 0.54812 0.66828 0.52771 0.0
C1881 C 0.57068 0.61363 0.5988 0.0
C1882 C 0.50646 0.50777 0.61625 0.0
C1883 C 0.55063 0.55338 0.62898 0.0
C1884 C 0.55218 0.53074 0.62569 0.0
C1885 C 0.52993 0.50782 0.61926 0.0
N1886 N 0.52754 0.55316 0.62601 0.0
C1887 C 0.50563 0.53076 0.61974 0.0
Co1888 Co 0.39313 0.9108 0.57935 0.0
Co1889 Co 0.41461 0.94011 0.62718 0.0
O1890 O 0.41991 0.92744 0.60073 0.0
C1891 C 0.43655 0.95591 0.55837 0.0
O1892 O 0.43647 0.97006 0.57404 0.0
C1893 C 0.43248 0.90301 0.63769 0.0
O1894 O 0.41651 0.88766 0.62327 0.0
O1895 O 0.38149 0.90665 0.63208 0.0
O1896 O 0.36547 0.8903 0.60049 0.0
H1897 H 0.36299 0.95688 0.68087 0.0
H1898 H 0.44269 0.90948 0.57566 0.0
O1899 O 0.42032 0.93134 0.55786 0.0
H1900 H 0.37247 0.81685 0.57863 0.0
H1901 H 0.35982 0.86881 0.50978 0.0
H1902 H 0.33794 0.89822 0.5744 0.0
H1903 H 0.36179 0.85236 0.5798 0.0
H1904 H 0.39264 0.8891 0.5376 0.0
O1905 O 0.43433 0.92509 0.64155 0.0
H1906 H 0.36992 0.94117 0.64735 0.0
H1907 H 0.44866 0.96556 0.66386 0.0
H1908 H 0.30446 0.87787 0.54706 0.0
H1909 H 0.45422 0.87459 0.57423 0.0
H1910 H 0.31533 0.863 0.51447 0.0
H1911 H 0.41897 0.82789 0.57581 0.0
O1912 O 0.38418 0.93907 0.58103 0.0
H1913 H 0.50949 0.99481 0.60724 0.0
H1914 H 0.43039 0.99673 0.6297 0.0
H1915 H 0.47115 0.03833 0.62272 0.0
H1916 H 0.51109 0.03753 0.61142 0.0
H1917 H 0.46824 0.95367 0.61423 0.0
H1918 H 0.44252 0.98132 0.69763 0.0
H1919 H 0.39946 0.97712 0.70627 0.0
O1920 O 0.39464 0.95519 0.61335 0.0
C1921 C 0.36373 0.88997 0.62018 0.0
C1922 C 0.38186 0.9589 0.67726 0.0
C1923 C 0.4265 0.97259 0.68667 0.0
N1924 N 0.40972 0.95266 0.6536 0.0
C1925 C 0.38592 0.95012 0.65828 0.0
C1926 C 0.42984 0.96358 0.66755 0.0
C1927 C 0.40233 0.97023 0.69151 0.0
C1928 C 0.42722 0.8892 0.5761 0.0
N1929 N 0.40159 0.88296 0.57771 0.0
C1930 C 0.43388 0.86953 0.57539 0.0
C1931 C 0.41409 0.84333 0.57632 0.0
C1932 C 0.388 0.83713 0.57792 0.0
C1933 C 0.38208 0.85732 0.57863 0.0
C1934 C 0.35482 0.87514 0.52394 0.0
C1935 C 0.34274 0.89161 0.56033 0.0
C1936 C 0.37333 0.88667 0.53973 0.0
N1937 N 0.3671 0.89457 0.55769 0.0
C1938 C 0.32374 0.88019 0.54487 0.0
C1939 C 0.32986 0.87188 0.52658 0.0
C1940 C 0.38471 0.95402 0.59553 0.0
C1941 C 0.49224 0.99542 0.61221 0.0
C1942 C 0.44767 0.99622 0.62475 0.0
C1943 C 0.47071 0.01984 0.62086 0.0
C1944 C 0.49311 0.01938 0.61453 0.0
N1945 N 0.44698 0.9728 0.62247 0.0
C1946 C 0.46886 0.97219 0.61627 0.0
Co1947 Co 0.14644 0.41974 0.25209 0.0
Co1948 Co 0.14166 0.39242 0.20404 0.0
O1949 O 0.15869 0.40495 0.23079 0.0
C1950 C 0.14885 0.37668 0.27289 0.0
O1951 O 0.13669 0.36249 0.2566 0.0
C1952 C 0.19633 0.43059 0.19275 0.0
O1953 O 0.194 0.44792 0.20396 0.0
O1954 O 0.14213 0.42592 0.19905 0.0
O1955 O 0.13744 0.43878 0.23083 0.0
H1956 H 0.07632 0.377 0.14802 0.0
H1957 H 0.1993 0.42562 0.25556 0.0
O1958 O 0.15479 0.40066 0.27377 0.0
H1959 H 0.21421 0.5158 0.2533 0.0
H1960 H 0.15066 0.46013 0.32165 0.0
H1961 H 0.10083 0.42781 0.25661 0.0
H1962 H 0.1693 0.47781 0.25208 0.0
H1963 H 0.16601 0.44215 0.29397 0.0
O1964 O 0.17713 0.40727 0.19096 0.0
H1965 H 0.09724 0.39215 0.18217 0.0
H1966 H 0.15178 0.36714 0.16801 0.0
H1967 H 0.08488 0.44583 0.2838 0.0
H1968 H 0.24454 0.46306 0.25697 0.0
H1969 H 0.10987 0.46214 0.3166 0.0
H1970 H 0.2522 0.50853 0.2558 0.0
O1971 O 0.1104 0.38936 0.2502 0.0
H1972 H 0.18063 0.33703 0.22517 0.0
H1973 H 0.10065 0.33592 0.20097 0.0
H1974 H 0.09929 0.29411 0.20814 0.0
H1975 H 0.13949 0.2945 0.22032 0.0
H1976 H 0.18107 0.37839 0.21801 0.0
H1977 H 0.13159 0.3519 0.13364 0.0
H1978 H 0.09351 0.3567 0.12349 0.0
O1979 O 0.10584 0.37734 0.21672 0.0
C1980 C 0.13814 0.44068 0.21114 0.0
C1981 C 0.09284 0.3747 0.15229 0.0
C1982 C 0.12388 0.36065 0.14421 0.0
N1983 N 0.12551 0.38027 0.17715 0.0
C1984 C 0.1047 0.38316 0.17163 0.0
C1985 C 0.13525 0.36935 0.16367 0.0
C1986 C 0.10251 0.36334 0.13853 0.0
C1987 C 0.20249 0.44536 0.25523 0.0
N1988 N 0.1817 0.44954 0.25387 0.0
C1989 C 0.22814 0.46648 0.25595 0.0
C1990 C 0.23243 0.49199 0.25526 0.0
C1991 C 0.21112 0.49608 0.25385 0.0
C1992 C 0.18574 0.47449 0.25313 0.0
C1993 C 0.13964 0.45315 0.3074 0.0
C1994 C 0.11191 0.43506 0.27078 0.0
C1995 C 0.14821 0.44292 0.2917 0.0
N1996 N 0.13446 0.43419 0.27363 0.0
C1997 C 0.10274 0.44515 0.28615 0.0
C1998 C 0.11675 0.45428 0.30456 0.0
C1999 C 0.09661 0.3761 0.23483 0.0
C2000 C 0.16301 0.3366 0.21981 0.0
C2001 C 0.11821 0.33626 0.20632 0.0
C2002 C 0.11734 0.31252 0.21031 0.0
C2003 C 0.13991 0.31275 0.21712 0.0
N2004 N 0.14095 0.35957 0.20899 0.0
C2005 C 0.16317 0.35996 0.21563 0.0
Co2006 Co 0.57963 0.72823 0.25204 0.0
Co2007 Co 0.60842 0.74911 0.204 0.0
O2008 O 0.59639 0.75489 0.23062 0.0
C2009 C 0.62494 0.77133 0.2733 0.0
O2010 O 0.63925 0.77127 0.25774 0.0
C2011 C 0.57203 0.76798 0.19389 0.0
O2012 O 0.5566 0.75194 0.20825 0.0
O2013 O 0.5746 0.71644 0.1993 0.0
O2014 O 0.55875 0.70061 0.23094 0.0
H2015 H 0.62224 0.69626 0.14956 0.0
H2016 H 0.57875 0.77799 0.25571 0.0
O2017 O 0.60031 0.75532 0.27356 0.0
H2018 H 0.48589 0.70828 0.25313 0.0
H2019 H 0.53759 0.69502 0.32164 0.0
H2020 H 0.56654 0.6729 0.25688 0.0
H2021 H 0.52114 0.69724 0.25182 0.0
H2022 H 0.55816 0.7279 0.29388 0.0
O2023 O 0.59396 0.76952 0.1899 0.0
H2024 H 0.6075 0.70368 0.18334 0.0
H2025 H 0.63431 0.78308 0.16738 0.0
H2026 H 0.54587 0.63935 0.28416 0.0
H2027 H 0.54412 0.78988 0.25728 0.0
H2028 H 0.53124 0.65034 0.31682 0.0
H2029 H 0.4973 0.75489 0.25591 0.0
O2030 O 0.60785 0.71915 0.25029 0.0
H2031 H 0.66523 0.84378 0.22376 0.0
H2032 H 0.66461 0.76344 0.20118 0.0
H2033 H 0.70685 0.80359 0.20796 0.0
H2034 H 0.70733 0.84414 0.21931 0.0
H2035 H 0.62343 0.80314 0.21696 0.0
H2036 H 0.64915 0.77648 0.13334 0.0
H2037 H 0.64324 0.73284 0.12429 0.0
O2038 O 0.62277 0.72831 0.2175 0.0
C2039 C 0.558 0.69865 0.21124 0.0
C2040 C 0.62503 0.7154 0.15336 0.0
C2041 C 0.6401 0.76042 0.14424 0.0
N2042 N 0.62033 0.74386 0.1774 0.0
C2043 C 0.61682 0.71974 0.17249 0.0
C2044 C 0.63163 0.76403 0.16352 0.0
C2045 C 0.63678 0.73592 0.13918 0.0
C2046 C 0.55842 0.76264 0.25535 0.0
N2047 N 0.55197 0.73695 0.25377 0.0
C2048 C 0.5389 0.7695 0.25615 0.0
C2049 C 0.51263 0.74986 0.25533 0.0
C2050 C 0.50622 0.7237 0.25375 0.0
C2051 C 0.52626 0.71758 0.25296 0.0
C2052 C 0.54383 0.68997 0.30746 0.0
C2053 C 0.56005 0.67776 0.271 0.0
C2054 C 0.55552 0.70852 0.29171 0.0
N2055 N 0.56329 0.70222 0.27371 0.0
C2056 C 0.54844 0.65872 0.28641 0.0
C2057 C 0.54026 0.66491 0.30474 0.0
C2058 C 0.62204 0.71894 0.23546 0.0
C2059 C 0.66528 0.82626 0.21875 0.0
C2060 C 0.66466 0.78101 0.20614 0.0
C2061 C 0.68864 0.80369 0.20992 0.0
C2062 C 0.68889 0.82644 0.21629 0.0
N2063 N 0.6416 0.78101 0.20856 0.0
C2064 C 0.64168 0.80322 0.2148 0.0
Co2065 Co 0.27097 0.848 0.25059 0.0
Co2066 Co 0.24747 0.85874 0.20484 0.0
O2067 O 0.24352 0.83925 0.23018 0.0
C2068 C 0.22936 0.85105 0.27338 0.0
O2069 O 0.22916 0.86534 0.25789 0.0
C2070 C 0.23258 0.80559 0.19023 0.0
O2071 O 0.25197 0.80741 0.20147 0.0
O2072 O 0.28151 0.86077 0.19836 0.0
O2073 O 0.29703 0.8542 0.22827 0.0
H2074 H 0.29519 0.93119 0.15318 0.0
H2075 H 0.22024 0.79826 0.25403 0.0
O2076 O 0.2451 0.84208 0.27318 0.0
H2077 H 0.28746 0.77199 0.24811 0.0
H2078 H 0.30619 0.83632 0.31823 0.0
H2079 H 0.32721 0.88843 0.25412 0.0
H2080 H 0.30013 0.81876 0.24836 0.0
H2081 H 0.27227 0.82567 0.29163 0.0
O2082 O 0.22803 0.82461 0.18953 0.0
H2083 H 0.29028 0.90689 0.1855 0.0
H2084 H 0.21194 0.85078 0.16938 0.0
H2085 H 0.36178 0.89965 0.28024 0.0
H2086 H 0.20671 0.75127 0.25401 0.0
H2087 H 0.35134 0.87349 0.31257 0.0
H2088 H 0.24044 0.73787 0.25098 0.0
O2089 O 0.28163 0.88591 0.24991 0.0
H2090 H 0.15296 0.81411 0.22688 0.0
H2091 H 0.22961 0.89802 0.20584 0.0
H2092 H 0.18823 0.89665 0.21492 0.0
H2093 H 0.14954 0.85445 0.22551 0.0
H2094 H 0.19477 0.81641 0.21784 0.0
H2095 H 0.21605 0.87437 0.13679 0.0
H2096 H 0.25789 0.91494 0.12856 0.0
O2097 O 0.26684 0.89284 0.21985 0.0
C2098 C 0.299 0.85916 0.2089 0.0
C2099 C 0.27684 0.91358 0.15662 0.0
C2100 C 0.23243 0.88166 0.1474 0.0
N2101 N 0.2508 0.87754 0.17937 0.0
C2102 C 0.27392 0.89977 0.17492 0.0
C2103 C 0.23024 0.86836 0.16585 0.0
C2104 C 0.25591 0.90443 0.1428 0.0
C2105 C 0.23505 0.79259 0.25287 0.0
N2106 N 0.26095 0.81122 0.25127 0.0
C2107 C 0.22726 0.76595 0.2528 0.0
C2108 C 0.2462 0.75845 0.25107 0.0
C2109 C 0.27258 0.77757 0.24945 0.0
C2110 C 0.27964 0.80402 0.24954 0.0
C2111 C 0.31099 0.84783 0.30419 0.0
C2112 C 0.32257 0.87686 0.26809 0.0
C2113 C 0.29186 0.84192 0.2891 0.0
N2114 N 0.29783 0.85629 0.27128 0.0
C2115 C 0.3422 0.88335 0.28285 0.0
C2116 C 0.33632 0.86868 0.301 0.0
C2117 C 0.27919 0.9009 0.23694 0.0
C2118 C 0.16966 0.83259 0.22223 0.0
C2119 C 0.21286 0.87959 0.21046 0.0
C2120 C 0.18948 0.87893 0.21555 0.0
C2121 C 0.16777 0.85524 0.22148 0.0
N2122 N 0.21455 0.85728 0.21119 0.0
C2123 C 0.19336 0.83399 0.217 0.0
H2124 H 0.2676 0.14969 0.13724 0.0
H2125 H 0.34395 0.20839 0.11506 0.0
H2126 H 0.28814 0.13951 0.16566 0.0
H2127 H 0.36451 0.19911 0.14399 0.0
H2128 H 0.39519 0.15934 0.18661 0.0
H2129 H 0.3744 0.16802 0.15754 0.0
H2130 H 0.3102 0.15615 0.19724 0.0
H2131 H 0.33051 0.14632 0.22607 0.0
C2132 C 0.28879 0.16055 0.13853 0.0
C2133 C 0.30417 0.17985 0.12391 0.0
C2134 C 0.30059 0.15485 0.15492 0.0
C2135 C 0.32803 0.16855 0.15725 0.0
C2136 C 0.34337 0.18783 0.14255 0.0
C2137 C 0.33158 0.19329 0.126 0.0
C2138 C 0.37662 0.15858 0.18911 0.0
C2139 C 0.36444 0.15208 0.2086 0.0
C2140 C 0.36475 0.16372 0.17246 0.0
C2141 C 0.34058 0.16284 0.17497 0.0
C2142 C 0.32854 0.15653 0.19458 0.0
C2143 C 0.34026 0.15105 0.21117 0.0
H2144 H 0.81483 0.15172 0.10732 0.0
H2145 H 0.82829 0.10033 0.14669 0.0
H2146 H 0.82424 0.18171 0.13619 0.0
H2147 H 0.83659 0.1297 0.17583 0.0
H2148 H 0.8755 0.2001 0.21873 0.0
H2149 H 0.86713 0.17083 0.18958 0.0
H2150 H 0.80693 0.18655 0.16772 0.0
H2151 H 0.81618 0.21675 0.19644 0.0
C2152 C 0.81962 0.14674 0.12221 0.0
C2153 C 0.82083 0.12368 0.12474 0.0
C2154 C 0.82485 0.16386 0.13882 0.0
C2155 C 0.83109 0.15815 0.15844 0.0
C2156 C 0.83229 0.13501 0.16091 0.0
C2157 C 0.8274 0.11807 0.14422 0.0
C2158 C 0.86047 0.1973 0.2077 0.0
C2159 C 0.84654 0.2108 0.20986 0.0
C2160 C 0.85554 0.18036 0.19102 0.0
C2161 C 0.83632 0.17623 0.17622 0.0
C2162 C 0.82221 0.18958 0.17856 0.0
C2163 C 0.82737 0.20677 0.19511 0.0
H2164 H 0.78306 0.60003 0.19621 0.0
H2165 H 0.80009 0.67643 0.21772 0.0
H2166 H 0.813 0.62037 0.16727 0.0
H2167 H 0.82913 0.69676 0.18831 0.0
H2168 H 0.89911 0.72759 0.14501 0.0
H2169 H 0.87006 0.70703 0.17438 0.0
H2170 H 0.81784 0.64184 0.13548 0.0
H2171 H 0.84756 0.66195 0.10636 0.0
C2172 C 0.79306 0.62118 0.19466 0.0
C2173 C 0.78921 0.63662 0.20927 0.0
C2174 C 0.81011 0.63286 0.17797 0.0
C2175 C 0.82351 0.66026 0.17533 0.0
C2176 C 0.81956 0.67566 0.18997 0.0
C2177 C 0.80275 0.66399 0.20681 0.0
C2178 C 0.88142 0.70886 0.14275 0.0
C2179 C 0.87566 0.69636 0.12338 0.0
C2180 C 0.86464 0.69711 0.15958 0.0
C2181 C 0.8415 0.67272 0.15739 0.0
C2182 C 0.83569 0.66036 0.13791 0.0
C2183 C 0.85265 0.67197 0.12114 0.0
H2184 H 0.20871 0.34333 0.38522 0.0
H2185 H 0.15016 0.26727 0.36245 0.0
H2186 H 0.20052 0.36419 0.35593 0.0
H2187 H 0.14108 0.28813 0.33362 0.0
H2188 H 0.14951 0.33069 0.27315 0.0
H2189 H 0.15883 0.31034 0.30222 0.0
H2190 H 0.16999 0.37447 0.34169 0.0
H2191 H 0.16178 0.3953 0.31236 0.0
C2192 C 0.19387 0.33108 0.37406 0.0
C2193 C 0.18014 0.30365 0.37611 0.0
C2194 C 0.18905 0.34305 0.3573 0.0
C2195 C 0.17013 0.3279 0.34232 0.0
C2196 C 0.15615 0.30044 0.34459 0.0
C2197 C 0.16121 0.28845 0.36122 0.0
C2198 C 0.15403 0.34045 0.28804 0.0
C2199 C 0.15492 0.36459 0.29048 0.0
C2200 C 0.1592 0.3287 0.30477 0.0
C2201 C 0.16506 0.34065 0.3244 0.0
C2202 C 0.16598 0.36487 0.32676 0.0
C2203 C 0.16114 0.37678 0.30997 0.0
H2204 H 0.67717 0.80035 0.28225 0.0
H2205 H 0.60087 0.78357 0.30389 0.0
H2206 H 0.69761 0.82933 0.31169 0.0
H2207 H 0.62132 0.81342 0.33284 0.0
H2208 H 0.66284 0.84748 0.39375 0.0
H2209 H 0.6428 0.81782 0.36459 0.0
H2210 H 0.70791 0.87028 0.3257 0.0
H2211 H 0.7284 0.89929 0.35509 0.0
C2212 C 0.66479 0.80307 0.29319 0.0
C2213 C 0.63741 0.78962 0.29078 0.0
C2214 C 0.67651 0.81982 0.31004 0.0
C2215 C 0.66116 0.82377 0.32473 0.0
C2216 C 0.63376 0.8105 0.32211 0.0
C2217 C 0.62202 0.79351 0.30541 0.0
C2218 C 0.67286 0.85262 0.37896 0.0
C2219 C 0.69719 0.8757 0.37671 0.0
C2220 C 0.6613 0.8357 0.36218 0.0
C2221 C 0.67365 0.84163 0.34269 0.0
C2222 C 0.698 0.8648 0.34051 0.0
C2223 C 0.70971 0.88154 0.35735 0.0
H2224 H 0.1009 0.82778 0.35374 0.0
H2225 H 0.15136 0.81337 0.39344 0.0
H2226 H 0.13035 0.8357 0.32476 0.0
H2227 H 0.18149 0.82241 0.3647 0.0
H2228 H 0.21715 0.81499 0.30429 0.0
H2229 H 0.18691 0.80567 0.33304 0.0
H2230 H 0.17163 0.8663 0.3115 0.0
H2231 H 0.20088 0.87471 0.28236 0.0
C2232 C 0.11844 0.82655 0.35631 0.0
C2233 C 0.12379 0.81992 0.37586 0.0
C2234 C 0.13544 0.83125 0.33972 0.0
C2235 C 0.15842 0.82979 0.34233 0.0
C2236 C 0.16379 0.82328 0.36197 0.0
C2237 C 0.14659 0.81824 0.37851 0.0
C2238 C 0.20728 0.82628 0.30572 0.0
C2239 C 0.21136 0.84555 0.29104 0.0
C2240 C 0.19005 0.82106 0.32228 0.0
C2241 C 0.17674 0.83521 0.32467 0.0
C2242 C 0.18107 0.85463 0.31 0.0
C2243 C 0.19802 0.8596 0.29333 0.0
H2244 H 0.6694 0.85292 0.77336 0.0
H2245 H 0.60405 0.83908 0.81233 0.0
H2246 H 0.68966 0.84337 0.80238 0.0
H2247 H 0.62478 0.83066 0.84159 0.0
H2248 H 0.65565 0.79109 0.8845 0.0
H2249 H 0.63509 0.79995 0.85535 0.0
H2250 H 0.71132 0.8603 0.83408 0.0
H2251 H 0.73189 0.85055 0.86273 0.0
C2252 C 0.65948 0.84806 0.78819 0.0
C2253 C 0.63514 0.84673 0.79057 0.0
C2254 C 0.67117 0.84274 0.80489 0.0
C2255 C 0.65894 0.8363 0.82442 0.0
C2256 C 0.63459 0.83509 0.82674 0.0
C2257 C 0.62275 0.84007 0.80998 0.0
C2258 C 0.668 0.80627 0.8736 0.0
C2259 C 0.69539 0.82006 0.87587 0.0
C2260 C 0.6562 0.81148 0.85692 0.0
C2261 C 0.6715 0.83085 0.84227 0.0
C2262 C 0.69892 0.84489 0.84478 0.0
C2263 C 0.71073 0.83944 0.86131 0.0
H2264 H 0.14926 0.88345 0.86295 0.0
H2265 H 0.20804 0.86573 0.88474 0.0
H2266 H 0.13934 0.85314 0.83418 0.0
H2267 H 0.19905 0.83641 0.85554 0.0
H2268 H 0.15988 0.76629 0.81285 0.0
H2269 H 0.16809 0.79551 0.84202 0.0
H2270 H 0.15588 0.84769 0.80247 0.0
H2271 H 0.1465 0.81775 0.77352 0.0
C2272 C 0.16019 0.87321 0.86151 0.0
C2273 C 0.17939 0.87694 0.87613 0.0
C2274 C 0.15464 0.85595 0.84492 0.0
C2275 C 0.1684 0.84228 0.84244 0.0
C2276 C 0.18769 0.84617 0.8571 0.0
C2277 C 0.19298 0.86314 0.87381 0.0
C2278 C 0.15895 0.78401 0.8104 0.0
C2279 C 0.15253 0.78972 0.79091 0.0
C2280 C 0.16381 0.80088 0.82711 0.0
C2281 C 0.16276 0.82409 0.82467 0.0
C2282 C 0.15644 0.82981 0.80507 0.0
C2283 C 0.15122 0.81273 0.78842 0.0
H2284 H 0.11471 0.26631 0.86319 0.0
H2285 H 0.13186 0.34259 0.88513 0.0
H2286 H 0.14507 0.28688 0.83451 0.0
H2287 H 0.16131 0.36314 0.85599 0.0
H2288 H 0.23245 0.39415 0.81398 0.0
H2289 H 0.20249 0.37326 0.84279 0.0
H2290 H 0.15101 0.30898 0.80284 0.0
H2291 H 0.18163 0.32942 0.77428 0.0
C2292 C 0.12479 0.28747 0.86177 0.0
C2293 C 0.12091 0.30282 0.87645 0.0
C2294 C 0.1421 0.29929 0.84523 0.0
C2295 C 0.15572 0.32674 0.84283 0.0
C2296 C 0.1516 0.34202 0.85749 0.0
C2297 C 0.13455 0.33021 0.87416 0.0
C2298 C 0.21472 0.37555 0.81136 0.0
C2299 C 0.20943 0.3634 0.79187 0.0
C2300 C 0.19742 0.36362 0.82787 0.0
C2301 C 0.17421 0.33939 0.82522 0.0
C2302 C 0.16887 0.32738 0.80561 0.0
C2303 C 0.18636 0.33917 0.78917 0.0
H2304 H 0.79098 0.65752 0.61602 0.0
H2305 H 0.8512 0.73339 0.63779 0.0
H2306 H 0.79923 0.63665 0.64525 0.0
H2307 H 0.86034 0.71246 0.66656 0.0
H2308 H 0.85251 0.67007 0.72716 0.0
H2309 H 0.8433 0.69077 0.69826 0.0
H2310 H 0.82951 0.62569 0.65886 0.0
H2311 H 0.83758 0.60455 0.68801 0.0
C2312 C 0.80618 0.66973 0.62695 0.0
C2313 C 0.82039 0.6971 0.62463 0.0
C2314 C 0.81104 0.65774 0.64368 0.0
C2315 C 0.83049 0.67281 0.65834 0.0
C2316 C 0.84488 0.70023 0.65584 0.0
C2317 C 0.83978 0.71224 0.63925 0.0
C2318 C 0.84746 0.6602 0.71232 0.0
C2319 C 0.84574 0.63568 0.70986 0.0
C2320 C 0.84235 0.67214 0.69568 0.0
C2321 C 0.83571 0.65999 0.67613 0.0
C2322 C 0.83409 0.63546 0.67373 0.0
C2323 C 0.83887 0.62337 0.69043 0.0
H2324 H 0.32525 0.20141 0.71733 0.0
H2325 H 0.40126 0.21824 0.69493 0.0
H2326 H 0.30438 0.17215 0.68819 0.0
H2327 H 0.38034 0.188 0.66621 0.0
H2328 H 0.33689 0.15168 0.60614 0.0
H2329 H 0.35789 0.18221 0.63467 0.0
H2330 H 0.29399 0.13093 0.67503 0.0
H2331 H 0.27255 0.10111 0.64628 0.0
C2332 C 0.3375 0.19868 0.70625 0.0
C2333 C 0.3649 0.21215 0.70842 0.0
C2334 C 0.32551 0.18174 0.68959 0.0
C2335 C 0.34061 0.17755 0.67481 0.0
C2336 C 0.36807 0.19103 0.67706 0.0
C2337 C 0.38009 0.20825 0.69361 0.0
C2338 C 0.32735 0.14699 0.62112 0.0
C2339 C 0.30305 0.12403 0.62396 0.0
C2340 C 0.33946 0.16441 0.63754 0.0
C2341 C 0.3277 0.15911 0.65724 0.0
C2342 C 0.30343 0.13599 0.66003 0.0
C2343 C 0.29117 0.11877 0.64356 0.0
H2344 H 0.89895 0.17206 0.64539 0.0
H2345 H 0.84832 0.18656 0.60597 0.0
H2346 H 0.86958 0.16402 0.67447 0.0
H2347 H 0.81827 0.17737 0.63478 0.0
H2348 H 0.78265 0.18462 0.69509 0.0
H2349 H 0.813 0.1941 0.66641 0.0
H2350 H 0.82839 0.13353 0.6879 0.0
H2351 H 0.79903 0.12497 0.71701 0.0
C2352 C 0.88139 0.17327 0.6429 0.0
C2353 C 0.87597 0.17999 0.62342 0.0
C2354 C 0.86443 0.16851 0.65955 0.0
C2355 C 0.84145 0.16998 0.65704 0.0
C2356 C 0.83599 0.17653 0.63744 0.0
C2357 C 0.85314 0.18164 0.62086 0.0
C2358 C 0.79258 0.17339 0.69368 0.0
C2359 C 0.78847 0.15407 0.70832 0.0
C2360 C 0.80987 0.17869 0.67715 0.0
C2361 C 0.8232 0.16457 0.67475 0.0
C2362 C 0.81891 0.14516 0.68941 0.0
C2363 C 0.8019 0.14011 0.70606 0.0
H2364 H 0.93865 0.50497 0.48008 0.0
H2365 H 0.00327 0.51827 0.44044 0.0
H2366 H 0.95987 0.49681 0.50914 0.0
H2367 H 0.02401 0.50896 0.46925 0.0
H2368 H 0.0672 0.51674 0.52941 0.0
H2369 H 0.0463 0.52605 0.50071 0.0
H2370 H 0.97029 0.46624 0.52283 0.0
H2371 H 0.99115 0.45785 0.55197 0.0
C2372 C 0.95728 0.50587 0.47754 0.0
C2373 C 0.96933 0.51231 0.458 0.0
C2374 C 0.96941 0.50104 0.49418 0.0
C2375 C 0.9937 0.50218 0.49161 0.0
C2376 C 0.00558 0.50838 0.47195 0.0
C2377 C 0.9936 0.51355 0.45537 0.0
C2378 C 0.04602 0.50565 0.52814 0.0
C2379 C 0.03083 0.48659 0.54297 0.0
C2380 C 0.03401 0.51085 0.5116 0.0
C2381 C 0.00655 0.49688 0.50935 0.0
C2382 C 0.99142 0.47775 0.5242 0.0
C2383 C 0.00341 0.4728 0.54088 0.0
H2384 H 0.51725 0.44845 0.47121 0.0
H2385 H 0.45888 0.46662 0.44919 0.0
H2386 H 0.52688 0.47846 0.50018 0.0
H2387 H 0.46757 0.49562 0.47855 0.0
H2388 H 0.50665 0.56553 0.52146 0.0
H2389 H 0.49845 0.53636 0.49228 0.0
H2390 H 0.51018 0.48388 0.53185 0.0
H2391 H 0.51955 0.51378 0.56084 0.0
C2392 C 0.50635 0.45873 0.47264 0.0
C2393 C 0.48735 0.45522 0.45788 0.0
C2394 C 0.51173 0.47581 0.48934 0.0
C2395 C 0.49801 0.48953 0.49179 0.0
C2396 C 0.47892 0.48584 0.47701 0.0
C2397 C 0.47379 0.46905 0.4602 0.0
C2398 C 0.50745 0.54774 0.52393 0.0
C2399 C 0.51375 0.54196 0.54345 0.0
C2400 C 0.5026 0.5309 0.5072 0.0
C2401 C 0.50355 0.50763 0.50963 0.0
C2402 C 0.50971 0.50181 0.52925 0.0
C2403 C 0.51491 0.51886 0.54594 0.0
H2404 H 0.51583 0.99589 0.43921 0.0
H2405 H 0.56695 0.06036 0.47902 0.0
H2406 H 0.4855 0.9752 0.46788 0.0
H2407 H 0.53728 0.03919 0.50795 0.0
H2408 H 0.46618 0.00822 0.55009 0.0
H2409 H 0.49606 0.02903 0.52123 0.0
H2410 H 0.47996 0.95293 0.49942 0.0
H2411 H 0.44917 0.93211 0.52779 0.0
C2412 C 0.5207 0.00551 0.45416 0.0
C2413 C 0.54374 0.02975 0.45687 0.0
C2414 C 0.50339 0.99358 0.47066 0.0
C2415 C 0.5089 0.00545 0.49032 0.0
C2416 C 0.5321 0.02967 0.49299 0.0
C2417 C 0.54923 0.04176 0.47642 0.0
C2418 C 0.46903 0.99595 0.53912 0.0
C2419 C 0.45526 0.96853 0.54117 0.0
C2420 C 0.48631 0.00789 0.52262 0.0
C2421 C 0.4905 0.99271 0.50792 0.0
C2422 C 0.47689 0.96525 0.51017 0.0
C2423 C 0.45935 0.9533 0.52653 0.0
H2424 H 0.51573 0.0662 0.97095 0.0
H2425 H 0.456 0.99075 0.94806 0.0
H2426 H 0.52447 0.04471 0.99951 0.0
H2427 H 0.46388 0.96928 0.97709 0.0
H2428 H 0.50244 0.93695 0.01984 0.0
H2429 H 0.49415 0.95822 0.99085 0.0
H2430 H 0.50665 0.02238 0.03085 0.0
H2431 H 0.51602 0.0016 0.05955 0.0
C2432 C 0.50433 0.04502 0.97212 0.0
C2433 C 0.48518 0.03017 0.95726 0.0
C2434 C 0.5092 0.03268 0.98858 0.0
C2435 C 0.49481 0.00521 0.99072 0.0
C2436 C 0.47564 0.99041 0.9758 0.0
C2437 C 0.471 0.00273 0.9592 0.0
C2438 C 0.50335 0.95558 0.02242 0.0
C2439 C 0.50999 0.96767 0.04193 0.0
C2440 C 0.49847 0.96774 0.00582 0.0
C2441 C 0.49978 0.99211 0.00843 0.0
C2442 C 0.50599 0.00392 0.02811 0.0
C2443 C 0.5112 0.99192 0.04463 0.0
H2444 H 0.93662 0.43228 0.97935 0.0
H2445 H 0.00259 0.48331 0.94076 0.0
H2446 H 0.95722 0.46149 0.00866 0.0
H2447 H 0.02271 0.51315 0.96976 0.0
H2448 H 0.06454 0.5484 0.0302 0.0
H2449 H 0.04405 0.51805 0.00155 0.0
H2450 H 0.9678 0.50261 0.02241 0.0
H2451 H 0.9883 0.53207 0.05157 0.0
C2452 C 0.95543 0.44988 0.97709 0.0
C2453 C 0.96803 0.45545 0.95777 0.0
C2454 C 0.9672 0.46675 0.99388 0.0
C2455 C 0.9917 0.48977 0.99167 0.0
C2456 C 0.00412 0.49539 0.97222 0.0
C2457 C 0.99251 0.47834 0.95552 0.0
C2458 C 0.04339 0.53846 0.02868 0.0
C2459 C 0.02804 0.54264 0.04315 0.0
C2460 C 0.03162 0.52117 0.01215 0.0
C2461 C 0.00421 0.50787 0.00952 0.0
C2462 C 0.9889 0.51211 0.02406 0.0
C2463 C 0.00066 0.52916 0.04075 0.0
H2464 H 0.56582 0.50364 0.97974 0.0
H2465 H 0.51512 0.51838 0.94061 0.0
H2466 H 0.53637 0.49519 0.00886 0.0
H2467 H 0.48503 0.50882 0.96943 0.0
H2468 H 0.45004 0.51652 0.02985 0.0
H2469 H 0.48018 0.52574 0.0011 0.0
H2470 H 0.4951 0.4648 0.02245 0.0
H2471 H 0.46589 0.45647 0.05167 0.0
C2472 C 0.54822 0.5048 0.97732 0.0
C2473 C 0.54283 0.51176 0.95792 0.0
C2474 C 0.53122 0.49981 0.99399 0.0
C2475 C 0.50824 0.50131 0.99157 0.0
C2476 C 0.50276 0.50797 0.97203 0.0
C2477 C 0.51993 0.5133 0.95544 0.0
C2478 C 0.45981 0.50514 0.0284 0.0
C2479 C 0.45561 0.48579 0.04303 0.0
C2480 C 0.47698 0.51029 0.01182 0.0
C2481 C 0.4901 0.49599 0.00934 0.0
C2482 C 0.48575 0.47655 0.024 0.0
C2483 C 0.46884 0.47163 0.04071 0.0
H2484 H 0.23012 0.01764 0.94558 0.0
H2485 H 0.16728 0.9734 0.98865 0.0
H2486 H 0.24005 0.0581 0.96308 0.0
H2487 H 0.1753 0.01392 0.0052 0.0
H2488 H 0.21195 0.08709 0.04476 0.0
H2489 H 0.20139 0.04656 0.02702 0.0
H2490 H 0.23014 0.0897 0.96961 0.0
H2491 H 0.24283 0.13032 0.98806 0.0
C2492 C 0.21806 0.01677 0.95857 0.0
C2493 C 0.19803 0.99258 0.96586 0.0
C2494 C 0.22356 0.04 0.96857 0.0
C2495 C 0.20854 0.03964 0.98572 0.0
C2496 C 0.18786 0.01522 0.99249 0.0
C2497 C 0.18299 0.99193 0.98289 0.0
C2498 C 0.21598 0.08773 0.02834 0.0
C2499 C 0.22828 0.11169 0.01775 0.0
C2500 C 0.20971 0.06444 0.01803 0.0
C2501 C 0.21481 0.06449 0.9967 0.0
C2502 C 0.2265 0.08866 0.98609 0.0
C2503 C 0.23358 0.11202 0.99658 0.0
H2504 H 0.01249 0.23225 0.99418 0.0
H2505 H 0.9979 0.17635 0.94535 0.0
H2506 H 0.97132 0.20088 0.01072 0.0
H2507 H 0.95687 0.14475 0.96234 0.0
H2508 H 0.90194 0.09009 0.0169 0.0
H2509 H 0.94365 0.12008 0.9999 0.0
H2510 H 0.92145 0.17964 0.99753 0.0
H2511 H 0.87959 0.14965 0.01404 0.0
C2512 C 0.00067 0.21319 0.98707 0.0
C2513 C 0.00847 0.20681 0.96841 0.0
C2514 C 0.97707 0.19532 0.99652 0.0
C2515 C 0.96102 0.17052 0.98774 0.0
C2516 C 0.96903 0.16377 0.9694 0.0
C2517 C 0.99243 0.18188 0.95968 0.0
C2518 C 0.90597 0.10956 0.0127 0.0
C2519 C 0.88754 0.11754 0.01677 0.0
C2520 C 0.92972 0.12661 0.00292 0.0
C2521 C 0.93565 0.15209 0.9975 0.0
C2522 C 0.91732 0.16011 0.00167 0.0
C2523 C 0.89337 0.14292 0.01103 0.0
H2524 H 0.8766 0.78844 0.04115 0.0
H2525 H 0.88574 0.7537 0.98533 0.0
H2526 H 0.84786 0.80033 0.02311 0.0
H2527 H 0.85907 0.76767 0.96649 0.0
H2528 H 0.78769 0.76992 0.94304 0.0
H2529 H 0.81808 0.75952 0.96017 0.0
H2530 H 0.84223 0.82639 0.00072 0.0
H2531 H 0.80984 0.83491 0.98463 0.0
C2532 C 0.87281 0.78387 0.02484 0.0
C2533 C 0.88319 0.77009 0.0146 0.0
C2534 C 0.85651 0.7909 0.01434 0.0
C2535 C 0.8509 0.7851 0.99314 0.0
C2536 C 0.86214 0.77195 0.98286 0.0
C2537 C 0.87769 0.76412 0.99357 0.0
C2538 C 0.79969 0.78238 0.95556 0.0
C2539 C 0.7965 0.80312 0.96262 0.0
C2540 C 0.81734 0.7766 0.96537 0.0
C2541 C 0.83285 0.79199 0.98205 0.0
C2542 C 0.83025 0.8135 0.98842 0.0
C2543 C 0.81192 0.81867 0.97906 0.0
H2544 H 0.97629 0.19444 0.50189 0.0
H2545 H 0.01243 0.20351 0.56187 0.0
H2546 H 0.01724 0.20385 0.48521 0.0
H2547 H 0.05333 0.2129 0.54506 0.0
H2548 H 0.12862 0.26168 0.5058 0.0
H2549 H 0.08726 0.24966 0.52314 0.0
H2550 H 0.04645 0.18422 0.48137 0.0
H2551 H 0.08778 0.1962 0.46395 0.0
C2552 C 0.99288 0.19828 0.51154 0.0
C2553 C 0.99105 0.19829 0.53325 0.0
C2554 C 0.0163 0.20355 0.50196 0.0
C2555 C 0.03848 0.20918 0.51384 0.0
C2556 C 0.03661 0.20888 0.53552 0.0
C2557 C 0.01311 0.20335 0.54513 0.0
C2558 C 0.11084 0.24469 0.50034 0.0
C2559 C 0.11147 0.22989 0.4835 0.0
C2560 C 0.0872 0.23773 0.51035 0.0
C2561 C 0.06366 0.21599 0.50361 0.0
C2562 C 0.06428 0.20118 0.4868 0.0
C2563 C 0.08797 0.20797 0.47691 0.0
H2564 H 0.80982 0.78624 0.50335 0.0
H2565 H 0.79779 0.81081 0.56348 0.0
H2566 H 0.8004 0.81783 0.48691 0.0
H2567 H 0.78841 0.84245 0.54688 0.0
H2568 H 0.73881 0.86738 0.50685 0.0
H2569 H 0.75195 0.83912 0.52445 0.0
H2570 H 0.81868 0.86639 0.48365 0.0
H2571 H 0.80555 0.89466 0.46594 0.0
C2572 C 0.80537 0.79849 0.51309 0.0
C2573 C 0.80445 0.79586 0.53476 0.0
C2574 C 0.80011 0.81669 0.50364 0.0
C2575 C 0.79359 0.83253 0.51561 0.0
C2576 C 0.79313 0.8303 0.53727 0.0
C2577 C 0.79864 0.81226 0.54676 0.0
C2578 C 0.75634 0.86743 0.50167 0.0
C2579 C 0.77113 0.88323 0.48498 0.0
C2580 C 0.76396 0.85138 0.51185 0.0
C2581 C 0.78635 0.85059 0.50544 0.0
C2582 C 0.80123 0.86649 0.48883 0.0
C2583 C 0.79377 0.88275 0.47877 0.0
H2584 H 0.21132 0.98167 0.55662 0.0
H2585 H 0.1914 0.02527 0.51403 0.0
H2586 H 0.18106 0.94106 0.53918 0.0
H2587 H 0.15909 0.98458 0.49758 0.0
H2588 H 0.12412 0.91204 0.4574 0.0
H2589 H 0.15314 0.95254 0.4755 0.0
H2590 H 0.14009 0.90867 0.53236 0.0
H2591 H 0.11316 0.8681 0.51348 0.0
C2592 C 0.19985 0.98235 0.54378 0.0
C2593 C 0.2036 0.00642 0.53657 0.0
C2594 C 0.18227 0.95903 0.5338 0.0
C2595 C 0.16736 0.95916 0.51676 0.0
C2596 C 0.17059 0.98345 0.51017 0.0
C2597 C 0.18887 0.00683 0.51972 0.0
C2598 C 0.12757 0.91123 0.47378 0.0
C2599 C 0.11659 0.88709 0.48408 0.0
C2600 C 0.14404 0.93451 0.48431 0.0
C2601 C 0.14921 0.93427 0.5056 0.0
C2602 C 0.13738 0.9099 0.51593 0.0
C2603 C 0.12167 0.88656 0.5052 0.0
H2604 H 0.78683 0.91272 0.95645 0.0
H2605 H 0.75346 0.86874 0.01248 0.0
H2606 H 0.79729 0.9531 0.97435 0.0
H2607 H 0.76599 0.90921 0.03114 0.0
H2608 H 0.76709 0.9819 0.05519 0.0
H2609 H 0.75686 0.94141 0.03756 0.0
H2610 H 0.82312 0.98513 0.99665 0.0
H2611 H 0.83149 0.02569 0.01328 0.0
C2612 C 0.7822 0.91186 0.97277 0.0
C2613 C 0.76928 0.88774 0.98311 0.0
C2614 C 0.78842 0.93507 0.98317 0.0
C2615 C 0.78264 0.9348 0.00439 0.0
C2616 C 0.77022 0.91045 0.01476 0.0
C2617 C 0.76322 0.88717 0.00414 0.0
C2618 C 0.77941 0.98266 0.04243 0.0
C2619 C 0.79997 0.00676 0.03549 0.0
C2620 C 0.77373 0.95941 0.03235 0.0
C2621 C 0.78907 0.95963 0.01549 0.0
C2622 C 0.81028 0.98394 0.0091 0.0
C2623 C 0.81535 0.00726 0.01876 0.0
H2624 H 0.12044 0.84941 0.9873 0.0
H2625 H 0.09859 0.90939 0.98596 0.0
H2626 H 0.07869 0.81934 0.00402 0.0
H2627 H 0.0571 0.87939 0.00321 0.0
H2628 H 0.00303 0.82166 0.05747 0.0
H2629 H 0.04455 0.85323 0.04103 0.0
H2630 H 0.02814 0.79964 0.99026 0.0
H2631 H 0.98646 0.76842 0.0062 0.0
C2632 C 0.10682 0.85622 0.99073 0.0
C2633 C 0.1127 0.88171 0.9853 0.0
C2634 C 0.08296 0.83901 0.00021 0.0
C2635 C 0.06485 0.84717 0.00486 0.0
C2636 C 0.07088 0.87277 0.99983 0.0
C2637 C 0.0945 0.88982 0.9899 0.0
C2638 C 0.00819 0.81669 0.04274 0.0
C2639 C 0.99141 0.79254 0.03314 0.0
C2640 C 0.03187 0.83476 0.03336 0.0
C2641 C 0.03943 0.82869 0.01449 0.0
C2642 C 0.02273 0.80463 0.00489 0.0
C2643 C 0.99884 0.78686 0.01399 0.0
H2644 H 0.12136 0.21119 0.96024 0.0
H2645 H 0.11496 0.24916 0.0152 0.0
H2646 H 0.15 0.19929 0.97838 0.0
H2647 H 0.14163 0.23528 0.03419 0.0
H2648 H 0.21281 0.23188 0.05701 0.0
H2649 H 0.18253 0.24256 0.03999 0.0
H2650 H 0.15511 0.1735 0.00142 0.0
H2651 H 0.18733 0.1646 0.01733 0.0
C2652 C 0.12574 0.2165 0.9764 0.0
C2653 C 0.11612 0.23113 0.98635 0.0
C2654 C 0.14199 0.20946 0.98695 0.0
C2655 C 0.14831 0.21613 0.00796 0.0
C2656 C 0.13793 0.23026 0.01797 0.0
C2657 C 0.12241 0.23806 0.00717 0.0
C2658 C 0.20011 0.219 0.04496 0.0
C2659 C 0.20232 0.19752 0.03837 0.0
C2660 C 0.18254 0.22496 0.03522 0.0
C2661 C 0.16618 0.20905 0.01909 0.0
C2662 C 0.16778 0.1868 0.01325 0.0
C2663 C 0.18601 0.18141 0.02252 0.0
H2664 H 0.8708 0.73742 0.49374 0.0
H2665 H 0.91134 0.80379 0.53482 0.0
H2666 H 0.91206 0.75001 0.47594 0.0
H2667 H 0.95252 0.81632 0.51698 0.0
H2668 H 0.02321 0.80712 0.49669 0.0
H2669 H 0.98219 0.79734 0.51337 0.0
H2670 H 0.94559 0.7867 0.45356 0.0
H2671 H 0.98664 0.79649 0.43672 0.0
C2672 C 0.88848 0.75473 0.49892 0.0
C2673 C 0.88781 0.76959 0.51569 0.0
C2674 C 0.91206 0.76202 0.48865 0.0
C2675 C 0.93548 0.78415 0.49507 0.0
C2676 C 0.93479 0.79906 0.51178 0.0
C2677 C 0.91118 0.79194 0.52192 0.0
C2678 C 0.0065 0.80287 0.48704 0.0
C2679 C 0.00825 0.80252 0.46534 0.0
C2680 C 0.98303 0.79738 0.49663 0.0
C2681 C 0.96069 0.79119 0.48477 0.0
C2682 C 0.96245 0.79117 0.46308 0.0
C2683 C 0.98603 0.79693 0.45346 0.0
H2684 H 0.1653 0.19147 0.48675 0.0
H2685 H 0.22902 0.21123 0.44432 0.0
H2686 H 0.17337 0.15897 0.50319 0.0
H2687 H 0.23901 0.18072 0.46175 0.0
H2688 H 0.24328 0.11234 0.4873 0.0
H2689 H 0.22998 0.13954 0.46846 0.0
H2690 H 0.19933 0.15285 0.52534 0.0
H2691 H 0.21052 0.12359 0.54342 0.0
C2692 C 0.18118 0.18887 0.48108 0.0
C2693 C 0.19649 0.20363 0.46429 0.0
C2694 C 0.1861 0.17046 0.49064 0.0
C2695 C 0.2071 0.16711 0.48409 0.0
C2696 C 0.22229 0.18203 0.4671 0.0
C2697 C 0.21675 0.19975 0.45712 0.0
C2698 C 0.23345 0.12097 0.4956 0.0
C2699 C 0.22783 0.11591 0.51673 0.0
C2700 C 0.22602 0.13684 0.48489 0.0
C2701 C 0.21363 0.14882 0.49524 0.0
C2702 C 0.20818 0.14365 0.51653 0.0
C2703 C 0.21481 0.12704 0.52704 0.0
H2704 H 0.80779 0.0141 0.43722 0.0
H2705 H 0.78584 0.97764 0.49756 0.0
H2706 H 0.83953 0.05539 0.4534 0.0
H2707 H 0.81752 0.01895 0.5136 0.0
H2708 H 0.89478 0.09092 0.53319 0.0
H2709 H 0.86599 0.04944 0.5158 0.0
H2710 H 0.83708 0.08855 0.47627 0.0
H2711 H 0.86592 0.13007 0.49355 0.0
C2712 C 0.8098 0.0148 0.4539 0.0
C2713 C 0.79417 0.99253 0.46608 0.0
C2714 C 0.8279 0.0385 0.46315 0.0
C2715 C 0.83094 0.04039 0.48476 0.0
C2716 C 0.81577 0.01801 0.4969 0.0
C2717 C 0.79751 0.99438 0.48769 0.0
C2718 C 0.88242 0.09071 0.52069 0.0
C2719 C 0.88261 0.11377 0.51474 0.0
C2720 C 0.86584 0.06694 0.51082 0.0
C2721 C 0.8493 0.06577 0.49469 0.0
C2722 C 0.84982 0.08891 0.48852 0.0
C2723 C 0.86622 0.11264 0.4985 0.0
H2724 H 0.92761 0.46288 0.32799 0.0
H2725 H 0.86138 0.42244 0.36923 0.0
H2726 H 0.91522 0.42161 0.31044 0.0
H2727 H 0.84901 0.38114 0.35158 0.0
H2728 H 0.85934 0.31078 0.33152 0.0
H2729 H 0.86827 0.35161 0.34809 0.0
H2730 H 0.87889 0.388 0.28819 0.0
H2731 H 0.87 0.3472 0.27148 0.0
C2732 C 0.91035 0.44521 0.33325 0.0
C2733 C 0.89549 0.44592 0.35001 0.0
C2734 C 0.90317 0.42161 0.3231 0.0
C2735 C 0.88114 0.39818 0.32963 0.0
C2736 C 0.86619 0.39889 0.34631 0.0
C2737 C 0.8732 0.42255 0.35634 0.0
C2738 C 0.86342 0.3274 0.32183 0.0
C2739 C 0.86406 0.3257 0.30014 0.0
C2740 C 0.86839 0.35075 0.33135 0.0
C2741 C 0.87434 0.37299 0.31943 0.0
C2742 C 0.8746 0.37123 0.29776 0.0
C2743 C 0.86938 0.3478 0.28821 0.0
H2744 H 0.54604 0.48276 0.34616 0.0
H2745 H 0.5674 0.42242 0.34711 0.0
H2746 H 0.58775 0.51268 0.32932 0.0
H2747 H 0.60886 0.45228 0.32974 0.0
H2748 H 0.66307 0.51042 0.27553 0.0
H2749 H 0.62156 0.47878 0.29196 0.0
H2750 H 0.63826 0.53195 0.34308 0.0
H2751 H 0.67991 0.56322 0.32717 0.0
C2752 C 0.55954 0.47583 0.34261 0.0
C2753 C 0.55353 0.45029 0.34798 0.0
C2754 C 0.58337 0.49295 0.33306 0.0
C2755 C 0.60136 0.48466 0.32828 0.0
C2756 C 0.59518 0.459 0.33322 0.0
C2757 C 0.57158 0.44203 0.34322 0.0
C2758 C 0.65799 0.51527 0.29034 0.0
C2759 C 0.67484 0.53934 0.30004 0.0
C2760 C 0.6343 0.49716 0.29972 0.0
C2761 C 0.62681 0.50311 0.31867 0.0
C2762 C 0.64361 0.52705 0.32839 0.0
C2763 C 0.66749 0.54486 0.31929 0.0
H2764 H 0.55514 0.08873 0.31938 0.0
H2765 H 0.54419 0.12127 0.37575 0.0
H2766 H 0.52787 0.10215 0.30078 0.0
H2767 H 0.51483 0.13252 0.35792 0.0
H2768 H 0.47556 0.16629 0.31965 0.0
H2769 H 0.50826 0.15836 0.33595 0.0
H2770 H 0.48657 0.09282 0.29444 0.0
H2771 H 0.45591 0.10268 0.27716 0.0
C2772 C 0.54657 0.09856 0.32778 0.0
C2773 C 0.55171 0.10407 0.3489 0.0
C2774 C 0.53066 0.10604 0.31722 0.0
C2775 C 0.51869 0.11833 0.32773 0.0
C2776 C 0.524 0.12374 0.349 0.0
C2777 C 0.54067 0.11707 0.35936 0.0
C2778 C 0.47821 0.15045 0.31396 0.0
C2779 C 0.46346 0.13515 0.29717 0.0
C2780 C 0.49673 0.14562 0.32342 0.0
C2781 C 0.5002 0.12473 0.31676 0.0
C2782 C 0.48521 0.10949 0.29983 0.0
C2783 C 0.46739 0.11494 0.28995 0.0
H2784 H 0.64307 0.5249 0.8363 0.0
H2785 H 0.68026 0.5382 0.89625 0.0
H2786 H 0.68404 0.53425 0.81972 0.0
H2787 H 0.72116 0.54745 0.87954 0.0
H2788 H 0.79561 0.59535 0.83938 0.0
H2789 H 0.75429 0.58314 0.8568 0.0
H2790 H 0.71413 0.5158 0.8167 0.0
H2791 H 0.75544 0.52802 0.79916 0.0
C2792 C 0.65989 0.52965 0.84597 0.0
C2793 C 0.65835 0.53089 0.86763 0.0
C2794 C 0.68333 0.53487 0.83645 0.0
C2795 C 0.7058 0.54165 0.84834 0.0
C2796 C 0.70421 0.54254 0.86998 0.0
C2797 C 0.68071 0.5371 0.87954 0.0
C2798 C 0.77799 0.57789 0.83431 0.0
C2799 C 0.7788 0.56265 0.81789 0.0
C2800 C 0.75437 0.57082 0.84438 0.0
C2801 C 0.731 0.54851 0.83812 0.0
C2802 C 0.73181 0.53321 0.82175 0.0
C2803 C 0.75549 0.54014 0.81179 0.0
H2804 H 0.47179 0.2301 0.8004 0.0
H2805 H 0.40368 0.20095 0.84002 0.0
H2806 H 0.48512 0.20212 0.81826 0.0
H2807 H 0.41705 0.17293 0.8578 0.0
H2808 H 0.46284 0.14462 0.89716 0.0
H2809 H 0.45317 0.1762 0.88079 0.0
H2810 H 0.46737 0.15363 0.82072 0.0
H2811 H 0.47707 0.12212 0.83694 0.0
C2812 C 0.45975 0.21786 0.81301 0.0
C2813 C 0.43665 0.21771 0.81879 0.0
C2814 C 0.46733 0.20175 0.82314 0.0
C2815 C 0.45212 0.18535 0.8394 0.0
C2816 C 0.4293 0.18557 0.84546 0.0
C2817 C 0.42156 0.20149 0.83519 0.0
C2818 C 0.46413 0.14652 0.88048 0.0
C2819 C 0.47064 0.13072 0.86837 0.0
C2820 C 0.45844 0.16451 0.87111 0.0
C2821 C 0.45944 0.1673 0.84949 0.0
C2822 C 0.46666 0.15206 0.83744 0.0
C2823 C 0.47209 0.13391 0.84675 0.0
H2824 H 0.89913 0.34562 0.84048 0.0
H2825 H 0.84324 0.33083 0.88937 0.0
H2826 H 0.868 0.30413 0.82417 0.0
H2827 H 0.81191 0.28953 0.87264 0.0
H2828 H 0.75714 0.2345 0.81842 0.0
H2829 H 0.78716 0.27619 0.83536 0.0
H2830 H 0.8469 0.25419 0.83732 0.0
H2831 H 0.81684 0.2123 0.82086 0.0
C2832 C 0.88013 0.33368 0.84764 0.0
C2833 C 0.87367 0.34152 0.86625 0.0
C2834 C 0.86241 0.30989 0.83835 0.0
C2835 C 0.83768 0.29373 0.84722 0.0
C2836 C 0.83088 0.30177 0.86551 0.0
C2837 C 0.84883 0.32533 0.87507 0.0
C2838 C 0.77664 0.23853 0.82255 0.0
C2839 C 0.78465 0.22016 0.81836 0.0
C2840 C 0.79372 0.26229 0.83228 0.0
C2841 C 0.81926 0.2683 0.83754 0.0
C2842 C 0.82731 0.25 0.8333 0.0
C2843 C 0.81008 0.22603 0.82399 0.0
H2844 H 0.45443 0.2453 0.28869 0.0
H2845 H 0.42314 0.20197 0.34528 0.0
H2846 H 0.46493 0.28581 0.30643 0.0
H2847 H 0.4358 0.24257 0.36376 0.0
H2848 H 0.43614 0.31467 0.388 0.0
H2849 H 0.42614 0.27424 0.37043 0.0
H2850 H 0.49075 0.31849 0.3282 0.0
H2851 H 0.49879 0.35898 0.34482 0.0
C2852 C 0.45031 0.24464 0.30509 0.0
C2853 C 0.43791 0.22065 0.31565 0.0
C2854 C 0.45654 0.26792 0.31541 0.0
C2855 C 0.45132 0.26785 0.33673 0.0
C2856 C 0.43954 0.24365 0.3473 0.0
C2857 C 0.43248 0.2203 0.33679 0.0
C2858 C 0.44814 0.31557 0.37497 0.0
C2859 C 0.46814 0.33978 0.36768 0.0
C2860 C 0.44262 0.29235 0.36492 0.0
C2861 C 0.45758 0.29271 0.34772 0.0
C2862 C 0.47821 0.31716 0.34094 0.0
C2863 C 0.4831 0.34044 0.35058 0.0
H2864 H 0.67103 0.15612 0.39184 0.0
H2865 H 0.65543 0.10263 0.3409 0.0
H2866 H 0.71261 0.18783 0.37557 0.0
H2867 H 0.69715 0.13401 0.32513 0.0
H2868 H 0.78913 0.18402 0.32246 0.0
H2869 H 0.74745 0.15403 0.33928 0.0
H2870 H 0.72541 0.21373 0.33766 0.0
H2871 H 0.76686 0.24368 0.32033 0.0
C2872 C 0.67641 0.15113 0.37722 0.0
C2873 C 0.65991 0.12687 0.36766 0.0
C2874 C 0.70012 0.16928 0.36793 0.0
C2875 C 0.70795 0.16317 0.34921 0.0
C2876 C 0.69151 0.13902 0.33964 0.0
C2877 C 0.6676 0.12116 0.34865 0.0
C2878 C 0.77545 0.19079 0.32576 0.0
C2879 C 0.78117 0.21614 0.32007 0.0
C2880 C 0.75164 0.17363 0.3353 0.0
C2881 C 0.7334 0.1817 0.3397 0.0
C2882 C 0.7393 0.2072 0.33446 0.0
C2883 C 0.76289 0.22421 0.3245 0.0
H2884 H 0.85991 0.50144 0.34688 0.0
H2885 H 0.88043 0.56501 0.38961 0.0
H2886 H 0.82771 0.51013 0.33063 0.0
H2887 H 0.85029 0.57565 0.37236 0.0
H2888 H 0.78169 0.58035 0.34765 0.0
H2889 H 0.80925 0.5671 0.36602 0.0
H2890 H 0.82132 0.53613 0.30882 0.0
H2891 H 0.7917 0.54721 0.29126 0.0
C2892 C 0.85759 0.51746 0.35261 0.0
C2893 C 0.87241 0.5325 0.36948 0.0
C2894 C 0.83935 0.52273 0.34318 0.0
C2895 C 0.83626 0.54384 0.34992 0.0
C2896 C 0.85137 0.55885 0.36689 0.0
C2897 C 0.8689 0.55295 0.37675 0.0
C2898 C 0.79015 0.57048 0.33918 0.0
C2899 C 0.7846 0.56469 0.31814 0.0
C2900 C 0.80623 0.56307 0.34962 0.0
C2901 C 0.81793 0.55056 0.33904 0.0
C2902 C 0.81234 0.54504 0.31781 0.0
C2903 C 0.79552 0.55163 0.30759 0.0
H2904 H 0.57815 0.13721 0.86963 0.0
H2905 H 0.53736 0.07224 0.82733 0.0
H2906 H 0.61955 0.14926 0.85228 0.0
H2907 H 0.57878 0.08434 0.81005 0.0
H2908 H 0.65349 0.13117 0.77137 0.0
H2909 H 0.61264 0.12147 0.78837 0.0
H2910 H 0.64886 0.12968 0.84805 0.0
H2911 H 0.68981 0.13939 0.83116 0.0
C2912 C 0.578 0.12558 0.85658 0.0
C2913 C 0.55448 0.10379 0.84982 0.0
C2914 C 0.60172 0.1324 0.84674 0.0
C2915 C 0.60237 0.11776 0.82981 0.0
C2916 C 0.57882 0.09614 0.82293 0.0
C2917 C 0.55514 0.08913 0.8329 0.0
C2918 C 0.65287 0.13107 0.78812 0.0
C2919 C 0.67498 0.13599 0.79988 0.0
C2920 C 0.62939 0.12536 0.79783 0.0
C2921 C 0.62755 0.12473 0.81952 0.0
C2922 C 0.64977 0.13022 0.8313 0.0
C2923 C 0.67319 0.13567 0.8216 0.0
H2924 H 0.9294 0.46571 0.82677 0.0
H2925 H 0.86153 0.43718 0.86658 0.0
H2926 H 0.91658 0.49431 0.80928 0.0
H2927 H 0.84872 0.46576 0.84899 0.0
H2928 H 0.85747 0.54607 0.83045 0.0
H2929 H 0.86689 0.51432 0.84659 0.0
H2930 H 0.88077 0.49166 0.78644 0.0
H2931 H 0.87141 0.52348 0.77016 0.0
C2932 C 0.91168 0.46543 0.83171 0.0
C2933 C 0.89649 0.4492 0.84807 0.0
C2934 C 0.90426 0.48169 0.8216 0.0
C2935 C 0.88166 0.48225 0.82778 0.0
C2936 C 0.86635 0.46586 0.84402 0.0
C2937 C 0.87362 0.44941 0.854 0.0
C2938 C 0.86235 0.53423 0.82061 0.0
C2939 C 0.86377 0.53744 0.79899 0.0
C2940 C 0.86761 0.51593 0.82988 0.0
C2941 C 0.87462 0.50057 0.81777 0.0
C2942 C 0.87566 0.50344 0.79616 0.0
C2943 C 0.87016 0.52158 0.78685 0.0
H2944 H 0.516 0.45345 0.84633 0.0
H2945 H 0.57531 0.4308 0.84979 0.0
H2946 H 0.48605 0.41163 0.82977 0.0
H2947 H 0.54539 0.38914 0.83275 0.0
H2948 H 0.49026 0.335 0.77809 0.0
H2949 H 0.5215 0.37601 0.79523 0.0
H2950 H 0.46427 0.36177 0.84265 0.0
H2951 H 0.43322 0.32058 0.82592 0.0
C2952 C 0.52269 0.43962 0.84344 0.0
C2953 C 0.54799 0.44536 0.84935 0.0
C2954 C 0.50552 0.41569 0.83406 0.0
C2955 C 0.5135 0.39728 0.83004 0.0
C2956 C 0.53889 0.40312 0.83564 0.0
C2957 C 0.55591 0.42686 0.84543 0.0
C2958 C 0.48441 0.34052 0.79224 0.0
C2959 C 0.45926 0.32453 0.80065 0.0
C2960 C 0.5023 0.36391 0.80205 0.0
C2961 C 0.49516 0.37196 0.82017 0.0
C2962 C 0.47013 0.35599 0.82862 0.0
C2963 C 0.45245 0.33238 0.81908 0.0
H2964 H 0.49942 0.6416 0.6523 0.0
H2965 H 0.56484 0.68486 0.61116 0.0
H2966 H 0.50755 0.68235 0.66844 0.0
H2967 H 0.57482 0.72553 0.62836 0.0
H2968 H 0.57924 0.79867 0.65326 0.0
H2969 H 0.56623 0.75815 0.63451 0.0
H2970 H 0.53312 0.71412 0.69097 0.0
H2971 H 0.54408 0.7546 0.70892 0.0
C2972 C 0.51568 0.65997 0.64685 0.0
C2973 C 0.53146 0.66026 0.63051 0.0
C2974 C 0.52063 0.68339 0.65625 0.0
C2975 C 0.54212 0.7076 0.65001 0.0
C2976 C 0.55776 0.70762 0.63345 0.0
C2977 C 0.55221 0.68426 0.62361 0.0
C2978 C 0.56896 0.7802 0.66149 0.0
C2979 C 0.56257 0.77963 0.68245 0.0
C2980 C 0.56167 0.75688 0.65083 0.0
C2981 C 0.54864 0.73248 0.66109 0.0
C2982 C 0.54247 0.7322 0.68222 0.0
C2983 C 0.54897 0.75546 0.69266 0.0
H2984 H 0.2013 0.77928 0.6536 0.0
H2985 H 0.24549 0.79135 0.70971 0.0
H2986 H 0.24173 0.80615 0.63457 0.0
H2987 H 0.28588 0.82034 0.69141 0.0
H2988 H 0.35841 0.85819 0.65246 0.0
H2989 H 0.31789 0.82611 0.6693 0.0
H2990 H 0.27386 0.84712 0.62744 0.0
H2991 H 0.31427 0.87713 0.60964 0.0
C2992 C 0.21978 0.78805 0.66186 0.0
C2993 C 0.22042 0.78331 0.68303 0.0
C2994 C 0.24304 0.80373 0.65103 0.0
C2995 C 0.26745 0.81585 0.66131 0.0
C2996 C 0.2678 0.81102 0.68266 0.0
C2997 C 0.2446 0.79458 0.69329 0.0
C2998 C 0.33989 0.85549 0.6468 0.0
C2999 C 0.33926 0.86986 0.62977 0.0
C3000 C 0.31661 0.83734 0.65657 0.0
C3001 C 0.29223 0.8339 0.65 0.0
C3002 C 0.2919 0.84848 0.6328 0.0
C3003 C 0.3151 0.86592 0.62262 0.0
H3004 H 0.20698 0.45331 0.71221 0.0
H3005 H 0.2211 0.42423 0.65527 0.0
H3006 H 0.17727 0.4641 0.69433 0.0
H3007 H 0.19352 0.43726 0.63671 0.0
H3008 H 0.12201 0.43743 0.61179 0.0
H3009 H 0.15233 0.4274 0.62945 0.0
H3010 H 0.17053 0.49029 0.67295 0.0
H3011 H 0.13815 0.49829 0.65619 0.0
C3012 C 0.20405 0.44976 0.69571 0.0
C3013 C 0.2161 0.43787 0.68508 0.0
C3014 C 0.18718 0.45616 0.68533 0.0
C3015 C 0.1827 0.45164 0.66388 0.0
C3016 C 0.19564 0.44043 0.65325 0.0
C3017 C 0.21173 0.43317 0.66381 0.0
C3018 C 0.13263 0.44906 0.62512 0.0
C3019 C 0.12783 0.46854 0.63272 0.0
C3020 C 0.15026 0.44352 0.63523 0.0
C3021 C 0.16422 0.45798 0.6528 0.0
C3022 C 0.15983 0.47813 0.6599 0.0
C3023 C 0.14148 0.48301 0.65019 0.0
H3024 H 0.33343 0.84299 0.22046 0.0
H3025 H 0.31931 0.88615 0.17298 0.0
H3026 H 0.37424 0.85245 0.20316 0.0
H3027 H 0.36034 0.89598 0.15607 0.0
H3028 H 0.45213 0.93539 0.15253 0.0
H3029 H 0.41021 0.92368 0.16886 0.0
H3030 H 0.3873 0.84175 0.16569 0.0
H3031 H 0.42908 0.85334 0.1489 0.0
C3032 C 0.33897 0.85441 0.20635 0.0
C3033 C 0.32312 0.86381 0.1981 0.0
C3034 C 0.36225 0.85972 0.19644 0.0
C3035 C 0.37035 0.87498 0.17837 0.0
C3036 C 0.35451 0.88427 0.17005 0.0
C3037 C 0.33099 0.87852 0.1797 0.0
C3038 C 0.43817 0.91488 0.15532 0.0
C3039 C 0.44385 0.89526 0.14945 0.0
C3040 C 0.41418 0.90821 0.16455 0.0
C3041 C 0.39564 0.88185 0.16847 0.0
C3042 C 0.40138 0.86222 0.16287 0.0
C3043 C 0.42519 0.86885 0.15322 0.0
H3044 H 0.09961 0.45111 0.22111 0.0
H3045 H 0.16535 0.4745 0.18006 0.0
H3046 H 0.0891 0.48153 0.20414 0.0
H3047 H 0.15666 0.50686 0.16414 0.0
H3048 H 0.11995 0.54315 0.12459 0.0
H3049 H 0.13096 0.51331 0.14188 0.0
H3050 H 0.09772 0.5229 0.19881 0.0
H3051 H 0.08465 0.55077 0.18069 0.0
C3052 C 0.11214 0.4633 0.20868 0.0
C3053 C 0.13318 0.46052 0.20178 0.0
C3054 C 0.10631 0.48097 0.199 0.0
C3055 C 0.12196 0.49695 0.1826 0.0
C3056 C 0.14361 0.49456 0.17624 0.0
C3057 C 0.14885 0.47622 0.18548 0.0
C3058 C 0.11505 0.53877 0.14081 0.0
C3059 C 0.10141 0.54909 0.15133 0.0
C3060 C 0.12157 0.52182 0.15087 0.0
C3061 C 0.11537 0.51546 0.17193 0.0
C3062 C 0.10229 0.52656 0.18251 0.0
C3063 C 0.09498 0.5428 0.17222 0.0
H3064 H 0.54574 0.6889 0.17019 0.0
H3065 H 0.52389 0.65245 0.23053 0.0
H3066 H 0.51429 0.64755 0.15414 0.0
H3067 H 0.49234 0.61105 0.21432 0.0
H3068 H 0.46711 0.53657 0.17376 0.0
H3069 H 0.49537 0.57809 0.19134 0.0
H3070 H 0.46594 0.61678 0.15189 0.0
H3071 H 0.43776 0.57538 0.13424 0.0
C3072 C 0.5341 0.67216 0.18007 0.0
C3073 C 0.53745 0.67402 0.20167 0.0
C3074 C 0.51598 0.64849 0.17085 0.0
C3075 C 0.50093 0.62607 0.18298 0.0
C3076 C 0.50389 0.62797 0.20459 0.0
C3077 C 0.52185 0.65174 0.21386 0.0
C3078 C 0.46659 0.55392 0.1689 0.0
C3079 C 0.45024 0.55271 0.1526 0.0
C3080 C 0.48264 0.57763 0.17905 0.0
C3081 C 0.48284 0.60065 0.17298 0.0
C3082 C 0.46633 0.59938 0.15679 0.0
C3083 C 0.45011 0.57564 0.14676 0.0
H3084 H 0.12797 0.65185 0.73068 0.0
H3085 H 0.14297 0.68895 0.67058 0.0
H3086 H 0.11882 0.61079 0.71421 0.0
H3087 H 0.13375 0.64794 0.65428 0.0
H3088 H 0.13903 0.57637 0.63393 0.0
H3089 H 0.15176 0.61754 0.65186 0.0
H3090 H 0.08334 0.57792 0.69097 0.0
H3091 H 0.07061 0.5367 0.67315 0.0
C3092 C 0.12951 0.65135 0.714 0.0
C3093 C 0.13611 0.67371 0.70196 0.0
C3094 C 0.12413 0.62778 0.70458 0.0
C3095 C 0.12551 0.62617 0.68297 0.0
C3096 C 0.13276 0.64867 0.67098 0.0
C3097 C 0.1379 0.67213 0.68035 0.0
C3098 C 0.12678 0.5764 0.64644 0.0
C3099 C 0.10379 0.55329 0.6521 0.0
C3100 C 0.13402 0.59999 0.65663 0.0
C3101 C 0.11854 0.60092 0.6728 0.0
C3102 C 0.0958 0.57773 0.67871 0.0
C3103 C 0.08843 0.55418 0.6684 0.0
H3104 H 0.35155 0.45519 0.72394 0.0
H3105 H 0.30758 0.47403 0.68085 0.0
H3106 H 0.39203 0.48519 0.70621 0.0
H3107 H 0.34814 0.50605 0.66408 0.0
H3108 H 0.42064 0.54095 0.62383 0.0
H3109 H 0.38023 0.51181 0.64206 0.0
H3110 H 0.42424 0.52612 0.69898 0.0
H3111 H 0.46469 0.55318 0.68004 0.0
C3112 C 0.35075 0.46637 0.71092 0.0
C3113 C 0.3266 0.46237 0.70368 0.0
C3114 C 0.37401 0.4838 0.70077 0.0
C3115 C 0.37375 0.49832 0.6835 0.0
C3116 C 0.34938 0.49485 0.67685 0.0
C3117 C 0.32607 0.47673 0.68659 0.0
C3118 C 0.4215 0.53771 0.64025 0.0
C3119 C 0.44566 0.54911 0.65055 0.0
C3120 C 0.39828 0.52118 0.65085 0.0
C3121 C 0.39857 0.51636 0.6722 0.0
C3122 C 0.42296 0.52855 0.68252 0.0
C3123 C 0.44624 0.54433 0.67173 0.0
H3124 H 0.52616 0.83403 0.67853 0.0
H3125 H 0.54461 0.89694 0.72146 0.0
H3126 H 0.49362 0.84192 0.66193 0.0
H3127 H 0.5141 0.90681 0.70389 0.0
H3128 H 0.44518 0.91011 0.67846 0.0
H3129 H 0.47282 0.89724 0.69715 0.0
H3130 H 0.48702 0.86776 0.64002 0.0
H3131 H 0.4573 0.87844 0.62209 0.0
C3132 C 0.52329 0.84973 0.68424 0.0
C3133 C 0.53764 0.86482 0.70125 0.0
C3134 C 0.50486 0.85454 0.67462 0.0
C3135 C 0.50108 0.87523 0.68131 0.0
C3136 C 0.51571 0.89029 0.69845 0.0
C3137 C 0.53344 0.88484 0.70849 0.0
C3138 C 0.45411 0.90063 0.67007 0.0
C3139 C 0.44916 0.89516 0.64893 0.0
C3140 C 0.47023 0.89346 0.6807 0.0
C3141 C 0.48259 0.88153 0.67023 0.0
C3142 C 0.47755 0.87625 0.64891 0.0
C3143 C 0.46067 0.88259 0.63849 0.0
H3144 H 0.23556 0.47964 0.18214 0.0
H3145 H 0.21378 0.39784 0.18025 0.0
H3146 H 0.27726 0.49132 0.1651 0.0
H3147 H 0.25562 0.40967 0.16374 0.0
H3148 H 0.34701 0.44935 0.16091 0.0
H3149 H 0.30581 0.43969 0.1773 0.0
H3150 H 0.29002 0.47835 0.12732 0.0
H3151 H 0.33108 0.48757 0.11045 0.0
C3152 C 0.23971 0.46421 0.17815 0.0
C3153 C 0.22146 0.43784 0.1825 0.0
C3154 C 0.26344 0.47089 0.16834 0.0
C3155 C 0.2695 0.45136 0.1632 0.0
C3156 C 0.25135 0.42505 0.16765 0.0
C3157 C 0.22743 0.41831 0.17702 0.0
C3158 C 0.33489 0.45594 0.15341 0.0
C3159 C 0.34232 0.4692 0.13433 0.0
C3160 C 0.31128 0.4503 0.16278 0.0
C3161 C 0.29488 0.45827 0.15351 0.0
C3162 C 0.30249 0.47212 0.13475 0.0
C3163 C 0.32589 0.47729 0.12511 0.0
H3164 H 0.50023 0.85894 0.15295 0.0
H3165 H 0.56484 0.8806 0.11103 0.0
H3166 H 0.5092 0.82707 0.16944 0.0
H3167 H 0.57566 0.85072 0.12853 0.0
H3168 H 0.5804 0.78212 0.15338 0.0
H3169 H 0.56723 0.80961 0.13481 0.0
H3170 H 0.53531 0.82126 0.19167 0.0
H3171 H 0.5464 0.79175 0.20945 0.0
C3172 C 0.51654 0.85694 0.14744 0.0
C3173 C 0.53181 0.87201 0.13074 0.0
C3174 C 0.52195 0.83889 0.15702 0.0
C3175 C 0.5434 0.8362 0.15058 0.0
C3176 C 0.55862 0.85152 0.13376 0.0
C3177 C 0.55261 0.86889 0.12376 0.0
C3178 C 0.57037 0.79049 0.16174 0.0
C3179 C 0.56431 0.78485 0.18276 0.0
C3180 C 0.56299 0.80651 0.15119 0.0
C3181 C 0.55021 0.81804 0.16161 0.0
C3182 C 0.54445 0.8124 0.18281 0.0
C3183 C 0.55103 0.79565 0.19315 0.0
H3184 H 0.18234 0.78795 0.17757 0.0
H3185 H 0.24334 0.76749 0.17816 0.0
H3186 H 0.15263 0.74609 0.16087 0.0
H3187 H 0.21367 0.72588 0.16093 0.0
H3188 H 0.15462 0.67042 0.10752 0.0
H3189 H 0.18632 0.71234 0.12336 0.0
H3190 H 0.13428 0.69589 0.17525 0.0
H3191 H 0.10297 0.65385 0.15994 0.0
C3192 C 0.18948 0.77466 0.17393 0.0
C3193 C 0.21513 0.78094 0.17919 0.0
C3194 C 0.17247 0.75073 0.16446 0.0
C3195 C 0.18098 0.73292 0.15967 0.0
C3196 C 0.20679 0.73942 0.16442 0.0
C3197 C 0.22365 0.76312 0.17432 0.0
C3198 C 0.15004 0.67564 0.12238 0.0
C3199 C 0.12627 0.65876 0.13246 0.0
C3200 C 0.16818 0.69956 0.13141 0.0
C3201 C 0.16255 0.70724 0.15041 0.0
C3202 C 0.13892 0.6904 0.16052 0.0
C3203 C 0.12109 0.66629 0.15176 0.0
H3204 H 0.29601 0.27609 0.04283 0.0
H3205 H 0.31795 0.26114 0.10278 0.0
H3206 H 0.32078 0.32305 0.04947 0.0
H3207 H 0.34444 0.30806 0.10898 0.0
H3208 H 0.36397 0.39059 0.12495 0.0
H3209 H 0.34132 0.34398 0.11755 0.0
H3210 H 0.36046 0.3609 0.05262 0.0
H3211 H 0.38143 0.40766 0.06006 0.0
C3212 C 0.30663 0.28297 0.05727 0.0
C3213 C 0.30494 0.26509 0.07237 0.0
C3214 C 0.32103 0.30994 0.06108 0.0
C3215 C 0.33464 0.31964 0.07988 0.0
C3216 C 0.33368 0.30153 0.09459 0.0
C3217 C 0.31869 0.27459 0.091 0.0
C3218 C 0.36336 0.3843 0.10911 0.0
C3219 C 0.37433 0.40271 0.09307 0.0
C3220 C 0.35053 0.35748 0.10483 0.0
C3221 C 0.34897 0.34836 0.08443 0.0
C3222 C 0.36064 0.36697 0.06845 0.0
C3223 C 0.37287 0.39382 0.0727 0.0
H3224 H 0.59235 0.98097 0.06109 0.0
H3225 H 0.60831 0.96956 0.12421 0.0
H3226 H 0.63916 0.0077 0.05443 0.0
H3227 H 0.65515 0.99467 0.11735 0.0
H3228 H 0.7387 0.05513 0.10493 0.0
H3229 H 0.69183 0.03465 0.11151 0.0
H3230 H 0.67623 0.00502 0.04873 0.0
H3231 H 0.72311 0.02715 0.04194 0.0
C3232 C 0.60597 0.9841 0.07351 0.0
C3233 C 0.59676 0.9732 0.09315 0.0
C3234 C 0.63286 0.99925 0.06967 0.0
C3235 C 0.65122 0.0033 0.08525 0.0
C3236 C 0.64181 0.99254 0.10501 0.0
C3237 C 0.6149 0.97795 0.10897 0.0
C3238 C 0.72514 0.04443 0.09252 0.0
C3239 C 0.73447 0.04266 0.07294 0.0
C3240 C 0.69823 0.03246 0.09631 0.0
C3241 C 0.67996 0.01782 0.08076 0.0
C3242 C 0.68948 0.01645 0.06105 0.0
C3243 C 0.71642 0.02901 0.05713 0.0
H3244 H 0.94528 0.68591 0.10474 0.0
H3245 H 0.97093 0.69524 0.04122 0.0
H3246 H 0.96608 0.65988 0.11169 0.0
H3247 H 0.99359 0.67118 0.04832 0.0
H3248 H 0.01865 0.61225 0.06156 0.0
H3249 H 0.99203 0.63242 0.05456 0.0
H3250 H 0.00548 0.66256 0.11721 0.0
H3251 H 0.03014 0.64053 0.1244 0.0
C3252 C 0.95559 0.6825 0.09231 0.0
C3253 C 0.95652 0.69252 0.07246 0.0
C3254 C 0.96777 0.66779 0.0963 0.0
C3255 C 0.98189 0.66346 0.08066 0.0
C3256 C 0.98255 0.67346 0.06072 0.0
C3257 C 0.9697 0.68749 0.05662 0.0
C3258 C 0.01564 0.62305 0.0738 0.0
C3259 C 0.02638 0.62487 0.0935 0.0
C3260 C 0.00056 0.63484 0.06979 0.0
C3261 C 0.99656 0.64941 0.08524 0.0
C3262 C 0.00744 0.65109 0.10498 0.0
C3263 C 0.02184 0.63864 0.10913 0.0
H3264 H 0.27584 0.30024 0.45827 0.0
H3265 H 0.25997 0.31368 0.39567 0.0
H3266 H 0.32271 0.32474 0.45125 0.0
H3267 H 0.3068 0.33982 0.3889 0.0
H3268 H 0.39024 0.35906 0.37539 0.0
H3269 H 0.34346 0.33676 0.38255 0.0
H3270 H 0.35979 0.36451 0.44582 0.0
H3271 H 0.40659 0.38517 0.43883 0.0
C3272 C 0.28247 0.30891 0.44311 0.0
C3273 C 0.26434 0.30493 0.42747 0.0
C3274 C 0.30939 0.32316 0.43907 0.0
C3275 C 0.31883 0.33434 0.41942 0.0
C3276 C 0.30048 0.33102 0.40403 0.0
C3277 C 0.27358 0.3162 0.40793 0.0
C3278 C 0.38374 0.36043 0.39079 0.0
C3279 C 0.40199 0.37368 0.40658 0.0
C3280 C 0.35685 0.34779 0.39492 0.0
C3281 C 0.34755 0.34866 0.41484 0.0
C3282 C 0.36601 0.36274 0.43044 0.0
C3283 C 0.39289 0.3748 0.42642 0.0
H3284 H 0.61483 0.02168 0.43972 0.0
H3285 H 0.63759 0.02713 0.37566 0.0
H3286 H 0.6348 0.99497 0.44703 0.0
H3287 H 0.6594 0.00232 0.38304 0.0
H3288 H 0.68283 0.94264 0.39691 0.0
H3289 H 0.65648 0.96313 0.39021 0.0
H3290 H 0.67386 0.99645 0.45186 0.0
H3291 H 0.69832 0.9741 0.45886 0.0
C3292 C 0.62434 0.01729 0.42725 0.0
C3293 C 0.6247 0.02643 0.40715 0.0
C3294 C 0.63602 0.00215 0.43143 0.0
C3295 C 0.64902 0.99645 0.4157 0.0
C3296 C 0.64916 0.00563 0.39554 0.0
C3297 C 0.63683 0.02011 0.39127 0.0
C3298 C 0.68069 0.95415 0.40903 0.0
C3299 C 0.69257 0.95686 0.42837 0.0
C3300 C 0.66579 0.96615 0.40518 0.0
C3301 C 0.66311 0.98185 0.42037 0.0
C3302 C 0.67488 0.9842 0.43983 0.0
C3303 C 0.68913 0.97154 0.44386 0.0
H3304 H 0.02897 0.73793 0.39485 0.0
H3305 H 0.05308 0.72643 0.45533 0.0
H3306 H 0.00759 0.691 0.38847 0.0
H3307 H 0.032 0.67947 0.44868 0.0
H3308 H 0.96136 0.59622 0.43946 0.0
H3309 H 0.98704 0.64317 0.44547 0.0
H3310 H 0.01607 0.65481 0.38273 0.0
H3311 H 0.98998 0.60773 0.37648 0.0
C3312 C 0.02997 0.72547 0.40673 0.0
C3313 C 0.04267 0.73602 0.42567 0.0
C3314 C 0.01783 0.69855 0.40298 0.0
C3315 C 0.01806 0.68151 0.41807 0.0
C3316 C 0.03121 0.69207 0.43684 0.0
C3317 C 0.04339 0.71902 0.4406 0.0
C3318 C 0.97332 0.60869 0.42693 0.0
C3319 C 0.97347 0.59812 0.40743 0.0
C3320 C 0.9882 0.63564 0.43045 0.0
C3321 C 0.00359 0.65272 0.41458 0.0
C3322 C 0.00416 0.64217 0.3952 0.0
C3323 C 0.9893 0.61516 0.39166 0.0
H3324 H 0.61425 0.59309 0.9393 0.0
H3325 H 0.63779 0.6088 0.87527 0.0
H3326 H 0.63533 0.63996 0.94609 0.0
H3327 H 0.66055 0.65563 0.88217 0.0
H3328 H 0.68477 0.73941 0.89543 0.0
H3329 H 0.65819 0.69255 0.88894 0.0
H3330 H 0.67538 0.67689 0.95069 0.0
H3331 H 0.70031 0.72377 0.95748 0.0
C3332 C 0.62413 0.60666 0.92671 0.0
C3333 C 0.62442 0.59737 0.90677 0.0
C3334 C 0.63645 0.63359 0.9306 0.0
C3335 C 0.64998 0.65188 0.91476 0.0
C3336 C 0.64998 0.64238 0.89474 0.0
C3337 C 0.63706 0.61545 0.89075 0.0
C3338 C 0.68264 0.72584 0.90762 0.0
C3339 C 0.6946 0.73515 0.92693 0.0
C3340 C 0.66756 0.69893 0.90388 0.0
C3341 C 0.66466 0.68064 0.91919 0.0
C3342 C 0.67659 0.69015 0.93859 0.0
C3343 C 0.6911 0.71709 0.94249 0.0
H3344 H 0.27607 0.97561 0.95845 0.0
H3345 H 0.26053 0.9463 0.89584 0.0
H3346 H 0.32291 0.99867 0.95142 0.0
H3347 H 0.30741 0.96766 0.88905 0.0
H3348 H 0.3905 0.03232 0.87547 0.0
H3349 H 0.34373 0.0075 0.88267 0.0
H3350 H 0.36039 0.99688 0.94604 0.0
H3351 H 0.40714 0.0234 0.939 0.0
C3352 C 0.28279 0.9737 0.94329 0.0
C3353 C 0.26475 0.95935 0.92765 0.0
C3354 C 0.30971 0.98678 0.93924 0.0
C3355 C 0.31925 0.98524 0.91958 0.0
C3356 C 0.301 0.97 0.90419 0.0
C3357 C 0.27408 0.95752 0.9081 0.0
C3358 C 0.38406 0.0246 0.89091 0.0
C3359 C 0.40237 0.0299 0.90671 0.0
C3360 C 0.35719 0.01014 0.89506 0.0
C3361 C 0.34798 4e-05 0.91501 0.0
C3362 C 0.36652 0.0048 0.93063 0.0
C3363 C 0.39337 0.01985 0.92659 0.0
H3364 H 0.02769 0.29009 0.89587 0.0
H3365 H 0.04988 0.32496 0.95675 0.0
H3366 H 0.00588 0.31529 0.88924 0.0
H3367 H 0.02823 0.35023 0.94994 0.0
H3368 H 0.95758 0.36278 0.93896 0.0
H3369 H 0.98241 0.34059 0.94547 0.0
H3370 H 0.01596 0.36129 0.88422 0.0
H3371 H 0.99103 0.38337 0.87753 0.0
C3372 C 0.02809 0.30323 0.90779 0.0
C3373 C 0.04049 0.30539 0.92688 0.0
C3374 C 0.01571 0.31777 0.90393 0.0
C3375 C 0.01531 0.33469 0.91908 0.0
C3376 C 0.02797 0.33713 0.93805 0.0
C3377 C 0.04049 0.32271 0.94189 0.0
C3378 C 0.97035 0.36277 0.92689 0.0
C3379 C 0.97221 0.37482 0.90769 0.0
C3380 C 0.98468 0.35015 0.93068 0.0
C3381 C 0.00108 0.34916 0.91533 0.0
C3382 C 0.00325 0.3615 0.89625 0.0
C3383 C 0.98905 0.37427 0.89249 0.0
H3384 H 0.72459 0.69604 0.54283 0.0
H3385 H 0.74174 0.691 0.60701 0.0
H3386 H 0.67791 0.67131 0.55025 0.0
H3387 H 0.69504 0.66458 0.61435 0.0
H3388 H 0.61022 0.64331 0.62568 0.0
H3389 H 0.65716 0.6661 0.61884 0.0
H3390 H 0.64206 0.63153 0.55767 0.0
H3391 H 0.59515 0.61043 0.56419 0.0
C3392 C 0.7183 0.68919 0.55848 0.0
C3393 C 0.73675 0.69555 0.57436 0.0
C3394 C 0.69147 0.67478 0.56277 0.0
C3395 C 0.6824 0.66575 0.58296 0.0
C3396 C 0.70106 0.67162 0.59872 0.0
C3397 C 0.72789 0.68661 0.59451 0.0
C3398 C 0.61706 0.64054 0.61084 0.0
C3399 C 0.59913 0.62531 0.59541 0.0
C3400 C 0.64402 0.65348 0.6069 0.0
C3401 C 0.65369 0.65093 0.58759 0.0
C3402 C 0.63555 0.6347 0.5725 0.0
C3403 C 0.60861 0.62236 0.57627 0.0
H3404 H 0.32224 0.0484 0.54289 0.0
H3405 H 0.29235 0.03006 0.60547 0.0
H3406 H 0.34781 0.02684 0.54904 0.0
H3407 H 0.31743 0.00816 0.61137 0.0
H3408 H 0.38246 0.98964 0.62158 0.0
H3409 H 0.36179 0.01593 0.61514 0.0
H3410 H 0.3392 0.98219 0.55405 0.0
H3411 H 0.36027 0.95632 0.56022 0.0
C3412 C 0.32116 0.03989 0.55796 0.0
C3413 C 0.30515 0.04094 0.57365 0.0
C3414 C 0.33572 0.0274 0.56144 0.0
C3415 C 0.33462 0.01574 0.58068 0.0
C3416 C 0.31902 0.01725 0.59647 0.0
C3417 C 0.30448 0.02969 0.59301 0.0
C3418 C 0.37325 0.98792 0.60671 0.0
C3419 C 0.37299 0.97076 0.59146 0.0
C3420 C 0.36129 0.00293 0.60307 0.0
C3421 C 0.34879 0.00111 0.58411 0.0
C3422 C 0.34896 0.98432 0.56873 0.0
C3423 C 0.36091 0.96933 0.57234 0.0
H3424 H 0.00949 0.39225 0.62364 0.0
H3425 H 0.04121 0.40446 0.56162 0.0
H3426 H 0.98326 0.34534 0.61683 0.0
H3427 H 0.01531 0.3576 0.55505 0.0
H3428 H 0.94836 0.2748 0.54376 0.0
H3429 H 0.97003 0.32177 0.55067 0.0
H3430 H 0.99155 0.30889 0.6116 0.0
H3431 H 0.96963 0.26201 0.60493 0.0
C3432 C 0.01085 0.385 0.60855 0.0
C3433 C 0.02756 0.40219 0.59321 0.0
C3434 C 0.99589 0.35808 0.60469 0.0
C3435 C 0.99725 0.34776 0.58542 0.0
C3436 C 0.01357 0.36497 0.56997 0.0
C3437 C 0.02856 0.39185 0.57381 0.0
C3438 C 0.95753 0.28193 0.55869 0.0
C3439 C 0.9573 0.26457 0.57375 0.0
C3440 C 0.97007 0.30887 0.5626 0.0
C3441 C 0.98256 0.31904 0.58165 0.0
C3442 C 0.98184 0.30165 0.59686 0.0
C3443 C 0.96938 0.27475 0.59296 0.0
H3444 H 0.94246 0.63522 0.79168 0.0
H3445 H 0.92611 0.64612 0.72855 0.0
H3446 H 0.98923 0.65981 0.78457 0.0
H3447 H 0.97291 0.6725 0.72163 0.0
H3448 H 0.05676 0.69254 0.7087 0.0
H3449 H 0.00995 0.67017 0.71575 0.0
H3450 H 0.02603 0.69932 0.77868 0.0
H3451 H 0.07285 0.7199 0.77183 0.0
C3452 C 0.94897 0.64338 0.77637 0.0
C3453 C 0.93074 0.63866 0.76063 0.0
C3454 C 0.97585 0.65771 0.77227 0.0
C3455 C 0.98517 0.66828 0.75245 0.0
C3456 C 0.96671 0.66419 0.73692 0.0
C3457 C 0.93982 0.64925 0.7409 0.0
C3458 C 0.05018 0.69418 0.724 0.0
C3459 C 0.06834 0.70775 0.73976 0.0
C3460 C 0.02327 0.68151 0.72806 0.0
C3461 C 0.01389 0.68273 0.74787 0.0
C3462 C 0.03229 0.69722 0.7634 0.0
C3463 C 0.05918 0.70925 0.75946 0.0
H3464 H 0.28776 0.34669 0.7086 0.0
H3465 H 0.30042 0.37055 0.77284 0.0
H3466 H 0.30925 0.32091 0.71434 0.0
H3467 H 0.32208 0.34516 0.77837 0.0
H3468 H 0.3384 0.27848 0.78658 0.0
H3469 H 0.31292 0.29982 0.77966 0.0
H3470 H 0.35398 0.32933 0.72177 0.0
H3471 H 0.3793 0.30767 0.72846 0.0
C3472 C 0.295 0.34638 0.72395 0.0
C3473 C 0.29236 0.36075 0.74024 0.0
C3474 C 0.30743 0.33172 0.72719 0.0
C3475 C 0.31736 0.331 0.74681 0.0
C3476 C 0.31434 0.34501 0.76314 0.0
C3477 C 0.30203 0.35972 0.75991 0.0
C3478 C 0.34194 0.28935 0.77229 0.0
C3479 C 0.36105 0.29144 0.75813 0.0
C3480 C 0.32738 0.30169 0.76839 0.0
C3481 C 0.33153 0.31638 0.75023 0.0
C3482 C 0.35014 0.31794 0.73581 0.0
C3483 C 0.36477 0.30564 0.73973 0.0
H3484 H 0.65487 0.94184 0.7084 0.0
H3485 H 0.62655 0.92992 0.77147 0.0
H3486 H 0.68063 0.98896 0.71472 0.0
H3487 H 0.6519 0.97686 0.77757 0.0
H3488 H 0.71821 0.05985 0.78772 0.0
H3489 H 0.69691 0.01299 0.78074 0.0
H3490 H 0.67226 0.02528 0.72089 0.0
H3491 H 0.69389 0.0722 0.72761 0.0
C3492 C 0.65418 0.94919 0.72361 0.0
C3493 C 0.63856 0.93202 0.7394 0.0
C3494 C 0.66884 0.97622 0.72719 0.0
C3495 C 0.66829 0.98664 0.74664 0.0
C3496 C 0.65304 0.96944 0.7625 0.0
C3497 C 0.63835 0.94248 0.75893 0.0
C3498 C 0.7084 0.05264 0.773 0.0
C3499 C 0.70771 0.06987 0.75827 0.0
C3500 C 0.69609 0.02574 0.76905 0.0
C3501 C 0.68281 0.0154 0.7503 0.0
C3502 C 0.68258 0.03265 0.73539 0.0
C3503 C 0.69486 0.05956 0.73933 0.0
H3504 H 0.27884 0.93948 0.21354 0.0
H3505 H 0.30749 0.92665 0.27147 0.0
H3506 H 0.30077 0.98626 0.22078 0.0
H3507 H 0.32973 0.97361 0.27848 0.0
H3508 H 0.34788 0.05755 0.29212 0.0
H3509 H 0.32192 0.01031 0.2862 0.0
H3510 H 0.34631 0.02197 0.2222 0.0
H3511 H 0.37188 0.06897 0.22791 0.0
C3512 C 0.28973 0.94656 0.22786 0.0
C3513 C 0.29148 0.92922 0.24187 0.0
C3514 C 0.3024 0.97344 0.23194 0.0
C3515 C 0.31711 0.98366 0.25014 0.0
C3516 C 0.31834 0.9663 0.26441 0.0
C3517 C 0.3057 0.93939 0.26032 0.0
C3518 C 0.34758 0.05006 0.27676 0.0
C3519 C 0.36201 0.06713 0.26051 0.0
C3520 C 0.33281 0.02298 0.27341 0.0
C3521 C 0.33204 0.01242 0.25373 0.0
C3522 C 0.34619 0.02951 0.23747 0.0
C3523 C 0.361 0.0565 0.24081 0.0
H3524 H 0.94331 0.30527 0.29096 0.0
H3525 H 0.92553 0.28306 0.22682 0.0
H3526 H 0.98988 0.32672 0.28337 0.0
H3527 H 0.97217 0.30286 0.21929 0.0
H3528 H 0.05717 0.36629 0.20796 0.0
H3529 H 0.01024 0.34214 0.2148 0.0
H3530 H 0.02532 0.32213 0.27576 0.0
H3531 H 0.07224 0.34799 0.26926 0.0
C3532 C 0.94944 0.30461 0.27528 0.0
C3533 C 0.93087 0.29267 0.25946 0.0
C3534 C 0.97621 0.31672 0.27089 0.0
C3535 C 0.98507 0.31659 0.25066 0.0
C3536 C 0.96629 0.30397 0.23495 0.0
C3537 C 0.93951 0.29243 0.23926 0.0
C3538 C 0.05032 0.35654 0.22275 0.0
C3539 C 0.06823 0.35912 0.23815 0.0
C3540 C 0.02337 0.34252 0.22668 0.0
C3541 C 0.01372 0.33021 0.24595 0.0
C3542 C 0.03184 0.33192 0.26097 0.0
C3543 C 0.05877 0.34652 0.25722 0.0
H3544 H 0.69395 0.6367 0.29152 0.0
H3545 H 0.71793 0.64409 0.22764 0.0
H3546 H 0.67126 0.6607 0.28431 0.0
H3547 H 0.69702 0.66999 0.22052 0.0
H3548 H 0.63328 0.69036 0.20859 0.0
H3549 H 0.65766 0.66791 0.21554 0.0
H3550 H 0.67373 0.69982 0.27765 0.0
H3551 H 0.6475 0.72044 0.27096 0.0
C3552 C 0.69477 0.64396 0.27599 0.0
C3553 C 0.70755 0.63846 0.26012 0.0
C3554 C 0.68192 0.65797 0.27182 0.0
C3555 C 0.68217 0.66749 0.25177 0.0
C3556 C 0.69572 0.66253 0.23604 0.0
C3557 C 0.70793 0.64786 0.24011 0.0
C3558 C 0.64211 0.69254 0.22369 0.0
C3559 C 0.63839 0.70693 0.23929 0.0
C3560 C 0.65632 0.67984 0.22769 0.0
C3561 C 0.66778 0.68184 0.24724 0.0
C3562 C 0.66469 0.69709 0.26259 0.0
C3563 C 0.64984 0.70915 0.25875 0.0
loop_
_geom_bond_atom_site_label_1
_geom_bond_atom_site_label_2
_geom_bond_distance
_geom_bond_site_symmetry_2
_ccdc_geom_bond_type
Co0 O2 2.143 . S
Co0 O8 2.074 . S
Co0 O11 2.093 . S
Co0 O24 2.097 . S
Co0 N41 2.151 . S
Co0 N49 2.214 . S
Co1 O2 2.160 . S
Co1 O7 2.058 . S
Co1 O17 2.057 . S
Co1 O32 2.037 . S
Co1 N36 2.145 . S
Co1 N57 2.257 . S
O2 Co0 2.143 . S
O2 Co1 2.160 . S
C3 O4 1.278 . S
C3 O11 1.224 . S
O4 C3 1.278 . S
C5 O6 1.245 . S
C5 O17 1.232 . S
O6 C5 1.245 . S
O7 Co1 2.058 . S
O7 C33 1.269 . S
O8 Co0 2.074 . S
O8 C33 1.257 . S
H9 C34 0.930 . S
H10 C40 0.930 . S
O11 Co0 2.093 . S
O11 C3 1.224 . S
H12 C44 0.929 . S
H13 C46 0.930 . S
H14 C47 0.930 . S
H15 C45 0.929 . S
H16 C48 0.928 . S
O17 Co1 2.057 . S
O17 C5 1.232 . S
H18 C37 0.929 . S
H19 C38 0.929 . S
H20 C50 0.931 . S
H21 C42 0.929 . S
H22 C51 0.930 . S
H23 C43 0.931 . S
O24 Co0 2.097 . S
O24 C52 1.214 . S
H25 C53 0.929 . S
H26 C54 0.929 . S
H27 C55 0.930 . S
H28 C56 0.929 . S
H29 C58 0.930 . S
H30 C35 0.930 . S
H31 C39 0.930 . S
O32 Co1 2.037 . S
O32 C52 1.234 . S
C33 O7 1.269 . S
C33 O8 1.257 . S
C34 H9 0.930 . S
C34 C37 1.388 1_556 S
C34 C39 1.418 . S
C35 H30 0.930 . S
C35 C38 1.404 . S
C35 C39 1.353 . S
N36 Co1 2.145 . S
N36 C37 1.397 . S
N36 C38 1.334 1_554 S
C37 H18 0.929 . S
C37 C34 1.388 1_554 S
C37 N36 1.397 . S
C38 H19 0.929 . S
C38 C35 1.404 . S
C38 N36 1.334 1_556 S
C39 H31 0.930 . S
C39 C34 1.418 . S
C39 C35 1.353 . S
C40 H10 0.930 . S
C40 N41 1.330 . S
C40 C42 1.446 . S
N41 Co0 2.151 . S
N41 C40 1.330 . S
N41 C45 1.418 . S
C42 H21 0.929 . S
C42 C40 1.446 . S
C42 C43 1.332 . S
C43 H23 0.931 . S
C43 C42 1.332 . S
C43 C44 1.267 . S
C44 H12 0.929 . S
C44 C43 1.267 . S
C44 C45 1.251 . S
C45 H15 0.929 . S
C45 N41 1.418 . S
C45 C44 1.251 . S
C46 H13 0.930 . S
C46 C48 1.406 . S
C46 C51 1.261 . S
C47 H14 0.930 . S
C47 N49 1.325 . S
C47 C50 1.357 . S
C48 H16 0.928 . S
C48 C46 1.406 . S
C48 N49 1.261 . S
N49 Co0 2.214 . S
N49 C47 1.325 . S
N49 C48 1.261 . S
C50 H20 0.931 . S
C50 C47 1.357 . S
C50 C51 1.312 . S
C51 H22 0.930 . S
C51 C46 1.261 . S
C51 C50 1.312 . S
C52 O24 1.214 . S
C52 O32 1.234 . S
C53 H25 0.929 . S
C53 C56 1.391 . S
C53 C58 1.391 . S
C54 H26 0.929 . S
C54 C55 1.390 . S
C54 N57 1.391 . S
C55 H27 0.930 . S
C55 C54 1.390 . S
C55 C56 1.392 . S
C56 H28 0.929 . S
C56 C53 1.391 . S
C56 C55 1.392 . S
N57 Co1 2.257 . S
N57 C54 1.391 . S
N57 C58 1.388 . S
C58 H29 0.930 . S
C58 C53 1.391 . S
C58 N57 1.388 . S
Co59 O61 2.143 . S
Co59 O67 2.074 . S
Co59 O70 2.093 . S
Co59 O83 2.097 . S
Co59 N100 2.151 . S
Co59 N108 2.214 . S
Co60 O61 2.160 . S
Co60 O66 2.058 . S
Co60 O76 2.057 . S
Co60 O91 2.037 . S
Co60 N95 2.145 . S
Co60 N116 2.257 . S
O61 Co59 2.143 . S
O61 Co60 2.160 . S
C62 O63 1.278 . S
C62 O70 1.224 . S
O63 C62 1.278 . S
C64 O65 1.245 . S
C64 O76 1.232 . S
O65 C64 1.245 . S
O66 Co60 2.058 . S
O66 C92 1.269 . S
O67 Co59 2.074 . S
O67 C92 1.257 . S
H68 C93 0.930 . S
H69 C99 0.930 . S
O70 Co59 2.093 . S
O70 C62 1.224 . S
H71 C103 0.929 . S
H72 C105 0.930 . S
H73 C106 0.930 . S
H74 C104 0.929 . S
H75 C107 0.928 . S
O76 Co60 2.057 . S
O76 C64 1.232 . S
H77 C96 0.929 . S
H78 C97 0.929 . S
H79 C109 0.931 . S
H80 C101 0.929 . S
H81 C110 0.930 . S
H82 C102 0.931 . S
O83 Co59 2.097 . S
O83 C111 1.214 . S
H84 C112 0.929 . S
H85 C113 0.929 . S
H86 C114 0.930 . S
H87 C115 0.929 . S
H88 C117 0.930 . S
H89 C94 0.930 . S
H90 C98 0.930 . S
O91 Co60 2.037 . S
O91 C111 1.234 . S
C92 O66 1.269 . S
C92 O67 1.257 . S
C93 H68 0.930 . S
C93 C96 1.388 1_556 S
C93 C98 1.418 . S
C94 H89 0.930 . S
C94 C97 1.404 . S
C94 C98 1.353 . S
N95 Co60 2.145 . S
N95 C96 1.397 . S
N95 C97 1.334 1_554 S
C96 H77 0.929 . S
C96 C93 1.388 1_554 S
C96 N95 1.397 . S
C97 H78 0.929 . S
C97 C94 1.404 . S
C97 N95 1.334 1_556 S
C98 H90 0.930 . S
C98 C93 1.418 . S
C98 C94 1.353 . S
C99 H69 0.930 . S
C99 N100 1.330 . S
C99 C101 1.446 . S
N100 Co59 2.151 . S
N100 C99 1.330 . S
N100 C104 1.418 . S
C101 H80 0.929 . S
C101 C99 1.446 . S
C101 C102 1.332 . S
C102 H82 0.931 . S
C102 C101 1.332 . S
C102 C103 1.267 . S
C103 H71 0.929 . S
C103 C102 1.267 . S
C103 C104 1.251 . S
C104 H74 0.929 . S
C104 N100 1.418 . S
C104 C103 1.251 . S
C105 H72 0.930 . S
C105 C107 1.406 1_565 S
C105 C110 1.261 . S
C106 H73 0.930 . S
C106 N108 1.325 . S
C106 C109 1.357 1_545 S
C107 H75 0.928 . S
C107 C105 1.406 1_545 S
C107 N108 1.261 . S
N108 Co59 2.214 . S
N108 C106 1.325 . S
N108 C107 1.261 . S
C109 H79 0.931 . S
C109 C106 1.357 1_565 S
C109 C110 1.312 . S
C110 H81 0.930 . S
C110 C105 1.261 . S
C110 C109 1.312 . S
C111 O83 1.214 . S
C111 O91 1.234 . S
C112 H84 0.929 . S
C112 C115 1.391 . S
C112 C117 1.391 . S
C113 H85 0.929 . S
C113 C114 1.390 . S
C113 N116 1.391 . S
C114 H86 0.930 . S
C114 C113 1.390 . S
C114 C115 1.392 . S
C115 H87 0.929 . S
C115 C112 1.391 . S
C115 C114 1.392 . S
N116 Co60 2.257 . S
N116 C113 1.391 . S
N116 C117 1.388 . S
C117 H88 0.930 . S
C117 C112 1.391 . S
C117 N116 1.388 . S
Co118 O120 2.143 . S
Co118 O126 2.074 . S
Co118 O129 2.093 . S
Co118 O142 2.097 . S
Co118 N159 2.151 . S
Co118 N167 2.214 . S
Co119 O120 2.160 . S
Co119 O125 2.058 . S
Co119 O135 2.057 . S
Co119 O150 2.037 . S
Co119 N154 2.145 . S
Co119 N175 2.257 . S
O120 Co118 2.143 . S
O120 Co119 2.160 . S
C121 O122 1.278 . S
C121 O129 1.224 . S
O122 C121 1.278 . S
C123 O124 1.245 . S
C123 O135 1.232 . S
O124 C123 1.245 . S
O125 Co119 2.058 . S
O125 C151 1.269 . S
O126 Co118 2.074 . S
O126 C151 1.257 . S
H127 C152 0.930 . S
H128 C158 0.930 . S
O129 Co118 2.093 . S
O129 C121 1.224 . S
H130 C162 0.929 . S
H131 C164 0.930 . S
H132 C165 0.930 . S
H133 C163 0.929 . S
H134 C166 0.928 . S
O135 Co119 2.057 . S
O135 C123 1.232 . S
H136 C155 0.929 . S
H137 C156 0.929 . S
H138 C168 0.931 . S
H139 C160 0.929 . S
H140 C169 0.930 . S
H141 C161 0.931 . S
O142 Co118 2.097 . S
O142 C170 1.214 . S
H143 C171 0.929 . S
H144 C172 0.929 . S
H145 C173 0.930 . S
H146 C174 0.929 . S
H147 C176 0.930 . S
H148 C153 0.930 . S
H149 C157 0.930 . S
O150 Co119 2.037 . S
O150 C170 1.234 . S
C151 O125 1.269 . S
C151 O126 1.257 . S
C152 H127 0.930 . S
C152 C155 1.388 1_556 S
C152 C157 1.418 . S
C153 H148 0.930 . S
C153 C156 1.404 . S
C153 C157 1.353 . S
N154 Co119 2.145 . S
N154 C155 1.397 . S
N154 C156 1.334 1_554 S
C155 H136 0.929 . S
C155 C152 1.388 1_554 S
C155 N154 1.397 . S
C156 H137 0.929 . S
C156 C153 1.404 . S
C156 N154 1.334 1_556 S
C157 H149 0.930 . S
C157 C152 1.418 . S
C157 C153 1.353 . S
C158 H128 0.930 . S
C158 N159 1.330 . S
C158 C160 1.446 . S
N159 Co118 2.151 . S
N159 C158 1.330 . S
N159 C163 1.418 . S
C160 H139 0.929 . S
C160 C158 1.446 . S
C160 C161 1.332 . S
C161 H141 0.931 . S
C161 C160 1.332 . S
C161 C162 1.267 . S
C162 H130 0.929 . S
C162 C161 1.267 . S
C162 C163 1.251 . S
C163 H133 0.929 . S
C163 N159 1.418 . S
C163 C162 1.251 . S
C164 H131 0.930 . S
C164 C166 1.406 1_455 S
C164 C169 1.261 . S
C165 H132 0.930 . S
C165 N167 1.325 . S
C165 C168 1.357 1_655 S
C166 H134 0.928 . S
C166 C164 1.406 1_655 S
C166 N167 1.261 . S
N167 Co118 2.214 . S
N167 C165 1.325 . S
N167 C166 1.261 . S
C168 H138 0.931 . S
C168 C165 1.357 1_455 S
C168 C169 1.312 . S
C169 H140 0.930 . S
C169 C164 1.261 . S
C169 C168 1.312 . S
C170 O142 1.214 . S
C170 O150 1.234 . S
C171 H143 0.929 . S
C171 C174 1.391 . S
C171 C176 1.391 . S
C172 H144 0.929 . S
C172 C173 1.390 . S
C172 N175 1.391 . S
C173 H145 0.930 . S
C173 C172 1.390 . S
C173 C174 1.392 . S
C174 H146 0.929 . S
C174 C171 1.391 . S
C174 C173 1.392 . S
N175 Co119 2.257 . S
N175 C172 1.391 . S
N175 C176 1.388 . S
C176 H147 0.930 . S
C176 C171 1.391 . S
C176 N175 1.388 . S
Co177 O179 2.143 . S
Co177 O185 2.074 . S
Co177 O188 2.093 . S
Co177 O201 2.097 . S
Co177 N218 2.151 . S
Co177 N226 2.214 . S
Co178 O179 2.160 . S
Co178 O184 2.058 . S
Co178 O194 2.057 . S
Co178 O209 2.037 . S
Co178 N213 2.145 . S
Co178 N234 2.257 . S
O179 Co177 2.143 . S
O179 Co178 2.160 . S
C180 O181 1.278 . S
C180 O188 1.224 . S
O181 C180 1.278 . S
C182 O183 1.245 . S
C182 O194 1.232 . S
O183 C182 1.245 . S
O184 Co178 2.058 . S
O184 C210 1.269 . S
O185 Co177 2.074 . S
O185 C210 1.257 . S
H186 C211 0.930 . S
H187 C217 0.930 . S
O188 Co177 2.093 . S
O188 C180 1.224 . S
H189 C221 0.929 . S
H190 C223 0.930 . S
H191 C224 0.930 . S
H192 C222 0.929 . S
H193 C225 0.928 . S
O194 Co178 2.057 . S
O194 C182 1.232 . S
H195 C214 0.929 . S
H196 C215 0.929 . S
H197 C227 0.931 . S
H198 C219 0.929 . S
H199 C228 0.930 . S
H200 C220 0.931 . S
O201 Co177 2.097 . S
O201 C229 1.214 . S
H202 C230 0.929 . S
H203 C231 0.929 . S
H204 C232 0.930 . S
H205 C233 0.929 . S
H206 C235 0.930 . S
H207 C212 0.930 . S
H208 C216 0.930 . S
O209 Co178 2.037 . S
O209 C229 1.234 . S
C210 O184 1.269 . S
C210 O185 1.257 . S
C211 H186 0.930 . S
C211 C214 1.388 . S
C211 C216 1.418 . S
C212 H207 0.930 . S
C212 C215 1.404 . S
C212 C216 1.353 . S
N213 Co178 2.145 . S
N213 C214 1.397 . S
N213 C215 1.334 . S
C214 H195 0.929 . S
C214 C211 1.388 . S
C214 N213 1.397 . S
C215 H196 0.929 . S
C215 C212 1.404 . S
C215 N213 1.334 . S
C216 H208 0.930 . S
C216 C211 1.418 . S
C216 C212 1.353 . S
C217 H187 0.930 . S
C217 N218 1.330 . S
C217 C219 1.446 . S
N218 Co177 2.151 . S
N218 C217 1.330 . S
N218 C222 1.418 . S
C219 H198 0.929 . S
C219 C217 1.446 . S
C219 C220 1.332 . S
C220 H200 0.931 . S
C220 C219 1.332 . S
C220 C221 1.267 . S
C221 H189 0.929 . S
C221 C220 1.267 . S
C221 C222 1.251 . S
C222 H192 0.929 . S
C222 N218 1.418 . S
C222 C221 1.251 . S
C223 H190 0.930 . S
C223 C225 1.406 . S
C223 C228 1.261 . S
C224 H191 0.930 . S
C224 N226 1.325 . S
C224 C227 1.357 . S
C225 H193 0.928 . S
C225 C223 1.406 . S
C225 N226 1.261 . S
N226 Co177 2.214 . S
N226 C224 1.325 . S
N226 C225 1.261 . S
C227 H197 0.931 . S
C227 C224 1.357 . S
C227 C228 1.312 . S
C228 H199 0.930 . S
C228 C223 1.261 . S
C228 C227 1.312 . S
C229 O201 1.214 . S
C229 O209 1.234 . S
C230 H202 0.929 . S
C230 C233 1.391 . S
C230 C235 1.391 . S
C231 H203 0.929 . S
C231 C232 1.390 . S
C231 N234 1.391 . S
C232 H204 0.930 . S
C232 C231 1.390 . S
C232 C233 1.392 . S
C233 H205 0.929 . S
C233 C230 1.391 . S
C233 C232 1.392 . S
N234 Co178 2.257 . S
N234 C231 1.391 . S
N234 C235 1.388 . S
C235 H206 0.930 . S
C235 C230 1.391 . S
C235 N234 1.388 . S
Co236 O238 2.143 . S
Co236 O244 2.074 . S
Co236 O247 2.093 . S
Co236 O260 2.097 . S
Co236 N277 2.151 . S
Co236 N285 2.214 . S
Co237 O238 2.160 . S
Co237 O243 2.058 . S
Co237 O253 2.057 . S
Co237 O268 2.037 . S
Co237 N272 2.145 . S
Co237 N293 2.257 . S
O238 Co236 2.143 . S
O238 Co237 2.160 . S
C239 O240 1.278 . S
C239 O247 1.224 . S
O240 C239 1.278 . S
C241 O242 1.245 . S
C241 O253 1.232 . S
O242 C241 1.245 . S
O243 Co237 2.058 . S
O243 C269 1.269 . S
O244 Co236 2.074 . S
O244 C269 1.257 . S
H245 C270 0.930 . S
H246 C276 0.930 . S
O247 Co236 2.093 . S
O247 C239 1.224 . S
H248 C280 0.929 . S
H249 C282 0.930 . S
H250 C283 0.930 . S
H251 C281 0.929 . S
H252 C284 0.928 . S
O253 Co237 2.057 . S
O253 C241 1.232 . S
H254 C273 0.929 . S
H255 C274 0.929 . S
H256 C286 0.931 . S
H257 C278 0.929 . S
H258 C287 0.930 . S
H259 C279 0.931 . S
O260 Co236 2.097 . S
O260 C288 1.214 . S
H261 C289 0.929 . S
H262 C290 0.929 . S
H263 C291 0.930 . S
H264 C292 0.929 . S
H265 C294 0.930 . S
H266 C271 0.930 . S
H267 C275 0.930 . S
O268 Co237 2.037 . S
O268 C288 1.234 . S
C269 O243 1.269 . S
C269 O244 1.257 . S
C270 H245 0.930 . S
C270 C273 1.388 . S
C270 C275 1.418 . S
C271 H266 0.930 . S
C271 C274 1.404 . S
C271 C275 1.353 . S
N272 Co237 2.145 . S
N272 C273 1.397 . S
N272 C274 1.334 . S
C273 H254 0.929 . S
C273 C270 1.388 . S
C273 N272 1.397 . S
C274 H255 0.929 . S
C274 C271 1.404 . S
C274 N272 1.334 . S
C275 H267 0.930 . S
C275 C270 1.418 . S
C275 C271 1.353 . S
C276 H246 0.930 . S
C276 N277 1.330 . S
C276 C278 1.446 . S
N277 Co236 2.151 . S
N277 C276 1.330 . S
N277 C281 1.418 . S
C278 H257 0.929 . S
C278 C276 1.446 . S
C278 C279 1.332 . S
C279 H259 0.931 . S
C279 C278 1.332 . S
C279 C280 1.267 . S
C280 H248 0.929 . S
C280 C279 1.267 . S
C280 C281 1.251 . S
C281 H251 0.929 . S
C281 N277 1.418 . S
C281 C280 1.251 . S
C282 H249 0.930 . S
C282 C284 1.406 1_545 S
C282 C287 1.261 . S
C283 H250 0.930 . S
C283 N285 1.325 . S
C283 C286 1.357 1_565 S
C284 H252 0.928 . S
C284 C282 1.406 1_565 S
C284 N285 1.261 . S
N285 Co236 2.214 . S
N285 C283 1.325 . S
N285 C284 1.261 . S
C286 H256 0.931 . S
C286 C283 1.357 1_545 S
C286 C287 1.312 . S
C287 H258 0.930 . S
C287 C282 1.261 . S
C287 C286 1.312 . S
C288 O260 1.214 . S
C288 O268 1.234 . S
C289 H261 0.929 . S
C289 C292 1.391 . S
C289 C294 1.391 . S
C290 H262 0.929 . S
C290 C291 1.390 . S
C290 N293 1.391 . S
C291 H263 0.930 . S
C291 C290 1.390 . S
C291 C292 1.392 . S
C292 H264 0.929 . S
C292 C289 1.391 . S
C292 C291 1.392 . S
N293 Co237 2.257 . S
N293 C290 1.391 . S
N293 C294 1.388 . S
C294 H265 0.930 . S
C294 C289 1.391 . S
C294 N293 1.388 . S
Co295 O297 2.143 . S
Co295 O303 2.074 . S
Co295 O306 2.093 . S
Co295 O319 2.097 . S
Co295 N336 2.151 . S
Co295 N344 2.214 . S
Co296 O297 2.160 . S
Co296 O302 2.058 . S
Co296 O312 2.057 . S
Co296 O327 2.037 . S
Co296 N331 2.145 . S
Co296 N352 2.257 . S
O297 Co295 2.143 . S
O297 Co296 2.160 . S
C298 O299 1.278 . S
C298 O306 1.224 . S
O299 C298 1.278 . S
C300 O301 1.245 . S
C300 O312 1.232 . S
O301 C300 1.245 . S
O302 Co296 2.058 . S
O302 C328 1.269 . S
O303 Co295 2.074 . S
O303 C328 1.257 . S
H304 C329 0.930 . S
H305 C335 0.930 . S
O306 Co295 2.093 . S
O306 C298 1.224 . S
H307 C339 0.929 . S
H308 C341 0.930 . S
H309 C342 0.930 . S
H310 C340 0.929 . S
H311 C343 0.928 . S
O312 Co296 2.057 . S
O312 C300 1.232 . S
H313 C332 0.929 . S
H314 C333 0.929 . S
H315 C345 0.931 . S
H316 C337 0.929 . S
H317 C346 0.930 . S
H318 C338 0.931 . S
O319 Co295 2.097 . S
O319 C347 1.214 . S
H320 C348 0.929 . S
H321 C349 0.929 . S
H322 C350 0.930 . S
H323 C351 0.929 . S
H324 C353 0.930 . S
H325 C330 0.930 . S
H326 C334 0.930 . S
O327 Co296 2.037 . S
O327 C347 1.234 . S
C328 O302 1.269 . S
C328 O303 1.257 . S
C329 H304 0.930 . S
C329 C332 1.388 . S
C329 C334 1.418 . S
C330 H325 0.930 . S
C330 C333 1.404 . S
C330 C334 1.353 . S
N331 Co296 2.145 . S
N331 C332 1.397 . S
N331 C333 1.334 . S
C332 H313 0.929 . S
C332 C329 1.388 . S
C332 N331 1.397 . S
C333 H314 0.929 . S
C333 C330 1.404 . S
C333 N331 1.334 . S
C334 H326 0.930 . S
C334 C329 1.418 . S
C334 C330 1.353 . S
C335 H305 0.930 . S
C335 N336 1.330 . S
C335 C337 1.446 . S
N336 Co295 2.151 . S
N336 C335 1.330 . S
N336 C340 1.418 . S
C337 H316 0.929 . S
C337 C335 1.446 . S
C337 C338 1.332 . S
C338 H318 0.931 . S
C338 C337 1.332 . S
C338 C339 1.267 . S
C339 H307 0.929 . S
C339 C338 1.267 . S
C339 C340 1.251 . S
C340 H310 0.929 . S
C340 N336 1.418 . S
C340 C339 1.251 . S
C341 H308 0.930 . S
C341 C343 1.406 1_655 S
C341 C346 1.261 . S
C342 H309 0.930 . S
C342 N344 1.325 . S
C342 C345 1.357 1_455 S
C343 H311 0.928 . S
C343 C341 1.406 1_455 S
C343 N344 1.261 . S
N344 Co295 2.214 . S
N344 C342 1.325 . S
N344 C343 1.261 . S
C345 H315 0.931 . S
C345 C342 1.357 1_655 S
C345 C346 1.312 . S
C346 H317 0.930 . S
C346 C341 1.261 . S
C346 C345 1.312 . S
C347 O319 1.214 . S
C347 O327 1.234 . S
C348 H320 0.929 . S
C348 C351 1.391 . S
C348 C353 1.391 . S
C349 H321 0.929 . S
C349 C350 1.390 . S
C349 N352 1.391 . S
C350 H322 0.930 . S
C350 C349 1.390 . S
C350 C351 1.392 . S
C351 H323 0.929 . S
C351 C348 1.391 . S
C351 C350 1.392 . S
N352 Co296 2.257 . S
N352 C349 1.391 . S
N352 C353 1.388 . S
C353 H324 0.930 . S
C353 C348 1.391 . S
C353 N352 1.388 . S
Co354 O356 2.143 . S
Co354 O362 2.074 . S
Co354 O365 2.093 . S
Co354 O378 2.097 . S
Co354 N395 2.151 . S
Co354 N403 2.214 . S
Co355 O356 2.160 . S
Co355 O361 2.058 . S
Co355 O371 2.057 . S
Co355 O386 2.037 . S
Co355 N390 2.145 . S
Co355 N411 2.257 . S
O356 Co354 2.143 . S
O356 Co355 2.160 . S
C357 O358 1.278 . S
C357 O365 1.224 . S
O358 C357 1.278 . S
C359 O360 1.245 . S
C359 O371 1.232 . S
O360 C359 1.245 . S
O361 Co355 2.058 . S
O361 C387 1.269 . S
O362 Co354 2.074 . S
O362 C387 1.257 . S
H363 C388 0.930 . S
H364 C394 0.930 . S
O365 Co354 2.093 . S
O365 C357 1.224 . S
H366 C398 0.929 . S
H367 C400 0.930 . S
H368 C401 0.930 . S
H369 C399 0.929 . S
H370 C402 0.928 . S
O371 Co355 2.057 . S
O371 C359 1.232 . S
H372 C391 0.929 . S
H373 C392 0.929 . S
H374 C404 0.931 . S
H375 C396 0.929 . S
H376 C405 0.930 . S
H377 C397 0.931 . S
O378 Co354 2.097 . S
O378 C406 1.214 . S
H379 C407 0.929 . S
H380 C408 0.929 . S
H381 C409 0.930 . S
H382 C410 0.929 . S
H383 C412 0.930 . S
H384 C389 0.930 . S
H385 C393 0.930 . S
O386 Co355 2.037 . S
O386 C406 1.234 . S
C387 O361 1.269 . S
C387 O362 1.257 . S
C388 H363 0.930 . S
C388 C391 1.388 1_554 S
C388 C393 1.418 . S
C389 H384 0.930 . S
C389 C392 1.404 . S
C389 C393 1.353 . S
N390 Co355 2.145 . S
N390 C391 1.397 . S
N390 C392 1.334 1_556 S
C391 H372 0.929 . S
C391 C388 1.388 1_556 S
C391 N390 1.397 . S
C392 H373 0.929 . S
C392 C389 1.404 . S
C392 N390 1.334 1_554 S
C393 H385 0.930 . S
C393 C388 1.418 . S
C393 C389 1.353 . S
C394 H364 0.930 . S
C394 N395 1.330 . S
C394 C396 1.446 . S
N395 Co354 2.151 . S
N395 C394 1.330 . S
N395 C399 1.418 . S
C396 H375 0.929 . S
C396 C394 1.446 . S
C396 C397 1.332 . S
C397 H377 0.931 . S
C397 C396 1.332 . S
C397 C398 1.267 . S
C398 H366 0.929 . S
C398 C397 1.267 . S
C398 C399 1.251 . S
C399 H369 0.929 . S
C399 N395 1.418 . S
C399 C398 1.251 . S
C400 H367 0.930 . S
C400 C402 1.406 . S
C400 C405 1.261 . S
C401 H368 0.930 . S
C401 N403 1.325 . S
C401 C404 1.357 . S
C402 H370 0.928 . S
C402 C400 1.406 . S
C402 N403 1.261 . S
N403 Co354 2.214 . S
N403 C401 1.325 . S
N403 C402 1.261 . S
C404 H374 0.931 . S
C404 C401 1.357 . S
C404 C405 1.312 . S
C405 H376 0.930 . S
C405 C400 1.261 . S
C405 C404 1.312 . S
C406 O378 1.214 . S
C406 O386 1.234 . S
C407 H379 0.929 . S
C407 C410 1.391 . S
C407 C412 1.391 . S
C408 H380 0.929 . S
C408 C409 1.390 . S
C408 N411 1.391 . S
C409 H381 0.930 . S
C409 C408 1.390 . S
C409 C410 1.392 . S
C410 H382 0.929 . S
C410 C407 1.391 . S
C410 C409 1.392 . S
N411 Co355 2.257 . S
N411 C408 1.391 . S
N411 C412 1.388 . S
C412 H383 0.930 . S
C412 C407 1.391 . S
C412 N411 1.388 . S
Co413 O415 2.143 . S
Co413 O421 2.074 . S
Co413 O424 2.093 . S
Co413 O437 2.097 . S
Co413 N454 2.151 . S
Co413 N462 2.214 . S
Co414 O415 2.160 . S
Co414 O420 2.058 . S
Co414 O430 2.057 . S
Co414 O445 2.037 . S
Co414 N449 2.145 . S
Co414 N470 2.257 . S
O415 Co413 2.143 . S
O415 Co414 2.160 . S
C416 O417 1.278 . S
C416 O424 1.224 . S
O417 C416 1.278 . S
C418 O419 1.245 . S
C418 O430 1.232 . S
O419 C418 1.245 . S
O420 Co414 2.058 . S
O420 C446 1.269 . S
O421 Co413 2.074 . S
O421 C446 1.257 . S
H422 C447 0.930 . S
H423 C453 0.930 . S
O424 Co413 2.093 . S
O424 C416 1.224 . S
H425 C457 0.929 . S
H426 C459 0.930 . S
H427 C460 0.930 . S
H428 C458 0.929 . S
H429 C461 0.928 . S
O430 Co414 2.057 . S
O430 C418 1.232 . S
H431 C450 0.929 . S
H432 C451 0.929 . S
H433 C463 0.931 . S
H434 C455 0.929 . S
H435 C464 0.930 . S
H436 C456 0.931 . S
O437 Co413 2.097 . S
O437 C465 1.214 . S
H438 C466 0.929 . S
H439 C467 0.929 . S
H440 C468 0.930 . S
H441 C469 0.929 . S
H442 C471 0.930 . S
H443 C448 0.930 . S
H444 C452 0.930 . S
O445 Co414 2.037 . S
O445 C465 1.234 . S
C446 O420 1.269 . S
C446 O421 1.257 . S
C447 H422 0.930 . S
C447 C450 1.388 1_554 S
C447 C452 1.418 . S
C448 H443 0.930 . S
C448 C451 1.404 . S
C448 C452 1.353 . S
N449 Co414 2.145 . S
N449 C450 1.397 . S
N449 C451 1.334 1_556 S
C450 H431 0.929 . S
C450 C447 1.388 1_556 S
C450 N449 1.397 . S
C451 H432 0.929 . S
C451 C448 1.404 . S
C451 N449 1.334 1_554 S
C452 H444 0.930 . S
C452 C447 1.418 . S
C452 C448 1.353 . S
C453 H423 0.930 . S
C453 N454 1.330 . S
C453 C455 1.446 . S
N454 Co413 2.151 . S
N454 C453 1.330 . S
N454 C458 1.418 . S
C455 H434 0.929 . S
C455 C453 1.446 . S
C455 C456 1.332 . S
C456 H436 0.931 . S
C456 C455 1.332 . S
C456 C457 1.267 . S
C457 H425 0.929 . S
C457 C456 1.267 . S
C457 C458 1.251 . S
C458 H428 0.929 . S
C458 N454 1.418 . S
C458 C457 1.251 . S
C459 H426 0.930 . S
C459 C461 1.406 1_545 S
C459 C464 1.261 . S
C460 H427 0.930 . S
C460 N462 1.325 . S
C460 C463 1.357 1_565 S
C461 H429 0.928 . S
C461 C459 1.406 1_565 S
C461 N462 1.261 . S
N462 Co413 2.214 . S
N462 C460 1.325 . S
N462 C461 1.261 . S
C463 H433 0.931 . S
C463 C460 1.357 1_545 S
C463 C464 1.312 . S
C464 H435 0.930 . S
C464 C459 1.261 . S
C464 C463 1.312 . S
C465 O437 1.214 . S
C465 O445 1.234 . S
C466 H438 0.929 . S
C466 C469 1.391 . S
C466 C471 1.391 . S
C467 H439 0.929 . S
C467 C468 1.390 . S
C467 N470 1.391 . S
C468 H440 0.930 . S
C468 C467 1.390 . S
C468 C469 1.392 . S
C469 H441 0.929 . S
C469 C466 1.391 . S
C469 C468 1.392 . S
N470 Co414 2.257 . S
N470 C467 1.391 . S
N470 C471 1.388 . S
C471 H442 0.930 . S
C471 C466 1.391 . S
C471 N470 1.388 . S
Co472 O474 2.143 . S
Co472 O480 2.074 . S
Co472 O483 2.093 . S
Co472 O496 2.097 . S
Co472 N513 2.151 . S
Co472 N521 2.214 . S
Co473 O474 2.160 . S
Co473 O479 2.058 . S
Co473 O489 2.057 . S
Co473 O504 2.037 . S
Co473 N508 2.145 . S
Co473 N529 2.257 . S
O474 Co472 2.143 . S
O474 Co473 2.160 . S
C475 O476 1.278 . S
C475 O483 1.224 . S
O476 C475 1.278 . S
C477 O478 1.245 . S
C477 O489 1.232 . S
O478 C477 1.245 . S
O479 Co473 2.058 . S
O479 C505 1.269 . S
O480 Co472 2.074 . S
O480 C505 1.257 . S
H481 C506 0.930 . S
H482 C512 0.930 . S
O483 Co472 2.093 . S
O483 C475 1.224 . S
H484 C516 0.929 . S
H485 C518 0.930 . S
H486 C519 0.930 . S
H487 C517 0.929 . S
H488 C520 0.928 . S
O489 Co473 2.057 . S
O489 C477 1.232 . S
H490 C509 0.929 . S
H491 C510 0.929 . S
H492 C522 0.931 . S
H493 C514 0.929 . S
H494 C523 0.930 . S
H495 C515 0.931 . S
O496 Co472 2.097 . S
O496 C524 1.214 . S
H497 C525 0.929 . S
H498 C526 0.929 . S
H499 C527 0.930 . S
H500 C528 0.929 . S
H501 C530 0.930 . S
H502 C507 0.930 . S
H503 C511 0.930 . S
O504 Co473 2.037 . S
O504 C524 1.234 . S
C505 O479 1.269 . S
C505 O480 1.257 . S
C506 H481 0.930 . S
C506 C509 1.388 1_554 S
C506 C511 1.418 . S
C507 H502 0.930 . S
C507 C510 1.404 . S
C507 C511 1.353 . S
N508 Co473 2.145 . S
N508 C509 1.397 . S
N508 C510 1.334 1_556 S
C509 H490 0.929 . S
C509 C506 1.388 1_556 S
C509 N508 1.397 . S
C510 H491 0.929 . S
C510 C507 1.404 . S
C510 N508 1.334 1_554 S
C511 H503 0.930 . S
C511 C506 1.418 . S
C511 C507 1.353 . S
C512 H482 0.930 . S
C512 N513 1.330 . S
C512 C514 1.446 . S
N513 Co472 2.151 . S
N513 C512 1.330 . S
N513 C517 1.418 . S
C514 H493 0.929 . S
C514 C512 1.446 . S
C514 C515 1.332 . S
C515 H495 0.931 . S
C515 C514 1.332 . S
C515 C516 1.267 . S
C516 H484 0.929 . S
C516 C515 1.267 . S
C516 C517 1.251 . S
C517 H487 0.929 . S
C517 N513 1.418 . S
C517 C516 1.251 . S
C518 H485 0.930 . S
C518 C520 1.406 1_655 S
C518 C523 1.261 . S
C519 H486 0.930 . S
C519 N521 1.325 . S
C519 C522 1.357 1_455 S
C520 H488 0.928 . S
C520 C518 1.406 1_455 S
C520 N521 1.261 . S
N521 Co472 2.214 . S
N521 C519 1.325 . S
N521 C520 1.261 . S
C522 H492 0.931 . S
C522 C519 1.357 1_655 S
C522 C523 1.312 . S
C523 H494 0.930 . S
C523 C518 1.261 . S
C523 C522 1.312 . S
C524 O496 1.214 . S
C524 O504 1.234 . S
C525 H497 0.929 . S
C525 C528 1.391 . S
C525 C530 1.391 . S
C526 H498 0.929 . S
C526 C527 1.390 . S
C526 N529 1.391 . S
C527 H499 0.930 . S
C527 C526 1.390 . S
C527 C528 1.392 . S
C528 H500 0.929 . S
C528 C525 1.391 . S
C528 C527 1.392 . S
N529 Co473 2.257 . S
N529 C526 1.391 . S
N529 C530 1.388 . S
C530 H501 0.930 . S
C530 C525 1.391 . S
C530 N529 1.388 . S
Co531 O533 2.143 . S
Co531 O539 2.074 . S
Co531 O542 2.093 . S
Co531 O555 2.097 . S
Co531 N572 2.151 . S
Co531 N580 2.214 . S
Co532 O533 2.160 . S
Co532 O538 2.058 . S
Co532 O548 2.057 . S
Co532 O563 2.037 . S
Co532 N567 2.145 . S
Co532 N588 2.257 . S
O533 Co531 2.143 . S
O533 Co532 2.160 . S
C534 O535 1.278 . S
C534 O542 1.224 . S
O535 C534 1.278 . S
C536 O537 1.245 . S
C536 O548 1.232 . S
O537 C536 1.245 . S
O538 Co532 2.058 . S
O538 C564 1.269 . S
O539 Co531 2.074 . S
O539 C564 1.257 . S
H540 C565 0.930 . S
H541 C571 0.930 . S
O542 Co531 2.093 . S
O542 C534 1.224 . S
H543 C575 0.929 . S
H544 C577 0.930 . S
H545 C578 0.930 . S
H546 C576 0.929 . S
H547 C579 0.928 . S
O548 Co532 2.057 . S
O548 C536 1.232 . S
H549 C568 0.929 . S
H550 C569 0.929 . S
H551 C581 0.931 . S
H552 C573 0.929 . S
H553 C582 0.930 . S
H554 C574 0.931 . S
O555 Co531 2.097 . S
O555 C583 1.214 . S
H556 C584 0.929 . S
H557 C585 0.929 . S
H558 C586 0.930 . S
H559 C587 0.929 . S
H560 C589 0.930 . S
H561 C566 0.930 . S
H562 C570 0.930 . S
O563 Co532 2.037 . S
O563 C583 1.234 . S
C564 O538 1.269 . S
C564 O539 1.257 . S
C565 H540 0.930 . S
C565 C568 1.388 . S
C565 C570 1.418 . S
C566 H561 0.930 . S
C566 C569 1.404 . S
C566 C570 1.353 . S
N567 Co532 2.145 . S
N567 C568 1.397 . S
N567 C569 1.334 . S
C568 H549 0.929 . S
C568 C565 1.388 . S
C568 N567 1.397 . S
C569 H550 0.929 . S
C569 C566 1.404 . S
C569 N567 1.334 . S
C570 H562 0.930 . S
C570 C565 1.418 . S
C570 C566 1.353 . S
C571 H541 0.930 . S
C571 N572 1.330 . S
C571 C573 1.446 . S
N572 Co531 2.151 . S
N572 C571 1.330 . S
N572 C576 1.418 . S
C573 H552 0.929 . S
C573 C571 1.446 . S
C573 C574 1.332 . S
C574 H554 0.931 . S
C574 C573 1.332 . S
C574 C575 1.267 . S
C575 H543 0.929 . S
C575 C574 1.267 . S
C575 C576 1.251 . S
C576 H546 0.929 . S
C576 N572 1.418 . S
C576 C575 1.251 . S
C577 H544 0.930 . S
C577 C579 1.406 . S
C577 C582 1.261 . S
C578 H545 0.930 . S
C578 N580 1.325 . S
C578 C581 1.357 . S
C579 H547 0.928 . S
C579 C577 1.406 . S
C579 N580 1.261 . S
N580 Co531 2.214 . S
N580 C578 1.325 . S
N580 C579 1.261 . S
C581 H551 0.931 . S
C581 C578 1.357 . S
C581 C582 1.312 . S
C582 H553 0.930 . S
C582 C577 1.261 . S
C582 C581 1.312 . S
C583 O555 1.214 . S
C583 O563 1.234 . S
C584 H556 0.929 . S
C584 C587 1.391 . S
C584 C589 1.391 . S
C585 H557 0.929 . S
C585 C586 1.390 . S
C585 N588 1.391 . S
C586 H558 0.930 . S
C586 C585 1.390 . S
C586 C587 1.392 . S
C587 H559 0.929 . S
C587 C584 1.391 . S
C587 C586 1.392 . S
N588 Co532 2.257 . S
N588 C585 1.391 . S
N588 C589 1.388 . S
C589 H560 0.930 . S
C589 C584 1.391 . S
C589 N588 1.388 . S
Co590 O592 2.143 . S
Co590 O598 2.074 . S
Co590 O601 2.093 . S
Co590 O614 2.097 . S
Co590 N631 2.151 . S
Co590 N639 2.214 . S
Co591 O592 2.160 . S
Co591 O597 2.058 . S
Co591 O607 2.057 . S
Co591 O622 2.037 . S
Co591 N626 2.145 . S
Co591 N647 2.257 . S
O592 Co590 2.143 . S
O592 Co591 2.160 . S
C593 O594 1.278 . S
C593 O601 1.224 . S
O594 C593 1.278 . S
C595 O596 1.245 . S
C595 O607 1.232 . S
O596 C595 1.245 . S
O597 Co591 2.058 . S
O597 C623 1.269 . S
O598 Co590 2.074 . S
O598 C623 1.257 . S
H599 C624 0.930 . S
H600 C630 0.930 . S
O601 Co590 2.093 . S
O601 C593 1.224 . S
H602 C634 0.929 . S
H603 C636 0.930 . S
H604 C637 0.930 . S
H605 C635 0.929 . S
H606 C638 0.928 . S
O607 Co591 2.057 . S
O607 C595 1.232 . S
H608 C627 0.929 . S
H609 C628 0.929 . S
H610 C640 0.931 . S
H611 C632 0.929 . S
H612 C641 0.930 . S
H613 C633 0.931 . S
O614 Co590 2.097 . S
O614 C642 1.214 . S
H615 C643 0.929 . S
H616 C644 0.929 . S
H617 C645 0.930 . S
H618 C646 0.929 . S
H619 C648 0.930 . S
H620 C625 0.930 . S
H621 C629 0.930 . S
O622 Co591 2.037 . S
O622 C642 1.234 . S
C623 O597 1.269 . S
C623 O598 1.257 . S
C624 H599 0.930 . S
C624 C627 1.388 . S
C624 C629 1.418 . S
C625 H620 0.930 . S
C625 C628 1.404 . S
C625 C629 1.353 . S
N626 Co591 2.145 . S
N626 C627 1.397 . S
N626 C628 1.334 . S
C627 H608 0.929 . S
C627 C624 1.388 . S
C627 N626 1.397 . S
C628 H609 0.929 . S
C628 C625 1.404 . S
C628 N626 1.334 . S
C629 H621 0.930 . S
C629 C624 1.418 . S
C629 C625 1.353 . S
C630 H600 0.930 . S
C630 N631 1.330 . S
C630 C632 1.446 . S
N631 Co590 2.151 . S
N631 C630 1.330 . S
N631 C635 1.418 . S
C632 H611 0.929 . S
C632 C630 1.446 . S
C632 C633 1.332 . S
C633 H613 0.931 . S
C633 C632 1.332 . S
C633 C634 1.267 . S
C634 H602 0.929 . S
C634 C633 1.267 . S
C634 C635 1.251 . S
C635 H605 0.929 . S
C635 N631 1.418 . S
C635 C634 1.251 . S
C636 H603 0.930 . S
C636 C638 1.406 1_565 S
C636 C641 1.261 . S
C637 H604 0.930 . S
C637 N639 1.325 . S
C637 C640 1.357 1_545 S
C638 H606 0.928 . S
C638 C636 1.406 1_545 S
C638 N639 1.261 . S
N639 Co590 2.214 . S
N639 C637 1.325 . S
N639 C638 1.261 . S
C640 H610 0.931 . S
C640 C637 1.357 1_565 S
C640 C641 1.312 . S
C641 H612 0.930 . S
C641 C636 1.261 . S
C641 C640 1.312 . S
C642 O614 1.214 . S
C642 O622 1.234 . S
C643 H615 0.929 . S
C643 C646 1.391 . S
C643 C648 1.391 . S
C644 H616 0.929 . S
C644 C645 1.390 . S
C644 N647 1.391 . S
C645 H617 0.930 . S
C645 C644 1.390 . S
C645 C646 1.392 . S
C646 H618 0.929 . S
C646 C643 1.391 . S
C646 C645 1.392 . S
N647 Co591 2.257 . S
N647 C644 1.391 . S
N647 C648 1.388 . S
C648 H619 0.930 . S
C648 C643 1.391 . S
C648 N647 1.388 . S
Co649 O651 2.143 . S
Co649 O657 2.074 . S
Co649 O660 2.093 . S
Co649 O673 2.097 . S
Co649 N690 2.151 . S
Co649 N698 2.214 . S
Co650 O651 2.160 . S
Co650 O656 2.058 . S
Co650 O666 2.057 . S
Co650 O681 2.037 . S
Co650 N685 2.145 . S
Co650 N706 2.257 . S
O651 Co649 2.143 . S
O651 Co650 2.160 . S
C652 O653 1.278 . S
C652 O660 1.224 . S
O653 C652 1.278 . S
C654 O655 1.245 . S
C654 O666 1.232 . S
O655 C654 1.245 . S
O656 Co650 2.058 . S
O656 C682 1.269 . S
O657 Co649 2.074 . S
O657 C682 1.257 . S
H658 C683 0.930 . S
H659 C689 0.930 . S
O660 Co649 2.093 . S
O660 C652 1.224 . S
H661 C693 0.929 . S
H662 C695 0.930 . S
H663 C696 0.930 . S
H664 C694 0.929 . S
H665 C697 0.928 . S
O666 Co650 2.057 . S
O666 C654 1.232 . S
H667 C686 0.929 . S
H668 C687 0.929 . S
H669 C699 0.931 . S
H670 C691 0.929 . S
H671 C700 0.930 . S
H672 C692 0.931 . S
O673 Co649 2.097 . S
O673 C701 1.214 . S
H674 C702 0.929 . S
H675 C703 0.929 . S
H676 C704 0.930 . S
H677 C705 0.929 . S
H678 C707 0.930 . S
H679 C684 0.930 . S
H680 C688 0.930 . S
O681 Co650 2.037 . S
O681 C701 1.234 . S
C682 O656 1.269 . S
C682 O657 1.257 . S
C683 H658 0.930 . S
C683 C686 1.388 . S
C683 C688 1.418 . S
C684 H679 0.930 . S
C684 C687 1.404 . S
C684 C688 1.353 . S
N685 Co650 2.145 . S
N685 C686 1.397 . S
N685 C687 1.334 . S
C686 H667 0.929 . S
C686 C683 1.388 . S
C686 N685 1.397 . S
C687 H668 0.929 . S
C687 C684 1.404 . S
C687 N685 1.334 . S
C688 H680 0.930 . S
C688 C683 1.418 . S
C688 C684 1.353 . S
C689 H659 0.930 . S
C689 N690 1.330 . S
C689 C691 1.446 . S
N690 Co649 2.151 . S
N690 C689 1.330 . S
N690 C694 1.418 . S
C691 H670 0.929 . S
C691 C689 1.446 . S
C691 C692 1.332 . S
C692 H672 0.931 . S
C692 C691 1.332 . S
C692 C693 1.267 . S
C693 H661 0.929 . S
C693 C692 1.267 . S
C693 C694 1.251 . S
C694 H664 0.929 . S
C694 N690 1.418 . S
C694 C693 1.251 . S
C695 H662 0.930 . S
C695 C697 1.406 1_455 S
C695 C700 1.261 . S
C696 H663 0.930 . S
C696 N698 1.325 . S
C696 C699 1.357 1_655 S
C697 H665 0.928 . S
C697 C695 1.406 1_655 S
C697 N698 1.261 . S
N698 Co649 2.214 . S
N698 C696 1.325 . S
N698 C697 1.261 . S
C699 H669 0.931 . S
C699 C696 1.357 1_455 S
C699 C700 1.312 . S
C700 H671 0.930 . S
C700 C695 1.261 . S
C700 C699 1.312 . S
C701 O673 1.214 . S
C701 O681 1.234 . S
C702 H674 0.929 . S
C702 C705 1.391 . S
C702 C707 1.391 . S
C703 H675 0.929 . S
C703 C704 1.390 . S
C703 N706 1.391 . S
C704 H676 0.930 . S
C704 C703 1.390 . S
C704 C705 1.392 . S
C705 H677 0.929 . S
C705 C702 1.391 . S
C705 C704 1.392 . S
N706 Co650 2.257 . S
N706 C703 1.391 . S
N706 C707 1.388 . S
C707 H678 0.930 . S
C707 C702 1.391 . S
C707 N706 1.388 . S
Co708 O710 2.143 . S
Co708 O716 2.074 . S
Co708 O719 2.093 . S
Co708 O732 2.097 . S
Co708 N749 2.151 . S
Co708 N757 2.214 . S
Co709 O710 2.160 . S
Co709 O715 2.058 . S
Co709 O725 2.057 . S
Co709 O740 2.037 . S
Co709 N744 2.145 . S
Co709 N765 2.257 . S
O710 Co708 2.143 . S
O710 Co709 2.160 . S
C711 O712 1.278 . S
C711 O719 1.224 . S
O712 C711 1.278 . S
C713 O714 1.245 . S
C713 O725 1.232 . S
O714 C713 1.245 . S
O715 Co709 2.058 . S
O715 C741 1.269 . S
O716 Co708 2.074 . S
O716 C741 1.257 . S
H717 C742 0.930 . S
H718 C748 0.930 . S
O719 Co708 2.093 . S
O719 C711 1.224 . S
H720 C752 0.929 . S
H721 C754 0.930 . S
H722 C755 0.930 . S
H723 C753 0.929 . S
H724 C756 0.928 . S
O725 Co709 2.057 . S
O725 C713 1.232 . S
H726 C745 0.929 . S
H727 C746 0.929 . S
H728 C758 0.931 . S
H729 C750 0.929 . S
H730 C759 0.930 . S
H731 C751 0.931 . S
O732 Co708 2.097 . S
O732 C760 1.214 . S
H733 C761 0.929 . S
H734 C762 0.955 . S
H735 C763 0.930 . S
H736 C764 0.929 . S
H737 C766 0.930 . S
H738 C743 0.930 . S
H739 C747 0.930 . S
O740 Co709 2.037 . S
O740 C760 1.234 . S
C741 O715 1.269 . S
C741 O716 1.257 . S
C742 H717 0.930 . S
C742 C745 1.388 . S
C742 C747 1.418 . S
C743 H738 0.930 . S
C743 C746 1.404 . S
C743 C747 1.353 . S
N744 Co709 2.145 . S
N744 C745 1.397 . S
N744 C746 1.334 . S
C745 H726 0.929 . S
C745 C742 1.388 . S
C745 N744 1.397 . S
C746 H727 0.929 . S
C746 C743 1.404 . S
C746 N744 1.334 . S
C747 H739 0.930 . S
C747 C742 1.418 . S
C747 C743 1.353 . S
C748 H718 0.930 . S
C748 N749 1.330 . S
C748 C750 1.446 . S
N749 Co708 2.151 . S
N749 C748 1.330 . S
N749 C753 1.418 . S
C750 H729 0.929 . S
C750 C748 1.446 . S
C750 C751 1.332 . S
C751 H731 0.931 . S
C751 C750 1.332 . S
C751 C752 1.267 . S
C752 H720 0.929 . S
C752 C751 1.267 . S
C752 C753 1.251 . S
C753 H723 0.929 . S
C753 N749 1.418 . S
C753 C752 1.251 . S
C754 H721 0.930 . S
C754 C756 1.406 . S
C754 C759 1.261 . S
C755 H722 0.930 . S
C755 N757 1.325 . S
C755 C758 1.357 . S
C756 H724 0.928 . S
C756 C754 1.406 . S
C756 N757 1.261 . S
N757 Co708 2.214 . S
N757 C755 1.325 . S
N757 C756 1.261 . S
C758 H728 0.931 . S
C758 C755 1.357 . S
C758 C759 1.312 . S
C759 H730 0.930 . S
C759 C754 1.261 . S
C759 C758 1.312 . S
C760 O732 1.214 . S
C760 O740 1.234 . S
C761 H733 0.929 . S
C761 C764 1.391 . S
C761 C766 1.391 1_455 S
C762 H734 0.955 . S
C762 C763 1.390 . S
C762 N765 1.391 1_455 S
C763 H735 0.930 . S
C763 C762 1.390 . S
C763 C764 1.392 . S
C764 H736 0.929 . S
C764 C761 1.391 . S
C764 C763 1.392 . S
N765 Co709 2.257 . S
N765 C762 1.391 1_655 S
N765 C766 1.388 . S
C766 H737 0.930 . S
C766 C761 1.391 1_655 S
C766 N765 1.388 . S
Co767 O769 2.143 . S
Co767 O775 2.074 . S
Co767 O778 2.093 . S
Co767 O791 2.097 . S
Co767 N808 2.151 . S
Co767 N816 2.214 . S
Co768 O769 2.160 . S
Co768 O774 2.058 . S
Co768 O784 2.057 . S
Co768 O799 2.037 . S
Co768 N803 2.145 . S
Co768 N824 2.257 . S
O769 Co767 2.143 . S
O769 Co768 2.160 . S
C770 O771 1.278 . S
C770 O778 1.224 . S
O771 C770 1.278 . S
C772 O773 1.245 . S
C772 O784 1.232 . S
O773 C772 1.245 . S
O774 Co768 2.058 . S
O774 C800 1.269 . S
O775 Co767 2.074 . S
O775 C800 1.257 . S
H776 C801 0.930 . S
H777 C807 0.930 . S
O778 Co767 2.093 . S
O778 C770 1.224 . S
H779 C811 0.929 . S
H780 C813 0.930 . S
H781 C814 0.930 . S
H782 C812 0.929 . S
H783 C815 0.928 . S
O784 Co768 2.057 . S
O784 C772 1.232 . S
H785 C804 0.929 . S
H786 C805 0.929 . S
H787 C817 0.931 . S
H788 C809 0.929 . S
H789 C818 0.930 . S
H790 C810 0.931 . S
O791 Co767 2.097 . S
O791 C819 1.214 . S
H792 C820 0.929 . S
H793 C821 0.929 . S
H794 C822 0.930 . S
H795 C823 0.929 . S
H796 C825 0.930 . S
H797 C802 0.930 . S
H798 C806 0.930 . S
O799 Co768 2.037 . S
O799 C819 1.234 . S
C800 O774 1.269 . S
C800 O775 1.257 . S
C801 H776 0.930 . S
C801 C804 1.388 . S
C801 C806 1.418 . S
C802 H797 0.930 . S
C802 C805 1.404 . S
C802 C806 1.353 . S
N803 Co768 2.145 . S
N803 C804 1.397 . S
N803 C805 1.334 . S
C804 H785 0.929 . S
C804 C801 1.388 . S
C804 N803 1.397 . S
C805 H786 0.929 . S
C805 C802 1.404 . S
C805 N803 1.334 . S
C806 H798 0.930 . S
C806 C801 1.418 . S
C806 C802 1.353 . S
C807 H777 0.930 . S
C807 N808 1.330 . S
C807 C809 1.446 . S
N808 Co767 2.151 . S
N808 C807 1.330 . S
N808 C812 1.418 . S
C809 H788 0.929 . S
C809 C807 1.446 . S
C809 C810 1.332 . S
C810 H790 0.931 . S
C810 C809 1.332 . S
C810 C811 1.267 . S
C811 H779 0.929 . S
C811 C810 1.267 . S
C811 C812 1.251 . S
C812 H782 0.929 . S
C812 N808 1.418 . S
C812 C811 1.251 . S
C813 H780 0.930 . S
C813 C815 1.406 . S
C813 C818 1.261 . S
C814 H781 0.930 . S
C814 N816 1.325 . S
C814 C817 1.357 . S
C815 H783 0.928 . S
C815 C813 1.406 . S
C815 N816 1.261 . S
N816 Co767 2.214 . S
N816 C814 1.325 . S
N816 C815 1.261 . S
C817 H787 0.931 . S
C817 C814 1.357 . S
C817 C818 1.312 . S
C818 H789 0.930 . S
C818 C813 1.261 . S
C818 C817 1.312 . S
C819 O791 1.214 . S
C819 O799 1.234 . S
C820 H792 0.929 . S
C820 C823 1.391 . S
C820 C825 1.391 . S
C821 H793 0.929 . S
C821 C822 1.390 . S
C821 N824 1.391 . S
C822 H794 0.930 . S
C822 C821 1.390 . S
C822 C823 1.392 . S
C823 H795 0.929 . S
C823 C820 1.391 . S
C823 C822 1.392 . S
N824 Co768 2.257 . S
N824 C821 1.391 . S
N824 C825 1.388 . S
C825 H796 0.930 . S
C825 C820 1.391 . S
C825 N824 1.388 . S
Co826 O828 2.143 . S
Co826 O834 2.074 . S
Co826 O837 2.093 . S
Co826 O850 2.097 . S
Co826 N867 2.151 . S
Co826 N875 2.214 . S
Co827 O828 2.160 . S
Co827 O833 2.058 . S
Co827 O843 2.057 . S
Co827 O858 2.037 . S
Co827 N862 2.145 . S
Co827 N883 2.257 . S
O828 Co826 2.143 . S
O828 Co827 2.160 . S
C829 O830 1.278 . S
C829 O837 1.224 . S
O830 C829 1.278 . S
C831 O832 1.245 . S
C831 O843 1.232 . S
O832 C831 1.245 . S
O833 Co827 2.058 . S
O833 C859 1.269 . S
O834 Co826 2.074 . S
O834 C859 1.257 . S
H835 C860 0.930 . S
H836 C866 0.930 . S
O837 Co826 2.093 . S
O837 C829 1.224 . S
H838 C870 0.929 . S
H839 C872 0.930 . S
H840 C873 0.930 . S
H841 C871 0.929 . S
H842 C874 0.928 . S
O843 Co827 2.057 . S
O843 C831 1.232 . S
H844 C863 0.929 . S
H845 C864 0.929 . S
H846 C876 0.931 . S
H847 C868 0.929 . S
H848 C877 0.930 . S
H849 C869 0.931 . S
O850 Co826 2.097 . S
O850 C878 1.214 . S
H851 C879 0.929 . S
H852 C880 0.914 . S
H853 C881 0.930 . S
H854 C882 0.929 . S
H855 C884 0.930 . S
H856 C861 0.930 . S
H857 C865 0.930 . S
O858 Co827 2.037 . S
O858 C878 1.234 . S
C859 O833 1.269 . S
C859 O834 1.257 . S
C860 H835 0.930 . S
C860 C863 1.388 . S
C860 C865 1.418 . S
C861 H856 0.930 . S
C861 C864 1.404 . S
C861 C865 1.353 . S
N862 Co827 2.145 . S
N862 C863 1.397 . S
N862 C864 1.334 . S
C863 H844 0.929 . S
C863 C860 1.388 . S
C863 N862 1.397 . S
C864 H845 0.929 . S
C864 C861 1.404 . S
C864 N862 1.334 . S
C865 H857 0.930 . S
C865 C860 1.418 . S
C865 C861 1.353 . S
C866 H836 0.930 . S
C866 N867 1.330 . S
C866 C868 1.446 . S
N867 Co826 2.151 . S
N867 C866 1.330 . S
N867 C871 1.418 . S
C868 H847 0.929 . S
C868 C866 1.446 . S
C868 C869 1.332 . S
C869 H849 0.931 . S
C869 C868 1.332 . S
C869 C870 1.267 . S
C870 H838 0.929 . S
C870 C869 1.267 . S
C870 C871 1.251 . S
C871 H841 0.929 . S
C871 N867 1.418 . S
C871 C870 1.251 . S
C872 H839 0.930 . S
C872 C874 1.406 . S
C872 C877 1.261 . S
C873 H840 0.930 . S
C873 N875 1.325 . S
C873 C876 1.357 . S
C874 H842 0.928 . S
C874 C872 1.406 . S
C874 N875 1.261 . S
N875 Co826 2.214 . S
N875 C873 1.325 . S
N875 C874 1.261 . S
C876 H846 0.931 . S
C876 C873 1.357 . S
C876 C877 1.312 . S
C877 H848 0.930 . S
C877 C872 1.261 . S
C877 C876 1.312 . S
C878 O850 1.214 . S
C878 O858 1.234 . S
C879 H851 0.929 . S
C879 C882 1.391 . S
C879 C884 1.391 1_565 S
C880 H852 0.914 . S
C880 C881 1.390 . S
C880 N883 1.391 1_565 S
C881 H853 0.930 . S
C881 C880 1.390 . S
C881 C882 1.392 . S
C882 H854 0.929 . S
C882 C879 1.391 . S
C882 C881 1.392 . S
N883 Co827 2.257 . S
N883 C880 1.391 1_545 S
N883 C884 1.388 . S
C884 H855 0.930 . S
C884 C879 1.391 1_545 S
C884 N883 1.388 . S
Co885 O887 2.143 . S
Co885 O893 2.074 . S
Co885 O896 2.093 . S
Co885 O909 2.097 . S
Co885 N926 2.151 . S
Co885 N934 2.214 . S
Co886 O887 2.160 . S
Co886 O892 2.058 . S
Co886 O902 2.057 . S
Co886 O917 2.037 . S
Co886 N921 2.145 . S
Co886 N942 2.257 . S
O887 Co885 2.143 . S
O887 Co886 2.160 . S
C888 O889 1.278 . S
C888 O896 1.224 . S
O889 C888 1.278 . S
C890 O891 1.245 . S
C890 O902 1.232 . S
O891 C890 1.245 . S
O892 Co886 2.058 . S
O892 C918 1.269 . S
O893 Co885 2.074 . S
O893 C918 1.257 . S
H894 C919 0.930 . S
H895 C925 0.930 . S
O896 Co885 2.093 . S
O896 C888 1.224 . S
H897 C929 0.929 . S
H898 C931 0.930 . S
H899 C932 0.930 . S
H900 C930 0.929 . S
H901 C933 0.928 . S
O902 Co886 2.057 . S
O902 C890 1.232 . S
H903 C922 0.929 . S
H904 C923 0.929 . S
H905 C935 0.931 . S
H906 C927 0.929 . S
H907 C936 0.930 . S
H908 C928 0.931 . S
O909 Co885 2.097 . S
O909 C937 1.214 . S
H910 C938 0.929 . S
H911 C939 0.929 . S
H912 C940 0.930 . S
H913 C941 0.929 . S
H914 C943 0.930 . S
H915 C920 0.930 . S
H916 C924 0.930 . S
O917 Co886 2.037 . S
O917 C937 1.234 . S
C918 O892 1.269 . S
C918 O893 1.257 . S
C919 H894 0.930 . S
C919 C922 1.388 . S
C919 C924 1.418 . S
C920 H915 0.930 . S
C920 C923 1.404 . S
C920 C924 1.353 . S
N921 Co886 2.145 . S
N921 C922 1.397 . S
N921 C923 1.334 . S
C922 H903 0.929 . S
C922 C919 1.388 . S
C922 N921 1.397 . S
C923 H904 0.929 . S
C923 C920 1.404 . S
C923 N921 1.334 . S
C924 H916 0.930 . S
C924 C919 1.418 . S
C924 C920 1.353 . S
C925 H895 0.930 . S
C925 N926 1.330 . S
C925 C927 1.446 . S
N926 Co885 2.151 . S
N926 C925 1.330 . S
N926 C930 1.418 . S
C927 H906 0.929 . S
C927 C925 1.446 . S
C927 C928 1.332 . S
C928 H908 0.931 . S
C928 C927 1.332 . S
C928 C929 1.267 . S
C929 H897 0.929 . S
C929 C928 1.267 . S
C929 C930 1.251 . S
C930 H900 0.929 . S
C930 N926 1.418 . S
C930 C929 1.251 . S
C931 H898 0.930 . S
C931 C933 1.406 . S
C931 C936 1.261 . S
C932 H899 0.930 . S
C932 N934 1.325 . S
C932 C935 1.357 . S
C933 H901 0.928 . S
C933 C931 1.406 . S
C933 N934 1.261 . S
N934 Co885 2.214 . S
N934 C932 1.325 . S
N934 C933 1.261 . S
C935 H905 0.931 . S
C935 C932 1.357 . S
C935 C936 1.312 . S
C936 H907 0.930 . S
C936 C931 1.261 . S
C936 C935 1.312 . S
C937 O909 1.214 . S
C937 O917 1.234 . S
C938 H910 0.929 . S
C938 C941 1.391 . S
C938 C943 1.391 . S
C939 H911 0.929 . S
C939 C940 1.390 . S
C939 N942 1.391 . S
C940 H912 0.930 . S
C940 C939 1.390 . S
C940 C941 1.392 . S
C941 H913 0.929 . S
C941 C938 1.391 . S
C941 C940 1.392 . S
N942 Co886 2.257 . S
N942 C939 1.391 . S
N942 C943 1.388 . S
C943 H914 0.930 . S
C943 C938 1.391 . S
C943 N942 1.388 . S
Co944 O946 2.143 . S
Co944 O952 2.074 . S
Co944 O955 2.093 . S
Co944 O968 2.097 . S
Co944 N985 2.151 . S
Co944 N993 2.214 . S
Co945 O946 2.160 . S
Co945 O951 2.058 . S
Co945 O961 2.057 . S
Co945 O976 2.037 . S
Co945 N980 2.145 . S
Co945 N1001 2.257 . S
O946 Co944 2.143 . S
O946 Co945 2.160 . S
C947 O948 1.278 . S
C947 O955 1.224 . S
O948 C947 1.278 . S
C949 O950 1.245 . S
C949 O961 1.232 . S
O950 C949 1.245 . S
O951 Co945 2.058 . S
O951 C977 1.269 . S
O952 Co944 2.074 . S
O952 C977 1.257 . S
H953 C978 0.930 . S
H954 C984 0.930 . S
O955 Co944 2.093 . S
O955 C947 1.224 . S
H956 C988 0.929 . S
H957 C990 0.930 . S
H958 C991 0.930 . S
H959 C989 0.929 . S
H960 C992 0.928 . S
O961 Co945 2.057 . S
O961 C949 1.232 . S
H962 C981 0.929 . S
H963 C982 0.929 . S
H964 C994 0.931 . S
H965 C986 0.929 . S
H966 C995 0.930 . S
H967 C987 0.931 . S
O968 Co944 2.097 . S
O968 C996 1.214 . S
H969 C997 0.929 . S
H970 C998 0.929 . S
H971 C999 0.930 . S
H972 C1000 0.929 . S
H973 C1002 0.930 . S
H974 C979 0.930 . S
H975 C983 0.930 . S
O976 Co945 2.037 . S
O976 C996 1.234 . S
C977 O951 1.269 . S
C977 O952 1.257 . S
C978 H953 0.930 . S
C978 C981 1.388 . S
C978 C983 1.418 . S
C979 H974 0.930 . S
C979 C982 1.404 . S
C979 C983 1.353 . S
N980 Co945 2.145 . S
N980 C981 1.397 . S
N980 C982 1.334 . S
C981 H962 0.929 . S
C981 C978 1.388 . S
C981 N980 1.397 . S
C982 H963 0.929 . S
C982 C979 1.404 . S
C982 N980 1.334 . S
C983 H975 0.930 . S
C983 C978 1.418 . S
C983 C979 1.353 . S
C984 H954 0.930 . S
C984 N985 1.330 . S
C984 C986 1.446 . S
N985 Co944 2.151 . S
N985 C984 1.330 . S
N985 C989 1.418 . S
C986 H965 0.929 . S
C986 C984 1.446 . S
C986 C987 1.332 . S
C987 H967 0.931 . S
C987 C986 1.332 . S
C987 C988 1.267 . S
C988 H956 0.929 . S
C988 C987 1.267 . S
C988 C989 1.251 . S
C989 H959 0.929 . S
C989 N985 1.418 . S
C989 C988 1.251 . S
C990 H957 0.930 . S
C990 C992 1.406 . S
C990 C995 1.261 . S
C991 H958 0.930 . S
C991 N993 1.325 . S
C991 C994 1.357 . S
C992 H960 0.928 . S
C992 C990 1.406 . S
C992 N993 1.261 . S
N993 Co944 2.214 . S
N993 C991 1.325 . S
N993 C992 1.261 . S
C994 H964 0.931 . S
C994 C991 1.357 . S
C994 C995 1.312 . S
C995 H966 0.930 . S
C995 C990 1.261 . S
C995 C994 1.312 . S
C996 O968 1.214 . S
C996 O976 1.234 . S
C997 H969 0.929 . S
C997 C1000 1.391 . S
C997 C1002 1.391 . S
C998 H970 0.929 . S
C998 C999 1.390 . S
C998 N1001 1.391 . S
C999 H971 0.930 . S
C999 C998 1.390 . S
C999 C1000 1.392 . S
C1000 H972 0.929 . S
C1000 C997 1.391 . S
C1000 C999 1.392 . S
N1001 Co945 2.257 . S
N1001 C998 1.391 . S
N1001 C1002 1.388 . S
C1002 H973 0.930 . S
C1002 C997 1.391 . S
C1002 N1001 1.388 . S
Co1003 O1005 2.143 . S
Co1003 O1011 2.074 . S
Co1003 O1014 2.093 . S
Co1003 O1027 2.097 . S
Co1003 N1044 2.151 . S
Co1003 N1052 2.214 . S
Co1004 O1005 2.160 . S
Co1004 O1010 2.058 . S
Co1004 O1020 2.057 . S
Co1004 O1035 2.037 . S
Co1004 N1039 2.145 . S
Co1004 N1060 2.257 . S
O1005 Co1003 2.143 . S
O1005 Co1004 2.160 . S
C1006 O1007 1.278 . S
C1006 O1014 1.224 . S
O1007 C1006 1.278 . S
C1008 O1009 1.245 . S
C1008 O1020 1.232 . S
O1009 C1008 1.245 . S
O1010 Co1004 2.058 . S
O1010 C1036 1.269 . S
O1011 Co1003 2.074 . S
O1011 C1036 1.257 . S
H1012 C1037 0.930 . S
H1013 C1043 0.930 . S
O1014 Co1003 2.093 . S
O1014 C1006 1.224 . S
H1015 C1047 0.929 . S
H1016 C1049 0.930 . S
H1017 C1050 0.930 . S
H1018 C1048 0.929 . S
H1019 C1051 0.928 . S
O1020 Co1004 2.057 . S
O1020 C1008 1.232 . S
H1021 C1040 0.929 . S
H1022 C1041 0.929 . S
H1023 C1053 0.931 . S
H1024 C1045 0.929 . S
H1025 C1054 0.930 . S
H1026 C1046 0.931 . S
O1027 Co1003 2.097 . S
O1027 C1055 1.214 . S
H1028 C1056 0.929 . S
H1029 C1057 0.929 . S
H1030 C1058 0.930 . S
H1031 C1059 0.929 . S
H1032 C1061 0.930 . S
H1033 C1038 0.930 . S
H1034 C1042 0.930 . S
O1035 Co1004 2.037 . S
O1035 C1055 1.234 . S
C1036 O1010 1.269 . S
C1036 O1011 1.257 . S
C1037 H1012 0.930 . S
C1037 C1040 1.388 . S
C1037 C1042 1.418 . S
C1038 H1033 0.930 . S
C1038 C1041 1.404 . S
C1038 C1042 1.353 . S
N1039 Co1004 2.145 . S
N1039 C1040 1.397 . S
N1039 C1041 1.334 . S
C1040 H1021 0.929 . S
C1040 C1037 1.388 . S
C1040 N1039 1.397 . S
C1041 H1022 0.929 . S
C1041 C1038 1.404 . S
C1041 N1039 1.334 . S
C1042 H1034 0.930 . S
C1042 C1037 1.418 . S
C1042 C1038 1.353 . S
C1043 H1013 0.930 . S
C1043 N1044 1.330 . S
C1043 C1045 1.446 . S
N1044 Co1003 2.151 . S
N1044 C1043 1.330 . S
N1044 C1048 1.418 . S
C1045 H1024 0.929 . S
C1045 C1043 1.446 . S
C1045 C1046 1.332 . S
C1046 H1026 0.931 . S
C1046 C1045 1.332 . S
C1046 C1047 1.267 . S
C1047 H1015 0.929 . S
C1047 C1046 1.267 . S
C1047 C1048 1.251 . S
C1048 H1018 0.929 . S
C1048 N1044 1.418 . S
C1048 C1047 1.251 . S
C1049 H1016 0.930 . S
C1049 C1051 1.406 . S
C1049 C1054 1.261 . S
C1050 H1017 0.930 . S
C1050 N1052 1.325 . S
C1050 C1053 1.357 . S
C1051 H1019 0.928 . S
C1051 C1049 1.406 . S
C1051 N1052 1.261 . S
N1052 Co1003 2.214 . S
N1052 C1050 1.325 . S
N1052 C1051 1.261 . S
C1053 H1023 0.931 . S
C1053 C1050 1.357 . S
C1053 C1054 1.312 . S
C1054 H1025 0.930 . S
C1054 C1049 1.261 . S
C1054 C1053 1.312 . S
C1055 O1027 1.214 . S
C1055 O1035 1.234 . S
C1056 H1028 0.929 . S
C1056 C1059 1.391 . S
C1056 C1061 1.391 . S
C1057 H1029 0.929 . S
C1057 C1058 1.390 . S
C1057 N1060 1.391 . S
C1058 H1030 0.930 . S
C1058 C1057 1.390 . S
C1058 C1059 1.392 . S
C1059 H1031 0.929 . S
C1059 C1056 1.391 . S
C1059 C1058 1.392 . S
N1060 Co1004 2.257 . S
N1060 C1057 1.391 . S
N1060 C1061 1.388 . S
C1061 H1032 0.930 . S
C1061 C1056 1.391 . S
C1061 N1060 1.388 . S
Co1062 O1064 2.143 . S
Co1062 O1070 2.074 . S
Co1062 O1073 2.093 . S
Co1062 O1086 2.097 . S
Co1062 N1103 2.151 . S
Co1062 N1111 2.214 . S
Co1063 O1064 2.160 . S
Co1063 O1069 2.058 . S
Co1063 O1079 2.057 . S
Co1063 O1094 2.037 . S
Co1063 N1098 2.145 . S
Co1063 N1119 2.257 . S
O1064 Co1062 2.143 . S
O1064 Co1063 2.160 . S
C1065 O1066 1.278 . S
C1065 O1073 1.224 . S
O1066 C1065 1.278 . S
C1067 O1068 1.245 . S
C1067 O1079 1.232 . S
O1068 C1067 1.245 . S
O1069 Co1063 2.058 . S
O1069 C1095 1.269 . S
O1070 Co1062 2.074 . S
O1070 C1095 1.257 . S
H1071 C1096 0.930 . S
H1072 C1102 0.930 . S
O1073 Co1062 2.093 . S
O1073 C1065 1.224 . S
H1074 C1106 0.929 . S
H1075 C1108 0.930 . S
H1076 C1109 0.930 . S
H1077 C1107 0.929 . S
H1078 C1110 0.928 . S
O1079 Co1063 2.057 . S
O1079 C1067 1.232 . S
H1080 C1099 0.929 . S
H1081 C1100 0.929 . S
H1082 C1112 0.931 . S
H1083 C1104 0.929 . S
H1084 C1113 0.930 . S
H1085 C1105 0.931 . S
O1086 Co1062 2.097 . S
O1086 C1114 1.214 . S
H1087 C1115 0.929 . S
H1088 C1116 0.929 . S
H1089 C1117 0.930 . S
H1090 C1118 0.929 . S
H1091 C1120 0.930 . S
H1092 C1097 0.930 . S
H1093 C1101 0.930 . S
O1094 Co1063 2.037 . S
O1094 C1114 1.234 . S
C1095 O1069 1.269 . S
C1095 O1070 1.257 . S
C1096 H1071 0.930 . S
C1096 C1099 1.388 . S
C1096 C1101 1.418 . S
C1097 H1092 0.930 . S
C1097 C1100 1.404 . S
C1097 C1101 1.353 . S
N1098 Co1063 2.145 . S
N1098 C1099 1.397 . S
N1098 C1100 1.334 . S
C1099 H1080 0.929 . S
C1099 C1096 1.388 . S
C1099 N1098 1.397 . S
C1100 H1081 0.929 . S
C1100 C1097 1.404 . S
C1100 N1098 1.334 . S
C1101 H1093 0.930 . S
C1101 C1096 1.418 . S
C1101 C1097 1.353 . S
C1102 H1072 0.930 . S
C1102 N1103 1.330 . S
C1102 C1104 1.446 . S
N1103 Co1062 2.151 . S
N1103 C1102 1.330 . S
N1103 C1107 1.418 . S
C1104 H1083 0.929 . S
C1104 C1102 1.446 . S
C1104 C1105 1.332 . S
C1105 H1085 0.931 . S
C1105 C1104 1.332 . S
C1105 C1106 1.267 . S
C1106 H1074 0.929 . S
C1106 C1105 1.267 . S
C1106 C1107 1.251 . S
C1107 H1077 0.929 . S
C1107 N1103 1.418 . S
C1107 C1106 1.251 . S
C1108 H1075 0.930 . S
C1108 C1110 1.406 . S
C1108 C1113 1.261 . S
C1109 H1076 0.930 . S
C1109 N1111 1.325 . S
C1109 C1112 1.357 . S
C1110 H1078 0.928 . S
C1110 C1108 1.406 . S
C1110 N1111 1.261 . S
N1111 Co1062 2.214 . S
N1111 C1109 1.325 . S
N1111 C1110 1.261 . S
C1112 H1082 0.931 . S
C1112 C1109 1.357 . S
C1112 C1113 1.312 . S
C1113 H1084 0.930 . S
C1113 C1108 1.261 . S
C1113 C1112 1.312 . S
C1114 O1086 1.214 . S
C1114 O1094 1.234 . S
C1115 H1087 0.929 . S
C1115 C1118 1.391 . S
C1115 C1120 1.391 . S
C1116 H1088 0.929 . S
C1116 C1117 1.390 . S
C1116 N1119 1.391 . S
C1117 H1089 0.930 . S
C1117 C1116 1.390 . S
C1117 C1118 1.392 . S
C1118 H1090 0.929 . S
C1118 C1115 1.391 . S
C1118 C1117 1.392 . S
N1119 Co1063 2.257 . S
N1119 C1116 1.391 . S
N1119 C1120 1.388 . S
C1120 H1091 0.930 . S
C1120 C1115 1.391 . S
C1120 N1119 1.388 . S
Co1121 O1123 2.143 . S
Co1121 O1129 2.074 . S
Co1121 O1132 2.093 . S
Co1121 O1145 2.097 . S
Co1121 N1162 2.151 . S
Co1121 N1170 2.214 . S
Co1122 O1123 2.160 . S
Co1122 O1128 2.058 . S
Co1122 O1138 2.057 . S
Co1122 O1153 2.037 . S
Co1122 N1157 2.145 . S
Co1122 N1178 2.257 . S
O1123 Co1121 2.143 . S
O1123 Co1122 2.160 . S
C1124 O1125 1.278 . S
C1124 O1132 1.224 . S
O1125 C1124 1.278 . S
C1126 O1127 1.245 . S
C1126 O1138 1.232 . S
O1127 C1126 1.245 . S
O1128 Co1122 2.058 . S
O1128 C1154 1.269 . S
O1129 Co1121 2.074 . S
O1129 C1154 1.257 . S
H1130 C1155 0.930 . S
H1131 C1161 0.930 . S
O1132 Co1121 2.093 . S
O1132 C1124 1.224 . S
H1133 C1165 0.929 . S
H1134 C1167 0.930 . S
H1135 C1168 0.930 . S
H1136 C1166 0.929 . S
H1137 C1169 0.928 . S
O1138 Co1122 2.057 . S
O1138 C1126 1.232 . S
H1139 C1158 0.929 . S
H1140 C1159 0.929 . S
H1141 C1171 0.931 . S
H1142 C1163 0.929 . S
H1143 C1172 0.930 . S
H1144 C1164 0.931 . S
O1145 Co1121 2.097 . S
O1145 C1173 1.214 . S
H1146 C1174 0.929 . S
H1147 C1175 0.929 . S
H1148 C1176 0.930 . S
H1149 C1177 0.929 . S
H1150 C1179 0.930 . S
H1151 C1156 0.930 . S
H1152 C1160 0.930 . S
O1153 Co1122 2.037 . S
O1153 C1173 1.234 . S
C1154 O1128 1.269 . S
C1154 O1129 1.257 . S
C1155 H1130 0.930 . S
C1155 C1158 1.388 . S
C1155 C1160 1.418 . S
C1156 H1151 0.930 . S
C1156 C1159 1.404 . S
C1156 C1160 1.353 . S
N1157 Co1122 2.145 . S
N1157 C1158 1.397 . S
N1157 C1159 1.334 . S
C1158 H1139 0.929 . S
C1158 C1155 1.388 . S
C1158 N1157 1.397 . S
C1159 H1140 0.929 . S
C1159 C1156 1.404 . S
C1159 N1157 1.334 . S
C1160 H1152 0.930 . S
C1160 C1155 1.418 . S
C1160 C1156 1.353 . S
C1161 H1131 0.930 . S
C1161 N1162 1.330 . S
C1161 C1163 1.446 . S
N1162 Co1121 2.151 . S
N1162 C1161 1.330 . S
N1162 C1166 1.418 . S
C1163 H1142 0.929 . S
C1163 C1161 1.446 . S
C1163 C1164 1.332 . S
C1164 H1144 0.931 . S
C1164 C1163 1.332 . S
C1164 C1165 1.267 . S
C1165 H1133 0.929 . S
C1165 C1164 1.267 . S
C1165 C1166 1.251 . S
C1166 H1136 0.929 . S
C1166 N1162 1.418 . S
C1166 C1165 1.251 . S
C1167 H1134 0.930 . S
C1167 C1169 1.406 . S
C1167 C1172 1.261 . S
C1168 H1135 0.930 . S
C1168 N1170 1.325 . S
C1168 C1171 1.357 . S
C1169 H1137 0.928 . S
C1169 C1167 1.406 . S
C1169 N1170 1.261 . S
N1170 Co1121 2.214 . S
N1170 C1168 1.325 . S
N1170 C1169 1.261 . S
C1171 H1141 0.931 . S
C1171 C1168 1.357 . S
C1171 C1172 1.312 . S
C1172 H1143 0.930 . S
C1172 C1167 1.261 . S
C1172 C1171 1.312 . S
C1173 O1145 1.214 . S
C1173 O1153 1.234 . S
C1174 H1146 0.929 . S
C1174 C1177 1.391 . S
C1174 C1179 1.391 . S
C1175 H1147 0.929 . S
C1175 C1176 1.390 . S
C1175 N1178 1.391 . S
C1176 H1148 0.930 . S
C1176 C1175 1.390 . S
C1176 C1177 1.392 . S
C1177 H1149 0.929 . S
C1177 C1174 1.391 . S
C1177 C1176 1.392 . S
N1178 Co1122 2.257 . S
N1178 C1175 1.391 . S
N1178 C1179 1.388 . S
C1179 H1150 0.930 . S
C1179 C1174 1.391 . S
C1179 N1178 1.388 . S
Co1180 O1182 2.143 . S
Co1180 O1188 2.074 . S
Co1180 O1191 2.093 . S
Co1180 O1204 2.097 . S
Co1180 N1221 2.151 . S
Co1180 N1229 2.214 . S
Co1181 O1182 2.160 . S
Co1181 O1187 2.058 . S
Co1181 O1197 2.057 . S
Co1181 O1212 2.037 . S
Co1181 N1216 2.145 . S
Co1181 N1237 2.257 . S
O1182 Co1180 2.143 . S
O1182 Co1181 2.160 . S
C1183 O1184 1.278 . S
C1183 O1191 1.224 . S
O1184 C1183 1.278 . S
C1185 O1186 1.245 . S
C1185 O1197 1.232 . S
O1186 C1185 1.245 . S
O1187 Co1181 2.058 . S
O1187 C1213 1.269 . S
O1188 Co1180 2.074 . S
O1188 C1213 1.257 . S
H1189 C1214 0.930 . S
H1190 C1220 0.930 . S
O1191 Co1180 2.093 . S
O1191 C1183 1.224 . S
H1192 C1224 0.929 . S
H1193 C1226 0.930 . S
H1194 C1227 0.930 . S
H1195 C1225 0.929 . S
H1196 C1228 0.928 . S
O1197 Co1181 2.057 . S
O1197 C1185 1.232 . S
H1198 C1217 0.929 . S
H1199 C1218 0.929 . S
H1200 C1230 0.931 . S
H1201 C1222 0.929 . S
H1202 C1231 0.930 . S
H1203 C1223 0.931 . S
O1204 Co1180 2.097 . S
O1204 C1232 1.214 . S
H1205 C1233 0.929 . S
H1206 C1234 0.929 . S
H1207 C1235 0.930 . S
H1208 C1236 0.929 . S
H1209 C1238 0.930 . S
H1210 C1215 0.930 . S
H1211 C1219 0.930 . S
O1212 Co1181 2.037 . S
O1212 C1232 1.234 . S
C1213 O1187 1.269 . S
C1213 O1188 1.257 . S
C1214 H1189 0.930 . S
C1214 C1217 1.388 . S
C1214 C1219 1.418 . S
C1215 H1210 0.930 . S
C1215 C1218 1.404 . S
C1215 C1219 1.353 . S
N1216 Co1181 2.145 . S
N1216 C1217 1.397 . S
N1216 C1218 1.334 . S
C1217 H1198 0.929 . S
C1217 C1214 1.388 . S
C1217 N1216 1.397 . S
C1218 H1199 0.929 . S
C1218 C1215 1.404 . S
C1218 N1216 1.334 . S
C1219 H1211 0.930 . S
C1219 C1214 1.418 . S
C1219 C1215 1.353 . S
C1220 H1190 0.930 . S
C1220 N1221 1.330 . S
C1220 C1222 1.446 . S
N1221 Co1180 2.151 . S
N1221 C1220 1.330 . S
N1221 C1225 1.418 . S
C1222 H1201 0.929 . S
C1222 C1220 1.446 . S
C1222 C1223 1.332 . S
C1223 H1203 0.931 . S
C1223 C1222 1.332 . S
C1223 C1224 1.267 . S
C1224 H1192 0.929 . S
C1224 C1223 1.267 . S
C1224 C1225 1.251 . S
C1225 H1195 0.929 . S
C1225 N1221 1.418 . S
C1225 C1224 1.251 . S
C1226 H1193 0.930 . S
C1226 C1228 1.406 . S
C1226 C1231 1.261 . S
C1227 H1194 0.930 . S
C1227 N1229 1.325 . S
C1227 C1230 1.357 . S
C1228 H1196 0.928 . S
C1228 C1226 1.406 . S
C1228 N1229 1.261 . S
N1229 Co1180 2.214 . S
N1229 C1227 1.325 . S
N1229 C1228 1.261 . S
C1230 H1200 0.931 . S
C1230 C1227 1.357 . S
C1230 C1231 1.312 . S
C1231 H1202 0.930 . S
C1231 C1226 1.261 . S
C1231 C1230 1.312 . S
C1232 O1204 1.214 . S
C1232 O1212 1.234 . S
C1233 H1205 0.929 . S
C1233 C1236 1.391 . S
C1233 C1238 1.391 . S
C1234 H1206 0.929 . S
C1234 C1235 1.390 . S
C1234 N1237 1.391 . S
C1235 H1207 0.930 . S
C1235 C1234 1.390 . S
C1235 C1236 1.392 . S
C1236 H1208 0.929 . S
C1236 C1233 1.391 . S
C1236 C1235 1.392 . S
N1237 Co1181 2.257 . S
N1237 C1234 1.391 . S
N1237 C1238 1.388 . S
C1238 H1209 0.930 . S
C1238 C1233 1.391 . S
C1238 N1237 1.388 . S
Co1239 O1241 2.143 . S
Co1239 O1247 2.074 . S
Co1239 O1250 2.093 . S
Co1239 O1263 2.097 . S
Co1239 N1280 2.151 . S
Co1239 N1288 2.214 . S
Co1240 O1241 2.160 . S
Co1240 O1246 2.058 . S
Co1240 O1256 2.057 . S
Co1240 O1271 2.037 . S
Co1240 N1275 2.145 . S
Co1240 N1296 2.257 . S
O1241 Co1239 2.143 . S
O1241 Co1240 2.160 . S
C1242 O1243 1.278 . S
C1242 O1250 1.224 . S
O1243 C1242 1.278 . S
C1244 O1245 1.245 . S
C1244 O1256 1.232 . S
O1245 C1244 1.245 . S
O1246 Co1240 2.058 . S
O1246 C1272 1.269 . S
O1247 Co1239 2.074 . S
O1247 C1272 1.257 . S
H1248 C1273 0.930 . S
H1249 C1279 0.930 . S
O1250 Co1239 2.093 . S
O1250 C1242 1.224 . S
H1251 C1283 0.929 . S
H1252 C1285 0.930 . S
H1253 C1286 0.930 . S
H1254 C1284 0.929 . S
H1255 C1287 0.928 . S
O1256 Co1240 2.057 . S
O1256 C1244 1.232 . S
H1257 C1276 0.929 . S
H1258 C1277 0.929 . S
H1259 C1289 0.931 . S
H1260 C1281 0.929 . S
H1261 C1290 0.930 . S
H1262 C1282 0.931 . S
O1263 Co1239 2.097 . S
O1263 C1291 1.214 . S
H1264 C1292 0.929 . S
H1265 C1293 0.955 . S
H1266 C1294 0.930 . S
H1267 C1295 0.929 . S
H1268 C1297 0.930 . S
H1269 C1274 0.930 . S
H1270 C1278 0.930 . S
O1271 Co1240 2.037 . S
O1271 C1291 1.234 . S
C1272 O1246 1.269 . S
C1272 O1247 1.257 . S
C1273 H1248 0.930 . S
C1273 C1276 1.388 . S
C1273 C1278 1.418 . S
C1274 H1269 0.930 . S
C1274 C1277 1.404 . S
C1274 C1278 1.353 . S
N1275 Co1240 2.145 . S
N1275 C1276 1.397 . S
N1275 C1277 1.334 . S
C1276 H1257 0.929 . S
C1276 C1273 1.388 . S
C1276 N1275 1.397 . S
C1277 H1258 0.929 . S
C1277 C1274 1.404 . S
C1277 N1275 1.334 . S
C1278 H1270 0.930 . S
C1278 C1273 1.418 . S
C1278 C1274 1.353 . S
C1279 H1249 0.930 . S
C1279 N1280 1.330 . S
C1279 C1281 1.446 . S
N1280 Co1239 2.151 . S
N1280 C1279 1.330 . S
N1280 C1284 1.418 . S
C1281 H1260 0.929 . S
C1281 C1279 1.446 . S
C1281 C1282 1.332 . S
C1282 H1262 0.931 . S
C1282 C1281 1.332 . S
C1282 C1283 1.267 . S
C1283 H1251 0.929 . S
C1283 C1282 1.267 . S
C1283 C1284 1.251 . S
C1284 H1254 0.929 . S
C1284 N1280 1.418 . S
C1284 C1283 1.251 . S
C1285 H1252 0.930 . S
C1285 C1287 1.406 . S
C1285 C1290 1.261 . S
C1286 H1253 0.930 . S
C1286 N1288 1.325 . S
C1286 C1289 1.357 . S
C1287 H1255 0.928 . S
C1287 C1285 1.406 . S
C1287 N1288 1.261 . S
N1288 Co1239 2.214 . S
N1288 C1286 1.325 . S
N1288 C1287 1.261 . S
C1289 H1259 0.931 . S
C1289 C1286 1.357 . S
C1289 C1290 1.312 . S
C1290 H1261 0.930 . S
C1290 C1285 1.261 . S
C1290 C1289 1.312 . S
C1291 O1263 1.214 . S
C1291 O1271 1.234 . S
C1292 H1264 0.929 . S
C1292 C1295 1.391 . S
C1292 C1297 1.391 1_565 S
C1293 H1265 0.955 . S
C1293 C1294 1.390 . S
C1293 N1296 1.391 1_565 S
C1294 H1266 0.930 . S
C1294 C1293 1.390 . S
C1294 C1295 1.392 . S
C1295 H1267 0.929 . S
C1295 C1292 1.391 . S
C1295 C1294 1.392 . S
N1296 Co1240 2.257 . S
N1296 C1293 1.391 1_545 S
N1296 C1297 1.388 . S
C1297 H1268 0.930 . S
C1297 C1292 1.391 1_545 S
C1297 N1296 1.388 . S
Co1298 O1300 2.143 . S
Co1298 O1306 2.074 . S
Co1298 O1309 2.093 . S
Co1298 O1322 2.097 . S
Co1298 N1339 2.151 . S
Co1298 N1347 2.214 . S
Co1299 O1300 2.160 . S
Co1299 O1305 2.058 . S
Co1299 O1315 2.057 . S
Co1299 O1330 2.037 . S
Co1299 N1334 2.145 . S
Co1299 N1355 2.257 . S
O1300 Co1298 2.143 . S
O1300 Co1299 2.160 . S
C1301 O1302 1.278 . S
C1301 O1309 1.224 . S
O1302 C1301 1.278 . S
C1303 O1304 1.245 . S
C1303 O1315 1.232 . S
O1304 C1303 1.245 . S
O1305 Co1299 2.058 . S
O1305 C1331 1.269 . S
O1306 Co1298 2.074 . S
O1306 C1331 1.257 . S
H1307 C1332 0.930 . S
H1308 C1338 0.930 . S
O1309 Co1298 2.093 . S
O1309 C1301 1.224 . S
H1310 C1342 0.929 . S
H1311 C1344 0.930 . S
H1312 C1345 0.930 . S
H1313 C1343 0.929 . S
H1314 C1346 0.928 . S
O1315 Co1299 2.057 . S
O1315 C1303 1.232 . S
H1316 C1335 0.929 . S
H1317 C1336 0.929 . S
H1318 C1348 0.931 . S
H1319 C1340 0.929 . S
H1320 C1349 0.930 . S
H1321 C1341 0.931 . S
O1322 Co1298 2.097 . S
O1322 C1350 1.214 . S
H1323 C1351 0.929 . S
H1324 C1352 0.914 . S
H1325 C1353 0.930 . S
H1326 C1354 0.929 . S
H1327 C1356 0.930 . S
H1328 C1333 0.930 . S
H1329 C1337 0.930 . S
O1330 Co1299 2.037 . S
O1330 C1350 1.234 . S
C1331 O1305 1.269 . S
C1331 O1306 1.257 . S
C1332 H1307 0.930 . S
C1332 C1335 1.388 . S
C1332 C1337 1.418 . S
C1333 H1328 0.930 . S
C1333 C1336 1.404 . S
C1333 C1337 1.353 . S
N1334 Co1299 2.145 . S
N1334 C1335 1.397 . S
N1334 C1336 1.334 . S
C1335 H1316 0.929 . S
C1335 C1332 1.388 . S
C1335 N1334 1.397 . S
C1336 H1317 0.929 . S
C1336 C1333 1.404 . S
C1336 N1334 1.334 . S
C1337 H1329 0.930 . S
C1337 C1332 1.418 . S
C1337 C1333 1.353 . S
C1338 H1308 0.930 . S
C1338 N1339 1.330 . S
C1338 C1340 1.446 . S
N1339 Co1298 2.151 . S
N1339 C1338 1.330 . S
N1339 C1343 1.418 . S
C1340 H1319 0.929 . S
C1340 C1338 1.446 . S
C1340 C1341 1.332 . S
C1341 H1321 0.931 . S
C1341 C1340 1.332 . S
C1341 C1342 1.267 . S
C1342 H1310 0.929 . S
C1342 C1341 1.267 . S
C1342 C1343 1.251 . S
C1343 H1313 0.929 . S
C1343 N1339 1.418 . S
C1343 C1342 1.251 . S
C1344 H1311 0.930 . S
C1344 C1346 1.406 . S
C1344 C1349 1.261 . S
C1345 H1312 0.930 . S
C1345 N1347 1.325 . S
C1345 C1348 1.357 . S
C1346 H1314 0.928 . S
C1346 C1344 1.406 . S
C1346 N1347 1.261 . S
N1347 Co1298 2.214 . S
N1347 C1345 1.325 . S
N1347 C1346 1.261 . S
C1348 H1318 0.931 . S
C1348 C1345 1.357 . S
C1348 C1349 1.312 . S
C1349 H1320 0.930 . S
C1349 C1344 1.261 . S
C1349 C1348 1.312 . S
C1350 O1322 1.214 . S
C1350 O1330 1.234 . S
C1351 H1323 0.929 . S
C1351 C1354 1.391 . S
C1351 C1356 1.391 1_455 S
C1352 H1324 0.914 . S
C1352 C1353 1.390 . S
C1352 N1355 1.391 1_455 S
C1353 H1325 0.930 . S
C1353 C1352 1.390 . S
C1353 C1354 1.392 . S
C1354 H1326 0.929 . S
C1354 C1351 1.391 . S
C1354 C1353 1.392 . S
N1355 Co1299 2.257 . S
N1355 C1352 1.391 1_655 S
N1355 C1356 1.388 . S
C1356 H1327 0.930 . S
C1356 C1351 1.391 1_655 S
C1356 N1355 1.388 . S
Co1357 O1359 2.143 . S
Co1357 O1365 2.074 . S
Co1357 O1368 2.093 . S
Co1357 O1381 2.097 . S
Co1357 N1398 2.151 . S
Co1357 N1406 2.214 . S
Co1358 O1359 2.160 . S
Co1358 O1364 2.058 . S
Co1358 O1374 2.057 . S
Co1358 O1389 2.037 . S
Co1358 N1393 2.145 . S
Co1358 N1414 2.257 . S
O1359 Co1357 2.143 . S
O1359 Co1358 2.160 . S
C1360 O1361 1.278 . S
C1360 O1368 1.224 . S
O1361 C1360 1.278 . S
C1362 O1363 1.245 . S
C1362 O1374 1.232 . S
O1363 C1362 1.245 . S
O1364 Co1358 2.058 . S
O1364 C1390 1.269 . S
O1365 Co1357 2.074 . S
O1365 C1390 1.257 . S
H1366 C1391 0.930 . S
H1367 C1397 0.930 . S
O1368 Co1357 2.093 . S
O1368 C1360 1.224 . S
H1369 C1401 0.929 . S
H1370 C1403 0.930 . S
H1371 C1404 0.930 . S
H1372 C1402 0.929 . S
H1373 C1405 0.928 . S
O1374 Co1358 2.057 . S
O1374 C1362 1.232 . S
H1375 C1394 0.929 . S
H1376 C1395 0.929 . S
H1377 C1407 0.931 . S
H1378 C1399 0.929 . S
H1379 C1408 0.930 . S
H1380 C1400 0.931 . S
O1381 Co1357 2.097 . S
O1381 C1409 1.214 . S
H1382 C1410 0.929 . S
H1383 C1411 0.929 . S
H1384 C1412 0.930 . S
H1385 C1413 0.929 . S
H1386 C1415 0.930 . S
H1387 C1392 0.930 . S
H1388 C1396 0.930 . S
O1389 Co1358 2.037 . S
O1389 C1409 1.234 . S
C1390 O1364 1.269 . S
C1390 O1365 1.257 . S
C1391 H1366 0.930 . S
C1391 C1394 1.388 . S
C1391 C1396 1.418 . S
C1392 H1387 0.930 . S
C1392 C1395 1.404 . S
C1392 C1396 1.353 . S
N1393 Co1358 2.145 . S
N1393 C1394 1.397 . S
N1393 C1395 1.334 . S
C1394 H1375 0.929 . S
C1394 C1391 1.388 . S
C1394 N1393 1.397 . S
C1395 H1376 0.929 . S
C1395 C1392 1.404 . S
C1395 N1393 1.334 . S
C1396 H1388 0.930 . S
C1396 C1391 1.418 . S
C1396 C1392 1.353 . S
C1397 H1367 0.930 . S
C1397 N1398 1.330 . S
C1397 C1399 1.446 . S
N1398 Co1357 2.151 . S
N1398 C1397 1.330 . S
N1398 C1402 1.418 . S
C1399 H1378 0.929 . S
C1399 C1397 1.446 . S
C1399 C1400 1.332 . S
C1400 H1380 0.931 . S
C1400 C1399 1.332 . S
C1400 C1401 1.267 . S
C1401 H1369 0.929 . S
C1401 C1400 1.267 . S
C1401 C1402 1.251 . S
C1402 H1372 0.929 . S
C1402 N1398 1.418 . S
C1402 C1401 1.251 . S
C1403 H1370 0.930 . S
C1403 C1405 1.406 . S
C1403 C1408 1.261 . S
C1404 H1371 0.930 . S
C1404 N1406 1.325 . S
C1404 C1407 1.357 . S
C1405 H1373 0.928 . S
C1405 C1403 1.406 . S
C1405 N1406 1.261 . S
N1406 Co1357 2.214 . S
N1406 C1404 1.325 . S
N1406 C1405 1.261 . S
C1407 H1377 0.931 . S
C1407 C1404 1.357 . S
C1407 C1408 1.312 . S
C1408 H1379 0.930 . S
C1408 C1403 1.261 . S
C1408 C1407 1.312 . S
C1409 O1381 1.214 . S
C1409 O1389 1.234 . S
C1410 H1382 0.929 . S
C1410 C1413 1.391 . S
C1410 C1415 1.391 . S
C1411 H1383 0.929 . S
C1411 C1412 1.390 . S
C1411 N1414 1.391 . S
C1412 H1384 0.930 . S
C1412 C1411 1.390 . S
C1412 C1413 1.392 . S
C1413 H1385 0.929 . S
C1413 C1410 1.391 . S
C1413 C1412 1.392 . S
N1414 Co1358 2.257 . S
N1414 C1411 1.391 . S
N1414 C1415 1.388 . S
C1415 H1386 0.930 . S
C1415 C1410 1.391 . S
C1415 N1414 1.388 . S
Co1416 O1418 2.143 . S
Co1416 O1424 2.074 . S
Co1416 O1427 2.093 . S
Co1416 O1440 2.097 . S
Co1416 N1457 2.151 . S
Co1416 N1465 2.214 . S
Co1417 O1418 2.160 . S
Co1417 O1423 2.058 . S
Co1417 O1433 2.057 . S
Co1417 O1448 2.037 . S
Co1417 N1452 2.145 . S
Co1417 N1473 2.257 . S
O1418 Co1416 2.143 . S
O1418 Co1417 2.160 . S
C1419 O1420 1.278 . S
C1419 O1427 1.224 . S
O1420 C1419 1.278 . S
C1421 O1422 1.245 . S
C1421 O1433 1.232 . S
O1422 C1421 1.245 . S
O1423 Co1417 2.058 . S
O1423 C1449 1.269 . S
O1424 Co1416 2.074 . S
O1424 C1449 1.257 . S
H1425 C1450 0.930 . S
H1426 C1456 0.930 . S
O1427 Co1416 2.093 . S
O1427 C1419 1.224 . S
H1428 C1460 0.929 . S
H1429 C1462 0.930 . S
H1430 C1463 0.930 . S
H1431 C1461 0.929 . S
H1432 C1464 0.928 . S
O1433 Co1417 2.057 . S
O1433 C1421 1.232 . S
H1434 C1453 0.929 . S
H1435 C1454 0.929 . S
H1436 C1466 0.931 . S
H1437 C1458 0.929 . S
H1438 C1467 0.930 . S
H1439 C1459 0.931 . S
O1440 Co1416 2.097 . S
O1440 C1468 1.214 . S
H1441 C1469 0.929 . S
H1442 C1470 0.929 . S
H1443 C1471 0.930 . S
H1444 C1472 0.929 . S
H1445 C1474 0.930 . S
H1446 C1451 0.930 . S
H1447 C1455 0.930 . S
O1448 Co1417 2.037 . S
O1448 C1468 1.234 . S
C1449 O1423 1.269 . S
C1449 O1424 1.257 . S
C1450 H1425 0.930 . S
C1450 C1453 1.388 . S
C1450 C1455 1.418 . S
C1451 H1446 0.930 . S
C1451 C1454 1.404 . S
C1451 C1455 1.353 . S
N1452 Co1417 2.145 . S
N1452 C1453 1.397 . S
N1452 C1454 1.334 . S
C1453 H1434 0.929 . S
C1453 C1450 1.388 . S
C1453 N1452 1.397 . S
C1454 H1435 0.929 . S
C1454 C1451 1.404 . S
C1454 N1452 1.334 . S
C1455 H1447 0.930 . S
C1455 C1450 1.418 . S
C1455 C1451 1.353 . S
C1456 H1426 0.930 . S
C1456 N1457 1.330 . S
C1456 C1458 1.446 . S
N1457 Co1416 2.151 . S
N1457 C1456 1.330 . S
N1457 C1461 1.418 . S
C1458 H1437 0.929 . S
C1458 C1456 1.446 . S
C1458 C1459 1.332 . S
C1459 H1439 0.931 . S
C1459 C1458 1.332 . S
C1459 C1460 1.267 . S
C1460 H1428 0.929 . S
C1460 C1459 1.267 . S
C1460 C1461 1.251 . S
C1461 H1431 0.929 . S
C1461 N1457 1.418 . S
C1461 C1460 1.251 . S
C1462 H1429 0.930 . S
C1462 C1464 1.406 . S
C1462 C1467 1.261 . S
C1463 H1430 0.930 . S
C1463 N1465 1.325 . S
C1463 C1466 1.357 . S
C1464 H1432 0.928 . S
C1464 C1462 1.406 . S
C1464 N1465 1.261 . S
N1465 Co1416 2.214 . S
N1465 C1463 1.325 . S
N1465 C1464 1.261 . S
C1466 H1436 0.931 . S
C1466 C1463 1.357 . S
C1466 C1467 1.312 . S
C1467 H1438 0.930 . S
C1467 C1462 1.261 . S
C1467 C1466 1.312 . S
C1468 O1440 1.214 . S
C1468 O1448 1.234 . S
C1469 H1441 0.929 . S
C1469 C1472 1.391 . S
C1469 C1474 1.391 . S
C1470 H1442 0.929 . S
C1470 C1471 1.390 . S
C1470 N1473 1.391 . S
C1471 H1443 0.930 . S
C1471 C1470 1.390 . S
C1471 C1472 1.392 . S
C1472 H1444 0.929 . S
C1472 C1469 1.391 . S
C1472 C1471 1.392 . S
N1473 Co1417 2.257 . S
N1473 C1470 1.391 . S
N1473 C1474 1.388 . S
C1474 H1445 0.930 . S
C1474 C1469 1.391 . S
C1474 N1473 1.388 . S
Co1475 O1477 2.143 . S
Co1475 O1483 2.074 . S
Co1475 O1486 2.093 . S
Co1475 O1499 2.097 . S
Co1475 N1516 2.151 . S
Co1475 N1524 2.214 . S
Co1476 O1477 2.160 . S
Co1476 O1482 2.058 . S
Co1476 O1492 2.057 . S
Co1476 O1507 2.037 . S
Co1476 N1511 2.145 . S
Co1476 N1532 2.257 . S
O1477 Co1475 2.143 . S
O1477 Co1476 2.160 . S
C1478 O1479 1.278 . S
C1478 O1486 1.224 . S
O1479 C1478 1.278 . S
C1480 O1481 1.245 . S
C1480 O1492 1.232 . S
O1481 C1480 1.245 . S
O1482 Co1476 2.058 . S
O1482 C1508 1.269 . S
O1483 Co1475 2.074 . S
O1483 C1508 1.257 . S
H1484 C1509 0.930 . S
H1485 C1515 0.930 . S
O1486 Co1475 2.093 . S
O1486 C1478 1.224 . S
H1487 C1519 0.929 . S
H1488 C1521 0.930 . S
H1489 C1522 0.930 . S
H1490 C1520 0.929 . S
H1491 C1523 0.928 . S
O1492 Co1476 2.057 . S
O1492 C1480 1.232 . S
H1493 C1512 0.929 . S
H1494 C1513 0.929 . S
H1495 C1525 0.931 . S
H1496 C1517 0.929 . S
H1497 C1526 0.930 . S
H1498 C1518 0.931 . S
O1499 Co1475 2.097 . S
O1499 C1527 1.214 . S
H1500 C1528 0.929 . S
H1501 C1529 0.929 . S
H1502 C1530 0.930 . S
H1503 C1531 0.929 . S
H1504 C1533 0.930 . S
H1505 C1510 0.930 . S
H1506 C1514 0.930 . S
O1507 Co1476 2.037 . S
O1507 C1527 1.234 . S
C1508 O1482 1.269 . S
C1508 O1483 1.257 . S
C1509 H1484 0.930 . S
C1509 C1512 1.388 . S
C1509 C1514 1.418 . S
C1510 H1505 0.930 . S
C1510 C1513 1.404 . S
C1510 C1514 1.353 . S
N1511 Co1476 2.145 . S
N1511 C1512 1.397 . S
N1511 C1513 1.334 . S
C1512 H1493 0.929 . S
C1512 C1509 1.388 . S
C1512 N1511 1.397 . S
C1513 H1494 0.929 . S
C1513 C1510 1.404 . S
C1513 N1511 1.334 . S
C1514 H1506 0.930 . S
C1514 C1509 1.418 . S
C1514 C1510 1.353 . S
C1515 H1485 0.930 . S
C1515 N1516 1.330 . S
C1515 C1517 1.446 . S
N1516 Co1475 2.151 . S
N1516 C1515 1.330 . S
N1516 C1520 1.418 . S
C1517 H1496 0.929 . S
C1517 C1515 1.446 . S
C1517 C1518 1.332 . S
C1518 H1498 0.931 . S
C1518 C1517 1.332 . S
C1518 C1519 1.267 . S
C1519 H1487 0.929 . S
C1519 C1518 1.267 . S
C1519 C1520 1.251 . S
C1520 H1490 0.929 . S
C1520 N1516 1.418 . S
C1520 C1519 1.251 . S
C1521 H1488 0.930 . S
C1521 C1523 1.406 . S
C1521 C1526 1.261 . S
C1522 H1489 0.930 . S
C1522 N1524 1.325 . S
C1522 C1525 1.357 . S
C1523 H1491 0.928 . S
C1523 C1521 1.406 . S
C1523 N1524 1.261 . S
N1524 Co1475 2.214 . S
N1524 C1522 1.325 . S
N1524 C1523 1.261 . S
C1525 H1495 0.931 . S
C1525 C1522 1.357 . S
C1525 C1526 1.312 . S
C1526 H1497 0.930 . S
C1526 C1521 1.261 . S
C1526 C1525 1.312 . S
C1527 O1499 1.214 . S
C1527 O1507 1.234 . S
C1528 H1500 0.929 . S
C1528 C1531 1.391 . S
C1528 C1533 1.391 . S
C1529 H1501 0.929 . S
C1529 C1530 1.390 . S
C1529 N1532 1.391 . S
C1530 H1502 0.930 . S
C1530 C1529 1.390 . S
C1530 C1531 1.392 . S
C1531 H1503 0.929 . S
C1531 C1528 1.391 . S
C1531 C1530 1.392 . S
N1532 Co1476 2.257 . S
N1532 C1529 1.391 . S
N1532 C1533 1.388 . S
C1533 H1504 0.930 . S
C1533 C1528 1.391 . S
C1533 N1532 1.388 . S
Co1534 O1536 2.143 . S
Co1534 O1542 2.074 . S
Co1534 O1545 2.093 . S
Co1534 O1558 2.097 . S
Co1534 N1575 2.151 . S
Co1534 N1583 2.214 . S
Co1535 O1536 2.160 . S
Co1535 O1541 2.058 . S
Co1535 O1551 2.057 . S
Co1535 O1566 2.037 . S
Co1535 N1570 2.145 . S
Co1535 N1591 2.257 . S
O1536 Co1534 2.143 . S
O1536 Co1535 2.160 . S
C1537 O1538 1.278 . S
C1537 O1545 1.224 . S
O1538 C1537 1.278 . S
C1539 O1540 1.245 . S
C1539 O1551 1.232 . S
O1540 C1539 1.245 . S
O1541 Co1535 2.058 . S
O1541 C1567 1.269 . S
O1542 Co1534 2.074 . S
O1542 C1567 1.257 . S
H1543 C1568 0.930 . S
H1544 C1574 0.930 . S
O1545 Co1534 2.093 . S
O1545 C1537 1.224 . S
H1546 C1578 0.929 . S
H1547 C1580 0.930 . S
H1548 C1581 0.930 . S
H1549 C1579 0.929 . S
H1550 C1582 0.928 . S
O1551 Co1535 2.057 . S
O1551 C1539 1.232 . S
H1552 C1571 0.929 . S
H1553 C1572 0.929 . S
H1554 C1584 0.931 . S
H1555 C1576 0.929 . S
H1556 C1585 0.930 . S
H1557 C1577 0.931 . S
O1558 Co1534 2.097 . S
O1558 C1586 1.214 . S
H1559 C1587 0.929 . S
H1560 C1588 0.929 . S
H1561 C1589 0.930 . S
H1562 C1590 0.929 . S
H1563 C1592 0.930 . S
H1564 C1569 0.930 . S
H1565 C1573 0.930 . S
O1566 Co1535 2.037 . S
O1566 C1586 1.234 . S
C1567 O1541 1.269 . S
C1567 O1542 1.257 . S
C1568 H1543 0.930 . S
C1568 C1571 1.388 . S
C1568 C1573 1.418 . S
C1569 H1564 0.930 . S
C1569 C1572 1.404 . S
C1569 C1573 1.353 . S
N1570 Co1535 2.145 . S
N1570 C1571 1.397 . S
N1570 C1572 1.334 . S
C1571 H1552 0.929 . S
C1571 C1568 1.388 . S
C1571 N1570 1.397 . S
C1572 H1553 0.929 . S
C1572 C1569 1.404 . S
C1572 N1570 1.334 . S
C1573 H1565 0.930 . S
C1573 C1568 1.418 . S
C1573 C1569 1.353 . S
C1574 H1544 0.930 . S
C1574 N1575 1.330 . S
C1574 C1576 1.446 . S
N1575 Co1534 2.151 . S
N1575 C1574 1.330 . S
N1575 C1579 1.418 . S
C1576 H1555 0.929 . S
C1576 C1574 1.446 . S
C1576 C1577 1.332 . S
C1577 H1557 0.931 . S
C1577 C1576 1.332 . S
C1577 C1578 1.267 . S
C1578 H1546 0.929 . S
C1578 C1577 1.267 . S
C1578 C1579 1.251 . S
C1579 H1549 0.929 . S
C1579 N1575 1.418 . S
C1579 C1578 1.251 . S
C1580 H1547 0.930 . S
C1580 C1582 1.406 . S
C1580 C1585 1.261 . S
C1581 H1548 0.930 . S
C1581 N1583 1.325 . S
C1581 C1584 1.357 . S
C1582 H1550 0.928 . S
C1582 C1580 1.406 . S
C1582 N1583 1.261 . S
N1583 Co1534 2.214 . S
N1583 C1581 1.325 . S
N1583 C1582 1.261 . S
C1584 H1554 0.931 . S
C1584 C1581 1.357 . S
C1584 C1585 1.312 . S
C1585 H1556 0.930 . S
C1585 C1580 1.261 . S
C1585 C1584 1.312 . S
C1586 O1558 1.214 . S
C1586 O1566 1.234 . S
C1587 H1559 0.929 . S
C1587 C1590 1.391 . S
C1587 C1592 1.391 . S
C1588 H1560 0.929 . S
C1588 C1589 1.390 . S
C1588 N1591 1.391 . S
C1589 H1561 0.930 . S
C1589 C1588 1.390 . S
C1589 C1590 1.392 . S
C1590 H1562 0.929 . S
C1590 C1587 1.391 . S
C1590 C1589 1.392 . S
N1591 Co1535 2.257 . S
N1591 C1588 1.391 . S
N1591 C1592 1.388 . S
C1592 H1563 0.930 . S
C1592 C1587 1.391 . S
C1592 N1591 1.388 . S
Co1593 O1595 2.143 . S
Co1593 O1601 2.074 . S
Co1593 O1604 2.093 . S
Co1593 O1617 2.097 . S
Co1593 N1634 2.151 . S
Co1593 N1642 2.214 . S
Co1594 O1595 2.160 . S
Co1594 O1600 2.058 . S
Co1594 O1610 2.057 . S
Co1594 O1625 2.037 . S
Co1594 N1629 2.145 . S
Co1594 N1650 2.257 . S
O1595 Co1593 2.143 . S
O1595 Co1594 2.160 . S
C1596 O1597 1.278 . S
C1596 O1604 1.224 . S
O1597 C1596 1.278 . S
C1598 O1599 1.245 . S
C1598 O1610 1.232 . S
O1599 C1598 1.245 . S
O1600 Co1594 2.058 . S
O1600 C1626 1.269 . S
O1601 Co1593 2.074 . S
O1601 C1626 1.257 . S
H1602 C1627 0.930 . S
H1603 C1633 0.930 . S
O1604 Co1593 2.093 . S
O1604 C1596 1.224 . S
H1605 C1637 0.929 . S
H1606 C1639 0.930 . S
H1607 C1640 0.930 . S
H1608 C1638 0.929 . S
H1609 C1641 0.928 . S
O1610 Co1594 2.057 . S
O1610 C1598 1.232 . S
H1611 C1630 0.929 . S
H1612 C1631 0.929 . S
H1613 C1643 0.931 . S
H1614 C1635 0.929 . S
H1615 C1644 0.930 . S
H1616 C1636 0.931 . S
O1617 Co1593 2.097 . S
O1617 C1645 1.214 . S
H1618 C1646 0.929 . S
H1619 C1647 0.955 . S
H1620 C1648 0.930 . S
H1621 C1649 0.929 . S
H1622 C1651 0.930 . S
H1623 C1628 0.930 . S
H1624 C1632 0.930 . S
O1625 Co1594 2.037 . S
O1625 C1645 1.234 . S
C1626 O1600 1.269 . S
C1626 O1601 1.257 . S
C1627 H1602 0.930 . S
C1627 C1630 1.388 . S
C1627 C1632 1.418 . S
C1628 H1623 0.930 . S
C1628 C1631 1.404 . S
C1628 C1632 1.353 . S
N1629 Co1594 2.145 . S
N1629 C1630 1.397 . S
N1629 C1631 1.334 . S
C1630 H1611 0.929 . S
C1630 C1627 1.388 . S
C1630 N1629 1.397 . S
C1631 H1612 0.929 . S
C1631 C1628 1.404 . S
C1631 N1629 1.334 . S
C1632 H1624 0.930 . S
C1632 C1627 1.418 . S
C1632 C1628 1.353 . S
C1633 H1603 0.930 . S
C1633 N1634 1.330 . S
C1633 C1635 1.446 . S
N1634 Co1593 2.151 . S
N1634 C1633 1.330 . S
N1634 C1638 1.418 . S
C1635 H1614 0.929 . S
C1635 C1633 1.446 . S
C1635 C1636 1.332 . S
C1636 H1616 0.931 . S
C1636 C1635 1.332 . S
C1636 C1637 1.267 . S
C1637 H1605 0.929 . S
C1637 C1636 1.267 . S
C1637 C1638 1.251 . S
C1638 H1608 0.929 . S
C1638 N1634 1.418 . S
C1638 C1637 1.251 . S
C1639 H1606 0.930 . S
C1639 C1641 1.406 . S
C1639 C1644 1.261 . S
C1640 H1607 0.930 . S
C1640 N1642 1.325 . S
C1640 C1643 1.357 . S
C1641 H1609 0.928 . S
C1641 C1639 1.406 . S
C1641 N1642 1.261 . S
N1642 Co1593 2.214 . S
N1642 C1640 1.325 . S
N1642 C1641 1.261 . S
C1643 H1613 0.931 . S
C1643 C1640 1.357 . S
C1643 C1644 1.312 . S
C1644 H1615 0.930 . S
C1644 C1639 1.261 . S
C1644 C1643 1.312 . S
C1645 O1617 1.214 . S
C1645 O1625 1.234 . S
C1646 H1618 0.929 . S
C1646 C1649 1.391 . S
C1646 C1651 1.391 1_545 S
C1647 H1619 0.955 . S
C1647 C1648 1.390 . S
C1647 N1650 1.391 1_545 S
C1648 H1620 0.930 . S
C1648 C1647 1.390 . S
C1648 C1649 1.392 . S
C1649 H1621 0.929 . S
C1649 C1646 1.391 . S
C1649 C1648 1.392 . S
N1650 Co1594 2.257 . S
N1650 C1647 1.391 1_565 S
N1650 C1651 1.388 . S
C1651 H1622 0.930 . S
C1651 C1646 1.391 1_565 S
C1651 N1650 1.388 . S
Co1652 O1654 2.143 . S
Co1652 O1660 2.074 . S
Co1652 O1663 2.093 . S
Co1652 O1676 2.097 . S
Co1652 N1693 2.151 . S
Co1652 N1701 2.214 . S
Co1653 O1654 2.160 . S
Co1653 O1659 2.058 . S
Co1653 O1669 2.057 . S
Co1653 O1684 2.037 . S
Co1653 N1688 2.145 . S
Co1653 N1709 2.257 . S
O1654 Co1652 2.143 . S
O1654 Co1653 2.160 . S
C1655 O1656 1.278 . S
C1655 O1663 1.224 . S
O1656 C1655 1.278 . S
C1657 O1658 1.245 . S
C1657 O1669 1.232 . S
O1658 C1657 1.245 . S
O1659 Co1653 2.058 . S
O1659 C1685 1.269 . S
O1660 Co1652 2.074 . S
O1660 C1685 1.257 . S
H1661 C1686 0.930 . S
H1662 C1692 0.930 . S
O1663 Co1652 2.093 . S
O1663 C1655 1.224 . S
H1664 C1696 0.929 . S
H1665 C1698 0.930 . S
H1666 C1699 0.930 . S
H1667 C1697 0.929 . S
H1668 C1700 0.928 . S
O1669 Co1653 2.057 . S
O1669 C1657 1.232 . S
H1670 C1689 0.929 . S
H1671 C1690 0.929 . S
H1672 C1702 0.931 . S
H1673 C1694 0.929 . S
H1674 C1703 0.930 . S
H1675 C1695 0.931 . S
O1676 Co1652 2.097 . S
O1676 C1704 1.214 . S
H1677 C1705 0.929 . S
H1678 C1706 0.914 . S
H1679 C1707 0.930 . S
H1680 C1708 0.929 . S
H1681 C1710 0.930 . S
H1682 C1687 0.930 . S
H1683 C1691 0.930 . S
O1684 Co1653 2.037 . S
O1684 C1704 1.234 . S
C1685 O1659 1.269 . S
C1685 O1660 1.257 . S
C1686 H1661 0.930 . S
C1686 C1689 1.388 . S
C1686 C1691 1.418 . S
C1687 H1682 0.930 . S
C1687 C1690 1.404 . S
C1687 C1691 1.353 . S
N1688 Co1653 2.145 . S
N1688 C1689 1.397 . S
N1688 C1690 1.334 . S
C1689 H1670 0.929 . S
C1689 C1686 1.388 . S
C1689 N1688 1.397 . S
C1690 H1671 0.929 . S
C1690 C1687 1.404 . S
C1690 N1688 1.334 . S
C1691 H1683 0.930 . S
C1691 C1686 1.418 . S
C1691 C1687 1.353 . S
C1692 H1662 0.930 . S
C1692 N1693 1.330 . S
C1692 C1694 1.446 . S
N1693 Co1652 2.151 . S
N1693 C1692 1.330 . S
N1693 C1697 1.418 . S
C1694 H1673 0.929 . S
C1694 C1692 1.446 . S
C1694 C1695 1.332 . S
C1695 H1675 0.931 . S
C1695 C1694 1.332 . S
C1695 C1696 1.267 . S
C1696 H1664 0.929 . S
C1696 C1695 1.267 . S
C1696 C1697 1.251 . S
C1697 H1667 0.929 . S
C1697 N1693 1.418 . S
C1697 C1696 1.251 . S
C1698 H1665 0.930 . S
C1698 C1700 1.406 . S
C1698 C1703 1.261 . S
C1699 H1666 0.930 . S
C1699 N1701 1.325 . S
C1699 C1702 1.357 . S
C1700 H1668 0.928 . S
C1700 C1698 1.406 . S
C1700 N1701 1.261 . S
N1701 Co1652 2.214 . S
N1701 C1699 1.325 . S
N1701 C1700 1.261 . S
C1702 H1672 0.931 . S
C1702 C1699 1.357 . S
C1702 C1703 1.312 . S
C1703 H1674 0.930 . S
C1703 C1698 1.261 . S
C1703 C1702 1.312 . S
C1704 O1676 1.214 . S
C1704 O1684 1.234 . S
C1705 H1677 0.929 . S
C1705 C1708 1.391 . S
C1705 C1710 1.391 1_655 S
C1706 H1678 0.914 . S
C1706 C1707 1.390 . S
C1706 N1709 1.391 1_655 S
C1707 H1679 0.930 . S
C1707 C1706 1.390 . S
C1707 C1708 1.392 . S
C1708 H1680 0.929 . S
C1708 C1705 1.391 . S
C1708 C1707 1.392 . S
N1709 Co1653 2.257 . S
N1709 C1706 1.391 1_455 S
N1709 C1710 1.388 . S
C1710 H1681 0.930 . S
C1710 C1705 1.391 1_455 S
C1710 N1709 1.388 . S
Co1711 O1713 2.143 . S
Co1711 O1719 2.074 . S
Co1711 O1722 2.093 . S
Co1711 O1735 2.097 . S
Co1711 N1752 2.151 . S
Co1711 N1760 2.214 . S
Co1712 O1713 2.160 . S
Co1712 O1718 2.058 . S
Co1712 O1728 2.057 . S
Co1712 O1743 2.037 . S
Co1712 N1747 2.145 . S
Co1712 N1768 2.257 . S
O1713 Co1711 2.143 . S
O1713 Co1712 2.160 . S
C1714 O1715 1.278 . S
C1714 O1722 1.224 . S
O1715 C1714 1.278 . S
C1716 O1717 1.245 . S
C1716 O1728 1.232 . S
O1717 C1716 1.245 . S
O1718 Co1712 2.058 . S
O1718 C1744 1.269 . S
O1719 Co1711 2.074 . S
O1719 C1744 1.257 . S
H1720 C1745 0.930 . S
H1721 C1751 0.930 . S
O1722 Co1711 2.093 . S
O1722 C1714 1.224 . S
H1723 C1755 0.929 . S
H1724 C1757 0.930 . S
H1725 C1758 0.930 . S
H1726 C1756 0.929 . S
H1727 C1759 0.928 . S
O1728 Co1712 2.057 . S
O1728 C1716 1.232 . S
H1729 C1748 0.929 . S
H1730 C1749 0.929 . S
H1731 C1761 0.931 . S
H1732 C1753 0.929 . S
H1733 C1762 0.930 . S
H1734 C1754 0.931 . S
O1735 Co1711 2.097 . S
O1735 C1763 1.214 . S
H1736 C1764 0.929 . S
H1737 C1765 0.929 . S
H1738 C1766 0.930 . S
H1739 C1767 0.929 . S
H1740 C1769 0.930 . S
H1741 C1746 0.930 . S
H1742 C1750 0.930 . S
O1743 Co1712 2.037 . S
O1743 C1763 1.234 . S
C1744 O1718 1.269 . S
C1744 O1719 1.257 . S
C1745 H1720 0.930 . S
C1745 C1748 1.388 . S
C1745 C1750 1.418 . S
C1746 H1741 0.930 . S
C1746 C1749 1.404 . S
C1746 C1750 1.353 . S
N1747 Co1712 2.145 . S
N1747 C1748 1.397 . S
N1747 C1749 1.334 . S
C1748 H1729 0.929 . S
C1748 C1745 1.388 . S
C1748 N1747 1.397 . S
C1749 H1730 0.929 . S
C1749 C1746 1.404 . S
C1749 N1747 1.334 . S
C1750 H1742 0.930 . S
C1750 C1745 1.418 . S
C1750 C1746 1.353 . S
C1751 H1721 0.930 . S
C1751 N1752 1.330 . S
C1751 C1753 1.446 . S
N1752 Co1711 2.151 . S
N1752 C1751 1.330 . S
N1752 C1756 1.418 . S
C1753 H1732 0.929 . S
C1753 C1751 1.446 . S
C1753 C1754 1.332 . S
C1754 H1734 0.931 . S
C1754 C1753 1.332 . S
C1754 C1755 1.267 . S
C1755 H1723 0.929 . S
C1755 C1754 1.267 . S
C1755 C1756 1.251 . S
C1756 H1726 0.929 . S
C1756 N1752 1.418 . S
C1756 C1755 1.251 . S
C1757 H1724 0.930 . S
C1757 C1759 1.406 . S
C1757 C1762 1.261 . S
C1758 H1725 0.930 . S
C1758 N1760 1.325 . S
C1758 C1761 1.357 . S
C1759 H1727 0.928 . S
C1759 C1757 1.406 . S
C1759 N1760 1.261 . S
N1760 Co1711 2.214 . S
N1760 C1758 1.325 . S
N1760 C1759 1.261 . S
C1761 H1731 0.931 . S
C1761 C1758 1.357 . S
C1761 C1762 1.312 . S
C1762 H1733 0.930 . S
C1762 C1757 1.261 . S
C1762 C1761 1.312 . S
C1763 O1735 1.214 . S
C1763 O1743 1.234 . S
C1764 H1736 0.929 . S
C1764 C1767 1.391 . S
C1764 C1769 1.391 . S
C1765 H1737 0.929 . S
C1765 C1766 1.390 . S
C1765 N1768 1.391 . S
C1766 H1738 0.930 . S
C1766 C1765 1.390 . S
C1766 C1767 1.392 . S
C1767 H1739 0.929 . S
C1767 C1764 1.391 . S
C1767 C1766 1.392 . S
N1768 Co1712 2.257 . S
N1768 C1765 1.391 . S
N1768 C1769 1.388 . S
C1769 H1740 0.930 . S
C1769 C1764 1.391 . S
C1769 N1768 1.388 . S
Co1770 O1772 2.143 . S
Co1770 O1778 2.074 . S
Co1770 O1781 2.093 . S
Co1770 O1794 2.097 . S
Co1770 N1811 2.151 . S
Co1770 N1819 2.214 . S
Co1771 O1772 2.160 . S
Co1771 O1777 2.058 . S
Co1771 O1787 2.057 . S
Co1771 O1802 2.037 . S
Co1771 N1806 2.145 . S
Co1771 N1827 2.257 . S
O1772 Co1770 2.143 . S
O1772 Co1771 2.160 . S
C1773 O1774 1.278 . S
C1773 O1781 1.224 . S
O1774 C1773 1.278 . S
C1775 O1776 1.245 . S
C1775 O1787 1.232 . S
O1776 C1775 1.245 . S
O1777 Co1771 2.058 . S
O1777 C1803 1.269 . S
O1778 Co1770 2.074 . S
O1778 C1803 1.257 . S
H1779 C1804 0.930 . S
H1780 C1810 0.930 . S
O1781 Co1770 2.093 . S
O1781 C1773 1.224 . S
H1782 C1814 0.929 . S
H1783 C1816 0.930 . S
H1784 C1817 0.930 . S
H1785 C1815 0.929 . S
H1786 C1818 0.928 . S
O1787 Co1771 2.057 . S
O1787 C1775 1.232 . S
H1788 C1807 0.929 . S
H1789 C1808 0.929 . S
H1790 C1820 0.931 . S
H1791 C1812 0.929 . S
H1792 C1821 0.930 . S
H1793 C1813 0.931 . S
O1794 Co1770 2.097 . S
O1794 C1822 1.214 . S
H1795 C1823 0.929 . S
H1796 C1824 0.955 . S
H1797 C1825 0.930 . S
H1798 C1826 0.929 . S
H1799 C1828 0.930 . S
H1800 C1805 0.930 . S
H1801 C1809 0.930 . S
O1802 Co1771 2.037 . S
O1802 C1822 1.234 . S
C1803 O1777 1.269 . S
C1803 O1778 1.257 . S
C1804 H1779 0.930 . S
C1804 C1807 1.388 . S
C1804 C1809 1.418 . S
C1805 H1800 0.930 . S
C1805 C1808 1.404 . S
C1805 C1809 1.353 . S
N1806 Co1771 2.145 . S
N1806 C1807 1.397 . S
N1806 C1808 1.334 . S
C1807 H1788 0.929 . S
C1807 C1804 1.388 . S
C1807 N1806 1.397 . S
C1808 H1789 0.929 . S
C1808 C1805 1.404 . S
C1808 N1806 1.334 . S
C1809 H1801 0.930 . S
C1809 C1804 1.418 . S
C1809 C1805 1.353 . S
C1810 H1780 0.930 . S
C1810 N1811 1.330 . S
C1810 C1812 1.446 . S
N1811 Co1770 2.151 . S
N1811 C1810 1.330 . S
N1811 C1815 1.418 . S
C1812 H1791 0.929 . S
C1812 C1810 1.446 . S
C1812 C1813 1.332 . S
C1813 H1793 0.931 . S
C1813 C1812 1.332 . S
C1813 C1814 1.267 . S
C1814 H1782 0.929 . S
C1814 C1813 1.267 . S
C1814 C1815 1.251 . S
C1815 H1785 0.929 . S
C1815 N1811 1.418 . S
C1815 C1814 1.251 . S
C1816 H1783 0.930 . S
C1816 C1818 1.406 . S
C1816 C1821 1.261 . S
C1817 H1784 0.930 . S
C1817 N1819 1.325 . S
C1817 C1820 1.357 . S
C1818 H1786 0.928 . S
C1818 C1816 1.406 . S
C1818 N1819 1.261 . S
N1819 Co1770 2.214 . S
N1819 C1817 1.325 . S
N1819 C1818 1.261 . S
C1820 H1790 0.931 . S
C1820 C1817 1.357 . S
C1820 C1821 1.312 . S
C1821 H1792 0.930 . S
C1821 C1816 1.261 . S
C1821 C1820 1.312 . S
C1822 O1794 1.214 . S
C1822 O1802 1.234 . S
C1823 H1795 0.929 . S
C1823 C1826 1.391 . S
C1823 C1828 1.391 1_655 S
C1824 H1796 0.955 . S
C1824 C1825 1.390 . S
C1824 N1827 1.391 1_655 S
C1825 H1797 0.930 . S
C1825 C1824 1.390 . S
C1825 C1826 1.392 . S
C1826 H1798 0.929 . S
C1826 C1823 1.391 . S
C1826 C1825 1.392 . S
N1827 Co1771 2.257 . S
N1827 C1824 1.391 1_455 S
N1827 C1828 1.388 . S
C1828 H1799 0.930 . S
C1828 C1823 1.391 1_455 S
C1828 N1827 1.388 . S
Co1829 O1831 2.143 . S
Co1829 O1837 2.074 . S
Co1829 O1840 2.093 . S
Co1829 O1853 2.097 . S
Co1829 N1870 2.151 . S
Co1829 N1878 2.214 . S
Co1830 O1831 2.160 . S
Co1830 O1836 2.058 . S
Co1830 O1846 2.057 . S
Co1830 O1861 2.037 . S
Co1830 N1865 2.145 . S
Co1830 N1886 2.257 . S
O1831 Co1829 2.143 . S
O1831 Co1830 2.160 . S
C1832 O1833 1.278 . S
C1832 O1840 1.224 . S
O1833 C1832 1.278 . S
C1834 O1835 1.245 . S
C1834 O1846 1.232 . S
O1835 C1834 1.245 . S
O1836 Co1830 2.058 . S
O1836 C1862 1.269 . S
O1837 Co1829 2.074 . S
O1837 C1862 1.257 . S
H1838 C1863 0.930 . S
H1839 C1869 0.930 . S
O1840 Co1829 2.093 . S
O1840 C1832 1.224 . S
H1841 C1873 0.929 . S
H1842 C1875 0.930 . S
H1843 C1876 0.930 . S
H1844 C1874 0.929 . S
H1845 C1877 0.928 . S
O1846 Co1830 2.057 . S
O1846 C1834 1.232 . S
H1847 C1866 0.929 . S
H1848 C1867 0.929 . S
H1849 C1879 0.931 . S
H1850 C1871 0.929 . S
H1851 C1880 0.930 . S
H1852 C1872 0.931 . S
O1853 Co1829 2.097 . S
O1853 C1881 1.214 . S
H1854 C1882 0.929 . S
H1855 C1883 0.929 . S
H1856 C1884 0.930 . S
H1857 C1885 0.929 . S
H1858 C1887 0.930 . S
H1859 C1864 0.930 . S
H1860 C1868 0.930 . S
O1861 Co1830 2.037 . S
O1861 C1881 1.234 . S
C1862 O1836 1.269 . S
C1862 O1837 1.257 . S
C1863 H1838 0.930 . S
C1863 C1866 1.388 . S
C1863 C1868 1.418 . S
C1864 H1859 0.930 . S
C1864 C1867 1.404 . S
C1864 C1868 1.353 . S
N1865 Co1830 2.145 . S
N1865 C1866 1.397 . S
N1865 C1867 1.334 . S
C1866 H1847 0.929 . S
C1866 C1863 1.388 . S
C1866 N1865 1.397 . S
C1867 H1848 0.929 . S
C1867 C1864 1.404 . S
C1867 N1865 1.334 . S
C1868 H1860 0.930 . S
C1868 C1863 1.418 . S
C1868 C1864 1.353 . S
C1869 H1839 0.930 . S
C1869 N1870 1.330 . S
C1869 C1871 1.446 . S
N1870 Co1829 2.151 . S
N1870 C1869 1.330 . S
N1870 C1874 1.418 . S
C1871 H1850 0.929 . S
C1871 C1869 1.446 . S
C1871 C1872 1.332 . S
C1872 H1852 0.931 . S
C1872 C1871 1.332 . S
C1872 C1873 1.267 . S
C1873 H1841 0.929 . S
C1873 C1872 1.267 . S
C1873 C1874 1.251 . S
C1874 H1844 0.929 . S
C1874 N1870 1.418 . S
C1874 C1873 1.251 . S
C1875 H1842 0.930 . S
C1875 C1877 1.406 . S
C1875 C1880 1.261 . S
C1876 H1843 0.930 . S
C1876 N1878 1.325 . S
C1876 C1879 1.357 . S
C1877 H1845 0.928 . S
C1877 C1875 1.406 . S
C1877 N1878 1.261 . S
N1878 Co1829 2.214 . S
N1878 C1876 1.325 . S
N1878 C1877 1.261 . S
C1879 H1849 0.931 . S
C1879 C1876 1.357 . S
C1879 C1880 1.312 . S
C1880 H1851 0.930 . S
C1880 C1875 1.261 . S
C1880 C1879 1.312 . S
C1881 O1853 1.214 . S
C1881 O1861 1.234 . S
C1882 H1854 0.929 . S
C1882 C1885 1.391 . S
C1882 C1887 1.391 . S
C1883 H1855 0.929 . S
C1883 C1884 1.390 . S
C1883 N1886 1.391 . S
C1884 H1856 0.930 . S
C1884 C1883 1.390 . S
C1884 C1885 1.392 . S
C1885 H1857 0.929 . S
C1885 C1882 1.391 . S
C1885 C1884 1.392 . S
N1886 Co1830 2.257 . S
N1886 C1883 1.391 . S
N1886 C1887 1.388 . S
C1887 H1858 0.930 . S
C1887 C1882 1.391 . S
C1887 N1886 1.388 . S
Co1888 O1890 2.143 . S
Co1888 O1896 2.074 . S
Co1888 O1899 2.093 . S
Co1888 O1912 2.097 . S
Co1888 N1929 2.151 . S
Co1888 N1937 2.214 . S
Co1889 O1890 2.160 . S
Co1889 O1895 2.058 . S
Co1889 O1905 2.057 . S
Co1889 O1920 2.037 . S
Co1889 N1924 2.145 . S
Co1889 N1945 2.257 . S
O1890 Co1888 2.143 . S
O1890 Co1889 2.160 . S
C1891 O1892 1.278 . S
C1891 O1899 1.224 . S
O1892 C1891 1.278 . S
C1893 O1894 1.245 . S
C1893 O1905 1.232 . S
O1894 C1893 1.245 . S
O1895 Co1889 2.058 . S
O1895 C1921 1.269 . S
O1896 Co1888 2.074 . S
O1896 C1921 1.257 . S
H1897 C1922 0.930 . S
H1898 C1928 0.930 . S
O1899 Co1888 2.093 . S
O1899 C1891 1.224 . S
H1900 C1932 0.929 . S
H1901 C1934 0.930 . S
H1902 C1935 0.930 . S
H1903 C1933 0.929 . S
H1904 C1936 0.928 . S
O1905 Co1889 2.057 . S
O1905 C1893 1.232 . S
H1906 C1925 0.929 . S
H1907 C1926 0.929 . S
H1908 C1938 0.931 . S
H1909 C1930 0.929 . S
H1910 C1939 0.930 . S
H1911 C1931 0.931 . S
O1912 Co1888 2.097 . S
O1912 C1940 1.214 . S
H1913 C1941 0.929 . S
H1914 C1942 0.914 . S
H1915 C1943 0.930 . S
H1916 C1944 0.929 . S
H1917 C1946 0.930 . S
H1918 C1923 0.930 . S
H1919 C1927 0.930 . S
O1920 Co1889 2.037 . S
O1920 C1940 1.234 . S
C1921 O1895 1.269 . S
C1921 O1896 1.257 . S
C1922 H1897 0.930 . S
C1922 C1925 1.388 . S
C1922 C1927 1.418 . S
C1923 H1918 0.930 . S
C1923 C1926 1.404 . S
C1923 C1927 1.353 . S
N1924 Co1889 2.145 . S
N1924 C1925 1.397 . S
N1924 C1926 1.334 . S
C1925 H1906 0.929 . S
C1925 C1922 1.388 . S
C1925 N1924 1.397 . S
C1926 H1907 0.929 . S
C1926 C1923 1.404 . S
C1926 N1924 1.334 . S
C1927 H1919 0.930 . S
C1927 C1922 1.418 . S
C1927 C1923 1.353 . S
C1928 H1898 0.930 . S
C1928 N1929 1.330 . S
C1928 C1930 1.446 . S
N1929 Co1888 2.151 . S
N1929 C1928 1.330 . S
N1929 C1933 1.418 . S
C1930 H1909 0.929 . S
C1930 C1928 1.446 . S
C1930 C1931 1.332 . S
C1931 H1911 0.931 . S
C1931 C1930 1.332 . S
C1931 C1932 1.267 . S
C1932 H1900 0.929 . S
C1932 C1931 1.267 . S
C1932 C1933 1.251 . S
C1933 H1903 0.929 . S
C1933 N1929 1.418 . S
C1933 C1932 1.251 . S
C1934 H1901 0.930 . S
C1934 C1936 1.406 . S
C1934 C1939 1.261 . S
C1935 H1902 0.930 . S
C1935 N1937 1.325 . S
C1935 C1938 1.357 . S
C1936 H1904 0.928 . S
C1936 C1934 1.406 . S
C1936 N1937 1.261 . S
N1937 Co1888 2.214 . S
N1937 C1935 1.325 . S
N1937 C1936 1.261 . S
C1938 H1908 0.931 . S
C1938 C1935 1.357 . S
C1938 C1939 1.312 . S
C1939 H1910 0.930 . S
C1939 C1934 1.261 . S
C1939 C1938 1.312 . S
C1940 O1912 1.214 . S
C1940 O1920 1.234 . S
C1941 H1913 0.929 . S
C1941 C1944 1.391 . S
C1941 C1946 1.391 1_545 S
C1942 H1914 0.914 . S
C1942 C1943 1.390 . S
C1942 N1945 1.391 1_545 S
C1943 H1915 0.930 . S
C1943 C1942 1.390 . S
C1943 C1944 1.392 . S
C1944 H1916 0.929 . S
C1944 C1941 1.391 . S
C1944 C1943 1.392 . S
N1945 Co1889 2.257 . S
N1945 C1942 1.391 1_565 S
N1945 C1946 1.388 . S
C1946 H1917 0.930 . S
C1946 C1941 1.391 1_565 S
C1946 N1945 1.388 . S
Co1947 O1949 2.143 . S
Co1947 O1955 2.074 . S
Co1947 O1958 2.093 . S
Co1947 O1971 2.097 . S
Co1947 N1988 2.151 . S
Co1947 N1996 2.214 . S
Co1948 O1949 2.160 . S
Co1948 O1954 2.058 . S
Co1948 O1964 2.057 . S
Co1948 O1979 2.037 . S
Co1948 N1983 2.145 . S
Co1948 N2004 2.257 . S
O1949 Co1947 2.143 . S
O1949 Co1948 2.160 . S
C1950 O1951 1.278 . S
C1950 O1958 1.224 . S
O1951 C1950 1.278 . S
C1952 O1953 1.245 . S
C1952 O1964 1.232 . S
O1953 C1952 1.245 . S
O1954 Co1948 2.058 . S
O1954 C1980 1.269 . S
O1955 Co1947 2.074 . S
O1955 C1980 1.257 . S
H1956 C1981 0.930 . S
H1957 C1987 0.930 . S
O1958 Co1947 2.093 . S
O1958 C1950 1.224 . S
H1959 C1991 0.929 . S
H1960 C1993 0.930 . S
H1961 C1994 0.930 . S
H1962 C1992 0.929 . S
H1963 C1995 0.928 . S
O1964 Co1948 2.057 . S
O1964 C1952 1.232 . S
H1965 C1984 0.929 . S
H1966 C1985 0.929 . S
H1967 C1997 0.931 . S
H1968 C1989 0.929 . S
H1969 C1998 0.930 . S
H1970 C1990 0.931 . S
O1971 Co1947 2.097 . S
O1971 C1999 1.214 . S
H1972 C2000 0.929 . S
H1973 C2001 0.929 . S
H1974 C2002 0.930 . S
H1975 C2003 0.929 . S
H1976 C2005 0.930 . S
H1977 C1982 0.930 . S
H1978 C1986 0.930 . S
O1979 Co1948 2.037 . S
O1979 C1999 1.234 . S
C1980 O1954 1.269 . S
C1980 O1955 1.257 . S
C1981 H1956 0.930 . S
C1981 C1984 1.388 . S
C1981 C1986 1.418 . S
C1982 H1977 0.930 . S
C1982 C1985 1.404 . S
C1982 C1986 1.353 . S
N1983 Co1948 2.145 . S
N1983 C1984 1.397 . S
N1983 C1985 1.334 . S
C1984 H1965 0.929 . S
C1984 C1981 1.388 . S
C1984 N1983 1.397 . S
C1985 H1966 0.929 . S
C1985 C1982 1.404 . S
C1985 N1983 1.334 . S
C1986 H1978 0.930 . S
C1986 C1981 1.418 . S
C1986 C1982 1.353 . S
C1987 H1957 0.930 . S
C1987 N1988 1.330 . S
C1987 C1989 1.446 . S
N1988 Co1947 2.151 . S
N1988 C1987 1.330 . S
N1988 C1992 1.418 . S
C1989 H1968 0.929 . S
C1989 C1987 1.446 . S
C1989 C1990 1.332 . S
C1990 H1970 0.931 . S
C1990 C1989 1.332 . S
C1990 C1991 1.267 . S
C1991 H1959 0.929 . S
C1991 C1990 1.267 . S
C1991 C1992 1.251 . S
C1992 H1962 0.929 . S
C1992 N1988 1.418 . S
C1992 C1991 1.251 . S
C1993 H1960 0.930 . S
C1993 C1995 1.406 . S
C1993 C1998 1.261 . S
C1994 H1961 0.930 . S
C1994 N1996 1.325 . S
C1994 C1997 1.357 . S
C1995 H1963 0.928 . S
C1995 C1993 1.406 . S
C1995 N1996 1.261 . S
N1996 Co1947 2.214 . S
N1996 C1994 1.325 . S
N1996 C1995 1.261 . S
C1997 H1967 0.931 . S
C1997 C1994 1.357 . S
C1997 C1998 1.312 . S
C1998 H1969 0.930 . S
C1998 C1993 1.261 . S
C1998 C1997 1.312 . S
C1999 O1971 1.214 . S
C1999 O1979 1.234 . S
C2000 H1972 0.929 . S
C2000 C2003 1.391 . S
C2000 C2005 1.391 . S
C2001 H1973 0.929 . S
C2001 C2002 1.390 . S
C2001 N2004 1.391 . S
C2002 H1974 0.930 . S
C2002 C2001 1.390 . S
C2002 C2003 1.392 . S
C2003 H1975 0.929 . S
C2003 C2000 1.391 . S
C2003 C2002 1.392 . S
N2004 Co1948 2.257 . S
N2004 C2001 1.391 . S
N2004 C2005 1.388 . S
C2005 H1976 0.930 . S
C2005 C2000 1.391 . S
C2005 N2004 1.388 . S
Co2006 O2008 2.143 . S
Co2006 O2014 2.074 . S
Co2006 O2017 2.093 . S
Co2006 O2030 2.097 . S
Co2006 N2047 2.151 . S
Co2006 N2055 2.214 . S
Co2007 O2008 2.160 . S
Co2007 O2013 2.058 . S
Co2007 O2023 2.057 . S
Co2007 O2038 2.037 . S
Co2007 N2042 2.145 . S
Co2007 N2063 2.257 . S
O2008 Co2006 2.143 . S
O2008 Co2007 2.160 . S
C2009 O2010 1.278 . S
C2009 O2017 1.224 . S
O2010 C2009 1.278 . S
C2011 O2012 1.245 . S
C2011 O2023 1.232 . S
O2012 C2011 1.245 . S
O2013 Co2007 2.058 . S
O2013 C2039 1.269 . S
O2014 Co2006 2.074 . S
O2014 C2039 1.257 . S
H2015 C2040 0.930 . S
H2016 C2046 0.930 . S
O2017 Co2006 2.093 . S
O2017 C2009 1.224 . S
H2018 C2050 0.929 . S
H2019 C2052 0.930 . S
H2020 C2053 0.930 . S
H2021 C2051 0.929 . S
H2022 C2054 0.928 . S
O2023 Co2007 2.057 . S
O2023 C2011 1.232 . S
H2024 C2043 0.929 . S
H2025 C2044 0.929 . S
H2026 C2056 0.931 . S
H2027 C2048 0.929 . S
H2028 C2057 0.930 . S
H2029 C2049 0.931 . S
O2030 Co2006 2.097 . S
O2030 C2058 1.214 . S
H2031 C2059 0.929 . S
H2032 C2060 0.929 . S
H2033 C2061 0.930 . S
H2034 C2062 0.929 . S
H2035 C2064 0.930 . S
H2036 C2041 0.930 . S
H2037 C2045 0.930 . S
O2038 Co2007 2.037 . S
O2038 C2058 1.234 . S
C2039 O2013 1.269 . S
C2039 O2014 1.257 . S
C2040 H2015 0.930 . S
C2040 C2043 1.388 . S
C2040 C2045 1.418 . S
C2041 H2036 0.930 . S
C2041 C2044 1.404 . S
C2041 C2045 1.353 . S
N2042 Co2007 2.145 . S
N2042 C2043 1.397 . S
N2042 C2044 1.334 . S
C2043 H2024 0.929 . S
C2043 C2040 1.388 . S
C2043 N2042 1.397 . S
C2044 H2025 0.929 . S
C2044 C2041 1.404 . S
C2044 N2042 1.334 . S
C2045 H2037 0.930 . S
C2045 C2040 1.418 . S
C2045 C2041 1.353 . S
C2046 H2016 0.930 . S
C2046 N2047 1.330 . S
C2046 C2048 1.446 . S
N2047 Co2006 2.151 . S
N2047 C2046 1.330 . S
N2047 C2051 1.418 . S
C2048 H2027 0.929 . S
C2048 C2046 1.446 . S
C2048 C2049 1.332 . S
C2049 H2029 0.931 . S
C2049 C2048 1.332 . S
C2049 C2050 1.267 . S
C2050 H2018 0.929 . S
C2050 C2049 1.267 . S
C2050 C2051 1.251 . S
C2051 H2021 0.929 . S
C2051 N2047 1.418 . S
C2051 C2050 1.251 . S
C2052 H2019 0.930 . S
C2052 C2054 1.406 . S
C2052 C2057 1.261 . S
C2053 H2020 0.930 . S
C2053 N2055 1.325 . S
C2053 C2056 1.357 . S
C2054 H2022 0.928 . S
C2054 C2052 1.406 . S
C2054 N2055 1.261 . S
N2055 Co2006 2.214 . S
N2055 C2053 1.325 . S
N2055 C2054 1.261 . S
C2056 H2026 0.931 . S
C2056 C2053 1.357 . S
C2056 C2057 1.312 . S
C2057 H2028 0.930 . S
C2057 C2052 1.261 . S
C2057 C2056 1.312 . S
C2058 O2030 1.214 . S
C2058 O2038 1.234 . S
C2059 H2031 0.929 . S
C2059 C2062 1.391 . S
C2059 C2064 1.391 . S
C2060 H2032 0.929 . S
C2060 C2061 1.390 . S
C2060 N2063 1.391 . S
C2061 H2033 0.930 . S
C2061 C2060 1.390 . S
C2061 C2062 1.392 . S
C2062 H2034 0.929 . S
C2062 C2059 1.391 . S
C2062 C2061 1.392 . S
N2063 Co2007 2.257 . S
N2063 C2060 1.391 . S
N2063 C2064 1.388 . S
C2064 H2035 0.930 . S
C2064 C2059 1.391 . S
C2064 N2063 1.388 . S
Co2065 O2067 2.143 . S
Co2065 O2073 2.074 . S
Co2065 O2076 2.093 . S
Co2065 O2089 2.097 . S
Co2065 N2106 2.151 . S
Co2065 N2114 2.214 . S
Co2066 O2067 2.160 . S
Co2066 O2072 2.058 . S
Co2066 O2082 2.057 . S
Co2066 O2097 2.037 . S
Co2066 N2101 2.145 . S
Co2066 N2122 2.257 . S
O2067 Co2065 2.143 . S
O2067 Co2066 2.160 . S
C2068 O2069 1.278 . S
C2068 O2076 1.224 . S
O2069 C2068 1.278 . S
C2070 O2071 1.245 . S
C2070 O2082 1.232 . S
O2071 C2070 1.245 . S
O2072 Co2066 2.058 . S
O2072 C2098 1.269 . S
O2073 Co2065 2.074 . S
O2073 C2098 1.257 . S
H2074 C2099 0.930 . S
H2075 C2105 0.930 . S
O2076 Co2065 2.093 . S
O2076 C2068 1.224 . S
H2077 C2109 0.929 . S
H2078 C2111 0.930 . S
H2079 C2112 0.930 . S
H2080 C2110 0.929 . S
H2081 C2113 0.928 . S
O2082 Co2066 2.057 . S
O2082 C2070 1.232 . S
H2083 C2102 0.929 . S
H2084 C2103 0.929 . S
H2085 C2115 0.931 . S
H2086 C2107 0.929 . S
H2087 C2116 0.930 . S
H2088 C2108 0.931 . S
O2089 Co2065 2.097 . S
O2089 C2117 1.214 . S
H2090 C2118 0.929 . S
H2091 C2119 0.929 . S
H2092 C2120 0.930 . S
H2093 C2121 0.929 . S
H2094 C2123 0.930 . S
H2095 C2100 0.930 . S
H2096 C2104 0.930 . S
O2097 Co2066 2.037 . S
O2097 C2117 1.234 . S
C2098 O2072 1.269 . S
C2098 O2073 1.257 . S
C2099 H2074 0.930 . S
C2099 C2102 1.388 . S
C2099 C2104 1.418 . S
C2100 H2095 0.930 . S
C2100 C2103 1.404 . S
C2100 C2104 1.353 . S
N2101 Co2066 2.145 . S
N2101 C2102 1.397 . S
N2101 C2103 1.334 . S
C2102 H2083 0.929 . S
C2102 C2099 1.388 . S
C2102 N2101 1.397 . S
C2103 H2084 0.929 . S
C2103 C2100 1.404 . S
C2103 N2101 1.334 . S
C2104 H2096 0.930 . S
C2104 C2099 1.418 . S
C2104 C2100 1.353 . S
C2105 H2075 0.930 . S
C2105 N2106 1.330 . S
C2105 C2107 1.446 . S
N2106 Co2065 2.151 . S
N2106 C2105 1.330 . S
N2106 C2110 1.418 . S
C2107 H2086 0.929 . S
C2107 C2105 1.446 . S
C2107 C2108 1.332 . S
C2108 H2088 0.931 . S
C2108 C2107 1.332 . S
C2108 C2109 1.267 . S
C2109 H2077 0.929 . S
C2109 C2108 1.267 . S
C2109 C2110 1.251 . S
C2110 H2080 0.929 . S
C2110 N2106 1.418 . S
C2110 C2109 1.251 . S
C2111 H2078 0.930 . S
C2111 C2113 1.406 . S
C2111 C2116 1.261 . S
C2112 H2079 0.930 . S
C2112 N2114 1.325 . S
C2112 C2115 1.357 . S
C2113 H2081 0.928 . S
C2113 C2111 1.406 . S
C2113 N2114 1.261 . S
N2114 Co2065 2.214 . S
N2114 C2112 1.325 . S
N2114 C2113 1.261 . S
C2115 H2085 0.931 . S
C2115 C2112 1.357 . S
C2115 C2116 1.312 . S
C2116 H2087 0.930 . S
C2116 C2111 1.261 . S
C2116 C2115 1.312 . S
C2117 O2089 1.214 . S
C2117 O2097 1.234 . S
C2118 H2090 0.929 . S
C2118 C2121 1.391 . S
C2118 C2123 1.391 . S
C2119 H2091 0.929 . S
C2119 C2120 1.390 . S
C2119 N2122 1.391 . S
C2120 H2092 0.930 . S
C2120 C2119 1.390 . S
C2120 C2121 1.392 . S
C2121 H2093 0.929 . S
C2121 C2118 1.391 . S
C2121 C2120 1.392 . S
N2122 Co2066 2.257 . S
N2122 C2119 1.391 . S
N2122 C2123 1.388 . S
C2123 H2094 0.930 . S
C2123 C2118 1.391 . S
C2123 N2122 1.388 . S
H2124 C2132 0.950 . S
H2125 C2137 0.950 . S
H2126 C2134 0.950 . S
H2127 C2136 0.950 . S
H2128 C2138 0.950 . S
H2129 C2140 0.950 . S
H2130 C2142 0.950 . S
H2131 C2143 0.950 . S
C2132 H2124 0.950 . S
C2132 C2133 1.386 . S
C2132 C2134 1.391 . S
C2133 C2132 1.386 . S
C2133 C2137 1.393 . S
C2134 H2126 0.950 . S
C2134 C2132 1.391 . S
C2134 C2135 1.400 . S
C2135 C2134 1.400 . S
C2135 C2136 1.398 . S
C2135 C2141 1.491 . S
C2136 H2127 0.950 . S
C2136 C2135 1.398 . S
C2136 C2137 1.391 . S
C2137 H2125 0.950 . S
C2137 C2133 1.393 . S
C2137 C2136 1.391 . S
C2138 H2128 0.950 . S
C2138 C2139 1.386 . S
C2138 C2140 1.391 . S
C2139 C2138 1.386 . S
C2139 C2143 1.393 . S
C2140 H2129 0.950 . S
C2140 C2138 1.391 . S
C2140 C2141 1.400 . S
C2141 C2135 1.491 . S
C2141 C2140 1.400 . S
C2141 C2142 1.398 . S
C2142 H2130 0.950 . S
C2142 C2141 1.398 . S
C2142 C2143 1.391 . S
C2143 H2131 0.950 . S
C2143 C2139 1.393 . S
C2143 C2142 1.391 . S
H2144 C2152 0.950 . S
H2145 C2157 0.950 . S
H2146 C2154 0.950 . S
H2147 C2156 0.950 . S
H2148 C2158 0.950 . S
H2149 C2160 0.950 . S
H2150 C2162 0.950 . S
H2151 C2163 0.950 . S
C2152 H2144 0.950 . S
C2152 C2153 1.386 . S
C2152 C2154 1.391 . S
C2153 C2152 1.386 . S
C2153 C2157 1.393 . S
C2154 H2146 0.950 . S
C2154 C2152 1.391 . S
C2154 C2155 1.400 . S
C2155 C2154 1.400 . S
C2155 C2156 1.398 . S
C2155 C2161 1.491 . S
C2156 H2147 0.950 . S
C2156 C2155 1.398 . S
C2156 C2157 1.391 . S
C2157 H2145 0.950 . S
C2157 C2153 1.393 . S
C2157 C2156 1.391 . S
C2158 H2148 0.950 . S
C2158 C2159 1.386 . S
C2158 C2160 1.391 . S
C2159 C2158 1.386 . S
C2159 C2163 1.393 . S
C2160 H2149 0.950 . S
C2160 C2158 1.391 . S
C2160 C2161 1.400 . S
C2161 C2155 1.491 . S
C2161 C2160 1.400 . S
C2161 C2162 1.398 . S
C2162 H2150 0.950 . S
C2162 C2161 1.398 . S
C2162 C2163 1.391 . S
C2163 H2151 0.950 . S
C2163 C2159 1.393 . S
C2163 C2162 1.391 . S
H2164 C2172 0.950 . S
H2165 C2177 0.950 . S
H2166 C2174 0.950 . S
H2167 C2176 0.950 . S
H2168 C2178 0.950 . S
H2169 C2180 0.950 . S
H2170 C2182 0.950 . S
H2171 C2183 0.950 . S
C2172 H2164 0.950 . S
C2172 C2173 1.386 . S
C2172 C2174 1.391 . S
C2173 C2172 1.386 . S
C2173 C2177 1.393 . S
C2174 H2166 0.950 . S
C2174 C2172 1.391 . S
C2174 C2175 1.400 . S
C2175 C2174 1.400 . S
C2175 C2176 1.398 . S
C2175 C2181 1.491 . S
C2176 H2167 0.950 . S
C2176 C2175 1.398 . S
C2176 C2177 1.391 . S
C2177 H2165 0.950 . S
C2177 C2173 1.393 . S
C2177 C2176 1.391 . S
C2178 H2168 0.950 . S
C2178 C2179 1.386 . S
C2178 C2180 1.391 . S
C2179 C2178 1.386 . S
C2179 C2183 1.393 . S
C2180 H2169 0.950 . S
C2180 C2178 1.391 . S
C2180 C2181 1.400 . S
C2181 C2175 1.491 . S
C2181 C2180 1.400 . S
C2181 C2182 1.398 . S
C2182 H2170 0.950 . S
C2182 C2181 1.398 . S
C2182 C2183 1.391 . S
C2183 H2171 0.950 . S
C2183 C2179 1.393 . S
C2183 C2182 1.391 . S
H2184 C2192 0.950 . S
H2185 C2197 0.950 . S
H2186 C2194 0.950 . S
H2187 C2196 0.950 . S
H2188 C2198 0.950 . S
H2189 C2200 0.950 . S
H2190 C2202 0.950 . S
H2191 C2203 0.950 . S
C2192 H2184 0.950 . S
C2192 C2193 1.386 . S
C2192 C2194 1.391 . S
C2193 C2192 1.386 . S
C2193 C2197 1.393 . S
C2194 H2186 0.950 . S
C2194 C2192 1.391 . S
C2194 C2195 1.400 . S
C2195 C2194 1.400 . S
C2195 C2196 1.398 . S
C2195 C2201 1.491 . S
C2196 H2187 0.950 . S
C2196 C2195 1.398 . S
C2196 C2197 1.391 . S
C2197 H2185 0.950 . S
C2197 C2193 1.393 . S
C2197 C2196 1.391 . S
C2198 H2188 0.950 . S
C2198 C2199 1.386 . S
C2198 C2200 1.391 . S
C2199 C2198 1.386 . S
C2199 C2203 1.393 . S
C2200 H2189 0.950 . S
C2200 C2198 1.391 . S
C2200 C2201 1.400 . S
C2201 C2195 1.491 . S
C2201 C2200 1.400 . S
C2201 C2202 1.398 . S
C2202 H2190 0.950 . S
C2202 C2201 1.398 . S
C2202 C2203 1.391 . S
C2203 H2191 0.950 . S
C2203 C2199 1.393 . S
C2203 C2202 1.391 . S
H2204 C2212 0.950 . S
H2205 C2217 0.950 . S
H2206 C2214 0.950 . S
H2207 C2216 0.950 . S
H2208 C2218 0.950 . S
H2209 C2220 0.950 . S
H2210 C2222 0.950 . S
H2211 C2223 0.950 . S
C2212 H2204 0.950 . S
C2212 C2213 1.386 . S
C2212 C2214 1.391 . S
C2213 C2212 1.386 . S
C2213 C2217 1.393 . S
C2214 H2206 0.950 . S
C2214 C2212 1.391 . S
C2214 C2215 1.400 . S
C2215 C2214 1.400 . S
C2215 C2216 1.398 . S
C2215 C2221 1.491 . S
C2216 H2207 0.950 . S
C2216 C2215 1.398 . S
C2216 C2217 1.391 . S
C2217 H2205 0.950 . S
C2217 C2213 1.393 . S
C2217 C2216 1.391 . S
C2218 H2208 0.950 . S
C2218 C2219 1.386 . S
C2218 C2220 1.391 . S
C2219 C2218 1.386 . S
C2219 C2223 1.393 . S
C2220 H2209 0.950 . S
C2220 C2218 1.391 . S
C2220 C2221 1.400 . S
C2221 C2215 1.491 . S
C2221 C2220 1.400 . S
C2221 C2222 1.398 . S
C2222 H2210 0.950 . S
C2222 C2221 1.398 . S
C2222 C2223 1.391 . S
C2223 H2211 0.950 . S
C2223 C2219 1.393 . S
C2223 C2222 1.391 . S
H2224 C2232 0.950 . S
H2225 C2237 0.950 . S
H2226 C2234 0.950 . S
H2227 C2236 0.950 . S
H2228 C2238 0.950 . S
H2229 C2240 0.950 . S
H2230 C2242 0.950 . S
H2231 C2243 0.950 . S
C2232 H2224 0.950 . S
C2232 C2233 1.386 . S
C2232 C2234 1.391 . S
C2233 C2232 1.386 . S
C2233 C2237 1.393 . S
C2234 H2226 0.950 . S
C2234 C2232 1.391 . S
C2234 C2235 1.400 . S
C2235 C2234 1.400 . S
C2235 C2236 1.398 . S
C2235 C2241 1.491 . S
C2236 H2227 0.950 . S
C2236 C2235 1.398 . S
C2236 C2237 1.391 . S
C2237 H2225 0.950 . S
C2237 C2233 1.393 . S
C2237 C2236 1.391 . S
C2238 H2228 0.950 . S
C2238 C2239 1.386 . S
C2238 C2240 1.391 . S
C2239 C2238 1.386 . S
C2239 C2243 1.393 . S
C2240 H2229 0.950 . S
C2240 C2238 1.391 . S
C2240 C2241 1.400 . S
C2241 C2235 1.491 . S
C2241 C2240 1.400 . S
C2241 C2242 1.398 . S
C2242 H2230 0.950 . S
C2242 C2241 1.398 . S
C2242 C2243 1.391 . S
C2243 H2231 0.950 . S
C2243 C2239 1.393 . S
C2243 C2242 1.391 . S
H2244 C2252 0.950 . S
H2245 C2257 0.950 . S
H2246 C2254 0.950 . S
H2247 C2256 0.950 . S
H2248 C2258 0.950 . S
H2249 C2260 0.950 . S
H2250 C2262 0.950 . S
H2251 C2263 0.950 . S
C2252 H2244 0.950 . S
C2252 C2253 1.386 . S
C2252 C2254 1.391 . S
C2253 C2252 1.386 . S
C2253 C2257 1.393 . S
C2254 H2246 0.950 . S
C2254 C2252 1.391 . S
C2254 C2255 1.400 . S
C2255 C2254 1.400 . S
C2255 C2256 1.398 . S
C2255 C2261 1.491 . S
C2256 H2247 0.950 . S
C2256 C2255 1.398 . S
C2256 C2257 1.391 . S
C2257 H2245 0.950 . S
C2257 C2253 1.393 . S
C2257 C2256 1.391 . S
C2258 H2248 0.950 . S
C2258 C2259 1.386 . S
C2258 C2260 1.391 . S
C2259 C2258 1.386 . S
C2259 C2263 1.393 . S
C2260 H2249 0.950 . S
C2260 C2258 1.391 . S
C2260 C2261 1.400 . S
C2261 C2255 1.491 . S
C2261 C2260 1.400 . S
C2261 C2262 1.398 . S
C2262 H2250 0.950 . S
C2262 C2261 1.398 . S
C2262 C2263 1.391 . S
C2263 H2251 0.950 . S
C2263 C2259 1.393 . S
C2263 C2262 1.391 . S
H2264 C2272 0.950 . S
H2265 C2277 0.950 . S
H2266 C2274 0.950 . S
H2267 C2276 0.950 . S
H2268 C2278 0.950 . S
H2269 C2280 0.950 . S
H2270 C2282 0.950 . S
H2271 C2283 0.950 . S
C2272 H2264 0.950 . S
C2272 C2273 1.386 . S
C2272 C2274 1.391 . S
C2273 C2272 1.386 . S
C2273 C2277 1.393 . S
C2274 H2266 0.950 . S
C2274 C2272 1.391 . S
C2274 C2275 1.400 . S
C2275 C2274 1.400 . S
C2275 C2276 1.398 . S
C2275 C2281 1.491 . S
C2276 H2267 0.950 . S
C2276 C2275 1.398 . S
C2276 C2277 1.391 . S
C2277 H2265 0.950 . S
C2277 C2273 1.393 . S
C2277 C2276 1.391 . S
C2278 H2268 0.950 . S
C2278 C2279 1.386 . S
C2278 C2280 1.391 . S
C2279 C2278 1.386 . S
C2279 C2283 1.393 . S
C2280 H2269 0.950 . S
C2280 C2278 1.391 . S
C2280 C2281 1.400 . S
C2281 C2275 1.491 . S
C2281 C2280 1.400 . S
C2281 C2282 1.398 . S
C2282 H2270 0.950 . S
C2282 C2281 1.398 . S
C2282 C2283 1.391 . S
C2283 H2271 0.950 . S
C2283 C2279 1.393 . S
C2283 C2282 1.391 . S
H2284 C2292 0.950 . S
H2285 C2297 0.950 . S
H2286 C2294 0.950 . S
H2287 C2296 0.950 . S
H2288 C2298 0.950 . S
H2289 C2300 0.950 . S
H2290 C2302 0.950 . S
H2291 C2303 0.950 . S
C2292 H2284 0.950 . S
C2292 C2293 1.386 . S
C2292 C2294 1.391 . S
C2293 C2292 1.386 . S
C2293 C2297 1.393 . S
C2294 H2286 0.950 . S
C2294 C2292 1.391 . S
C2294 C2295 1.400 . S
C2295 C2294 1.400 . S
C2295 C2296 1.398 . S
C2295 C2301 1.491 . S
C2296 H2287 0.950 . S
C2296 C2295 1.398 . S
C2296 C2297 1.391 . S
C2297 H2285 0.950 . S
C2297 C2293 1.393 . S
C2297 C2296 1.391 . S
C2298 H2288 0.950 . S
C2298 C2299 1.386 . S
C2298 C2300 1.391 . S
C2299 C2298 1.386 . S
C2299 C2303 1.393 . S
C2300 H2289 0.950 . S
C2300 C2298 1.391 . S
C2300 C2301 1.400 . S
C2301 C2295 1.491 . S
C2301 C2300 1.400 . S
C2301 C2302 1.398 . S
C2302 H2290 0.950 . S
C2302 C2301 1.398 . S
C2302 C2303 1.391 . S
C2303 H2291 0.950 . S
C2303 C2299 1.393 . S
C2303 C2302 1.391 . S
H2304 C2312 0.950 . S
H2305 C2317 0.950 . S
H2306 C2314 0.950 . S
H2307 C2316 0.950 . S
H2308 C2318 0.950 . S
H2309 C2320 0.950 . S
H2310 C2322 0.950 . S
H2311 C2323 0.950 . S
C2312 H2304 0.950 . S
C2312 C2313 1.386 . S
C2312 C2314 1.391 . S
C2313 C2312 1.386 . S
C2313 C2317 1.393 . S
C2314 H2306 0.950 . S
C2314 C2312 1.391 . S
C2314 C2315 1.400 . S
C2315 C2314 1.400 . S
C2315 C2316 1.398 . S
C2315 C2321 1.491 . S
C2316 H2307 0.950 . S
C2316 C2315 1.398 . S
C2316 C2317 1.391 . S
C2317 H2305 0.950 . S
C2317 C2313 1.393 . S
C2317 C2316 1.391 . S
C2318 H2308 0.950 . S
C2318 C2319 1.386 . S
C2318 C2320 1.391 . S
C2319 C2318 1.386 . S
C2319 C2323 1.393 . S
C2320 H2309 0.950 . S
C2320 C2318 1.391 . S
C2320 C2321 1.400 . S
C2321 C2315 1.491 . S
C2321 C2320 1.400 . S
C2321 C2322 1.398 . S
C2322 H2310 0.950 . S
C2322 C2321 1.398 . S
C2322 C2323 1.391 . S
C2323 H2311 0.950 . S
C2323 C2319 1.393 . S
C2323 C2322 1.391 . S
H2324 C2332 0.950 . S
H2325 C2337 0.950 . S
H2326 C2334 0.950 . S
H2327 C2336 0.950 . S
H2328 C2338 0.950 . S
H2329 C2340 0.950 . S
H2330 C2342 0.950 . S
H2331 C2343 0.950 . S
C2332 H2324 0.950 . S
C2332 C2333 1.386 . S
C2332 C2334 1.391 . S
C2333 C2332 1.386 . S
C2333 C2337 1.393 . S
C2334 H2326 0.950 . S
C2334 C2332 1.391 . S
C2334 C2335 1.400 . S
C2335 C2334 1.400 . S
C2335 C2336 1.398 . S
C2335 C2341 1.491 . S
C2336 H2327 0.950 . S
C2336 C2335 1.398 . S
C2336 C2337 1.391 . S
C2337 H2325 0.950 . S
C2337 C2333 1.393 . S
C2337 C2336 1.391 . S
C2338 H2328 0.950 . S
C2338 C2339 1.386 . S
C2338 C2340 1.391 . S
C2339 C2338 1.386 . S
C2339 C2343 1.393 . S
C2340 H2329 0.950 . S
C2340 C2338 1.391 . S
C2340 C2341 1.400 . S
C2341 C2335 1.491 . S
C2341 C2340 1.400 . S
C2341 C2342 1.398 . S
C2342 H2330 0.950 . S
C2342 C2341 1.398 . S
C2342 C2343 1.391 . S
C2343 H2331 0.950 . S
C2343 C2339 1.393 . S
C2343 C2342 1.391 . S
H2344 C2352 0.950 . S
H2345 C2357 0.950 . S
H2346 C2354 0.950 . S
H2347 C2356 0.950 . S
H2348 C2358 0.950 . S
H2349 C2360 0.950 . S
H2350 C2362 0.950 . S
H2351 C2363 0.950 . S
C2352 H2344 0.950 . S
C2352 C2353 1.386 . S
C2352 C2354 1.391 . S
C2353 C2352 1.386 . S
C2353 C2357 1.393 . S
C2354 H2346 0.950 . S
C2354 C2352 1.391 . S
C2354 C2355 1.400 . S
C2355 C2354 1.400 . S
C2355 C2356 1.398 . S
C2355 C2361 1.491 . S
C2356 H2347 0.950 . S
C2356 C2355 1.398 . S
C2356 C2357 1.391 . S
C2357 H2345 0.950 . S
C2357 C2353 1.393 . S
C2357 C2356 1.391 . S
C2358 H2348 0.950 . S
C2358 C2359 1.386 . S
C2358 C2360 1.391 . S
C2359 C2358 1.386 . S
C2359 C2363 1.393 . S
C2360 H2349 0.950 . S
C2360 C2358 1.391 . S
C2360 C2361 1.400 . S
C2361 C2355 1.491 . S
C2361 C2360 1.400 . S
C2361 C2362 1.398 . S
C2362 H2350 0.950 . S
C2362 C2361 1.398 . S
C2362 C2363 1.391 . S
C2363 H2351 0.950 . S
C2363 C2359 1.393 . S
C2363 C2362 1.391 . S
H2364 C2372 0.950 . S
H2365 C2377 0.950 . S
H2366 C2374 0.950 . S
H2367 C2376 0.950 . S
H2368 C2378 0.950 . S
H2369 C2380 0.950 . S
H2370 C2382 0.950 . S
H2371 C2383 0.950 . S
C2372 H2364 0.950 . S
C2372 C2373 1.386 . S
C2372 C2374 1.391 . S
C2373 C2372 1.386 . S
C2373 C2377 1.393 . S
C2374 H2366 0.950 . S
C2374 C2372 1.391 . S
C2374 C2375 1.400 . S
C2375 C2374 1.400 . S
C2375 C2376 1.398 1_655 S
C2375 C2381 1.491 1_655 S
C2376 H2367 0.950 . S
C2376 C2375 1.398 1_455 S
C2376 C2377 1.391 1_455 S
C2377 H2365 0.950 . S
C2377 C2373 1.393 . S
C2377 C2376 1.391 1_655 S
C2378 H2368 0.950 . S
C2378 C2379 1.386 . S
C2378 C2380 1.391 . S
C2379 C2378 1.386 . S
C2379 C2383 1.393 . S
C2380 H2369 0.950 . S
C2380 C2378 1.391 . S
C2380 C2381 1.400 . S
C2381 C2375 1.491 1_455 S
C2381 C2380 1.400 . S
C2381 C2382 1.398 1_455 S
C2382 H2370 0.950 . S
C2382 C2381 1.398 1_655 S
C2382 C2383 1.391 1_655 S
C2383 H2371 0.950 . S
C2383 C2379 1.393 . S
C2383 C2382 1.391 1_455 S
H2384 C2392 0.950 . S
H2385 C2397 0.950 . S
H2386 C2394 0.950 . S
H2387 C2396 0.950 . S
H2388 C2398 0.950 . S
H2389 C2400 0.950 . S
H2390 C2402 0.950 . S
H2391 C2403 0.950 . S
C2392 H2384 0.950 . S
C2392 C2393 1.386 . S
C2392 C2394 1.391 . S
C2393 C2392 1.386 . S
C2393 C2397 1.393 . S
C2394 H2386 0.950 . S
C2394 C2392 1.391 . S
C2394 C2395 1.400 . S
C2395 C2394 1.400 . S
C2395 C2396 1.398 . S
C2395 C2401 1.491 . S
C2396 H2387 0.950 . S
C2396 C2395 1.398 . S
C2396 C2397 1.391 . S
C2397 H2385 0.950 . S
C2397 C2393 1.393 . S
C2397 C2396 1.391 . S
C2398 H2388 0.950 . S
C2398 C2399 1.386 . S
C2398 C2400 1.391 . S
C2399 C2398 1.386 . S
C2399 C2403 1.393 . S
C2400 H2389 0.950 . S
C2400 C2398 1.391 . S
C2400 C2401 1.400 . S
C2401 C2395 1.491 . S
C2401 C2400 1.400 . S
C2401 C2402 1.398 . S
C2402 H2390 0.950 . S
C2402 C2401 1.398 . S
C2402 C2403 1.391 . S
C2403 H2391 0.950 . S
C2403 C2399 1.393 . S
C2403 C2402 1.391 . S
H2404 C2412 0.950 . S
H2405 C2417 0.950 . S
H2406 C2414 0.950 1_565 S
H2407 C2416 0.950 . S
H2408 C2418 0.950 . S
H2409 C2420 0.950 1_545 S
H2410 C2422 0.950 . S
H2411 C2423 0.950 . S
C2412 H2404 0.950 . S
C2412 C2413 1.386 . S
C2412 C2414 1.391 . S
C2413 C2412 1.386 . S
C2413 C2417 1.393 . S
C2414 H2406 0.950 1_545 S
C2414 C2412 1.391 . S
C2414 C2415 1.400 . S
C2415 C2414 1.400 . S
C2415 C2416 1.398 . S
C2415 C2421 1.491 1_545 S
C2416 H2407 0.950 . S
C2416 C2415 1.398 . S
C2416 C2417 1.391 . S
C2417 H2405 0.950 . S
C2417 C2413 1.393 . S
C2417 C2416 1.391 . S
C2418 H2408 0.950 . S
C2418 C2419 1.386 . S
C2418 C2420 1.391 . S
C2419 C2418 1.386 . S
C2419 C2423 1.393 . S
C2420 H2409 0.950 1_565 S
C2420 C2418 1.391 . S
C2420 C2421 1.400 . S
C2421 C2415 1.491 1_565 S
C2421 C2420 1.400 . S
C2421 C2422 1.398 . S
C2422 H2410 0.950 . S
C2422 C2421 1.398 . S
C2422 C2423 1.391 . S
C2423 H2411 0.950 . S
C2423 C2419 1.393 . S
C2423 C2422 1.391 . S
H2424 C2432 0.950 . S
H2425 C2437 0.950 . S
H2426 C2434 0.950 . S
H2427 C2436 0.950 1_565 S
H2428 C2438 0.950 . S
H2429 C2440 0.950 . S
H2430 C2442 0.950 1_545 S
H2431 C2443 0.950 . S
C2432 H2424 0.950 . S
C2432 C2433 1.386 . S
C2432 C2434 1.391 . S
C2433 C2432 1.386 . S
C2433 C2437 1.393 . S
C2434 H2426 0.950 . S
C2434 C2432 1.391 . S
C2434 C2435 1.400 . S
C2435 C2434 1.400 . S
C2435 C2436 1.398 . S
C2435 C2441 1.491 1_546 S
C2436 H2427 0.950 1_545 S
C2436 C2435 1.398 . S
C2436 C2437 1.391 . S
C2437 H2425 0.950 . S
C2437 C2433 1.393 . S
C2437 C2436 1.391 . S
C2438 H2428 0.950 . S
C2438 C2439 1.386 . S
C2438 C2440 1.391 . S
C2439 C2438 1.386 . S
C2439 C2443 1.393 . S
C2440 H2429 0.950 . S
C2440 C2438 1.391 . S
C2440 C2441 1.400 . S
C2441 C2435 1.491 1_564 S
C2441 C2440 1.400 . S
C2441 C2442 1.398 . S
C2442 H2430 0.950 1_565 S
C2442 C2441 1.398 . S
C2442 C2443 1.391 . S
C2443 H2431 0.950 . S
C2443 C2439 1.393 . S
C2443 C2442 1.391 . S
H2444 C2452 0.950 . S
H2445 C2457 0.950 . S
H2446 C2454 0.950 1_554 S
H2447 C2456 0.950 . S
H2448 C2458 0.950 . S
H2449 C2460 0.950 1_556 S
H2450 C2462 0.950 . S
H2451 C2463 0.950 . S
C2452 H2444 0.950 . S
C2452 C2453 1.386 . S
C2452 C2454 1.391 . S
C2453 C2452 1.386 . S
C2453 C2457 1.393 . S
C2454 H2446 0.950 1_556 S
C2454 C2452 1.391 . S
C2454 C2455 1.400 . S
C2455 C2454 1.400 . S
C2455 C2456 1.398 1_655 S
C2455 C2461 1.491 1_656 S
C2456 H2447 0.950 . S
C2456 C2455 1.398 1_455 S
C2456 C2457 1.391 1_455 S
C2457 H2445 0.950 . S
C2457 C2453 1.393 . S
C2457 C2456 1.391 1_655 S
C2458 H2448 0.950 . S
C2458 C2459 1.386 . S
C2458 C2460 1.391 . S
C2459 C2458 1.386 . S
C2459 C2463 1.393 . S
C2460 H2449 0.950 1_554 S
C2460 C2458 1.391 . S
C2460 C2461 1.400 . S
C2461 C2455 1.491 1_454 S
C2461 C2460 1.400 . S
C2461 C2462 1.398 1_455 S
C2462 H2450 0.950 . S
C2462 C2461 1.398 1_655 S
C2462 C2463 1.391 1_655 S
C2463 H2451 0.950 . S
C2463 C2459 1.393 . S
C2463 C2462 1.391 1_455 S
H2464 C2472 0.950 . S
H2465 C2477 0.950 . S
H2466 C2474 0.950 1_554 S
H2467 C2476 0.950 . S
H2468 C2478 0.950 . S
H2469 C2480 0.950 1_556 S
H2470 C2482 0.950 . S
H2471 C2483 0.950 . S
C2472 H2464 0.950 . S
C2472 C2473 1.386 . S
C2472 C2474 1.391 . S
C2473 C2472 1.386 . S
C2473 C2477 1.393 . S
C2474 H2466 0.950 1_556 S
C2474 C2472 1.391 . S
C2474 C2475 1.400 . S
C2475 C2474 1.400 . S
C2475 C2476 1.398 . S
C2475 C2481 1.491 1_556 S
C2476 H2467 0.950 . S
C2476 C2475 1.398 . S
C2476 C2477 1.391 . S
C2477 H2465 0.950 . S
C2477 C2473 1.393 . S
C2477 C2476 1.391 . S
C2478 H2468 0.950 . S
C2478 C2479 1.386 . S
C2478 C2480 1.391 . S
C2479 C2478 1.386 . S
C2479 C2483 1.393 . S
C2480 H2469 0.950 1_554 S
C2480 C2478 1.391 . S
C2480 C2481 1.400 . S
C2481 C2475 1.491 1_554 S
C2481 C2480 1.400 . S
C2481 C2482 1.398 . S
C2482 H2470 0.950 . S
C2482 C2481 1.398 . S
C2482 C2483 1.391 . S
C2483 H2471 0.950 . S
C2483 C2479 1.393 . S
C2483 C2482 1.391 . S
H2484 C2492 0.950 . S
H2485 C2497 0.950 . S
H2486 C2494 0.950 . S
H2487 C2496 0.950 1_554 S
H2488 C2498 0.950 . S
H2489 C2500 0.950 . S
H2490 C2502 0.950 . S
H2491 C2503 0.966 . S
C2492 H2484 0.950 . S
C2492 C2493 1.386 1_545 S
C2492 C2494 1.391 . S
C2493 C2492 1.386 1_565 S
C2493 C2497 1.393 . S
C2494 H2486 0.950 . S
C2494 C2492 1.391 . S
C2494 C2495 1.400 . S
C2495 C2494 1.400 . S
C2495 C2496 1.398 . S
C2495 C2501 1.491 . S
C2496 H2487 0.950 1_556 S
C2496 C2495 1.398 . S
C2496 C2497 1.391 1_545 S
C2497 H2485 0.950 . S
C2497 C2493 1.393 . S
C2497 C2496 1.391 1_565 S
C2498 H2488 0.950 . S
C2498 C2499 1.386 . S
C2498 C2500 1.391 . S
C2499 C2498 1.386 . S
C2499 C2503 1.359 1_554 S
C2500 H2489 0.950 . S
C2500 C2498 1.391 . S
C2500 C2501 1.400 1_554 S
C2501 C2495 1.491 . S
C2501 C2500 1.400 1_556 S
C2501 C2502 1.398 . S
C2502 H2490 0.950 . S
C2502 C2501 1.398 . S
C2502 C2503 1.409 . S
C2503 H2491 0.966 . S
C2503 C2499 1.359 1_556 S
C2503 C2502 1.409 . S
H2504 C2512 0.950 . S
H2505 C2517 0.905 1_455 S
H2506 C2514 0.950 . S
H2507 C2516 0.950 . S
H2508 C2518 0.950 . S
H2509 C2520 0.950 . S
H2510 C2522 0.957 . S
H2511 C2523 0.950 . S
C2512 H2504 0.950 . S
C2512 C2513 1.386 1_655 S
C2512 C2514 1.391 . S
C2513 C2512 1.386 1_455 S
C2513 C2517 1.407 1_455 S
C2514 H2506 0.950 . S
C2514 C2512 1.391 . S
C2514 C2515 1.400 . S
C2515 C2514 1.400 . S
C2515 C2516 1.398 . S
C2515 C2521 1.491 . S
C2516 H2507 0.950 . S
C2516 C2515 1.398 . S
C2516 C2517 1.422 . S
C2517 H2505 0.905 1_655 S
C2517 C2513 1.407 1_655 S
C2517 C2516 1.422 . S
C2518 H2508 0.950 . S
C2518 C2519 1.386 . S
C2518 C2520 1.391 . S
C2519 C2518 1.386 . S
C2519 C2523 1.393 . S
C2520 H2509 0.950 . S
C2520 C2518 1.391 . S
C2520 C2521 1.400 1_554 S
C2521 C2515 1.491 . S
C2521 C2520 1.400 1_556 S
C2521 C2522 1.400 . S
C2522 H2510 0.957 . S
C2522 C2521 1.400 . S
C2522 C2523 1.382 1_556 S
C2523 H2511 0.950 . S
C2523 C2519 1.393 . S
C2523 C2522 1.382 1_554 S
H2524 C2532 0.950 . S
H2525 C2537 0.943 1_556 S
H2526 C2534 0.950 . S
H2527 C2536 0.950 . S
H2528 C2538 0.950 . S
H2529 C2540 0.950 . S
H2530 C2542 0.950 1_554 S
H2531 C2543 0.950 . S
C2532 H2524 0.950 . S
C2532 C2533 1.386 . S
C2532 C2534 1.391 . S
C2533 C2532 1.386 . S
C2533 C2537 1.409 . S
C2534 H2526 0.950 . S
C2534 C2532 1.391 . S
C2534 C2535 1.400 1_554 S
C2535 C2534 1.400 1_556 S
C2535 C2536 1.398 . S
C2535 C2541 1.491 . S
C2536 H2527 0.950 . S
C2536 C2535 1.398 . S
C2536 C2537 1.382 1_556 S
C2537 H2525 0.943 1_554 S
C2537 C2533 1.409 . S
C2537 C2536 1.382 1_554 S
C2538 H2528 0.950 . S
C2538 C2539 1.386 . S
C2538 C2540 1.391 . S
C2539 C2538 1.386 . S
C2539 C2543 1.393 . S
C2540 H2529 0.950 . S
C2540 C2538 1.391 . S
C2540 C2541 1.400 . S
C2541 C2535 1.491 . S
C2541 C2540 1.400 . S
C2541 C2542 1.398 . S
C2542 H2530 0.950 1_556 S
C2542 C2541 1.398 . S
C2542 C2543 1.391 . S
C2543 H2531 0.950 . S
C2543 C2539 1.393 . S
C2543 C2542 1.391 . S
H2544 C2552 0.950 1_655 S
H2545 C2557 0.950 . S
H2546 C2554 0.950 . S
H2547 C2556 0.950 . S
H2548 C2558 0.950 . S
H2549 C2560 0.950 . S
H2550 C2562 0.950 . S
H2551 C2563 0.950 . S
C2552 H2544 0.950 1_455 S
C2552 C2553 1.386 1_455 S
C2552 C2554 1.391 . S
C2553 C2552 1.386 1_655 S
C2553 C2557 1.393 1_655 S
C2554 H2546 0.950 . S
C2554 C2552 1.391 . S
C2554 C2555 1.400 . S
C2555 C2554 1.400 . S
C2555 C2556 1.398 . S
C2555 C2561 1.491 . S
C2556 H2547 0.950 . S
C2556 C2555 1.398 . S
C2556 C2557 1.391 . S
C2557 H2545 0.950 . S
C2557 C2553 1.393 1_455 S
C2557 C2556 1.391 . S
C2558 H2548 0.950 . S
C2558 C2559 1.386 . S
C2558 C2560 1.391 . S
C2559 C2558 1.386 . S
C2559 C2563 1.393 . S
C2560 H2549 0.950 . S
C2560 C2558 1.391 . S
C2560 C2561 1.400 . S
C2561 C2555 1.491 . S
C2561 C2560 1.400 . S
C2561 C2562 1.398 . S
C2562 H2550 0.950 . S
C2562 C2561 1.398 . S
C2562 C2563 1.391 . S
C2563 H2551 0.950 . S
C2563 C2559 1.393 . S
C2563 C2562 1.391 . S
H2564 C2572 0.950 . S
H2565 C2577 0.950 . S
H2566 C2574 0.950 . S
H2567 C2576 0.950 . S
H2568 C2578 0.950 . S
H2569 C2580 0.950 . S
H2570 C2582 0.950 . S
H2571 C2583 0.950 . S
C2572 H2564 0.950 . S
C2572 C2573 1.386 . S
C2572 C2574 1.391 . S
C2573 C2572 1.386 . S
C2573 C2577 1.393 . S
C2574 H2566 0.950 . S
C2574 C2572 1.391 . S
C2574 C2575 1.400 . S
C2575 C2574 1.400 . S
C2575 C2576 1.398 . S
C2575 C2581 1.491 . S
C2576 H2567 0.950 . S
C2576 C2575 1.398 . S
C2576 C2577 1.391 . S
C2577 H2565 0.950 . S
C2577 C2573 1.393 . S
C2577 C2576 1.391 . S
C2578 H2568 0.950 . S
C2578 C2579 1.386 . S
C2578 C2580 1.391 . S
C2579 C2578 1.386 . S
C2579 C2583 1.393 . S
C2580 H2569 0.950 . S
C2580 C2578 1.391 . S
C2580 C2581 1.400 . S
C2581 C2575 1.491 . S
C2581 C2580 1.400 . S
C2581 C2582 1.398 . S
C2582 H2570 0.950 . S
C2582 C2581 1.398 . S
C2582 C2583 1.391 . S
C2583 H2571 0.950 . S
C2583 C2579 1.393 . S
C2583 C2582 1.391 . S
H2584 C2592 0.950 . S
H2585 C2597 0.950 . S
H2586 C2594 0.950 . S
H2587 C2596 0.950 . S
H2588 C2598 0.950 . S
H2589 C2600 0.950 . S
H2590 C2602 0.950 . S
H2591 C2603 0.950 . S
C2592 H2584 0.950 . S
C2592 C2593 1.386 1_565 S
C2592 C2594 1.391 . S
C2593 C2592 1.386 1_545 S
C2593 C2597 1.393 . S
C2594 H2586 0.950 . S
C2594 C2592 1.391 . S
C2594 C2595 1.400 . S
C2595 C2594 1.400 . S
C2595 C2596 1.398 . S
C2595 C2601 1.491 . S
C2596 H2587 0.950 . S
C2596 C2595 1.398 . S
C2596 C2597 1.391 1_565 S
C2597 H2585 0.950 . S
C2597 C2593 1.393 . S
C2597 C2596 1.391 1_545 S
C2598 H2588 0.950 . S
C2598 C2599 1.386 . S
C2598 C2600 1.391 . S
C2599 C2598 1.386 . S
C2599 C2603 1.393 . S
C2600 H2589 0.950 . S
C2600 C2598 1.391 . S
C2600 C2601 1.400 . S
C2601 C2595 1.491 . S
C2601 C2600 1.400 . S
C2601 C2602 1.398 . S
C2602 H2590 0.950 . S
C2602 C2601 1.398 . S
C2602 C2603 1.391 . S
C2603 H2591 0.950 . S
C2603 C2599 1.393 . S
C2603 C2602 1.391 . S
H2604 C2612 0.950 . S
H2605 C2617 0.953 1_554 S
H2606 C2614 0.950 . S
H2607 C2616 0.950 . S
H2608 C2618 0.950 . S
H2609 C2620 0.950 . S
H2610 C2622 0.950 1_556 S
H2611 C2623 0.950 . S
C2612 H2604 0.950 . S
C2612 C2613 1.386 . S
C2612 C2614 1.391 . S
C2613 C2612 1.386 . S
C2613 C2617 1.387 . S
C2614 H2606 0.950 . S
C2614 C2612 1.391 . S
C2614 C2615 1.400 1_556 S
C2615 C2614 1.400 1_554 S
C2615 C2616 1.398 . S
C2615 C2621 1.491 . S
C2616 H2607 0.950 . S
C2616 C2615 1.398 . S
C2616 C2617 1.394 1_554 S
C2617 H2605 0.953 1_556 S
C2617 C2613 1.387 . S
C2617 C2616 1.394 1_556 S
C2618 H2608 0.950 . S
C2618 C2619 1.386 1_565 S
C2618 C2620 1.391 . S
C2619 C2618 1.386 1_545 S
C2619 C2623 1.393 . S
C2620 H2609 0.950 . S
C2620 C2618 1.391 . S
C2620 C2621 1.400 . S
C2621 C2615 1.491 . S
C2621 C2620 1.400 . S
C2621 C2622 1.398 . S
C2622 H2610 0.950 1_554 S
C2622 C2621 1.398 . S
C2622 C2623 1.391 1_565 S
C2623 H2611 0.950 . S
C2623 C2619 1.393 . S
C2623 C2622 1.391 1_545 S
H2624 C2632 0.950 . S
H2625 C2637 0.950 . S
H2626 C2634 0.950 1_554 S
H2627 C2636 0.936 1_554 S
H2628 C2638 0.950 1_655 S
H2629 C2640 0.950 . S
H2630 C2642 0.950 . S
H2631 C2643 0.950 . S
C2632 H2624 0.950 . S
C2632 C2633 1.386 . S
C2632 C2634 1.391 . S
C2633 C2632 1.386 . S
C2633 C2637 1.393 . S
C2634 H2626 0.950 1_556 S
C2634 C2632 1.391 . S
C2634 C2635 1.400 1_556 S
C2635 C2634 1.400 1_554 S
C2635 C2636 1.398 1_554 S
C2635 C2641 1.491 . S
C2636 H2627 0.936 1_556 S
C2636 C2635 1.398 1_556 S
C2636 C2637 1.391 . S
C2637 H2625 0.950 . S
C2637 C2633 1.393 . S
C2637 C2636 1.391 . S
C2638 H2628 0.950 1_455 S
C2638 C2639 1.386 1_455 S
C2638 C2640 1.391 . S
C2639 C2638 1.386 1_655 S
C2639 C2643 1.393 1_655 S
C2640 H2629 0.950 . S
C2640 C2638 1.391 . S
C2640 C2641 1.400 . S
C2641 C2635 1.491 . S
C2641 C2640 1.400 . S
C2641 C2642 1.398 . S
C2642 H2630 0.950 . S
C2642 C2641 1.398 . S
C2642 C2643 1.391 . S
C2643 H2631 0.950 . S
C2643 C2639 1.393 1_455 S
C2643 C2642 1.391 . S
H2644 C2652 0.950 . S
H2645 C2657 0.950 . S
H2646 C2654 0.950 . S
H2647 C2656 0.950 . S
H2648 C2658 0.950 . S
H2649 C2660 0.950 . S
H2650 C2662 0.950 . S
H2651 C2663 0.950 . S
C2652 H2644 0.950 . S
C2652 C2653 1.386 . S
C2652 C2654 1.391 . S
C2653 C2652 1.386 . S
C2653 C2657 1.393 . S
C2654 H2646 0.950 . S
C2654 C2652 1.391 . S
C2654 C2655 1.400 1_556 S
C2655 C2654 1.400 1_554 S
C2655 C2656 1.398 . S
C2655 C2661 1.491 . S
C2656 H2647 0.950 . S
C2656 C2655 1.398 . S
C2656 C2657 1.391 1_554 S
C2657 H2645 0.950 . S
C2657 C2653 1.393 . S
C2657 C2656 1.391 1_556 S
C2658 H2648 0.950 . S
C2658 C2659 1.386 . S
C2658 C2660 1.391 . S
C2659 C2658 1.386 . S
C2659 C2663 1.393 . S
C2660 H2649 0.950 . S
C2660 C2658 1.391 . S
C2660 C2661 1.400 . S
C2661 C2655 1.491 . S
C2661 C2660 1.400 . S
C2661 C2662 1.398 . S
C2662 H2650 0.950 . S
C2662 C2661 1.398 . S
C2662 C2663 1.391 . S
C2663 H2651 0.950 . S
C2663 C2659 1.393 . S
C2663 C2662 1.391 . S
H2664 C2672 0.950 . S
H2665 C2677 0.950 . S
H2666 C2674 0.950 . S
H2667 C2676 0.950 . S
H2668 C2678 0.950 1_455 S
H2669 C2680 0.950 . S
H2670 C2682 0.950 . S
H2671 C2683 0.950 . S
C2672 H2664 0.950 . S
C2672 C2673 1.386 . S
C2672 C2674 1.391 . S
C2673 C2672 1.386 . S
C2673 C2677 1.393 . S
C2674 H2666 0.950 . S
C2674 C2672 1.391 . S
C2674 C2675 1.400 . S
C2675 C2674 1.400 . S
C2675 C2676 1.398 . S
C2675 C2681 1.491 . S
C2676 H2667 0.950 . S
C2676 C2675 1.398 . S
C2676 C2677 1.391 . S
C2677 H2665 0.950 . S
C2677 C2673 1.393 . S
C2677 C2676 1.391 . S
C2678 H2668 0.950 1_655 S
C2678 C2679 1.386 1_655 S
C2678 C2680 1.391 . S
C2679 C2678 1.386 1_455 S
C2679 C2683 1.393 1_455 S
C2680 H2669 0.950 . S
C2680 C2678 1.391 . S
C2680 C2681 1.400 . S
C2681 C2675 1.491 . S
C2681 C2680 1.400 . S
C2681 C2682 1.398 . S
C2682 H2670 0.950 . S
C2682 C2681 1.398 . S
C2682 C2683 1.391 . S
C2683 H2671 0.950 . S
C2683 C2679 1.393 1_655 S
C2683 C2682 1.391 . S
H2684 C2692 0.950 . S
H2685 C2697 0.950 . S
H2686 C2694 0.950 . S
H2687 C2696 0.950 . S
H2688 C2698 0.950 . S
H2689 C2700 0.950 . S
H2690 C2702 0.950 . S
H2691 C2703 0.950 . S
C2692 H2684 0.950 . S
C2692 C2693 1.386 . S
C2692 C2694 1.391 . S
C2693 C2692 1.386 . S
C2693 C2697 1.393 . S
C2694 H2686 0.950 . S
C2694 C2692 1.391 . S
C2694 C2695 1.400 . S
C2695 C2694 1.400 . S
C2695 C2696 1.398 . S
C2695 C2701 1.491 . S
C2696 H2687 0.950 . S
C2696 C2695 1.398 . S
C2696 C2697 1.391 . S
C2697 H2685 0.950 . S
C2697 C2693 1.393 . S
C2697 C2696 1.391 . S
C2698 H2688 0.950 . S
C2698 C2699 1.386 . S
C2698 C2700 1.391 . S
C2699 C2698 1.386 . S
C2699 C2703 1.393 . S
C2700 H2689 0.950 . S
C2700 C2698 1.391 . S
C2700 C2701 1.400 . S
C2701 C2695 1.491 . S
C2701 C2700 1.400 . S
C2701 C2702 1.398 . S
C2702 H2690 0.950 . S
C2702 C2701 1.398 . S
C2702 C2703 1.391 . S
C2703 H2691 0.950 . S
C2703 C2699 1.393 . S
C2703 C2702 1.391 . S
H2704 C2712 0.950 1_565 S
H2705 C2717 0.951 1_565 S
H2706 C2714 0.950 . S
H2707 C2716 0.950 . S
H2708 C2718 0.950 . S
H2709 C2720 0.950 . S
H2710 C2722 0.950 . S
H2711 C2723 0.950 . S
C2712 H2704 0.950 1_545 S
C2712 C2713 1.386 1_545 S
C2712 C2714 1.391 . S
C2713 C2712 1.386 1_565 S
C2713 C2717 1.393 1_565 S
C2714 H2706 0.950 . S
C2714 C2712 1.391 . S
C2714 C2715 1.400 . S
C2715 C2714 1.400 . S
C2715 C2716 1.398 . S
C2715 C2721 1.491 . S
C2716 H2707 0.950 . S
C2716 C2715 1.398 . S
C2716 C2717 1.391 . S
C2717 H2705 0.951 1_545 S
C2717 C2713 1.393 1_545 S
C2717 C2716 1.391 . S
C2718 H2708 0.950 . S
C2718 C2719 1.386 . S
C2718 C2720 1.391 . S
C2719 C2718 1.386 . S
C2719 C2723 1.393 . S
C2720 H2709 0.950 . S
C2720 C2718 1.391 . S
C2720 C2721 1.400 . S
C2721 C2715 1.491 . S
C2721 C2720 1.400 . S
C2721 C2722 1.398 . S
C2722 H2710 0.950 . S
C2722 C2721 1.398 . S
C2722 C2723 1.391 . S
C2723 H2711 0.950 . S
C2723 C2719 1.393 . S
C2723 C2722 1.391 . S
H2724 C2732 0.950 . S
H2725 C2737 0.950 . S
H2726 C2734 0.950 . S
H2727 C2736 0.950 . S
H2728 C2738 0.950 . S
H2729 C2740 0.950 . S
H2730 C2742 0.950 . S
H2731 C2743 0.950 . S
C2732 H2724 0.950 . S
C2732 C2733 1.386 . S
C2732 C2734 1.391 . S
C2733 C2732 1.386 . S
C2733 C2737 1.393 . S
C2734 H2726 0.950 . S
C2734 C2732 1.391 . S
C2734 C2735 1.400 . S
C2735 C2734 1.400 . S
C2735 C2736 1.398 . S
C2735 C2741 1.491 . S
C2736 H2727 0.950 . S
C2736 C2735 1.398 . S
C2736 C2737 1.391 . S
C2737 H2725 0.950 . S
C2737 C2733 1.393 . S
C2737 C2736 1.391 . S
C2738 H2728 0.950 . S
C2738 C2739 1.386 . S
C2738 C2740 1.391 . S
C2739 C2738 1.386 . S
C2739 C2743 1.393 . S
C2740 H2729 0.950 . S
C2740 C2738 1.391 . S
C2740 C2741 1.400 . S
C2741 C2735 1.491 . S
C2741 C2740 1.400 . S
C2741 C2742 1.398 . S
C2742 H2730 0.950 . S
C2742 C2741 1.398 . S
C2742 C2743 1.391 . S
C2743 H2731 0.950 . S
C2743 C2739 1.393 . S
C2743 C2742 1.391 . S
H2744 C2752 0.950 . S
H2745 C2757 0.950 . S
H2746 C2754 0.950 . S
H2747 C2756 0.950 . S
H2748 C2758 0.950 . S
H2749 C2760 0.950 . S
H2750 C2762 0.950 . S
H2751 C2763 0.950 . S
C2752 H2744 0.950 . S
C2752 C2753 1.386 . S
C2752 C2754 1.391 . S
C2753 C2752 1.386 . S
C2753 C2757 1.393 . S
C2754 H2746 0.950 . S
C2754 C2752 1.391 . S
C2754 C2755 1.400 . S
C2755 C2754 1.400 . S
C2755 C2756 1.398 . S
C2755 C2761 1.491 . S
C2756 H2747 0.950 . S
C2756 C2755 1.398 . S
C2756 C2757 1.391 . S
C2757 H2745 0.950 . S
C2757 C2753 1.393 . S
C2757 C2756 1.391 . S
C2758 H2748 0.950 . S
C2758 C2759 1.386 . S
C2758 C2760 1.391 . S
C2759 C2758 1.386 . S
C2759 C2763 1.393 . S
C2760 H2749 0.950 . S
C2760 C2758 1.391 . S
C2760 C2761 1.400 . S
C2761 C2755 1.491 . S
C2761 C2760 1.400 . S
C2761 C2762 1.398 . S
C2762 H2750 0.950 . S
C2762 C2761 1.398 . S
C2762 C2763 1.391 . S
C2763 H2751 0.950 . S
C2763 C2759 1.393 . S
C2763 C2762 1.391 . S
H2764 C2772 0.950 . S
H2765 C2777 0.950 . S
H2766 C2774 0.950 . S
H2767 C2776 0.950 . S
H2768 C2778 0.950 . S
H2769 C2780 0.950 . S
H2770 C2782 0.950 . S
H2771 C2783 0.950 . S
C2772 H2764 0.950 . S
C2772 C2773 1.386 . S
C2772 C2774 1.391 . S
C2773 C2772 1.386 . S
C2773 C2777 1.393 . S
C2774 H2766 0.950 . S
C2774 C2772 1.391 . S
C2774 C2775 1.400 . S
C2775 C2774 1.400 . S
C2775 C2776 1.398 . S
C2775 C2781 1.491 . S
C2776 H2767 0.950 . S
C2776 C2775 1.398 . S
C2776 C2777 1.391 . S
C2777 H2765 0.950 . S
C2777 C2773 1.393 . S
C2777 C2776 1.391 . S
C2778 H2768 0.950 . S
C2778 C2779 1.386 . S
C2778 C2780 1.391 . S
C2779 C2778 1.386 . S
C2779 C2783 1.393 . S
C2780 H2769 0.950 . S
C2780 C2778 1.391 . S
C2780 C2781 1.400 . S
C2781 C2775 1.491 . S
C2781 C2780 1.400 . S
C2781 C2782 1.398 . S
C2782 H2770 0.950 . S
C2782 C2781 1.398 . S
C2782 C2783 1.391 . S
C2783 H2771 0.950 . S
C2783 C2779 1.393 . S
C2783 C2782 1.391 . S
H2784 C2792 0.950 . S
H2785 C2797 0.950 . S
H2786 C2794 0.950 . S
H2787 C2796 0.950 . S
H2788 C2798 0.950 . S
H2789 C2800 0.950 . S
H2790 C2802 0.950 . S
H2791 C2803 0.950 . S
C2792 H2784 0.950 . S
C2792 C2793 1.386 . S
C2792 C2794 1.391 . S
C2793 C2792 1.386 . S
C2793 C2797 1.393 . S
C2794 H2786 0.950 . S
C2794 C2792 1.391 . S
C2794 C2795 1.400 . S
C2795 C2794 1.400 . S
C2795 C2796 1.398 . S
C2795 C2801 1.491 . S
C2796 H2787 0.950 . S
C2796 C2795 1.398 . S
C2796 C2797 1.391 . S
C2797 H2785 0.950 . S
C2797 C2793 1.393 . S
C2797 C2796 1.391 . S
C2798 H2788 0.950 . S
C2798 C2799 1.386 . S
C2798 C2800 1.391 . S
C2799 C2798 1.386 . S
C2799 C2803 1.393 . S
C2800 H2789 0.950 . S
C2800 C2798 1.391 . S
C2800 C2801 1.400 . S
C2801 C2795 1.491 . S
C2801 C2800 1.400 . S
C2801 C2802 1.398 . S
C2802 H2790 0.950 . S
C2802 C2801 1.398 . S
C2802 C2803 1.391 . S
C2803 H2791 0.950 . S
C2803 C2799 1.393 . S
C2803 C2802 1.391 . S
H2804 C2812 0.950 . S
H2805 C2817 0.950 . S
H2806 C2814 0.950 . S
H2807 C2816 0.950 . S
H2808 C2818 0.950 . S
H2809 C2820 0.950 . S
H2810 C2822 0.950 . S
H2811 C2823 0.950 . S
C2812 H2804 0.950 . S
C2812 C2813 1.386 . S
C2812 C2814 1.391 . S
C2813 C2812 1.386 . S
C2813 C2817 1.393 . S
C2814 H2806 0.950 . S
C2814 C2812 1.391 . S
C2814 C2815 1.400 . S
C2815 C2814 1.400 . S
C2815 C2816 1.398 . S
C2815 C2821 1.491 . S
C2816 H2807 0.950 . S
C2816 C2815 1.398 . S
C2816 C2817 1.391 . S
C2817 H2805 0.950 . S
C2817 C2813 1.393 . S
C2817 C2816 1.391 . S
C2818 H2808 0.950 . S
C2818 C2819 1.386 . S
C2818 C2820 1.391 . S
C2819 C2818 1.386 . S
C2819 C2823 1.393 . S
C2820 H2809 0.950 . S
C2820 C2818 1.391 . S
C2820 C2821 1.400 . S
C2821 C2815 1.491 . S
C2821 C2820 1.400 . S
C2821 C2822 1.398 . S
C2822 H2810 0.950 . S
C2822 C2821 1.398 . S
C2822 C2823 1.391 . S
C2823 H2811 0.950 . S
C2823 C2819 1.393 . S
C2823 C2822 1.391 . S
H2824 C2832 0.950 . S
H2825 C2837 0.950 . S
H2826 C2834 0.950 . S
H2827 C2836 0.950 . S
H2828 C2838 0.950 . S
H2829 C2840 0.950 . S
H2830 C2842 0.950 . S
H2831 C2843 0.950 . S
C2832 H2824 0.950 . S
C2832 C2833 1.386 . S
C2832 C2834 1.391 . S
C2833 C2832 1.386 . S
C2833 C2837 1.393 . S
C2834 H2826 0.950 . S
C2834 C2832 1.391 . S
C2834 C2835 1.400 . S
C2835 C2834 1.400 . S
C2835 C2836 1.398 . S
C2835 C2841 1.491 . S
C2836 H2827 0.950 . S
C2836 C2835 1.398 . S
C2836 C2837 1.391 . S
C2837 H2825 0.950 . S
C2837 C2833 1.393 . S
C2837 C2836 1.391 . S
C2838 H2828 0.950 . S
C2838 C2839 1.386 . S
C2838 C2840 1.391 . S
C2839 C2838 1.386 . S
C2839 C2843 1.393 . S
C2840 H2829 0.950 . S
C2840 C2838 1.391 . S
C2840 C2841 1.400 . S
C2841 C2835 1.491 . S
C2841 C2840 1.400 . S
C2841 C2842 1.398 . S
C2842 H2830 0.950 . S
C2842 C2841 1.398 . S
C2842 C2843 1.391 . S
C2843 H2831 0.950 . S
C2843 C2839 1.393 . S
C2843 C2842 1.391 . S
H2844 C2852 0.950 . S
H2845 C2857 0.950 . S
H2846 C2854 0.950 . S
H2847 C2856 0.950 . S
H2848 C2858 0.950 . S
H2849 C2860 0.950 . S
H2850 C2862 0.950 . S
H2851 C2863 0.950 . S
C2852 H2844 0.950 . S
C2852 C2853 1.386 . S
C2852 C2854 1.391 . S
C2853 C2852 1.386 . S
C2853 C2857 1.393 . S
C2854 H2846 0.950 . S
C2854 C2852 1.391 . S
C2854 C2855 1.400 . S
C2855 C2854 1.400 . S
C2855 C2856 1.398 . S
C2855 C2861 1.491 . S
C2856 H2847 0.950 . S
C2856 C2855 1.398 . S
C2856 C2857 1.391 . S
C2857 H2845 0.950 . S
C2857 C2853 1.393 . S
C2857 C2856 1.391 . S
C2858 H2848 0.950 . S
C2858 C2859 1.386 . S
C2858 C2860 1.391 . S
C2859 C2858 1.386 . S
C2859 C2863 1.393 . S
C2860 H2849 0.950 . S
C2860 C2858 1.391 . S
C2860 C2861 1.400 . S
C2861 C2855 1.491 . S
C2861 C2860 1.400 . S
C2861 C2862 1.398 . S
C2862 H2850 0.950 . S
C2862 C2861 1.398 . S
C2862 C2863 1.391 . S
C2863 H2851 0.950 . S
C2863 C2859 1.393 . S
C2863 C2862 1.391 . S
H2864 C2872 0.950 . S
H2865 C2877 0.950 . S
H2866 C2874 0.950 . S
H2867 C2876 0.950 . S
H2868 C2878 0.950 . S
H2869 C2880 0.950 . S
H2870 C2882 0.950 . S
H2871 C2883 0.950 . S
C2872 H2864 0.950 . S
C2872 C2873 1.386 . S
C2872 C2874 1.391 . S
C2873 C2872 1.386 . S
C2873 C2877 1.393 . S
C2874 H2866 0.950 . S
C2874 C2872 1.391 . S
C2874 C2875 1.400 . S
C2875 C2874 1.400 . S
C2875 C2876 1.398 . S
C2875 C2881 1.491 . S
C2876 H2867 0.950 . S
C2876 C2875 1.398 . S
C2876 C2877 1.391 . S
C2877 H2865 0.950 . S
C2877 C2873 1.393 . S
C2877 C2876 1.391 . S
C2878 H2868 0.950 . S
C2878 C2879 1.386 . S
C2878 C2880 1.391 . S
C2879 C2878 1.386 . S
C2879 C2883 1.393 . S
C2880 H2869 0.950 . S
C2880 C2878 1.391 . S
C2880 C2881 1.400 . S
C2881 C2875 1.491 . S
C2881 C2880 1.400 . S
C2881 C2882 1.398 . S
C2882 H2870 0.950 . S
C2882 C2881 1.398 . S
C2882 C2883 1.391 . S
C2883 H2871 0.950 . S
C2883 C2879 1.393 . S
C2883 C2882 1.391 . S
H2884 C2892 0.950 . S
H2885 C2897 0.950 . S
H2886 C2894 0.950 . S
H2887 C2896 0.950 . S
H2888 C2898 0.950 . S
H2889 C2900 0.950 . S
H2890 C2902 0.950 . S
H2891 C2903 0.950 . S
C2892 H2884 0.950 . S
C2892 C2893 1.386 . S
C2892 C2894 1.391 . S
C2893 C2892 1.386 . S
C2893 C2897 1.393 . S
C2894 H2886 0.950 . S
C2894 C2892 1.391 . S
C2894 C2895 1.400 . S
C2895 C2894 1.400 . S
C2895 C2896 1.398 . S
C2895 C2901 1.491 . S
C2896 H2887 0.950 . S
C2896 C2895 1.398 . S
C2896 C2897 1.391 . S
C2897 H2885 0.950 . S
C2897 C2893 1.393 . S
C2897 C2896 1.391 . S
C2898 H2888 0.950 . S
C2898 C2899 1.386 . S
C2898 C2900 1.391 . S
C2899 C2898 1.386 . S
C2899 C2903 1.393 . S
C2900 H2889 0.950 . S
C2900 C2898 1.391 . S
C2900 C2901 1.400 . S
C2901 C2895 1.491 . S
C2901 C2900 1.400 . S
C2901 C2902 1.398 . S
C2902 H2890 0.950 . S
C2902 C2901 1.398 . S
C2902 C2903 1.391 . S
C2903 H2891 0.950 . S
C2903 C2899 1.393 . S
C2903 C2902 1.391 . S
H2904 C2912 0.950 . S
H2905 C2917 0.950 . S
H2906 C2914 0.950 . S
H2907 C2916 0.950 . S
H2908 C2918 0.950 . S
H2909 C2920 0.950 . S
H2910 C2922 0.950 . S
H2911 C2923 0.950 . S
C2912 H2904 0.950 . S
C2912 C2913 1.386 . S
C2912 C2914 1.391 . S
C2913 C2912 1.386 . S
C2913 C2917 1.393 . S
C2914 H2906 0.950 . S
C2914 C2912 1.391 . S
C2914 C2915 1.400 . S
C2915 C2914 1.400 . S
C2915 C2916 1.398 . S
C2915 C2921 1.491 . S
C2916 H2907 0.950 . S
C2916 C2915 1.398 . S
C2916 C2917 1.391 . S
C2917 H2905 0.950 . S
C2917 C2913 1.393 . S
C2917 C2916 1.391 . S
C2918 H2908 0.950 . S
C2918 C2919 1.386 . S
C2918 C2920 1.391 . S
C2919 C2918 1.386 . S
C2919 C2923 1.393 . S
C2920 H2909 0.950 . S
C2920 C2918 1.391 . S
C2920 C2921 1.400 . S
C2921 C2915 1.491 . S
C2921 C2920 1.400 . S
C2921 C2922 1.398 . S
C2922 H2910 0.950 . S
C2922 C2921 1.398 . S
C2922 C2923 1.391 . S
C2923 H2911 0.950 . S
C2923 C2919 1.393 . S
C2923 C2922 1.391 . S
H2924 C2932 0.950 . S
H2925 C2937 0.950 . S
H2926 C2934 0.950 . S
H2927 C2936 0.950 . S
H2928 C2938 0.950 . S
H2929 C2940 0.950 . S
H2930 C2942 0.950 . S
H2931 C2943 0.950 . S
C2932 H2924 0.950 . S
C2932 C2933 1.386 . S
C2932 C2934 1.391 . S
C2933 C2932 1.386 . S
C2933 C2937 1.393 . S
C2934 H2926 0.950 . S
C2934 C2932 1.391 . S
C2934 C2935 1.400 . S
C2935 C2934 1.400 . S
C2935 C2936 1.398 . S
C2935 C2941 1.491 . S
C2936 H2927 0.950 . S
C2936 C2935 1.398 . S
C2936 C2937 1.391 . S
C2937 H2925 0.950 . S
C2937 C2933 1.393 . S
C2937 C2936 1.391 . S
C2938 H2928 0.950 . S
C2938 C2939 1.386 . S
C2938 C2940 1.391 . S
C2939 C2938 1.386 . S
C2939 C2943 1.393 . S
C2940 H2929 0.950 . S
C2940 C2938 1.391 . S
C2940 C2941 1.400 . S
C2941 C2935 1.491 . S
C2941 C2940 1.400 . S
C2941 C2942 1.398 . S
C2942 H2930 0.950 . S
C2942 C2941 1.398 . S
C2942 C2943 1.391 . S
C2943 H2931 0.950 . S
C2943 C2939 1.393 . S
C2943 C2942 1.391 . S
H2944 C2952 0.950 . S
H2945 C2957 0.950 . S
H2946 C2954 0.950 . S
H2947 C2956 0.950 . S
H2948 C2958 0.950 . S
H2949 C2960 0.950 . S
H2950 C2962 0.950 . S
H2951 C2963 0.950 . S
C2952 H2944 0.950 . S
C2952 C2953 1.386 . S
C2952 C2954 1.391 . S
C2953 C2952 1.386 . S
C2953 C2957 1.393 . S
C2954 H2946 0.950 . S
C2954 C2952 1.391 . S
C2954 C2955 1.400 . S
C2955 C2954 1.400 . S
C2955 C2956 1.398 . S
C2955 C2961 1.491 . S
C2956 H2947 0.950 . S
C2956 C2955 1.398 . S
C2956 C2957 1.391 . S
C2957 H2945 0.950 . S
C2957 C2953 1.393 . S
C2957 C2956 1.391 . S
C2958 H2948 0.950 . S
C2958 C2959 1.386 . S
C2958 C2960 1.391 . S
C2959 C2958 1.386 . S
C2959 C2963 1.393 . S
C2960 H2949 0.950 . S
C2960 C2958 1.391 . S
C2960 C2961 1.400 . S
C2961 C2955 1.491 . S
C2961 C2960 1.400 . S
C2961 C2962 1.398 . S
C2962 H2950 0.950 . S
C2962 C2961 1.398 . S
C2962 C2963 1.391 . S
C2963 H2951 0.950 . S
C2963 C2959 1.393 . S
C2963 C2962 1.391 . S
H2964 C2972 0.950 . S
H2965 C2977 0.950 . S
H2966 C2974 0.950 . S
H2967 C2976 0.950 . S
H2968 C2978 0.950 . S
H2969 C2980 0.950 . S
H2970 C2982 0.950 . S
H2971 C2983 0.950 . S
C2972 H2964 0.950 . S
C2972 C2973 1.386 . S
C2972 C2974 1.391 . S
C2973 C2972 1.386 . S
C2973 C2977 1.393 . S
C2974 H2966 0.950 . S
C2974 C2972 1.391 . S
C2974 C2975 1.400 . S
C2975 C2974 1.400 . S
C2975 C2976 1.398 . S
C2975 C2981 1.491 . S
C2976 H2967 0.950 . S
C2976 C2975 1.398 . S
C2976 C2977 1.391 . S
C2977 H2965 0.950 . S
C2977 C2973 1.393 . S
C2977 C2976 1.391 . S
C2978 H2968 0.950 . S
C2978 C2979 1.386 . S
C2978 C2980 1.391 . S
C2979 C2978 1.386 . S
C2979 C2983 1.393 . S
C2980 H2969 0.950 . S
C2980 C2978 1.391 . S
C2980 C2981 1.400 . S
C2981 C2975 1.491 . S
C2981 C2980 1.400 . S
C2981 C2982 1.398 . S
C2982 H2970 0.950 . S
C2982 C2981 1.398 . S
C2982 C2983 1.391 . S
C2983 H2971 0.950 . S
C2983 C2979 1.393 . S
C2983 C2982 1.391 . S
H2984 C2992 0.950 . S
H2985 C2997 0.950 . S
H2986 C2994 0.950 . S
H2987 C2996 0.950 . S
H2988 C2998 0.950 . S
H2989 C3000 0.950 . S
H2990 C3002 0.950 . S
H2991 C3003 0.950 . S
C2992 H2984 0.950 . S
C2992 C2993 1.386 . S
C2992 C2994 1.391 . S
C2993 C2992 1.386 . S
C2993 C2997 1.393 . S
C2994 H2986 0.950 . S
C2994 C2992 1.391 . S
C2994 C2995 1.400 . S
C2995 C2994 1.400 . S
C2995 C2996 1.398 . S
C2995 C3001 1.491 . S
C2996 H2987 0.950 . S
C2996 C2995 1.398 . S
C2996 C2997 1.391 . S
C2997 H2985 0.950 . S
C2997 C2993 1.393 . S
C2997 C2996 1.391 . S
C2998 H2988 0.950 . S
C2998 C2999 1.386 . S
C2998 C3000 1.391 . S
C2999 C2998 1.386 . S
C2999 C3003 1.393 . S
C3000 H2989 0.950 . S
C3000 C2998 1.391 . S
C3000 C3001 1.400 . S
C3001 C2995 1.491 . S
C3001 C3000 1.400 . S
C3001 C3002 1.398 . S
C3002 H2990 0.950 . S
C3002 C3001 1.398 . S
C3002 C3003 1.391 . S
C3003 H2991 0.950 . S
C3003 C2999 1.393 . S
C3003 C3002 1.391 . S
H3004 C3012 0.950 . S
H3005 C3017 0.950 . S
H3006 C3014 0.950 . S
H3007 C3016 0.950 . S
H3008 C3018 0.950 . S
H3009 C3020 0.950 . S
H3010 C3022 0.950 . S
H3011 C3023 0.950 . S
C3012 H3004 0.950 . S
C3012 C3013 1.386 . S
C3012 C3014 1.391 . S
C3013 C3012 1.386 . S
C3013 C3017 1.393 . S
C3014 H3006 0.950 . S
C3014 C3012 1.391 . S
C3014 C3015 1.400 . S
C3015 C3014 1.400 . S
C3015 C3016 1.398 . S
C3015 C3021 1.491 . S
C3016 H3007 0.950 . S
C3016 C3015 1.398 . S
C3016 C3017 1.391 . S
C3017 H3005 0.950 . S
C3017 C3013 1.393 . S
C3017 C3016 1.391 . S
C3018 H3008 0.950 . S
C3018 C3019 1.386 . S
C3018 C3020 1.391 . S
C3019 C3018 1.386 . S
C3019 C3023 1.393 . S
C3020 H3009 0.950 . S
C3020 C3018 1.391 . S
C3020 C3021 1.400 . S
C3021 C3015 1.491 . S
C3021 C3020 1.400 . S
C3021 C3022 1.398 . S
C3022 H3010 0.950 . S
C3022 C3021 1.398 . S
C3022 C3023 1.391 . S
C3023 H3011 0.950 . S
C3023 C3019 1.393 . S
C3023 C3022 1.391 . S
H3024 C3032 0.950 . S
H3025 C3037 0.950 . S
H3026 C3034 0.950 . S
H3027 C3036 0.950 . S
H3028 C3038 0.950 . S
H3029 C3040 0.950 . S
H3030 C3042 0.950 . S
H3031 C3043 0.950 . S
C3032 H3024 0.950 . S
C3032 C3033 1.386 . S
C3032 C3034 1.391 . S
C3033 C3032 1.386 . S
C3033 C3037 1.393 . S
C3034 H3026 0.950 . S
C3034 C3032 1.391 . S
C3034 C3035 1.400 . S
C3035 C3034 1.400 . S
C3035 C3036 1.398 . S
C3035 C3041 1.491 . S
C3036 H3027 0.950 . S
C3036 C3035 1.398 . S
C3036 C3037 1.391 . S
C3037 H3025 0.950 . S
C3037 C3033 1.393 . S
C3037 C3036 1.391 . S
C3038 H3028 0.950 . S
C3038 C3039 1.386 . S
C3038 C3040 1.391 . S
C3039 C3038 1.386 . S
C3039 C3043 1.393 . S
C3040 H3029 0.950 . S
C3040 C3038 1.391 . S
C3040 C3041 1.400 . S
C3041 C3035 1.491 . S
C3041 C3040 1.400 . S
C3041 C3042 1.398 . S
C3042 H3030 0.950 . S
C3042 C3041 1.398 . S
C3042 C3043 1.391 . S
C3043 H3031 0.950 . S
C3043 C3039 1.393 . S
C3043 C3042 1.391 . S
H3044 C3052 0.950 . S
H3045 C3057 0.950 . S
H3046 C3054 0.950 . S
H3047 C3056 0.950 . S
H3048 C3058 0.950 . S
H3049 C3060 0.950 . S
H3050 C3062 0.950 . S
H3051 C3063 0.950 . S
C3052 H3044 0.950 . S
C3052 C3053 1.386 . S
C3052 C3054 1.391 . S
C3053 C3052 1.386 . S
C3053 C3057 1.393 . S
C3054 H3046 0.950 . S
C3054 C3052 1.391 . S
C3054 C3055 1.400 . S
C3055 C3054 1.400 . S
C3055 C3056 1.398 . S
C3055 C3061 1.491 . S
C3056 H3047 0.950 . S
C3056 C3055 1.398 . S
C3056 C3057 1.391 . S
C3057 H3045 0.950 . S
C3057 C3053 1.393 . S
C3057 C3056 1.391 . S
C3058 H3048 0.950 . S
C3058 C3059 1.386 . S
C3058 C3060 1.391 . S
C3059 C3058 1.386 . S
C3059 C3063 1.393 . S
C3060 H3049 0.950 . S
C3060 C3058 1.391 . S
C3060 C3061 1.400 . S
C3061 C3055 1.491 . S
C3061 C3060 1.400 . S
C3061 C3062 1.398 . S
C3062 H3050 0.950 . S
C3062 C3061 1.398 . S
C3062 C3063 1.391 . S
C3063 H3051 0.950 . S
C3063 C3059 1.393 . S
C3063 C3062 1.391 . S
H3064 C3072 0.950 . S
H3065 C3077 0.950 . S
H3066 C3074 0.950 . S
H3067 C3076 0.950 . S
H3068 C3078 0.950 . S
H3069 C3080 0.950 . S
H3070 C3082 0.950 . S
H3071 C3083 0.950 . S
C3072 H3064 0.950 . S
C3072 C3073 1.386 . S
C3072 C3074 1.391 . S
C3073 C3072 1.386 . S
C3073 C3077 1.393 . S
C3074 H3066 0.950 . S
C3074 C3072 1.391 . S
C3074 C3075 1.400 . S
C3075 C3074 1.400 . S
C3075 C3076 1.398 . S
C3075 C3081 1.491 . S
C3076 H3067 0.950 . S
C3076 C3075 1.398 . S
C3076 C3077 1.391 . S
C3077 H3065 0.950 . S
C3077 C3073 1.393 . S
C3077 C3076 1.391 . S
C3078 H3068 0.950 . S
C3078 C3079 1.386 . S
C3078 C3080 1.391 . S
C3079 C3078 1.386 . S
C3079 C3083 1.393 . S
C3080 H3069 0.950 . S
C3080 C3078 1.391 . S
C3080 C3081 1.400 . S
C3081 C3075 1.491 . S
C3081 C3080 1.400 . S
C3081 C3082 1.398 . S
C3082 H3070 0.950 . S
C3082 C3081 1.398 . S
C3082 C3083 1.391 . S
C3083 H3071 0.950 . S
C3083 C3079 1.393 . S
C3083 C3082 1.391 . S
H3084 C3092 0.950 . S
H3085 C3097 0.950 . S
H3086 C3094 0.950 . S
H3087 C3096 0.950 . S
H3088 C3098 0.950 . S
H3089 C3100 0.950 . S
H3090 C3102 0.950 . S
H3091 C3103 0.950 . S
C3092 H3084 0.950 . S
C3092 C3093 1.386 . S
C3092 C3094 1.391 . S
C3093 C3092 1.386 . S
C3093 C3097 1.393 . S
C3094 H3086 0.950 . S
C3094 C3092 1.391 . S
C3094 C3095 1.400 . S
C3095 C3094 1.400 . S
C3095 C3096 1.398 . S
C3095 C3101 1.491 . S
C3096 H3087 0.950 . S
C3096 C3095 1.398 . S
C3096 C3097 1.391 . S
C3097 H3085 0.950 . S
C3097 C3093 1.393 . S
C3097 C3096 1.391 . S
C3098 H3088 0.950 . S
C3098 C3099 1.386 . S
C3098 C3100 1.391 . S
C3099 C3098 1.386 . S
C3099 C3103 1.393 . S
C3100 H3089 0.950 . S
C3100 C3098 1.391 . S
C3100 C3101 1.400 . S
C3101 C3095 1.491 . S
C3101 C3100 1.400 . S
C3101 C3102 1.398 . S
C3102 H3090 0.950 . S
C3102 C3101 1.398 . S
C3102 C3103 1.391 . S
C3103 H3091 0.950 . S
C3103 C3099 1.393 . S
C3103 C3102 1.391 . S
H3104 C3112 0.950 . S
H3105 C3117 0.950 . S
H3106 C3114 0.950 . S
H3107 C3116 0.950 . S
H3108 C3118 0.950 . S
H3109 C3120 0.950 . S
H3110 C3122 0.950 . S
H3111 C3123 0.950 . S
C3112 H3104 0.950 . S
C3112 C3113 1.386 . S
C3112 C3114 1.391 . S
C3113 C3112 1.386 . S
C3113 C3117 1.393 . S
C3114 H3106 0.950 . S
C3114 C3112 1.391 . S
C3114 C3115 1.400 . S
C3115 C3114 1.400 . S
C3115 C3116 1.398 . S
C3115 C3121 1.491 . S
C3116 H3107 0.950 . S
C3116 C3115 1.398 . S
C3116 C3117 1.391 . S
C3117 H3105 0.950 . S
C3117 C3113 1.393 . S
C3117 C3116 1.391 . S
C3118 H3108 0.950 . S
C3118 C3119 1.386 . S
C3118 C3120 1.391 . S
C3119 C3118 1.386 . S
C3119 C3123 1.393 . S
C3120 H3109 0.950 . S
C3120 C3118 1.391 . S
C3120 C3121 1.400 . S
C3121 C3115 1.491 . S
C3121 C3120 1.400 . S
C3121 C3122 1.398 . S
C3122 H3110 0.950 . S
C3122 C3121 1.398 . S
C3122 C3123 1.391 . S
C3123 H3111 0.950 . S
C3123 C3119 1.393 . S
C3123 C3122 1.391 . S
H3124 C3132 0.950 . S
H3125 C3137 0.950 . S
H3126 C3134 0.950 . S
H3127 C3136 0.950 . S
H3128 C3138 0.950 . S
H3129 C3140 0.950 . S
H3130 C3142 0.950 . S
H3131 C3143 0.950 . S
C3132 H3124 0.950 . S
C3132 C3133 1.386 . S
C3132 C3134 1.391 . S
C3133 C3132 1.386 . S
C3133 C3137 1.393 . S
C3134 H3126 0.950 . S
C3134 C3132 1.391 . S
C3134 C3135 1.400 . S
C3135 C3134 1.400 . S
C3135 C3136 1.398 . S
C3135 C3141 1.491 . S
C3136 H3127 0.950 . S
C3136 C3135 1.398 . S
C3136 C3137 1.391 . S
C3137 H3125 0.950 . S
C3137 C3133 1.393 . S
C3137 C3136 1.391 . S
C3138 H3128 0.950 . S
C3138 C3139 1.386 . S
C3138 C3140 1.391 . S
C3139 C3138 1.386 . S
C3139 C3143 1.393 . S
C3140 H3129 0.950 . S
C3140 C3138 1.391 . S
C3140 C3141 1.400 . S
C3141 C3135 1.491 . S
C3141 C3140 1.400 . S
C3141 C3142 1.398 . S
C3142 H3130 0.950 . S
C3142 C3141 1.398 . S
C3142 C3143 1.391 . S
C3143 H3131 0.950 . S
C3143 C3139 1.393 . S
C3143 C3142 1.391 . S
H3144 C3152 0.950 . S
H3145 C3157 0.950 . S
H3146 C3154 0.950 . S
H3147 C3156 0.950 . S
H3148 C3158 0.950 . S
H3149 C3160 0.950 . S
H3150 C3162 0.950 . S
H3151 C3163 0.950 . S
C3152 H3144 0.950 . S
C3152 C3153 1.386 . S
C3152 C3154 1.391 . S
C3153 C3152 1.386 . S
C3153 C3157 1.393 . S
C3154 H3146 0.950 . S
C3154 C3152 1.391 . S
C3154 C3155 1.400 . S
C3155 C3154 1.400 . S
C3155 C3156 1.398 . S
C3155 C3161 1.491 . S
C3156 H3147 0.950 . S
C3156 C3155 1.398 . S
C3156 C3157 1.391 . S
C3157 H3145 0.950 . S
C3157 C3153 1.393 . S
C3157 C3156 1.391 . S
C3158 H3148 0.950 . S
C3158 C3159 1.386 . S
C3158 C3160 1.391 . S
C3159 C3158 1.386 . S
C3159 C3163 1.393 . S
C3160 H3149 0.950 . S
C3160 C3158 1.391 . S
C3160 C3161 1.400 . S
C3161 C3155 1.491 . S
C3161 C3160 1.400 . S
C3161 C3162 1.398 . S
C3162 H3150 0.950 . S
C3162 C3161 1.398 . S
C3162 C3163 1.391 . S
C3163 H3151 0.950 . S
C3163 C3159 1.393 . S
C3163 C3162 1.391 . S
H3164 C3172 0.950 . S
H3165 C3177 0.950 . S
H3166 C3174 0.950 . S
H3167 C3176 0.950 . S
H3168 C3178 0.950 . S
H3169 C3180 0.950 . S
H3170 C3182 0.950 . S
H3171 C3183 0.950 . S
C3172 H3164 0.950 . S
C3172 C3173 1.386 . S
C3172 C3174 1.391 . S
C3173 C3172 1.386 . S
C3173 C3177 1.393 . S
C3174 H3166 0.950 . S
C3174 C3172 1.391 . S
C3174 C3175 1.400 . S
C3175 C3174 1.400 . S
C3175 C3176 1.398 . S
C3175 C3181 1.491 . S
C3176 H3167 0.950 . S
C3176 C3175 1.398 . S
C3176 C3177 1.391 . S
C3177 H3165 0.950 . S
C3177 C3173 1.393 . S
C3177 C3176 1.391 . S
C3178 H3168 0.950 . S
C3178 C3179 1.386 . S
C3178 C3180 1.391 . S
C3179 C3178 1.386 . S
C3179 C3183 1.393 . S
C3180 H3169 0.950 . S
C3180 C3178 1.391 . S
C3180 C3181 1.400 . S
C3181 C3175 1.491 . S
C3181 C3180 1.400 . S
C3181 C3182 1.398 . S
C3182 H3170 0.950 . S
C3182 C3181 1.398 . S
C3182 C3183 1.391 . S
C3183 H3171 0.950 . S
C3183 C3179 1.393 . S
C3183 C3182 1.391 . S
H3184 C3192 0.950 . S
H3185 C3197 0.950 . S
H3186 C3194 0.950 . S
H3187 C3196 0.950 . S
H3188 C3198 0.950 . S
H3189 C3200 0.950 . S
H3190 C3202 0.950 . S
H3191 C3203 0.950 . S
C3192 H3184 0.950 . S
C3192 C3193 1.386 . S
C3192 C3194 1.391 . S
C3193 C3192 1.386 . S
C3193 C3197 1.393 . S
C3194 H3186 0.950 . S
C3194 C3192 1.391 . S
C3194 C3195 1.400 . S
C3195 C3194 1.400 . S
C3195 C3196 1.398 . S
C3195 C3201 1.491 . S
C3196 H3187 0.950 . S
C3196 C3195 1.398 . S
C3196 C3197 1.391 . S
C3197 H3185 0.950 . S
C3197 C3193 1.393 . S
C3197 C3196 1.391 . S
C3198 H3188 0.950 . S
C3198 C3199 1.386 . S
C3198 C3200 1.391 . S
C3199 C3198 1.386 . S
C3199 C3203 1.393 . S
C3200 H3189 0.950 . S
C3200 C3198 1.391 . S
C3200 C3201 1.400 . S
C3201 C3195 1.491 . S
C3201 C3200 1.400 . S
C3201 C3202 1.398 . S
C3202 H3190 0.950 . S
C3202 C3201 1.398 . S
C3202 C3203 1.391 . S
C3203 H3191 0.950 . S
C3203 C3199 1.393 . S
C3203 C3202 1.391 . S
H3204 C3212 0.950 . S
H3205 C3217 0.950 . S
H3206 C3214 0.950 . S
H3207 C3216 0.950 . S
H3208 C3218 0.950 . S
H3209 C3220 0.950 . S
H3210 C3222 0.950 . S
H3211 C3223 0.950 . S
C3212 H3204 0.950 . S
C3212 C3213 1.386 . S
C3212 C3214 1.391 . S
C3213 C3212 1.386 . S
C3213 C3217 1.393 . S
C3214 H3206 0.950 . S
C3214 C3212 1.391 . S
C3214 C3215 1.400 . S
C3215 C3214 1.400 . S
C3215 C3216 1.398 . S
C3215 C3221 1.491 . S
C3216 H3207 0.950 . S
C3216 C3215 1.398 . S
C3216 C3217 1.391 . S
C3217 H3205 0.950 . S
C3217 C3213 1.393 . S
C3217 C3216 1.391 . S
C3218 H3208 0.950 . S
C3218 C3219 1.386 . S
C3218 C3220 1.391 . S
C3219 C3218 1.386 . S
C3219 C3223 1.393 . S
C3220 H3209 0.950 . S
C3220 C3218 1.391 . S
C3220 C3221 1.400 . S
C3221 C3215 1.491 . S
C3221 C3220 1.400 . S
C3221 C3222 1.398 . S
C3222 H3210 0.950 . S
C3222 C3221 1.398 . S
C3222 C3223 1.391 . S
C3223 H3211 0.950 . S
C3223 C3219 1.393 . S
C3223 C3222 1.391 . S
H3224 C3232 0.950 . S
H3225 C3237 0.950 . S
H3226 C3234 0.950 . S
H3227 C3236 0.950 . S
H3228 C3238 0.950 . S
H3229 C3240 0.950 . S
H3230 C3242 0.950 1_565 S
H3231 C3243 0.950 . S
C3232 H3224 0.950 . S
C3232 C3233 1.386 . S
C3232 C3234 1.391 . S
C3233 C3232 1.386 . S
C3233 C3237 1.393 . S
C3234 H3226 0.950 . S
C3234 C3232 1.391 . S
C3234 C3235 1.401 1_565 S
C3235 C3234 1.401 1_545 S
C3235 C3236 1.397 . S
C3235 C3241 1.491 . S
C3236 H3227 0.950 . S
C3236 C3235 1.397 . S
C3236 C3237 1.391 1_545 S
C3237 H3225 0.950 . S
C3237 C3233 1.393 . S
C3237 C3236 1.391 1_565 S
C3238 H3228 0.950 . S
C3238 C3239 1.386 . S
C3238 C3240 1.391 . S
C3239 C3238 1.386 . S
C3239 C3243 1.393 . S
C3240 H3229 0.950 . S
C3240 C3238 1.391 . S
C3240 C3241 1.400 . S
C3241 C3235 1.491 . S
C3241 C3240 1.400 . S
C3241 C3242 1.398 . S
C3242 H3230 0.950 1_545 S
C3242 C3241 1.398 . S
C3242 C3243 1.391 . S
C3243 H3231 0.950 . S
C3243 C3239 1.393 . S
C3243 C3242 1.391 . S
H3244 C3252 0.950 . S
H3245 C3257 0.950 . S
H3246 C3254 0.950 . S
H3247 C3256 0.950 . S
H3248 C3258 0.950 . S
H3249 C3260 0.950 . S
H3250 C3262 0.950 . S
H3251 C3263 0.950 . S
C3252 H3244 0.950 . S
C3252 C3253 1.386 . S
C3252 C3254 1.391 . S
C3253 C3252 1.386 . S
C3253 C3257 1.393 . S
C3254 H3246 0.950 . S
C3254 C3252 1.391 . S
C3254 C3255 1.400 . S
C3255 C3254 1.400 . S
C3255 C3256 1.398 . S
C3255 C3261 1.457 1_655 S
C3256 H3247 0.950 . S
C3256 C3255 1.398 . S
C3256 C3257 1.391 . S
C3257 H3245 0.950 . S
C3257 C3253 1.393 . S
C3257 C3256 1.391 . S
C3258 H3248 0.950 . S
C3258 C3259 1.386 . S
C3258 C3260 1.391 . S
C3259 C3258 1.386 . S
C3259 C3263 1.393 . S
C3260 H3249 0.950 . S
C3260 C3258 1.391 . S
C3260 C3261 1.423 . S
C3261 C3255 1.457 1_455 S
C3261 C3260 1.423 . S
C3261 C3262 1.411 . S
C3262 H3250 0.950 . S
C3262 C3261 1.411 . S
C3262 C3263 1.391 . S
C3263 H3251 0.950 . S
C3263 C3259 1.393 . S
C3263 C3262 1.391 . S
H3264 C3272 0.950 . S
H3265 C3277 0.950 . S
H3266 C3274 0.950 . S
H3267 C3276 0.950 . S
H3268 C3278 0.950 . S
H3269 C3280 0.950 . S
H3270 C3282 0.950 . S
H3271 C3283 0.950 . S
C3272 H3264 0.950 . S
C3272 C3273 1.386 . S
C3272 C3274 1.391 . S
C3273 C3272 1.386 . S
C3273 C3277 1.393 . S
C3274 H3266 0.950 . S
C3274 C3272 1.391 . S
C3274 C3275 1.400 . S
C3275 C3274 1.400 . S
C3275 C3276 1.398 . S
C3275 C3281 1.491 . S
C3276 H3267 0.950 . S
C3276 C3275 1.398 . S
C3276 C3277 1.391 . S
C3277 H3265 0.950 . S
C3277 C3273 1.393 . S
C3277 C3276 1.391 . S
C3278 H3268 0.950 . S
C3278 C3279 1.386 . S
C3278 C3280 1.391 . S
C3279 C3278 1.386 . S
C3279 C3283 1.393 . S
C3280 H3269 0.950 . S
C3280 C3278 1.391 . S
C3280 C3281 1.400 . S
C3281 C3275 1.491 . S
C3281 C3280 1.400 . S
C3281 C3282 1.398 . S
C3282 H3270 0.950 . S
C3282 C3281 1.398 . S
C3282 C3283 1.391 . S
C3283 H3271 0.950 . S
C3283 C3279 1.393 . S
C3283 C3282 1.391 . S
H3284 C3292 0.950 . S
H3285 C3297 0.950 . S
H3286 C3294 0.950 . S
H3287 C3296 0.950 . S
H3288 C3298 0.950 . S
H3289 C3300 0.950 . S
H3290 C3302 0.950 1_545 S
H3291 C3303 0.950 . S
C3292 H3284 0.950 . S
C3292 C3293 1.386 . S
C3292 C3294 1.391 . S
C3293 C3292 1.386 . S
C3293 C3297 1.393 . S
C3294 H3286 0.950 . S
C3294 C3292 1.391 . S
C3294 C3295 1.403 1_545 S
C3295 C3294 1.403 1_565 S
C3295 C3296 1.398 . S
C3295 C3301 1.488 . S
C3296 H3287 0.950 . S
C3296 C3295 1.398 . S
C3296 C3297 1.391 1_565 S
C3297 H3285 0.950 . S
C3297 C3293 1.393 . S
C3297 C3296 1.391 1_545 S
C3298 H3288 0.950 . S
C3298 C3299 1.386 . S
C3298 C3300 1.391 . S
C3299 C3298 1.386 . S
C3299 C3303 1.393 . S
C3300 H3289 0.950 . S
C3300 C3298 1.391 . S
C3300 C3301 1.400 . S
C3301 C3295 1.488 . S
C3301 C3300 1.400 . S
C3301 C3302 1.398 . S
C3302 H3290 0.950 1_565 S
C3302 C3301 1.398 . S
C3302 C3303 1.391 . S
C3303 H3291 0.950 . S
C3303 C3299 1.393 . S
C3303 C3302 1.391 . S
H3304 C3312 0.950 . S
H3305 C3317 0.950 . S
H3306 C3314 0.950 1_655 S
H3307 C3316 0.950 . S
H3308 C3318 0.950 1_455 S
H3309 C3320 0.950 . S
H3310 C3322 0.950 . S
H3311 C3323 0.950 . S
C3312 H3304 0.950 . S
C3312 C3313 1.386 . S
C3312 C3314 1.391 . S
C3313 C3312 1.386 . S
C3313 C3317 1.393 . S
C3314 H3306 0.950 1_455 S
C3314 C3312 1.391 . S
C3314 C3315 1.400 . S
C3315 C3314 1.400 . S
C3315 C3316 1.398 . S
C3315 C3321 1.490 1_455 S
C3316 H3307 0.950 . S
C3316 C3315 1.398 . S
C3316 C3317 1.391 . S
C3317 H3305 0.950 . S
C3317 C3313 1.393 . S
C3317 C3316 1.391 . S
C3318 H3308 0.950 1_655 S
C3318 C3319 1.386 . S
C3318 C3320 1.391 1_655 S
C3319 C3318 1.386 . S
C3319 C3323 1.393 . S
C3320 H3309 0.950 . S
C3320 C3318 1.391 1_455 S
C3320 C3321 1.379 1_455 S
C3321 C3315 1.490 1_655 S
C3321 C3320 1.379 1_655 S
C3321 C3322 1.420 . S
C3322 H3310 0.950 . S
C3322 C3321 1.420 . S
C3322 C3323 1.391 . S
C3323 H3311 0.950 . S
C3323 C3319 1.393 . S
C3323 C3322 1.391 . S
H3324 C3332 0.950 . S
H3325 C3337 0.950 . S
H3326 C3334 0.950 . S
H3327 C3336 0.950 . S
H3328 C3338 0.950 . S
H3329 C3340 0.950 . S
H3330 C3342 0.950 . S
H3331 C3343 0.950 . S
C3332 H3324 0.950 . S
C3332 C3333 1.386 . S
C3332 C3334 1.391 . S
C3333 C3332 1.386 . S
C3333 C3337 1.393 . S
C3334 H3326 0.950 . S
C3334 C3332 1.391 . S
C3334 C3335 1.400 . S
C3335 C3334 1.400 . S
C3335 C3336 1.398 . S
C3335 C3341 1.491 . S
C3336 H3327 0.950 . S
C3336 C3335 1.398 . S
C3336 C3337 1.391 . S
C3337 H3325 0.950 . S
C3337 C3333 1.393 . S
C3337 C3336 1.391 . S
C3338 H3328 0.950 . S
C3338 C3339 1.386 . S
C3338 C3340 1.391 . S
C3339 C3338 1.386 . S
C3339 C3343 1.393 . S
C3340 H3329 0.950 . S
C3340 C3338 1.391 . S
C3340 C3341 1.400 . S
C3341 C3335 1.491 . S
C3341 C3340 1.400 . S
C3341 C3342 1.398 . S
C3342 H3330 0.950 . S
C3342 C3341 1.398 . S
C3342 C3343 1.391 . S
C3343 H3331 0.950 . S
C3343 C3339 1.393 . S
C3343 C3342 1.391 . S
H3344 C3352 0.950 . S
H3345 C3357 0.950 . S
H3346 C3354 0.950 1_545 S
H3347 C3356 0.950 . S
H3348 C3358 0.950 . S
H3349 C3360 0.950 . S
H3350 C3362 0.950 . S
H3351 C3363 0.950 . S
C3352 H3344 0.950 . S
C3352 C3353 1.386 . S
C3352 C3354 1.391 . S
C3353 C3352 1.386 . S
C3353 C3357 1.393 . S
C3354 H3346 0.950 1_565 S
C3354 C3352 1.391 . S
C3354 C3355 1.400 . S
C3355 C3354 1.400 . S
C3355 C3356 1.398 . S
C3355 C3361 1.490 1_565 S
C3356 H3347 0.950 . S
C3356 C3355 1.398 . S
C3356 C3357 1.391 . S
C3357 H3345 0.950 . S
C3357 C3353 1.393 . S
C3357 C3356 1.391 . S
C3358 H3348 0.950 . S
C3358 C3359 1.386 . S
C3358 C3360 1.391 1_545 S
C3359 C3358 1.386 . S
C3359 C3363 1.393 . S
C3360 H3349 0.950 . S
C3360 C3358 1.391 1_565 S
C3360 C3361 1.387 1_565 S
C3361 C3355 1.490 1_545 S
C3361 C3360 1.387 1_545 S
C3361 C3362 1.414 . S
C3362 H3350 0.950 . S
C3362 C3361 1.414 . S
C3362 C3363 1.391 . S
C3363 H3351 0.950 . S
C3363 C3359 1.393 . S
C3363 C3362 1.391 . S
H3364 C3372 0.950 . S
H3365 C3377 0.950 . S
H3366 C3374 0.950 1_655 S
H3367 C3376 0.950 . S
H3368 C3378 0.950 1_455 S
H3369 C3380 0.950 . S
H3370 C3382 0.950 . S
H3371 C3383 0.950 . S
C3372 H3364 0.950 . S
C3372 C3373 1.386 . S
C3372 C3374 1.391 . S
C3373 C3372 1.386 . S
C3373 C3377 1.393 . S
C3374 H3366 0.950 1_455 S
C3374 C3372 1.391 . S
C3374 C3375 1.400 . S
C3375 C3374 1.400 . S
C3375 C3376 1.398 . S
C3375 C3381 1.492 1_455 S
C3376 H3367 0.950 . S
C3376 C3375 1.398 . S
C3376 C3377 1.391 . S
C3377 H3365 0.950 . S
C3377 C3373 1.393 . S
C3377 C3376 1.391 . S
C3378 H3368 0.950 1_655 S
C3378 C3379 1.386 . S
C3378 C3380 1.391 1_655 S
C3379 C3378 1.386 . S
C3379 C3383 1.393 . S
C3380 H3369 0.950 . S
C3380 C3378 1.391 1_455 S
C3380 C3381 1.400 1_455 S
C3381 C3375 1.492 1_655 S
C3381 C3380 1.400 1_655 S
C3381 C3382 1.397 . S
C3382 H3370 0.950 . S
C3382 C3381 1.397 . S
C3382 C3383 1.391 . S
C3383 H3371 0.950 . S
C3383 C3379 1.393 . S
C3383 C3382 1.391 . S
H3384 C3392 0.950 . S
H3385 C3397 0.950 . S
H3386 C3394 0.950 . S
H3387 C3396 0.950 . S
H3388 C3398 0.950 . S
H3389 C3400 0.950 . S
H3390 C3402 0.950 . S
H3391 C3403 0.950 . S
C3392 H3384 0.950 . S
C3392 C3393 1.386 . S
C3392 C3394 1.391 . S
C3393 C3392 1.386 . S
C3393 C3397 1.393 . S
C3394 H3386 0.950 . S
C3394 C3392 1.391 . S
C3394 C3395 1.400 . S
C3395 C3394 1.400 . S
C3395 C3396 1.398 . S
C3395 C3401 1.491 . S
C3396 H3387 0.950 . S
C3396 C3395 1.398 . S
C3396 C3397 1.391 . S
C3397 H3385 0.950 . S
C3397 C3393 1.393 . S
C3397 C3396 1.391 . S
C3398 H3388 0.950 . S
C3398 C3399 1.386 . S
C3398 C3400 1.391 . S
C3399 C3398 1.386 . S
C3399 C3403 1.393 . S
C3400 H3389 0.950 . S
C3400 C3398 1.391 . S
C3400 C3401 1.400 . S
C3401 C3395 1.491 . S
C3401 C3400 1.400 . S
C3401 C3402 1.398 . S
C3402 H3390 0.950 . S
C3402 C3401 1.398 . S
C3402 C3403 1.391 . S
C3403 H3391 0.950 . S
C3403 C3399 1.393 . S
C3403 C3402 1.391 . S
H3404 C3412 0.950 . S
H3405 C3417 0.950 . S
H3406 C3414 0.945 1_565 S
H3407 C3416 0.950 . S
H3408 C3418 0.949 . S
H3409 C3420 0.950 . S
H3410 C3422 0.950 . S
H3411 C3423 0.950 . S
C3412 H3404 0.950 . S
C3412 C3413 1.386 . S
C3412 C3414 1.396 . S
C3413 C3412 1.386 . S
C3413 C3417 1.393 . S
C3414 H3406 0.945 1_545 S
C3414 C3412 1.396 . S
C3414 C3415 1.400 . S
C3415 C3414 1.400 . S
C3415 C3416 1.398 . S
C3415 C3421 1.477 1_545 S
C3416 H3407 0.950 . S
C3416 C3415 1.398 . S
C3416 C3417 1.391 . S
C3417 H3405 0.950 . S
C3417 C3413 1.393 . S
C3417 C3416 1.391 . S
C3418 H3408 0.949 . S
C3418 C3419 1.389 1_545 S
C3418 C3420 1.388 . S
C3419 C3418 1.389 1_565 S
C3419 C3423 1.393 . S
C3420 H3409 0.950 . S
C3420 C3418 1.388 . S
C3420 C3421 1.400 1_545 S
C3421 C3415 1.477 1_565 S
C3421 C3420 1.400 1_565 S
C3421 C3422 1.413 . S
C3422 H3410 0.950 . S
C3422 C3421 1.413 . S
C3422 C3423 1.391 . S
C3423 H3411 0.950 . S
C3423 C3419 1.393 . S
C3423 C3422 1.391 . S
H3424 C3432 0.950 1_655 S
H3425 C3437 0.950 . S
H3426 C3434 0.950 . S
H3427 C3436 0.950 . S
H3428 C3438 0.950 . S
H3429 C3440 0.939 1_455 S
H3430 C3442 0.950 . S
H3431 C3443 0.950 . S
C3432 H3424 0.950 1_455 S
C3432 C3433 1.385 . S
C3432 C3434 1.391 1_455 S
C3433 C3432 1.385 . S
C3433 C3437 1.393 . S
C3434 H3426 0.950 . S
C3434 C3432 1.391 1_655 S
C3434 C3435 1.385 1_655 S
C3435 C3434 1.385 1_455 S
C3435 C3436 1.413 . S
C3435 C3441 1.491 1_455 S
C3436 H3427 0.950 . S
C3436 C3435 1.413 . S
C3436 C3437 1.391 . S
C3437 H3425 0.950 . S
C3437 C3433 1.393 . S
C3437 C3436 1.391 . S
C3438 H3428 0.950 . S
C3438 C3439 1.386 . S
C3438 C3440 1.391 . S
C3439 C3438 1.386 . S
C3439 C3443 1.393 . S
C3440 H3429 0.939 1_655 S
C3440 C3438 1.391 . S
C3440 C3441 1.411 . S
C3441 C3435 1.491 1_655 S
C3441 C3440 1.411 . S
C3441 C3442 1.398 . S
C3442 H3430 0.950 . S
C3442 C3441 1.398 . S
C3442 C3443 1.391 . S
C3443 H3431 0.950 . S
C3443 C3439 1.393 . S
C3443 C3442 1.391 . S
H3444 C3452 0.950 . S
H3445 C3457 0.950 . S
H3446 C3454 0.950 . S
H3447 C3456 0.950 . S
H3448 C3458 0.950 . S
H3449 C3460 0.950 . S
H3450 C3462 0.950 . S
H3451 C3463 0.950 . S
C3452 H3444 0.950 . S
C3452 C3453 1.386 . S
C3452 C3454 1.391 . S
C3453 C3452 1.386 . S
C3453 C3457 1.393 . S
C3454 H3446 0.950 . S
C3454 C3452 1.391 . S
C3454 C3455 1.400 . S
C3455 C3454 1.400 . S
C3455 C3456 1.398 . S
C3455 C3461 1.491 1_655 S
C3456 H3447 0.950 . S
C3456 C3455 1.398 . S
C3456 C3457 1.391 . S
C3457 H3445 0.950 . S
C3457 C3453 1.393 . S
C3457 C3456 1.391 . S
C3458 H3448 0.950 . S
C3458 C3459 1.386 . S
C3458 C3460 1.391 . S
C3459 C3458 1.386 . S
C3459 C3463 1.393 . S
C3460 H3449 0.950 . S
C3460 C3458 1.391 . S
C3460 C3461 1.400 . S
C3461 C3455 1.491 1_455 S
C3461 C3460 1.400 . S
C3461 C3462 1.398 . S
C3462 H3450 0.950 . S
C3462 C3461 1.398 . S
C3462 C3463 1.391 . S
C3463 H3451 0.950 . S
C3463 C3459 1.393 . S
C3463 C3462 1.391 . S
H3464 C3472 0.950 . S
H3465 C3477 0.950 . S
H3466 C3474 0.950 . S
H3467 C3476 0.950 . S
H3468 C3478 0.950 . S
H3469 C3480 0.950 . S
H3470 C3482 0.950 . S
H3471 C3483 0.950 . S
C3472 H3464 0.950 . S
C3472 C3473 1.386 . S
C3472 C3474 1.391 . S
C3473 C3472 1.386 . S
C3473 C3477 1.393 . S
C3474 H3466 0.950 . S
C3474 C3472 1.391 . S
C3474 C3475 1.400 . S
C3475 C3474 1.400 . S
C3475 C3476 1.398 . S
C3475 C3481 1.491 . S
C3476 H3467 0.950 . S
C3476 C3475 1.398 . S
C3476 C3477 1.391 . S
C3477 H3465 0.950 . S
C3477 C3473 1.393 . S
C3477 C3476 1.391 . S
C3478 H3468 0.950 . S
C3478 C3479 1.386 . S
C3478 C3480 1.391 . S
C3479 C3478 1.386 . S
C3479 C3483 1.393 . S
C3480 H3469 0.950 . S
C3480 C3478 1.391 . S
C3480 C3481 1.400 . S
C3481 C3475 1.491 . S
C3481 C3480 1.400 . S
C3481 C3482 1.398 . S
C3482 H3470 0.950 . S
C3482 C3481 1.398 . S
C3482 C3483 1.391 . S
C3483 H3471 0.950 . S
C3483 C3479 1.393 . S
C3483 C3482 1.391 . S
H3484 C3492 0.950 . S
H3485 C3497 0.950 . S
H3486 C3494 0.950 . S
H3487 C3496 0.950 . S
H3488 C3498 0.950 . S
H3489 C3500 0.950 . S
H3490 C3502 0.950 . S
H3491 C3503 0.950 . S
C3492 H3484 0.950 . S
C3492 C3493 1.386 . S
C3492 C3494 1.391 . S
C3493 C3492 1.386 . S
C3493 C3497 1.393 . S
C3494 H3486 0.950 . S
C3494 C3492 1.391 . S
C3494 C3495 1.400 . S
C3495 C3494 1.400 . S
C3495 C3496 1.398 . S
C3495 C3501 1.491 1_565 S
C3496 H3487 0.950 . S
C3496 C3495 1.398 . S
C3496 C3497 1.391 . S
C3497 H3485 0.950 . S
C3497 C3493 1.393 . S
C3497 C3496 1.391 . S
C3498 H3488 0.950 . S
C3498 C3499 1.386 . S
C3498 C3500 1.391 . S
C3499 C3498 1.386 . S
C3499 C3503 1.393 . S
C3500 H3489 0.950 . S
C3500 C3498 1.391 . S
C3500 C3501 1.400 . S
C3501 C3495 1.491 1_545 S
C3501 C3500 1.400 . S
C3501 C3502 1.398 . S
C3502 H3490 0.950 . S
C3502 C3501 1.398 . S
C3502 C3503 1.391 . S
C3503 H3491 0.950 . S
C3503 C3499 1.393 . S
C3503 C3502 1.391 . S
H3504 C3512 0.950 . S
H3505 C3517 0.950 . S
H3506 C3514 0.950 . S
H3507 C3516 0.950 . S
H3508 C3518 0.950 . S
H3509 C3520 0.950 . S
H3510 C3522 0.950 . S
H3511 C3523 0.950 . S
C3512 H3504 0.950 . S
C3512 C3513 1.386 . S
C3512 C3514 1.391 . S
C3513 C3512 1.386 . S
C3513 C3517 1.393 . S
C3514 H3506 0.950 . S
C3514 C3512 1.391 . S
C3514 C3515 1.400 . S
C3515 C3514 1.400 . S
C3515 C3516 1.398 . S
C3515 C3521 1.491 1_565 S
C3516 H3507 0.950 . S
C3516 C3515 1.398 . S
C3516 C3517 1.391 . S
C3517 H3505 0.950 . S
C3517 C3513 1.393 . S
C3517 C3516 1.391 . S
C3518 H3508 0.950 . S
C3518 C3519 1.386 . S
C3518 C3520 1.391 . S
C3519 C3518 1.386 . S
C3519 C3523 1.393 . S
C3520 H3509 0.950 . S
C3520 C3518 1.391 . S
C3520 C3521 1.400 . S
C3521 C3515 1.491 1_545 S
C3521 C3520 1.400 . S
C3521 C3522 1.398 . S
C3522 H3510 0.950 . S
C3522 C3521 1.398 . S
C3522 C3523 1.391 . S
C3523 H3511 0.950 . S
C3523 C3519 1.393 . S
C3523 C3522 1.391 . S
H3524 C3532 0.950 . S
H3525 C3537 0.950 . S
H3526 C3534 0.950 . S
H3527 C3536 0.950 . S
H3528 C3538 0.950 . S
H3529 C3540 0.950 . S
H3530 C3542 0.950 . S
H3531 C3543 0.950 . S
C3532 H3524 0.950 . S
C3532 C3533 1.386 . S
C3532 C3534 1.391 . S
C3533 C3532 1.386 . S
C3533 C3537 1.393 . S
C3534 H3526 0.950 . S
C3534 C3532 1.391 . S
C3534 C3535 1.400 . S
C3535 C3534 1.400 . S
C3535 C3536 1.398 . S
C3535 C3541 1.491 1_655 S
C3536 H3527 0.950 . S
C3536 C3535 1.398 . S
C3536 C3537 1.391 . S
C3537 H3525 0.950 . S
C3537 C3533 1.393 . S
C3537 C3536 1.391 . S
C3538 H3528 0.950 . S
C3538 C3539 1.386 . S
C3538 C3540 1.391 . S
C3539 C3538 1.386 . S
C3539 C3543 1.393 . S
C3540 H3529 0.950 . S
C3540 C3538 1.391 . S
C3540 C3541 1.400 . S
C3541 C3535 1.491 1_455 S
C3541 C3540 1.400 . S
C3541 C3542 1.398 . S
C3542 H3530 0.950 . S
C3542 C3541 1.398 . S
C3542 C3543 1.391 . S
C3543 H3531 0.950 . S
C3543 C3539 1.393 . S
C3543 C3542 1.391 . S
H3544 C3552 0.950 . S
H3545 C3557 0.950 . S
H3546 C3554 0.950 . S
H3547 C3556 0.950 . S
H3548 C3558 0.950 . S
H3549 C3560 0.950 . S
H3550 C3562 0.950 . S
H3551 C3563 0.950 . S
C3552 H3544 0.950 . S
C3552 C3553 1.386 . S
C3552 C3554 1.391 . S
C3553 C3552 1.386 . S
C3553 C3557 1.393 . S
C3554 H3546 0.950 . S
C3554 C3552 1.391 . S
C3554 C3555 1.400 . S
C3555 C3554 1.400 . S
C3555 C3556 1.398 . S
C3555 C3561 1.491 . S
C3556 H3547 0.950 . S
C3556 C3555 1.398 . S
C3556 C3557 1.391 . S
C3557 H3545 0.950 . S
C3557 C3553 1.393 . S
C3557 C3556 1.391 . S
C3558 H3548 0.950 . S
C3558 C3559 1.386 . S
C3558 C3560 1.391 . S
C3559 C3558 1.386 . S
C3559 C3563 1.393 . S
C3560 H3549 0.950 . S
C3560 C3558 1.391 . S
C3560 C3561 1.400 . S
C3561 C3555 1.491 . S
C3561 C3560 1.400 . S
C3561 C3562 1.398 . S
C3562 H3550 0.950 . S
C3562 C3561 1.398 . S
C3562 C3563 1.391 . S
C3563 H3551 0.950 . S
C3563 C3559 1.393 . S
C3563 C3562 1.391 . S
C2133 C3 1.324 . S
C2139 C1065 1.324 . S
C2153 C62 1.308 . S
C2159 C1124 1.308 . S
C2173 C1183 1.308 . S
C2179 C121 1.308 . S
C2193 C180 1.308 . S
C2199 C1950 1.308 . S
C2213 C2009 1.333 . S
C2219 C239 1.333 . S
C2233 C298 1.321 . S
C2239 C2068 1.321 . S
C2253 C1419 1.315 . S
C2259 C357 1.315 . S
C2273 C416 1.323 . S
C2279 C1478 1.323 . S
C2293 C475 1.320 . S
C2299 C1537 1.320 . S
C2313 C534 1.317 . S
C2319 C888 1.317 . S
C2333 C947 1.307 . S
C2339 C593 1.307 . S
C2353 C652 1.308 . S
C2359 C1006 1.308 . S
C2373 C711 1.317 . S
C2379 C1773 1.317 . S
C2393 C770 1.321 . S
C2399 C1832 1.321 . S
C2413 C829 1.308 . S
C2419 C1891 1.308 . S
C2433 C1242 1.325 . S
C2439 C1596 1.325 . S
C2453 C1301 1.314 . S
C2459 C1655 1.314 . S
C2473 C1360 1.308 . S
C2479 C1714 1.308 . S
C2493 C446 1.443 . S
C2499 C5 1.450 . S
C2513 C505 1.444 . S
C2519 C64 1.446 . S
C2533 C123 1.440 . S
C2539 C387 1.430 . S
C2553 C682 1.438 . S
C2559 C182 1.440 . S
C2573 C564 1.430 . S
C2579 C241 1.443 . S
C2593 C623 1.439 . S
C2599 C300 1.449 . S
C2613 C359 1.450 . S
C2619 C92 1.444 . S
C2633 C418 1.444 . S
C2639 C151 1.431 . S
C2653 C477 1.447 . S
C2659 C33 1.445 . S
C2673 C536 1.441 . S
C2679 C328 1.439 . S
C2693 C210 1.444 . S
C2699 C595 1.450 . S
C2713 C269 1.435 . S
C2719 C654 1.448 . S
C2733 C713 1.448 . S
C2739 C1154 1.437 . S
C2753 C772 1.443 . S
C2759 C1213 1.442 . S
C2773 C831 1.451 . S
C2779 C1095 1.443 . S
C2793 C1390 1.431 . S
C2799 C890 1.443 . S
C2813 C949 1.439 . S
C2819 C1272 1.433 . S
C2833 C1331 1.443 . S
C2839 C1008 1.444 . S
C2853 C1067 1.449 . S
C2859 C800 1.438 . S
C2873 C859 1.441 . S
C2879 C1126 1.442 . S
C2893 C741 1.442 . S
C2899 C1185 1.451 . S
C2913 C1244 1.447 . S
C2919 C1036 1.435 . S
C2933 C1303 1.441 . S
C2939 C918 1.430 . S
C2953 C1362 1.444 . S
C2959 C977 1.431 . S
C2973 C1862 1.431 . S
C2979 C1421 1.438 . S
C2993 C1480 1.445 . S
C2999 C1921 1.444 . S
C3013 C1539 1.439 . S
C3019 C1803 1.433 . S
C3033 C2098 1.431 . S
C3039 C1598 1.444 . S
C3053 C1980 1.445 . S
C3059 C1657 1.449 . S
C3073 C2039 1.440 . S
C3079 C1716 1.442 . S
C3093 C1508 1.432 . S
C3099 C1775 1.445 . S
C3113 C1567 1.430 . S
C3119 C1834 1.439 . S
C3133 C1449 1.441 . S
C3139 C1893 1.451 . S
C3153 C1952 1.444 . S
C3159 C1744 1.442 . S
C3173 C1626 1.445 . S
C3179 C2011 1.448 . S
C3193 C2070 1.444 . S
C3199 C1685 1.431 . S
C3213 C52 1.238 . S
C3219 C1763 1.240 . S
C3233 C1645 1.242 . S
C3239 C111 1.240 . S
C3253 C170 1.245 . S
C3259 C1704 1.243 . S
C3273 C229 1.245 . S
C3279 C819 1.247 . S
C3293 C878 1.242 . S
C3299 C288 1.240 . S
C3313 C347 1.237 . S
C3319 C760 1.236 . S
C3333 C1409 1.240 . S
C3339 C406 1.242 . S
C3353 C465 1.248 . S
C3359 C1291 1.246 . S
C3373 C524 1.251 . S
C3379 C1350 1.252 . S
C3393 C583 1.240 . S
C3399 C1881 1.238 . S
C3413 C642 1.252 . S
C3419 C1940 1.251 . S
C3433 C1822 1.236 . S
C3439 C701 1.236 . S
C3453 C937 1.241 . S
C3459 C1527 1.243 . S
C3473 C1586 1.236 . S
C3479 C996 1.237 . S
C3493 C1468 1.236 . S
C3499 C1055 1.237 . S
C3513 C2117 1.236 . S
C3519 C1114 1.236 . S
C3533 C1173 1.238 . S
C3539 C1999 1.237 . S
C3553 C1232 1.249 . S
C3559 C2058 1.247 . S
