# Generated by pormake.
# Topology uob, (4)-cn, num edge types: 1
# Building blocks:
#     Node 0, Type 0, BuildingBlock: KOZSID_clean_sbu_0, # of connection points: 4
#     Node 1, Type 0, BuildingBlock: KOZSID_clean_sbu_0, # of connection points: 4
#     Node 2, Type 0, BuildingBlock: KOZSID_clean_sbu_0, # of connection points: 4
#     Node 3, Type 0, BuildingBlock: KOZSID_clean_sbu_0, # of connection points: 4
#     Node 4, Type 0, BuildingBlock: KOZSID_clean_sbu_0, # of connection points: 4
#     Node 5, Type 0, BuildingBlock: KOZSID_clean_sbu_0, # of connection points: 4
#     Node 6, Type 0, BuildingBlock: KOZSID_clean_sbu_0, # of connection points: 4
#     Node 7, Type 0, BuildingBlock: KOZSID_clean_sbu_0, # of connection points: 4
#     Node 8, Type 0, BuildingBlock: KOZSID_clean_sbu_0, # of connection points: 4
#     Node 9, Type 0, BuildingBlock: KOZSID_clean_sbu_0, # of connection points: 4
#     Node 10, Type 0, BuildingBlock: KOZSID_clean_sbu_0, # of connection points: 4
#     Node 11, Type 0, BuildingBlock: KOZSID_clean_sbu_0, # of connection points: 4
#     Node 12, Type 0, BuildingBlock: KOZSID_clean_sbu_0, # of connection points: 4
#     Node 13, Type 0, BuildingBlock: KOZSID_clean_sbu_0, # of connection points: 4
#     Node 14, Type 0, BuildingBlock: KOZSID_clean_sbu_0, # of connection points: 4
#     Node 15, Type 0, BuildingBlock: KOZSID_clean_sbu_0, # of connection points: 4
#     Edge 16, Type (0, 0), BuildingBlock: AJUNOK_clean_linker_0, # of connection points: 2
#     Edge 17, Type (0, 0), BuildingBlock: AJUNOK_clean_linker_0, # of connection points: 2
#     Edge 18, Type (0, 0), BuildingBlock: AJUNOK_clean_linker_0, # of connection points: 2
#     Edge 19, Type (0, 0), BuildingBlock: AJUNOK_clean_linker_0, # of connection points: 2
#     Edge 20, Type (0, 0), BuildingBlock: AJUNOK_clean_linker_0, # of connection points: 2
#     Edge 21, Type (0, 0), BuildingBlock: AJUNOK_clean_linker_0, # of connection points: 2
#     Edge 22, Type (0, 0), BuildingBlock: AJUNOK_clean_linker_0, # of connection points: 2
#     Edge 23, Type (0, 0), BuildingBlock: AJUNOK_clean_linker_0, # of connection points: 2
#     Edge 24, Type (0, 0), BuildingBlock: AJUNOK_clean_linker_0, # of connection points: 2
#     Edge 25, Type (0, 0), BuildingBlock: AJUNOK_clean_linker_0, # of connection points: 2
#     Edge 26, Type (0, 0), BuildingBlock: AJUNOK_clean_linker_0, # of connection points: 2
#     Edge 27, Type (0, 0), BuildingBlock: AJUNOK_clean_linker_0, # of connection points: 2
#     Edge 28, Type (0, 0), BuildingBlock: AJUNOK_clean_linker_0, # of connection points: 2
#     Edge 29, Type (0, 0), BuildingBlock: AJUNOK_clean_linker_0, # of connection points: 2
#     Edge 30, Type (0, 0), BuildingBlock: AJUNOK_clean_linker_0, # of connection points: 2
#     Edge 31, Type (0, 0), BuildingBlock: AJUNOK_clean_linker_0, # of connection points: 2
#     Edge 32, Type (0, 0), BuildingBlock: AJUNOK_clean_linker_0, # of connection points: 2
#     Edge 33, Type (0, 0), BuildingBlock: AJUNOK_clean_linker_0, # of connection points: 2
#     Edge 34, Type (0, 0), BuildingBlock: AJUNOK_clean_linker_0, # of connection points: 2
#     Edge 35, Type (0, 0), BuildingBlock: AJUNOK_clean_linker_0, # of connection points: 2
#     Edge 36, Type (0, 0), BuildingBlock: AJUNOK_clean_linker_0, # of connection points: 2
#     Edge 37, Type (0, 0), BuildingBlock: AJUNOK_clean_linker_0, # of connection points: 2
#     Edge 38, Type (0, 0), BuildingBlock: AJUNOK_clean_linker_0, # of connection points: 2
#     Edge 39, Type (0, 0), BuildingBlock: AJUNOK_clean_linker_0, # of connection points: 2
#     Edge 40, Type (0, 0), BuildingBlock: AJUNOK_clean_linker_0, # of connection points: 2
#     Edge 41, Type (0, 0), BuildingBlock: AJUNOK_clean_linker_0, # of connection points: 2
#     Edge 42, Type (0, 0), BuildingBlock: AJUNOK_clean_linker_0, # of connection points: 2
#     Edge 43, Type (0, 0), BuildingBlock: AJUNOK_clean_linker_0, # of connection points: 2
#     Edge 44, Type (0, 0), BuildingBlock: AJUNOK_clean_linker_0, # of connection points: 2
#     Edge 45, Type (0, 0), BuildingBlock: AJUNOK_clean_linker_0, # of connection points: 2
#     Edge 46, Type (0, 0), BuildingBlock: AJUNOK_clean_linker_0, # of connection points: 2
#     Edge 47, Type (0, 0), BuildingBlock: AJUNOK_clean_linker_0, # of connection points: 2
# Relax obj value: 0.102
# Max RMSD: 0.287
# Mean RMSD: 0.244
data_MOF--net-uob--node1-KOZSID_clean_sbu_0--edge1-AJUNOK_clean_linker_0
_symmetry_space_group_name_H-M    P1
_symmetry_Int_Tables_number       1
_symmetry_cell_setting            triclinic
loop_
_symmetry_equiv_pos_as_xyz
'x, y, z'
_cell_length_a     42.110524
_cell_length_b     55.7756
_cell_length_c     26.550726
_cell_angle_alpha  90.25944
_cell_angle_beta   90.103203
_cell_angle_gamma 89.97569
loop_
_atom_site_label
_atom_site_type_symbol
_atom_site_fract_x
_atom_site_fract_y
_atom_site_fract_z
_atom_type_partial_charge
C0 C 0.20169 0.08041 0.35533 0.0
C1 C 0.22856 0.06596 0.35787 0.0
C2 C 0.22165 0.0453 0.33217 0.0
C3 C 0.19097 0.04797 0.31582 0.0
N4 N 0.17813 0.06915 0.32937 0.0
Co5 Co 0.13373 0.07931 0.31517 0.0
N6 N 0.11954 0.04559 0.30694 0.0
C7 C 0.13856 0.02669 0.29768 0.0
C8 C 0.1223 1.0055 0.29311 0.0
C9 C 0.091 1.01145 0.29929 0.0
C10 C 0.08992 0.0361 0.30727 0.0
N11 N 0.08978 0.08921 0.29843 0.0
C12 C 0.06255 0.07609 0.29648 0.0
C13 C 0.03744 0.09033 0.28084 0.0
C14 C 0.04965 0.11295 0.27253 0.0
C15 C 0.08157 0.11137 0.28334 0.0
N16 N 0.14885 0.11253 0.32714 0.0
C17 C 0.13364 0.13245 0.31222 0.0
C18 C 0.1484 0.1529 0.3298 0.0
C19 C 0.17428 0.14518 0.35749 0.0
C20 C 0.17406 0.12036 0.35559 0.0
N21 N 0.14219 0.08191 0.24118 0.0
C22 C 0.1329 0.09886 0.14097 0.0
C23 C 0.15654 0.10864 0.17266 0.0
C24 C 0.16122 0.09964 0.22203 0.0
C25 C 0.11619 0.07909 0.15953 0.0
C26 C 0.12137 0.07082 0.20867 0.0
N27 N 0.12252 0.07855 0.38718 0.0
C28 C 0.09222 0.09789 0.4525 0.0
C29 C 0.10697 0.08428 0.48934 0.0
C30 C 0.12836 0.06623 0.47397 0.0
C31 C 0.13551 0.0634 0.42212 0.0
C32 C 0.10121 0.09553 0.40293 0.0
H33 H 0.15218 0.04972 0.41057 0.0
H34 H 0.09146 0.10862 0.37814 0.0
H35 H 0.17874 0.10825 0.24573 0.0
H36 H 0.10572 0.05692 0.22131 0.0
C37 C 0.17152 0.02909 0.30012 0.0
C38 C 0.19928 0.10464 0.37757 0.0
C39 C 0.06038 0.05011 0.30745 0.0
C40 C 0.10304 0.13072 0.29013 0.0
H41 H 0.25064 0.06937 0.37734 0.0
H42 H 0.23642 0.02946 0.32931 0.0
H43 H 0.13203 0.98777 0.28692 0.0
H44 H 0.0712 0.99915 0.29656 0.0
H45 H 0.01291 0.08498 0.27619 0.0
H46 H 0.03648 0.12884 0.26209 0.0
H47 H 0.14053 0.17123 0.32511 0.0
H48 H 0.19134 0.15645 0.37686 0.0
H49 H 0.17079 0.12358 0.15994 0.0
H50 H 0.09747 0.07084 0.13745 0.0
H51 H 0.07503 0.11162 0.46227 0.0
H52 H 0.14017 0.05511 0.50159 0.0
C53 C 0.88327 0.63608 0.47769 0.0
C54 C 0.85305 0.63453 0.45708 0.0
C55 C 0.83234 0.63379 0.49683 0.0
C56 C 0.85107 0.63496 0.53922 0.0
N57 N 0.88218 0.63649 0.52852 0.0
Co58 Co 0.91728 0.63879 0.57794 0.0
N59 N 0.8911 0.62313 0.62984 0.0
C60 C 0.85914 0.62158 0.62965 0.0
C61 C 0.84742 0.60907 0.66978 0.0
C62 C 0.87355 0.60263 0.69719 0.0
C63 C 0.90002 0.61183 0.67237 0.0
N64 N 0.95185 0.64133 0.62754 0.0
C65 C 0.95528 0.63016 0.67258 0.0
C66 C 0.98264 0.63817 0.69652 0.0
C67 C 0.99638 0.6549 0.66519 0.0
C68 C 0.97672 0.65633 0.62385 0.0
N69 N 0.94222 0.65386 0.52343 0.0
C70 C 0.96827 0.66739 0.52992 0.0
C71 C 0.98199 0.67319 0.48442 0.0
C72 C 0.9633 0.66253 0.44767 0.0
C73 C 0.93917 0.65068 0.47262 0.0
N74 N 0.90235 0.6714 0.60224 0.0
C75 C 0.89765 0.71929 0.64393 0.0
C76 C 0.89804 0.71484 0.59127 0.0
C77 C 0.90026 0.69106 0.5714 0.0
C78 C 0.89767 0.69872 0.67437 0.0
C79 C 0.89996 0.67545 0.65325 0.0
N80 N 0.9354 0.60699 0.55728 0.0
C81 C 0.98429 0.58469 0.5432 0.0
C82 C 0.9689 0.56257 0.5466 0.0
C83 C 0.93564 0.56329 0.55457 0.0
C84 C 0.91936 0.58561 0.55951 0.0
C85 C 0.96748 0.60618 0.54819 0.0
H86 H 0.89412 0.58553 0.56683 0.0
H87 H 0.98146 0.62221 0.54756 0.0
H88 H 0.90152 0.68873 0.53103 0.0
H89 H 0.90168 0.66079 0.67918 0.0
C90 C 0.84143 0.62854 0.58757 0.0
C91 C 0.91247 0.63753 0.4483 0.0
C92 C 0.93196 0.61329 0.69479 0.0
C93 C 0.98282 0.66852 0.57806 0.0
H94 H 0.84674 0.63361 0.41758 0.0
H95 H 0.80692 0.63106 0.49498 0.0
H96 H 0.82291 0.6046 0.67753 0.0
H97 H 0.87288 0.59302 0.73246 0.0
H98 H 0.99157 0.6326 0.73289 0.0
H99 H 0.01852 0.66433 0.6713 0.0
H100 H 1.0041 0.68265 0.47862 0.0
H101 H 0.96715 0.66312 0.40741 0.0
H102 H 0.89693 0.72965 0.56516 0.0
H103 H 0.89742 0.70048 0.71499 0.0
H104 H 0.00983 0.58564 0.53919 0.0
H105 H 0.92233 0.54677 0.55762 0.0
C106 C 0.31149 0.45649 0.85747 0.0
C107 C 0.28468 0.471 0.86032 0.0
C108 C 0.29197 0.49196 0.83643 0.0
C109 C 0.32279 0.48937 0.82082 0.0
N110 N 0.3354 0.46799 0.8332 0.0
Co111 Co 0.37985 0.45785 0.81961 0.0
N112 N 0.39423 0.49161 0.81395 0.0
C113 C 0.37539 0.51063 0.80517 0.0
C114 C 0.39172 0.53187 0.80298 0.0
C115 C 0.42288 0.52582 0.81029 0.0
C116 C 0.42382 0.50108 0.81638 0.0
N117 N 0.42399 0.44806 0.80422 0.0
C118 C 0.45129 0.46115 0.80477 0.0
C119 C 0.47659 0.4471 0.789 0.0
C120 C 0.46442 0.42465 0.77811 0.0
C121 C 0.43234 0.42613 0.78756 0.0
N122 N 0.3644 0.42453 0.82828 0.0
C123 C 0.3795 0.40483 0.81154 0.0
C124 C 0.36421 0.38417 0.8262 0.0
C125 C 0.33806 0.39153 0.85374 0.0
C126 C 0.33867 0.41635 0.85472 0.0
N127 N 0.37218 0.45603 0.74521 0.0
C128 C 0.3828 0.43858 0.64545 0.0
C129 C 0.35788 0.42967 0.6755 0.0
C130 C 0.35261 0.43889 0.72466 0.0
C131 C 0.39961 0.45827 0.66482 0.0
C132 C 0.39388 0.46672 0.71391 0.0
N133 N 0.39045 0.45771 0.89194 0.0
C134 C 0.42026 0.43716 0.95596 0.0
C135 C 0.40923 0.4526 0.99321 0.0
C136 C 0.38903 0.47158 0.97843 0.0
C137 C 0.3802 0.47402 0.92704 0.0
C138 C 0.40987 0.43944 0.90708 0.0
H139 H 0.36483 0.48859 0.91588 0.0
H140 H 0.41765 0.42573 0.88182 0.0
H141 H 0.33424 0.43081 0.74727 0.0
H142 H 0.4097 0.48037 0.72772 0.0
C143 C 0.34241 0.50833 0.80666 0.0
C144 C 0.31332 0.43184 0.87722 0.0
C145 C 0.45331 0.48706 0.8175 0.0
C146 C 0.41051 0.40679 0.79101 0.0
H147 H 0.26235 0.46738 0.87867 0.0
H148 H 0.27729 0.50786 0.83418 0.0
H149 H 0.38207 0.54969 0.79794 0.0
H150 H 0.44268 0.53817 0.80986 0.0
H151 H 0.50117 0.45251 0.78573 0.0
H152 H 0.47768 0.40893 0.76665 0.0
H153 H 0.37186 0.36589 0.81969 0.0
H154 H 0.32055 0.38001 0.87104 0.0
H155 H 0.34297 0.41525 0.66175 0.0
H156 H 0.41873 0.46625 0.64343 0.0
H157 H 0.43632 0.42255 0.96466 0.0
H158 H 0.37956 0.48395 1.00611 0.0
C159 C 0.63192 0.90081 0.99391 0.0
C160 C 0.66178 0.90107 0.97181 0.0
C161 C 0.68349 0.89978 1.01037 0.0
C162 C 0.66573 0.89885 0.05366 0.0
N163 N 0.63433 0.89959 0.04467 0.0
Co164 Co 0.60075 0.89808 0.09642 0.0
N165 N 0.62991 0.91115 0.14769 0.0
C166 C 0.66147 0.90715 0.14771 0.0
C167 C 0.67529 0.9111 0.19373 0.0
C168 C 0.65082 0.91799 0.22447 0.0
C169 C 0.62355 0.91899 0.19469 0.0
N170 N 0.56757 0.89681 0.1484 0.0
C171 C 0.56668 0.90758 0.19465 0.0
C172 C 0.54354 0.8963 0.2235 0.0
C173 C 0.52805 0.88006 0.19259 0.0
C174 C 0.54347 0.88107 0.14717 0.0
N175 N 0.57323 0.88461 0.04316 0.0
C176 C 0.54729 0.87128 0.05155 0.0
C177 C 0.53221 0.86529 1.00708 0.0
C178 C 0.55011 0.87548 0.969 0.0
C179 C 0.57522 0.88724 0.99214 0.0
N180 N 0.61395 0.8645 0.1173 0.0
C181 C 0.62004 0.8159 0.15378 0.0
C182 C 0.61919 0.82135 0.10162 0.0
C183 C 0.61632 0.84551 0.08432 0.0
C184 C 0.61907 0.83575 0.18636 0.0
C185 C 0.61596 0.85931 0.16787 0.0
N186 N 0.58432 0.93075 0.07914 0.0
C187 C 0.53645 0.95462 0.06807 0.0
C188 C 0.55321 0.97612 0.07114 0.0
C189 C 0.58664 0.9744 0.0761 0.0
C190 C 0.60172 0.95154 0.08044 0.0
C191 C 0.55207 0.93261 0.07211 0.0
H192 H 0.62711 0.9507 0.08638 0.0
H193 H 0.53717 0.91703 0.07207 0.0
H194 H 0.61497 0.8487 0.04424 0.0
H195 H 0.61354 0.87318 0.19569 0.0
C196 C 0.67728 0.90106 0.10299 0.0
C197 C 0.60196 0.89942 0.96574 0.0
C198 C 0.59148 0.92492 0.21304 0.0
C199 C 0.53522 0.86931 0.10132 0.0
H200 H 0.66729 0.90172 0.93204 0.0
H201 H 0.7091 0.90024 1.00721 0.0
H202 H 0.70001 0.90892 0.20394 0.0
H203 H 0.65281 0.92134 0.26452 0.0
H204 H 0.53976 0.89777 0.26356 0.0
H205 H 0.50851 0.86845 0.20268 0.0
H206 H 0.51007 0.85564 1.00279 0.0
H207 H 0.5453 0.87439 0.92901 0.0
H208 H 0.62058 0.80705 0.07402 0.0
H209 H 0.6193 0.83316 0.22675 0.0
H210 H 0.51087 0.95472 0.0636 0.0
H211 H 0.60085 0.99054 0.07845 0.0
C212 C 0.20875 0.45656 0.03794 0.0
C213 C 0.23517 0.47141 0.03457 0.0
C214 C 0.22745 0.49245 0.05814 0.0
C215 C 0.19674 0.48959 0.074 0.0
N216 N 0.18458 0.46796 0.06206 0.0
Co217 Co 0.14025 0.45747 0.07548 0.0
N218 N 0.12525 0.49114 0.08069 0.0
C219 C 0.14374 0.5104 0.08939 0.0
C220 C 0.12705 0.53148 0.09153 0.0
C221 C 0.09601 0.5251 0.08426 0.0
C222 C 0.0955 0.50032 0.07823 0.0
N223 N 0.09624 0.44734 0.09052 0.0
C224 C 0.06871 0.46018 0.08996 0.0
C225 C 0.04365 0.44597 0.10576 0.0
C226 C 0.05619 0.4237 0.11673 0.0
C227 C 0.08825 0.42542 0.10727 0.0
N228 N 0.15641 0.42423 0.06737 0.0
C229 C 0.14163 0.40451 0.08431 0.0
C230 C 0.1575 0.3839 0.07047 0.0
C231 C 0.18369 0.3913 0.04325 0.0
C232 C 0.18253 0.4161 0.04162 0.0
N233 N 0.14763 0.45621 0.15002 0.0
C234 C 0.13606 0.43893 0.24935 0.0
C235 C 0.16139 0.43007 0.21991 0.0
C236 C 0.16714 0.43922 0.17099 0.0
C237 C 0.11937 0.45855 0.22977 0.0
C238 C 0.12558 0.46694 0.18093 0.0
N239 N 0.12984 0.45676 1.00308 0.0
C240 C 0.1003 0.43561 0.9392 0.0
C241 C 0.11011 0.45145 0.90211 0.0
C242 C 0.12971 0.47085 0.91696 0.0
C243 C 0.13901 0.47337 0.96818 0.0
C244 C 0.11114 0.43803 0.98789 0.0
H245 H 0.15379 0.48832 0.9794 0.0
H246 H 0.10406 0.42419 1.0131 0.0
H247 H 0.18582 0.43116 0.14883 0.0
H248 H 0.10982 0.48051 0.1669 0.0
C249 C 0.17674 0.50842 0.08793 0.0
C250 C 0.20768 0.43165 1.01909 0.0
C251 C 0.06623 0.48604 0.07738 0.0
C252 C 0.11048 0.40629 0.1044 0.0
H253 H 0.25753 0.4679 1.01608 0.0
H254 H 0.24175 0.50856 0.06001 0.0
H255 H 0.13638 0.54942 0.09654 0.0
H256 H 0.076 0.53729 0.08478 0.0
H257 H 0.01899 0.45119 0.10911 0.0
H258 H 0.04322 0.40793 0.12838 0.0
H259 H 0.15023 0.3656 0.07735 0.0
H260 H 0.20159 0.37983 0.0266 0.0
H261 H 0.17624 0.41572 0.23391 0.0
H262 H 0.09998 0.46652 0.25072 0.0
H263 H 0.08468 0.4207 0.93063 0.0
H264 H 0.13829 0.48354 0.88947 0.0
C265 C 0.63678 0.63532 0.41424 0.0
C266 C 0.6671 0.63389 0.43447 0.0
C267 C 0.68761 0.63297 0.39444 0.0
C268 C 0.66867 0.63392 0.35228 0.0
N269 N 0.63761 0.63549 0.3634 0.0
Co270 Co 0.60224 0.63743 0.3145 0.0
N271 N 0.62815 0.62142 0.26244 0.0
C272 C 0.66012 0.61997 0.26205 0.0
C273 C 0.6716 0.60722 0.22181 0.0
C274 C 0.64529 0.60049 0.19501 0.0
C275 C 0.61895 0.60975 0.2203 0.0
N276 N 0.56737 0.6396 0.26546 0.0
C277 C 0.56362 0.62799 0.22081 0.0
C278 C 0.53603 0.63569 0.19724 0.0
C279 C 0.52246 0.6527 0.22844 0.0
C280 C 0.54245 0.65458 0.26933 0.0
N281 N 0.57757 0.65285 0.36917 0.0
C282 C 0.55144 0.66631 0.36294 0.0
C283 C 0.53794 0.67235 0.40859 0.0
C284 C 0.55686 0.66192 0.44516 0.0
C285 C 0.58089 0.64996 0.41995 0.0
N286 N 0.61694 0.66984 0.28947 0.0
C287 C 0.6213 0.71719 0.24624 0.0
C288 C 0.62102 0.71345 0.299 0.0
C289 C 0.61891 0.68988 0.31968 0.0
C290 C 0.62166 0.69627 0.21653 0.0
C291 C 0.61935 0.67329 0.23833 0.0
N292 N 0.58437 0.60576 0.33557 0.0
C293 C 0.53548 0.58336 0.34778 0.0
C294 C 0.55093 0.56143 0.34174 0.0
C295 C 0.58428 0.56207 0.33586 0.0
C296 C 0.60054 0.58442 0.33266 0.0
C297 C 0.5523 0.6049 0.34486 0.0
H298 H 0.62581 0.58442 0.32567 0.0
H299 H 0.53835 0.62093 0.34702 0.0
H300 H 0.61748 0.68804 0.36011 0.0
H301 H 0.61776 0.65836 0.21268 0.0
C302 C 0.67806 0.62723 0.3038 0.0
C303 C 0.60771 0.63693 0.44397 0.0
C304 C 0.58675 0.61082 0.19878 0.0
C305 C 0.53657 0.66709 0.31504 0.0
H306 H 0.6736 0.63317 0.47389 0.0
H307 H 0.71305 0.63025 0.39598 0.0
H308 H 0.69608 0.60277 0.21362 0.0
H309 H 0.64574 0.59061 0.15987 0.0
H310 H 0.52679 0.62969 0.16127 0.0
H311 H 0.50019 0.66198 0.22261 0.0
H312 H 0.51581 0.6818 0.41463 0.0
H313 H 0.55319 0.66272 0.48546 0.0
H314 H 0.62117 0.72868 0.32439 0.0
H315 H 0.62322 0.69748 0.17594 0.0
H316 H 0.51 0.58396 0.35331 0.0
H317 H 0.59748 0.54553 0.3316 0.0
C318 C 0.30417 0.08262 0.54838 0.0
C319 C 0.27706 0.06869 0.55416 0.0
C320 C 0.28632 0.0478 0.57598 0.0
C321 C 0.31849 0.04973 0.58158 0.0
N322 N 0.33061 0.0706 0.56491 0.0
Co323 Co 0.37718 0.07913 0.56466 0.0
N324 N 0.39044 0.0455 0.58221 0.0
C325 C 0.37073 0.02758 0.5952 0.0
C326 C 0.38576 1.00634 0.60512 0.0
C327 C 0.41725 1.011 0.59869 0.0
C328 C 0.41964 0.03504 0.58575 0.0
N329 N 0.42333 0.08769 0.56519 0.0
C330 C 0.44984 0.07379 0.57126 0.0
C331 C 0.47713 0.08764 0.56988 0.0
C332 C 0.46749 0.11091 0.5629 0.0
C333 C 0.43491 0.11002 0.56043 0.0
N334 N 0.36268 0.11237 0.54608 0.0
C335 C 0.38172 0.13166 0.5434 0.0
C336 C 0.36621 0.15189 0.52705 0.0
C337 C 0.33538 0.14497 0.51847 0.0
C338 C 0.33363 0.12084 0.53009 0.0
N339 N 0.37626 0.08786 0.63874 0.0
C340 C 0.38665 0.10543 0.73962 0.0
C341 C 0.3626 0.11496 0.70827 0.0
C342 C 0.3576 0.10584 0.65849 0.0
C343 C 0.4046 0.08671 0.71906 0.0
C344 C 0.39913 0.07836 0.66985 0.0
N345 N 0.38135 0.07148 0.4909 0.0
C346 C 0.37359 0.08844 0.40811 0.0
C347 C 0.40461 0.08233 0.39415 0.0
C348 C 0.42128 0.06686 0.42575 0.0
C349 C 0.40881 0.0612 0.47317 0.0
C350 C 0.36214 0.082 0.45578 0.0
H351 H 0.4227 0.04959 0.49581 0.0
H352 H 0.33824 0.08625 0.46416 0.0
H353 H 0.33919 0.11385 0.63577 0.0
H354 H 0.41509 0.06483 0.65697 0.0
C355 C 0.33818 0.03093 0.59512 0.0
C356 C 0.3038 0.10667 0.52497 0.0
C357 C 0.45012 0.04751 0.57915 0.0
C358 C 0.4145 0.12932 0.55091 0.0
H359 H 0.25306 0.07245 0.54253 0.0
H360 H 0.27153 0.03243 0.58415 0.0
H361 H 0.37506 0.98941 0.61532 0.0
H362 H 0.43616 0.9981 0.60349 0.0
H363 H 0.50141 0.08154 0.57365 0.0
H364 H 0.4825 0.12656 0.55947 0.0
H365 H 0.37636 0.16941 0.52037 0.0
H366 H 0.31637 0.15624 0.50465 0.0
H367 H 0.34771 0.1294 0.72199 0.0
H368 H 0.42394 0.07888 0.74033 0.0
H369 H 0.35852 0.09856 0.38283 0.0
H370 H 0.44449 0.06017 0.41517 0.0
C371 C 0.89064 0.90035 0.91063 0.0
C372 C 0.86088 0.90289 0.93234 0.0
C373 C 0.83958 0.90463 0.89349 0.0
C374 C 0.85746 0.90306 0.85039 0.0
N375 N 0.88866 0.90034 0.85962 0.0
Co376 Co 0.92257 0.8975 0.80794 0.0
N377 N 0.89565 0.91359 0.75695 0.0
C378 C 0.86382 0.91596 0.75917 0.0
C379 C 0.85131 0.92793 0.71883 0.0
C380 C 0.87675 0.93315 0.68895 0.0
C381 C 0.90358 0.92387 0.7127 0.0
N382 N 0.95599 0.89445 0.75624 0.0
C383 C 0.95838 0.90493 0.71019 0.0
C384 C 0.98495 0.8964 0.68505 0.0
C385 C 0.99929 0.87997 0.71644 0.0
C386 C 0.98075 0.87927 0.75903 0.0
N387 N 0.94841 0.88205 0.86138 0.0
C388 C 0.97413 0.86834 0.85332 0.0
C389 C 0.98827 0.86146 0.89784 0.0
C390 C 0.97023 0.87157 0.93586 0.0
C391 C 0.94602 0.88419 0.91263 0.0
N392 N 0.90642 0.86505 0.78421 0.0
C393 C 0.90032 0.81751 0.74112 0.0
C394 C 0.90238 0.82143 0.79381 0.0
C395 C 0.90534 0.84508 0.81442 0.0
C396 C 0.89902 0.83835 0.71164 0.0
C397 C 0.90215 0.86139 0.73333 0.0
N398 N 0.94155 0.9291 0.82773 0.0
C399 C 0.99064 0.95155 0.83844 0.0
C400 C 0.97487 0.97356 0.83589 0.0
C401 C 0.94138 0.97276 0.83223 0.0
C402 C 0.92521 0.9504 0.82794 0.0
C403 C 0.97388 0.92994 0.83445 0.0
H404 H 0.89973 0.95038 0.82297 0.0
H405 H 0.98783 0.91386 0.8344 0.0
H406 H 0.90816 0.84702 0.85469 0.0
H407 H 0.90288 0.87615 0.70755 0.0
C408 C 0.84711 0.90974 0.80256 0.0
C409 C 0.92001 0.89704 0.93947 0.0
C410 C 0.93477 0.92165 0.68826 0.0
C411 C 0.98759 0.86716 0.80457 0.0
H412 H 0.85517 0.90369 0.97204 0.0
H413 H 0.81437 0.90815 0.8964 0.0
H414 H 0.82673 0.93271 0.71233 0.0
H415 H 0.87535 0.94203 0.65286 0.0
H416 H 0.9929 0.90135 0.64778 0.0
H417 H 0.02099 0.87013 0.70937 0.0
H418 H 0.01012 0.85146 0.90226 0.0
H419 H 0.97451 0.87005 0.97592 0.0
H420 H 0.903 0.80626 0.81907 0.0
H421 H 0.89616 0.83701 0.6712 0.0
H422 H 0.01623 0.95094 0.84248 0.0
H423 H 0.92789 0.98926 0.83067 0.0
C424 C 0.70875 0.5786 0.85493 0.0
C425 C 0.73547 0.56398 0.8572 0.0
C426 C 0.72782 0.54299 0.83328 0.0
C427 C 0.69688 0.54566 0.81821 0.0
N428 N 0.68455 0.56712 0.83095 0.0
Co429 Co 0.64003 0.57739 0.81833 0.0
N430 N 0.62535 0.54367 0.81292 0.0
C431 C 0.64397 0.52455 0.80368 0.0
C432 C 0.62748 0.50337 0.80179 0.0
C433 C 0.59644 0.50956 0.80979 0.0
C434 C 0.59572 0.53434 0.81593 0.0
N435 N 0.5958 0.58733 0.80406 0.0
C436 C 0.56842 0.57435 0.80507 0.0
C437 C 0.54306 0.58847 0.78989 0.0
C438 C 0.55527 0.61083 0.77888 0.0
C439 C 0.58744 0.60925 0.78767 0.0
N440 N 0.65587 0.61068 0.82668 0.0
C441 C 0.64077 0.63038 0.81024 0.0
C442 C 0.65633 0.65102 0.8248 0.0
C443 C 0.68264 0.64364 0.85194 0.0
C444 C 0.68185 0.61883 0.85282 0.0
N445 N 0.64687 0.57888 0.74373 0.0
C446 C 0.63586 0.59535 0.6435 0.0
C447 C 0.66087 0.60456 0.67326 0.0
C448 C 0.66638 0.59578 0.7226 0.0
C449 C 0.61862 0.57623 0.66388 0.0
C450 C 0.62466 0.56817 0.71303 0.0
N451 N 0.63022 0.57785 0.89086 0.0
C452 C 0.60144 0.5989 0.95557 0.0
C453 C 0.61197 0.58313 0.99231 0.0
C454 C 0.63146 0.56378 0.97695 0.0
C455 C 0.64007 0.5613 0.92549 0.0
C456 C 0.61149 0.59647 0.90655 0.0
H457 H 0.65487 0.54644 0.91385 0.0
H458 H 0.6039 0.61027 0.88157 0.0
H459 H 0.68494 0.60402 0.74484 0.0
H460 H 0.60869 0.55484 0.72739 0.0
C461 C 0.67697 0.52673 0.80443 0.0
C462 C 0.70724 0.60329 0.87495 0.0
C463 C 0.56633 0.54847 0.81753 0.0
C464 C 0.60949 0.62849 0.7905 0.0
H465 H 0.75799 0.56753 0.87522 0.0
H466 H 0.74236 0.52702 0.83069 0.0
H467 H 0.63695 0.48549 0.7965 0.0
H468 H 0.57656 0.49728 0.80973 0.0
H469 H 0.51841 0.58314 0.78703 0.0
H470 H 0.54202 0.62656 0.7677 0.0
H471 H 0.64873 0.66931 0.81858 0.0
H472 H 0.70035 0.65514 0.86909 0.0
H473 H 0.67559 0.61892 0.65909 0.0
H474 H 0.59893 0.56841 0.64335 0.0
H475 H 0.58592 0.6138 0.96474 0.0
H476 H 0.6405 0.55114 1.00427 0.0
C477 C 0.38486 0.13693 0.98002 0.0
C478 C 0.35429 0.13461 0.96107 0.0
C479 C 0.33453 0.13308 1.00183 0.0
C480 C 0.35407 0.1346 0.04318 0.0
N481 N 0.38489 0.13708 0.03109 0.0
Co482 Co 0.42067 0.14041 0.07951 0.0
N483 N 0.39576 0.12468 0.13322 0.0
C484 C 0.3639 0.12229 0.13396 0.0
C485 C 0.35302 0.1105 0.1756 0.0
C486 C 0.37959 0.10545 0.20319 0.0
C487 C 0.40545 0.11464 0.17682 0.0
N488 N 0.45595 0.14398 0.12792 0.0
C489 C 0.46013 0.13383 0.17393 0.0
C490 C 0.48763 0.14251 0.19632 0.0
C491 C 0.50072 0.15868 0.16313 0.0
C492 C 0.48056 0.15909 0.1223 0.0
N493 N 0.44432 0.15553 1.02321 0.0
C494 C 0.47029 0.16929 0.02842 0.0
C495 C 0.48277 0.17569 0.98244 0.0
C496 C 0.46337 0.16523 0.94648 0.0
C497 C 0.44003 0.15291 0.97232 0.0
N498 N 0.40512 0.17295 0.10374 0.0
C499 C 0.39969 0.22043 0.14725 0.0
C500 C 0.40069 0.21657 0.09446 0.0
C501 C 0.40331 0.19292 0.07362 0.0
C502 C 0.39908 0.19959 0.17667 0.0
C503 C 0.40202 0.17661 0.15482 0.0
N504 N 0.43929 0.10863 0.05975 0.0
C505 C 0.4885 0.08635 0.04779 0.0
C506 C 0.47381 0.06437 0.05766 0.0
C507 C 0.44054 0.06505 0.06531 0.0
C508 C 0.42379 0.08722 0.06597 0.0
C509 C 0.47119 0.10784 0.04901 0.0
H510 H 0.39862 0.08707 0.07376 0.0
H511 H 0.48465 0.124 0.04451 0.0
H512 H 0.40523 0.19101 0.03323 0.0
H513 H 0.40357 0.16195 0.18068 0.0
C514 C 0.34551 0.12827 0.09204 0.0
C515 C 0.41305 0.13982 0.94844 0.0
C516 C 0.43751 0.11718 0.1983 0.0
C517 C 0.48562 0.17081 0.07579 0.0
H518 H 0.34712 0.13387 0.92192 0.0
H519 H 0.30919 0.1298 1.00127 0.0
H520 H 0.32875 0.10574 0.18446 0.0
H521 H 0.37956 0.09678 0.23954 0.0
H522 H 0.49704 0.13778 0.23291 0.0
H523 H 0.52268 0.16852 0.16784 0.0
H524 H 0.50445 0.18557 0.9757 0.0
H525 H 0.46623 0.16632 0.90607 0.0
H526 H 0.40072 0.23176 0.06924 0.0
H527 H 0.39696 0.20085 0.21722 0.0
H528 H 0.5139 0.08726 0.04176 0.0
H529 H 0.42747 0.04864 0.07153 0.0
C530 C 0.80524 0.94669 0.32812 0.0
C531 C 0.77744 0.95607 0.30816 0.0
C532 C 0.7852 0.97779 0.28799 0.0
C533 C 0.81732 0.98003 0.29533 0.0
N534 N 0.83073 0.96088 0.31751 0.0
Co535 Co 0.87757 0.95452 0.3234 0.0
N536 N 0.88891 0.98712 0.29694 0.0
C537 C 0.86799 1.00459 0.28514 0.0
C538 C 0.88196 0.02549 0.26996 0.0
C539 C 0.91379 0.02124 0.27247 0.0
C540 C 0.91755 0.99772 0.28852 0.0
N541 N 0.92429 0.94785 0.32747 0.0
C542 C 0.94991 0.96154 0.31455 0.0
C543 C 0.97809 0.94956 0.32448 0.0
C544 C 0.97 0.92799 0.34532 0.0
C545 C 0.93742 0.92788 0.34668 0.0
N546 N 0.86481 0.92245 0.35267 0.0
C547 C 0.88555 0.90619 0.37082 0.0
C548 C 0.87143 0.88822 0.3977 0.0
C549 C 0.83976 0.89361 0.39822 0.0
C550 C 0.83593 0.9146 0.37101 0.0
N551 N 0.87846 0.94107 0.25238 0.0
C552 C 0.89372 0.92571 0.15141 0.0
C553 C 0.90014 0.91135 0.19364 0.0
C554 C 0.89231 0.91917 0.24291 0.0
C555 C 0.87741 0.94729 0.16128 0.0
C556 C 0.87015 0.95454 0.21117 0.0
N557 N 0.87955 0.96718 0.39402 0.0
C558 C 0.91908 0.97229 0.45949 0.0
C559 C 0.90089 0.95853 0.49251 0.0
C560 C 0.86936 0.95379 0.47871 0.0
C561 C 0.85885 0.95936 0.42995 0.0
C562 C 0.90742 0.97708 0.41095 0.0
H563 H 0.83474 0.95584 0.42083 0.0
H564 H 0.92244 0.98682 0.38603 0.0
H565 H 0.89876 0.90755 0.27326 0.0
H566 H 0.85848 0.97146 0.21561 0.0
C567 C 0.83546 1.00009 0.28388 0.0
C568 C 0.80507 0.92776 0.36659 0.0
C569 C 0.94877 0.98679 0.29796 0.0
C570 C 0.91832 0.90986 0.36687 0.0
H571 H 0.75364 0.94903 0.31242 0.0
H572 H 0.76913 0.99082 0.2718 0.0
H573 H 0.87036 0.0418 0.25781 0.0
H574 H 0.93199 0.0342 0.26364 0.0
H575 H 1.002 0.95613 0.31888 0.0
H576 H 0.98601 0.91426 0.35887 0.0
H577 H 0.88304 0.87368 0.41736 0.0
H578 H 0.82218 0.88356 0.41855 0.0
H579 H 0.91221 0.89434 0.18907 0.0
H580 H 0.8702 0.95879 0.13059 0.0
H581 H 0.94286 0.9779 0.46969 0.0
H582 H 0.85332 0.94504 0.50465 0.0
C583 C 0.13454 0.40095 0.47989 0.0
C584 C 0.16494 0.40239 0.46011 0.0
C585 C 0.18533 0.40312 0.50042 0.0
C586 C 0.16626 0.40203 0.54229 0.0
N587 N 0.13523 0.40056 0.53075 0.0
Co588 Co 0.0998 0.39824 0.5793 0.0
N589 N 0.12553 0.41404 0.63196 0.0
C590 C 0.1575 0.41544 0.63276 0.0
C591 C 0.1689 0.4279 0.67348 0.0
C592 C 0.14254 0.43446 0.70021 0.0
C593 C 0.11625 0.42542 0.67434 0.0
N594 N 0.06491 0.3957 0.62803 0.0
C595 C 0.061 0.40711 0.67285 0.0
C596 C 0.03344 0.3992 0.69601 0.0
C597 C 0.02005 0.38227 0.66435 0.0
C598 C 0.04012 0.38064 0.62363 0.0
N599 N 0.07531 0.38305 0.52404 0.0
C600 C 0.04925 0.36949 0.52978 0.0
C601 C 0.03589 0.36354 0.48393 0.0
C602 C 0.05482 0.37412 0.44771 0.0
C603 C 0.07877 0.38607 0.47331 0.0
N604 N 0.11473 0.36574 0.60371 0.0
C605 C 0.12017 0.31804 0.64514 0.0
C606 C 0.1199 0.32232 0.59251 0.0
C607 C 0.11735 0.34603 0.57277 0.0
C608 C 0.11947 0.33866 0.67574 0.0
C609 C 0.11674 0.36184 0.65479 0.0
N610 N 0.08174 0.42995 0.55869 0.0
C611 C 0.03288 0.45249 0.54631 0.0
C612 C 0.04859 0.47442 0.55035 0.0
C613 C 0.08199 0.47361 0.55615 0.0
C614 C 0.09808 0.45122 0.56052 0.0
C615 C 0.04958 0.43089 0.55004 0.0
H616 H 0.1234 0.45115 0.56725 0.0
H617 H 0.03557 0.41487 0.54857 0.0
H618 H 0.11628 0.34825 0.53238 0.0
H619 H 0.1144 0.37652 0.68094 0.0
C620 C 0.17554 0.40841 0.59104 0.0
C621 C 0.10559 0.39925 0.44966 0.0
C622 C 0.08398 0.42427 0.69543 0.0
C623 C 0.03437 0.36838 0.57756 0.0
H624 H 0.17161 0.40317 0.4208 0.0
H625 H 0.21079 0.40575 0.49927 0.0
H626 H 0.19337 0.43227 0.68208 0.0
H627 H 0.14295 0.44407 0.73567 0.0
H628 H 0.02408 0.40502 0.73198 0.0
H629 H 0.99783 0.3729 0.66977 0.0
H630 H 0.01384 0.35403 0.47752 0.0
H631 H 0.05118 0.37344 0.40738 0.0
H632 H 0.12138 0.30744 0.56636 0.0
H633 H 0.11951 0.33698 0.71635 0.0
H634 H 1.00737 0.45194 0.54107 0.0
H635 H 0.09541 0.4901 0.55925 0.0
C636 C 0.70372 0.95013 0.55951 0.0
C637 C 0.73213 0.96048 0.57488 0.0
C638 C 0.72427 0.98022 0.60348 0.0
C639 C 0.69163 0.98046 0.60496 0.0
N640 N 0.6787 0.96208 0.57937 0.0
Co641 Co 0.6334 0.95331 0.58044 0.0
N642 N 0.62072 0.98684 0.59386 0.0
C643 C 0.63976 1.00395 0.61325 0.0
C644 C 0.62455 0.02556 0.61902 0.0
C645 C 0.594 0.02163 0.60283 0.0
C646 C 0.5922 0.9977 0.58823 0.0
N647 N 0.58818 0.94447 0.58316 0.0
C648 C 0.56191 0.9586 0.58074 0.0
C649 C 0.5348 0.94477 0.58646 0.0
C650 C 0.5448 0.92139 0.593 0.0
C651 C 0.57745 0.92211 0.59109 0.0
N652 N 0.64795 0.92027 0.56498 0.0
C653 C 0.63102 0.90034 0.57389 0.0
C654 C 0.6456 0.8804 0.55387 0.0
C655 C 0.67309 0.88848 0.53106 0.0
C656 C 0.67411 0.91318 0.53784 0.0
N657 N 0.6352 0.94698 0.65479 0.0
C658 C 0.6253 0.93092 0.75586 0.0
C659 C 0.6502 0.92176 0.72573 0.0
C660 C 0.65489 0.93011 0.67576 0.0
C661 C 0.60682 0.94916 0.73456 0.0
C662 C 0.61197 0.95674 0.68486 0.0
N663 N 0.62836 0.95833 0.50718 0.0
C664 C 0.60244 0.94319 0.43248 0.0
C665 C 0.60874 0.96415 0.40625 0.0
C666 C 0.62676 0.98207 0.43095 0.0
C667 C 0.63607 0.9789 0.48198 0.0
C668 C 0.61233 0.94065 0.48179 0.0
H669 H 0.64879 0.99307 0.50124 0.0
H670 H 0.60565 0.92427 0.49963 0.0
H671 H 0.67371 0.92225 0.65352 0.0
H672 H 0.59551 0.96969 0.67017 0.0
C673 C 0.67237 0.99966 0.62042 0.0
C674 C 0.70094 0.9298 0.52399 0.0
C675 C 0.56237 0.98513 0.57641 0.0
C676 C 0.59858 0.90232 0.58781 0.0
H677 H 0.75589 0.95496 0.56444 0.0
H678 H 0.74038 0.99351 0.6188 0.0
H679 H 0.63451 0.04224 0.63273 0.0
H680 H 0.57499 0.0347 0.60339 0.0
H681 H 0.51043 0.95096 0.58623 0.0
H682 H 0.52993 0.90569 0.59697 0.0
H683 H 0.63641 0.86229 0.55288 0.0
H684 H 0.68985 0.87708 0.51201 0.0
H685 H 0.66592 0.90811 0.74045 0.0
H686 H 0.58731 0.95697 0.75549 0.0
H687 H 0.58989 0.9284 0.41481 0.0
H688 H 0.63298 0.99842 0.4115 0.0
C689 C 0.13514 0.13912 0.91142 0.0
C690 C 0.16547 0.13815 0.93171 0.0
C691 C 0.18602 0.13738 0.89171 0.0
C692 C 0.16708 0.13794 0.84951 0.0
N693 N 0.13599 0.13913 0.86059 0.0
Co694 Co 0.10055 0.14046 0.81171 0.0
N695 N 0.12689 0.12476 0.7597 0.0
C696 C 0.15889 0.12375 0.75934 0.0
C697 C 0.1707 0.11125 0.71901 0.0
C698 C 0.14457 0.10422 0.69209 0.0
C699 C 0.11801 0.11305 0.71744 0.0
N700 N 0.06559 0.14203 0.76272 0.0
C701 C 0.06215 0.13037 0.71809 0.0
C702 C 0.03431 0.13758 0.69455 0.0
C703 C 0.02024 0.15434 0.72575 0.0
C704 C 0.04019 0.15655 0.7666 0.0
N705 N 0.07543 0.15556 0.86626 0.0
C706 C 0.04887 0.16853 0.86002 0.0
C707 C 0.03521 0.17442 0.90563 0.0
C708 C 0.05447 0.1644 0.94222 0.0
C709 C 0.07885 0.15284 0.91704 0.0
N710 N 0.11449 0.17308 0.78651 0.0
C711 C 0.11921 0.2203 0.74252 0.0
C712 C 0.1183 0.21676 0.79535 0.0
C713 C 0.11601 0.19326 0.81641 0.0
C714 C 0.11987 0.19925 0.71325 0.0
C715 C 0.11734 0.17637 0.7354 0.0
N716 N 0.08366 0.10846 0.833 0.0
C717 C 0.03585 0.08487 0.84688 0.0
C718 C 0.05207 0.06317 0.8408 0.0
C719 C 0.08533 0.0648 0.8335 0.0
C720 C 0.10061 0.0875 0.82989 0.0
C721 C 0.05172 0.10685 0.84288 0.0
H722 H 0.12584 0.08805 0.82266 0.0
H723 H 0.03715 0.1226 0.84481 0.0
H724 H 0.1142 0.19157 0.85683 0.0
H725 H 0.11615 0.16135 0.71005 0.0
C726 C 0.17665 0.13129 0.8011 0.0
C727 C 0.10602 0.14031 0.94109 0.0
C728 C 0.08582 0.11374 0.69583 0.0
C729 C 0.03395 0.16898 0.81221 0.0
H730 H 0.17195 0.13763 0.97116 0.0
H731 H 0.21152 0.13501 0.89331 0.0
H732 H 0.19529 0.10719 0.71076 0.0
H733 H 0.14526 0.09446 0.6568 0.0
H734 H 0.02525 0.13146 0.65855 0.0
H735 H 0.9977 0.16324 0.71993 0.0
H736 H 0.01279 0.18348 0.91163 0.0
H737 H 0.05079 0.16519 0.98252 0.0
H738 H 0.11817 0.23211 0.82045 0.0
H739 H 0.12188 0.20026 0.67268 0.0
H740 H 0.01036 0.08509 0.85219 0.0
H741 H 0.09951 0.0487 0.82996 0.0
C742 C 0.8113 0.57859 0.03625 0.0
C743 C 0.7846 0.56401 0.03267 0.0
C744 C 0.79195 0.54293 0.05603 0.0
C745 C 0.82274 0.5455 0.07197 0.0
N746 N 0.83528 0.56698 0.06031 0.0
Co747 Co 0.87981 0.57703 0.07411 0.0
N748 N 0.89422 0.54321 0.0789 0.0
C749 C 0.87537 0.52414 0.08709 0.0
C750 C 0.89167 0.50288 0.08902 0.0
C751 C 0.92284 0.50894 0.08219 0.0
C752 C 0.92381 0.53372 0.07663 0.0
N753 N 0.92399 0.58669 0.08994 0.0
C754 C 0.95128 0.57356 0.08965 0.0
C755 C 0.97654 0.58753 0.10597 0.0
C756 C 0.96438 0.60996 0.11697 0.0
C757 C 0.93233 0.60856 0.10704 0.0
N758 N 0.86431 0.61041 0.06607 0.0
C759 C 0.87956 0.63002 0.0829 0.0
C760 C 0.8642 0.65077 0.06876 0.0
C761 C 0.83785 0.64355 0.0414 0.0
C762 C 0.83841 0.61873 0.04003 0.0
N763 N 0.87237 0.57847 0.14862 0.0
C764 C 0.88376 0.59525 0.24887 0.0
C765 C 0.85898 0.60467 0.21906 0.0
C766 C 0.85327 0.59574 0.16973 0.0
C767 C 0.90044 0.57572 0.22858 0.0
C768 C 0.89416 0.56748 0.17948 0.0
N769 N 0.89022 0.5776 1.0017 0.0
C770 C 0.91982 0.59847 0.93799 0.0
C771 C 0.90696 0.58424 0.90016 0.0
C772 C 0.88657 0.56533 0.91428 0.0
C773 C 0.87873 0.56212 0.96583 0.0
C774 C 0.91028 0.59557 0.98713 0.0
H775 H 0.86297 0.54773 0.97649 0.0
H776 H 0.91894 0.60878 1.01285 0.0
H777 H 0.83495 0.60417 0.14745 0.0
H778 H 0.90976 0.55381 0.16526 0.0
C779 C 0.84242 0.52647 0.08559 0.0
C780 C 0.81289 0.60339 1.01741 0.0
C781 C 0.95335 0.54768 0.07664 0.0
C782 C 0.91056 0.62794 0.10353 0.0
H783 H 0.7623 0.5677 1.0141 0.0
H784 H 0.77737 0.52698 0.05765 0.0
H785 H 0.88202 0.48505 0.0937 0.0
H786 H 0.94263 0.49656 0.08278 0.0
H787 H 1.0011 0.58207 0.10955 0.0
H788 H 0.97763 0.62563 0.12883 0.0
H789 H 0.87189 0.66901 0.07555 0.0
H790 H 0.82024 0.65516 0.02451 0.0
H791 H 0.84463 0.61933 0.23316 0.0
H792 H 0.91994 0.56769 0.2491 0.0
H793 H 0.93627 0.61283 0.92944 0.0
H794 H 0.87622 0.5537 0.88594 0.0
C795 C 0.38298 0.40068 0.41345 0.0
C796 C 0.35253 0.40207 0.43312 0.0
C797 C 0.33221 0.40279 0.39271 0.0
C798 C 0.35137 0.40176 0.3509 0.0
N799 N 0.38238 0.40034 0.36257 0.0
Co800 Co 0.41794 0.39819 0.31419 0.0
N801 N 0.39221 0.41394 0.26173 0.0
C802 C 0.36023 0.41513 0.26066 0.0
C803 C 0.34882 0.42749 0.22002 0.0
C804 C 0.3752 0.43423 0.19368 0.0
C805 C 0.40151 0.42539 0.21968 0.0
N806 N 0.45303 0.39593 0.26577 0.0
C807 C 0.45703 0.40755 0.22143 0.0
C808 C 0.48483 0.39992 0.19837 0.0
C809 C 0.49826 0.38295 0.22959 0.0
C810 C 0.47799 0.38103 0.26998 0.0
N811 N 0.4423 0.38284 0.36917 0.0
C812 C 0.46841 0.36931 0.36317 0.0
C813 C 0.48165 0.36323 0.40894 0.0
C814 C 0.4626 0.3737 0.44534 0.0
C815 C 0.43869 0.3857 0.41996 0.0
N816 N 0.40326 0.36573 0.28877 0.0
C817 C 0.39803 0.31813 0.24612 0.0
C818 C 0.39798 0.32233 0.29885 0.0
C819 C 0.40041 0.346 0.31921 0.0
C820 C 0.39893 0.33877 0.21601 0.0
C821 C 0.40157 0.36191 0.23756 0.0
N822 N 0.43579 0.42993 0.3357 0.0
C823 C 0.48455 0.45225 0.35092 0.0
C824 C 0.46958 0.4743 0.34324 0.0
C825 C 0.43641 0.47359 0.33427 0.0
C826 C 0.42 0.45132 0.3309 0.0
C827 C 0.46763 0.43075 0.34699 0.0
H828 H 0.39489 0.45142 0.32238 0.0
H829 H 0.48144 0.41469 0.34995 0.0
H830 H 0.40122 0.34817 0.35966 0.0
H831 H 0.40411 0.37662 0.21181 0.0
C832 C 0.34214 0.40807 0.30218 0.0
C833 C 0.41187 0.39889 0.44379 0.0
C834 C 0.43394 0.42463 0.19916 0.0
C835 C 0.48357 0.36855 0.31559 0.0
H836 H 0.3458 0.40277 0.47242 0.0
H837 H 0.30674 0.40535 0.3938 0.0
H838 H 0.32434 0.4317 0.21126 0.0
H839 H 0.37481 0.44385 0.15841 0.0
H840 H 0.4943 0.40593 0.16273 0.0
H841 H 0.52061 0.37373 0.22412 0.0
H842 H 0.50374 0.35377 0.4152 0.0
H843 H 0.46617 0.37295 0.48567 0.0
H844 H 0.39637 0.3074 0.32459 0.0
H845 H 0.39912 0.33712 0.17536 0.0
H846 H 0.50992 0.45135 0.35743 0.0
H847 H 0.42321 0.49006 0.32925 0.0
C848 C 0.2823 0.1147 0.43595 0.0
C849 C 0.27679 0.11341 0.48839 0.0
C850 C 0.25705 0.11463 0.40034 0.0
C851 C 0.22483 0.11286 0.41504 0.0
H852 H 0.30638 0.11435 0.42192 0.0
H853 H 0.26295 0.11399 0.36067 0.0
S854 S 0.19674 0.11558 0.54734 0.0
N855 N 0.23586 0.11612 0.55269 0.0
N856 N 0.18902 0.11407 0.48634 0.0
C857 C 0.2189 0.11424 0.4672 0.0
C858 C 0.24459 0.11503 0.50351 0.0
C859 C 0.88219 0.77314 0.73613 0.0
C860 C 0.90011 0.7924 0.71639 0.0
C861 C 0.88117 0.7501 0.71251 0.0
C862 C 0.89807 0.74467 0.66757 0.0
H863 H 0.86831 0.77595 0.76993 0.0
H864 H 0.86659 0.73642 0.72966 0.0
S865 S 0.95181 0.78763 0.60301 0.0
N866 N 0.93726 0.80338 0.65042 0.0
N867 N 0.93538 0.76084 0.60695 0.0
C868 C 0.91659 0.76366 0.64808 0.0
C869 C 0.91762 0.7871 0.67208 0.0
C870 C 0.2552 0.42178 0.89697 0.0
C871 C 0.28726 0.42323 0.91306 0.0
C872 C 0.22943 0.42207 0.93156 0.0
C873 C 0.2343 0.42297 0.98417 0.0
H874 H 0.24988 0.42274 0.85711 0.0
H875 H 0.20549 0.42342 0.91682 0.0
S876 S 0.31342 0.42251 0.04654 0.0
N877 N 0.32202 0.42287 0.98584 0.0
N878 N 0.27424 0.42176 0.05023 0.0
C879 C 0.26625 0.42155 1.00064 0.0
C880 C 0.29244 0.42207 0.96544 0.0
C881 C 0.63895 0.78473 0.21911 0.0
C882 C 0.62106 0.79024 0.17524 0.0
C883 C 0.63882 0.76159 0.2417 0.0
C884 C 0.62082 0.74228 0.22195 0.0
H885 H 0.65353 0.7985 0.23635 0.0
H886 H 0.65338 0.75878 0.2748 0.0
S887 S 0.56719 0.7471 0.11058 0.0
N888 N 0.5832 0.77404 0.11508 0.0
N889 N 0.58276 0.73125 0.15682 0.0
C890 C 0.60248 0.7476 0.17845 0.0
C891 C 0.60268 0.77117 0.15543 0.0
C892 C 0.76554 0.61297 0.89495 0.0
C893 C 0.73346 0.61187 0.91086 0.0
C894 C 0.79132 0.61268 0.92968 0.0
C895 C 0.78645 0.61218 0.98227 0.0
H896 H 0.77085 0.61173 0.85512 0.0
H897 H 0.81524 0.61103 0.91508 0.0
S898 S 0.70735 0.61375 0.04419 0.0
N899 N 0.69873 0.61304 0.98345 0.0
N900 N 0.74654 0.6142 0.04808 0.0
C901 C 0.75452 0.614 0.99854 0.0
C902 C 0.72831 0.61346 0.96319 0.0
C903 C 0.38089 0.28772 0.17728 0.0
C904 C 0.39815 0.2929 0.22205 0.0
C905 C 0.38169 0.26479 0.15321 0.0
C906 C 0.39983 0.24546 0.17226 0.0
H907 H 0.3662 0.30152 0.16065 0.0
H908 H 0.36748 0.26213 0.11963 0.0
S909 S 0.45259 0.24976 0.28484 0.0
N910 N 0.43598 0.27653 0.28179 0.0
N911 N 0.43772 0.23423 0.23729 0.0
C912 C 0.41778 0.25057 0.21635 0.0
C913 C 0.41687 0.27386 0.24088 0.0
C914 C 0.76393 0.90636 0.42528 0.0
C915 C 0.77811 0.92762 0.40666 0.0
C916 C 0.73921 0.90661 0.46213 0.0
C917 C 0.72512 0.92815 0.47995 0.0
H918 H 0.77149 0.88914 0.41101 0.0
H919 H 0.73194 0.88958 0.4769 0.0
S920 S 0.74929 0.98919 0.43814 0.0
N921 N 0.77513 0.97122 0.4108 0.0
N922 N 0.72476 0.97139 0.46841 0.0
C923 C 0.73722 0.94941 0.458 0.0
C924 C 0.76428 0.94926 0.42462 0.0
C925 C 0.13755 0.28763 0.71336 0.0
C926 C 0.12027 0.29275 0.66865 0.0
C927 C 0.13693 0.2647 0.737 0.0
C928 C 0.11902 0.24526 0.71757 0.0
H929 H 0.15209 0.3015 0.73031 0.0
H930 H 0.15111 0.26214 0.77061 0.0
S931 S 0.06648 0.24925 0.60477 0.0
N932 N 0.08274 0.27613 0.60843 0.0
N933 N 0.08145 0.23381 0.65209 0.0
C934 C 0.10114 0.25026 0.67345 0.0
C935 C 0.10182 0.27358 0.64937 0.0
C936 C 0.01488 0.03074 0.26008 0.0
C937 C 0.02962 0.03646 0.30628 0.0
C938 C 0.98949 1.01424 0.25743 0.0
C939 C 0.97771 1.0028 0.30087 0.0
H940 H 0.02371 0.03855 0.22555 0.0
H941 H 0.97886 1.01042 0.22109 0.0
S942 S 0.00893 1.01101 0.43066 0.0
N943 N 0.0313 0.02878 0.396 0.0
N944 N 0.98343 0.99834 0.39141 0.0
C945 C 0.99244 1.00834 0.34716 0.0
C946 C 0.01833 0.02501 0.34976 0.0
C947 C 0.98291 0.52082 0.57943 0.0
C948 C 0.98837 0.53952 0.54485 0.0
C949 C 1.00271 0.50029 0.58147 0.0
C950 C 0.0293 0.49739 0.54945 0.0
H951 H 0.96353 0.52225 0.60603 0.0
H952 H 0.99727 0.48655 0.60883 0.0
S953 S 0.05251 0.53948 0.44833 0.0
N954 N 0.02131 0.55236 0.4746 0.0
N955 N 0.05859 0.51443 0.47986 0.0
C956 C 0.03477 0.51566 0.51421 0.0
C957 C 0.01438 0.53642 0.51154 0.0
C958 C 0.49704 0.50944 0.7727 0.0
C959 C 0.48403 0.5008 0.81802 0.0
C960 C 0.52236 0.52606 0.77273 0.0
C961 C 0.53554 0.53482 0.81807 0.0
H962 H 0.4871 0.50368 0.737 0.0
H963 H 0.5322 0.53171 0.73703 0.0
S964 S 0.51 0.51799 0.94666 0.0
N965 N 0.48593 0.50269 0.90924 0.0
N966 N 0.53394 0.5332 0.90927 0.0
C967 C 0.52279 0.52626 0.86345 0.0
C968 C 0.49692 0.50951 0.86343 0.0
C969 C 0.53973 1.01697 0.03308 0.0
C970 C 0.53472 0.99951 0.07045 0.0
C971 C 0.51981 0.03742 0.02873 0.0
C972 C 0.49379 0.04159 0.06158 0.0
H973 H 0.55867 1.01449 1.006 0.0
H974 H 0.52466 0.04994 0.99869 0.0
S975 S 0.47233 1.00241 0.1692 0.0
N976 N 0.50274 0.98856 0.14277 0.0
N977 N 0.46612 0.02674 0.13536 0.0
C978 C 0.48912 0.02446 0.09985 0.0
C979 C 0.50929 1.00364 0.1041 0.0
C980 C 0.02259 0.50849 0.03257 0.0
C981 C 0.03536 0.49962 0.0779 0.0
C982 C 0.99709 0.52496 0.03242 0.0
C983 C 0.984 0.53383 0.07762 0.0
H984 H 0.03268 0.50286 0.99693 0.0
H985 H 0.98731 0.53065 0.99665 0.0
S986 S 0.00919 0.5167 0.20641 0.0
N987 N 0.03312 0.50124 0.16916 0.0
N988 N 0.98554 0.53216 0.16888 0.0
C989 C 0.9967 0.52521 0.12314 0.0
C990 C 0.02227 0.50819 0.12328 0.0
C991 C 0.51498 0.50023 0.37739 0.0
C992 C 0.48943 0.49715 0.34302 0.0
C993 C 0.53542 0.5204 0.37584 0.0
C994 C 0.53132 0.53869 0.34004 0.0
H995 H 0.51919 0.48695 0.40626 0.0
H996 H 0.55415 0.52195 0.40369 0.0
S997 S 0.47002 0.53919 0.2392 0.0
N998 N 0.46285 0.51414 0.27011 0.0
N999 N 0.50042 0.55195 0.26809 0.0
C1000 C 0.50615 0.53585 0.30526 0.0
C1001 C 0.48548 0.51525 0.30657 0.0
C1002 C 0.49086 0.02127 0.62209 0.0
C1003 C 0.48023 0.03297 0.57821 0.0
C1004 C 0.51638 1.00492 0.62077 0.0
C1005 C 0.53246 0.99973 0.57556 0.0
H1006 H 0.47887 0.02446 0.65756 0.0
H1007 H 0.52401 0.99657 0.65551 0.0
S1008 S 0.51521 0.02632 0.45084 0.0
N1009 N 0.48844 0.03851 0.48856 0.0
N1010 N 0.53687 1.00837 0.48643 0.0
C1011 C 0.52259 1.01168 0.53176 0.0
C1012 C 0.49645 0.02817 0.533 0.0
C1013 C 1.00729 0.03611 0.87287 0.0
C1014 C 0.03351 0.03966 0.84021 0.0
C1015 C 0.98804 1.01525 0.87062 0.0
C1016 C 0.99404 0.99664 0.83584 0.0
H1017 H 1.00156 0.04959 0.90088 0.0
H1018 H 0.96863 1.0135 0.89707 0.0
S1019 S 0.05777 0.99718 0.73907 0.0
N1020 N 0.06279 0.02271 0.76978 0.0
N1021 N 0.02742 0.98374 0.76629 0.0
C1022 C 0.01993 0.99996 0.80273 0.0
C1023 C 0.03939 0.02124 0.80478 0.0
C1024 C 0.08219 0.08248 0.62767 0.0
C1025 C 0.08407 0.10685 0.64175 0.0
C1026 C 0.09034 0.07487 0.57862 0.0
C1027 C 0.10125 0.09138 0.54267 0.0
H1028 H 0.07567 0.06917 0.65537 0.0
H1029 H 0.08818 0.05607 0.56884 0.0
S1030 S 0.11282 0.15682 0.56268 0.0
N1031 N 0.09821 0.14713 0.61646 0.0
N1032 N 0.11508 0.13298 0.52585 0.0
C1033 C 0.10348 0.11573 0.55686 0.0
C1034 C 0.09433 0.12344 0.60583 0.0
C1035 C 0.93574 0.58252 0.76345 0.0
C1036 C 0.93331 0.60678 0.74912 0.0
C1037 C 0.92653 0.57492 0.81194 0.0
C1038 C 0.91392 0.59128 0.84713 0.0
H1039 H 0.9434 0.56922 0.73621 0.0
H1040 H 0.92914 0.55621 0.82184 0.0
S1041 S 0.90049 0.6564 0.82614 0.0
N1042 N 0.9171 0.64684 0.77355 0.0
N1043 N 0.89798 0.63265 0.86273 0.0
C1044 C 0.91122 0.61553 0.8327 0.0
C1045 C 0.92156 0.62328 0.78442 0.0
C1046 C 0.42704 0.41509 0.10911 0.0
C1047 C 0.43631 0.43195 0.14552 0.0
C1048 C 0.41743 0.42227 0.06113 0.0
C1049 C 0.41765 0.44661 0.04647 0.0
H1050 H 0.42476 0.39635 0.1191 0.0
H1051 H 0.40898 0.40849 0.03554 0.0
S1052 S 0.4415 0.49771 0.12791 0.0
N1053 N 0.44539 0.474 0.16454 0.0
N1054 N 0.42945 0.4875 0.07253 0.0
C1055 C 0.42798 0.46364 0.08213 0.0
C1056 C 0.4371 0.45629 0.13182 0.0
C1057 C 0.62077 0.96827 0.314 0.0
C1058 C 0.59846 0.96489 0.3523 0.0
C1059 C 0.61512 0.95917 0.26528 0.0
C1060 C 0.5887 0.94404 0.25465 0.0
H1061 H 0.64374 0.97604 0.32252 0.0
H1062 H 0.6335 0.96194 0.2375 0.0
S1063 S 0.51498 0.94611 0.33132 0.0
N1064 N 0.54272 0.95708 0.36894 0.0
N1065 N 0.53284 0.93998 0.27743 0.0
C1066 C 0.56309 0.94645 0.28842 0.0
C1067 C 0.56821 0.95647 0.33767 0.0
C1068 C 0.09141 0.41434 0.78507 0.0
C1069 C 0.08184 0.43132 0.74943 0.0
C1070 C 0.10124 0.42133 0.83321 0.0
C1071 C 0.10099 0.4456 0.84885 0.0
H1072 H 0.09378 0.39565 0.7743 0.0
H1073 H 0.10999 0.40744 0.85803 0.0
S1074 S 0.07625 0.49697 0.76968 0.0
N1075 N 0.07231 0.4734 0.73223 0.0
N1076 N 0.08869 0.48656 0.82449 0.0
C1077 C 0.09028 0.46275 0.81399 0.0
C1078 C 0.08091 0.45558 0.76414 0.0
C1079 C 0.59527 0.62051 0.10934 0.0
C1080 C 0.58484 0.60375 0.1448 0.0
C1081 C 0.60497 0.6133 0.06134 0.0
C1082 C 0.6037 0.58905 0.04571 0.0
H1083 H 0.59828 0.63914 0.12013 0.0
H1084 H 0.61422 0.62695 0.03647 0.0
S1085 S 0.5766 0.53827 0.12435 0.0
N1086 N 0.57356 0.5619 0.16185 0.0
N1087 N 0.58969 0.5484 0.06975 0.0
C1088 C 0.59227 0.57215 0.0804 0.0
C1089 C 0.58307 0.57951 0.13012 0.0
C1090 C 0.43297 0.07673 0.31111 0.0
C1091 C 0.41929 0.09209 0.34734 0.0
C1092 C 0.44315 0.08553 0.26415 0.0
C1093 C 0.4406 0.11004 0.25223 0.0
H1094 H 0.43386 0.05759 0.31773 0.0
H1095 H 0.45053 0.07283 0.23547 0.0
S1096 S 0.41117 0.15813 0.33683 0.0
N1097 N 0.40735 0.13337 0.37019 0.0
N1098 N 0.42659 0.14976 0.28236 0.0
C1099 C 0.42971 0.12579 0.28986 0.0
C1100 C 0.4189 0.11684 0.3372 0.0
C1101 C 0.93918 0.95395 0.62304 0.0
C1102 C 0.93602 0.9294 0.63437 0.0
C1103 C 0.92913 0.96323 0.57627 0.0
C1104 C 0.91478 0.94836 0.53971 0.0
H1105 H 0.94744 0.9663 0.65181 0.0
H1106 H 0.9309 0.98234 0.56987 0.0
S1107 S 0.90383 0.88253 0.54912 0.0
N1108 N 0.91997 0.89023 0.60358 0.0
N1109 N 0.9008 0.90754 0.51636 0.0
C1110 C 0.91325 0.92361 0.54956 0.0
C1111 C 0.92399 0.91416 0.59662 0.0
C1112 C 0.11212 0.14443 0.03628 0.0
C1113 C 0.10678 0.12989 0.99349 0.0
C1114 C 0.12073 0.13441 0.08345 0.0
C1115 C 0.12456 0.1094 0.08996 0.0
H1116 H 0.1109 0.16374 0.0328 0.0
H1117 H 0.12453 0.14641 0.11507 0.0
S1118 S 0.11463 0.0637 0.98864 0.0
N1119 N 0.10661 0.08935 0.96056 0.0
N1120 N 0.12285 0.07059 0.04781 0.0
C1121 C 0.11904 0.09478 0.04722 0.0
C1122 C 0.11024 0.10498 0.99955 0.0
C1123 C 0.90476 0.64141 0.35341 0.0
C1124 C 0.91192 0.62709 0.39561 0.0
C1125 C 0.89569 0.63112 0.30651 0.0
C1126 C 0.89317 0.606 0.29956 0.0
H1127 H 0.90478 0.66075 0.35728 0.0
H1128 H 0.89037 0.643 0.27547 0.0
S1129 S 0.90824 0.5607 0.39928 0.0
N1130 N 0.91532 0.58659 0.42749 0.0
N1131 N 0.89829 0.56729 0.34075 0.0
C1132 C 0.90066 0.59159 0.34164 0.0
C1133 C 0.90991 0.60209 0.38907 0.0
C1134 C 0.39971 0.44249 0.55366 0.0
C1135 C 0.39196 0.42765 0.59489 0.0
C1136 C 0.4084 0.43293 0.50622 0.0
C1137 C 0.41049 0.40803 0.4975 0.0
H1138 H 0.39812 0.46179 0.55753 0.0
H1139 H 0.41246 0.44521 0.47538 0.0
S1140 S 0.39406 0.36099 0.59222 0.0
N1141 N 0.38832 0.38634 0.62335 0.0
N1142 N 0.40415 0.36865 0.53438 0.0
C1143 C 0.40353 0.39293 0.53838 0.0
C1144 C 0.39443 0.40263 0.58677 0.0
C1145 C 0.61065 0.93842 0.8479 0.0
C1146 C 0.618 0.92199 0.80882 0.0
C1147 C 0.60348 0.93083 0.89741 0.0
C1148 C 0.60248 0.90638 0.91055 0.0
H1149 H 0.61132 0.95749 0.84057 0.0
H1150 H 0.59959 0.94433 0.92621 0.0
S1151 S 0.6188 0.85571 0.82333 0.0
N1152 N 0.62288 0.87969 0.78758 0.0
N1153 N 0.60958 0.86569 0.88015 0.0
C1154 C 0.60918 0.8897 0.87196 0.0
C1155 C 0.61685 0.8974 0.8215 0.0
C1156 C 0.10899 0.43328 0.38782 0.0
C1157 C 0.10701 0.40837 0.3961 0.0
C1158 C 0.11807 0.44285 0.34074 0.0
C1159 C 0.12636 0.42801 0.29947 0.0
H1160 H 0.1046 0.44556 0.41878 0.0
H1161 H 0.11958 0.46215 0.33723 0.0
S1162 S 0.12462 0.36134 0.30096 0.0
N1163 N 0.11392 0.36901 0.35867 0.0
N1164 N 0.13052 0.3867 0.2704 0.0
C1165 C 0.12394 0.40298 0.3071 0.0
C1166 C 0.11443 0.39328 0.3551 0.0
C1167 C 0.62453 0.63103 0.58576 0.0
C1168 C 0.62676 0.60593 0.59273 0.0
C1169 C 0.61564 0.64116 0.53882 0.0
C1170 C 0.60839 0.62669 0.49662 0.0
H1171 H 0.62991 0.64301 0.61682 0.0
H1172 H 0.61576 0.66048 0.53494 0.0
S1173 S 0.61143 0.56026 0.49303 0.0
N1174 N 0.62132 0.56706 0.55161 0.0
N1175 N 0.60469 0.58606 0.46474 0.0
C1176 C 0.61019 0.6017 0.50316 0.0
C1177 C 0.61923 0.59137 0.55065 0.0
C1178 C 0.39744 0.13916 0.80431 0.0
C1179 C 0.39382 0.11445 0.79295 0.0
C1180 C 0.40581 0.14741 0.85349 0.0
C1181 C 0.41108 0.13139 0.8938 0.0
H1182 H 0.39388 0.15226 0.77487 0.0
H1183 H 0.40717 0.16653 0.86037 0.0
S1184 S 0.40298 0.06524 0.88609 0.0
N1185 N 0.39518 0.07431 0.82825 0.0
N1186 N 0.41081 0.08973 0.91894 0.0
C1187 C 0.40741 0.1068 0.88296 0.0
C1188 C 0.39893 0.0984 0.8333 0.0
C1189 C 0.90167 0.89396 0.0818 0.0
C1190 C 0.90371 0.91817 0.09809 0.0
C1191 C 0.90927 0.8868 0.03176 0.0
C1192 C 0.9197 0.90338 0.99532 0.0
H1193 H 0.8929 0.88044 0.10737 0.0
H1194 H 0.90553 0.86828 1.02085 0.0
S1195 S 0.93218 0.96836 1.01787 0.0
N1196 N 0.91969 0.95831 0.07281 0.0
N1197 N 0.93287 0.9449 0.97973 0.0
C1198 C 0.92287 0.92736 1.01129 0.0
C1199 C 0.91524 0.93471 0.06211 0.0
loop_
_geom_bond_atom_site_label_1
_geom_bond_atom_site_label_2
_geom_bond_distance
_geom_bond_site_symmetry_2
_ccdc_geom_bond_type
C0 C1 1.443 . S
C0 N4 1.376 . S
C0 C38 1.389 . S
C1 C0 1.443 . S
C1 C2 1.340 . S
C1 H41 0.951 . S
C2 C1 1.340 . S
C2 C3 1.439 . S
C2 H42 0.950 . S
C3 C2 1.439 . S
C3 N4 1.374 . S
C3 C37 1.395 . S
N4 C0 1.376 . S
N4 C3 1.374 . S
N4 Co5 2.008 . S
Co5 N4 2.008 . S
Co5 N6 1.995 . S
Co5 N11 2.008 . S
Co5 N16 1.995 . S
Co5 N21 2.282 . S
Co5 N27 2.282 . S
N6 Co5 1.995 . S
N6 C7 1.376 . S
N6 C10 1.383 . S
C7 N6 1.376 . S
C7 C8 1.446 . S
C7 C37 1.391 . S
C8 C7 1.446 . S
C8 C9 1.339 . S
C8 H43 0.949 . S
C9 C8 1.339 . S
C9 C10 1.439 . S
C9 H44 0.950 . S
C10 N6 1.383 . S
C10 C9 1.439 . S
C10 C39 1.392 . S
N11 Co5 2.008 . S
N11 C12 1.376 . S
N11 C15 1.374 . S
C12 N11 1.376 . S
C12 C13 1.443 . S
C12 C39 1.389 . S
C13 C12 1.443 . S
C13 C14 1.340 . S
C13 H45 0.951 1_455 S
C14 C13 1.340 . S
C14 C15 1.439 . S
C14 H46 0.950 . S
C15 N11 1.374 . S
C15 C14 1.439 . S
C15 C40 1.395 . S
N16 Co5 1.995 . S
N16 C17 1.376 . S
N16 C20 1.383 . S
C17 N16 1.376 . S
C17 C18 1.446 . S
C17 C40 1.391 . S
C18 C17 1.446 . S
C18 C19 1.339 . S
C18 H47 0.949 . S
C19 C18 1.339 . S
C19 C20 1.439 . S
C19 H48 0.950 . S
C20 N16 1.383 . S
C20 C19 1.439 . S
C20 C38 1.392 . S
N21 Co5 2.282 . S
N21 C24 1.332 . S
N21 C26 1.332 . S
C22 C23 1.386 . S
C22 C25 1.388 . S
C23 C22 1.386 . S
C23 C24 1.382 . S
C23 H49 0.950 . S
C24 N21 1.332 . S
C24 C23 1.382 . S
C24 H35 0.952 . S
C25 C22 1.388 . S
C25 C26 1.382 . S
C25 H50 0.950 . S
C26 N21 1.332 . S
C26 C25 1.382 . S
C26 H36 0.948 . S
N27 Co5 2.282 . S
N27 C31 1.332 . S
N27 C32 1.332 . S
C28 C29 1.388 . S
C28 C32 1.382 . S
C28 H51 0.950 . S
C29 C28 1.388 . S
C29 C30 1.386 . S
C30 C29 1.386 . S
C30 C31 1.382 . S
C30 H52 0.950 . S
C31 N27 1.332 . S
C31 C30 1.382 . S
C31 H33 0.952 . S
C32 N27 1.332 . S
C32 C28 1.382 . S
C32 H34 0.948 . S
H33 C31 0.952 . S
H34 C32 0.948 . S
H35 C24 0.952 . S
H36 C26 0.948 . S
C37 C3 1.395 . S
C37 C7 1.391 . S
C38 C0 1.389 . S
C38 C20 1.392 . S
C39 C10 1.392 . S
C39 C12 1.389 . S
C40 C15 1.395 . S
C40 C17 1.391 . S
H41 C1 0.951 . S
H42 C2 0.950 . S
H43 C8 0.949 . S
H44 C9 0.950 . S
H45 C13 0.951 1_655 S
H46 C14 0.950 . S
H47 C18 0.949 . S
H48 C19 0.950 . S
H49 C23 0.950 . S
H50 C25 0.950 . S
H51 C28 0.950 . S
H52 C30 0.950 . S
C53 C54 1.443 . S
C53 N57 1.376 . S
C53 C91 1.389 . S
C54 C53 1.443 . S
C54 C55 1.340 . S
C54 H94 0.951 . S
C55 C54 1.340 . S
C55 C56 1.439 . S
C55 H95 0.950 . S
C56 C55 1.439 . S
C56 N57 1.374 . S
C56 C90 1.395 . S
N57 C53 1.376 . S
N57 C56 1.374 . S
N57 Co58 2.008 . S
Co58 N57 2.008 . S
Co58 N59 1.995 . S
Co58 N64 2.008 . S
Co58 N69 1.995 . S
Co58 N74 2.282 . S
Co58 N80 2.282 . S
N59 Co58 1.995 . S
N59 C60 1.376 . S
N59 C63 1.383 . S
C60 N59 1.376 . S
C60 C61 1.446 . S
C60 C90 1.391 . S
C61 C60 1.446 . S
C61 C62 1.339 . S
C61 H96 0.949 . S
C62 C61 1.339 . S
C62 C63 1.439 . S
C62 H97 0.950 . S
C63 N59 1.383 . S
C63 C62 1.439 . S
C63 C92 1.392 . S
N64 Co58 2.008 . S
N64 C65 1.376 . S
N64 C68 1.374 . S
C65 N64 1.376 . S
C65 C66 1.443 . S
C65 C92 1.389 . S
C66 C65 1.443 . S
C66 C67 1.340 . S
C66 H98 0.951 . S
C67 C66 1.340 . S
C67 C68 1.439 . S
C67 H99 0.925 1_655 S
C68 N64 1.374 . S
C68 C67 1.439 . S
C68 C93 1.395 . S
N69 Co58 1.995 . S
N69 C70 1.376 . S
N69 C73 1.383 . S
C70 N69 1.376 . S
C70 C71 1.446 . S
C70 C93 1.391 . S
C71 C70 1.446 . S
C71 C72 1.339 . S
C71 H100 0.949 1_655 S
C72 C71 1.339 . S
C72 C73 1.439 . S
C72 H101 0.950 . S
C73 N69 1.383 . S
C73 C72 1.439 . S
C73 C91 1.392 . S
N74 Co58 2.282 . S
N74 C77 1.332 . S
N74 C79 1.332 . S
C75 C76 1.386 . S
C75 C78 1.388 . S
C76 C75 1.386 . S
C76 C77 1.382 . S
C76 H102 0.950 . S
C77 N74 1.332 . S
C77 C76 1.382 . S
C77 H88 0.952 . S
C78 C75 1.388 . S
C78 C79 1.382 . S
C78 H103 0.950 . S
C79 N74 1.332 . S
C79 C78 1.382 . S
C79 H89 0.948 . S
N80 Co58 2.282 . S
N80 C84 1.332 . S
N80 C85 1.332 . S
C81 C82 1.388 . S
C81 C85 1.382 . S
C81 H104 0.950 . S
C82 C81 1.388 . S
C82 C83 1.386 . S
C83 C82 1.386 . S
C83 C84 1.382 . S
C83 H105 0.950 . S
C84 N80 1.332 . S
C84 C83 1.382 . S
C84 H86 0.952 . S
C85 N80 1.332 . S
C85 C81 1.382 . S
C85 H87 0.948 . S
H86 C84 0.952 . S
H87 C85 0.948 . S
H88 C77 0.952 . S
H89 C79 0.948 . S
C90 C56 1.395 . S
C90 C60 1.391 . S
C91 C53 1.389 . S
C91 C73 1.392 . S
C92 C63 1.392 . S
C92 C65 1.389 . S
C93 C68 1.395 . S
C93 C70 1.391 . S
H94 C54 0.951 . S
H95 C55 0.950 . S
H96 C61 0.949 . S
H97 C62 0.950 . S
H98 C66 0.951 . S
H99 C67 0.925 1_455 S
H100 C71 0.949 1_455 S
H101 C72 0.950 . S
H102 C76 0.950 . S
H103 C78 0.950 . S
H104 C81 0.950 . S
H105 C83 0.950 . S
C106 C107 1.443 . S
C106 N110 1.376 . S
C106 C144 1.389 . S
C107 C106 1.443 . S
C107 C108 1.340 . S
C107 H147 0.951 . S
C108 C107 1.340 . S
C108 C109 1.439 . S
C108 H148 0.950 . S
C109 C108 1.439 . S
C109 N110 1.374 . S
C109 C143 1.395 . S
N110 C106 1.376 . S
N110 C109 1.374 . S
N110 Co111 2.008 . S
Co111 N110 2.008 . S
Co111 N112 1.995 . S
Co111 N117 2.008 . S
Co111 N122 1.995 . S
Co111 N127 2.282 . S
Co111 N133 2.282 . S
N112 Co111 1.995 . S
N112 C113 1.376 . S
N112 C116 1.383 . S
C113 N112 1.376 . S
C113 C114 1.446 . S
C113 C143 1.391 . S
C114 C113 1.446 . S
C114 C115 1.339 . S
C114 H149 0.949 . S
C115 C114 1.339 . S
C115 C116 1.439 . S
C115 H150 0.950 . S
C116 N112 1.383 . S
C116 C115 1.439 . S
C116 C145 1.392 . S
N117 Co111 2.008 . S
N117 C118 1.376 . S
N117 C121 1.374 . S
C118 N117 1.376 . S
C118 C119 1.443 . S
C118 C145 1.389 . S
C119 C118 1.443 . S
C119 C120 1.340 . S
C119 H151 0.951 . S
C120 C119 1.340 . S
C120 C121 1.439 . S
C120 H152 0.950 . S
C121 N117 1.374 . S
C121 C120 1.439 . S
C121 C146 1.395 . S
N122 Co111 1.995 . S
N122 C123 1.376 . S
N122 C126 1.383 . S
C123 N122 1.376 . S
C123 C124 1.446 . S
C123 C146 1.391 . S
C124 C123 1.446 . S
C124 C125 1.339 . S
C124 H153 0.949 . S
C125 C124 1.339 . S
C125 C126 1.439 . S
C125 H154 0.950 . S
C126 N122 1.383 . S
C126 C125 1.439 . S
C126 C144 1.392 . S
N127 Co111 2.282 . S
N127 C130 1.332 . S
N127 C132 1.332 . S
C128 C129 1.386 . S
C128 C131 1.388 . S
C129 C128 1.386 . S
C129 C130 1.382 . S
C129 H155 0.950 . S
C130 N127 1.332 . S
C130 C129 1.382 . S
C130 H141 0.952 . S
C131 C128 1.388 . S
C131 C132 1.382 . S
C131 H156 0.950 . S
C132 N127 1.332 . S
C132 C131 1.382 . S
C132 H142 0.948 . S
N133 Co111 2.282 . S
N133 C137 1.332 . S
N133 C138 1.332 . S
C134 C135 1.388 . S
C134 C138 1.382 . S
C134 H157 0.950 . S
C135 C134 1.388 . S
C135 C136 1.386 . S
C136 C135 1.386 . S
C136 C137 1.382 . S
C136 H158 0.950 . S
C137 N133 1.332 . S
C137 C136 1.382 . S
C137 H139 0.952 . S
C138 N133 1.332 . S
C138 C134 1.382 . S
C138 H140 0.948 . S
H139 C137 0.952 . S
H140 C138 0.948 . S
H141 C130 0.952 . S
H142 C132 0.948 . S
C143 C109 1.395 . S
C143 C113 1.391 . S
C144 C106 1.389 . S
C144 C126 1.392 . S
C145 C116 1.392 . S
C145 C118 1.389 . S
C146 C121 1.395 . S
C146 C123 1.391 . S
H147 C107 0.951 . S
H148 C108 0.950 . S
H149 C114 0.949 . S
H150 C115 0.950 . S
H151 C119 0.951 . S
H152 C120 0.950 . S
H153 C124 0.949 . S
H154 C125 0.950 . S
H155 C129 0.950 . S
H156 C131 0.950 . S
H157 C134 0.950 . S
H158 C136 0.950 . S
C159 C160 1.443 . S
C159 N163 1.376 . S
C159 C197 1.389 . S
C160 C159 1.443 . S
C160 C161 1.340 . S
C160 H200 0.951 . S
C161 C160 1.340 . S
C161 C162 1.439 1_556 S
C161 H201 0.950 . S
C162 C161 1.439 1_554 S
C162 N163 1.374 1_554 S
C162 C196 1.395 . S
N163 C159 1.376 . S
N163 C162 1.374 1_556 S
N163 Co164 2.008 1_556 S
Co164 N163 2.008 1_554 S
Co164 N165 1.995 . S
Co164 N170 2.008 . S
Co164 N175 1.995 . S
Co164 N180 2.282 . S
Co164 N186 2.282 . S
N165 Co164 1.995 . S
N165 C166 1.376 . S
N165 C169 1.383 . S
C166 N165 1.376 . S
C166 C167 1.446 . S
C166 C196 1.391 . S
C167 C166 1.446 . S
C167 C168 1.339 . S
C167 H202 0.949 . S
C168 C167 1.339 . S
C168 C169 1.439 . S
C168 H203 0.950 . S
C169 N165 1.383 . S
C169 C168 1.439 . S
C169 C198 1.392 . S
N170 Co164 2.008 . S
N170 C171 1.376 . S
N170 C174 1.374 . S
C171 N170 1.376 . S
C171 C172 1.443 . S
C171 C198 1.389 . S
C172 C171 1.443 . S
C172 C173 1.340 . S
C172 H204 0.951 . S
C173 C172 1.340 . S
C173 C174 1.439 . S
C173 H205 0.950 . S
C174 N170 1.374 . S
C174 C173 1.439 . S
C174 C199 1.395 . S
N175 Co164 1.995 . S
N175 C176 1.376 . S
N175 C179 1.383 1_554 S
C176 N175 1.376 . S
C176 C177 1.446 1_554 S
C176 C199 1.391 . S
C177 C176 1.446 1_556 S
C177 C178 1.339 . S
C177 H206 0.949 . S
C178 C177 1.339 . S
C178 C179 1.439 . S
C178 H207 0.950 . S
C179 N175 1.383 1_556 S
C179 C178 1.439 . S
C179 C197 1.392 . S
N180 Co164 2.282 . S
N180 C183 1.332 . S
N180 C185 1.332 . S
C181 C182 1.386 . S
C181 C184 1.388 . S
C182 C181 1.386 . S
C182 C183 1.382 . S
C182 H208 0.950 . S
C183 N180 1.332 . S
C183 C182 1.382 . S
C183 H194 0.952 . S
C184 C181 1.388 . S
C184 C185 1.382 . S
C184 H209 0.950 . S
C185 N180 1.332 . S
C185 C184 1.382 . S
C185 H195 0.948 . S
N186 Co164 2.282 . S
N186 C190 1.332 . S
N186 C191 1.332 . S
C187 C188 1.388 . S
C187 C191 1.382 . S
C187 H210 0.950 1_554 S
C188 C187 1.388 . S
C188 C189 1.386 . S
C189 C188 1.386 . S
C189 C190 1.382 . S
C189 H211 0.950 . S
C190 N186 1.332 . S
C190 C189 1.382 . S
C190 H192 0.952 . S
C191 N186 1.332 . S
C191 C187 1.382 . S
C191 H193 0.948 . S
H192 C190 0.952 . S
H193 C191 0.948 . S
H194 C183 0.952 . S
H195 C185 0.948 . S
C196 C162 1.395 . S
C196 C166 1.391 . S
C197 C159 1.389 . S
C197 C179 1.392 . S
C198 C169 1.392 . S
C198 C171 1.389 . S
C199 C174 1.395 . S
C199 C176 1.391 . S
H200 C160 0.951 . S
H201 C161 0.950 . S
H202 C167 0.949 . S
H203 C168 0.950 . S
H204 C172 0.951 . S
H205 C173 0.950 . S
H206 C177 0.949 . S
H207 C178 0.950 . S
H208 C182 0.950 . S
H209 C184 0.950 . S
H210 C187 0.950 1_556 S
H211 C189 0.950 . S
C212 C213 1.437 1_554 S
C212 N216 1.383 . S
C212 C250 1.388 1_554 S
C213 C212 1.437 1_556 S
C213 C214 1.340 . S
C213 H253 0.951 . S
C214 C213 1.340 . S
C214 C215 1.439 1_556 S
C214 H254 0.950 . S
C215 C214 1.439 1_554 S
C215 N216 1.374 . S
C215 C249 1.395 . S
N216 C212 1.383 . S
N216 C215 1.374 . S
N216 Co217 2.008 . S
Co217 N216 2.008 . S
Co217 N218 1.995 . S
Co217 N223 2.008 . S
Co217 N228 1.995 . S
Co217 N233 2.282 . S
Co217 N239 2.282 1_554 S
N218 Co217 1.995 . S
N218 C219 1.376 . S
N218 C222 1.383 . S
C219 N218 1.376 . S
C219 C220 1.446 . S
C219 C249 1.391 . S
C220 C219 1.446 . S
C220 C221 1.339 . S
C220 H255 0.949 . S
C221 C220 1.339 . S
C221 C222 1.439 . S
C221 H256 0.950 . S
C222 N218 1.383 . S
C222 C221 1.439 . S
C222 C251 1.392 . S
N223 Co217 2.008 . S
N223 C224 1.376 . S
N223 C227 1.374 . S
C224 N223 1.376 . S
C224 C225 1.443 . S
C224 C251 1.389 . S
C225 C224 1.443 . S
C225 C226 1.340 . S
C225 H257 0.951 1_455 S
C226 C225 1.340 . S
C226 C227 1.439 . S
C226 H258 0.950 . S
C227 N223 1.374 . S
C227 C226 1.439 . S
C227 C252 1.395 . S
N228 Co217 1.995 . S
N228 C229 1.376 . S
N228 C232 1.383 . S
C229 N228 1.376 . S
C229 C230 1.446 . S
C229 C252 1.391 . S
C230 C229 1.446 . S
C230 C231 1.339 . S
C230 H259 0.949 . S
C231 C230 1.339 . S
C231 C232 1.439 . S
C231 H260 0.950 . S
C232 N228 1.383 . S
C232 C231 1.439 . S
C232 C250 1.388 1_554 S
N233 Co217 2.282 . S
N233 C236 1.332 . S
N233 C238 1.332 . S
C234 C235 1.386 . S
C234 C237 1.388 . S
C235 C234 1.386 . S
C235 C236 1.382 . S
C235 H261 0.950 . S
C236 N233 1.332 . S
C236 C235 1.382 . S
C236 H247 0.952 . S
C237 C234 1.388 . S
C237 C238 1.382 . S
C237 H262 0.950 . S
C238 N233 1.332 . S
C238 C237 1.382 . S
C238 H248 0.948 . S
N239 Co217 2.282 1_556 S
N239 C243 1.332 . S
N239 C244 1.332 . S
C240 C241 1.388 . S
C240 C244 1.382 . S
C240 H263 0.950 . S
C241 C240 1.388 . S
C241 C242 1.386 . S
C242 C241 1.386 . S
C242 C243 1.382 . S
C242 H264 0.950 . S
C243 N239 1.332 . S
C243 C242 1.382 . S
C243 H245 0.952 . S
C244 N239 1.332 . S
C244 C240 1.382 . S
C244 H246 0.948 . S
H245 C243 0.952 . S
H246 C244 0.948 . S
H247 C236 0.952 . S
H248 C238 0.948 . S
C249 C215 1.395 . S
C249 C219 1.391 . S
C250 C212 1.388 1_556 S
C250 C232 1.388 1_556 S
C251 C222 1.392 . S
C251 C224 1.389 . S
C252 C227 1.395 . S
C252 C229 1.391 . S
H253 C213 0.951 . S
H254 C214 0.950 . S
H255 C220 0.949 . S
H256 C221 0.950 . S
H257 C225 0.951 1_655 S
H258 C226 0.950 . S
H259 C230 0.949 . S
H260 C231 0.950 . S
H261 C235 0.950 . S
H262 C237 0.950 . S
H263 C240 0.950 . S
H264 C242 0.950 . S
C265 C266 1.443 . S
C265 N269 1.376 . S
C265 C303 1.389 . S
C266 C265 1.443 . S
C266 C267 1.340 . S
C266 H306 0.951 . S
C267 C266 1.340 . S
C267 C268 1.439 . S
C267 H307 0.950 . S
C268 C267 1.439 . S
C268 N269 1.374 . S
C268 C302 1.395 . S
N269 C265 1.376 . S
N269 C268 1.374 . S
N269 Co270 2.008 . S
Co270 N269 2.008 . S
Co270 N271 1.995 . S
Co270 N276 2.008 . S
Co270 N281 1.995 . S
Co270 N286 2.282 . S
Co270 N292 2.282 . S
N271 Co270 1.995 . S
N271 C272 1.376 . S
N271 C275 1.383 . S
C272 N271 1.376 . S
C272 C273 1.446 . S
C272 C302 1.391 . S
C273 C272 1.446 . S
C273 C274 1.339 . S
C273 H308 0.949 . S
C274 C273 1.339 . S
C274 C275 1.439 . S
C274 H309 0.950 . S
C275 N271 1.383 . S
C275 C274 1.439 . S
C275 C304 1.392 . S
N276 Co270 2.008 . S
N276 C277 1.376 . S
N276 C280 1.374 . S
C277 N276 1.376 . S
C277 C278 1.443 . S
C277 C304 1.389 . S
C278 C277 1.443 . S
C278 C279 1.340 . S
C278 H310 0.951 . S
C279 C278 1.340 . S
C279 C280 1.439 . S
C279 H311 0.950 . S
C280 N276 1.374 . S
C280 C279 1.439 . S
C280 C305 1.395 . S
N281 Co270 1.995 . S
N281 C282 1.376 . S
N281 C285 1.383 . S
C282 N281 1.376 . S
C282 C283 1.446 . S
C282 C305 1.391 . S
C283 C282 1.446 . S
C283 C284 1.339 . S
C283 H312 0.949 . S
C284 C283 1.339 . S
C284 C285 1.439 . S
C284 H313 0.950 . S
C285 N281 1.383 . S
C285 C284 1.439 . S
C285 C303 1.392 . S
N286 Co270 2.282 . S
N286 C289 1.332 . S
N286 C291 1.332 . S
C287 C288 1.386 . S
C287 C290 1.388 . S
C288 C287 1.386 . S
C288 C289 1.382 . S
C288 H314 0.950 . S
C289 N286 1.332 . S
C289 C288 1.382 . S
C289 H300 0.952 . S
C290 C287 1.388 . S
C290 C291 1.382 . S
C290 H315 0.950 . S
C291 N286 1.332 . S
C291 C290 1.382 . S
C291 H301 0.948 . S
N292 Co270 2.282 . S
N292 C296 1.332 . S
N292 C297 1.332 . S
C293 C294 1.388 . S
C293 C297 1.382 . S
C293 H316 0.950 . S
C294 C293 1.388 . S
C294 C295 1.386 . S
C295 C294 1.386 . S
C295 C296 1.382 . S
C295 H317 0.950 . S
C296 N292 1.332 . S
C296 C295 1.382 . S
C296 H298 0.952 . S
C297 N292 1.332 . S
C297 C293 1.382 . S
C297 H299 0.948 . S
H298 C296 0.952 . S
H299 C297 0.948 . S
H300 C289 0.952 . S
H301 C291 0.948 . S
C302 C268 1.395 . S
C302 C272 1.391 . S
C303 C265 1.389 . S
C303 C285 1.392 . S
C304 C275 1.392 . S
C304 C277 1.389 . S
C305 C280 1.395 . S
C305 C282 1.391 . S
H306 C266 0.951 . S
H307 C267 0.950 . S
H308 C273 0.949 . S
H309 C274 0.950 . S
H310 C278 0.951 . S
H311 C279 0.950 . S
H312 C283 0.949 . S
H313 C284 0.950 . S
H314 C288 0.950 . S
H315 C290 0.950 . S
H316 C293 0.950 . S
H317 C295 0.950 . S
C318 C319 1.443 . S
C318 N322 1.376 . S
C318 C356 1.389 . S
C319 C318 1.443 . S
C319 C320 1.340 . S
C319 H359 0.951 . S
C320 C319 1.340 . S
C320 C321 1.439 . S
C320 H360 0.950 . S
C321 C320 1.439 . S
C321 N322 1.374 . S
C321 C355 1.395 . S
N322 C318 1.376 . S
N322 C321 1.374 . S
N322 Co323 2.008 . S
Co323 N322 2.008 . S
Co323 N324 1.995 . S
Co323 N329 2.008 . S
Co323 N334 1.995 . S
Co323 N339 2.282 . S
Co323 N345 2.282 . S
N324 Co323 1.995 . S
N324 C325 1.376 . S
N324 C328 1.383 . S
C325 N324 1.376 . S
C325 C326 1.446 . S
C325 C355 1.391 . S
C326 C325 1.446 . S
C326 C327 1.339 . S
C326 H361 0.949 . S
C327 C326 1.339 . S
C327 C328 1.439 . S
C327 H362 0.950 . S
C328 N324 1.383 . S
C328 C327 1.439 . S
C328 C357 1.392 . S
N329 Co323 2.008 . S
N329 C330 1.376 . S
N329 C333 1.374 . S
C330 N329 1.376 . S
C330 C331 1.443 . S
C330 C357 1.389 . S
C331 C330 1.443 . S
C331 C332 1.340 . S
C331 H363 0.951 . S
C332 C331 1.340 . S
C332 C333 1.439 . S
C332 H364 0.950 . S
C333 N329 1.374 . S
C333 C332 1.439 . S
C333 C358 1.395 . S
N334 Co323 1.995 . S
N334 C335 1.376 . S
N334 C338 1.383 . S
C335 N334 1.376 . S
C335 C336 1.446 . S
C335 C358 1.391 . S
C336 C335 1.446 . S
C336 C337 1.339 . S
C336 H365 0.949 . S
C337 C336 1.339 . S
C337 C338 1.439 . S
C337 H366 0.950 . S
C338 N334 1.383 . S
C338 C337 1.439 . S
C338 C356 1.392 . S
N339 Co323 2.282 . S
N339 C342 1.332 . S
N339 C344 1.332 . S
C340 C341 1.386 . S
C340 C343 1.388 . S
C341 C340 1.386 . S
C341 C342 1.382 . S
C341 H367 0.950 . S
C342 N339 1.332 . S
C342 C341 1.382 . S
C342 H353 0.952 . S
C343 C340 1.388 . S
C343 C344 1.382 . S
C343 H368 0.950 . S
C344 N339 1.332 . S
C344 C343 1.382 . S
C344 H354 0.948 . S
N345 Co323 2.282 . S
N345 C349 1.332 . S
N345 C350 1.332 . S
C346 C347 1.388 . S
C346 C350 1.382 . S
C346 H369 0.950 . S
C347 C346 1.388 . S
C347 C348 1.386 . S
C348 C347 1.386 . S
C348 C349 1.382 . S
C348 H370 0.950 . S
C349 N345 1.332 . S
C349 C348 1.382 . S
C349 H351 0.952 . S
C350 N345 1.332 . S
C350 C346 1.382 . S
C350 H352 0.948 . S
H351 C349 0.952 . S
H352 C350 0.948 . S
H353 C342 0.952 . S
H354 C344 0.948 . S
C355 C321 1.395 . S
C355 C325 1.391 . S
C356 C318 1.389 . S
C356 C338 1.392 . S
C357 C328 1.392 . S
C357 C330 1.389 . S
C358 C333 1.395 . S
C358 C335 1.391 . S
H359 C319 0.951 . S
H360 C320 0.950 . S
H361 C326 0.949 . S
H362 C327 0.950 . S
H363 C331 0.951 . S
H364 C332 0.950 . S
H365 C336 0.949 . S
H366 C337 0.950 . S
H367 C341 0.950 . S
H368 C343 0.950 . S
H369 C346 0.950 . S
H370 C348 0.950 . S
C371 C372 1.443 . S
C371 N375 1.376 . S
C371 C409 1.389 . S
C372 C371 1.443 . S
C372 C373 1.340 . S
C372 H412 0.951 . S
C373 C372 1.340 . S
C373 C374 1.439 . S
C373 H413 0.950 . S
C374 C373 1.439 . S
C374 N375 1.374 . S
C374 C408 1.395 . S
N375 C371 1.376 . S
N375 C374 1.374 . S
N375 Co376 2.008 . S
Co376 N375 2.008 . S
Co376 N377 1.995 . S
Co376 N382 2.008 . S
Co376 N387 1.995 . S
Co376 N392 2.282 . S
Co376 N398 2.282 . S
N377 Co376 1.995 . S
N377 C378 1.376 . S
N377 C381 1.383 . S
C378 N377 1.376 . S
C378 C379 1.446 . S
C378 C408 1.391 . S
C379 C378 1.446 . S
C379 C380 1.339 . S
C379 H414 0.949 . S
C380 C379 1.339 . S
C380 C381 1.439 . S
C380 H415 0.950 . S
C381 N377 1.383 . S
C381 C380 1.439 . S
C381 C410 1.392 . S
N382 Co376 2.008 . S
N382 C383 1.376 . S
N382 C386 1.374 . S
C383 N382 1.376 . S
C383 C384 1.443 . S
C383 C410 1.389 . S
C384 C383 1.443 . S
C384 C385 1.340 . S
C384 H416 0.951 . S
C385 C384 1.340 . S
C385 C386 1.439 . S
C385 H417 0.924 1_655 S
C386 N382 1.374 . S
C386 C385 1.439 . S
C386 C411 1.395 . S
N387 Co376 1.995 . S
N387 C388 1.376 . S
N387 C391 1.383 . S
C388 N387 1.376 . S
C388 C389 1.446 . S
C388 C411 1.391 . S
C389 C388 1.446 . S
C389 C390 1.339 . S
C389 H418 0.949 1_655 S
C390 C389 1.339 . S
C390 C391 1.439 . S
C390 H419 0.950 . S
C391 N387 1.383 . S
C391 C390 1.439 . S
C391 C409 1.392 . S
N392 Co376 2.282 . S
N392 C395 1.332 . S
N392 C397 1.332 . S
C393 C394 1.386 . S
C393 C396 1.388 . S
C394 C393 1.386 . S
C394 C395 1.382 . S
C394 H420 0.950 . S
C395 N392 1.332 . S
C395 C394 1.382 . S
C395 H406 0.952 . S
C396 C393 1.388 . S
C396 C397 1.382 . S
C396 H421 0.950 . S
C397 N392 1.332 . S
C397 C396 1.382 . S
C397 H407 0.948 . S
N398 Co376 2.282 . S
N398 C402 1.332 . S
N398 C403 1.332 . S
C399 C400 1.388 . S
C399 C403 1.382 . S
C399 H422 0.950 . S
C400 C399 1.388 . S
C400 C401 1.386 . S
C401 C400 1.386 . S
C401 C402 1.382 . S
C401 H423 0.950 . S
C402 N398 1.332 . S
C402 C401 1.382 . S
C402 H404 0.952 . S
C403 N398 1.332 . S
C403 C399 1.382 . S
C403 H405 0.948 . S
H404 C402 0.952 . S
H405 C403 0.948 . S
H406 C395 0.952 . S
H407 C397 0.948 . S
C408 C374 1.395 . S
C408 C378 1.391 . S
C409 C371 1.389 . S
C409 C391 1.392 . S
C410 C381 1.392 . S
C410 C383 1.389 . S
C411 C386 1.395 . S
C411 C388 1.391 . S
H412 C372 0.951 . S
H413 C373 0.950 . S
H414 C379 0.949 . S
H415 C380 0.950 . S
H416 C384 0.951 . S
H417 C385 0.924 1_455 S
H418 C389 0.949 1_455 S
H419 C390 0.950 . S
H420 C394 0.950 . S
H421 C396 0.950 . S
H422 C399 0.950 . S
H423 C401 0.950 . S
C424 C425 1.443 . S
C424 N428 1.376 . S
C424 C462 1.389 . S
C425 C424 1.443 . S
C425 C426 1.340 . S
C425 H465 0.951 . S
C426 C425 1.340 . S
C426 C427 1.439 . S
C426 H466 0.950 . S
C427 C426 1.439 . S
C427 N428 1.374 . S
C427 C461 1.395 . S
N428 C424 1.376 . S
N428 C427 1.374 . S
N428 Co429 2.008 . S
Co429 N428 2.008 . S
Co429 N430 1.995 . S
Co429 N435 2.008 . S
Co429 N440 1.995 . S
Co429 N445 2.282 . S
Co429 N451 2.282 . S
N430 Co429 1.995 . S
N430 C431 1.376 . S
N430 C434 1.383 . S
C431 N430 1.376 . S
C431 C432 1.446 . S
C431 C461 1.391 . S
C432 C431 1.446 . S
C432 C433 1.339 . S
C432 H467 0.949 . S
C433 C432 1.339 . S
C433 C434 1.439 . S
C433 H468 0.950 . S
C434 N430 1.383 . S
C434 C433 1.439 . S
C434 C463 1.392 . S
N435 Co429 2.008 . S
N435 C436 1.376 . S
N435 C439 1.374 . S
C436 N435 1.376 . S
C436 C437 1.443 . S
C436 C463 1.389 . S
C437 C436 1.443 . S
C437 C438 1.340 . S
C437 H469 0.951 . S
C438 C437 1.340 . S
C438 C439 1.439 . S
C438 H470 0.950 . S
C439 N435 1.374 . S
C439 C438 1.439 . S
C439 C464 1.395 . S
N440 Co429 1.995 . S
N440 C441 1.376 . S
N440 C444 1.383 . S
C441 N440 1.376 . S
C441 C442 1.446 . S
C441 C464 1.391 . S
C442 C441 1.446 . S
C442 C443 1.339 . S
C442 H471 0.949 . S
C443 C442 1.339 . S
C443 C444 1.439 . S
C443 H472 0.950 . S
C444 N440 1.383 . S
C444 C443 1.439 . S
C444 C462 1.392 . S
N445 Co429 2.282 . S
N445 C448 1.332 . S
N445 C450 1.332 . S
C446 C447 1.386 . S
C446 C449 1.388 . S
C447 C446 1.386 . S
C447 C448 1.382 . S
C447 H473 0.950 . S
C448 N445 1.332 . S
C448 C447 1.382 . S
C448 H459 0.952 . S
C449 C446 1.388 . S
C449 C450 1.382 . S
C449 H474 0.950 . S
C450 N445 1.332 . S
C450 C449 1.382 . S
C450 H460 0.948 . S
N451 Co429 2.282 . S
N451 C455 1.332 . S
N451 C456 1.332 . S
C452 C453 1.388 . S
C452 C456 1.382 . S
C452 H475 0.950 . S
C453 C452 1.388 . S
C453 C454 1.386 . S
C454 C453 1.386 . S
C454 C455 1.382 . S
C454 H476 0.950 . S
C455 N451 1.332 . S
C455 C454 1.382 . S
C455 H457 0.952 . S
C456 N451 1.332 . S
C456 C452 1.382 . S
C456 H458 0.948 . S
H457 C455 0.952 . S
H458 C456 0.948 . S
H459 C448 0.952 . S
H460 C450 0.948 . S
C461 C427 1.395 . S
C461 C431 1.391 . S
C462 C424 1.389 . S
C462 C444 1.392 . S
C463 C434 1.392 . S
C463 C436 1.389 . S
C464 C439 1.395 . S
C464 C441 1.391 . S
H465 C425 0.951 . S
H466 C426 0.950 . S
H467 C432 0.949 . S
H468 C433 0.950 . S
H469 C437 0.951 . S
H470 C438 0.950 . S
H471 C442 0.949 . S
H472 C443 0.950 . S
H473 C447 0.950 . S
H474 C449 0.950 . S
H475 C452 0.950 . S
H476 C454 0.950 . S
C477 C478 1.443 . S
C477 N481 1.376 . S
C477 C515 1.389 . S
C478 C477 1.443 . S
C478 C479 1.340 . S
C478 H518 0.951 . S
C479 C478 1.340 . S
C479 C480 1.439 1_556 S
C479 H519 0.950 . S
C480 C479 1.439 1_554 S
C480 N481 1.374 1_554 S
C480 C514 1.395 . S
N481 C477 1.376 . S
N481 C480 1.374 1_556 S
N481 Co482 2.008 1_556 S
Co482 N481 2.008 1_554 S
Co482 N483 1.995 . S
Co482 N488 2.008 . S
Co482 N493 1.995 . S
Co482 N498 2.282 . S
Co482 N504 2.282 . S
N483 Co482 1.995 . S
N483 C484 1.376 . S
N483 C487 1.383 . S
C484 N483 1.376 . S
C484 C485 1.446 . S
C484 C514 1.391 . S
C485 C484 1.446 . S
C485 C486 1.339 . S
C485 H520 0.949 . S
C486 C485 1.339 . S
C486 C487 1.439 . S
C486 H521 0.950 . S
C487 N483 1.383 . S
C487 C486 1.439 . S
C487 C516 1.392 . S
N488 Co482 2.008 . S
N488 C489 1.376 . S
N488 C492 1.374 . S
C489 N488 1.376 . S
C489 C490 1.443 . S
C489 C516 1.389 . S
C490 C489 1.443 . S
C490 C491 1.340 . S
C490 H522 0.951 . S
C491 C490 1.340 . S
C491 C492 1.439 . S
C491 H523 0.950 . S
C492 N488 1.374 . S
C492 C491 1.439 . S
C492 C517 1.395 . S
N493 Co482 1.995 . S
N493 C494 1.376 . S
N493 C497 1.383 1_554 S
C494 N493 1.376 . S
C494 C495 1.446 1_554 S
C494 C517 1.391 . S
C495 C494 1.446 1_556 S
C495 C496 1.339 . S
C495 H524 0.949 . S
C496 C495 1.339 . S
C496 C497 1.439 . S
C496 H525 0.950 . S
C497 N493 1.383 1_556 S
C497 C496 1.439 . S
C497 C515 1.392 . S
N498 Co482 2.282 . S
N498 C501 1.332 . S
N498 C503 1.332 . S
C499 C500 1.386 . S
C499 C502 1.388 . S
C500 C499 1.386 . S
C500 C501 1.382 . S
C500 H526 0.950 . S
C501 N498 1.332 . S
C501 C500 1.382 . S
C501 H512 0.952 . S
C502 C499 1.388 . S
C502 C503 1.382 . S
C502 H527 0.950 . S
C503 N498 1.332 . S
C503 C502 1.382 . S
C503 H513 0.948 . S
N504 Co482 2.282 . S
N504 C508 1.332 . S
N504 C509 1.332 . S
C505 C506 1.388 . S
C505 C509 1.382 . S
C505 H528 0.950 1_554 S
C506 C505 1.388 . S
C506 C507 1.386 . S
C507 C506 1.386 . S
C507 C508 1.382 . S
C507 H529 0.950 . S
C508 N504 1.332 . S
C508 C507 1.382 . S
C508 H510 0.952 . S
C509 N504 1.332 . S
C509 C505 1.382 . S
C509 H511 0.948 . S
H510 C508 0.952 . S
H511 C509 0.948 . S
H512 C501 0.952 . S
H513 C503 0.948 . S
C514 C480 1.395 . S
C514 C484 1.391 . S
C515 C477 1.389 . S
C515 C497 1.392 . S
C516 C487 1.392 . S
C516 C489 1.389 . S
C517 C492 1.395 . S
C517 C494 1.391 . S
H518 C478 0.951 . S
H519 C479 0.950 . S
H520 C485 0.949 . S
H521 C486 0.950 . S
H522 C490 0.951 . S
H523 C491 0.950 . S
H524 C495 0.949 . S
H525 C496 0.950 . S
H526 C500 0.950 . S
H527 C502 0.950 . S
H528 C505 0.950 1_556 S
H529 C507 0.950 . S
C530 C531 1.443 . S
C530 N534 1.376 . S
C530 C568 1.389 . S
C531 C530 1.443 . S
C531 C532 1.340 . S
C531 H571 0.951 . S
C532 C531 1.340 . S
C532 C533 1.439 . S
C532 H572 0.950 . S
C533 C532 1.439 . S
C533 N534 1.374 . S
C533 C567 1.395 . S
N534 C530 1.376 . S
N534 C533 1.374 . S
N534 Co535 2.008 . S
Co535 N534 2.008 . S
Co535 N536 1.995 . S
Co535 N541 2.008 . S
Co535 N546 1.995 . S
Co535 N551 2.282 . S
Co535 N557 2.282 . S
N536 Co535 1.995 . S
N536 C537 1.376 . S
N536 C540 1.383 . S
C537 N536 1.376 . S
C537 C538 1.446 . S
C537 C567 1.391 . S
C538 C537 1.446 . S
C538 C539 1.339 . S
C538 H573 0.949 . S
C539 C538 1.339 . S
C539 C540 1.439 . S
C539 H574 0.950 . S
C540 N536 1.383 . S
C540 C539 1.439 . S
C540 C569 1.392 . S
N541 Co535 2.008 . S
N541 C542 1.376 . S
N541 C545 1.374 . S
C542 N541 1.376 . S
C542 C543 1.443 . S
C542 C569 1.389 . S
C543 C542 1.443 . S
C543 C544 1.340 . S
C543 H575 0.951 1_655 S
C544 C543 1.340 . S
C544 C545 1.439 . S
C544 H576 0.950 . S
C545 N541 1.374 . S
C545 C544 1.439 . S
C545 C570 1.395 . S
N546 Co535 1.995 . S
N546 C547 1.376 . S
N546 C550 1.383 . S
C547 N546 1.376 . S
C547 C548 1.446 . S
C547 C570 1.391 . S
C548 C547 1.446 . S
C548 C549 1.339 . S
C548 H577 0.949 . S
C549 C548 1.339 . S
C549 C550 1.439 . S
C549 H578 0.950 . S
C550 N546 1.383 . S
C550 C549 1.439 . S
C550 C568 1.392 . S
N551 Co535 2.282 . S
N551 C554 1.332 . S
N551 C556 1.332 . S
C552 C553 1.386 . S
C552 C555 1.388 . S
C553 C552 1.386 . S
C553 C554 1.382 . S
C553 H579 0.950 . S
C554 N551 1.332 . S
C554 C553 1.382 . S
C554 H565 0.952 . S
C555 C552 1.388 . S
C555 C556 1.382 . S
C555 H580 0.950 . S
C556 N551 1.332 . S
C556 C555 1.382 . S
C556 H566 0.948 . S
N557 Co535 2.282 . S
N557 C561 1.332 . S
N557 C562 1.332 . S
C558 C559 1.388 . S
C558 C562 1.382 . S
C558 H581 0.950 . S
C559 C558 1.388 . S
C559 C560 1.386 . S
C560 C559 1.386 . S
C560 C561 1.382 . S
C560 H582 0.950 . S
C561 N557 1.332 . S
C561 C560 1.382 . S
C561 H563 0.952 . S
C562 N557 1.332 . S
C562 C558 1.382 . S
C562 H564 0.948 . S
H563 C561 0.952 . S
H564 C562 0.948 . S
H565 C554 0.952 . S
H566 C556 0.948 . S
C567 C533 1.395 . S
C567 C537 1.391 . S
C568 C530 1.389 . S
C568 C550 1.392 . S
C569 C540 1.392 . S
C569 C542 1.389 . S
C570 C545 1.395 . S
C570 C547 1.391 . S
H571 C531 0.951 . S
H572 C532 0.950 . S
H573 C538 0.949 . S
H574 C539 0.950 . S
H575 C543 0.951 1_455 S
H576 C544 0.950 . S
H577 C548 0.949 . S
H578 C549 0.950 . S
H579 C553 0.950 . S
H580 C555 0.950 . S
H581 C558 0.950 . S
H582 C560 0.950 . S
C583 C584 1.443 . S
C583 N587 1.376 . S
C583 C621 1.389 . S
C584 C583 1.443 . S
C584 C585 1.340 . S
C584 H624 0.951 . S
C585 C584 1.340 . S
C585 C586 1.439 . S
C585 H625 0.950 . S
C586 C585 1.439 . S
C586 N587 1.374 . S
C586 C620 1.395 . S
N587 C583 1.376 . S
N587 C586 1.374 . S
N587 Co588 2.008 . S
Co588 N587 2.008 . S
Co588 N589 1.995 . S
Co588 N594 2.008 . S
Co588 N599 1.995 . S
Co588 N604 2.282 . S
Co588 N610 2.282 . S
N589 Co588 1.995 . S
N589 C590 1.376 . S
N589 C593 1.383 . S
C590 N589 1.376 . S
C590 C591 1.446 . S
C590 C620 1.391 . S
C591 C590 1.446 . S
C591 C592 1.339 . S
C591 H626 0.949 . S
C592 C591 1.339 . S
C592 C593 1.439 . S
C592 H627 0.950 . S
C593 N589 1.383 . S
C593 C592 1.439 . S
C593 C622 1.392 . S
N594 Co588 2.008 . S
N594 C595 1.376 . S
N594 C598 1.374 . S
C595 N594 1.376 . S
C595 C596 1.443 . S
C595 C622 1.389 . S
C596 C595 1.443 . S
C596 C597 1.340 . S
C596 H628 0.951 . S
C597 C596 1.340 . S
C597 C598 1.439 . S
C597 H629 0.925 1_455 S
C598 N594 1.374 . S
C598 C597 1.439 . S
C598 C623 1.395 . S
N599 Co588 1.995 . S
N599 C600 1.376 . S
N599 C603 1.383 . S
C600 N599 1.376 . S
C600 C601 1.446 . S
C600 C623 1.391 . S
C601 C600 1.446 . S
C601 C602 1.339 . S
C601 H630 0.949 1_455 S
C602 C601 1.339 . S
C602 C603 1.439 . S
C602 H631 0.950 . S
C603 N599 1.383 . S
C603 C602 1.439 . S
C603 C621 1.392 . S
N604 Co588 2.282 . S
N604 C607 1.332 . S
N604 C609 1.332 . S
C605 C606 1.386 . S
C605 C608 1.388 . S
C606 C605 1.386 . S
C606 C607 1.382 . S
C606 H632 0.950 . S
C607 N604 1.332 . S
C607 C606 1.382 . S
C607 H618 0.952 . S
C608 C605 1.388 . S
C608 C609 1.382 . S
C608 H633 0.950 . S
C609 N604 1.332 . S
C609 C608 1.382 . S
C609 H619 0.948 . S
N610 Co588 2.282 . S
N610 C614 1.332 . S
N610 C615 1.332 . S
C611 C612 1.388 . S
C611 C615 1.382 . S
C611 H634 0.950 . S
C612 C611 1.388 . S
C612 C613 1.386 . S
C613 C612 1.386 . S
C613 C614 1.382 . S
C613 H635 0.950 . S
C614 N610 1.332 . S
C614 C613 1.382 . S
C614 H616 0.952 . S
C615 N610 1.332 . S
C615 C611 1.382 . S
C615 H617 0.948 . S
H616 C614 0.952 . S
H617 C615 0.948 . S
H618 C607 0.952 . S
H619 C609 0.948 . S
C620 C586 1.395 . S
C620 C590 1.391 . S
C621 C583 1.389 . S
C621 C603 1.392 . S
C622 C593 1.392 . S
C622 C595 1.389 . S
C623 C598 1.395 . S
C623 C600 1.391 . S
H624 C584 0.951 . S
H625 C585 0.950 . S
H626 C591 0.949 . S
H627 C592 0.950 . S
H628 C596 0.951 . S
H629 C597 0.925 1_655 S
H630 C601 0.949 1_655 S
H631 C602 0.950 . S
H632 C606 0.950 . S
H633 C608 0.950 . S
H634 C611 0.950 . S
H635 C613 0.950 . S
C636 C637 1.443 . S
C636 N640 1.376 . S
C636 C674 1.389 . S
C637 C636 1.443 . S
C637 C638 1.340 . S
C637 H677 0.951 . S
C638 C637 1.340 . S
C638 C639 1.439 . S
C638 H678 0.950 . S
C639 C638 1.439 . S
C639 N640 1.374 . S
C639 C673 1.395 . S
N640 C636 1.376 . S
N640 C639 1.374 . S
N640 Co641 2.008 . S
Co641 N640 2.008 . S
Co641 N642 1.995 . S
Co641 N647 2.008 . S
Co641 N652 1.995 . S
Co641 N657 2.282 . S
Co641 N663 2.282 . S
N642 Co641 1.995 . S
N642 C643 1.376 . S
N642 C646 1.383 . S
C643 N642 1.376 . S
C643 C644 1.446 . S
C643 C673 1.391 . S
C644 C643 1.446 . S
C644 C645 1.339 . S
C644 H679 0.949 . S
C645 C644 1.339 . S
C645 C646 1.439 . S
C645 H680 0.950 . S
C646 N642 1.383 . S
C646 C645 1.439 . S
C646 C675 1.392 . S
N647 Co641 2.008 . S
N647 C648 1.376 . S
N647 C651 1.374 . S
C648 N647 1.376 . S
C648 C649 1.443 . S
C648 C675 1.389 . S
C649 C648 1.443 . S
C649 C650 1.340 . S
C649 H681 0.951 . S
C650 C649 1.340 . S
C650 C651 1.439 . S
C650 H682 0.950 . S
C651 N647 1.374 . S
C651 C650 1.439 . S
C651 C676 1.395 . S
N652 Co641 1.995 . S
N652 C653 1.376 . S
N652 C656 1.383 . S
C653 N652 1.376 . S
C653 C654 1.446 . S
C653 C676 1.391 . S
C654 C653 1.446 . S
C654 C655 1.339 . S
C654 H683 0.949 . S
C655 C654 1.339 . S
C655 C656 1.439 . S
C655 H684 0.950 . S
C656 N652 1.383 . S
C656 C655 1.439 . S
C656 C674 1.392 . S
N657 Co641 2.282 . S
N657 C660 1.332 . S
N657 C662 1.332 . S
C658 C659 1.386 . S
C658 C661 1.388 . S
C659 C658 1.386 . S
C659 C660 1.382 . S
C659 H685 0.950 . S
C660 N657 1.332 . S
C660 C659 1.382 . S
C660 H671 0.952 . S
C661 C658 1.388 . S
C661 C662 1.382 . S
C661 H686 0.950 . S
C662 N657 1.332 . S
C662 C661 1.382 . S
C662 H672 0.948 . S
N663 Co641 2.282 . S
N663 C667 1.332 . S
N663 C668 1.332 . S
C664 C665 1.388 . S
C664 C668 1.382 . S
C664 H687 0.950 . S
C665 C664 1.388 . S
C665 C666 1.386 . S
C666 C665 1.386 . S
C666 C667 1.382 . S
C666 H688 0.950 . S
C667 N663 1.332 . S
C667 C666 1.382 . S
C667 H669 0.952 . S
C668 N663 1.332 . S
C668 C664 1.382 . S
C668 H670 0.948 . S
H669 C667 0.952 . S
H670 C668 0.948 . S
H671 C660 0.952 . S
H672 C662 0.948 . S
C673 C639 1.395 . S
C673 C643 1.391 . S
C674 C636 1.389 . S
C674 C656 1.392 . S
C675 C646 1.392 . S
C675 C648 1.389 . S
C676 C651 1.395 . S
C676 C653 1.391 . S
H677 C637 0.951 . S
H678 C638 0.950 . S
H679 C644 0.949 . S
H680 C645 0.950 . S
H681 C649 0.951 . S
H682 C650 0.950 . S
H683 C654 0.949 . S
H684 C655 0.950 . S
H685 C659 0.950 . S
H686 C661 0.950 . S
H687 C664 0.950 . S
H688 C666 0.950 . S
C689 C690 1.443 . S
C689 N693 1.376 . S
C689 C727 1.389 . S
C690 C689 1.443 . S
C690 C691 1.340 . S
C690 H730 0.951 . S
C691 C690 1.340 . S
C691 C692 1.439 . S
C691 H731 0.950 . S
C692 C691 1.439 . S
C692 N693 1.374 . S
C692 C726 1.395 . S
N693 C689 1.376 . S
N693 C692 1.374 . S
N693 Co694 2.008 . S
Co694 N693 2.008 . S
Co694 N695 1.995 . S
Co694 N700 2.008 . S
Co694 N705 1.995 . S
Co694 N710 2.282 . S
Co694 N716 2.282 . S
N695 Co694 1.995 . S
N695 C696 1.376 . S
N695 C699 1.383 . S
C696 N695 1.376 . S
C696 C697 1.446 . S
C696 C726 1.391 . S
C697 C696 1.446 . S
C697 C698 1.339 . S
C697 H732 0.949 . S
C698 C697 1.339 . S
C698 C699 1.439 . S
C698 H733 0.950 . S
C699 N695 1.383 . S
C699 C698 1.439 . S
C699 C728 1.392 . S
N700 Co694 2.008 . S
N700 C701 1.376 . S
N700 C704 1.374 . S
C701 N700 1.376 . S
C701 C702 1.443 . S
C701 C728 1.389 . S
C702 C701 1.443 . S
C702 C703 1.340 . S
C702 H734 0.951 . S
C703 C702 1.340 . S
C703 C704 1.439 . S
C703 H735 0.924 1_455 S
C704 N700 1.374 . S
C704 C703 1.439 . S
C704 C729 1.395 . S
N705 Co694 1.995 . S
N705 C706 1.376 . S
N705 C709 1.383 . S
C706 N705 1.376 . S
C706 C707 1.446 . S
C706 C729 1.391 . S
C707 C706 1.446 . S
C707 C708 1.339 . S
C707 H736 0.949 1_455 S
C708 C707 1.339 . S
C708 C709 1.439 . S
C708 H737 0.950 . S
C709 N705 1.383 . S
C709 C708 1.439 . S
C709 C727 1.392 . S
N710 Co694 2.282 . S
N710 C713 1.332 . S
N710 C715 1.332 . S
C711 C712 1.386 . S
C711 C714 1.388 . S
C712 C711 1.386 . S
C712 C713 1.382 . S
C712 H738 0.950 . S
C713 N710 1.332 . S
C713 C712 1.382 . S
C713 H724 0.952 . S
C714 C711 1.388 . S
C714 C715 1.382 . S
C714 H739 0.950 . S
C715 N710 1.332 . S
C715 C714 1.382 . S
C715 H725 0.948 . S
N716 Co694 2.282 . S
N716 C720 1.332 . S
N716 C721 1.332 . S
C717 C718 1.388 . S
C717 C721 1.382 . S
C717 H740 0.950 . S
C718 C717 1.388 . S
C718 C719 1.386 . S
C719 C718 1.386 . S
C719 C720 1.382 . S
C719 H741 0.950 . S
C720 N716 1.332 . S
C720 C719 1.382 . S
C720 H722 0.952 . S
C721 N716 1.332 . S
C721 C717 1.382 . S
C721 H723 0.948 . S
H722 C720 0.952 . S
H723 C721 0.948 . S
H724 C713 0.952 . S
H725 C715 0.948 . S
C726 C692 1.395 . S
C726 C696 1.391 . S
C727 C689 1.389 . S
C727 C709 1.392 . S
C728 C699 1.392 . S
C728 C701 1.389 . S
C729 C704 1.395 . S
C729 C706 1.391 . S
H730 C690 0.951 . S
H731 C691 0.950 . S
H732 C697 0.949 . S
H733 C698 0.950 . S
H734 C702 0.951 . S
H735 C703 0.924 1_655 S
H736 C707 0.949 1_655 S
H737 C708 0.950 . S
H738 C712 0.950 . S
H739 C714 0.950 . S
H740 C717 0.950 . S
H741 C719 0.950 . S
C742 C743 1.437 1_554 S
C742 N746 1.383 . S
C742 C780 1.388 1_554 S
C743 C742 1.437 1_556 S
C743 C744 1.340 . S
C743 H783 0.951 . S
C744 C743 1.340 . S
C744 C745 1.439 1_556 S
C744 H784 0.950 . S
C745 C744 1.439 1_554 S
C745 N746 1.374 . S
C745 C779 1.395 . S
N746 C742 1.383 . S
N746 C745 1.374 . S
N746 Co747 2.008 . S
Co747 N746 2.008 . S
Co747 N748 1.995 . S
Co747 N753 2.008 . S
Co747 N758 1.995 . S
Co747 N763 2.282 . S
Co747 N769 2.282 1_554 S
N748 Co747 1.995 . S
N748 C749 1.376 . S
N748 C752 1.383 . S
C749 N748 1.376 . S
C749 C750 1.446 . S
C749 C779 1.391 . S
C750 C749 1.446 . S
C750 C751 1.339 . S
C750 H785 0.949 . S
C751 C750 1.339 . S
C751 C752 1.439 . S
C751 H786 0.950 . S
C752 N748 1.383 . S
C752 C751 1.439 . S
C752 C781 1.392 . S
N753 Co747 2.008 . S
N753 C754 1.376 . S
N753 C757 1.374 . S
C754 N753 1.376 . S
C754 C755 1.443 . S
C754 C781 1.389 . S
C755 C754 1.443 . S
C755 C756 1.340 . S
C755 H787 0.951 1_655 S
C756 C755 1.340 . S
C756 C757 1.439 . S
C756 H788 0.950 . S
C757 N753 1.374 . S
C757 C756 1.439 . S
C757 C782 1.395 . S
N758 Co747 1.995 . S
N758 C759 1.376 . S
N758 C762 1.383 . S
C759 N758 1.376 . S
C759 C760 1.446 . S
C759 C782 1.391 . S
C760 C759 1.446 . S
C760 C761 1.339 . S
C760 H789 0.949 . S
C761 C760 1.339 . S
C761 C762 1.439 . S
C761 H790 0.950 . S
C762 N758 1.383 . S
C762 C761 1.439 . S
C762 C780 1.388 1_554 S
N763 Co747 2.282 . S
N763 C766 1.332 . S
N763 C768 1.332 . S
C764 C765 1.386 . S
C764 C767 1.388 . S
C765 C764 1.386 . S
C765 C766 1.382 . S
C765 H791 0.950 . S
C766 N763 1.332 . S
C766 C765 1.382 . S
C766 H777 0.952 . S
C767 C764 1.388 . S
C767 C768 1.382 . S
C767 H792 0.950 . S
C768 N763 1.332 . S
C768 C767 1.382 . S
C768 H778 0.948 . S
N769 Co747 2.282 1_556 S
N769 C773 1.332 . S
N769 C774 1.332 . S
C770 C771 1.388 . S
C770 C774 1.382 . S
C770 H793 0.950 . S
C771 C770 1.388 . S
C771 C772 1.386 . S
C772 C771 1.386 . S
C772 C773 1.382 . S
C772 H794 0.950 . S
C773 N769 1.332 . S
C773 C772 1.382 . S
C773 H775 0.952 . S
C774 N769 1.332 . S
C774 C770 1.382 . S
C774 H776 0.948 . S
H775 C773 0.952 . S
H776 C774 0.948 . S
H777 C766 0.952 . S
H778 C768 0.948 . S
C779 C745 1.395 . S
C779 C749 1.391 . S
C780 C742 1.388 1_556 S
C780 C762 1.388 1_556 S
C781 C752 1.392 . S
C781 C754 1.389 . S
C782 C757 1.395 . S
C782 C759 1.391 . S
H783 C743 0.951 . S
H784 C744 0.950 . S
H785 C750 0.949 . S
H786 C751 0.950 . S
H787 C755 0.951 1_455 S
H788 C756 0.950 . S
H789 C760 0.949 . S
H790 C761 0.950 . S
H791 C765 0.950 . S
H792 C767 0.950 . S
H793 C770 0.950 . S
H794 C772 0.950 . S
C795 C796 1.443 . S
C795 N799 1.376 . S
C795 C833 1.389 . S
C796 C795 1.443 . S
C796 C797 1.340 . S
C796 H836 0.951 . S
C797 C796 1.340 . S
C797 C798 1.439 . S
C797 H837 0.950 . S
C798 C797 1.439 . S
C798 N799 1.374 . S
C798 C832 1.395 . S
N799 C795 1.376 . S
N799 C798 1.374 . S
N799 Co800 2.008 . S
Co800 N799 2.008 . S
Co800 N801 1.995 . S
Co800 N806 2.008 . S
Co800 N811 1.995 . S
Co800 N816 2.282 . S
Co800 N822 2.282 . S
N801 Co800 1.995 . S
N801 C802 1.376 . S
N801 C805 1.383 . S
C802 N801 1.376 . S
C802 C803 1.446 . S
C802 C832 1.391 . S
C803 C802 1.446 . S
C803 C804 1.339 . S
C803 H838 0.949 . S
C804 C803 1.339 . S
C804 C805 1.439 . S
C804 H839 0.950 . S
C805 N801 1.383 . S
C805 C804 1.439 . S
C805 C834 1.392 . S
N806 Co800 2.008 . S
N806 C807 1.376 . S
N806 C810 1.374 . S
C807 N806 1.376 . S
C807 C808 1.443 . S
C807 C834 1.389 . S
C808 C807 1.443 . S
C808 C809 1.340 . S
C808 H840 0.951 . S
C809 C808 1.340 . S
C809 C810 1.439 . S
C809 H841 0.950 . S
C810 N806 1.374 . S
C810 C809 1.439 . S
C810 C835 1.395 . S
N811 Co800 1.995 . S
N811 C812 1.376 . S
N811 C815 1.383 . S
C812 N811 1.376 . S
C812 C813 1.446 . S
C812 C835 1.391 . S
C813 C812 1.446 . S
C813 C814 1.339 . S
C813 H842 0.949 . S
C814 C813 1.339 . S
C814 C815 1.439 . S
C814 H843 0.950 . S
C815 N811 1.383 . S
C815 C814 1.439 . S
C815 C833 1.392 . S
N816 Co800 2.282 . S
N816 C819 1.332 . S
N816 C821 1.332 . S
C817 C818 1.386 . S
C817 C820 1.388 . S
C818 C817 1.386 . S
C818 C819 1.382 . S
C818 H844 0.950 . S
C819 N816 1.332 . S
C819 C818 1.382 . S
C819 H830 0.952 . S
C820 C817 1.388 . S
C820 C821 1.382 . S
C820 H845 0.950 . S
C821 N816 1.332 . S
C821 C820 1.382 . S
C821 H831 0.948 . S
N822 Co800 2.282 . S
N822 C826 1.332 . S
N822 C827 1.332 . S
C823 C824 1.388 . S
C823 C827 1.382 . S
C823 H846 0.950 . S
C824 C823 1.388 . S
C824 C825 1.386 . S
C825 C824 1.386 . S
C825 C826 1.382 . S
C825 H847 0.950 . S
C826 N822 1.332 . S
C826 C825 1.382 . S
C826 H828 0.952 . S
C827 N822 1.332 . S
C827 C823 1.382 . S
C827 H829 0.948 . S
H828 C826 0.952 . S
H829 C827 0.948 . S
H830 C819 0.952 . S
H831 C821 0.948 . S
C832 C798 1.395 . S
C832 C802 1.391 . S
C833 C795 1.389 . S
C833 C815 1.392 . S
C834 C805 1.392 . S
C834 C807 1.389 . S
C835 C810 1.395 . S
C835 C812 1.391 . S
H836 C796 0.951 . S
H837 C797 0.950 . S
H838 C803 0.949 . S
H839 C804 0.950 . S
H840 C808 0.951 . S
H841 C809 0.950 . S
H842 C813 0.949 . S
H843 C814 0.950 . S
H844 C818 0.950 . S
H845 C820 0.950 . S
H846 C823 0.950 . S
H847 C825 0.950 . S
C848 C849 1.369 . S
C848 C850 1.419 . S
C848 H852 0.930 . S
C849 C848 1.369 . S
C849 C858 1.429 . S
C850 C848 1.419 . S
C850 C851 1.363 . S
C850 H853 0.929 . S
C851 C850 1.363 . S
C851 C857 1.428 . S
H852 C848 0.930 . S
H853 C850 0.929 . S
S854 N855 1.613 . S
S854 N856 1.610 . S
N855 S854 1.613 . S
N855 C858 1.350 . S
N856 S854 1.610 . S
N856 C857 1.351 . S
C857 C851 1.428 . S
C857 N856 1.351 . S
C857 C858 1.434 . S
C858 C849 1.429 . S
C858 N855 1.350 . S
C858 C857 1.434 . S
C859 C860 1.369 . S
C859 C861 1.419 . S
C859 H863 0.930 . S
C860 C859 1.369 . S
C860 C869 1.429 . S
C861 C859 1.419 . S
C861 C862 1.363 . S
C861 H864 0.929 . S
C862 C861 1.363 . S
C862 C868 1.428 . S
H863 C859 0.930 . S
H864 C861 0.929 . S
S865 N866 1.613 . S
S865 N867 1.610 . S
N866 S865 1.613 . S
N866 C869 1.350 . S
N867 S865 1.610 . S
N867 C868 1.351 . S
C868 C862 1.428 . S
C868 N867 1.351 . S
C868 C869 1.434 . S
C869 C860 1.429 . S
C869 N866 1.350 . S
C869 C868 1.434 . S
C870 C871 1.369 . S
C870 C872 1.419 . S
C870 H874 0.930 . S
C871 C870 1.369 . S
C871 C880 1.429 . S
C872 C870 1.419 . S
C872 C873 1.363 . S
C872 H875 0.929 . S
C873 C872 1.363 . S
C873 C879 1.428 . S
H874 C870 0.930 . S
H875 C872 0.929 . S
S876 N877 1.613 1_554 S
S876 N878 1.610 . S
N877 S876 1.613 1_556 S
N877 C880 1.350 . S
N878 S876 1.610 . S
N878 C879 1.351 1_554 S
C879 C873 1.428 . S
C879 N878 1.351 1_556 S
C879 C880 1.434 . S
C880 C871 1.429 . S
C880 N877 1.350 . S
C880 C879 1.434 . S
C881 C882 1.369 . S
C881 C883 1.419 . S
C881 H885 0.930 . S
C882 C881 1.369 . S
C882 C891 1.429 . S
C883 C881 1.419 . S
C883 C884 1.363 . S
C883 H886 0.929 . S
C884 C883 1.363 . S
C884 C890 1.428 . S
H885 C881 0.930 . S
H886 C883 0.929 . S
S887 N888 1.613 . S
S887 N889 1.610 . S
N888 S887 1.613 . S
N888 C891 1.350 . S
N889 S887 1.610 . S
N889 C890 1.351 . S
C890 C884 1.428 . S
C890 N889 1.351 . S
C890 C891 1.434 . S
C891 C882 1.429 . S
C891 N888 1.350 . S
C891 C890 1.434 . S
C892 C893 1.369 . S
C892 C894 1.419 . S
C892 H896 0.930 . S
C893 C892 1.369 . S
C893 C902 1.429 . S
C894 C892 1.419 . S
C894 C895 1.363 . S
C894 H897 0.929 . S
C895 C894 1.363 . S
C895 C901 1.428 . S
H896 C892 0.930 . S
H897 C894 0.929 . S
S898 N899 1.613 . S
S898 N900 1.610 . S
N899 S898 1.613 . S
N899 C902 1.350 . S
N900 S898 1.610 . S
N900 C901 1.351 . S
C901 C895 1.428 . S
C901 N900 1.351 . S
C901 C902 1.434 . S
C902 C893 1.429 . S
C902 N899 1.350 . S
C902 C901 1.434 . S
C903 C904 1.369 . S
C903 C905 1.419 . S
C903 H907 0.930 . S
C904 C903 1.369 . S
C904 C913 1.429 . S
C905 C903 1.419 . S
C905 C906 1.363 . S
C905 H908 0.929 . S
C906 C905 1.363 . S
C906 C912 1.428 . S
H907 C903 0.930 . S
H908 C905 0.929 . S
S909 N910 1.613 . S
S909 N911 1.610 . S
N910 S909 1.613 . S
N910 C913 1.350 . S
N911 S909 1.610 . S
N911 C912 1.351 . S
C912 C906 1.428 . S
C912 N911 1.351 . S
C912 C913 1.434 . S
C913 C904 1.429 . S
C913 N910 1.350 . S
C913 C912 1.434 . S
C914 C915 1.369 . S
C914 C916 1.419 . S
C914 H918 0.930 . S
C915 C914 1.369 . S
C915 C924 1.429 . S
C916 C914 1.419 . S
C916 C917 1.363 . S
C916 H919 0.929 . S
C917 C916 1.363 . S
C917 C923 1.428 . S
H918 C914 0.930 . S
H919 C916 0.929 . S
S920 N921 1.613 . S
S920 N922 1.610 . S
N921 S920 1.613 . S
N921 C924 1.350 . S
N922 S920 1.610 . S
N922 C923 1.351 . S
C923 C917 1.428 . S
C923 N922 1.351 . S
C923 C924 1.434 . S
C924 C915 1.429 . S
C924 N921 1.350 . S
C924 C923 1.434 . S
C925 C926 1.369 . S
C925 C927 1.419 . S
C925 H929 0.930 . S
C926 C925 1.369 . S
C926 C935 1.429 . S
C927 C925 1.419 . S
C927 C928 1.363 . S
C927 H930 0.929 . S
C928 C927 1.363 . S
C928 C934 1.428 . S
H929 C925 0.930 . S
H930 C927 0.929 . S
S931 N932 1.613 . S
S931 N933 1.610 . S
N932 S931 1.613 . S
N932 C935 1.350 . S
N933 S931 1.610 . S
N933 C934 1.351 . S
C934 C928 1.428 . S
C934 N933 1.351 . S
C934 C935 1.434 . S
C935 C926 1.429 . S
C935 N932 1.350 . S
C935 C934 1.434 . S
C936 C937 1.369 . S
C936 C938 1.419 1_545 S
C936 H940 0.930 . S
C937 C936 1.369 . S
C937 C946 1.429 1_455 S
C938 C936 1.419 1_565 S
C938 C939 1.363 1_455 S
C938 H941 0.929 . S
C939 C938 1.363 1_655 S
C939 C945 1.428 . S
H940 C936 0.930 . S
H941 C938 0.929 . S
S942 N943 1.613 . S
S942 N944 1.610 1_545 S
N943 S942 1.613 . S
N943 C946 1.350 . S
N944 S942 1.610 1_565 S
N944 C945 1.351 . S
C945 C939 1.428 . S
C945 N944 1.351 . S
C945 C946 1.434 1_565 S
C946 C937 1.429 1_655 S
C946 N943 1.350 . S
C946 C945 1.434 1_545 S
C947 C948 1.369 . S
C947 C949 1.419 1_655 S
C947 H951 0.930 . S
C948 C947 1.369 . S
C948 C957 1.429 . S
C949 C947 1.419 1_455 S
C949 C950 1.363 . S
C949 H952 0.929 . S
C950 C949 1.363 . S
C950 C956 1.428 . S
H951 C947 0.930 . S
H952 C949 0.929 . S
S953 N954 1.613 1_455 S
S953 N955 1.610 . S
N954 S953 1.613 1_655 S
N954 C957 1.350 . S
N955 S953 1.610 . S
N955 C956 1.351 . S
C956 C950 1.428 . S
C956 N955 1.351 . S
C956 C957 1.434 1_455 S
C957 C948 1.429 . S
C957 N954 1.350 . S
C957 C956 1.434 1_655 S
C958 C959 1.369 . S
C958 C960 1.419 . S
C958 H962 0.930 . S
C959 C958 1.369 . S
C959 C968 1.429 . S
C960 C958 1.419 . S
C960 C961 1.363 . S
C960 H963 0.929 . S
C961 C960 1.363 . S
C961 C967 1.428 . S
H962 C958 0.930 . S
H963 C960 0.929 . S
S964 N965 1.613 . S
S964 N966 1.610 . S
N965 S964 1.613 . S
N965 C968 1.350 . S
N966 S964 1.610 . S
N966 C967 1.351 . S
C967 C961 1.428 . S
C967 N966 1.351 . S
C967 C968 1.434 . S
C968 C959 1.429 . S
C968 N965 1.350 . S
C968 C967 1.434 . S
C969 C970 1.369 1_545 S
C969 C971 1.419 . S
C969 H973 0.930 . S
C970 C969 1.369 1_565 S
C970 C979 1.429 1_556 S
C971 C969 1.419 . S
C971 C972 1.363 . S
C971 H974 0.929 . S
C972 C971 1.363 . S
C972 C978 1.428 1_546 S
H973 C969 0.930 . S
H974 C971 0.929 . S
S975 N976 1.613 . S
S975 N977 1.610 . S
N976 S975 1.613 . S
N976 C979 1.350 . S
N977 S975 1.610 . S
N977 C978 1.351 . S
C978 C972 1.428 1_564 S
C978 N977 1.351 . S
C978 C979 1.434 . S
C979 C970 1.429 1_554 S
C979 N976 1.350 . S
C979 C978 1.434 . S
C980 C981 1.369 . S
C980 C982 1.419 . S
C980 H984 0.930 . S
C981 C980 1.369 . S
C981 C990 1.429 1_455 S
C982 C980 1.419 . S
C982 C983 1.363 1_455 S
C982 H985 0.929 . S
C983 C982 1.363 1_655 S
C983 C989 1.428 . S
H984 C980 0.930 . S
H985 C982 0.929 . S
S986 N987 1.613 . S
S986 N988 1.610 . S
N987 S986 1.613 . S
N987 C990 1.350 . S
N988 S986 1.610 . S
N988 C989 1.351 . S
C989 C983 1.428 . S
C989 N988 1.351 . S
C989 C990 1.434 . S
C990 C981 1.429 1_655 S
C990 N987 1.350 . S
C990 C989 1.434 . S
C991 C992 1.369 . S
C991 C993 1.419 . S
C991 H995 0.930 . S
C992 C991 1.369 . S
C992 C1001 1.429 . S
C993 C991 1.419 . S
C993 C994 1.363 . S
C993 H996 0.929 . S
C994 C993 1.363 . S
C994 C1000 1.428 . S
H995 C991 0.930 . S
H996 C993 0.929 . S
S997 N998 1.613 . S
S997 N999 1.610 . S
N998 S997 1.613 . S
N998 C1001 1.350 . S
N999 S997 1.610 . S
N999 C1000 1.351 . S
C1000 C994 1.428 . S
C1000 N999 1.351 . S
C1000 C1001 1.434 . S
C1001 C992 1.429 . S
C1001 N998 1.350 . S
C1001 C1000 1.434 . S
C1002 C1003 1.369 . S
C1002 C1004 1.419 1_545 S
C1002 H1006 0.930 . S
C1003 C1002 1.369 . S
C1003 C1012 1.429 . S
C1004 C1002 1.419 1_565 S
C1004 C1005 1.363 . S
C1004 H1007 0.929 . S
C1005 C1004 1.363 . S
C1005 C1011 1.428 . S
H1006 C1002 0.930 . S
H1007 C1004 0.929 . S
S1008 N1009 1.613 . S
S1008 N1010 1.610 1_545 S
N1009 S1008 1.613 . S
N1009 C1012 1.350 . S
N1010 S1008 1.610 1_565 S
N1010 C1011 1.351 . S
C1011 C1005 1.428 . S
C1011 N1010 1.351 . S
C1011 C1012 1.434 1_565 S
C1012 C1003 1.429 . S
C1012 N1009 1.350 . S
C1012 C1011 1.434 1_545 S
C1013 C1014 1.369 . S
C1013 C1015 1.419 1_455 S
C1013 H1017 0.931 . S
C1014 C1013 1.369 . S
C1014 C1023 1.429 1_545 S
C1015 C1013 1.419 1_655 S
C1015 C1016 1.363 1_545 S
C1015 H1018 0.929 . S
C1016 C1015 1.363 1_565 S
C1016 C1022 1.439 . S
H1017 C1013 0.931 . S
H1018 C1015 0.929 . S
S1019 N1020 1.613 . S
S1019 N1021 1.610 . S
N1020 S1019 1.613 . S
N1020 C1023 1.350 . S
N1021 S1019 1.610 . S
N1021 C1022 1.350 1_455 S
C1022 C1016 1.439 . S
C1022 N1021 1.350 1_655 S
C1022 C1023 1.423 1_655 S
C1023 C1014 1.429 1_565 S
C1023 N1020 1.350 . S
C1023 C1022 1.423 1_455 S
C1024 C1025 1.369 . S
C1024 C1026 1.419 . S
C1024 H1028 0.930 . S
C1025 C1024 1.369 . S
C1025 C1034 1.429 . S
C1026 C1024 1.419 . S
C1026 C1027 1.363 . S
C1026 H1029 0.929 . S
C1027 C1026 1.363 . S
C1027 C1033 1.428 . S
H1028 C1024 0.930 . S
H1029 C1026 0.929 . S
S1030 N1031 1.613 . S
S1030 N1032 1.610 . S
N1031 S1030 1.613 . S
N1031 C1034 1.350 . S
N1032 S1030 1.610 . S
N1032 C1033 1.351 . S
C1033 C1027 1.428 . S
C1033 N1032 1.351 . S
C1033 C1034 1.434 . S
C1034 C1025 1.429 . S
C1034 N1031 1.350 . S
C1034 C1033 1.434 . S
C1035 C1036 1.369 . S
C1035 C1037 1.419 . S
C1035 H1039 0.930 . S
C1036 C1035 1.369 . S
C1036 C1045 1.429 . S
C1037 C1035 1.419 . S
C1037 C1038 1.363 . S
C1037 H1040 0.929 . S
C1038 C1037 1.363 . S
C1038 C1044 1.428 . S
H1039 C1035 0.930 . S
H1040 C1037 0.929 . S
S1041 N1042 1.613 . S
S1041 N1043 1.610 . S
N1042 S1041 1.613 . S
N1042 C1045 1.350 . S
N1043 S1041 1.610 . S
N1043 C1044 1.351 . S
C1044 C1038 1.428 . S
C1044 N1043 1.351 . S
C1044 C1045 1.434 . S
C1045 C1036 1.429 . S
C1045 N1042 1.350 . S
C1045 C1044 1.434 . S
C1046 C1047 1.369 . S
C1046 C1048 1.419 . S
C1046 H1050 0.930 . S
C1047 C1046 1.369 . S
C1047 C1056 1.429 . S
C1048 C1046 1.419 . S
C1048 C1049 1.363 . S
C1048 H1051 0.929 . S
C1049 C1048 1.363 . S
C1049 C1055 1.428 . S
H1050 C1046 0.930 . S
H1051 C1048 0.929 . S
S1052 N1053 1.613 . S
S1052 N1054 1.610 . S
N1053 S1052 1.613 . S
N1053 C1056 1.350 . S
N1054 S1052 1.610 . S
N1054 C1055 1.351 . S
C1055 C1049 1.428 . S
C1055 N1054 1.351 . S
C1055 C1056 1.434 . S
C1056 C1047 1.429 . S
C1056 N1053 1.350 . S
C1056 C1055 1.434 . S
C1057 C1058 1.369 . S
C1057 C1059 1.419 . S
C1057 H1061 0.930 . S
C1058 C1057 1.369 . S
C1058 C1067 1.429 . S
C1059 C1057 1.419 . S
C1059 C1060 1.363 . S
C1059 H1062 0.929 . S
C1060 C1059 1.363 . S
C1060 C1066 1.428 . S
H1061 C1057 0.930 . S
H1062 C1059 0.929 . S
S1063 N1064 1.613 . S
S1063 N1065 1.610 . S
N1064 S1063 1.613 . S
N1064 C1067 1.350 . S
N1065 S1063 1.610 . S
N1065 C1066 1.351 . S
C1066 C1060 1.428 . S
C1066 N1065 1.351 . S
C1066 C1067 1.434 . S
C1067 C1058 1.429 . S
C1067 N1064 1.350 . S
C1067 C1066 1.434 . S
C1068 C1069 1.369 . S
C1068 C1070 1.419 . S
C1068 H1072 0.930 . S
C1069 C1068 1.369 . S
C1069 C1078 1.429 . S
C1070 C1068 1.419 . S
C1070 C1071 1.363 . S
C1070 H1073 0.929 . S
C1071 C1070 1.363 . S
C1071 C1077 1.428 . S
H1072 C1068 0.930 . S
H1073 C1070 0.929 . S
S1074 N1075 1.613 . S
S1074 N1076 1.610 . S
N1075 S1074 1.613 . S
N1075 C1078 1.350 . S
N1076 S1074 1.610 . S
N1076 C1077 1.351 . S
C1077 C1071 1.428 . S
C1077 N1076 1.351 . S
C1077 C1078 1.434 . S
C1078 C1069 1.429 . S
C1078 N1075 1.350 . S
C1078 C1077 1.434 . S
C1079 C1080 1.369 . S
C1079 C1081 1.419 . S
C1079 H1083 0.930 . S
C1080 C1079 1.369 . S
C1080 C1089 1.429 . S
C1081 C1079 1.419 . S
C1081 C1082 1.363 . S
C1081 H1084 0.929 . S
C1082 C1081 1.363 . S
C1082 C1088 1.428 . S
H1083 C1079 0.930 . S
H1084 C1081 0.929 . S
S1085 N1086 1.613 . S
S1085 N1087 1.610 . S
N1086 S1085 1.613 . S
N1086 C1089 1.350 . S
N1087 S1085 1.610 . S
N1087 C1088 1.351 . S
C1088 C1082 1.428 . S
C1088 N1087 1.351 . S
C1088 C1089 1.434 . S
C1089 C1080 1.429 . S
C1089 N1086 1.350 . S
C1089 C1088 1.434 . S
C1090 C1091 1.369 . S
C1090 C1092 1.419 . S
C1090 H1094 0.930 . S
C1091 C1090 1.369 . S
C1091 C1100 1.429 . S
C1092 C1090 1.419 . S
C1092 C1093 1.363 . S
C1092 H1095 0.929 . S
C1093 C1092 1.363 . S
C1093 C1099 1.428 . S
H1094 C1090 0.930 . S
H1095 C1092 0.929 . S
S1096 N1097 1.613 . S
S1096 N1098 1.610 . S
N1097 S1096 1.613 . S
N1097 C1100 1.350 . S
N1098 S1096 1.610 . S
N1098 C1099 1.351 . S
C1099 C1093 1.428 . S
C1099 N1098 1.351 . S
C1099 C1100 1.434 . S
C1100 C1091 1.429 . S
C1100 N1097 1.350 . S
C1100 C1099 1.434 . S
C1101 C1102 1.369 . S
C1101 C1103 1.419 . S
C1101 H1105 0.930 . S
C1102 C1101 1.369 . S
C1102 C1111 1.429 . S
C1103 C1101 1.419 . S
C1103 C1104 1.363 . S
C1103 H1106 0.929 . S
C1104 C1103 1.363 . S
C1104 C1110 1.428 . S
H1105 C1101 0.930 . S
H1106 C1103 0.929 . S
S1107 N1108 1.613 . S
S1107 N1109 1.610 . S
N1108 S1107 1.613 . S
N1108 C1111 1.350 . S
N1109 S1107 1.610 . S
N1109 C1110 1.351 . S
C1110 C1104 1.428 . S
C1110 N1109 1.351 . S
C1110 C1111 1.434 . S
C1111 C1102 1.429 . S
C1111 N1108 1.350 . S
C1111 C1110 1.434 . S
C1112 C1113 1.369 1_554 S
C1112 C1114 1.419 . S
C1112 H1116 0.930 1_554 S
C1113 C1112 1.369 1_556 S
C1113 C1122 1.429 . S
C1114 C1112 1.419 . S
C1114 C1115 1.363 . S
C1114 H1117 0.929 . S
C1115 C1114 1.363 . S
C1115 C1121 1.428 . S
H1116 C1112 0.930 1_556 S
H1117 C1114 0.929 . S
S1118 N1119 1.613 1_554 S
S1118 N1120 1.610 . S
N1119 S1118 1.613 1_556 S
N1119 C1122 1.350 . S
N1120 S1118 1.610 . S
N1120 C1121 1.351 . S
C1121 C1115 1.428 . S
C1121 N1120 1.351 . S
C1121 C1122 1.434 1_554 S
C1122 C1113 1.429 . S
C1122 N1119 1.350 . S
C1122 C1121 1.434 1_556 S
C1123 C1124 1.369 . S
C1123 C1125 1.419 . S
C1123 H1127 0.930 . S
C1124 C1123 1.369 . S
C1124 C1133 1.429 . S
C1125 C1123 1.419 . S
C1125 C1126 1.363 . S
C1125 H1128 0.929 . S
C1126 C1125 1.363 . S
C1126 C1132 1.428 . S
H1127 C1123 0.930 . S
H1128 C1125 0.929 . S
S1129 N1130 1.613 . S
S1129 N1131 1.610 . S
N1130 S1129 1.613 . S
N1130 C1133 1.350 . S
N1131 S1129 1.610 . S
N1131 C1132 1.351 . S
C1132 C1126 1.428 . S
C1132 N1131 1.351 . S
C1132 C1133 1.434 . S
C1133 C1124 1.429 . S
C1133 N1130 1.350 . S
C1133 C1132 1.434 . S
C1134 C1135 1.369 . S
C1134 C1136 1.419 . S
C1134 H1138 0.930 . S
C1135 C1134 1.369 . S
C1135 C1144 1.429 . S
C1136 C1134 1.419 . S
C1136 C1137 1.363 . S
C1136 H1139 0.929 . S
C1137 C1136 1.363 . S
C1137 C1143 1.428 . S
H1138 C1134 0.930 . S
H1139 C1136 0.929 . S
S1140 N1141 1.613 . S
S1140 N1142 1.610 . S
N1141 S1140 1.613 . S
N1141 C1144 1.350 . S
N1142 S1140 1.610 . S
N1142 C1143 1.351 . S
C1143 C1137 1.428 . S
C1143 N1142 1.351 . S
C1143 C1144 1.434 . S
C1144 C1135 1.429 . S
C1144 N1141 1.350 . S
C1144 C1143 1.434 . S
C1145 C1146 1.369 . S
C1145 C1147 1.419 . S
C1145 H1149 0.930 . S
C1146 C1145 1.369 . S
C1146 C1155 1.429 . S
C1147 C1145 1.419 . S
C1147 C1148 1.363 . S
C1147 H1150 0.929 . S
C1148 C1147 1.363 . S
C1148 C1154 1.428 . S
H1149 C1145 0.930 . S
H1150 C1147 0.929 . S
S1151 N1152 1.613 . S
S1151 N1153 1.610 . S
N1152 S1151 1.613 . S
N1152 C1155 1.350 . S
N1153 S1151 1.610 . S
N1153 C1154 1.351 . S
C1154 C1148 1.428 . S
C1154 N1153 1.351 . S
C1154 C1155 1.434 . S
C1155 C1146 1.429 . S
C1155 N1152 1.350 . S
C1155 C1154 1.434 . S
C1156 C1157 1.369 . S
C1156 C1158 1.419 . S
C1156 H1160 0.930 . S
C1157 C1156 1.369 . S
C1157 C1166 1.429 . S
C1158 C1156 1.419 . S
C1158 C1159 1.363 . S
C1158 H1161 0.929 . S
C1159 C1158 1.363 . S
C1159 C1165 1.428 . S
H1160 C1156 0.930 . S
H1161 C1158 0.929 . S
S1162 N1163 1.613 . S
S1162 N1164 1.610 . S
N1163 S1162 1.613 . S
N1163 C1166 1.350 . S
N1164 S1162 1.610 . S
N1164 C1165 1.351 . S
C1165 C1159 1.428 . S
C1165 N1164 1.351 . S
C1165 C1166 1.434 . S
C1166 C1157 1.429 . S
C1166 N1163 1.350 . S
C1166 C1165 1.434 . S
C1167 C1168 1.369 . S
C1167 C1169 1.419 . S
C1167 H1171 0.930 . S
C1168 C1167 1.369 . S
C1168 C1177 1.429 . S
C1169 C1167 1.419 . S
C1169 C1170 1.363 . S
C1169 H1172 0.929 . S
C1170 C1169 1.363 . S
C1170 C1176 1.428 . S
H1171 C1167 0.930 . S
H1172 C1169 0.929 . S
S1173 N1174 1.613 . S
S1173 N1175 1.610 . S
N1174 S1173 1.613 . S
N1174 C1177 1.350 . S
N1175 S1173 1.610 . S
N1175 C1176 1.351 . S
C1176 C1170 1.428 . S
C1176 N1175 1.351 . S
C1176 C1177 1.434 . S
C1177 C1168 1.429 . S
C1177 N1174 1.350 . S
C1177 C1176 1.434 . S
C1178 C1179 1.369 . S
C1178 C1180 1.419 . S
C1178 H1182 0.930 . S
C1179 C1178 1.369 . S
C1179 C1188 1.429 . S
C1180 C1178 1.419 . S
C1180 C1181 1.363 . S
C1180 H1183 0.929 . S
C1181 C1180 1.363 . S
C1181 C1187 1.428 . S
H1182 C1178 0.930 . S
H1183 C1180 0.929 . S
S1184 N1185 1.613 . S
S1184 N1186 1.610 . S
N1185 S1184 1.613 . S
N1185 C1188 1.350 . S
N1186 S1184 1.610 . S
N1186 C1187 1.351 . S
C1187 C1181 1.428 . S
C1187 N1186 1.351 . S
C1187 C1188 1.434 . S
C1188 C1179 1.429 . S
C1188 N1185 1.350 . S
C1188 C1187 1.434 . S
C1189 C1190 1.369 . S
C1189 C1191 1.419 1_554 S
C1189 H1193 0.930 . S
C1190 C1189 1.369 . S
C1190 C1199 1.429 . S
C1191 C1189 1.419 1_556 S
C1191 C1192 1.363 . S
C1191 H1194 0.929 . S
C1192 C1191 1.363 . S
C1192 C1198 1.428 1_556 S
H1193 C1189 0.930 . S
H1194 C1191 0.929 . S
S1195 N1196 1.613 . S
S1195 N1197 1.610 . S
N1196 S1195 1.613 . S
N1196 C1199 1.350 . S
N1197 S1195 1.610 . S
N1197 C1198 1.351 . S
C1198 C1192 1.428 1_554 S
C1198 N1197 1.351 . S
C1198 C1199 1.434 . S
C1199 C1190 1.429 . S
C1199 N1196 1.350 . S
C1199 C1198 1.434 . S
C849 C356 2.274 . S
C851 C38 2.271 . S
C860 C393 2.139 . S
C862 C75 2.143 . S
C871 C144 2.271 . S
C873 C250 2.282 . S
C882 C181 2.142 . S
C884 C287 2.139 . S
C893 C462 2.268 . S
C895 C780 2.280 . S
C904 C817 2.143 . S
C906 C499 2.139 . S
C915 C568 2.268 . S
C917 C674 2.269 . S
C926 C605 2.143 . S
C928 C711 2.139 . S
C937 C39 2.747 . S
C939 C569 2.746 . S
C948 C82 1.985 . S
C950 C612 1.988 . S
C959 C145 2.745 . S
C961 C463 2.748 . S
C970 C188 1.981 1_556 S
C972 C506 1.988 1_556 S
C981 C251 2.751 . S
C983 C781 2.746 . S
C992 C824 1.983 . S
C994 C294 1.982 . S
C1003 C357 2.748 . S
C1005 C675 2.745 . S
C1014 C718 1.986 . S
C1016 C400 1.981 . S
C1025 C728 1.201 . S
C1027 C29 1.202 . S
C1036 C92 1.202 . S
C1038 C771 1.204 . S
C1047 C834 1.192 . S
C1049 C135 1.208 1_554 S
C1058 C665 1.202 . S
C1060 C198 1.201 . S
C1069 C622 1.193 . S
C1071 C241 1.210 . S
C1080 C304 1.193 . S
C1082 C453 1.209 1_554 S
C1091 C347 1.202 . S
C1093 C516 1.201 . S
C1102 C410 1.201 . S
C1104 C559 1.204 . S
C1113 C727 1.720 . S
C1115 C22 1.712 . S
C1124 C91 1.719 . S
C1126 C764 1.713 . S
C1135 C128 1.709 . S
C1137 C833 1.721 . S
C1146 C658 1.711 . S
C1148 C197 1.719 . S
C1157 C621 1.721 . S
C1159 C234 1.709 . S
C1168 C446 1.712 . S
C1170 C303 1.717 . S
C1179 C340 1.713 . S
C1181 C515 1.719 . S
C1190 C552 1.711 . S
C1192 C409 1.721 . S
