# Generated by pormake.
# Topology lcy-e, (6)-cn, num edge types: 1
# Building blocks:
#     Node 0, Type 0, BuildingBlock: INOVEN_clean_sbu_0, # of connection points: 6
#     Node 1, Type 0, BuildingBlock: INOVEN_clean_sbu_0, # of connection points: 6
#     Node 2, Type 0, BuildingBlock: INOVEN_clean_sbu_0, # of connection points: 6
#     Node 3, Type 0, BuildingBlock: INOVEN_clean_sbu_0, # of connection points: 6
#     Node 4, Type 0, BuildingBlock: INOVEN_clean_sbu_0, # of connection points: 6
#     Node 5, Type 0, BuildingBlock: INOVEN_clean_sbu_0, # of connection points: 6
#     Node 6, Type 0, BuildingBlock: INOVEN_clean_sbu_0, # of connection points: 6
#     Node 7, Type 0, BuildingBlock: INOVEN_clean_sbu_0, # of connection points: 6
#     Node 8, Type 0, BuildingBlock: INOVEN_clean_sbu_0, # of connection points: 6
#     Node 9, Type 0, BuildingBlock: INOVEN_clean_sbu_0, # of connection points: 6
#     Node 10, Type 0, BuildingBlock: INOVEN_clean_sbu_0, # of connection points: 6
#     Node 11, Type 0, BuildingBlock: INOVEN_clean_sbu_0, # of connection points: 6
#     Edge 12, Type (0, 0), BuildingBlock: CIFDUS_clean_linker_0, # of connection points: 2
#     Edge 13, Type (0, 0), BuildingBlock: CIFDUS_clean_linker_0, # of connection points: 2
#     Edge 14, Type (0, 0), BuildingBlock: CIFDUS_clean_linker_0, # of connection points: 2
#     Edge 15, Type (0, 0), BuildingBlock: CIFDUS_clean_linker_0, # of connection points: 2
#     Edge 16, Type (0, 0), BuildingBlock: CIFDUS_clean_linker_0, # of connection points: 2
#     Edge 17, Type (0, 0), BuildingBlock: CIFDUS_clean_linker_0, # of connection points: 2
#     Edge 18, Type (0, 0), BuildingBlock: CIFDUS_clean_linker_0, # of connection points: 2
#     Edge 19, Type (0, 0), BuildingBlock: CIFDUS_clean_linker_0, # of connection points: 2
#     Edge 20, Type (0, 0), BuildingBlock: CIFDUS_clean_linker_0, # of connection points: 2
#     Edge 21, Type (0, 0), BuildingBlock: CIFDUS_clean_linker_0, # of connection points: 2
#     Edge 22, Type (0, 0), BuildingBlock: CIFDUS_clean_linker_0, # of connection points: 2
#     Edge 23, Type (0, 0), BuildingBlock: CIFDUS_clean_linker_0, # of connection points: 2
#     Edge 24, Type (0, 0), BuildingBlock: CIFDUS_clean_linker_0, # of connection points: 2
#     Edge 25, Type (0, 0), BuildingBlock: CIFDUS_clean_linker_0, # of connection points: 2
#     Edge 26, Type (0, 0), BuildingBlock: CIFDUS_clean_linker_0, # of connection points: 2
#     Edge 27, Type (0, 0), BuildingBlock: CIFDUS_clean_linker_0, # of connection points: 2
#     Edge 28, Type (0, 0), BuildingBlock: CIFDUS_clean_linker_0, # of connection points: 2
#     Edge 29, Type (0, 0), BuildingBlock: CIFDUS_clean_linker_0, # of connection points: 2
#     Edge 30, Type (0, 0), BuildingBlock: CIFDUS_clean_linker_0, # of connection points: 2
#     Edge 31, Type (0, 0), BuildingBlock: CIFDUS_clean_linker_0, # of connection points: 2
#     Edge 32, Type (0, 0), BuildingBlock: CIFDUS_clean_linker_0, # of connection points: 2
#     Edge 33, Type (0, 0), BuildingBlock: CIFDUS_clean_linker_0, # of connection points: 2
#     Edge 34, Type (0, 0), BuildingBlock: CIFDUS_clean_linker_0, # of connection points: 2
#     Edge 35, Type (0, 0), BuildingBlock: CIFDUS_clean_linker_0, # of connection points: 2
#     Edge 36, Type (0, 0), BuildingBlock: CIFDUS_clean_linker_0, # of connection points: 2
#     Edge 37, Type (0, 0), BuildingBlock: CIFDUS_clean_linker_0, # of connection points: 2
#     Edge 38, Type (0, 0), BuildingBlock: CIFDUS_clean_linker_0, # of connection points: 2
#     Edge 39, Type (0, 0), BuildingBlock: CIFDUS_clean_linker_0, # of connection points: 2
#     Edge 40, Type (0, 0), BuildingBlock: CIFDUS_clean_linker_0, # of connection points: 2
#     Edge 41, Type (0, 0), BuildingBlock: CIFDUS_clean_linker_0, # of connection points: 2
#     Edge 42, Type (0, 0), BuildingBlock: CIFDUS_clean_linker_0, # of connection points: 2
#     Edge 43, Type (0, 0), BuildingBlock: CIFDUS_clean_linker_0, # of connection points: 2
#     Edge 44, Type (0, 0), BuildingBlock: CIFDUS_clean_linker_0, # of connection points: 2
#     Edge 45, Type (0, 0), BuildingBlock: CIFDUS_clean_linker_0, # of connection points: 2
#     Edge 46, Type (0, 0), BuildingBlock: CIFDUS_clean_linker_0, # of connection points: 2
#     Edge 47, Type (0, 0), BuildingBlock: CIFDUS_clean_linker_0, # of connection points: 2
# Relax obj value: 0.184
# Max RMSD: 0.310
# Mean RMSD: 0.294
data_MOF--net-lcy-e--node1-INOVEN_clean_sbu_0--edge1-CIFDUS_clean_linker_0
_symmetry_space_group_name_H-M    P1
_symmetry_Int_Tables_number       1
_symmetry_cell_setting            triclinic
loop_
_symmetry_equiv_pos_as_xyz
'x, y, z'
_cell_length_a     40.500217
_cell_length_b     38.636862
_cell_length_c     39.647915
_cell_angle_alpha  89.161869
_cell_angle_beta   90.701361
_cell_angle_gamma 87.673265
loop_
_atom_site_label
_atom_site_type_symbol
_atom_site_fract_x
_atom_site_fract_y
_atom_site_fract_z
_atom_type_partial_charge
Gd0 Gd 0.15661 0.23036 0.53574 0.0
Gd1 Gd 0.13336 0.2778 0.47927 0.0
C2 C 0.09638 0.20523 0.49089 0.0
C3 C 0.17272 0.19775 0.59143 0.0
C4 C 0.16041 0.1673 0.6095 0.0
C5 C 0.18303 0.14324 0.62458 0.0
C6 C 0.12648 0.16123 0.61087 0.0
C7 C 0.138 0.10765 0.64294 0.0
C8 C 0.11538 0.13182 0.62757 0.0
C9 C 0.172 0.11369 0.64103 0.0
C10 C 0.188 0.2192 0.47652 0.0
C11 C 0.18856 0.30614 0.52498 0.0
C12 C 0.12137 0.30497 0.42007 0.0
C13 C 0.13995 0.32331 0.39359 0.0
C14 C 0.14642 0.35861 0.3964 0.0
C15 C 0.15083 0.30565 0.36469 0.0
C16 C 0.17506 0.35794 0.34251 0.0
C17 C 0.16823 0.32272 0.33949 0.0
C18 C 0.16371 0.37566 0.37122 0.0
C19 C 0.10268 0.28884 0.53924 0.0
O20 O 0.11165 0.20127 0.52047 0.0
O21 O 0.10349 0.23071 0.46994 0.0
O22 O 0.18715 0.19144 0.56278 0.0
O23 O 0.15326 0.2256 0.59013 0.0
O24 O 0.17832 0.19489 0.49649 0.0
O25 O 0.18053 0.24835 0.48883 0.0
O26 O 0.17866 0.30461 0.49338 0.0
O27 O 0.18009 0.28215 0.54728 0.0
O28 O 0.11521 0.32135 0.44819 0.0
O29 O 0.12954 0.27214 0.42512 0.0
O30 O 0.10907 0.31353 0.51799 0.0
O31 O 0.11045 0.26015 0.5265 0.0
H32 H 0.20934 0.14719 0.62343 0.0
H33 H 0.1085 0.17917 0.59903 0.0
H34 H 0.08903 0.12832 0.62882 0.0
H35 H 0.19021 0.09538 0.65195 0.0
H36 H 0.13808 0.37321 0.41802 0.0
H37 H 0.14596 0.27851 0.36159 0.0
H38 H 0.17669 0.30821 0.31786 0.0
H39 H 0.16781 0.40298 0.37412 0.0
Gd40 Gd 0.99935 0.88805 0.74497 0.0
Gd41 Gd 0.05814 0.89458 0.79344 0.0
C42 C 0.05195 0.94384 0.72502 0.0
C43 C 0.94281 0.8888 0.71366 0.0
C44 C 0.92872 0.90356 0.68164 0.0
C45 C 0.94464 0.89863 0.65063 0.0
C46 C 0.89876 0.92311 0.68212 0.0
C47 C 0.90048 0.93216 0.62111 0.0
C48 C 0.88483 0.93732 0.65225 0.0
C49 C 0.93058 0.91264 0.62069 0.0
C50 C 0.05335 0.84818 0.73018 0.0
C51 C 1.0045 0.84424 0.8169 0.0
C52 C 0.11734 0.8954 0.81902 0.0
C53 C 0.14364 0.87617 0.83886 0.0
C54 C 0.15701 0.89172 0.86743 0.0
C55 C 0.15831 0.84477 0.82772 0.0
C56 C 0.20048 0.84618 0.87226 0.0
C57 C 0.18637 0.8299 0.84432 0.0
C58 C 0.18495 0.87691 0.88398 0.0
C59 C 1.00289 0.93329 0.80758 0.0
O60 O 0.02216 0.9327 0.71852 0.0
O61 O 0.07002 0.93169 0.75095 0.0
O62 O 0.96502 0.86335 0.71157 0.0
O63 O 0.95 0.91105 0.73694 0.0
O64 O 0.03413 0.86372 0.70778 0.0
O65 O 0.04248 0.85347 0.75944 0.0
O66 O 0.03647 0.84931 0.8184 0.0
O67 O 0.98507 0.85852 0.79276 0.0
O68 O 0.09114 0.90744 0.83481 0.0
O69 O 0.11072 0.88463 0.78859 0.0
O70 O 0.02212 0.91892 0.83073 0.0
O71 O 1.01508 0.92806 0.77907 0.0
H72 H 0.96795 0.88396 0.64947 0.0
H73 H 0.88601 0.92729 0.70567 0.0
H74 H 0.86144 0.95182 0.65349 0.0
H75 H 0.94345 0.90847 0.59721 0.0
H76 H 0.14638 0.91601 0.87644 0.0
H77 H 0.14877 0.83221 0.80561 0.0
H78 H 0.19766 0.8063 0.83453 0.0
H79 H 0.19461 0.88981 0.90584 0.0
Gd80 Gd 0.38963 0.78077 0.04561 0.0
Gd81 Gd 0.41367 0.73864 0.98112 0.0
C82 C 0.44876 0.80848 0.99712 0.0
C83 C 0.39129 0.80425 0.10612 0.0
C84 C 0.39925 0.83741 0.12217 0.0
C85 C 0.37648 0.86588 0.12227 0.0
C86 C 0.43046 0.84077 0.13746 0.0
C87 C 0.41651 0.90063 0.15152 0.0
C88 C 0.43906 0.87204 0.15174 0.0
C89 C 0.38501 0.89715 0.13688 0.0
C90 C 0.35759 0.80623 0.98957 0.0
C91 C 0.35056 0.71347 0.02211 0.0
C92 C 0.41865 0.70636 0.92468 0.0
C93 C 0.39645 0.69148 0.89915 0.0
C94 C 0.38241 0.65926 0.90464 0.0
C95 C 0.39005 0.70907 0.86829 0.0
C96 C 0.35611 0.66249 0.84888 0.0
C97 C 0.37003 0.69482 0.84349 0.0
C98 C 0.36256 0.64495 0.87982 0.0
C99 C 0.4436 0.72414 0.04206 0.0
O100 O 0.4355 0.80817 0.02764 0.0
O101 O 0.44083 0.78673 0.97338 0.0
O102 O 0.36375 0.80317 0.08828 0.0
O103 O 0.41631 0.78752 0.0922 0.0
O104 O 0.35317 0.81873 0.01948 0.0
O105 O 0.37929 0.78199 0.99147 0.0
O106 O 0.3642 0.71701 0.99214 0.0
O107 O 0.35861 0.73312 0.04808 0.0
O108 O 0.42152 0.69065 0.95422 0.0
O109 O 0.41759 0.74021 0.92678 0.0
O110 O 0.45992 0.72406 1.01396 0.0
O111 O 0.41381 0.73081 0.03564 0.0
H112 H 0.35217 0.86415 0.1109 0.0
H113 H 0.44841 0.81918 0.13823 0.0
H114 H 0.46328 0.8737 0.16335 0.0
H115 H 0.36714 0.91878 0.13627 0.0
H116 H 0.38704 0.64479 0.92794 0.0
H117 H 0.40072 0.73385 0.8632 0.0
H118 H 0.36542 0.70919 0.82014 0.0
H119 H 0.35288 0.61966 0.88467 0.0
Gd120 Gd 0.53865 0.13652 0.23659 0.0
Gd121 Gd 0.48682 0.12354 0.28982 0.0
C122 C 0.49541 0.07014 0.227 0.0
C123 C 0.58881 0.14418 0.19738 0.0
C124 C 0.59906 0.13488 0.16274 0.0
C125 C 0.61122 0.16019 0.14101 0.0
C126 C 0.5999 0.10019 0.15226 0.0
C127 C 0.62784 0.11588 0.1004 0.0
C128 C 0.61426 0.09081 0.12163 0.0
C129 C 0.62521 0.15088 0.1101 0.0
C130 C 0.47738 0.16447 0.222 0.0
C131 C 0.53256 0.18366 0.30389 0.0
C132 C 0.43124 0.11456 0.31993 0.0
C133 C 0.4006 0.13039 0.33404 0.0
C134 C 0.40079 0.15663 0.35827 0.0
C135 C 0.3704 0.1164 0.32492 0.0
C136 C 0.34127 0.15232 0.36586 0.0
C137 C 0.34113 0.12717 0.3406 0.0
C138 C 0.37129 0.16763 0.37393 0.0
C139 C 0.5482 0.0974 0.30669 0.0
O140 O 0.52235 0.08553 0.21765 0.0
O141 O 0.47744 0.08141 0.25244 0.0
O142 O 0.56559 0.16839 0.20099 0.0
O143 O 0.586 0.11825 0.21841 0.0
O144 O 0.49641 0.14882 0.20052 0.0
O145 O 0.49157 0.16437 0.25051 0.0
O146 O 0.5012 0.17591 0.30461 0.0
O147 O 0.55299 0.16954 0.28149 0.0
O148 O 0.45931 0.11784 0.33611 0.0
O149 O 0.43423 0.11519 0.2871 0.0
O150 O 0.52615 0.10638 0.32868 0.0
O151 O 0.53508 0.09828 0.27757 0.0
H152 H 0.61082 0.18709 0.14839 0.0
H153 H 0.59064 0.07992 0.1683 0.0
H154 H 0.61601 0.0636 0.11546 0.0
H155 H 0.63462 0.17112 0.09416 0.0
H156 H 0.42376 0.16785 0.36582 0.0
H157 H 0.36959 0.09613 0.30634 0.0
H158 H 0.3184 0.11518 0.33349 0.0
H159 H 0.37221 0.18695 0.3934 0.0
Gd160 Gd 0.62578 0.24063 0.55871 0.0
Gd161 Gd 0.64171 0.30371 0.51601 0.0
C162 C 0.68063 0.29471 0.58355 0.0
C163 C 0.62616 0.18697 0.59869 0.0
C164 C 0.64701 0.16873 0.62469 0.0
C165 C 0.64755 0.13249 0.62603 0.0
C166 C 0.66524 0.18657 0.64884 0.0
C167 C 0.6837 0.13177 0.6757 0.0
C168 C 0.68333 0.16821 0.67424 0.0
C169 C 0.66563 0.11421 0.65118 0.0
C170 C 0.58043 0.29322 0.56122 0.0
C171 C 0.59394 0.24543 0.48414 0.0
C172 C 0.63442 0.36037 0.48123 0.0
C173 C 0.62861 0.39245 0.46074 0.0
C174 C 0.65283 0.41728 0.45823 0.0
C175 C 0.59824 0.39863 0.44379 0.0
C176 C 0.61625 0.45414 0.42213 0.0
C177 C 0.59221 0.42893 0.42459 0.0
C178 C 0.64667 0.44788 0.4393 0.0
C179 C 0.68278 0.24674 0.50841 0.0
O180 O 0.67246 0.26187 0.5821 0.0
O181 O 0.66568 0.31847 0.56404 0.0
O182 O 0.61301 0.21726 0.60646 0.0
O183 O 0.63653 0.18568 0.56759 0.0
O184 O 0.57366 0.26077 0.56043 0.0
O185 O 0.61144 0.29678 0.56182 0.0
O186 O 0.60639 0.27651 0.48177 0.0
O187 O 0.59945 0.22492 0.51096 0.0
O188 O 0.66381 0.34636 0.48826 0.0
O189 O 0.6096 0.34363 0.49331 0.0
O190 O 0.6928 0.27818 0.50493 0.0
O191 O 0.65228 0.24802 0.51235 0.0
H192 H 0.63353 0.11824 0.6078 0.0
H193 H 0.6653 0.2146 0.64824 0.0
H194 H 0.69717 0.18249 0.69255 0.0
H195 H 0.66488 0.08622 0.65182 0.0
H196 H 0.67638 0.41328 0.47124 0.0
H197 H 0.57917 0.37981 0.44505 0.0
H198 H 0.56881 0.43223 0.4112 0.0
H199 H 0.66567 0.46678 0.43847 0.0
Gd200 Gd 0.98263 0.39802 0.73705 0.0
Gd201 Gd 0.03295 0.36857 0.78787 0.0
C202 C 0.96865 0.32547 0.77887 0.0
C203 C 0.94249 0.40592 0.68586 0.0
C204 C 0.90953 0.39475 0.67553 0.0
C205 C 0.89178 0.37189 0.69558 0.0
C206 C 0.89552 0.4074 0.6451 0.0
C207 C 0.84594 0.37502 0.65493 0.0
C208 C 0.86411 0.39766 0.63489 0.0
C209 C 0.86028 0.362 0.68531 0.0
C210 C 0.9803 0.43084 0.79583 0.0
C211 C 0.04884 0.43863 0.74874 0.0
C212 C 0.0733 0.35753 0.83855 0.0
C213 C 0.09263 0.37557 0.8642 0.0
C214 C 0.11997 0.3579 0.87924 0.0
C215 C 0.08356 0.40905 0.87513 0.0
C216 C 0.12926 0.4067 0.91608 0.0
C217 C 0.10171 0.42447 0.90094 0.0
C218 C 0.13801 0.37318 0.90487 0.0
C219 C 0.03988 0.34571 0.72293 0.0
O220 O 0.95849 0.34903 0.75597 0.0
O221 O 0.99671 0.32777 0.79552 0.0
O222 O 0.94337 0.42766 0.71082 0.0
O223 O 0.96609 0.38174 0.6878 0.0
O224 O 0.97397 0.44551 0.76671 0.0
O225 O 0.98482 0.39812 0.79324 0.0
O226 O 0.05039 0.42228 0.77821 0.0
O227 O 0.02665 0.4305 0.72552 0.0
O228 O 0.08307 0.35941 0.80727 0.0
O229 O 0.04113 0.35954 0.84132 0.0
O230 O 0.04617 0.3261 0.74935 0.0
O231 O 0.03227 0.37547 0.73279 0.0
H232 H 0.90215 0.36191 0.71922 0.0
H233 H 0.90889 0.42492 0.62921 0.0
H234 H 0.85413 0.40773 0.61107 0.0
H235 H 0.84692 0.34472 0.70145 0.0
H236 H 0.12715 0.33193 0.87145 0.0
H237 H 0.0624 0.42312 0.86389 0.0
H238 H 0.09441 0.45037 0.90877 0.0
H239 H 0.15862 0.35838 0.9163 0.0
Gd240 Gd 0.89055 0.78357 0.05787 0.0
Gd241 Gd 0.8805 0.71912 1.00814 0.0
C242 C 0.83421 0.72694 0.07282 0.0
C243 C 0.88137 0.84251 0.08679 0.0
C244 C 0.87429 0.85617 0.12083 0.0
C245 C 0.89833 0.85507 0.14678 0.0
C246 C 0.84293 0.87137 0.12726 0.0
C247 C 0.85959 0.88407 0.18484 0.0
C248 C 0.83561 0.88499 0.15889 0.0
C249 C 0.89106 0.86895 0.17843 0.0
C250 C 0.9268 0.72673 0.07973 0.0
C251 C 0.93633 0.77333 0.99113 0.0
C252 C 0.88317 0.66148 0.97551 0.0
C253 C 0.90368 0.63437 0.95901 0.0
C254 C 0.93569 0.6401 0.94765 0.0
C255 C 0.89008 0.60206 0.9537 0.0
C256 C 0.93913 0.58206 0.92344 0.0
C257 C 0.90752 0.57622 0.93613 0.0
C258 C 0.95328 0.61415 0.93007 0.0
C259 C 0.84255 0.77847 0.99735 0.0
O260 O 0.84426 0.75884 0.07746 0.0
O261 O 0.84741 0.70586 0.05034 0.0
O262 O 0.91093 0.82848 0.08133 0.0
O263 O 0.85749 0.8258 0.07244 0.0
O264 O 0.92562 0.75596 0.09548 0.0
O265 O 0.90796 0.7296 0.05432 0.0
O266 O 0.92734 0.74082 0.98891 0.0
O267 O 0.92372 0.79539 1.01359 0.0
O268 O 0.87959 0.69199 0.96061 0.0
O269 O 0.88515 0.66305 1.00845 0.0
O270 O 0.83233 0.74785 0.99021 0.0
O271 O 0.87194 0.77541 1.00709 0.0
H272 H 0.92278 0.84363 0.14269 0.0
H273 H 0.82403 0.87297 0.10765 0.0
H274 H 0.81133 0.89695 0.16279 0.0
H275 H 0.91001 0.86767 0.19797 0.0
H276 H 0.94677 0.66476 0.95179 0.0
H277 H 0.86542 0.5971 0.96237 0.0
H278 H 0.89552 0.55225 0.93119 0.0
H279 H 0.97774 0.61946 0.92112 0.0
Gd280 Gd 0.53627 0.64729 0.24558 0.0
Gd281 Gd 0.48531 0.65856 0.30084 0.0
C282 C 0.54726 0.70989 0.29643 0.0
C283 C 0.57157 0.6412 0.19168 0.0
C284 C 0.60327 0.65487 0.18091 0.0
C285 C 0.61835 0.64241 0.15165 0.0
C286 C 0.61836 0.68085 0.19931 0.0
C287 C 0.66332 0.68192 0.15903 0.0
C288 C 0.64806 0.69434 0.18842 0.0
C289 C 0.6481 0.65575 0.14081 0.0
C290 C 0.54993 0.61289 0.30449 0.0
C291 C 0.46916 0.60231 0.24858 0.0
C292 C 0.45788 0.66098 0.35934 0.0
C293 C 0.44168 0.63802 0.38364 0.0
C294 C 0.41637 0.61643 0.37364 0.0
C295 C 0.45089 0.63886 0.41785 0.0
C296 C 0.40778 0.5993 0.43228 0.0
C297 C 0.4342 0.61962 0.44194 0.0
C298 C 0.39952 0.59734 0.39776 0.0
C299 C 0.4689 0.69016 0.2411 0.0
O300 O 0.5574 0.69531 0.26816 0.0
O301 O 0.52154 0.69899 0.313 0.0
O302 O 0.57299 0.61849 0.21646 0.0
O303 O 0.54736 0.66421 0.19487 0.0
O304 O 0.57207 0.62698 0.28601 0.0
O305 O 0.52197 0.61679 0.29037 0.0
O306 O 0.46727 0.60955 0.28085 0.0
O307 O 0.492 0.6159 0.22907 0.0
O308 O 0.44201 0.66902 0.33109 0.0
O309 O 0.48967 0.65523 0.35534 0.0
O310 O 0.44758 0.6793 0.26269 0.0
O311 O 0.49759 0.68737 0.25413 0.0
H312 H 0.60699 0.6225 0.13703 0.0
H313 H 0.60712 0.69078 0.22203 0.0
H314 H 0.65926 0.7142 0.20321 0.0
H315 H 0.65893 0.64594 0.11783 0.0
H316 H 0.40904 0.61492 0.34735 0.0
H317 H 0.47043 0.65525 0.4261 0.0
H318 H 0.44096 0.62198 0.4683 0.0
H319 H 0.3795 0.58161 0.3895 0.0
Gd320 Gd 0.22924 0.52776 0.14973 0.0
Gd321 Gd 0.27999 0.47421 0.12482 0.0
C322 C 0.2136 0.48223 0.08192 0.0
C323 C 0.18507 0.57778 0.15437 0.0
C324 C 0.15237 0.58784 0.13885 0.0
C325 C 0.12295 0.57774 0.15395 0.0
C326 C 0.15015 0.60907 0.1097 0.0
C327 C 0.08989 0.61074 0.11177 0.0
C328 C 0.11932 0.62028 0.09628 0.0
C329 C 0.09213 0.58895 0.14053 0.0
C330 C 0.23349 0.46965 0.18748 0.0
C331 C 0.30051 0.52345 0.18598 0.0
C332 C 0.31958 0.42032 0.11821 0.0
C333 C 0.33911 0.3937 0.13768 0.0
C334 C 0.36362 0.37405 0.12113 0.0
C335 C 0.33183 0.38546 0.17135 0.0
C336 C 0.37228 0.33679 0.1709 0.0
C337 C 0.34839 0.35729 0.18787 0.0
C338 C 0.38004 0.34594 0.13751 0.0
C339 C 0.28048 0.53803 0.09418 0.0
O340 O 0.20405 0.50719 0.10266 0.0
O341 O 0.24174 0.46449 0.08615 0.0
O342 O 0.18648 0.55067 0.17463 0.0
O343 O 0.21101 0.5794 0.13507 0.0
O344 O 0.22868 0.50054 0.19929 0.0
O345 O 0.23429 0.47033 0.15539 0.0
O346 O 0.30424 0.4923 0.17273 0.0
O347 O 0.27461 0.54437 0.17817 0.0
O348 O 0.32978 0.45205 0.11798 0.0
O349 O 0.28746 0.4189 0.12021 0.0
O350 O 0.28829 0.50951 0.07855 0.0
O351 O 0.27591 0.5307 0.12442 0.0
H352 H 0.12366 0.56157 0.17652 0.0
H353 H 0.17225 0.61768 0.09758 0.0
H354 H 0.11861 0.63748 0.07445 0.0
H355 H 0.07001 0.58082 0.15295 0.0
H356 H 0.36953 0.37993 0.09514 0.0
H357 H 0.31281 0.40021 0.18452 0.0
H358 H 0.34175 0.35092 0.21353 0.0
H359 H 0.39874 0.3312 0.1239 0.0
Gd360 Gd 0.74195 0.97274 0.88498 0.0
Gd361 Gd 0.78798 0.02987 0.90402 0.0
C362 C 0.72092 0.02856 0.94345 0.0
C363 C 0.69863 0.92515 0.88267 0.0
C364 C 0.67058 0.91445 0.90382 0.0
C365 C 0.64155 0.93552 0.90647 0.0
C366 C 0.6723 0.88227 0.92086 0.0
C367 C 0.61623 0.89188 0.9418 0.0
C368 C 0.64553 0.87117 0.9397 0.0
C369 C 0.61473 0.92434 0.92517 0.0
C370 C 0.74431 0.02472 0.83914 0.0
C371 C 0.81435 0.97072 0.85425 0.0
C372 C 0.82493 0.08324 0.90497 0.0
C373 C 0.84613 0.10612 0.88511 0.0
C374 C 0.87541 0.11698 0.90003 0.0
C375 C 0.83639 0.12001 0.85333 0.0
C376 C 0.88459 0.1562 0.85247 0.0
C377 C 0.85544 0.14482 0.83719 0.0
C378 C 0.89435 0.14167 0.88402 0.0
C379 C 0.78992 0.97334 0.94688 0.0
O380 O 0.71706 0.9976 0.93037 0.0
O381 O 0.74515 0.04813 0.93426 0.0
O382 O 0.69515 0.95484 0.8665 0.0
O383 O 0.72842 0.91971 0.8952 0.0
O384 O 0.7431 0.99223 0.83168 0.0
O385 O 0.74354 0.02856 0.87082 0.0
O386 O 0.81319 1.00441 0.85981 0.0
O387 O 0.79067 0.95079 0.86534 0.0
O388 O 0.83615 0.05175 0.91236 0.0
O389 O 0.79314 0.08513 0.89861 0.0
O390 O 0.79626 1.0045 0.95627 0.0
O391 O 0.78674 0.97386 0.91547 0.0
H392 H 0.63932 0.96056 0.89385 0.0
H393 H 0.69424 0.8654 0.91921 0.0
H394 H 0.64746 0.84585 0.95181 0.0
H395 H 0.59275 0.94115 0.92654 0.0
H396 H 0.88321 0.10707 0.9247 0.0
H397 H 0.81378 0.11221 0.84127 0.0
H398 H 0.8473 0.1551 0.81279 0.0
H399 H 0.91621 0.15012 0.897 0.0
Gd400 Gd 0.74357 0.98368 0.41833 0.0
Gd401 Gd 0.79397 0.03568 0.39994 0.0
C402 C 0.78701 0.96737 0.3536 0.0
C403 C 0.694 0.94448 0.42912 0.0
C404 C 0.68217 0.91347 0.41208 0.0
C405 C 0.65925 0.89254 0.42775 0.0
C406 C 0.69268 0.90538 0.37938 0.0
C407 C 0.65649 0.85656 0.37763 0.0
C408 C 0.68007 0.87722 0.36236 0.0
C409 C 0.64653 0.86435 0.41072 0.0
C410 C 0.80421 0.97134 0.44702 0.0
C411 C 0.74811 0.05732 0.45879 0.0
C412 C 0.84891 0.06475 0.3865 0.0
C413 C 0.87593 0.08511 0.39995 0.0
C414 C 0.89492 0.10334 0.37702 0.0
C415 C 0.88441 0.08513 0.43443 0.0
C416 C 0.93084 0.12172 0.42257 0.0
C417 C 0.91172 0.10332 0.44566 0.0
C418 C 0.92207 0.12133 0.38811 0.0
C419 C 0.73278 0.04983 0.37305 0.0
O420 O 0.75901 0.96137 0.36876 0.0
O421 O 0.80572 0.9926 0.36341 0.0
O422 O 0.72208 0.94084 0.4456 0.0
O423 O 0.69194 0.97299 0.41113 0.0
O424 O 0.78666 0.94796 0.43324 0.0
O425 O 0.7892 1.00052 0.44415 0.0
O426 O 0.7787 0.05922 0.44824 0.0
O427 O 0.72928 0.03162 0.44928 0.0
O428 O 0.8199 0.08042 0.38196 0.0
O429 O 0.84727 0.03279 0.39756 0.0
O430 O 0.75304 0.07353 0.38129 0.0
O431 O 0.74709 0.0203 0.37624 0.0
H432 H 0.65083 0.89827 0.45297 0.0
H433 H 0.7101 0.92131 0.36665 0.0
H434 H 0.68804 0.87231 0.33684 0.0
H435 H 0.62877 0.84871 0.42346 0.0
H436 H 0.88904 0.10324 0.35028 0.0
H437 H 0.87011 0.07098 0.45252 0.0
H438 H 0.91763 0.10327 0.47237 0.0
H439 H 0.93653 0.13455 0.36949 0.0
Gd440 Gd 0.29526 0.49124 0.66571 0.0
Gd441 Gd 0.24975 0.54591 0.6329 0.0
C442 C 0.31706 0.53078 0.59595 0.0
C443 C 0.33557 0.43905 0.67892 0.0
C444 C 0.36475 0.42284 0.66262 0.0
C445 C 0.38721 0.44262 0.64455 0.0
C446 C 0.3696 0.38678 0.66427 0.0
C447 C 0.41841 0.39009 0.62917 0.0
C448 C 0.39611 0.37056 0.64773 0.0
C449 C 0.41396 0.42636 0.62811 0.0
C450 C 0.29334 0.55158 0.69824 0.0
C451 C 0.22394 0.50447 0.69751 0.0
C452 C 0.21319 0.60031 0.61672 0.0
C453 C 0.19485 0.63054 0.63037 0.0
C454 C 0.19632 0.66217 0.61286 0.0
C455 C 0.17598 0.62875 0.65981 0.0
C456 C 0.15899 0.68983 0.65282 0.0
C457 C 0.15818 0.65826 0.67098 0.0
C458 C 0.17869 0.69147 0.62394 0.0
C459 C 0.24702 0.48115 0.60671 0.0
O460 O 0.32262 0.50467 0.61753 0.0
O461 O 0.29151 0.55246 0.59855 0.0
O462 O 0.33905 0.46984 0.69148 0.0
O463 O 0.30733 0.43614 0.663 0.0
O464 O 0.29507 0.52135 0.71292 0.0
O465 O 0.29412 0.54893 0.66636 0.0
O466 O 0.22331 0.53462 0.68125 0.0
O467 O 0.24809 0.48079 0.6931 0.0
O468 O 0.20132 0.56957 0.62118 0.0
O469 O 0.24536 0.60038 0.61966 0.0
O470 O 0.24313 0.50924 0.58847 0.0
O471 O 0.24963 0.48928 0.63689 0.0
H472 H 0.38385 0.47054 0.64278 0.0
H473 H 0.3526 0.37107 0.67806 0.0
H474 H 0.39913 0.34259 0.64939 0.0
H475 H 0.43058 0.44205 0.61384 0.0
H476 H 0.21098 0.66414 0.59027 0.0
H477 H 0.17469 0.60459 0.67385 0.0
H478 H 0.14311 0.65615 0.69324 0.0
H479 H 0.18036 0.71548 0.60973 0.0
H480 H 0.20314 0.32752 0.58885 0.0
H481 H 0.21261 0.35599 0.4838 0.0
H482 H 0.23232 0.41223 0.49939 0.0
H483 H 0.24281 0.4557 0.54284 0.0
H484 H 0.23479 0.42663 0.64777 0.0
H485 H 0.21883 0.36885 0.63228 0.0
C486 C 0.2101 0.34575 0.56939 0.0
C487 C 0.20601 0.33747 0.53525 0.0
C488 C 0.22136 0.37841 0.57847 0.0
C489 C 0.21518 0.36159 0.51037 0.0
C490 C 0.2264 0.39397 0.51921 0.0
C491 C 0.23775 0.43659 0.56222 0.0
C492 C 0.2396 0.44562 0.59631 0.0
C493 C 0.22882 0.40306 0.55316 0.0
C494 C 0.23339 0.42047 0.62125 0.0
C495 C 0.22422 0.38731 0.61245 0.0
H496 H 0.85776 0.9989 0.81119 0.0
H497 H 0.8434 0.90862 0.87368 0.0
H498 H 0.90121 0.88963 0.86617 0.0
H499 H 0.95715 0.90126 0.84536 0.0
H500 H 0.97014 0.98866 0.77881 0.0
H501 H 0.91181 1.00669 0.78483 0.0
C502 C 0.86712 0.97467 0.82253 0.0
C503 C 0.8463 0.95518 0.84291 0.0
C504 C 0.90038 0.96393 0.81808 0.0
C505 C 0.85875 0.92385 0.85747 0.0
C506 C 0.89196 0.91324 0.85359 0.0
C507 C 0.94713 0.92429 0.83231 0.0
C508 C 0.96792 0.94421 0.81236 0.0
C509 C 0.91323 0.93355 0.83468 0.0
C510 C 0.95459 0.9734 0.79479 0.0
C511 C 0.92125 0.98354 0.79804 0.0
H512 H 0.31987 0.69343 0.07973 0.0
H513 H 0.33787 0.66222 0.97725 0.0
H514 H 0.31631 0.60554 0.98946 0.0
H515 H 0.29756 0.56215 0.03115 0.0
H516 H 0.27834 0.59502 0.13286 0.0
H517 H 0.29488 0.653 0.11896 0.0
C518 C 0.3185 0.67454 0.05985 0.0
C519 C 0.33094 0.6822 0.02781 0.0
C520 C 0.30619 0.64172 0.067 0.0
C521 C 0.32869 0.65723 1.00233 0.0
C522 C 0.31651 0.62454 1.00929 0.0
C523 C 0.29666 0.58216 0.05006 0.0
C524 C 0.28719 0.57391 0.08311 0.0
C525 C 0.30608 0.61606 0.04184 0.0
C526 C 0.2858 0.60031 0.10726 0.0
C527 C 0.29529 0.6337 0.09938 0.0
H528 H 0.57638 0.06283 0.36087 0.0
H529 H 0.60062 0.12371 0.27415 0.0
H530 H 0.65936 0.11207 0.28436 0.0
H531 H 0.70472 0.08476 0.31924 0.0
H532 H 0.68036 0.03409 0.41231 0.0
H533 H 0.62169 0.04147 0.39925 0.0
C534 C 0.59459 0.07318 0.34405 0.0
C535 C 0.58401 0.09153 0.31471 0.0
C536 C 0.62863 0.06809 0.35163 0.0
C537 C 0.60793 0.10624 0.29431 0.0
C538 C 0.6417 0.10056 0.30102 0.0
C539 C 0.68649 0.07514 0.33646 0.0
C540 C 0.69703 0.05654 0.36561 0.0
C541 C 0.65244 0.08115 0.32945 0.0
C542 C 0.67314 0.0457 0.38841 0.0
C543 C 0.63937 0.05072 0.38127 0.0
H544 H 0.6582 0.18314 0.5061 0.0
H545 H 0.74938 0.23609 0.49676 0.0
H546 H 0.77863 0.18077 0.48448 0.0
H547 H 0.77706 0.11825 0.47291 0.0
H548 H 0.68493 0.0664 0.48176 0.0
H549 H 0.65743 0.12049 0.49917 0.0
C550 C 0.68462 0.18262 0.50206 0.0
C551 C 0.70165 0.21373 0.50248 0.0
C552 C 0.70105 0.1509 0.49519 0.0
C553 C 0.73574 0.21256 0.4965 0.0
C554 C 0.7524 0.18093 0.48957 0.0
C555 C 0.75109 0.11849 0.47926 0.0
C556 C 0.73311 0.08805 0.47591 0.0
C557 C 0.73518 0.14999 0.48844 0.0
C558 C 0.69946 0.08918 0.48416 0.0
C559 C 0.68363 0.12024 0.49386 0.0
H560 H 0.11019 0.43455 0.77627 0.0
H561 H 0.05122 0.48915 0.69958 0.0
H562 H 0.10038 0.5182 0.68003 0.0
H563 H 0.16078 0.52334 0.68128 0.0
H564 H 0.22013 0.46262 0.75325 0.0
H565 H 0.16997 0.44077 0.77849 0.0
C566 C 0.10786 0.45334 0.75568 0.0
C567 C 0.077 0.45994 0.73952 0.0
C568 C 0.13637 0.46855 0.74367 0.0
C569 C 0.07465 0.48377 0.71247 0.0
C570 C 0.10276 0.50025 0.70126 0.0
C571 C 0.16267 0.50587 0.70295 0.0
C572 C 0.19403 0.49481 0.71571 0.0
C573 C 0.13385 0.49219 0.71618 0.0
C574 C 0.19623 0.47155 0.74319 0.0
C575 C 0.1676 0.45902 0.7575 0.0
H576 H 0.7594 0.91226 0.94753 0.0
H577 H 0.84444 0.96176 0.98733 0.0
H578 H 0.86756 0.90551 1.00766 0.0
H579 H 0.86626 0.84191 1.00832 0.0
H580 H 0.78107 0.79186 0.96881 0.0
H581 H 0.75563 0.84863 0.95283 0.0
C582 C 0.78293 0.91065 0.96059 0.0
C583 C 0.80039 0.94102 0.9654 0.0
C584 C 0.79621 0.87812 0.97165 0.0
C585 C 0.83041 0.93882 0.98349 0.0
C586 C 0.84379 0.9066 0.99476 0.0
C587 C 0.8418 0.84335 0.99686 0.0
C588 C 0.8255 0.81259 0.9899 0.0
C589 C 0.8273 0.87602 0.98815 0.0
C590 C 0.79409 0.81505 0.9745 0.0
C591 C 0.77958 0.84752 0.96539 0.0
H592 H 0.40635 0.60207 0.26999 0.0
H593 H 0.47046 0.55975 0.19351 0.0
H594 H 0.42401 0.52904 0.16929 0.0
H595 H 0.36472 0.51601 0.169 0.0
H596 H 0.29996 0.56395 0.24178 0.0
H597 H 0.34729 0.59059 0.26874 0.0
C598 C 0.41032 0.58578 0.24823 0.0
C599 C 0.44196 0.58266 0.23385 0.0
C600 C 0.38337 0.5693 0.23393 0.0
C601 C 0.44644 0.56232 0.20513 0.0
C602 C 0.41989 0.5448 0.19134 0.0
C603 C 0.36113 0.53189 0.1911 0.0
C604 C 0.32906 0.53755 0.20392 0.0
C605 C 0.38822 0.54825 0.20546 0.0
C606 C 0.32446 0.559 0.23181 0.0
C607 C 0.35148 0.57426 0.24709 0.0
H608 H 0.51302 0.17625 0.36802 0.0
H609 H 0.58344 0.22836 0.30668 0.0
H610 H 0.6075 0.25351 0.35749 0.0
H611 H 0.60936 0.25889 0.41934 0.0
H612 H 0.5428 0.20147 0.48073 0.0
H613 H 0.51622 0.17982 0.4297 0.0
C614 C 0.53332 0.19358 0.3657 0.0
C615 C 0.54602 0.2012 0.33361 0.0
C616 C 0.54777 0.20658 0.39499 0.0
C617 C 0.57303 0.22261 0.33106 0.0
C618 C 0.58679 0.23682 0.36009 0.0
C619 C 0.58885 0.24183 0.42152 0.0
C620 C 0.57769 0.23206 0.4537 0.0
C621 C 0.57448 0.22875 0.39217 0.0
C622 C 0.55168 0.20934 0.45624 0.0
C623 C 0.5365 0.19708 0.4271 0.0
H624 H 0.08812 0.34919 0.57155 0.0
H625 H 0.0873 0.23843 0.58477 0.0
H626 H 0.06908 0.24525 0.64304 0.0
H627 H 0.05348 0.28336 0.69113 0.0
H628 H 0.05118 0.39416 0.67506 0.0
H629 H 0.07006 0.38669 0.61776 0.0
C630 C 0.08381 0.32656 0.58714 0.0
C631 C 0.08964 0.29335 0.57394 0.0
C632 C 0.07264 0.33071 0.62045 0.0
C633 C 0.08362 0.26431 0.59447 0.0
C634 C 0.07304 0.2682 0.62783 0.0
C635 C 0.05712 0.30577 0.67502 0.0
C636 C 0.05098 0.33926 0.68773 0.0
C637 C 0.0676 0.30134 0.6413 0.0
C638 C 0.05558 0.36802 0.66626 0.0
C639 C 0.06648 0.36385 0.63327 0.0
H640 H 0.02122 0.84957 0.88253 0.0
H641 H 0.95391 0.79952 0.81574 0.0
H642 H 0.92888 0.77089 0.86423 0.0
H643 H 0.92522 0.76167 0.92555 0.0
H644 H 0.98773 0.81733 0.99275 0.0
H645 H 1.01594 0.84227 0.94411 0.0
C646 C 1.00131 0.83204 0.87862 0.0
C647 C 0.98975 0.82601 0.84565 0.0
C648 C 0.98632 0.81686 0.90665 0.0
C649 C 0.96332 0.80421 0.84088 0.0
C650 C 0.94907 0.78791 0.86857 0.0
C651 C 0.94537 0.7789 0.9295 0.0
C652 C 0.95502 0.78715 0.96257 0.0
C653 C 0.96031 0.79417 0.90153 0.0
C654 C 0.98029 0.81036 0.96748 0.0
C655 C 0.99627 0.82462 0.93972 0.0
H656 H 0.50773 0.71532 0.18961 0.0
H657 H 0.4104 0.67963 0.21071 0.0
H658 H 0.39496 0.68623 0.15153 0.0
H659 H 0.40855 0.7011 0.09376 0.0
H660 H 0.50604 0.73347 0.06937 0.0
H661 H 0.52256 0.72767 0.12938 0.0
C662 C 0.48347 0.70824 0.18105 0.0
C663 C 0.46053 0.69633 0.20471 0.0
C664 C 0.47488 0.71114 0.14631 0.0
C665 C 0.42865 0.68878 0.19331 0.0
C666 C 0.41978 0.69235 0.15932 0.0
C667 C 0.43356 0.7067 0.10145 0.0
C668 C 0.45605 0.7177 0.07714 0.0
C669 C 0.44267 0.70327 0.13563 0.0
C670 C 0.48836 0.72468 0.08755 0.0
C671 C 0.49765 0.72163 0.1219 0.0
H672 H 0.17065 0.35232 0.27341 0.0
H673 H 0.22239 0.4051 0.35212 0.0
H674 H 0.24849 0.44103 0.31008 0.0
H675 H 0.25192 0.46196 0.2519 0.0
H676 H 0.20118 0.41027 0.17227 0.0
H677 H 0.18033 0.36854 0.21351 0.0
C678 C 0.18811 0.37121 0.28134 0.0
C679 C 0.19383 0.37651 0.31609 0.0
C680 C 0.2033 0.3919 0.25684 0.0
C681 C 0.21665 0.40113 0.32574 0.0
C682 C 0.23184 0.42156 0.30168 0.0
C683 C 0.23692 0.44101 0.24349 0.0
C684 C 0.22788 0.4392 0.20927 0.0
C685 C 0.22462 0.41784 0.26731 0.0
C686 C 0.20861 0.41197 0.19851 0.0
C687 C 0.1964 0.38842 0.22217 0.0
H688 H 0.89456 0.90009 0.56059 0.0
H689 H 0.87128 0.99657 0.61004 0.0
H690 H 0.84239 0.01881 0.55923 0.0
H691 H 0.82035 1.00935 0.50192 0.0
H692 H 0.84168 0.91184 0.45364 0.0
H693 H 0.87534 0.89191 0.50228 0.0
C694 C 0.88363 0.92619 0.56009 0.0
C695 C 0.88497 0.94651 0.58924 0.0
C696 C 0.8667 0.93869 0.53086 0.0
C697 C 0.87024 0.98014 0.58819 0.0
C698 C 0.85383 0.99296 0.55905 0.0
C699 C 0.83288 0.984 0.50183 0.0
C700 C 0.82854 0.96207 0.47421 0.0
C701 C 0.85142 0.97228 0.53039 0.0
C702 C 0.84464 0.92916 0.47461 0.0
C703 C 0.86377 0.91769 0.50249 0.0
H704 H 0.27033 0.56707 0.75902 0.0
H705 H 0.3343 0.60395 0.68156 0.0
H706 H 0.35775 0.64484 0.72131 0.0
H707 H 0.36564 0.66299 0.78041 0.0
H708 H 0.30048 0.62576 0.85715 0.0
H709 H 0.27203 0.59188 0.81536 0.0
C710 C 0.28878 0.5848 0.75065 0.0
C711 C 0.30079 0.58254 0.71767 0.0
C712 C 0.30243 0.60751 0.77371 0.0
C713 C 0.32457 0.60552 0.70684 0.0
C714 C 0.33822 0.62854 0.7297 0.0
C715 C 0.34472 0.64815 0.78789 0.0
C716 C 0.33584 0.64629 0.82219 0.0
C717 C 0.32822 0.62874 0.76358 0.0
C718 C 0.30861 0.62684 0.83125 0.0
C719 C 0.29212 0.60763 0.80731 0.0
H720 H 0.61587 0.0628 0.0567 0.0
H721 H 0.68338 0.14447 0.07518 0.0
H722 H 0.7164 0.12586 0.02753 0.0
H723 H 0.72811 0.08503 0.98247 0.0
H724 H 0.66335 1.00081 0.96542 0.0
H725 H 0.62781 0.02144 1.01109 0.0
C726 C 0.63789 0.07648 0.05051 0.0
C727 C 0.64677 0.10526 0.06974 0.0
C728 C 0.65755 0.065 0.02345 0.0
C729 C 0.67524 0.1228 0.06068 0.0
C730 C 0.69448 0.11192 0.03354 0.0
C731 C 0.70613 0.07117 0.9885 0.0
C732 C 0.6985 0.04135 0.97041 0.0
C733 C 0.68608 0.08289 1.01499 0.0
C734 C 0.66995 0.02377 0.9789 0.0
C735 C 0.64957 0.03559 1.00503 0.0
H736 H 0.68759 0.14536 0.74345 0.0
H737 H 0.72184 0.07273 0.66858 0.0
H738 H 0.74618 0.03494 0.71269 0.0
H739 H 0.75321 0.01972 0.77243 0.0
H740 H 0.7199 0.09142 0.84822 0.0
H741 H 0.70046 0.13277 0.80394 0.0
C742 C 0.70092 0.12159 0.73677 0.0
C743 C 0.70227 0.11161 0.70269 0.0
C744 C 0.71492 0.09975 0.76245 0.0
C745 C 0.71967 0.08067 0.69457 0.0
C746 C 0.73376 0.05907 0.71979 0.0
C747 C 0.74207 0.04461 0.77927 0.0
C748 C 0.73755 0.05236 0.81346 0.0
C749 C 0.73075 0.06789 0.75379 0.0
C750 C 0.72353 0.08485 0.82203 0.0
C751 C 0.71225 0.10837 0.7967 0.0
H752 H 0.23376 0.45087 0.02492 0.0
H753 H 0.1466 0.49473 0.07207 0.0
H754 H 0.11264 0.47678 0.02414 0.0
H755 H 0.10767 0.44541 0.97001 0.0
H756 H 0.19626 0.40395 0.92329 0.0
H757 H 0.22956 0.42407 0.96994 0.0
C758 C 0.20731 0.45656 0.02484 0.0
C759 C 0.1927 0.47367 0.05233 0.0
C760 C 0.18814 0.4464 0.99726 0.0
C761 C 0.15848 0.48144 0.05133 0.0
C762 C 0.13906 0.4711 0.02393 0.0
C763 C 0.1343 0.44122 0.96982 0.0
C764 C 0.14927 0.42252 0.94332 0.0
C765 C 0.15359 0.45316 0.99688 0.0
C766 C 0.18387 0.41739 0.94364 0.0
C767 C 0.20304 0.42907 0.97027 0.0
H768 H 0.84518 0.96827 0.31979 0.0
H769 H 0.75053 0.9207 0.31951 0.0
H770 H 0.76504 0.88995 0.26813 0.0
H771 H 0.80381 0.87811 0.22197 0.0
H772 H 0.89832 0.92576 0.22221 0.0
H773 H 0.88479 0.95454 0.27504 0.0
C774 C 0.82772 0.9511 0.3086 0.0
C775 C 0.79669 0.94706 0.32351 0.0
C776 C 0.83622 0.93345 0.27897 0.0
C777 C 0.77457 0.92441 0.3087 0.0
C778 C 0.78282 0.90683 0.2792 0.0
C779 C 0.82141 0.89484 0.23357 0.0
C780 C 0.85198 0.89988 0.21803 0.0
C781 C 0.81342 0.91144 0.2639 0.0
C782 C 0.87474 0.92118 0.23373 0.0
C783 C 0.86694 0.93783 0.26384 0.0
H784 H 0.299 0.55658 0.53503 0.0
H785 H 0.38417 0.51688 0.5917 0.0
H786 H 0.4202 0.53295 0.54499 0.0
H787 H 0.42733 0.56248 0.48945 0.0
H788 H 0.34081 0.60105 0.43389 0.0
H789 H 0.30543 0.5809 0.47864 0.0
C790 C 0.32547 0.55126 0.53715 0.0
C791 C 0.33902 0.53612 0.56694 0.0
C792 C 0.34574 0.56043 0.51037 0.0
C793 C 0.37321 0.52864 0.56903 0.0
C794 C 0.39377 0.53799 0.5424 0.0
C795 C 0.40072 0.56621 0.48712 0.0
C796 C 0.38677 0.58335 0.45832 0.0
C797 C 0.38033 0.55456 0.51318 0.0
C798 C 0.35222 0.58764 0.45549 0.0
C799 C 0.33193 0.57636 0.48122 0.0
H800 H 0.21196 0.15754 0.45375 0.0
H801 H 0.22472 0.26749 0.44444 0.0
H802 H 0.27326 0.25688 0.40916 0.0
H803 H 0.31388 0.21581 0.38307 0.0
H804 H 0.29996 0.106 0.39273 0.0
H805 H 0.25033 0.11708 0.42564 0.0
C806 C 0.22518 0.17921 0.44375 0.0
C807 C 0.21488 0.21322 0.45191 0.0
C808 C 0.25312 0.17291 0.42369 0.0
C809 C 0.23217 0.24103 0.43859 0.0
C810 C 0.26004 0.23496 0.41854 0.0
C811 C 0.29993 0.19438 0.39242 0.0
C812 C 0.31067 0.16011 0.38536 0.0
C813 C 0.2711 0.20095 0.41134 0.0
C814 C 0.29212 0.13262 0.39742 0.0
C815 C 0.26376 0.13891 0.41639 0.0
H816 H 0.08642 0.06704 0.62626 0.0
H817 H 0.16305 0.07837 0.70157 0.0
H818 H 0.14437 0.02784 0.73212 0.0
H819 H 0.10552 0.98158 0.73867 0.0
H820 H 0.02687 0.97145 0.66542 0.0
H821 H 0.0469 0.02065 0.63318 0.0
C822 C 0.09887 0.0587 0.64951 0.0
C823 C 0.12627 0.0766 0.66139 0.0
C824 C 0.08761 0.02985 0.66743 0.0
C825 C 0.14233 0.0649 0.69136 0.0
C826 C 0.1315 0.03609 0.70906 0.0
C827 C 0.09279 0.98991 0.71554 0.0
C828 C 0.06472 0.97272 0.70451 0.0
C829 C 0.10413 0.01846 0.69741 0.0
C830 C 0.0485 0.98417 0.67458 0.0
C831 C 0.05994 1.01234 0.65612 0.0
H832 H 0.25265 0.88195 0.89502 0.0
H833 H 0.21862 0.77805 0.88662 0.0
H834 H 0.26784 0.7554 0.91736 0.0
H835 H 0.3177 0.76601 0.9523 0.0
H836 H 0.34827 0.87066 0.96411 0.0
H837 H 0.30371 0.89209 0.92623 0.0
C838 C 0.25588 0.85433 0.89996 0.0
C839 C 0.23157 0.83187 0.88889 0.0
C840 C 0.2839 0.84159 0.91818 0.0
C841 C 0.23682 0.79603 0.89476 0.0
C842 C 0.26496 0.78304 0.91249 0.0
C843 C 0.31513 0.79331 0.94558 0.0
C844 C 0.3365 0.81676 0.96035 0.0
C845 C 0.28838 0.80564 0.92494 0.0
C846 C 0.33238 0.85219 0.9525 0.0
C847 C 0.30671 0.86446 0.93115 0.0
H848 H 0.43689 0.03835 0.23186 0.0
H849 H 0.53088 0.03141 0.18164 0.0
H850 H 0.51458 0.97876 0.15356 0.0
H851 H 0.47398 0.93402 0.14403 0.0
H852 H 0.37987 0.94155 0.19375 0.0
H853 H 0.39578 0.99483 0.221 0.0
C854 C 0.45388 0.02536 0.21479 0.0
C855 C 0.48519 0.03876 0.20911 0.0
C856 C 0.44428 0.99522 0.19856 0.0
C857 C 0.50666 0.02172 0.18657 0.0
C858 C 0.49737 0.99155 0.17051 0.0
C859 C 0.45701 0.94729 0.16093 0.0
C860 C 0.42583 0.93375 0.16697 0.0
C861 C 0.46633 0.97795 0.17648 0.0
C862 C 0.4039 0.95156 0.18848 0.0
C863 C 0.41305 0.98192 0.2042 0.0
H864 H 0.81825 0.31132 0.6577 0.0
H865 H 0.79716 0.4179 0.62784 0.0
H866 H 0.74335 0.40282 0.60567 0.0
H867 H 0.70372 0.3592 0.59152 0.0
H868 H 0.72404 0.25226 0.62051 0.0
H869 H 0.7762 0.26784 0.64693 0.0
C870 C 0.80168 0.33132 0.64677 0.0
C871 C 0.81207 0.36565 0.64404 0.0
C872 C 0.77057 0.32243 0.6339 0.0
C873 C 0.79024 0.39116 0.62963 0.0
C874 C 0.75931 0.3826 0.6171 0.0
C875 C 0.7193 0.33924 0.60391 0.0
C876 C 0.70994 0.30452 0.60372 0.0
C877 C 0.74946 0.34826 0.61856 0.0
C878 C 0.73053 0.27918 0.62015 0.0
C879 C 0.7605 0.28806 0.63515 0.0
H880 H 0.9952 0.49697 0.80124 0.0
H881 H 0.96132 0.41103 0.85996 0.0
H882 H 0.94844 0.45029 0.90687 0.0
H883 H 0.94091 0.51053 0.92792 0.0
H884 H 0.97354 0.59554 0.8664 0.0
H885 H 0.99335 0.55508 0.8242 0.0
C886 C 0.98544 0.48669 0.82455 0.0
C887 C 0.97876 0.45132 0.82707 0.0
C888 C 0.9777 0.50937 0.85081 0.0
C889 C 0.96665 0.43819 0.85748 0.0
C890 C 0.95905 0.46072 0.88411 0.0
C891 C 0.95256 0.5202 0.90539 0.0
C892 C 0.9554 0.55632 0.90045 0.0
C893 C 0.96345 0.49662 0.88059 0.0
C894 C 0.97121 0.56812 0.87131 0.0
C895 C 0.98234 0.54495 0.84689 0.0
H896 H 0.78521 0.76416 0.10544 0.0
H897 H 0.81975 0.65977 0.08354 0.0
H898 H 0.77091 0.63687 0.10927 0.0
H899 H 0.71697 0.64608 0.13522 0.0
H900 H 0.68078 0.74986 0.15651 0.0
H901 H 0.73163 0.77319 0.13438 0.0
C902 C 0.78222 0.73641 0.10674 0.0
C903 C 0.80609 0.71383 0.09227 0.0
C904 C 0.75361 0.7232 0.12133 0.0
C905 C 0.8017 0.67789 0.09409 0.0
C906 C 0.77372 0.66466 0.10883 0.0
C907 C 0.72012 0.67383 0.13491 0.0
C908 C 0.69492 0.69614 0.14722 0.0
C909 C 0.74923 0.68705 0.12193 0.0
C910 C 0.69981 0.73201 0.14733 0.0
C911 C 0.72884 0.74541 0.13452 0.0
H912 H 0.55788 0.492 0.4134 0.0
H913 H 0.66002 0.48894 0.38305 0.0
H914 H 0.64916 0.53968 0.3468 0.0
H915 H 0.61 0.58278 0.32064 0.0
H916 H 0.5071 0.58294 0.34738 0.0
H917 H 0.51886 0.53542 0.38779 0.0
C918 C 0.57779 0.50215 0.3987 0.0
C919 C 0.60977 0.48628 0.4011 0.0
C920 C 0.5712 0.53089 0.37708 0.0
C921 C 0.63527 0.50063 0.38229 0.0
C922 C 0.62903 0.52959 0.36124 0.0
C923 C 0.59023 0.57264 0.33558 0.0
C924 C 0.55773 0.58637 0.33106 0.0
C925 C 0.59703 0.54468 0.3581 0.0
C926 C 0.53232 0.57281 0.35042 0.0
C927 C 0.53903 0.54557 0.37345 0.0
H928 H 0.38486 0.27356 0.14347 0.0
H929 H 0.39677 0.32985 0.23567 0.0
H930 H 0.42722 0.2799 0.26127 0.0
H931 H 0.45451 0.22176 0.25571 0.0
H932 H 0.44401 0.167 0.1624 0.0
H933 H 0.40891 0.21461 0.13911 0.0
C934 C 0.39418 0.27498 0.16916 0.0
C935 C 0.38887 0.30565 0.18743 0.0
C936 C 0.41196 0.24633 0.18355 0.0
C937 C 0.40042 0.30661 0.221 0.0
C938 C 0.41798 0.27808 0.23562 0.0
C939 C 0.44404 0.22004 0.23051 0.0
C940 C 0.45197 0.19094 0.21072 0.0
C941 C 0.4244 0.24798 0.21694 0.0
C942 C 0.43836 0.18916 0.17807 0.0
C943 C 0.4184 0.21645 0.16468 0.0
H944 H 0.98934 0.26357 0.80613 0.0
H945 H 0.90155 0.31982 0.76983 0.0
H946 H 0.86774 0.27176 0.78772 0.0
H947 H 0.86298 0.21509 0.81726 0.0
H948 H 0.95189 0.15883 0.85114 0.0
H949 H 0.9852 0.20562 0.83083 0.0
C950 C 0.9628 0.26537 0.802 0.0
C951 C 0.94801 0.29551 0.78698 0.0
C952 C 0.94362 0.23765 0.8122 0.0
C953 C 0.91363 0.297 0.78133 0.0
C954 C 0.89427 0.26954 0.79169 0.0
C955 C 0.88966 0.21277 0.81972 0.0
C956 C 0.90471 0.18351 0.8364 0.0
C957 C 0.90895 0.23987 0.80761 0.0
C958 C 0.93941 0.18126 0.83932 0.0
C959 C 0.95859 0.20799 0.82751 0.0
H960 H 0.03862 0.63497 0.14948 0.0
H961 H 0.06782 0.62047 0.04624 0.0
H962 H 1.01674 0.65072 0.02649 0.0
H963 H 0.96633 0.68692 0.03899 0.0
H964 H 0.94002 0.70352 0.14265 0.0
H965 H 0.98655 0.66585 0.16175 0.0
C966 C 0.03354 0.63763 0.12263 0.0
C967 C 0.05722 0.62557 0.09945 0.0
C968 C 1.00439 0.65542 0.1115 0.0
C969 C 0.05031 0.62994 0.06471 0.0
C970 C 0.021 0.64711 0.05338 0.0
C971 C 0.97033 0.6813 0.06565 0.0
C972 C 0.94973 0.6976 0.08945 0.0
C973 C 0.99816 0.66072 0.07656 0.0
C974 C 0.95551 0.69096 0.12396 0.0
C975 C 0.98226 0.66968 0.13489 0.0
H976 H 0.592 0.84013 0.37609 0.0
H977 H 0.68688 0.80899 0.33587 0.0
H978 H 0.66154 0.76231 0.30487 0.0
H979 H 0.61212 0.72855 0.29096 0.0
H980 H 0.51823 0.76025 0.3335 0.0
H981 H 0.54344 0.80808 0.36163 0.0
C982 C 0.60728 0.82294 0.36085 0.0
C983 C 0.64136 0.82795 0.35867 0.0
C984 C 0.59263 0.7961 0.34332 0.0
C985 C 0.66053 0.80588 0.33799 0.0
C986 C 0.64606 0.77906 0.3203 0.0
C987 C 0.59723 0.74619 0.3061 0.0
C988 C 0.56336 0.74057 0.31025 0.0
C989 C 0.61208 0.77374 0.3229 0.0
C990 C 0.54441 0.76362 0.33011 0.0
C991 C 0.55879 0.7911 0.34628 0.0
H992 H 0.51536 0.28834 0.55244 0.0
H993 H 0.58789 0.35717 0.59005 0.0
H994 H 0.54352 0.39531 0.61251 0.0
H995 H 0.48403 0.4054 0.6263 0.0
H996 H 0.41301 0.33446 0.58895 0.0
H997 H 0.45688 0.3007 0.56168 0.0
C998 C 0.5215 0.31193 0.56523 0.0
C999 C 0.55478 0.31979 0.56997 0.0
C1000 C 0.49609 0.33306 0.5785 0.0
C1001 C 0.5624 0.3506 0.58615 0.0
C1002 C 0.53704 0.37222 0.59918 0.0
C1003 C 0.47821 0.38283 0.61179 0.0
C1004 C 0.44533 0.3721 0.61016 0.0
C1005 C 0.50379 0.3632 0.59628 0.0
C1006 C 0.43814 0.34281 0.59123 0.0
C1007 C 0.46319 0.32358 0.57548 0.0
H1008 H 0.14932 0.71594 0.7161 0.0
H1009 H 0.12214 0.73313 0.61138 0.0
H1010 H 0.08919 0.78469 0.62597 0.0
H1011 H 0.06696 0.82424 0.66815 0.0
H1012 H 0.09183 0.80723 0.77331 0.0
H1013 H 0.12697 0.7565 0.75891 0.0
C1014 C 0.13601 0.7309 0.69657 0.0
C1015 C 0.13841 0.72075 0.66266 0.0
C1016 C 0.11682 0.76064 0.70516 0.0
C1017 C 0.1212 0.7406 0.63759 0.0
C1018 C 0.10221 0.77005 0.6459 0.0
C1019 C 0.08023 0.80958 0.68794 0.0
C1020 C 0.07678 0.81937 0.72172 0.0
C1021 C 0.09983 0.78029 0.67954 0.0
C1022 C 0.09411 0.80013 0.74708 0.0
C1023 C 0.11408 0.77107 0.73886 0.0
H1024 H 0.50851 0.81623 0.02788 0.0
H1025 H 0.4468 0.85373 0.94484 0.0
H1026 H 0.49262 0.88541 0.92171 0.0
H1027 H 0.55164 0.89701 0.92156 0.0
H1028 H 0.61481 0.85719 1.00271 0.0
H1029 H 0.56741 0.83171 0.02987 0.0
C1030 C 0.50499 0.83223 1.00531 0.0
C1031 C 0.47428 0.83318 0.9883 0.0
C1032 C 0.53196 0.84931 0.99138 0.0
C1033 C 0.47016 0.85307 0.95852 0.0
C1034 C 0.49642 0.87092 0.94514 0.0
C1035 C 0.55499 0.88336 0.94553 0.0
C1036 C 0.58689 0.87893 0.95991 0.0
C1037 C 0.52768 0.86843 0.96081 0.0
C1038 C 0.59069 0.8606 0.99076 0.0
C1039 C 0.56352 0.84615 1.00643 0.0
H1040 H 0.97869 0.10355 0.47033 0.0
H1041 H 0.94768 0.18544 0.40017 0.0
H1042 H 0.99655 0.21703 0.41412 0.0
H1043 H 0.0481 0.22157 0.44526 0.0
H1044 H 0.07912 0.14252 0.51819 0.0
H1045 H 0.03016 0.10977 0.50426 0.0
C1046 C 0.98246 0.12848 0.4584 0.0
C1047 C 0.95965 0.14174 0.43377 0.0
C1048 C 1.01071 0.14694 0.46685 0.0
C1049 C 0.96508 0.17411 0.41856 0.0
C1050 C 0.993 0.19235 0.42664 0.0
C1051 C 0.04444 0.19703 0.45803 0.0
C1052 C 0.06756 0.18429 0.48241 0.0
C1053 C 1.0161 0.17886 0.45042 0.0
C1054 C 0.06185 0.1528 0.49913 0.0
C1055 C 0.03382 0.13412 0.49121 0.0
loop_
_geom_bond_atom_site_label_1
_geom_bond_atom_site_label_2
_geom_bond_distance
_geom_bond_site_symmetry_2
_ccdc_geom_bond_type
Gd0 C3 2.818 . S
Gd0 O20 2.377 . S
Gd0 O22 2.448 . S
Gd0 O23 2.506 . S
Gd0 O24 2.435 . S
Gd0 O25 2.717 . S
Gd0 O27 2.395 . S
Gd0 O31 2.327 . S
Gd1 C12 2.818 . S
Gd1 O21 2.395 . S
Gd1 O25 2.327 . S
Gd1 O26 2.377 . S
Gd1 O28 2.448 . S
Gd1 O29 2.506 . S
Gd1 O30 2.435 . S
Gd1 O31 2.717 . S
C2 O20 1.240 . S
C2 O21 1.240 . S
C3 Gd0 2.818 . S
C3 C4 1.510 . S
C3 O22 1.249 . S
C3 O23 1.252 . S
C4 C3 1.510 . S
C4 C5 1.404 . S
C4 C6 1.352 . S
C5 C4 1.404 . S
C5 C9 1.389 . S
C5 H32 0.930 . S
C6 C4 1.352 . S
C6 C8 1.374 . S
C6 H33 0.931 . S
C7 C8 1.359 . S
C7 C9 1.364 . S
C8 C6 1.374 . S
C8 C7 1.359 . S
C8 H34 0.931 . S
C9 C5 1.389 . S
C9 C7 1.364 . S
C9 H35 0.931 . S
C10 O24 1.256 . S
C10 O25 1.257 . S
C11 O26 1.240 . S
C11 O27 1.240 . S
C12 Gd1 2.818 . S
C12 C13 1.510 . S
C12 O28 1.249 . S
C12 O29 1.252 . S
C13 C12 1.510 . S
C13 C14 1.404 . S
C13 C15 1.352 . S
C14 C13 1.404 . S
C14 C18 1.389 . S
C14 H36 0.930 . S
C15 C13 1.352 . S
C15 C17 1.374 . S
C15 H37 0.931 . S
C16 C17 1.359 . S
C16 C18 1.364 . S
C17 C15 1.374 . S
C17 C16 1.359 . S
C17 H38 0.931 . S
C18 C14 1.389 . S
C18 C16 1.364 . S
C18 H39 0.931 . S
C19 O30 1.256 . S
C19 O31 1.257 . S
O20 Gd0 2.377 . S
O20 C2 1.240 . S
O21 Gd1 2.395 . S
O21 C2 1.240 . S
O22 Gd0 2.448 . S
O22 C3 1.249 . S
O23 Gd0 2.506 . S
O23 C3 1.252 . S
O24 Gd0 2.435 . S
O24 C10 1.256 . S
O25 Gd0 2.717 . S
O25 Gd1 2.327 . S
O25 C10 1.257 . S
O26 Gd1 2.377 . S
O26 C11 1.240 . S
O27 Gd0 2.395 . S
O27 C11 1.240 . S
O28 Gd1 2.448 . S
O28 C12 1.249 . S
O29 Gd1 2.506 . S
O29 C12 1.252 . S
O30 Gd1 2.435 . S
O30 C19 1.256 . S
O31 Gd0 2.327 . S
O31 Gd1 2.717 . S
O31 C19 1.257 . S
H32 C5 0.930 . S
H33 C6 0.931 . S
H34 C8 0.931 . S
H35 C9 0.931 . S
H36 C14 0.930 . S
H37 C15 0.931 . S
H38 C17 0.931 . S
H39 C18 0.931 . S
Gd40 C43 2.818 . S
Gd40 O60 2.379 . S
Gd40 O62 2.448 . S
Gd40 O63 2.506 . S
Gd40 O64 2.435 1_655 S
Gd40 O65 2.717 1_655 S
Gd40 O67 2.395 . S
Gd40 O71 2.327 . S
Gd41 C52 2.818 . S
Gd41 O61 2.395 . S
Gd41 O65 2.327 . S
Gd41 O66 2.377 . S
Gd41 O68 2.448 . S
Gd41 O69 2.506 . S
Gd41 O70 2.435 1_455 S
Gd41 O71 2.717 1_455 S
C42 O60 1.239 1_455 S
C42 O61 1.240 . S
C43 Gd40 2.818 . S
C43 C44 1.510 . S
C43 O62 1.249 . S
C43 O63 1.252 . S
C44 C43 1.510 . S
C44 C45 1.404 . S
C44 C46 1.352 . S
C45 C44 1.404 . S
C45 C49 1.389 . S
C45 H72 0.930 . S
C46 C44 1.352 . S
C46 C48 1.374 . S
C46 H73 0.931 . S
C47 C48 1.359 . S
C47 C49 1.364 . S
C48 C46 1.374 . S
C48 C47 1.359 . S
C48 H74 0.931 . S
C49 C45 1.389 . S
C49 C47 1.364 . S
C49 H75 0.931 . S
C50 O64 1.256 . S
C50 O65 1.257 . S
C51 O66 1.240 1_655 S
C51 O67 1.240 . S
C52 Gd41 2.818 . S
C52 C53 1.510 . S
C52 O68 1.249 . S
C52 O69 1.252 . S
C53 C52 1.510 . S
C53 C54 1.404 . S
C53 C55 1.352 . S
C54 C53 1.404 . S
C54 C58 1.389 . S
C54 H76 0.930 . S
C55 C53 1.352 . S
C55 C57 1.374 . S
C55 H77 0.931 . S
C56 C57 1.359 . S
C56 C58 1.364 . S
C57 C55 1.374 . S
C57 C56 1.359 . S
C57 H78 0.931 . S
C58 C54 1.389 . S
C58 C56 1.364 . S
C58 H79 0.931 . S
C59 O70 1.256 . S
C59 O71 1.257 . S
O60 Gd40 2.379 . S
O60 C42 1.239 1_655 S
O61 Gd41 2.395 . S
O61 C42 1.240 . S
O62 Gd40 2.448 . S
O62 C43 1.249 . S
O63 Gd40 2.506 . S
O63 C43 1.252 . S
O64 Gd40 2.435 1_455 S
O64 C50 1.256 . S
O65 Gd40 2.717 1_455 S
O65 Gd41 2.327 . S
O65 C50 1.257 . S
O66 Gd41 2.377 . S
O66 C51 1.240 1_455 S
O67 Gd40 2.395 . S
O67 C51 1.240 . S
O68 Gd41 2.448 . S
O68 C52 1.249 . S
O69 Gd41 2.506 . S
O69 C52 1.252 . S
O70 Gd41 2.435 1_655 S
O70 C59 1.256 . S
O71 Gd40 2.327 . S
O71 Gd41 2.717 1_655 S
O71 C59 1.257 . S
H72 C45 0.930 . S
H73 C46 0.931 . S
H74 C48 0.931 . S
H75 C49 0.931 . S
H76 C54 0.930 . S
H77 C55 0.931 . S
H78 C57 0.931 . S
H79 C58 0.931 . S
Gd80 C83 2.818 . S
Gd80 O100 2.377 1_554 S
Gd80 O102 2.448 . S
Gd80 O103 2.506 . S
Gd80 O104 2.435 1_554 S
Gd80 O105 2.717 1_554 S
Gd80 O107 2.395 . S
Gd80 O111 2.327 . S
Gd81 C92 2.818 . S
Gd81 O101 2.395 . S
Gd81 O105 2.327 . S
Gd81 O106 2.377 . S
Gd81 O108 2.448 . S
Gd81 O109 2.506 . S
Gd81 O110 2.435 1_556 S
Gd81 O111 2.717 1_556 S
C82 O100 1.240 . S
C82 O101 1.240 . S
C83 Gd80 2.818 . S
C83 C84 1.510 . S
C83 O102 1.249 . S
C83 O103 1.252 . S
C84 C83 1.510 . S
C84 C85 1.404 . S
C84 C86 1.352 . S
C85 C84 1.404 . S
C85 C89 1.389 . S
C85 H112 0.930 . S
C86 C84 1.352 . S
C86 C88 1.374 . S
C86 H113 0.931 . S
C87 C88 1.359 . S
C87 C89 1.364 . S
C88 C86 1.374 . S
C88 C87 1.359 . S
C88 H114 0.931 . S
C89 C85 1.389 . S
C89 C87 1.364 . S
C89 H115 0.931 . S
C90 O104 1.256 . S
C90 O105 1.257 . S
C91 O106 1.240 1_554 S
C91 O107 1.240 . S
C92 Gd81 2.818 . S
C92 C93 1.510 . S
C92 O108 1.249 . S
C92 O109 1.252 . S
C93 C92 1.510 . S
C93 C94 1.404 . S
C93 C95 1.352 . S
C94 C93 1.404 . S
C94 C98 1.389 . S
C94 H116 0.930 . S
C95 C93 1.352 . S
C95 C97 1.374 . S
C95 H117 0.931 . S
C96 C97 1.359 . S
C96 C98 1.364 . S
C97 C95 1.374 . S
C97 C96 1.359 . S
C97 H118 0.931 . S
C98 C94 1.389 . S
C98 C96 1.364 . S
C98 H119 0.931 . S
C99 O110 1.256 . S
C99 O111 1.257 . S
O100 Gd80 2.377 1_556 S
O100 C82 1.240 . S
O101 Gd81 2.395 . S
O101 C82 1.240 . S
O102 Gd80 2.448 . S
O102 C83 1.249 . S
O103 Gd80 2.506 . S
O103 C83 1.252 . S
O104 Gd80 2.435 1_556 S
O104 C90 1.256 . S
O105 Gd80 2.717 1_556 S
O105 Gd81 2.327 . S
O105 C90 1.257 . S
O106 Gd81 2.377 . S
O106 C91 1.240 1_556 S
O107 Gd80 2.395 . S
O107 C91 1.240 . S
O108 Gd81 2.448 . S
O108 C92 1.249 . S
O109 Gd81 2.506 . S
O109 C92 1.252 . S
O110 Gd81 2.435 1_554 S
O110 C99 1.256 . S
O111 Gd80 2.327 . S
O111 Gd81 2.717 1_554 S
O111 C99 1.257 . S
H112 C85 0.930 . S
H113 C86 0.931 . S
H114 C88 0.931 . S
H115 C89 0.931 . S
H116 C94 0.930 . S
H117 C95 0.931 . S
H118 C97 0.931 . S
H119 C98 0.931 . S
Gd120 C123 2.818 . S
Gd120 O140 2.377 . S
Gd120 O142 2.448 . S
Gd120 O143 2.506 . S
Gd120 O144 2.435 . S
Gd120 O145 2.717 . S
Gd120 O147 2.395 . S
Gd120 O151 2.327 . S
Gd121 C132 2.818 . S
Gd121 O141 2.395 . S
Gd121 O145 2.327 . S
Gd121 O146 2.377 . S
Gd121 O148 2.448 . S
Gd121 O149 2.506 . S
Gd121 O150 2.435 . S
Gd121 O151 2.717 . S
C122 O140 1.240 . S
C122 O141 1.240 . S
C123 Gd120 2.818 . S
C123 C124 1.510 . S
C123 O142 1.249 . S
C123 O143 1.252 . S
C124 C123 1.510 . S
C124 C125 1.404 . S
C124 C126 1.352 . S
C125 C124 1.404 . S
C125 C129 1.389 . S
C125 H152 0.930 . S
C126 C124 1.352 . S
C126 C128 1.374 . S
C126 H153 0.931 . S
C127 C128 1.359 . S
C127 C129 1.364 . S
C128 C126 1.374 . S
C128 C127 1.359 . S
C128 H154 0.931 . S
C129 C125 1.389 . S
C129 C127 1.364 . S
C129 H155 0.931 . S
C130 O144 1.256 . S
C130 O145 1.257 . S
C131 O146 1.240 . S
C131 O147 1.240 . S
C132 Gd121 2.818 . S
C132 C133 1.510 . S
C132 O148 1.249 . S
C132 O149 1.252 . S
C133 C132 1.510 . S
C133 C134 1.404 . S
C133 C135 1.352 . S
C134 C133 1.404 . S
C134 C138 1.389 . S
C134 H156 0.930 . S
C135 C133 1.352 . S
C135 C137 1.374 . S
C135 H157 0.931 . S
C136 C137 1.359 . S
C136 C138 1.364 . S
C137 C135 1.374 . S
C137 C136 1.359 . S
C137 H158 0.931 . S
C138 C134 1.389 . S
C138 C136 1.364 . S
C138 H159 0.931 . S
C139 O150 1.256 . S
C139 O151 1.257 . S
O140 Gd120 2.377 . S
O140 C122 1.240 . S
O141 Gd121 2.395 . S
O141 C122 1.240 . S
O142 Gd120 2.448 . S
O142 C123 1.249 . S
O143 Gd120 2.506 . S
O143 C123 1.252 . S
O144 Gd120 2.435 . S
O144 C130 1.256 . S
O145 Gd120 2.717 . S
O145 Gd121 2.327 . S
O145 C130 1.257 . S
O146 Gd121 2.377 . S
O146 C131 1.240 . S
O147 Gd120 2.395 . S
O147 C131 1.240 . S
O148 Gd121 2.448 . S
O148 C132 1.249 . S
O149 Gd121 2.506 . S
O149 C132 1.252 . S
O150 Gd121 2.435 . S
O150 C139 1.256 . S
O151 Gd120 2.327 . S
O151 Gd121 2.717 . S
O151 C139 1.257 . S
H152 C125 0.930 . S
H153 C126 0.931 . S
H154 C128 0.931 . S
H155 C129 0.931 . S
H156 C134 0.930 . S
H157 C135 0.931 . S
H158 C137 0.931 . S
H159 C138 0.931 . S
Gd160 C163 2.818 . S
Gd160 O180 2.377 . S
Gd160 O182 2.448 . S
Gd160 O183 2.506 . S
Gd160 O184 2.435 . S
Gd160 O185 2.717 . S
Gd160 O187 2.395 . S
Gd160 O191 2.327 . S
Gd161 C172 2.818 . S
Gd161 O181 2.395 . S
Gd161 O185 2.327 . S
Gd161 O186 2.377 . S
Gd161 O188 2.448 . S
Gd161 O189 2.506 . S
Gd161 O190 2.435 . S
Gd161 O191 2.717 . S
C162 O180 1.240 . S
C162 O181 1.240 . S
C163 Gd160 2.818 . S
C163 C164 1.510 . S
C163 O182 1.249 . S
C163 O183 1.252 . S
C164 C163 1.510 . S
C164 C165 1.404 . S
C164 C166 1.352 . S
C165 C164 1.404 . S
C165 C169 1.389 . S
C165 H192 0.930 . S
C166 C164 1.352 . S
C166 C168 1.374 . S
C166 H193 0.931 . S
C167 C168 1.359 . S
C167 C169 1.364 . S
C168 C166 1.374 . S
C168 C167 1.359 . S
C168 H194 0.931 . S
C169 C165 1.389 . S
C169 C167 1.364 . S
C169 H195 0.931 . S
C170 O184 1.256 . S
C170 O185 1.257 . S
C171 O186 1.240 . S
C171 O187 1.240 . S
C172 Gd161 2.818 . S
C172 C173 1.510 . S
C172 O188 1.249 . S
C172 O189 1.252 . S
C173 C172 1.510 . S
C173 C174 1.404 . S
C173 C175 1.352 . S
C174 C173 1.404 . S
C174 C178 1.389 . S
C174 H196 0.930 . S
C175 C173 1.352 . S
C175 C177 1.374 . S
C175 H197 0.931 . S
C176 C177 1.359 . S
C176 C178 1.364 . S
C177 C175 1.374 . S
C177 C176 1.359 . S
C177 H198 0.931 . S
C178 C174 1.389 . S
C178 C176 1.364 . S
C178 H199 0.931 . S
C179 O190 1.256 . S
C179 O191 1.257 . S
O180 Gd160 2.377 . S
O180 C162 1.240 . S
O181 Gd161 2.395 . S
O181 C162 1.240 . S
O182 Gd160 2.448 . S
O182 C163 1.249 . S
O183 Gd160 2.506 . S
O183 C163 1.252 . S
O184 Gd160 2.435 . S
O184 C170 1.256 . S
O185 Gd160 2.717 . S
O185 Gd161 2.327 . S
O185 C170 1.257 . S
O186 Gd161 2.377 . S
O186 C171 1.240 . S
O187 Gd160 2.395 . S
O187 C171 1.240 . S
O188 Gd161 2.448 . S
O188 C172 1.249 . S
O189 Gd161 2.506 . S
O189 C172 1.252 . S
O190 Gd161 2.435 . S
O190 C179 1.256 . S
O191 Gd160 2.327 . S
O191 Gd161 2.717 . S
O191 C179 1.257 . S
H192 C165 0.930 . S
H193 C166 0.931 . S
H194 C168 0.931 . S
H195 C169 0.931 . S
H196 C174 0.930 . S
H197 C175 0.931 . S
H198 C177 0.931 . S
H199 C178 0.931 . S
Gd200 C203 2.818 . S
Gd200 O220 2.377 . S
Gd200 O222 2.448 . S
Gd200 O223 2.506 . S
Gd200 O224 2.435 . S
Gd200 O225 2.717 . S
Gd200 O227 2.395 1_655 S
Gd200 O231 2.317 1_655 S
Gd201 C212 2.818 . S
Gd201 O221 2.395 1_455 S
Gd201 O225 2.327 1_455 S
Gd201 O226 2.377 . S
Gd201 O228 2.448 . S
Gd201 O229 2.506 . S
Gd201 O230 2.435 . S
Gd201 O231 2.723 . S
C202 O220 1.240 . S
C202 O221 1.240 . S
C203 Gd200 2.818 . S
C203 C204 1.510 . S
C203 O222 1.249 . S
C203 O223 1.252 . S
C204 C203 1.510 . S
C204 C205 1.404 . S
C204 C206 1.352 . S
C205 C204 1.404 . S
C205 C209 1.389 . S
C205 H232 0.930 . S
C206 C204 1.352 . S
C206 C208 1.374 . S
C206 H233 0.931 . S
C207 C208 1.359 . S
C207 C209 1.364 . S
C208 C206 1.374 . S
C208 C207 1.359 . S
C208 H234 0.931 . S
C209 C205 1.389 . S
C209 C207 1.364 . S
C209 H235 0.931 . S
C210 O224 1.256 . S
C210 O225 1.257 . S
C211 O226 1.240 . S
C211 O227 1.240 . S
C212 Gd201 2.818 . S
C212 C213 1.510 . S
C212 O228 1.249 . S
C212 O229 1.252 . S
C213 C212 1.510 . S
C213 C214 1.404 . S
C213 C215 1.352 . S
C214 C213 1.404 . S
C214 C218 1.389 . S
C214 H236 0.930 . S
C215 C213 1.352 . S
C215 C217 1.374 . S
C215 H237 0.931 . S
C216 C217 1.359 . S
C216 C218 1.364 . S
C217 C215 1.374 . S
C217 C216 1.359 . S
C217 H238 0.931 . S
C218 C214 1.389 . S
C218 C216 1.364 . S
C218 H239 0.931 . S
C219 O230 1.256 . S
C219 O231 1.268 . S
O220 Gd200 2.377 . S
O220 C202 1.240 . S
O221 Gd201 2.395 1_655 S
O221 C202 1.240 . S
O222 Gd200 2.448 . S
O222 C203 1.249 . S
O223 Gd200 2.506 . S
O223 C203 1.252 . S
O224 Gd200 2.435 . S
O224 C210 1.256 . S
O225 Gd200 2.717 . S
O225 Gd201 2.327 1_655 S
O225 C210 1.257 . S
O226 Gd201 2.377 . S
O226 C211 1.240 . S
O227 Gd200 2.395 1_455 S
O227 C211 1.240 . S
O228 Gd201 2.448 . S
O228 C212 1.249 . S
O229 Gd201 2.506 . S
O229 C212 1.252 . S
O230 Gd201 2.435 . S
O230 C219 1.256 . S
O231 Gd200 2.317 1_455 S
O231 Gd201 2.723 . S
O231 C219 1.268 . S
H232 C205 0.930 . S
H233 C206 0.931 . S
H234 C208 0.931 . S
H235 C209 0.931 . S
H236 C214 0.930 . S
H237 C215 0.931 . S
H238 C217 0.931 . S
H239 C218 0.931 . S
Gd240 C243 2.818 . S
Gd240 O260 2.377 . S
Gd240 O262 2.448 . S
Gd240 O263 2.506 . S
Gd240 O264 2.435 . S
Gd240 O265 2.717 . S
Gd240 O267 2.395 1_554 S
Gd240 O271 2.327 1_554 S
Gd241 C252 2.818 . S
Gd241 O261 2.395 1_556 S
Gd241 O265 2.327 1_556 S
Gd241 O266 2.377 . S
Gd241 O268 2.448 . S
Gd241 O269 2.506 . S
Gd241 O270 2.435 . S
Gd241 O271 2.717 . S
C242 O260 1.240 . S
C242 O261 1.240 . S
C243 Gd240 2.818 . S
C243 C244 1.510 . S
C243 O262 1.249 . S
C243 O263 1.252 . S
C244 C243 1.510 . S
C244 C245 1.404 . S
C244 C246 1.352 . S
C245 C244 1.404 . S
C245 C249 1.389 . S
C245 H272 0.930 . S
C246 C244 1.352 . S
C246 C248 1.374 . S
C246 H273 0.931 . S
C247 C248 1.359 . S
C247 C249 1.364 . S
C248 C246 1.374 . S
C248 C247 1.359 . S
C248 H274 0.931 . S
C249 C245 1.389 . S
C249 C247 1.364 . S
C249 H275 0.931 . S
C250 O264 1.256 . S
C250 O265 1.257 . S
C251 O266 1.240 . S
C251 O267 1.240 . S
C252 Gd241 2.818 . S
C252 C253 1.510 . S
C252 O268 1.249 . S
C252 O269 1.252 . S
C253 C252 1.510 . S
C253 C254 1.404 . S
C253 C255 1.352 . S
C254 C253 1.404 . S
C254 C258 1.389 . S
C254 H276 0.930 . S
C255 C253 1.352 . S
C255 C257 1.374 . S
C255 H277 0.931 . S
C256 C257 1.359 . S
C256 C258 1.364 . S
C257 C255 1.374 . S
C257 C256 1.359 . S
C257 H278 0.931 . S
C258 C254 1.389 . S
C258 C256 1.364 . S
C258 H279 0.931 . S
C259 O270 1.256 . S
C259 O271 1.257 . S
O260 Gd240 2.377 . S
O260 C242 1.240 . S
O261 Gd241 2.395 1_554 S
O261 C242 1.240 . S
O262 Gd240 2.448 . S
O262 C243 1.249 . S
O263 Gd240 2.506 . S
O263 C243 1.252 . S
O264 Gd240 2.435 . S
O264 C250 1.256 . S
O265 Gd240 2.717 . S
O265 Gd241 2.327 1_554 S
O265 C250 1.257 . S
O266 Gd241 2.377 . S
O266 C251 1.240 . S
O267 Gd240 2.395 1_556 S
O267 C251 1.240 . S
O268 Gd241 2.448 . S
O268 C252 1.249 . S
O269 Gd241 2.506 . S
O269 C252 1.252 . S
O270 Gd241 2.435 . S
O270 C259 1.256 . S
O271 Gd240 2.327 1_556 S
O271 Gd241 2.717 . S
O271 C259 1.257 . S
H272 C245 0.930 . S
H273 C246 0.931 . S
H274 C248 0.931 . S
H275 C249 0.931 . S
H276 C254 0.930 . S
H277 C255 0.931 . S
H278 C257 0.931 . S
H279 C258 0.931 . S
Gd280 C283 2.818 . S
Gd280 O300 2.377 . S
Gd280 O302 2.448 . S
Gd280 O303 2.506 . S
Gd280 O304 2.435 . S
Gd280 O305 2.717 . S
Gd280 O307 2.395 . S
Gd280 O311 2.327 . S
Gd281 C292 2.818 . S
Gd281 O301 2.395 . S
Gd281 O305 2.327 . S
Gd281 O306 2.377 . S
Gd281 O308 2.448 . S
Gd281 O309 2.506 . S
Gd281 O310 2.435 . S
Gd281 O311 2.717 . S
C282 O300 1.240 . S
C282 O301 1.240 . S
C283 Gd280 2.818 . S
C283 C284 1.510 . S
C283 O302 1.249 . S
C283 O303 1.252 . S
C284 C283 1.510 . S
C284 C285 1.404 . S
C284 C286 1.352 . S
C285 C284 1.404 . S
C285 C289 1.389 . S
C285 H312 0.930 . S
C286 C284 1.352 . S
C286 C288 1.374 . S
C286 H313 0.931 . S
C287 C288 1.359 . S
C287 C289 1.364 . S
C288 C286 1.374 . S
C288 C287 1.359 . S
C288 H314 0.931 . S
C289 C285 1.389 . S
C289 C287 1.364 . S
C289 H315 0.931 . S
C290 O304 1.256 . S
C290 O305 1.257 . S
C291 O306 1.240 . S
C291 O307 1.240 . S
C292 Gd281 2.818 . S
C292 C293 1.510 . S
C292 O308 1.249 . S
C292 O309 1.252 . S
C293 C292 1.510 . S
C293 C294 1.404 . S
C293 C295 1.352 . S
C294 C293 1.404 . S
C294 C298 1.389 . S
C294 H316 0.930 . S
C295 C293 1.352 . S
C295 C297 1.374 . S
C295 H317 0.931 . S
C296 C297 1.359 . S
C296 C298 1.364 . S
C297 C295 1.374 . S
C297 C296 1.359 . S
C297 H318 0.931 . S
C298 C294 1.389 . S
C298 C296 1.364 . S
C298 H319 0.931 . S
C299 O310 1.256 . S
C299 O311 1.257 . S
O300 Gd280 2.377 . S
O300 C282 1.240 . S
O301 Gd281 2.395 . S
O301 C282 1.240 . S
O302 Gd280 2.448 . S
O302 C283 1.249 . S
O303 Gd280 2.506 . S
O303 C283 1.252 . S
O304 Gd280 2.435 . S
O304 C290 1.256 . S
O305 Gd280 2.717 . S
O305 Gd281 2.327 . S
O305 C290 1.257 . S
O306 Gd281 2.377 . S
O306 C291 1.240 . S
O307 Gd280 2.395 . S
O307 C291 1.240 . S
O308 Gd281 2.448 . S
O308 C292 1.249 . S
O309 Gd281 2.506 . S
O309 C292 1.252 . S
O310 Gd281 2.435 . S
O310 C299 1.256 . S
O311 Gd280 2.327 . S
O311 Gd281 2.717 . S
O311 C299 1.257 . S
H312 C285 0.930 . S
H313 C286 0.931 . S
H314 C288 0.931 . S
H315 C289 0.931 . S
H316 C294 0.930 . S
H317 C295 0.931 . S
H318 C297 0.931 . S
H319 C298 0.931 . S
Gd320 C323 2.818 . S
Gd320 O340 2.377 . S
Gd320 O342 2.448 . S
Gd320 O343 2.506 . S
Gd320 O344 2.435 . S
Gd320 O345 2.717 . S
Gd320 O347 2.395 . S
Gd320 O351 2.327 . S
Gd321 C332 2.818 . S
Gd321 O341 2.395 . S
Gd321 O345 2.327 . S
Gd321 O346 2.377 . S
Gd321 O348 2.448 . S
Gd321 O349 2.506 . S
Gd321 O350 2.435 . S
Gd321 O351 2.717 . S
C322 O340 1.240 . S
C322 O341 1.240 . S
C323 Gd320 2.818 . S
C323 C324 1.510 . S
C323 O342 1.249 . S
C323 O343 1.252 . S
C324 C323 1.510 . S
C324 C325 1.404 . S
C324 C326 1.352 . S
C325 C324 1.404 . S
C325 C329 1.389 . S
C325 H352 0.930 . S
C326 C324 1.352 . S
C326 C328 1.374 . S
C326 H353 0.931 . S
C327 C328 1.359 . S
C327 C329 1.364 . S
C328 C326 1.374 . S
C328 C327 1.359 . S
C328 H354 0.931 . S
C329 C325 1.389 . S
C329 C327 1.364 . S
C329 H355 0.931 . S
C330 O344 1.256 . S
C330 O345 1.257 . S
C331 O346 1.240 . S
C331 O347 1.240 . S
C332 Gd321 2.818 . S
C332 C333 1.510 . S
C332 O348 1.249 . S
C332 O349 1.252 . S
C333 C332 1.510 . S
C333 C334 1.404 . S
C333 C335 1.352 . S
C334 C333 1.404 . S
C334 C338 1.389 . S
C334 H356 0.930 . S
C335 C333 1.352 . S
C335 C337 1.374 . S
C335 H357 0.931 . S
C336 C337 1.359 . S
C336 C338 1.364 . S
C337 C335 1.374 . S
C337 C336 1.359 . S
C337 H358 0.931 . S
C338 C334 1.389 . S
C338 C336 1.364 . S
C338 H359 0.931 . S
C339 O350 1.256 . S
C339 O351 1.257 . S
O340 Gd320 2.377 . S
O340 C322 1.240 . S
O341 Gd321 2.395 . S
O341 C322 1.240 . S
O342 Gd320 2.448 . S
O342 C323 1.249 . S
O343 Gd320 2.506 . S
O343 C323 1.252 . S
O344 Gd320 2.435 . S
O344 C330 1.256 . S
O345 Gd320 2.717 . S
O345 Gd321 2.327 . S
O345 C330 1.257 . S
O346 Gd321 2.377 . S
O346 C331 1.240 . S
O347 Gd320 2.395 . S
O347 C331 1.240 . S
O348 Gd321 2.448 . S
O348 C332 1.249 . S
O349 Gd321 2.506 . S
O349 C332 1.252 . S
O350 Gd321 2.435 . S
O350 C339 1.256 . S
O351 Gd320 2.327 . S
O351 Gd321 2.717 . S
O351 C339 1.257 . S
H352 C325 0.930 . S
H353 C326 0.931 . S
H354 C328 0.931 . S
H355 C329 0.931 . S
H356 C334 0.930 . S
H357 C335 0.931 . S
H358 C337 0.931 . S
H359 C338 0.931 . S
Gd360 C363 2.818 . S
Gd360 O380 2.377 1_565 S
Gd360 O382 2.448 . S
Gd360 O383 2.506 . S
Gd360 O384 2.435 1_565 S
Gd360 O385 2.717 1_565 S
Gd360 O387 2.395 . S
Gd360 O391 2.327 . S
Gd361 C372 2.818 . S
Gd361 O381 2.395 . S
Gd361 O385 2.327 . S
Gd361 O386 2.377 . S
Gd361 O388 2.448 . S
Gd361 O389 2.506 . S
Gd361 O390 2.435 1_545 S
Gd361 O391 2.717 1_545 S
C362 O380 1.240 . S
C362 O381 1.240 . S
C363 Gd360 2.818 . S
C363 C364 1.510 . S
C363 O382 1.249 . S
C363 O383 1.252 . S
C364 C363 1.510 . S
C364 C365 1.404 . S
C364 C366 1.352 . S
C365 C364 1.404 . S
C365 C369 1.389 . S
C365 H392 0.930 . S
C366 C364 1.352 . S
C366 C368 1.374 . S
C366 H393 0.931 . S
C367 C368 1.359 . S
C367 C369 1.364 . S
C368 C366 1.374 . S
C368 C367 1.359 . S
C368 H394 0.931 . S
C369 C365 1.389 . S
C369 C367 1.364 . S
C369 H395 0.931 . S
C370 O384 1.256 . S
C370 O385 1.257 . S
C371 O386 1.240 1_565 S
C371 O387 1.240 . S
C372 Gd361 2.818 . S
C372 C373 1.510 . S
C372 O388 1.249 . S
C372 O389 1.252 . S
C373 C372 1.510 . S
C373 C374 1.404 . S
C373 C375 1.352 . S
C374 C373 1.404 . S
C374 C378 1.389 . S
C374 H396 0.930 . S
C375 C373 1.352 . S
C375 C377 1.374 . S
C375 H397 0.931 . S
C376 C377 1.359 . S
C376 C378 1.364 . S
C377 C375 1.374 . S
C377 C376 1.359 . S
C377 H398 0.931 . S
C378 C374 1.389 . S
C378 C376 1.364 . S
C378 H399 0.931 . S
C379 O390 1.256 . S
C379 O391 1.257 . S
O380 Gd360 2.377 1_545 S
O380 C362 1.240 . S
O381 Gd361 2.395 . S
O381 C362 1.240 . S
O382 Gd360 2.448 . S
O382 C363 1.249 . S
O383 Gd360 2.506 . S
O383 C363 1.252 . S
O384 Gd360 2.435 1_545 S
O384 C370 1.256 . S
O385 Gd360 2.717 1_545 S
O385 Gd361 2.327 . S
O385 C370 1.257 . S
O386 Gd361 2.377 . S
O386 C371 1.240 1_545 S
O387 Gd360 2.395 . S
O387 C371 1.240 . S
O388 Gd361 2.448 . S
O388 C372 1.249 . S
O389 Gd361 2.506 . S
O389 C372 1.252 . S
O390 Gd361 2.435 1_565 S
O390 C379 1.256 . S
O391 Gd360 2.327 . S
O391 Gd361 2.717 1_565 S
O391 C379 1.257 . S
H392 C365 0.930 . S
H393 C366 0.931 . S
H394 C368 0.931 . S
H395 C369 0.931 . S
H396 C374 0.930 . S
H397 C375 0.931 . S
H398 C377 0.931 . S
H399 C378 0.931 . S
Gd400 C403 2.818 . S
Gd400 O420 2.377 . S
Gd400 O422 2.448 . S
Gd400 O423 2.506 . S
Gd400 O424 2.435 . S
Gd400 O425 2.717 . S
Gd400 O427 2.395 1_565 S
Gd400 O431 2.346 . S
Gd401 C412 2.818 . S
Gd401 O421 2.395 1_545 S
Gd401 O425 2.327 1_545 S
Gd401 O426 2.377 . S
Gd401 O428 2.448 . S
Gd401 O429 2.506 . S
Gd401 O430 2.435 . S
Gd401 O431 2.707 1_545 S
C402 O420 1.240 . S
C402 O421 1.240 . S
C403 Gd400 2.818 . S
C403 C404 1.510 . S
C403 O422 1.249 . S
C403 O423 1.252 . S
C404 C403 1.510 . S
C404 C405 1.404 . S
C404 C406 1.352 . S
C405 C404 1.404 . S
C405 C409 1.389 . S
C405 H432 0.930 . S
C406 C404 1.352 . S
C406 C408 1.374 . S
C406 H433 0.931 . S
C407 C408 1.359 . S
C407 C409 1.364 . S
C408 C406 1.374 . S
C408 C407 1.359 . S
C408 H434 0.931 . S
C409 C405 1.389 . S
C409 C407 1.364 . S
C409 H435 0.931 . S
C410 O424 1.256 . S
C410 O425 1.257 . S
C411 O426 1.240 . S
C411 O427 1.240 . S
C412 Gd401 2.818 . S
C412 C413 1.510 . S
C412 O428 1.249 . S
C412 O429 1.252 . S
C413 C412 1.510 . S
C413 C414 1.404 . S
C413 C415 1.352 . S
C414 C413 1.404 . S
C414 C418 1.389 . S
C414 H436 0.930 . S
C415 C413 1.352 . S
C415 C417 1.374 . S
C415 H437 0.931 . S
C416 C417 1.359 . S
C416 C418 1.364 . S
C417 C415 1.374 . S
C417 C416 1.359 . S
C417 H438 0.931 . S
C418 C414 1.389 . S
C418 C416 1.364 . S
C418 H439 0.931 . S
C419 O430 1.256 . S
C419 O431 1.237 1_545 S
O420 Gd400 2.377 . S
O420 C402 1.240 . S
O421 Gd401 2.395 1_565 S
O421 C402 1.240 . S
O422 Gd400 2.448 . S
O422 C403 1.249 . S
O423 Gd400 2.506 . S
O423 C403 1.252 . S
O424 Gd400 2.435 . S
O424 C410 1.256 . S
O425 Gd400 2.717 . S
O425 Gd401 2.327 1_565 S
O425 C410 1.257 . S
O426 Gd401 2.377 . S
O426 C411 1.240 . S
O427 Gd400 2.395 1_545 S
O427 C411 1.240 . S
O428 Gd401 2.448 . S
O428 C412 1.249 . S
O429 Gd401 2.506 . S
O429 C412 1.252 . S
O430 Gd401 2.435 . S
O430 C419 1.256 . S
O431 Gd400 2.346 . S
O431 Gd401 2.707 1_565 S
O431 C419 1.237 1_565 S
H432 C405 0.930 . S
H433 C406 0.931 . S
H434 C408 0.931 . S
H435 C409 0.931 . S
H436 C414 0.930 . S
H437 C415 0.931 . S
H438 C417 0.931 . S
H439 C418 0.931 . S
Gd440 C443 2.818 . S
Gd440 O460 2.377 . S
Gd440 O462 2.448 . S
Gd440 O463 2.506 . S
Gd440 O464 2.435 . S
Gd440 O465 2.717 . S
Gd440 O467 2.395 . S
Gd440 O471 2.327 . S
Gd441 C452 2.818 . S
Gd441 O461 2.395 . S
Gd441 O465 2.327 . S
Gd441 O466 2.377 . S
Gd441 O468 2.448 . S
Gd441 O469 2.506 . S
Gd441 O470 2.435 . S
Gd441 O471 2.717 . S
C442 O460 1.240 . S
C442 O461 1.240 . S
C443 Gd440 2.818 . S
C443 C444 1.510 . S
C443 O462 1.249 . S
C443 O463 1.252 . S
C444 C443 1.510 . S
C444 C445 1.404 . S
C444 C446 1.352 . S
C445 C444 1.404 . S
C445 C449 1.389 . S
C445 H472 0.930 . S
C446 C444 1.352 . S
C446 C448 1.374 . S
C446 H473 0.931 . S
C447 C448 1.359 . S
C447 C449 1.364 . S
C448 C446 1.374 . S
C448 C447 1.359 . S
C448 H474 0.931 . S
C449 C445 1.389 . S
C449 C447 1.364 . S
C449 H475 0.931 . S
C450 O464 1.256 . S
C450 O465 1.257 . S
C451 O466 1.240 . S
C451 O467 1.240 . S
C452 Gd441 2.818 . S
C452 C453 1.510 . S
C452 O468 1.249 . S
C452 O469 1.252 . S
C453 C452 1.510 . S
C453 C454 1.404 . S
C453 C455 1.352 . S
C454 C453 1.404 . S
C454 C458 1.389 . S
C454 H476 0.930 . S
C455 C453 1.352 . S
C455 C457 1.374 . S
C455 H477 0.931 . S
C456 C457 1.359 . S
C456 C458 1.364 . S
C457 C455 1.374 . S
C457 C456 1.359 . S
C457 H478 0.931 . S
C458 C454 1.389 . S
C458 C456 1.364 . S
C458 H479 0.931 . S
C459 O470 1.256 . S
C459 O471 1.257 . S
O460 Gd440 2.377 . S
O460 C442 1.240 . S
O461 Gd441 2.395 . S
O461 C442 1.240 . S
O462 Gd440 2.448 . S
O462 C443 1.249 . S
O463 Gd440 2.506 . S
O463 C443 1.252 . S
O464 Gd440 2.435 . S
O464 C450 1.256 . S
O465 Gd440 2.717 . S
O465 Gd441 2.327 . S
O465 C450 1.257 . S
O466 Gd441 2.377 . S
O466 C451 1.240 . S
O467 Gd440 2.395 . S
O467 C451 1.240 . S
O468 Gd441 2.448 . S
O468 C452 1.249 . S
O469 Gd441 2.506 . S
O469 C452 1.252 . S
O470 Gd441 2.435 . S
O470 C459 1.256 . S
O471 Gd440 2.327 . S
O471 Gd441 2.717 . S
O471 C459 1.257 . S
H472 C445 0.930 . S
H473 C446 0.931 . S
H474 C448 0.931 . S
H475 C449 0.931 . S
H476 C454 0.930 . S
H477 C455 0.931 . S
H478 C457 0.931 . S
H479 C458 0.931 . S
H480 C486 0.930 . S
H481 C489 0.930 . S
H482 C490 0.930 . S
H483 C491 0.930 . S
H484 C494 0.930 . S
H485 C495 0.930 . S
C486 H480 0.930 . S
C486 C487 1.355 . S
C486 C488 1.415 . S
C487 C486 1.355 . S
C487 C489 1.419 . S
C488 C486 1.415 . S
C488 C493 1.425 . S
C488 C495 1.409 . S
C489 H481 0.930 . S
C489 C487 1.419 . S
C489 C490 1.362 . S
C490 H482 0.930 . S
C490 C489 1.362 . S
C490 C493 1.409 . S
C491 H483 0.930 . S
C491 C492 1.355 . S
C491 C493 1.415 . S
C492 C491 1.355 . S
C492 C494 1.419 . S
C493 C488 1.425 . S
C493 C490 1.409 . S
C493 C491 1.415 . S
C494 H484 0.930 . S
C494 C492 1.419 . S
C494 C495 1.362 . S
C495 H485 0.930 . S
C495 C488 1.409 . S
C495 C494 1.362 . S
H496 C502 0.930 . S
H497 C505 0.930 . S
H498 C506 0.930 . S
H499 C507 0.930 . S
H500 C510 0.930 . S
H501 C511 0.930 . S
C502 H496 0.930 . S
C502 C503 1.355 . S
C502 C504 1.415 . S
C503 C502 1.355 . S
C503 C505 1.419 . S
C504 C502 1.415 . S
C504 C509 1.425 . S
C504 C511 1.409 . S
C505 H497 0.930 . S
C505 C503 1.419 . S
C505 C506 1.362 . S
C506 H498 0.930 . S
C506 C505 1.362 . S
C506 C509 1.409 . S
C507 H499 0.930 . S
C507 C508 1.355 . S
C507 C509 1.415 . S
C508 C507 1.355 . S
C508 C510 1.419 . S
C509 C504 1.425 . S
C509 C506 1.409 . S
C509 C507 1.415 . S
C510 H500 0.930 . S
C510 C508 1.419 . S
C510 C511 1.362 . S
C511 H501 0.930 . S
C511 C504 1.409 . S
C511 C510 1.362 . S
H512 C518 0.930 . S
H513 C521 0.930 . S
H514 C522 0.930 . S
H515 C523 0.930 . S
H516 C526 0.930 . S
H517 C527 0.930 . S
C518 H512 0.930 . S
C518 C519 1.355 . S
C518 C520 1.415 . S
C519 C518 1.355 . S
C519 C521 1.419 1_554 S
C520 C518 1.415 . S
C520 C525 1.425 . S
C520 C527 1.409 . S
C521 H513 0.930 . S
C521 C519 1.419 1_556 S
C521 C522 1.362 . S
C522 H514 0.930 . S
C522 C521 1.362 . S
C522 C525 1.409 1_556 S
C523 H515 0.930 . S
C523 C524 1.355 . S
C523 C525 1.415 . S
C524 C523 1.355 . S
C524 C526 1.419 . S
C525 C520 1.425 . S
C525 C522 1.409 1_554 S
C525 C523 1.415 . S
C526 H516 0.930 . S
C526 C524 1.419 . S
C526 C527 1.362 . S
C527 H517 0.930 . S
C527 C520 1.409 . S
C527 C526 1.362 . S
H528 C534 0.930 . S
H529 C537 0.930 . S
H530 C538 0.930 . S
H531 C539 0.930 . S
H532 C542 0.930 1_565 S
H533 C543 0.930 1_565 S
C534 H528 0.930 . S
C534 C535 1.355 . S
C534 C536 1.415 . S
C535 C534 1.355 . S
C535 C537 1.419 . S
C536 C534 1.415 . S
C536 C541 1.425 . S
C536 C543 1.409 . S
C537 H529 0.930 . S
C537 C535 1.419 . S
C537 C538 1.362 . S
C538 H530 0.930 . S
C538 C537 1.362 . S
C538 C541 1.409 . S
C539 H531 0.930 . S
C539 C540 1.355 . S
C539 C541 1.415 . S
C540 C539 1.355 . S
C540 C542 1.419 . S
C541 C536 1.425 . S
C541 C538 1.409 . S
C541 C539 1.415 . S
C542 H532 0.930 1_545 S
C542 C540 1.419 . S
C542 C543 1.362 . S
C543 H533 0.930 1_545 S
C543 C536 1.409 . S
C543 C542 1.362 . S
H544 C550 0.930 . S
H545 C553 0.930 . S
H546 C554 0.930 . S
H547 C555 0.930 . S
H548 C558 0.930 . S
H549 C559 0.930 . S
C550 H544 0.930 . S
C550 C551 1.355 . S
C550 C552 1.415 . S
C551 C550 1.355 . S
C551 C553 1.419 . S
C552 C550 1.415 . S
C552 C557 1.425 . S
C552 C559 1.409 . S
C553 H545 0.930 . S
C553 C551 1.419 . S
C553 C554 1.362 . S
C554 H546 0.930 . S
C554 C553 1.362 . S
C554 C557 1.409 . S
C555 H547 0.930 . S
C555 C556 1.355 . S
C555 C557 1.415 . S
C556 C555 1.355 . S
C556 C558 1.419 . S
C557 C552 1.425 . S
C557 C554 1.409 . S
C557 C555 1.415 . S
C558 H548 0.930 . S
C558 C556 1.419 . S
C558 C559 1.362 . S
C559 H549 0.930 . S
C559 C552 1.409 . S
C559 C558 1.362 . S
H560 C566 0.930 . S
H561 C569 0.930 . S
H562 C570 0.930 . S
H563 C571 0.930 . S
H564 C574 0.930 . S
H565 C575 0.930 . S
C566 H560 0.930 . S
C566 C567 1.355 . S
C566 C568 1.415 . S
C567 C566 1.355 . S
C567 C569 1.419 . S
C568 C566 1.415 . S
C568 C573 1.425 . S
C568 C575 1.409 . S
C569 H561 0.930 . S
C569 C567 1.419 . S
C569 C570 1.362 . S
C570 H562 0.930 . S
C570 C569 1.362 . S
C570 C573 1.409 . S
C571 H563 0.930 . S
C571 C572 1.355 . S
C571 C573 1.415 . S
C572 C571 1.355 . S
C572 C574 1.419 . S
C573 C568 1.425 . S
C573 C570 1.409 . S
C573 C571 1.415 . S
C574 H564 0.930 . S
C574 C572 1.419 . S
C574 C575 1.362 . S
C575 H565 0.930 . S
C575 C568 1.409 . S
C575 C574 1.362 . S
H576 C582 0.930 . S
H577 C585 0.930 . S
H578 C586 0.930 1_554 S
H579 C587 0.930 1_554 S
H580 C590 0.930 . S
H581 C591 0.930 . S
C582 H576 0.930 . S
C582 C583 1.355 . S
C582 C584 1.415 . S
C583 C582 1.355 . S
C583 C585 1.419 . S
C584 C582 1.415 . S
C584 C589 1.425 . S
C584 C591 1.409 . S
C585 H577 0.930 . S
C585 C583 1.419 . S
C585 C586 1.362 . S
C586 H578 0.930 1_556 S
C586 C585 1.362 . S
C586 C589 1.409 . S
C587 H579 0.930 1_556 S
C587 C588 1.355 . S
C587 C589 1.415 . S
C588 C587 1.355 . S
C588 C590 1.419 . S
C589 C584 1.425 . S
C589 C586 1.409 . S
C589 C587 1.415 . S
C590 H580 0.930 . S
C590 C588 1.419 . S
C590 C591 1.362 . S
C591 H581 0.930 . S
C591 C584 1.409 . S
C591 C590 1.362 . S
H592 C598 0.930 . S
H593 C601 0.930 . S
H594 C602 0.930 . S
H595 C603 0.930 . S
H596 C606 0.930 . S
H597 C607 0.930 . S
C598 H592 0.930 . S
C598 C599 1.355 . S
C598 C600 1.415 . S
C599 C598 1.355 . S
C599 C601 1.419 . S
C600 C598 1.415 . S
C600 C605 1.425 . S
C600 C607 1.409 . S
C601 H593 0.930 . S
C601 C599 1.419 . S
C601 C602 1.362 . S
C602 H594 0.930 . S
C602 C601 1.362 . S
C602 C605 1.409 . S
C603 H595 0.930 . S
C603 C604 1.355 . S
C603 C605 1.415 . S
C604 C603 1.355 . S
C604 C606 1.419 . S
C605 C600 1.425 . S
C605 C602 1.409 . S
C605 C603 1.415 . S
C606 H596 0.930 . S
C606 C604 1.419 . S
C606 C607 1.362 . S
C607 H597 0.930 . S
C607 C600 1.409 . S
C607 C606 1.362 . S
H608 C614 0.930 . S
H609 C617 0.930 . S
H610 C618 0.930 . S
H611 C619 0.930 . S
H612 C622 0.930 . S
H613 C623 0.930 . S
C614 H608 0.930 . S
C614 C615 1.355 . S
C614 C616 1.415 . S
C615 C614 1.355 . S
C615 C617 1.419 . S
C616 C614 1.415 . S
C616 C621 1.425 . S
C616 C623 1.409 . S
C617 H609 0.930 . S
C617 C615 1.419 . S
C617 C618 1.362 . S
C618 H610 0.930 . S
C618 C617 1.362 . S
C618 C621 1.409 . S
C619 H611 0.930 . S
C619 C620 1.355 . S
C619 C621 1.415 . S
C620 C619 1.355 . S
C620 C622 1.419 . S
C621 C616 1.425 . S
C621 C618 1.409 . S
C621 C619 1.415 . S
C622 H612 0.930 . S
C622 C620 1.419 . S
C622 C623 1.362 . S
C623 H613 0.930 . S
C623 C616 1.409 . S
C623 C622 1.362 . S
H624 C630 0.930 . S
H625 C633 0.930 . S
H626 C634 0.930 . S
H627 C635 0.930 . S
H628 C638 0.930 . S
H629 C639 0.930 . S
C630 H624 0.930 . S
C630 C631 1.355 . S
C630 C632 1.415 . S
C631 C630 1.355 . S
C631 C633 1.419 . S
C632 C630 1.415 . S
C632 C637 1.425 . S
C632 C639 1.409 . S
C633 H625 0.930 . S
C633 C631 1.419 . S
C633 C634 1.362 . S
C634 H626 0.930 . S
C634 C633 1.362 . S
C634 C637 1.409 . S
C635 H627 0.930 . S
C635 C636 1.355 . S
C635 C637 1.415 . S
C636 C635 1.355 . S
C636 C638 1.419 . S
C637 C632 1.425 . S
C637 C634 1.409 . S
C637 C635 1.415 . S
C638 H628 0.930 . S
C638 C636 1.419 . S
C638 C639 1.362 . S
C639 H629 0.930 . S
C639 C632 1.409 . S
C639 C638 1.362 . S
H640 C646 0.930 . S
H641 C649 0.930 . S
H642 C650 0.930 . S
H643 C651 0.930 . S
H644 C654 0.930 . S
H645 C655 0.930 . S
C646 H640 0.930 . S
C646 C647 1.355 . S
C646 C648 1.415 . S
C647 C646 1.355 . S
C647 C649 1.419 . S
C648 C646 1.415 . S
C648 C653 1.425 . S
C648 C655 1.409 . S
C649 H641 0.930 . S
C649 C647 1.419 . S
C649 C650 1.362 . S
C650 H642 0.930 . S
C650 C649 1.362 . S
C650 C653 1.409 . S
C651 H643 0.930 . S
C651 C652 1.355 . S
C651 C653 1.415 . S
C652 C651 1.355 . S
C652 C654 1.419 . S
C653 C648 1.425 . S
C653 C650 1.409 . S
C653 C651 1.415 . S
C654 H644 0.930 . S
C654 C652 1.419 . S
C654 C655 1.362 . S
C655 H645 0.930 . S
C655 C648 1.409 . S
C655 C654 1.362 . S
H656 C662 0.930 . S
H657 C665 0.930 . S
H658 C666 0.930 . S
H659 C667 0.930 . S
H660 C670 0.930 . S
H661 C671 0.930 . S
C662 H656 0.930 . S
C662 C663 1.355 . S
C662 C664 1.415 . S
C663 C662 1.355 . S
C663 C665 1.419 . S
C664 C662 1.415 . S
C664 C669 1.425 . S
C664 C671 1.409 . S
C665 H657 0.930 . S
C665 C663 1.419 . S
C665 C666 1.362 . S
C666 H658 0.930 . S
C666 C665 1.362 . S
C666 C669 1.409 . S
C667 H659 0.930 . S
C667 C668 1.355 . S
C667 C669 1.415 . S
C668 C667 1.355 . S
C668 C670 1.419 . S
C669 C664 1.425 . S
C669 C666 1.409 . S
C669 C667 1.415 . S
C670 H660 0.930 . S
C670 C668 1.419 . S
C670 C671 1.362 . S
C671 H661 0.930 . S
C671 C664 1.409 . S
C671 C670 1.362 . S
H672 C678 0.930 . S
H673 C681 0.930 . S
H674 C682 0.930 . S
H675 C683 0.930 . S
H676 C686 0.930 . S
H677 C687 0.930 . S
C678 H672 0.930 . S
C678 C679 1.355 . S
C678 C680 1.415 . S
C679 C678 1.355 . S
C679 C681 1.419 . S
C680 C678 1.415 . S
C680 C685 1.425 . S
C680 C687 1.409 . S
C681 H673 0.930 . S
C681 C679 1.419 . S
C681 C682 1.362 . S
C682 H674 0.930 . S
C682 C681 1.362 . S
C682 C685 1.409 . S
C683 H675 0.930 . S
C683 C684 1.355 . S
C683 C685 1.415 . S
C684 C683 1.355 . S
C684 C686 1.419 . S
C685 C680 1.425 . S
C685 C682 1.409 . S
C685 C683 1.415 . S
C686 H676 0.930 . S
C686 C684 1.419 . S
C686 C687 1.362 . S
C687 H677 0.930 . S
C687 C680 1.409 . S
C687 C686 1.362 . S
H688 C694 0.930 . S
H689 C697 0.930 . S
H690 C698 0.930 . S
H691 C699 0.930 . S
H692 C702 0.930 . S
H693 C703 0.930 . S
C694 H688 0.930 . S
C694 C695 1.355 . S
C694 C696 1.415 . S
C695 C694 1.355 . S
C695 C697 1.419 . S
C696 C694 1.415 . S
C696 C701 1.425 . S
C696 C703 1.409 . S
C697 H689 0.930 . S
C697 C695 1.419 . S
C697 C698 1.362 . S
C698 H690 0.930 . S
C698 C697 1.362 . S
C698 C701 1.409 . S
C699 H691 0.930 . S
C699 C700 1.355 . S
C699 C701 1.415 . S
C700 C699 1.355 . S
C700 C702 1.419 . S
C701 C696 1.425 . S
C701 C698 1.409 . S
C701 C699 1.415 . S
C702 H692 0.930 . S
C702 C700 1.419 . S
C702 C703 1.362 . S
C703 H693 0.930 . S
C703 C696 1.409 . S
C703 C702 1.362 . S
H704 C710 0.930 . S
H705 C713 0.930 . S
H706 C714 0.930 . S
H707 C715 0.930 . S
H708 C718 0.930 . S
H709 C719 0.930 . S
C710 H704 0.930 . S
C710 C711 1.355 . S
C710 C712 1.415 . S
C711 C710 1.355 . S
C711 C713 1.419 . S
C712 C710 1.415 . S
C712 C717 1.425 . S
C712 C719 1.409 . S
C713 H705 0.930 . S
C713 C711 1.419 . S
C713 C714 1.362 . S
C714 H706 0.930 . S
C714 C713 1.362 . S
C714 C717 1.409 . S
C715 H707 0.930 . S
C715 C716 1.355 . S
C715 C717 1.415 . S
C716 C715 1.355 . S
C716 C718 1.419 . S
C717 C712 1.425 . S
C717 C714 1.409 . S
C717 C715 1.415 . S
C718 H708 0.930 . S
C718 C716 1.419 . S
C718 C719 1.362 . S
C719 H709 0.930 . S
C719 C712 1.409 . S
C719 C718 1.362 . S
H720 C726 0.930 . S
H721 C729 0.930 . S
H722 C730 0.930 . S
H723 C731 0.930 . S
H724 C734 0.930 . S
H725 C735 0.930 . S
C726 H720 0.930 . S
C726 C727 1.355 . S
C726 C728 1.415 . S
C727 C726 1.355 . S
C727 C729 1.419 . S
C728 C726 1.415 . S
C728 C733 1.425 . S
C728 C735 1.409 1_554 S
C729 H721 0.930 . S
C729 C727 1.419 . S
C729 C730 1.362 . S
C730 H722 0.930 . S
C730 C729 1.362 . S
C730 C733 1.409 . S
C731 H723 0.930 . S
C731 C732 1.355 . S
C731 C733 1.415 1_556 S
C732 C731 1.355 . S
C732 C734 1.419 . S
C733 C728 1.425 . S
C733 C730 1.409 . S
C733 C731 1.415 1_554 S
C734 H724 0.930 . S
C734 C732 1.419 . S
C734 C735 1.362 . S
C735 H725 0.930 . S
C735 C728 1.409 1_556 S
C735 C734 1.362 . S
H736 C742 0.930 . S
H737 C745 0.930 . S
H738 C746 0.930 . S
H739 C747 0.930 . S
H740 C750 0.930 . S
H741 C751 0.930 . S
C742 H736 0.930 . S
C742 C743 1.355 . S
C742 C744 1.415 . S
C743 C742 1.355 . S
C743 C745 1.419 . S
C744 C742 1.415 . S
C744 C749 1.425 . S
C744 C751 1.409 . S
C745 H737 0.930 . S
C745 C743 1.419 . S
C745 C746 1.362 . S
C746 H738 0.930 . S
C746 C745 1.362 . S
C746 C749 1.409 . S
C747 H739 0.930 . S
C747 C748 1.355 . S
C747 C749 1.415 . S
C748 C747 1.355 . S
C748 C750 1.419 . S
C749 C744 1.425 . S
C749 C746 1.409 . S
C749 C747 1.415 . S
C750 H740 0.930 . S
C750 C748 1.419 . S
C750 C751 1.362 . S
C751 H741 0.930 . S
C751 C744 1.409 . S
C751 C750 1.362 . S
H752 C758 0.930 . S
H753 C761 0.930 . S
H754 C762 0.930 . S
H755 C763 0.930 . S
H756 C766 0.930 . S
H757 C767 0.930 . S
C758 H752 0.930 . S
C758 C759 1.355 . S
C758 C760 1.415 1_554 S
C759 C758 1.355 . S
C759 C761 1.419 . S
C760 C758 1.415 1_556 S
C760 C765 1.425 . S
C760 C767 1.409 . S
C761 H753 0.930 . S
C761 C759 1.419 . S
C761 C762 1.362 1_554 S
C762 H754 0.930 . S
C762 C761 1.362 1_556 S
C762 C765 1.409 . S
C763 H755 0.930 . S
C763 C764 1.355 . S
C763 C765 1.415 . S
C764 C763 1.355 . S
C764 C766 1.419 . S
C765 C760 1.425 . S
C765 C762 1.409 . S
C765 C763 1.415 . S
C766 H756 0.930 . S
C766 C764 1.419 . S
C766 C767 1.362 . S
C767 H757 0.930 . S
C767 C760 1.409 . S
C767 C766 1.362 . S
H768 C774 0.930 . S
H769 C777 0.930 . S
H770 C778 0.930 . S
H771 C779 0.930 . S
H772 C782 0.930 . S
H773 C783 0.930 . S
C774 H768 0.930 . S
C774 C775 1.355 . S
C774 C776 1.415 . S
C775 C774 1.355 . S
C775 C777 1.419 . S
C776 C774 1.415 . S
C776 C781 1.425 . S
C776 C783 1.409 . S
C777 H769 0.930 . S
C777 C775 1.419 . S
C777 C778 1.362 . S
C778 H770 0.930 . S
C778 C777 1.362 . S
C778 C781 1.409 . S
C779 H771 0.930 . S
C779 C780 1.355 . S
C779 C781 1.415 . S
C780 C779 1.355 . S
C780 C782 1.419 . S
C781 C776 1.425 . S
C781 C778 1.409 . S
C781 C779 1.415 . S
C782 H772 0.930 . S
C782 C780 1.419 . S
C782 C783 1.362 . S
C783 H773 0.930 . S
C783 C776 1.409 . S
C783 C782 1.362 . S
H784 C790 0.930 . S
H785 C793 0.930 . S
H786 C794 0.930 . S
H787 C795 0.930 . S
H788 C798 0.930 . S
H789 C799 0.930 . S
C790 H784 0.930 . S
C790 C791 1.355 . S
C790 C792 1.415 . S
C791 C790 1.355 . S
C791 C793 1.419 . S
C792 C790 1.415 . S
C792 C797 1.425 . S
C792 C799 1.409 . S
C793 H785 0.930 . S
C793 C791 1.419 . S
C793 C794 1.362 . S
C794 H786 0.930 . S
C794 C793 1.362 . S
C794 C797 1.409 . S
C795 H787 0.930 . S
C795 C796 1.355 . S
C795 C797 1.415 . S
C796 C795 1.355 . S
C796 C798 1.419 . S
C797 C792 1.425 . S
C797 C794 1.409 . S
C797 C795 1.415 . S
C798 H788 0.930 . S
C798 C796 1.419 . S
C798 C799 1.362 . S
C799 H789 0.930 . S
C799 C792 1.409 . S
C799 C798 1.362 . S
H800 C806 0.930 . S
H801 C809 0.930 . S
H802 C810 0.930 . S
H803 C811 0.930 . S
H804 C814 0.930 . S
H805 C815 0.930 . S
C806 H800 0.930 . S
C806 C807 1.355 . S
C806 C808 1.415 . S
C807 C806 1.355 . S
C807 C809 1.419 . S
C808 C806 1.415 . S
C808 C813 1.425 . S
C808 C815 1.409 . S
C809 H801 0.930 . S
C809 C807 1.419 . S
C809 C810 1.362 . S
C810 H802 0.930 . S
C810 C809 1.362 . S
C810 C813 1.409 . S
C811 H803 0.930 . S
C811 C812 1.355 . S
C811 C813 1.415 . S
C812 C811 1.355 . S
C812 C814 1.419 . S
C813 C808 1.425 . S
C813 C810 1.409 . S
C813 C811 1.415 . S
C814 H804 0.930 . S
C814 C812 1.419 . S
C814 C815 1.362 . S
C815 H805 0.930 . S
C815 C808 1.409 . S
C815 C814 1.362 . S
H816 C822 0.930 . S
H817 C825 0.930 . S
H818 C826 0.930 1_565 S
H819 C827 0.930 . S
H820 C830 0.930 . S
H821 C831 0.930 . S
C822 H816 0.930 . S
C822 C823 1.355 . S
C822 C824 1.415 . S
C823 C822 1.355 . S
C823 C825 1.419 . S
C824 C822 1.415 . S
C824 C829 1.425 1_545 S
C824 C831 1.409 1_455 S
C825 H817 0.930 . S
C825 C823 1.419 . S
C825 C826 1.362 . S
C826 H818 0.930 1_545 S
C826 C825 1.362 . S
C826 C829 1.409 1_545 S
C827 H819 0.930 . S
C827 C828 1.355 . S
C827 C829 1.415 . S
C828 C827 1.355 . S
C828 C830 1.419 1_455 S
C829 C824 1.425 1_565 S
C829 C826 1.409 1_565 S
C829 C827 1.415 . S
C830 H820 0.930 . S
C830 C828 1.419 1_655 S
C830 C831 1.362 1_565 S
C831 H821 0.930 . S
C831 C824 1.409 1_655 S
C831 C830 1.362 1_545 S
H832 C838 0.930 . S
H833 C841 0.930 . S
H834 C842 0.930 . S
H835 C843 0.930 . S
H836 C846 0.930 . S
H837 C847 0.930 . S
C838 H832 0.930 . S
C838 C839 1.355 . S
C838 C840 1.415 . S
C839 C838 1.355 . S
C839 C841 1.419 . S
C840 C838 1.415 . S
C840 C845 1.425 . S
C840 C847 1.409 . S
C841 H833 0.930 . S
C841 C839 1.419 . S
C841 C842 1.362 . S
C842 H834 0.930 . S
C842 C841 1.362 . S
C842 C845 1.409 . S
C843 H835 0.930 . S
C843 C844 1.355 . S
C843 C845 1.415 . S
C844 C843 1.355 . S
C844 C846 1.419 . S
C845 C840 1.425 . S
C845 C842 1.409 . S
C845 C843 1.415 . S
C846 H836 0.930 . S
C846 C844 1.419 . S
C846 C847 1.362 . S
C847 H837 0.930 . S
C847 C840 1.409 . S
C847 C846 1.362 . S
H848 C854 0.930 . S
H849 C857 0.930 . S
H850 C858 0.930 . S
H851 C859 0.930 . S
H852 C862 0.930 . S
H853 C863 0.930 . S
C854 H848 0.930 . S
C854 C855 1.355 . S
C854 C856 1.415 1_545 S
C855 C854 1.355 . S
C855 C857 1.419 . S
C856 C854 1.415 1_565 S
C856 C861 1.425 . S
C856 C863 1.409 . S
C857 H849 0.930 . S
C857 C855 1.419 . S
C857 C858 1.362 . S
C858 H850 0.930 . S
C858 C857 1.362 . S
C858 C861 1.409 1_545 S
C859 H851 0.930 . S
C859 C860 1.355 . S
C859 C861 1.415 . S
C860 C859 1.355 . S
C860 C862 1.419 . S
C861 C856 1.425 . S
C861 C858 1.409 1_565 S
C861 C859 1.415 . S
C862 H852 0.930 . S
C862 C860 1.419 . S
C862 C863 1.362 . S
C863 H853 0.930 . S
C863 C856 1.409 . S
C863 C862 1.362 . S
H864 C870 0.930 . S
H865 C873 0.930 . S
H866 C874 0.930 . S
H867 C875 0.930 . S
H868 C878 0.930 . S
H869 C879 0.930 . S
C870 H864 0.930 . S
C870 C871 1.355 . S
C870 C872 1.415 . S
C871 C870 1.355 . S
C871 C873 1.419 . S
C872 C870 1.415 . S
C872 C877 1.425 . S
C872 C879 1.409 . S
C873 H865 0.930 . S
C873 C871 1.419 . S
C873 C874 1.362 . S
C874 H866 0.930 . S
C874 C873 1.362 . S
C874 C877 1.409 . S
C875 H867 0.930 . S
C875 C876 1.355 . S
C875 C877 1.415 . S
C876 C875 1.355 . S
C876 C878 1.419 . S
C877 C872 1.425 . S
C877 C874 1.409 . S
C877 C875 1.415 . S
C878 H868 0.930 . S
C878 C876 1.419 . S
C878 C879 1.362 . S
C879 H869 0.930 . S
C879 C872 1.409 . S
C879 C878 1.362 . S
H880 C886 0.930 . S
H881 C889 0.930 1_455 S
H882 C890 0.930 . S
H883 C891 0.930 . S
H884 C894 0.930 . S
H885 C895 0.930 . S
C886 H880 0.930 . S
C886 C887 1.355 . S
C886 C888 1.415 . S
C887 C886 1.355 . S
C887 C889 1.419 . S
C888 C886 1.415 . S
C888 C893 1.425 . S
C888 C895 1.409 . S
C889 H881 0.930 1_655 S
C889 C887 1.419 . S
C889 C890 1.362 . S
C890 H882 0.930 . S
C890 C889 1.362 . S
C890 C893 1.409 . S
C891 H883 0.930 . S
C891 C892 1.355 . S
C891 C893 1.415 . S
C892 C891 1.355 . S
C892 C894 1.419 . S
C893 C888 1.425 . S
C893 C890 1.409 . S
C893 C891 1.415 . S
C894 H884 0.930 . S
C894 C892 1.419 . S
C894 C895 1.362 . S
C895 H885 0.930 . S
C895 C888 1.409 . S
C895 C894 1.362 . S
H896 C902 0.930 . S
H897 C905 0.930 . S
H898 C906 0.930 . S
H899 C907 0.930 . S
H900 C910 0.930 . S
H901 C911 0.930 . S
C902 H896 0.930 . S
C902 C903 1.355 . S
C902 C904 1.415 . S
C903 C902 1.355 . S
C903 C905 1.419 . S
C904 C902 1.415 . S
C904 C909 1.425 . S
C904 C911 1.409 . S
C905 H897 0.930 . S
C905 C903 1.419 . S
C905 C906 1.362 . S
C906 H898 0.930 . S
C906 C905 1.362 . S
C906 C909 1.409 . S
C907 H899 0.930 . S
C907 C908 1.355 . S
C907 C909 1.415 . S
C908 C907 1.355 . S
C908 C910 1.419 . S
C909 C904 1.425 . S
C909 C906 1.409 . S
C909 C907 1.415 . S
C910 H900 0.930 . S
C910 C908 1.419 . S
C910 C911 1.362 . S
C911 H901 0.930 . S
C911 C904 1.409 . S
C911 C910 1.362 . S
H912 C918 0.930 . S
H913 C921 0.930 . S
H914 C922 0.930 . S
H915 C923 0.930 . S
H916 C926 0.930 . S
H917 C927 0.930 . S
C918 H912 0.930 . S
C918 C919 1.355 . S
C918 C920 1.415 . S
C919 C918 1.355 . S
C919 C921 1.419 . S
C920 C918 1.415 . S
C920 C925 1.425 . S
C920 C927 1.409 . S
C921 H913 0.930 . S
C921 C919 1.419 . S
C921 C922 1.362 . S
C922 H914 0.930 . S
C922 C921 1.362 . S
C922 C925 1.409 . S
C923 H915 0.930 . S
C923 C924 1.355 . S
C923 C925 1.415 . S
C924 C923 1.355 . S
C924 C926 1.419 . S
C925 C920 1.425 . S
C925 C922 1.409 . S
C925 C923 1.415 . S
C926 H916 0.930 . S
C926 C924 1.419 . S
C926 C927 1.362 . S
C927 H917 0.930 . S
C927 C920 1.409 . S
C927 C926 1.362 . S
H928 C934 0.930 . S
H929 C937 0.930 . S
H930 C938 0.930 . S
H931 C939 0.930 . S
H932 C942 0.930 . S
H933 C943 0.930 . S
C934 H928 0.930 . S
C934 C935 1.355 . S
C934 C936 1.415 . S
C935 C934 1.355 . S
C935 C937 1.419 . S
C936 C934 1.415 . S
C936 C941 1.425 . S
C936 C943 1.409 . S
C937 H929 0.930 . S
C937 C935 1.419 . S
C937 C938 1.362 . S
C938 H930 0.930 . S
C938 C937 1.362 . S
C938 C941 1.409 . S
C939 H931 0.930 . S
C939 C940 1.355 . S
C939 C941 1.415 . S
C940 C939 1.355 . S
C940 C942 1.419 . S
C941 C936 1.425 . S
C941 C938 1.409 . S
C941 C939 1.415 . S
C942 H932 0.930 . S
C942 C940 1.419 . S
C942 C943 1.362 . S
C943 H933 0.930 . S
C943 C936 1.409 . S
C943 C942 1.362 . S
H944 C950 0.930 . S
H945 C953 0.930 . S
H946 C954 0.930 . S
H947 C955 0.930 . S
H948 C958 0.930 . S
H949 C959 0.930 . S
C950 H944 0.930 . S
C950 C951 1.355 . S
C950 C952 1.415 . S
C951 C950 1.355 . S
C951 C953 1.419 . S
C952 C950 1.415 . S
C952 C957 1.425 . S
C952 C959 1.409 . S
C953 H945 0.930 . S
C953 C951 1.419 . S
C953 C954 1.362 . S
C954 H946 0.930 . S
C954 C953 1.362 . S
C954 C957 1.409 . S
C955 H947 0.930 . S
C955 C956 1.355 . S
C955 C957 1.415 . S
C956 C955 1.355 . S
C956 C958 1.419 . S
C957 C952 1.425 . S
C957 C954 1.409 . S
C957 C955 1.415 . S
C958 H948 0.930 . S
C958 C956 1.419 . S
C958 C959 1.362 . S
C959 H949 0.930 . S
C959 C952 1.409 . S
C959 C958 1.362 . S
H960 C966 0.930 . S
H961 C969 0.930 . S
H962 C970 0.930 1_556 S
H963 C971 0.930 . S
H964 C974 0.930 . S
H965 C975 0.930 . S
C966 H960 0.930 . S
C966 C967 1.355 . S
C966 C968 1.432 . S
C967 C966 1.355 . S
C967 C969 1.419 . S
C968 C966 1.432 . S
C968 C973 1.424 1_455 S
C968 C975 1.393 1_455 S
C969 H961 0.930 . S
C969 C967 1.419 . S
C969 C970 1.362 . S
C970 H962 0.930 1_554 S
C970 C969 1.362 . S
C970 C973 1.409 1_455 S
C971 H963 0.930 . S
C971 C972 1.355 . S
C971 C973 1.415 . S
C972 C971 1.355 . S
C972 C974 1.419 . S
C973 C968 1.424 1_655 S
C973 C970 1.409 1_655 S
C973 C971 1.415 . S
C974 H964 0.930 . S
C974 C972 1.419 . S
C974 C975 1.362 . S
C975 H965 0.930 . S
C975 C968 1.393 1_655 S
C975 C974 1.362 . S
H976 C982 0.930 . S
H977 C985 0.930 . S
H978 C986 0.930 . S
H979 C987 0.930 . S
H980 C990 0.930 . S
H981 C991 0.930 . S
C982 H976 0.930 . S
C982 C983 1.355 . S
C982 C984 1.415 . S
C983 C982 1.355 . S
C983 C985 1.419 . S
C984 C982 1.415 . S
C984 C989 1.425 . S
C984 C991 1.409 . S
C985 H977 0.930 . S
C985 C983 1.419 . S
C985 C986 1.362 . S
C986 H978 0.930 . S
C986 C985 1.362 . S
C986 C989 1.409 . S
C987 H979 0.930 . S
C987 C988 1.355 . S
C987 C989 1.415 . S
C988 C987 1.355 . S
C988 C990 1.419 . S
C989 C984 1.425 . S
C989 C986 1.409 . S
C989 C987 1.415 . S
C990 H980 0.930 . S
C990 C988 1.419 . S
C990 C991 1.362 . S
C991 H981 0.930 . S
C991 C984 1.409 . S
C991 C990 1.362 . S
H992 C998 0.930 . S
H993 C1001 0.930 . S
H994 C1002 0.930 . S
H995 C1003 0.930 . S
H996 C1006 0.930 . S
H997 C1007 0.930 . S
C998 H992 0.930 . S
C998 C999 1.355 . S
C998 C1000 1.415 . S
C999 C998 1.355 . S
C999 C1001 1.419 . S
C1000 C998 1.415 . S
C1000 C1005 1.425 . S
C1000 C1007 1.409 . S
C1001 H993 0.930 . S
C1001 C999 1.419 . S
C1001 C1002 1.362 . S
C1002 H994 0.930 . S
C1002 C1001 1.362 . S
C1002 C1005 1.409 . S
C1003 H995 0.930 . S
C1003 C1004 1.355 . S
C1003 C1005 1.415 . S
C1004 C1003 1.355 . S
C1004 C1006 1.419 . S
C1005 C1000 1.425 . S
C1005 C1002 1.409 . S
C1005 C1003 1.415 . S
C1006 H996 0.930 . S
C1006 C1004 1.419 . S
C1006 C1007 1.362 . S
C1007 H997 0.930 . S
C1007 C1000 1.409 . S
C1007 C1006 1.362 . S
H1008 C1014 0.930 . S
H1009 C1017 0.930 . S
H1010 C1018 0.933 1_655 S
H1011 C1019 0.930 . S
H1012 C1022 0.930 . S
H1013 C1023 0.930 . S
C1014 H1008 0.930 . S
C1014 C1015 1.355 . S
C1014 C1016 1.415 . S
C1015 C1014 1.355 . S
C1015 C1017 1.419 . S
C1016 C1014 1.415 . S
C1016 C1021 1.425 . S
C1016 C1023 1.409 . S
C1017 H1009 0.930 . S
C1017 C1015 1.419 . S
C1017 C1018 1.362 . S
C1018 H1010 0.933 1_455 S
C1018 C1017 1.362 . S
C1018 C1021 1.409 . S
C1019 H1011 0.930 . S
C1019 C1020 1.355 . S
C1019 C1021 1.415 . S
C1020 C1019 1.355 . S
C1020 C1022 1.419 . S
C1021 C1016 1.425 . S
C1021 C1018 1.409 . S
C1021 C1019 1.415 . S
C1022 H1012 0.930 . S
C1022 C1020 1.419 . S
C1022 C1023 1.362 . S
C1023 H1013 0.930 . S
C1023 C1016 1.409 . S
C1023 C1022 1.362 . S
H1024 C1030 0.930 1_554 S
H1025 C1033 0.930 . S
H1026 C1034 0.930 . S
H1027 C1035 0.930 . S
H1028 C1038 0.930 . S
H1029 C1039 0.930 1_554 S
C1030 H1024 0.930 1_556 S
C1030 C1031 1.355 . S
C1030 C1032 1.415 . S
C1031 C1030 1.355 . S
C1031 C1033 1.419 . S
C1032 C1030 1.415 . S
C1032 C1037 1.425 . S
C1032 C1039 1.409 . S
C1033 H1025 0.930 . S
C1033 C1031 1.419 . S
C1033 C1034 1.362 . S
C1034 H1026 0.930 . S
C1034 C1033 1.362 . S
C1034 C1037 1.409 . S
C1035 H1027 0.930 . S
C1035 C1036 1.355 . S
C1035 C1037 1.415 . S
C1036 C1035 1.355 . S
C1036 C1038 1.419 . S
C1037 C1032 1.425 . S
C1037 C1034 1.409 . S
C1037 C1035 1.415 . S
C1038 H1028 0.930 . S
C1038 C1036 1.419 . S
C1038 C1039 1.362 . S
C1039 H1029 0.930 1_556 S
C1039 C1032 1.409 . S
C1039 C1038 1.362 . S
H1040 C1046 0.930 . S
H1041 C1049 0.930 . S
H1042 C1050 0.930 . S
H1043 C1051 0.930 . S
H1044 C1054 0.930 . S
H1045 C1055 0.930 . S
C1046 H1040 0.930 . S
C1046 C1047 1.355 . S
C1046 C1048 1.415 . S
C1047 C1046 1.355 . S
C1047 C1049 1.419 . S
C1048 C1046 1.415 . S
C1048 C1053 1.425 . S
C1048 C1055 1.409 . S
C1049 H1041 0.930 . S
C1049 C1047 1.419 . S
C1049 C1050 1.362 . S
C1050 H1042 0.930 . S
C1050 C1049 1.362 . S
C1050 C1053 1.409 . S
C1051 H1043 0.930 . S
C1051 C1052 1.355 1_655 S
C1051 C1053 1.415 . S
C1052 C1051 1.355 1_455 S
C1052 C1054 1.419 . S
C1053 C1048 1.425 . S
C1053 C1050 1.409 . S
C1053 C1051 1.415 . S
C1054 H1044 0.930 . S
C1054 C1052 1.419 . S
C1054 C1055 1.362 1_455 S
C1055 H1045 0.930 . S
C1055 C1048 1.409 . S
C1055 C1054 1.362 1_655 S
C487 C11 1.282 . S
C492 C459 1.358 . S
C503 C371 1.798 . S
C508 C59 1.919 . S
C519 C91 1.345 . S
C524 C339 1.401 . S
C535 C139 2.050 . S
C540 C419 2.057 . S
C551 C179 1.816 . S
C556 C411 1.763 . S
C567 C211 1.530 . S
C572 C451 1.535 . S
C583 C379 1.988 . S
C588 C259 1.957 . S
C599 C291 1.550 . S
C604 C331 1.635 . S
C615 C131 1.590 . S
C620 C171 1.667 . S
C631 C19 1.688 . S
C636 C219 1.690 . S
C647 C51 1.639 . S
C652 C251 1.637 . S
C663 C299 1.842 . S
C668 C99 1.867 . S
C679 C16 2.094 . S
C684 C330 2.093 . S
C695 C47 1.333 . S
C700 C410 1.242 . S
C711 C450 2.044 . S
C716 C96 2.043 . S
C727 C127 1.580 . S
C732 C362 1.572 . S
C743 C167 1.214 . S
C748 C370 1.212 . S
C759 C322 2.271 . S
C764 C216 2.154 . S
C775 C402 1.475 . S
C780 C247 1.472 . S
C791 C442 2.215 . S
C796 C296 2.090 . S
C807 C10 2.381 . S
C812 C136 2.385 . S
C823 C7 1.747 . S
C828 C42 1.737 . S
C839 C56 2.209 . S
C844 C90 2.210 . S
C855 C122 1.630 . S
C860 C87 1.634 . S
C871 C207 1.556 . S
C876 C162 1.526 . S
C887 C210 1.460 . S
C892 C256 1.458 . S
C903 C242 1.453 . S
C908 C287 1.467 . S
C919 C176 1.312 . S
C924 C290 1.313 . S
C935 C336 1.586 . S
C940 C130 1.559 . S
C951 C202 2.211 . S
C956 C376 2.116 . S
C967 C327 1.457 . S
C972 C250 1.361 . S
C983 C407 1.787 . S
C988 C282 1.741 . S
C999 C170 1.337 . S
C1004 C447 1.401 . S
C1015 C456 1.589 . S
C1020 C50 1.572 . S
C1031 C82 1.643 . S
C1036 C367 1.662 . S
C1047 C416 2.020 . S
C1052 C2 2.114 . S
