# Generated by pormake.
# Topology vby, (6)-cn, num edge types: 1
# Building blocks:
#     Node 0, Type 0, BuildingBlock: BETFEN_clean_sbu_0, # of connection points: 6
#     Node 1, Type 0, BuildingBlock: BETFEN_clean_sbu_0, # of connection points: 6
#     Node 2, Type 0, BuildingBlock: BETFEN_clean_sbu_0, # of connection points: 6
#     Node 3, Type 0, BuildingBlock: BETFEN_clean_sbu_0, # of connection points: 6
#     Node 4, Type 0, BuildingBlock: BETFEN_clean_sbu_0, # of connection points: 6
#     Node 5, Type 0, BuildingBlock: BETFEN_clean_sbu_0, # of connection points: 6
#     Node 6, Type 0, BuildingBlock: BETFEN_clean_sbu_0, # of connection points: 6
#     Node 7, Type 0, BuildingBlock: BETFEN_clean_sbu_0, # of connection points: 6
#     Edge 8, Type (0, 0), BuildingBlock: TEMPAE_clean_linker_10, # of connection points: 2
#     Edge 9, Type (0, 0), BuildingBlock: TEMPAE_clean_linker_10, # of connection points: 2
#     Edge 10, Type (0, 0), BuildingBlock: TEMPAE_clean_linker_10, # of connection points: 2
#     Edge 11, Type (0, 0), BuildingBlock: TEMPAE_clean_linker_10, # of connection points: 2
#     Edge 12, Type (0, 0), BuildingBlock: TEMPAE_clean_linker_10, # of connection points: 2
#     Edge 13, Type (0, 0), BuildingBlock: TEMPAE_clean_linker_10, # of connection points: 2
#     Edge 14, Type (0, 0), BuildingBlock: TEMPAE_clean_linker_10, # of connection points: 2
#     Edge 15, Type (0, 0), BuildingBlock: TEMPAE_clean_linker_10, # of connection points: 2
#     Edge 16, Type (0, 0), BuildingBlock: TEMPAE_clean_linker_10, # of connection points: 2
#     Edge 17, Type (0, 0), BuildingBlock: TEMPAE_clean_linker_10, # of connection points: 2
#     Edge 18, Type (0, 0), BuildingBlock: TEMPAE_clean_linker_10, # of connection points: 2
#     Edge 19, Type (0, 0), BuildingBlock: TEMPAE_clean_linker_10, # of connection points: 2
#     Edge 20, Type (0, 0), BuildingBlock: TEMPAE_clean_linker_10, # of connection points: 2
#     Edge 21, Type (0, 0), BuildingBlock: TEMPAE_clean_linker_10, # of connection points: 2
#     Edge 22, Type (0, 0), BuildingBlock: TEMPAE_clean_linker_10, # of connection points: 2
#     Edge 23, Type (0, 0), BuildingBlock: TEMPAE_clean_linker_10, # of connection points: 2
#     Edge 24, Type (0, 0), BuildingBlock: TEMPAE_clean_linker_10, # of connection points: 2
#     Edge 25, Type (0, 0), BuildingBlock: TEMPAE_clean_linker_10, # of connection points: 2
#     Edge 26, Type (0, 0), BuildingBlock: TEMPAE_clean_linker_10, # of connection points: 2
#     Edge 27, Type (0, 0), BuildingBlock: TEMPAE_clean_linker_10, # of connection points: 2
#     Edge 28, Type (0, 0), BuildingBlock: TEMPAE_clean_linker_10, # of connection points: 2
#     Edge 29, Type (0, 0), BuildingBlock: TEMPAE_clean_linker_10, # of connection points: 2
#     Edge 30, Type (0, 0), BuildingBlock: TEMPAE_clean_linker_10, # of connection points: 2
#     Edge 31, Type (0, 0), BuildingBlock: TEMPAE_clean_linker_10, # of connection points: 2
# Relax obj value: 0.200
# Max RMSD: 0.215
# Mean RMSD: 0.215
data_MOF--net-vby--node1-BETFEN_clean_sbu_0--edge1-TEMPAE_clean_linker_10
_symmetry_space_group_name_H-M    P1
_symmetry_Int_Tables_number       1
_symmetry_cell_setting            triclinic
loop_
_symmetry_equiv_pos_as_xyz
'x, y, z'
_cell_length_a     15.871671
_cell_length_b     104.82744
_cell_length_c     29.855413
_cell_angle_alpha  90.154418
_cell_angle_beta   94.02882
_cell_angle_gamma 89.954153
loop_
_atom_site_label
_atom_site_type_symbol
_atom_site_fract_x
_atom_site_fract_y
_atom_site_fract_z
_atom_type_partial_charge
Pr0 Pr 0.05505 0.3741 0.01836 0.0
Pr1 Pr 0.06208 0.40275 0.02378 0.0
C2 C 0.06653 0.34895 0.99839 0.0
C3 C 0.11237 0.33668 0.00618 0.0
C4 C 0.11508 0.33046 0.04797 0.0
C5 C 0.14949 0.31816 0.05297 0.0
C6 C 0.18199 0.31177 0.01636 0.0
C7 C 0.18125 0.31817 0.97494 0.0
C8 C 0.14669 0.33044 0.96993 0.0
C9 C 0.03553 0.38336 0.10472 0.0
C10 C 0.24443 0.38864 0.0298 0.0
C11 C 0.04509 0.4282 0.03262 0.0
C12 C 1.03454 0.44228 0.03507 0.0
C13 C 1.00734 0.44914 0.99632 0.0
C14 C 1.00115 0.46245 0.99728 0.0
C15 C 1.02149 0.46933 0.03712 0.0
C16 C 0.04809 0.46244 0.0761 0.0
C17 C 0.05471 0.44907 0.07505 0.0
C18 C 0.07544 0.39283 0.93725 0.0
C19 C 0.87794 0.38852 0.0169 0.0
O20 O 0.10141 0.35788 0.97538 0.0
O21 O 1.02235 0.35344 0.03025 0.0
O22 O 0.08936 0.38763 0.0792 0.0
O23 O 0.99369 0.3738 0.0868 0.0
O24 O 0.2062 0.39957 0.03623 0.0
O25 O 0.20183 0.37798 0.02103 0.0
O26 O 0.08387 0.42129 0.06426 0.0
O27 O 1.01363 0.42175 0.99789 0.0
O28 O 1.02314 0.38913 0.96435 0.0
O29 O 0.1235 0.40178 0.95482 0.0
O30 O 0.91579 0.37936 0.99564 0.0
O31 O 0.92266 0.39751 0.03844 0.0
H32 H 0.08898 0.33495 0.07662 0.0
H33 H 0.15005 0.31362 0.08553 0.0
H34 H 0.20469 0.31353 0.94584 0.0
H35 H 0.14449 0.33491 0.93718 0.0
H36 H 0.99223 0.44424 0.96479 0.0
H37 H 0.98216 0.46736 0.96633 0.0
H38 H 0.06345 0.46737 0.10754 0.0
H39 H 0.07596 0.44407 0.10547 0.0
Pr40 Pr 1.00326 0.63077 0.01205 0.0
Pr41 Pr 1.00504 0.66108 0.03195 0.0
C42 C 1.02711 0.60639 0.9859 0.0
C43 C 1.01214 0.5927 0.99463 0.0
C44 C 1.01687 0.58772 0.03843 0.0
C45 C 1.01343 0.57449 0.04545 0.0
C46 C 1.00553 0.56596 0.00882 0.0
C47 C 0.99788 0.57106 0.96512 0.0
C48 C 1.00126 0.58425 0.95817 0.0
C49 C 0.98879 0.6379 0.10167 0.0
C50 C 0.18602 0.64679 0.01958 0.0
C51 C 0.99612 0.68443 0.06998 0.0
C52 C 0.95929 0.69723 0.06087 0.0
C53 C 0.95015 0.70224 0.01718 0.0
C54 C 0.91767 0.71457 0.00964 0.0
C55 C 0.89322 0.72215 0.0456 0.0
C56 C 0.90161 0.71699 0.08921 0.0
C57 C 0.93431 0.7047 0.09671 0.0
C58 C 0.99551 0.65673 0.9384 0.0
C59 C 0.82228 0.6454 0.01441 0.0
O60 O 0.07838 0.61251 0.01467 0.0
O61 O 0.96437 0.61342 0.96904 0.0
O62 O 0.03642 0.64321 0.07514 0.0
O63 O 0.95035 0.62815 0.08269 0.0
O64 O 0.14955 0.6565 0.03895 0.0
O65 O 0.14265 0.63704 0.00174 0.0
O66 O 0.94366 0.67517 0.07768 0.0
O67 O 0.05789 0.68084 0.04587 0.0
O68 O 0.99752 0.64852 0.96899 0.0
O69 O 0.99571 0.66803 0.95627 0.0
O70 O 0.86131 0.63599 0.99474 0.0
O71 O 0.86376 0.65473 0.03624 0.0
H72 H 1.02564 0.59402 0.0672 0.0
H73 H 1.02002 0.57094 0.07954 0.0
H74 H 0.99013 0.56483 0.93612 0.0
H75 H 0.99773 0.58785 0.92409 0.0
H76 H 0.96844 0.69665 0.98888 0.0
H77 H 0.91108 0.71813 0.97556 0.0
H78 H 0.88446 0.72256 0.11779 0.0
H79 H 0.94091 0.70105 0.1307 0.0
Pr80 Pr 0.0611 0.63153 0.53047 0.0
Pr81 Pr 0.04768 0.65964 0.51499 0.0
C82 C 0.0568 0.60662 0.5548 0.0
C83 C 0.03913 0.59323 0.54044 0.0
C84 C 0.08543 0.58721 0.50785 0.0
C85 C 0.07632 0.5741 0.49929 0.0
C86 C 1.02079 0.56664 0.52311 0.0
C87 C 0.97236 0.57281 0.55454 0.0
C88 C 0.98165 0.58591 0.56316 0.0
C89 C 0.06387 0.63826 0.43934 0.0
C90 C 0.87081 0.64484 0.51688 0.0
C91 C 0.05835 0.68444 0.49009 0.0
C92 C 0.104 0.69671 0.49778 0.0
C93 C 0.11395 0.70238 0.54059 0.0
C94 C 0.14879 0.71464 0.54611 0.0
C95 C 0.17464 0.72152 0.509 0.0
C96 C 0.16668 0.71566 0.46642 0.0
C97 C 0.13163 0.70343 0.46091 0.0
C98 C 1.03497 0.65277 0.60487 0.0
C99 C 0.23678 0.64664 0.53278 0.0
O100 O 0.99367 0.61445 0.55924 0.0
O101 O 0.12285 0.61223 0.54012 0.0
O102 O 1.0151 0.64303 0.46641 0.0
O103 O 0.11044 0.62943 0.45855 0.0
O104 O 0.90725 0.65433 0.49675 0.0
O105 O 0.9162 0.63572 0.53735 0.0
O106 O 0.09573 0.67518 0.46975 0.0
O107 O 1.01152 0.68039 0.52136 0.0
O108 O 0.08874 0.64815 0.58004 0.0
O109 O 0.9896 0.66149 0.58429 0.0
O110 O 0.19866 0.63761 0.55417 0.0
O111 O 0.19222 0.65527 0.50947 0.0
H112 H 0.13076 0.59253 0.48988 0.0
H113 H 0.11536 0.56972 0.47519 0.0
H114 H 0.92788 0.56747 0.57301 0.0
H115 H 0.9455 0.59025 0.58863 0.0
H116 H 0.09334 0.69747 0.56974 0.0
H117 H 0.15506 0.71875 0.57949 0.0
H118 H 0.18495 0.72069 0.43699 0.0
H119 H 0.12396 0.69936 0.42749 0.0
Pr120 Pr 0.99438 0.37293 0.52624 0.0
Pr121 Pr 0.98951 0.40343 0.51586 0.0
C122 C 0.98925 0.34899 0.55933 0.0
C123 C 0.95204 0.33618 0.55016 0.0
C124 C 0.94939 0.33059 0.50722 0.0
C125 C 0.91762 0.31819 0.50015 0.0
C126 C 0.88772 0.31109 0.53583 0.0
C127 C 0.88929 0.31686 0.57856 0.0
C128 C 0.92112 0.32922 0.58559 0.0
C129 C 0.98517 0.37903 0.4344 0.0
C130 C 0.80974 0.38832 0.51208 0.0
C131 C 1.00239 0.42877 0.50349 0.0
C132 C 1.01143 0.4428 0.49783 0.0
C133 C 0.06721 0.44977 0.52726 0.0
C134 C 0.07 0.46311 0.52535 0.0
C135 C 1.01687 0.46989 0.49405 0.0
C136 C 0.96246 0.46288 0.46384 0.0
C137 C 0.9599 0.4495 0.46566 0.0
C138 C 0.97407 0.39369 0.60232 0.0
C139 C 0.17432 0.38815 0.51806 0.0
O140 O 0.93839 0.35809 0.57091 0.0
O141 O 0.04732 0.35294 0.5335 0.0
O142 O 0.98617 0.38683 0.46659 0.0
O143 O 0.98536 0.36744 0.44956 0.0
O144 O 0.84841 0.39837 0.4965 0.0
O145 O 0.85154 0.37851 0.53049 0.0
O146 O 0.95665 0.42151 0.47539 0.0
O147 O 0.04316 0.4227 0.53657 0.0
O148 O 1.02449 0.38965 0.57471 0.0
O149 O 0.92998 0.40319 0.58556 0.0
O150 O 0.13837 0.37778 0.53313 0.0
O151 O 0.13086 0.39842 0.5049 0.0
H152 H 0.97276 0.33573 0.47922 0.0
H153 H 0.91824 0.31406 0.46689 0.0
H154 H 0.86556 0.31183 0.6067 0.0
H155 H 0.92227 0.33333 0.61898 0.0
H156 H 0.1075 0.44494 0.55264 0.0
H157 H 0.11198 0.46814 0.54952 0.0
H158 H 0.92136 0.46775 0.43892 0.0
H159 H 0.91601 0.44443 0.4426 0.0
Pr160 Pr 0.56232 0.87368 0.01274 0.0
Pr161 Pr 0.5642 0.90411 0.03374 0.0
C162 C 0.56971 0.85046 0.97388 0.0
C163 C 0.60743 0.83768 0.98209 0.0
C164 C 0.62816 0.83322 0.02582 0.0
C165 C 0.66055 0.82086 0.03284 0.0
C166 C 0.673 0.81269 0.99627 0.0
C167 C 0.65326 0.81733 0.95253 0.0
C168 C 0.62085 0.82966 0.94558 0.0
C169 C 0.56633 0.87795 0.10628 0.0
C170 C 0.74685 0.88936 0.03233 0.0
C171 C 0.53828 0.9283 0.06101 0.0
C172 C 0.55785 0.94202 0.05612 0.0
C173 C 0.57319 0.94738 0.01437 0.0
C174 C 0.58177 0.96065 0.00993 0.0
C175 C 0.57465 0.96881 0.04707 0.0
C176 C 0.56198 0.96331 0.08904 0.0
C177 C 0.55373 0.95009 0.09345 0.0
C178 C 0.57886 0.89701 0.94386 0.0
C179 C 0.38293 0.88803 0.02463 0.0
O180 O 0.62115 0.85979 0.96536 0.0
O181 O 0.50978 0.8539 0.99948 0.0
O182 O 0.56723 0.88614 0.07568 0.0
O183 O 0.56463 0.86665 0.0883 0.0
O184 O 0.70779 0.89957 0.04694 0.0
O185 O 0.70615 0.87929 0.01475 0.0
O186 O 0.59557 0.92083 0.08097 0.0
O187 O 0.49345 0.92276 0.02796 0.0
O188 O 0.53147 0.89173 0.97054 0.0
O189 O 0.61672 0.90682 0.9628 0.0
O190 O 0.41939 0.87912 1.00126 0.0
O191 O 0.42709 0.89706 0.04658 0.0
H192 H 0.61839 0.83923 0.05456 0.0
H193 H 0.67414 0.81762 0.06699 0.0
H194 H 0.66325 0.81144 0.92351 0.0
H195 H 0.60563 0.83292 0.91156 0.0
H196 H 0.57631 0.94136 0.98499 0.0
H197 H 0.59094 0.96454 0.97706 0.0
H198 H 0.55753 0.96926 0.1185 0.0
H199 H 0.54179 0.94617 0.12596 0.0
Pr200 Pr 0.50378 0.12992 0.01174 0.0
Pr201 Pr 0.51803 0.15786 0.02611 0.0
C202 C 0.5052 0.10504 0.98681 0.0
C203 C 0.53261 0.0917 0.99538 0.0
C204 C 0.53623 0.08636 0.03862 0.0
C205 C 0.55038 0.07323 0.04469 0.0
C206 C 0.5605 0.06516 0.00761 0.0
C207 C 0.55995 0.07067 0.96464 0.0
C208 C 0.54621 0.08377 0.95865 0.0
C209 C 0.50084 0.13707 0.10268 0.0
C210 C 0.69539 0.14294 0.02655 0.0
C211 C 0.50847 0.18281 0.04982 0.0
C212 C 0.4611 0.19502 0.04497 0.0
C213 C 0.4455 0.20097 0.003 0.0
C214 C 0.41029 0.21325 1.0 0.0
C215 C 0.39001 0.21991 0.03888 0.0
C216 C 0.40329 0.21375 0.08064 0.0
C217 C 0.43852 0.20149 0.08361 0.0
C218 C 0.52985 0.15057 0.93626 0.0
C219 C 0.32855 0.14503 0.00924 0.0
O220 O 0.55905 0.11337 0.97316 0.0
O221 O 0.45076 0.10996 0.01276 0.0
O222 O 0.55102 0.1415 0.07571 0.0
O223 O 0.45156 0.12858 0.08323 0.0
O224 O 0.65877 0.15285 0.04418 0.0
O225 O 0.65035 0.13344 0.00815 0.0
O226 O 0.47775 0.17359 0.07319 0.0
O227 O 0.5477 0.17868 0.01561 0.0
O228 O 0.47555 0.14624 0.96131 0.0
O229 O 0.57743 0.15904 0.95694 0.0
O230 O 0.36642 0.13593 0.9879 0.0
O231 O 0.37345 0.15369 0.03229 0.0
H232 H 0.52545 0.09226 0.06752 0.0
H233 H 0.54991 0.06932 0.07821 0.0
H234 H 0.56882 0.0648 0.93542 0.0
H235 H 0.54334 0.08764 0.92497 0.0
H236 H 0.46261 0.1963 0.97254 0.0
H237 H 0.40177 0.2177 0.9673 0.0
H238 H 0.38721 0.21845 0.11124 0.0
H239 H 0.45021 0.19717 0.11641 0.0
Pr240 Pr 0.572 0.12729 0.53373 0.0
Pr241 Pr 0.56995 0.15887 0.50906 0.0
C242 C 0.5669 0.10432 0.57418 0.0
C243 C 0.57791 0.0905 0.56617 0.0
C244 C 0.5709 0.08532 0.52264 0.0
C245 C 0.57538 0.07207 0.51614 0.0
C246 C 0.58702 0.06373 0.55304 0.0
C247 C 0.59557 0.06905 0.59651 0.0
C248 C 0.59102 0.08227 0.60293 0.0
C249 C 0.56325 0.1319 0.4402 0.0
C250 C 0.39203 0.14352 0.51981 0.0
C251 C 0.57607 0.18184 0.46884 0.0
C252 C 0.61039 0.19487 0.47725 0.0
C253 C 0.60239 0.20123 0.51829 0.0
C254 C 0.63307 0.21369 0.52486 0.0
C255 C 0.67292 0.22009 0.49067 0.0
C256 C 0.68159 0.21362 0.44984 0.0
C257 C 0.65055 0.20118 0.44323 0.0
C258 C 0.56985 0.15425 0.60235 0.0
C259 C 0.75481 0.14307 0.52681 0.0
O260 O 0.50098 0.10976 0.5533 0.0
O261 O 0.63463 0.11153 0.57646 0.0
O262 O 0.5647 0.13989 0.47167 0.0
O263 O 0.56692 0.1205 0.4574 0.0
O264 O 0.42929 0.15213 0.4954 0.0
O265 O 0.43514 0.13482 0.54413 0.0
O266 O 0.6306 0.17271 0.46254 0.0
O267 O 0.51328 0.17821 0.49215 0.0
O268 O 0.57347 0.14626 0.57108 0.0
O269 O 0.56852 0.16565 0.58509 0.0
O270 O 0.71643 0.13242 0.5382 0.0
O271 O 0.71427 0.15366 0.51381 0.0
H272 H 0.56082 0.0915 0.49373 0.0
H273 H 0.56969 0.06837 0.48217 0.0
H274 H 0.60344 0.06297 0.62577 0.0
H275 H 0.59605 0.08606 0.63682 0.0
H276 H 0.57222 0.19658 0.54529 0.0
H277 H 0.62625 0.21829 0.55693 0.0
H278 H 0.711 0.21826 0.42258 0.0
H279 H 0.65731 0.19652 0.41125 0.0
Pr280 Pr 0.51657 0.87476 0.53038 0.0
Pr281 Pr 0.50331 0.90284 0.51445 0.0
C282 C 0.50636 0.84999 0.55571 0.0
C283 C 0.45969 0.83776 0.54983 0.0
C284 C 0.43842 0.83252 0.5071 0.0
C285 C 0.4032 0.82026 0.50268 0.0
C286 C 0.38861 0.81292 0.54087 0.0
C287 C 0.40766 0.81839 0.58354 0.0
C288 C 0.44282 0.83063 0.58791 0.0
C289 C 0.52712 0.8815 0.44014 0.0
C290 C 0.32762 0.88777 0.51326 0.0
C291 C 0.50588 0.92758 0.48821 0.0
C292 C 0.53284 0.94086 0.49827 0.0
C293 C 0.53622 0.94585 0.5421 0.0
C294 C 0.55104 0.95891 0.54976 0.0
C295 C 0.56253 0.96727 0.51377 0.0
C296 C 0.56163 0.9621 0.47013 0.0
C297 C 0.54699 0.94907 0.46255 0.0
C298 C 0.50196 0.89619 0.60569 0.0
C299 C 0.69413 0.88959 0.5291 0.0
O300 O 0.47219 0.85933 0.57723 0.0
O301 O 0.54933 0.85391 0.52269 0.0
O302 O 0.4741 0.88616 0.46533 0.0
O303 O 0.57345 0.87288 0.46073 0.0
O304 O 0.36551 0.89676 0.49152 0.0
O305 O 0.37234 0.87917 0.53657 0.0
O306 O 0.5618 0.91922 0.4768 0.0
O307 O 0.44828 0.9227 0.51221 0.0
O308 O 0.55062 0.89143 0.57849 0.0
O309 O 0.45456 0.90493 0.58645 0.0
O310 O 0.6575 0.87988 0.5478 0.0
O311 O 0.64918 0.89898 0.50994 0.0
H312 H 0.45095 0.83776 0.47706 0.0
H313 H 0.39006 0.81637 0.46929 0.0
H314 H 0.39602 0.81316 0.61372 0.0
H315 H 0.45882 0.83441 0.62123 0.0
H316 H 0.52538 0.93972 0.57027 0.0
H317 H 0.55258 0.96247 0.58389 0.0
H318 H 0.56902 0.9682 0.44146 0.0
H319 H 0.54377 0.94548 0.42841 0.0
C320 C 0.38091 0.39932 0.01684 0.0
C321 C 0.33764 0.38845 0.03007 0.0
C322 C 0.46889 0.39918 0.01442 0.0
C323 C 0.51507 0.38802 0.02677 0.0
C324 C 0.47187 0.3771 0.04111 0.0
C325 C 0.38341 0.37738 0.0419 0.0
C326 C 0.51223 0.4109 0.99787 0.0
C327 C 0.51911 0.36515 0.05578 0.0
C328 C 0.733 0.3835 0.98341 0.0
C329 C 0.78538 0.38829 0.01924 0.0
C330 C 0.64477 0.3834 0.9853 0.0
C331 C 0.60856 0.38781 0.02456 0.0
C332 C 0.66162 0.39235 0.06128 0.0
C333 C 0.74933 0.39273 0.05787 0.0
C334 C 0.59028 0.37881 0.94498 0.0
C335 C 0.62583 0.39678 0.10423 0.0
H336 H 0.34561 0.40785 0.00712 0.0
H337 H 0.35012 0.36899 0.05231 0.0
H338 H 0.55882 0.41454 0.02427 0.0
H339 H 0.54753 0.40844 0.96823 0.0
H340 H 0.46691 0.41868 0.98836 0.0
H341 H 0.47654 0.35766 0.06768 0.0
H342 H 0.55276 0.36121 0.02749 0.0
H343 H 0.56756 0.36743 0.08324 0.0
H344 H 0.76095 0.3801 0.95348 0.0
H345 H 0.78997 0.39628 0.08587 0.0
H346 H 0.54634 0.38651 0.93298 0.0
H347 H 0.55116 0.37062 0.95441 0.0
H348 H 0.62823 0.37584 0.91686 0.0
H349 H 0.58574 0.40533 0.09758 0.0
H350 H 0.67603 0.39919 0.1307 0.0
H351 H 0.58501 0.38924 0.11721 0.0
C352 C 0.32366 0.63519 0.02517 0.0
C353 C 0.27899 0.64663 0.0181 0.0
C354 C 0.41207 0.63481 0.02444 0.0
C355 C 0.45666 0.64606 0.01464 0.0
C356 C 0.41141 0.65759 0.00643 0.0
C357 C 0.32324 0.65779 0.00915 0.0
C358 C 0.45789 0.62244 0.03506 0.0
C359 C 0.45605 0.66969 0.99443 0.0
C360 C 0.68981 0.64908 0.05271 0.0
C361 C 0.72901 0.64534 0.01414 0.0
C362 C 0.60143 0.64913 0.05354 0.0
C363 C 0.55076 0.64582 0.01427 0.0
C364 C 0.59017 0.64221 0.97495 0.0
C365 C 0.67895 0.64178 0.97563 0.0
C366 C 0.56234 0.65259 0.09664 0.0
C367 C 0.53857 0.63902 0.932 0.0
H368 H 0.28948 0.62657 0.0324 0.0
H369 H 0.28859 0.66661 0.00322 0.0
H370 H 0.49345 0.61942 0.00617 0.0
H371 H 0.50456 0.62382 0.06413 0.0
H372 H 0.41414 0.61463 0.04305 0.0
H373 H 0.41126 0.67763 0.98627 0.0
H374 H 0.50051 0.6727 0.02279 0.0
H375 H 0.4939 0.66796 0.96512 0.0
H376 H 0.72852 0.65172 0.08267 0.0
H377 H 0.70926 0.63899 0.94568 0.0
H378 H 0.52015 0.64479 0.10642 0.0
H379 H 0.52298 0.66128 0.09166 0.0
H380 H 0.61061 0.65435 0.12474 0.0
H381 H 0.49792 0.63062 0.93718 0.0
H382 H 0.57876 0.63689 0.9039 0.0
H383 H 0.49615 0.64711 0.92216 0.0
C384 C 0.73107 0.63369 0.51341 0.0
C385 C 0.77811 0.64494 0.51921 0.0
C386 C 0.64275 0.63379 0.51559 0.0
C387 C 0.6012 0.64532 0.52578 0.0
C388 C 0.64916 0.65664 0.53287 0.0
C389 C 0.73675 0.65635 0.52859 0.0
C390 C 0.59376 0.62163 0.50618 0.0
C391 C 0.60809 0.66902 0.54542 0.0
C392 C 0.36718 0.64987 0.49232 0.0
C393 C 0.32988 0.64656 0.53185 0.0
C394 C 0.4551 0.64923 0.48963 0.0
C395 C 0.50742 0.64565 0.52795 0.0
C396 C 0.47004 0.64256 0.56831 0.0
C397 C 0.38152 0.6428 0.5695 0.0
C398 C 0.49187 0.65219 0.44553 0.0
C399 C 0.52359 0.63915 0.61037 0.0
H400 H 0.76317 0.62487 0.5061 0.0
H401 H 0.77342 0.66502 0.53378 0.0
H402 H 0.55978 0.61891 0.53592 0.0
H403 H 0.54546 0.62314 0.47797 0.0
H404 H 0.63515 0.61357 0.49749 0.0
H405 H 0.65497 0.67675 0.55257 0.0
H406 H 0.56258 0.67216 0.51777 0.0
H407 H 0.57197 0.66761 0.57553 0.0
H408 H 0.32723 0.65261 0.46296 0.0
H409 H 0.3527 0.64027 0.60012 0.0
H410 H 0.53083 0.64404 0.43514 0.0
H411 H 0.534 0.66061 0.44939 0.0
H412 H 0.44227 0.65417 0.41829 0.0
H413 H 0.56071 0.63041 0.60463 0.0
H414 H 0.48504 0.63751 0.63947 0.0
H415 H 0.56936 0.64693 0.61903 0.0
C416 C 0.66722 0.39377 0.47574 0.0
C417 C 0.71649 0.38831 0.51148 0.0
C418 C 0.57848 0.39367 0.47502 0.0
C419 C 0.53838 0.38843 0.51173 0.0
C420 C 0.58821 0.38311 0.54827 0.0
C421 C 0.67654 0.38292 0.5473 0.0
C422 C 0.52763 0.39905 0.43479 0.0
C423 C 0.54833 0.3778 0.58872 0.0
C424 C 0.31372 0.39912 0.52956 0.0
C425 C 0.26698 0.38829 0.51584 0.0
C426 C 0.40218 0.39926 0.52878 0.0
C427 C 0.4444 0.3885 0.51215 0.0
C428 C 0.3969 0.37768 0.49706 0.0
C429 C 0.30888 0.37761 0.49996 0.0
C430 C 0.45057 0.4108 0.54671 0.0
C431 C 0.439 0.3662 0.47766 0.0
H432 H 0.69809 0.39787 0.44789 0.0
H433 H 0.71462 0.37882 0.57524 0.0
H434 H 0.48304 0.39173 0.42037 0.0
H435 H 0.4893 0.40726 0.44513 0.0
H436 H 0.56824 0.40228 0.40819 0.0
H437 H 0.59613 0.3745 0.61513 0.0
H438 H 0.50827 0.38519 0.60336 0.0
H439 H 0.50667 0.36965 0.57856 0.0
H440 H 0.28122 0.40735 0.54212 0.0
H441 H 0.27248 0.36929 0.48891 0.0
H442 H 0.4871 0.415 0.52007 0.0
H443 H 0.49663 0.40791 0.57455 0.0
H444 H 0.40844 0.41827 0.55929 0.0
H445 H 0.47746 0.36919 0.44987 0.0
H446 H 0.39256 0.35892 0.46468 0.0
H447 H 0.48254 0.3617 0.5037 0.0
C448 C 0.88483 0.9004 0.02468 0.0
C449 C 0.84033 0.88928 0.03398 0.0
C450 C 0.9732 0.90022 0.02296 0.0
C451 C 1.0184 0.88875 0.03232 0.0
C452 C 0.97373 0.87759 0.04305 0.0
C453 C 0.88514 0.87794 0.04291 0.0
C454 C 1.01794 0.91222 0.01003 0.0
C455 C 1.01951 0.86528 0.05473 0.0
C456 C 0.23725 0.88417 0.98944 0.0
C457 C 0.28997 0.88795 0.02674 0.0
C458 C 0.14879 0.88456 0.99056 0.0
C459 C 0.11226 0.88839 0.03048 0.0
C460 C 0.16552 0.89191 0.06859 0.0
C461 C 0.25364 0.89186 0.06598 0.0
C462 C 0.09443 0.8811 0.94878 0.0
C463 C 0.12948 0.89563 0.11224 0.0
H464 H 0.85019 0.90914 0.01722 0.0
H465 H 0.85084 0.86934 0.05033 0.0
H466 H 0.06482 0.91514 0.03742 0.0
H467 H 0.05312 0.91039 0.97981 0.0
H468 H 0.97351 0.92027 0.0028 0.0
H469 H 0.97603 0.85767 0.0648 0.0
H470 H 0.05257 0.86184 0.0255 0.0
H471 H 0.06828 0.86692 0.08265 0.0
H472 H 0.26521 0.88124 0.95894 0.0
H473 H 0.29433 0.89468 0.09501 0.0
H474 H 0.05166 0.88916 0.93899 0.0
H475 H 0.0541 0.87278 0.95547 0.0
H476 H 0.13255 0.87874 0.92005 0.0
H477 H 0.09004 0.90432 0.10738 0.0
H478 H 0.17951 0.89752 0.13936 0.0
H479 H 0.08791 0.88792 0.12336 0.0
C480 C 0.19861 0.14863 0.04981 0.0
C481 C 0.23558 0.14493 0.01052 0.0
C482 C 0.11086 0.14788 0.05295 0.0
C483 C 0.05844 0.14377 0.01531 0.0
C484 C 0.09545 0.14027 0.97519 0.0
C485 C 0.18382 0.14066 0.97358 0.0
C486 C 0.0744 0.15132 0.09678 0.0
C487 C 0.04168 0.13628 0.93383 0.0
C488 C 0.83567 0.13187 0.03184 0.0
C489 C 0.78807 0.14301 0.02437 0.0
C490 C 0.92398 0.132 0.02963 0.0
C491 C 0.96483 0.14341 0.01778 0.0
C492 C 0.91632 0.15459 0.00909 0.0
C493 C 0.82881 0.15431 0.01335 0.0
C494 C 0.97367 0.11999 0.04067 0.0
C495 C 0.9567 0.16683 0.9948 0.0
H496 H 0.23868 0.15175 0.07867 0.0
H497 H 0.2124 0.13782 0.94316 0.0
H498 H 1.03163 0.15965 0.09197 0.0
H499 H 0.03617 0.14327 0.10835 0.0
H500 H 0.12413 0.15367 0.12358 0.0
H501 H 0.07998 0.13427 0.90486 0.0
H502 H 1.00515 0.12759 0.94097 0.0
H503 H 0.99538 0.1439 0.92418 0.0
H504 H 0.80403 0.12313 0.04041 0.0
H505 H 0.79171 0.16288 0.00686 0.0
H506 H 1.02202 0.12189 0.06858 0.0
H507 H 1.00765 0.11692 0.01128 0.0
H508 H 0.93277 0.11203 0.05056 0.0
H509 H 1.00234 0.17032 0.0219 0.0
H510 H 0.90943 0.17446 0.98678 0.0
H511 H 0.99255 0.16508 0.96478 0.0
C512 C 0.24706 0.14764 0.48359 0.0
C513 C 0.29874 0.14371 0.52104 0.0
C514 C 0.15843 0.14745 0.48419 0.0
C515 C 0.12062 0.14363 0.52367 0.0
C516 C 0.1728 0.13993 0.56189 0.0
C517 C 0.26103 0.13983 0.55987 0.0
C518 C 0.10521 0.15114 0.44233 0.0
C519 C 0.13545 0.13616 0.60507 0.0
C520 C 0.89401 0.15436 0.53699 0.0
C521 C 0.84841 0.14311 0.52741 0.0
C522 C 0.98259 0.15462 0.53664 0.0
C523 C 1.02658 0.14345 0.52501 0.0
C524 C 0.98065 0.13209 0.51488 0.0
C525 C 0.89232 0.132 0.51689 0.0
C526 C 1.02914 0.16682 0.54901 0.0
C527 C 1.02466 0.12007 0.50116 0.0
H528 H 0.27592 0.15056 0.45341 0.0
H529 H 0.30074 0.13691 0.58909 0.0
H530 H 0.06215 0.14319 0.43174 0.0
H531 H 0.06518 0.15949 0.44932 0.0
H532 H 0.14417 0.15355 0.41404 0.0
H533 H 0.18475 0.13406 0.63234 0.0
H534 H 0.09445 0.14394 0.61643 0.0
H535 H 0.09519 0.12759 0.59944 0.0
H536 H 0.8604 0.16295 0.54539 0.0
H537 H 0.85731 0.12332 0.50894 0.0
H538 H 0.06351 0.1702 0.52021 0.0
H539 H 0.0769 0.16506 0.57728 0.0
H540 H 0.98601 0.17453 0.55889 0.0
H541 H 0.06067 0.12198 0.47134 0.0
H542 H 0.97968 0.11214 0.49302 0.0
H543 H 0.07073 0.11692 0.52857 0.0
C544 C 0.83396 0.90072 0.53388 0.0
C545 C 0.78681 0.88952 0.52705 0.0
C546 C 0.92227 0.90062 0.5318 0.0
C547 C 0.96363 0.88916 0.52073 0.0
C548 C 0.9156 0.8779 0.51268 0.0
C549 C 0.82802 0.87816 0.51682 0.0
C550 C 0.97142 0.91272 0.54218 0.0
C551 C 0.95656 0.86559 0.49921 0.0
C552 C 0.18298 0.89186 0.477 0.0
C553 C 0.23462 0.88786 0.51433 0.0
C554 C 0.09453 0.89214 0.47831 0.0
C555 C 0.05729 0.88883 0.5185 0.0
C556 C 0.10959 0.88502 0.55652 0.0
C557 C 0.19744 0.88436 0.55369 0.0
C558 C 0.04093 0.89582 0.43657 0.0
C559 C 0.07286 0.88181 0.60042 0.0
H560 H 0.80193 0.9095 0.54184 0.0
H561 H 0.79125 0.86953 0.51084 0.0
H562 H 1.01969 0.91103 0.57026 0.0
H563 H 1.00544 0.91563 0.51267 0.0
H564 H 0.93013 0.92072 0.55151 0.0
H565 H 0.90963 0.85789 0.49156 0.0
H566 H 0.99257 0.86717 0.46916 0.0
H567 H 1.00216 0.86229 0.52659 0.0
H568 H 0.21172 0.89454 0.44651 0.0
H569 H 0.23742 0.88144 0.58282 0.0
H570 H 1.00387 0.90452 0.44305 0.0
H571 H 0.9951 0.8881 0.4273 0.0
H572 H 0.07942 0.89766 0.40759 0.0
H573 H 1.03414 0.8899 0.61144 0.0
H574 H 0.12247 0.87965 0.62746 0.0
H575 H 1.03051 0.87343 0.59595 0.0
C576 C 0.05308 0.54396 0.98773 0.0
C577 C 1.00808 0.55182 0.01586 0.0
C578 C 0.05565 0.53064 0.99333 0.0
C579 C 1.01232 0.52494 0.02802 0.0
C580 C 0.96773 0.53281 0.05697 0.0
C581 C 0.96616 0.54613 0.05057 0.0
C582 C 0.1043 0.52265 0.9618 0.0
C583 C 0.92078 0.52714 0.0944 0.0
C584 C 0.95149 0.48995 0.01173 0.0
C585 C 1.01637 0.48362 0.03734 0.0
C586 C 0.9487 0.50334 0.00908 0.0
C587 C 1.01181 0.51071 0.03295 0.0
C588 C 0.07611 0.50444 0.05993 0.0
C589 C 0.07779 0.491 0.06169 0.0
C590 C 0.87901 0.50961 0.97989 0.0
C591 C 0.14441 0.51191 0.08611 0.0
H592 H 0.08718 0.54824 0.9614 0.0
H593 H 0.9307 0.55207 0.07231 0.0
H594 H 0.153 0.51693 0.98117 0.0
H595 H 0.061 0.51586 0.94326 0.0
H596 H 0.13587 0.52855 0.93704 0.0
H597 H 0.89174 0.53456 0.11503 0.0
H598 H 0.87021 0.52071 0.08016 0.0
H599 H 0.96432 0.52129 0.11661 0.0
H600 H 0.90264 0.48442 0.99348 0.0
H601 H 0.12878 0.48628 0.0812 0.0
H602 H 0.90655 0.51502 0.95257 0.0
H603 H 0.84436 0.51653 0.99992 0.0
H604 H 0.8332 0.50257 0.96456 0.0
H605 H 0.1831 0.51711 0.06258 0.0
H606 H 0.18677 0.50568 0.10771 0.0
H607 H 0.11585 0.51914 0.10761 0.0
C608 C 0.93998 0.49098 0.48926 0.0
C609 C 1.01639 0.48419 0.49424 0.0
C610 C 0.93827 0.5044 0.49206 0.0
C611 C 1.01478 0.51127 0.49998 0.0
C612 C 0.09222 0.50449 0.50412 0.0
C613 C 0.09208 0.49108 0.50122 0.0
C614 C 0.85427 0.51121 0.48759 0.0
C615 C 0.17533 0.5114 0.5123 0.0
C616 C 1.02065 0.54694 0.47393 0.0
C617 C 1.01625 0.55246 0.51668 0.0
C618 C 1.01958 0.5336 0.46791 0.0
C619 C 1.01377 0.52549 0.50548 0.0
C620 C 1.00839 0.53098 0.54861 0.0
C621 C 1.00989 0.54434 0.55368 0.0
C622 C 1.02527 0.52818 0.42134 0.0
C623 C 1.00223 0.52273 0.58963 0.0
H624 H 0.88102 0.48579 0.48445 0.0
H625 H 0.15158 0.48597 0.50448 0.0
H626 H 0.84337 0.51623 0.51943 0.0
H627 H 0.85451 0.51855 0.46087 0.0
H628 H 0.8008 0.50457 0.47951 0.0
H629 H 0.23021 0.50479 0.51331 0.0
H630 H 0.18262 0.51855 0.48552 0.0
H631 H 0.17648 0.51664 0.54466 0.0
H632 H 1.02452 0.55307 0.44498 0.0
H633 H 1.00794 0.54841 0.58698 0.0
H634 H 0.96963 0.52206 0.41233 0.0
H635 H 0.0822 0.52206 0.42046 0.0
H636 H 1.02849 0.53574 0.39552 0.0
H637 H 0.94691 0.51628 0.58488 0.0
H638 H 0.99612 0.52845 0.62061 0.0
H639 H 0.05928 0.51663 0.5945 0.0
C640 C 0.63537 0.98888 0.01544 0.0
C641 C 0.57685 0.98301 0.04192 0.0
C642 C 0.63679 1.00223 0.01003 0.0
C643 C 0.57788 1.00995 0.03128 0.0
C644 C 0.51887 1.00408 0.05813 0.0
C645 C 0.51918 0.99074 0.06316 0.0
C646 C 0.70113 1.00808 0.98136 0.0
C647 C 0.45437 1.01189 0.08105 0.0
C648 C 0.61779 0.04564 0.04887 0.0
C649 C 0.56736 0.051 0.01323 0.0
C650 C 0.62302 0.03232 0.05474 0.0
C651 C 0.57611 0.02411 0.02451 0.0
C652 C 0.52537 0.02947 0.9884 0.0
C653 C 0.52179 0.0428 0.98317 0.0
C654 C 0.67837 0.02702 0.09347 0.0
C655 C 0.4736 0.02113 0.95563 0.0
H656 H 0.68071 0.98303 0.99924 0.0
H657 H 0.4728 0.98632 0.0831 0.0
H658 H 0.66854 1.01318 0.95258 0.0
H659 H 0.73957 1.01523 1.00118 0.0
H660 H 0.74413 1.00083 0.96814 0.0
H661 H 0.41388 1.00592 0.10149 0.0
H662 H 0.48653 0.01916 0.10324 0.0
H663 H 0.41327 0.01706 0.05556 0.0
H664 H 0.65383 0.05187 0.07204 0.0
H665 H 0.48156 0.04682 0.95594 0.0
H666 H 0.72504 0.02025 0.08083 0.0
H667 H 0.6393 0.0216 0.11625 0.0
H668 H 0.71287 0.03462 0.11318 0.0
H669 H 0.51511 1.01419 0.9397 0.0
H670 H 0.43875 0.02675 0.92881 0.0
H671 H 0.42732 1.01556 0.97373 0.0
C672 C 0.53136 0.04367 0.51452 0.0
C673 C 0.58793 0.04955 0.5465 0.0
C674 C 0.52933 0.03032 0.50914 0.0
C675 C 0.58512 0.02256 0.53639 0.0
C676 C 0.64299 0.02842 0.56839 0.0
C677 C 0.64374 0.04179 0.57302 0.0
C678 C 0.46655 0.0245 0.47463 0.0
C679 C 0.70378 0.02054 0.59804 0.0
C680 C 0.52304 0.98773 0.55189 0.0
C681 C 0.57166 0.98137 0.52119 0.0
C682 C 0.52764 1.00106 0.55756 0.0
C683 C 0.58195 1.00832 0.53184 0.0
C684 C 0.63204 1.00196 0.50124 0.0
C685 C 0.62643 0.98862 0.49636 0.0
C686 C 0.47316 1.00741 0.59061 0.0
C687 C 0.69094 1.00929 0.47321 0.0
H688 H 0.4871 0.0495 0.49426 0.0
H689 H 0.68856 0.0462 0.59739 0.0
H690 H 0.49996 0.01854 0.45075 0.0
H691 H 0.42265 0.01816 0.49143 0.0
H692 H 0.42888 0.03184 0.45533 0.0
H693 H 0.74565 0.02653 0.62084 0.0
H694 H 0.66817 1.01393 0.61868 0.0
H695 H 0.74365 1.01461 0.5771 0.0
H696 H 0.47952 0.98232 0.5708 0.0
H697 H 0.66525 0.98384 0.47301 0.0
H698 H 0.42855 1.01412 0.57267 0.0
H699 H 0.51304 1.01308 0.61533 0.0
H700 H 0.43624 1.00041 0.60908 0.0
H701 H 0.65435 1.01621 0.45151 0.0
H702 H 0.72679 1.00295 0.45154 0.0
H703 H 0.73653 1.01486 0.49529 0.0
C704 C 0.28598 0.29442 0.99984 0.0
C705 C 0.21372 0.29833 0.02081 0.0
C706 C 0.31494 0.28172 0.00272 0.0
C707 C 0.27068 0.27263 0.0271 0.0
C708 C 0.19797 0.27651 0.04852 0.0
C709 C 0.17048 0.28927 0.04515 0.0
C710 C 0.39298 0.27803 0.97958 0.0
C711 C 0.14868 0.26715 0.07475 0.0
C712 C 0.30015 0.23724 1.00102 0.0
C713 C 0.35808 0.23337 0.03612 0.0
C714 C 0.27112 0.24994 0.99773 0.0
C715 C 0.30053 0.25906 0.03029 0.0
C716 C 0.35873 0.25522 0.06586 0.0
C717 C 0.38676 0.24248 0.06831 0.0
C718 C 0.20889 0.25359 0.95933 0.0
C719 C 0.39198 0.26461 0.10124 0.0
H720 H 0.32053 0.30134 0.98141 0.0
H721 H 0.11388 0.2921 0.0609 0.0
H722 H 0.44165 0.2742 0.00447 0.0
H723 H 0.37752 0.27036 0.9547 0.0
H724 H 0.42038 0.28622 0.96202 0.0
H725 H 0.09392 0.27168 0.08975 0.0
H726 H 0.1252 0.25924 0.05248 0.0
H727 H 0.19041 0.26288 0.10208 0.0
H728 H 0.27671 0.2303 0.97624 0.0
H729 H 0.43255 0.23971 0.09515 0.0
H730 H 0.23583 0.26126 0.9392 0.0
H731 H 0.15033 0.2574 0.97258 0.0
H732 H 0.19197 0.24539 0.93681 0.0
H733 H 0.42528 0.27251 0.08529 0.0
H734 H 0.43624 0.26011 0.12702 0.0
H735 H 0.33875 0.26889 0.11824 0.0
C736 C 0.76934 0.7967 0.03723 0.0
C737 C 0.7054 0.79936 0.00359 0.0
C738 C 0.80022 0.78421 0.04434 0.0
C739 C 0.76661 0.77405 0.01719 0.0
C740 C 0.70206 0.77666 0.98323 0.0
C741 C 0.67228 0.78923 0.9769 0.0
C742 C 0.86916 0.78188 0.08086 0.0
C743 C 0.66413 0.76615 0.9536 0.0
C744 C 0.897 0.74362 0.00774 0.0
C745 C 0.86002 0.7354 0.03786 0.0
C746 C 0.8674 0.75618 1.00074 0.0
C747 C 0.79884 0.76071 0.02431 0.0
C748 C 0.76096 0.75245 0.05459 0.0
C749 C 0.79194 0.73995 0.06101 0.0
C750 C 0.90989 0.76464 0.96827 0.0
C751 C 0.68748 0.75683 0.08023 0.0
H752 H 0.79627 0.80443 0.05771 0.0
H753 H 0.62199 0.79109 0.9513 0.0
H754 H 0.84746 0.77486 0.10531 0.0
H755 H 0.92538 0.77774 0.06616 0.0
H756 H 0.88843 0.79076 0.09921 0.0
H757 H 0.61474 0.76974 0.92855 0.0
H758 H 0.71422 0.76141 0.93548 0.0
H759 H 0.63569 0.75879 0.97448 0.0
H760 H 0.95029 0.7403 0.99011 0.0
H761 H 0.76207 0.73366 0.08389 0.0
H762 H 0.93565 0.77326 0.98597 0.0
H763 H 0.86308 0.76792 0.94141 0.0
H764 H 0.96218 0.7597 0.95243 0.0
H765 H 0.70599 0.76531 0.10097 0.0
H766 H 0.66503 0.74928 0.10256 0.0
H767 H 0.63416 0.75975 0.05643 0.0
C768 C 0.16887 0.74361 0.54245 0.0
C769 C 0.20723 0.7349 0.51437 0.0
C770 C 0.19731 0.75631 0.54698 0.0
C771 C 0.26607 0.76047 0.52296 0.0
C772 C 0.30537 0.75172 0.49473 0.0
C773 C 0.27551 0.73908 0.49074 0.0
C774 C 0.15329 0.7653 0.57731 0.0
C775 C 0.37915 0.7557 0.46872 0.0
C776 C 0.29343 0.7962 0.50291 0.0
C777 C 0.35634 0.79951 0.53637 0.0
C778 C 0.26349 0.78358 0.49818 0.0
C779 C 0.29715 0.77395 0.52755 0.0
C780 C 0.3606 0.77722 0.56138 0.0
C781 C 0.38934 0.7899 0.56535 0.0
C782 C 0.19561 0.78054 0.46176 0.0
C783 C 0.39857 0.76729 0.59332 0.0
H784 H 0.11531 0.74058 0.56033 0.0
H785 H 0.30632 0.73243 0.46937 0.0
H786 H 0.19921 0.76911 0.60371 0.0
H787 H 0.12726 0.77355 0.55767 0.0
H788 H 0.10097 0.76059 0.59379 0.0
H789 H 0.40279 0.74778 0.44821 0.0
H790 H 0.36041 0.76375 0.44612 0.0
H791 H 0.43168 0.75911 0.49218 0.0
H792 H 0.26671 0.80352 0.48064 0.0
H793 H 0.43893 0.79225 0.59083 0.0
H794 H 0.13933 0.77659 0.47685 0.0
H795 H 0.21853 0.77315 0.4389 0.0
H796 H 0.17601 0.78907 0.4416 0.0
H797 H 0.34832 0.76282 0.61198 0.0
H798 H 0.44705 0.77136 0.61794 0.0
H799 H 0.42818 0.7596 0.57419 0.0
C800 C 0.87508 0.28829 0.56142 0.0
C801 C 0.85612 0.29771 0.52882 0.0
C802 C 0.84568 0.27568 0.55553 0.0
C803 C 0.79606 0.2723 0.51599 0.0
C804 C 0.77686 0.28172 0.48286 0.0
C805 C 0.807 0.29427 0.48965 0.0
C806 C 0.868 0.26596 0.59167 0.0
C807 C 0.72407 0.27856 0.44025 0.0
C808 C 0.78275 0.23714 0.48204 0.0
C809 C 0.70469 0.23346 0.49736 0.0
C810 C 0.81311 0.2497 0.48782 0.0
C811 C 0.76431 0.2589 0.50935 0.0
C812 C 0.68544 0.25527 0.52484 0.0
C813 C 0.65676 0.24262 0.51876 0.0
C814 C 0.89774 0.25311 0.47105 0.0
C815 C 0.63112 0.26476 0.54776 0.0
H816 H 0.91406 0.29072 0.59147 0.0
H817 H 0.79095 0.30146 0.46445 0.0
H818 H 0.80955 0.26192 0.60423 0.0
H819 H 0.90343 0.25794 0.57757 0.0
H820 H 0.90687 0.2701 0.62052 0.0
H821 H 0.71506 0.28693 0.41764 0.0
H822 H 0.75452 0.2708 0.42186 0.0
H823 H 0.66114 0.27504 0.44853 0.0
H824 H 0.82086 0.23012 0.46598 0.0
H825 H 0.59591 0.23996 0.53019 0.0
H826 H 0.94093 0.25653 0.49938 0.0
H827 H 0.89022 0.26101 0.44645 0.0
H828 H 0.92784 0.2449 0.45481 0.0
H829 H 0.6663 0.26864 0.5782 0.0
H830 H 0.5713 0.26046 0.55773 0.0
H831 H 0.61552 0.27291 0.52505 0.0
C832 C 0.09873 0.39056 0.17997 0.0
C833 C 1.02793 0.38712 0.15195 0.0
C834 C 0.09319 0.39161 0.22675 0.0
C835 C 1.01467 0.38942 0.24544 0.0
C836 C 0.94171 0.38711 0.21649 0.0
C837 C 0.94952 0.38581 0.17022 0.0
C838 C 0.17266 0.39397 0.25635 0.0
C839 C 0.85637 0.385 0.23461 0.0
C840 C 1.01069 0.37227 0.35688 0.0
C841 C 0.99311 0.38215 0.38655 0.0
C842 C 1.02043 0.37465 0.31141 0.0
C843 C 1.01099 0.38724 0.29468 0.0
C844 C 0.99359 0.39732 0.32448 0.0
C845 C 0.98546 0.39467 0.3703 0.0
C846 C 0.03981 0.3636 0.28114 0.0
C847 C 0.98192 0.41081 0.3078 0.0
H848 H 0.15942 0.39156 0.1658 0.0
H849 H 0.89447 0.3833 0.14838 0.0
H850 H 0.161 0.40095 0.28319 0.0
H851 H 0.19321 0.38491 0.27294 0.0
H852 H 0.22494 0.39752 0.23689 0.0
H853 H 0.80436 0.38553 0.20774 0.0
H854 H 0.85487 0.37543 0.25033 0.0
H855 H 0.84454 0.39216 0.26086 0.0
H856 H 1.01744 0.36259 0.3693 0.0
H857 H 0.97213 0.40233 0.39323 0.0
H858 H 0.097 0.3657 0.26312 0.0
H859 H 0.98665 0.36218 0.25545 0.0
H860 H 0.05031 0.35455 0.29997 0.0
H861 H 0.03716 0.4138 0.2896 0.0
H862 H 0.97347 0.41768 0.33556 0.0
H863 H 0.92565 0.41132 0.28362 0.0
C864 C 0.048 0.64928 0.17108 0.0
C865 C 0.99353 0.64007 0.15088 0.0
C866 C 0.05864 0.65043 0.21816 0.0
C867 C 1.01393 0.64217 0.24558 0.0
C868 C 0.95637 0.63322 0.22517 0.0
C869 C 0.94677 0.63231 0.17815 0.0
C870 C 0.12001 0.66018 0.23855 0.0
C871 C 0.90733 0.62423 0.253 0.0
C872 C 0.10566 0.63311 0.36228 0.0
C873 C 0.0549 0.64012 0.39002 0.0
C874 C 0.09462 0.634 0.3153 0.0
C875 C 1.03139 0.64216 0.29543 0.0
C876 C 0.98179 0.6496 0.32333 0.0
C877 C 0.99409 0.64848 0.37033 0.0
C878 C 0.14894 0.6259 0.28692 0.0
C879 C 0.91411 0.65845 0.30352 0.0
H880 H 0.08397 0.65535 0.15014 0.0
H881 H 0.90416 0.62522 0.16275 0.0
H882 H 0.0897 0.66598 0.26408 0.0
H883 H 0.17479 0.65523 0.25592 0.0
H884 H 0.14367 0.66667 0.21289 0.0
H885 H 0.86134 0.61837 0.23209 0.0
H886 H 0.95166 0.61772 0.27213 0.0
H887 H 0.87262 0.62966 0.2778 0.0
H888 H 0.15314 0.62668 0.37729 0.0
H889 H 0.95498 0.65398 0.39165 0.0
H890 H 0.18036 0.63195 0.26264 0.0
H891 H 0.10876 0.61894 0.26718 0.0
H892 H 0.19817 0.62056 0.30747 0.0
H893 H 0.94054 0.6649 0.27866 0.0
H894 H 0.88572 0.66433 0.32959 0.0
H895 H 0.86327 0.65281 0.28544 0.0
C896 C 0.9929 0.64202 0.87145 0.0
C897 C 1.00253 0.65429 0.88991 0.0
C898 C 0.99972 0.63992 0.82514 0.0
C899 C 1.01804 0.6503 0.797 0.0
C900 C 1.02954 0.66263 0.81593 0.0
C901 C 1.02086 0.66448 0.86191 0.0
C902 C 0.98551 0.62668 0.80617 0.0
C903 C 0.05008 0.67396 0.78747 0.0
C904 C 0.10121 0.64665 0.68079 0.0
C905 C 1.02984 0.65013 0.65325 0.0
C906 C 0.09763 0.64602 0.7278 0.0
C907 C 1.02043 0.64864 0.74735 0.0
C908 C 0.94705 0.65126 0.71912 0.0
C909 C 0.95297 0.65214 0.67257 0.0
C910 C 0.17759 0.64338 0.75665 0.0
C911 C 0.86303 0.65382 0.73821 0.0
H912 H 0.97888 0.63412 0.89306 0.0
H913 H 1.02909 0.67397 0.87607 0.0
H914 H 0.92925 0.62669 0.7819 0.0
H915 H 0.04025 0.62368 0.78752 0.0
H916 H 0.97566 0.61954 0.83272 0.0
H917 H 0.06255 0.68273 0.80782 0.0
H918 H 0.1064 0.67188 0.76866 0.0
H919 H 0.99667 0.67589 0.76241 0.0
H920 H 0.16073 0.64511 0.66587 0.0
H921 H 0.89742 0.65468 0.6512 0.0
H922 H 0.16628 0.63606 0.7823 0.0
H923 H 0.19811 0.65222 0.77479 0.0
H924 H 0.22972 0.64009 0.73649 0.0
H925 H 0.8495 0.64646 0.76334 0.0
H926 H 0.81023 0.65399 0.71173 0.0
H927 H 0.86517 0.66319 0.75564 0.0
C928 C 0.93651 0.39811 0.68054 0.0
C929 C 0.9823 0.39089 0.65101 0.0
C930 C 0.95104 0.39685 0.72723 0.0
C931 C 1.01226 0.38804 0.74493 0.0
C932 C 0.05536 0.3802 0.71525 0.0
C933 C 0.04015 0.38176 0.66856 0.0
C934 C 0.90379 0.40543 0.75757 0.0
C935 C 0.12001 0.37054 0.73276 0.0
C936 C 0.11414 0.39729 0.85926 0.0
C937 C 0.06609 0.39033 0.88832 0.0
C938 C 0.09941 0.39624 0.81249 0.0
C939 C 0.03565 0.3879 0.79422 0.0
C940 C 0.99001 0.38032 0.82341 0.0
C941 C 1.00549 0.38167 0.87017 0.0
C942 C 0.14937 0.40453 0.78268 0.0
C943 C 0.92252 0.37117 0.8053 0.0
H944 H 0.89137 0.40514 0.66718 0.0
H945 H 0.07529 0.37609 0.64583 0.0
H946 H 0.87303 0.39969 0.78295 0.0
H947 H 0.94885 0.412 0.776 0.0
H948 H 0.8547 0.41123 0.73865 0.0
H949 H 0.14018 0.36414 0.70577 0.0
H950 H 0.17652 0.37556 0.74799 0.0
H951 H 0.09435 0.36464 0.75943 0.0
H952 H 0.16138 0.40395 0.87308 0.0
H953 H 0.96858 0.37619 0.89252 0.0
H954 H 0.10645 0.41145 0.76459 0.0
H955 H 0.17841 0.39863 0.757 0.0
H956 H 0.20012 0.40993 0.80197 0.0
H957 H 0.86783 0.37661 0.79009 0.0
H958 H 0.90001 0.3649 0.83193 0.0
H959 H 0.94662 0.36511 0.77847 0.0
C960 C 0.56847 0.89259 0.17352 0.0
C961 C 0.55658 0.88042 0.15458 0.0
C962 C 0.56094 0.89463 0.21983 0.0
C963 C 0.53973 0.88429 0.2475 0.0
C964 C 0.52521 0.87209 0.22798 0.0
C965 C 0.53456 0.87029 0.18202 0.0
C966 C 0.57812 0.90773 0.23937 0.0
C967 C 0.50145 0.86081 0.25586 0.0
C968 C 0.60705 0.88173 0.37159 0.0
C969 C 0.53131 0.88411 0.39161 0.0
C970 C 0.61196 0.88268 0.32497 0.0
C971 C 0.53868 0.88578 0.29733 0.0
C972 C 0.46272 0.88875 0.31758 0.0
C973 C 0.46017 0.88801 0.36466 0.0
C974 C 0.69473 0.87969 0.30516 0.0
C975 C 0.3829 0.89193 0.28939 0.0
H976 H 0.58529 0.90045 0.15237 0.0
H977 H 0.5245 0.86088 0.1675 0.0
H978 H 0.525 0.91085 0.25904 0.0
H979 H 0.63552 0.90742 0.26281 0.0
H980 H 0.58777 0.91495 0.21303 0.0
H981 H 0.48607 0.85221 0.23503 0.0
H982 H 0.5545 0.85842 0.28061 0.0
H983 H 0.44609 0.8632 0.27501 0.0
H984 H 0.66251 0.87886 0.39244 0.0
H985 H 0.4015 0.88985 0.38008 0.0
H986 H 0.7098 0.8871 0.28051 0.0
H987 H 0.68958 0.87044 0.28699 0.0
H988 H 0.74795 0.87904 0.33129 0.0
H989 H 0.39549 0.89924 0.2639 0.0
H990 H 0.33224 0.89548 0.31008 0.0
H991 H 0.35961 0.88326 0.27105 0.0
C992 C 0.44352 0.13514 0.17815 0.0
C993 C 0.50932 0.1389 0.15213 0.0
C994 C 0.45234 0.1357 0.22531 0.0
C995 C 0.52961 0.13986 0.24724 0.0
C996 C 0.59529 0.1441 0.22103 0.0
C997 C 0.58405 0.14368 0.17377 0.0
C998 C 0.37999 0.13132 0.2517 0.0
C999 C 0.67905 0.14844 0.24287 0.0
C1000 C 0.53447 0.14645 0.37373 0.0
C1001 C 0.56013 0.13457 0.39133 0.0
C1002 C 0.52563 0.14846 0.32687 0.0
C1003 C 0.54431 0.13842 0.29711 0.0
C1004 C 0.57318 0.12658 0.31507 0.0
C1005 C 0.57988 0.12478 0.36176 0.0
C1006 C 0.49354 0.16116 0.30921 0.0
C1007 C 0.59529 0.11566 0.28489 0.0
H1008 H 0.38526 0.13157 0.16157 0.0
H1009 H 0.63515 0.1466 0.15382 0.0
H1010 H 0.39719 0.12224 0.26905 0.0
H1011 H 0.367 0.13845 0.27788 0.0
H1012 H 0.32122 0.12975 0.22991 0.0
H1013 H 0.72054 0.15258 0.21822 0.0
H1014 H 0.66938 0.15564 0.2693 0.0
H1015 H 0.71212 0.14019 0.25942 0.0
H1016 H 0.51884 0.15403 0.39649 0.0
H1017 H 0.60026 0.11559 0.37519 0.0
H1018 H 0.43056 0.15988 0.29117 0.0
H1019 H 0.53626 0.16503 0.28473 0.0
H1020 H 0.48781 0.16827 0.33649 0.0
H1021 H 0.53786 0.11242 0.26474 0.0
H1022 H 0.62247 0.10739 0.30414 0.0
H1023 H 0.64145 0.11885 0.26103 0.0
C1024 C 0.60937 0.15022 0.86743 0.0
C1025 C 0.53376 0.14789 0.88762 0.0
C1026 C 0.61404 0.14922 0.82076 0.0
C1027 C 0.54071 0.14608 0.79316 0.0
C1028 C 0.46491 0.14314 0.81356 0.0
C1029 C 0.46254 0.14396 0.86069 0.0
C1030 C 0.69663 0.15221 0.80085 0.0
C1031 C 0.38503 0.1399 0.78549 0.0
C1032 C 0.53596 0.16166 0.67821 0.0
C1033 C 0.55879 0.15161 0.65042 0.0
C1034 C 0.52642 0.1598 0.7241 0.0
C1035 C 0.5414 0.14759 0.74327 0.0
C1036 C 0.56303 0.1373 0.71522 0.0
C1037 C 0.57088 0.13941 0.66897 0.0
C1038 C 0.50227 0.17104 0.75231 0.0
C1039 C 0.58046 0.12418 0.73431 0.0
H1040 H 0.66493 0.15311 0.8882 0.0
H1041 H 0.40395 0.14215 0.87617 0.0
H1042 H 0.7117 0.14478 0.7761 0.0
H1043 H 0.6912 0.16144 0.78278 0.0
H1044 H 0.74997 0.15288 0.82691 0.0
H1045 H 0.33474 0.1363 0.80623 0.0
H1046 H 0.36119 0.14856 0.7674 0.0
H1047 H 0.39774 0.13262 0.7598 0.0
H1048 H 0.5257 0.17109 0.66404 0.0
H1049 H 0.58826 0.1316 0.64758 0.0
H1050 H 0.5553 0.17344 0.77708 0.0
H1051 H 0.44707 0.16859 0.77143 0.0
H1052 H 0.48648 0.17964 0.73172 0.0
H1053 H 0.63838 0.12446 0.75739 0.0
H1054 H 0.58943 0.11698 0.70769 0.0
H1055 H 0.52783 0.12107 0.75427 0.0
C1056 C 0.57263 0.88614 0.67495 0.0
C1057 C 0.51151 0.89444 0.65512 0.0
C1058 C 0.58518 0.88511 0.72201 0.0
C1059 C 0.53559 0.89258 0.74987 0.0
C1060 C 0.47215 0.90067 0.72986 0.0
C1061 C 0.46083 0.90148 0.68285 0.0
C1062 C 0.65304 0.8763 0.74191 0.0
C1063 C 0.41781 0.90881 0.75814 0.0
C1064 C 0.51937 0.88559 0.87449 0.0
C1065 C 0.57381 0.89482 0.89458 0.0
C1066 C 0.50858 0.88439 0.8274 0.0
C1067 C 0.55312 0.89263 0.7998 0.0
C1068 C 0.61055 0.90162 0.8201 0.0
C1069 C 0.62028 0.90258 0.86714 0.0
C1070 C 0.44729 0.87461 0.80719 0.0
C1071 C 0.65943 0.9106 0.79212 0.0
H1072 H 0.61171 0.88062 0.65369 0.0
H1073 H 0.41312 0.90785 0.66778 0.0
H1074 H 0.70377 0.88199 0.75993 0.0
H1075 H 0.62672 0.86987 0.76684 0.0
H1076 H 0.68155 0.87042 0.71591 0.0
H1077 H 0.36854 0.91412 0.73751 0.0
H1078 H 0.38642 0.90278 0.7825 0.0
H1079 H 0.45795 0.91579 0.77778 0.0
H1080 H 0.48355 0.87952 0.89553 0.0
H1081 H 0.66283 0.90969 0.88242 0.0
H1082 H 0.47763 0.86878 0.78174 0.0
H1083 H 0.39245 0.87952 0.78974 0.0
H1084 H 0.42369 0.86815 0.83296 0.0
H1085 H 0.69423 0.90514 0.76742 0.0
H1086 H 0.70531 0.9165 0.81294 0.0
H1087 H 0.61497 0.91706 0.77288 0.0
loop_
_geom_bond_atom_site_label_1
_geom_bond_atom_site_label_2
_geom_bond_distance
_geom_bond_site_symmetry_2
_ccdc_geom_bond_type
Pr0 C2 2.880 . S
Pr0 O20 2.562 1_554 S
Pr0 O21 2.490 . S
Pr0 O22 2.695 . S
Pr0 O23 2.512 . S
Pr0 O25 2.437 . S
Pr0 O28 2.436 1_554 S
Pr0 O30 2.438 1_455 S
Pr1 C11 2.880 1_455 S
Pr1 O22 2.436 . S
Pr1 O24 2.438 . S
Pr1 O26 2.562 . S
Pr1 O27 2.490 1_554 S
Pr1 O28 2.695 1_554 S
Pr1 O29 2.512 1_554 S
Pr1 O31 2.435 1_454 S
C2 Pr0 2.880 . S
C2 C3 1.491 . S
C2 O20 1.254 1_554 S
C2 O21 1.225 . S
C3 C2 1.491 . S
C3 C4 1.392 . S
C3 C8 1.356 1_554 S
C4 C3 1.392 . S
C4 C5 1.368 . S
C4 H32 0.929 . S
C5 C4 1.368 . S
C5 C6 1.386 . S
C5 H33 0.929 . S
C6 C5 1.386 . S
C6 C7 1.373 1_554 S
C7 C6 1.373 1_556 S
C7 C8 1.409 . S
C7 H34 0.931 . S
C8 C3 1.356 1_556 S
C8 C7 1.409 . S
C8 H35 0.930 . S
C9 O22 1.270 . S
C9 O23 1.248 . S
C10 O24 1.267 . S
C10 O25 1.278 . S
C11 Pr1 2.880 1_655 S
C11 C12 1.491 . S
C11 O26 1.254 1_655 S
C11 O27 1.225 1_654 S
C12 C11 1.491 . S
C12 C13 1.392 1_554 S
C12 C17 1.356 . S
C13 C12 1.392 1_556 S
C13 C14 1.368 . S
C13 H36 0.929 . S
C14 C13 1.368 . S
C14 C15 1.386 1_556 S
C14 H37 0.929 . S
C15 C14 1.386 1_554 S
C15 C16 1.373 . S
C16 C15 1.373 . S
C16 C17 1.409 . S
C16 H38 0.931 . S
C17 C12 1.356 . S
C17 C16 1.409 . S
C17 H39 0.930 . S
C18 O28 1.270 . S
C18 O29 1.248 . S
C19 O30 1.267 . S
C19 O31 1.270 1_554 S
O20 Pr0 2.562 1_556 S
O20 C2 1.254 1_556 S
O21 Pr0 2.490 . S
O21 C2 1.225 . S
O22 Pr0 2.695 . S
O22 Pr1 2.436 . S
O22 C9 1.270 . S
O23 Pr0 2.512 . S
O23 C9 1.248 . S
O24 Pr1 2.438 . S
O24 C10 1.267 . S
O25 Pr0 2.437 . S
O25 C10 1.278 . S
O26 Pr1 2.562 . S
O26 C11 1.254 1_455 S
O27 Pr1 2.490 1_556 S
O27 C11 1.225 1_456 S
O28 Pr0 2.436 1_556 S
O28 Pr1 2.695 1_556 S
O28 C18 1.270 . S
O29 Pr1 2.512 1_556 S
O29 C18 1.248 . S
O30 Pr0 2.438 1_655 S
O30 C19 1.267 . S
O31 Pr1 2.435 1_656 S
O31 C19 1.270 1_556 S
H32 C4 0.929 . S
H33 C5 0.929 . S
H34 C7 0.931 . S
H35 C8 0.930 . S
H36 C13 0.929 . S
H37 C14 0.929 . S
H38 C16 0.931 . S
H39 C17 0.930 . S
Pr40 C42 2.880 1_655 S
Pr40 O60 2.562 1_554 S
Pr40 O61 2.490 . S
Pr40 O62 2.695 . S
Pr40 O63 2.512 . S
Pr40 O65 2.437 1_655 S
Pr40 O68 2.436 1_554 S
Pr40 O70 2.438 . S
Pr41 C51 2.880 . S
Pr41 O62 2.436 . S
Pr41 O64 2.438 1_655 S
Pr41 O66 2.562 . S
Pr41 O67 2.490 1_554 S
Pr41 O68 2.695 1_554 S
Pr41 O69 2.512 1_554 S
Pr41 O71 2.437 1_554 S
C42 Pr40 2.880 1_455 S
C42 C43 1.491 . S
C42 O60 1.254 1_454 S
C42 O61 1.225 1_455 S
C43 C42 1.491 . S
C43 C44 1.392 . S
C43 C48 1.356 1_554 S
C44 C43 1.392 . S
C44 C45 1.368 . S
C44 H72 0.929 . S
C45 C44 1.368 . S
C45 C46 1.386 . S
C45 H73 0.929 . S
C46 C45 1.386 . S
C46 C47 1.373 1_554 S
C47 C46 1.373 1_556 S
C47 C48 1.409 . S
C47 H74 0.931 . S
C48 C43 1.356 1_556 S
C48 C47 1.409 . S
C48 H75 0.930 . S
C49 O62 1.270 . S
C49 O63 1.248 . S
C50 O64 1.267 . S
C50 O65 1.278 . S
C51 Pr41 2.880 . S
C51 C52 1.491 . S
C51 O66 1.254 . S
C51 O67 1.225 1_554 S
C52 C51 1.491 . S
C52 C53 1.392 1_554 S
C52 C57 1.356 . S
C53 C52 1.392 1_556 S
C53 C54 1.368 . S
C53 H76 0.929 . S
C54 C53 1.368 . S
C54 C55 1.386 1_556 S
C54 H77 0.929 . S
C55 C54 1.386 1_554 S
C55 C56 1.373 . S
C56 C55 1.373 . S
C56 C57 1.409 . S
C56 H78 0.931 . S
C57 C52 1.356 . S
C57 C56 1.409 . S
C57 H79 0.930 . S
C58 O68 1.270 . S
C58 O69 1.248 . S
C59 O70 1.267 . S
C59 O71 1.278 1_554 S
O60 Pr40 2.562 1_556 S
O60 C42 1.254 1_656 S
O61 Pr40 2.490 . S
O61 C42 1.225 1_655 S
O62 Pr40 2.695 . S
O62 Pr41 2.436 . S
O62 C49 1.270 . S
O63 Pr40 2.512 . S
O63 C49 1.248 . S
O64 Pr41 2.438 1_455 S
O64 C50 1.267 . S
O65 Pr40 2.437 1_455 S
O65 C50 1.278 . S
O66 Pr41 2.562 . S
O66 C51 1.254 . S
O67 Pr41 2.490 1_556 S
O67 C51 1.225 1_556 S
O68 Pr40 2.436 1_556 S
O68 Pr41 2.695 1_556 S
O68 C58 1.270 . S
O69 Pr41 2.512 1_556 S
O69 C58 1.248 . S
O70 Pr40 2.438 . S
O70 C59 1.267 . S
O71 Pr41 2.437 1_556 S
O71 C59 1.278 1_556 S
H72 C44 0.929 . S
H73 C45 0.929 . S
H74 C47 0.931 . S
H75 C48 0.930 . S
H76 C53 0.929 . S
H77 C54 0.929 . S
H78 C56 0.931 . S
H79 C57 0.930 . S
Pr80 C82 2.880 1_455 S
Pr80 O100 2.562 . S
Pr80 O101 2.490 . S
Pr80 O102 2.695 . S
Pr80 O103 2.512 . S
Pr80 O105 2.437 1_455 S
Pr80 O108 2.436 . S
Pr80 O110 2.438 . S
Pr81 C91 2.880 . S
Pr81 O102 2.436 . S
Pr81 O104 2.438 1_455 S
Pr81 O106 2.562 . S
Pr81 O107 2.490 . S
Pr81 O108 2.695 . S
Pr81 O109 2.512 . S
Pr81 O111 2.437 . S
C82 Pr80 2.880 1_655 S
C82 C83 1.491 . S
C82 O100 1.254 1_655 S
C82 O101 1.225 1_655 S
C83 C82 1.491 . S
C83 C84 1.392 . S
C83 C88 1.356 . S
C84 C83 1.392 . S
C84 C85 1.368 . S
C84 H112 0.929 . S
C85 C84 1.368 . S
C85 C86 1.386 . S
C85 H113 0.929 . S
C86 C85 1.386 . S
C86 C87 1.373 . S
C87 C86 1.373 . S
C87 C88 1.409 . S
C87 H114 0.931 . S
C88 C83 1.356 . S
C88 C87 1.409 . S
C88 H115 0.930 . S
C89 O102 1.270 . S
C89 O103 1.248 . S
C90 O104 1.267 . S
C90 O105 1.278 . S
C91 Pr81 2.880 . S
C91 C92 1.491 . S
C91 O106 1.254 . S
C91 O107 1.225 . S
C92 C91 1.491 . S
C92 C93 1.392 . S
C92 C97 1.356 . S
C93 C92 1.392 . S
C93 C94 1.368 . S
C93 H116 0.929 . S
C94 C93 1.368 . S
C94 C95 1.386 . S
C94 H117 0.929 . S
C95 C94 1.386 . S
C95 C96 1.373 . S
C96 C95 1.373 . S
C96 C97 1.409 . S
C96 H118 0.931 . S
C97 C92 1.356 . S
C97 C96 1.409 . S
C97 H119 0.930 . S
C98 O108 1.270 . S
C98 O109 1.248 . S
C99 O110 1.267 . S
C99 O111 1.278 . S
O100 Pr80 2.562 . S
O100 C82 1.254 1_455 S
O101 Pr80 2.490 . S
O101 C82 1.225 1_455 S
O102 Pr80 2.695 . S
O102 Pr81 2.436 . S
O102 C89 1.270 . S
O103 Pr80 2.512 . S
O103 C89 1.248 . S
O104 Pr81 2.438 1_655 S
O104 C90 1.267 . S
O105 Pr80 2.437 1_655 S
O105 C90 1.278 . S
O106 Pr81 2.562 . S
O106 C91 1.254 . S
O107 Pr81 2.490 . S
O107 C91 1.225 . S
O108 Pr80 2.436 . S
O108 Pr81 2.695 . S
O108 C98 1.270 . S
O109 Pr81 2.512 . S
O109 C98 1.248 . S
O110 Pr80 2.438 . S
O110 C99 1.267 . S
O111 Pr81 2.437 . S
O111 C99 1.278 . S
H112 C84 0.929 . S
H113 C85 0.929 . S
H114 C87 0.931 . S
H115 C88 0.930 . S
H116 C93 0.929 . S
H117 C94 0.929 . S
H118 C96 0.931 . S
H119 C97 0.930 . S
Pr120 C122 2.880 . S
Pr120 O140 2.562 . S
Pr120 O141 2.490 . S
Pr120 O142 2.695 . S
Pr120 O143 2.512 . S
Pr120 O145 2.437 . S
Pr120 O148 2.436 . S
Pr120 O150 2.438 1_655 S
Pr121 C131 2.880 1_655 S
Pr121 O142 2.436 . S
Pr121 O144 2.438 . S
Pr121 O146 2.562 . S
Pr121 O147 2.490 . S
Pr121 O148 2.695 . S
Pr121 O149 2.512 . S
Pr121 O151 2.437 1_655 S
C122 Pr120 2.880 . S
C122 C123 1.491 . S
C122 O140 1.254 . S
C122 O141 1.225 . S
C123 C122 1.491 . S
C123 C124 1.392 . S
C123 C128 1.356 . S
C124 C123 1.392 . S
C124 C125 1.368 . S
C124 H152 0.929 . S
C125 C124 1.368 . S
C125 C126 1.386 . S
C125 H153 0.929 . S
C126 C125 1.386 . S
C126 C127 1.373 . S
C127 C126 1.373 . S
C127 C128 1.409 . S
C127 H154 0.931 . S
C128 C123 1.356 . S
C128 C127 1.409 . S
C128 H155 0.930 . S
C129 O142 1.270 . S
C129 O143 1.248 . S
C130 O144 1.267 . S
C130 O145 1.278 . S
C131 Pr121 2.880 1_455 S
C131 C132 1.491 . S
C131 O146 1.254 1_455 S
C131 O147 1.225 1_455 S
C132 C131 1.491 . S
C132 C133 1.392 . S
C132 C137 1.356 . S
C133 C132 1.392 . S
C133 C134 1.368 . S
C133 H156 0.929 . S
C134 C133 1.368 . S
C134 C135 1.386 . S
C134 H157 0.929 . S
C135 C134 1.386 . S
C135 C136 1.373 . S
C136 C135 1.373 . S
C136 C137 1.409 . S
C136 H158 0.931 . S
C137 C132 1.356 . S
C137 C136 1.409 . S
C137 H159 0.930 . S
C138 O148 1.270 . S
C138 O149 1.248 . S
C139 O150 1.267 . S
C139 O151 1.278 . S
O140 Pr120 2.562 . S
O140 C122 1.254 . S
O141 Pr120 2.490 . S
O141 C122 1.225 . S
O142 Pr120 2.695 . S
O142 Pr121 2.436 . S
O142 C129 1.270 . S
O143 Pr120 2.512 . S
O143 C129 1.248 . S
O144 Pr121 2.438 . S
O144 C130 1.267 . S
O145 Pr120 2.437 . S
O145 C130 1.278 . S
O146 Pr121 2.562 . S
O146 C131 1.254 1_655 S
O147 Pr121 2.490 . S
O147 C131 1.225 1_655 S
O148 Pr120 2.436 . S
O148 Pr121 2.695 . S
O148 C138 1.270 . S
O149 Pr121 2.512 . S
O149 C138 1.248 . S
O150 Pr120 2.438 1_455 S
O150 C139 1.267 . S
O151 Pr121 2.437 1_455 S
O151 C139 1.278 . S
H152 C124 0.929 . S
H153 C125 0.929 . S
H154 C127 0.931 . S
H155 C128 0.930 . S
H156 C133 0.929 . S
H157 C134 0.929 . S
H158 C136 0.931 . S
H159 C137 0.930 . S
Pr160 C162 2.880 . S
Pr160 O180 2.562 1_554 S
Pr160 O181 2.490 . S
Pr160 O182 2.695 . S
Pr160 O183 2.512 . S
Pr160 O185 2.437 . S
Pr160 O188 2.436 1_554 S
Pr160 O190 2.438 . S
Pr161 C171 2.880 . S
Pr161 O182 2.436 . S
Pr161 O184 2.438 . S
Pr161 O186 2.562 . S
Pr161 O187 2.490 1_554 S
Pr161 O188 2.695 1_554 S
Pr161 O189 2.512 1_554 S
Pr161 O191 2.435 1_554 S
C162 Pr160 2.880 . S
C162 C163 1.491 . S
C162 O180 1.254 1_554 S
C162 O181 1.225 . S
C163 C162 1.491 . S
C163 C164 1.392 . S
C163 C168 1.356 1_554 S
C164 C163 1.392 . S
C164 C165 1.368 . S
C164 H192 0.929 . S
C165 C164 1.368 . S
C165 C166 1.386 . S
C165 H193 0.929 . S
C166 C165 1.386 . S
C166 C167 1.373 1_554 S
C167 C166 1.373 1_556 S
C167 C168 1.409 . S
C167 H194 0.931 . S
C168 C163 1.356 1_556 S
C168 C167 1.409 . S
C168 H195 0.930 . S
C169 O182 1.270 . S
C169 O183 1.248 . S
C170 O184 1.267 . S
C170 O185 1.278 . S
C171 Pr161 2.880 . S
C171 C172 1.491 . S
C171 O186 1.254 . S
C171 O187 1.225 1_554 S
C172 C171 1.491 . S
C172 C173 1.392 1_554 S
C172 C177 1.356 . S
C173 C172 1.392 1_556 S
C173 C174 1.368 . S
C173 H196 0.929 . S
C174 C173 1.368 . S
C174 C175 1.386 1_556 S
C174 H197 0.929 . S
C175 C174 1.386 1_554 S
C175 C176 1.373 . S
C176 C175 1.373 . S
C176 C177 1.409 . S
C176 H198 0.931 . S
C177 C172 1.356 . S
C177 C176 1.409 . S
C177 H199 0.930 . S
C178 O188 1.270 . S
C178 O189 1.248 . S
C179 O190 1.267 . S
C179 O191 1.270 1_554 S
O180 Pr160 2.562 1_556 S
O180 C162 1.254 1_556 S
O181 Pr160 2.490 . S
O181 C162 1.225 . S
O182 Pr160 2.695 . S
O182 Pr161 2.436 . S
O182 C169 1.270 . S
O183 Pr160 2.512 . S
O183 C169 1.248 . S
O184 Pr161 2.438 . S
O184 C170 1.267 . S
O185 Pr160 2.437 . S
O185 C170 1.278 . S
O186 Pr161 2.562 . S
O186 C171 1.254 . S
O187 Pr161 2.490 1_556 S
O187 C171 1.225 1_556 S
O188 Pr160 2.436 1_556 S
O188 Pr161 2.695 1_556 S
O188 C178 1.270 . S
O189 Pr161 2.512 1_556 S
O189 C178 1.248 . S
O190 Pr160 2.438 . S
O190 C179 1.267 . S
O191 Pr161 2.435 1_556 S
O191 C179 1.270 1_556 S
H192 C164 0.929 . S
H193 C165 0.929 . S
H194 C167 0.931 . S
H195 C168 0.930 . S
H196 C173 0.929 . S
H197 C174 0.929 . S
H198 C176 0.931 . S
H199 C177 0.930 . S
Pr200 C202 2.880 . S
Pr200 O220 2.562 1_554 S
Pr200 O221 2.490 . S
Pr200 O222 2.695 . S
Pr200 O223 2.512 . S
Pr200 O225 2.437 . S
Pr200 O228 2.436 1_554 S
Pr200 O230 2.438 . S
Pr201 C211 2.880 . S
Pr201 O222 2.436 . S
Pr201 O224 2.438 . S
Pr201 O226 2.562 . S
Pr201 O227 2.490 1_554 S
Pr201 O228 2.695 1_554 S
Pr201 O229 2.512 1_554 S
Pr201 O231 2.437 1_554 S
C202 Pr200 2.880 . S
C202 C203 1.491 . S
C202 O220 1.254 1_554 S
C202 O221 1.225 . S
C203 C202 1.491 . S
C203 C204 1.392 . S
C203 C208 1.356 1_554 S
C204 C203 1.392 . S
C204 C205 1.368 . S
C204 H232 0.929 . S
C205 C204 1.368 . S
C205 C206 1.386 . S
C205 H233 0.929 . S
C206 C205 1.386 . S
C206 C207 1.373 1_554 S
C207 C206 1.373 1_556 S
C207 C208 1.409 . S
C207 H234 0.931 . S
C208 C203 1.356 1_556 S
C208 C207 1.409 . S
C208 H235 0.930 . S
C209 O222 1.270 . S
C209 O223 1.248 . S
C210 O224 1.267 . S
C210 O225 1.278 . S
C211 Pr201 2.880 . S
C211 C212 1.491 . S
C211 O226 1.254 . S
C211 O227 1.225 1_554 S
C212 C211 1.491 . S
C212 C213 1.392 1_554 S
C212 C217 1.356 . S
C213 C212 1.392 1_556 S
C213 C214 1.368 . S
C213 H236 0.929 . S
C214 C213 1.368 . S
C214 C215 1.386 1_556 S
C214 H237 0.929 . S
C215 C214 1.386 1_554 S
C215 C216 1.373 . S
C216 C215 1.373 . S
C216 C217 1.409 . S
C216 H238 0.931 . S
C217 C212 1.356 . S
C217 C216 1.409 . S
C217 H239 0.930 . S
C218 O228 1.270 . S
C218 O229 1.248 . S
C219 O230 1.267 . S
C219 O231 1.278 1_554 S
O220 Pr200 2.562 1_556 S
O220 C202 1.254 1_556 S
O221 Pr200 2.490 . S
O221 C202 1.225 . S
O222 Pr200 2.695 . S
O222 Pr201 2.436 . S
O222 C209 1.270 . S
O223 Pr200 2.512 . S
O223 C209 1.248 . S
O224 Pr201 2.438 . S
O224 C210 1.267 . S
O225 Pr200 2.437 . S
O225 C210 1.278 . S
O226 Pr201 2.562 . S
O226 C211 1.254 . S
O227 Pr201 2.490 1_556 S
O227 C211 1.225 1_556 S
O228 Pr200 2.436 1_556 S
O228 Pr201 2.695 1_556 S
O228 C218 1.270 . S
O229 Pr201 2.512 1_556 S
O229 C218 1.248 . S
O230 Pr200 2.438 . S
O230 C219 1.267 . S
O231 Pr201 2.437 1_556 S
O231 C219 1.278 1_556 S
H232 C204 0.929 . S
H233 C205 0.929 . S
H234 C207 0.931 . S
H235 C208 0.930 . S
H236 C213 0.929 . S
H237 C214 0.929 . S
H238 C216 0.931 . S
H239 C217 0.930 . S
Pr240 C242 2.880 . S
Pr240 O260 2.562 . S
Pr240 O261 2.490 . S
Pr240 O262 2.695 . S
Pr240 O263 2.512 . S
Pr240 O265 2.437 . S
Pr240 O268 2.436 . S
Pr240 O270 2.438 . S
Pr241 C251 2.880 . S
Pr241 O262 2.436 . S
Pr241 O264 2.438 . S
Pr241 O266 2.562 . S
Pr241 O267 2.490 . S
Pr241 O268 2.695 . S
Pr241 O269 2.512 . S
Pr241 O271 2.437 . S
C242 Pr240 2.880 . S
C242 C243 1.491 . S
C242 O260 1.254 . S
C242 O261 1.225 . S
C243 C242 1.491 . S
C243 C244 1.392 . S
C243 C248 1.356 . S
C244 C243 1.392 . S
C244 C245 1.368 . S
C244 H272 0.929 . S
C245 C244 1.368 . S
C245 C246 1.386 . S
C245 H273 0.929 . S
C246 C245 1.386 . S
C246 C247 1.373 . S
C247 C246 1.373 . S
C247 C248 1.409 . S
C247 H274 0.931 . S
C248 C243 1.356 . S
C248 C247 1.409 . S
C248 H275 0.930 . S
C249 O262 1.270 . S
C249 O263 1.248 . S
C250 O264 1.267 . S
C250 O265 1.278 . S
C251 Pr241 2.880 . S
C251 C252 1.491 . S
C251 O266 1.254 . S
C251 O267 1.225 . S
C252 C251 1.491 . S
C252 C253 1.392 . S
C252 C257 1.356 . S
C253 C252 1.392 . S
C253 C254 1.368 . S
C253 H276 0.929 . S
C254 C253 1.368 . S
C254 C255 1.386 . S
C254 H277 0.929 . S
C255 C254 1.386 . S
C255 C256 1.373 . S
C256 C255 1.373 . S
C256 C257 1.409 . S
C256 H278 0.931 . S
C257 C252 1.356 . S
C257 C256 1.409 . S
C257 H279 0.930 . S
C258 O268 1.270 . S
C258 O269 1.248 . S
C259 O270 1.267 . S
C259 O271 1.278 . S
O260 Pr240 2.562 . S
O260 C242 1.254 . S
O261 Pr240 2.490 . S
O261 C242 1.225 . S
O262 Pr240 2.695 . S
O262 Pr241 2.436 . S
O262 C249 1.270 . S
O263 Pr240 2.512 . S
O263 C249 1.248 . S
O264 Pr241 2.438 . S
O264 C250 1.267 . S
O265 Pr240 2.437 . S
O265 C250 1.278 . S
O266 Pr241 2.562 . S
O266 C251 1.254 . S
O267 Pr241 2.490 . S
O267 C251 1.225 . S
O268 Pr240 2.436 . S
O268 Pr241 2.695 . S
O268 C258 1.270 . S
O269 Pr241 2.512 . S
O269 C258 1.248 . S
O270 Pr240 2.438 . S
O270 C259 1.267 . S
O271 Pr241 2.437 . S
O271 C259 1.278 . S
H272 C244 0.929 . S
H273 C245 0.929 . S
H274 C247 0.931 . S
H275 C248 0.930 . S
H276 C253 0.929 . S
H277 C254 0.929 . S
H278 C256 0.931 . S
H279 C257 0.930 . S
Pr280 C282 2.880 . S
Pr280 O300 2.562 . S
Pr280 O301 2.490 . S
Pr280 O302 2.695 . S
Pr280 O303 2.512 . S
Pr280 O305 2.437 . S
Pr280 O308 2.436 . S
Pr280 O310 2.438 . S
Pr281 C291 2.880 . S
Pr281 O302 2.436 . S
Pr281 O304 2.438 . S
Pr281 O306 2.562 . S
Pr281 O307 2.490 . S
Pr281 O308 2.695 . S
Pr281 O309 2.512 . S
Pr281 O311 2.437 . S
C282 Pr280 2.880 . S
C282 C283 1.491 . S
C282 O300 1.254 . S
C282 O301 1.225 . S
C283 C282 1.491 . S
C283 C284 1.392 . S
C283 C288 1.356 . S
C284 C283 1.392 . S
C284 C285 1.368 . S
C284 H312 0.929 . S
C285 C284 1.368 . S
C285 C286 1.386 . S
C285 H313 0.929 . S
C286 C285 1.386 . S
C286 C287 1.373 . S
C287 C286 1.373 . S
C287 C288 1.409 . S
C287 H314 0.931 . S
C288 C283 1.356 . S
C288 C287 1.409 . S
C288 H315 0.930 . S
C289 O302 1.270 . S
C289 O303 1.248 . S
C290 O304 1.267 . S
C290 O305 1.278 . S
C291 Pr281 2.880 . S
C291 C292 1.491 . S
C291 O306 1.254 . S
C291 O307 1.225 . S
C292 C291 1.491 . S
C292 C293 1.392 . S
C292 C297 1.356 . S
C293 C292 1.392 . S
C293 C294 1.368 . S
C293 H316 0.929 . S
C294 C293 1.368 . S
C294 C295 1.386 . S
C294 H317 0.929 . S
C295 C294 1.386 . S
C295 C296 1.373 . S
C296 C295 1.373 . S
C296 C297 1.409 . S
C296 H318 0.931 . S
C297 C292 1.356 . S
C297 C296 1.409 . S
C297 H319 0.930 . S
C298 O308 1.270 . S
C298 O309 1.248 . S
C299 O310 1.267 . S
C299 O311 1.278 . S
O300 Pr280 2.562 . S
O300 C282 1.254 . S
O301 Pr280 2.490 . S
O301 C282 1.225 . S
O302 Pr280 2.695 . S
O302 Pr281 2.436 . S
O302 C289 1.270 . S
O303 Pr280 2.512 . S
O303 C289 1.248 . S
O304 Pr281 2.438 . S
O304 C290 1.267 . S
O305 Pr280 2.437 . S
O305 C290 1.278 . S
O306 Pr281 2.562 . S
O306 C291 1.254 . S
O307 Pr281 2.490 . S
O307 C291 1.225 . S
O308 Pr280 2.436 . S
O308 Pr281 2.695 . S
O308 C298 1.270 . S
O309 Pr281 2.512 . S
O309 C298 1.248 . S
O310 Pr280 2.438 . S
O310 C299 1.267 . S
O311 Pr281 2.437 . S
O311 C299 1.278 . S
H312 C284 0.929 . S
H313 C285 0.929 . S
H314 C287 0.931 . S
H315 C288 0.930 . S
H316 C293 0.929 . S
H317 C294 0.929 . S
H318 C296 0.931 . S
H319 C297 0.930 . S
C320 C321 1.391 . S
C320 C322 1.394 . S
C320 H336 0.931 1_554 S
C321 C320 1.391 . S
C321 C325 1.376 . S
C322 C320 1.394 . S
C322 C323 1.369 . S
C322 C326 1.531 1_554 S
C323 C322 1.369 . S
C323 C324 1.410 . S
C323 C331 1.503 . S
C324 C323 1.410 . S
C324 C325 1.392 . S
C324 C327 1.511 . S
C325 C321 1.376 . S
C325 C324 1.392 . S
C325 H337 0.929 . S
C326 C322 1.531 1_556 S
C326 H338 0.960 1_556 S
C326 H339 0.962 . S
C326 H340 0.960 . S
C327 C324 1.511 . S
C327 H341 0.961 . S
C327 H342 0.961 . S
C327 H343 0.961 . S
C328 C329 1.370 1_556 S
C328 C330 1.363 . S
C328 H344 0.931 . S
C329 C328 1.370 1_554 S
C329 C333 1.408 . S
C330 C328 1.363 . S
C330 C331 1.370 1_556 S
C330 C334 1.524 . S
C331 C323 1.503 . S
C331 C330 1.370 1_554 S
C331 C332 1.403 . S
C332 C331 1.403 . S
C332 C333 1.404 . S
C332 C335 1.539 . S
C333 C329 1.408 . S
C333 C332 1.404 . S
C333 H345 0.930 . S
C334 C330 1.524 . S
C334 H346 0.956 . S
C334 H347 0.961 . S
C334 H348 0.961 . S
C335 C332 1.539 . S
C335 H349 0.958 . S
C335 H350 0.961 . S
C335 H351 0.960 . S
H336 C320 0.931 1_556 S
H337 C325 0.929 . S
H338 C326 0.960 1_554 S
H339 C326 0.962 . S
H340 C326 0.960 . S
H341 C327 0.961 . S
H342 C327 0.961 . S
H343 C327 0.961 . S
H344 C328 0.931 . S
H345 C333 0.930 . S
H346 C334 0.956 . S
H347 C334 0.961 . S
H348 C334 0.961 . S
H349 C335 0.958 . S
H350 C335 0.961 . S
H351 C335 0.960 . S
C352 C353 1.391 . S
C352 C354 1.394 . S
C352 H368 0.931 . S
C353 C352 1.391 . S
C353 C357 1.376 . S
C354 C352 1.394 . S
C354 C355 1.369 . S
C354 C358 1.531 . S
C355 C354 1.369 . S
C355 C356 1.410 . S
C355 C363 1.503 . S
C356 C355 1.410 . S
C356 C357 1.392 . S
C356 C359 1.511 1_554 S
C357 C353 1.376 . S
C357 C356 1.392 . S
C357 H369 0.929 . S
C358 C354 1.531 . S
C358 H370 0.960 . S
C358 H371 0.962 . S
C358 H372 0.960 . S
C359 C356 1.511 1_556 S
C359 H373 0.961 1_556 S
C359 H374 0.961 1_556 S
C359 H375 0.961 . S
C360 C361 1.370 . S
C360 C362 1.363 . S
C360 H376 0.931 . S
C361 C360 1.370 . S
C361 C365 1.408 1_554 S
C362 C360 1.363 . S
C362 C363 1.370 . S
C362 C366 1.524 . S
C363 C355 1.503 . S
C363 C362 1.370 . S
C363 C364 1.403 1_554 S
C364 C363 1.403 1_556 S
C364 C365 1.404 . S
C364 C367 1.539 . S
C365 C361 1.408 1_556 S
C365 C364 1.404 . S
C365 H377 0.930 . S
C366 C362 1.524 . S
C366 H378 0.956 . S
C366 H379 0.961 . S
C366 H380 0.961 . S
C367 C364 1.539 . S
C367 H381 0.958 . S
C367 H382 0.961 . S
C367 H383 0.960 . S
H368 C352 0.931 . S
H369 C357 0.929 . S
H370 C358 0.960 . S
H371 C358 0.962 . S
H372 C358 0.960 . S
H373 C359 0.961 1_554 S
H374 C359 0.961 1_554 S
H375 C359 0.961 . S
H376 C360 0.931 . S
H377 C365 0.930 . S
H378 C366 0.956 . S
H379 C366 0.961 . S
H380 C366 0.961 . S
H381 C367 0.958 . S
H382 C367 0.961 . S
H383 C367 0.960 . S
C384 C385 1.391 . S
C384 C386 1.394 . S
C384 H400 0.931 . S
C385 C384 1.391 . S
C385 C389 1.376 . S
C386 C384 1.394 . S
C386 C387 1.369 . S
C386 C390 1.531 . S
C387 C386 1.369 . S
C387 C388 1.410 . S
C387 C395 1.503 . S
C388 C387 1.410 . S
C388 C389 1.392 . S
C388 C391 1.511 . S
C389 C385 1.376 . S
C389 C388 1.392 . S
C389 H401 0.929 . S
C390 C386 1.531 . S
C390 H402 0.960 . S
C390 H403 0.962 . S
C390 H404 0.960 . S
C391 C388 1.511 . S
C391 H405 0.961 . S
C391 H406 0.961 . S
C391 H407 0.961 . S
C392 C393 1.370 . S
C392 C394 1.363 . S
C392 H408 0.931 . S
C393 C392 1.370 . S
C393 C397 1.408 . S
C394 C392 1.363 . S
C394 C395 1.370 . S
C394 C398 1.524 . S
C395 C387 1.503 . S
C395 C394 1.370 . S
C395 C396 1.403 . S
C396 C395 1.403 . S
C396 C397 1.404 . S
C396 C399 1.539 . S
C397 C393 1.408 . S
C397 C396 1.404 . S
C397 H409 0.930 . S
C398 C394 1.524 . S
C398 H410 0.956 . S
C398 H411 0.961 . S
C398 H412 0.961 . S
C399 C396 1.539 . S
C399 H413 0.958 . S
C399 H414 0.961 . S
C399 H415 0.960 . S
H400 C384 0.931 . S
H401 C389 0.929 . S
H402 C390 0.960 . S
H403 C390 0.962 . S
H404 C390 0.960 . S
H405 C391 0.961 . S
H406 C391 0.961 . S
H407 C391 0.961 . S
H408 C392 0.931 . S
H409 C397 0.930 . S
H410 C398 0.956 . S
H411 C398 0.961 . S
H412 C398 0.961 . S
H413 C399 0.958 . S
H414 C399 0.961 . S
H415 C399 0.960 . S
C416 C417 1.391 . S
C416 C418 1.394 . S
C416 H432 0.931 . S
C417 C416 1.391 . S
C417 C421 1.376 . S
C418 C416 1.394 . S
C418 C419 1.369 . S
C418 C422 1.531 . S
C419 C418 1.369 . S
C419 C420 1.410 . S
C419 C427 1.503 . S
C420 C419 1.410 . S
C420 C421 1.392 . S
C420 C423 1.511 . S
C421 C417 1.376 . S
C421 C420 1.392 . S
C421 H433 0.929 . S
C422 C418 1.531 . S
C422 H434 0.960 . S
C422 H435 0.962 . S
C422 H436 0.960 . S
C423 C420 1.511 . S
C423 H437 0.961 . S
C423 H438 0.961 . S
C423 H439 0.961 . S
C424 C425 1.370 . S
C424 C426 1.363 . S
C424 H440 0.931 . S
C425 C424 1.370 . S
C425 C429 1.408 . S
C426 C424 1.363 . S
C426 C427 1.370 . S
C426 C430 1.524 . S
C427 C419 1.503 . S
C427 C426 1.370 . S
C427 C428 1.403 . S
C428 C427 1.403 . S
C428 C429 1.404 . S
C428 C431 1.539 . S
C429 C425 1.408 . S
C429 C428 1.404 . S
C429 H441 0.930 . S
C430 C426 1.524 . S
C430 H442 0.956 . S
C430 H443 0.961 . S
C430 H444 0.961 . S
C431 C428 1.539 . S
C431 H445 0.958 . S
C431 H446 0.961 . S
C431 H447 0.960 . S
H432 C416 0.931 . S
H433 C421 0.929 . S
H434 C422 0.960 . S
H435 C422 0.962 . S
H436 C422 0.960 . S
H437 C423 0.961 . S
H438 C423 0.961 . S
H439 C423 0.961 . S
H440 C424 0.931 . S
H441 C429 0.930 . S
H442 C430 0.956 . S
H443 C430 0.961 . S
H444 C430 0.961 . S
H445 C431 0.958 . S
H446 C431 0.961 . S
H447 C431 0.960 . S
C448 C449 1.391 . S
C448 C450 1.394 . S
C448 H464 0.931 . S
C449 C448 1.391 . S
C449 C453 1.376 . S
C450 C448 1.394 . S
C450 C451 1.369 1_655 S
C450 C454 1.531 . S
C451 C450 1.369 1_455 S
C451 C452 1.410 1_455 S
C451 C459 1.503 . S
C452 C451 1.410 1_655 S
C452 C453 1.392 . S
C452 C455 1.511 1_655 S
C453 C449 1.376 . S
C453 C452 1.392 . S
C453 H465 0.929 . S
C454 C450 1.531 . S
C454 H466 0.960 1_655 S
C454 H467 0.962 1_654 S
C454 H468 0.960 . S
C455 C452 1.511 1_455 S
C455 H469 0.961 . S
C455 H470 0.961 . S
C455 H471 0.961 . S
C456 C457 1.370 1_556 S
C456 C458 1.363 . S
C456 H472 0.931 . S
C457 C456 1.370 1_554 S
C457 C461 1.408 . S
C458 C456 1.363 . S
C458 C459 1.370 1_556 S
C458 C462 1.524 . S
C459 C451 1.503 . S
C459 C458 1.370 1_554 S
C459 C460 1.403 . S
C460 C459 1.403 . S
C460 C461 1.404 . S
C460 C463 1.539 . S
C461 C457 1.408 . S
C461 C460 1.404 . S
C461 H473 0.930 . S
C462 C458 1.524 . S
C462 H474 0.956 . S
C462 H475 0.961 . S
C462 H476 0.961 . S
C463 C460 1.539 . S
C463 H477 0.958 . S
C463 H478 0.961 . S
C463 H479 0.960 . S
H464 C448 0.931 . S
H465 C453 0.929 . S
H466 C454 0.960 1_455 S
H467 C454 0.962 1_456 S
H468 C454 0.960 . S
H469 C455 0.961 . S
H470 C455 0.961 . S
H471 C455 0.961 . S
H472 C456 0.931 . S
H473 C461 0.930 . S
H474 C462 0.956 . S
H475 C462 0.961 . S
H476 C462 0.961 . S
H477 C463 0.958 . S
H478 C463 0.961 . S
H479 C463 0.960 . S
C480 C481 1.391 . S
C480 C482 1.394 . S
C480 H496 0.931 . S
C481 C480 1.391 . S
C481 C485 1.376 1_554 S
C482 C480 1.394 . S
C482 C483 1.369 1_455 S
C482 C486 1.531 1_455 S
C483 C482 1.369 1_655 S
C483 C484 1.410 1_654 S
C483 C491 1.503 . S
C484 C483 1.410 1_456 S
C484 C485 1.392 . S
C484 C487 1.511 1_455 S
C485 C481 1.376 1_556 S
C485 C484 1.392 . S
C485 H497 0.929 . S
C486 C482 1.531 1_655 S
C486 H498 0.960 . S
C486 H499 0.962 . S
C486 H500 0.960 1_655 S
C487 C484 1.511 1_655 S
C487 H501 0.961 1_655 S
C487 H502 0.961 . S
C487 H503 0.961 . S
C488 C489 1.370 . S
C488 C490 1.363 . S
C488 H504 0.931 . S
C489 C488 1.370 . S
C489 C493 1.408 . S
C490 C488 1.363 . S
C490 C491 1.370 . S
C490 C494 1.524 . S
C491 C483 1.503 . S
C491 C490 1.370 . S
C491 C492 1.403 . S
C492 C491 1.403 . S
C492 C493 1.404 . S
C492 C495 1.539 1_554 S
C493 C489 1.408 . S
C493 C492 1.404 . S
C493 H505 0.930 1_554 S
C494 C490 1.524 . S
C494 H506 0.956 . S
C494 H507 0.961 . S
C494 H508 0.961 . S
C495 C492 1.539 1_556 S
C495 H509 0.958 1_556 S
C495 H510 0.961 . S
C495 H511 0.960 . S
H496 C480 0.931 . S
H497 C485 0.929 . S
H498 C486 0.960 . S
H499 C486 0.962 . S
H500 C486 0.960 1_455 S
H501 C487 0.961 1_455 S
H502 C487 0.961 . S
H503 C487 0.961 . S
H504 C488 0.931 . S
H505 C493 0.930 1_556 S
H506 C494 0.956 . S
H507 C494 0.961 . S
H508 C494 0.961 . S
H509 C495 0.958 1_554 S
H510 C495 0.961 . S
H511 C495 0.960 . S
C512 C513 1.391 . S
C512 C514 1.394 . S
C512 H528 0.931 . S
C513 C512 1.391 . S
C513 C517 1.376 . S
C514 C512 1.394 . S
C514 C515 1.369 . S
C514 C518 1.531 . S
C515 C514 1.369 . S
C515 C516 1.410 . S
C515 C523 1.503 . S
C516 C515 1.410 . S
C516 C517 1.392 . S
C516 C519 1.511 . S
C517 C513 1.376 . S
C517 C516 1.392 . S
C517 H529 0.929 . S
C518 C514 1.531 . S
C518 H530 0.960 . S
C518 H531 0.962 . S
C518 H532 0.960 . S
C519 C516 1.511 . S
C519 H533 0.961 . S
C519 H534 0.961 . S
C519 H535 0.961 . S
C520 C521 1.370 . S
C520 C522 1.363 . S
C520 H536 0.931 . S
C521 C520 1.370 . S
C521 C525 1.408 . S
C522 C520 1.363 . S
C522 C523 1.370 1_655 S
C522 C526 1.524 1_655 S
C523 C515 1.503 . S
C523 C522 1.370 1_455 S
C523 C524 1.403 1_455 S
C524 C523 1.403 1_655 S
C524 C525 1.404 . S
C524 C527 1.539 . S
C525 C521 1.408 . S
C525 C524 1.404 . S
C525 H537 0.930 . S
C526 C522 1.524 1_455 S
C526 H538 0.956 . S
C526 H539 0.961 . S
C526 H540 0.961 . S
C527 C524 1.539 . S
C527 H541 0.958 . S
C527 H542 0.961 . S
C527 H543 0.960 1_655 S
H528 C512 0.931 . S
H529 C517 0.929 . S
H530 C518 0.960 . S
H531 C518 0.962 . S
H532 C518 0.960 . S
H533 C519 0.961 . S
H534 C519 0.961 . S
H535 C519 0.961 . S
H536 C520 0.931 . S
H537 C525 0.930 . S
H538 C526 0.956 . S
H539 C526 0.961 . S
H540 C526 0.961 . S
H541 C527 0.958 . S
H542 C527 0.961 . S
H543 C527 0.960 1_455 S
C544 C545 1.391 . S
C544 C546 1.394 . S
C544 H560 0.931 . S
C545 C544 1.391 . S
C545 C549 1.376 . S
C546 C544 1.394 . S
C546 C547 1.369 . S
C546 C550 1.531 . S
C547 C546 1.369 . S
C547 C548 1.410 . S
C547 C555 1.503 . S
C548 C547 1.410 . S
C548 C549 1.392 . S
C548 C551 1.511 . S
C549 C545 1.376 . S
C549 C548 1.392 . S
C549 H561 0.929 . S
C550 C546 1.531 . S
C550 H562 0.960 . S
C550 H563 0.962 . S
C550 H564 0.960 . S
C551 C548 1.511 . S
C551 H565 0.961 . S
C551 H566 0.961 . S
C551 H567 0.961 . S
C552 C553 1.370 . S
C552 C554 1.363 . S
C552 H568 0.931 . S
C553 C552 1.370 . S
C553 C557 1.408 . S
C554 C552 1.363 . S
C554 C555 1.370 1_455 S
C554 C558 1.524 1_455 S
C555 C547 1.503 . S
C555 C554 1.370 1_655 S
C555 C556 1.403 1_655 S
C556 C555 1.403 1_455 S
C556 C557 1.404 . S
C556 C559 1.539 1_455 S
C557 C553 1.408 . S
C557 C556 1.404 . S
C557 H569 0.930 . S
C558 C554 1.524 1_655 S
C558 H570 0.956 . S
C558 H571 0.961 . S
C558 H572 0.961 . S
C559 C556 1.539 1_655 S
C559 H573 0.958 . S
C559 H574 0.961 1_655 S
C559 H575 0.960 . S
H560 C544 0.931 . S
H561 C549 0.929 . S
H562 C550 0.960 . S
H563 C550 0.962 . S
H564 C550 0.960 . S
H565 C551 0.961 . S
H566 C551 0.961 . S
H567 C551 0.961 . S
H568 C552 0.931 . S
H569 C557 0.930 . S
H570 C558 0.956 . S
H571 C558 0.961 . S
H572 C558 0.961 . S
H573 C559 0.958 . S
H574 C559 0.961 1_455 S
H575 C559 0.960 . S
C576 C577 1.391 1_556 S
C576 C578 1.394 1_556 S
C576 H592 0.931 . S
C577 C576 1.391 1_554 S
C577 C581 1.376 . S
C578 C576 1.394 1_554 S
C578 C579 1.369 . S
C578 C582 1.531 1_554 S
C579 C578 1.369 . S
C579 C580 1.410 . S
C579 C587 1.503 1_455 S
C580 C579 1.410 . S
C580 C581 1.392 . S
C580 C583 1.511 1_455 S
C581 C577 1.376 . S
C581 C580 1.392 . S
C581 H593 0.929 . S
C582 C578 1.531 1_556 S
C582 H594 0.960 . S
C582 H595 0.962 . S
C582 H596 0.960 . S
C583 C580 1.511 1_655 S
C583 H597 0.961 . S
C583 H598 0.961 . S
C583 H599 0.961 . S
C584 C585 1.370 1_556 S
C584 C586 1.363 . S
C584 H600 0.931 . S
C585 C584 1.370 1_554 S
C585 C589 1.408 . S
C586 C584 1.363 . S
C586 C587 1.370 1_556 S
C586 C590 1.524 . S
C587 C579 1.503 1_655 S
C587 C586 1.370 1_554 S
C587 C588 1.403 1_655 S
C588 C587 1.403 1_455 S
C588 C589 1.404 1_455 S
C588 C591 1.539 . S
C589 C585 1.408 . S
C589 C588 1.404 1_655 S
C589 H601 0.930 . S
C590 C586 1.524 . S
C590 H602 0.956 . S
C590 H603 0.961 . S
C590 H604 0.961 . S
C591 C588 1.539 . S
C591 H605 0.958 . S
C591 H606 0.961 . S
C591 H607 0.960 . S
H592 C576 0.931 . S
H593 C581 0.929 . S
H594 C582 0.960 . S
H595 C582 0.962 . S
H596 C582 0.960 . S
H597 C583 0.961 . S
H598 C583 0.961 . S
H599 C583 0.961 . S
H600 C584 0.931 . S
H601 C589 0.930 . S
H602 C590 0.956 . S
H603 C590 0.961 . S
H604 C590 0.961 . S
H605 C591 0.958 . S
H606 C591 0.961 . S
H607 C591 0.960 . S
C608 C609 1.391 . S
C608 C610 1.394 1_455 S
C608 H624 0.931 1_455 S
C609 C608 1.391 . S
C609 C613 1.376 . S
C610 C608 1.394 1_655 S
C610 C611 1.369 1_655 S
C610 C614 1.531 . S
C611 C610 1.369 1_455 S
C611 C612 1.410 . S
C611 C619 1.503 1_455 S
C612 C611 1.410 . S
C612 C613 1.392 . S
C612 C615 1.511 . S
C613 C609 1.376 . S
C613 C612 1.392 . S
C613 H625 0.929 . S
C614 C610 1.531 . S
C614 H626 0.960 . S
C614 H627 0.962 . S
C614 H628 0.960 . S
C615 C612 1.511 . S
C615 H629 0.961 . S
C615 H630 0.961 . S
C615 H631 0.961 . S
C616 C617 1.370 . S
C616 C618 1.363 . S
C616 H632 0.931 . S
C617 C616 1.370 . S
C617 C621 1.408 . S
C618 C616 1.363 . S
C618 C619 1.370 . S
C618 C622 1.521 1_655 S
C619 C611 1.503 1_655 S
C619 C618 1.370 . S
C619 C620 1.403 . S
C620 C619 1.403 . S
C620 C621 1.404 . S
C620 C623 1.539 . S
C621 C617 1.408 . S
C621 C620 1.404 . S
C621 H633 0.930 . S
C622 C618 1.521 1_455 S
C622 H634 0.953 1_455 S
C622 H635 0.967 . S
C622 H636 0.960 1_455 S
C623 C620 1.539 . S
C623 H637 0.958 . S
C623 H638 0.961 . S
C623 H639 0.960 1_655 S
H624 C608 0.931 1_655 S
H625 C613 0.929 . S
H626 C614 0.960 . S
H627 C614 0.962 . S
H628 C614 0.960 . S
H629 C615 0.961 . S
H630 C615 0.961 . S
H631 C615 0.961 . S
H632 C616 0.931 . S
H633 C621 0.930 . S
H634 C622 0.953 1_655 S
H635 C622 0.967 . S
H636 C622 0.960 1_655 S
H637 C623 0.958 . S
H638 C623 0.961 . S
H639 C623 0.960 1_455 S
C640 C641 1.391 . S
C640 C642 1.394 1_554 S
C640 H656 0.931 1_554 S
C641 C640 1.391 . S
C641 C645 1.376 . S
C642 C640 1.394 1_556 S
C642 C643 1.369 1_556 S
C642 C646 1.531 . S
C643 C642 1.369 1_554 S
C643 C644 1.410 . S
C643 C651 1.503 1_565 S
C644 C643 1.410 . S
C644 C645 1.392 . S
C644 C647 1.511 1_565 S
C645 C641 1.376 . S
C645 C644 1.392 . S
C645 H657 0.929 . S
C646 C642 1.531 . S
C646 H658 0.960 . S
C646 H659 0.962 . S
C646 H660 0.960 . S
C647 C644 1.511 1_545 S
C647 H661 0.961 . S
C647 H662 0.961 . S
C647 H663 0.961 . S
C648 C649 1.370 . S
C648 C650 1.363 . S
C648 H664 0.931 . S
C649 C648 1.370 . S
C649 C653 1.408 1_554 S
C650 C648 1.363 . S
C650 C651 1.370 . S
C650 C654 1.524 . S
C651 C643 1.503 1_545 S
C651 C650 1.370 . S
C651 C652 1.403 1_554 S
C652 C651 1.403 1_556 S
C652 C653 1.404 . S
C652 C655 1.539 . S
C653 C649 1.408 1_556 S
C653 C652 1.404 . S
C653 H665 0.930 . S
C654 C650 1.524 . S
C654 H666 0.956 1_545 S
C654 H667 0.947 1_545 S
C654 H668 0.961 . S
C655 C652 1.539 . S
C655 H669 0.958 . S
C655 H670 0.961 . S
C655 H671 0.960 . S
H656 C640 0.931 1_556 S
H657 C645 0.929 . S
H658 C646 0.960 . S
H659 C646 0.962 . S
H660 C646 0.960 . S
H661 C647 0.961 . S
H662 C647 0.961 . S
H663 C647 0.961 . S
H664 C648 0.931 . S
H665 C653 0.930 . S
H666 C654 0.956 1_565 S
H667 C654 0.947 1_565 S
H668 C654 0.961 . S
H669 C655 0.958 . S
H670 C655 0.961 . S
H671 C655 0.960 . S
C672 C673 1.391 . S
C672 C674 1.394 . S
C672 H688 0.931 . S
C673 C672 1.391 . S
C673 C677 1.376 . S
C674 C672 1.394 . S
C674 C675 1.369 . S
C674 C678 1.531 1_545 S
C675 C674 1.369 . S
C675 C676 1.410 . S
C675 C683 1.503 1_545 S
C676 C675 1.410 . S
C676 C677 1.392 . S
C676 C679 1.511 . S
C677 C673 1.376 . S
C677 C676 1.392 . S
C677 H689 0.929 . S
C678 C674 1.531 1_565 S
C678 H690 0.960 . S
C678 H691 0.962 . S
C678 H692 0.960 1_565 S
C679 C676 1.511 . S
C679 H693 0.961 . S
C679 H694 0.961 . S
C679 H695 0.961 . S
C680 C681 1.370 . S
C680 C682 1.363 . S
C680 H696 0.931 . S
C681 C680 1.370 . S
C681 C685 1.408 . S
C682 C680 1.363 . S
C682 C683 1.370 . S
C682 C686 1.524 . S
C683 C675 1.503 1_565 S
C683 C682 1.370 . S
C683 C684 1.403 . S
C684 C683 1.403 . S
C684 C685 1.404 . S
C684 C687 1.534 1_565 S
C685 C681 1.408 . S
C685 C684 1.404 . S
C685 H697 0.930 . S
C686 C682 1.524 . S
C686 H698 0.956 . S
C686 H699 0.961 . S
C686 H700 0.961 . S
C687 C684 1.534 1_545 S
C687 H701 0.957 1_545 S
C687 H702 0.960 1_545 S
C687 H703 0.967 . S
H688 C672 0.931 . S
H689 C677 0.929 . S
H690 C678 0.960 . S
H691 C678 0.962 . S
H692 C678 0.960 1_545 S
H693 C679 0.961 . S
H694 C679 0.961 . S
H695 C679 0.961 . S
H696 C680 0.931 . S
H697 C685 0.930 . S
H698 C686 0.956 . S
H699 C686 0.961 . S
H700 C686 0.961 . S
H701 C687 0.957 1_565 S
H702 C687 0.960 1_565 S
H703 C687 0.967 . S
C704 C705 1.391 . S
C704 C706 1.394 . S
C704 H720 0.931 . S
C705 C704 1.391 . S
C705 C709 1.376 . S
C706 C704 1.394 . S
C706 C707 1.369 . S
C706 C710 1.531 . S
C707 C706 1.369 . S
C707 C708 1.410 . S
C707 C715 1.503 . S
C708 C707 1.410 . S
C708 C709 1.392 . S
C708 C711 1.511 . S
C709 C705 1.376 . S
C709 C708 1.392 . S
C709 H721 0.929 . S
C710 C706 1.531 . S
C710 H722 0.960 . S
C710 H723 0.962 1_554 S
C710 H724 0.960 . S
C711 C708 1.511 . S
C711 H725 0.961 . S
C711 H726 0.961 . S
C711 H727 0.961 . S
C712 C713 1.370 1_556 S
C712 C714 1.363 . S
C712 H728 0.931 . S
C713 C712 1.370 1_554 S
C713 C717 1.408 . S
C714 C712 1.363 . S
C714 C715 1.370 1_556 S
C714 C718 1.524 . S
C715 C707 1.503 . S
C715 C714 1.370 1_554 S
C715 C716 1.403 . S
C716 C715 1.403 . S
C716 C717 1.404 . S
C716 C719 1.539 . S
C717 C713 1.408 . S
C717 C716 1.404 . S
C717 H729 0.930 . S
C718 C714 1.524 . S
C718 H730 0.956 . S
C718 H731 0.961 . S
C718 H732 0.961 . S
C719 C716 1.539 . S
C719 H733 0.958 . S
C719 H734 0.961 . S
C719 H735 0.960 . S
H720 C704 0.931 . S
H721 C709 0.929 . S
H722 C710 0.960 . S
H723 C710 0.962 1_556 S
H724 C710 0.960 . S
H725 C711 0.961 . S
H726 C711 0.961 . S
H727 C711 0.961 . S
H728 C712 0.931 . S
H729 C717 0.930 . S
H730 C718 0.956 . S
H731 C718 0.961 . S
H732 C718 0.961 . S
H733 C719 0.958 . S
H734 C719 0.961 . S
H735 C719 0.960 . S
C736 C737 1.391 . S
C736 C738 1.394 . S
C736 H752 0.931 . S
C737 C736 1.391 . S
C737 C741 1.376 1_554 S
C738 C736 1.394 . S
C738 C739 1.369 . S
C738 C742 1.531 . S
C739 C738 1.369 . S
C739 C740 1.410 . S
C739 C747 1.503 . S
C740 C739 1.410 . S
C740 C741 1.392 1_554 S
C740 C743 1.511 1_554 S
C741 C737 1.376 1_556 S
C741 C740 1.392 1_556 S
C741 H753 0.929 . S
C742 C738 1.531 . S
C742 H754 0.960 . S
C742 H755 0.962 . S
C742 H756 0.960 . S
C743 C740 1.511 1_556 S
C743 H757 0.961 . S
C743 H758 0.961 . S
C743 H759 0.961 1_556 S
C744 C745 1.370 1_556 S
C744 C746 1.363 . S
C744 H760 0.931 . S
C745 C744 1.370 1_554 S
C745 C749 1.408 . S
C746 C744 1.363 . S
C746 C747 1.370 1_556 S
C746 C750 1.524 . S
C747 C739 1.503 . S
C747 C746 1.370 1_554 S
C747 C748 1.403 . S
C748 C747 1.403 . S
C748 C749 1.404 . S
C748 C751 1.539 . S
C749 C745 1.408 . S
C749 C748 1.404 . S
C749 H761 0.930 . S
C750 C746 1.524 . S
C750 H762 0.956 . S
C750 H763 0.961 . S
C750 H764 0.961 . S
C751 C748 1.539 . S
C751 H765 0.958 . S
C751 H766 0.961 . S
C751 H767 0.960 . S
H752 C736 0.931 . S
H753 C741 0.929 . S
H754 C742 0.960 . S
H755 C742 0.962 . S
H756 C742 0.960 . S
H757 C743 0.961 . S
H758 C743 0.961 . S
H759 C743 0.961 1_554 S
H760 C744 0.931 . S
H761 C749 0.930 . S
H762 C750 0.956 . S
H763 C750 0.961 . S
H764 C750 0.961 . S
H765 C751 0.958 . S
H766 C751 0.961 . S
H767 C751 0.960 . S
C768 C769 1.391 . S
C768 C770 1.394 . S
C768 H784 0.931 . S
C769 C768 1.391 . S
C769 C773 1.376 . S
C770 C768 1.394 . S
C770 C771 1.369 . S
C770 C774 1.531 . S
C771 C770 1.369 . S
C771 C772 1.410 . S
C771 C779 1.503 . S
C772 C771 1.410 . S
C772 C773 1.392 . S
C772 C775 1.511 . S
C773 C769 1.376 . S
C773 C772 1.392 . S
C773 H785 0.929 . S
C774 C770 1.531 . S
C774 H786 0.960 . S
C774 H787 0.962 . S
C774 H788 0.960 . S
C775 C772 1.511 . S
C775 H789 0.961 . S
C775 H790 0.961 . S
C775 H791 0.961 . S
C776 C777 1.370 . S
C776 C778 1.363 . S
C776 H792 0.931 . S
C777 C776 1.370 . S
C777 C781 1.408 . S
C778 C776 1.363 . S
C778 C779 1.370 . S
C778 C782 1.524 . S
C779 C771 1.503 . S
C779 C778 1.370 . S
C779 C780 1.403 . S
C780 C779 1.403 . S
C780 C781 1.404 . S
C780 C783 1.539 . S
C781 C777 1.408 . S
C781 C780 1.404 . S
C781 H793 0.930 . S
C782 C778 1.524 . S
C782 H794 0.956 . S
C782 H795 0.961 . S
C782 H796 0.961 . S
C783 C780 1.539 . S
C783 H797 0.958 . S
C783 H798 0.961 . S
C783 H799 0.960 . S
H784 C768 0.931 . S
H785 C773 0.929 . S
H786 C774 0.960 . S
H787 C774 0.962 . S
H788 C774 0.960 . S
H789 C775 0.961 . S
H790 C775 0.961 . S
H791 C775 0.961 . S
H792 C776 0.931 . S
H793 C781 0.930 . S
H794 C782 0.956 . S
H795 C782 0.961 . S
H796 C782 0.961 . S
H797 C783 0.958 . S
H798 C783 0.961 . S
H799 C783 0.960 . S
C800 C801 1.391 . S
C800 C802 1.394 . S
C800 H816 0.931 . S
C801 C800 1.391 . S
C801 C805 1.376 . S
C802 C800 1.394 . S
C802 C803 1.369 . S
C802 C806 1.531 . S
C803 C802 1.369 . S
C803 C804 1.410 . S
C803 C811 1.503 . S
C804 C803 1.410 . S
C804 C805 1.392 . S
C804 C807 1.511 . S
C805 C801 1.376 . S
C805 C804 1.392 . S
C805 H817 0.929 . S
C806 C802 1.531 . S
C806 H818 0.960 . S
C806 H819 0.962 . S
C806 H820 0.960 . S
C807 C804 1.511 . S
C807 H821 0.961 . S
C807 H822 0.961 . S
C807 H823 0.961 . S
C808 C809 1.370 . S
C808 C810 1.363 . S
C808 H824 0.931 . S
C809 C808 1.370 . S
C809 C813 1.408 . S
C810 C808 1.363 . S
C810 C811 1.370 . S
C810 C814 1.524 . S
C811 C803 1.503 . S
C811 C810 1.370 . S
C811 C812 1.403 . S
C812 C811 1.403 . S
C812 C813 1.404 . S
C812 C815 1.539 . S
C813 C809 1.408 . S
C813 C812 1.404 . S
C813 H825 0.930 . S
C814 C810 1.524 . S
C814 H826 0.956 . S
C814 H827 0.961 . S
C814 H828 0.961 . S
C815 C812 1.539 . S
C815 H829 0.958 . S
C815 H830 0.961 . S
C815 H831 0.960 . S
H816 C800 0.931 . S
H817 C805 0.929 . S
H818 C806 0.960 . S
H819 C806 0.962 . S
H820 C806 0.960 . S
H821 C807 0.961 . S
H822 C807 0.961 . S
H823 C807 0.961 . S
H824 C808 0.931 . S
H825 C813 0.930 . S
H826 C814 0.956 . S
H827 C814 0.961 . S
H828 C814 0.961 . S
H829 C815 0.958 . S
H830 C815 0.961 . S
H831 C815 0.960 . S
C832 C833 1.391 . S
C832 C834 1.394 . S
C832 H848 0.931 . S
C833 C832 1.391 . S
C833 C837 1.376 1_455 S
C834 C832 1.394 . S
C834 C835 1.369 . S
C834 C838 1.531 . S
C835 C834 1.369 . S
C835 C836 1.410 1_455 S
C835 C843 1.503 1_455 S
C836 C835 1.410 1_655 S
C836 C837 1.392 . S
C836 C839 1.511 . S
C837 C833 1.376 1_655 S
C837 C836 1.392 . S
C837 H849 0.929 . S
C838 C834 1.531 . S
C838 H850 0.960 . S
C838 H851 0.962 . S
C838 H852 0.960 . S
C839 C836 1.511 . S
C839 H853 0.961 . S
C839 H854 0.961 . S
C839 H855 0.961 . S
C840 C841 1.370 . S
C840 C842 1.363 . S
C840 H856 0.931 . S
C841 C840 1.370 . S
C841 C845 1.408 . S
C842 C840 1.363 . S
C842 C843 1.370 . S
C842 C846 1.524 1_655 S
C843 C835 1.503 1_655 S
C843 C842 1.370 . S
C843 C844 1.403 . S
C844 C843 1.403 . S
C844 C845 1.404 . S
C844 C847 1.539 . S
C845 C841 1.408 . S
C845 C844 1.404 . S
C845 H857 0.930 . S
C846 C842 1.524 1_455 S
C846 H858 0.956 . S
C846 H859 0.961 1_455 S
C846 H860 0.961 . S
C847 C844 1.539 . S
C847 H861 0.958 . S
C847 H862 0.961 . S
C847 H863 0.960 . S
H848 C832 0.931 . S
H849 C837 0.929 . S
H850 C838 0.960 . S
H851 C838 0.962 . S
H852 C838 0.960 . S
H853 C839 0.961 . S
H854 C839 0.961 . S
H855 C839 0.961 . S
H856 C840 0.931 . S
H857 C845 0.930 . S
H858 C846 0.956 . S
H859 C846 0.961 1_655 S
H860 C846 0.961 . S
H861 C847 0.958 . S
H862 C847 0.961 . S
H863 C847 0.960 . S
C864 C865 1.391 1_455 S
C864 C866 1.394 . S
C864 H880 0.931 . S
C865 C864 1.391 1_655 S
C865 C869 1.376 . S
C866 C864 1.394 . S
C866 C867 1.369 1_455 S
C866 C870 1.531 . S
C867 C866 1.369 1_655 S
C867 C868 1.410 . S
C867 C875 1.503 1_655 S
C868 C867 1.410 . S
C868 C869 1.392 . S
C868 C871 1.511 . S
C869 C865 1.376 . S
C869 C868 1.392 . S
C869 H881 0.929 . S
C870 C866 1.531 . S
C870 H882 0.960 . S
C870 H883 0.962 . S
C870 H884 0.960 . S
C871 C868 1.511 . S
C871 H885 0.961 . S
C871 H886 0.961 . S
C871 H887 0.961 . S
C872 C873 1.370 . S
C872 C874 1.363 . S
C872 H888 0.931 . S
C873 C872 1.370 . S
C873 C877 1.410 . S
C874 C872 1.363 . S
C874 C875 1.370 . S
C874 C878 1.524 . S
C875 C867 1.503 1_455 S
C875 C874 1.370 . S
C875 C876 1.403 1_455 S
C876 C875 1.403 1_655 S
C876 C877 1.403 1_655 S
C876 C879 1.539 . S
C877 C873 1.410 . S
C877 C876 1.403 1_455 S
C877 H889 0.929 1_455 S
C878 C874 1.524 . S
C878 H890 0.956 . S
C878 H891 0.961 . S
C878 H892 0.961 . S
C879 C876 1.539 . S
C879 H893 0.958 . S
C879 H894 0.961 . S
C879 H895 0.960 . S
H880 C864 0.931 . S
H881 C869 0.929 . S
H882 C870 0.960 . S
H883 C870 0.962 . S
H884 C870 0.960 . S
H885 C871 0.961 . S
H886 C871 0.961 . S
H887 C871 0.961 . S
H888 C872 0.931 . S
H889 C877 0.929 1_655 S
H890 C878 0.956 . S
H891 C878 0.961 . S
H892 C878 0.961 . S
H893 C879 0.958 . S
H894 C879 0.961 . S
H895 C879 0.960 . S
C896 C897 1.391 . S
C896 C898 1.394 . S
C896 H912 0.931 . S
C897 C896 1.391 . S
C897 C901 1.376 . S
C898 C896 1.394 . S
C898 C899 1.369 . S
C898 C902 1.531 . S
C899 C898 1.369 . S
C899 C900 1.410 . S
C899 C907 1.503 . S
C900 C899 1.410 . S
C900 C901 1.392 . S
C900 C903 1.511 1_655 S
C901 C897 1.376 . S
C901 C900 1.392 . S
C901 H913 0.929 . S
C902 C898 1.531 . S
C902 H914 0.960 . S
C902 H915 0.962 . S
C902 H916 0.960 . S
C903 C900 1.511 1_455 S
C903 H917 0.961 . S
C903 H918 0.961 . S
C903 H919 0.961 1_455 S
C904 C905 1.370 . S
C904 C906 1.363 . S
C904 H920 0.931 . S
C905 C904 1.370 . S
C905 C909 1.408 1_455 S
C906 C904 1.363 . S
C906 C907 1.370 1_455 S
C906 C910 1.524 . S
C907 C899 1.503 . S
C907 C906 1.370 1_655 S
C907 C908 1.403 . S
C908 C907 1.403 . S
C908 C909 1.404 . S
C908 C911 1.539 . S
C909 C905 1.408 1_655 S
C909 C908 1.404 . S
C909 H921 0.930 . S
C910 C906 1.524 . S
C910 H922 0.956 . S
C910 H923 0.961 . S
C910 H924 0.961 . S
C911 C908 1.539 . S
C911 H925 0.958 . S
C911 H926 0.961 . S
C911 H927 0.960 . S
H912 C896 0.931 . S
H913 C901 0.929 . S
H914 C902 0.960 . S
H915 C902 0.962 . S
H916 C902 0.960 . S
H917 C903 0.961 . S
H918 C903 0.961 . S
H919 C903 0.961 1_655 S
H920 C904 0.931 . S
H921 C909 0.930 . S
H922 C910 0.956 . S
H923 C910 0.961 . S
H924 C910 0.961 . S
H925 C911 0.958 . S
H926 C911 0.961 . S
H927 C911 0.960 . S
C928 C929 1.391 . S
C928 C930 1.394 . S
C928 H944 0.931 . S
C929 C928 1.391 . S
C929 C933 1.376 1_655 S
C930 C928 1.394 . S
C930 C931 1.360 1_655 S
C930 C934 1.531 . S
C931 C930 1.360 1_455 S
C931 C932 1.416 . S
C931 C939 1.505 . S
C932 C931 1.416 . S
C932 C933 1.392 . S
C932 C935 1.511 . S
C933 C929 1.376 1_455 S
C933 C932 1.392 . S
C933 H945 0.929 . S
C934 C930 1.531 . S
C934 H946 0.960 . S
C934 H947 0.962 . S
C934 H948 0.960 . S
C935 C932 1.511 . S
C935 H949 0.961 . S
C935 H950 0.961 . S
C935 H951 0.961 . S
C936 C937 1.370 1_655 S
C936 C938 1.363 . S
C936 H952 0.931 . S
C937 C936 1.370 1_455 S
C937 C941 1.408 . S
C938 C936 1.363 . S
C938 C939 1.370 1_655 S
C938 C942 1.524 . S
C939 C931 1.505 . S
C939 C938 1.370 1_455 S
C939 C940 1.403 . S
C940 C939 1.403 . S
C940 C941 1.404 . S
C940 C943 1.539 . S
C941 C937 1.408 . S
C941 C940 1.404 . S
C941 H953 0.930 . S
C942 C938 1.524 . S
C942 H954 0.956 . S
C942 H955 0.961 . S
C942 H956 0.961 . S
C943 C940 1.539 . S
C943 H957 0.958 . S
C943 H958 0.961 . S
C943 H959 0.960 . S
H944 C928 0.931 . S
H945 C933 0.929 . S
H946 C934 0.960 . S
H947 C934 0.962 . S
H948 C934 0.960 . S
H949 C935 0.961 . S
H950 C935 0.961 . S
H951 C935 0.961 . S
H952 C936 0.931 . S
H953 C941 0.930 . S
H954 C942 0.956 . S
H955 C942 0.961 . S
H956 C942 0.961 . S
H957 C943 0.958 . S
H958 C943 0.961 . S
H959 C943 0.960 . S
C960 C961 1.391 . S
C960 C962 1.394 . S
C960 H976 0.931 . S
C961 C960 1.391 . S
C961 C965 1.376 . S
C962 C960 1.394 . S
C962 C963 1.369 . S
C962 C966 1.531 . S
C963 C962 1.369 . S
C963 C964 1.410 . S
C963 C971 1.503 . S
C964 C963 1.410 . S
C964 C965 1.392 . S
C964 C967 1.511 . S
C965 C961 1.376 . S
C965 C964 1.392 . S
C965 H977 0.929 . S
C966 C962 1.531 . S
C966 H978 0.960 . S
C966 H979 0.962 . S
C966 H980 0.960 . S
C967 C964 1.511 . S
C967 H981 0.961 . S
C967 H982 0.961 . S
C967 H983 0.961 . S
C968 C969 1.370 . S
C968 C970 1.363 . S
C968 H984 0.931 . S
C969 C968 1.370 . S
C969 C973 1.408 . S
C970 C968 1.363 . S
C970 C971 1.370 . S
C970 C974 1.524 . S
C971 C963 1.503 . S
C971 C970 1.370 . S
C971 C972 1.403 . S
C972 C971 1.403 . S
C972 C973 1.404 . S
C972 C975 1.539 . S
C973 C969 1.408 . S
C973 C972 1.404 . S
C973 H985 0.930 . S
C974 C970 1.524 . S
C974 H986 0.956 . S
C974 H987 0.961 . S
C974 H988 0.961 . S
C975 C972 1.539 . S
C975 H989 0.958 . S
C975 H990 0.961 . S
C975 H991 0.960 . S
H976 C960 0.931 . S
H977 C965 0.929 . S
H978 C966 0.960 . S
H979 C966 0.962 . S
H980 C966 0.960 . S
H981 C967 0.961 . S
H982 C967 0.961 . S
H983 C967 0.961 . S
H984 C968 0.931 . S
H985 C973 0.930 . S
H986 C974 0.956 . S
H987 C974 0.961 . S
H988 C974 0.961 . S
H989 C975 0.958 . S
H990 C975 0.961 . S
H991 C975 0.960 . S
C992 C993 1.391 . S
C992 C994 1.394 . S
C992 H1008 0.931 . S
C993 C992 1.391 . S
C993 C997 1.376 . S
C994 C992 1.394 . S
C994 C995 1.369 . S
C994 C998 1.531 . S
C995 C994 1.369 . S
C995 C996 1.410 . S
C995 C1003 1.503 . S
C996 C995 1.410 . S
C996 C997 1.392 . S
C996 C999 1.511 . S
C997 C993 1.376 . S
C997 C996 1.392 . S
C997 H1009 0.929 . S
C998 C994 1.531 . S
C998 H1010 0.960 . S
C998 H1011 0.962 . S
C998 H1012 0.960 . S
C999 C996 1.511 . S
C999 H1013 0.961 . S
C999 H1014 0.961 . S
C999 H1015 0.961 . S
C1000 C1001 1.370 . S
C1000 C1002 1.363 . S
C1000 H1016 0.931 . S
C1001 C1000 1.370 . S
C1001 C1005 1.408 . S
C1002 C1000 1.363 . S
C1002 C1003 1.370 . S
C1002 C1006 1.524 . S
C1003 C995 1.503 . S
C1003 C1002 1.370 . S
C1003 C1004 1.403 . S
C1004 C1003 1.403 . S
C1004 C1005 1.404 . S
C1004 C1007 1.539 . S
C1005 C1001 1.408 . S
C1005 C1004 1.404 . S
C1005 H1017 0.930 . S
C1006 C1002 1.524 . S
C1006 H1018 0.956 . S
C1006 H1019 0.961 . S
C1006 H1020 0.961 . S
C1007 C1004 1.539 . S
C1007 H1021 0.958 . S
C1007 H1022 0.961 . S
C1007 H1023 0.960 . S
H1008 C992 0.931 . S
H1009 C997 0.929 . S
H1010 C998 0.960 . S
H1011 C998 0.962 . S
H1012 C998 0.960 . S
H1013 C999 0.961 . S
H1014 C999 0.961 . S
H1015 C999 0.961 . S
H1016 C1000 0.931 . S
H1017 C1005 0.930 . S
H1018 C1006 0.956 . S
H1019 C1006 0.961 . S
H1020 C1006 0.961 . S
H1021 C1007 0.958 . S
H1022 C1007 0.961 . S
H1023 C1007 0.960 . S
C1024 C1025 1.391 . S
C1024 C1026 1.394 . S
C1024 H1040 0.931 . S
C1025 C1024 1.391 . S
C1025 C1029 1.376 . S
C1026 C1024 1.394 . S
C1026 C1027 1.369 . S
C1026 C1030 1.531 . S
C1027 C1026 1.369 . S
C1027 C1028 1.410 . S
C1027 C1035 1.503 . S
C1028 C1027 1.410 . S
C1028 C1029 1.392 . S
C1028 C1031 1.511 . S
C1029 C1025 1.376 . S
C1029 C1028 1.392 . S
C1029 H1041 0.929 . S
C1030 C1026 1.531 . S
C1030 H1042 0.960 . S
C1030 H1043 0.962 . S
C1030 H1044 0.960 . S
C1031 C1028 1.511 . S
C1031 H1045 0.961 . S
C1031 H1046 0.961 . S
C1031 H1047 0.961 . S
C1032 C1033 1.370 . S
C1032 C1034 1.363 . S
C1032 H1048 0.931 . S
C1033 C1032 1.370 . S
C1033 C1037 1.408 . S
C1034 C1032 1.363 . S
C1034 C1035 1.370 . S
C1034 C1038 1.524 . S
C1035 C1027 1.503 . S
C1035 C1034 1.370 . S
C1035 C1036 1.403 . S
C1036 C1035 1.403 . S
C1036 C1037 1.404 . S
C1036 C1039 1.539 . S
C1037 C1033 1.408 . S
C1037 C1036 1.404 . S
C1037 H1049 0.930 . S
C1038 C1034 1.524 . S
C1038 H1050 0.956 . S
C1038 H1051 0.961 . S
C1038 H1052 0.961 . S
C1039 C1036 1.539 . S
C1039 H1053 0.958 . S
C1039 H1054 0.961 . S
C1039 H1055 0.960 . S
H1040 C1024 0.931 . S
H1041 C1029 0.929 . S
H1042 C1030 0.960 . S
H1043 C1030 0.962 . S
H1044 C1030 0.960 . S
H1045 C1031 0.961 . S
H1046 C1031 0.961 . S
H1047 C1031 0.961 . S
H1048 C1032 0.931 . S
H1049 C1037 0.930 . S
H1050 C1038 0.956 . S
H1051 C1038 0.961 . S
H1052 C1038 0.961 . S
H1053 C1039 0.958 . S
H1054 C1039 0.961 . S
H1055 C1039 0.960 . S
C1056 C1057 1.391 . S
C1056 C1058 1.394 . S
C1056 H1072 0.931 . S
C1057 C1056 1.391 . S
C1057 C1061 1.376 . S
C1058 C1056 1.394 . S
C1058 C1059 1.369 . S
C1058 C1062 1.531 . S
C1059 C1058 1.369 . S
C1059 C1060 1.410 . S
C1059 C1067 1.503 . S
C1060 C1059 1.410 . S
C1060 C1061 1.392 . S
C1060 C1063 1.511 . S
C1061 C1057 1.376 . S
C1061 C1060 1.392 . S
C1061 H1073 0.929 . S
C1062 C1058 1.531 . S
C1062 H1074 0.960 . S
C1062 H1075 0.962 . S
C1062 H1076 0.960 . S
C1063 C1060 1.511 . S
C1063 H1077 0.961 . S
C1063 H1078 0.961 . S
C1063 H1079 0.961 . S
C1064 C1065 1.370 . S
C1064 C1066 1.363 . S
C1064 H1080 0.931 . S
C1065 C1064 1.370 . S
C1065 C1069 1.408 . S
C1066 C1064 1.363 . S
C1066 C1067 1.370 . S
C1066 C1070 1.524 . S
C1067 C1059 1.503 . S
C1067 C1066 1.370 . S
C1067 C1068 1.403 . S
C1068 C1067 1.403 . S
C1068 C1069 1.404 . S
C1068 C1071 1.539 . S
C1069 C1065 1.408 . S
C1069 C1068 1.404 . S
C1069 H1081 0.930 . S
C1070 C1066 1.524 . S
C1070 H1082 0.956 . S
C1070 H1083 0.961 . S
C1070 H1084 0.961 . S
C1071 C1068 1.539 . S
C1071 H1085 0.958 . S
C1071 H1086 0.961 . S
C1071 H1087 0.960 . S
H1072 C1056 0.931 . S
H1073 C1061 0.929 . S
H1074 C1062 0.960 . S
H1075 C1062 0.962 . S
H1076 C1062 0.960 . S
H1077 C1063 0.961 . S
H1078 C1063 0.961 . S
H1079 C1063 0.961 . S
H1080 C1064 0.931 . S
H1081 C1069 0.930 . S
H1082 C1070 0.956 . S
H1083 C1070 0.961 . S
H1084 C1070 0.961 . S
H1085 C1071 0.958 . S
H1086 C1071 0.961 . S
H1087 C1071 0.960 . S
C321 C10 2.288 . S
C329 C19 2.312 . S
C353 C50 2.311 . S
C361 C59 2.304 . S
C385 C90 2.310 . S
C393 C99 2.305 . S
C417 C130 2.300 . S
C425 C139 2.306 . S
C449 C170 2.292 . S
C457 C179 2.310 . S
C481 C219 2.316 . S
C489 C210 2.302 . S
C513 C250 2.301 . S
C521 C259 2.306 . S
C545 C299 2.290 . S
C553 C290 2.313 . S
C577 C46 2.630 . S
C585 C15 2.619 . S
C609 C135 2.606 . S
C617 C86 2.623 . S
C641 C175 2.625 . S
C649 C206 2.616 . S
C673 C246 2.601 . S
C681 C295 2.631 . S
C705 C6 1.822 . S
C713 C215 1.835 . S
C737 C166 1.809 . S
C745 C55 1.840 . S
C769 C95 1.823 . S
C777 C286 1.831 . S
C801 C126 1.852 . S
C809 C255 1.821 . S
C833 C9 1.602 . S
C841 C129 1.597 . S
C865 C49 1.504 . S
C873 C89 1.487 . S
C897 C58 1.588 . S
C905 C98 1.570 . S
C929 C138 1.494 . S
C937 C18 1.488 . S
C961 C169 1.571 . S
C969 C289 1.592 . S
C993 C209 1.447 . S
C1001 C249 1.471 . S
C1025 C218 1.602 . S
C1033 C258 1.596 . S
C1057 C298 1.447 . S
C1065 C178 1.466 . S
