# Generated by pormake.
# Topology ure, (4)-cn, num edge types: 1
# Building blocks:
#     Node 0, Type 0, BuildingBlock: UXUYUI_clean_sbu_0, # of connection points: 4
#     Node 1, Type 0, BuildingBlock: UXUYUI_clean_sbu_0, # of connection points: 4
#     Node 2, Type 0, BuildingBlock: UXUYUI_clean_sbu_0, # of connection points: 4
#     Node 3, Type 0, BuildingBlock: UXUYUI_clean_sbu_0, # of connection points: 4
#     Node 4, Type 0, BuildingBlock: UXUYUI_clean_sbu_0, # of connection points: 4
#     Node 5, Type 0, BuildingBlock: UXUYUI_clean_sbu_0, # of connection points: 4
#     Node 6, Type 0, BuildingBlock: UXUYUI_clean_sbu_0, # of connection points: 4
#     Node 7, Type 0, BuildingBlock: UXUYUI_clean_sbu_0, # of connection points: 4
#     Node 8, Type 0, BuildingBlock: UXUYUI_clean_sbu_0, # of connection points: 4
#     Node 9, Type 0, BuildingBlock: UXUYUI_clean_sbu_0, # of connection points: 4
#     Node 10, Type 0, BuildingBlock: UXUYUI_clean_sbu_0, # of connection points: 4
#     Node 11, Type 0, BuildingBlock: UXUYUI_clean_sbu_0, # of connection points: 4
#     Node 12, Type 0, BuildingBlock: UXUYUI_clean_sbu_0, # of connection points: 4
#     Node 13, Type 0, BuildingBlock: UXUYUI_clean_sbu_0, # of connection points: 4
#     Node 14, Type 0, BuildingBlock: UXUYUI_clean_sbu_0, # of connection points: 4
#     Node 15, Type 0, BuildingBlock: UXUYUI_clean_sbu_0, # of connection points: 4
#     Edge 16, Type (0, 0), BuildingBlock: CIFDUS_clean_linker_0, # of connection points: 2
#     Edge 17, Type (0, 0), BuildingBlock: CIFDUS_clean_linker_0, # of connection points: 2
#     Edge 18, Type (0, 0), BuildingBlock: CIFDUS_clean_linker_0, # of connection points: 2
#     Edge 19, Type (0, 0), BuildingBlock: CIFDUS_clean_linker_0, # of connection points: 2
#     Edge 20, Type (0, 0), BuildingBlock: CIFDUS_clean_linker_0, # of connection points: 2
#     Edge 21, Type (0, 0), BuildingBlock: CIFDUS_clean_linker_0, # of connection points: 2
#     Edge 22, Type (0, 0), BuildingBlock: CIFDUS_clean_linker_0, # of connection points: 2
#     Edge 23, Type (0, 0), BuildingBlock: CIFDUS_clean_linker_0, # of connection points: 2
#     Edge 24, Type (0, 0), BuildingBlock: CIFDUS_clean_linker_0, # of connection points: 2
#     Edge 25, Type (0, 0), BuildingBlock: CIFDUS_clean_linker_0, # of connection points: 2
#     Edge 26, Type (0, 0), BuildingBlock: CIFDUS_clean_linker_0, # of connection points: 2
#     Edge 27, Type (0, 0), BuildingBlock: CIFDUS_clean_linker_0, # of connection points: 2
#     Edge 28, Type (0, 0), BuildingBlock: CIFDUS_clean_linker_0, # of connection points: 2
#     Edge 29, Type (0, 0), BuildingBlock: CIFDUS_clean_linker_0, # of connection points: 2
#     Edge 30, Type (0, 0), BuildingBlock: CIFDUS_clean_linker_0, # of connection points: 2
#     Edge 31, Type (0, 0), BuildingBlock: CIFDUS_clean_linker_0, # of connection points: 2
#     Edge 32, Type (0, 0), BuildingBlock: CIFDUS_clean_linker_0, # of connection points: 2
#     Edge 33, Type (0, 0), BuildingBlock: CIFDUS_clean_linker_0, # of connection points: 2
#     Edge 34, Type (0, 0), BuildingBlock: CIFDUS_clean_linker_0, # of connection points: 2
#     Edge 35, Type (0, 0), BuildingBlock: CIFDUS_clean_linker_0, # of connection points: 2
#     Edge 36, Type (0, 0), BuildingBlock: CIFDUS_clean_linker_0, # of connection points: 2
#     Edge 37, Type (0, 0), BuildingBlock: CIFDUS_clean_linker_0, # of connection points: 2
#     Edge 38, Type (0, 0), BuildingBlock: CIFDUS_clean_linker_0, # of connection points: 2
#     Edge 39, Type (0, 0), BuildingBlock: CIFDUS_clean_linker_0, # of connection points: 2
#     Edge 40, Type (0, 0), BuildingBlock: CIFDUS_clean_linker_0, # of connection points: 2
#     Edge 41, Type (0, 0), BuildingBlock: CIFDUS_clean_linker_0, # of connection points: 2
#     Edge 42, Type (0, 0), BuildingBlock: CIFDUS_clean_linker_0, # of connection points: 2
#     Edge 43, Type (0, 0), BuildingBlock: CIFDUS_clean_linker_0, # of connection points: 2
#     Edge 44, Type (0, 0), BuildingBlock: CIFDUS_clean_linker_0, # of connection points: 2
#     Edge 45, Type (0, 0), BuildingBlock: CIFDUS_clean_linker_0, # of connection points: 2
#     Edge 46, Type (0, 0), BuildingBlock: CIFDUS_clean_linker_0, # of connection points: 2
#     Edge 47, Type (0, 0), BuildingBlock: CIFDUS_clean_linker_0, # of connection points: 2
# Relax obj value: 0.164
# Max RMSD: 0.090
# Mean RMSD: 0.090
data_MOF--net-ure--node1-UXUYUI_clean_sbu_0--edge1-CIFDUS_clean_linker_0
_symmetry_space_group_name_H-M    P1
_symmetry_Int_Tables_number       1
_symmetry_cell_setting            triclinic
loop_
_symmetry_equiv_pos_as_xyz
'x, y, z'
_cell_length_a     42.640224
_cell_length_b     42.552522
_cell_length_c     42.574581
_cell_angle_alpha  90.11477
_cell_angle_beta   90.096296
_cell_angle_gamma 90.188936
loop_
_atom_site_label
_atom_site_type_symbol
_atom_site_fract_x
_atom_site_fract_y
_atom_site_fract_z
_atom_type_partial_charge
Li0 Li 0.26292 0.30279 0.26598 0.0
Li1 Li 0.26492 0.25967 0.30213 0.0
Li2 Li 0.3031 0.26189 0.2613 0.0
Li3 Li 0.24771 0.2479 0.24942 0.0
C4 C 0.3201 0.31458 0.29446 0.0
N5 N 0.36654 0.36001 0.2923 0.0
C6 C 0.33552 0.32388 0.32196 0.0
C7 C 0.32827 0.32847 0.26586 0.0
C8 C 0.35894 0.34687 0.32038 0.0
C9 C 0.35182 0.35136 0.26526 0.0
C10 C 0.20272 0.27918 0.30011 0.0
C11 C 0.15209 0.26218 0.3188 0.0
N12 N 0.15303 0.28496 0.34125 0.0
C13 C 0.2031 0.30256 0.32321 0.0
C14 C 0.17695 0.25892 0.29773 0.0
C15 C 0.17779 0.30504 0.34385 0.0
C16 C 0.24852 0.36179 0.2358 0.0
N17 N 0.2556 0.34699 0.2632 0.0
C18 C 0.25975 0.39617 0.29009 0.0
C19 C 0.26057 0.36346 0.29016 0.0
C20 C 0.25348 0.41222 0.26205 0.0
C21 C 0.24709 0.39469 0.23475 0.0
H22 H 0.24492 0.34813 0.21464 0.0
H23 H 0.26634 0.35118 0.31159 0.0
C24 C 0.29088 0.25253 0.36068 0.0
N25 N 0.26259 0.2501 0.34614 0.0
C26 C 0.29324 0.24969 0.39319 0.0
C27 C 0.23742 0.24021 0.39535 0.0
C28 C 0.23621 0.24291 0.36261 0.0
C29 C 0.26615 0.24441 0.41117 0.0
H30 H 0.31167 0.25725 0.34694 0.0
H31 H 0.2141 0.23995 0.3506 0.0
C32 C 0.28296 0.26761 0.19809 0.0
N33 N 0.29692 0.24349 0.13947 0.0
C34 C 0.29498 0.23722 0.19517 0.0
C35 C 0.27807 0.28575 0.17121 0.0
C36 C 0.30187 0.22545 0.16533 0.0
C37 C 0.28528 0.27313 0.14178 0.0
C38 C 0.27088 0.19992 0.29423 0.0
C39 C 0.294 0.18396 0.31112 0.0
C40 C 0.23938 0.1916 0.29815 0.0
C41 C 0.28518 0.16007 0.3318 0.0
C42 C 0.23151 0.16758 0.31903 0.0
N43 N 0.25438 0.15246 0.33531 0.0
C44 C 0.36263 0.23983 0.27555 0.0
C45 C 0.36144 0.26723 0.22717 0.0
C46 C 0.39488 0.23531 0.27289 0.0
N47 N 0.34656 0.25521 0.25275 0.0
C48 C 0.39387 0.26359 0.22373 0.0
C49 C 0.41093 0.24735 0.24677 0.0
H50 H 0.35045 0.23182 0.29627 0.0
H51 H 0.34834 0.28023 0.20978 0.0
C52 C 0.19437 0.23386 0.21032 0.0
N53 N 0.2216 0.22266 0.22257 0.0
C54 C 0.17621 0.21508 0.19016 0.0
C55 C 0.21448 0.17372 0.1957 0.0
C56 C 0.23175 0.19317 0.21577 0.0
C57 C 0.18635 0.1846 0.1824 0.0
H58 H 0.18687 0.25745 0.21604 0.0
H59 H 0.25344 0.18476 0.22585 0.0
O60 O 0.29703 0.29214 0.29577 0.0
O61 O 0.22714 0.27642 0.27955 0.0
O62 O 0.27573 0.27961 0.22701 0.0
O63 O 0.27879 0.22413 0.27463 0.0
H64 H 0.32938 0.31355 0.34434 0.0
H65 H 0.31655 0.32178 0.24433 0.0
H66 H 0.37105 0.35428 0.3415 0.0
H67 H 0.35836 0.36227 0.24329 0.0
H68 H 0.13203 0.24661 0.3173 0.0
H69 H 0.22289 0.31831 0.32546 0.0
H70 H 0.17616 0.24087 0.2798 0.0
H71 H 0.17787 0.32288 0.36198 0.0
H72 H 0.26455 0.40884 0.31168 0.0
H73 H 0.24235 0.4063 0.21264 0.0
H74 H 0.31607 0.25208 0.40414 0.0
H75 H 0.21589 0.23601 0.40814 0.0
H76 H 0.29905 0.22288 0.21569 0.0
H77 H 0.26877 0.30931 0.17308 0.0
H78 H 0.31117 0.20197 0.16273 0.0
H79 H 0.2816 0.2869 0.12077 0.0
H80 H 0.31848 0.18992 0.3084 0.0
H81 H 0.22116 0.20385 0.2855 0.0
H82 H 0.30283 0.14761 0.34509 0.0
H83 H 0.20721 0.16106 0.32239 0.0
H84 H 0.4073 0.2233 0.29153 0.0
H85 H 0.40546 0.27335 0.20332 0.0
H86 H 0.15483 0.22454 0.18027 0.0
H87 H 0.223 0.15027 0.19081 0.0
Li88 Li 0.99484 0.05226 0.50966 0.0
Li89 Li 0.9564 0.01163 0.51368 0.0
Li90 Li 0.9957 0.01369 0.55329 0.0
Li91 Li 0.00808 0.99439 0.49821 0.0
C92 C 0.96681 0.07107 0.56423 0.0
N93 N 0.97297 0.1209 0.60565 0.0
C94 C 0.94018 0.08605 0.57613 0.0
C95 C 0.99653 0.08144 0.57358 0.0
C96 C 0.94379 0.11118 0.59701 0.0
C97 C 0.99919 0.10665 0.59446 0.0
C98 C 0.95694 0.01903 0.45368 0.0
C99 C 0.92858 0.98446 0.41876 0.0
N100 N 0.90839 0.00821 0.41201 0.0
C101 C 0.93606 0.04316 0.44628 0.0
C102 C 0.95331 0.98947 0.43977 0.0
C103 C 0.9116 0.03719 0.42521 0.0
C104 C 0.0308 0.10758 0.4954 0.0
N105 N 1.00161 0.09528 0.4993 0.0
C106 C 0.97866 0.14637 0.49638 0.0
C107 C 0.97572 0.11383 0.4992 0.0
C108 C 0.00858 0.16 0.49365 0.0
C109 C 0.03485 0.1401 0.49258 0.0
H110 H 0.05096 0.09225 0.49535 0.0
H111 H 0.95282 0.10341 0.50263 0.0
C112 C 0.89796 0.97823 0.49835 0.0
N113 N 0.91188 0.00539 0.50813 0.0
C114 C 0.86521 0.97539 0.4984 0.0
C115 C 0.86184 0.02907 0.51655 0.0
C116 C 0.89446 0.03084 0.51611 0.0
C117 C 0.84676 1.00085 0.50838 0.0
H118 H 0.91215 0.95858 0.49102 0.0
H119 H 0.90598 0.05256 0.5224 0.0
C120 C 0.06079 0.0228 0.53678 0.0
N121 N 0.12088 0.01478 0.55993 0.0
C122 C 0.07383 0.99278 0.53864 0.0
C123 C 0.07848 0.0488 0.54655 0.0
C124 C 0.10419 0.98918 0.55044 0.0
C125 C 0.10876 0.04425 0.55825 0.0
C126 C 0.95949 0.95351 0.53954 0.0
C127 C 0.93932 0.95936 0.5647 0.0
C128 C 0.95738 0.92502 0.52325 0.0
C129 C 0.9172 0.9366 0.57309 0.0
C130 C 0.93499 0.90284 0.53241 0.0
N131 N 0.91552 0.90904 0.55691 0.0
C132 C 0.98029 0.01824 0.61763 0.0
C133 C 0.02888 0.99288 0.60925 0.0
C134 C 0.98384 0.01576 0.65007 0.0
N135 N 0.00301 0.00771 0.59783 0.0
C136 C 0.0331 0.98929 0.64167 0.0
C137 C 0.01057 1.00127 0.66244 0.0
H138 H 0.95904 0.02832 0.60835 0.0
H139 H 0.04609 0.98348 0.59337 0.0
C140 C 0.04568 0.97787 0.44566 0.0
N141 N 0.03338 0.96682 0.47296 0.0
C142 C 0.06524 0.95886 0.42734 0.0
C143 C 0.05893 0.91735 0.46545 0.0
C144 C 0.0393 0.93704 0.48285 0.0
C145 C 0.07241 0.92823 0.43736 0.0
H146 H 0.0406 1.00164 0.4383 0.0
H147 H 0.02934 0.92881 0.50469 0.0
O148 O 0.96363 0.04654 0.54347 0.0
O149 O 0.98047 0.02409 0.47493 0.0
O150 O 0.0313 0.02682 0.52459 0.0
O151 O 0.98117 0.97557 0.53086 0.0
H152 H 0.91692 0.07829 0.56953 0.0
H153 H 0.01732 0.07009 0.56492 0.0
H154 H 0.92338 0.12294 0.60638 0.0
H155 H 0.02209 0.11487 0.60181 0.0
H156 H 0.92534 0.96166 0.40794 0.0
H157 H 0.93853 0.06613 0.45697 0.0
H158 H 0.9692 0.97051 0.44544 0.0
H159 H 0.89512 0.05557 0.4194 0.0
H160 H 0.95781 0.16076 0.49773 0.0
H161 H 0.05831 0.14959 0.49011 0.0
H162 H 0.85454 0.95326 0.49163 0.0
H163 H 0.84855 0.04962 0.52339 0.0
H164 H 0.06038 0.97237 0.53182 0.0
H165 H 0.06905 0.07231 0.54514 0.0
H166 H 0.11441 0.96602 0.55221 0.0
H167 H 0.12264 0.06416 0.56594 0.0
H168 H 0.94039 0.98142 0.57728 0.0
H169 H 0.9726 0.92024 0.50352 0.0
H170 H 0.90131 0.94088 0.59239 0.0
H171 H 0.93299 0.88074 0.51995 0.0
H172 H 0.96555 0.02452 0.66536 0.0
H173 H 0.05386 0.97757 0.65043 0.0
H174 H 0.07529 0.96831 0.406 0.0
H175 H 0.06352 0.89382 0.47391 0.0
Li176 Li 0.20282 0.749 0.75954 0.0
Li177 Li 0.25778 0.76389 0.74545 0.0
Li178 Li 0.2434 0.70851 0.76028 0.0
Li179 Li 0.24287 0.75017 0.7982 0.0
C180 C 0.21867 0.74602 0.69541 0.0
N181 N 0.19863 0.7716 0.63929 0.0
C182 C 0.21133 0.77796 0.6936 0.0
C183 C 0.21576 0.72708 0.66871 0.0
C184 C 0.20128 0.79045 0.665 0.0
C185 C 0.20558 0.74045 0.64055 0.0
C186 C 0.23422 0.81 0.79376 0.0
C187 C 0.27179 0.84293 0.82072 0.0
N188 N 0.24812 0.85586 0.83773 0.0
C189 C 0.21025 0.82374 0.81137 0.0
C190 C 0.26523 0.81972 0.79839 0.0
C191 C 0.21777 0.84683 0.83354 0.0
C192 C 0.14361 0.76412 0.78063 0.0
N193 N 0.15864 0.75452 0.75423 0.0
C194 C 0.10953 0.74472 0.72862 0.0
C195 C 0.14237 0.74515 0.7283 0.0
C196 C 0.09336 0.7538 0.75594 0.0
C197 C 0.11095 0.76429 0.7819 0.0
H198 H 0.15708 0.77027 0.80128 0.0
H199 H 0.15474 0.73649 0.70794 0.0
C200 C 0.306 0.7722 0.70112 0.0
N201 N 0.28456 0.78808 0.71853 0.0
C202 C 0.32688 0.78845 0.6817 0.0
C203 C 0.30317 0.83717 0.69831 0.0
C204 C 0.2825 0.81993 0.71715 0.0
C205 C 0.32599 0.8215 0.68031 0.0
H206 H 0.30693 0.74683 0.70246 0.0
H207 H 0.26502 0.83203 0.73096 0.0
C208 C 0.18862 0.69417 0.79071 0.0
N209 N 0.1431 0.64782 0.78794 0.0
C210 C 0.17532 0.68247 0.81831 0.0
C211 C 0.17882 0.68218 0.76168 0.0
C212 C 0.15233 0.65907 0.81643 0.0
C213 C 0.15577 0.65879 0.76078 0.0
C214 C 0.3044 0.73164 0.79355 0.0
C215 C 0.30472 0.70807 0.81635 0.0
C216 C 0.32989 0.7522 0.79095 0.0
C217 C 0.33049 0.70568 0.8365 0.0
C218 C 0.35524 0.749 0.81152 0.0
N219 N 0.355 0.72602 0.83369 0.0
C220 C 0.25633 0.65397 0.72389 0.0
C221 C 0.2497 0.64539 0.77847 0.0
C222 C 0.25921 0.62166 0.71861 0.0
N223 N 0.25135 0.66506 0.75341 0.0
C224 C 0.25249 0.61299 0.77429 0.0
C225 C 0.25696 0.60067 0.744 0.0
H226 H 0.25744 0.67018 0.70439 0.0
H227 H 0.24523 0.65481 0.80163 0.0
C228 C 0.22057 0.75426 0.85882 0.0
N229 N 0.24751 0.75881 0.8424 0.0
C230 C 0.21986 0.75886 0.89123 0.0
C231 C 0.27454 0.77369 0.8895 0.0
C232 C 0.27416 0.76887 0.85698 0.0
C233 C 0.24714 0.76848 0.9071 0.0
H234 H 0.1995 0.747 0.84663 0.0
H235 H 0.29509 0.77341 0.8435 0.0
O236 O 0.22855 0.73314 0.72312 0.0
O237 O 0.22753 0.78674 0.77251 0.0
O238 O 0.21109 0.71722 0.79233 0.0
O239 O 0.27951 0.73436 0.77352 0.0
H240 H 0.21326 0.793 0.714 0.0
H241 H 0.2212 0.70228 0.66975 0.0
H242 H 0.19554 0.81513 0.66325 0.0
H243 H 0.2032 0.72607 0.6197 0.0
H244 H 0.29571 0.8505 0.82468 0.0
H245 H 0.18611 0.8167 0.808 0.0
H246 H 0.28412 0.80906 0.78526 0.0
H247 H 0.19947 0.85758 0.84742 0.0
H248 H 0.09704 0.73596 0.70823 0.0
H249 H 0.09962 0.77189 0.80335 0.0
H250 H 0.34347 0.77514 0.66784 0.0
H251 H 0.30164 0.86256 0.69842 0.0
H252 H 0.18272 0.69132 0.841 0.0
H253 H 0.18883 0.69075 0.74002 0.0
H254 H 0.14184 0.64983 0.83762 0.0
H255 H 0.14796 0.64936 0.73848 0.0
H256 H 0.28512 0.69208 0.81871 0.0
H257 H 0.33005 0.77044 0.77326 0.0
H258 H 0.33098 0.68769 0.85441 0.0
H259 H 0.3751 0.76479 0.80987 0.0
H260 H 0.26292 0.61319 0.6949 0.0
H261 H 0.25006 0.59771 0.79446 0.0
H262 H 0.19825 0.75434 0.90379 0.0
H263 H 0.29596 0.7817 0.9007 0.0
Li264 Li 0.51 0.99669 0.04744 0.0
Li265 Li 0.51282 0.95833 0.00593 0.0
Li266 Li 0.55276 0.99942 0.00914 0.0
Li267 Li 0.49753 0.01141 0.99073 0.0
C268 C 0.55444 0.95763 0.06814 0.0
N269 N 0.57541 0.94135 0.12734 0.0
C270 C 0.54508 0.9292 0.08164 0.0
C271 C 0.57467 0.97765 0.08463 0.0
C272 C 0.5559 0.92142 0.11162 0.0
C273 C 0.58495 0.96904 0.11456 0.0
C274 C 0.44882 0.96431 0.0142 0.0
C275 C 0.40454 0.95021 0.98167 0.0
N276 N 0.39558 0.9286 0.0034 0.0
C277 C 0.43907 0.94205 0.03627 0.0
C278 C 0.43136 0.9685 0.9867 0.0
C279 C 0.41215 0.92419 0.03035 0.0
C280 C 0.50542 0.03116 0.10505 0.0
N281 N 0.50014 0.00296 0.09088 0.0
C282 C 0.48613 0.97979 0.14002 0.0
C283 C 0.49005 0.9777 0.10757 0.0
C284 C 0.49255 0.00824 0.15556 0.0
C285 C 0.50174 0.03435 0.13755 0.0
H286 H 0.51323 0.05097 0.09128 0.0
H287 H 0.4861 0.95554 0.09586 0.0
C288 C 0.53704 0.89793 0.00313 0.0
N289 N 0.51005 0.91387 0.99726 0.0
C290 C 0.53844 0.86545 0.99887 0.0
C291 C 0.4844 0.86615 0.98183 0.0
C292 C 0.48418 0.89874 0.986 0.0
C293 C 0.51173 0.8491 0.98857 0.0
H294 H 0.55754 0.91051 0.01137 0.0
H295 H 0.46341 0.91176 0.98004 0.0
C296 C 0.541 0.06136 0.02256 0.0
N297 N 0.57575 0.11627 0.02123 0.0
C298 C 0.53742 0.08253 0.99775 0.0
C299 C 0.56214 0.06821 0.04677 0.0
C300 C 0.55521 0.11016 0.99751 0.0
C301 C 0.57955 0.09605 0.04563 0.0
C302 C 0.53406 0.96164 0.94905 0.0
C303 C 0.56348 0.94789 0.94496 0.0
C304 C 0.5084 0.95058 0.93174 0.0
C305 C 0.56672 0.92309 0.92366 0.0
C306 C 0.51261 0.92574 0.91068 0.0
N307 N 0.54143 0.9126 0.90713 0.0
C308 C 0.61577 0.98339 0.01376 0.0
C309 C 0.60892 0.03371 0.99122 0.0
C310 C 0.64827 0.98633 0.01176 0.0
N311 N 0.59679 0.00707 0.00406 0.0
C312 C 0.64142 0.03784 0.98911 0.0
C313 C 0.66164 0.01402 0.9997 0.0
H314 H 0.60562 0.96198 0.02289 0.0
H315 H 0.59349 0.05182 0.98264 0.0
C316 C 0.45323 0.05916 0.97651 0.0
N317 N 0.47288 0.03753 0.96378 0.0
C318 C 0.43527 0.07863 0.9571 0.0
C319 C 0.45777 0.05283 0.9119 0.0
C320 C 0.47556 0.03419 0.93215 0.0
C321 C 0.43731 0.07562 0.92421 0.0
H322 H 0.45174 0.06148 1.00177 0.0
H323 H 0.49153 0.01701 0.92259 0.0
O324 O 0.54365 0.96594 0.03903 0.0
O325 O 0.47484 0.98239 0.01979 0.0
O326 O 0.52367 0.03426 0.02326 0.0
O327 O 0.53021 0.98522 0.97055 0.0
H328 H 0.52925 0.91352 0.06931 0.0
H329 H 0.58227 0.99963 0.07445 0.0
H330 H 0.54868 0.89959 0.12245 0.0
H331 H 0.6005 0.98438 0.12763 0.0
H332 H 0.39088 0.95315 0.96045 0.0
H333 H 0.45227 0.93835 0.05759 0.0
H334 H 0.43845 0.98554 0.96932 0.0
H335 H 0.40445 0.90678 0.04716 0.0
H336 H 0.47853 0.95919 0.15286 0.0
H337 H 0.5071 0.0567 0.14856 0.0
H338 H 0.55997 0.85316 0.00434 0.0
H339 H 0.46349 0.8544 0.97325 0.0
H340 H 0.52126 0.07762 0.97876 0.0
H341 H 0.5652 0.05216 0.06617 0.0
H342 H 0.55274 0.1267 0.97841 0.0
H343 H 0.59609 0.10158 0.06415 0.0
H344 H 0.58353 0.95608 0.95828 0.0
H345 H 0.48536 0.96065 0.93498 0.0
H346 H 0.58932 0.9121 0.92036 0.0
H347 H 0.49292 0.91676 0.89731 0.0
H348 H 0.66273 0.96687 0.01928 0.0
H349 H 0.65054 0.0596 0.97961 0.0
H350 H 0.42034 0.09614 0.96782 0.0
H351 H 0.4599 0.04915 0.88683 0.0
Li352 Li 0.2459 0.76414 0.2582 0.0
Li353 Li 0.25795 0.7084 0.24149 0.0
Li354 Li 0.30002 0.74777 0.24805 0.0
Li355 Li 0.26474 0.75071 0.20311 0.0
C356 C 0.28949 0.72517 0.30546 0.0
N357 N 0.33048 0.71325 0.35431 0.0
C358 C 0.29995 0.69458 0.311 0.0
C359 C 0.29951 0.74961 0.32504 0.0
C360 C 0.32076 0.68905 0.33574 0.0
C361 C 0.32034 0.74314 0.34954 0.0
C362 C 0.19811 0.72078 0.22221 0.0
C363 C 0.16639 0.68132 0.19652 0.0
N364 N 0.14346 0.68591 0.21822 0.0
C365 C 0.1742 0.7252 0.24418 0.0
C366 C 0.19416 0.69877 0.1981 0.0
C367 C 0.14675 0.70732 0.24177 0.0
C368 C 0.20898 0.81822 0.27016 0.0
N369 N 0.21851 0.79036 0.28241 0.0
C370 C 0.18834 0.79946 0.32892 0.0
C371 C 0.20877 0.78078 0.31125 0.0
C372 C 0.17796 0.82845 0.31692 0.0
C373 C 0.1888 0.83775 0.28712 0.0
H374 H 0.21719 0.82532 0.24721 0.0
H375 H 0.21661 0.75844 0.32038 0.0
C376 C 0.27381 0.64536 0.2374 0.0
N377 N 0.24943 0.66425 0.24543 0.0
C378 C 0.27068 0.61278 0.2384 0.0
C379 C 0.21743 0.61926 0.25648 0.0
C380 C 0.22172 0.65189 0.25545 0.0
C381 C 0.24216 0.59928 0.24784 0.0
H382 H 0.29587 0.65563 0.23026 0.0
H383 H 0.20294 0.66724 0.26267 0.0
C384 C 0.29238 0.81351 0.23841 0.0
N385 N 0.32122 0.8701 0.2524 0.0
C386 C 0.30839 0.83008 0.21506 0.0
C387 C 0.29076 0.82589 0.26879 0.0
C388 C 0.32291 0.85859 0.22262 0.0
C389 C 0.30555 0.85449 0.27542 0.0
C390 C 0.30659 0.70643 0.18706 0.0
C391 C 0.33678 0.71581 0.17828 0.0
C392 C 0.28924 0.68666 0.16732 0.0
C393 C 0.34898 0.70546 0.14965 0.0
C394 C 0.30226 0.67686 0.13886 0.0
N395 N 0.3316 0.6864 0.13068 0.0
C396 C 0.35716 0.72054 0.26154 0.0
C397 C 0.36162 0.77597 0.26031 0.0
C398 C 0.38953 0.71748 0.26513 0.0
N399 N 0.34384 0.74939 0.25886 0.0
C400 C 0.39423 0.77399 0.26346 0.0
C401 C 0.40874 0.74439 0.26529 0.0
H402 H 0.34267 0.69972 0.2597 0.0
H403 H 0.35091 0.79871 0.25785 0.0
C404 C 0.23686 0.75385 0.14213 0.0
N405 N 0.26315 0.75991 0.15924 0.0
C406 C 0.23743 0.75642 0.1094 0.0
C407 C 0.29173 0.77255 0.11266 0.0
C408 C 0.29006 0.76982 0.14527 0.0
C409 C 0.26536 0.76524 0.09421 0.0
H410 H 0.21573 0.74612 0.15378 0.0
H411 H 0.31063 0.77444 0.15941 0.0
O412 O 0.2696 0.73113 0.28096 0.0
O413 O 0.22509 0.73815 0.22416 0.0
O414 O 0.27794 0.78562 0.23135 0.0
O415 O 0.29401 0.71673 0.21476 0.0
H416 H 0.29232 0.67535 0.29618 0.0
H417 H 0.29139 0.77334 0.32135 0.0
H418 H 0.32923 0.66553 0.34015 0.0
H419 H 0.32843 0.76188 0.36476 0.0
H420 H 0.16308 0.66409 0.17808 0.0
H421 H 0.1768 0.7422 0.26292 0.0
H422 H 0.21241 0.69503 0.18091 0.0
H423 H 0.12808 0.71043 0.25866 0.0
H424 H 0.18036 0.79096 0.35149 0.0
H425 H 0.182 0.86004 0.27702 0.0
H426 H 0.29033 0.59827 0.23147 0.0
H427 H 0.19522 0.60975 0.26438 0.0
H428 H 0.30965 0.82103 0.19135 0.0
H429 H 0.27821 0.81362 0.28706 0.0
H430 H 0.3355 0.87159 0.20481 0.0
H431 H 0.30455 0.86429 0.29886 0.0
H432 H 0.35048 0.73123 0.19321 0.0
H433 H 0.26592 0.67909 0.17384 0.0
H434 H 0.37223 0.71267 0.14246 0.0
H435 H 0.28903 0.66169 0.12328 0.0
H436 H 0.3994 0.69416 0.26704 0.0
H437 H 0.40794 0.79544 0.26304 0.0
H438 H 0.2166 0.75038 0.09608 0.0
H439 H 0.3136 0.77984 0.10198 0.0
Li440 Li 0.55166 0.0048 0.49075 0.0
Li441 Li 0.5152 0.04742 0.49213 0.0
Li442 Li 0.49893 0.99243 0.50703 0.0
Li443 Li 0.51206 0.00658 0.45167 0.0
C444 C 0.54881 0.02382 0.55267 0.0
N445 N 0.58984 0.02885 0.60269 0.0
C446 C 0.57207 0.04702 0.5527 0.0
C447 C 0.54618 0.00335 0.57817 0.0
C448 C 0.59267 0.04912 0.57818 0.0
C449 C 0.56721 0.00624 0.60323 0.0
C450 C 0.54432 0.06034 0.43621 0.0
C451 C 0.51446 0.09593 0.40389 0.0
N452 N 0.54152 0.10644 0.39064 0.0
C453 C 0.57182 0.07154 0.4223 0.0
C454 C 0.51537 0.07268 0.42698 0.0
C455 C 0.56992 0.09483 0.3993 0.0
C456 C 0.61163 0.99931 0.46702 0.0
N457 N 0.5957 0.99534 0.49436 0.0
C458 C 0.64315 0.98114 0.52084 0.0
C459 C 0.61067 0.98572 0.52091 0.0
C460 C 0.66029 0.98606 0.49308 0.0
C461 C 0.64399 0.99484 0.46583 0.0
H462 H 0.59914 0.00625 0.44605 0.0
H463 H 0.59757 0.98159 0.54217 0.0
C464 C 0.48202 0.10364 0.50761 0.0
N465 N 0.51042 0.09119 0.50033 0.0
C466 C 0.47877 0.13615 0.51146 0.0
C467 C 0.53408 0.14217 0.50053 0.0
C468 C 0.53627 0.10967 0.49709 0.0
C469 C 0.50499 0.15588 0.50752 0.0
H470 H 0.46182 0.08838 0.50991 0.0
H471 H 0.55857 0.09916 0.49123 0.0
C472 C 0.54541 0.9452 0.48237 0.0
N473 N 0.58865 0.89873 0.49529 0.0
C474 C 0.56218 0.9311 0.45798 0.0
C475 C 0.55049 0.93552 0.51332 0.0
C476 C 0.584 0.9077 0.465 0.0
C477 C 0.57245 0.912 0.51937 0.0
C478 C 0.44847 0.01155 0.46972 0.0
C479 C 0.44546 0.97981 0.46165 0.0
C480 C 0.42213 0.03097 0.46904 0.0
C481 C 0.41605 0.96803 0.45307 0.0
C482 C 0.39313 0.0183 0.46029 0.0
N483 N 0.39071 0.98735 0.45257 0.0
C484 C 0.45335 0.98456 0.55458 0.0
C485 C 0.46896 0.93697 0.53032 0.0
C486 C 0.43195 0.9684 0.57354 0.0
N487 N 0.4713 0.96871 0.53351 0.0
C488 C 0.44814 0.91983 0.54907 0.0
C489 C 0.42915 0.93556 0.57095 0.0
H490 H 0.4555 0.00983 0.55644 0.0
H491 H 0.48298 0.92495 0.51295 0.0
C492 C 0.53024 0.98924 0.3918 0.0
N493 N 0.50494 1.00007 0.4078 0.0
C494 C 0.52911 0.98582 0.35924 0.0
C495 C 0.47604 0.00555 0.3599 0.0
C496 C 0.47815 0.00842 0.39258 0.0
C497 C 0.50179 0.99411 0.34282 0.0
H498 H 0.55169 0.98415 0.40432 0.0
H499 H 0.45868 0.01806 0.40557 0.0
O500 O 0.52834 0.02139 0.52808 0.0
O501 O 0.54597 0.03752 0.45881 0.0
O502 O 0.52457 0.96878 0.47617 0.0
O503 O 0.47695 0.02367 0.4784 0.0
H504 H 0.57443 0.06297 0.5331 0.0
H505 H 0.52813 0.98541 0.57856 0.0
H506 H 0.61093 0.06682 0.57844 0.0
H507 H 0.56555 0.99051 0.62308 0.0
H508 H 0.49222 0.10565 0.39652 0.0
H509 H 0.59444 0.06241 0.42926 0.0
H510 H 0.4938 0.06452 0.43749 0.0
H511 H 0.59104 0.10371 0.38835 0.0
H512 H 0.65472 0.9738 0.54225 0.0
H513 H 0.6562 0.99907 0.44395 0.0
H514 H 0.45587 0.14579 0.51661 0.0
H515 H 0.55496 0.15645 0.49772 0.0
H516 H 0.55846 0.93812 0.43389 0.0
H517 H 0.53797 0.94642 0.53252 0.0
H518 H 0.59723 0.89668 0.44636 0.0
H519 H 0.57676 0.90445 0.54323 0.0
H520 H 0.46556 0.96441 0.46189 0.0
H521 H 0.42409 0.0556 0.47517 0.0
H522 H 0.41337 0.94352 0.44679 0.0
H523 H 0.37254 0.03307 0.45965 0.0
H524 H 0.41788 0.98143 0.59021 0.0
H525 H 0.4464 0.89462 0.54597 0.0
H526 H 0.54976 0.97763 0.34695 0.0
H527 H 0.45456 0.01228 0.34812 0.0
Li528 Li 0.25653 0.24863 0.76232 0.0
Li529 Li 0.24704 0.30356 0.74177 0.0
Li530 Li 0.20572 0.26607 0.74506 0.0
Li531 Li 0.24318 0.25885 0.70482 0.0
C532 C 0.20932 0.28919 0.80321 0.0
N533 N 0.16456 0.30146 0.8485 0.0
C534 C 0.19039 0.31584 0.8009 0.0
C535 C 0.20546 0.26878 0.82864 0.0
C536 C 0.16786 0.3216 0.82397 0.0
C537 C 0.18275 0.27542 0.8513 0.0
C538 C 0.31063 0.28241 0.73687 0.0
C539 C 0.36296 0.29768 0.72159 0.0
N540 N 0.37091 0.3009 0.75238 0.0
C541 C 0.31928 0.28607 0.76835 0.0
C542 C 0.33261 0.28833 0.71327 0.0
C543 C 0.34989 0.29533 0.77572 0.0
C544 C 0.2954 0.19695 0.77774 0.0
N545 N 0.28111 0.22276 0.78993 0.0
C546 C 0.30172 0.21133 0.84096 0.0
C547 C 0.28422 0.23038 0.82083 0.0
C548 C 0.31664 0.18445 0.8291 0.0
C549 C 0.31353 0.17746 0.79697 0.0
H550 H 0.29268 0.19151 0.75305 0.0
H551 H 0.27347 0.25151 0.82981 0.0
C552 C 0.23129 0.36714 0.74019 0.0
N553 N 0.25629 0.34797 0.7451 0.0
C554 C 0.23466 0.39972 0.74156 0.0
C555 C 0.28959 0.39273 0.75326 0.0
C556 C 0.28518 0.36019 0.75144 0.0
C557 C 0.26411 0.41295 0.74823 0.0
H558 H 0.20852 0.35712 0.73514 0.0
H559 H 0.30493 0.34498 0.75502 0.0
C560 C 0.20413 0.20496 0.74114 0.0
N561 N 0.15662 0.16344 0.75635 0.0
C562 C 0.1812 0.19721 0.71892 0.0
C563 C 0.20306 0.19144 0.77101 0.0
C564 C 0.15731 0.17624 0.7271 0.0
C565 C 0.17882 0.17051 0.77825 0.0
C566 C 0.21948 0.31489 0.68496 0.0
C567 C 0.19434 0.33099 0.67135 0.0
C568 C 0.2498 0.31985 0.67343 0.0
C569 C 0.19992 0.3515 0.64639 0.0
C570 C 0.25441 0.34053 0.64841 0.0
N571 N 0.22958 0.35579 0.63551 0.0
C572 C 0.14663 0.25005 0.77676 0.0
C573 C 0.14382 0.27428 0.72687 0.0
C574 C 0.11392 0.25065 0.77944 0.0
N575 N 0.16094 0.26264 0.75111 0.0
C576 C 0.11124 0.27533 0.7285 0.0
C577 C 0.09584 0.26402 0.75531 0.0
H578 H 0.16043 0.23963 0.79522 0.0
H579 H 0.15548 0.28274 0.70611 0.0
C580 C 0.27629 0.24267 0.64824 0.0
N581 N 0.24789 0.24612 0.66225 0.0
C582 C 0.27809 0.23682 0.61594 0.0
C583 C 0.22143 0.23701 0.61354 0.0
C584 C 0.22075 0.24323 0.64571 0.0
C585 C 0.25037 0.23418 0.59817 0.0
H586 H 0.29749 0.2452 0.66196 0.0
H587 H 0.19854 0.24678 0.65739 0.0
O588 O 0.23162 0.28328 0.78088 0.0
O589 O 0.28098 0.27272 0.72912 0.0
O590 O 0.22737 0.2259 0.73383 0.0
O591 O 0.21426 0.29479 0.70962 0.0
H592 H 0.19282 0.33175 0.78136 0.0
H593 H 0.21926 0.24762 0.83053 0.0
H594 H 0.15298 0.34207 0.82234 0.0
H595 H 0.17942 0.25973 0.87098 0.0
H596 H 0.38018 0.30236 0.70355 0.0
H597 H 0.30234 0.28269 0.78685 0.0
H598 H 0.32631 0.28588 0.68877 0.0
H599 H 0.35685 0.29836 0.79999 0.0
H600 H 0.30397 0.21784 0.86547 0.0
H601 H 0.32456 0.15687 0.78694 0.0
H602 H 0.21427 0.41438 0.73792 0.0
H603 H 0.31279 0.40197 0.75818 0.0
H604 H 0.18168 0.20749 0.69572 0.0
H605 H 0.22053 0.1973 0.78853 0.0
H606 H 0.13928 0.17017 0.71022 0.0
H607 H 0.17759 0.15999 0.80133 0.0
H608 H 0.17074 0.32797 0.6801 0.0
H609 H 0.26966 0.30796 0.68355 0.0
H610 H 0.18066 0.36408 0.63571 0.0
H611 H 0.27774 0.34446 0.63927 0.0
H612 H 0.103 0.24136 0.80041 0.0
H613 H 0.09822 0.28483 0.70884 0.0
H614 H 0.30086 0.23466 0.60492 0.0
H615 H 0.19956 0.23565 0.60062 0.0
Li616 Li 1.00028 0.99706 0.95918 0.0
Li617 Li 0.00973 0.01256 0.01226 0.0
Li618 Li 0.99815 0.95507 0.99863 0.0
Li619 Li 0.95743 0.99777 0.99695 0.0
C620 C 0.06041 0.97795 0.96808 0.0
N621 N 0.11207 0.96994 0.92981 0.0
C622 C 0.07478 0.00395 0.95409 0.0
C623 C 0.07238 0.94787 0.96267 0.0
C624 C 0.10084 0.99941 0.93478 0.0
C625 C 0.09851 0.94432 0.94325 0.0
C626 C 0.99001 0.06413 0.98676 0.0
C627 C 0.98612 0.11111 0.01827 0.0
N628 N 0.00795 0.12523 0.99976 0.0
C629 C 0.01228 0.07915 0.96794 0.0
C630 C 0.97666 0.08026 0.01202 0.0
C631 C 0.02107 0.11005 0.97492 0.0
C632 C 0.99203 0.02728 0.90109 0.0
N633 N 0.0082 0.00366 0.91508 0.0
C634 C 0.02897 0.98752 0.86542 0.0
C635 C 0.02615 0.98367 0.89786 0.0
C636 C 0.01225 0.01152 0.85016 0.0
C637 C 0.99358 0.03156 0.86861 0.0
H638 H 0.97695 0.04214 0.91505 0.0
H639 H 0.0376 0.96407 0.90903 0.0
C640 C 0.02524 0.04197 0.07065 0.0
N641 N 0.03382 0.03947 0.03999 0.0
C642 C 0.04157 0.06204 0.09103 0.0
C643 C 0.07561 0.07639 0.04813 0.0
C644 C 0.05865 0.05604 0.02861 0.0
C645 C 0.06714 0.07971 0.07985 0.0
H646 H 0.00569 0.02838 0.07935 0.0
H647 H 0.06509 0.05385 0.00424 0.0
C648 C 0.95655 0.9587 0.93646 0.0
N649 N 0.93675 0.94839 0.87548 0.0
C650 C 0.93289 0.97728 0.92349 0.0
C651 C 0.97007 0.93481 0.91849 0.0
C652 C 0.92322 0.9717 0.8926 0.0
C653 C 0.95975 0.92999 0.88768 0.0
C654 C 0.95853 0.97697 0.05557 0.0
C655 C 0.94935 0.94642 0.06345 0.0
C656 C 0.94335 1.00258 0.06936 0.0
C657 C 0.92485 0.94202 0.08476 0.0
C658 C 0.91892 0.99719 0.09051 0.0
N659 N 0.91024 0.96727 0.0977 0.0
C660 C 0.02711 0.89991 0.02472 0.0
C661 C 0.98211 0.89193 0.99296 0.0
C662 C 0.03011 0.86745 0.02919 0.0
N663 N 0.00354 0.91137 0.00656 0.0
C664 C 0.98437 0.85947 0.99654 0.0
C665 C 0.00866 0.84667 0.01478 0.0
H666 H 0.04365 0.91595 0.03555 0.0
H667 H 0.96327 0.90166 0.97908 0.0
C668 C 0.89897 0.03119 0.99911 0.0
N669 N 0.91334 1.00285 1.00205 0.0
C670 C 0.8664 0.03347 1.00247 0.0
C671 C 0.86429 0.97748 0.01185 0.0
C672 C 0.89668 0.9762 0.00777 0.0
C673 C 0.84876 0.00637 0.00921 0.0
H674 H 0.91273 0.05192 0.99396 0.0
H675 H 0.90865 0.95388 0.00915 0.0
O676 O 0.03499 0.98181 0.98724 0.0
O677 O 0.98158 0.03367 0.98073 0.0
O678 O 0.96701 0.96444 0.96632 0.0
O679 O 0.98207 0.98174 0.03427 0.0
H680 H 0.06551 0.02729 0.95746 0.0
H681 H 0.06153 0.92747 0.97323 0.0
H682 H 0.11203 0.01931 0.92361 0.0
H683 H 0.10797 0.92118 0.9388 0.0
H684 H 0.97616 0.1238 0.03789 0.0
H685 H 0.02293 0.067 0.94837 0.0
H686 H 0.95942 0.06897 0.02684 0.0
H687 H 0.03841 0.12191 0.96066 0.0
H688 H 0.04389 0.97155 0.85251 0.0
H689 H 0.97947 0.04983 0.85808 0.0
H690 H 0.03444 0.06341 0.11539 0.0
H691 H 0.09486 0.08978 0.03829 0.0
H692 H 0.9224 0.99607 0.93697 0.0
H693 H 0.98872 0.92049 0.92804 0.0
H694 H 0.90504 0.986 0.88219 0.0
H695 H 0.97016 0.91174 0.87342 0.0
H696 H 0.96086 0.92632 0.05309 0.0
H697 H 0.95004 0.02637 0.06343 0.0
H698 H 0.9174 0.91851 0.09095 0.0
H699 H 0.90679 0.01679 0.10114 0.0
H700 H 0.04896 0.85879 0.04384 0.0
H701 H 0.96754 0.84459 0.98452 0.0
H702 H 0.85517 0.05615 1.00019 0.0
H703 H 0.85142 0.956 0.0165 0.0
Li704 Li 0.74853 0.2589 0.76222 0.0
Li705 Li 0.76164 0.2045 0.74439 0.0
Li706 Li 0.8006 0.24437 0.74689 0.0
Li707 Li 0.76217 0.24705 0.70598 0.0
C708 C 0.7977 0.23039 0.80593 0.0
N709 N 0.84342 0.23733 0.85152 0.0
C710 C 0.81412 0.2042 0.8168 0.0
C711 C 0.80436 0.26008 0.81844 0.0
C712 C 0.83722 0.20821 0.83979 0.0
C713 C 0.82757 0.2631 0.84146 0.0
C714 C 0.69772 0.22136 0.74376 0.0
C715 C 0.64248 0.20974 0.7393 0.0
N716 N 0.64195 0.20134 0.77011 0.0
C717 C 0.69663 0.21255 0.77537 0.0
C718 C 0.67044 0.21994 0.72556 0.0
C719 C 0.66821 0.20253 0.78825 0.0
C720 C 0.70278 0.3052 0.77608 0.0
N721 N 0.72242 0.28369 0.78901 0.0
C722 C 0.70464 0.29695 0.84058 0.0
C723 C 0.72345 0.27911 0.82056 0.0
C724 C 0.68392 0.31937 0.82806 0.0
C725 C 0.68315 0.32328 0.79522 0.0
H726 H 0.70218 0.30811 0.75085 0.0
H727 H 0.73884 0.26149 0.83027 0.0
C728 C 0.78284 0.14412 0.75392 0.0
N729 N 0.75596 0.16013 0.74809 0.0
C730 C 0.78305 0.11137 0.75346 0.0
C731 C 0.72779 0.11195 0.74079 0.0
C732 C 0.72865 0.1448 0.74158 0.0
C733 C 0.75536 0.09479 0.74642 0.0
H734 H 0.80445 0.1569 0.75783 0.0
H735 H 0.70781 0.15789 0.73576 0.0
C736 C 0.79584 0.30738 0.73366 0.0
N737 N 0.8353 0.35897 0.73436 0.0
C738 C 0.81849 0.31103 0.71026 0.0
C739 C 0.793 0.3301 0.75723 0.0
C740 C 0.83831 0.33723 0.71109 0.0
C741 C 0.81323 0.35599 0.75721 0.0
C742 C 0.79187 0.19288 0.68857 0.0
C743 C 0.81919 0.18097 0.67498 0.0
C744 C 0.76262 0.183 0.67728 0.0
C745 C 0.8168 0.15926 0.65042 0.0
C746 C 0.76122 0.16127 0.65269 0.0
N747 N 0.78811 0.14994 0.63989 0.0
C748 C 0.86093 0.22133 0.74878 0.0
C749 C 0.85969 0.27397 0.76689 0.0
C750 C 0.89329 0.22003 0.75321 0.0
N751 N 0.84485 0.24812 0.75514 0.0
C752 C 0.89215 0.27374 0.77161 0.0
C753 C 0.90941 0.24656 0.76451 0.0
H754 H 0.84854 0.20083 0.74025 0.0
H755 H 0.84648 0.29466 0.77297 0.0
C756 C 0.72581 0.25878 0.65098 0.0
N757 N 0.7553 0.25631 0.66285 0.0
C758 C 0.7212 0.26136 0.61855 0.0
C759 C 0.77741 0.25966 0.61143 0.0
C760 C 0.78091 0.25707 0.6439 0.0
C761 C 0.74723 0.26137 0.59828 0.0
H762 H 0.70588 0.25784 0.66661 0.0
H763 H 0.80405 0.25435 0.65394 0.0
O764 O 0.77551 0.22712 0.78287 0.0
O765 O 0.72521 0.23142 0.73055 0.0
O766 O 0.77602 0.2821 0.73314 0.0
O767 O 0.79399 0.21418 0.71267 0.0
H768 H 0.80911 0.18102 0.80765 0.0
H769 H 0.79211 0.28065 0.81008 0.0
H770 H 0.85021 0.18816 0.84831 0.0
H771 H 0.83311 0.28597 0.85115 0.0
H772 H 0.6212 0.20851 0.72548 0.0
H773 H 0.71745 0.21327 0.78984 0.0
H774 H 0.67087 0.22657 0.70104 0.0
H775 H 0.66703 0.19567 0.81267 0.0
H776 H 0.70658 0.29326 0.86565 0.0
H777 H 0.66724 0.33975 0.78429 0.0
H778 H 0.8048 0.09919 0.7582 0.0
H779 H 0.70606 0.10019 0.73469 0.0
H780 H 0.82096 0.29367 0.69186 0.0
H781 H 0.77537 0.32773 0.77535 0.0
H782 H 0.85611 0.34027 0.69327 0.0
H783 H 0.8114 0.37371 0.77536 0.0
H784 H 0.84203 0.18847 0.68325 0.0
H785 H 0.74117 0.19198 0.68731 0.0
H786 H 0.83776 0.14985 0.63971 0.0
H787 H 0.73874 0.15342 0.64378 0.0
H788 H 0.90561 0.19864 0.74722 0.0
H789 H 0.90356 0.29454 0.78095 0.0
H790 H 0.69754 0.26287 0.60942 0.0
H791 H 0.7981 0.259 0.59673 0.0
Li792 Li 0.0094 0.55065 0.99254 0.0
Li793 Li 0.04954 0.50798 0.99229 0.0
Li794 Li 0.0095 0.50968 0.95267 0.0
Li795 Li 0.99505 0.49467 0.00482 0.0
C796 C 0.05349 0.54751 0.93229 0.0
N797 N 0.07457 0.55796 0.87187 0.0
C798 C 0.07855 0.5301 0.92037 0.0
C799 C 0.0392 0.57029 0.91353 0.0
C800 C 0.08886 0.53574 0.88976 0.0
C801 C 0.05018 0.57519 0.88303 0.0
C802 C 0.04133 0.5325 0.05325 0.0
C803 C 0.06147 0.52332 0.10541 0.0
N804 N 0.07818 0.55054 0.10367 0.0
C805 C 0.05839 0.56057 0.05216 0.0
C806 C 0.0426 0.51386 0.08023 0.0
C807 C 0.07702 0.5692 0.0778 0.0
C808 C 0.98009 0.60509 0.01939 0.0
N809 N 0.00363 0.5943 1.00081 0.0
C810 C 0.02202 0.64663 0.99188 0.0
C811 C 0.02454 0.61429 0.98735 0.0
C812 C 0.99795 0.65873 0.01085 0.0
C813 C 0.97684 0.63741 0.02481 0.0
H814 H 0.96392 0.58862 0.03001 0.0
H815 H 0.0433 0.6051 0.97304 0.0
C816 C 0.10911 0.47516 1.002 0.0
N817 N 0.09374 0.50308 0.99987 0.0
C818 C 0.1417 0.47453 0.00568 0.0
C819 C 0.14219 0.53124 0.00444 0.0
C820 C 0.10971 0.53077 1.00073 0.0
C821 C 0.15868 0.50286 0.00693 0.0
H822 H 0.09648 0.45328 1.00027 0.0
H823 H 0.09722 0.55262 0.99776 0.0
C824 C 0.94517 0.51263 0.96733 0.0
N825 N 0.88887 0.48621 0.94864 0.0
C826 C 0.94444 0.48239 0.95445 0.0
C827 C 0.91729 0.52944 0.97067 0.0
C828 C 0.91574 0.46944 0.94516 0.0
C829 C 0.88905 0.51568 0.96108 0.0
C830 C 0.03421 0.44442 0.98859 0.0
C831 C 0.04042 0.4185 0.96941 0.0
C832 C 0.03765 0.44177 0.02112 0.0
C833 C 0.05016 0.39036 0.98312 0.0
C834 C 0.04737 0.41323 0.03396 0.0
N835 N 0.05339 0.38833 0.01485 0.0
C836 C 0.0208 0.48188 0.89372 0.0
C837 C 0.98124 0.52088 0.89306 0.0
C838 C 0.01854 0.47822 0.8612 0.0
N839 N 1.0025 0.50313 0.90884 0.0
C840 C 0.97806 0.51786 0.86052 0.0
C841 C 0.9971 0.49651 0.84407 0.0
H842 H 0.03783 0.46845 0.90686 0.0
H843 H 0.96721 0.53784 0.90567 0.0
C844 C 0.95489 0.48018 0.05649 0.0
N845 N 0.96739 0.46876 0.02944 0.0
C846 C 0.93447 0.46162 0.0744 0.0
C847 C 0.9405 0.41984 0.03645 0.0
C848 C 0.96041 0.43928 0.01915 0.0
C849 C 0.92699 0.43088 0.06449 0.0
H850 H 0.96062 0.5038 0.06405 0.0
H851 H 0.97038 0.43072 0.99746 0.0
O852 O 0.04251 0.54174 0.96191 0.0
O853 O 0.02294 0.52361 0.02836 0.0
O854 O 0.97293 0.5258 0.9768 0.0
O855 O 0.02408 0.47189 0.97543 0.0
H856 H 0.08965 0.51213 0.93443 0.0
H857 H 0.01951 0.58369 0.92227 0.0
H858 H 0.10813 0.52235 0.88017 0.0
H859 H 0.03921 0.59259 0.86817 0.0
H860 H 0.06274 0.50907 0.12639 0.0
H861 H 0.05749 0.57544 0.03164 0.0
H862 H 0.029 0.49242 0.08186 0.0
H863 H 0.09053 0.59075 0.07714 0.0
H864 H 0.03855 0.66197 0.98013 0.0
H865 H 0.95815 0.64552 0.03994 0.0
H866 H 0.15347 0.45209 0.00751 0.0
H867 H 0.15434 0.55363 0.00449 0.0
H868 H 0.96578 0.46901 0.95166 0.0
H869 H 0.91749 0.55288 0.98063 0.0
H870 H 0.91484 0.44605 0.9352 0.0
H871 H 0.86728 0.52842 0.96355 0.0
H872 H 0.03766 0.4201 0.94418 0.0
H873 H 0.03288 0.46151 0.03625 0.0
H874 H 0.05508 0.37012 0.96855 0.0
H875 H 0.05013 0.41089 0.0591 0.0
H876 H 0.03409 0.46188 0.84954 0.0
H877 H 0.96096 0.53218 0.8484 0.0
H878 H 0.92434 0.47148 0.09552 0.0
H879 H 0.93604 0.39624 0.02799 0.0
Li880 Li 0.75731 0.74793 0.26035 0.0
Li881 Li 0.74236 0.8024 0.24403 0.0
Li882 Li 0.70406 0.76183 0.24772 0.0
Li883 Li 0.74083 0.76025 0.20499 0.0
C884 C 0.70992 0.77449 0.3068 0.0
N885 N 0.66647 0.76491 0.35394 0.0
C886 C 0.69254 0.79971 0.31851 0.0
C887 C 0.70541 0.74446 0.31927 0.0
C888 C 0.67062 0.79436 0.34228 0.0
C889 C 0.68331 0.74008 0.34306 0.0
C890 C 0.80637 0.78675 0.24084 0.0
C891 C 0.86131 0.79923 0.23515 0.0
N892 N 0.86258 0.80753 0.26599 0.0
C893 C 0.80823 0.79547 0.27249 0.0
C894 C 0.83313 0.78865 0.22201 0.0
C895 C 0.83685 0.80588 0.28475 0.0
C896 C 0.80314 0.70121 0.26924 0.0
N897 N 0.78553 0.72281 0.28474 0.0
C898 C 0.80908 0.70836 0.3337 0.0
C899 C 0.78821 0.72681 0.31634 0.0
C900 C 0.82763 0.68581 0.31834 0.0
C901 C 0.82446 0.68243 0.28562 0.0
H902 H 0.8006 0.69861 0.24408 0.0
H903 H 0.7743 0.74448 0.32807 0.0
C904 C 0.72105 0.86269 0.25597 0.0
N905 N 0.74761 0.84698 0.24815 0.0
C906 C 0.72059 0.89547 0.25622 0.0
C907 C 0.77489 0.89557 0.24015 0.0
C908 C 0.77432 0.86268 0.24028 0.0
C909 C 0.74764 0.91243 0.24785 0.0
H910 H 0.69984 0.84968 0.26096 0.0
H911 H 0.79484 0.84988 0.2329 0.0
C912 C 0.71013 0.69849 0.23451 0.0
N913 N 0.67353 0.64496 0.23863 0.0
C914 C 0.68624 0.69303 0.21264 0.0
C915 C 0.71562 0.67658 0.2583 0.0
C916 C 0.66792 0.66587 0.21518 0.0
C917 C 0.69681 0.6497 0.26003 0.0
C918 C 0.7091 0.81383 0.18964 0.0
C919 C 0.68086 0.82536 0.17769 0.0
C920 C 0.73751 0.82436 0.17703 0.0
C921 C 0.6815 0.84735 0.15337 0.0
C922 C 0.73716 0.84637 0.15273 0.0
N923 N 0.7094 0.85731 0.1415 0.0
C924 C 0.6438 0.7845 0.25371 0.0
C925 C 0.64581 0.73096 0.26864 0.0
C926 C 0.61164 0.78548 0.25949 0.0
N927 N 0.66017 0.75745 0.25787 0.0
C928 C 0.61348 0.73075 0.27425 0.0
C929 C 0.596 0.75826 0.26951 0.0
H930 H 0.65583 0.80546 0.24586 0.0
H931 H 0.65927 0.71003 0.27309 0.0
C932 C 0.7751 0.75248 0.14819 0.0
N933 N 0.74621 0.75097 0.16151 0.0
C934 C 0.77863 0.74806 0.11584 0.0
C935 C 0.7227 0.73976 0.1117 0.0
C936 C 0.72022 0.74489 0.144 0.0
C937 C 0.75218 0.74166 0.09699 0.0
H938 H 0.7953 0.75781 0.16259 0.0
H939 H 0.69743 0.74461 0.15504 0.0
O940 O 0.73079 0.77899 0.28283 0.0
O941 O 0.77865 0.77631 0.22824 0.0
O942 O 0.72859 0.72471 0.23224 0.0
O943 O 0.70871 0.79235 0.21355 0.0
H944 H 0.69584 0.82313 0.30933 0.0
H945 H 0.71851 0.72466 0.31036 0.0
H946 H 0.65688 0.81363 0.35144 0.0
H947 H 0.67943 0.71692 0.35275 0.0
H948 H 0.88218 0.80083 0.22082 0.0
H949 H 0.78788 0.79437 0.2875 0.0
H950 H 0.83218 0.7821 0.19748 0.0
H951 H 0.8386 0.81267 0.30919 0.0
H952 H 0.81106 0.71208 0.35879 0.0
H953 H 0.83806 0.66519 0.27285 0.0
H954 H 0.6991 0.90738 0.26255 0.0
H955 H 0.7961 0.9076 0.23295 0.0
H956 H 0.68159 0.70976 0.19418 0.0
H957 H 0.73423 0.68025 0.27523 0.0
H958 H 0.6492 0.66146 0.19855 0.0
H959 H 0.70072 0.63259 0.27837 0.0
H960 H 0.65866 0.81738 0.18709 0.0
H961 H 0.75963 0.81573 0.18585 0.0
H962 H 0.6598 0.85648 0.14392 0.0
H963 H 0.75897 0.85474 0.1428 0.0
H964 H 0.59901 0.80716 0.25549 0.0
H965 H 0.6023 0.7094 0.28246 0.0
H966 H 0.80177 0.75043 0.1057 0.0
H967 H 0.70163 0.73445 0.09848 0.0
Li968 Li 0.0081 0.49662 0.54872 0.0
Li969 Li 0.00739 0.45678 0.50751 0.0
Li970 Li 0.04923 0.49626 0.51013 0.0
Li971 Li 0.9952 0.51127 0.49307 0.0
C972 C 0.04251 0.45089 0.57016 0.0
N973 N 0.04747 0.42732 0.63046 0.0
C974 C 0.02736 0.42285 0.57822 0.0
C975 C 0.06018 0.46693 0.59286 0.0
C976 C 0.0302 0.41131 0.60879 0.0
C977 C 0.06236 0.45465 0.62319 0.0
C978 C 0.94242 0.47334 0.51433 0.0
C979 C 0.90334 0.4621 0.47479 0.0
N980 N 0.88259 0.45431 0.49774 0.0
C981 C 0.92065 0.46541 0.53753 0.0
C982 C 0.93367 0.4718 0.48272 0.0
C983 C 0.89055 0.45575 0.52867 0.0
C984 C 0.01112 0.5301 0.60638 0.0
N985 N 0.99866 0.50446 0.5919 0.0
C986 C 0.97829 0.48558 0.64065 0.0
C987 C 0.98194 0.48267 0.60818 0.0
C988 C 0.99198 0.51119 0.65653 0.0
C989 C 0.00812 0.53392 0.63883 0.0
H990 H 0.02428 0.54708 0.59292 0.0
H991 H 0.97249 0.46236 0.59611 0.0
C992 C 0.02823 0.39597 0.49679 0.0
N993 N 1.00122 0.41277 0.49869 0.0
C994 C 0.02741 0.36356 0.4918 0.0
C995 C 0.97085 0.36591 0.4913 0.0
C996 C 0.97279 0.3984 0.49606 0.0
C997 C 0.99843 0.34796 0.48927 0.0
H998 H 0.05055 0.40776 0.49968 0.0
H999 H 0.95152 0.41178 0.49831 0.0
C1000 C 0.04488 0.55659 0.52008 0.0
N1001 N 0.08949 0.60287 0.51084 0.0
C1002 C 0.0431 0.57615 0.49381 0.0
C1003 C 0.06929 0.56061 0.5417 0.0
C1004 C 0.06588 0.59943 0.48957 0.0
C1005 C 0.09165 0.5841 0.53657 0.0
C1006 C 0.03254 0.46074 0.44979 0.0
C1007 C 0.06267 0.44791 0.4486 0.0
C1008 C 0.00978 0.45056 0.42836 0.0
C1009 C 0.06939 0.42482 0.42625 0.0
C1010 C 0.01742 0.4274 0.40638 0.0
N1011 N 0.04681 0.4151 0.40581 0.0
C1012 C 0.11269 0.48909 0.52558 0.0
C1013 C 0.10516 0.51982 0.47992 0.0
C1014 C 0.14508 0.49266 0.52342 0.0
N1015 N 0.09341 0.50282 0.50427 0.0
C1016 C 0.13764 0.52371 0.4766 0.0
C1017 C 0.15815 0.50995 0.49855 0.0
H1018 H 0.10296 0.47515 0.54428 0.0
H1019 H 0.08934 0.53018 0.46301 0.0
C1020 C 0.95028 0.55837 0.48349 0.0
N1021 N 0.96963 0.53838 0.46797 0.0
C1022 C 0.92987 0.57788 0.46685 0.0
C1023 C 0.9498 0.55608 0.41844 0.0
C1024 C 0.97 0.53709 0.43605 0.0
C1025 C 0.92913 0.57674 0.43382 0.0
H1026 H 0.95055 0.55894 0.50889 0.0
H1027 H 0.98561 0.52092 0.42428 0.0
O1028 O 0.03957 0.4629 0.54045 0.0
O1029 O 0.9719 0.48305 0.52266 0.0
O1030 O 0.02311 0.5333 0.52433 0.0
O1031 O 0.02536 0.483 0.47189 0.0
H1032 H 0.01321 0.41028 0.56125 0.0
H1033 H 0.07149 0.48903 0.58735 0.0
H1034 H 0.01852 0.38969 0.61534 0.0
H1035 H 0.07572 0.46698 0.64101 0.0
H1036 H 0.89633 0.46072 0.4504 0.0
H1037 H 0.92689 0.46671 0.56212 0.0
H1038 H 0.95016 0.47782 0.46451 0.0
H1039 H 0.8735 0.44946 0.54638 0.0
H1040 H 0.96525 0.46771 0.6532 0.0
H1041 H 0.01936 0.55387 0.65003 0.0
H1042 H 0.04932 0.3509 0.49004 0.0
H1043 H 0.94795 0.3549 0.49009 0.0
H1044 H 0.02446 0.57329 0.47677 0.0
H1045 H 0.07131 0.54536 0.5619 0.0
H1046 H 0.06485 0.6147 0.46931 0.0
H1047 H 0.11081 0.58731 0.55297 0.0
H1048 H 0.08056 0.45526 0.46506 0.0
H1049 H 0.98644 0.46032 0.42864 0.0
H1050 H 0.09254 0.41454 0.42525 0.0
H1051 H 0.99997 0.41921 0.38978 0.0
H1052 H 0.15967 0.48205 0.5413 0.0
H1053 H 0.14653 0.5369 0.45678 0.0
H1054 H 0.91488 0.59376 0.47982 0.0
H1055 H 0.9499 0.55403 0.39309 0.0
Li1056 Li 0.49013 0.55257 0.00415 0.0
Li1057 Li 0.45412 0.50897 0.00359 0.0
Li1058 Li 0.49302 0.51152 0.04409 0.0
Li1059 Li 0.50739 0.49818 0.9888 0.0
C1060 C 0.45853 0.56406 0.059 0.0
N1061 N 0.45789 0.61018 0.10479 0.0
C1062 C 0.43006 0.5748 0.0711 0.0
C1063 C 0.48669 0.57689 0.07012 0.0
C1064 C 0.43023 0.59811 0.09426 0.0
C1065 C 0.48587 0.60014 0.0933 0.0
C1066 C 0.46094 0.52518 0.94027 0.0
C1067 C 0.44928 0.50035 0.8906 0.0
N1068 N 0.42683 0.5223 0.88508 0.0
C1069 C 0.43796 0.54767 0.93397 0.0
C1070 C 0.46685 0.50146 0.91831 0.0
C1071 C 0.42088 0.54573 0.90599 0.0
C1072 C 0.52063 0.6127 0.99951 0.0
N1073 N 0.49304 0.5967 0.99775 0.0
C1074 C 0.46444 0.6446 0.9928 0.0
C1075 C 0.46529 0.61191 0.99439 0.0
C1076 C 0.4924 0.66202 0.99535 0.0
C1077 C 0.52086 0.64558 0.99836 0.0
H1078 H 0.5423 0.6 0.0028 0.0
H1079 H 0.44365 0.59862 0.99395 0.0
C1080 C 0.39375 0.50153 0.02571 0.0
N1081 N 0.4103 0.4991 0.99857 0.0
C1082 C 0.36135 0.49695 0.02582 0.0
C1083 C 0.36351 0.48623 0.97014 0.0
C1084 C 0.39597 0.49087 0.97116 0.0
C1085 C 0.34566 0.48977 0.99766 0.0
H1086 H 0.40577 0.50727 0.04736 0.0
H1087 H 0.40951 0.48792 0.95001 0.0
C1088 C 0.55682 0.51748 0.02752 0.0
N1089 N 0.6141 0.49337 0.0458 0.0
C1090 C 0.55978 0.48549 0.03438 0.0
C1091 C 0.58301 0.53717 0.02993 0.0
C1092 C 0.58893 0.47377 0.04357 0.0
C1093 C 0.61176 0.52454 0.03923 0.0
C1094 C 0.4604 0.44952 0.01579 0.0
C1095 C 0.4483 0.43457 0.04236 0.0
C1096 C 0.45084 0.43963 0.98593 0.0
C1097 C 0.42638 0.41037 0.03862 0.0
C1098 C 0.42889 0.41534 0.98316 0.0
N1099 N 0.41717 0.40137 0.00935 0.0
C1100 C 0.47387 0.4945 0.10397 0.0
C1101 C 0.52634 0.513 0.10352 0.0
C1102 C 0.47502 0.49044 0.13645 0.0
N1103 N 0.49943 0.50509 0.08813 0.0
C1104 C 0.52841 0.50965 0.13613 0.0
C1105 C 0.50254 0.49807 0.15295 0.0
H1106 H 0.4523 0.48989 0.09138 0.0
H1107 H 0.546 0.52257 0.09074 0.0
C1108 C 0.5582 0.49002 0.94656 0.0
N1109 N 0.53531 0.47466 0.9626 0.0
C1110 C 0.57877 0.47338 0.92713 0.0
C1111 C 0.55161 0.42548 0.9409 0.0
C1112 C 0.53199 0.44296 0.96045 0.0
C1113 C 0.57553 0.44058 0.92383 0.0
H1114 H 0.56056 0.51524 0.94899 0.0
H1115 H 0.51404 0.43114 0.97384 0.0
O1116 O 0.45862 0.5414 0.03612 0.0
O1117 O 0.47819 0.52685 0.96733 0.0
O1118 O 0.52858 0.52959 0.01829 0.0
O1119 O 0.48149 0.47368 0.01893 0.0
H1120 H 0.40804 0.5653 0.06261 0.0
H1121 H 0.50897 0.56909 0.06095 0.0
H1122 H 0.40835 0.60664 0.10383 0.0
H1123 H 0.50748 0.61023 0.10212 0.0
H1124 H 0.45351 0.48204 0.87347 0.0
H1125 H 0.4331 0.5662 0.95061 0.0
H1126 H 0.48478 0.48407 0.92259 0.0
H1127 H 0.40287 0.56284 0.90092 0.0
H1128 H 0.44199 0.65607 0.99 0.0
H1129 H 0.54294 0.65795 1.00091 0.0
H1130 H 0.34874 0.49911 0.04777 0.0
H1131 H 0.35248 0.4807 0.94787 0.0
H1132 H 0.53985 0.46984 0.03273 0.0
H1133 H 0.58115 0.56197 0.02471 0.0
H1134 H 0.59155 0.44908 0.04895 0.0
H1135 H 0.63222 0.53952 0.04123 0.0
H1136 H 0.4559 0.44135 0.06562 0.0
H1137 H 0.45991 0.45094 0.96511 0.0
H1138 H 0.41675 0.39868 0.059 0.0
H1139 H 0.42108 0.4077 0.96018 0.0
H1140 H 0.45431 0.48217 0.14865 0.0
H1141 H 0.54998 0.51597 0.14806 0.0
H1142 H 0.59715 0.48614 0.91509 0.0
H1143 H 0.54767 0.40042 0.93895 0.0
Li1144 Li 0.75459 0.7995 0.7634 0.0
Li1145 Li 0.75593 0.75699 0.80018 0.0
Li1146 Li 0.79675 0.76097 0.7605 0.0
Li1147 Li 0.74145 0.74359 0.74628 0.0
C1148 C 0.79666 0.81966 0.80379 0.0
N1149 N 0.81422 0.87984 0.82109 0.0
C1150 C 0.78476 0.83312 0.83127 0.0
C1151 C 0.8176 0.83677 0.78521 0.0
C1152 C 0.79392 0.86358 0.8396 0.0
C1153 C 0.82614 0.86717 0.79431 0.0
C1154 C 0.6928 0.76665 0.79386 0.0
C1155 C 0.64603 0.7367 0.80529 0.0
N1156 N 0.63982 0.75625 0.8298 0.0
C1157 C 0.6859 0.78644 0.81917 0.0
C1158 C 0.67268 0.74156 0.78686 0.0
C1159 C 0.65904 0.78078 0.83706 0.0
C1160 C 0.75311 0.85814 0.73077 0.0
N1161 N 0.74493 0.8431 0.7577 0.0
C1162 C 0.72734 0.89134 0.78042 0.0
C1163 C 0.73172 0.85893 0.78204 0.0
C1164 C 0.73647 0.90774 0.75334 0.0
C1165 C 0.74911 0.89064 0.72809 0.0
H1166 H 0.76324 0.84505 0.71158 0.0
H1167 H 0.7257 0.84663 0.80329 0.0
C1168 C 0.77498 0.75602 0.86307 0.0
N1169 N 0.75081 0.74698 0.84418 0.0
C1170 C 0.77277 0.753 0.89562 0.0
C1171 C 0.72147 0.72972 0.88885 0.0
C1172 C 0.72491 0.73276 0.85635 0.0
C1173 C 0.74536 0.74053 0.90891 0.0
H1174 H 0.7958 0.76634 0.85287 0.0
H1175 H 0.70662 0.72422 0.841 0.0
C1176 C 0.78686 0.77547 0.69893 0.0
N1177 N 0.82352 0.77359 0.64548 0.0
C1178 C 0.78271 0.75141 0.67688 0.0
C1179 C 0.80955 0.79867 0.69369 0.0
C1180 C 0.80148 0.75087 0.65002 0.0
C1181 C 0.82789 0.79726 0.66657 0.0
C1182 C 0.77587 0.69992 0.79553 0.0
C1183 C 0.80387 0.69694 0.81235 0.0
C1184 C 0.75025 0.68078 0.80295 0.0
C1185 C 0.80573 0.67484 0.8365 0.0
C1186 C 0.75306 0.65895 0.82725 0.0
N1187 N 0.7805 0.65648 0.8434 0.0
C1188 C 0.85999 0.76686 0.77649 0.0
C1189 C 0.85297 0.74204 0.72714 0.0
C1190 C 0.8925 0.7657 0.77322 0.0
N1191 N 0.84091 0.75575 0.75336 0.0
C1192 C 0.88548 0.74065 0.72274 0.0
C1193 C 0.90569 0.7528 0.74592 0.0
H1194 H 0.84995 0.77689 0.79751 0.0
H1195 H 0.83747 0.73233 0.70952 0.0
C1196 C 0.69478 0.73401 0.7004 0.0
N1197 N 0.71594 0.71876 0.71872 0.0
C1198 C 0.67448 0.71709 0.68082 0.0
C1199 C 0.69836 0.66902 0.69898 0.0
C1200 C 0.71832 0.68691 0.71812 0.0
C1201 C 0.67581 0.68405 0.68012 0.0
H1202 H 0.69351 0.75939 0.70126 0.0
H1203 H 0.73548 0.67536 0.73279 0.0
O1204 O 0.78753 0.79006 0.7949 0.0
O1205 O 0.71873 0.77205 0.7757 0.0
O1206 O 0.76865 0.7764 0.72534 0.0
O1207 O 0.7733 0.72209 0.77251 0.0
H1208 H 0.76819 0.82043 0.84574 0.0
H1209 H 0.82704 0.82674 0.7639 0.0
H1210 H 0.78474 0.87435 0.86069 0.0
H1211 H 0.84223 0.88071 0.78007 0.0
H1212 H 0.63031 0.71735 0.80013 0.0
H1213 H 0.70144 0.8055 0.82546 0.0
H1214 H 0.67758 0.72587 0.76752 0.0
H1215 H 0.65357 0.79578 0.85683 0.0
H1216 H 0.71796 0.90353 0.80066 0.0
H1217 H 0.75607 0.90227 0.70658 0.0
H1218 H 0.79178 0.76151 0.91028 0.0
H1219 H 0.70025 0.71933 0.89822 0.0
H1220 H 0.76532 0.73324 0.68051 0.0
H1221 H 0.81314 0.81743 0.71047 0.0
H1222 H 0.79858 0.73234 0.63281 0.0
H1223 H 0.84564 0.81496 0.66231 0.0
H1224 H 0.82382 0.71177 0.807 0.0
H1225 H 0.72825 0.68317 0.79047 0.0
H1226 H 0.82719 0.67237 0.84983 0.0
H1227 H 0.73337 0.64412 0.83341 0.0
H1228 H 0.90716 0.77543 0.79166 0.0
H1229 H 0.8947 0.72998 0.70158 0.0
H1230 H 0.65795 0.72981 0.66634 0.0
H1231 H 0.70012 0.64365 0.69953 0.0
Li1232 Li 0.76084 0.26432 0.24786 0.0
Li1233 Li 0.70669 0.24636 0.26124 0.0
Li1234 Li 0.74778 0.24968 0.30185 0.0
Li1235 Li 0.74857 0.20808 0.26245 0.0
C1236 C 0.7217 0.30618 0.29833 0.0
N1237 N 0.70607 0.34803 0.34551 0.0
C1238 C 0.69064 0.30862 0.30851 0.0
C1239 C 0.74474 0.32528 0.312 0.0
C1240 C 0.68322 0.32987 0.3324 0.0
C1241 C 0.7364 0.34619 0.33587 0.0
C1242 C 0.71416 0.2338 0.20033 0.0
C1243 C 0.67015 0.21332 0.17099 0.0
N1244 N 0.67313 0.23736 0.15018 0.0
C1245 C 0.71684 0.25825 0.17862 0.0
C1246 C 0.69072 0.21107 0.19645 0.0
C1247 C 0.69586 0.25964 0.15342 0.0
C1248 C 0.80365 0.27885 0.19869 0.0
N1249 N 0.78571 0.29136 0.22192 0.0
C1250 C 0.8046 0.34301 0.21017 0.0
C1251 C 0.78554 0.32281 0.22764 0.0
C1252 C 0.82358 0.33079 0.18617 0.0
C1253 C 0.8227 0.29829 0.18026 0.0
H1254 H 0.80331 0.25375 0.19465 0.0
H1255 H 0.77089 0.33217 0.24609 0.0
C1256 C 0.6429 0.2354 0.27275 0.0
N1257 N 0.66268 0.25156 0.25366 0.0
C1258 C 0.61053 0.23793 0.26907 0.0
C1259 C 0.61917 0.2742 0.22636 0.0
C1260 C 0.65151 0.27116 0.23109 0.0
C1261 C 0.59815 0.25731 0.24544 0.0
H1262 H 0.65225 0.22086 0.29126 0.0
H1263 H 0.66768 0.28443 0.21673 0.0
C1264 C 0.81376 0.24252 0.28588 0.0
N1265 N 0.87419 0.25728 0.30447 0.0
C1266 C 0.83505 0.21863 0.29293 0.0
C1267 C 0.82331 0.27389 0.28803 0.0
C1268 C 0.86545 0.22657 0.30239 0.0
C1269 C 0.85393 0.28089 0.29751 0.0
C1270 C 0.71038 0.18718 0.30641 0.0
C1271 C 0.72388 0.17766 0.33477 0.0
C1272 C 0.69144 0.16622 0.28953 0.0
C1273 C 0.71832 0.14721 0.34569 0.0
C1274 C 0.68652 0.13594 0.3012 0.0
N1275 N 0.69995 0.12714 0.3288 0.0
C1276 C 0.72604 0.25981 0.36254 0.0
C1277 C 0.78151 0.26073 0.36033 0.0
C1278 C 0.7267 0.2647 0.39495 0.0
N1279 N 0.75316 0.25803 0.34588 0.0
C1280 C 0.78328 0.26548 0.39277 0.0
C1281 C 0.75562 0.26739 0.41059 0.0
H1282 H 0.70379 0.25707 0.3506 0.0
H1283 H 0.80284 0.25863 0.347 0.0
C1284 C 0.74826 0.14883 0.23068 0.0
N1285 N 0.75854 0.16467 0.25648 0.0
C1286 C 0.75204 0.11626 0.22858 0.0
C1287 C 0.77787 0.11713 0.27914 0.0
C1288 C 0.77365 0.14964 0.28021 0.0
C1289 C 0.76655 0.09988 0.25329 0.0
H1290 H 0.73644 0.16133 0.21207 0.0
H1291 H 0.78125 0.16275 0.30063 0.0
O1292 O 0.72953 0.28498 0.27541 0.0
O1293 O 0.73439 0.23215 0.22522 0.0
O1294 O 0.78395 0.23508 0.27641 0.0
O1295 O 0.71605 0.21669 0.29498 0.0
H1296 H 0.67244 0.2941 0.29835 0.0
H1297 H 0.76888 0.32382 0.30454 0.0
H1298 H 0.65931 0.33185 0.3406 0.0
H1299 H 0.75405 0.36093 0.34678 0.0
H1300 H 0.65177 0.19602 0.16782 0.0
H1301 H 0.73479 0.27608 0.18129 0.0
H1302 H 0.68816 0.19212 0.21316 0.0
H1303 H 0.69759 0.27848 0.13648 0.0
H1304 H 0.80439 0.36796 0.21524 0.0
H1305 H 0.83711 0.28796 0.16207 0.0
H1306 H 0.59537 0.22521 0.28502 0.0
H1307 H 0.61078 0.2894 0.20782 0.0
H1308 H 0.8282 0.1942 0.2911 0.0
H1309 H 0.80723 0.29263 0.2827 0.0
H1310 H 0.88213 0.20832 0.30802 0.0
H1311 H 0.86156 0.30509 0.29939 0.0
H1312 H 0.73882 0.19344 0.34803 0.0
H1313 H 0.68094 0.17314 0.26747 0.0
H1314 H 0.72874 0.13947 0.36752 0.0
H1315 H 0.6721 0.11942 0.28827 0.0
H1316 H 0.70475 0.26632 0.40759 0.0
H1317 H 0.80612 0.26684 0.40386 0.0
H1318 H 0.74338 0.10401 0.20799 0.0
H1319 H 0.78879 0.10553 0.29893 0.0
Li1320 Li 0.50922 0.50806 0.50482 0.0
Li1321 Li 0.49515 0.49446 0.44919 0.0
Li1322 Li 0.45498 0.49451 0.49113 0.0
Li1323 Li 0.49446 0.45281 0.48848 0.0
C1324 C 0.4602 0.5544 0.46973 0.0
N1325 N 0.41704 0.60139 0.45844 0.0
C1326 C 0.45121 0.56151 0.43896 0.0
C1327 C 0.44752 0.57148 0.49472 0.0
C1328 C 0.42929 0.58528 0.43375 0.0
C1329 C 0.42565 0.59505 0.48854 0.0
C1330 C 0.55691 0.48071 0.4566 0.0
C1331 C 0.58825 0.46187 0.41343 0.0
N1332 N 0.60904 0.48568 0.41846 0.0
C1333 C 0.57862 0.50494 0.46142 0.0
C1334 C 0.56179 0.45891 0.43251 0.0
C1335 C 0.60482 0.50705 0.44186 0.0
C1336 C 0.55609 0.51706 0.55094 0.0
N1337 N 0.53604 0.53238 0.53146 0.0
C1338 C 0.55544 0.58217 0.54923 0.0
C1339 C 0.53527 0.5643 0.53031 0.0
C1340 C 0.57672 0.56704 0.5694 0.0
C1341 C 0.57674 0.53399 0.57016 0.0
H1342 H 0.55613 0.49164 0.55137 0.0
H1343 H 0.51917 0.57587 0.51449 0.0
C1344 C 0.4789 0.49025 0.38598 0.0
N1345 N 0.50149 0.50202 0.40528 0.0
C1346 C 0.48152 0.49319 0.35351 0.0
C1347 C 0.53031 0.52122 0.36104 0.0
C1348 C 0.52653 0.51801 0.39354 0.0
C1349 C 0.50776 0.50837 0.3405 0.0
H1350 H 0.45863 0.47863 0.39581 0.0
H1351 H 0.54375 0.52801 0.40931 0.0
C1352 C 0.4724 0.48103 0.55634 0.0
N1353 N 0.45489 0.48886 0.61829 0.0
C1354 C 0.46651 0.45483 0.57519 0.0
C1355 C 0.46961 0.51119 0.56902 0.0
C1356 C 0.4576 0.45928 0.60645 0.0
C1357 C 0.46069 0.51467 0.60038 0.0
C1358 C 0.45039 0.43563 0.44705 0.0
C1359 C 0.42125 0.42475 0.45746 0.0
C1360 C 0.46804 0.41729 0.42639 0.0
C1361 C 0.41038 0.39545 0.44721 0.0
C1362 C 0.45639 0.3881 0.41674 0.0
N1363 N 0.42804 0.37788 0.42727 0.0
C1364 C 0.3937 0.51037 0.4727 0.0
C1365 C 0.3968 0.49202 0.5251 0.0
C1366 C 0.36099 0.51133 0.47432 0.0
N1367 N 0.41092 0.50081 0.49785 0.0
C1368 C 0.36414 0.49219 0.52759 0.0
C1369 C 0.34582 0.50152 0.50183 0.0
H1370 H 0.40529 0.5159 0.45084 0.0
H1371 H 0.41062 0.48355 0.5445 0.0
C1372 C 0.52905 0.39596 0.48702 0.0
N1373 N 0.50106 0.40893 0.49485 0.0
C1374 C 0.53294 0.36339 0.48787 0.0
C1375 C 0.47946 0.3582 0.50583 0.0
C1376 C 0.47674 0.3909 0.50498 0.0
C1377 C 0.5077 0.34392 0.49665 0.0
H1378 H 0.54817 0.41084 0.4795 0.0
H1379 H 0.4548 0.40188 0.51132 0.0
O1380 O 0.48155 0.53111 0.47529 0.0
O1381 O 0.53118 0.47822 0.47556 0.0
O1382 O 0.48099 0.477 0.52568 0.0
O1383 O 0.46166 0.46405 0.45716 0.0
H1384 H 0.46088 0.54874 0.4193 0.0
H1385 H 0.45438 0.56658 0.51863 0.0
H1386 H 0.42202 0.5909 0.41007 0.0
H1387 H 0.41553 0.60833 0.50768 0.0
H1388 H 0.59224 0.44526 0.39459 0.0
H1389 H 0.57523 0.52201 0.47995 0.0
H1390 H 0.5452 0.44005 0.42843 0.0
H1391 H 0.62178 0.52572 0.44526 0.0
H1392 H 0.55483 0.60756 0.54759 0.0
H1393 H 0.59243 0.52132 0.5856 0.0
H1394 H 0.46298 0.48383 0.33878 0.0
H1395 H 0.55091 0.53317 0.35216 0.0
H1396 H 0.46867 0.43131 0.56573 0.0
H1397 H 0.47437 0.53166 0.55485 0.0
H1398 H 0.45284 0.43923 0.62129 0.0
H1399 H 0.4584 0.53789 0.6105 0.0
H1400 H 0.40729 0.43862 0.47349 0.0
H1401 H 0.49061 0.42542 0.41808 0.0
H1402 H 0.38794 0.38665 0.45518 0.0
H1403 H 0.46989 0.37357 0.40091 0.0
H1404 H 0.34768 0.51812 0.45375 0.0
H1405 H 0.35328 0.4844 0.54921 0.0
H1406 H 0.55541 0.35359 0.48134 0.0
H1407 H 0.45924 0.3443 0.51251 0.0
H1408 H 0.12275 0.17607 0.17946 0.0
H1409 H 0.20916 0.14731 0.13548 0.0
H1410 H 0.18015 0.1125 0.10025 0.0
H1411 H 0.13041 0.08948 0.08232 0.0
H1412 H 0.04371 0.11882 0.12531 0.0
H1413 H 0.07264 0.15392 0.16048 0.0
C1414 C 0.1352 0.16243 0.16196 0.0
C1415 C 0.16816 0.16426 0.16031 0.0
C1416 C 0.11833 0.14237 0.14165 0.0
C1417 C 0.18389 0.14606 0.13767 0.0
C1418 C 0.16729 0.12623 0.11737 0.0
C1419 C 0.11776 0.10379 0.09913 0.0
C1420 C 0.08486 0.10138 0.10109 0.0
C1421 C 0.13453 0.12407 0.11922 0.0
C1422 C 0.06902 0.11979 0.12349 0.0
C1423 C 0.08555 0.14006 0.14352 0.0
H1424 H 0.07471 0.91939 0.37379 0.0
H1425 H 0.11981 0.89169 0.46013 0.0
H1426 H 0.15622 0.85862 0.4308 0.0
H1427 H 0.17587 0.83811 0.3806 0.0
H1428 H 0.12962 0.86442 0.29429 0.0
H1429 H 0.09375 0.89794 0.32355 0.0
C1430 C 0.09263 0.90625 0.38616 0.0
C1431 C 0.09443 0.90803 0.41916 0.0
C1432 C 0.11351 0.88714 0.36912 0.0
C1433 C 0.11758 0.8905 0.43481 0.0
C1434 C 0.13856 0.87169 0.41802 0.0
C1435 C 0.15775 0.85084 0.36812 0.0
C1436 C 0.15576 0.84868 0.33512 0.0
C1437 C 0.13674 0.86979 0.38517 0.0
C1438 C 0.13229 0.86593 0.31954 0.0
C1439 C 0.11151 0.88499 0.33631 0.0
H1440 H 0.43856 0.88099 0.60298 0.0
H1441 H 0.36805 0.95055 0.58283 0.0
H1442 H 0.32997 0.92151 0.61446 0.0
H1443 H 0.31642 0.87591 0.64713 0.0
H1444 H 0.38786 0.80767 0.66933 0.0
H1445 H 0.42541 0.83617 0.63702 0.0
C1446 C 0.4148 0.88969 0.6054 0.0
C1447 C 0.40618 0.9179 0.59052 0.0
C1448 C 0.39305 0.87296 0.6238 0.0
C1449 C 0.37541 0.92907 0.59426 0.0
C1450 C 0.35356 0.91239 0.61222 0.0
C1451 C 0.34027 0.86738 0.64529 0.0
C1452 C 0.34899 0.83939 0.66066 0.0
C1453 C 0.36211 0.88429 0.62712 0.0
C1454 C 0.38004 0.82867 0.65737 0.0
C1455 C 0.40173 0.84514 0.63905 0.0
H1456 H 0.37769 0.09796 0.93302 0.0
H1457 H 0.45458 0.10001 0.86709 0.0
H1458 H 0.42378 0.13245 0.83159 0.0
H1459 H 0.37524 0.16116 0.81931 0.0
H1460 H 0.29965 0.16171 0.88645 0.0
H1461 H 0.32998 0.12804 0.92162 0.0
C1462 C 0.38798 0.10578 0.91111 0.0
C1463 C 0.4185 0.09617 0.90286 0.0
C1464 C 0.37036 0.12509 0.89095 0.0
C1465 C 0.43099 0.10631 0.87397 0.0
C1466 C 0.41346 0.12515 0.85366 0.0
C1467 C 0.36538 0.15373 0.84157 0.0
C1468 C 0.33522 0.16384 0.85023 0.0
C1469 C 0.38311 0.13466 0.86186 0.0
C1470 C 0.3229 0.15441 0.87935 0.0
C1471 C 0.34019 0.13508 0.89942 0.0
H1472 H 0.66491 0.38057 0.82113 0.0
H1473 H 0.65553 0.30051 0.88272 0.0
H1474 H 0.62301 0.33121 0.91812 0.0
H1475 H 0.59716 0.38054 0.93185 0.0
H1476 H 0.60186 0.45903 0.86778 0.0
H1477 H 0.63635 0.42914 0.8334 0.0
C1478 C 0.65546 0.36959 0.84203 0.0
C1479 C 0.66313 0.33818 0.84916 0.0
C1480 C 0.63598 0.38717 0.86208 0.0
C1481 C 0.65085 0.32477 0.87678 0.0
C1482 C 0.63194 0.34226 0.89702 0.0
C1483 C 0.60522 0.3911 0.91016 0.0
C1484 C 0.59674 0.42222 0.90271 0.0
C1485 C 0.62436 0.37347 0.88992 0.0
C1486 C 0.6083 0.43545 0.87469 0.0
C1487 C 0.62786 0.41823 0.85476 0.0
H1488 H 0.92053 0.42742 0.12851 0.0
H1489 H 0.88394 0.38815 0.04221 0.0
H1490 H 0.84993 0.35321 0.07201 0.0
H1491 H 0.83002 0.33374 0.12265 0.0
H1492 H 0.86407 0.37512 0.20874 0.0
H1493 H 0.89898 0.40968 0.17897 0.0
C1494 C 0.90485 0.41158 0.1161 0.0
C1495 C 0.90525 0.41042 0.083 0.0
C1496 C 0.88471 0.39189 0.1334 0.0
C1497 C 0.88489 0.38924 0.0676 0.0
C1498 C 0.86515 0.36933 0.08464 0.0
C1499 C 0.8452 0.35026 0.13484 0.0
C1500 C 0.84454 0.35182 0.16783 0.0
C1501 C 0.86493 0.37034 0.11754 0.0
C1502 C 0.86401 0.37362 0.18334 0.0
C1503 C 0.88405 0.39331 0.16633 0.0
H1504 H 0.93846 0.60662 0.37757 0.0
H1505 H 0.86848 0.59126 0.44917 0.0
H1506 H 0.83154 0.62402 0.42043 0.0
H1507 H 0.81854 0.65655 0.37457 0.0
H1508 H 0.88782 0.67077 0.30222 0.0
H1509 H 0.92515 0.63841 0.33124 0.0
C1510 C 0.91504 0.61013 0.38679 0.0
C1511 C 0.90652 0.59652 0.41573 0.0
C1512 C 0.89361 0.62872 0.36988 0.0
C1513 C 0.87608 0.60183 0.42735 0.0
C1514 C 0.85476 0.62042 0.41078 0.0
C1515 C 0.84189 0.65276 0.36527 0.0
C1516 C 0.85031 0.66612 0.33623 0.0
C1517 C 0.86326 0.63404 0.38206 0.0
C1518 C 0.88055 0.66053 0.32432 0.0
C1519 C 0.90199 0.64213 0.34099 0.0
H1520 H 0.56523 0.62075 0.60263 0.0
H1521 H 0.63873 0.5549 0.58048 0.0
H1522 H 0.67564 0.58496 0.61266 0.0
H1523 H 0.68739 0.63042 0.64645 0.0
H1524 H 0.61357 0.69576 0.66933 0.0
H1525 H 0.57686 0.66592 0.63689 0.0
C1526 C 0.58938 0.6131 0.60463 0.0
C1527 C 0.5991 0.58553 0.58913 0.0
C1528 C 0.61058 0.63055 0.62315 0.0
C1529 C 0.63043 0.57576 0.59244 0.0
C1530 C 0.65164 0.59306 0.6107 0.0
C1531 C 0.66321 0.63801 0.64464 0.0
C1532 C 0.65346 0.66549 0.66032 0.0
C1533 C 0.64199 0.62049 0.62619 0.0
C1534 C 0.62204 0.67509 0.65717 0.0
C1535 C 0.60088 0.65788 0.63877 0.0
H1536 H 0.23386 0.20759 0.45293 0.0
H1537 H 0.302 0.28277 0.44831 0.0
H1538 H 0.3047 0.28459 0.50536 0.0
H1539 H 0.2862 0.26661 0.55679 0.0
H1540 H 0.21622 0.19345 0.56194 0.0
H1541 H 0.21539 0.18945 0.50459 0.0
C1542 C 0.24916 0.22451 0.46437 0.0
C1543 C 0.26784 0.24483 0.44614 0.0
C1544 C 0.25021 0.22591 0.49737 0.0
C1545 C 0.28781 0.26634 0.46155 0.0
C1546 C 0.28922 0.26762 0.49427 0.0
C1547 C 0.27111 0.24948 0.54534 0.0
C1548 C 0.25142 0.23026 0.56354 0.0
C1549 C 0.27044 0.24763 0.51241 0.0
C1550 C 0.23151 0.2086 0.54839 0.0
C1551 C 0.23106 0.20628 0.51563 0.0
H1552 H 0.0181 0.96517 0.80566 0.0
H1553 H 0.00899 0.06587 0.81551 0.0
H1554 H 0.00749 0.07138 0.75865 0.0
H1555 H 0.00785 0.04767 0.70588 0.0
H1556 H 0.02116 0.94782 0.69587 0.0
H1557 H 0.02303 0.94206 0.75311 0.0
C1558 C 0.01646 0.98847 0.79557 0.0
C1559 C 0.01335 0.015 0.81524 0.0
C1560 C 0.01652 0.99166 0.76272 0.0
C1561 C 0.01063 0.04485 0.80126 0.0
C1562 C 0.01005 0.04812 0.76863 0.0
C1563 C 0.01132 0.02471 0.71634 0.0
C1564 C 0.01421 0.99817 0.69687 0.0
C1565 C 0.01272 0.02168 0.74915 0.0
C1566 C 0.01903 0.96856 0.7105 0.0
C1567 C 0.01993 0.96528 0.74316 0.0
H1568 H 0.29199 0.7504 0.94892 0.0
H1569 H 0.20153 0.79526 0.94337 0.0
H1570 H 0.1993 0.79856 1.00057 0.0
H1571 H 0.22251 0.7877 0.05232 0.0
H1572 H 0.31289 0.74271 0.0578 0.0
H1573 H 0.31596 0.74114 1.00057 0.0
C1574 C 0.27199 0.76132 0.9602 0.0
C1575 C 0.24691 0.77241 0.94183 0.0
C1576 C 0.27085 0.76317 0.99314 0.0
C1577 C 0.22097 0.7861 0.95692 0.0
C1578 C 0.21972 0.78812 0.98964 0.0
C1579 C 0.24283 0.77748 0.04097 0.0
C1580 C 0.26743 0.76539 0.05935 0.0
C1581 C 0.24437 0.77644 0.00801 0.0
C1582 C 0.29379 0.75258 0.04425 0.0
C1583 C 0.2955 0.75148 0.01151 0.0
H1584 H 0.47886 0.03671 0.30094 0.0
H1585 H 0.52262 0.9456 0.30657 0.0
H1586 H 0.5234 0.94195 0.24935 0.0
H1587 H 0.51291 0.96508 0.1978 0.0
H1588 H 0.46876 0.05596 0.19166 0.0
H1589 H 0.46703 0.05934 0.249 0.0
C1590 C 0.48819 0.0159 0.28963 0.0
C1591 C 0.50068 0.99148 0.30802 0.0
C1592 C 0.4887 0.014 0.25665 0.0
C1593 C 0.51316 0.96487 0.29298 0.0
C1594 C 0.51353 0.96272 0.26026 0.0
C1595 C 0.50249 0.98545 0.20896 0.0
C1596 C 0.49086 0.01017 0.19041 0.0
C1597 C 0.50154 0.98721 0.24187 0.0
C1598 C 0.47812 0.03671 0.20535 0.0
C1599 C 0.47698 0.03859 0.23814 0.0
H1600 H 0.45438 0.29232 0.23319 0.0
H1601 H 0.44473 0.19392 0.25541 0.0
H1602 H 0.50171 0.18801 0.25524 0.0
H1603 H 0.55411 0.21108 0.25061 0.0
H1604 H 0.56417 0.31016 0.23128 0.0
H1605 H 0.50727 0.31531 0.22759 0.0
C1606 C 0.4648 0.26953 0.23757 0.0
C1607 C 0.44542 0.2436 0.24434 0.0
C1608 C 0.49763 0.26641 0.2379 0.0
C1609 C 0.4592 0.21427 0.25039 0.0
C1610 C 0.49175 0.21087 0.25024 0.0
C1611 C 0.54393 0.23389 0.24581 0.0
C1612 C 0.56355 0.26021 0.24143 0.0
C1613 C 0.51118 0.23686 0.24445 0.0
C1614 C 0.54979 0.28939 0.23445 0.0
C1615 C 0.51718 0.29243 0.23257 0.0
H1616 H 0.0361 0.3041 0.51668 0.0
H1617 H 0.95744 0.31325 0.4534 0.0
H1618 H 0.95408 0.25616 0.44861 0.0
H1619 H 0.97312 0.20351 0.46283 0.0
H1620 H 0.05215 0.19471 0.52562 0.0
H1621 H 0.05638 0.25181 0.52919 0.0
C1622 C 0.01851 0.29373 0.50141 0.0
C1623 C 0.99702 0.31313 0.48549 0.0
C1624 C 0.01691 0.26087 0.49847 0.0
C1625 C 0.974 0.29901 0.46634 0.0
C1626 C 0.97218 0.26632 0.4634 0.0
C1627 C 0.99126 0.2141 0.47731 0.0
C1628 C 0.01229 0.19479 0.49391 0.0
C1629 C 0.9934 0.24701 0.47951 0.0
C1630 C 0.03592 0.20894 0.51224 0.0
C1631 C 0.0382 0.24162 0.51452 0.0
H1632 H 0.9498 0.73692 0.7891 0.0
H1633 H 0.93928 0.76806 0.69335 0.0
H1634 H 0.99633 0.7706 0.68759 0.0
H1635 H 0.04926 0.7662 0.71069 0.0
H1636 H 0.05908 0.73389 0.8063 0.0
H1637 H 1.00235 0.73034 0.81133 0.0
C1638 C 0.95999 0.74435 0.76699 0.0
C1639 C 0.94031 0.75246 0.74176 0.0
C1640 C 0.99274 0.74591 0.76392 0.0
C1641 C 0.9539 0.76147 0.71307 0.0
C1642 C 0.98653 0.76312 0.70984 0.0
C1643 C 0.03903 0.75809 0.73252 0.0
C1644 C 0.05858 0.75082 0.7582 0.0
C1645 C 0.0062 0.75566 0.73521 0.0
C1646 C 0.04474 0.74048 0.78637 0.0
C1647 C 0.01223 0.73815 0.78923 0.0
H1648 H 0.53426 0.70355 0.96957 0.0
H1649 H 0.4486 0.69951 0.02348 0.0
H1650 H 0.44621 0.75661 0.02447 0.0
H1651 H 0.46893 0.80794 0.01133 0.0
H1652 H 0.55595 0.81252 0.96014 0.0
H1653 H 0.55761 0.75507 0.9573 0.0
C1654 C 0.51521 0.71511 0.98178 0.0
C1655 C 0.49151 0.69704 0.99612 0.0
C1656 C 0.51425 0.74814 0.98286 0.0
C1657 C 0.46683 0.71262 0.01156 0.0
C1658 C 0.46553 0.74537 0.0124 0.0
C1659 C 0.48807 0.79632 0.99928 0.0
C1660 C 0.51218 0.81436 0.98582 0.0
C1661 C 0.48908 0.76336 0.99814 0.0
C1662 C 0.53718 0.79906 0.97077 0.0
C1663 C 0.5381 0.76625 0.96911 0.0
H1664 H 0.55338 0.71637 0.24708 0.0
H1665 H 0.56137 0.80137 0.30181 0.0
H1666 H 0.50425 0.80394 0.30658 0.0
H1667 H 0.45201 0.78274 0.29396 0.0
H1668 H 0.44435 0.69952 0.23612 0.0
H1669 H 0.50117 0.69516 0.23454 0.0
C1670 C 0.54258 0.73521 0.26038 0.0
C1671 C 0.56151 0.7586 0.27412 0.0
C1672 C 0.50974 0.73683 0.26256 0.0
C1673 C 0.54723 0.78318 0.29088 0.0
C1674 C 0.5146 0.78463 0.29364 0.0
C1675 C 0.4627 0.76374 0.28083 0.0
C1676 C 0.44363 0.74143 0.26538 0.0
C1677 C 0.49558 0.76177 0.27927 0.0
C1678 C 0.45816 0.71673 0.24887 0.0
C1679 C 0.49078 0.71433 0.24767 0.0
H1680 H 0.53032 0.19971 0.4688 0.0
H1681 H 0.47295 0.19 0.55158 0.0
H1682 H 0.46894 0.24722 0.55581 0.0
H1683 H 0.48259 0.29999 0.53644 0.0
H1684 H 0.53862 0.30908 0.45248 0.0
H1685 H 0.54307 0.25218 0.44892 0.0
C1686 C 0.51716 0.21011 0.48794 0.0
C1687 C 0.5021 0.19061 0.50994 0.0
C1688 C 0.51496 0.24294 0.49021 0.0
C1689 C 0.48458 0.20447 0.53421 0.0
C1690 C 0.48243 0.23718 0.53673 0.0
C1691 C 0.49555 0.28958 0.51719 0.0
C1692 C 0.51045 0.30903 0.49494 0.0
C1693 C 0.49756 0.25666 0.51488 0.0
C1694 C 0.52747 0.29491 0.47039 0.0
C1695 C 0.5298 0.26228 0.46813 0.0
H1696 H 0.05465 0.21998 0.77726 0.0
H1697 H 0.05912 0.31366 0.7388 0.0
H1698 H 1.00205 0.31695 0.73936 0.0
H1699 H 0.95082 0.29244 0.74848 0.0
H1700 H 0.94596 0.19914 0.78771 0.0
H1701 H 0.00317 0.19659 0.78931 0.0
C1702 C 0.04315 0.24127 0.76943 0.0
C1703 C 0.06116 0.2664 0.75774 0.0
C1704 C 0.01023 0.24305 0.76981 0.0
C1705 C 0.04582 0.29372 0.74737 0.0
C1706 C 0.01318 0.29571 0.74783 0.0
C1707 C 0.96225 0.27175 0.75788 0.0
C1708 C 0.94411 0.24599 0.76782 0.0
C1709 C 0.99513 0.2704 0.75866 0.0
C1710 C 0.95936 0.21915 0.77948 0.0
C1711 C 0.99209 0.21771 0.78052 0.0
H1712 H 0.96203 0.80259 0.01934 0.0
H1713 H 0.06288 0.81215 0.01663 0.0
H1714 H 0.06833 0.75516 0.01787 0.0
H1715 H 0.0446 0.70261 0.01677 0.0
H1716 H 0.94374 0.69311 0.01461 0.0
H1717 H 0.9383 0.75002 0.01837 0.0
C1718 C 0.98525 0.7923 0.01878 0.0
C1719 C 0.01197 0.81188 0.01772 0.0
C1720 C 0.98826 0.75942 0.0186 0.0
C1721 C 0.04184 0.79789 0.01784 0.0
C1722 C 0.04501 0.76521 0.01827 0.0
C1723 C 0.02138 0.71291 0.01686 0.0
C1724 C 0.99465 0.69338 0.0152 0.0
C1725 C 0.01838 0.74576 0.01816 0.0
C1726 C 0.96479 0.70733 0.01622 0.0
C1727 C 0.96163 0.73997 0.0181 0.0
H1728 H 0.21118 0.45381 0.23785 0.0
H1729 H 0.30076 0.44848 0.28471 0.0
H1730 H 0.30488 0.50568 0.28491 0.0
H1731 H 0.28317 0.55721 0.27197 0.0
H1732 H 0.19329 0.5635 0.22592 0.0
H1733 H 0.18889 0.50607 0.22553 0.0
C1734 C 0.23161 0.46527 0.24793 0.0
C1735 C 0.25561 0.44701 0.26129 0.0
C1736 C 0.23367 0.49831 0.2483 0.0
C1737 C 0.28186 0.46208 0.27456 0.0
C1738 C 0.28428 0.49477 0.27462 0.0
C1739 C 0.26268 0.54599 0.26171 0.0
C1740 C 0.23868 0.56455 0.24885 0.0
C1741 C 0.26033 0.5131 0.26162 0.0
C1742 C 0.21199 0.54972 0.23617 0.0
C1743 C 0.20956 0.51689 0.23577 0.0
H1744 H 0.71076 0.05338 0.7667 0.0
H1745 H 0.80062 0.05769 0.7203 0.0
H1746 H 0.8023 1.0005 0.71769 0.0
H1747 H 0.77909 0.94919 0.72988 0.0
H1748 H 0.68851 0.94464 0.77475 0.0
H1749 H 0.68624 1.00196 0.77642 0.0
C1750 C 0.73054 0.04184 0.75568 0.0
C1751 C 0.75564 0.0599 0.74401 0.0
C1752 C 0.73128 0.00886 0.754 0.0
C1753 C 0.78125 0.04444 0.73009 0.0
C1754 C 0.78215 0.0117 0.72836 0.0
C1755 C 0.75859 0.9607 0.73954 0.0
C1756 C 0.73405 0.94258 0.75222 0.0
C1757 C 0.75741 0.99366 0.74042 0.0
C1758 C 0.70793 0.95798 0.76518 0.0
C1759 C 0.70655 0.99077 0.76605 0.0
H1760 H 0.30335 0.52581 0.02891 0.0
H1761 H 0.30963 0.44765 0.96447 0.0
H1762 H 0.25245 0.44444 0.96206 0.0
H1763 H 0.20063 0.4646 0.97745 0.0
H1764 H 0.1948 0.54176 0.04313 0.0
H1765 H 0.2519 0.54432 0.04608 0.0
C1766 C 0.29229 0.50772 0.0147 0.0
C1767 C 0.31086 0.487 0.99692 0.0
C1768 C 0.25945 0.50586 0.01359 0.0
C1769 C 0.29597 0.46417 0.9781 0.0
C1770 C 0.26325 0.46219 0.97685 0.0
C1771 C 0.21184 0.48168 0.99275 0.0
C1772 C 0.19342 0.50303 0.00995 0.0
C1773 C 0.24475 0.48301 0.9944 0.0
C1774 C 0.20839 0.52533 0.0293 0.0
C1775 C 0.24105 0.52674 0.03111 0.0
H1776 H 0.72218 0.05804 0.23367 0.0
H1777 H 0.81567 0.0631 0.27237 0.0
H1778 H 0.8181 0.00578 0.2742 0.0
H1779 H 0.79324 0.95415 0.26577 0.0
H1780 H 0.7004 0.94944 0.22538 0.0
H1781 H 0.69826 0.00661 0.22324 0.0
C1782 C 0.74331 0.04665 0.24205 0.0
C1783 C 0.7687 0.06495 0.25285 0.0
C1784 C 0.7446 0.01368 0.24295 0.0
C1785 C 0.79562 0.04966 0.26423 0.0
C1786 C 0.79709 0.01686 0.26517 0.0
C1787 C 0.77267 0.9656 0.2562 0.0
C1788 C 0.74693 0.94739 0.24603 0.0
C1789 C 0.77165 0.99861 0.25476 0.0
C1790 C 0.72032 0.96276 0.234 0.0
C1791 C 0.71914 0.99551 0.23253 0.0
H1792 H 0.8061 0.03351 0.97027 0.0
H1793 H 0.81431 0.98204 0.05701 0.0
H1794 H 0.75725 0.98128 0.0625 0.0
H1795 H 0.70521 0.99387 0.04197 0.0
H1796 H 0.69652 0.04233 0.95338 0.0
H1797 H 0.75351 0.04638 0.94973 0.0
C1798 C 0.79531 0.02246 0.99051 0.0
C1799 C 0.81428 0.00783 0.0132 0.0
C1800 C 0.76245 0.02162 0.99321 0.0
C1801 C 0.80011 0.99325 0.03915 0.0
C1802 C 0.76753 0.99285 0.04231 0.0
C1803 C 0.71568 0.00506 0.02166 0.0
C1804 C 0.6964 0.01761 0.99793 0.0
C1805 C 0.74848 0.00662 0.0193 0.0
C1806 C 0.7106 0.03275 0.97223 0.0
C1807 C 0.74327 0.03488 0.96998 0.0
H1808 H 0.28665 0.55653 0.77952 0.0
H1809 H 0.22858 0.56706 0.6971 0.0
H1810 H 0.22688 0.51011 0.69036 0.0
H1811 H 0.23997 0.45721 0.70911 0.0
H1812 H 0.29682 0.4465 0.7923 0.0
H1813 H 0.30094 0.50358 0.79747 0.0
C1814 C 0.27357 0.54636 0.76012 0.0
C1815 C 0.25771 0.56609 0.7389 0.0
C1816 C 0.2724 0.51354 0.75655 0.0
C1817 C 0.2413 0.5525 0.71358 0.0
C1818 C 0.24011 0.5199 0.70983 0.0
C1819 C 0.25318 0.46738 0.72843 0.0
C1820 C 0.26792 0.44762 0.75038 0.0
C1821 C 0.25527 0.50019 0.73137 0.0
C1822 C 0.28546 0.46116 0.77494 0.0
C1823 C 0.28767 0.4938 0.77801 0.0
H1824 H 0.20262 0.46616 0.51235 0.0
H1825 H 0.19222 0.5611 0.47832 0.0
H1826 H 0.24919 0.5666 0.47536 0.0
H1827 H 0.30226 0.54492 0.48412 0.0
H1828 H 0.31177 0.45123 0.52134 0.0
H1829 H 0.25484 0.44517 0.52229 0.0
C1830 C 0.21266 0.48829 0.5047 0.0
C1831 C 0.19291 0.51321 0.49575 0.0
C1832 C 0.24538 0.49163 0.50391 0.0
C1833 C 0.20665 0.54132 0.48502 0.0
C1834 C 0.2393 0.54461 0.48357 0.0
C1835 C 0.29177 0.52322 0.49239 0.0
C1836 C 0.31115 0.49863 0.50283 0.0
C1837 C 0.25892 0.51999 0.49315 0.0
C1838 C 0.29733 0.47065 0.51363 0.0
C1839 C 0.2648 0.4671 0.51399 0.0
H1840 H 0.78633 0.72023 0.95358 0.0
H1841 H 0.69487 0.7615 0.94163 0.0
H1842 H 0.68883 0.76543 0.99858 0.0
H1843 H 0.71052 0.75946 0.05144 0.0
H1844 H 0.80071 0.71512 0.06381 0.0
H1845 H 0.80657 0.71092 0.00703 0.0
C1846 C 0.76506 0.72997 0.96353 0.0
C1847 C 0.74109 0.74058 0.94348 0.0
C1848 C 0.76168 0.732 0.99631 0.0
C1849 C 0.71351 0.75289 0.9566 0.0
C1850 C 0.71014 0.75533 0.98914 0.0
C1851 C 0.73124 0.74828 0.04193 0.0
C1852 C 0.75518 0.73782 0.06222 0.0
C1853 C 0.73417 0.74518 0.00921 0.0
C1854 C 0.78212 0.72405 0.04901 0.0
C1855 C 0.78542 0.72136 0.01644 0.0
H1856 H 0.49289 0.46406 0.29667 0.0
H1857 H 0.5305 0.55795 0.30598 0.0
H1858 H 0.53409 0.56227 0.24889 0.0
H1859 H 0.52389 0.54038 0.19612 0.0
H1860 H 0.4837 0.44762 0.18733 0.0
H1861 H 0.48312 0.44215 0.24444 0.0
C1862 C 0.5016 0.48564 0.2863 0.0
C1863 C 0.5112 0.51071 0.30575 0.0
C1864 C 0.50294 0.48825 0.25348 0.0
C1865 C 0.52321 0.53813 0.29172 0.0
C1866 C 0.52506 0.54073 0.25902 0.0
C1867 C 0.51534 0.51887 0.20676 0.0
C1868 C 0.50382 0.49444 0.18757 0.0
C1869 C 0.51471 0.51605 0.23966 0.0
C1870 C 0.49243 0.46684 0.20164 0.0
C1871 C 0.49218 0.46367 0.23426 0.0
H1872 H 0.71873 0.23888 0.4544 0.0
H1873 H 0.79564 0.30441 0.44503 0.0
H1874 H 0.79924 0.30901 0.50209 0.0
H1875 H 0.78113 0.29377 0.55471 0.0
H1876 H 0.70418 0.2283 0.56387 0.0
H1877 H 0.69936 0.22522 0.50682 0.0
C1878 C 0.73599 0.25457 0.46476 0.0
C1879 C 0.75694 0.27119 0.44534 0.0
C1880 C 0.7378 0.25728 0.4976 0.0
C1881 C 0.77951 0.29095 0.45934 0.0
C1882 C 0.78147 0.29376 0.492 0.0
C1883 C 0.76333 0.2788 0.54422 0.0
C1884 C 0.74307 0.26129 0.56359 0.0
C1885 C 0.7609 0.27685 0.51136 0.0
C1886 C 0.71982 0.24236 0.54958 0.0
C1887 C 0.71721 0.24037 0.51693 0.0
H1888 H 0.99739 0.46379 0.69914 0.0
H1889 H 0.98377 0.56405 0.69246 0.0
H1890 H 0.98413 0.56829 0.74965 0.0
H1891 H 0.9895 0.54375 0.80151 0.0
H1892 H 1.00073 0.44318 0.80814 0.0
H1893 H 1.00002 0.43892 0.75099 0.0
C1894 C 0.99396 0.48653 0.71014 0.0
C1895 C 0.99058 0.51355 0.6914 0.0
C1896 C 0.99393 0.48879 0.74306 0.0
C1897 C 0.98684 0.54289 0.70621 0.0
C1898 C 0.98688 0.54533 0.73895 0.0
C1899 C 0.99129 0.52082 0.79052 0.0
C1900 C 0.99525 0.49385 0.80923 0.0
C1901 C 0.99056 0.51846 0.7576 0.0
C1902 C 0.99815 0.46441 0.79442 0.0
C1903 C 0.99755 0.46191 0.7617 0.0
H1904 H 0.80578 0.97356 0.46699 0.0
H1905 H 0.80985 0.0221 0.556 0.0
H1906 H 0.75281 0.02057 0.55977 0.0
H1907 H 0.70162 0.00756 0.53684 0.0
H1908 H 0.69708 0.95889 0.44796 0.0
H1909 H 0.75433 0.95821 0.44519 0.0
C1910 C 0.79418 0.98345 0.48737 0.0
C1911 C 0.81208 0.99817 0.51101 0.0
C1912 C 0.76125 0.98258 0.48939 0.0
C1913 C 0.79663 0.01113 0.53717 0.0
C1914 C 0.764 0.01012 0.53945 0.0
C1915 C 0.71314 0.99634 0.51711 0.0
C1916 C 0.69506 0.98337 0.49263 0.0
C1917 C 0.74605 0.99621 0.51556 0.0
C1918 C 0.71043 0.96938 0.46697 0.0
C1919 C 0.74318 0.96889 0.4654 0.0
loop_
_geom_bond_atom_site_label_1
_geom_bond_atom_site_label_2
_geom_bond_distance
_geom_bond_site_symmetry_2
_ccdc_geom_bond_type
Li0 N17 1.990 . S
Li0 O60 1.956 . S
Li0 O61 1.970 . S
Li0 O62 1.961 . S
Li1 N25 1.990 . S
Li1 O60 1.970 . S
Li1 O61 1.956 . S
Li1 O63 1.961 . S
Li2 N47 1.990 . S
Li2 O60 1.961 . S
Li2 O62 1.956 . S
Li2 O63 1.970 . S
Li3 N53 1.990 . S
Li3 O61 1.961 . S
Li3 O62 1.970 . S
Li3 O63 1.956 . S
C4 C6 1.348 . S
C4 C7 1.356 . S
C4 O60 1.325 . S
N5 C8 1.314 . S
N5 C9 1.279 . S
C6 C4 1.348 . S
C6 C8 1.353 . S
C6 H64 0.929 . S
C7 C4 1.356 . S
C7 C9 1.358 . S
C7 H65 0.930 . S
C8 N5 1.314 . S
C8 C6 1.353 . S
C8 H66 0.930 . S
C9 N5 1.279 . S
C9 C7 1.358 . S
C9 H67 0.930 . S
C10 C13 1.348 . S
C10 C14 1.356 . S
C10 O61 1.325 . S
C11 N12 1.279 . S
C11 C14 1.358 . S
C11 H68 0.930 . S
N12 C11 1.279 . S
N12 C15 1.314 . S
C13 C10 1.348 . S
C13 C15 1.353 . S
C13 H69 0.929 . S
C14 C10 1.356 . S
C14 C11 1.358 . S
C14 H70 0.930 . S
C15 N12 1.314 . S
C15 C13 1.353 . S
C15 H71 0.930 . S
C16 N17 1.314 . S
C16 C21 1.353 . S
C16 H22 0.930 . S
N17 Li0 1.990 . S
N17 C16 1.314 . S
N17 C19 1.279 . S
C18 C19 1.358 . S
C18 C20 1.356 . S
C18 H72 0.930 . S
C19 N17 1.279 . S
C19 C18 1.358 . S
C19 H23 0.930 . S
C20 C18 1.356 . S
C20 C21 1.348 . S
C21 C16 1.353 . S
C21 C20 1.348 . S
C21 H73 0.929 . S
H22 C16 0.930 . S
H23 C19 0.930 . S
C24 N25 1.314 . S
C24 C26 1.353 . S
C24 H30 0.930 . S
N25 Li1 1.990 . S
N25 C24 1.314 . S
N25 C28 1.279 . S
C26 C24 1.353 . S
C26 C29 1.348 . S
C26 H74 0.929 . S
C27 C28 1.358 . S
C27 C29 1.356 . S
C27 H75 0.930 . S
C28 N25 1.279 . S
C28 C27 1.358 . S
C28 H31 0.930 . S
C29 C26 1.348 . S
C29 C27 1.356 . S
H30 C24 0.930 . S
H31 C28 0.930 . S
C32 C34 1.348 . S
C32 C35 1.356 . S
C32 O62 1.325 . S
N33 C36 1.314 . S
N33 C37 1.279 . S
C34 C32 1.348 . S
C34 C36 1.353 . S
C34 H76 0.929 . S
C35 C32 1.356 . S
C35 C37 1.358 . S
C35 H77 0.930 . S
C36 N33 1.314 . S
C36 C34 1.353 . S
C36 H78 0.930 . S
C37 N33 1.279 . S
C37 C35 1.358 . S
C37 H79 0.930 . S
C38 C39 1.348 . S
C38 C40 1.356 . S
C38 O63 1.325 . S
C39 C38 1.348 . S
C39 C41 1.353 . S
C39 H80 0.929 . S
C40 C38 1.356 . S
C40 C42 1.358 . S
C40 H81 0.930 . S
C41 C39 1.353 . S
C41 N43 1.314 . S
C41 H82 0.930 . S
C42 C40 1.358 . S
C42 N43 1.279 . S
C42 H83 0.930 . S
N43 C41 1.314 . S
N43 C42 1.279 . S
C44 C46 1.353 . S
C44 N47 1.314 . S
C44 H50 0.930 . S
C45 N47 1.279 . S
C45 C48 1.358 . S
C45 H51 0.930 . S
C46 C44 1.353 . S
C46 C49 1.348 . S
C46 H84 0.929 . S
N47 Li2 1.990 . S
N47 C44 1.314 . S
N47 C45 1.279 . S
C48 C45 1.358 . S
C48 C49 1.356 . S
C48 H85 0.930 . S
C49 C46 1.348 . S
C49 C48 1.356 . S
H50 C44 0.930 . S
H51 C45 0.930 . S
C52 N53 1.314 . S
C52 C54 1.353 . S
C52 H58 0.930 . S
N53 Li3 1.990 . S
N53 C52 1.314 . S
N53 C56 1.279 . S
C54 C52 1.353 . S
C54 C57 1.348 . S
C54 H86 0.929 . S
C55 C56 1.358 . S
C55 C57 1.356 . S
C55 H87 0.930 . S
C56 N53 1.279 . S
C56 C55 1.358 . S
C56 H59 0.930 . S
C57 C54 1.348 . S
C57 C55 1.356 . S
H58 C52 0.930 . S
H59 C56 0.930 . S
O60 Li0 1.956 . S
O60 Li1 1.970 . S
O60 Li2 1.961 . S
O60 C4 1.325 . S
O61 Li0 1.970 . S
O61 Li1 1.956 . S
O61 Li3 1.961 . S
O61 C10 1.325 . S
O62 Li0 1.961 . S
O62 Li2 1.956 . S
O62 Li3 1.970 . S
O62 C32 1.325 . S
O63 Li1 1.961 . S
O63 Li2 1.970 . S
O63 Li3 1.956 . S
O63 C38 1.325 . S
H64 C6 0.929 . S
H65 C7 0.930 . S
H66 C8 0.930 . S
H67 C9 0.930 . S
H68 C11 0.930 . S
H69 C13 0.929 . S
H70 C14 0.930 . S
H71 C15 0.930 . S
H72 C18 0.930 . S
H73 C21 0.929 . S
H74 C26 0.929 . S
H75 C27 0.930 . S
H76 C34 0.929 . S
H77 C35 0.930 . S
H78 C36 0.930 . S
H79 C37 0.930 . S
H80 C39 0.929 . S
H81 C40 0.930 . S
H82 C41 0.930 . S
H83 C42 0.930 . S
H84 C46 0.929 . S
H85 C48 0.930 . S
H86 C54 0.929 . S
H87 C55 0.930 . S
Li88 N105 1.990 . S
Li88 O148 1.956 . S
Li88 O149 1.970 . S
Li88 O150 1.961 1_655 S
Li89 N113 1.990 . S
Li89 O148 1.970 . S
Li89 O149 1.956 . S
Li89 O151 1.961 1_545 S
Li90 N135 1.990 . S
Li90 O148 1.961 . S
Li90 O150 1.956 1_655 S
Li90 O151 1.970 1_545 S
Li91 N141 1.987 1_655 S
Li91 O149 1.965 1_565 S
Li91 O150 1.968 1_665 S
Li91 O151 1.961 . S
C92 C94 1.348 . S
C92 C95 1.356 . S
C92 O148 1.325 . S
N93 C96 1.314 . S
N93 C97 1.279 . S
C94 C92 1.348 . S
C94 C96 1.353 . S
C94 H152 0.929 . S
C95 C92 1.356 . S
C95 C97 1.358 . S
C95 H153 0.930 . S
C96 N93 1.314 . S
C96 C94 1.353 . S
C96 H154 0.930 . S
C97 N93 1.279 . S
C97 C95 1.358 . S
C97 H155 0.930 . S
C98 C101 1.348 . S
C98 C102 1.356 . S
C98 O149 1.325 . S
C99 N100 1.279 . S
C99 C102 1.358 . S
C99 H156 0.930 . S
N100 C99 1.279 . S
N100 C103 1.314 . S
C101 C98 1.348 . S
C101 C103 1.353 . S
C101 H157 0.929 . S
C102 C98 1.356 . S
C102 C99 1.358 . S
C102 H158 0.930 1_545 S
C103 N100 1.314 . S
C103 C101 1.353 . S
C103 H159 0.930 . S
C104 N105 1.314 1_455 S
C104 C109 1.353 . S
C104 H110 0.930 . S
N105 Li88 1.990 . S
N105 C104 1.314 1_655 S
N105 C107 1.279 . S
C106 C107 1.358 . S
C106 C108 1.356 1_655 S
C106 H160 0.930 . S
C107 N105 1.279 . S
C107 C106 1.358 . S
C107 H111 0.930 . S
C108 C106 1.356 1_455 S
C108 C109 1.348 . S
C109 C104 1.353 . S
C109 C108 1.348 . S
C109 H161 0.929 . S
H110 C104 0.930 . S
H111 C107 0.930 . S
C112 N113 1.314 1_565 S
C112 C114 1.353 . S
C112 H118 0.930 . S
N113 Li89 1.990 . S
N113 C112 1.314 1_545 S
N113 C116 1.279 . S
C114 C112 1.353 . S
C114 C117 1.357 . S
C114 H162 0.929 . S
C115 C116 1.358 . S
C115 C117 1.346 1_545 S
C115 H163 0.930 . S
C116 N113 1.279 . S
C116 C115 1.358 . S
C116 H119 0.930 . S
C117 C114 1.357 . S
C117 C115 1.346 1_565 S
H118 C112 0.930 . S
H119 C116 0.930 . S
C120 C122 1.348 . S
C120 C123 1.356 . S
C120 O150 1.325 . S
N121 C124 1.314 . S
N121 C125 1.279 . S
C122 C120 1.348 . S
C122 C124 1.353 . S
C122 H164 0.929 1_545 S
C123 C120 1.356 . S
C123 C125 1.358 . S
C123 H165 0.930 . S
C124 N121 1.314 . S
C124 C122 1.353 . S
C124 H166 0.930 . S
C125 N121 1.279 . S
C125 C123 1.358 . S
C125 H167 0.930 . S
C126 C127 1.348 . S
C126 C128 1.356 . S
C126 O151 1.325 . S
C127 C126 1.348 . S
C127 C129 1.353 . S
C127 H168 0.929 . S
C128 C126 1.356 . S
C128 C130 1.358 . S
C128 H169 0.930 . S
C129 C127 1.353 . S
C129 N131 1.314 . S
C129 H170 0.930 . S
C130 C128 1.358 . S
C130 N131 1.279 . S
C130 H171 0.930 . S
N131 C129 1.314 . S
N131 C130 1.279 . S
C132 C134 1.354 . S
C132 N135 1.314 1_565 S
C132 H138 0.929 1_565 S
C133 N135 1.279 1_465 S
C133 C136 1.358 . S
C133 H139 0.930 1_565 S
C134 C132 1.354 . S
C134 C137 1.350 1_655 S
C134 H172 0.929 . S
N135 Li90 1.990 . S
N135 C132 1.314 1_545 S
N135 C133 1.279 1_645 S
C136 C133 1.358 . S
C136 C137 1.354 . S
C136 H173 0.930 . S
C137 C134 1.350 1_455 S
C137 C136 1.354 . S
H138 C132 0.929 1_545 S
H139 C133 0.930 1_545 S
C140 N141 1.314 . S
C140 C142 1.353 . S
C140 H146 0.930 1_565 S
N141 Li91 1.987 1_455 S
N141 C140 1.314 . S
N141 C144 1.279 . S
C142 C140 1.353 . S
C142 C145 1.348 . S
C142 H174 0.929 . S
C143 C144 1.358 . S
C143 C145 1.356 . S
C143 H175 0.930 . S
C144 N141 1.279 . S
C144 C143 1.358 . S
C144 H147 0.930 . S
C145 C142 1.348 . S
C145 C143 1.356 . S
H146 C140 0.930 1_545 S
H147 C144 0.930 . S
O148 Li88 1.956 . S
O148 Li89 1.970 . S
O148 Li90 1.961 . S
O148 C92 1.325 . S
O149 Li88 1.970 . S
O149 Li89 1.956 . S
O149 Li91 1.965 1_545 S
O149 C98 1.325 . S
O150 Li88 1.961 1_455 S
O150 Li90 1.956 1_455 S
O150 Li91 1.968 1_445 S
O150 C120 1.325 . S
O151 Li89 1.961 1_565 S
O151 Li90 1.970 1_565 S
O151 Li91 1.961 . S
O151 C126 1.325 . S
H152 C94 0.929 . S
H153 C95 0.930 . S
H154 C96 0.930 . S
H155 C97 0.930 . S
H156 C99 0.930 . S
H157 C101 0.929 . S
H158 C102 0.930 1_565 S
H159 C103 0.930 . S
H160 C106 0.930 . S
H161 C109 0.929 . S
H162 C114 0.929 . S
H163 C115 0.930 . S
H164 C122 0.929 1_565 S
H165 C123 0.930 . S
H166 C124 0.930 . S
H167 C125 0.930 . S
H168 C127 0.929 . S
H169 C128 0.930 . S
H170 C129 0.930 . S
H171 C130 0.930 . S
H172 C134 0.929 . S
H173 C136 0.930 . S
H174 C142 0.929 . S
H175 C143 0.930 . S
Li176 N193 1.990 . S
Li176 O236 1.956 . S
Li176 O237 1.970 . S
Li176 O238 1.961 . S
Li177 N201 1.990 . S
Li177 O236 1.970 . S
Li177 O237 1.956 . S
Li177 O239 1.961 . S
Li178 N223 1.990 . S
Li178 O236 1.961 . S
Li178 O238 1.956 . S
Li178 O239 1.970 . S
Li179 N229 1.990 . S
Li179 O237 1.961 . S
Li179 O238 1.970 . S
Li179 O239 1.956 . S
C180 C182 1.348 . S
C180 C183 1.356 . S
C180 O236 1.325 . S
N181 C184 1.314 . S
N181 C185 1.279 . S
C182 C180 1.348 . S
C182 C184 1.353 . S
C182 H240 0.929 . S
C183 C180 1.356 . S
C183 C185 1.358 . S
C183 H241 0.930 . S
C184 N181 1.314 . S
C184 C182 1.353 . S
C184 H242 0.930 . S
C185 N181 1.279 . S
C185 C183 1.358 . S
C185 H243 0.930 . S
C186 C189 1.348 . S
C186 C190 1.356 . S
C186 O237 1.325 . S
C187 N188 1.279 . S
C187 C190 1.358 . S
C187 H244 0.930 . S
N188 C187 1.279 . S
N188 C191 1.314 . S
C189 C186 1.348 . S
C189 C191 1.353 . S
C189 H245 0.929 . S
C190 C186 1.356 . S
C190 C187 1.358 . S
C190 H246 0.930 . S
C191 N188 1.314 . S
C191 C189 1.353 . S
C191 H247 0.930 . S
C192 N193 1.314 . S
C192 C197 1.353 . S
C192 H198 0.930 . S
N193 Li176 1.990 . S
N193 C192 1.314 . S
N193 C195 1.279 . S
C194 C195 1.358 . S
C194 C196 1.356 . S
C194 H248 0.930 . S
C195 N193 1.279 . S
C195 C194 1.358 . S
C195 H199 0.930 . S
C196 C194 1.356 . S
C196 C197 1.348 . S
C197 C192 1.353 . S
C197 C196 1.348 . S
C197 H249 0.929 . S
H198 C192 0.930 . S
H199 C195 0.930 . S
C200 N201 1.314 . S
C200 C202 1.353 . S
C200 H206 0.930 . S
N201 Li177 1.990 . S
N201 C200 1.314 . S
N201 C204 1.279 . S
C202 C200 1.353 . S
C202 C205 1.348 . S
C202 H250 0.929 . S
C203 C204 1.358 . S
C203 C205 1.356 . S
C203 H251 0.930 . S
C204 N201 1.279 . S
C204 C203 1.358 . S
C204 H207 0.930 . S
C205 C202 1.348 . S
C205 C203 1.356 . S
H206 C200 0.930 . S
H207 C204 0.930 . S
C208 C210 1.348 . S
C208 C211 1.356 . S
C208 O238 1.325 . S
N209 C212 1.314 . S
N209 C213 1.279 . S
C210 C208 1.348 . S
C210 C212 1.353 . S
C210 H252 0.929 . S
C211 C208 1.356 . S
C211 C213 1.358 . S
C211 H253 0.930 . S
C212 N209 1.314 . S
C212 C210 1.353 . S
C212 H254 0.930 . S
C213 N209 1.279 . S
C213 C211 1.358 . S
C213 H255 0.930 . S
C214 C215 1.348 . S
C214 C216 1.356 . S
C214 O239 1.325 . S
C215 C214 1.348 . S
C215 C217 1.353 . S
C215 H256 0.929 . S
C216 C214 1.356 . S
C216 C218 1.358 . S
C216 H257 0.930 . S
C217 C215 1.353 . S
C217 N219 1.314 . S
C217 H258 0.930 . S
C218 C216 1.358 . S
C218 N219 1.279 . S
C218 H259 0.930 . S
N219 C217 1.314 . S
N219 C218 1.279 . S
C220 C222 1.353 . S
C220 N223 1.314 . S
C220 H226 0.930 . S
C221 N223 1.279 . S
C221 C224 1.358 . S
C221 H227 0.930 . S
C222 C220 1.353 . S
C222 C225 1.348 . S
C222 H260 0.929 . S
N223 Li178 1.990 . S
N223 C220 1.314 . S
N223 C221 1.279 . S
C224 C221 1.358 . S
C224 C225 1.356 . S
C224 H261 0.930 . S
C225 C222 1.348 . S
C225 C224 1.356 . S
H226 C220 0.930 . S
H227 C221 0.930 . S
C228 N229 1.314 . S
C228 C230 1.353 . S
C228 H234 0.930 . S
N229 Li179 1.990 . S
N229 C228 1.314 . S
N229 C232 1.279 . S
C230 C228 1.353 . S
C230 C233 1.348 . S
C230 H262 0.929 . S
C231 C232 1.358 . S
C231 C233 1.356 . S
C231 H263 0.930 . S
C232 N229 1.279 . S
C232 C231 1.358 . S
C232 H235 0.930 . S
C233 C230 1.348 . S
C233 C231 1.356 . S
H234 C228 0.930 . S
H235 C232 0.930 . S
O236 Li176 1.956 . S
O236 Li177 1.970 . S
O236 Li178 1.961 . S
O236 C180 1.325 . S
O237 Li176 1.970 . S
O237 Li177 1.956 . S
O237 Li179 1.961 . S
O237 C186 1.325 . S
O238 Li176 1.961 . S
O238 Li178 1.956 . S
O238 Li179 1.970 . S
O238 C208 1.325 . S
O239 Li177 1.961 . S
O239 Li178 1.970 . S
O239 Li179 1.956 . S
O239 C214 1.325 . S
H240 C182 0.929 . S
H241 C183 0.930 . S
H242 C184 0.930 . S
H243 C185 0.930 . S
H244 C187 0.930 . S
H245 C189 0.929 . S
H246 C190 0.930 . S
H247 C191 0.930 . S
H248 C194 0.930 . S
H249 C197 0.929 . S
H250 C202 0.929 . S
H251 C203 0.930 . S
H252 C210 0.929 . S
H253 C211 0.930 . S
H254 C212 0.930 . S
H255 C213 0.930 . S
H256 C215 0.929 . S
H257 C216 0.930 . S
H258 C217 0.930 . S
H259 C218 0.930 . S
H260 C222 0.929 . S
H261 C224 0.930 . S
H262 C230 0.929 . S
H263 C231 0.930 . S
Li264 N281 1.990 . S
Li264 O324 1.956 . S
Li264 O325 1.970 . S
Li264 O326 1.961 1_565 S
Li265 N289 1.990 . S
Li265 O324 1.970 . S
Li265 O325 1.956 . S
Li265 O327 1.961 1_554 S
Li266 N311 1.990 . S
Li266 O324 1.961 . S
Li266 O326 1.956 1_565 S
Li266 O327 1.970 1_554 S
Li267 N317 1.980 1_565 S
Li267 O325 1.971 1_556 S
Li267 O326 1.963 1_566 S
Li267 O327 1.969 . S
C268 C270 1.348 . S
C268 C271 1.356 . S
C268 O324 1.325 . S
N269 C272 1.314 . S
N269 C273 1.279 . S
C270 C268 1.348 . S
C270 C272 1.353 . S
C270 H328 0.929 . S
C271 C268 1.356 . S
C271 C273 1.358 . S
C271 H329 0.930 . S
C272 N269 1.314 . S
C272 C270 1.353 . S
C272 H330 0.930 . S
C273 N269 1.279 . S
C273 C271 1.358 . S
C273 H331 0.930 . S
C274 C277 1.348 . S
C274 C278 1.356 . S
C274 O325 1.325 . S
C275 N276 1.279 . S
C275 C278 1.358 . S
C275 H332 0.930 . S
N276 C275 1.279 . S
N276 C279 1.314 . S
C277 C274 1.348 . S
C277 C279 1.353 . S
C277 H333 0.929 . S
C278 C274 1.356 . S
C278 C275 1.358 . S
C278 H334 0.930 1_554 S
C279 N276 1.314 . S
C279 C277 1.353 . S
C279 H335 0.930 . S
C280 N281 1.314 1_545 S
C280 C285 1.353 . S
C280 H286 0.930 . S
N281 Li264 1.990 . S
N281 C280 1.314 1_565 S
N281 C283 1.279 . S
C282 C283 1.358 . S
C282 C284 1.356 1_565 S
C282 H336 0.930 . S
C283 N281 1.279 . S
C283 C282 1.358 . S
C283 H287 0.930 . S
C284 C282 1.356 1_545 S
C284 C285 1.348 . S
C285 C280 1.353 . S
C285 C284 1.348 . S
C285 H337 0.929 . S
H286 C280 0.930 . S
H287 C283 0.930 . S
C288 N289 1.314 1_556 S
C288 C290 1.353 . S
C288 H294 0.930 . S
N289 Li265 1.990 . S
N289 C288 1.314 1_554 S
N289 C292 1.279 . S
C290 C288 1.353 . S
C290 C293 1.348 . S
C290 H338 0.929 . S
C291 C292 1.358 . S
C291 C293 1.356 1_554 S
C291 H339 0.930 . S
C292 N289 1.279 . S
C292 C291 1.358 . S
C292 H295 0.930 . S
C293 C290 1.348 . S
C293 C291 1.356 1_556 S
H294 C288 0.930 . S
H295 C292 0.930 . S
C296 C298 1.348 . S
C296 C299 1.356 . S
C296 O326 1.325 . S
N297 C300 1.314 . S
N297 C301 1.279 . S
C298 C296 1.348 . S
C298 C300 1.353 . S
C298 H340 0.929 1_554 S
C299 C296 1.356 . S
C299 C301 1.358 . S
C299 H341 0.930 . S
C300 N297 1.314 . S
C300 C298 1.353 . S
C300 H342 0.930 . S
C301 N297 1.279 . S
C301 C299 1.358 . S
C301 H343 0.930 . S
C302 C303 1.348 . S
C302 C304 1.356 . S
C302 O327 1.325 . S
C303 C302 1.348 . S
C303 C305 1.353 . S
C303 H344 0.929 . S
C304 C302 1.356 . S
C304 C306 1.358 . S
C304 H345 0.930 . S
C305 C303 1.353 . S
C305 N307 1.314 . S
C305 H346 0.930 . S
C306 C304 1.358 . S
C306 N307 1.279 . S
C306 H347 0.930 . S
N307 C305 1.314 . S
N307 C306 1.279 . S
C308 C310 1.353 . S
C308 N311 1.314 1_556 S
C308 H314 0.930 1_556 S
C309 N311 1.279 1_546 S
C309 C312 1.358 . S
C309 H315 0.934 . S
C310 C308 1.353 . S
C310 C313 1.348 . S
C310 H348 0.929 . S
N311 Li266 1.990 . S
N311 C308 1.314 1_554 S
N311 C309 1.279 1_564 S
C312 C309 1.358 . S
C312 C313 1.356 1_545 S
C312 H349 0.930 . S
C313 C310 1.348 . S
C313 C312 1.356 1_565 S
H314 C308 0.930 1_554 S
H315 C309 0.934 . S
C316 N317 1.314 . S
C316 C318 1.353 . S
C316 H322 0.930 1_556 S
N317 Li267 1.980 1_545 S
N317 C316 1.314 . S
N317 C320 1.279 . S
C318 C316 1.353 . S
C318 C321 1.348 . S
C318 H350 0.929 . S
C319 C320 1.358 . S
C319 C321 1.356 . S
C319 H351 0.930 . S
C320 N317 1.279 . S
C320 C319 1.358 . S
C320 H323 0.930 . S
C321 C318 1.348 . S
C321 C319 1.356 . S
H322 C316 0.930 1_554 S
H323 C320 0.930 . S
O324 Li264 1.956 . S
O324 Li265 1.970 . S
O324 Li266 1.961 . S
O324 C268 1.325 . S
O325 Li264 1.970 . S
O325 Li265 1.956 . S
O325 Li267 1.971 1_554 S
O325 C274 1.325 . S
O326 Li264 1.961 1_545 S
O326 Li266 1.956 1_545 S
O326 Li267 1.963 1_544 S
O326 C296 1.325 . S
O327 Li265 1.961 1_556 S
O327 Li266 1.970 1_556 S
O327 Li267 1.969 . S
O327 C302 1.325 . S
H328 C270 0.929 . S
H329 C271 0.930 . S
H330 C272 0.930 . S
H331 C273 0.930 . S
H332 C275 0.930 . S
H333 C277 0.929 . S
H334 C278 0.930 1_556 S
H335 C279 0.930 . S
H336 C282 0.930 . S
H337 C285 0.929 . S
H338 C290 0.929 . S
H339 C291 0.930 . S
H340 C298 0.929 1_556 S
H341 C299 0.930 . S
H342 C300 0.930 . S
H343 C301 0.930 . S
H344 C303 0.929 . S
H345 C304 0.930 . S
H346 C305 0.930 . S
H347 C306 0.930 . S
H348 C310 0.929 . S
H349 C312 0.930 . S
H350 C318 0.929 . S
H351 C319 0.930 . S
Li352 N369 1.990 . S
Li352 O412 1.956 . S
Li352 O413 1.970 . S
Li352 O414 1.961 . S
Li353 N377 1.990 . S
Li353 O412 1.970 . S
Li353 O413 1.956 . S
Li353 O415 1.961 . S
Li354 N399 1.990 . S
Li354 O412 1.961 . S
Li354 O414 1.956 . S
Li354 O415 1.970 . S
Li355 N405 1.990 . S
Li355 O413 1.961 . S
Li355 O414 1.970 . S
Li355 O415 1.956 . S
C356 C358 1.348 . S
C356 C359 1.356 . S
C356 O412 1.325 . S
N357 C360 1.314 . S
N357 C361 1.279 . S
C358 C356 1.348 . S
C358 C360 1.353 . S
C358 H416 0.929 . S
C359 C356 1.356 . S
C359 C361 1.358 . S
C359 H417 0.930 . S
C360 N357 1.314 . S
C360 C358 1.353 . S
C360 H418 0.930 . S
C361 N357 1.279 . S
C361 C359 1.358 . S
C361 H419 0.930 . S
C362 C365 1.348 . S
C362 C366 1.356 . S
C362 O413 1.325 . S
C363 N364 1.279 . S
C363 C366 1.358 . S
C363 H420 0.930 . S
N364 C363 1.279 . S
N364 C367 1.314 . S
C365 C362 1.348 . S
C365 C367 1.353 . S
C365 H421 0.929 . S
C366 C362 1.356 . S
C366 C363 1.358 . S
C366 H422 0.930 . S
C367 N364 1.314 . S
C367 C365 1.353 . S
C367 H423 0.930 . S
C368 N369 1.314 . S
C368 C373 1.353 . S
C368 H374 0.930 . S
N369 Li352 1.990 . S
N369 C368 1.314 . S
N369 C371 1.279 . S
C370 C371 1.358 . S
C370 C372 1.356 . S
C370 H424 0.930 . S
C371 N369 1.279 . S
C371 C370 1.358 . S
C371 H375 0.930 . S
C372 C370 1.356 . S
C372 C373 1.348 . S
C373 C368 1.353 . S
C373 C372 1.348 . S
C373 H425 0.929 . S
H374 C368 0.930 . S
H375 C371 0.930 . S
C376 N377 1.314 . S
C376 C378 1.353 . S
C376 H382 0.930 . S
N377 Li353 1.990 . S
N377 C376 1.314 . S
N377 C380 1.279 . S
C378 C376 1.353 . S
C378 C381 1.348 . S
C378 H426 0.929 . S
C379 C380 1.358 . S
C379 C381 1.356 . S
C379 H427 0.930 . S
C380 N377 1.279 . S
C380 C379 1.358 . S
C380 H383 0.930 . S
C381 C378 1.348 . S
C381 C379 1.356 . S
H382 C376 0.930 . S
H383 C380 0.930 . S
C384 C386 1.348 . S
C384 C387 1.356 . S
C384 O414 1.325 . S
N385 C388 1.314 . S
N385 C389 1.279 . S
C386 C384 1.348 . S
C386 C388 1.353 . S
C386 H428 0.929 . S
C387 C384 1.356 . S
C387 C389 1.358 . S
C387 H429 0.930 . S
C388 N385 1.314 . S
C388 C386 1.353 . S
C388 H430 0.930 . S
C389 N385 1.279 . S
C389 C387 1.358 . S
C389 H431 0.930 . S
C390 C391 1.348 . S
C390 C392 1.356 . S
C390 O415 1.325 . S
C391 C390 1.348 . S
C391 C393 1.353 . S
C391 H432 0.929 . S
C392 C390 1.356 . S
C392 C394 1.358 . S
C392 H433 0.930 . S
C393 C391 1.353 . S
C393 N395 1.314 . S
C393 H434 0.930 . S
C394 C392 1.358 . S
C394 N395 1.279 . S
C394 H435 0.930 . S
N395 C393 1.314 . S
N395 C394 1.279 . S
C396 C398 1.353 . S
C396 N399 1.314 . S
C396 H402 0.930 . S
C397 N399 1.279 . S
C397 C400 1.358 . S
C397 H403 0.930 . S
C398 C396 1.353 . S
C398 C401 1.348 . S
C398 H436 0.929 . S
N399 Li354 1.990 . S
N399 C396 1.314 . S
N399 C397 1.279 . S
C400 C397 1.358 . S
C400 C401 1.356 . S
C400 H437 0.930 . S
C401 C398 1.348 . S
C401 C400 1.356 . S
H402 C396 0.930 . S
H403 C397 0.930 . S
C404 N405 1.314 . S
C404 C406 1.353 . S
C404 H410 0.930 . S
N405 Li355 1.990 . S
N405 C404 1.314 . S
N405 C408 1.279 . S
C406 C404 1.353 . S
C406 C409 1.348 . S
C406 H438 0.929 . S
C407 C408 1.358 . S
C407 C409 1.356 . S
C407 H439 0.930 . S
C408 N405 1.279 . S
C408 C407 1.358 . S
C408 H411 0.930 . S
C409 C406 1.348 . S
C409 C407 1.356 . S
H410 C404 0.930 . S
H411 C408 0.930 . S
O412 Li352 1.956 . S
O412 Li353 1.970 . S
O412 Li354 1.961 . S
O412 C356 1.325 . S
O413 Li352 1.970 . S
O413 Li353 1.956 . S
O413 Li355 1.961 . S
O413 C362 1.325 . S
O414 Li352 1.961 . S
O414 Li354 1.956 . S
O414 Li355 1.970 . S
O414 C384 1.325 . S
O415 Li353 1.961 . S
O415 Li354 1.970 . S
O415 Li355 1.956 . S
O415 C390 1.325 . S
H416 C358 0.929 . S
H417 C359 0.930 . S
H418 C360 0.930 . S
H419 C361 0.930 . S
H420 C363 0.930 . S
H421 C365 0.929 . S
H422 C366 0.930 . S
H423 C367 0.930 . S
H424 C370 0.930 . S
H425 C373 0.929 . S
H426 C378 0.929 . S
H427 C379 0.930 . S
H428 C386 0.929 . S
H429 C387 0.930 . S
H430 C388 0.930 . S
H431 C389 0.930 . S
H432 C391 0.929 . S
H433 C392 0.930 . S
H434 C393 0.930 . S
H435 C394 0.930 . S
H436 C398 0.929 . S
H437 C400 0.930 . S
H438 C406 0.929 . S
H439 C407 0.930 . S
Li440 N457 1.990 . S
Li440 O500 1.956 . S
Li440 O501 1.970 . S
Li440 O502 1.961 1_545 S
Li441 N465 1.990 . S
Li441 O500 1.970 . S
Li441 O501 1.956 . S
Li441 O503 1.961 . S
Li442 N487 1.990 . S
Li442 O500 1.961 1_565 S
Li442 O502 1.956 . S
Li442 O503 1.970 1_565 S
Li443 N493 1.990 . S
Li443 O501 1.961 . S
Li443 O502 1.970 1_545 S
Li443 O503 1.956 . S
C444 C446 1.348 . S
C444 C447 1.356 . S
C444 O500 1.325 . S
N445 C448 1.314 . S
N445 C449 1.279 . S
C446 C444 1.348 . S
C446 C448 1.353 . S
C446 H504 0.929 . S
C447 C444 1.356 . S
C447 C449 1.358 . S
C447 H505 0.930 1_545 S
C448 N445 1.314 . S
C448 C446 1.353 . S
C448 H506 0.930 . S
C449 N445 1.279 . S
C449 C447 1.358 . S
C449 H507 0.930 . S
C450 C453 1.348 . S
C450 C454 1.356 . S
C450 O501 1.325 . S
C451 N452 1.279 . S
C451 C454 1.358 . S
C451 H508 0.930 . S
N452 C451 1.279 . S
N452 C455 1.314 . S
C453 C450 1.348 . S
C453 C455 1.353 . S
C453 H509 0.929 . S
C454 C450 1.356 . S
C454 C451 1.358 . S
C454 H510 0.930 . S
C455 N452 1.314 . S
C455 C453 1.353 . S
C455 H511 0.930 . S
C456 N457 1.314 1_565 S
C456 C461 1.353 . S
C456 H462 0.930 . S
N457 Li440 1.990 . S
N457 C456 1.314 1_545 S
N457 C459 1.279 . S
C458 C459 1.358 . S
C458 C460 1.358 1_545 S
C458 H512 0.930 . S
C459 N457 1.279 . S
C459 C458 1.358 . S
C459 H463 0.930 . S
C460 C458 1.358 1_565 S
C460 C461 1.346 . S
C461 C456 1.353 . S
C461 C460 1.346 . S
C461 H513 0.929 . S
H462 C456 0.930 . S
H463 C459 0.930 . S
C464 N465 1.314 . S
C464 C466 1.353 . S
C464 H470 0.930 . S
N465 Li441 1.990 . S
N465 C464 1.314 . S
N465 C468 1.279 . S
C466 C464 1.353 . S
C466 C469 1.348 . S
C466 H514 0.929 . S
C467 C468 1.358 . S
C467 C469 1.356 . S
C467 H515 0.930 . S
C468 N465 1.279 . S
C468 C467 1.358 . S
C468 H471 0.930 . S
C469 C466 1.348 . S
C469 C467 1.356 . S
H470 C464 0.930 . S
H471 C468 0.930 . S
C472 C474 1.348 . S
C472 C475 1.356 . S
C472 O502 1.325 . S
N473 C476 1.314 . S
N473 C477 1.279 . S
C474 C472 1.348 . S
C474 C476 1.353 . S
C474 H516 0.929 . S
C475 C472 1.356 . S
C475 C477 1.358 . S
C475 H517 0.930 . S
C476 N473 1.314 . S
C476 C474 1.353 . S
C476 H518 0.930 . S
C477 N473 1.279 . S
C477 C475 1.358 . S
C477 H519 0.930 . S
C478 C479 1.348 . S
C478 C480 1.356 . S
C478 O503 1.325 . S
C479 C478 1.348 . S
C479 C481 1.353 . S
C479 H520 0.929 1_545 S
C480 C478 1.356 . S
C480 C482 1.358 . S
C480 H521 0.930 . S
C481 C479 1.353 . S
C481 N483 1.314 . S
C481 H522 0.930 . S
C482 C480 1.358 . S
C482 N483 1.279 . S
C482 H523 0.930 . S
N483 C481 1.314 . S
N483 C482 1.279 . S
C484 C486 1.353 . S
C484 N487 1.314 . S
C484 H490 0.930 1_565 S
C485 N487 1.279 . S
C485 C488 1.358 . S
C485 H491 0.930 . S
C486 C484 1.353 . S
C486 C489 1.348 . S
C486 H524 0.929 . S
N487 Li442 1.990 . S
N487 C484 1.314 . S
N487 C485 1.279 . S
C488 C485 1.358 . S
C488 C489 1.356 . S
C488 H525 0.930 . S
C489 C486 1.348 . S
C489 C488 1.356 . S
H490 C484 0.930 1_545 S
H491 C485 0.930 . S
C492 N493 1.312 1_565 S
C492 C494 1.359 . S
C492 H498 0.926 1_565 S
N493 Li443 1.990 . S
N493 C492 1.312 1_545 S
N493 C496 1.279 1_545 S
C494 C492 1.359 . S
C494 C497 1.348 . S
C494 H526 0.929 . S
C495 C496 1.358 . S
C495 C497 1.356 . S
C495 H527 0.930 . S
C496 N493 1.279 1_565 S
C496 C495 1.358 . S
C496 H499 0.932 . S
C497 C494 1.348 . S
C497 C495 1.356 . S
H498 C492 0.926 1_545 S
H499 C496 0.932 . S
O500 Li440 1.956 . S
O500 Li441 1.970 . S
O500 Li442 1.961 1_545 S
O500 C444 1.325 . S
O501 Li440 1.970 . S
O501 Li441 1.956 . S
O501 Li443 1.961 . S
O501 C450 1.325 . S
O502 Li440 1.961 1_565 S
O502 Li442 1.956 . S
O502 Li443 1.970 1_565 S
O502 C472 1.325 . S
O503 Li441 1.961 . S
O503 Li442 1.970 1_545 S
O503 Li443 1.956 . S
O503 C478 1.325 . S
H504 C446 0.929 . S
H505 C447 0.930 1_565 S
H506 C448 0.930 . S
H507 C449 0.930 . S
H508 C451 0.930 . S
H509 C453 0.929 . S
H510 C454 0.930 . S
H511 C455 0.930 . S
H512 C458 0.930 . S
H513 C461 0.929 . S
H514 C466 0.929 . S
H515 C467 0.930 . S
H516 C474 0.929 . S
H517 C475 0.930 . S
H518 C476 0.930 . S
H519 C477 0.930 . S
H520 C479 0.929 1_565 S
H521 C480 0.930 . S
H522 C481 0.930 . S
H523 C482 0.930 . S
H524 C486 0.929 . S
H525 C488 0.930 . S
H526 C494 0.929 . S
H527 C495 0.930 . S
Li528 N545 1.990 . S
Li528 O588 1.956 . S
Li528 O589 1.970 . S
Li528 O590 1.961 . S
Li529 N553 1.990 . S
Li529 O588 1.970 . S
Li529 O589 1.956 . S
Li529 O591 1.961 . S
Li530 N575 1.990 . S
Li530 O588 1.961 . S
Li530 O590 1.956 . S
Li530 O591 1.970 . S
Li531 N581 1.990 . S
Li531 O589 1.961 . S
Li531 O590 1.970 . S
Li531 O591 1.956 . S
C532 C534 1.348 . S
C532 C535 1.356 . S
C532 O588 1.325 . S
N533 C536 1.314 . S
N533 C537 1.279 . S
C534 C532 1.348 . S
C534 C536 1.353 . S
C534 H592 0.929 . S
C535 C532 1.356 . S
C535 C537 1.358 . S
C535 H593 0.930 . S
C536 N533 1.314 . S
C536 C534 1.353 . S
C536 H594 0.930 . S
C537 N533 1.279 . S
C537 C535 1.358 . S
C537 H595 0.930 . S
C538 C541 1.348 . S
C538 C542 1.356 . S
C538 O589 1.325 . S
C539 N540 1.279 . S
C539 C542 1.358 . S
C539 H596 0.930 . S
N540 C539 1.279 . S
N540 C543 1.314 . S
C541 C538 1.348 . S
C541 C543 1.353 . S
C541 H597 0.929 . S
C542 C538 1.356 . S
C542 C539 1.358 . S
C542 H598 0.930 . S
C543 N540 1.314 . S
C543 C541 1.353 . S
C543 H599 0.930 . S
C544 N545 1.314 . S
C544 C549 1.353 . S
C544 H550 0.930 . S
N545 Li528 1.990 . S
N545 C544 1.314 . S
N545 C547 1.279 . S
C546 C547 1.358 . S
C546 C548 1.356 . S
C546 H600 0.930 . S
C547 N545 1.279 . S
C547 C546 1.358 . S
C547 H551 0.930 . S
C548 C546 1.356 . S
C548 C549 1.348 . S
C549 C544 1.353 . S
C549 C548 1.348 . S
C549 H601 0.929 . S
H550 C544 0.930 . S
H551 C547 0.930 . S
C552 N553 1.314 . S
C552 C554 1.353 . S
C552 H558 0.930 . S
N553 Li529 1.990 . S
N553 C552 1.314 . S
N553 C556 1.279 . S
C554 C552 1.353 . S
C554 C557 1.348 . S
C554 H602 0.929 . S
C555 C556 1.358 . S
C555 C557 1.356 . S
C555 H603 0.930 . S
C556 N553 1.279 . S
C556 C555 1.358 . S
C556 H559 0.930 . S
C557 C554 1.348 . S
C557 C555 1.356 . S
H558 C552 0.930 . S
H559 C556 0.930 . S
C560 C562 1.348 . S
C560 C563 1.356 . S
C560 O590 1.325 . S
N561 C564 1.314 . S
N561 C565 1.279 . S
C562 C560 1.348 . S
C562 C564 1.353 . S
C562 H604 0.929 . S
C563 C560 1.356 . S
C563 C565 1.358 . S
C563 H605 0.930 . S
C564 N561 1.314 . S
C564 C562 1.353 . S
C564 H606 0.930 . S
C565 N561 1.279 . S
C565 C563 1.358 . S
C565 H607 0.930 . S
C566 C567 1.348 . S
C566 C568 1.356 . S
C566 O591 1.325 . S
C567 C566 1.348 . S
C567 C569 1.353 . S
C567 H608 0.929 . S
C568 C566 1.356 . S
C568 C570 1.358 . S
C568 H609 0.930 . S
C569 C567 1.353 . S
C569 N571 1.314 . S
C569 H610 0.930 . S
C570 C568 1.358 . S
C570 N571 1.279 . S
C570 H611 0.930 . S
N571 C569 1.314 . S
N571 C570 1.279 . S
C572 C574 1.353 . S
C572 N575 1.314 . S
C572 H578 0.930 . S
C573 N575 1.279 . S
C573 C576 1.358 . S
C573 H579 0.930 . S
C574 C572 1.353 . S
C574 C577 1.348 . S
C574 H612 0.929 . S
N575 Li530 1.990 . S
N575 C572 1.314 . S
N575 C573 1.279 . S
C576 C573 1.358 . S
C576 C577 1.356 . S
C576 H613 0.930 . S
C577 C574 1.348 . S
C577 C576 1.356 . S
H578 C572 0.930 . S
H579 C573 0.930 . S
C580 N581 1.314 . S
C580 C582 1.353 . S
C580 H586 0.930 . S
N581 Li531 1.990 . S
N581 C580 1.314 . S
N581 C584 1.279 . S
C582 C580 1.353 . S
C582 C585 1.348 . S
C582 H614 0.929 . S
C583 C584 1.358 . S
C583 C585 1.356 . S
C583 H615 0.930 . S
C584 N581 1.279 . S
C584 C583 1.358 . S
C584 H587 0.930 . S
C585 C582 1.348 . S
C585 C583 1.356 . S
H586 C580 0.930 . S
H587 C584 0.930 . S
O588 Li528 1.956 . S
O588 Li529 1.970 . S
O588 Li530 1.961 . S
O588 C532 1.325 . S
O589 Li528 1.970 . S
O589 Li529 1.956 . S
O589 Li531 1.961 . S
O589 C538 1.325 . S
O590 Li528 1.961 . S
O590 Li530 1.956 . S
O590 Li531 1.970 . S
O590 C560 1.325 . S
O591 Li529 1.961 . S
O591 Li530 1.970 . S
O591 Li531 1.956 . S
O591 C566 1.325 . S
H592 C534 0.929 . S
H593 C535 0.930 . S
H594 C536 0.930 . S
H595 C537 0.930 . S
H596 C539 0.930 . S
H597 C541 0.929 . S
H598 C542 0.930 . S
H599 C543 0.930 . S
H600 C546 0.930 . S
H601 C549 0.929 . S
H602 C554 0.929 . S
H603 C555 0.930 . S
H604 C562 0.929 . S
H605 C563 0.930 . S
H606 C564 0.930 . S
H607 C565 0.930 . S
H608 C567 0.929 . S
H609 C568 0.930 . S
H610 C569 0.930 . S
H611 C570 0.930 . S
H612 C574 0.929 . S
H613 C576 0.930 . S
H614 C582 0.929 . S
H615 C583 0.930 . S
Li616 N633 1.990 . S
Li616 O676 1.956 1_655 S
Li616 O677 1.970 1_565 S
Li616 O678 1.961 . S
Li617 N641 2.004 . S
Li617 O676 1.954 1_544 S
Li617 O677 1.941 1_454 S
Li617 O679 1.971 1_445 S
Li618 N663 1.990 . S
Li618 O676 1.961 1_655 S
Li618 O678 1.956 . S
Li618 O679 1.970 1_556 S
Li619 N669 1.990 1_556 S
Li619 O677 1.961 1_565 S
Li619 O678 1.970 . S
Li619 O679 1.956 1_556 S
C620 C622 1.348 . S
C620 C623 1.356 . S
C620 O676 1.325 . S
N621 C624 1.314 . S
N621 C625 1.279 . S
C622 C620 1.348 . S
C622 C624 1.353 . S
C622 H680 0.929 1_565 S
C623 C620 1.356 . S
C623 C625 1.358 . S
C623 H681 0.930 . S
C624 N621 1.314 . S
C624 C622 1.353 . S
C624 H682 0.930 . S
C625 N621 1.279 . S
C625 C623 1.358 . S
C625 H683 0.930 . S
C626 C629 1.348 . S
C626 C630 1.356 . S
C626 O677 1.325 . S
C627 N628 1.279 . S
C627 C630 1.358 . S
C627 H684 0.930 1_556 S
N628 C627 1.279 . S
N628 C631 1.314 . S
C629 C626 1.348 . S
C629 C631 1.353 . S
C629 H685 0.929 . S
C630 C626 1.356 . S
C630 C627 1.358 . S
C630 H686 0.930 1_556 S
C631 N628 1.314 . S
C631 C629 1.353 . S
C631 H687 0.930 . S
C632 N633 1.314 . S
C632 C637 1.353 1_565 S
C632 H638 0.929 . S
N633 Li616 1.990 . S
N633 C632 1.314 . S
N633 C635 1.279 1_665 S
C634 C635 1.358 . S
C634 C636 1.361 . S
C634 H688 0.930 . S
C635 N633 1.279 1_445 S
C635 C634 1.358 . S
C635 H639 0.930 1_545 S
C636 C634 1.361 . S
C636 C637 1.341 1_455 S
C637 C632 1.353 1_545 S
C637 C636 1.341 1_655 S
C637 H689 0.929 . S
H638 C632 0.929 . S
H639 C635 0.930 1_565 S
C640 N641 1.314 . S
C640 C642 1.353 . S
C640 H646 0.930 1_545 S
N641 Li617 2.004 . S
N641 C640 1.314 . S
N641 C644 1.279 . S
C642 C640 1.353 . S
C642 C645 1.348 . S
C642 H690 0.929 . S
C643 C644 1.358 . S
C643 C645 1.356 . S
C643 H691 0.930 . S
C644 N641 1.279 . S
C644 C643 1.358 . S
C644 H647 0.930 . S
C645 C642 1.348 . S
C645 C643 1.356 . S
H646 C640 0.930 1_565 S
H647 C644 0.930 . S
C648 C650 1.348 . S
C648 C651 1.356 . S
C648 O678 1.325 . S
N649 C652 1.314 . S
N649 C653 1.279 . S
C650 C648 1.348 . S
C650 C652 1.353 . S
C650 H692 0.929 . S
C651 C648 1.356 . S
C651 C653 1.358 . S
C651 H693 0.930 . S
C652 N649 1.314 . S
C652 C650 1.353 . S
C652 H694 0.930 . S
C653 N649 1.279 . S
C653 C651 1.358 . S
C653 H695 0.930 . S
C654 C655 1.348 . S
C654 C656 1.356 . S
C654 O679 1.325 . S
C655 C654 1.348 . S
C655 C657 1.353 . S
C655 H696 0.929 . S
C656 C654 1.356 . S
C656 C658 1.358 . S
C656 H697 0.930 1_565 S
C657 C655 1.353 . S
C657 N659 1.314 . S
C657 H698 0.930 . S
C658 C656 1.358 . S
C658 N659 1.279 . S
C658 H699 0.930 . S
N659 C657 1.314 . S
N659 C658 1.279 . S
C660 C662 1.360 . S
C660 N663 1.300 1_454 S
C660 H666 0.939 . S
C661 N663 1.279 . S
C661 C664 1.358 . S
C661 H667 0.930 . S
C662 C660 1.360 . S
C662 C665 1.347 1_554 S
C662 H700 0.929 . S
N663 Li618 1.990 . S
N663 C660 1.300 1_656 S
N663 C661 1.279 . S
C664 C661 1.358 . S
C664 C665 1.357 1_655 S
C664 H701 0.930 . S
C665 C662 1.347 1_556 S
C665 C664 1.357 1_455 S
H666 C660 0.939 . S
H667 C661 0.930 . S
C668 N669 1.314 1_546 S
C668 C670 1.353 . S
C668 H674 0.930 . S
N669 Li619 1.990 1_554 S
N669 C668 1.314 1_564 S
N669 C672 1.279 . S
C670 C668 1.353 . S
C670 C673 1.342 1_546 S
C670 H702 0.929 . S
C671 C672 1.358 . S
C671 C673 1.362 . S
C671 H703 0.930 . S
C672 N669 1.279 . S
C672 C671 1.358 . S
C672 H675 0.930 . S
C673 C670 1.342 1_564 S
C673 C671 1.362 . S
H674 C668 0.930 . S
H675 C672 0.930 . S
O676 Li616 1.956 1_455 S
O676 Li617 1.954 1_566 S
O676 Li618 1.961 1_455 S
O676 C620 1.325 . S
O677 Li616 1.970 1_545 S
O677 Li617 1.941 1_656 S
O677 Li619 1.961 1_545 S
O677 C626 1.325 . S
O678 Li616 1.961 . S
O678 Li618 1.956 . S
O678 Li619 1.970 . S
O678 C648 1.325 . S
O679 Li617 1.971 1_665 S
O679 Li618 1.970 1_554 S
O679 Li619 1.956 1_554 S
O679 C654 1.325 . S
H680 C622 0.929 1_545 S
H681 C623 0.930 . S
H682 C624 0.930 . S
H683 C625 0.930 . S
H684 C627 0.930 1_554 S
H685 C629 0.929 . S
H686 C630 0.930 1_554 S
H687 C631 0.930 . S
H688 C634 0.930 . S
H689 C637 0.929 . S
H690 C642 0.929 . S
H691 C643 0.930 . S
H692 C650 0.929 . S
H693 C651 0.930 . S
H694 C652 0.930 . S
H695 C653 0.930 . S
H696 C655 0.929 . S
H697 C656 0.930 1_545 S
H698 C657 0.930 . S
H699 C658 0.930 . S
H700 C662 0.929 . S
H701 C664 0.930 . S
H702 C670 0.929 . S
H703 C671 0.930 . S
Li704 N721 1.990 . S
Li704 O764 1.956 . S
Li704 O765 1.970 . S
Li704 O766 1.961 . S
Li705 N729 1.990 . S
Li705 O764 1.970 . S
Li705 O765 1.956 . S
Li705 O767 1.961 . S
Li706 N751 1.990 . S
Li706 O764 1.961 . S
Li706 O766 1.956 . S
Li706 O767 1.970 . S
Li707 N757 1.990 . S
Li707 O765 1.961 . S
Li707 O766 1.970 . S
Li707 O767 1.956 . S
C708 C710 1.348 . S
C708 C711 1.356 . S
C708 O764 1.325 . S
N709 C712 1.314 . S
N709 C713 1.279 . S
C710 C708 1.348 . S
C710 C712 1.353 . S
C710 H768 0.929 . S
C711 C708 1.356 . S
C711 C713 1.358 . S
C711 H769 0.930 . S
C712 N709 1.314 . S
C712 C710 1.353 . S
C712 H770 0.930 . S
C713 N709 1.279 . S
C713 C711 1.358 . S
C713 H771 0.930 . S
C714 C717 1.348 . S
C714 C718 1.356 . S
C714 O765 1.325 . S
C715 N716 1.279 . S
C715 C718 1.358 . S
C715 H772 0.930 . S
N716 C715 1.279 . S
N716 C719 1.314 . S
C717 C714 1.348 . S
C717 C719 1.353 . S
C717 H773 0.929 . S
C718 C714 1.356 . S
C718 C715 1.358 . S
C718 H774 0.930 . S
C719 N716 1.314 . S
C719 C717 1.353 . S
C719 H775 0.930 . S
C720 N721 1.314 . S
C720 C725 1.353 . S
C720 H726 0.930 . S
N721 Li704 1.990 . S
N721 C720 1.314 . S
N721 C723 1.279 . S
C722 C723 1.358 . S
C722 C724 1.356 . S
C722 H776 0.930 . S
C723 N721 1.279 . S
C723 C722 1.358 . S
C723 H727 0.930 . S
C724 C722 1.356 . S
C724 C725 1.348 . S
C725 C720 1.353 . S
C725 C724 1.348 . S
C725 H777 0.929 . S
H726 C720 0.930 . S
H727 C723 0.930 . S
C728 N729 1.314 . S
C728 C730 1.353 . S
C728 H734 0.930 . S
N729 Li705 1.990 . S
N729 C728 1.314 . S
N729 C732 1.279 . S
C730 C728 1.353 . S
C730 C733 1.348 . S
C730 H778 0.929 . S
C731 C732 1.358 . S
C731 C733 1.356 . S
C731 H779 0.930 . S
C732 N729 1.279 . S
C732 C731 1.358 . S
C732 H735 0.930 . S
C733 C730 1.348 . S
C733 C731 1.356 . S
H734 C728 0.930 . S
H735 C732 0.930 . S
C736 C738 1.348 . S
C736 C739 1.356 . S
C736 O766 1.325 . S
N737 C740 1.314 . S
N737 C741 1.279 . S
C738 C736 1.348 . S
C738 C740 1.353 . S
C738 H780 0.929 . S
C739 C736 1.356 . S
C739 C741 1.358 . S
C739 H781 0.930 . S
C740 N737 1.314 . S
C740 C738 1.353 . S
C740 H782 0.930 . S
C741 N737 1.279 . S
C741 C739 1.358 . S
C741 H783 0.930 . S
C742 C743 1.348 . S
C742 C744 1.356 . S
C742 O767 1.325 . S
C743 C742 1.348 . S
C743 C745 1.353 . S
C743 H784 0.929 . S
C744 C742 1.356 . S
C744 C746 1.358 . S
C744 H785 0.930 . S
C745 C743 1.353 . S
C745 N747 1.314 . S
C745 H786 0.930 . S
C746 C744 1.358 . S
C746 N747 1.279 . S
C746 H787 0.930 . S
N747 C745 1.314 . S
N747 C746 1.279 . S
C748 C750 1.353 . S
C748 N751 1.314 . S
C748 H754 0.930 . S
C749 N751 1.279 . S
C749 C752 1.358 . S
C749 H755 0.930 . S
C750 C748 1.353 . S
C750 C753 1.348 . S
C750 H788 0.929 . S
N751 Li706 1.990 . S
N751 C748 1.314 . S
N751 C749 1.279 . S
C752 C749 1.358 . S
C752 C753 1.356 . S
C752 H789 0.930 . S
C753 C750 1.348 . S
C753 C752 1.356 . S
H754 C748 0.930 . S
H755 C749 0.930 . S
C756 N757 1.314 . S
C756 C758 1.353 . S
C756 H762 0.930 . S
N757 Li707 1.990 . S
N757 C756 1.314 . S
N757 C760 1.279 . S
C758 C756 1.353 . S
C758 C761 1.348 . S
C758 H790 0.929 . S
C759 C760 1.358 . S
C759 C761 1.356 . S
C759 H791 0.930 . S
C760 N757 1.279 . S
C760 C759 1.358 . S
C760 H763 0.930 . S
C761 C758 1.348 . S
C761 C759 1.356 . S
H762 C756 0.930 . S
H763 C760 0.930 . S
O764 Li704 1.956 . S
O764 Li705 1.970 . S
O764 Li706 1.961 . S
O764 C708 1.325 . S
O765 Li704 1.970 . S
O765 Li705 1.956 . S
O765 Li707 1.961 . S
O765 C714 1.325 . S
O766 Li704 1.961 . S
O766 Li706 1.956 . S
O766 Li707 1.970 . S
O766 C736 1.325 . S
O767 Li705 1.961 . S
O767 Li706 1.970 . S
O767 Li707 1.956 . S
O767 C742 1.325 . S
H768 C710 0.929 . S
H769 C711 0.930 . S
H770 C712 0.930 . S
H771 C713 0.930 . S
H772 C715 0.930 . S
H773 C717 0.929 . S
H774 C718 0.930 . S
H775 C719 0.930 . S
H776 C722 0.930 . S
H777 C725 0.929 . S
H778 C730 0.929 . S
H779 C731 0.930 . S
H780 C738 0.929 . S
H781 C739 0.930 . S
H782 C740 0.930 . S
H783 C741 0.930 . S
H784 C743 0.929 . S
H785 C744 0.930 . S
H786 C745 0.930 . S
H787 C746 0.930 . S
H788 C750 0.929 . S
H789 C752 0.930 . S
H790 C758 0.929 . S
H791 C759 0.930 . S
Li792 N809 1.996 . S
Li792 O852 1.956 . S
Li792 O853 1.970 1_556 S
Li792 O854 1.961 1_455 S
Li793 N817 1.990 1_556 S
Li793 O852 1.970 . S
Li793 O853 1.956 1_556 S
Li793 O855 1.961 . S
Li794 N839 1.990 . S
Li794 O852 1.961 . S
Li794 O854 1.956 1_455 S
Li794 O855 1.970 . S
Li795 N845 2.021 . S
Li795 O853 1.961 1_655 S
Li795 O854 1.959 1_554 S
Li795 O855 1.920 1_654 S
C796 C798 1.348 . S
C796 C799 1.356 . S
C796 O852 1.325 . S
N797 C800 1.314 . S
N797 C801 1.279 . S
C798 C796 1.348 . S
C798 C800 1.353 . S
C798 H856 0.929 . S
C799 C796 1.356 . S
C799 C801 1.358 . S
C799 H857 0.930 . S
C800 N797 1.314 . S
C800 C798 1.353 . S
C800 H858 0.930 . S
C801 N797 1.279 . S
C801 C799 1.358 . S
C801 H859 0.930 . S
C802 C805 1.348 . S
C802 C806 1.356 . S
C802 O853 1.325 . S
C803 N804 1.279 . S
C803 C806 1.358 . S
C803 H860 0.930 . S
N804 C803 1.279 . S
N804 C807 1.314 . S
C805 C802 1.348 . S
C805 C807 1.353 . S
C805 H861 0.929 . S
C806 C802 1.356 . S
C806 C803 1.358 . S
C806 H862 0.930 . S
C807 N804 1.314 . S
C807 C805 1.353 . S
C807 H863 0.930 . S
C808 N809 1.293 1_654 S
C808 C813 1.353 . S
C808 H814 0.930 . S
N809 Li792 1.996 . S
N809 C808 1.293 1_456 S
N809 C811 1.293 . S
C810 C811 1.358 . S
C810 C812 1.356 1_456 S
C810 H864 0.930 . S
C811 N809 1.293 . S
C811 C810 1.358 . S
C811 H815 0.930 . S
C812 C810 1.356 1_654 S
C812 C813 1.347 . S
C813 C808 1.353 . S
C813 C812 1.347 . S
C813 H865 0.929 . S
H814 C808 0.930 . S
H815 C811 0.930 . S
C816 N817 1.314 1_556 S
C816 C818 1.353 . S
C816 H822 0.930 . S
N817 Li793 1.990 1_554 S
N817 C816 1.314 1_554 S
N817 C820 1.279 . S
C818 C816 1.353 . S
C818 C821 1.348 1_556 S
C818 H866 0.929 . S
C819 C820 1.358 . S
C819 C821 1.356 . S
C819 H867 0.930 . S
C820 N817 1.279 . S
C820 C819 1.358 . S
C820 H823 0.930 . S
C821 C818 1.348 1_554 S
C821 C819 1.356 . S
H822 C816 0.930 . S
H823 C820 0.930 . S
C824 C826 1.348 . S
C824 C827 1.356 . S
C824 O854 1.325 . S
N825 C828 1.314 . S
N825 C829 1.279 . S
C826 C824 1.348 . S
C826 C828 1.353 . S
C826 H868 0.929 . S
C827 C824 1.356 . S
C827 C829 1.358 . S
C827 H869 0.930 . S
C828 N825 1.314 . S
C828 C826 1.353 . S
C828 H870 0.930 . S
C829 N825 1.279 . S
C829 C827 1.358 . S
C829 H871 0.930 . S
C830 C831 1.348 . S
C830 C832 1.356 . S
C830 O855 1.325 . S
C831 C830 1.348 . S
C831 C833 1.353 . S
C831 H872 0.929 . S
C832 C830 1.356 . S
C832 C834 1.358 . S
C832 H873 0.930 1_556 S
C833 C831 1.353 . S
C833 N835 1.314 . S
C833 H874 0.930 . S
C834 C832 1.358 . S
C834 N835 1.279 . S
C834 H875 0.930 1_556 S
N835 C833 1.314 . S
N835 C834 1.279 . S
C836 C838 1.353 . S
C836 N839 1.314 . S
C836 H842 0.930 . S
C837 N839 1.279 1_655 S
C837 C840 1.358 . S
C837 H843 0.930 . S
C838 C836 1.353 . S
C838 C841 1.348 1_455 S
C838 H876 0.929 . S
N839 Li794 1.990 . S
N839 C836 1.314 . S
N839 C837 1.279 1_455 S
C840 C837 1.358 . S
C840 C841 1.356 . S
C840 H877 0.930 . S
C841 C838 1.348 1_655 S
C841 C840 1.356 . S
H842 C836 0.930 . S
H843 C837 0.930 . S
C844 N845 1.314 . S
C844 C846 1.353 . S
C844 H850 0.930 . S
N845 Li795 2.021 . S
N845 C844 1.314 . S
N845 C848 1.279 . S
C846 C844 1.353 . S
C846 C849 1.348 . S
C846 H878 0.929 . S
C847 C848 1.358 . S
C847 C849 1.356 . S
C847 H879 0.930 . S
C848 N845 1.279 . S
C848 C847 1.358 . S
C848 H851 0.930 . S
C849 C846 1.348 . S
C849 C847 1.356 . S
H850 C844 0.930 . S
H851 C848 0.930 . S
O852 Li792 1.956 . S
O852 Li793 1.970 . S
O852 Li794 1.961 . S
O852 C796 1.325 . S
O853 Li792 1.970 1_554 S
O853 Li793 1.956 1_554 S
O853 Li795 1.961 1_455 S
O853 C802 1.325 . S
O854 Li792 1.961 1_655 S
O854 Li794 1.956 1_655 S
O854 Li795 1.959 1_556 S
O854 C824 1.325 . S
O855 Li793 1.961 . S
O855 Li794 1.970 . S
O855 Li795 1.920 1_456 S
O855 C830 1.325 . S
H856 C798 0.929 . S
H857 C799 0.930 . S
H858 C800 0.930 . S
H859 C801 0.930 . S
H860 C803 0.930 . S
H861 C805 0.929 . S
H862 C806 0.930 . S
H863 C807 0.930 . S
H864 C810 0.930 . S
H865 C813 0.929 . S
H866 C818 0.929 . S
H867 C819 0.930 . S
H868 C826 0.929 . S
H869 C827 0.930 . S
H870 C828 0.930 . S
H871 C829 0.930 . S
H872 C831 0.929 . S
H873 C832 0.930 1_554 S
H874 C833 0.930 . S
H875 C834 0.930 1_554 S
H876 C838 0.929 . S
H877 C840 0.930 . S
H878 C846 0.929 . S
H879 C847 0.930 . S
Li880 N897 1.990 . S
Li880 O940 1.956 . S
Li880 O941 1.970 . S
Li880 O942 1.961 . S
Li881 N905 1.990 . S
Li881 O940 1.970 . S
Li881 O941 1.956 . S
Li881 O943 1.961 . S
Li882 N927 1.990 . S
Li882 O940 1.961 . S
Li882 O942 1.956 . S
Li882 O943 1.970 . S
Li883 N933 1.990 . S
Li883 O941 1.961 . S
Li883 O942 1.970 . S
Li883 O943 1.956 . S
C884 C886 1.348 . S
C884 C887 1.356 . S
C884 O940 1.325 . S
N885 C888 1.314 . S
N885 C889 1.279 . S
C886 C884 1.348 . S
C886 C888 1.353 . S
C886 H944 0.929 . S
C887 C884 1.356 . S
C887 C889 1.358 . S
C887 H945 0.930 . S
C888 N885 1.314 . S
C888 C886 1.353 . S
C888 H946 0.930 . S
C889 N885 1.279 . S
C889 C887 1.358 . S
C889 H947 0.930 . S
C890 C893 1.348 . S
C890 C894 1.356 . S
C890 O941 1.325 . S
C891 N892 1.279 . S
C891 C894 1.358 . S
C891 H948 0.930 . S
N892 C891 1.279 . S
N892 C895 1.314 . S
C893 C890 1.348 . S
C893 C895 1.353 . S
C893 H949 0.929 . S
C894 C890 1.356 . S
C894 C891 1.358 . S
C894 H950 0.930 . S
C895 N892 1.314 . S
C895 C893 1.353 . S
C895 H951 0.930 . S
C896 N897 1.314 . S
C896 C901 1.353 . S
C896 H902 0.930 . S
N897 Li880 1.990 . S
N897 C896 1.314 . S
N897 C899 1.279 . S
C898 C899 1.358 . S
C898 C900 1.356 . S
C898 H952 0.930 . S
C899 N897 1.279 . S
C899 C898 1.358 . S
C899 H903 0.930 . S
C900 C898 1.356 . S
C900 C901 1.348 . S
C901 C896 1.353 . S
C901 C900 1.348 . S
C901 H953 0.929 . S
H902 C896 0.930 . S
H903 C899 0.930 . S
C904 N905 1.314 . S
C904 C906 1.353 . S
C904 H910 0.930 . S
N905 Li881 1.990 . S
N905 C904 1.314 . S
N905 C908 1.279 . S
C906 C904 1.353 . S
C906 C909 1.348 . S
C906 H954 0.929 . S
C907 C908 1.358 . S
C907 C909 1.356 . S
C907 H955 0.930 . S
C908 N905 1.279 . S
C908 C907 1.358 . S
C908 H911 0.930 . S
C909 C906 1.348 . S
C909 C907 1.356 . S
H910 C904 0.930 . S
H911 C908 0.930 . S
C912 C914 1.348 . S
C912 C915 1.356 . S
C912 O942 1.325 . S
N913 C916 1.314 . S
N913 C917 1.279 . S
C914 C912 1.348 . S
C914 C916 1.353 . S
C914 H956 0.929 . S
C915 C912 1.356 . S
C915 C917 1.358 . S
C915 H957 0.930 . S
C916 N913 1.314 . S
C916 C914 1.353 . S
C916 H958 0.930 . S
C917 N913 1.279 . S
C917 C915 1.358 . S
C917 H959 0.930 . S
C918 C919 1.348 . S
C918 C920 1.356 . S
C918 O943 1.325 . S
C919 C918 1.348 . S
C919 C921 1.353 . S
C919 H960 0.929 . S
C920 C918 1.356 . S
C920 C922 1.358 . S
C920 H961 0.930 . S
C921 C919 1.353 . S
C921 N923 1.314 . S
C921 H962 0.930 . S
C922 C920 1.358 . S
C922 N923 1.279 . S
C922 H963 0.930 . S
N923 C921 1.314 . S
N923 C922 1.279 . S
C924 C926 1.353 . S
C924 N927 1.314 . S
C924 H930 0.930 . S
C925 N927 1.279 . S
C925 C928 1.358 . S
C925 H931 0.930 . S
C926 C924 1.353 . S
C926 C929 1.348 . S
C926 H964 0.929 . S
N927 Li882 1.990 . S
N927 C924 1.314 . S
N927 C925 1.279 . S
C928 C925 1.358 . S
C928 C929 1.356 . S
C928 H965 0.930 . S
C929 C926 1.348 . S
C929 C928 1.356 . S
H930 C924 0.930 . S
H931 C925 0.930 . S
C932 N933 1.314 . S
C932 C934 1.353 . S
C932 H938 0.930 . S
N933 Li883 1.990 . S
N933 C932 1.314 . S
N933 C936 1.279 . S
C934 C932 1.353 . S
C934 C937 1.348 . S
C934 H966 0.929 . S
C935 C936 1.358 . S
C935 C937 1.356 . S
C935 H967 0.930 . S
C936 N933 1.279 . S
C936 C935 1.358 . S
C936 H939 0.930 . S
C937 C934 1.348 . S
C937 C935 1.356 . S
H938 C932 0.930 . S
H939 C936 0.930 . S
O940 Li880 1.956 . S
O940 Li881 1.970 . S
O940 Li882 1.961 . S
O940 C884 1.325 . S
O941 Li880 1.970 . S
O941 Li881 1.956 . S
O941 Li883 1.961 . S
O941 C890 1.325 . S
O942 Li880 1.961 . S
O942 Li882 1.956 . S
O942 Li883 1.970 . S
O942 C912 1.325 . S
O943 Li881 1.961 . S
O943 Li882 1.970 . S
O943 Li883 1.956 . S
O943 C918 1.325 . S
H944 C886 0.929 . S
H945 C887 0.930 . S
H946 C888 0.930 . S
H947 C889 0.930 . S
H948 C891 0.930 . S
H949 C893 0.929 . S
H950 C894 0.930 . S
H951 C895 0.930 . S
H952 C898 0.930 . S
H953 C901 0.929 . S
H954 C906 0.929 . S
H955 C907 0.930 . S
H956 C914 0.929 . S
H957 C915 0.930 . S
H958 C916 0.930 . S
H959 C917 0.930 . S
H960 C919 0.929 . S
H961 C920 0.930 . S
H962 C921 0.930 . S
H963 C922 0.930 . S
H964 C926 0.929 . S
H965 C928 0.930 . S
H966 C934 0.929 . S
H967 C935 0.930 . S
Li968 N985 1.990 . S
Li968 O1028 1.956 . S
Li968 O1029 1.970 1_455 S
Li968 O1030 1.961 . S
Li969 N993 1.990 1_455 S
Li969 O1028 1.970 . S
Li969 O1029 1.956 1_455 S
Li969 O1031 1.961 . S
Li970 N1015 1.990 . S
Li970 O1028 1.961 . S
Li970 O1030 1.956 . S
Li970 O1031 1.970 . S
Li971 N1021 2.003 . S
Li971 O1029 1.969 . S
Li971 O1030 1.957 1_655 S
Li971 O1031 1.943 1_655 S
C972 C974 1.348 . S
C972 C975 1.356 . S
C972 O1028 1.325 . S
N973 C976 1.314 . S
N973 C977 1.279 . S
C974 C972 1.348 . S
C974 C976 1.353 . S
C974 H1032 0.929 . S
C975 C972 1.356 . S
C975 C977 1.358 . S
C975 H1033 0.930 . S
C976 N973 1.314 . S
C976 C974 1.353 . S
C976 H1034 0.930 . S
C977 N973 1.279 . S
C977 C975 1.358 . S
C977 H1035 0.930 . S
C978 C981 1.348 . S
C978 C982 1.356 . S
C978 O1029 1.325 . S
C979 N980 1.279 . S
C979 C982 1.358 . S
C979 H1036 0.930 . S
N980 C979 1.279 . S
N980 C983 1.314 . S
C981 C978 1.348 . S
C981 C983 1.353 . S
C981 H1037 0.929 . S
C982 C978 1.356 . S
C982 C979 1.358 . S
C982 H1038 0.930 . S
C983 N980 1.314 . S
C983 C981 1.353 . S
C983 H1039 0.930 . S
C984 N985 1.303 1_655 S
C984 C989 1.358 . S
C984 H990 0.937 . S
N985 Li968 1.990 . S
N985 C984 1.303 1_455 S
N985 C987 1.279 . S
C986 C987 1.358 . S
C986 C988 1.359 . S
C986 H1040 0.930 . S
C987 N985 1.279 . S
C987 C986 1.358 . S
C987 H991 0.930 . S
C988 C986 1.359 . S
C988 C989 1.346 1_455 S
C989 C984 1.358 . S
C989 C988 1.346 1_655 S
C989 H1041 0.929 . S
H990 C984 0.937 . S
H991 C987 0.930 . S
C992 N993 1.314 1_455 S
C992 C994 1.353 . S
C992 H998 0.930 . S
N993 Li969 1.990 1_655 S
N993 C992 1.314 1_655 S
N993 C996 1.279 . S
C994 C992 1.353 . S
C994 C997 1.348 1_455 S
C994 H1042 0.929 . S
C995 C996 1.358 . S
C995 C997 1.356 . S
C995 H1043 0.930 . S
C996 N993 1.279 . S
C996 C995 1.358 . S
C996 H999 0.930 . S
C997 C994 1.348 1_655 S
C997 C995 1.356 . S
H998 C992 0.930 . S
H999 C996 0.930 . S
C1000 C1002 1.348 . S
C1000 C1003 1.356 . S
C1000 O1030 1.325 . S
N1001 C1004 1.314 . S
N1001 C1005 1.279 . S
C1002 C1000 1.348 . S
C1002 C1004 1.353 . S
C1002 H1044 0.929 . S
C1003 C1000 1.356 . S
C1003 C1005 1.358 . S
C1003 H1045 0.930 . S
C1004 N1001 1.314 . S
C1004 C1002 1.353 . S
C1004 H1046 0.930 . S
C1005 N1001 1.279 . S
C1005 C1003 1.358 . S
C1005 H1047 0.930 . S
C1006 C1007 1.348 . S
C1006 C1008 1.356 . S
C1006 O1031 1.325 . S
C1007 C1006 1.348 . S
C1007 C1009 1.353 . S
C1007 H1048 0.929 . S
C1008 C1006 1.356 . S
C1008 C1010 1.358 . S
C1008 H1049 0.930 1_455 S
C1009 C1007 1.353 . S
C1009 N1011 1.314 . S
C1009 H1050 0.930 . S
C1010 C1008 1.358 . S
C1010 N1011 1.279 . S
C1010 H1051 0.930 1_455 S
N1011 C1009 1.314 . S
N1011 C1010 1.279 . S
C1012 C1014 1.353 . S
C1012 N1015 1.314 . S
C1012 H1018 0.930 . S
C1013 N1015 1.279 . S
C1013 C1016 1.358 . S
C1013 H1019 0.930 . S
C1014 C1012 1.353 . S
C1014 C1017 1.348 . S
C1014 H1052 0.929 . S
N1015 Li970 1.990 . S
N1015 C1012 1.314 . S
N1015 C1013 1.279 . S
C1016 C1013 1.358 . S
C1016 C1017 1.356 . S
C1016 H1053 0.930 . S
C1017 C1014 1.348 . S
C1017 C1016 1.356 . S
H1018 C1012 0.930 . S
H1019 C1013 0.930 . S
C1020 N1021 1.314 . S
C1020 C1022 1.353 . S
C1020 H1026 0.930 . S
N1021 Li971 2.003 . S
N1021 C1020 1.314 . S
N1021 C1024 1.279 . S
C1022 C1020 1.353 . S
C1022 C1025 1.348 . S
C1022 H1054 0.929 . S
C1023 C1024 1.358 . S
C1023 C1025 1.356 . S
C1023 H1055 0.930 . S
C1024 N1021 1.279 . S
C1024 C1023 1.358 . S
C1024 H1027 0.930 . S
C1025 C1022 1.348 . S
C1025 C1023 1.356 . S
H1026 C1020 0.930 . S
H1027 C1024 0.930 . S
O1028 Li968 1.956 . S
O1028 Li969 1.970 . S
O1028 Li970 1.961 . S
O1028 C972 1.325 . S
O1029 Li968 1.970 1_655 S
O1029 Li969 1.956 1_655 S
O1029 Li971 1.969 . S
O1029 C978 1.325 . S
O1030 Li968 1.961 . S
O1030 Li970 1.956 . S
O1030 Li971 1.957 1_455 S
O1030 C1000 1.325 . S
O1031 Li969 1.961 . S
O1031 Li970 1.970 . S
O1031 Li971 1.943 1_455 S
O1031 C1006 1.325 . S
H1032 C974 0.929 . S
H1033 C975 0.930 . S
H1034 C976 0.930 . S
H1035 C977 0.930 . S
H1036 C979 0.930 . S
H1037 C981 0.929 . S
H1038 C982 0.930 . S
H1039 C983 0.930 . S
H1040 C986 0.930 . S
H1041 C989 0.929 . S
H1042 C994 0.929 . S
H1043 C995 0.930 . S
H1044 C1002 0.929 . S
H1045 C1003 0.930 . S
H1046 C1004 0.930 . S
H1047 C1005 0.930 . S
H1048 C1007 0.929 . S
H1049 C1008 0.930 1_655 S
H1050 C1009 0.930 . S
H1051 C1010 0.930 1_655 S
H1052 C1014 0.929 . S
H1053 C1016 0.930 . S
H1054 C1022 0.929 . S
H1055 C1023 0.930 . S
Li1056 N1073 1.990 . S
Li1056 O1116 1.956 . S
Li1056 O1117 1.970 1_554 S
Li1056 O1118 1.961 . S
Li1057 N1081 1.990 1_554 S
Li1057 O1116 1.970 . S
Li1057 O1117 1.956 1_554 S
Li1057 O1119 1.961 . S
Li1058 N1103 1.990 . S
Li1058 O1116 1.961 . S
Li1058 O1118 1.956 . S
Li1058 O1119 1.970 . S
Li1059 N1109 1.990 . S
Li1059 O1117 1.961 . S
Li1059 O1118 1.970 1_556 S
Li1059 O1119 1.956 1_556 S
C1060 C1062 1.348 . S
C1060 C1063 1.356 . S
C1060 O1116 1.325 . S
N1061 C1064 1.314 . S
N1061 C1065 1.279 . S
C1062 C1060 1.348 . S
C1062 C1064 1.353 . S
C1062 H1120 0.929 . S
C1063 C1060 1.356 . S
C1063 C1065 1.358 . S
C1063 H1121 0.930 . S
C1064 N1061 1.314 . S
C1064 C1062 1.353 . S
C1064 H1122 0.930 . S
C1065 N1061 1.279 . S
C1065 C1063 1.358 . S
C1065 H1123 0.930 . S
C1066 C1069 1.348 . S
C1066 C1070 1.356 . S
C1066 O1117 1.325 . S
C1067 N1068 1.279 . S
C1067 C1070 1.358 . S
C1067 H1124 0.930 . S
N1068 C1067 1.279 . S
N1068 C1071 1.314 . S
C1069 C1066 1.348 . S
C1069 C1071 1.353 . S
C1069 H1125 0.929 . S
C1070 C1066 1.356 . S
C1070 C1067 1.358 . S
C1070 H1126 0.930 . S
C1071 N1068 1.314 . S
C1071 C1069 1.353 . S
C1071 H1127 0.930 . S
C1072 N1073 1.314 1_556 S
C1072 C1077 1.353 . S
C1072 H1078 0.930 . S
N1073 Li1056 1.990 . S
N1073 C1072 1.314 1_554 S
N1073 C1075 1.279 . S
C1074 C1075 1.358 . S
C1074 C1076 1.340 1_554 S
C1074 H1128 0.930 . S
C1075 N1073 1.279 . S
C1075 C1074 1.358 . S
C1075 H1079 0.930 . S
C1076 C1074 1.340 1_556 S
C1076 C1077 1.355 . S
C1077 C1072 1.353 . S
C1077 C1076 1.355 . S
C1077 H1129 0.929 . S
H1078 C1072 0.930 . S
H1079 C1075 0.930 . S
C1080 N1081 1.314 1_554 S
C1080 C1082 1.353 . S
C1080 H1086 0.930 . S
N1081 Li1057 1.990 1_556 S
N1081 C1080 1.314 1_556 S
N1081 C1084 1.279 . S
C1082 C1080 1.353 . S
C1082 C1085 1.348 1_554 S
C1082 H1130 0.929 . S
C1083 C1084 1.358 . S
C1083 C1085 1.356 . S
C1083 H1131 0.930 . S
C1084 N1081 1.279 . S
C1084 C1083 1.358 . S
C1084 H1087 0.930 . S
C1085 C1082 1.348 1_556 S
C1085 C1083 1.356 . S
H1086 C1080 0.930 . S
H1087 C1084 0.930 . S
C1088 C1090 1.348 . S
C1088 C1091 1.356 . S
C1088 O1118 1.325 . S
N1089 C1092 1.314 . S
N1089 C1093 1.279 . S
C1090 C1088 1.348 . S
C1090 C1092 1.353 . S
C1090 H1132 0.929 . S
C1091 C1088 1.356 . S
C1091 C1093 1.358 . S
C1091 H1133 0.930 . S
C1092 N1089 1.314 . S
C1092 C1090 1.353 . S
C1092 H1134 0.930 . S
C1093 N1089 1.279 . S
C1093 C1091 1.358 . S
C1093 H1135 0.930 . S
C1094 C1095 1.348 . S
C1094 C1096 1.356 . S
C1094 O1119 1.325 . S
C1095 C1094 1.348 . S
C1095 C1097 1.353 . S
C1095 H1136 0.929 . S
C1096 C1094 1.356 . S
C1096 C1098 1.358 . S
C1096 H1137 0.930 1_554 S
C1097 C1095 1.353 . S
C1097 N1099 1.314 . S
C1097 H1138 0.930 . S
C1098 C1096 1.358 . S
C1098 N1099 1.279 . S
C1098 H1139 0.930 1_554 S
N1099 C1097 1.314 . S
N1099 C1098 1.279 . S
C1100 C1102 1.353 . S
C1100 N1103 1.314 . S
C1100 H1106 0.930 . S
C1101 N1103 1.279 . S
C1101 C1104 1.358 . S
C1101 H1107 0.930 . S
C1102 C1100 1.353 . S
C1102 C1105 1.348 . S
C1102 H1140 0.929 . S
N1103 Li1058 1.990 . S
N1103 C1100 1.314 . S
N1103 C1101 1.279 . S
C1104 C1101 1.358 . S
C1104 C1105 1.356 . S
C1104 H1141 0.930 . S
C1105 C1102 1.348 . S
C1105 C1104 1.356 . S
H1106 C1100 0.930 . S
H1107 C1101 0.930 . S
C1108 N1109 1.314 . S
C1108 C1110 1.353 . S
C1108 H1114 0.930 . S
N1109 Li1059 1.990 . S
N1109 C1108 1.314 . S
N1109 C1112 1.279 . S
C1110 C1108 1.353 . S
C1110 C1113 1.348 . S
C1110 H1142 0.929 . S
C1111 C1112 1.358 . S
C1111 C1113 1.356 . S
C1111 H1143 0.930 . S
C1112 N1109 1.279 . S
C1112 C1111 1.358 . S
C1112 H1115 0.930 . S
C1113 C1110 1.348 . S
C1113 C1111 1.356 . S
H1114 C1108 0.930 . S
H1115 C1112 0.930 . S
O1116 Li1056 1.956 . S
O1116 Li1057 1.970 . S
O1116 Li1058 1.961 . S
O1116 C1060 1.325 . S
O1117 Li1056 1.970 1_556 S
O1117 Li1057 1.956 1_556 S
O1117 Li1059 1.961 . S
O1117 C1066 1.325 . S
O1118 Li1056 1.961 . S
O1118 Li1058 1.956 . S
O1118 Li1059 1.970 1_554 S
O1118 C1088 1.325 . S
O1119 Li1057 1.961 . S
O1119 Li1058 1.970 . S
O1119 Li1059 1.956 1_554 S
O1119 C1094 1.325 . S
H1120 C1062 0.929 . S
H1121 C1063 0.930 . S
H1122 C1064 0.930 . S
H1123 C1065 0.930 . S
H1124 C1067 0.930 . S
H1125 C1069 0.929 . S
H1126 C1070 0.930 . S
H1127 C1071 0.930 . S
H1128 C1074 0.930 . S
H1129 C1077 0.929 . S
H1130 C1082 0.929 . S
H1131 C1083 0.930 . S
H1132 C1090 0.929 . S
H1133 C1091 0.930 . S
H1134 C1092 0.930 . S
H1135 C1093 0.930 . S
H1136 C1095 0.929 . S
H1137 C1096 0.930 1_556 S
H1138 C1097 0.930 . S
H1139 C1098 0.930 1_556 S
H1140 C1102 0.929 . S
H1141 C1104 0.930 . S
H1142 C1110 0.929 . S
H1143 C1111 0.930 . S
Li1144 N1161 1.990 . S
Li1144 O1204 1.956 . S
Li1144 O1205 1.970 . S
Li1144 O1206 1.961 . S
Li1145 N1169 1.990 . S
Li1145 O1204 1.970 . S
Li1145 O1205 1.956 . S
Li1145 O1207 1.961 . S
Li1146 N1191 1.990 . S
Li1146 O1204 1.961 . S
Li1146 O1206 1.956 . S
Li1146 O1207 1.970 . S
Li1147 N1197 1.990 . S
Li1147 O1205 1.961 . S
Li1147 O1206 1.970 . S
Li1147 O1207 1.956 . S
C1148 C1150 1.348 . S
C1148 C1151 1.356 . S
C1148 O1204 1.325 . S
N1149 C1152 1.314 . S
N1149 C1153 1.279 . S
C1150 C1148 1.348 . S
C1150 C1152 1.353 . S
C1150 H1208 0.929 . S
C1151 C1148 1.356 . S
C1151 C1153 1.358 . S
C1151 H1209 0.930 . S
C1152 N1149 1.314 . S
C1152 C1150 1.353 . S
C1152 H1210 0.930 . S
C1153 N1149 1.279 . S
C1153 C1151 1.358 . S
C1153 H1211 0.930 . S
C1154 C1157 1.348 . S
C1154 C1158 1.356 . S
C1154 O1205 1.325 . S
C1155 N1156 1.279 . S
C1155 C1158 1.358 . S
C1155 H1212 0.930 . S
N1156 C1155 1.279 . S
N1156 C1159 1.314 . S
C1157 C1154 1.348 . S
C1157 C1159 1.353 . S
C1157 H1213 0.929 . S
C1158 C1154 1.356 . S
C1158 C1155 1.358 . S
C1158 H1214 0.930 . S
C1159 N1156 1.314 . S
C1159 C1157 1.353 . S
C1159 H1215 0.930 . S
C1160 N1161 1.314 . S
C1160 C1165 1.353 . S
C1160 H1166 0.930 . S
N1161 Li1144 1.990 . S
N1161 C1160 1.314 . S
N1161 C1163 1.279 . S
C1162 C1163 1.358 . S
C1162 C1164 1.356 . S
C1162 H1216 0.930 . S
C1163 N1161 1.279 . S
C1163 C1162 1.358 . S
C1163 H1167 0.930 . S
C1164 C1162 1.356 . S
C1164 C1165 1.348 . S
C1165 C1160 1.353 . S
C1165 C1164 1.348 . S
C1165 H1217 0.929 . S
H1166 C1160 0.930 . S
H1167 C1163 0.930 . S
C1168 N1169 1.314 . S
C1168 C1170 1.353 . S
C1168 H1174 0.930 . S
N1169 Li1145 1.990 . S
N1169 C1168 1.314 . S
N1169 C1172 1.279 . S
C1170 C1168 1.353 . S
C1170 C1173 1.348 . S
C1170 H1218 0.929 . S
C1171 C1172 1.358 . S
C1171 C1173 1.356 . S
C1171 H1219 0.930 . S
C1172 N1169 1.279 . S
C1172 C1171 1.358 . S
C1172 H1175 0.930 . S
C1173 C1170 1.348 . S
C1173 C1171 1.356 . S
H1174 C1168 0.930 . S
H1175 C1172 0.930 . S
C1176 C1178 1.348 . S
C1176 C1179 1.356 . S
C1176 O1206 1.325 . S
N1177 C1180 1.314 . S
N1177 C1181 1.279 . S
C1178 C1176 1.348 . S
C1178 C1180 1.353 . S
C1178 H1220 0.929 . S
C1179 C1176 1.356 . S
C1179 C1181 1.358 . S
C1179 H1221 0.930 . S
C1180 N1177 1.314 . S
C1180 C1178 1.353 . S
C1180 H1222 0.930 . S
C1181 N1177 1.279 . S
C1181 C1179 1.358 . S
C1181 H1223 0.930 . S
C1182 C1183 1.348 . S
C1182 C1184 1.356 . S
C1182 O1207 1.325 . S
C1183 C1182 1.348 . S
C1183 C1185 1.353 . S
C1183 H1224 0.929 . S
C1184 C1182 1.356 . S
C1184 C1186 1.358 . S
C1184 H1225 0.930 . S
C1185 C1183 1.353 . S
C1185 N1187 1.314 . S
C1185 H1226 0.930 . S
C1186 C1184 1.358 . S
C1186 N1187 1.279 . S
C1186 H1227 0.930 . S
N1187 C1185 1.314 . S
N1187 C1186 1.279 . S
C1188 C1190 1.353 . S
C1188 N1191 1.314 . S
C1188 H1194 0.930 . S
C1189 N1191 1.279 . S
C1189 C1192 1.358 . S
C1189 H1195 0.930 . S
C1190 C1188 1.353 . S
C1190 C1193 1.348 . S
C1190 H1228 0.929 . S
N1191 Li1146 1.990 . S
N1191 C1188 1.314 . S
N1191 C1189 1.279 . S
C1192 C1189 1.358 . S
C1192 C1193 1.356 . S
C1192 H1229 0.930 . S
C1193 C1190 1.348 . S
C1193 C1192 1.356 . S
H1194 C1188 0.930 . S
H1195 C1189 0.930 . S
C1196 N1197 1.314 . S
C1196 C1198 1.353 . S
C1196 H1202 0.930 . S
N1197 Li1147 1.990 . S
N1197 C1196 1.314 . S
N1197 C1200 1.279 . S
C1198 C1196 1.353 . S
C1198 C1201 1.348 . S
C1198 H1230 0.929 . S
C1199 C1200 1.358 . S
C1199 C1201 1.356 . S
C1199 H1231 0.930 . S
C1200 N1197 1.279 . S
C1200 C1199 1.358 . S
C1200 H1203 0.930 . S
C1201 C1198 1.348 . S
C1201 C1199 1.356 . S
H1202 C1196 0.930 . S
H1203 C1200 0.930 . S
O1204 Li1144 1.956 . S
O1204 Li1145 1.970 . S
O1204 Li1146 1.961 . S
O1204 C1148 1.325 . S
O1205 Li1144 1.970 . S
O1205 Li1145 1.956 . S
O1205 Li1147 1.961 . S
O1205 C1154 1.325 . S
O1206 Li1144 1.961 . S
O1206 Li1146 1.956 . S
O1206 Li1147 1.970 . S
O1206 C1176 1.325 . S
O1207 Li1145 1.961 . S
O1207 Li1146 1.970 . S
O1207 Li1147 1.956 . S
O1207 C1182 1.325 . S
H1208 C1150 0.929 . S
H1209 C1151 0.930 . S
H1210 C1152 0.930 . S
H1211 C1153 0.930 . S
H1212 C1155 0.930 . S
H1213 C1157 0.929 . S
H1214 C1158 0.930 . S
H1215 C1159 0.930 . S
H1216 C1162 0.930 . S
H1217 C1165 0.929 . S
H1218 C1170 0.929 . S
H1219 C1171 0.930 . S
H1220 C1178 0.929 . S
H1221 C1179 0.930 . S
H1222 C1180 0.930 . S
H1223 C1181 0.930 . S
H1224 C1183 0.929 . S
H1225 C1184 0.930 . S
H1226 C1185 0.930 . S
H1227 C1186 0.930 . S
H1228 C1190 0.929 . S
H1229 C1192 0.930 . S
H1230 C1198 0.929 . S
H1231 C1199 0.930 . S
Li1232 N1249 1.990 . S
Li1232 O1292 1.956 . S
Li1232 O1293 1.970 . S
Li1232 O1294 1.961 . S
Li1233 N1257 1.990 . S
Li1233 O1292 1.970 . S
Li1233 O1293 1.956 . S
Li1233 O1295 1.961 . S
Li1234 N1279 1.990 . S
Li1234 O1292 1.961 . S
Li1234 O1294 1.956 . S
Li1234 O1295 1.970 . S
Li1235 N1285 1.990 . S
Li1235 O1293 1.961 . S
Li1235 O1294 1.970 . S
Li1235 O1295 1.956 . S
C1236 C1238 1.348 . S
C1236 C1239 1.356 . S
C1236 O1292 1.325 . S
N1237 C1240 1.314 . S
N1237 C1241 1.279 . S
C1238 C1236 1.348 . S
C1238 C1240 1.353 . S
C1238 H1296 0.929 . S
C1239 C1236 1.356 . S
C1239 C1241 1.358 . S
C1239 H1297 0.930 . S
C1240 N1237 1.314 . S
C1240 C1238 1.353 . S
C1240 H1298 0.930 . S
C1241 N1237 1.279 . S
C1241 C1239 1.358 . S
C1241 H1299 0.930 . S
C1242 C1245 1.348 . S
C1242 C1246 1.356 . S
C1242 O1293 1.325 . S
C1243 N1244 1.279 . S
C1243 C1246 1.358 . S
C1243 H1300 0.930 . S
N1244 C1243 1.279 . S
N1244 C1247 1.314 . S
C1245 C1242 1.348 . S
C1245 C1247 1.353 . S
C1245 H1301 0.929 . S
C1246 C1242 1.356 . S
C1246 C1243 1.358 . S
C1246 H1302 0.930 . S
C1247 N1244 1.314 . S
C1247 C1245 1.353 . S
C1247 H1303 0.930 . S
C1248 N1249 1.314 . S
C1248 C1253 1.353 . S
C1248 H1254 0.930 . S
N1249 Li1232 1.990 . S
N1249 C1248 1.314 . S
N1249 C1251 1.279 . S
C1250 C1251 1.358 . S
C1250 C1252 1.356 . S
C1250 H1304 0.930 . S
C1251 N1249 1.279 . S
C1251 C1250 1.358 . S
C1251 H1255 0.930 . S
C1252 C1250 1.356 . S
C1252 C1253 1.348 . S
C1253 C1248 1.353 . S
C1253 C1252 1.348 . S
C1253 H1305 0.929 . S
H1254 C1248 0.930 . S
H1255 C1251 0.930 . S
C1256 N1257 1.314 . S
C1256 C1258 1.353 . S
C1256 H1262 0.930 . S
N1257 Li1233 1.990 . S
N1257 C1256 1.314 . S
N1257 C1260 1.279 . S
C1258 C1256 1.353 . S
C1258 C1261 1.348 . S
C1258 H1306 0.929 . S
C1259 C1260 1.358 . S
C1259 C1261 1.356 . S
C1259 H1307 0.930 . S
C1260 N1257 1.279 . S
C1260 C1259 1.358 . S
C1260 H1263 0.930 . S
C1261 C1258 1.348 . S
C1261 C1259 1.356 . S
H1262 C1256 0.930 . S
H1263 C1260 0.930 . S
C1264 C1266 1.348 . S
C1264 C1267 1.356 . S
C1264 O1294 1.325 . S
N1265 C1268 1.314 . S
N1265 C1269 1.279 . S
C1266 C1264 1.348 . S
C1266 C1268 1.353 . S
C1266 H1308 0.929 . S
C1267 C1264 1.356 . S
C1267 C1269 1.358 . S
C1267 H1309 0.930 . S
C1268 N1265 1.314 . S
C1268 C1266 1.353 . S
C1268 H1310 0.930 . S
C1269 N1265 1.279 . S
C1269 C1267 1.358 . S
C1269 H1311 0.930 . S
C1270 C1271 1.348 . S
C1270 C1272 1.356 . S
C1270 O1295 1.325 . S
C1271 C1270 1.348 . S
C1271 C1273 1.353 . S
C1271 H1312 0.929 . S
C1272 C1270 1.356 . S
C1272 C1274 1.358 . S
C1272 H1313 0.930 . S
C1273 C1271 1.353 . S
C1273 N1275 1.314 . S
C1273 H1314 0.930 . S
C1274 C1272 1.358 . S
C1274 N1275 1.279 . S
C1274 H1315 0.930 . S
N1275 C1273 1.314 . S
N1275 C1274 1.279 . S
C1276 C1278 1.353 . S
C1276 N1279 1.314 . S
C1276 H1282 0.930 . S
C1277 N1279 1.279 . S
C1277 C1280 1.358 . S
C1277 H1283 0.930 . S
C1278 C1276 1.353 . S
C1278 C1281 1.348 . S
C1278 H1316 0.929 . S
N1279 Li1234 1.990 . S
N1279 C1276 1.314 . S
N1279 C1277 1.279 . S
C1280 C1277 1.358 . S
C1280 C1281 1.356 . S
C1280 H1317 0.930 . S
C1281 C1278 1.348 . S
C1281 C1280 1.356 . S
H1282 C1276 0.930 . S
H1283 C1277 0.930 . S
C1284 N1285 1.314 . S
C1284 C1286 1.353 . S
C1284 H1290 0.930 . S
N1285 Li1235 1.990 . S
N1285 C1284 1.314 . S
N1285 C1288 1.279 . S
C1286 C1284 1.353 . S
C1286 C1289 1.348 . S
C1286 H1318 0.929 . S
C1287 C1288 1.358 . S
C1287 C1289 1.356 . S
C1287 H1319 0.930 . S
C1288 N1285 1.279 . S
C1288 C1287 1.358 . S
C1288 H1291 0.930 . S
C1289 C1286 1.348 . S
C1289 C1287 1.356 . S
H1290 C1284 0.930 . S
H1291 C1288 0.930 . S
O1292 Li1232 1.956 . S
O1292 Li1233 1.970 . S
O1292 Li1234 1.961 . S
O1292 C1236 1.325 . S
O1293 Li1232 1.970 . S
O1293 Li1233 1.956 . S
O1293 Li1235 1.961 . S
O1293 C1242 1.325 . S
O1294 Li1232 1.961 . S
O1294 Li1234 1.956 . S
O1294 Li1235 1.970 . S
O1294 C1264 1.325 . S
O1295 Li1233 1.961 . S
O1295 Li1234 1.970 . S
O1295 Li1235 1.956 . S
O1295 C1270 1.325 . S
H1296 C1238 0.929 . S
H1297 C1239 0.930 . S
H1298 C1240 0.930 . S
H1299 C1241 0.930 . S
H1300 C1243 0.930 . S
H1301 C1245 0.929 . S
H1302 C1246 0.930 . S
H1303 C1247 0.930 . S
H1304 C1250 0.930 . S
H1305 C1253 0.929 . S
H1306 C1258 0.929 . S
H1307 C1259 0.930 . S
H1308 C1266 0.929 . S
H1309 C1267 0.930 . S
H1310 C1268 0.930 . S
H1311 C1269 0.930 . S
H1312 C1271 0.929 . S
H1313 C1272 0.930 . S
H1314 C1273 0.930 . S
H1315 C1274 0.930 . S
H1316 C1278 0.929 . S
H1317 C1280 0.930 . S
H1318 C1286 0.929 . S
H1319 C1287 0.930 . S
Li1320 N1337 1.990 . S
Li1320 O1380 1.956 . S
Li1320 O1381 1.970 . S
Li1320 O1382 1.961 . S
Li1321 N1345 1.990 . S
Li1321 O1380 1.970 . S
Li1321 O1381 1.956 . S
Li1321 O1383 1.961 . S
Li1322 N1367 1.990 . S
Li1322 O1380 1.961 . S
Li1322 O1382 1.956 . S
Li1322 O1383 1.970 . S
Li1323 N1373 1.990 . S
Li1323 O1381 1.961 . S
Li1323 O1382 1.970 . S
Li1323 O1383 1.956 . S
C1324 C1326 1.348 . S
C1324 C1327 1.356 . S
C1324 O1380 1.325 . S
N1325 C1328 1.314 . S
N1325 C1329 1.279 . S
C1326 C1324 1.348 . S
C1326 C1328 1.353 . S
C1326 H1384 0.929 . S
C1327 C1324 1.356 . S
C1327 C1329 1.358 . S
C1327 H1385 0.930 . S
C1328 N1325 1.314 . S
C1328 C1326 1.353 . S
C1328 H1386 0.930 . S
C1329 N1325 1.279 . S
C1329 C1327 1.358 . S
C1329 H1387 0.930 . S
C1330 C1333 1.348 . S
C1330 C1334 1.356 . S
C1330 O1381 1.325 . S
C1331 N1332 1.279 . S
C1331 C1334 1.358 . S
C1331 H1388 0.930 . S
N1332 C1331 1.279 . S
N1332 C1335 1.314 . S
C1333 C1330 1.348 . S
C1333 C1335 1.353 . S
C1333 H1389 0.929 . S
C1334 C1330 1.356 . S
C1334 C1331 1.358 . S
C1334 H1390 0.930 . S
C1335 N1332 1.314 . S
C1335 C1333 1.353 . S
C1335 H1391 0.930 . S
C1336 N1337 1.314 . S
C1336 C1341 1.353 . S
C1336 H1342 0.930 . S
N1337 Li1320 1.990 . S
N1337 C1336 1.314 . S
N1337 C1339 1.279 . S
C1338 C1339 1.358 . S
C1338 C1340 1.356 . S
C1338 H1392 0.930 . S
C1339 N1337 1.279 . S
C1339 C1338 1.358 . S
C1339 H1343 0.930 . S
C1340 C1338 1.356 . S
C1340 C1341 1.348 . S
C1341 C1336 1.353 . S
C1341 C1340 1.348 . S
C1341 H1393 0.929 . S
H1342 C1336 0.930 . S
H1343 C1339 0.930 . S
C1344 N1345 1.314 . S
C1344 C1346 1.353 . S
C1344 H1350 0.930 . S
N1345 Li1321 1.990 . S
N1345 C1344 1.314 . S
N1345 C1348 1.279 . S
C1346 C1344 1.353 . S
C1346 C1349 1.348 . S
C1346 H1394 0.929 . S
C1347 C1348 1.358 . S
C1347 C1349 1.356 . S
C1347 H1395 0.930 . S
C1348 N1345 1.279 . S
C1348 C1347 1.358 . S
C1348 H1351 0.930 . S
C1349 C1346 1.348 . S
C1349 C1347 1.356 . S
H1350 C1344 0.930 . S
H1351 C1348 0.930 . S
C1352 C1354 1.348 . S
C1352 C1355 1.356 . S
C1352 O1382 1.325 . S
N1353 C1356 1.314 . S
N1353 C1357 1.279 . S
C1354 C1352 1.348 . S
C1354 C1356 1.353 . S
C1354 H1396 0.929 . S
C1355 C1352 1.356 . S
C1355 C1357 1.358 . S
C1355 H1397 0.930 . S
C1356 N1353 1.314 . S
C1356 C1354 1.353 . S
C1356 H1398 0.930 . S
C1357 N1353 1.279 . S
C1357 C1355 1.358 . S
C1357 H1399 0.930 . S
C1358 C1359 1.348 . S
C1358 C1360 1.356 . S
C1358 O1383 1.325 . S
C1359 C1358 1.348 . S
C1359 C1361 1.353 . S
C1359 H1400 0.929 . S
C1360 C1358 1.356 . S
C1360 C1362 1.358 . S
C1360 H1401 0.930 . S
C1361 C1359 1.353 . S
C1361 N1363 1.314 . S
C1361 H1402 0.930 . S
C1362 C1360 1.358 . S
C1362 N1363 1.279 . S
C1362 H1403 0.930 . S
N1363 C1361 1.314 . S
N1363 C1362 1.279 . S
C1364 C1366 1.353 . S
C1364 N1367 1.314 . S
C1364 H1370 0.930 . S
C1365 N1367 1.279 . S
C1365 C1368 1.358 . S
C1365 H1371 0.930 . S
C1366 C1364 1.353 . S
C1366 C1369 1.348 . S
C1366 H1404 0.929 . S
N1367 Li1322 1.990 . S
N1367 C1364 1.314 . S
N1367 C1365 1.279 . S
C1368 C1365 1.358 . S
C1368 C1369 1.356 . S
C1368 H1405 0.930 . S
C1369 C1366 1.348 . S
C1369 C1368 1.356 . S
H1370 C1364 0.930 . S
H1371 C1365 0.930 . S
C1372 N1373 1.314 . S
C1372 C1374 1.353 . S
C1372 H1378 0.930 . S
N1373 Li1323 1.990 . S
N1373 C1372 1.314 . S
N1373 C1376 1.279 . S
C1374 C1372 1.353 . S
C1374 C1377 1.348 . S
C1374 H1406 0.929 . S
C1375 C1376 1.358 . S
C1375 C1377 1.356 . S
C1375 H1407 0.930 . S
C1376 N1373 1.279 . S
C1376 C1375 1.358 . S
C1376 H1379 0.930 . S
C1377 C1374 1.348 . S
C1377 C1375 1.356 . S
H1378 C1372 0.930 . S
H1379 C1376 0.930 . S
O1380 Li1320 1.956 . S
O1380 Li1321 1.970 . S
O1380 Li1322 1.961 . S
O1380 C1324 1.325 . S
O1381 Li1320 1.970 . S
O1381 Li1321 1.956 . S
O1381 Li1323 1.961 . S
O1381 C1330 1.325 . S
O1382 Li1320 1.961 . S
O1382 Li1322 1.956 . S
O1382 Li1323 1.970 . S
O1382 C1352 1.325 . S
O1383 Li1321 1.961 . S
O1383 Li1322 1.970 . S
O1383 Li1323 1.956 . S
O1383 C1358 1.325 . S
H1384 C1326 0.929 . S
H1385 C1327 0.930 . S
H1386 C1328 0.930 . S
H1387 C1329 0.930 . S
H1388 C1331 0.930 . S
H1389 C1333 0.929 . S
H1390 C1334 0.930 . S
H1391 C1335 0.930 . S
H1392 C1338 0.930 . S
H1393 C1341 0.929 . S
H1394 C1346 0.929 . S
H1395 C1347 0.930 . S
H1396 C1354 0.929 . S
H1397 C1355 0.930 . S
H1398 C1356 0.930 . S
H1399 C1357 0.930 . S
H1400 C1359 0.929 . S
H1401 C1360 0.930 . S
H1402 C1361 0.930 . S
H1403 C1362 0.930 . S
H1404 C1366 0.929 . S
H1405 C1368 0.930 . S
H1406 C1374 0.929 . S
H1407 C1375 0.930 . S
H1408 C1414 0.930 . S
H1409 C1417 0.930 . S
H1410 C1418 0.930 . S
H1411 C1419 0.930 . S
H1412 C1422 0.930 . S
H1413 C1423 0.930 . S
C1414 H1408 0.930 . S
C1414 C1415 1.355 . S
C1414 C1416 1.415 . S
C1415 C1414 1.355 . S
C1415 C1417 1.419 . S
C1416 C1414 1.415 . S
C1416 C1421 1.425 . S
C1416 C1423 1.409 . S
C1417 H1409 0.930 . S
C1417 C1415 1.419 . S
C1417 C1418 1.362 . S
C1418 H1410 0.930 . S
C1418 C1417 1.362 . S
C1418 C1421 1.409 . S
C1419 H1411 0.930 . S
C1419 C1420 1.355 . S
C1419 C1421 1.415 . S
C1420 C1419 1.355 . S
C1420 C1422 1.419 . S
C1421 C1416 1.425 . S
C1421 C1418 1.409 . S
C1421 C1419 1.415 . S
C1422 H1412 0.930 . S
C1422 C1420 1.419 . S
C1422 C1423 1.362 . S
C1423 H1413 0.930 . S
C1423 C1416 1.409 . S
C1423 C1422 1.362 . S
H1424 C1430 0.930 . S
H1425 C1433 0.930 . S
H1426 C1434 0.930 . S
H1427 C1435 0.930 . S
H1428 C1438 0.930 . S
H1429 C1439 0.930 . S
C1430 H1424 0.930 . S
C1430 C1431 1.355 . S
C1430 C1432 1.415 . S
C1431 C1430 1.355 . S
C1431 C1433 1.419 . S
C1432 C1430 1.415 . S
C1432 C1437 1.425 . S
C1432 C1439 1.409 . S
C1433 H1425 0.930 . S
C1433 C1431 1.419 . S
C1433 C1434 1.362 . S
C1434 H1426 0.930 . S
C1434 C1433 1.362 . S
C1434 C1437 1.409 . S
C1435 H1427 0.930 . S
C1435 C1436 1.355 . S
C1435 C1437 1.415 . S
C1436 C1435 1.355 . S
C1436 C1438 1.419 . S
C1437 C1432 1.425 . S
C1437 C1434 1.409 . S
C1437 C1435 1.415 . S
C1438 H1428 0.930 . S
C1438 C1436 1.419 . S
C1438 C1439 1.362 . S
C1439 H1429 0.930 . S
C1439 C1432 1.409 . S
C1439 C1438 1.362 . S
H1440 C1446 0.930 . S
H1441 C1449 0.930 . S
H1442 C1450 0.930 . S
H1443 C1451 0.930 . S
H1444 C1454 0.930 . S
H1445 C1455 0.930 . S
C1446 H1440 0.930 . S
C1446 C1447 1.355 . S
C1446 C1448 1.415 . S
C1447 C1446 1.355 . S
C1447 C1449 1.419 . S
C1448 C1446 1.415 . S
C1448 C1453 1.425 . S
C1448 C1455 1.409 . S
C1449 H1441 0.930 . S
C1449 C1447 1.419 . S
C1449 C1450 1.362 . S
C1450 H1442 0.930 . S
C1450 C1449 1.362 . S
C1450 C1453 1.409 . S
C1451 H1443 0.930 . S
C1451 C1452 1.355 . S
C1451 C1453 1.415 . S
C1452 C1451 1.355 . S
C1452 C1454 1.419 . S
C1453 C1448 1.425 . S
C1453 C1450 1.409 . S
C1453 C1451 1.415 . S
C1454 H1444 0.930 . S
C1454 C1452 1.419 . S
C1454 C1455 1.362 . S
C1455 H1445 0.930 . S
C1455 C1448 1.409 . S
C1455 C1454 1.362 . S
H1456 C1462 0.930 . S
H1457 C1465 0.930 . S
H1458 C1466 0.930 . S
H1459 C1467 0.930 . S
H1460 C1470 0.930 . S
H1461 C1471 0.930 . S
C1462 H1456 0.930 . S
C1462 C1463 1.355 . S
C1462 C1464 1.415 . S
C1463 C1462 1.355 . S
C1463 C1465 1.419 . S
C1464 C1462 1.415 . S
C1464 C1469 1.425 . S
C1464 C1471 1.409 . S
C1465 H1457 0.930 . S
C1465 C1463 1.419 . S
C1465 C1466 1.362 . S
C1466 H1458 0.930 . S
C1466 C1465 1.362 . S
C1466 C1469 1.409 . S
C1467 H1459 0.930 . S
C1467 C1468 1.355 . S
C1467 C1469 1.415 . S
C1468 C1467 1.355 . S
C1468 C1470 1.419 . S
C1469 C1464 1.425 . S
C1469 C1466 1.409 . S
C1469 C1467 1.415 . S
C1470 H1460 0.930 . S
C1470 C1468 1.419 . S
C1470 C1471 1.362 . S
C1471 H1461 0.930 . S
C1471 C1464 1.409 . S
C1471 C1470 1.362 . S
H1472 C1478 0.930 . S
H1473 C1481 0.930 . S
H1474 C1482 0.930 . S
H1475 C1483 0.930 . S
H1476 C1486 0.930 . S
H1477 C1487 0.930 . S
C1478 H1472 0.930 . S
C1478 C1479 1.355 . S
C1478 C1480 1.415 . S
C1479 C1478 1.355 . S
C1479 C1481 1.419 . S
C1480 C1478 1.415 . S
C1480 C1485 1.425 . S
C1480 C1487 1.409 . S
C1481 H1473 0.930 . S
C1481 C1479 1.419 . S
C1481 C1482 1.362 . S
C1482 H1474 0.930 . S
C1482 C1481 1.362 . S
C1482 C1485 1.409 . S
C1483 H1475 0.930 . S
C1483 C1484 1.355 . S
C1483 C1485 1.415 . S
C1484 C1483 1.355 . S
C1484 C1486 1.419 . S
C1485 C1480 1.425 . S
C1485 C1482 1.409 . S
C1485 C1483 1.415 . S
C1486 H1476 0.930 . S
C1486 C1484 1.419 . S
C1486 C1487 1.362 . S
C1487 H1477 0.930 . S
C1487 C1480 1.409 . S
C1487 C1486 1.362 . S
H1488 C1494 0.930 . S
H1489 C1497 0.930 . S
H1490 C1498 0.930 . S
H1491 C1499 0.930 . S
H1492 C1502 0.930 . S
H1493 C1503 0.930 . S
C1494 H1488 0.930 . S
C1494 C1495 1.355 . S
C1494 C1496 1.415 . S
C1495 C1494 1.355 . S
C1495 C1497 1.419 . S
C1496 C1494 1.415 . S
C1496 C1501 1.425 . S
C1496 C1503 1.409 . S
C1497 H1489 0.930 . S
C1497 C1495 1.419 . S
C1497 C1498 1.362 . S
C1498 H1490 0.930 . S
C1498 C1497 1.362 . S
C1498 C1501 1.409 . S
C1499 H1491 0.930 . S
C1499 C1500 1.355 . S
C1499 C1501 1.415 . S
C1500 C1499 1.355 . S
C1500 C1502 1.419 . S
C1501 C1496 1.425 . S
C1501 C1498 1.409 . S
C1501 C1499 1.415 . S
C1502 H1492 0.930 . S
C1502 C1500 1.419 . S
C1502 C1503 1.362 . S
C1503 H1493 0.930 . S
C1503 C1496 1.409 . S
C1503 C1502 1.362 . S
H1504 C1510 0.930 . S
H1505 C1513 0.930 . S
H1506 C1514 0.930 . S
H1507 C1515 0.930 . S
H1508 C1518 0.930 . S
H1509 C1519 0.930 . S
C1510 H1504 0.930 . S
C1510 C1511 1.355 . S
C1510 C1512 1.415 . S
C1511 C1510 1.355 . S
C1511 C1513 1.419 . S
C1512 C1510 1.415 . S
C1512 C1517 1.425 . S
C1512 C1519 1.409 . S
C1513 H1505 0.930 . S
C1513 C1511 1.419 . S
C1513 C1514 1.362 . S
C1514 H1506 0.930 . S
C1514 C1513 1.362 . S
C1514 C1517 1.409 . S
C1515 H1507 0.930 . S
C1515 C1516 1.355 . S
C1515 C1517 1.415 . S
C1516 C1515 1.355 . S
C1516 C1518 1.419 . S
C1517 C1512 1.425 . S
C1517 C1514 1.409 . S
C1517 C1515 1.415 . S
C1518 H1508 0.930 . S
C1518 C1516 1.419 . S
C1518 C1519 1.362 . S
C1519 H1509 0.930 . S
C1519 C1512 1.409 . S
C1519 C1518 1.362 . S
H1520 C1526 0.930 . S
H1521 C1529 0.930 . S
H1522 C1530 0.930 . S
H1523 C1531 0.930 . S
H1524 C1534 0.930 . S
H1525 C1535 0.930 . S
C1526 H1520 0.930 . S
C1526 C1527 1.355 . S
C1526 C1528 1.415 . S
C1527 C1526 1.355 . S
C1527 C1529 1.419 . S
C1528 C1526 1.415 . S
C1528 C1533 1.425 . S
C1528 C1535 1.409 . S
C1529 H1521 0.930 . S
C1529 C1527 1.419 . S
C1529 C1530 1.362 . S
C1530 H1522 0.930 . S
C1530 C1529 1.362 . S
C1530 C1533 1.409 . S
C1531 H1523 0.930 . S
C1531 C1532 1.355 . S
C1531 C1533 1.415 . S
C1532 C1531 1.355 . S
C1532 C1534 1.419 . S
C1533 C1528 1.425 . S
C1533 C1530 1.409 . S
C1533 C1531 1.415 . S
C1534 H1524 0.930 . S
C1534 C1532 1.419 . S
C1534 C1535 1.362 . S
C1535 H1525 0.930 . S
C1535 C1528 1.409 . S
C1535 C1534 1.362 . S
H1536 C1542 0.930 . S
H1537 C1545 0.930 . S
H1538 C1546 0.930 . S
H1539 C1547 0.930 . S
H1540 C1550 0.930 . S
H1541 C1551 0.930 . S
C1542 H1536 0.930 . S
C1542 C1543 1.355 . S
C1542 C1544 1.415 . S
C1543 C1542 1.355 . S
C1543 C1545 1.419 . S
C1544 C1542 1.415 . S
C1544 C1549 1.425 . S
C1544 C1551 1.409 . S
C1545 H1537 0.930 . S
C1545 C1543 1.419 . S
C1545 C1546 1.362 . S
C1546 H1538 0.930 . S
C1546 C1545 1.362 . S
C1546 C1549 1.409 . S
C1547 H1539 0.930 . S
C1547 C1548 1.355 . S
C1547 C1549 1.415 . S
C1548 C1547 1.355 . S
C1548 C1550 1.419 . S
C1549 C1544 1.425 . S
C1549 C1546 1.409 . S
C1549 C1547 1.415 . S
C1550 H1540 0.930 . S
C1550 C1548 1.419 . S
C1550 C1551 1.362 . S
C1551 H1541 0.930 . S
C1551 C1544 1.409 . S
C1551 C1550 1.362 . S
H1552 C1558 0.940 . S
H1553 C1561 0.930 . S
H1554 C1562 0.930 . S
H1555 C1563 0.938 . S
H1556 C1566 0.930 . S
H1557 C1567 0.930 . S
C1558 H1552 0.940 . S
C1558 C1559 1.351 1_565 S
C1558 C1560 1.420 . S
C1559 C1558 1.351 1_545 S
C1559 C1561 1.405 1_455 S
C1560 C1558 1.420 . S
C1560 C1565 1.425 1_465 S
C1560 C1567 1.409 . S
C1561 H1553 0.930 . S
C1561 C1559 1.405 1_655 S
C1561 C1562 1.362 . S
C1562 H1554 0.930 . S
C1562 C1561 1.362 . S
C1562 C1565 1.409 . S
C1563 H1555 0.938 . S
C1563 C1564 1.343 1_645 S
C1563 C1565 1.419 . S
C1564 C1563 1.343 1_465 S
C1564 C1566 1.419 . S
C1565 C1560 1.425 1_645 S
C1565 C1562 1.409 . S
C1565 C1563 1.419 . S
C1566 H1556 0.930 . S
C1566 C1564 1.419 . S
C1566 C1567 1.362 . S
C1567 H1557 0.930 . S
C1567 C1560 1.409 . S
C1567 C1566 1.362 . S
H1568 C1574 0.930 . S
H1569 C1577 0.930 . S
H1570 C1578 0.930 . S
H1571 C1579 0.930 . S
H1572 C1582 0.930 . S
H1573 C1583 0.930 . S
C1574 H1568 0.930 . S
C1574 C1575 1.355 . S
C1574 C1576 1.415 . S
C1575 C1574 1.355 . S
C1575 C1577 1.419 . S
C1576 C1574 1.415 . S
C1576 C1581 1.425 1_556 S
C1576 C1583 1.409 1_556 S
C1577 H1569 0.930 . S
C1577 C1575 1.419 . S
C1577 C1578 1.362 . S
C1578 H1570 0.930 . S
C1578 C1577 1.362 . S
C1578 C1581 1.409 1_556 S
C1579 H1571 0.930 . S
C1579 C1580 1.355 . S
C1579 C1581 1.415 . S
C1580 C1579 1.355 . S
C1580 C1582 1.419 . S
C1581 C1576 1.425 1_554 S
C1581 C1578 1.409 1_554 S
C1581 C1579 1.415 . S
C1582 H1572 0.930 . S
C1582 C1580 1.419 . S
C1582 C1583 1.362 . S
C1583 H1573 0.930 . S
C1583 C1576 1.409 1_554 S
C1583 C1582 1.362 . S
H1584 C1590 0.930 1_545 S
H1585 C1593 0.930 . S
H1586 C1594 0.930 . S
H1587 C1595 0.930 1_565 S
H1588 C1598 0.930 . S
H1589 C1599 0.930 . S
C1590 H1584 0.930 1_565 S
C1590 C1591 1.355 . S
C1590 C1592 1.415 1_565 S
C1591 C1590 1.355 . S
C1591 C1593 1.419 . S
C1592 C1590 1.415 1_545 S
C1592 C1597 1.425 1_545 S
C1592 C1599 1.409 . S
C1593 H1585 0.930 . S
C1593 C1591 1.419 . S
C1593 C1594 1.362 . S
C1594 H1586 0.930 . S
C1594 C1593 1.362 . S
C1594 C1597 1.409 . S
C1595 H1587 0.930 1_545 S
C1595 C1596 1.355 . S
C1595 C1597 1.415 1_545 S
C1596 C1595 1.355 . S
C1596 C1598 1.419 . S
C1597 C1592 1.425 1_565 S
C1597 C1594 1.409 . S
C1597 C1595 1.415 1_565 S
C1598 H1588 0.930 . S
C1598 C1596 1.419 . S
C1598 C1599 1.362 . S
C1599 H1589 0.930 . S
C1599 C1592 1.409 . S
C1599 C1598 1.362 . S
H1600 C1606 0.930 . S
H1601 C1609 0.930 . S
H1602 C1610 0.930 . S
H1603 C1611 0.930 . S
H1604 C1614 0.930 . S
H1605 C1615 0.930 . S
C1606 H1600 0.930 . S
C1606 C1607 1.355 . S
C1606 C1608 1.415 . S
C1607 C1606 1.355 . S
C1607 C1609 1.419 . S
C1608 C1606 1.415 . S
C1608 C1613 1.425 . S
C1608 C1615 1.409 . S
C1609 H1601 0.930 . S
C1609 C1607 1.419 . S
C1609 C1610 1.362 . S
C1610 H1602 0.930 . S
C1610 C1609 1.362 . S
C1610 C1613 1.409 . S
C1611 H1603 0.930 . S
C1611 C1612 1.355 . S
C1611 C1613 1.415 . S
C1612 C1611 1.355 . S
C1612 C1614 1.419 . S
C1613 C1608 1.425 . S
C1613 C1610 1.409 . S
C1613 C1611 1.415 . S
C1614 H1604 0.930 . S
C1614 C1612 1.419 . S
C1614 C1615 1.362 . S
C1615 H1605 0.930 . S
C1615 C1608 1.409 . S
C1615 C1614 1.362 . S
H1616 C1622 0.930 . S
H1617 C1625 0.930 . S
H1618 C1626 0.930 . S
H1619 C1627 0.930 . S
H1620 C1630 0.930 . S
H1621 C1631 0.930 . S
C1622 H1616 0.930 . S
C1622 C1623 1.355 1_455 S
C1622 C1624 1.415 . S
C1623 C1622 1.355 1_655 S
C1623 C1625 1.419 . S
C1624 C1622 1.415 . S
C1624 C1629 1.425 1_455 S
C1624 C1631 1.409 . S
C1625 H1617 0.930 . S
C1625 C1623 1.419 . S
C1625 C1626 1.362 . S
C1626 H1618 0.930 . S
C1626 C1625 1.362 . S
C1626 C1629 1.409 . S
C1627 H1619 0.930 . S
C1627 C1628 1.355 1_655 S
C1627 C1629 1.415 . S
C1628 C1627 1.355 1_455 S
C1628 C1630 1.419 . S
C1629 C1624 1.425 1_655 S
C1629 C1626 1.409 . S
C1629 C1627 1.415 . S
C1630 H1620 0.930 . S
C1630 C1628 1.419 . S
C1630 C1631 1.362 . S
C1631 H1621 0.930 . S
C1631 C1624 1.409 . S
C1631 C1630 1.362 . S
H1632 C1638 0.930 . S
H1633 C1641 0.930 . S
H1634 C1642 0.930 . S
H1635 C1643 0.930 . S
H1636 C1646 0.930 . S
H1637 C1647 0.930 . S
C1638 H1632 0.930 . S
C1638 C1639 1.355 . S
C1638 C1640 1.415 . S
C1639 C1638 1.355 . S
C1639 C1641 1.419 . S
C1640 C1638 1.415 . S
C1640 C1645 1.425 1_655 S
C1640 C1647 1.409 1_655 S
C1641 H1633 0.930 . S
C1641 C1639 1.419 . S
C1641 C1642 1.362 . S
C1642 H1634 0.930 . S
C1642 C1641 1.362 . S
C1642 C1645 1.409 1_655 S
C1643 H1635 0.930 . S
C1643 C1644 1.355 . S
C1643 C1645 1.415 . S
C1644 C1643 1.355 . S
C1644 C1646 1.419 . S
C1645 C1640 1.425 1_455 S
C1645 C1642 1.409 1_455 S
C1645 C1643 1.415 . S
C1646 H1636 0.930 . S
C1646 C1644 1.419 . S
C1646 C1647 1.362 . S
C1647 H1637 0.930 . S
C1647 C1640 1.409 1_455 S
C1647 C1646 1.362 . S
H1648 C1654 0.930 . S
H1649 C1657 0.930 . S
H1650 C1658 0.930 . S
H1651 C1659 0.930 . S
H1652 C1662 0.930 . S
H1653 C1663 0.930 . S
C1654 H1648 0.930 . S
C1654 C1655 1.355 . S
C1654 C1656 1.415 . S
C1655 C1654 1.355 . S
C1655 C1657 1.419 1_556 S
C1656 C1654 1.415 . S
C1656 C1661 1.425 1_556 S
C1656 C1663 1.409 . S
C1657 H1649 0.930 . S
C1657 C1655 1.419 1_554 S
C1657 C1658 1.362 . S
C1658 H1650 0.930 . S
C1658 C1657 1.362 . S
C1658 C1661 1.409 . S
C1659 H1651 0.930 . S
C1659 C1660 1.355 1_554 S
C1659 C1661 1.415 . S
C1660 C1659 1.355 1_556 S
C1660 C1662 1.419 . S
C1661 C1656 1.425 1_554 S
C1661 C1658 1.409 . S
C1661 C1659 1.415 . S
C1662 H1652 0.930 . S
C1662 C1660 1.419 . S
C1662 C1663 1.362 . S
C1663 H1653 0.930 . S
C1663 C1656 1.409 . S
C1663 C1662 1.362 . S
H1664 C1670 0.930 . S
H1665 C1673 0.930 . S
H1666 C1674 0.930 . S
H1667 C1675 0.930 . S
H1668 C1678 0.930 . S
H1669 C1679 0.930 . S
C1670 H1664 0.930 . S
C1670 C1671 1.355 . S
C1670 C1672 1.415 . S
C1671 C1670 1.355 . S
C1671 C1673 1.419 . S
C1672 C1670 1.415 . S
C1672 C1677 1.425 . S
C1672 C1679 1.409 . S
C1673 H1665 0.930 . S
C1673 C1671 1.419 . S
C1673 C1674 1.362 . S
C1674 H1666 0.930 . S
C1674 C1673 1.362 . S
C1674 C1677 1.409 . S
C1675 H1667 0.930 . S
C1675 C1676 1.355 . S
C1675 C1677 1.415 . S
C1676 C1675 1.355 . S
C1676 C1678 1.419 . S
C1677 C1672 1.425 . S
C1677 C1674 1.409 . S
C1677 C1675 1.415 . S
C1678 H1668 0.930 . S
C1678 C1676 1.419 . S
C1678 C1679 1.362 . S
C1679 H1669 0.930 . S
C1679 C1672 1.409 . S
C1679 C1678 1.362 . S
H1680 C1686 0.930 . S
H1681 C1689 0.930 . S
H1682 C1690 0.930 . S
H1683 C1691 0.930 . S
H1684 C1694 0.930 . S
H1685 C1695 0.930 . S
C1686 H1680 0.930 . S
C1686 C1687 1.355 . S
C1686 C1688 1.415 . S
C1687 C1686 1.355 . S
C1687 C1689 1.419 . S
C1688 C1686 1.415 . S
C1688 C1693 1.425 . S
C1688 C1695 1.409 . S
C1689 H1681 0.930 . S
C1689 C1687 1.419 . S
C1689 C1690 1.362 . S
C1690 H1682 0.930 . S
C1690 C1689 1.362 . S
C1690 C1693 1.409 . S
C1691 H1683 0.930 . S
C1691 C1692 1.355 . S
C1691 C1693 1.415 . S
C1692 C1691 1.355 . S
C1692 C1694 1.419 . S
C1693 C1688 1.425 . S
C1693 C1690 1.409 . S
C1693 C1691 1.415 . S
C1694 H1684 0.930 . S
C1694 C1692 1.419 . S
C1694 C1695 1.362 . S
C1695 H1685 0.930 . S
C1695 C1688 1.409 . S
C1695 C1694 1.362 . S
H1696 C1702 0.930 . S
H1697 C1705 0.930 . S
H1698 C1706 0.930 . S
H1699 C1707 0.930 . S
H1700 C1710 0.930 . S
H1701 C1711 0.930 . S
C1702 H1696 0.930 . S
C1702 C1703 1.355 . S
C1702 C1704 1.415 . S
C1703 C1702 1.355 . S
C1703 C1705 1.419 . S
C1704 C1702 1.415 . S
C1704 C1709 1.425 1_455 S
C1704 C1711 1.409 1_455 S
C1705 H1697 0.930 . S
C1705 C1703 1.419 . S
C1705 C1706 1.362 . S
C1706 H1698 0.930 . S
C1706 C1705 1.362 . S
C1706 C1709 1.409 1_455 S
C1707 H1699 0.930 . S
C1707 C1708 1.355 . S
C1707 C1709 1.415 . S
C1708 C1707 1.355 . S
C1708 C1710 1.419 . S
C1709 C1704 1.425 1_655 S
C1709 C1706 1.409 1_655 S
C1709 C1707 1.415 . S
C1710 H1700 0.930 . S
C1710 C1708 1.419 . S
C1710 C1711 1.362 . S
C1711 H1701 0.930 . S
C1711 C1704 1.409 1_655 S
C1711 C1710 1.362 . S
H1712 C1718 0.930 . S
H1713 C1721 0.930 . S
H1714 C1722 0.930 . S
H1715 C1723 0.930 . S
H1716 C1726 0.930 . S
H1717 C1727 0.930 . S
C1718 H1712 0.930 . S
C1718 C1719 1.355 1_656 S
C1718 C1720 1.415 . S
C1719 C1718 1.355 1_454 S
C1719 C1721 1.419 . S
C1720 C1718 1.415 . S
C1720 C1725 1.425 1_656 S
C1720 C1727 1.409 . S
C1721 H1713 0.930 . S
C1721 C1719 1.419 . S
C1721 C1722 1.362 . S
C1722 H1714 0.930 . S
C1722 C1721 1.362 . S
C1722 C1725 1.409 . S
C1723 H1715 0.930 . S
C1723 C1724 1.355 1_455 S
C1723 C1725 1.415 . S
C1724 C1723 1.355 1_655 S
C1724 C1726 1.419 1_554 S
C1725 C1720 1.425 1_454 S
C1725 C1722 1.409 . S
C1725 C1723 1.415 . S
C1726 H1716 0.930 . S
C1726 C1724 1.419 1_556 S
C1726 C1727 1.362 . S
C1727 H1717 0.930 . S
C1727 C1720 1.409 . S
C1727 C1726 1.362 . S
H1728 C1734 0.930 . S
H1729 C1737 0.930 . S
H1730 C1738 0.930 . S
H1731 C1739 0.930 . S
H1732 C1742 0.930 . S
H1733 C1743 0.930 . S
C1734 H1728 0.930 . S
C1734 C1735 1.355 . S
C1734 C1736 1.415 . S
C1735 C1734 1.355 . S
C1735 C1737 1.419 . S
C1736 C1734 1.415 . S
C1736 C1741 1.425 . S
C1736 C1743 1.409 . S
C1737 H1729 0.930 . S
C1737 C1735 1.419 . S
C1737 C1738 1.362 . S
C1738 H1730 0.930 . S
C1738 C1737 1.362 . S
C1738 C1741 1.409 . S
C1739 H1731 0.930 . S
C1739 C1740 1.355 . S
C1739 C1741 1.415 . S
C1740 C1739 1.355 . S
C1740 C1742 1.419 . S
C1741 C1736 1.425 . S
C1741 C1738 1.409 . S
C1741 C1739 1.415 . S
C1742 H1732 0.930 . S
C1742 C1740 1.419 . S
C1742 C1743 1.362 . S
C1743 H1733 0.930 . S
C1743 C1736 1.409 . S
C1743 C1742 1.362 . S
H1744 C1750 0.930 . S
H1745 C1753 0.930 . S
H1746 C1754 0.930 . S
H1747 C1755 0.930 . S
H1748 C1758 0.930 . S
H1749 C1759 0.930 . S
C1750 H1744 0.930 . S
C1750 C1751 1.355 . S
C1750 C1752 1.415 . S
C1751 C1750 1.355 . S
C1751 C1753 1.419 . S
C1752 C1750 1.415 . S
C1752 C1757 1.425 1_545 S
C1752 C1759 1.409 1_545 S
C1753 H1745 0.930 . S
C1753 C1751 1.419 . S
C1753 C1754 1.362 . S
C1754 H1746 0.930 . S
C1754 C1753 1.362 . S
C1754 C1757 1.409 1_545 S
C1755 H1747 0.930 . S
C1755 C1756 1.355 . S
C1755 C1757 1.415 . S
C1756 C1755 1.355 . S
C1756 C1758 1.419 . S
C1757 C1752 1.425 1_565 S
C1757 C1754 1.409 1_565 S
C1757 C1755 1.415 . S
C1758 H1748 0.930 . S
C1758 C1756 1.419 . S
C1758 C1759 1.362 . S
C1759 H1749 0.930 . S
C1759 C1752 1.409 1_565 S
C1759 C1758 1.362 . S
H1760 C1766 0.930 . S
H1761 C1769 0.930 . S
H1762 C1770 0.930 . S
H1763 C1771 0.930 . S
H1764 C1774 0.930 . S
H1765 C1775 0.930 . S
C1766 H1760 0.930 . S
C1766 C1767 1.355 1_554 S
C1766 C1768 1.415 . S
C1767 C1766 1.355 1_556 S
C1767 C1769 1.419 . S
C1768 C1766 1.415 . S
C1768 C1773 1.425 1_554 S
C1768 C1775 1.409 . S
C1769 H1761 0.930 . S
C1769 C1767 1.419 . S
C1769 C1770 1.362 . S
C1770 H1762 0.930 . S
C1770 C1769 1.362 . S
C1770 C1773 1.409 . S
C1771 H1763 0.930 . S
C1771 C1772 1.355 1_556 S
C1771 C1773 1.415 . S
C1772 C1771 1.355 1_554 S
C1772 C1774 1.419 . S
C1773 C1768 1.425 1_556 S
C1773 C1770 1.409 . S
C1773 C1771 1.415 . S
C1774 H1764 0.930 . S
C1774 C1772 1.419 . S
C1774 C1775 1.362 . S
C1775 H1765 0.930 . S
C1775 C1768 1.409 . S
C1775 C1774 1.362 . S
H1776 C1782 0.930 . S
H1777 C1785 0.930 . S
H1778 C1786 0.930 . S
H1779 C1787 0.930 . S
H1780 C1790 0.930 . S
H1781 C1791 0.930 . S
C1782 H1776 0.930 . S
C1782 C1783 1.355 . S
C1782 C1784 1.415 . S
C1783 C1782 1.355 . S
C1783 C1785 1.419 . S
C1784 C1782 1.415 . S
C1784 C1789 1.425 1_545 S
C1784 C1791 1.409 1_545 S
C1785 H1777 0.930 . S
C1785 C1783 1.419 . S
C1785 C1786 1.362 . S
C1786 H1778 0.930 . S
C1786 C1785 1.362 . S
C1786 C1789 1.409 1_545 S
C1787 H1779 0.930 . S
C1787 C1788 1.355 . S
C1787 C1789 1.415 . S
C1788 C1787 1.355 . S
C1788 C1790 1.419 . S
C1789 C1784 1.425 1_565 S
C1789 C1786 1.409 1_565 S
C1789 C1787 1.415 . S
C1790 H1780 0.930 . S
C1790 C1788 1.419 . S
C1790 C1791 1.362 . S
C1791 H1781 0.930 . S
C1791 C1784 1.409 1_565 S
C1791 C1790 1.362 . S
H1792 C1798 0.930 . S
H1793 C1801 0.930 . S
H1794 C1802 0.930 . S
H1795 C1803 0.930 . S
H1796 C1806 0.930 . S
H1797 C1807 0.930 . S
C1798 H1792 0.930 . S
C1798 C1799 1.355 1_556 S
C1798 C1800 1.415 . S
C1799 C1798 1.355 1_554 S
C1799 C1801 1.419 1_545 S
C1800 C1798 1.415 . S
C1800 C1805 1.425 1_546 S
C1800 C1807 1.409 . S
C1801 H1793 0.930 . S
C1801 C1799 1.419 1_565 S
C1801 C1802 1.362 . S
C1802 H1794 0.930 . S
C1802 C1801 1.362 . S
C1802 C1805 1.409 . S
C1803 H1795 0.930 . S
C1803 C1804 1.355 1_564 S
C1803 C1805 1.415 . S
C1804 C1803 1.355 1_546 S
C1804 C1806 1.419 . S
C1805 C1800 1.425 1_564 S
C1805 C1802 1.409 . S
C1805 C1803 1.415 . S
C1806 H1796 0.930 . S
C1806 C1804 1.419 . S
C1806 C1807 1.362 . S
C1807 H1797 0.930 . S
C1807 C1800 1.409 . S
C1807 C1806 1.362 . S
H1808 C1814 0.930 . S
H1809 C1817 0.930 . S
H1810 C1818 0.930 . S
H1811 C1819 0.930 . S
H1812 C1822 0.930 . S
H1813 C1823 0.930 . S
C1814 H1808 0.930 . S
C1814 C1815 1.355 . S
C1814 C1816 1.415 . S
C1815 C1814 1.355 . S
C1815 C1817 1.419 . S
C1816 C1814 1.415 . S
C1816 C1821 1.425 . S
C1816 C1823 1.409 . S
C1817 H1809 0.930 . S
C1817 C1815 1.419 . S
C1817 C1818 1.362 . S
C1818 H1810 0.930 . S
C1818 C1817 1.362 . S
C1818 C1821 1.409 . S
C1819 H1811 0.930 . S
C1819 C1820 1.355 . S
C1819 C1821 1.415 . S
C1820 C1819 1.355 . S
C1820 C1822 1.419 . S
C1821 C1816 1.425 . S
C1821 C1818 1.409 . S
C1821 C1819 1.415 . S
C1822 H1812 0.930 . S
C1822 C1820 1.419 . S
C1822 C1823 1.362 . S
C1823 H1813 0.930 . S
C1823 C1816 1.409 . S
C1823 C1822 1.362 . S
H1824 C1830 0.930 . S
H1825 C1833 0.930 . S
H1826 C1834 0.930 . S
H1827 C1835 0.930 . S
H1828 C1838 0.930 . S
H1829 C1839 0.930 . S
C1830 H1824 0.930 . S
C1830 C1831 1.355 . S
C1830 C1832 1.415 . S
C1831 C1830 1.355 . S
C1831 C1833 1.419 . S
C1832 C1830 1.415 . S
C1832 C1837 1.425 . S
C1832 C1839 1.409 . S
C1833 H1825 0.930 . S
C1833 C1831 1.419 . S
C1833 C1834 1.362 . S
C1834 H1826 0.930 . S
C1834 C1833 1.362 . S
C1834 C1837 1.409 . S
C1835 H1827 0.930 . S
C1835 C1836 1.355 . S
C1835 C1837 1.415 . S
C1836 C1835 1.355 . S
C1836 C1838 1.419 . S
C1837 C1832 1.425 . S
C1837 C1834 1.409 . S
C1837 C1835 1.415 . S
C1838 H1828 0.930 . S
C1838 C1836 1.419 . S
C1838 C1839 1.362 . S
C1839 H1829 0.930 . S
C1839 C1832 1.409 . S
C1839 C1838 1.362 . S
H1840 C1846 0.930 . S
H1841 C1849 0.930 . S
H1842 C1850 0.930 1_554 S
H1843 C1851 0.930 . S
H1844 C1854 0.930 . S
H1845 C1855 0.914 1_556 S
C1846 H1840 0.930 . S
C1846 C1847 1.355 . S
C1846 C1848 1.415 . S
C1847 C1846 1.355 . S
C1847 C1849 1.419 . S
C1848 C1846 1.415 . S
C1848 C1853 1.425 1_556 S
C1848 C1855 1.409 1_556 S
C1849 H1841 0.930 . S
C1849 C1847 1.419 . S
C1849 C1850 1.362 . S
C1850 H1842 0.930 1_556 S
C1850 C1849 1.362 . S
C1850 C1853 1.409 1_556 S
C1851 H1843 0.930 . S
C1851 C1852 1.355 . S
C1851 C1853 1.415 . S
C1852 C1851 1.355 . S
C1852 C1854 1.419 . S
C1853 C1848 1.425 1_554 S
C1853 C1850 1.409 1_554 S
C1853 C1851 1.415 . S
C1854 H1844 0.930 . S
C1854 C1852 1.419 . S
C1854 C1855 1.362 . S
C1855 H1845 0.914 1_554 S
C1855 C1848 1.409 1_554 S
C1855 C1854 1.362 . S
H1856 C1862 0.930 . S
H1857 C1865 0.930 . S
H1858 C1866 0.930 . S
H1859 C1867 0.930 . S
H1860 C1870 0.930 . S
H1861 C1871 0.930 . S
C1862 H1856 0.930 . S
C1862 C1863 1.355 . S
C1862 C1864 1.415 . S
C1863 C1862 1.355 . S
C1863 C1865 1.419 . S
C1864 C1862 1.415 . S
C1864 C1869 1.425 . S
C1864 C1871 1.409 . S
C1865 H1857 0.930 . S
C1865 C1863 1.419 . S
C1865 C1866 1.362 . S
C1866 H1858 0.930 . S
C1866 C1865 1.362 . S
C1866 C1869 1.409 . S
C1867 H1859 0.930 . S
C1867 C1868 1.355 . S
C1867 C1869 1.415 . S
C1868 C1867 1.355 . S
C1868 C1870 1.419 . S
C1869 C1864 1.425 . S
C1869 C1866 1.409 . S
C1869 C1867 1.415 . S
C1870 H1860 0.930 . S
C1870 C1868 1.419 . S
C1870 C1871 1.362 . S
C1871 H1861 0.930 . S
C1871 C1864 1.409 . S
C1871 C1870 1.362 . S
H1872 C1878 0.930 . S
H1873 C1881 0.930 . S
H1874 C1882 0.930 . S
H1875 C1883 0.930 . S
H1876 C1886 0.930 . S
H1877 C1887 0.930 . S
C1878 H1872 0.930 . S
C1878 C1879 1.355 . S
C1878 C1880 1.415 . S
C1879 C1878 1.355 . S
C1879 C1881 1.419 . S
C1880 C1878 1.415 . S
C1880 C1885 1.425 . S
C1880 C1887 1.409 . S
C1881 H1873 0.930 . S
C1881 C1879 1.419 . S
C1881 C1882 1.362 . S
C1882 H1874 0.930 . S
C1882 C1881 1.362 . S
C1882 C1885 1.409 . S
C1883 H1875 0.930 . S
C1883 C1884 1.355 . S
C1883 C1885 1.415 . S
C1884 C1883 1.355 . S
C1884 C1886 1.419 . S
C1885 C1880 1.425 . S
C1885 C1882 1.409 . S
C1885 C1883 1.415 . S
C1886 H1876 0.930 . S
C1886 C1884 1.419 . S
C1886 C1887 1.362 . S
C1887 H1877 0.930 . S
C1887 C1880 1.409 . S
C1887 C1886 1.362 . S
H1888 C1894 0.930 . S
H1889 C1897 0.930 . S
H1890 C1898 0.930 . S
H1891 C1899 0.930 . S
H1892 C1902 0.930 . S
H1893 C1903 0.930 . S
C1894 H1888 0.930 . S
C1894 C1895 1.355 1_455 S
C1894 C1896 1.415 . S
C1895 C1894 1.355 1_655 S
C1895 C1897 1.419 . S
C1896 C1894 1.415 . S
C1896 C1901 1.425 1_455 S
C1896 C1903 1.409 . S
C1897 H1889 0.930 . S
C1897 C1895 1.419 . S
C1897 C1898 1.362 . S
C1898 H1890 0.930 . S
C1898 C1897 1.362 . S
C1898 C1901 1.409 . S
C1899 H1891 0.930 . S
C1899 C1900 1.356 . S
C1899 C1901 1.415 . S
C1900 C1899 1.356 . S
C1900 C1902 1.417 1_655 S
C1901 C1896 1.425 1_655 S
C1901 C1898 1.409 . S
C1901 C1899 1.415 . S
C1902 H1892 0.930 . S
C1902 C1900 1.417 1_455 S
C1902 C1903 1.362 . S
C1903 H1893 0.930 . S
C1903 C1896 1.409 . S
C1903 C1902 1.362 . S
H1904 C1910 0.930 . S
H1905 C1913 0.930 . S
H1906 C1914 0.930 . S
H1907 C1915 0.930 . S
H1908 C1918 0.930 . S
H1909 C1919 0.930 . S
C1910 H1904 0.930 . S
C1910 C1911 1.356 . S
C1910 C1912 1.415 . S
C1911 C1910 1.356 . S
C1911 C1913 1.417 1_565 S
C1912 C1910 1.415 . S
C1912 C1917 1.425 1_565 S
C1912 C1919 1.409 . S
C1913 H1905 0.930 . S
C1913 C1911 1.417 1_545 S
C1913 C1914 1.362 . S
C1914 H1906 0.930 . S
C1914 C1913 1.362 . S
C1914 C1917 1.409 . S
C1915 H1907 0.930 . S
C1915 C1916 1.355 1_545 S
C1915 C1917 1.415 . S
C1916 C1915 1.355 1_565 S
C1916 C1918 1.419 . S
C1917 C1912 1.425 1_545 S
C1917 C1914 1.409 . S
C1917 C1915 1.415 . S
C1918 H1908 0.930 . S
C1918 C1916 1.419 . S
C1918 C1919 1.362 . S
C1919 H1909 0.930 . S
C1919 C1912 1.409 . S
C1919 C1918 1.362 . S
C1415 C57 1.877 . S
C1420 C645 1.874 . S
C1431 C145 1.881 . S
C1436 C372 1.881 . S
C1447 C489 1.877 . S
C1452 C205 1.874 . S
C1463 C321 1.878 . S
C1468 C548 1.876 . S
C1479 C724 1.878 . S
C1484 C1113 1.879 . S
C1495 C849 1.875 . S
C1500 C1252 1.874 . S
C1511 C1025 1.878 . S
C1516 C900 1.879 . S
C1527 C1340 1.877 . S
C1532 C1201 1.874 . S
C1543 C29 1.190 . S
C1548 C585 1.200 . S
C1559 C636 1.261 . S
C1564 C137 1.271 . S
C1575 C233 1.190 . S
C1580 C409 1.166 . S
C1591 C497 1.266 . S
C1596 C284 1.283 . S
C1607 C49 1.250 . S
C1612 C1261 1.263 . S
C1623 C997 1.251 . S
C1628 C108 1.229 . S
C1639 C1193 1.203 . S
C1644 C196 1.188 . S
C1655 C1076 1.168 . S
C1660 C293 1.198 . S
C1671 C929 1.211 . S
C1676 C401 1.206 . S
C1687 C469 1.231 . S
C1692 C1377 1.202 . S
C1703 C577 1.222 . S
C1708 C753 1.241 . S
C1719 C665 1.262 1_554 S
C1724 C812 1.245 . S
C1735 C20 1.221 . S
C1740 C381 1.244 . S
C1751 C733 1.213 . S
C1756 C1164 1.239 . S
C1767 C1085 1.273 . S
C1772 C821 1.271 . S
C1783 C1289 1.199 . S
C1788 C909 1.181 . S
C1799 C673 1.267 1_545 S
C1804 C313 1.265 1_545 S
C1815 C225 1.261 . S
C1820 C557 1.269 . S
C1831 C1017 1.193 . S
C1836 C1369 1.195 . S
C1847 C1173 1.250 . S
C1852 C937 1.256 . S
C1863 C1349 1.240 . S
C1868 C1105 1.221 . S
C1879 C1281 1.230 . S
C1884 C761 1.196 . S
C1895 C988 1.241 1_655 S
C1900 C841 1.217 . S
C1911 C117 1.203 . S
C1916 C460 1.220 . S
