# Generated by pormake.
# Topology zfg, (5)-cn, num edge types: 1
# Building blocks:
#     Node 0, Type 0, BuildingBlock: BEQFEK_clean_sbu_0, # of connection points: 5
#     Node 1, Type 0, BuildingBlock: BEQFEK_clean_sbu_0, # of connection points: 5
#     Node 2, Type 0, BuildingBlock: BEQFEK_clean_sbu_0, # of connection points: 5
#     Node 3, Type 0, BuildingBlock: BEQFEK_clean_sbu_0, # of connection points: 5
#     Node 4, Type 0, BuildingBlock: BEQFEK_clean_sbu_0, # of connection points: 5
#     Node 5, Type 0, BuildingBlock: BEQFEK_clean_sbu_0, # of connection points: 5
#     Node 6, Type 0, BuildingBlock: BEQFEK_clean_sbu_0, # of connection points: 5
#     Node 7, Type 0, BuildingBlock: BEQFEK_clean_sbu_0, # of connection points: 5
#     Node 8, Type 0, BuildingBlock: BEQFEK_clean_sbu_0, # of connection points: 5
#     Node 9, Type 0, BuildingBlock: BEQFEK_clean_sbu_0, # of connection points: 5
#     Node 10, Type 0, BuildingBlock: BEQFEK_clean_sbu_0, # of connection points: 5
#     Node 11, Type 0, BuildingBlock: BEQFEK_clean_sbu_0, # of connection points: 5
#     Node 12, Type 0, BuildingBlock: BEQFEK_clean_sbu_0, # of connection points: 5
#     Node 13, Type 0, BuildingBlock: BEQFEK_clean_sbu_0, # of connection points: 5
#     Node 14, Type 0, BuildingBlock: BEQFEK_clean_sbu_0, # of connection points: 5
#     Node 15, Type 0, BuildingBlock: BEQFEK_clean_sbu_0, # of connection points: 5
#     Edge 16, Type (0, 0), BuildingBlock: OJICUG_clean_linker_0, # of connection points: 2
#     Edge 17, Type (0, 0), BuildingBlock: OJICUG_clean_linker_0, # of connection points: 2
#     Edge 18, Type (0, 0), BuildingBlock: OJICUG_clean_linker_0, # of connection points: 2
#     Edge 19, Type (0, 0), BuildingBlock: OJICUG_clean_linker_0, # of connection points: 2
#     Edge 20, Type (0, 0), BuildingBlock: OJICUG_clean_linker_0, # of connection points: 2
#     Edge 21, Type (0, 0), BuildingBlock: OJICUG_clean_linker_0, # of connection points: 2
#     Edge 22, Type (0, 0), BuildingBlock: OJICUG_clean_linker_0, # of connection points: 2
#     Edge 23, Type (0, 0), BuildingBlock: OJICUG_clean_linker_0, # of connection points: 2
#     Edge 24, Type (0, 0), BuildingBlock: OJICUG_clean_linker_0, # of connection points: 2
#     Edge 25, Type (0, 0), BuildingBlock: OJICUG_clean_linker_0, # of connection points: 2
#     Edge 26, Type (0, 0), BuildingBlock: OJICUG_clean_linker_0, # of connection points: 2
#     Edge 27, Type (0, 0), BuildingBlock: OJICUG_clean_linker_0, # of connection points: 2
#     Edge 28, Type (0, 0), BuildingBlock: OJICUG_clean_linker_0, # of connection points: 2
#     Edge 29, Type (0, 0), BuildingBlock: OJICUG_clean_linker_0, # of connection points: 2
#     Edge 30, Type (0, 0), BuildingBlock: OJICUG_clean_linker_0, # of connection points: 2
#     Edge 31, Type (0, 0), BuildingBlock: OJICUG_clean_linker_0, # of connection points: 2
#     Edge 32, Type (0, 0), BuildingBlock: OJICUG_clean_linker_0, # of connection points: 2
#     Edge 33, Type (0, 0), BuildingBlock: OJICUG_clean_linker_0, # of connection points: 2
#     Edge 34, Type (0, 0), BuildingBlock: OJICUG_clean_linker_0, # of connection points: 2
#     Edge 35, Type (0, 0), BuildingBlock: OJICUG_clean_linker_0, # of connection points: 2
#     Edge 36, Type (0, 0), BuildingBlock: OJICUG_clean_linker_0, # of connection points: 2
#     Edge 37, Type (0, 0), BuildingBlock: OJICUG_clean_linker_0, # of connection points: 2
#     Edge 38, Type (0, 0), BuildingBlock: OJICUG_clean_linker_0, # of connection points: 2
#     Edge 39, Type (0, 0), BuildingBlock: OJICUG_clean_linker_0, # of connection points: 2
#     Edge 40, Type (0, 0), BuildingBlock: OJICUG_clean_linker_0, # of connection points: 2
#     Edge 41, Type (0, 0), BuildingBlock: OJICUG_clean_linker_0, # of connection points: 2
#     Edge 42, Type (0, 0), BuildingBlock: OJICUG_clean_linker_0, # of connection points: 2
#     Edge 43, Type (0, 0), BuildingBlock: OJICUG_clean_linker_0, # of connection points: 2
#     Edge 44, Type (0, 0), BuildingBlock: OJICUG_clean_linker_0, # of connection points: 2
#     Edge 45, Type (0, 0), BuildingBlock: OJICUG_clean_linker_0, # of connection points: 2
#     Edge 46, Type (0, 0), BuildingBlock: OJICUG_clean_linker_0, # of connection points: 2
#     Edge 47, Type (0, 0), BuildingBlock: OJICUG_clean_linker_0, # of connection points: 2
#     Edge 48, Type (0, 0), BuildingBlock: OJICUG_clean_linker_0, # of connection points: 2
#     Edge 49, Type (0, 0), BuildingBlock: OJICUG_clean_linker_0, # of connection points: 2
#     Edge 50, Type (0, 0), BuildingBlock: OJICUG_clean_linker_0, # of connection points: 2
#     Edge 51, Type (0, 0), BuildingBlock: OJICUG_clean_linker_0, # of connection points: 2
#     Edge 52, Type (0, 0), BuildingBlock: OJICUG_clean_linker_0, # of connection points: 2
#     Edge 53, Type (0, 0), BuildingBlock: OJICUG_clean_linker_0, # of connection points: 2
#     Edge 54, Type (0, 0), BuildingBlock: OJICUG_clean_linker_0, # of connection points: 2
#     Edge 55, Type (0, 0), BuildingBlock: OJICUG_clean_linker_0, # of connection points: 2
# Relax obj value: 0.054
# Max RMSD: 0.068
# Mean RMSD: 0.068
data_MOF--net-zfg--node1-BEQFEK_clean_sbu_0--edge1-OJICUG_clean_linker_0
_symmetry_space_group_name_H-M    P1
_symmetry_Int_Tables_number       1
_symmetry_cell_setting            triclinic
loop_
_symmetry_equiv_pos_as_xyz
'x, y, z'
_cell_length_a     33.267838
_cell_length_b     33.181565
_cell_length_c     42.242301
_cell_angle_alpha  90.027257
_cell_angle_beta   90.031448
_cell_angle_gamma 89.948485
loop_
_atom_site_label
_atom_site_type_symbol
_atom_site_fract_x
_atom_site_fract_y
_atom_site_fract_z
_atom_type_partial_charge
Co0 Co 0.08165 0.21253 0.14269 0.0
Co1 Co 0.04105 0.29682 0.13979 0.0
C2 C 0.08007 0.26316 0.08257 0.0
O3 O 0.08925 0.2311 0.09771 0.0
O4 O 0.062 0.29229 0.0962 0.0
C5 C 0.14726 0.15649 0.1393 0.0
O6 O 0.16649 0.18649 0.12583 0.0
C7 C 0.02251 0.38369 0.13546 0.0
C8 C 0.97364 0.3877 0.17086 0.0
C9 C 0.9966 0.41045 0.15027 0.0
N10 N 0.0152 0.34671 0.14698 0.0
N11 N 0.98555 0.34924 0.16769 0.0
C12 C 0.05594 0.3934 0.11308 0.0
H13 H 0.07899 0.36921 0.11336 0.0
H14 H 0.06993 0.42271 0.11934 0.0
H15 H 0.04355 0.39584 0.08876 0.0
C16 C 0.12572 0.25267 0.19635 0.0
N17 N 0.09863 0.25244 0.17248 0.0
N18 N 0.08218 0.28843 0.17037 0.0
C19 C 0.09887 0.31284 0.19227 0.0
C20 C 0.12706 0.29109 0.20939 0.0
C21 C 0.15019 0.217 0.20622 0.0
H22 H 0.17508 0.2127 0.1891 0.0
H23 H 0.1633 0.22139 0.23014 0.0
H24 H 0.13127 0.18949 0.20602 0.0
O25 O 0.02439 0.19793 0.14867 0.0
O26 O 0.99674 0.25819 0.14427 0.0
H27 H 0.10458 0.37002 0.21687 0.0
H28 H 0.09185 0.37314 0.17537 0.0
C29 C 0.08705 0.35587 0.19749 0.0
H30 H 0.0547 0.35738 0.2036 0.0
H31 H 0.97432 0.32482 0.18047 0.0
O32 O 0.1114 0.16172 0.14864 0.0
C33 C 0.99344 0.22039 0.14779 0.0
Co34 Co 0.77913 0.08331 0.14508 0.0
Co35 Co 0.69532 0.04226 0.14298 0.0
C36 C 0.72708 0.08272 0.08573 0.0
O37 O 0.7593 0.09194 0.10056 0.0
O38 O 0.6986 0.06398 0.09951 0.0
C39 C 0.83538 0.14896 0.14184 0.0
O40 O 0.80549 0.16881 0.12875 0.0
C41 C 0.60888 0.02383 0.1388 0.0
C42 C 0.60476 0.97468 0.17404 0.0
C43 C 0.58216 0.99779 0.1534 0.0
N44 N 0.6457 0.01642 0.15043 0.0
N45 N 0.64312 0.98663 0.17108 0.0
C46 C 0.5993 0.05745 0.11644 0.0
H47 H 0.62281 0.0811 0.11761 0.0
H48 H 0.56949 0.07074 0.12198 0.0
H49 H 0.59831 0.04535 0.09196 0.0
C50 C 0.74037 0.12625 0.19988 0.0
N51 N 0.74009 0.09955 0.1757 0.0
N52 N 0.70422 0.08301 0.17391 0.0
C53 C 0.68036 0.09928 0.19636 0.0
C54 C 0.70238 0.12726 0.21351 0.0
C55 C 0.77608 0.15074 0.20944 0.0
H56 H 0.80355 0.13178 0.20882 0.0
H57 H 0.77998 0.17579 0.19235 0.0
H58 H 0.77219 0.16373 0.23345 0.0
O59 O 0.79402 0.0258 0.14998 0.0
O60 O 0.73406 0.99768 0.14643 0.0
H61 H 0.6364 0.05484 0.20815 0.0
H62 H 0.62373 0.10481 0.22152 0.0
C63 C 0.6376 0.08728 0.20201 0.0
H64 H 0.61997 0.09197 0.18006 0.0
H65 H 0.66747 0.97526 0.18388 0.0
O66 O 0.82996 0.11291 0.15081 0.0
C67 C 0.7719 0.99461 0.14918 0.0
Co68 Co 0.91102 0.78099 0.14179 0.0
Co69 Co 0.95153 0.69664 0.13832 0.0
C70 C 0.91144 0.73013 0.08157 0.0
O71 O 0.90266 0.76221 0.09686 0.0
O72 O 0.92964 0.7009 0.09497 0.0
C73 C 0.84495 0.83703 0.13992 0.0
O74 O 0.82504 0.80702 0.12704 0.0
C75 C 0.97019 0.60972 0.13435 0.0
C76 C 0.02004 0.60642 0.16898 0.0
C77 C 0.99653 0.58327 0.14902 0.0
N78 N 0.97777 0.64692 0.14535 0.0
N79 N 0.00801 0.6448 0.16559 0.0
C80 C 0.93614 0.59955 0.11265 0.0
H81 H 0.91327 0.62391 0.11279 0.0
H82 H 0.92212 0.57056 0.1197 0.0
H83 H 0.9479 0.59618 0.08822 0.0
C84 C 0.86867 0.74108 0.19638 0.0
N85 N 0.89484 0.74113 0.1719 0.0
N86 N 0.91115 0.7051 0.16952 0.0
C87 C 0.89523 0.68083 0.19185 0.0
C88 C 0.86774 0.70272 0.20955 0.0
C89 C 0.84485 0.7769 0.20685 0.0
H90 H 0.81915 0.7812 0.19046 0.0
H91 H 0.83288 0.77271 0.23115 0.0
H92 H 0.86384 0.80433 0.20602 0.0
O93 O 0.96841 0.79571 0.14704 0.0
O94 O 0.99587 0.73544 0.1421 0.0
H95 H 0.93973 0.6364 0.20262 0.0
H96 H 0.8902 0.62378 0.21666 0.0
C97 C 0.90722 0.63784 0.19699 0.0
H98 H 0.90186 0.62046 0.17499 0.0
H99 H 0.01953 0.66946 0.17795 0.0
O100 O 0.88125 0.83181 0.14817 0.0
C101 C -0.00069 0.77322 0.14564 0.0
Co102 Co 0.21378 0.91027 0.14067 0.0
Co103 Co 0.29736 0.9519 0.13802 0.0
C104 C 0.26496 0.91189 0.08078 0.0
O105 O 0.23293 0.90252 0.09579 0.0
O106 O 0.29369 0.93039 0.09451 0.0
C107 C 0.15751 0.84424 0.13791 0.0
O108 O 0.18715 0.82425 0.12462 0.0
C109 C 0.38389 0.97114 0.13487 0.0
C110 C 0.38636 0.02099 0.16965 0.0
C111 C 0.4099 0.99756 0.14992 0.0
N112 N 0.34658 0.97858 0.14548 0.0
N113 N 0.3482 0.00884 0.16579 0.0
C114 C 0.39459 0.93707 0.11325 0.0
H115 H 0.37031 0.91416 0.11296 0.0
H116 H 0.42334 0.92296 0.12072 0.0
H117 H 0.39851 0.94896 0.0889 0.0
C118 C 0.25376 0.86738 0.19502 0.0
N119 N 0.2535 0.89406 0.17084 0.0
N120 N 0.28919 0.91097 0.16887 0.0
C121 C 0.31342 0.89501 0.19121 0.0
C122 C 0.29189 0.86682 0.20844 0.0
C123 C 0.21835 0.84273 0.20495 0.0
H124 H 0.21431 0.81758 0.18795 0.0
H125 H 0.22274 0.82989 0.22896 0.0
H126 H 0.19077 0.86153 0.20455 0.0
O127 O 0.19848 0.96756 0.14631 0.0
O128 O 0.25821 0.99593 0.14195 0.0
H129 H 0.35703 0.94012 0.20239 0.0
H130 H 0.37001 0.89061 0.21661 0.0
C131 C 0.35607 0.90751 0.19678 0.0
H132 H 0.3738 0.90226 0.17498 0.0
H133 H 0.32335 0.02025 0.17792 0.0
O134 O 0.16315 0.88034 0.14673 0.0
C135 C 0.22046 -0.00117 0.14533 0.0
Co136 Co 0.58536 0.28202 0.3887 0.0
Co137 Co 0.54414 0.1981 0.39139 0.0
C138 C 0.5826 0.23124 0.44896 0.0
O139 O 0.59215 0.26322 0.43383 0.0
O140 O 0.56459 0.20219 0.43519 0.0
C141 C 0.65155 0.33816 0.39133 0.0
O142 O 0.67149 0.30833 0.40447 0.0
C143 C 0.52489 0.11133 0.39451 0.0
C144 C 0.47564 0.10885 0.35932 0.0
C145 C 0.49874 0.08526 0.37926 0.0
N146 N 0.51764 0.14873 0.38382 0.0
N147 N 0.48772 0.1471 0.36326 0.0
C148 C 0.55858 0.10061 0.41641 0.0
H149 H 0.58131 0.12506 0.41703 0.0
H150 H 0.5729 0.07191 0.40895 0.0
H151 H 0.54637 0.09643 0.44063 0.0
C152 C 0.62875 0.24177 0.33469 0.0
N153 N 0.60216 0.24198 0.3589 0.0
N154 N 0.58551 0.2061 0.36097 0.0
C155 C 0.60159 0.18179 0.33871 0.0
C156 C 0.62956 0.20348 0.32139 0.0
C157 C 0.65278 0.27749 0.32441 0.0
H158 H 0.67815 0.28183 0.34111 0.0
H159 H 0.6652 0.27314 0.30027 0.0
H160 H 0.63377 0.30496 0.32496 0.0
O161 O 0.5283 0.29724 0.38212 0.0
O162 O 0.5003 0.23723 0.38656 0.0
H163 H 0.60633 0.12496 0.3135 0.0
H164 H 0.59395 0.12133 0.355 0.0
C165 C 0.58915 0.13904 0.33309 0.0
H166 H 0.55673 0.13812 0.32711 0.0
H167 H 0.47653 0.172 0.351 0.0
O168 O 0.61542 0.3327 0.38274 0.0
C169 C 0.49723 0.27501 0.38281 0.0
Co170 Co 0.71557 0.58483 0.38536 0.0
Co171 Co 0.79979 0.54419 0.38901 0.0
C172 C 0.76635 0.58504 0.44553 0.0
O173 O 0.73436 0.59368 0.43016 0.0
O174 O 0.79551 0.56662 0.43227 0.0
C175 C 0.65916 0.65064 0.38741 0.0
O176 O 0.68887 0.67067 0.40055 0.0
C177 C 0.88668 0.5255 0.39277 0.0
C178 C 0.88964 0.47525 0.35838 0.0
C179 C 0.91294 0.49896 0.37808 0.0
N180 N 0.84945 0.51783 0.38202 0.0
N181 N 0.8514 0.48734 0.36193 0.0
C182 C 0.89706 0.55978 0.41425 0.0
H183 H 0.87264 0.5826 0.41433 0.0
H184 H 0.92577 0.57393 0.40682 0.0
H185 H 0.90095 0.54812 0.43868 0.0
C186 C 0.75533 0.62701 0.33069 0.0
N187 N 0.75529 0.60079 0.35518 0.0
N188 N 0.79122 0.58442 0.35757 0.0
C189 C 0.81541 0.60033 0.3352 0.0
C190 C 0.79357 0.6279 0.31749 0.0
C191 C 0.71965 0.65111 0.32039 0.0
H192 H 0.69229 0.63203 0.32094 0.0
H193 H 0.71527 0.67653 0.33709 0.0
H194 H 0.72392 0.66357 0.29626 0.0
O195 O 0.70099 0.52726 0.38052 0.0
O196 O 0.76105 0.49963 0.38559 0.0
H197 H 0.85976 0.55563 0.32475 0.0
H198 H 0.87222 0.60508 0.31022 0.0
C199 C 0.85828 0.5883 0.33008 0.0
H200 H 0.87568 0.59403 0.35199 0.0
H201 H 0.82669 0.4757 0.34976 0.0
O202 O 0.66473 0.61442 0.37885 0.0
C203 C 0.72334 0.49624 0.38212 0.0
Co204 Co 0.41282 0.71506 0.38343 0.0
Co205 Co 0.45351 0.79918 0.38584 0.0
C206 C 0.41323 0.76698 0.44296 0.0
O207 O 0.40423 0.73466 0.42807 0.0
O208 O 0.43177 0.79568 0.42924 0.0
C209 C 0.34713 0.65882 0.38627 0.0
O210 O 0.32737 0.68874 0.39943 0.0
C211 C 0.47208 0.88582 0.3902 0.0
C212 C 0.52112 0.88988 0.35496 0.0
C213 C 0.49815 0.91256 0.37565 0.0
N214 N 0.47935 0.84891 0.3785 0.0
N215 N 0.50907 0.85146 0.35785 0.0
C216 C 0.4386 0.89547 0.41258 0.0
H217 H 0.41503 0.87187 0.4115 0.0
H218 H 0.42531 0.92532 0.40699 0.0
H219 H 0.45073 0.89656 0.43704 0.0
C220 C 0.3698 0.75427 0.32881 0.0
N221 N 0.39649 0.7544 0.35296 0.0
N222 N 0.41291 0.79039 0.3549 0.0
C223 C 0.39656 0.81448 0.33262 0.0
C224 C 0.36866 0.79248 0.3154 0.0
C225 C 0.34544 0.71851 0.31907 0.0
H226 H 0.36433 0.69096 0.31969 0.0
H227 H 0.32031 0.71455 0.33602 0.0
H228 H 0.33266 0.72252 0.295 0.0
O229 O 0.47024 0.70018 0.37837 0.0
O230 O 0.49796 0.76041 0.38225 0.0
H231 H 0.4407 0.85882 0.32103 0.0
H232 H 0.39078 0.87147 0.3078 0.0
C233 C 0.40836 0.85744 0.32721 0.0
H234 H 0.40367 0.87489 0.34927 0.0
H235 H 0.52032 0.82706 0.34501 0.0
O236 O 0.38319 0.66419 0.37748 0.0
C237 C 0.50123 0.72252 0.37927 0.0
Co238 Co 0.28298 0.4123 0.38195 0.0
Co239 Co 0.19879 0.45292 0.38528 0.0
C240 C 0.23228 0.41235 0.44192 0.0
O241 O 0.2644 0.40373 0.42677 0.0
O242 O 0.20319 0.43069 0.42849 0.0
C243 C 0.33911 0.34684 0.38528 0.0
O244 O 0.30915 0.32746 0.39863 0.0
C245 C 0.1121 0.47169 0.39008 0.0
C246 C 0.10797 0.52087 0.35486 0.0
C247 C 0.08537 0.49787 0.37553 0.0
N248 N 0.14892 0.47891 0.37836 0.0
N249 N 0.1463 0.50874 0.35775 0.0
C250 C 0.10249 0.43815 0.41246 0.0
H251 H 0.12631 0.41473 0.41174 0.0
H252 H 0.07295 0.42454 0.40656 0.0
H253 H 0.10079 0.45044 0.43686 0.0
C254 C 0.24294 0.369 0.32787 0.0
N255 N 0.24321 0.39587 0.35193 0.0
N256 N 0.20733 0.41239 0.35418 0.0
C257 C 0.18295 0.39595 0.33217 0.0
C258 C 0.20461 0.36789 0.31482 0.0
C259 C 0.27844 0.34445 0.31789 0.0
H260 H 0.30592 0.36336 0.31815 0.0
H261 H 0.28272 0.31942 0.33496 0.0
H262 H 0.27399 0.33144 0.29394 0.0
O263 O 0.29742 0.46981 0.37675 0.0
O264 O 0.23737 0.49754 0.38156 0.0
H265 H 0.1383 0.44009 0.32107 0.0
H266 H 0.12567 0.39 0.30797 0.0
C267 C 0.13995 0.40767 0.32722 0.0
H268 H 0.12299 0.40289 0.34947 0.0
H269 H 0.1706 0.51998 0.34487 0.0
O270 O 0.33379 0.38273 0.37583 0.0
C271 C 0.27508 0.50085 0.3781 0.0
Co272 Co 0.91183 0.78307 0.88522 0.0
Co273 Co 0.95117 0.6973 0.88766 0.0
C274 C 0.91177 0.73164 0.94489 0.0
O275 O 0.90313 0.76404 0.92998 0.0
O276 O 0.92972 0.70252 0.93113 0.0
C277 C 0.84854 0.84208 0.88899 0.0
O278 O 0.82855 0.81256 0.90245 0.0
C279 C 0.9646 0.60902 0.892 0.0
C280 C 0.01538 0.60252 0.85862 0.0
C281 C 0.98979 0.5808 0.87798 0.0
N282 N 0.9748 0.64572 0.88114 0.0
N283 N 0.00557 0.6416 0.86163 0.0
C284 C 0.92934 0.60113 0.91304 0.0
H285 H 0.90787 0.62672 0.91216 0.0
H286 H 0.91398 0.57283 0.90597 0.0
H287 H 0.94009 0.59763 0.93776 0.0
C288 C 0.86773 0.74428 0.83095 0.0
N289 N 0.8945 0.74361 0.85504 0.0
N290 N 0.91052 0.70735 0.85676 0.0
C291 C 0.8939 0.68374 0.83427 0.0
C292 C 0.86618 0.70622 0.81726 0.0
C293 C 0.8439 0.78051 0.82142 0.0
H294 H 0.86347 0.80756 0.82147 0.0
H295 H 0.81951 0.7854 0.83889 0.0
H296 H 0.83024 0.7765 0.79765 0.0
O297 O 0.9696 0.79559 0.87992 0.0
O298 O 0.99691 0.73496 0.8834 0.0
H299 H 0.93805 0.63892 0.82351 0.0
H300 H 0.88889 0.62782 0.80787 0.0
C301 C 0.90536 0.64077 0.82832 0.0
H302 H 0.89873 0.62262 0.84969 0.0
H303 H 0.01907 0.66544 0.84955 0.0
O304 O 0.88404 0.83561 0.87925 0.0
C305 C 0.0004 0.77289 0.88042 0.0
Co306 Co 0.21427 0.91166 0.88406 0.0
Co307 Co 0.29949 0.95032 0.88664 0.0
C308 C 0.26555 0.91223 0.94405 0.0
O309 O 0.23333 0.90374 0.92895 0.0
O310 O 0.2949 0.92974 0.93037 0.0
C311 C 0.15806 0.84572 0.8867 0.0
O312 O 0.18843 0.82563 0.89885 0.0
C313 C 0.38645 0.9675 0.89108 0.0
C314 C 0.39178 0.01416 0.8539 0.0
C315 C 0.41378 0.99204 0.87557 0.0
N316 N 0.34985 0.97477 0.87893 0.0
N317 N 0.35319 0.00312 0.85712 0.0
C318 C 0.39527 0.9353 0.91486 0.0
H319 H 0.37156 0.91181 0.91431 0.0
H320 H 0.42508 0.92144 0.91026 0.0
H321 H 0.39583 0.94896 0.93884 0.0
C322 C 0.25267 0.86758 0.82956 0.0
N323 N 0.25347 0.89388 0.85402 0.0
N324 N 0.28987 0.90913 0.85628 0.0
C325 C 0.31356 0.89222 0.83403 0.0
C326 C 0.29087 0.86534 0.8164 0.0
C327 C 0.21609 0.84527 0.81883 0.0
H328 H 0.18932 0.86513 0.82033 0.0
H329 H 0.21125 0.81902 0.83461 0.0
H330 H 0.21966 0.83407 0.79423 0.0
O331 O 0.20103 0.96959 0.878 0.0
O332 O 0.2619 0.99571 0.88188 0.0
H333 H 0.35887 0.93464 0.82099 0.0
H334 H 0.37093 0.88344 0.81055 0.0
C335 C 0.35677 0.90284 0.8288 0.0
H336 H 0.37352 0.89963 0.85133 0.0
H337 H 0.32918 0.01403 0.8437 0.0
O338 O 0.16302 0.8822 0.87854 0.0
C339 C 0.22426 2e-05 0.87849 0.0
Co340 Co 0.08775 0.21501 0.88415 0.0
Co341 Co 0.03927 0.29532 0.88919 0.0
C342 C 0.07987 0.26298 0.94585 0.0
O343 O 0.0929 0.23285 0.92991 0.0
O344 O 0.05866 0.29038 0.9329 0.0
C345 C 0.15752 0.16094 0.88242 0.0
O346 O 0.17935 0.19153 0.89213 0.0
C347 C 0.01293 0.38107 0.89536 0.0
C348 C 0.97143 0.38403 0.85453 0.0
C349 C 0.98863 0.40721 0.87816 0.0
N350 N 0.01045 0.34423 0.88208 0.0
N351 N 0.98493 0.34618 0.85816 0.0
C352 C 0.04106 0.39178 0.92171 0.0
H353 H 0.06417 0.36805 0.92495 0.0
H354 H 0.05584 0.42111 0.91685 0.0
H355 H 0.02367 0.3948 0.94399 0.0
C356 C 0.1254 0.26033 0.82988 0.0
N357 N 0.1007 0.25708 0.85514 0.0
N358 N 0.08324 0.292 0.86014 0.0
C359 C 0.09869 0.31945 0.84012 0.0
C360 C 0.12521 0.30035 0.81921 0.0
C361 C 0.14556 0.22487 0.8148 0.0
H362 H 0.12969 0.19663 0.82111 0.0
H363 H 0.177 0.22284 0.82345 0.0
H364 H 0.14587 0.22799 0.78866 0.0
O365 O 0.0329 0.19629 0.8766 0.0
O366 O -0.0021 0.25258 0.88151 0.0
H367 H 0.06344 0.37256 0.83201 0.0
H368 H 0.11714 0.38163 0.83425 0.0
C369 C 0.09182 0.3638 0.84399 0.0
H370 H 0.08916 0.37112 0.86944 0.0
H371 H 0.97809 0.32191 0.84339 0.0
O372 O 0.12024 0.16588 0.87745 0.0
C373 C -0.00047 0.21477 0.87667 0.0
Co374 Co 0.77847 0.09022 0.88975 0.0
Co375 Co 0.6969 0.04401 0.89129 0.0
C376 C 0.72682 0.0849 0.94908 0.0
O377 O 0.75851 0.09582 0.93436 0.0
O378 O 0.69904 0.06542 0.93501 0.0
C379 C 0.85631 0.11682 0.86949 0.0
O380 O 0.85691 0.08182 0.85495 0.0
C381 C 0.61109 0.02261 0.89384 0.0
C382 C 0.61062 0.96904 0.86263 0.0
C383 C 0.58606 0.99399 0.88037 0.0
N384 N 0.64883 0.01492 0.88436 0.0
N385 N 0.64842 0.98249 0.86618 0.0
C386 C 0.59914 0.0587 0.91287 0.0
H387 H 0.62302 0.08201 0.91205 0.0
H388 H 0.57039 0.07137 0.90395 0.0
H389 H 0.59463 0.04944 0.93786 0.0
C390 C 0.73596 0.13326 0.83685 0.0
N391 N 0.73771 0.105 0.85984 0.0
N392 N 0.70346 0.08522 0.86045 0.0
C393 C 0.67903 0.09989 0.83769 0.0
C394 C 0.69856 0.13116 0.82208 0.0
C395 C 0.76891 0.16272 0.83024 0.0
H396 H 0.79471 0.14652 0.81948 0.0
H397 H 0.77936 0.17631 0.85278 0.0
H398 H 0.75888 0.18702 0.81402 0.0
O399 O 0.79732 0.03298 0.88375 0.0
O400 O 0.7384 0.00264 0.88733 0.0
H401 H 0.64097 0.04922 0.82844 0.0
H402 H 0.62743 0.0935 0.80656 0.0
C403 C 0.63877 0.08247 0.82967 0.0
H404 H 0.61695 0.09058 0.84845 0.0
H405 H 0.67383 0.97035 0.85526 0.0
O406 O 0.82544 0.12675 0.88541 0.0
C407 C 0.77627 0.0009 0.88434 0.0
Co408 Co 0.40945 0.71655 0.63921 0.0
Co409 Co 0.45007 0.80088 0.63719 0.0
C410 C 0.41114 0.76837 0.5796 0.0
O411 O 0.4021 0.73612 0.5945 0.0
O412 O 0.42908 0.79741 0.59347 0.0
C413 C 0.34354 0.66059 0.63483 0.0
O414 O 0.32448 0.69046 0.62096 0.0
C415 C 0.46869 0.88792 0.63477 0.0
C416 C 0.51824 0.89025 0.66971 0.0
C417 C 0.49487 0.91397 0.65006 0.0
N418 N 0.47622 0.85042 0.64516 0.0
N419 N 0.50628 0.85199 0.66559 0.0
C420 C 0.43483 0.8987 0.61306 0.0
H421 H 0.41205 0.87428 0.61258 0.0
H422 H 0.42063 0.92743 0.62059 0.0
H423 H 0.44683 0.90283 0.58878 0.0
C424 C 0.36592 0.75545 0.69352 0.0
N425 N 0.39265 0.75591 0.66944 0.0
N426 N 0.40904 0.79192 0.66778 0.0
C427 C 0.3927 0.81571 0.69028 0.0
C428 C 0.36476 0.79349 0.70727 0.0
C429 C 0.34164 0.71949 0.70289 0.0
H430 H 0.31721 0.71506 0.68536 0.0
H431 H 0.32794 0.72348 0.72662 0.0
H432 H 0.36089 0.69217 0.70279 0.0
O433 O 0.46672 0.70153 0.64515 0.0
O434 O 0.49425 0.76183 0.64113 0.0
H435 H 0.43756 0.85936 0.70193 0.0
H436 H 0.38828 0.87185 0.71652 0.0
C437 C 0.40501 0.85838 0.69643 0.0
H438 H 0.3996 0.87664 0.67489 0.0
H439 H 0.51774 0.82699 0.67758 0.0
O440 O 0.37923 0.66592 0.64459 0.0
C441 C 0.49764 0.72399 0.64437 0.0
Co442 Co 0.2795 0.41471 0.64011 0.0
Co443 Co 0.19515 0.45372 0.63299 0.0
C444 C 0.2298 0.4131 0.57827 0.0
O445 O 0.26137 0.40522 0.59456 0.0
O446 O 0.19995 0.43142 0.59049 0.0
C447 C 0.33444 0.34728 0.64501 0.0
O448 O 0.30313 0.32493 0.63789 0.0
C449 C 0.10872 0.47657 0.62844 0.0
C450 C 0.10612 0.51849 0.66916 0.0
C451 C 0.08278 0.50044 0.64608 0.0
N452 N 0.14575 0.48017 0.64092 0.0
N453 N 0.14401 0.50585 0.66479 0.0
C454 C 0.09789 0.44797 0.60241 0.0
H455 H 0.12212 0.42554 0.59861 0.0
H456 H 0.0693 0.43229 0.60801 0.0
H457 H 0.09345 0.46524 0.58019 0.0
C458 C 0.23771 0.3772 0.6967 0.0
N459 N 0.23904 0.39999 0.67017 0.0
N460 N 0.2027 0.41306 0.66394 0.0
C461 C 0.17654 0.39655 0.68438 0.0
C462 C 0.19767 0.37409 0.70692 0.0
C463 C 0.27453 0.3618 0.71306 0.0
H464 H 0.30127 0.37947 0.70584 0.0
H465 H 0.27943 0.32981 0.70644 0.0
H466 H 0.27103 0.36378 0.73914 0.0
O467 O 0.29402 0.47185 0.6447 0.0
O468 O 0.23404 0.49857 0.63691 0.0
H469 H 0.11969 0.42601 0.69043 0.0
H470 H 0.11682 0.37147 0.6896 0.0
C471 C 0.13197 0.39825 0.67942 0.0
H472 H 0.1253 0.39911 0.65376 0.0
H473 H 0.16857 0.5135 0.67895 0.0
O474 O 0.3302 0.38515 0.64745 0.0
C475 C 0.27149 0.50251 0.64176 0.0
Co476 Co 0.58191 0.28454 0.6453 0.0
Co477 Co 0.54081 0.20039 0.64343 0.0
C478 C 0.58045 0.23285 0.58579 0.0
O479 O 0.5898 0.26509 0.60062 0.0
O480 O 0.56203 0.20418 0.5997 0.0
C481 C 0.64765 0.34072 0.64193 0.0
O482 O 0.66732 0.31045 0.62916 0.0
C483 C 0.52223 0.11358 0.63907 0.0
C484 C 0.4737 0.10944 0.67473 0.0
C485 C 0.49638 0.08679 0.65383 0.0
N486 N 0.51513 0.15049 0.65087 0.0
N487 N 0.4857 0.14787 0.67178 0.0
C488 C 0.55545 0.10398 0.61644 0.0
H489 H 0.57908 0.12753 0.61746 0.0
H490 H 0.56872 0.07406 0.62183 0.0
H491 H 0.54306 0.10307 0.59205 0.0
C492 C 0.62531 0.2453 0.69985 0.0
N493 N 0.59875 0.24506 0.67559 0.0
N494 N 0.5815 0.2094 0.67429 0.0
C495 C 0.59666 0.1859 0.69745 0.0
C496 C 0.62494 0.20773 0.71434 0.0
C497 C 0.64939 0.28117 0.70977 0.0
H498 H 0.63042 0.30865 0.70888 0.0
H499 H 0.67476 0.28517 0.69304 0.0
H500 H 0.66174 0.27723 0.73399 0.0
O501 O 0.52435 0.29923 0.65097 0.0
O502 O 0.49646 0.239 0.64773 0.0
H503 H 0.5522 0.14286 0.7111 0.0
H504 H 0.60273 0.12905 0.7223 0.0
C505 C 0.58412 0.14332 0.70359 0.0
H506 H 0.58694 0.12553 0.6815 0.0
H507 H 0.47462 0.17224 0.68475 0.0
O508 O 0.61161 0.33559 0.65085 0.0
C509 C 0.4933 0.27689 0.6507 0.0
Co510 Co 0.71289 0.58755 0.6419 0.0
Co511 Co 0.79667 0.54623 0.6395 0.0
C512 C 0.76407 0.58618 0.58217 0.0
O513 O 0.73192 0.59559 0.59701 0.0
O514 O 0.79266 0.56765 0.59603 0.0
C515 C 0.65619 0.65311 0.63867 0.0
O516 O 0.68583 0.67296 0.62531 0.0
C517 C 0.88332 0.52874 0.63489 0.0
C518 C 0.88776 0.47749 0.6682 0.0
C519 C 0.91026 0.50199 0.64853 0.0
N520 N 0.84654 0.5204 0.64618 0.0
N521 N 0.84933 0.4894 0.66568 0.0
C522 C 0.89255 0.56371 0.61378 0.0
H523 H 0.86828 0.58661 0.61514 0.0
H524 H 0.92174 0.57754 0.62041 0.0
H525 H 0.89475 0.55289 0.58898 0.0
C526 C 0.75258 0.63093 0.69624 0.0
N527 N 0.7525 0.60409 0.67214 0.0
N528 N 0.78825 0.58719 0.67035 0.0
C529 C 0.81232 0.60327 0.69274 0.0
C530 C 0.79064 0.63161 0.70982 0.0
C531 C 0.71707 0.65572 0.70586 0.0
H532 H 0.71295 0.68049 0.68854 0.0
H533 H 0.72136 0.66907 0.72971 0.0
H534 H 0.68956 0.63686 0.70565 0.0
O535 O 0.69812 0.53004 0.64748 0.0
O536 O 0.75803 0.50176 0.64371 0.0
H537 H 0.85582 0.55781 0.70346 0.0
H538 H 0.86839 0.60684 0.7189 0.0
C539 C 0.85488 0.5906 0.69857 0.0
H540 H 0.87302 0.59656 0.67708 0.0
H541 H 0.82507 0.47708 0.67797 0.0
O542 O 0.66196 0.61717 0.64785 0.0
C543 C 0.72025 0.49879 0.64685 0.0
C544 C 0.10042 0.23121 0.9976 0.0
C545 C 0.08627 0.26485 0.98066 0.0
H546 H 0.10986 0.20425 0.04312 0.0
C547 C 0.07471 0.29944 0.99766 0.0
H548 H 0.10971 0.20412 0.98529 0.0
C549 C 0.07487 0.29957 0.03073 0.0
C550 C 0.0865 0.26506 0.04776 0.0
H551 H 0.06408 0.32611 0.98544 0.0
H552 H 0.06428 0.32629 0.0429 0.0
C553 C 0.10048 0.2313 0.03081 0.0
C554 C 0.75716 0.10621 1.00103 0.0
C555 C 0.72422 0.0909 0.98392 0.0
H556 H 0.78387 0.11602 0.04652 0.0
C557 C 0.69032 0.07755 1.00081 0.0
H558 H 0.78372 0.11696 0.98886 0.0
C559 C 0.6904 0.07706 0.03392 0.0
C560 C 0.7244 0.08983 0.05103 0.0
H561 H 0.66425 0.06587 0.98848 0.0
H562 H 0.66437 0.06499 0.04605 0.0
C563 C 0.75726 0.10567 0.03418 0.0
C564 C 0.89167 0.76308 0.99683 0.0
C565 C 0.90488 0.72923 0.97964 0.0
H566 H 0.88296 0.7899 0.04247 0.0
C567 C 0.91534 0.69413 0.99642 0.0
H568 H 0.88317 0.79057 0.98473 0.0
C569 C 0.91522 0.69374 0.02953 0.0
C570 C 0.90463 0.72844 0.04677 0.0
H571 H 0.92529 0.66732 0.98404 0.0
H572 H 0.92511 0.66666 0.04156 0.0
C573 C 0.89154 0.76269 0.03002 0.0
C574 C 0.23356 0.89205 0.9957 0.0
C575 C 0.26745 0.90558 0.97885 0.0
H576 H 0.20621 0.883 0.04105 0.0
C577 C 0.30206 0.91645 0.99599 0.0
H578 H 0.20644 0.88322 0.98332 0.0
C579 C 0.30193 0.91632 0.0291 0.0
C580 C 0.26719 0.90531 0.04598 0.0
H581 H 0.32888 0.92668 0.98388 0.0
H582 H 0.32864 0.92647 0.04142 0.0
C583 C 0.23344 0.8919 0.02888 0.0
C584 C 0.60241 0.26321 0.50078 0.0
C585 C 0.58846 0.22944 0.48387 0.0
H586 H 0.61119 0.29076 0.54614 0.0
C587 C 0.57635 0.19518 0.50101 0.0
H588 H 0.61215 0.29008 0.48842 0.0
C589 C 0.57577 0.19558 0.53413 0.0
C590 C 0.5873 0.23024 0.55103 0.0
H591 H 0.56572 0.16847 0.48887 0.0
H592 H 0.56473 0.16916 0.54641 0.0
C593 C 0.60184 0.2636 0.53396 0.0
C594 C 0.80234 0.58151 0.49771 0.0
C595 C 0.76793 0.59227 0.48027 0.0
H596 H 0.82832 0.57167 0.54336 0.0
C597 C 0.73381 0.60593 0.49682 0.0
H598 H 0.82932 0.57119 0.48584 0.0
C599 C 0.73322 0.60619 0.53 0.0
C600 C 0.76675 0.59279 0.5474 0.0
H601 H 0.70682 0.61466 0.4842 0.0
H602 H 0.70581 0.6151 0.54194 0.0
C603 C 0.80176 0.58177 0.53081 0.0
C604 C 0.391 0.73661 0.52784 0.0
C605 C 0.40493 0.77039 0.54476 0.0
H606 H 0.38232 0.70905 0.48248 0.0
C607 C 0.41682 0.80475 0.52767 0.0
H608 H 0.38139 0.70968 0.54018 0.0
C609 C 0.41735 0.80438 0.49456 0.0
C610 C 0.40601 0.76964 0.47765 0.0
H611 H 0.42739 0.83146 0.53983 0.0
H612 H 0.4283 0.83084 0.48229 0.0
C613 C 0.39154 0.73624 0.49468 0.0
C614 C 0.26421 0.39451 0.52714 0.0
C615 C 0.22906 0.40521 0.54364 0.0
H616 H 0.29283 0.388 0.48196 0.0
C617 C 0.19381 0.41288 0.52619 0.0
H618 H 0.29184 0.38826 0.53979 0.0
C619 C 0.19438 0.41284 0.49314 0.0
C620 C 0.23019 0.40503 0.47658 0.0
H621 H 0.16601 0.42075 0.53804 0.0
H622 H 0.16705 0.42066 0.48061 0.0
C623 C 0.26476 0.39439 0.49394 0.0
C624 C 0.22532 0.07359 0.13871 0.0
C625 C 0.20205 0.03943 0.14604 0.0
H626 H 0.22625 0.13725 0.13065 0.0
C627 C 0.16094 0.04442 0.15249 0.0
H628 H 0.25711 0.07086 0.1336 0.0
C629 C 0.14335 0.08264 0.15101 0.0
C630 C 0.16642 0.11655 0.14271 0.0
H631 H 0.14223 0.01878 0.1583 0.0
H632 H 0.11146 0.08542 0.15569 0.0
C633 C 0.20764 0.11169 0.13689 0.0
C634 C 0.88067 0.20902 0.1397 0.0
C635 C 0.87543 0.16769 0.14528 0.0
H636 H 0.92189 0.25815 0.13658 0.0
C637 C 0.90906 0.14409 0.15338 0.0
H638 H 0.85534 0.22803 0.13362 0.0
C639 C 0.94736 0.16125 0.15488 0.0
C640 C 0.95274 0.20246 0.14864 0.0
H641 H 0.90599 0.1121 0.15787 0.0
H642 H 0.97278 0.14212 0.1605 0.0
C643 C 0.91886 0.22626 0.14153 0.0
C644 C 0.76677 0.91989 0.14204 0.0
C645 C 0.79028 0.95396 0.14918 0.0
H646 H 0.76559 0.85635 0.13332 0.0
C647 C 0.83164 0.9489 0.15459 0.0
H648 H 0.73479 0.92267 0.13772 0.0
C649 C 0.84921 0.91074 0.15225 0.0
C650 C 0.82587 0.87693 0.14414 0.0
H651 H 0.85057 0.97447 0.1602 0.0
H652 H 0.88128 0.90794 0.15613 0.0
C653 C 0.78442 0.88183 0.13939 0.0
C654 C 0.08403 0.84935 0.15019 0.0
C655 C 0.11745 0.82564 0.14175 0.0
H656 H 0.02045 0.85151 0.158 0.0
C657 C 0.11197 0.78431 0.13625 0.0
H658 H 0.08727 0.88133 0.15464 0.0
C659 C 0.07376 0.76718 0.13849 0.0
C660 C 0.04008 0.79108 0.14596 0.0
H661 H 0.13714 0.76521 0.12991 0.0
H662 H 0.07056 0.73529 0.13361 0.0
C663 C 0.0457 0.83229 0.15211 0.0
C664 C 0.66416 0.44999 0.37619 0.0
C665 C 0.70533 0.45545 0.38217 0.0
H666 H 0.61496 0.40862 0.37418 0.0
C667 C 0.72899 0.42164 0.38988 0.0
H668 H 0.64512 0.47533 0.37013 0.0
C669 C 0.71165 0.38347 0.39251 0.0
C670 C 0.67036 0.37817 0.38718 0.0
H671 H 0.76083 0.42472 0.39465 0.0
H672 H 0.73057 0.3582 0.39901 0.0
C673 C 0.6469 0.41171 0.37852 0.0
C674 C 0.54732 0.66305 0.37332 0.0
C675 C 0.54192 0.7044 0.37903 0.0
H676 H 0.58867 0.6137 0.37123 0.0
C677 C 0.57575 0.72821 0.38616 0.0
H678 H 0.52195 0.64389 0.3677 0.0
C679 C 0.61389 0.71087 0.3885 0.0
C680 C 0.61916 0.66941 0.38343 0.0
H681 H 0.57272 0.7602 0.3907 0.0
H682 H 0.63917 0.72992 0.39457 0.0
C683 C 0.58558 0.64578 0.37534 0.0
C684 C 0.33426 0.54693 0.3717 0.0
C685 C 0.29313 0.5416 0.37786 0.0
H686 H 0.38351 0.58819 0.36931 0.0
C687 C 0.26957 0.57551 0.38548 0.0
H688 H 0.35322 0.52149 0.3657 0.0
C689 C 0.28698 0.61366 0.38785 0.0
C690 C 0.32824 0.61883 0.38235 0.0
H691 H 0.23775 0.57251 0.39037 0.0
H692 H 0.26815 0.63902 0.39429 0.0
C693 C 0.35159 0.58519 0.37377 0.0
C694 C 0.41307 0.35142 0.37486 0.0
C695 C 0.37921 0.32801 0.38258 0.0
H696 H 0.47699 0.35316 0.36895 0.0
C697 C 0.3843 0.28679 0.38876 0.0
H698 H 0.41011 0.38332 0.36995 0.0
C699 C 0.42253 0.26947 0.38789 0.0
C700 C 0.45661 0.29309 0.38116 0.0
H701 H 0.3588 0.26793 0.39459 0.0
H702 H 0.4254 0.23768 0.39325 0.0
C703 C 0.45142 0.33418 0.37432 0.0
C704 C 0.78893 0.88775 0.89084 0.0
C705 C 0.8303 0.88265 0.886 0.0
H706 H 0.73962 0.92857 0.89368 0.0
C707 C 0.85398 0.91676 0.8792 0.0
H708 H 0.7698 0.86215 0.89592 0.0
C709 C 0.83668 0.95533 0.87818 0.0
C710 C 0.7953 0.96039 0.88353 0.0
H711 H 0.88603 0.91378 0.87536 0.0
H712 H 0.85573 0.9811 0.87352 0.0
C713 C 0.77164 0.926 0.88945 0.0
C714 C 0.11326 0.78508 0.88848 0.0
C715 C 0.11814 0.82657 0.8832 0.0
H716 H 0.07242 0.73548 0.89131 0.0
C717 C 0.08427 0.84989 0.8753 0.0
H718 H 0.13878 0.76625 0.89441 0.0
C719 C 0.04615 0.83234 0.87369 0.0
C720 C 0.0411 0.79099 0.87965 0.0
H721 H 0.08701 0.88195 0.87101 0.0
H722 H 0.02058 0.85133 0.8682 0.0
C723 C 0.07519 0.76744 0.88657 0.0
C724 C 0.23259 0.07499 0.88196 0.0
C725 C 0.2075 0.04138 0.87702 0.0
H726 H 0.23658 0.13902 0.88761 0.0
C727 C 0.16622 0.04776 0.87222 0.0
H728 H 0.26459 0.07124 0.88569 0.0
C729 C 0.15026 0.08672 0.87315 0.0
C730 C 0.17516 0.12017 0.87914 0.0
H731 H 0.14608 0.02263 0.86825 0.0
H732 H 0.11818 0.09045 0.86988 0.0
C733 C 0.21657 0.11392 0.88312 0.0
C734 C 0.89004 0.18315 0.88002 0.0
C735 C 0.89217 0.14315 0.86909 0.0
H736 H 0.92223 0.23748 0.89057 0.0
C737 C 0.92936 0.1279 0.85891 0.0
H738 H 0.86172 0.19584 0.88784 0.0
C739 C 0.96397 0.15155 0.86074 0.0
C740 C 0.96212 0.19121 0.87242 0.0
H741 H 0.93203 0.09724 0.85033 0.0
H742 H 0.99232 0.13849 0.85337 0.0
C743 C 0.92465 0.20705 0.88147 0.0
C744 C 0.28365 0.61519 0.63084 0.0
C745 C 0.32439 0.62067 0.63834 0.0
H746 H 0.23484 0.57368 0.62642 0.0
C747 C 0.34711 0.58732 0.64851 0.0
H748 H 0.2653 0.64031 0.62312 0.0
C749 C 0.32977 0.54908 0.65024 0.0
C750 C 0.28922 0.5434 0.64211 0.0
H751 H 0.37859 0.59054 0.65454 0.0
H752 H 0.34831 0.5239 0.65757 0.0
C753 C 0.26619 0.57699 0.63285 0.0
C754 C 0.37992 0.28718 0.64722 0.0
C755 C 0.3748 0.32911 0.64874 0.0
H756 H 0.42116 0.23783 0.647 0.0
C757 C 0.40887 0.35372 0.65281 0.0
H758 H 0.35432 0.26737 0.64429 0.0
C759 C 0.44734 0.33682 0.65426 0.0
C760 C 0.45256 0.29493 0.65184 0.0
H761 H 0.40597 0.38619 0.65418 0.0
H762 H 0.47299 0.35667 0.65668 0.0
C763 C 0.41833 0.27027 0.64883 0.0
C764 C 0.7079 0.38569 0.6395 0.0
C765 C 0.66661 0.38082 0.64502 0.0
H766 H 0.75728 0.42657 0.63618 0.0
C767 C 0.64331 0.41486 0.6527 0.0
H768 H 0.7267 0.36005 0.63372 0.0
C769 C 0.66075 0.45315 0.6539 0.0
C770 C 0.70194 0.45814 0.64778 0.0
H771 H 0.61136 0.4121 0.65712 0.0
H772 H 0.64185 0.47887 0.65925 0.0
C773 C 0.72542 0.42387 0.64103 0.0
C774 C 0.54403 0.66491 0.65137 0.0
C775 C 0.53842 0.7061 0.64516 0.0
H776 H 0.58571 0.61592 0.65448 0.0
C777 C 0.5722 0.73003 0.63815 0.0
H778 H 0.5187 0.64568 0.65692 0.0
C779 C 0.6105 0.71294 0.63644 0.0
C780 C 0.61599 0.67163 0.64203 0.0
H781 H 0.56903 0.76192 0.63324 0.0
H782 H 0.63575 0.73207 0.63044 0.0
C783 C 0.58245 0.64789 0.64999 0.0
C784 C 0.20029 0.35393 0.25682 0.0
C785 C 0.18965 0.34366 0.2879 0.0
H786 H 0.18841 0.345 0.2073 0.0
C787 C 0.16096 0.31333 0.29298 0.0
H788 H 0.22199 0.37761 0.25245 0.0
C789 C 0.1422 0.29441 0.26727 0.0
C790 C 0.1515 0.30599 0.2362 0.0
H791 H 0.15207 0.30534 0.31683 0.0
H792 H 0.11907 0.27214 0.27166 0.0
C793 C 0.18114 0.3354 0.23112 0.0
C794 C 0.65858 0.18089 0.23675 0.0
C795 C 0.68821 0.15119 0.2409 0.0
H796 H 0.61724 0.22154 0.2594 0.0
C797 C 0.70104 0.14152 0.27161 0.0
H798 H 0.64804 0.18847 0.21322 0.0
C799 C 0.68317 0.16001 0.2979 0.0
C800 C 0.65267 0.18882 0.29378 0.0
H801 H 0.72353 0.11835 0.27529 0.0
H802 H 0.69213 0.15083 0.32148 0.0
C803 C 0.64109 0.19978 0.26303 0.0
C804 C 0.79596 0.64105 0.25924 0.0
C805 C 0.80816 0.65133 0.29 0.0
H806 H 0.80565 0.64955 0.20938 0.0
C807 C 0.83762 0.68116 0.29415 0.0
H808 H 0.77362 0.61778 0.25555 0.0
C809 C 0.8555 0.69963 0.26788 0.0
C810 C 0.84451 0.68811 0.23711 0.0
H811 H 0.8477 0.6892 0.31771 0.0
H812 H 0.87914 0.72157 0.27155 0.0
C813 C 0.81422 0.65912 0.23296 0.0
C814 C 0.31473 0.83632 0.29272 0.0
C815 C 0.34459 0.80693 0.28821 0.0
H816 H 0.27382 0.87786 0.27058 0.0
C817 C 0.35429 0.79472 0.25735 0.0
H818 H 0.30714 0.8464 0.31637 0.0
C819 C 0.33567 0.81298 0.23129 0.0
C820 C 0.3067 0.84325 0.23578 0.0
H821 H 0.37758 0.77244 0.2534 0.0
H822 H 0.34487 0.8045 0.2076 0.0
C823 C 0.29571 0.85419 0.26666 0.0
C824 C 0.85332 0.70329 0.759 0.0
C825 C 0.84222 0.69225 0.78983 0.0
H826 H 0.84539 0.69235 0.70923 0.0
C827 C 0.81146 0.66382 0.79414 0.0
H828 H 0.87737 0.72474 0.75521 0.0
C829 C 0.79287 0.64575 0.76795 0.0
C830 C 0.80524 0.65545 0.73714 0.0
H831 H 0.80286 0.65454 0.81777 0.0
H832 H 0.77024 0.62282 0.77178 0.0
C833 C 0.83514 0.6848 0.73283 0.0
C834 C 0.31276 0.83851 0.73127 0.0
C835 C 0.34108 0.80742 0.73484 0.0
H836 H 0.27387 0.88079 0.75471 0.0
C837 C 0.34973 0.79283 0.76526 0.0
H838 H 0.30595 0.85037 0.70799 0.0
C839 C 0.33175 0.81043 0.79187 0.0
C840 C 0.30449 0.84245 0.78835 0.0
H841 H 0.37183 0.76919 0.76852 0.0
H842 H 0.34024 0.8001 0.81527 0.0
C843 C 0.29442 0.85577 0.75786 0.0
C844 C 0.12685 0.35132 0.7752 0.0
C845 C 0.14496 0.31846 0.79057 0.0
H846 H 0.13165 0.39762 0.741 0.0
C847 C 0.18147 0.30378 0.77811 0.0
H848 H 0.09792 0.36274 0.78252 0.0
C849 C 0.19842 0.32089 0.75069 0.0
C850 C 0.1807 0.35479 0.73618 0.0
H851 H 0.19716 0.27912 0.78935 0.0
H852 H 0.22517 0.30723 0.74096 0.0
C853 C 0.14548 0.37043 0.74983 0.0
C854 C 0.68589 0.17916 0.74099 0.0
C855 C 0.64654 0.19421 0.74305 0.0
H856 H 0.7334 0.14708 0.76463 0.0
C857 C 0.6259 0.19161 0.77189 0.0
H858 H 0.70208 0.18048 0.71877 0.0
C859 C 0.64378 0.17296 0.79804 0.0
C860 C 0.68239 0.15599 0.79568 0.0
H861 H 0.59539 0.20278 0.77385 0.0
H862 H 0.62683 0.1705 0.81984 0.0
C863 C 0.70373 0.16015 0.76715 0.0
C864 C 0.99578 0.51757 0.11992 0.0
C865 C 0.99614 0.53908 0.14854 0.0
H866 H 0.99627 0.45914 0.098 0.0
C867 C 0.99688 0.51815 0.17734 0.0
H868 H 0.99555 0.53331 0.09747 0.0
C869 C 0.99673 0.47626 0.17765 0.0
C870 C 0.99686 0.45462 0.14915 0.0
H871 H -0.00295 0.53422 0.19968 0.0
H872 H -0.00294 0.46074 0.20021 0.0
C873 C 0.99654 0.47542 0.12022 0.0
C874 C 0.47426 0.99763 0.17912 0.0
C875 C 0.45396 0.99713 0.15004 0.0
H876 H 0.53107 0.99766 0.20273 0.0
C877 C 0.47596 0.99692 0.12171 0.0
H878 H 0.45777 0.99766 0.20124 0.0
C879 C 0.51797 0.99766 0.12256 0.0
C880 C 0.53814 0.99782 0.15175 0.0
H881 H 0.46071 0.99685 0.09905 0.0
H882 H 0.53465 0.99755 0.10055 0.0
C883 C 0.51603 0.99746 0.17997 0.0
C884 C 0.49909 0.019 0.40744 0.0
C885 C 0.49915 0.04108 0.37912 0.0
H886 H 0.49817 0.96013 0.42855 0.0
C887 C 0.49885 0.02077 0.35003 0.0
H888 H 0.499 0.03426 0.43011 0.0
C889 C 0.49891 0.9789 0.34914 0.0
C890 C 0.49827 0.95669 0.37734 0.0
H891 H 0.49903 0.03732 0.32791 0.0
H892 H 0.49885 0.96385 0.32637 0.0
C893 C 0.49826 0.97687 0.40655 0.0
C894 C 0.97885 0.49951 0.4067 0.0
C895 C 0.95704 0.49932 0.37825 0.0
H896 H 0.03742 0.4985 0.42818 0.0
C897 C 0.97758 0.49849 0.34929 0.0
H898 H 0.96342 0.49981 0.42927 0.0
C899 C 0.01936 0.49832 0.34867 0.0
C900 C 0.0413 0.49794 0.377 0.0
H901 H 0.96127 0.49844 0.32707 0.0
H902 H 0.03456 0.49791 0.32598 0.0
C903 C 0.0209 0.4984 0.40608 0.0
C904 C 0.99102 0.51492 0.85044 0.0
C905 C 0.98754 0.53646 0.87887 0.0
H906 H 0.99358 0.45724 0.82814 0.0
C907 C 0.9837 0.5153 0.90751 0.0
H908 H 0.99392 0.53056 0.82804 0.0
C909 C 0.98408 0.47304 0.90762 0.0
C910 C 0.98767 0.45164 0.87905 0.0
H911 H 0.98141 0.53134 0.92976 0.0
H912 H 0.98134 0.45717 0.92991 0.0
C913 C 0.99064 0.473 0.85049 0.0
C914 C 0.51957 0.99592 0.90795 0.0
C915 C 0.54197 0.99325 0.87988 0.0
H916 H 0.46059 0.99686 0.92863 0.0
C917 C 0.52207 0.98951 0.85078 0.0
H918 H 0.53451 -0.00152 0.93064 0.0
C919 C 0.48029 0.98923 0.8496 0.0
C920 C 0.45779 0.9916 0.87758 0.0
H921 H 0.53886 0.98752 0.82885 0.0
H922 H 0.46553 0.98678 0.8268 0.0
C923 C 0.47757 0.99467 0.90683 0.0
C924 C 0.49546 0.97846 0.67934 0.0
C925 C 0.49462 0.95818 0.65023 0.0
H926 H 0.49615 0.03535 0.70305 0.0
C927 C 0.49448 0.98034 0.62194 0.0
H928 H 0.49548 0.96189 0.70144 0.0
C929 C 0.49563 0.02247 0.62287 0.0
C930 C 0.49614 0.04262 0.65209 0.0
H931 H 0.49419 0.96512 0.59926 0.0
H932 H 0.49555 0.03924 0.60088 0.0
C933 C 0.49571 0.02035 0.68026 0.0
C934 C 0.97626 0.49771 0.67516 0.0
C935 C 0.95436 0.50218 0.64704 0.0
H936 H 0.0342 0.49409 0.69668 0.0
C937 C 0.97484 0.50592 0.61813 0.0
H938 H 0.96107 0.49484 0.69774 0.0
C939 C 0.01688 0.50498 0.61747 0.0
C940 C 0.03865 0.50087 0.64576 0.0
H941 H 0.95841 0.50889 0.59612 0.0
H942 H 0.03231 0.50801 0.59503 0.0
C943 C 0.01801 0.49748 0.67457 0.0
loop_
_geom_bond_atom_site_label_1
_geom_bond_atom_site_label_2
_geom_bond_distance
_geom_bond_site_symmetry_2
_ccdc_geom_bond_type
Co0 O3 1.970 . S
Co0 N17 1.989 . S
Co0 O25 1.967 . S
Co0 O32 1.920 . S
Co1 O4 1.966 . S
Co1 N10 2.022 . S
Co1 N18 1.993 . S
Co1 O26 1.960 . S
C2 O3 1.258 . S
C2 O4 1.263 . S
O3 Co0 1.970 . S
O3 C2 1.258 . S
O4 Co1 1.966 . S
O4 C2 1.263 . S
C5 O6 1.235 . S
C5 O32 1.289 . S
O6 C5 1.235 . S
C7 C9 1.400 . S
C7 N10 1.351 . S
C7 C12 1.501 . S
C8 C9 1.382 1_655 S
C8 N11 1.340 1_655 S
C9 C7 1.400 . S
C9 C8 1.382 1_455 S
N10 Co1 2.022 . S
N10 C7 1.351 . S
N10 N11 1.365 . S
N11 C8 1.340 1_455 S
N11 N10 1.365 . S
N11 H31 0.862 1_455 S
C12 C7 1.501 . S
C12 H13 0.961 . S
C12 H14 0.961 . S
C12 H15 0.960 . S
H13 C12 0.961 . S
H14 C12 0.961 . S
H15 C12 0.960 . S
C16 N17 1.342 . S
C16 C20 1.401 . S
C16 C21 1.499 . S
N17 Co0 1.989 . S
N17 C16 1.342 . S
N17 N18 1.388 . S
N18 Co1 1.993 . S
N18 N17 1.388 . S
N18 C19 1.346 . S
C19 N18 1.346 . S
C19 C20 1.396 . S
C19 C29 1.510 . S
C20 C16 1.401 . S
C20 C19 1.396 . S
C21 C16 1.499 . S
C21 H22 0.959 . S
C21 H23 0.960 . S
C21 H24 0.961 . S
H22 C21 0.959 . S
H23 C21 0.960 . S
H24 C21 0.961 . S
O25 Co0 1.967 . S
O25 C33 1.258 . S
O26 Co1 1.960 . S
O26 C33 1.269 . S
H27 C29 0.959 . S
H28 C29 0.961 . S
C29 C19 1.510 . S
C29 H27 0.959 . S
C29 H28 0.961 . S
C29 H30 0.960 . S
H30 C29 0.960 . S
H31 N11 0.862 1_655 S
O32 Co0 1.920 . S
O32 C5 1.289 . S
C33 O25 1.258 . S
C33 O26 1.269 . S
Co34 O37 1.970 . S
Co34 N51 1.989 . S
Co34 O59 1.967 . S
Co34 O66 1.920 . S
Co35 O38 1.966 . S
Co35 N44 2.022 . S
Co35 N52 1.993 . S
Co35 O60 1.960 . S
C36 O37 1.258 . S
C36 O38 1.263 . S
O37 Co34 1.970 . S
O37 C36 1.258 . S
O38 Co35 1.966 . S
O38 C36 1.263 . S
C39 O40 1.235 . S
C39 O66 1.289 . S
O40 C39 1.235 . S
C41 C43 1.400 . S
C41 N44 1.351 . S
C41 C46 1.501 . S
C42 C43 1.382 1_565 S
C42 N45 1.340 1_565 S
C43 C41 1.400 . S
C43 C42 1.382 1_545 S
N44 Co35 2.022 . S
N44 C41 1.351 . S
N44 N45 1.365 . S
N45 C42 1.340 1_545 S
N45 N44 1.365 . S
N45 H65 0.862 1_545 S
C46 C41 1.501 . S
C46 H47 0.961 . S
C46 H48 0.961 . S
C46 H49 0.960 . S
H47 C46 0.961 . S
H48 C46 0.961 . S
H49 C46 0.960 . S
C50 N51 1.342 . S
C50 C54 1.401 . S
C50 C55 1.499 . S
N51 Co34 1.989 . S
N51 C50 1.342 . S
N51 N52 1.388 . S
N52 Co35 1.993 . S
N52 N51 1.388 . S
N52 C53 1.346 . S
C53 N52 1.346 . S
C53 C54 1.396 . S
C53 C63 1.510 . S
C54 C50 1.401 . S
C54 C53 1.396 . S
C55 C50 1.499 . S
C55 H56 0.959 . S
C55 H57 0.960 . S
C55 H58 0.961 . S
H56 C55 0.959 . S
H57 C55 0.960 . S
H58 C55 0.961 . S
O59 Co34 1.967 . S
O59 C67 1.258 . S
O60 Co35 1.960 . S
O60 C67 1.269 . S
H61 C63 0.959 . S
H62 C63 0.961 . S
C63 C53 1.510 . S
C63 H61 0.959 . S
C63 H62 0.961 . S
C63 H64 0.960 . S
H64 C63 0.960 . S
H65 N45 0.862 1_565 S
O66 Co34 1.920 . S
O66 C39 1.289 . S
C67 O59 1.258 . S
C67 O60 1.269 . S
Co68 O71 1.970 . S
Co68 N85 1.989 . S
Co68 O93 1.967 . S
Co68 O100 1.920 . S
Co69 O72 1.966 . S
Co69 N78 2.022 . S
Co69 N86 1.993 . S
Co69 O94 1.960 . S
C70 O71 1.258 . S
C70 O72 1.263 . S
O71 Co68 1.970 . S
O71 C70 1.258 . S
O72 Co69 1.966 . S
O72 C70 1.263 . S
C73 O74 1.235 . S
C73 O100 1.289 . S
O74 C73 1.235 . S
C75 C77 1.400 . S
C75 N78 1.351 . S
C75 C80 1.501 . S
C76 C77 1.382 1_455 S
C76 N79 1.340 1_455 S
C77 C75 1.400 . S
C77 C76 1.382 1_655 S
N78 Co69 2.022 . S
N78 C75 1.351 . S
N78 N79 1.365 . S
N79 C76 1.340 1_655 S
N79 N78 1.365 . S
N79 H99 0.862 1_655 S
C80 C75 1.501 . S
C80 H81 0.961 . S
C80 H82 0.961 . S
C80 H83 0.960 . S
H81 C80 0.961 . S
H82 C80 0.961 . S
H83 C80 0.960 . S
C84 N85 1.342 . S
C84 C88 1.401 . S
C84 C89 1.499 . S
N85 Co68 1.989 . S
N85 C84 1.342 . S
N85 N86 1.388 . S
N86 Co69 1.993 . S
N86 N85 1.388 . S
N86 C87 1.346 . S
C87 N86 1.346 . S
C87 C88 1.396 . S
C87 C97 1.510 . S
C88 C84 1.401 . S
C88 C87 1.396 . S
C89 C84 1.499 . S
C89 H90 0.959 . S
C89 H91 0.960 . S
C89 H92 0.961 . S
H90 C89 0.959 . S
H91 C89 0.960 . S
H92 C89 0.961 . S
O93 Co68 1.967 . S
O93 C101 1.258 . S
O94 Co69 1.960 . S
O94 C101 1.269 . S
H95 C97 0.959 . S
H96 C97 0.961 . S
C97 C87 1.510 . S
C97 H95 0.959 . S
C97 H96 0.961 . S
C97 H98 0.960 . S
H98 C97 0.960 . S
H99 N79 0.862 1_455 S
O100 Co68 1.920 . S
O100 C73 1.289 . S
C101 O93 1.258 . S
C101 O94 1.269 . S
Co102 O105 1.970 . S
Co102 N119 1.989 . S
Co102 O127 1.967 . S
Co102 O134 1.920 . S
Co103 O106 1.966 . S
Co103 N112 2.022 . S
Co103 N120 1.993 . S
Co103 O128 1.960 . S
C104 O105 1.258 . S
C104 O106 1.263 . S
O105 Co102 1.970 . S
O105 C104 1.258 . S
O106 Co103 1.966 . S
O106 C104 1.263 . S
C107 O108 1.235 . S
C107 O134 1.289 . S
O108 C107 1.235 . S
C109 C111 1.400 . S
C109 N112 1.351 . S
C109 C114 1.501 . S
C110 C111 1.382 1_545 S
C110 N113 1.340 1_545 S
C111 C109 1.400 . S
C111 C110 1.382 1_565 S
N112 Co103 2.022 . S
N112 C109 1.351 . S
N112 N113 1.365 . S
N113 C110 1.340 1_565 S
N113 N112 1.365 . S
N113 H133 0.862 1_565 S
C114 C109 1.501 . S
C114 H115 0.961 . S
C114 H116 0.961 . S
C114 H117 0.960 . S
H115 C114 0.961 . S
H116 C114 0.961 . S
H117 C114 0.960 . S
C118 N119 1.342 . S
C118 C122 1.401 . S
C118 C123 1.499 . S
N119 Co102 1.989 . S
N119 C118 1.342 . S
N119 N120 1.388 . S
N120 Co103 1.993 . S
N120 N119 1.388 . S
N120 C121 1.346 . S
C121 N120 1.346 . S
C121 C122 1.396 . S
C121 C131 1.510 . S
C122 C118 1.401 . S
C122 C121 1.396 . S
C123 C118 1.499 . S
C123 H124 0.959 . S
C123 H125 0.960 . S
C123 H126 0.961 . S
H124 C123 0.959 . S
H125 C123 0.960 . S
H126 C123 0.961 . S
O127 Co102 1.967 . S
O127 C135 1.258 . S
O128 Co103 1.960 . S
O128 C135 1.269 . S
H129 C131 0.959 . S
H130 C131 0.961 . S
C131 C121 1.510 . S
C131 H129 0.959 . S
C131 H130 0.961 . S
C131 H132 0.960 . S
H132 C131 0.960 . S
H133 N113 0.862 1_545 S
O134 Co102 1.920 . S
O134 C107 1.289 . S
C135 O127 1.258 . S
C135 O128 1.269 . S
Co136 O139 1.970 . S
Co136 N153 1.989 . S
Co136 O161 1.967 . S
Co136 O168 1.920 . S
Co137 O140 1.966 . S
Co137 N146 2.022 . S
Co137 N154 1.993 . S
Co137 O162 1.941 . S
C138 O139 1.258 . S
C138 O140 1.263 . S
O139 Co136 1.970 . S
O139 C138 1.258 . S
O140 Co137 1.966 . S
O140 C138 1.263 . S
C141 O142 1.235 . S
C141 O168 1.289 . S
O142 C141 1.235 . S
C143 C145 1.400 . S
C143 N146 1.351 . S
C143 C148 1.501 . S
C144 C145 1.387 . S
C144 N147 1.341 . S
C145 C143 1.400 . S
C145 C144 1.387 . S
N146 Co137 2.022 . S
N146 C143 1.351 . S
N146 N147 1.365 . S
N147 C144 1.341 . S
N147 N146 1.365 . S
N147 H167 0.862 . S
C148 C143 1.501 . S
C148 H149 0.961 . S
C148 H150 0.961 . S
C148 H151 0.960 . S
H149 C148 0.961 . S
H150 C148 0.961 . S
H151 C148 0.960 . S
C152 N153 1.342 . S
C152 C156 1.401 . S
C152 C157 1.499 . S
N153 Co136 1.989 . S
N153 C152 1.342 . S
N153 N154 1.388 . S
N154 Co137 1.993 . S
N154 N153 1.388 . S
N154 C155 1.346 . S
C155 N154 1.346 . S
C155 C156 1.396 . S
C155 C165 1.510 . S
C156 C152 1.401 . S
C156 C155 1.396 . S
C157 C152 1.499 . S
C157 H158 0.959 . S
C157 H159 0.960 . S
C157 H160 0.961 . S
H158 C157 0.959 . S
H159 C157 0.960 . S
H160 C157 0.961 . S
O161 Co136 1.967 . S
O161 C169 1.258 . S
O162 Co137 1.941 . S
O162 C169 1.266 . S
H163 C165 0.959 . S
H164 C165 0.961 . S
C165 C155 1.510 . S
C165 H163 0.959 . S
C165 H164 0.961 . S
C165 H166 0.960 . S
H166 C165 0.960 . S
H167 N147 0.862 . S
O168 Co136 1.920 . S
O168 C141 1.289 . S
C169 O161 1.258 . S
C169 O162 1.266 . S
Co170 O173 1.970 . S
Co170 N187 1.989 . S
Co170 O195 1.967 . S
Co170 O202 1.920 . S
Co171 O174 1.966 . S
Co171 N180 2.022 . S
Co171 N188 1.993 . S
Co171 O196 1.941 . S
C172 O173 1.258 . S
C172 O174 1.263 . S
O173 Co170 1.970 . S
O173 C172 1.258 . S
O174 Co171 1.966 . S
O174 C172 1.263 . S
C175 O176 1.235 . S
C175 O202 1.289 . S
O176 C175 1.235 . S
C177 C179 1.400 . S
C177 N180 1.351 . S
C177 C182 1.501 . S
C178 C179 1.387 . S
C178 N181 1.341 . S
C179 C177 1.400 . S
C179 C178 1.387 . S
N180 Co171 2.022 . S
N180 C177 1.351 . S
N180 N181 1.365 . S
N181 C178 1.341 . S
N181 N180 1.365 . S
N181 H201 0.862 . S
C182 C177 1.501 . S
C182 H183 0.961 . S
C182 H184 0.961 . S
C182 H185 0.960 . S
H183 C182 0.961 . S
H184 C182 0.961 . S
H185 C182 0.960 . S
C186 N187 1.342 . S
C186 C190 1.401 . S
C186 C191 1.499 . S
N187 Co170 1.989 . S
N187 C186 1.342 . S
N187 N188 1.388 . S
N188 Co171 1.993 . S
N188 N187 1.388 . S
N188 C189 1.346 . S
C189 N188 1.346 . S
C189 C190 1.396 . S
C189 C199 1.510 . S
C190 C186 1.401 . S
C190 C189 1.396 . S
C191 C186 1.499 . S
C191 H192 0.959 . S
C191 H193 0.960 . S
C191 H194 0.961 . S
H192 C191 0.959 . S
H193 C191 0.960 . S
H194 C191 0.961 . S
O195 Co170 1.967 . S
O195 C203 1.258 . S
O196 Co171 1.941 . S
O196 C203 1.266 . S
H197 C199 0.959 . S
H198 C199 0.961 . S
C199 C189 1.510 . S
C199 H197 0.959 . S
C199 H198 0.961 . S
C199 H200 0.960 . S
H200 C199 0.960 . S
H201 N181 0.862 . S
O202 Co170 1.920 . S
O202 C175 1.289 . S
C203 O195 1.258 . S
C203 O196 1.266 . S
Co204 O207 1.970 . S
Co204 N221 1.989 . S
Co204 O229 1.967 . S
Co204 O236 1.920 . S
Co205 O208 1.966 . S
Co205 N214 2.022 . S
Co205 N222 1.993 . S
Co205 O230 1.941 . S
C206 O207 1.258 . S
C206 O208 1.263 . S
O207 Co204 1.970 . S
O207 C206 1.258 . S
O208 Co205 1.966 . S
O208 C206 1.263 . S
C209 O210 1.235 . S
C209 O236 1.289 . S
O210 C209 1.235 . S
C211 C213 1.400 . S
C211 N214 1.351 . S
C211 C216 1.501 . S
C212 C213 1.387 . S
C212 N215 1.341 . S
C213 C211 1.400 . S
C213 C212 1.387 . S
N214 Co205 2.022 . S
N214 C211 1.351 . S
N214 N215 1.365 . S
N215 C212 1.341 . S
N215 N214 1.365 . S
N215 H235 0.862 . S
C216 C211 1.501 . S
C216 H217 0.961 . S
C216 H218 0.961 . S
C216 H219 0.960 . S
H217 C216 0.961 . S
H218 C216 0.961 . S
H219 C216 0.960 . S
C220 N221 1.342 . S
C220 C224 1.401 . S
C220 C225 1.499 . S
N221 Co204 1.989 . S
N221 C220 1.342 . S
N221 N222 1.388 . S
N222 Co205 1.993 . S
N222 N221 1.388 . S
N222 C223 1.346 . S
C223 N222 1.346 . S
C223 C224 1.396 . S
C223 C233 1.510 . S
C224 C220 1.401 . S
C224 C223 1.396 . S
C225 C220 1.499 . S
C225 H226 0.959 . S
C225 H227 0.960 . S
C225 H228 0.961 . S
H226 C225 0.959 . S
H227 C225 0.960 . S
H228 C225 0.961 . S
O229 Co204 1.967 . S
O229 C237 1.258 . S
O230 Co205 1.941 . S
O230 C237 1.266 . S
H231 C233 0.959 . S
H232 C233 0.961 . S
C233 C223 1.510 . S
C233 H231 0.959 . S
C233 H232 0.961 . S
C233 H234 0.960 . S
H234 C233 0.960 . S
H235 N215 0.862 . S
O236 Co204 1.920 . S
O236 C209 1.289 . S
C237 O229 1.258 . S
C237 O230 1.266 . S
Co238 O241 1.970 . S
Co238 N255 1.989 . S
Co238 O263 1.967 . S
Co238 O270 1.920 . S
Co239 O242 1.966 . S
Co239 N248 2.022 . S
Co239 N256 1.993 . S
Co239 O264 1.941 . S
C240 O241 1.258 . S
C240 O242 1.263 . S
O241 Co238 1.970 . S
O241 C240 1.258 . S
O242 Co239 1.966 . S
O242 C240 1.263 . S
C243 O244 1.235 . S
C243 O270 1.289 . S
O244 C243 1.235 . S
C245 C247 1.400 . S
C245 N248 1.351 . S
C245 C250 1.501 . S
C246 C247 1.387 . S
C246 N249 1.341 . S
C247 C245 1.400 . S
C247 C246 1.387 . S
N248 Co239 2.022 . S
N248 C245 1.351 . S
N248 N249 1.365 . S
N249 C246 1.341 . S
N249 N248 1.365 . S
N249 H269 0.862 . S
C250 C245 1.501 . S
C250 H251 0.961 . S
C250 H252 0.961 . S
C250 H253 0.960 . S
H251 C250 0.961 . S
H252 C250 0.961 . S
H253 C250 0.960 . S
C254 N255 1.342 . S
C254 C258 1.401 . S
C254 C259 1.499 . S
N255 Co238 1.989 . S
N255 C254 1.342 . S
N255 N256 1.388 . S
N256 Co239 1.993 . S
N256 N255 1.388 . S
N256 C257 1.346 . S
C257 N256 1.346 . S
C257 C258 1.396 . S
C257 C267 1.510 . S
C258 C254 1.401 . S
C258 C257 1.396 . S
C259 C254 1.499 . S
C259 H260 0.959 . S
C259 H261 0.960 . S
C259 H262 0.961 . S
H260 C259 0.959 . S
H261 C259 0.960 . S
H262 C259 0.961 . S
O263 Co238 1.967 . S
O263 C271 1.258 . S
O264 Co239 1.941 . S
O264 C271 1.266 . S
H265 C267 0.959 . S
H266 C267 0.961 . S
C267 C257 1.510 . S
C267 H265 0.959 . S
C267 H266 0.961 . S
C267 H268 0.960 . S
H268 C267 0.960 . S
H269 N249 0.862 . S
O270 Co238 1.920 . S
O270 C243 1.289 . S
C271 O263 1.258 . S
C271 O264 1.266 . S
Co272 O275 1.970 . S
Co272 N289 1.989 . S
Co272 O297 1.967 . S
Co272 O304 1.920 . S
Co273 O276 1.966 . S
Co273 N282 2.022 . S
Co273 N290 1.993 . S
Co273 O298 1.960 . S
C274 O275 1.258 . S
C274 O276 1.263 . S
O275 Co272 1.970 . S
O275 C274 1.258 . S
O276 Co273 1.966 . S
O276 C274 1.263 . S
C277 O278 1.235 . S
C277 O304 1.289 . S
O278 C277 1.235 . S
C279 C281 1.400 . S
C279 N282 1.351 . S
C279 C284 1.501 . S
C280 C281 1.382 1_455 S
C280 N283 1.340 1_455 S
C281 C279 1.400 . S
C281 C280 1.382 1_655 S
N282 Co273 2.022 . S
N282 C279 1.351 . S
N282 N283 1.365 . S
N283 C280 1.340 1_655 S
N283 N282 1.365 . S
N283 H303 0.862 1_655 S
C284 C279 1.501 . S
C284 H285 0.961 . S
C284 H286 0.961 . S
C284 H287 0.960 . S
H285 C284 0.961 . S
H286 C284 0.961 . S
H287 C284 0.960 . S
C288 N289 1.342 . S
C288 C292 1.401 . S
C288 C293 1.499 . S
N289 Co272 1.989 . S
N289 C288 1.342 . S
N289 N290 1.388 . S
N290 Co273 1.993 . S
N290 N289 1.388 . S
N290 C291 1.346 . S
C291 N290 1.346 . S
C291 C292 1.396 . S
C291 C301 1.510 . S
C292 C288 1.401 . S
C292 C291 1.396 . S
C293 C288 1.499 . S
C293 H294 0.959 . S
C293 H295 0.960 . S
C293 H296 0.961 . S
H294 C293 0.959 . S
H295 C293 0.960 . S
H296 C293 0.961 . S
O297 Co272 1.967 . S
O297 C305 1.258 . S
O298 Co273 1.960 . S
O298 C305 1.269 . S
H299 C301 0.959 . S
H300 C301 0.961 . S
C301 C291 1.510 . S
C301 H299 0.959 . S
C301 H300 0.961 . S
C301 H302 0.960 . S
H302 C301 0.960 . S
H303 N283 0.862 1_455 S
O304 Co272 1.920 . S
O304 C277 1.289 . S
C305 O297 1.258 . S
C305 O298 1.269 . S
Co306 O309 1.970 . S
Co306 N323 1.989 . S
Co306 O331 1.967 . S
Co306 O338 1.920 . S
Co307 O310 1.966 . S
Co307 N316 2.022 . S
Co307 N324 1.993 . S
Co307 O332 1.960 . S
C308 O309 1.258 . S
C308 O310 1.263 . S
O309 Co306 1.970 . S
O309 C308 1.258 . S
O310 Co307 1.966 . S
O310 C308 1.263 . S
C311 O312 1.235 . S
C311 O338 1.289 . S
O312 C311 1.235 . S
C313 C315 1.400 . S
C313 N316 1.351 . S
C313 C318 1.501 . S
C314 C315 1.382 1_545 S
C314 N317 1.340 1_545 S
C315 C313 1.400 . S
C315 C314 1.382 1_565 S
N316 Co307 2.022 . S
N316 C313 1.351 . S
N316 N317 1.365 . S
N317 C314 1.340 1_565 S
N317 N316 1.365 . S
N317 H337 0.862 1_565 S
C318 C313 1.501 . S
C318 H319 0.961 . S
C318 H320 0.961 . S
C318 H321 0.960 . S
H319 C318 0.961 . S
H320 C318 0.961 . S
H321 C318 0.960 . S
C322 N323 1.342 . S
C322 C326 1.401 . S
C322 C327 1.499 . S
N323 Co306 1.989 . S
N323 C322 1.342 . S
N323 N324 1.388 . S
N324 Co307 1.993 . S
N324 N323 1.388 . S
N324 C325 1.346 . S
C325 N324 1.346 . S
C325 C326 1.396 . S
C325 C335 1.510 . S
C326 C322 1.401 . S
C326 C325 1.396 . S
C327 C322 1.499 . S
C327 H328 0.959 . S
C327 H329 0.960 . S
C327 H330 0.961 . S
H328 C327 0.959 . S
H329 C327 0.960 . S
H330 C327 0.961 . S
O331 Co306 1.967 . S
O331 C339 1.258 . S
O332 Co307 1.960 . S
O332 C339 1.269 . S
H333 C335 0.959 . S
H334 C335 0.961 . S
C335 C325 1.510 . S
C335 H333 0.959 . S
C335 H334 0.961 . S
C335 H336 0.960 . S
H336 C335 0.960 . S
H337 N317 0.862 1_545 S
O338 Co306 1.920 . S
O338 C311 1.289 . S
C339 O331 1.258 . S
C339 O332 1.269 . S
Co340 O343 1.970 . S
Co340 N357 1.989 . S
Co340 O365 1.967 . S
Co340 O372 1.920 . S
Co341 O344 1.966 . S
Co341 N350 2.022 . S
Co341 N358 1.993 . S
Co341 O366 1.960 . S
C342 O343 1.258 . S
C342 O344 1.263 . S
O343 Co340 1.970 . S
O343 C342 1.258 . S
O344 Co341 1.966 . S
O344 C342 1.263 . S
C345 O346 1.235 . S
C345 O372 1.289 . S
O346 C345 1.235 . S
C347 C349 1.400 . S
C347 N350 1.351 . S
C347 C352 1.501 . S
C348 C349 1.382 1_655 S
C348 N351 1.340 1_655 S
C349 C347 1.400 . S
C349 C348 1.382 1_455 S
N350 Co341 2.022 . S
N350 C347 1.351 . S
N350 N351 1.365 . S
N351 C348 1.340 1_455 S
N351 N350 1.365 . S
N351 H371 0.862 1_455 S
C352 C347 1.501 . S
C352 H353 0.961 . S
C352 H354 0.961 . S
C352 H355 0.960 . S
H353 C352 0.961 . S
H354 C352 0.961 . S
H355 C352 0.960 . S
C356 N357 1.342 . S
C356 C360 1.401 . S
C356 C361 1.499 . S
N357 Co340 1.989 . S
N357 C356 1.342 . S
N357 N358 1.388 . S
N358 Co341 1.993 . S
N358 N357 1.388 . S
N358 C359 1.346 . S
C359 N358 1.346 . S
C359 C360 1.396 . S
C359 C369 1.510 . S
C360 C356 1.401 . S
C360 C359 1.396 . S
C361 C356 1.499 . S
C361 H362 0.959 . S
C361 H363 0.960 . S
C361 H364 0.961 . S
H362 C361 0.959 . S
H363 C361 0.960 . S
H364 C361 0.961 . S
O365 Co340 1.967 . S
O365 C373 1.258 . S
O366 Co341 1.960 . S
O366 C373 1.269 . S
H367 C369 0.959 . S
H368 C369 0.961 . S
C369 C359 1.510 . S
C369 H367 0.959 . S
C369 H368 0.961 . S
C369 H370 0.960 . S
H370 C369 0.960 . S
H371 N351 0.862 1_655 S
O372 Co340 1.920 . S
O372 C345 1.289 . S
C373 O365 1.258 . S
C373 O366 1.269 . S
Co374 O377 1.970 . S
Co374 N391 1.989 . S
Co374 O399 1.967 . S
Co374 O406 1.920 . S
Co375 O378 1.966 . S
Co375 N384 2.022 . S
Co375 N392 1.993 . S
Co375 O400 1.960 . S
C376 O377 1.258 . S
C376 O378 1.263 . S
O377 Co374 1.970 . S
O377 C376 1.258 . S
O378 Co375 1.966 . S
O378 C376 1.263 . S
C379 O380 1.235 . S
C379 O406 1.289 . S
O380 C379 1.235 . S
C381 C383 1.400 . S
C381 N384 1.351 . S
C381 C386 1.501 . S
C382 C383 1.382 1_565 S
C382 N385 1.340 1_565 S
C383 C381 1.400 . S
C383 C382 1.382 1_545 S
N384 Co375 2.022 . S
N384 C381 1.351 . S
N384 N385 1.365 . S
N385 C382 1.340 1_545 S
N385 N384 1.365 . S
N385 H405 0.862 1_545 S
C386 C381 1.501 . S
C386 H387 0.961 . S
C386 H388 0.961 . S
C386 H389 0.960 . S
H387 C386 0.961 . S
H388 C386 0.961 . S
H389 C386 0.960 . S
C390 N391 1.342 . S
C390 C394 1.401 . S
C390 C395 1.499 . S
N391 Co374 1.989 . S
N391 C390 1.342 . S
N391 N392 1.388 . S
N392 Co375 1.993 . S
N392 N391 1.388 . S
N392 C393 1.346 . S
C393 N392 1.346 . S
C393 C394 1.396 . S
C393 C403 1.510 . S
C394 C390 1.401 . S
C394 C393 1.396 . S
C395 C390 1.499 . S
C395 H396 0.959 . S
C395 H397 0.960 . S
C395 H398 0.961 . S
H396 C395 0.959 . S
H397 C395 0.960 . S
H398 C395 0.961 . S
O399 Co374 1.967 . S
O399 C407 1.258 . S
O400 Co375 1.960 . S
O400 C407 1.269 . S
H401 C403 0.959 . S
H402 C403 0.961 . S
C403 C393 1.510 . S
C403 H401 0.959 . S
C403 H402 0.961 . S
C403 H404 0.960 . S
H404 C403 0.960 . S
H405 N385 0.862 1_565 S
O406 Co374 1.920 . S
O406 C379 1.289 . S
C407 O399 1.258 . S
C407 O400 1.269 . S
Co408 O411 1.970 . S
Co408 N425 1.989 . S
Co408 O433 1.967 . S
Co408 O440 1.920 . S
Co409 O412 1.966 . S
Co409 N418 2.022 . S
Co409 N426 1.993 . S
Co409 O434 1.941 . S
C410 O411 1.258 . S
C410 O412 1.263 . S
O411 Co408 1.970 . S
O411 C410 1.258 . S
O412 Co409 1.966 . S
O412 C410 1.263 . S
C413 O414 1.235 . S
C413 O440 1.289 . S
O414 C413 1.235 . S
C415 C417 1.400 . S
C415 N418 1.351 . S
C415 C420 1.501 . S
C416 C417 1.387 . S
C416 N419 1.341 . S
C417 C415 1.400 . S
C417 C416 1.387 . S
N418 Co409 2.022 . S
N418 C415 1.351 . S
N418 N419 1.365 . S
N419 C416 1.341 . S
N419 N418 1.365 . S
N419 H439 0.862 . S
C420 C415 1.501 . S
C420 H421 0.961 . S
C420 H422 0.961 . S
C420 H423 0.960 . S
H421 C420 0.961 . S
H422 C420 0.961 . S
H423 C420 0.960 . S
C424 N425 1.342 . S
C424 C428 1.401 . S
C424 C429 1.499 . S
N425 Co408 1.989 . S
N425 C424 1.342 . S
N425 N426 1.388 . S
N426 Co409 1.993 . S
N426 N425 1.388 . S
N426 C427 1.346 . S
C427 N426 1.346 . S
C427 C428 1.396 . S
C427 C437 1.510 . S
C428 C424 1.401 . S
C428 C427 1.396 . S
C429 C424 1.499 . S
C429 H430 0.959 . S
C429 H431 0.960 . S
C429 H432 0.961 . S
H430 C429 0.959 . S
H431 C429 0.960 . S
H432 C429 0.961 . S
O433 Co408 1.967 . S
O433 C441 1.258 . S
O434 Co409 1.941 . S
O434 C441 1.266 . S
H435 C437 0.959 . S
H436 C437 0.961 . S
C437 C427 1.510 . S
C437 H435 0.959 . S
C437 H436 0.961 . S
C437 H438 0.960 . S
H438 C437 0.960 . S
H439 N419 0.862 . S
O440 Co408 1.920 . S
O440 C413 1.289 . S
C441 O433 1.258 . S
C441 O434 1.266 . S
Co442 O445 1.970 . S
Co442 N459 1.989 . S
Co442 O467 1.967 . S
Co442 O474 1.920 . S
Co443 O446 1.966 . S
Co443 N452 2.022 . S
Co443 N460 1.993 . S
Co443 O468 1.941 . S
C444 O445 1.258 . S
C444 O446 1.263 . S
O445 Co442 1.970 . S
O445 C444 1.258 . S
O446 Co443 1.966 . S
O446 C444 1.263 . S
C447 O448 1.235 . S
C447 O474 1.289 . S
O448 C447 1.235 . S
C449 C451 1.400 . S
C449 N452 1.351 . S
C449 C454 1.501 . S
C450 C451 1.387 . S
C450 N453 1.341 . S
C451 C449 1.400 . S
C451 C450 1.387 . S
N452 Co443 2.022 . S
N452 C449 1.351 . S
N452 N453 1.365 . S
N453 C450 1.341 . S
N453 N452 1.365 . S
N453 H473 0.862 . S
C454 C449 1.501 . S
C454 H455 0.961 . S
C454 H456 0.961 . S
C454 H457 0.960 . S
H455 C454 0.961 . S
H456 C454 0.961 . S
H457 C454 0.960 . S
C458 N459 1.342 . S
C458 C462 1.401 . S
C458 C463 1.499 . S
N459 Co442 1.989 . S
N459 C458 1.342 . S
N459 N460 1.388 . S
N460 Co443 1.993 . S
N460 N459 1.388 . S
N460 C461 1.346 . S
C461 N460 1.346 . S
C461 C462 1.396 . S
C461 C471 1.510 . S
C462 C458 1.401 . S
C462 C461 1.396 . S
C463 C458 1.499 . S
C463 H464 0.959 . S
C463 H465 0.960 . S
C463 H466 0.961 . S
H464 C463 0.959 . S
H465 C463 0.960 . S
H466 C463 0.961 . S
O467 Co442 1.967 . S
O467 C475 1.258 . S
O468 Co443 1.941 . S
O468 C475 1.266 . S
H469 C471 0.959 . S
H470 C471 0.961 . S
C471 C461 1.510 . S
C471 H469 0.959 . S
C471 H470 0.961 . S
C471 H472 0.960 . S
H472 C471 0.960 . S
H473 N453 0.862 . S
O474 Co442 1.920 . S
O474 C447 1.289 . S
C475 O467 1.258 . S
C475 O468 1.266 . S
Co476 O479 1.970 . S
Co476 N493 1.989 . S
Co476 O501 1.967 . S
Co476 O508 1.920 . S
Co477 O480 1.966 . S
Co477 N486 2.022 . S
Co477 N494 1.993 . S
Co477 O502 1.941 . S
C478 O479 1.258 . S
C478 O480 1.263 . S
O479 Co476 1.970 . S
O479 C478 1.258 . S
O480 Co477 1.966 . S
O480 C478 1.263 . S
C481 O482 1.235 . S
C481 O508 1.289 . S
O482 C481 1.235 . S
C483 C485 1.400 . S
C483 N486 1.351 . S
C483 C488 1.501 . S
C484 C485 1.387 . S
C484 N487 1.341 . S
C485 C483 1.400 . S
C485 C484 1.387 . S
N486 Co477 2.022 . S
N486 C483 1.351 . S
N486 N487 1.365 . S
N487 C484 1.341 . S
N487 N486 1.365 . S
N487 H507 0.862 . S
C488 C483 1.501 . S
C488 H489 0.961 . S
C488 H490 0.961 . S
C488 H491 0.960 . S
H489 C488 0.961 . S
H490 C488 0.961 . S
H491 C488 0.960 . S
C492 N493 1.342 . S
C492 C496 1.401 . S
C492 C497 1.499 . S
N493 Co476 1.989 . S
N493 C492 1.342 . S
N493 N494 1.388 . S
N494 Co477 1.993 . S
N494 N493 1.388 . S
N494 C495 1.346 . S
C495 N494 1.346 . S
C495 C496 1.396 . S
C495 C505 1.510 . S
C496 C492 1.401 . S
C496 C495 1.396 . S
C497 C492 1.499 . S
C497 H498 0.959 . S
C497 H499 0.960 . S
C497 H500 0.961 . S
H498 C497 0.959 . S
H499 C497 0.960 . S
H500 C497 0.961 . S
O501 Co476 1.967 . S
O501 C509 1.258 . S
O502 Co477 1.941 . S
O502 C509 1.266 . S
H503 C505 0.959 . S
H504 C505 0.961 . S
C505 C495 1.510 . S
C505 H503 0.959 . S
C505 H504 0.961 . S
C505 H506 0.960 . S
H506 C505 0.960 . S
H507 N487 0.862 . S
O508 Co476 1.920 . S
O508 C481 1.289 . S
C509 O501 1.258 . S
C509 O502 1.266 . S
Co510 O513 1.970 . S
Co510 N527 1.989 . S
Co510 O535 1.967 . S
Co510 O542 1.920 . S
Co511 O514 1.966 . S
Co511 N520 2.022 . S
Co511 N528 1.993 . S
Co511 O536 1.941 . S
C512 O513 1.258 . S
C512 O514 1.263 . S
O513 Co510 1.970 . S
O513 C512 1.258 . S
O514 Co511 1.966 . S
O514 C512 1.263 . S
C515 O516 1.235 . S
C515 O542 1.289 . S
O516 C515 1.235 . S
C517 C519 1.400 . S
C517 N520 1.351 . S
C517 C522 1.501 . S
C518 C519 1.387 . S
C518 N521 1.341 . S
C519 C517 1.400 . S
C519 C518 1.387 . S
N520 Co511 2.022 . S
N520 C517 1.351 . S
N520 N521 1.365 . S
N521 C518 1.341 . S
N521 N520 1.365 . S
N521 H541 0.862 . S
C522 C517 1.501 . S
C522 H523 0.961 . S
C522 H524 0.961 . S
C522 H525 0.960 . S
H523 C522 0.961 . S
H524 C522 0.961 . S
H525 C522 0.960 . S
C526 N527 1.342 . S
C526 C530 1.401 . S
C526 C531 1.499 . S
N527 Co510 1.989 . S
N527 C526 1.342 . S
N527 N528 1.388 . S
N528 Co511 1.993 . S
N528 N527 1.388 . S
N528 C529 1.346 . S
C529 N528 1.346 . S
C529 C530 1.396 . S
C529 C539 1.510 . S
C530 C526 1.401 . S
C530 C529 1.396 . S
C531 C526 1.499 . S
C531 H532 0.959 . S
C531 H533 0.960 . S
C531 H534 0.961 . S
H532 C531 0.959 . S
H533 C531 0.960 . S
H534 C531 0.961 . S
O535 Co510 1.967 . S
O535 C543 1.258 . S
O536 Co511 1.941 . S
O536 C543 1.266 . S
H537 C539 0.959 . S
H538 C539 0.961 . S
C539 C529 1.510 . S
C539 H537 0.959 . S
C539 H538 0.961 . S
C539 H540 0.960 . S
H540 C539 0.960 . S
H541 N521 0.862 . S
O542 Co510 1.920 . S
O542 C515 1.289 . S
C543 O535 1.258 . S
C543 O536 1.266 . S
C544 C545 1.387 . S
C544 H548 0.950 . S
C544 C553 1.390 1_556 S
C545 C544 1.387 . S
C545 C547 1.387 . S
H546 C553 0.950 . S
C547 C545 1.387 . S
C547 C549 1.390 1_556 S
C547 H551 0.950 . S
H548 C544 0.950 . S
C549 C547 1.390 1_554 S
C549 C550 1.387 . S
C549 H552 0.950 . S
C550 C549 1.387 . S
C550 C553 1.387 . S
H551 C547 0.950 . S
H552 C549 0.950 . S
C553 C544 1.390 1_554 S
C553 H546 0.950 . S
C553 C550 1.387 . S
C554 C555 1.387 . S
C554 H558 0.950 . S
C554 C563 1.390 1_556 S
C555 C554 1.387 . S
C555 C557 1.387 . S
H556 C563 0.950 . S
C557 C555 1.387 . S
C557 C559 1.390 1_556 S
C557 H561 0.950 . S
H558 C554 0.950 . S
C559 C557 1.390 1_554 S
C559 C560 1.387 . S
C559 H562 0.950 . S
C560 C559 1.387 . S
C560 C563 1.387 . S
H561 C557 0.950 . S
H562 C559 0.950 . S
C563 C554 1.390 1_554 S
C563 H556 0.950 . S
C563 C560 1.387 . S
C564 C565 1.387 . S
C564 H568 0.950 . S
C564 C573 1.390 1_556 S
C565 C564 1.387 . S
C565 C567 1.387 . S
H566 C573 0.950 . S
C567 C565 1.387 . S
C567 C569 1.390 1_556 S
C567 H571 0.950 . S
H568 C564 0.950 . S
C569 C567 1.390 1_554 S
C569 C570 1.387 . S
C569 H572 0.950 . S
C570 C569 1.387 . S
C570 C573 1.387 . S
H571 C567 0.950 . S
H572 C569 0.950 . S
C573 C564 1.390 1_554 S
C573 H566 0.950 . S
C573 C570 1.387 . S
C574 C575 1.387 . S
C574 H578 0.950 . S
C574 C583 1.390 1_556 S
C575 C574 1.387 . S
C575 C577 1.387 . S
H576 C583 0.950 . S
C577 C575 1.387 . S
C577 C579 1.390 1_556 S
C577 H581 0.950 . S
H578 C574 0.950 . S
C579 C577 1.390 1_554 S
C579 C580 1.387 . S
C579 H582 0.950 . S
C580 C579 1.387 . S
C580 C583 1.387 . S
H581 C577 0.950 . S
H582 C579 0.950 . S
C583 C574 1.390 1_554 S
C583 H576 0.950 . S
C583 C580 1.387 . S
C584 C585 1.387 . S
C584 H588 0.950 . S
C584 C593 1.390 . S
C585 C584 1.387 . S
C585 C587 1.387 . S
H586 C593 0.950 . S
C587 C585 1.387 . S
C587 C589 1.390 . S
C587 H591 0.950 . S
H588 C584 0.950 . S
C589 C587 1.390 . S
C589 C590 1.387 . S
C589 H592 0.950 . S
C590 C589 1.387 . S
C590 C593 1.387 . S
H591 C587 0.950 . S
H592 C589 0.950 . S
C593 C584 1.390 . S
C593 H586 0.950 . S
C593 C590 1.387 . S
C594 C595 1.387 . S
C594 H598 0.950 . S
C594 C603 1.390 . S
C595 C594 1.387 . S
C595 C597 1.387 . S
H596 C603 0.950 . S
C597 C595 1.387 . S
C597 C599 1.390 . S
C597 H601 0.950 . S
H598 C594 0.950 . S
C599 C597 1.390 . S
C599 C600 1.387 . S
C599 H602 0.950 . S
C600 C599 1.387 . S
C600 C603 1.387 . S
H601 C597 0.950 . S
H602 C599 0.950 . S
C603 C594 1.390 . S
C603 H596 0.950 . S
C603 C600 1.387 . S
C604 C605 1.387 . S
C604 H608 0.950 . S
C604 C613 1.390 . S
C605 C604 1.387 . S
C605 C607 1.387 . S
H606 C613 0.950 . S
C607 C605 1.387 . S
C607 C609 1.390 . S
C607 H611 0.950 . S
H608 C604 0.950 . S
C609 C607 1.390 . S
C609 C610 1.387 . S
C609 H612 0.950 . S
C610 C609 1.387 . S
C610 C613 1.387 . S
H611 C607 0.950 . S
H612 C609 0.950 . S
C613 C604 1.390 . S
C613 H606 0.950 . S
C613 C610 1.387 . S
C614 C615 1.387 . S
C614 H618 0.950 . S
C614 C623 1.390 . S
C615 C614 1.387 . S
C615 C617 1.387 . S
H616 C623 0.950 . S
C617 C615 1.387 . S
C617 C619 1.390 . S
C617 H621 0.950 . S
H618 C614 0.950 . S
C619 C617 1.390 . S
C619 C620 1.387 . S
C619 H622 0.950 . S
C620 C619 1.387 . S
C620 C623 1.387 . S
H621 C617 0.950 . S
H622 C619 0.950 . S
C623 C614 1.390 . S
C623 H616 0.950 . S
C623 C620 1.387 . S
C624 C625 1.387 . S
C624 H628 0.950 . S
C624 C633 1.390 . S
C625 C624 1.387 . S
C625 C627 1.387 . S
H626 C633 0.950 . S
C627 C625 1.387 . S
C627 C629 1.390 . S
C627 H631 0.950 . S
H628 C624 0.950 . S
C629 C627 1.390 . S
C629 C630 1.387 . S
C629 H632 0.950 . S
C630 C629 1.387 . S
C630 C633 1.387 . S
H631 C627 0.950 . S
H632 C629 0.950 . S
C633 C624 1.390 . S
C633 H626 0.950 . S
C633 C630 1.387 . S
C634 C635 1.387 . S
C634 H638 0.950 . S
C634 C643 1.390 . S
C635 C634 1.387 . S
C635 C637 1.387 . S
H636 C643 0.950 . S
C637 C635 1.387 . S
C637 C639 1.390 . S
C637 H641 0.950 . S
H638 C634 0.950 . S
C639 C637 1.390 . S
C639 C640 1.387 . S
C639 H642 0.950 . S
C640 C639 1.387 . S
C640 C643 1.387 . S
H641 C637 0.950 . S
H642 C639 0.950 . S
C643 C634 1.390 . S
C643 H636 0.950 . S
C643 C640 1.387 . S
C644 C645 1.387 . S
C644 H648 0.950 . S
C644 C653 1.390 . S
C645 C644 1.387 . S
C645 C647 1.387 . S
H646 C653 0.950 . S
C647 C645 1.387 . S
C647 C649 1.390 . S
C647 H651 0.950 . S
H648 C644 0.950 . S
C649 C647 1.390 . S
C649 C650 1.387 . S
C649 H652 0.950 . S
C650 C649 1.387 . S
C650 C653 1.387 . S
H651 C647 0.950 . S
H652 C649 0.950 . S
C653 C644 1.390 . S
C653 H646 0.950 . S
C653 C650 1.387 . S
C654 C655 1.387 . S
C654 H658 0.950 . S
C654 C663 1.390 . S
C655 C654 1.387 . S
C655 C657 1.387 . S
H656 C663 0.950 . S
C657 C655 1.387 . S
C657 C659 1.390 . S
C657 H661 0.950 . S
H658 C654 0.950 . S
C659 C657 1.390 . S
C659 C660 1.387 . S
C659 H662 0.950 . S
C660 C659 1.387 . S
C660 C663 1.387 . S
H661 C657 0.950 . S
H662 C659 0.950 . S
C663 C654 1.390 . S
C663 H656 0.950 . S
C663 C660 1.387 . S
C664 C665 1.387 . S
C664 H668 0.950 . S
C664 C673 1.390 . S
C665 C664 1.387 . S
C665 C667 1.387 . S
H666 C673 0.950 . S
C667 C665 1.387 . S
C667 C669 1.390 . S
C667 H671 0.950 . S
H668 C664 0.950 . S
C669 C667 1.390 . S
C669 C670 1.387 . S
C669 H672 0.950 . S
C670 C669 1.387 . S
C670 C673 1.387 . S
H671 C667 0.950 . S
H672 C669 0.950 . S
C673 C664 1.390 . S
C673 H666 0.950 . S
C673 C670 1.387 . S
C674 C675 1.387 . S
C674 H678 0.950 . S
C674 C683 1.390 . S
C675 C674 1.387 . S
C675 C677 1.387 . S
H676 C683 0.950 . S
C677 C675 1.387 . S
C677 C679 1.390 . S
C677 H681 0.950 . S
H678 C674 0.950 . S
C679 C677 1.390 . S
C679 C680 1.387 . S
C679 H682 0.950 . S
C680 C679 1.387 . S
C680 C683 1.387 . S
H681 C677 0.950 . S
H682 C679 0.950 . S
C683 C674 1.390 . S
C683 H676 0.950 . S
C683 C680 1.387 . S
C684 C685 1.387 . S
C684 H688 0.950 . S
C684 C693 1.390 . S
C685 C684 1.387 . S
C685 C687 1.387 . S
H686 C693 0.950 . S
C687 C685 1.387 . S
C687 C689 1.390 . S
C687 H691 0.950 . S
H688 C684 0.950 . S
C689 C687 1.390 . S
C689 C690 1.387 . S
C689 H692 0.950 . S
C690 C689 1.387 . S
C690 C693 1.387 . S
H691 C687 0.950 . S
H692 C689 0.950 . S
C693 C684 1.390 . S
C693 H686 0.950 . S
C693 C690 1.387 . S
C694 C695 1.387 . S
C694 H698 0.950 . S
C694 C703 1.390 . S
C695 C694 1.387 . S
C695 C697 1.387 . S
H696 C703 0.950 . S
C697 C695 1.387 . S
C697 C699 1.390 . S
C697 H701 0.950 . S
H698 C694 0.950 . S
C699 C697 1.390 . S
C699 C700 1.387 . S
C699 H702 0.950 . S
C700 C699 1.387 . S
C700 C703 1.387 . S
H701 C697 0.950 . S
H702 C699 0.950 . S
C703 C694 1.390 . S
C703 H696 0.950 . S
C703 C700 1.387 . S
C704 C705 1.387 . S
C704 H708 0.950 . S
C704 C713 1.390 . S
C705 C704 1.387 . S
C705 C707 1.387 . S
H706 C713 0.950 . S
C707 C705 1.387 . S
C707 C709 1.390 . S
C707 H711 0.950 . S
H708 C704 0.950 . S
C709 C707 1.390 . S
C709 C710 1.387 . S
C709 H712 0.950 . S
C710 C709 1.387 . S
C710 C713 1.387 . S
H711 C707 0.950 . S
H712 C709 0.950 . S
C713 C704 1.390 . S
C713 H706 0.950 . S
C713 C710 1.387 . S
C714 C715 1.387 . S
C714 H718 0.950 . S
C714 C723 1.390 . S
C715 C714 1.387 . S
C715 C717 1.387 . S
H716 C723 0.950 . S
C717 C715 1.387 . S
C717 C719 1.390 . S
C717 H721 0.950 . S
H718 C714 0.950 . S
C719 C717 1.390 . S
C719 C720 1.387 . S
C719 H722 0.950 . S
C720 C719 1.387 . S
C720 C723 1.387 . S
H721 C717 0.950 . S
H722 C719 0.950 . S
C723 C714 1.390 . S
C723 H716 0.950 . S
C723 C720 1.387 . S
C724 C725 1.387 . S
C724 H728 0.950 . S
C724 C733 1.390 . S
C725 C724 1.387 . S
C725 C727 1.387 . S
H726 C733 0.950 . S
C727 C725 1.387 . S
C727 C729 1.390 . S
C727 H731 0.950 . S
H728 C724 0.950 . S
C729 C727 1.390 . S
C729 C730 1.387 . S
C729 H732 0.950 . S
C730 C729 1.387 . S
C730 C733 1.387 . S
H731 C727 0.950 . S
H732 C729 0.950 . S
C733 C724 1.390 . S
C733 H726 0.950 . S
C733 C730 1.387 . S
C734 C735 1.387 . S
C734 H738 0.950 . S
C734 C743 1.390 . S
C735 C734 1.387 . S
C735 C737 1.387 . S
H736 C743 0.950 . S
C737 C735 1.387 . S
C737 C739 1.390 . S
C737 H741 0.950 . S
H738 C734 0.950 . S
C739 C737 1.390 . S
C739 C740 1.387 . S
C739 H742 0.950 . S
C740 C739 1.387 . S
C740 C743 1.387 . S
H741 C737 0.950 . S
H742 C739 0.950 . S
C743 C734 1.390 . S
C743 H736 0.950 . S
C743 C740 1.387 . S
C744 C745 1.387 . S
C744 H748 0.950 . S
C744 C753 1.390 . S
C745 C744 1.387 . S
C745 C747 1.387 . S
H746 C753 0.950 . S
C747 C745 1.387 . S
C747 C749 1.390 . S
C747 H751 0.950 . S
H748 C744 0.950 . S
C749 C747 1.390 . S
C749 C750 1.387 . S
C749 H752 0.950 . S
C750 C749 1.387 . S
C750 C753 1.387 . S
H751 C747 0.950 . S
H752 C749 0.950 . S
C753 C744 1.390 . S
C753 H746 0.950 . S
C753 C750 1.387 . S
C754 C755 1.387 . S
C754 H758 0.950 . S
C754 C763 1.390 . S
C755 C754 1.387 . S
C755 C757 1.387 . S
H756 C763 0.950 . S
C757 C755 1.387 . S
C757 C759 1.390 . S
C757 H761 0.950 . S
H758 C754 0.950 . S
C759 C757 1.390 . S
C759 C760 1.387 . S
C759 H762 0.950 . S
C760 C759 1.387 . S
C760 C763 1.387 . S
H761 C757 0.950 . S
H762 C759 0.950 . S
C763 C754 1.390 . S
C763 H756 0.950 . S
C763 C760 1.387 . S
C764 C765 1.387 . S
C764 H768 0.950 . S
C764 C773 1.390 . S
C765 C764 1.387 . S
C765 C767 1.387 . S
H766 C773 0.950 . S
C767 C765 1.387 . S
C767 C769 1.390 . S
C767 H771 0.950 . S
H768 C764 0.950 . S
C769 C767 1.390 . S
C769 C770 1.387 . S
C769 H772 0.950 . S
C770 C769 1.387 . S
C770 C773 1.387 . S
H771 C767 0.950 . S
H772 C769 0.950 . S
C773 C764 1.390 . S
C773 H766 0.950 . S
C773 C770 1.387 . S
C774 C775 1.387 . S
C774 H778 0.950 . S
C774 C783 1.390 . S
C775 C774 1.387 . S
C775 C777 1.387 . S
H776 C783 0.950 . S
C777 C775 1.387 . S
C777 C779 1.390 . S
C777 H781 0.950 . S
H778 C774 0.950 . S
C779 C777 1.390 . S
C779 C780 1.387 . S
C779 H782 0.950 . S
C780 C779 1.387 . S
C780 C783 1.387 . S
H781 C777 0.950 . S
H782 C779 0.950 . S
C783 C774 1.390 . S
C783 H776 0.950 . S
C783 C780 1.387 . S
C784 C785 1.387 . S
C784 H788 0.950 . S
C784 C793 1.390 . S
C785 C784 1.387 . S
C785 C787 1.387 . S
H786 C793 0.950 . S
C787 C785 1.387 . S
C787 C789 1.390 . S
C787 H791 0.950 . S
H788 C784 0.950 . S
C789 C787 1.390 . S
C789 C790 1.387 . S
C789 H792 0.950 . S
C790 C789 1.387 . S
C790 C793 1.387 . S
H791 C787 0.950 . S
H792 C789 0.950 . S
C793 C784 1.390 . S
C793 H786 0.950 . S
C793 C790 1.387 . S
C794 C795 1.387 . S
C794 H798 0.950 . S
C794 C803 1.390 . S
C795 C794 1.387 . S
C795 C797 1.387 . S
H796 C803 0.950 . S
C797 C795 1.387 . S
C797 C799 1.390 . S
C797 H801 0.950 . S
H798 C794 0.950 . S
C799 C797 1.390 . S
C799 C800 1.387 . S
C799 H802 0.950 . S
C800 C799 1.387 . S
C800 C803 1.387 . S
H801 C797 0.950 . S
H802 C799 0.950 . S
C803 C794 1.390 . S
C803 H796 0.950 . S
C803 C800 1.387 . S
C804 C805 1.387 . S
C804 H808 0.950 . S
C804 C813 1.390 . S
C805 C804 1.387 . S
C805 C807 1.387 . S
H806 C813 0.950 . S
C807 C805 1.387 . S
C807 C809 1.390 . S
C807 H811 0.950 . S
H808 C804 0.950 . S
C809 C807 1.390 . S
C809 C810 1.387 . S
C809 H812 0.950 . S
C810 C809 1.387 . S
C810 C813 1.387 . S
H811 C807 0.950 . S
H812 C809 0.950 . S
C813 C804 1.390 . S
C813 H806 0.950 . S
C813 C810 1.387 . S
C814 C815 1.387 . S
C814 H818 0.950 . S
C814 C823 1.390 . S
C815 C814 1.387 . S
C815 C817 1.387 . S
H816 C823 0.950 . S
C817 C815 1.387 . S
C817 C819 1.390 . S
C817 H821 0.950 . S
H818 C814 0.950 . S
C819 C817 1.390 . S
C819 C820 1.387 . S
C819 H822 0.950 . S
C820 C819 1.387 . S
C820 C823 1.387 . S
H821 C817 0.950 . S
H822 C819 0.950 . S
C823 C814 1.390 . S
C823 H816 0.950 . S
C823 C820 1.387 . S
C824 C825 1.387 . S
C824 H828 0.950 . S
C824 C833 1.390 . S
C825 C824 1.387 . S
C825 C827 1.387 . S
H826 C833 0.950 . S
C827 C825 1.387 . S
C827 C829 1.390 . S
C827 H831 0.950 . S
H828 C824 0.950 . S
C829 C827 1.390 . S
C829 C830 1.387 . S
C829 H832 0.950 . S
C830 C829 1.387 . S
C830 C833 1.387 . S
H831 C827 0.950 . S
H832 C829 0.950 . S
C833 C824 1.390 . S
C833 H826 0.950 . S
C833 C830 1.387 . S
C834 C835 1.387 . S
C834 H838 0.950 . S
C834 C843 1.390 . S
C835 C834 1.387 . S
C835 C837 1.387 . S
H836 C843 0.950 . S
C837 C835 1.387 . S
C837 C839 1.390 . S
C837 H841 0.950 . S
H838 C834 0.950 . S
C839 C837 1.390 . S
C839 C840 1.387 . S
C839 H842 0.950 . S
C840 C839 1.387 . S
C840 C843 1.387 . S
H841 C837 0.950 . S
H842 C839 0.950 . S
C843 C834 1.390 . S
C843 H836 0.950 . S
C843 C840 1.387 . S
C844 C845 1.387 . S
C844 H848 0.950 . S
C844 C853 1.390 . S
C845 C844 1.387 . S
C845 C847 1.387 . S
H846 C853 0.950 . S
C847 C845 1.387 . S
C847 C849 1.390 . S
C847 H851 0.950 . S
H848 C844 0.950 . S
C849 C847 1.390 . S
C849 C850 1.387 . S
C849 H852 0.950 . S
C850 C849 1.387 . S
C850 C853 1.387 . S
H851 C847 0.950 . S
H852 C849 0.950 . S
C853 C844 1.390 . S
C853 H846 0.950 . S
C853 C850 1.387 . S
C854 C855 1.387 . S
C854 H858 0.950 . S
C854 C863 1.390 . S
C855 C854 1.387 . S
C855 C857 1.387 . S
H856 C863 0.950 . S
C857 C855 1.387 . S
C857 C859 1.390 . S
C857 H861 0.950 . S
H858 C854 0.950 . S
C859 C857 1.390 . S
C859 C860 1.387 . S
C859 H862 0.950 . S
C860 C859 1.387 . S
C860 C863 1.387 . S
H861 C857 0.950 . S
H862 C859 0.950 . S
C863 C854 1.390 . S
C863 H856 0.950 . S
C863 C860 1.387 . S
C864 C865 1.387 . S
C864 H868 0.950 . S
C864 C873 1.390 1_655 S
C865 C864 1.387 . S
C865 C867 1.387 . S
H866 C873 0.950 . S
C867 C865 1.387 . S
C867 C869 1.390 1_655 S
C867 H871 0.950 . S
H868 C864 0.950 . S
C869 C867 1.390 1_455 S
C869 C870 1.387 . S
C869 H872 0.950 . S
C870 C869 1.387 . S
C870 C873 1.387 . S
H871 C867 0.950 . S
H872 C869 0.950 . S
C873 C864 1.390 1_455 S
C873 H866 0.950 . S
C873 C870 1.387 . S
C874 C875 1.387 . S
C874 H878 0.950 . S
C874 C883 1.390 1_565 S
C875 C874 1.387 . S
C875 C877 1.387 . S
H876 C883 0.950 . S
C877 C875 1.387 . S
C877 C879 1.390 1_565 S
C877 H881 0.950 . S
H878 C874 0.950 . S
C879 C877 1.390 1_545 S
C879 C880 1.387 . S
C879 H882 0.950 . S
C880 C879 1.387 . S
C880 C883 1.387 . S
H881 C877 0.950 . S
H882 C879 0.950 . S
C883 C874 1.390 1_545 S
C883 H876 0.950 . S
C883 C880 1.387 . S
C884 C885 1.387 . S
C884 H888 0.950 . S
C884 C893 1.390 1_545 S
C885 C884 1.387 . S
C885 C887 1.387 . S
H886 C893 0.950 . S
C887 C885 1.387 . S
C887 C889 1.390 1_545 S
C887 H891 0.950 . S
H888 C884 0.950 . S
C889 C887 1.390 1_565 S
C889 C890 1.387 . S
C889 H892 0.950 . S
C890 C889 1.387 . S
C890 C893 1.387 . S
H891 C887 0.950 . S
H892 C889 0.950 . S
C893 C884 1.390 1_565 S
C893 H886 0.950 . S
C893 C890 1.387 . S
C894 C895 1.387 . S
C894 H898 0.950 . S
C894 C903 1.390 1_655 S
C895 C894 1.387 . S
C895 C897 1.387 . S
H896 C903 0.950 . S
C897 C895 1.387 . S
C897 C899 1.390 1_655 S
C897 H901 0.950 . S
H898 C894 0.950 . S
C899 C897 1.390 1_455 S
C899 C900 1.387 . S
C899 H902 0.950 . S
C900 C899 1.387 . S
C900 C903 1.387 . S
H901 C897 0.950 . S
H902 C899 0.950 . S
C903 C894 1.390 1_455 S
C903 H896 0.950 . S
C903 C900 1.387 . S
C904 C905 1.387 . S
C904 H908 0.950 . S
C904 C913 1.390 1_655 S
C905 C904 1.387 . S
C905 C907 1.387 . S
H906 C913 0.950 . S
C907 C905 1.387 . S
C907 C909 1.390 1_655 S
C907 H911 0.950 . S
H908 C904 0.950 . S
C909 C907 1.390 1_455 S
C909 C910 1.387 . S
C909 H912 0.950 . S
C910 C909 1.387 . S
C910 C913 1.387 . S
H911 C907 0.950 . S
H912 C909 0.950 . S
C913 C904 1.390 1_455 S
C913 H906 0.950 . S
C913 C910 1.387 . S
C914 C915 1.387 . S
C914 H918 0.950 . S
C914 C923 1.390 1_545 S
C915 C914 1.387 . S
C915 C917 1.387 . S
H916 C923 0.950 . S
C917 C915 1.387 . S
C917 C919 1.390 1_545 S
C917 H921 0.950 . S
H918 C914 0.950 . S
C919 C917 1.390 1_565 S
C919 C920 1.387 . S
C919 H922 0.950 . S
C920 C919 1.387 . S
C920 C923 1.387 . S
H921 C917 0.950 . S
H922 C919 0.950 . S
C923 C914 1.390 1_565 S
C923 H916 0.950 . S
C923 C920 1.387 . S
C924 C925 1.387 . S
C924 H928 0.950 . S
C924 C933 1.390 1_565 S
C925 C924 1.387 . S
C925 C927 1.387 . S
H926 C933 0.950 . S
C927 C925 1.387 . S
C927 C929 1.390 1_565 S
C927 H931 0.950 . S
H928 C924 0.950 . S
C929 C927 1.390 1_545 S
C929 C930 1.387 . S
C929 H932 0.950 . S
C930 C929 1.387 . S
C930 C933 1.387 . S
H931 C927 0.950 . S
H932 C929 0.950 . S
C933 C924 1.390 1_545 S
C933 H926 0.950 . S
C933 C930 1.387 . S
C934 C935 1.387 . S
C934 H938 0.950 . S
C934 C943 1.390 1_655 S
C935 C934 1.387 . S
C935 C937 1.387 . S
H936 C943 0.950 . S
C937 C935 1.387 . S
C937 C939 1.390 1_655 S
C937 H941 0.950 . S
H938 C934 0.950 . S
C939 C937 1.390 1_455 S
C939 C940 1.387 . S
C939 H942 0.950 . S
C940 C939 1.387 . S
C940 C943 1.387 . S
H941 C937 0.950 . S
H942 C939 0.950 . S
C943 C934 1.390 1_455 S
C943 H936 0.950 . S
C943 C940 1.387 . S
C545 C342 1.516 . S
C550 C2 1.516 . S
C555 C376 1.516 . S
C560 C36 1.516 . S
C565 C274 1.516 . S
C570 C70 1.516 . S
C575 C308 1.516 . S
C580 C104 1.516 . S
C585 C138 1.516 . S
C590 C478 1.516 . S
C595 C172 1.516 . S
C600 C512 1.516 . S
C605 C410 1.516 . S
C610 C206 1.516 . S
C615 C444 1.516 . S
C620 C240 1.516 . S
C625 C135 1.562 1_545 S
C630 C5 1.575 . S
C635 C39 1.575 . S
C640 C33 1.562 1_655 S
C645 C67 1.562 1_565 S
C650 C73 1.575 . S
C655 C107 1.574 . S
C660 C101 1.563 1_455 S
C665 C203 1.563 . S
C670 C141 1.574 . S
C675 C237 1.563 . S
C680 C175 1.574 . S
C685 C271 1.562 . S
C690 C209 1.575 . S
C695 C243 1.574 . S
C700 C169 1.563 . S
C705 C277 1.574 . S
C710 C407 1.563 1_565 S
C715 C311 1.574 . S
C720 C305 1.563 1_455 S
C725 C339 1.563 1_545 S
C730 C345 1.574 . S
C735 C379 1.575 . S
C740 C373 1.562 1_655 S
C745 C413 1.574 . S
C750 C475 1.563 . S
C755 C447 1.574 . S
C760 C509 1.563 . S
C765 C481 1.574 . S
C770 C543 1.563 . S
C775 C441 1.562 . S
C780 C515 1.575 . S
C785 C258 1.564 . S
C790 C20 1.565 . S
C795 C54 1.566 . S
C800 C156 1.565 . S
C805 C190 1.565 . S
C810 C88 1.565 . S
C815 C224 1.566 . S
C820 C122 1.565 . S
C825 C292 1.565 . S
C830 C530 1.565 . S
C835 C428 1.565 . S
C840 C326 1.566 . S
C845 C360 1.566 . S
C850 C462 1.566 . S
C855 C496 1.565 . S
C860 C394 1.565 . S
C865 C77 1.241 . S
C870 C9 1.241 . S
C875 C111 1.238 . S
C880 C43 1.238 . S
C885 C145 1.241 . S
C890 C213 1.241 . S
C895 C179 1.241 . S
C900 C247 1.241 . S
C905 C281 1.241 . S
C910 C349 1.241 . S
C915 C383 1.238 . S
C920 C315 1.238 . S
C925 C417 1.241 . S
C930 C485 1.241 . S
C935 C519 1.241 . S
C940 C451 1.241 . S
