# Generated by pormake.
# Topology wjg, (4)-cn, num edge types: 1
# Building blocks:
#     Node 0, Type 0, BuildingBlock: QUQFOY_clean_sbu_1, # of connection points: 4
#     Node 1, Type 0, BuildingBlock: QUQFOY_clean_sbu_1, # of connection points: 4
#     Node 2, Type 0, BuildingBlock: QUQFOY_clean_sbu_1, # of connection points: 4
#     Node 3, Type 0, BuildingBlock: QUQFOY_clean_sbu_1, # of connection points: 4
#     Node 4, Type 0, BuildingBlock: QUQFOY_clean_sbu_1, # of connection points: 4
#     Node 5, Type 0, BuildingBlock: QUQFOY_clean_sbu_1, # of connection points: 4
#     Node 6, Type 0, BuildingBlock: QUQFOY_clean_sbu_1, # of connection points: 4
#     Node 7, Type 0, BuildingBlock: QUQFOY_clean_sbu_1, # of connection points: 4
#     Node 8, Type 0, BuildingBlock: QUQFOY_clean_sbu_1, # of connection points: 4
#     Node 9, Type 0, BuildingBlock: QUQFOY_clean_sbu_1, # of connection points: 4
#     Node 10, Type 0, BuildingBlock: QUQFOY_clean_sbu_1, # of connection points: 4
#     Node 11, Type 0, BuildingBlock: QUQFOY_clean_sbu_1, # of connection points: 4
#     Edge 12, Type (0, 0), BuildingBlock: XIVTED_clean_linker_0, # of connection points: 2
#     Edge 13, Type (0, 0), BuildingBlock: XIVTED_clean_linker_0, # of connection points: 2
#     Edge 14, Type (0, 0), BuildingBlock: XIVTED_clean_linker_0, # of connection points: 2
#     Edge 15, Type (0, 0), BuildingBlock: XIVTED_clean_linker_0, # of connection points: 2
#     Edge 16, Type (0, 0), BuildingBlock: XIVTED_clean_linker_0, # of connection points: 2
#     Edge 17, Type (0, 0), BuildingBlock: XIVTED_clean_linker_0, # of connection points: 2
#     Edge 18, Type (0, 0), BuildingBlock: XIVTED_clean_linker_0, # of connection points: 2
#     Edge 19, Type (0, 0), BuildingBlock: XIVTED_clean_linker_0, # of connection points: 2
#     Edge 20, Type (0, 0), BuildingBlock: XIVTED_clean_linker_0, # of connection points: 2
#     Edge 21, Type (0, 0), BuildingBlock: XIVTED_clean_linker_0, # of connection points: 2
#     Edge 22, Type (0, 0), BuildingBlock: XIVTED_clean_linker_0, # of connection points: 2
#     Edge 23, Type (0, 0), BuildingBlock: XIVTED_clean_linker_0, # of connection points: 2
#     Edge 24, Type (0, 0), BuildingBlock: XIVTED_clean_linker_0, # of connection points: 2
#     Edge 25, Type (0, 0), BuildingBlock: XIVTED_clean_linker_0, # of connection points: 2
#     Edge 26, Type (0, 0), BuildingBlock: XIVTED_clean_linker_0, # of connection points: 2
#     Edge 27, Type (0, 0), BuildingBlock: XIVTED_clean_linker_0, # of connection points: 2
#     Edge 28, Type (0, 0), BuildingBlock: XIVTED_clean_linker_0, # of connection points: 2
#     Edge 29, Type (0, 0), BuildingBlock: XIVTED_clean_linker_0, # of connection points: 2
#     Edge 30, Type (0, 0), BuildingBlock: XIVTED_clean_linker_0, # of connection points: 2
#     Edge 31, Type (0, 0), BuildingBlock: XIVTED_clean_linker_0, # of connection points: 2
#     Edge 32, Type (0, 0), BuildingBlock: XIVTED_clean_linker_0, # of connection points: 2
#     Edge 33, Type (0, 0), BuildingBlock: XIVTED_clean_linker_0, # of connection points: 2
#     Edge 34, Type (0, 0), BuildingBlock: XIVTED_clean_linker_0, # of connection points: 2
#     Edge 35, Type (0, 0), BuildingBlock: XIVTED_clean_linker_0, # of connection points: 2
# Relax obj value: 0.296
# Max RMSD: 0.132
# Mean RMSD: 0.130
data_MOF--net-wjg--node1-QUQFOY_clean_sbu_1--edge1-XIVTED_clean_linker_0
_symmetry_space_group_name_H-M    P1
_symmetry_Int_Tables_number       1
_symmetry_cell_setting            triclinic
loop_
_symmetry_equiv_pos_as_xyz
'x, y, z'
_cell_length_a     35.242451
_cell_length_b     34.887299
_cell_length_c     40.311481
_cell_angle_alpha  90.017332
_cell_angle_beta   90.04219
_cell_angle_gamma 120.3368
loop_
_atom_site_label
_atom_site_type_symbol
_atom_site_fract_x
_atom_site_fract_y
_atom_site_fract_z
_atom_type_partial_charge
O0 O 0.15754 0.35059 0.322 0.0
Cd1 Cd 0.09966 0.34753 0.33364 0.0
Cd2 Cd 0.15486 0.42431 0.36804 0.0
O3 O 0.19306 0.39503 0.36381 0.0
O4 O 0.05657 0.30027 0.30371 0.0
O5 O 0.07139 0.36985 0.30133 0.0
C6 C 0.05126 0.33013 0.28913 0.0
C7 C 0.19482 0.50178 0.36746 0.0
C8 C 0.1901 0.36766 0.34172 0.0
C9 C 0.08784 0.35305 0.40577 0.0
O10 O 0.10146 0.39339 0.39876 0.0
O11 O 0.08267 0.3266 0.38226 0.0
O12 O 0.19411 0.47951 0.39311 0.0
O13 O 0.17146 0.47998 0.34208 0.0
O14 O 0.79715 0.14013 0.65764 0.0
Cd15 Cd 0.73202 0.09636 0.66603 0.0
Cd16 Cd 0.72762 0.17067 0.67708 0.0
O17 O 0.79251 0.20067 0.66222 0.0
O18 O 0.71136 0.0425 0.63791 0.0
O19 O 0.69008 0.09201 0.63066 0.0
C20 C 0.68969 0.05648 0.62082 0.0
C21 C 0.69527 0.21508 0.67244 0.0
C22 C 0.81522 0.18219 0.65737 0.0
C23 C 0.71587 0.10882 0.73506 0.0
O24 O 0.71647 0.14282 0.72329 0.0
O25 O 0.71929 0.0818 0.71591 0.0
O26 O 0.72654 0.22399 0.69284 0.0
O27 O 0.68251 0.18121 0.65323 0.0
O28 O 0.57548 0.70004 0.06509 0.0
Cd29 Cd 0.54411 0.71893 0.03178 0.0
Cd30 Cd 0.62185 0.74754 1.00003 0.0
O31 O 0.64151 0.74995 0.04892 0.0
O32 O 0.48823 0.69893 0.05611 0.0
O33 O 0.49019 0.67639 1.00536 0.0
C34 C 0.46736 0.67615 0.03046 0.0
C35 C 0.64049 0.71876 0.95464 0.0
C36 C 0.61553 0.72677 0.07202 0.0
C37 C 0.59552 0.81388 1.00841 0.0
O38 O 0.61657 0.80191 0.98966 0.0
O39 O 0.5674 0.78649 0.02876 0.0
O40 O 0.66944 0.75399 0.96994 0.0
O41 O 0.60108 0.69778 0.96662 0.0
O42 O 0.82077 0.64391 0.32407 0.0
Cd43 Cd 0.87842 0.64603 0.33494 0.0
Cd44 Cd 0.82333 0.56859 0.36868 0.0
O45 O 0.78525 0.59804 0.36515 0.0
O46 O 0.92177 0.69276 0.30488 0.0
O47 O 0.90555 0.62271 0.30251 0.0
C48 C 0.9263 0.66239 0.2903 0.0
C49 C 0.78299 0.4911 0.36776 0.0
C50 C 0.78827 0.62621 0.34378 0.0
C51 C 0.89071 0.63937 0.4068 0.0
O52 O 0.87697 0.59911 0.39934 0.0
O53 O 0.89592 0.66622 0.38362 0.0
O54 O 0.78409 0.51328 0.3936 0.0
O55 O 0.8062 0.51297 0.3424 0.0
O56 O 0.17408 0.84938 0.65692 0.0
Cd57 Cd 0.23907 0.89318 0.666 0.0
Cd58 Cd 0.24344 0.81855 0.67621 0.0
O59 O 0.17892 0.78887 0.66043 0.0
O60 O 0.26006 0.94747 0.63836 0.0
O61 O 0.28152 0.89812 0.63093 0.0
C62 C 0.282 0.93376 0.62131 0.0
C63 C 0.27562 0.77392 0.67203 0.0
C64 C 0.15616 0.80736 0.65588 0.0
C65 C 0.25401 0.87922 0.73491 0.0
O66 O 0.25345 0.84543 0.72274 0.0
O67 O 0.25113 0.90682 0.71607 0.0
O68 O 0.24384 0.76485 0.6919 0.0
O69 O 0.289 0.80806 0.65305 0.0
O70 O 0.40028 0.28613 0.06365 0.0
Cd71 Cd 0.43513 0.26938 0.03212 0.0
Cd72 Cd 0.35833 0.23923 0.99762 0.0
O73 O 0.33637 0.23316 0.04623 0.0
O74 O 0.48944 0.28977 0.05876 0.0
O75 O 0.49032 0.31361 1.00793 0.0
C76 C 0.51171 0.31354 0.03392 0.0
C77 C 0.33825 0.26779 0.95288 0.0
C78 C 0.36067 0.25712 0.06985 0.0
C79 C 0.38862 0.176 1.00534 0.0
O80 O 0.36861 0.18827 0.98572 0.0
O81 O 0.41368 0.20231 0.02768 0.0
O82 O 0.31052 0.23085 0.96689 0.0
O83 O 0.37705 0.29038 0.96581 0.0
O84 O 0.65815 0.83747 0.36962 0.0
Cd85 Cd 0.63467 0.87811 0.35598 0.0
Cd86 Cd 0.55809 0.80194 0.3517 0.0
O87 O 0.5935 0.77616 0.37334 0.0
O88 O 0.6645 0.93484 0.38142 0.0
O89 O 0.59462 0.88257 0.38881 0.0
C90 C 0.62824 0.91993 0.3979 0.0
C91 C 0.48156 0.76177 0.35838 0.0
C92 C 0.63514 0.79622 0.37592 0.0
C93 C 0.60494 0.85222 0.28823 0.0
O94 O 0.57384 0.81917 0.30297 0.0
O95 O 0.63421 0.88463 0.30491 0.0
O96 O 0.50212 0.74665 0.34167 0.0
O97 O 0.50444 0.79948 0.3731 0.0
O98 O 0.81631 0.66589 0.69453 0.0
Cd99 Cd 0.75424 0.6521 0.68336 0.0
Cd100 Cd 0.74333 0.57204 0.66488 0.0
O101 O 0.80856 0.60175 0.67903 0.0
O102 O 0.74525 0.69366 0.71144 0.0
O103 O 0.7064 0.62057 0.71733 0.0
C104 C 0.71638 0.6596 0.72789 0.0
C105 C 0.70475 0.49403 0.6666 0.0
C106 C 0.8325 0.64109 0.68981 0.0
C107 C 0.74115 0.6331 0.61187 0.0
O108 O 0.73424 0.59522 0.62077 0.0
O109 O 0.74868 0.66269 0.63347 0.0
O110 O 0.73575 0.51609 0.6458 0.0
O111 O 0.69549 0.51609 0.68749 0.0
O112 O 0.171 0.76106 0.96954 0.0
Cd113 Cd 0.19517 0.7631 0.01613 0.0
Cd114 Cd 0.12996 0.78044 0.02811 0.0
O115 O 0.11749 0.77521 0.97768 0.0
O116 O 0.24006 0.74872 1.00114 0.0
O117 O 0.19023 0.70837 0.0386 0.0
C118 C 0.22294 0.7148 0.02033 0.0
C119 C 0.07959 0.74332 0.07036 0.0
C120 C 0.14151 0.76807 0.95812 0.0
C121 C 0.22228 0.85381 0.04124 0.0
O122 O 0.18162 0.84125 0.04072 0.0
O123 O 0.23515 0.82675 0.03404 0.0
O124 O 0.07895 0.77441 0.05344 0.0
O125 O 0.10725 0.73109 0.0617 0.0
O126 O 0.31969 0.15599 0.36815 0.0
Cd127 Cd 0.34217 0.11397 0.35611 0.0
Cd128 Cd 0.41961 0.18944 0.35075 0.0
O129 O 0.38492 0.21671 0.37126 0.0
O130 O 0.31096 0.05794 0.3822 0.0
O131 O 0.38119 0.10914 0.38982 0.0
C132 C 0.34697 0.07233 0.39897 0.0
C133 C 0.49624 0.22993 0.35729 0.0
C134 C 0.3433 0.19741 0.37369 0.0
C135 C 0.37193 0.13674 0.2881 0.0
O136 O 0.4034 0.17014 0.30231 0.0
O137 O 0.34243 0.10531 0.30531 0.0
O138 O 0.47559 0.24418 0.33974 0.0
O139 O 0.47342 0.19287 0.37281 0.0
O140 O 0.15539 0.32217 0.6955 0.0
Cd141 Cd 0.21751 0.33603 0.68448 0.0
Cd142 Cd 0.22837 0.41675 0.66643 0.0
O143 O 0.16307 0.38645 0.68044 0.0
O144 O 0.22606 0.29352 0.71173 0.0
O145 O 0.26509 0.36637 0.71893 0.0
C146 C 0.25498 0.32701 0.72869 0.0
C147 C 0.26623 0.49476 0.66817 0.0
C148 C 0.13917 0.34699 0.69099 0.0
C149 C 0.23181 0.35647 0.6132 0.0
O150 O 0.23824 0.39409 0.62234 0.0
O151 O 0.22377 0.32646 0.63451 0.0
O152 O 0.2353 0.47241 0.64733 0.0
O153 O 0.27577 0.473 0.68913 0.0
O154 O 0.80037 0.22521 0.97148 0.0
Cd155 Cd 0.78091 0.22516 0.0193 0.0
Cd156 Cd 0.84852 0.21177 0.02749 0.0
O157 O 0.85744 0.21598 0.97659 0.0
O158 O 0.73483 0.23923 1.00739 0.0
O159 O 0.78895 0.28118 0.04171 0.0
C160 C 0.75456 0.27425 0.02542 0.0
C161 C 0.89964 0.25214 0.06849 0.0
C162 C 0.83026 0.22013 0.95842 0.0
C163 C 0.75882 0.13667 0.04534 0.0
O164 O 0.79957 0.15052 0.04212 0.0
O165 O 0.74388 0.16234 0.03934 0.0
O166 O 0.90194 0.22194 0.05154 0.0
O167 O 0.87002 0.26192 0.06024 0.0
H168 H 0.22258 0.55582 0.31287 0.0
H169 H 0.42672 0.74923 0.41092 0.0
H170 H 0.238 0.55761 0.41918 0.0
H171 H 0.4272 0.71596 0.30797 0.0
H172 H 0.34729 0.69483 0.41314 0.0
H173 H 0.28643 0.63095 0.31024 0.0
C174 C 0.23867 0.57242 0.33573 0.0
C175 C 0.22571 0.55012 0.36619 0.0
C176 C 0.36475 0.70029 0.38993 0.0
C177 C 0.29869 0.63567 0.36334 0.0
C178 C 0.40984 0.73127 0.38867 0.0
C179 C 0.43329 0.7362 0.3594 0.0
C180 C 0.34336 0.675 0.36156 0.0
C181 C 0.41022 0.71235 0.33117 0.0
C182 C 0.2752 0.6152 0.3342 0.0
C183 C 0.24756 0.57333 0.39508 0.0
N184 N 0.36661 0.68253 0.333 0.0
N185 N 0.28349 0.61463 0.39292 0.0
H186 H 0.66302 0.23779 0.61857 0.0
H187 H 0.6675 0.43736 0.7193 0.0
H188 H 0.68525 0.25885 0.7239 0.0
H189 H 0.69313 0.44009 0.61447 0.0
H190 H 0.6465 0.35865 0.72052 0.0
H191 H 0.64676 0.29854 0.61661 0.0
C192 C 0.66331 0.25442 0.64134 0.0
C193 C 0.67632 0.24417 0.6713 0.0
C194 C 0.65577 0.37633 0.69713 0.0
C195 C 0.65772 0.3129 0.66936 0.0
C196 C 0.66757 0.42107 0.69644 0.0
C197 C 0.68292 0.44524 0.66691 0.0
C198 C 0.65904 0.35589 0.66804 0.0
C199 C 0.68234 0.4227 0.6379 0.0
C200 C 0.65422 0.28906 0.64024 0.0
C201 C 0.67619 0.26652 0.70019 0.0
N202 N 0.67117 0.3794 0.63925 0.0
N203 N 0.66757 0.30019 0.69846 0.0
H204 H 0.41446 0.64825 0.97539 0.0
H205 H 0.23178 0.67109 0.07378 0.0
H206 H 0.41072 0.65881 0.08185 0.0
H207 H 0.25794 0.6935 0.96898 0.0
H208 H 0.27952 0.6386 0.07607 0.0
H209 H 0.33962 0.63554 0.97237 0.0
C210 C 0.39745 0.6466 0.99819 0.0
C211 C 0.41918 0.6559 0.02882 0.0
C212 C 0.27382 0.64959 0.05244 0.0
C213 C 0.3341 0.642 0.02554 0.0
C214 C 0.24654 0.66794 0.05114 0.0
C215 C 0.24198 0.68581 0.02132 0.0
C216 C 0.29611 0.64901 0.02365 0.0
C217 C 0.26157 0.68094 0.99262 0.0
C218 C 0.35481 0.63954 0.99646 0.0
C219 C 0.39547 0.65293 0.05763 0.0
N220 N 0.28828 0.66356 0.99456 0.0
N221 N 0.35449 0.64716 0.05525 0.0
H222 H 0.5508 0.2434 0.4103 0.0
H223 H 0.75512 0.43724 0.31299 0.0
H224 H 0.55092 0.27574 0.30707 0.0
H225 H 0.73941 0.43516 0.41927 0.0
H226 H 0.69125 0.36214 0.31009 0.0
H227 H 0.63004 0.29832 0.41293 0.0
C228 C 0.56777 0.26127 0.38808 0.0
C229 C 0.54451 0.25589 0.35861 0.0
C230 C 0.7024 0.37783 0.33411 0.0
C231 C 0.63427 0.31775 0.36124 0.0
C232 C 0.73894 0.4206 0.33579 0.0
C233 C 0.75188 0.44279 0.36632 0.0
C234 C 0.67884 0.35726 0.36316 0.0
C235 C 0.7299 0.41952 0.39512 0.0
C236 C 0.61276 0.29257 0.38958 0.0
C237 C 0.56772 0.27967 0.33043 0.0
N238 N 0.69397 0.37823 0.3928 0.0
N239 N 0.61124 0.30981 0.33249 0.0
H240 H 0.3083 0.75086 0.61866 0.0
H241 H 0.30309 0.55187 0.72077 0.0
H242 H 0.28502 0.73036 0.72389 0.0
H243 H 0.27766 0.54821 0.6158 0.0
H244 H 0.32394 0.63056 0.7216 0.0
H245 H 0.32438 0.68994 0.6173 0.0
C246 C 0.30776 0.73432 0.64155 0.0
C247 C 0.29451 0.74477 0.67128 0.0
C248 C 0.31473 0.61268 0.69828 0.0
C249 C 0.3129 0.67588 0.67004 0.0
C250 C 0.30301 0.56795 0.6978 0.0
C251 C 0.28778 0.54354 0.66834 0.0
C252 C 0.31153 0.63285 0.66902 0.0
C253 C 0.28836 0.5658 0.63919 0.0
C254 C 0.31674 0.69958 0.64078 0.0
C255 C 0.29428 0.72254 0.70033 0.0
N256 N 0.29947 0.6091 0.64031 0.0
N257 N 0.30282 0.68879 0.69894 0.0
H258 H 0.72794 0.30341 0.97356 0.0
H259 H 0.56545 0.33059 0.08737 0.0
H260 H 0.74039 0.31226 0.08 0.0
H261 H 0.56777 0.34286 0.9808 0.0
H262 H 0.64021 0.34364 0.08594 0.0
H263 H 0.68208 0.33718 0.97583 0.0
C264 C 0.72172 0.31354 0.9974 0.0
C265 C 0.73712 0.30452 0.02669 0.0
C266 C 0.62491 0.34466 0.06291 0.0
C267 C 0.68346 0.34172 0.02971 0.0
C268 C 0.58216 0.33719 0.0637 0.0
C269 C 0.55999 0.33435 0.03403 0.0
C270 C 0.64523 0.34846 0.03218 0.0
C271 C 0.5834 0.34397 1.0042 0.0
C272 C 0.69555 0.33283 0.99873 0.0
C273 C 0.72872 0.31852 0.05692 0.0
N274 N 0.62441 0.34948 1.00394 0.0
N275 N 0.70135 0.3354 0.05777 0.0
H276 H 0.18148 0.29587 0.30809 0.0
H277 H 0.38139 0.28665 0.38751 0.0
H278 H 0.26443 0.39555 0.37966 0.0
H279 H 0.25672 0.16998 0.36436 0.0
H280 H 0.34742 0.33249 0.37911 0.0
H281 H 0.2201 0.25589 0.31942 0.0
C282 C 0.20836 0.30987 0.32574 0.0
C283 C 0.2194 0.34891 0.34323 0.0
C284 C 0.32762 0.29678 0.37636 0.0
C285 C 0.26336 0.30291 0.35646 0.0
C286 C 0.34678 0.27059 0.38131 0.0
C287 C 0.32195 0.2244 0.37636 0.0
C288 C 0.28379 0.27659 0.36573 0.0
C289 C 0.27726 0.20539 0.36832 0.0
C290 C 0.23001 0.28671 0.33245 0.0
C291 C 0.25465 0.36538 0.3658 0.0
N292 N 0.25984 0.23164 0.3627 0.0
N293 N 0.2754 0.34214 0.37191 0.0
H294 H 0.86682 0.27327 0.65708 0.0
H295 H 0.07876 0.26347 0.71135 0.0
H296 H 0.87412 0.15335 0.6593 0.0
H297 H 0.08941 0.38393 0.67247 0.0
H298 H -0.0001 0.22512 0.70157 0.0
H299 H 0.94602 0.31658 0.66833 0.0
C300 C 0.88511 0.2561 0.65937 0.0
C301 C 0.8637 0.20953 0.65742 0.0
C302 C 0.01946 0.26003 0.69537 0.0
C303 C 0.95361 0.25867 0.67117 0.0
C304 C 0.06447 0.28213 0.70126 0.0
C305 C 0.09091 0.32689 0.69229 0.0
C306 C 0.00053 0.28281 0.68059 0.0
C307 C 0.07032 0.34933 0.67957 0.0
C308 C 0.93017 0.28082 0.666 0.0
C309 C 0.88906 0.18909 0.66066 0.0
N310 N 0.02624 0.32691 0.67382 0.0
N311 N 0.93252 0.21374 0.66778 0.0
H312 H 0.78064 0.0739 0.05919 0.0
H313 H 0.55641 0.85362 0.04215 0.0
H314 H 0.66832 0.08929 0.04031 0.0
H315 H 0.67002 0.88308 0.98279 0.0
H316 H 0.59135 0.93309 0.05636 0.0
H317 H 0.73437 0.99425 0.05047 0.0
C318 C 0.74603 0.06052 0.05401 0.0
C319 C 0.72857 0.0885 0.04971 0.0
C320 C 0.60797 0.92182 0.03987 0.0
C321 C 0.67572 -0.00258 0.03986 0.0
C322 C 0.58817 0.87676 0.03161 0.0
C323 C 0.61049 0.86163 1.01143 0.0
C324 C 0.65058 0.95115 0.02852 0.0
C325 C 0.65158 0.89303 0.99849 0.0
C326 C 0.71982 0.01513 0.04885 0.0
C327 C 0.68321 0.06895 0.04347 0.0
N328 N 0.67066 0.93613 1.00782 0.0
N329 N 0.65821 0.02434 0.03828 0.0
H330 H 0.72311 0.82652 0.37263 0.0
H331 H 0.71117 0.59395 0.37881 0.0
H332 H 0.59789 0.70634 0.38644 0.0
H333 H 0.80041 0.70275 0.31602 0.0
H334 H 0.6724 0.63428 0.39131 0.0
H335 H 0.7575 0.78171 0.36493 0.0
C336 C 0.70291 0.79076 0.37475 0.0
C337 C 0.65736 0.77014 0.37966 0.0
C338 C 0.70021 0.64885 0.37456 0.0
C339 C 0.69666 0.7188 0.37052 0.0
C340 C 0.72215 0.62588 0.36724 0.0
C341 C 0.75918 0.64509 0.34641 0.0
C342 C 0.71616 0.69154 0.36153 0.0
C343 C 0.77207 0.68658 0.33217 0.0
C344 C 0.72255 0.76523 0.36997 0.0
C345 C 0.63305 0.72359 0.38237 0.0
N346 N 0.75099 0.70868 0.3404 0.0
N347 N 0.65299 0.69931 0.37749 0.0
H348 H 0.10485 0.71627 0.65434 0.0
H349 H 0.8929 0.72424 0.71098 0.0
H350 H 0.09699 0.83584 0.6583 0.0
H351 H 0.88227 0.60464 0.67021 0.0
H352 H 0.97166 0.76299 0.70083 0.0
H353 H 0.0257 0.67252 0.66552 0.0
C354 C 0.08644 0.73329 0.65697 0.0
C355 C 0.1077 0.77987 0.65558 0.0
C356 C 0.95214 0.72817 0.6943 0.0
C357 C 0.01785 0.7302 0.66928 0.0
C358 C 0.90718 0.70584 0.70041 0.0
C359 C 0.88077 0.66123 0.69101 0.0
C360 C 0.97102 0.70577 0.67888 0.0
C361 C 0.90135 0.63912 0.67767 0.0
C362 C 0.04141 0.7083 0.66357 0.0
C363 C 0.08218 0.80009 0.65924 0.0
N364 N 0.94537 0.66176 0.67171 0.0
N365 N 0.03876 0.77517 0.66634 0.0
H366 H 0.32484 0.10834 0.96878 0.0
H367 H 0.31298 0.89678 0.03856 0.0
H368 H 0.42099 0.13508 0.04541 0.0
H369 H 0.20454 0.92075 0.04815 0.0
H370 H 0.36246 0.97688 0.02887 0.0
H371 H 0.29033 0.02931 0.98106 0.0
C372 C 0.33948 0.09765 0.98758 0.0
C373 C 0.3754 0.12852 1.00655 0.0
C374 C 0.32791 0.96424 0.03371 0.0
C375 C 0.33605 0.03823 0.02035 0.0
C376 C 0.29973 0.91881 0.03939 0.0
C377 C 0.25438 0.90189 0.04373 0.0
C378 C 0.31014 0.99213 0.0317 0.0
C379 C 0.23904 0.93201 0.04455 0.0
C380 C 0.31956 0.05261 0.99463 0.0
C381 C 0.39299 0.1124 0.03049 0.0
N382 N 0.26669 0.97548 0.0378 0.0
N383 N 0.37276 0.0681 0.03706 0.0
H384 H 0.90534 0.31774 0.11006 0.0
H385 H 0.01882 0.25418 0.25289 0.0
H386 H 0.9545 0.22775 0.09672 0.0
H387 H 0.02768 0.38221 0.25301 0.0
H388 H 0.98464 0.23922 0.19836 0.0
H389 H 0.94231 0.33913 0.16436 0.0
C390 C 0.92434 0.30295 0.11828 0.0
C391 C 0.92667 0.27076 0.09882 0.0
C392 C -0.00604 0.27059 0.2103 0.0
C393 C 0.96787 0.29422 0.16097 0.0
C394 C 0.01318 0.27905 0.24163 0.0
C395 C 0.02627 0.3196 0.2576 0.0
C396 C 0.98715 0.30259 0.19476 0.0
C397 C 0.01814 0.35053 0.24156 0.0
C398 C 0.94527 0.31509 0.14926 0.0
C399 C 0.95165 0.25262 0.11078 0.0
N400 N -0.00105 0.34136 0.21096 0.0
N401 N 0.97074 0.26418 0.14118 0.0
H402 H 0.65378 0.96898 0.60421 0.0
H403 H 0.67865 0.00798 0.4141 0.0
H404 H 0.68025 0.09507 0.56488 0.0
H405 H 0.57679 0.88234 0.45242 0.0
H406 H 0.68462 0.0415 0.46885 0.0
H407 H 0.62972 0.93602 0.5489 0.0
C408 C 0.65387 0.98952 0.58402 0.0
C409 C 0.6689 0.03475 0.58907 0.0
C410 C 0.66043 0.0068 0.46503 0.0
C411 C 0.64277 -0.00232 0.52577 0.0
C412 C 0.65704 0.98767 0.43387 0.0
C413 C 0.62716 0.94236 0.42875 0.0
C414 C 0.63477 0.98006 0.49144 0.0
C415 C 0.60007 0.91747 0.45527 0.0
C416 C 0.64009 0.97071 0.55256 0.0
C417 C 0.66857 0.05998 0.56205 0.0
N418 N 0.60517 0.93641 0.48569 0.0
N419 N 0.65661 0.04133 0.53135 0.0
H420 H 0.71662 0.76435 0.91965 0.0
H421 H 0.6519 0.59623 0.76823 0.0
H422 H 0.58944 0.64466 0.91605 0.0
H423 H 0.74326 0.73717 0.76106 0.0
H424 H 0.63188 0.60785 0.82431 0.0
H425 H 0.73206 0.74836 0.86414 0.0
C426 C 0.69205 0.73437 0.90737 0.0
C427 C 0.65155 0.70589 0.92258 0.0
C428 C 0.65599 0.63613 0.81021 0.0
C429 C 0.66912 0.68751 0.8586 0.0
C430 C 0.66735 0.62959 0.77823 0.0
C431 C 0.69934 0.66578 0.75987 0.0
C432 C 0.67745 0.67897 0.82404 0.0
C433 C 0.71841 0.70825 0.77415 0.0
C434 C 0.7008 0.72547 0.87549 0.0
C435 C 0.62105 0.66757 0.90523 0.0
N436 N 0.70754 0.71354 0.80542 0.0
N437 N 0.63045 0.65942 0.8741 0.0
H438 H 0.02683 0.77067 0.09815 0.0
H439 H 0.94945 0.60951 0.25489 0.0
H440 H 0.07134 0.67701 0.11234 0.0
H441 H 0.959 0.73783 0.25347 0.0
H442 H 0.985 0.62571 0.20005 0.0
H443 H -0.01004 0.7492 0.15165 0.0
C444 C 0.02845 0.74516 0.11232 0.0
C445 C 0.0525 0.72583 0.10075 0.0
C446 C 0.97946 0.65027 0.21198 0.0
C447 C 0.01036 0.70124 0.16241 0.0
C448 C 0.9593 0.64114 0.24323 0.0
C449 C 0.95128 0.67239 0.25884 0.0
C450 C -0.00922 0.6905 0.1961 0.0
C451 C 0.96459 0.71276 0.24253 0.0
C452 C 0.00762 0.73316 0.14303 0.0
C453 C 0.05329 0.69289 0.12035 0.0
N454 N 0.98326 0.72043 0.21203 0.0
N455 N 0.03257 0.68163 0.15033 0.0
H456 H 0.29591 0.98433 0.41481 0.0
H457 H 0.31767 0.02141 0.60526 0.0
H458 H 0.39724 0.10965 0.45417 0.0
H459 H 0.29253 0.89601 0.56534 0.0
H460 H 0.34242 0.05503 0.55024 0.0
H461 H 0.28896 0.95045 0.46952 0.0
C462 C 0.31717 0.0045 0.43482 0.0
C463 C 0.34724 0.04981 0.42999 0.0
C464 C 0.33218 0.02034 0.55372 0.0
C465 C 0.3385 0.01169 0.49262 0.0
C466 C 0.31801 0.00117 0.58501 0.0
C467 C 0.30316 0.95594 0.58981 0.0
C468 C 0.33006 0.99374 0.52683 0.0
C469 C 0.30406 0.93109 0.56271 0.0
C470 C 0.31323 0.98517 0.46595 0.0
C471 C 0.37385 0.07453 0.4568 0.0
N472 N 0.31638 0.95008 0.53217 0.0
N473 N 0.36823 0.05538 0.48718 0.0
H474 H 0.38628 0.34542 0.91733 0.0
H475 H 0.23088 0.24801 0.7587 0.0
H476 H 0.26457 0.21971 0.91555 0.0
H477 H 0.31741 0.38923 0.771 0.0
H478 H 0.25204 0.23604 0.81349 0.0
H479 H 0.3689 0.36183 0.86182 0.0
C480 C 0.35579 0.3215 0.90547 0.0
C481 C 0.32685 0.2811 0.92116 0.0
C482 C 0.26658 0.26968 0.80421 0.0
C483 C 0.30742 0.29922 0.85763 0.0
C484 C 0.25477 0.27656 0.77274 0.0
C485 C 0.27225 0.31975 0.76019 0.0
C486 C 0.29647 0.30613 0.82338 0.0
C487 C 0.30306 0.35538 0.77972 0.0
C488 C 0.34598 0.33086 0.87382 0.0
C489 C 0.28788 0.25129 0.90455 0.0
N490 N 0.31422 0.3478 0.81042 0.0
N491 N 0.27958 0.26076 0.87368 0.0
H492 H 0.08078 0.27507 0.429 0.0
H493 H 0.26606 0.41206 0.56058 0.0
H494 H 0.12187 0.4096 0.45852 0.0
H495 H 0.16957 0.27711 0.5859 0.0
H496 H 0.22586 0.40471 0.50943 0.0
H497 H 0.12022 0.26882 0.47725 0.0
C498 C 0.09703 0.30286 0.44595 0.0
C499 C 0.09839 0.3432 0.43928 0.0
C500 C 0.21412 0.37635 0.52582 0.0
C501 C 0.14486 0.33665 0.49323 0.0
C502 C 0.23744 0.38023 0.55471 0.0
C503 C 0.2208 0.3454 0.57779 0.0
C504 C 0.17417 0.33721 0.51971 0.0
C505 C 0.18349 0.30483 0.56881 0.0
C506 C 0.11988 0.29933 0.47318 0.0
C507 C 0.12012 0.37801 0.46221 0.0
N508 N 0.16075 0.30203 0.54063 0.0
N509 N 0.14324 0.37424 0.48763 0.0
H510 H 0.80095 0.25365 0.911 0.0
H511 H 0.76655 0.08209 0.76837 0.0
H512 H 0.84538 0.16011 0.92537 0.0
H513 H 0.68522 0.14039 0.78314 0.0
H514 H 0.80067 0.11092 0.82286 0.0
H515 H 0.76914 0.21889 0.85797 0.0
C516 C 0.80512 0.22653 0.90248 0.0
C517 C 0.82569 0.20965 0.92265 0.0
C518 C 0.77463 0.11642 0.8144 0.0
C519 C 0.78785 0.16851 0.86236 0.0
C520 C 0.75456 0.0993 0.78362 0.0
C521 C 0.72314 0.1091 0.77116 0.0
C522 C 0.76333 0.14372 0.83236 0.0
C523 C 0.70947 0.13229 0.7917 0.0
C524 C 0.78625 0.20616 0.87247 0.0
C525 C 0.83005 0.17433 0.91041 0.0
N526 N 0.73021 0.1495 0.82091 0.0
N527 N 0.81075 0.15445 0.88109 0.0
H528 H 0.54083 0.80389 0.24363 0.0
H529 H 0.68697 0.80385 0.09565 0.0
H530 H 0.68186 0.88428 0.25253 0.0
H531 H 0.56618 0.68856 0.12738 0.0
H532 H 0.68822 0.84133 0.1476 0.0
H533 H 0.54991 0.77291 0.19214 0.0
C534 C 0.57377 0.81601 0.23422 0.0
C535 C 0.61063 0.84645 0.25257 0.0
C536 C 0.66202 0.80752 0.1433 0.0
C537 C 0.62125 0.81014 0.19393 0.0
C538 C 0.66149 0.7858 0.11388 0.0
C539 C 0.62593 0.74309 0.10676 0.0
C540 C 0.6265 0.78654 0.16532 0.0
C541 C 0.5939 0.72162 0.13141 0.0
C542 C 0.57892 0.79775 0.20511 0.0
C543 C 0.65255 0.86101 0.23908 0.0
N544 N 0.59442 0.74391 0.15915 0.0
N545 N 0.65683 0.84232 0.2106 0.0
H546 H 0.86182 0.58364 0.4602 0.0
H547 H 0.80225 0.71411 0.58602 0.0
H548 H 0.89277 0.71511 0.42987 0.0
H549 H 0.71204 0.57808 0.55849 0.0
H550 H 0.84485 0.7227 0.53539 0.0
H551 H 0.82122 0.58859 0.50725 0.0
C552 C 0.86118 0.61408 0.46382 0.0
C553 C 0.88011 0.64862 0.44049 0.0
C554 C 0.81501 0.69146 0.54014 0.0
C555 C 0.83315 0.65412 0.49437 0.0
C556 C 0.79021 0.68668 0.56868 0.0
C557 C 0.75382 0.64503 0.57676 0.0
C558 C 0.80343 0.65417 0.5202 0.0
C559 C 0.74016 0.61057 0.5535 0.0
C560 C 0.83741 0.61655 0.49046 0.0
C561 C 0.87834 0.68743 0.44698 0.0
N562 N 0.76568 0.61548 0.52684 0.0
N563 N 0.85479 0.68904 0.47324 0.0
H564 H 0.16365 0.7307 0.90861 0.0
H565 H 0.20455 0.90722 0.76864 0.0
H566 H 0.12884 0.83086 0.92704 0.0
H567 H 0.28236 0.8448 0.78253 0.0
H568 H 0.16978 0.87805 0.82288 0.0
H569 H 0.19426 0.76492 0.85521 0.0
C570 C 0.1612 0.75914 0.90091 0.0
C571 C 0.14393 0.77811 0.92236 0.0
C572 C 0.19517 0.87168 0.81425 0.0
C573 C 0.18042 0.81852 0.86168 0.0
C574 C 0.21562 0.88896 0.78363 0.0
C575 C 0.24625 0.87818 0.77099 0.0
C576 C 0.20524 0.84319 0.83182 0.0
C577 C 0.25872 0.85368 0.7912 0.0
C578 C 0.17942 0.77916 0.87069 0.0
C579 C 0.14167 0.81507 0.91112 0.0
N580 N 0.23759 0.83633 0.82023 0.0
N581 N 0.16036 0.83458 0.8816 0.0
H582 H 0.43583 0.18371 0.24308 0.0
H583 H 0.29077 0.17808 0.09242 0.0
H584 H 0.29488 0.10279 0.25216 0.0
H585 H 0.408 0.29612 0.12592 0.0
H586 H 0.28953 0.14132 0.14479 0.0
H587 H 0.42632 0.21257 0.19068 0.0
C588 C 0.40283 0.171 0.23355 0.0
C589 C 0.3661 0.14111 0.25222 0.0
C590 C 0.31492 0.17553 0.14074 0.0
C591 C 0.35502 0.17491 0.19247 0.0
C592 C 0.31545 0.19679 0.11107 0.0
C593 C 0.35003 0.24018 0.1044 0.0
C594 C 0.34954 0.19764 0.16341 0.0
C595 C 0.38107 0.26254 0.12959 0.0
C596 C 0.39744 0.18803 0.2039 0.0
C597 C 0.32409 0.12571 0.23851 0.0
N598 N 0.38065 0.24071 0.15755 0.0
N599 N 0.31958 0.14321 0.20949 0.0
loop_
_geom_bond_atom_site_label_1
_geom_bond_atom_site_label_2
_geom_bond_distance
_geom_bond_site_symmetry_2
_ccdc_geom_bond_type
O0 Cd1 2.223 . S
O0 C8 1.315 . S
Cd1 O0 2.223 . S
Cd1 O4 2.297 . S
Cd1 O5 2.439 . S
Cd1 O11 2.240 . S
Cd2 O3 2.240 . S
Cd2 O10 2.223 . S
Cd2 O12 2.297 . S
Cd2 O13 2.439 . S
O3 Cd2 2.240 . S
O3 C8 1.279 . S
O4 Cd1 2.297 . S
O4 C6 1.247 . S
O5 Cd1 2.439 . S
O5 C6 1.208 . S
C6 O4 1.247 . S
C6 O5 1.208 . S
C7 O12 1.247 . S
C7 O13 1.208 . S
C8 O0 1.315 . S
C8 O3 1.279 . S
C9 O10 1.315 . S
C9 O11 1.279 . S
O10 Cd2 2.223 . S
O10 C9 1.315 . S
O11 Cd1 2.240 . S
O11 C9 1.279 . S
O12 Cd2 2.297 . S
O12 C7 1.247 . S
O13 Cd2 2.439 . S
O13 C7 1.208 . S
O14 Cd15 2.223 . S
O14 C22 1.315 . S
Cd15 O14 2.223 . S
Cd15 O18 2.297 . S
Cd15 O19 2.439 . S
Cd15 O25 2.240 . S
Cd16 O17 2.240 . S
Cd16 O24 2.223 . S
Cd16 O26 2.297 . S
Cd16 O27 2.439 . S
O17 Cd16 2.240 . S
O17 C22 1.279 . S
O18 Cd15 2.297 . S
O18 C20 1.247 . S
O19 Cd15 2.439 . S
O19 C20 1.208 . S
C20 O18 1.247 . S
C20 O19 1.208 . S
C21 O26 1.247 . S
C21 O27 1.208 . S
C22 O14 1.315 . S
C22 O17 1.279 . S
C23 O24 1.315 . S
C23 O25 1.279 . S
O24 Cd16 2.223 . S
O24 C23 1.315 . S
O25 Cd15 2.240 . S
O25 C23 1.279 . S
O26 Cd16 2.297 . S
O26 C21 1.247 . S
O27 Cd16 2.439 . S
O27 C21 1.208 . S
O28 Cd29 2.223 . S
O28 C36 1.315 . S
Cd29 O28 2.223 . S
Cd29 O32 2.297 . S
Cd29 O33 2.439 1_554 S
Cd29 O39 2.240 1_554 S
Cd30 O31 2.240 . S
Cd30 O38 2.223 . S
Cd30 O40 2.297 1_554 S
Cd30 O41 2.439 1_554 S
O31 Cd30 2.240 . S
O31 C36 1.279 . S
O32 Cd29 2.297 . S
O32 C34 1.247 . S
O33 Cd29 2.439 1_556 S
O33 C34 1.208 1_556 S
C34 O32 1.247 . S
C34 O33 1.208 1_554 S
C35 O40 1.247 . S
C35 O41 1.208 . S
C36 O28 1.315 . S
C36 O31 1.279 . S
C37 O38 1.310 1_556 S
C37 O39 1.286 . S
O38 Cd30 2.223 . S
O38 C37 1.310 1_554 S
O39 Cd29 2.240 1_556 S
O39 C37 1.286 . S
O40 Cd30 2.297 1_556 S
O40 C35 1.247 . S
O41 Cd30 2.439 1_556 S
O41 C35 1.208 . S
O42 Cd43 2.223 . S
O42 C50 1.315 . S
Cd43 O42 2.223 . S
Cd43 O46 2.297 . S
Cd43 O47 2.439 . S
Cd43 O53 2.240 . S
Cd44 O45 2.240 . S
Cd44 O52 2.223 . S
Cd44 O54 2.297 . S
Cd44 O55 2.439 . S
O45 Cd44 2.240 . S
O45 C50 1.279 . S
O46 Cd43 2.297 . S
O46 C48 1.247 . S
O47 Cd43 2.439 . S
O47 C48 1.208 . S
C48 O46 1.247 . S
C48 O47 1.208 . S
C49 O54 1.247 . S
C49 O55 1.208 . S
C50 O42 1.315 . S
C50 O45 1.279 . S
C51 O52 1.315 . S
C51 O53 1.279 . S
O52 Cd44 2.223 . S
O52 C51 1.315 . S
O53 Cd43 2.240 . S
O53 C51 1.279 . S
O54 Cd44 2.297 . S
O54 C49 1.247 . S
O55 Cd44 2.439 . S
O55 C49 1.208 . S
O56 Cd57 2.223 . S
O56 C64 1.315 . S
Cd57 O56 2.223 . S
Cd57 O60 2.297 . S
Cd57 O61 2.439 . S
Cd57 O67 2.240 . S
Cd58 O59 2.240 . S
Cd58 O66 2.223 . S
Cd58 O68 2.297 . S
Cd58 O69 2.439 . S
O59 Cd58 2.240 . S
O59 C64 1.279 . S
O60 Cd57 2.297 . S
O60 C62 1.247 . S
O61 Cd57 2.439 . S
O61 C62 1.208 . S
C62 O60 1.247 . S
C62 O61 1.208 . S
C63 O68 1.247 . S
C63 O69 1.208 . S
C64 O56 1.315 . S
C64 O59 1.279 . S
C65 O66 1.315 . S
C65 O67 1.279 . S
O66 Cd58 2.223 . S
O66 C65 1.315 . S
O67 Cd57 2.240 . S
O67 C65 1.279 . S
O68 Cd58 2.297 . S
O68 C63 1.247 . S
O69 Cd58 2.439 . S
O69 C63 1.208 . S
O70 Cd71 2.223 . S
O70 C78 1.315 . S
Cd71 O70 2.223 . S
Cd71 O74 2.297 . S
Cd71 O75 2.439 1_554 S
Cd71 O81 2.240 1_554 S
Cd72 O73 2.240 . S
Cd72 O80 2.223 . S
Cd72 O82 2.297 1_554 S
Cd72 O83 2.439 1_554 S
O73 Cd72 2.240 . S
O73 C78 1.279 . S
O74 Cd71 2.297 . S
O74 C76 1.247 . S
O75 Cd71 2.439 1_556 S
O75 C76 1.208 1_556 S
C76 O74 1.247 . S
C76 O75 1.208 1_554 S
C77 O82 1.247 . S
C77 O83 1.208 . S
C78 O70 1.315 . S
C78 O73 1.279 . S
C79 O80 1.310 1_556 S
C79 O81 1.286 . S
O80 Cd72 2.223 . S
O80 C79 1.310 1_554 S
O81 Cd71 2.240 1_556 S
O81 C79 1.286 . S
O82 Cd72 2.297 1_556 S
O82 C77 1.247 . S
O83 Cd72 2.439 1_556 S
O83 C77 1.208 . S
O84 Cd85 2.223 . S
O84 C92 1.315 . S
Cd85 O84 2.223 . S
Cd85 O88 2.297 . S
Cd85 O89 2.439 . S
Cd85 O95 2.240 . S
Cd86 O87 2.240 . S
Cd86 O94 2.223 . S
Cd86 O96 2.297 . S
Cd86 O97 2.439 . S
O87 Cd86 2.240 . S
O87 C92 1.279 . S
O88 Cd85 2.297 . S
O88 C90 1.247 . S
O89 Cd85 2.439 . S
O89 C90 1.208 . S
C90 O88 1.247 . S
C90 O89 1.208 . S
C91 O96 1.247 . S
C91 O97 1.208 . S
C92 O84 1.315 . S
C92 O87 1.279 . S
C93 O94 1.315 . S
C93 O95 1.279 . S
O94 Cd86 2.223 . S
O94 C93 1.315 . S
O95 Cd85 2.240 . S
O95 C93 1.279 . S
O96 Cd86 2.297 . S
O96 C91 1.247 . S
O97 Cd86 2.439 . S
O97 C91 1.208 . S
O98 Cd99 2.223 . S
O98 C106 1.315 . S
Cd99 O98 2.223 . S
Cd99 O102 2.297 . S
Cd99 O103 2.439 . S
Cd99 O109 2.240 . S
Cd100 O101 2.240 . S
Cd100 O108 2.223 . S
Cd100 O110 2.297 . S
Cd100 O111 2.439 . S
O101 Cd100 2.240 . S
O101 C106 1.279 . S
O102 Cd99 2.297 . S
O102 C104 1.247 . S
O103 Cd99 2.439 . S
O103 C104 1.208 . S
C104 O102 1.247 . S
C104 O103 1.208 . S
C105 O110 1.247 . S
C105 O111 1.208 . S
C106 O98 1.315 . S
C106 O101 1.279 . S
C107 O108 1.315 . S
C107 O109 1.279 . S
O108 Cd100 2.223 . S
O108 C107 1.315 . S
O109 Cd99 2.240 . S
O109 C107 1.279 . S
O110 Cd100 2.297 . S
O110 C105 1.247 . S
O111 Cd100 2.439 . S
O111 C105 1.208 . S
O112 Cd113 2.223 . S
O112 C120 1.315 . S
Cd113 O112 2.223 . S
Cd113 O116 2.297 . S
Cd113 O117 2.439 1_556 S
Cd113 O123 2.240 1_556 S
Cd114 O115 2.240 . S
Cd114 O122 2.223 . S
Cd114 O124 2.297 1_556 S
Cd114 O125 2.439 1_556 S
O115 Cd114 2.240 . S
O115 C120 1.279 . S
O116 Cd113 2.297 . S
O116 C118 1.247 . S
O117 Cd113 2.439 1_554 S
O117 C118 1.208 1_554 S
C118 O116 1.247 . S
C118 O117 1.208 1_556 S
C119 O124 1.247 . S
C119 O125 1.208 . S
C120 O112 1.315 . S
C120 O115 1.279 . S
C121 O122 1.310 1_554 S
C121 O123 1.286 . S
O122 Cd114 2.223 . S
O122 C121 1.310 1_556 S
O123 Cd113 2.240 1_554 S
O123 C121 1.286 . S
O124 Cd114 2.297 1_554 S
O124 C119 1.247 . S
O125 Cd114 2.439 1_554 S
O125 C119 1.208 . S
O126 Cd127 2.223 . S
O126 C134 1.315 . S
Cd127 O126 2.223 . S
Cd127 O130 2.297 . S
Cd127 O131 2.439 . S
Cd127 O137 2.240 . S
Cd128 O129 2.240 . S
Cd128 O136 2.223 . S
Cd128 O138 2.297 . S
Cd128 O139 2.439 . S
O129 Cd128 2.240 . S
O129 C134 1.279 . S
O130 Cd127 2.297 . S
O130 C132 1.247 . S
O131 Cd127 2.439 . S
O131 C132 1.208 . S
C132 O130 1.247 . S
C132 O131 1.208 . S
C133 O138 1.247 . S
C133 O139 1.208 . S
C134 O126 1.315 . S
C134 O129 1.279 . S
C135 O136 1.315 . S
C135 O137 1.279 . S
O136 Cd128 2.223 . S
O136 C135 1.315 . S
O137 Cd127 2.240 . S
O137 C135 1.279 . S
O138 Cd128 2.297 . S
O138 C133 1.247 . S
O139 Cd128 2.439 . S
O139 C133 1.208 . S
O140 Cd141 2.223 . S
O140 C148 1.315 . S
Cd141 O140 2.223 . S
Cd141 O144 2.297 . S
Cd141 O145 2.439 . S
Cd141 O151 2.240 . S
Cd142 O143 2.240 . S
Cd142 O150 2.223 . S
Cd142 O152 2.297 . S
Cd142 O153 2.439 . S
O143 Cd142 2.240 . S
O143 C148 1.279 . S
O144 Cd141 2.297 . S
O144 C146 1.247 . S
O145 Cd141 2.439 . S
O145 C146 1.208 . S
C146 O144 1.247 . S
C146 O145 1.208 . S
C147 O152 1.247 . S
C147 O153 1.208 . S
C148 O140 1.315 . S
C148 O143 1.279 . S
C149 O150 1.315 . S
C149 O151 1.279 . S
O150 Cd142 2.223 . S
O150 C149 1.315 . S
O151 Cd141 2.240 . S
O151 C149 1.279 . S
O152 Cd142 2.297 . S
O152 C147 1.247 . S
O153 Cd142 2.439 . S
O153 C147 1.208 . S
O154 Cd155 2.223 . S
O154 C162 1.315 . S
Cd155 O154 2.223 . S
Cd155 O158 2.297 . S
Cd155 O159 2.439 1_556 S
Cd155 O165 2.240 1_556 S
Cd156 O157 2.240 . S
Cd156 O164 2.223 . S
Cd156 O166 2.297 1_556 S
Cd156 O167 2.439 1_556 S
O157 Cd156 2.240 . S
O157 C162 1.279 . S
O158 Cd155 2.297 . S
O158 C160 1.247 . S
O159 Cd155 2.439 1_554 S
O159 C160 1.208 1_554 S
C160 O158 1.247 . S
C160 O159 1.208 1_556 S
C161 O166 1.247 . S
C161 O167 1.208 . S
C162 O154 1.315 . S
C162 O157 1.279 . S
C163 O164 1.310 1_554 S
C163 O165 1.286 . S
O164 Cd156 2.223 . S
O164 C163 1.310 1_556 S
O165 Cd155 2.240 1_554 S
O165 C163 1.286 . S
O166 Cd156 2.297 1_554 S
O166 C161 1.247 . S
O167 Cd156 2.439 1_554 S
O167 C161 1.208 . S
H168 C174 0.930 . S
H169 C178 0.930 . S
H170 C183 0.929 . S
H171 C181 0.929 . S
H172 C176 0.929 . S
H173 C182 0.929 . S
C174 H168 0.930 . S
C174 C175 1.367 . S
C174 C182 1.378 . S
C175 C174 1.367 . S
C175 C183 1.433 . S
C176 H172 0.929 . S
C176 C178 1.378 . S
C176 C180 1.350 . S
C177 C180 1.463 . S
C177 C182 1.350 . S
C177 N185 1.427 . S
C178 H169 0.930 . S
C178 C176 1.378 . S
C178 C179 1.367 . S
C179 C178 1.367 . S
C179 C181 1.433 . S
C180 C176 1.350 . S
C180 C177 1.463 . S
C180 N184 1.427 . S
C181 H171 0.929 . S
C181 C179 1.433 . S
C181 N184 1.384 . S
C182 H173 0.929 . S
C182 C174 1.378 . S
C182 C177 1.350 . S
C183 H170 0.929 . S
C183 C175 1.433 . S
C183 N185 1.384 . S
N184 C180 1.427 . S
N184 C181 1.384 . S
N185 C177 1.427 . S
N185 C183 1.384 . S
H186 C192 0.930 . S
H187 C196 0.930 . S
H188 C201 0.929 . S
H189 C199 0.929 . S
H190 C194 0.929 . S
H191 C200 0.929 . S
C192 H186 0.930 . S
C192 C193 1.367 . S
C192 C200 1.378 . S
C193 C192 1.367 . S
C193 C201 1.433 . S
C194 H190 0.929 . S
C194 C196 1.378 . S
C194 C198 1.350 . S
C195 C198 1.463 . S
C195 C200 1.350 . S
C195 N203 1.427 . S
C196 H187 0.930 . S
C196 C194 1.378 . S
C196 C197 1.367 . S
C197 C196 1.367 . S
C197 C199 1.433 . S
C198 C194 1.350 . S
C198 C195 1.463 . S
C198 N202 1.427 . S
C199 H189 0.929 . S
C199 C197 1.433 . S
C199 N202 1.384 . S
C200 H191 0.929 . S
C200 C192 1.378 . S
C200 C195 1.350 . S
C201 H188 0.929 . S
C201 C193 1.433 . S
C201 N203 1.384 . S
N202 C198 1.427 . S
N202 C199 1.384 . S
N203 C195 1.427 . S
N203 C201 1.384 . S
H204 C210 0.930 . S
H205 C214 0.930 . S
H206 C219 0.929 . S
H207 C217 0.929 . S
H208 C212 0.929 . S
H209 C218 0.929 . S
C210 H204 0.930 . S
C210 C211 1.370 . S
C210 C218 1.378 . S
C211 C210 1.370 . S
C211 C219 1.430 1_556 S
C212 H208 0.929 . S
C212 C214 1.378 . S
C212 C216 1.371 . S
C213 C216 1.461 1_556 S
C213 C218 1.378 . S
C213 N221 1.399 1_556 S
C214 H205 0.930 . S
C214 C212 1.378 . S
C214 C215 1.369 1_554 S
C215 C214 1.369 1_556 S
C215 C217 1.431 . S
C216 C212 1.371 . S
C216 C213 1.461 1_554 S
C216 N220 1.406 1_554 S
C217 H207 0.929 . S
C217 C215 1.431 . S
C217 N220 1.384 . S
C218 H209 0.929 . S
C218 C210 1.378 . S
C218 C213 1.378 . S
C219 H206 0.929 . S
C219 C211 1.430 1_554 S
C219 N221 1.384 . S
N220 C216 1.406 1_556 S
N220 C217 1.384 . S
N221 C213 1.399 1_554 S
N221 C219 1.384 . S
H222 C228 0.930 . S
H223 C232 0.930 . S
H224 C237 0.929 . S
H225 C235 0.929 . S
H226 C230 0.929 . S
H227 C236 0.929 . S
C228 H222 0.930 . S
C228 C229 1.367 . S
C228 C236 1.378 . S
C229 C228 1.367 . S
C229 C237 1.433 . S
C230 H226 0.929 . S
C230 C232 1.378 . S
C230 C234 1.350 . S
C231 C234 1.463 . S
C231 C236 1.350 . S
C231 N239 1.427 . S
C232 H223 0.930 . S
C232 C230 1.378 . S
C232 C233 1.367 . S
C233 C232 1.367 . S
C233 C235 1.433 . S
C234 C230 1.350 . S
C234 C231 1.463 . S
C234 N238 1.427 . S
C235 H225 0.929 . S
C235 C233 1.433 . S
C235 N238 1.384 . S
C236 H227 0.929 . S
C236 C228 1.378 . S
C236 C231 1.350 . S
C237 H224 0.929 . S
C237 C229 1.433 . S
C237 N239 1.384 . S
N238 C234 1.427 . S
N238 C235 1.384 . S
N239 C231 1.427 . S
N239 C237 1.384 . S
H240 C246 0.930 . S
H241 C250 0.930 . S
H242 C255 0.929 . S
H243 C253 0.929 . S
H244 C248 0.929 . S
H245 C254 0.929 . S
C246 H240 0.930 . S
C246 C247 1.367 . S
C246 C254 1.378 . S
C247 C246 1.367 . S
C247 C255 1.433 . S
C248 H244 0.929 . S
C248 C250 1.378 . S
C248 C252 1.350 . S
C249 C252 1.463 . S
C249 C254 1.350 . S
C249 N257 1.427 . S
C250 H241 0.930 . S
C250 C248 1.378 . S
C250 C251 1.367 . S
C251 C250 1.367 . S
C251 C253 1.433 . S
C252 C248 1.350 . S
C252 C249 1.463 . S
C252 N256 1.427 . S
C253 H243 0.929 . S
C253 C251 1.433 . S
C253 N256 1.384 . S
C254 H245 0.929 . S
C254 C246 1.378 . S
C254 C249 1.350 . S
C255 H242 0.929 . S
C255 C247 1.433 . S
C255 N257 1.384 . S
N256 C252 1.427 . S
N256 C253 1.384 . S
N257 C249 1.427 . S
N257 C255 1.384 . S
H258 C264 0.930 . S
H259 C268 0.930 . S
H260 C273 0.929 . S
H261 C271 0.929 . S
H262 C266 0.929 . S
H263 C272 0.929 . S
C264 H258 0.930 . S
C264 C265 1.382 . S
C264 C272 1.378 . S
C265 C264 1.382 . S
C265 C273 1.418 1_556 S
C266 H262 0.929 . S
C266 C268 1.378 . S
C266 C270 1.364 . S
C267 C270 1.461 1_556 S
C267 C272 1.359 . S
C267 N275 1.418 1_556 S
C268 H259 0.930 . S
C268 C266 1.378 . S
C268 C269 1.367 . S
C269 C268 1.367 . S
C269 C271 1.433 1_554 S
C270 C266 1.364 . S
C270 C267 1.461 1_554 S
C270 N274 1.414 1_554 S
C271 H261 0.929 . S
C271 C269 1.433 1_556 S
C271 N274 1.384 . S
C272 H263 0.929 . S
C272 C264 1.378 . S
C272 C267 1.359 . S
C273 H260 0.929 . S
C273 C265 1.418 1_554 S
C273 N275 1.384 . S
N274 C270 1.414 1_556 S
N274 C271 1.384 . S
N275 C267 1.418 1_554 S
N275 C273 1.384 . S
H276 C282 0.930 . S
H277 C286 0.930 . S
H278 C291 0.929 . S
H279 C289 0.929 . S
H280 C284 0.929 . S
H281 C290 0.929 . S
C282 H276 0.930 . S
C282 C283 1.367 . S
C282 C290 1.378 . S
C283 C282 1.367 . S
C283 C291 1.433 . S
C284 H280 0.929 . S
C284 C286 1.378 . S
C284 C288 1.350 . S
C285 C288 1.463 . S
C285 C290 1.350 . S
C285 N293 1.427 . S
C286 H277 0.930 . S
C286 C284 1.378 . S
C286 C287 1.367 . S
C287 C286 1.367 . S
C287 C289 1.433 . S
C288 C284 1.350 . S
C288 C285 1.463 . S
C288 N292 1.427 . S
C289 H279 0.929 . S
C289 C287 1.433 . S
C289 N292 1.384 . S
C290 H281 0.929 . S
C290 C282 1.378 . S
C290 C285 1.350 . S
C291 H278 0.929 . S
C291 C283 1.433 . S
C291 N293 1.384 . S
N292 C288 1.427 . S
N292 C289 1.384 . S
N293 C285 1.427 . S
N293 C291 1.384 . S
H294 C300 0.930 . S
H295 C304 0.930 . S
H296 C309 0.929 . S
H297 C307 0.929 . S
H298 C302 0.929 . S
H299 C308 0.929 . S
C300 H294 0.930 . S
C300 C301 1.367 . S
C300 C308 1.378 . S
C301 C300 1.367 . S
C301 C309 1.433 . S
C302 H298 0.929 . S
C302 C304 1.378 . S
C302 C306 1.350 . S
C303 C306 1.463 1_655 S
C303 C308 1.350 . S
C303 N311 1.427 . S
C304 H295 0.930 . S
C304 C302 1.378 . S
C304 C305 1.367 . S
C305 C304 1.367 . S
C305 C307 1.433 . S
C306 C302 1.350 . S
C306 C303 1.463 1_455 S
C306 N310 1.427 . S
C307 H297 0.929 . S
C307 C305 1.433 . S
C307 N310 1.384 . S
C308 H299 0.929 . S
C308 C300 1.378 . S
C308 C303 1.350 . S
C309 H296 0.929 . S
C309 C301 1.433 . S
C309 N311 1.384 . S
N310 C306 1.427 . S
N310 C307 1.384 . S
N311 C303 1.427 . S
N311 C309 1.384 . S
H312 C318 0.930 . S
H313 C322 0.930 . S
H314 C327 0.929 . S
H315 C325 0.929 . S
H316 C320 0.929 . S
H317 C326 0.929 . S
C318 H312 0.930 . S
C318 C319 1.389 . S
C318 C326 1.378 . S
C319 C318 1.389 . S
C319 C327 1.410 1_556 S
C320 H316 0.929 . S
C320 C322 1.378 . S
C320 C324 1.350 . S
C321 C324 1.461 1_546 S
C321 C326 1.373 . S
C321 N329 1.404 1_556 S
C322 H313 0.930 . S
C322 C320 1.378 . S
C322 C323 1.367 . S
C323 C322 1.367 . S
C323 C325 1.433 1_554 S
C324 C320 1.350 . S
C324 C321 1.461 1_564 S
C324 N328 1.427 1_554 S
C325 H315 0.929 . S
C325 C323 1.433 1_556 S
C325 N328 1.384 . S
C326 H317 0.929 . S
C326 C318 1.378 . S
C326 C321 1.373 . S
C327 H314 0.929 . S
C327 C319 1.410 1_554 S
C327 N329 1.384 . S
N328 C324 1.427 1_556 S
N328 C325 1.384 . S
N329 C321 1.404 1_554 S
N329 C327 1.384 . S
H330 C336 0.930 . S
H331 C340 0.930 . S
H332 C345 0.929 . S
H333 C343 0.929 . S
H334 C338 0.929 . S
H335 C344 0.929 . S
C336 H330 0.930 . S
C336 C337 1.367 . S
C336 C344 1.378 . S
C337 C336 1.367 . S
C337 C345 1.433 . S
C338 H334 0.929 . S
C338 C340 1.378 . S
C338 C342 1.350 . S
C339 C342 1.463 . S
C339 C344 1.350 . S
C339 N347 1.427 . S
C340 H331 0.930 . S
C340 C338 1.378 . S
C340 C341 1.367 . S
C341 C340 1.367 . S
C341 C343 1.433 . S
C342 C338 1.350 . S
C342 C339 1.463 . S
C342 N346 1.427 . S
C343 H333 0.929 . S
C343 C341 1.433 . S
C343 N346 1.384 . S
C344 H335 0.929 . S
C344 C336 1.378 . S
C344 C339 1.350 . S
C345 H332 0.929 . S
C345 C337 1.433 . S
C345 N347 1.384 . S
N346 C342 1.427 . S
N346 C343 1.384 . S
N347 C339 1.427 . S
N347 C345 1.384 . S
H348 C354 0.930 . S
H349 C358 0.930 . S
H350 C363 0.929 . S
H351 C361 0.929 . S
H352 C356 0.929 . S
H353 C362 0.929 . S
C354 H348 0.930 . S
C354 C355 1.367 . S
C354 C362 1.378 . S
C355 C354 1.367 . S
C355 C363 1.433 . S
C356 H352 0.929 . S
C356 C358 1.378 . S
C356 C360 1.350 . S
C357 C360 1.463 1_455 S
C357 C362 1.350 . S
C357 N365 1.427 . S
C358 H349 0.930 . S
C358 C356 1.378 . S
C358 C359 1.367 . S
C359 C358 1.367 . S
C359 C361 1.433 . S
C360 C356 1.350 . S
C360 C357 1.463 1_655 S
C360 N364 1.427 . S
C361 H351 0.929 . S
C361 C359 1.433 . S
C361 N364 1.384 . S
C362 H353 0.929 . S
C362 C354 1.378 . S
C362 C357 1.350 . S
C363 H350 0.929 . S
C363 C355 1.433 . S
C363 N365 1.384 . S
N364 C360 1.427 . S
N364 C361 1.384 . S
N365 C357 1.427 . S
N365 C363 1.384 . S
H366 C372 0.930 . S
H367 C376 0.930 . S
H368 C381 0.929 . S
H369 C379 0.929 . S
H370 C374 0.929 . S
H371 C380 0.929 . S
C372 H366 0.930 . S
C372 C373 1.371 . S
C372 C380 1.378 . S
C373 C372 1.371 . S
C373 C381 1.429 1_556 S
C374 H370 0.929 . S
C374 C376 1.378 . S
C374 C378 1.362 . S
C375 C378 1.462 1_546 S
C375 C380 1.367 . S
C375 N383 1.410 1_556 S
C376 H367 0.930 . S
C376 C374 1.378 . S
C376 C377 1.366 . S
C377 C376 1.366 . S
C377 C379 1.434 1_554 S
C378 C374 1.362 . S
C378 C375 1.462 1_564 S
C378 N382 1.416 1_554 S
C379 H369 0.929 . S
C379 C377 1.434 1_556 S
C379 N382 1.384 . S
C380 H371 0.929 . S
C380 C372 1.378 . S
C380 C375 1.367 . S
C381 H368 0.929 . S
C381 C373 1.429 1_554 S
C381 N383 1.384 . S
N382 C378 1.416 1_556 S
N382 C379 1.384 . S
N383 C375 1.410 1_554 S
N383 C381 1.384 . S
H384 C390 0.930 . S
H385 C394 0.930 . S
H386 C399 0.929 . S
H387 C397 0.929 . S
H388 C392 0.929 . S
H389 C398 0.929 . S
C390 H384 0.930 . S
C390 C391 1.367 . S
C390 C398 1.378 . S
C391 C390 1.367 . S
C391 C399 1.433 . S
C392 H388 0.929 . S
C392 C394 1.378 . S
C392 C396 1.350 . S
C393 C396 1.463 1_655 S
C393 C398 1.350 . S
C393 N401 1.427 . S
C394 H385 0.930 . S
C394 C392 1.378 . S
C394 C395 1.367 . S
C395 C394 1.367 . S
C395 C397 1.433 . S
C396 C392 1.350 . S
C396 C393 1.463 1_455 S
C396 N400 1.427 . S
C397 H387 0.929 . S
C397 C395 1.433 . S
C397 N400 1.384 . S
C398 H389 0.929 . S
C398 C390 1.378 . S
C398 C393 1.350 . S
C399 H386 0.929 . S
C399 C391 1.433 . S
C399 N401 1.384 . S
N400 C396 1.427 . S
N400 C397 1.384 . S
N401 C393 1.427 . S
N401 C399 1.384 . S
H402 C408 0.930 . S
H403 C412 0.930 . S
H404 C417 0.929 . S
H405 C415 0.929 . S
H406 C410 0.929 . S
H407 C416 0.929 . S
C408 H402 0.930 . S
C408 C409 1.367 1_565 S
C408 C416 1.378 . S
C409 C408 1.367 1_545 S
C409 C417 1.433 . S
C410 H406 0.929 . S
C410 C412 1.378 . S
C410 C414 1.350 1_545 S
C411 C414 1.463 1_545 S
C411 C416 1.350 1_545 S
C411 N419 1.427 . S
C412 H403 0.930 . S
C412 C410 1.378 . S
C412 C413 1.367 1_545 S
C413 C412 1.367 1_565 S
C413 C415 1.433 . S
C414 C410 1.350 1_565 S
C414 C411 1.463 1_565 S
C414 N418 1.427 . S
C415 H405 0.929 . S
C415 C413 1.433 . S
C415 N418 1.384 . S
C416 H407 0.929 . S
C416 C408 1.378 . S
C416 C411 1.350 1_565 S
C417 H404 0.929 . S
C417 C409 1.433 . S
C417 N419 1.384 . S
N418 C414 1.427 . S
N418 C415 1.384 . S
N419 C411 1.427 . S
N419 C417 1.384 . S
H420 C426 0.930 . S
H421 C430 0.930 . S
H422 C435 0.929 . S
H423 C433 0.929 . S
H424 C428 0.929 . S
H425 C434 0.929 . S
C426 H420 0.930 . S
C426 C427 1.367 . S
C426 C434 1.378 . S
C427 C426 1.367 . S
C427 C435 1.433 . S
C428 H424 0.929 . S
C428 C430 1.378 . S
C428 C432 1.350 . S
C429 C432 1.463 . S
C429 C434 1.350 . S
C429 N437 1.427 . S
C430 H421 0.930 . S
C430 C428 1.378 . S
C430 C431 1.367 . S
C431 C430 1.367 . S
C431 C433 1.433 . S
C432 C428 1.350 . S
C432 C429 1.463 . S
C432 N436 1.427 . S
C433 H423 0.929 . S
C433 C431 1.433 . S
C433 N436 1.384 . S
C434 H425 0.929 . S
C434 C426 1.378 . S
C434 C429 1.350 . S
C435 H422 0.929 . S
C435 C427 1.433 . S
C435 N437 1.384 . S
N436 C432 1.427 . S
N436 C433 1.384 . S
N437 C429 1.427 . S
N437 C435 1.384 . S
H438 C444 0.930 . S
H439 C448 0.930 . S
H440 C453 0.929 . S
H441 C451 0.929 . S
H442 C446 0.929 . S
H443 C452 0.929 . S
C444 H438 0.930 . S
C444 C445 1.367 . S
C444 C452 1.378 . S
C445 C444 1.367 . S
C445 C453 1.433 . S
C446 H442 0.929 . S
C446 C448 1.378 . S
C446 C450 1.350 . S
C447 C450 1.463 1_455 S
C447 C452 1.350 . S
C447 N455 1.427 . S
C448 H439 0.930 . S
C448 C446 1.378 . S
C448 C449 1.367 . S
C449 C448 1.367 . S
C449 C451 1.433 . S
C450 C446 1.350 . S
C450 C447 1.463 1_655 S
C450 N454 1.427 . S
C451 H441 0.929 . S
C451 C449 1.433 . S
C451 N454 1.384 . S
C452 H443 0.929 . S
C452 C444 1.378 . S
C452 C447 1.350 . S
C453 H440 0.929 . S
C453 C445 1.433 . S
C453 N455 1.384 . S
N454 C450 1.427 . S
N454 C451 1.384 . S
N455 C447 1.427 . S
N455 C453 1.384 . S
H456 C462 0.930 . S
H457 C466 0.930 . S
H458 C471 0.929 . S
H459 C469 0.929 . S
H460 C464 0.929 . S
H461 C470 0.929 . S
C462 H456 0.930 . S
C462 C463 1.367 1_565 S
C462 C470 1.378 . S
C463 C462 1.367 1_545 S
C463 C471 1.433 . S
C464 H460 0.929 . S
C464 C466 1.378 . S
C464 C468 1.350 1_545 S
C465 C468 1.463 1_545 S
C465 C470 1.350 1_545 S
C465 N473 1.427 . S
C466 H457 0.930 . S
C466 C464 1.378 . S
C466 C467 1.367 1_545 S
C467 C466 1.367 1_565 S
C467 C469 1.433 . S
C468 C464 1.350 1_565 S
C468 C465 1.463 1_565 S
C468 N472 1.427 . S
C469 H459 0.929 . S
C469 C467 1.433 . S
C469 N472 1.384 . S
C470 H461 0.929 . S
C470 C462 1.378 . S
C470 C465 1.350 1_565 S
C471 H458 0.929 . S
C471 C463 1.433 . S
C471 N473 1.384 . S
N472 C468 1.427 . S
N472 C469 1.384 . S
N473 C465 1.427 . S
N473 C471 1.384 . S
H474 C480 0.930 . S
H475 C484 0.930 . S
H476 C489 0.929 . S
H477 C487 0.929 . S
H478 C482 0.929 . S
H479 C488 0.929 . S
C480 H474 0.930 . S
C480 C481 1.367 . S
C480 C488 1.378 . S
C481 C480 1.367 . S
C481 C489 1.433 . S
C482 H478 0.929 . S
C482 C484 1.378 . S
C482 C486 1.350 . S
C483 C486 1.463 . S
C483 C488 1.350 . S
C483 N491 1.427 . S
C484 H475 0.930 . S
C484 C482 1.378 . S
C484 C485 1.367 . S
C485 C484 1.367 . S
C485 C487 1.433 . S
C486 C482 1.350 . S
C486 C483 1.463 . S
C486 N490 1.427 . S
C487 H477 0.929 . S
C487 C485 1.433 . S
C487 N490 1.384 . S
C488 H479 0.929 . S
C488 C480 1.378 . S
C488 C483 1.350 . S
C489 H476 0.929 . S
C489 C481 1.433 . S
C489 N491 1.384 . S
N490 C486 1.427 . S
N490 C487 1.384 . S
N491 C483 1.427 . S
N491 C489 1.384 . S
H492 C498 0.930 . S
H493 C502 0.930 . S
H494 C507 0.929 . S
H495 C505 0.929 . S
H496 C500 0.929 . S
H497 C506 0.929 . S
C498 H492 0.930 . S
C498 C499 1.367 . S
C498 C506 1.378 . S
C499 C498 1.367 . S
C499 C507 1.433 . S
C500 H496 0.929 . S
C500 C502 1.378 . S
C500 C504 1.350 . S
C501 C504 1.463 . S
C501 C506 1.350 . S
C501 N509 1.427 . S
C502 H493 0.930 . S
C502 C500 1.378 . S
C502 C503 1.367 . S
C503 C502 1.367 . S
C503 C505 1.433 . S
C504 C500 1.350 . S
C504 C501 1.463 . S
C504 N508 1.427 . S
C505 H495 0.929 . S
C505 C503 1.433 . S
C505 N508 1.384 . S
C506 H497 0.929 . S
C506 C498 1.378 . S
C506 C501 1.350 . S
C507 H494 0.929 . S
C507 C499 1.433 . S
C507 N509 1.384 . S
N508 C504 1.427 . S
N508 C505 1.384 . S
N509 C501 1.427 . S
N509 C507 1.384 . S
H510 C516 0.930 . S
H511 C520 0.930 . S
H512 C525 0.929 . S
H513 C523 0.929 . S
H514 C518 0.929 . S
H515 C524 0.929 . S
C516 H510 0.930 . S
C516 C517 1.367 . S
C516 C524 1.378 . S
C517 C516 1.367 . S
C517 C525 1.433 . S
C518 H514 0.929 . S
C518 C520 1.378 . S
C518 C522 1.350 . S
C519 C522 1.463 . S
C519 C524 1.350 . S
C519 N527 1.427 . S
C520 H511 0.930 . S
C520 C518 1.378 . S
C520 C521 1.367 . S
C521 C520 1.367 . S
C521 C523 1.433 . S
C522 C518 1.350 . S
C522 C519 1.463 . S
C522 N526 1.427 . S
C523 H513 0.929 . S
C523 C521 1.433 . S
C523 N526 1.384 . S
C524 H515 0.929 . S
C524 C516 1.378 . S
C524 C519 1.350 . S
C525 H512 0.929 . S
C525 C517 1.433 . S
C525 N527 1.384 . S
N526 C522 1.427 . S
N526 C523 1.384 . S
N527 C519 1.427 . S
N527 C525 1.384 . S
H528 C534 0.930 . S
H529 C538 0.930 . S
H530 C543 0.929 . S
H531 C541 0.929 . S
H532 C536 0.929 . S
H533 C542 0.929 . S
C534 H528 0.930 . S
C534 C535 1.367 . S
C534 C542 1.378 . S
C535 C534 1.367 . S
C535 C543 1.433 . S
C536 H532 0.929 . S
C536 C538 1.378 . S
C536 C540 1.350 . S
C537 C540 1.463 . S
C537 C542 1.350 . S
C537 N545 1.427 . S
C538 H529 0.930 . S
C538 C536 1.378 . S
C538 C539 1.367 . S
C539 C538 1.367 . S
C539 C541 1.433 . S
C540 C536 1.350 . S
C540 C537 1.463 . S
C540 N544 1.427 . S
C541 H531 0.929 . S
C541 C539 1.433 . S
C541 N544 1.384 . S
C542 H533 0.929 . S
C542 C534 1.378 . S
C542 C537 1.350 . S
C543 H530 0.929 . S
C543 C535 1.433 . S
C543 N545 1.384 . S
N544 C540 1.427 . S
N544 C541 1.384 . S
N545 C537 1.427 . S
N545 C543 1.384 . S
H546 C552 0.930 . S
H547 C556 0.930 . S
H548 C561 0.929 . S
H549 C559 0.929 . S
H550 C554 0.929 . S
H551 C560 0.929 . S
C552 H546 0.930 . S
C552 C553 1.367 . S
C552 C560 1.378 . S
C553 C552 1.367 . S
C553 C561 1.433 . S
C554 H550 0.929 . S
C554 C556 1.378 . S
C554 C558 1.350 . S
C555 C558 1.463 . S
C555 C560 1.350 . S
C555 N563 1.427 . S
C556 H547 0.930 . S
C556 C554 1.378 . S
C556 C557 1.367 . S
C557 C556 1.367 . S
C557 C559 1.433 . S
C558 C554 1.350 . S
C558 C555 1.463 . S
C558 N562 1.427 . S
C559 H549 0.929 . S
C559 C557 1.433 . S
C559 N562 1.384 . S
C560 H551 0.929 . S
C560 C552 1.378 . S
C560 C555 1.350 . S
C561 H548 0.929 . S
C561 C553 1.433 . S
C561 N563 1.384 . S
N562 C558 1.427 . S
N562 C559 1.384 . S
N563 C555 1.427 . S
N563 C561 1.384 . S
H564 C570 0.930 . S
H565 C574 0.930 . S
H566 C579 0.929 . S
H567 C577 0.929 . S
H568 C572 0.929 . S
H569 C578 0.929 . S
C570 H564 0.930 . S
C570 C571 1.367 . S
C570 C578 1.378 . S
C571 C570 1.367 . S
C571 C579 1.433 . S
C572 H568 0.929 . S
C572 C574 1.378 . S
C572 C576 1.350 . S
C573 C576 1.463 . S
C573 C578 1.350 . S
C573 N581 1.427 . S
C574 H565 0.930 . S
C574 C572 1.378 . S
C574 C575 1.367 . S
C575 C574 1.367 . S
C575 C577 1.433 . S
C576 C572 1.350 . S
C576 C573 1.463 . S
C576 N580 1.427 . S
C577 H567 0.929 . S
C577 C575 1.433 . S
C577 N580 1.384 . S
C578 H569 0.929 . S
C578 C570 1.378 . S
C578 C573 1.350 . S
C579 H566 0.929 . S
C579 C571 1.433 . S
C579 N581 1.384 . S
N580 C576 1.427 . S
N580 C577 1.384 . S
N581 C573 1.427 . S
N581 C579 1.384 . S
H582 C588 0.930 . S
H583 C592 0.930 . S
H584 C597 0.929 . S
H585 C595 0.929 . S
H586 C590 0.929 . S
H587 C596 0.929 . S
C588 H582 0.930 . S
C588 C589 1.367 . S
C588 C596 1.378 . S
C589 C588 1.367 . S
C589 C597 1.433 . S
C590 H586 0.929 . S
C590 C592 1.378 . S
C590 C594 1.350 . S
C591 C594 1.463 . S
C591 C596 1.350 . S
C591 N599 1.427 . S
C592 H583 0.930 . S
C592 C590 1.378 . S
C592 C593 1.367 . S
C593 C592 1.367 . S
C593 C595 1.433 . S
C594 C590 1.350 . S
C594 C591 1.463 . S
C594 N598 1.427 . S
C595 H585 0.929 . S
C595 C593 1.433 . S
C595 N598 1.384 . S
C596 H587 0.929 . S
C596 C588 1.378 . S
C596 C591 1.350 . S
C597 H584 0.929 . S
C597 C589 1.433 . S
C597 N599 1.384 . S
N598 C594 1.427 . S
N598 C595 1.384 . S
N599 C591 1.427 . S
N599 C597 1.384 . S
C175 C7 1.665 . S
C179 C91 1.670 . S
C193 C21 1.676 . S
C197 C105 1.658 . S
C211 C34 1.583 1_556 S
C215 C118 1.588 . S
C229 C133 1.671 . S
C233 C49 1.663 . S
C247 C63 1.668 . S
C251 C147 1.666 . S
C265 C160 1.593 . S
C269 C76 1.576 . S
C283 C8 1.501 . S
C287 C134 1.499 . S
C301 C22 1.499 . S
C305 C148 1.500 . S
C319 C163 1.424 1_556 S
C323 C37 1.423 1_554 S
C337 C92 1.503 . S
C341 C50 1.502 . S
C355 C64 1.499 . S
C359 C106 1.502 . S
C373 C79 1.424 . S
C377 C121 1.422 . S
C391 C161 1.525 . S
C395 C6 1.515 . S
C409 C20 1.687 . S
C413 C90 1.685 . S
C427 C35 1.521 . S
C431 C104 1.520 . S
C445 C119 1.521 . S
C449 C48 1.520 . S
C463 C132 1.687 . S
C467 C62 1.685 . S
C481 C77 1.525 . S
C485 C146 1.515 . S
C499 C9 0.967 . S
C503 C149 0.956 . S
C517 C162 1.105 . S
C521 C23 1.112 . S
C535 C93 1.109 . S
C539 C36 1.123 . S
C553 C51 0.953 . S
C557 C107 0.956 . S
C571 C120 1.106 . S
C575 C65 1.118 . S
C589 C135 1.111 . S
C593 C78 1.126 . S
