# Generated by pormake.
# Topology uks, (4)-cn, num edge types: 1
# Building blocks:
#     Node 0, Type 0, BuildingBlock: KOZSID_clean_sbu_0, # of connection points: 4
#     Node 1, Type 0, BuildingBlock: KOZSID_clean_sbu_0, # of connection points: 4
#     Node 2, Type 0, BuildingBlock: KOZSID_clean_sbu_0, # of connection points: 4
#     Node 3, Type 0, BuildingBlock: KOZSID_clean_sbu_0, # of connection points: 4
#     Node 4, Type 0, BuildingBlock: KOZSID_clean_sbu_0, # of connection points: 4
#     Node 5, Type 0, BuildingBlock: KOZSID_clean_sbu_0, # of connection points: 4
#     Node 6, Type 0, BuildingBlock: KOZSID_clean_sbu_0, # of connection points: 4
#     Node 7, Type 0, BuildingBlock: KOZSID_clean_sbu_0, # of connection points: 4
#     Node 8, Type 0, BuildingBlock: KOZSID_clean_sbu_0, # of connection points: 4
#     Node 9, Type 0, BuildingBlock: KOZSID_clean_sbu_0, # of connection points: 4
#     Node 10, Type 0, BuildingBlock: KOZSID_clean_sbu_0, # of connection points: 4
#     Node 11, Type 0, BuildingBlock: KOZSID_clean_sbu_0, # of connection points: 4
#     Node 12, Type 0, BuildingBlock: KOZSID_clean_sbu_0, # of connection points: 4
#     Node 13, Type 0, BuildingBlock: KOZSID_clean_sbu_0, # of connection points: 4
#     Node 14, Type 0, BuildingBlock: KOZSID_clean_sbu_0, # of connection points: 4
#     Node 15, Type 0, BuildingBlock: KOZSID_clean_sbu_0, # of connection points: 4
#     Node 16, Type 0, BuildingBlock: KOZSID_clean_sbu_0, # of connection points: 4
#     Node 17, Type 0, BuildingBlock: KOZSID_clean_sbu_0, # of connection points: 4
#     Node 18, Type 0, BuildingBlock: KOZSID_clean_sbu_0, # of connection points: 4
#     Node 19, Type 0, BuildingBlock: KOZSID_clean_sbu_0, # of connection points: 4
#     Node 20, Type 0, BuildingBlock: KOZSID_clean_sbu_0, # of connection points: 4
#     Node 21, Type 0, BuildingBlock: KOZSID_clean_sbu_0, # of connection points: 4
#     Node 22, Type 0, BuildingBlock: KOZSID_clean_sbu_0, # of connection points: 4
#     Node 23, Type 0, BuildingBlock: KOZSID_clean_sbu_0, # of connection points: 4
#     Edge 24, Type (0, 0), BuildingBlock: OJICUG_clean_linker_0, # of connection points: 2
#     Edge 25, Type (0, 0), BuildingBlock: OJICUG_clean_linker_0, # of connection points: 2
#     Edge 26, Type (0, 0), BuildingBlock: OJICUG_clean_linker_0, # of connection points: 2
#     Edge 27, Type (0, 0), BuildingBlock: OJICUG_clean_linker_0, # of connection points: 2
#     Edge 28, Type (0, 0), BuildingBlock: OJICUG_clean_linker_0, # of connection points: 2
#     Edge 29, Type (0, 0), BuildingBlock: OJICUG_clean_linker_0, # of connection points: 2
#     Edge 30, Type (0, 0), BuildingBlock: OJICUG_clean_linker_0, # of connection points: 2
#     Edge 31, Type (0, 0), BuildingBlock: OJICUG_clean_linker_0, # of connection points: 2
#     Edge 32, Type (0, 0), BuildingBlock: OJICUG_clean_linker_0, # of connection points: 2
#     Edge 33, Type (0, 0), BuildingBlock: OJICUG_clean_linker_0, # of connection points: 2
#     Edge 34, Type (0, 0), BuildingBlock: OJICUG_clean_linker_0, # of connection points: 2
#     Edge 35, Type (0, 0), BuildingBlock: OJICUG_clean_linker_0, # of connection points: 2
#     Edge 36, Type (0, 0), BuildingBlock: OJICUG_clean_linker_0, # of connection points: 2
#     Edge 37, Type (0, 0), BuildingBlock: OJICUG_clean_linker_0, # of connection points: 2
#     Edge 38, Type (0, 0), BuildingBlock: OJICUG_clean_linker_0, # of connection points: 2
#     Edge 39, Type (0, 0), BuildingBlock: OJICUG_clean_linker_0, # of connection points: 2
#     Edge 40, Type (0, 0), BuildingBlock: OJICUG_clean_linker_0, # of connection points: 2
#     Edge 41, Type (0, 0), BuildingBlock: OJICUG_clean_linker_0, # of connection points: 2
#     Edge 42, Type (0, 0), BuildingBlock: OJICUG_clean_linker_0, # of connection points: 2
#     Edge 43, Type (0, 0), BuildingBlock: OJICUG_clean_linker_0, # of connection points: 2
#     Edge 44, Type (0, 0), BuildingBlock: OJICUG_clean_linker_0, # of connection points: 2
#     Edge 45, Type (0, 0), BuildingBlock: OJICUG_clean_linker_0, # of connection points: 2
#     Edge 46, Type (0, 0), BuildingBlock: OJICUG_clean_linker_0, # of connection points: 2
#     Edge 47, Type (0, 0), BuildingBlock: OJICUG_clean_linker_0, # of connection points: 2
#     Edge 48, Type (0, 0), BuildingBlock: OJICUG_clean_linker_0, # of connection points: 2
#     Edge 49, Type (0, 0), BuildingBlock: OJICUG_clean_linker_0, # of connection points: 2
#     Edge 50, Type (0, 0), BuildingBlock: OJICUG_clean_linker_0, # of connection points: 2
#     Edge 51, Type (0, 0), BuildingBlock: OJICUG_clean_linker_0, # of connection points: 2
#     Edge 52, Type (0, 0), BuildingBlock: OJICUG_clean_linker_0, # of connection points: 2
#     Edge 53, Type (0, 0), BuildingBlock: OJICUG_clean_linker_0, # of connection points: 2
#     Edge 54, Type (0, 0), BuildingBlock: OJICUG_clean_linker_0, # of connection points: 2
#     Edge 55, Type (0, 0), BuildingBlock: OJICUG_clean_linker_0, # of connection points: 2
#     Edge 56, Type (0, 0), BuildingBlock: OJICUG_clean_linker_0, # of connection points: 2
#     Edge 57, Type (0, 0), BuildingBlock: OJICUG_clean_linker_0, # of connection points: 2
#     Edge 58, Type (0, 0), BuildingBlock: OJICUG_clean_linker_0, # of connection points: 2
#     Edge 59, Type (0, 0), BuildingBlock: OJICUG_clean_linker_0, # of connection points: 2
#     Edge 60, Type (0, 0), BuildingBlock: OJICUG_clean_linker_0, # of connection points: 2
#     Edge 61, Type (0, 0), BuildingBlock: OJICUG_clean_linker_0, # of connection points: 2
#     Edge 62, Type (0, 0), BuildingBlock: OJICUG_clean_linker_0, # of connection points: 2
#     Edge 63, Type (0, 0), BuildingBlock: OJICUG_clean_linker_0, # of connection points: 2
#     Edge 64, Type (0, 0), BuildingBlock: OJICUG_clean_linker_0, # of connection points: 2
#     Edge 65, Type (0, 0), BuildingBlock: OJICUG_clean_linker_0, # of connection points: 2
#     Edge 66, Type (0, 0), BuildingBlock: OJICUG_clean_linker_0, # of connection points: 2
#     Edge 67, Type (0, 0), BuildingBlock: OJICUG_clean_linker_0, # of connection points: 2
#     Edge 68, Type (0, 0), BuildingBlock: OJICUG_clean_linker_0, # of connection points: 2
#     Edge 69, Type (0, 0), BuildingBlock: OJICUG_clean_linker_0, # of connection points: 2
#     Edge 70, Type (0, 0), BuildingBlock: OJICUG_clean_linker_0, # of connection points: 2
#     Edge 71, Type (0, 0), BuildingBlock: OJICUG_clean_linker_0, # of connection points: 2
# Relax obj value: 0.069
# Max RMSD: 0.079
# Mean RMSD: 0.061
data_MOF--net-uks--node1-KOZSID_clean_sbu_0--edge1-OJICUG_clean_linker_0
_symmetry_space_group_name_H-M    P1
_symmetry_Int_Tables_number       1
_symmetry_cell_setting            triclinic
loop_
_symmetry_equiv_pos_as_xyz
'x, y, z'
_cell_length_a     46.681939
_cell_length_b     57.582038
_cell_length_c     49.477038
_cell_angle_alpha  89.010261
_cell_angle_beta   91.233771
_cell_angle_gamma 90.172444
loop_
_atom_site_label
_atom_site_type_symbol
_atom_site_fract_x
_atom_site_fract_y
_atom_site_fract_z
_atom_type_partial_charge
C0 C 0.06963 0.38346 0.69344 0.0
C1 C 0.0477 0.39345 0.70767 0.0
C2 C 0.06047 0.40674 0.72732 0.0
C3 C 0.08944 0.40423 0.72402 0.0
N4 N 0.09572 0.39022 0.70353 0.0
Co5 Co 0.13509 0.38166 0.69254 0.0
N6 N 0.15285 0.39175 0.72746 0.0
C7 C 0.14007 0.40548 0.74537 0.0
C8 C 0.1571 0.41003 0.7676 0.0
C9 C 0.18238 0.3988 0.76329 0.0
C10 C 0.17954 0.38811 0.73841 0.0
N11 N 0.17434 0.37244 0.68161 0.0
C12 C 0.19921 0.36994 0.69642 0.0
C13 C 0.2216 0.36397 0.67989 0.0
C14 C 0.21051 0.36296 0.65404 0.0
C15 C 0.18203 0.36838 0.65606 0.0
N16 N 0.11714 0.37209 0.65753 0.0
C17 C 0.13136 0.36861 0.63459 0.0
C18 C 0.11377 0.36143 0.61373 0.0
C19 C 0.08679 0.36037 0.62416 0.0
C20 C 0.0893 0.36712 0.6509 0.0
N21 N 0.14148 0.41327 0.67758 0.0
C22 C 0.15218 0.45933 0.6593 0.0
C23 C 0.12493 0.449 0.65592 0.0
C24 C 0.12015 0.42591 0.66486 0.0
C25 C 0.17393 0.44544 0.67099 0.0
C26 C 0.16804 0.42309 0.68051 0.0
N27 N 0.12931 0.35041 0.70756 0.0
C28 C 0.13351 0.30897 0.7035 0.0
C29 C 0.12579 0.30583 0.73044 0.0
C30 C 0.11903 0.32529 0.74553 0.0
C31 C 0.12052 0.34742 0.73359 0.0
C32 C 0.1354 0.33141 0.69251 0.0
H33 H 0.11512 0.36212 0.74561 0.0
H34 H 0.14244 0.33337 0.67202 0.0
H35 H 0.09908 0.41845 0.66194 0.0
H36 H 0.18529 0.41397 0.69061 0.0
C37 C 0.11099 0.41118 0.74229 0.0
C38 C 0.06485 0.36924 0.66921 0.0
C39 C 0.20342 0.37637 0.72505 0.0
C40 C 0.16137 0.36759 0.63511 0.0
H41 H 0.02488 0.39141 0.70413 0.0
H42 H 0.04987 0.41631 0.74285 0.0
H43 H 0.15157 0.41986 0.78519 0.0
H44 H 0.2009 0.39875 0.77682 0.0
H45 H 0.24384 0.36138 0.68575 0.0
H46 H 0.22186 0.35862 0.63597 0.0
H47 H 0.12002 0.3563 0.59376 0.0
H48 H 0.06763 0.35489 0.61336 0.0
H49 H 0.1072 0.45873 0.64704 0.0
H50 H 0.19571 0.45169 0.67321 0.0
H51 H 0.13898 0.29424 0.69132 0.0
H52 H 0.11283 0.3234 0.76643 0.0
C53 C 0.60433 0.63785 0.13894 0.0
C54 C 0.60943 0.64291 0.11199 0.0
C55 C 0.63796 0.6383 0.10816 0.0
C56 C 0.64849 0.63072 0.13295 0.0
N57 N 0.62828 0.63034 0.1519 0.0
Co58 Co 0.6334 0.62122 0.19023 0.0
N59 N 0.67482 0.62728 0.18872 0.0
C60 C 0.69075 0.62789 0.16635 0.0
C61 C 0.7192 0.63206 0.17207 0.0
C62 C 0.72108 0.63407 0.19968 0.0
C63 C 0.69351 0.63106 0.20926 0.0
N64 N 0.63851 0.61186 0.22851 0.0
C65 C 0.66027 0.61703 0.24576 0.0
C66 C 0.65551 0.60745 0.27122 0.0
C67 C 0.62989 0.59565 0.26944 0.0
C68 C 0.62041 0.59876 0.24313 0.0
N69 N 0.59189 0.61507 0.19132 0.0
C70 C 0.57824 0.60156 0.20937 0.0
C71 C 0.54903 0.60158 0.20497 0.0
C72 C 0.54431 0.61598 0.18282 0.0
C73 C 0.57101 0.62389 0.17496 0.0
N74 N 0.64019 0.58873 0.17985 0.0
C75 C 0.64996 0.54194 0.16697 0.0
C76 C 0.66835 0.55368 0.18479 0.0
C77 C 0.66292 0.57681 0.19121 0.0
C78 C 0.62653 0.55413 0.1556 0.0
C79 C 0.62226 0.57759 0.16198 0.0
N80 N 0.62694 0.65363 0.20125 0.0
C81 C 0.60566 0.6807 0.2318 0.0
C82 C 0.62149 0.69938 0.22101 0.0
C83 C 0.63947 0.69445 0.19932 0.0
C84 C 0.64168 0.67167 0.18967 0.0
C85 C 0.60882 0.65817 0.22187 0.0
H86 H 0.65591 0.66855 0.17322 0.0
H87 H 0.59687 0.6443 0.23129 0.0
H88 H 0.67715 0.58498 0.20563 0.0
H89 H 0.60433 0.58668 0.15262 0.0
C90 C 0.67754 0.62867 0.14056 0.0
C91 C 0.57655 0.63921 0.15171 0.0
C92 C 0.68596 0.62996 0.23786 0.0
C93 C 0.59274 0.59371 0.23298 0.0
H94 H 0.59421 0.64931 0.09685 0.0
H95 H 0.64984 0.64131 0.08988 0.0
H96 H 0.73634 0.63428 0.15786 0.0
H97 H 0.74053 0.63719 0.21138 0.0
H98 H 0.66898 0.60889 0.28918 0.0
H99 H 0.61889 0.58685 0.28572 0.0
H100 H 0.53295 0.59325 0.21727 0.0
H101 H 0.52368 0.62033 0.17376 0.0
H102 H 0.68655 0.54486 0.19418 0.0
H103 H 0.61183 0.54568 0.14165 0.0
H104 H 0.59083 0.68328 0.24797 0.0
H105 H 0.65247 0.7079 0.19017 0.0
C106 C 0.45106 0.1415 0.69812 0.0
C107 C 0.47489 0.13304 0.71229 0.0
C108 C 0.46484 0.11971 0.73335 0.0
C109 C 0.43549 0.12063 0.7309 0.0
N110 N 0.42644 0.13373 0.70965 0.0
Co111 Co 0.38555 0.13951 0.69931 0.0
N112 N 0.3715 0.12981 0.73562 0.0
C113 C 0.38686 0.11752 0.75422 0.0
C114 C 0.37198 0.1129 0.77734 0.0
C115 C 0.34544 0.12257 0.77291 0.0
C116 C 0.34543 0.1325 0.74714 0.0
N117 N 0.34469 0.14542 0.68878 0.0
C118 C 0.32078 0.14687 0.70403 0.0
C119 C 0.29658 0.15041 0.68768 0.0
C120 C 0.30558 0.15101 0.66148 0.0
C121 C 0.33468 0.14776 0.66316 0.0
N122 N 0.39981 0.14922 0.6631 0.0
C123 C 0.38353 0.15121 0.64041 0.0
C124 C 0.39862 0.1592 0.61862 0.0
C125 C 0.42615 0.16235 0.62811 0.0
C126 C 0.42653 0.15587 0.65527 0.0
N127 N 0.38143 0.10716 0.68724 0.0
C128 C 0.37594 0.06006 0.67378 0.0
C129 C 0.35488 0.07114 0.68842 0.0
C130 C 0.35784 0.09457 0.69465 0.0
C131 C 0.39959 0.07314 0.66529 0.0
C132 C 0.40204 0.09667 0.6724 0.0
N133 N 0.38935 0.17141 0.71161 0.0
C134 C 0.38026 0.21226 0.70526 0.0
C135 C 0.39276 0.21688 0.73064 0.0
C136 C 0.40394 0.19824 0.74602 0.0
C137 C 0.40204 0.17573 0.73617 0.0
C138 C 0.3788 0.18945 0.69613 0.0
H139 H 0.41052 0.16176 0.74864 0.0
H140 H 0.36891 0.1864 0.67664 0.0
H141 H 0.34105 0.10231 0.70595 0.0
H142 H 0.42078 0.10626 0.66626 0.0
C143 C 0.41607 0.11321 0.7505 0.0
C144 C 0.45272 0.1553 0.67273 0.0
C145 C 0.31955 0.14232 0.73347 0.0
C146 C 0.35363 0.14973 0.64166 0.0
H147 H 0.49719 0.13611 0.70782 0.0
H148 H 0.47747 0.11117 0.74919 0.0
H149 H 0.37969 0.10399 0.79551 0.0
H150 H 0.32797 0.12203 0.78692 0.0
H151 H 0.27461 0.15187 0.69396 0.0
H152 H 0.29249 0.15389 0.64342 0.0
H153 H 0.39031 0.16341 0.59854 0.0
H154 H 0.44374 0.16893 0.61633 0.0
H155 H 0.33621 0.06165 0.6952 0.0
H156 H 0.41638 0.06512 0.65394 0.0
H157 H 0.37169 0.22615 0.69249 0.0
H158 H 0.41349 0.20089 0.76588 0.0
C159 C 0.91464 0.89007 0.17619 0.0
C160 C 0.91675 0.88639 0.14867 0.0
C161 C 0.88946 0.88785 0.13795 0.0
C162 C 0.87232 0.89226 0.15948 0.0
N163 N 0.8871 0.89349 0.18307 0.0
Co164 Co 0.87095 0.9001 0.21888 0.0
N165 N 0.83188 0.89181 0.20605 0.0
C166 C 0.82274 0.89096 0.18008 0.0
C167 C 0.79428 0.88526 0.17745 0.0
C168 C 0.78494 0.88249 0.20339 0.0
C169 C 0.8084 0.88662 0.22046 0.0
N170 N 0.85488 0.9068 0.25462 0.0
C171 C 0.8296 0.90005 0.26508 0.0
C172 C 0.82696 0.90807 0.29123 0.0
C173 C 0.85129 0.92064 0.29697 0.0
C174 C 0.86747 0.91947 0.27419 0.0
N175 N 0.91013 0.90871 0.23139 0.0
C176 C 0.91689 0.92152 0.25312 0.0
C177 C 0.9459 0.92493 0.25639 0.0
C178 C 0.95806 0.91367 0.23529 0.0
C179 C 0.93569 0.90403 0.22033 0.0
N180 N 0.8638 0.93265 0.20737 0.0
C181 C 0.8524 0.97931 0.19209 0.0
C182 C 0.83243 0.96598 0.20639 0.0
C183 C 0.83844 0.94291 0.2137 0.0
C184 C 0.87826 0.96856 0.18539 0.0
C185 C 0.88359 0.94533 0.1933 0.0
N186 N 0.87729 0.86755 0.23091 0.0
C187 C 0.8892 0.84005 0.26695 0.0
C188 C 0.87748 0.82148 0.25224 0.0
C189 C 0.86693 0.82662 0.22592 0.0
C190 C 0.86726 0.84955 0.21564 0.0
C191 C 0.88886 0.86276 0.25604 0.0
H192 H 0.85834 0.85284 0.19565 0.0
H193 H 0.89718 0.87657 0.26839 0.0
H194 H 0.82233 0.93339 0.22455 0.0
H195 H 0.90376 0.93766 0.18811 0.0
C196 C 0.84234 0.89192 0.15908 0.0
C197 C 0.93918 0.89186 0.1949 0.0
C198 C 0.807 0.88768 0.25001 0.0
C199 C 0.89607 0.92657 0.2721 0.0
H200 H 0.93599 0.88325 0.13749 0.0
H201 H 0.88284 0.88529 0.11711 0.0
H202 H 0.78198 0.88269 0.15894 0.0
H203 H 0.76325 0.87825 0.20902 0.0
H204 H 0.8093 0.90525 0.30471 0.0
H205 H 0.85694 0.92885 0.31587 0.0
H206 H 0.95696 0.9338 0.27268 0.0
H207 H 0.98072 0.91279 0.23125 0.0
H208 H 0.81192 0.97319 0.21163 0.0
H209 H 0.89448 0.9781 0.17446 0.0
H210 H 0.89843 0.83724 0.28699 0.0
H211 H 0.85746 0.81323 0.21351 0.0
C212 C 0.0728 0.13729 0.8119 0.0
C213 C 0.04998 0.12814 0.7971 0.0
C214 C 0.06151 0.11452 0.77763 0.0
C215 C 0.09066 0.116 0.7816 0.0
N216 N 0.09823 0.12976 0.80227 0.0
Co217 Co 0.13833 0.13625 0.81455 0.0
N218 N 0.15481 0.12542 0.7801 0.0
C219 C 0.14085 0.11228 0.76178 0.0
C220 C 0.15721 0.10725 0.73993 0.0
C221 C 0.18324 0.11762 0.74491 0.0
C222 C 0.18145 0.12834 0.76973 0.0
N223 N 0.17843 0.14291 0.82681 0.0
C224 C 0.20316 0.14447 0.81269 0.0
C225 C 0.22634 0.14887 0.8299 0.0
C226 C 0.21582 0.14995 0.85552 0.0
C227 C 0.18688 0.14613 0.85266 0.0
N228 N 0.12177 0.14693 0.84901 0.0
C229 C 0.1366 0.1497 0.87236 0.0
C230 C 0.11999 0.15777 0.89272 0.0
C231 C 0.09296 0.16008 0.88157 0.0
C232 C 0.09444 0.15309 0.85493 0.0
N233 N 0.14154 0.10444 0.82979 0.0
C234 C 0.14596 0.05857 0.84991 0.0
C235 C 0.16804 0.06865 0.83504 0.0
C236 C 0.16556 0.09156 0.82541 0.0
C237 C 0.12171 0.07196 0.85487 0.0
C238 C 0.11985 0.09481 0.84453 0.0
N239 N 0.1352 0.16774 0.79943 0.0
C240 C 0.14065 0.20903 0.80437 0.0
C241 C 0.13076 0.21302 0.77769 0.0
C242 C 0.12303 0.19364 0.76227 0.0
C243 C 0.12513 0.17129 0.77356 0.0
C244 C 0.143 0.18636 0.81468 0.0
H245 H 0.11872 0.15685 0.76125 0.0
H246 H 0.15107 0.18394 0.83508 0.0
H247 H 0.18306 0.09871 0.81411 0.0
H248 H 0.10068 0.10457 0.84822 0.0
C249 C 0.11141 0.10797 0.76398 0.0
C250 C 0.06935 0.15136 0.83628 0.0
C251 C 0.20605 0.13954 0.78367 0.0
C252 C 0.1666 0.14851 0.8729 0.0
H253 H 0.02736 0.13084 0.80022 0.0
H254 H 0.04999 0.10528 0.76191 0.0
H255 H 0.15074 0.09779 0.72209 0.0
H256 H 0.20148 0.11714 0.73182 0.0
H257 H 0.24861 0.15068 0.82456 0.0
H258 H 0.22779 0.15362 0.87394 0.0
H259 H 0.12693 0.16244 0.91293 0.0
H260 H 0.07441 0.16631 0.89193 0.0
H261 H 0.18709 0.05879 0.83071 0.0
H262 H 0.10408 0.06465 0.8661 0.0
H263 H 0.14638 0.22326 0.81745 0.0
H264 H 0.11578 0.19555 0.74143 0.0
C265 C 0.89909 0.65442 0.37439 0.0
C266 C 0.90145 0.66085 0.40123 0.0
C267 C 0.87416 0.66385 0.40986 0.0
C268 C 0.85693 0.65919 0.3878 0.0
N269 N 0.87147 0.65275 0.36586 0.0
Co270 Co 0.85555 0.64685 0.32869 0.0
N271 N 0.816 0.65497 0.34003 0.0
C272 C 0.80751 0.6597 0.3653 0.0
C273 C 0.77866 0.66351 0.36709 0.0
C274 C 0.76799 0.66073 0.34147 0.0
C275 C 0.79113 0.65546 0.32554 0.0
N276 N 0.8402 0.64251 0.2911 0.0
C277 C 0.81332 0.6454 0.28099 0.0
C278 C 0.81188 0.64154 0.25336 0.0
C279 C 0.83886 0.63568 0.24587 0.0
C280 C 0.85518 0.63647 0.2692 0.0
N281 N 0.8949 0.63758 0.31795 0.0
C282 C 0.90262 0.62858 0.29416 0.0
C283 C 0.9315 0.62447 0.29275 0.0
C284 C 0.94284 0.63166 0.31691 0.0
C285 C 0.92012 0.63976 0.33163 0.0
N286 N 0.84717 0.61329 0.33823 0.0
C287 C 0.83305 0.56574 0.35008 0.0
C288 C 0.83882 0.57357 0.32379 0.0
C289 C 0.84606 0.59681 0.31849 0.0
C290 C 0.83457 0.5825 0.37042 0.0
C291 C 0.84141 0.60587 0.36413 0.0
N292 N 0.86352 0.68004 0.31849 0.0
C293 C 0.88402 0.70814 0.28717 0.0
C294 C 0.86979 0.72668 0.299 0.0
C295 C 0.85342 0.72131 0.32184 0.0
C296 C 0.85081 0.69815 0.33131 0.0
C297 C 0.88057 0.68534 0.29698 0.0
H298 H 0.83796 0.69514 0.34874 0.0
H299 H 0.8916 0.67217 0.28645 0.0
H300 H 0.85045 0.60086 0.29795 0.0
H301 H 0.84185 0.61758 0.38064 0.0
C302 C 0.8273 0.6617 0.38658 0.0
C303 C 0.92359 0.65144 0.3573 0.0
C304 C 0.78829 0.65013 0.29704 0.0
C305 C 0.88366 0.62917 0.27192 0.0
H306 H 0.92091 0.66366 0.41302 0.0
H307 H 0.86769 0.66954 0.42955 0.0
H308 H 0.76682 0.66786 0.38487 0.0
H309 H 0.74569 0.66223 0.33525 0.0
H310 H 0.79307 0.64224 0.24018 0.0
H311 H 0.84556 0.63068 0.22599 0.0
H312 H 0.94319 0.61864 0.27548 0.0
H313 H 0.96537 0.63199 0.32256 0.0
H314 H 0.8374 0.56196 0.30685 0.0
H315 H 0.83077 0.57771 0.39128 0.0
H316 H 0.89786 0.71105 0.27016 0.0
H317 H 0.84193 0.73475 0.33207 0.0
C318 C 0.45144 0.38505 0.81034 0.0
C319 C 0.47416 0.39465 0.79636 0.0
C320 C 0.46242 0.40838 0.77603 0.0
C321 C 0.43325 0.40648 0.7787 0.0
N322 N 0.42593 0.39241 0.7994 0.0
Co323 Co 0.38599 0.38475 0.80979 0.0
N324 N 0.3696 0.39492 0.77399 0.0
C325 C 0.3833 0.40832 0.75579 0.0
C326 C 0.36713 0.4126 0.73276 0.0
C327 C 0.34152 0.40148 0.73684 0.0
C328 C 0.34328 0.39111 0.76237 0.0
N329 N 0.34612 0.377 0.82038 0.0
C330 C 0.32161 0.37477 0.80514 0.0
C331 C 0.29843 0.37006 0.82151 0.0
C332 C 0.30875 0.36946 0.84769 0.0
C333 C 0.33758 0.37389 0.84601 0.0
N334 N 0.40259 0.37454 0.84543 0.0
C335 C 0.38782 0.37178 0.8683 0.0
C336 C 0.40471 0.3643 0.8898 0.0
C337 C 0.43182 0.36229 0.87982 0.0
C338 C 0.43 0.36867 0.85269 0.0
N339 N 0.38088 0.4165 0.8233 0.0
C340 C 0.3729 0.46232 0.84049 0.0
C341 C 0.39787 0.45004 0.8478 0.0
C342 C 0.40153 0.42716 0.83886 0.0
C343 C 0.35198 0.45114 0.82484 0.0
C344 C 0.35622 0.42833 0.81671 0.0
N345 N 0.39062 0.35342 0.79618 0.0
C346 C 0.38276 0.31226 0.80078 0.0
C347 C 0.39381 0.30893 0.77513 0.0
C348 C 0.40382 0.32806 0.7604 0.0
C349 C 0.40207 0.35019 0.77131 0.0
C350 C 0.38144 0.33467 0.811 0.0
H351 H 0.40954 0.36473 0.75941 0.0
H352 H 0.37255 0.33688 0.8307 0.0
H353 H 0.42114 0.41818 0.84428 0.0
H354 H 0.33945 0.42042 0.80477 0.0
C355 C 0.41246 0.41371 0.7595 0.0
C356 C 0.45488 0.37021 0.8348 0.0
C357 C 0.31882 0.37959 0.77575 0.0
C358 C 0.35777 0.37228 0.86741 0.0
H359 H 0.49679 0.39196 0.80041 0.0
H360 H 0.47382 0.41773 0.76042 0.0
H361 H 0.37347 0.42211 0.71478 0.0
H362 H 0.32354 0.40127 0.72269 0.0
H363 H 0.27626 0.3678 0.81527 0.0
H364 H 0.29673 0.36578 0.86574 0.0
H365 H 0.39794 0.35984 0.91002 0.0
H366 H 0.45072 0.35672 0.89118 0.0
H367 H 0.41463 0.4582 0.8598 0.0
H368 H 0.3324 0.46005 0.81879 0.0
H369 H 0.37488 0.29769 0.81265 0.0
H370 H 0.41249 0.32596 0.74046 0.0
C371 C 0.56975 0.86209 0.34085 0.0
C372 C 0.5639 0.85398 0.36677 0.0
C373 C 0.5896 0.84877 0.37893 0.0
C374 C 0.60959 0.85387 0.35985 0.0
N375 N 0.59829 0.86213 0.3362 0.0
Co376 Co 0.61972 0.87136 0.30296 0.0
N377 N 0.65734 0.86227 0.3205 0.0
C378 C 0.66165 0.85327 0.34569 0.0
C379 C 0.68981 0.84896 0.35221 0.0
C380 C 0.70447 0.85565 0.32986 0.0
C381 C 0.68425 0.86361 0.31091 0.0
N382 N 0.64105 0.88086 0.26986 0.0
C383 C 0.66951 0.88056 0.26513 0.0
C384 C 0.67543 0.88862 0.23921 0.0
C385 C 0.64982 0.89456 0.2273 0.0
C386 C 0.62982 0.88971 0.24647 0.0
N387 N 0.58193 0.88005 0.28537 0.0
C388 C 0.57753 0.88889 0.26011 0.0
C389 C 0.54927 0.8927 0.25346 0.0
C390 C 0.53461 0.8857 0.27572 0.0
C391 C 0.5549 0.87798 0.29469 0.0
N392 N 0.62454 0.90379 0.317 0.0
C393 C 0.63698 0.94972 0.33459 0.0
C394 C 0.62306 0.94574 0.30975 0.0
C395 C 0.61733 0.92293 0.30134 0.0
C396 C 0.64366 0.93025 0.35082 0.0
C397 C 0.6369 0.90776 0.34195 0.0
N398 N 0.61562 0.83901 0.28868 0.0
C399 C 0.60749 0.81288 0.2511 0.0
C400 C 0.61541 0.79332 0.26686 0.0
C401 C 0.62246 0.79729 0.29415 0.0
C402 C 0.62211 0.81988 0.30455 0.0
C403 C 0.60782 0.83521 0.26221 0.0
H404 H 0.62762 0.82148 0.32546 0.0
H405 H 0.60193 0.84919 0.24886 0.0
H406 H 0.60751 0.92124 0.28184 0.0
H407 H 0.64224 0.89382 0.35557 0.0
C408 C 0.6389 0.84996 0.36313 0.0
C409 C 0.54736 0.86868 0.32115 0.0
C410 C 0.69172 0.87306 0.28452 0.0
C411 C 0.60039 0.8931 0.243 0.0
H412 H 0.5432 0.85167 0.37587 0.0
H413 H 0.59324 0.84164 0.39909 0.0
H414 H 0.69866 0.84215 0.37112 0.0
H415 H 0.7275 0.85505 0.32793 0.0
H416 H 0.69613 0.89011 0.22989 0.0
H417 H 0.64621 0.90158 0.20708 0.0
H418 H 0.54037 0.89957 0.23459 0.0
H419 H 0.51158 0.88611 0.27776 0.0
H420 H 0.6174 0.96017 0.29638 0.0
H421 H 0.65397 0.93235 0.37045 0.0
H422 H 0.60091 0.81113 0.23013 0.0
H423 H 0.62896 0.78314 0.30756 0.0
C424 C 0.63711 0.14054 0.39754 0.0
C425 C 0.60947 0.14448 0.38784 0.0
C426 C 0.60904 0.13803 0.36114 0.0
C427 C 0.63639 0.13054 0.35619 0.0
N428 N 0.65371 0.13196 0.37813 0.0
Co429 Co 0.69485 0.1242 0.38046 0.0
N430 N 0.6984 0.12741 0.3411 0.0
C431 C 0.67683 0.12601 0.32266 0.0
C432 C 0.68622 0.12826 0.29665 0.0
C433 C 0.71538 0.13112 0.29905 0.0
C434 C 0.72224 0.13058 0.32658 0.0
N435 N 0.73603 0.11657 0.38313 0.0
C436 C 0.75683 0.12122 0.36532 0.0
C437 C 0.78322 0.11342 0.37522 0.0
C438 C 0.77841 0.10315 0.39996 0.0
C439 C 0.74952 0.10539 0.40384 0.0
N440 N 0.69109 0.12048 0.41982 0.0
C441 C 0.70859 0.10844 0.43681 0.0
C442 C 0.70014 0.1094 0.4632 0.0
C443 C 0.67589 0.12287 0.46256 0.0
C444 C 0.67091 0.12928 0.43569 0.0
N445 N 0.68547 0.09085 0.37587 0.0
C446 C 0.66976 0.04432 0.36505 0.0
C447 C 0.69454 0.05426 0.35421 0.0
C448 C 0.70182 0.07744 0.35958 0.0
C449 C 0.65335 0.05813 0.38198 0.0
C450 C 0.66176 0.08113 0.38743 0.0
N451 N 0.70411 0.15765 0.38427 0.0
C452 C 0.73116 0.18906 0.40472 0.0
C453 C 0.71939 0.20539 0.3861 0.0
C454 C 0.69917 0.19712 0.36715 0.0
C455 C 0.69181 0.17349 0.36665 0.0
C456 C 0.72337 0.16537 0.4034 0.0
H457 H 0.67632 0.168 0.3516 0.0
H458 H 0.73328 0.15322 0.41756 0.0
H459 H 0.72045 0.08464 0.34999 0.0
H460 H 0.64873 0.0912 0.40065 0.0
C461 C 0.64811 0.12683 0.3307 0.0
C462 C 0.64701 0.14348 0.42544 0.0
C463 C 0.75159 0.13115 0.33822 0.0
C464 C 0.73545 0.10114 0.4282 0.0
H465 H 0.59166 0.15125 0.3989 0.0
H466 H 0.59132 0.13973 0.34678 0.0
H467 H 0.67336 0.12865 0.27818 0.0
H468 H 0.72985 0.13318 0.28238 0.0
H469 H 0.80373 0.11483 0.36554 0.0
H470 H 0.79429 0.09582 0.41388 0.0
H471 H 0.71119 0.10237 0.48096 0.0
H472 H 0.66366 0.12763 0.47992 0.0
H473 H 0.70784 0.04441 0.34089 0.0
H474 H 0.63419 0.05117 0.39108 0.0
H475 H 0.7469 0.1944 0.41978 0.0
H476 H 0.68889 0.20888 0.35267 0.0
C477 C 0.95129 0.19997 0.88764 0.0
C478 C 0.97444 0.20913 0.90194 0.0
C479 C 0.9641 0.22695 0.91675 0.0
C480 C 0.93529 0.22767 0.91075 0.0
N481 N 0.92643 0.21106 0.89345 0.0
Co482 Co 0.88646 0.2074 0.87776 0.0
N483 N 0.87211 0.23618 0.89566 0.0
C484 C 0.88799 0.2504 0.91152 0.0
C485 C 0.87311 0.2691 0.92057 0.0
C486 C 0.84601 0.26669 0.91004 0.0
C487 C 0.84565 0.24641 0.89526 0.0
N488 N 0.84638 0.20365 0.86219 0.0
C489 C 0.82201 0.21638 0.86541 0.0
C490 C 0.79868 0.20622 0.85229 0.0
C491 C 0.80849 0.18677 0.84016 0.0
C492 C 0.83712 0.18587 0.84668 0.0
N493 N 0.90093 0.17896 0.85932 0.0
C494 C 0.88516 0.16445 0.84375 0.0
C495 C 0.90104 0.14754 0.83194 0.0
C496 C 0.92873 0.15176 0.83995 0.0
C497 C 0.92822 0.17108 0.85626 0.0
N498 N 0.87533 0.18844 0.90961 0.0
C499 C 0.85178 0.16609 0.9548 0.0
C500 C 0.84721 0.15731 0.92899 0.0
C501 C 0.85953 0.16848 0.90687 0.0
C502 C 0.87056 0.18483 0.95785 0.0
C503 C 0.88179 0.19575 0.93518 0.0
N504 N 0.89791 0.22595 0.84613 0.0
C505 C 0.90361 0.22726 0.79812 0.0
C506 C 0.92559 0.24365 0.80072 0.0
C507 C 0.93173 0.25256 0.82625 0.0
C508 C 0.91723 0.24379 0.84855 0.0
C509 C 0.8901 0.21881 0.82087 0.0
H510 H 0.92254 0.25122 0.86759 0.0
H511 H 0.87398 0.20602 0.81758 0.0
H512 H 0.85516 0.16098 0.88779 0.0
H513 H 0.8949 0.21047 0.93891 0.0
C514 C 0.91675 0.24552 0.91797 0.0
C515 C 0.95437 0.18177 0.86751 0.0
C516 C 0.81957 0.23774 0.88126 0.0
C517 C 0.85596 0.1685 0.83863 0.0
H518 H 0.99669 0.20405 0.90092 0.0
H519 H 0.97639 0.23878 0.92923 0.0
H520 H 0.88101 0.28286 0.93339 0.0
H521 H 0.82852 0.27859 0.91296 0.0
H522 H 0.77664 0.21198 0.85181 0.0
H523 H 0.79611 0.17456 0.82827 0.0
H524 H 0.89352 0.13429 0.81822 0.0
H525 H 0.94733 0.14213 0.83387 0.0
H526 H 0.83321 0.14256 0.92562 0.0
H527 H 0.87586 0.19163 0.97762 0.0
H528 H 0.89656 0.221 0.77855 0.0
H529 H 0.94771 0.26602 0.82907 0.0
C530 C 0.83024 0.38141 0.41171 0.0
C531 C 0.85829 0.37363 0.41 0.0
C532 C 0.86097 0.36474 0.38474 0.0
C533 C 0.83461 0.36772 0.37243 0.0
N534 N 0.81555 0.37818 0.38825 0.0
Co535 Co 0.7754 0.38641 0.37813 0.0
N536 N 0.78302 0.38286 0.3392 0.0
C537 C 0.8058 0.37231 0.32855 0.0
C538 C 0.80609 0.37384 0.30089 0.0
C539 C 0.78183 0.38586 0.2937 0.0
C540 C 0.76782 0.39077 0.3174 0.0
N541 N 0.73515 0.39443 0.36799 0.0
C542 C 0.7234 0.40022 0.34359 0.0
C543 C 0.69419 0.40423 0.3454 0.0
C544 C 0.68738 0.40049 0.37187 0.0
C545 C 0.71272 0.39448 0.38465 0.0
N546 N 0.76786 0.39024 0.41708 0.0
C547 C 0.74194 0.39103 0.42848 0.0
C548 C 0.74337 0.39391 0.4559 0.0
C549 C 0.77199 0.39478 0.46226 0.0
C550 C 0.7865 0.39233 0.43821 0.0
N551 N 0.78643 0.41962 0.37516 0.0
C552 C 0.80211 0.46718 0.36909 0.0
C553 C 0.77643 0.46043 0.38153 0.0
C554 C 0.76918 0.43676 0.38457 0.0
C555 C 0.81982 0.44918 0.3603 0.0
C556 C 0.81152 0.42585 0.36318 0.0
N557 N 0.76451 0.35306 0.38089 0.0
C558 C 0.76748 0.31545 0.4037 0.0
C559 C 0.75023 0.30496 0.38361 0.0
C560 C 0.7401 0.3195 0.36234 0.0
C561 C 0.74749 0.3432 0.36132 0.0
C562 C 0.77424 0.33931 0.40201 0.0
H563 H 0.73944 0.35352 0.34449 0.0
H564 H 0.78763 0.34655 0.41775 0.0
H565 H 0.7494 0.43237 0.39429 0.0
H566 H 0.82557 0.41284 0.35552 0.0
C567 C 0.82868 0.3648 0.34498 0.0
C568 C 0.81755 0.38872 0.43699 0.0
C569 C 0.73836 0.39959 0.31797 0.0
C570 C 0.71698 0.3922 0.41254 0.0
H571 H 0.87487 0.37391 0.42562 0.0
H572 H 0.88013 0.3577 0.37609 0.0
H573 H 0.8225 0.36778 0.28761 0.0
H574 H 0.77506 0.39031 0.27331 0.0
H575 H 0.67932 0.409 0.32917 0.0
H576 H 0.66661 0.40253 0.38084 0.0
H577 H 0.72575 0.3957 0.46957 0.0
H578 H 0.78106 0.39644 0.48244 0.0
H579 H 0.76156 0.47326 0.38852 0.0
H580 H 0.84026 0.45287 0.35127 0.0
H581 H 0.77628 0.30528 0.42048 0.0
H582 H 0.72624 0.31277 0.34649 0.0
C583 C 0.57368 0.3168 0.88747 0.0
C584 C 0.55081 0.30524 0.89912 0.0
C585 C 0.56204 0.28692 0.9137 0.0
C586 C 0.59109 0.28832 0.91037 0.0
N587 N 0.59917 0.30658 0.8947 0.0
Co588 Co 0.63969 0.31449 0.8846 0.0
N589 N 0.65585 0.28527 0.90203 0.0
C590 C 0.64048 0.26868 0.91498 0.0
C591 C 0.65626 0.24955 0.92259 0.0
C592 C 0.68327 0.25395 0.91369 0.0
C593 C 0.6827 0.27577 0.90132 0.0
N594 N 0.68025 0.32263 0.87494 0.0
C595 C 0.70517 0.31036 0.87785 0.0
C596 C 0.72837 0.32329 0.8689 0.0
C597 C 0.71777 0.34399 0.85932 0.0
C598 C 0.68883 0.34277 0.86318 0.0
N599 N 0.62347 0.34312 0.86603 0.0
C600 C 0.63883 0.35985 0.8534 0.0
C601 C 0.62231 0.3767 0.84097 0.0
C602 C 0.59465 0.37026 0.84562 0.0
C603 C 0.59578 0.34982 0.86089 0.0
N604 N 0.64501 0.33145 0.91897 0.0
C605 C 0.66145 0.3516 0.96809 0.0
C606 C 0.66375 0.36418 0.94396 0.0
C607 C 0.65528 0.35382 0.91966 0.0
C608 C 0.64861 0.32979 0.96761 0.0
C609 C 0.6404 0.32024 0.9431 0.0
N610 N 0.63487 0.29749 0.85091 0.0
C611 C 0.64888 0.29136 0.80521 0.0
C612 C 0.63589 0.26952 0.80575 0.0
C613 C 0.62101 0.26241 0.82845 0.0
C614 C 0.62072 0.27664 0.85072 0.0
C615 C 0.64779 0.30518 0.82788 0.0
H616 H 0.6095 0.27012 0.86771 0.0
H617 H 0.65799 0.32177 0.82663 0.0
H618 H 0.65792 0.36407 0.90182 0.0
H619 H 0.63116 0.30349 0.94436 0.0
C620 C 0.61091 0.27119 0.91857 0.0
C621 C 0.56991 0.33724 0.86946 0.0
C622 C 0.70803 0.2864 0.88852 0.0
C623 C 0.66879 0.35895 0.85316 0.0
H624 H 0.52827 0.30936 0.89687 0.0
H625 H 0.5503 0.27362 0.92456 0.0
H626 H 0.6488 0.23392 0.93271 0.0
H627 H 0.70112 0.24207 0.9156 0.0
H628 H 0.75065 0.31818 0.86888 0.0
H629 H 0.72966 0.35796 0.84982 0.0
H630 H 0.62951 0.39169 0.82946 0.0
H631 H 0.57579 0.37944 0.83824 0.0
H632 H 0.67305 0.38144 0.94371 0.0
H633 H 0.64559 0.31981 0.98612 0.0
H634 H 0.65973 0.29772 0.7874 0.0
H635 H 0.61022 0.24572 0.82926 0.0
C636 C 0.66652 0.36167 0.09265 0.0
C637 C 0.64107 0.35356 0.08102 0.0
C638 C 0.62597 0.34302 0.10129 0.0
C639 C 0.6429 0.34516 0.1241 0.0
N640 N 0.66757 0.35658 0.11941 0.0
Co641 Co 0.69832 0.36263 0.14639 0.0
N642 N 0.67182 0.35774 0.1766 0.0
C643 C 0.64647 0.34662 0.17556 0.0
C644 C 0.63232 0.34738 0.19958 0.0
C645 C 0.64999 0.35969 0.2167 0.0
C646 C 0.67413 0.36556 0.20213 0.0
N647 N 0.72909 0.36818 0.17329 0.0
C648 C 0.72692 0.37408 0.19936 0.0
C649 C 0.75386 0.37525 0.21174 0.0
C650 C 0.77342 0.37019 0.19242 0.0
C651 C 0.75739 0.36603 0.16944 0.0
N652 N 0.72491 0.36781 0.11632 0.0
C653 C 0.75373 0.36697 0.11804 0.0
C654 C 0.76644 0.3718 0.09383 0.0
C655 C 0.74422 0.37563 0.07575 0.0
C656 C 0.71906 0.37267 0.08997 0.0
N657 N 0.68875 0.39599 0.14579 0.0
C658 C 0.67508 0.44375 0.14949 0.0
C659 C 0.7037 0.43607 0.14913 0.0
C660 C 0.70999 0.41237 0.1469 0.0
C661 C 0.65357 0.42665 0.14726 0.0
C662 C 0.6608 0.40306 0.14573 0.0
N663 N 0.70801 0.32922 0.14739 0.0
C664 C 0.71935 0.2937 0.12457 0.0
C665 C 0.72418 0.28181 0.14935 0.0
C666 C 0.72026 0.29439 0.17308 0.0
C667 C 0.71236 0.31788 0.17168 0.0
C668 C 0.71118 0.31718 0.12403 0.0
H669 H 0.70997 0.32692 0.19041 0.0
H670 H 0.70776 0.32567 0.10463 0.0
H671 H 0.73219 0.40724 0.14673 0.0
H672 H 0.64365 0.39049 0.1449 0.0
C673 C 0.63437 0.3403 0.1506 0.0
C674 C 0.69036 0.37167 0.07725 0.0
C675 C 0.69967 0.37735 0.21304 0.0
C676 C 0.7679 0.36501 0.14321 0.0
H677 H 0.63422 0.35476 0.06002 0.0
H678 H 0.6048 0.33537 0.09969 0.0
H679 H 0.61102 0.34096 0.20373 0.0
H680 H 0.64543 0.36398 0.23736 0.0
H681 H 0.75885 0.3793 0.23248 0.0
H682 H 0.79654 0.37061 0.1946 0.0
H683 H 0.78912 0.37304 0.08992 0.0
H684 H 0.74629 0.37959 0.05442 0.0
H685 H 0.72141 0.44809 0.15122 0.0
H686 H 0.63113 0.43126 0.14671 0.0
H687 H 0.72237 0.28514 0.10554 0.0
H688 H 0.72306 0.28618 0.1928 0.0
C689 C 0.56644 0.21357 0.62185 0.0
C690 C 0.54278 0.22757 0.61649 0.0
C691 C 0.55241 0.24679 0.60256 0.0
C692 C 0.58135 0.24353 0.60002 0.0
N693 N 0.59057 0.22354 0.61165 0.0
Co694 Co 0.63099 0.2124 0.61164 0.0
N695 N 0.64666 0.2438 0.6027 0.0
C696 C 0.63114 0.26157 0.59222 0.0
C697 C 0.64719 0.28132 0.58828 0.0
C698 C 0.67456 0.27557 0.59658 0.0
C699 C 0.67387 0.25247 0.60503 0.0
N700 N 0.67147 0.20137 0.61188 0.0
C701 C 0.69669 0.21339 0.61372 0.0
C702 C 0.71981 0.19836 0.61297 0.0
C703 C 0.70872 0.17635 0.61061 0.0
C704 C 0.67948 0.17906 0.60995 0.0
N705 N 0.61539 0.18098 0.62054 0.0
C706 C 0.6298 0.16095 0.61801 0.0
C707 C 0.61431 0.14189 0.62617 0.0
C708 C 0.58842 0.1504 0.63408 0.0
C709 C 0.58932 0.17432 0.63007 0.0
N710 N 0.62698 0.20584 0.57321 0.0
C711 C 0.62234 0.19362 0.51879 0.0
C712 C 0.59946 0.18997 0.53624 0.0
C713 C 0.60235 0.19591 0.56334 0.0
C714 C 0.64711 0.20458 0.52902 0.0
C715 C 0.64886 0.21074 0.55613 0.0
N716 N 0.63468 0.2188 0.64961 0.0
C717 C 0.64818 0.20684 0.69469 0.0
C718 C 0.63658 0.2273 0.70424 0.0
C719 C 0.6247 0.24366 0.68624 0.0
C720 C 0.62418 0.23916 0.6589 0.0
C721 C 0.64678 0.2028 0.66707 0.0
H722 H 0.61498 0.25202 0.64532 0.0
H723 H 0.6552 0.18671 0.6599 0.0
H724 H 0.58477 0.19195 0.5764 0.0
H725 H 0.6683 0.21886 0.56345 0.0
C726 C 0.60111 0.26014 0.59077 0.0
C727 C 0.56455 0.18993 0.63396 0.0
C728 C 0.69961 0.23899 0.61363 0.0
C729 C 0.65913 0.16119 0.61227 0.0
H730 H 0.52076 0.22409 0.62169 0.0
H731 H 0.53989 0.26166 0.59578 0.0
H732 H 0.6397 0.29818 0.58125 0.0
H733 H 0.69285 0.28714 0.59642 0.0
H734 H 0.74234 0.20286 0.61377 0.0
H735 H 0.7206 0.16024 0.61039 0.0
H736 H 0.62137 0.12401 0.62733 0.0
H737 H 0.57101 0.14008 0.64196 0.0
H738 H 0.57967 0.18199 0.52929 0.0
H739 H 0.66565 0.20747 0.51663 0.0
H740 H 0.65776 0.19406 0.70842 0.0
H741 H 0.61604 0.25987 0.6933 0.0
C742 C 0.78744 0.07589 0.15324 0.0
C743 C 0.76822 0.05747 0.15203 0.0
C744 C 0.74204 0.06673 0.14496 0.0
C745 C 0.74668 0.09019 0.14211 0.0
N746 N 0.77415 0.09627 0.14701 0.0
Co747 Co 0.78993 0.12829 0.14447 0.0
N748 N 0.75121 0.14258 0.14686 0.0
C749 C 0.72609 0.13133 0.14338 0.0
C750 C 0.70276 0.14538 0.14654 0.0
C751 C 0.71382 0.16693 0.15188 0.0
C752 C 0.74345 0.16493 0.15139 0.0
N753 N 0.80577 0.16033 0.14106 0.0
C754 C 0.79332 0.18131 0.14479 0.0
C755 C 0.81201 0.19925 0.13814 0.0
C756 C 0.83679 0.18917 0.12989 0.0
C757 C 0.83196 0.16571 0.13181 0.0
N758 N 0.82863 0.11393 0.14285 0.0
C759 C 0.85252 0.12452 0.13414 0.0
C760 C 0.87625 0.11052 0.13606 0.0
C761 C 0.86667 0.08975 0.1465 0.0
C762 C 0.83744 0.09218 0.15017 0.0
N763 N 0.78585 0.12738 0.10522 0.0
C764 C 0.79378 0.13348 0.05004 0.0
C765 C 0.80391 0.1134 0.0635 0.0
C766 C 0.79896 0.11038 0.09106 0.0
C767 C 0.77566 0.14826 0.06389 0.0
C768 C 0.77272 0.14535 0.09155 0.0
N769 N 0.79424 0.12933 0.18345 0.0
C770 C 0.82148 0.13971 0.22327 0.0
C771 C 0.79983 0.1306 0.23928 0.0
C772 C 0.77543 0.12093 0.22706 0.0
C773 C 0.77295 0.12062 0.19913 0.0
C774 C 0.8184 0.13863 0.1952 0.0
H775 H 0.7537 0.11348 0.19023 0.0
H776 H 0.83545 0.14542 0.18304 0.0
H777 H 0.80783 0.09526 0.10126 0.0
H778 H 0.76167 0.15877 0.10189 0.0
C779 C 0.72536 0.10721 0.14017 0.0
C780 C 0.8183 0.07323 0.15888 0.0
C781 C 0.7632 0.185 0.15193 0.0
C782 C 0.85252 0.1484 0.12843 0.0
H783 H 0.77265 0.03926 0.15589 0.0
H784 H 0.72182 0.05756 0.1433 0.0
H785 H 0.68036 0.14048 0.14553 0.0
H786 H 0.70142 0.18244 0.15508 0.0
H787 H 0.80802 0.21774 0.13863 0.0
H788 H 0.85618 0.19793 0.12369 0.0
H789 H 0.89813 0.11511 0.13143 0.0
H790 H 0.87974 0.07461 0.15082 0.0
H791 H 0.81747 0.10109 0.0536 0.0
H792 H 0.76594 0.1633 0.05402 0.0
H793 H 0.84044 0.14752 0.23232 0.0
H794 H 0.75805 0.11415 0.23909 0.0
C795 C 0.94439 0.32115 0.61572 0.0
C796 C 0.96639 0.31306 0.60006 0.0
C797 C 0.95413 0.29819 0.58171 0.0
C798 C 0.92537 0.29802 0.5871 0.0
N799 N 0.91876 0.31186 0.60765 0.0
Co800 Co 0.87957 0.31599 0.62223 0.0
N801 N 0.86428 0.28724 0.60486 0.0
C802 C 0.87753 0.27568 0.58527 0.0
C803 C 0.86218 0.25689 0.57623 0.0
C804 C 0.83742 0.25677 0.5906 0.0
C805 C 0.83879 0.2757 0.60758 0.0
N806 N 0.84026 0.32042 0.63671 0.0
C807 C 0.81672 0.30621 0.63687 0.0
C808 C 0.79345 0.31751 0.64763 0.0
C809 C 0.80246 0.33946 0.65398 0.0
C810 C 0.83065 0.34049 0.64677 0.0
N811 N 0.89501 0.34456 0.63964 0.0
C812 C 0.87911 0.36188 0.64922 0.0
C813 C 0.89543 0.37917 0.66069 0.0
C814 C 0.92337 0.37228 0.65815 0.0
C815 C 0.92259 0.3511 0.64524 0.0
N816 N 0.86878 0.33412 0.59011 0.0
C817 C 0.8559 0.35618 0.54102 0.0
C818 C 0.88133 0.36143 0.55499 0.0
C819 C 0.8874 0.35014 0.57961 0.0
C820 C 0.83631 0.34087 0.55274 0.0
C821 C 0.84311 0.33008 0.57729 0.0
N822 N 0.89104 0.29826 0.65411 0.0
C823 C 0.89977 0.29869 0.70179 0.0
C824 C 0.92086 0.28157 0.69954 0.0
C825 C 0.925 0.2717 0.67426 0.0
C826 C 0.90931 0.27995 0.6519 0.0
C827 C 0.88524 0.30684 0.67887 0.0
H828 H 0.91325 0.27243 0.63256 0.0
H829 H 0.87044 0.32093 0.68105 0.0
H830 H 0.90758 0.35379 0.58966 0.0
H831 H 0.82788 0.31795 0.58533 0.0
C832 C 0.90522 0.28196 0.57737 0.0
C833 C 0.94837 0.3384 0.6372 0.0
C834 C 0.81423 0.28336 0.62371 0.0
C835 C 0.84941 0.35916 0.65137 0.0
H836 H 0.98894 0.31731 0.60186 0.0
H837 H 0.96513 0.28783 0.56714 0.0
H838 H 0.86832 0.24462 0.56108 0.0
H839 H 0.82 0.24448 0.5883 0.0
H840 H 0.77188 0.3109 0.64979 0.0
H841 H 0.78992 0.35302 0.66285 0.0
H842 H 0.88791 0.39445 0.67078 0.0
H843 H 0.94216 0.38172 0.66503 0.0
H844 H 0.89687 0.37331 0.54643 0.0
H845 H 0.81615 0.33677 0.54262 0.0
H846 H 0.89443 0.30593 0.72109 0.0
H847 H 0.94054 0.25807 0.67158 0.0
C848 C 0.36937 0.7126 0.05405 0.0
C849 C 0.36475 0.72983 0.03441 0.0
C850 C 0.37393 0.75035 0.04513 0.0
C851 C 0.38268 0.74503 0.07109 0.0
N852 N 0.37922 0.72241 0.07764 0.0
Co853 Co 0.38355 0.70921 0.11534 0.0
N854 N 0.38441 0.74045 0.13286 0.0
C855 C 0.38858 0.76065 0.11941 0.0
C856 C 0.38952 0.77956 0.13589 0.0
C857 C 0.38614 0.77083 0.16153 0.0
C858 C 0.38317 0.74694 0.15939 0.0
N859 N 0.38781 0.69597 0.15307 0.0
C860 C 0.38639 0.70595 0.17804 0.0
C861 C 0.39176 0.68956 0.19839 0.0
C862 C 0.39764 0.66906 0.18598 0.0
C863 C 0.3953 0.67384 0.15876 0.0
N864 N 0.38269 0.67808 0.09779 0.0
C865 C 0.39214 0.65843 0.11005 0.0
C866 C 0.39226 0.6398 0.09319 0.0
C867 C 0.38227 0.64815 0.06866 0.0
C868 C 0.37595 0.67152 0.07184 0.0
N869 N 0.42521 0.70994 0.11258 0.0
C870 C 0.48229 0.69624 0.11589 0.0
C871 C 0.46635 0.69356 0.09183 0.0
C872 C 0.43787 0.70085 0.09047 0.0
C873 C 0.47032 0.70891 0.13671 0.0
C874 C 0.44178 0.71576 0.13455 0.0
N875 N 0.34231 0.7079 0.11798 0.0
C876 C 0.29938 0.68594 0.12605 0.0
C877 C 0.28313 0.70438 0.11555 0.0
C878 C 0.29681 0.72482 0.10723 0.0
C879 C 0.32636 0.72632 0.10891 0.0
C880 C 0.32916 0.68799 0.12685 0.0
H881 H 0.33627 0.74229 0.10251 0.0
H882 H 0.34151 0.67339 0.1343 0.0
H883 H 0.42549 0.69726 0.07238 0.0
H884 H 0.43263 0.72384 0.15177 0.0
C885 C 0.38799 0.7614 0.09116 0.0
C886 C 0.366 0.68713 0.04908 0.0
C887 C 0.38269 0.73111 0.18338 0.0
C888 C 0.39786 0.65777 0.13799 0.0
H889 H 0.35486 0.72825 0.01462 0.0
H890 H 0.37237 0.76742 0.03571 0.0
H891 H 0.39197 0.79763 0.12994 0.0
H892 H 0.38659 0.7809 0.1798 0.0
H893 H 0.39205 0.69221 0.21998 0.0
H894 H 0.40281 0.65257 0.19571 0.0
H895 H 0.39863 0.62215 0.09816 0.0
H896 H 0.38064 0.63814 0.05042 0.0
H897 H 0.47515 0.6845 0.07492 0.0
H898 H 0.48191 0.71163 0.15559 0.0
H899 H 0.2892 0.6702 0.13343 0.0
H900 H 0.28463 0.73978 0.10003 0.0
C901 C 0.41021 0.84873 0.36113 0.0
C902 C 0.40282 0.87106 0.35276 0.0
C903 C 0.37417 0.87362 0.35808 0.0
C904 C 0.36569 0.85273 0.36929 0.0
N905 N 0.38728 0.83736 0.37119 0.0
Co906 Co 0.38477 0.80507 0.38512 0.0
N907 N 0.34314 0.8044 0.37931 0.0
C908 C 0.32576 0.82295 0.37702 0.0
C909 C 0.29753 0.81668 0.3734 0.0
C910 C 0.29745 0.79279 0.37349 0.0
C911 C 0.3258 0.78578 0.37702 0.0
N912 N 0.38285 0.77288 0.39914 0.0
C913 C 0.36254 0.75673 0.39447 0.0
C914 C 0.36991 0.73571 0.40693 0.0
C915 C 0.39556 0.73925 0.42034 0.0
C916 C 0.40253 0.76204 0.41509 0.0
N917 N 0.42658 0.80586 0.39127 0.0
C918 C 0.44184 0.79223 0.40856 0.0
C919 C 0.47061 0.79735 0.40863 0.0
C920 C 0.47344 0.81532 0.39028 0.0
C921 C 0.44613 0.82007 0.38 0.0
N922 N 0.37855 0.81683 0.42289 0.0
C923 C 0.36546 0.83446 0.4756 0.0
C924 C 0.35189 0.81461 0.46492 0.0
C925 C 0.35849 0.8063 0.43898 0.0
C926 C 0.38616 0.84504 0.45883 0.0
C927 C 0.39247 0.83598 0.43297 0.0
N928 N 0.38938 0.79308 0.34728 0.0
C929 C 0.40582 0.7638 0.31587 0.0
C930 C 0.38871 0.77278 0.29411 0.0
C931 C 0.37279 0.79282 0.30004 0.0
C932 C 0.3734 0.8025 0.32621 0.0
C933 C 0.40589 0.77407 0.34191 0.0
H934 H 0.36016 0.81747 0.32948 0.0
H935 H 0.41881 0.76618 0.35793 0.0
H936 H 0.34675 0.79138 0.4318 0.0
H937 H 0.40849 0.8447 0.42102 0.0
C938 C 0.3373 0.84534 0.37315 0.0
C939 C 0.43911 0.83881 0.36066 0.0
C940 C 0.33555 0.76153 0.37987 0.0
C941 C 0.42944 0.77222 0.41986 0.0
H942 H 0.41656 0.88405 0.34369 0.0
H943 H 0.36086 0.88851 0.3531 0.0
H944 H 0.27935 0.82804 0.3699 0.0
H945 H 0.27868 0.78185 0.37122 0.0
H946 H 0.35813 0.71951 0.40639 0.0
H947 H 0.40829 0.72639 0.43133 0.0
H948 H 0.48765 0.78839 0.41967 0.0
H949 H 0.49328 0.82389 0.38503 0.0
H950 H 0.33549 0.80567 0.47624 0.0
H951 H 0.39776 0.86021 0.46569 0.0
H952 H 0.41864 0.74842 0.31321 0.0
H953 H 0.35969 0.80127 0.28451 0.0
C954 C 0.20054 0.88153 0.95387 0.0
C955 C 0.21723 0.89003 0.97504 0.0
C956 C 0.23907 0.90262 0.9637 0.0
C957 C 0.2346 0.90132 0.93623 0.0
N958 N 0.21131 0.88871 0.9295 0.0
Co959 Co 0.1981 0.88284 0.89149 0.0
N960 N 0.23565 0.89196 0.87542 0.0
C961 C 0.25624 0.90395 0.88863 0.0
C962 C 0.27967 0.90851 0.87309 0.0
C963 C 0.27334 0.89914 0.84835 0.0
C964 C 0.24619 0.88941 0.84998 0.0
N965 N 0.18478 0.87654 0.85354 0.0
C966 C 0.19936 0.87499 0.82986 0.0
C967 C 0.18049 0.87118 0.80833 0.0
C968 C 0.15346 0.87056 0.81868 0.0
C969 C 0.15712 0.87405 0.84591 0.0
N970 N 0.16066 0.87383 0.90782 0.0
C971 C 0.13587 0.87175 0.89368 0.0
C972 C 0.11368 0.86409 0.90928 0.0
C973 C 0.12509 0.86125 0.93491 0.0
C974 C 0.15375 0.86763 0.93382 0.0
N975 N 0.18507 0.91534 0.88704 0.0
C976 C 0.16711 0.96173 0.87816 0.0
C977 C 0.16158 0.94992 0.90268 0.0
C978 C 0.17067 0.9267 0.90669 0.0
C979 C 0.1822 0.94978 0.85865 0.0
C980 C 0.19074 0.92692 0.86336 0.0
N981 N 0.21122 0.8509 0.89519 0.0
C982 C 0.20372 0.81044 0.88654 0.0
C983 C 0.23237 0.80562 0.89356 0.0
C984 C 0.24972 0.82384 0.90289 0.0
C985 C 0.23863 0.84627 0.90383 0.0
C986 C 0.19368 0.83315 0.88727 0.0
H987 H 0.25258 0.85998 0.91066 0.0
H988 H 0.17193 0.8364 0.88068 0.0
H989 H 0.166 0.91794 0.92556 0.0
H990 H 0.2021 0.91875 0.84751 0.0
C991 C 0.25404 0.9082 0.91637 0.0
C992 C 0.17342 0.86838 0.95797 0.0
C993 C 0.23031 0.87991 0.82624 0.0
C994 C 0.1357 0.87259 0.86532 0.0
H995 H 0.21388 0.88753 0.99647 0.0
H996 H 0.2567 0.911 0.97427 0.0
H997 H 0.29929 0.91724 0.87915 0.0
H998 H 0.287 0.89978 0.83097 0.0
H999 H 0.18563 0.86965 0.78722 0.0
H1000 H 0.13353 0.86763 0.80765 0.0
H1001 H 0.09213 0.85976 0.90257 0.0
H1002 H 0.11354 0.85478 0.95218 0.0
H1003 H 0.15001 0.95837 0.91847 0.0
H1004 H 0.18784 0.95811 0.8397 0.0
H1005 H 0.18916 0.79687 0.88004 0.0
H1006 H 0.27201 0.82109 0.90849 0.0
C1007 C 0.14286 0.716 0.43968 0.0
C1008 C 0.14571 0.73272 0.4595 0.0
C1009 C 0.13491 0.75302 0.44882 0.0
C1010 C 0.12701 0.74813 0.42272 0.0
N1011 N 0.1326 0.72605 0.416 0.0
Co1012 Co 0.12984 0.71405 0.37814 0.0
N1013 N 0.12557 0.74577 0.36097 0.0
C1014 C 0.11955 0.76513 0.37457 0.0
C1015 C 0.11808 0.78468 0.35839 0.0
C1016 C 0.12309 0.77726 0.33279 0.0
C1017 C 0.12711 0.7534 0.33461 0.0
N1018 N 0.12744 0.70207 0.3403 0.0
C1019 C 0.12891 0.7131 0.31553 0.0
C1020 C 0.12479 0.69736 0.29488 0.0
C1021 C 0.12034 0.67604 0.30692 0.0
C1022 C 0.12192 0.6798 0.33424 0.0
N1023 N 0.13389 0.6824 0.39537 0.0
C1024 C 0.1265 0.66267 0.38275 0.0
C1025 C 0.12775 0.64343 0.39941 0.0
C1026 C 0.13636 0.65144 0.42421 0.0
C1027 C 0.14053 0.67528 0.42144 0.0
N1028 N 0.08824 0.71152 0.38061 0.0
C1029 C 0.03091 0.69773 0.37879 0.0
C1030 C 0.04771 0.69408 0.40226 0.0
C1031 C 0.07626 0.70136 0.40287 0.0
C1032 C 0.04261 0.7104 0.3573 0.0
C1033 C 0.07123 0.71722 0.35867 0.0
N1034 N 0.171 0.71614 0.37543 0.0
C1035 C 0.21603 0.69872 0.36492 0.0
C1036 C 0.23009 0.71863 0.3738 0.0
C1037 C 0.21432 0.73741 0.38281 0.0
C1038 C 0.18478 0.73585 0.38337 0.0
C1039 C 0.18624 0.69779 0.36602 0.0
H1040 H 0.17319 0.75052 0.3905 0.0
H1041 H 0.17559 0.68219 0.35954 0.0
H1042 H 0.08901 0.69754 0.42079 0.0
H1043 H 0.07994 0.72581 0.34119 0.0
C1044 C 0.12014 0.76484 0.40281 0.0
C1045 C 0.14807 0.69061 0.44467 0.0
C1046 C 0.13045 0.73861 0.31059 0.0
C1047 C 0.12085 0.66277 0.35478 0.0
H1048 H 0.15531 0.73096 0.47946 0.0
H1049 H 0.1347 0.76976 0.45843 0.0
H1050 H 0.11485 0.8024 0.36459 0.0
H1051 H 0.12371 0.78826 0.31488 0.0
H1052 H 0.12417 0.70101 0.27335 0.0
H1053 H 0.11656 0.65972 0.2969 0.0
H1054 H 0.12296 0.62564 0.39418 0.0
H1055 H 0.1383 0.64085 0.4424 0.0
H1056 H 0.03921 0.68488 0.41962 0.0
H1057 H 0.03038 0.71372 0.33879 0.0
H1058 H 0.22791 0.68403 0.35769 0.0
H1059 H 0.22486 0.75318 0.38948 0.0
C1060 C 0.30148 0.63742 0.93434 0.0
C1061 C 0.281 0.63233 0.95357 0.0
C1062 C 0.26006 0.61934 0.94118 0.0
C1063 C 0.26795 0.61773 0.91477 0.0
N1064 N 0.29255 0.62909 0.90966 0.0
Co1065 Co 0.3072 0.63552 0.87252 0.0
N1066 N 0.27023 0.62703 0.85381 0.0
C1067 C 0.24903 0.61493 0.86555 0.0
C1068 C 0.22609 0.61103 0.84839 0.0
C1069 C 0.23341 0.621 0.82413 0.0
C1070 C 0.2606 0.63041 0.82769 0.0
N1071 N 0.32192 0.64252 0.83558 0.0
C1072 C 0.30817 0.645 0.81094 0.0
C1073 C 0.32784 0.64886 0.7907 0.0
C1074 C 0.35454 0.64846 0.80288 0.0
C1075 C 0.34988 0.6444 0.82986 0.0
N1076 N 0.34407 0.64372 0.89123 0.0
C1077 C 0.36954 0.64416 0.87903 0.0
C1078 C 0.39203 0.64824 0.89662 0.0
C1079 C 0.37998 0.65059 0.92148 0.0
C1080 C 0.35051 0.64828 0.91777 0.0
N1081 N 0.32015 0.60305 0.86959 0.0
C1082 C 0.34093 0.55747 0.86298 0.0
C1083 C 0.34482 0.56905 0.88761 0.0
C1084 C 0.33422 0.59175 0.89052 0.0
C1085 C 0.32566 0.56915 0.84219 0.0
C1086 C 0.31569 0.59168 0.84581 0.0
N1087 N 0.29443 0.66751 0.87516 0.0
C1088 C 0.30438 0.70847 0.87312 0.0
C1089 C 0.27629 0.71313 0.88048 0.0
C1090 C 0.2574 0.69473 0.88499 0.0
C1091 C 0.26697 0.67204 0.88248 0.0
C1092 C 0.31296 0.68545 0.87024 0.0
H1093 H 0.25212 0.65821 0.88663 0.0
H1094 H 0.33457 0.68216 0.86415 0.0
H1095 H 0.33776 0.60028 0.90957 0.0
H1096 H 0.30452 0.5999 0.82903 0.0
C1097 C 0.2496 0.61094 0.89354 0.0
C1098 C 0.32971 0.64904 0.94026 0.0
C1099 C 0.27725 0.64076 0.80526 0.0
C1100 C 0.37078 0.64412 0.85071 0.0
H1101 H 0.28004 0.63815 0.97411 0.0
H1102 H 0.24018 0.6135 0.94992 0.0
H1103 H 0.20601 0.60263 0.85316 0.0
H1104 H 0.22025 0.62116 0.80586 0.0
H1105 H 0.32341 0.65096 0.76924 0.0
H1106 H 0.37491 0.65093 0.79318 0.0
H1107 H 0.41447 0.64993 0.89188 0.0
H1108 H 0.39174 0.65341 0.94021 0.0
H1109 H 0.35643 0.56089 0.90438 0.0
H1110 H 0.32115 0.56093 0.82303 0.0
H1111 H 0.3194 0.72247 0.86931 0.0
H1112 H 0.23551 0.69788 0.89076 0.0
C1113 C 0.1147 0.8227 0.07641 0.0
C1114 C 0.09301 0.81798 0.0577 0.0
C1115 C 0.07135 0.80725 0.07163 0.0
C1116 C 0.08085 0.80586 0.09809 0.0
N1117 N 0.10722 0.81489 0.10172 0.0
Co1118 Co 0.1282 0.81582 0.13751 0.0
N1119 N 0.10261 0.79249 0.15539 0.0
C1120 C 0.07684 0.78604 0.14529 0.0
C1121 C 0.06324 0.77007 0.1615 0.0
C1122 C 0.08135 0.76643 0.18339 0.0
C1123 C 0.10512 0.78057 0.1796 0.0
N1124 N 0.1499 0.81667 0.17297 0.0
C1125 C 0.14925 0.80242 0.19546 0.0
C1126 C 0.16768 0.81067 0.21553 0.0
C1127 C 0.18002 0.83055 0.20551 0.0
C1128 C 0.1685 0.83355 0.17996 0.0
N1129 N 0.15372 0.83928 0.11974 0.0
C1130 C 0.17159 0.85363 0.13316 0.0
C1131 C 0.18664 0.86819 0.11635 0.0
C1132 C 0.1777 0.86278 0.09065 0.0
C1133 C 0.15763 0.8451 0.09308 0.0
N1134 N 0.10251 0.84041 0.14959 0.0
C1135 C 0.05284 0.86372 0.16445 0.0
C1136 C 0.06398 0.86698 0.13851 0.0
C1137 C 0.08921 0.8554 0.13159 0.0
C1138 C 0.06913 0.85109 0.18356 0.0
C1139 C 0.0936 0.83957 0.17576 0.0
N1140 N 0.15245 0.79078 0.12611 0.0
C1141 C 0.1975 0.77134 0.12961 0.0
C1142 C 0.18455 0.75094 0.12036 0.0
C1143 C 0.15591 0.75116 0.11211 0.0
C1144 C 0.14013 0.77134 0.11526 0.0
C1145 C 0.18108 0.79124 0.13204 0.0
H1146 H 0.1177 0.77078 0.11004 0.0
H1147 H 0.1912 0.80664 0.13984 0.0
H1148 H 0.09667 0.85725 0.11118 0.0
H1149 H 0.10361 0.8284 0.1907 0.0
C1150 C 0.06787 0.79327 0.11916 0.0
C1151 C 0.14127 0.8358 0.06963 0.0
C1152 C 0.12864 0.78317 0.20024 0.0
C1153 C 0.17691 0.85037 0.16092 0.0
H1154 H 0.09279 0.8219 0.03624 0.0
H1155 H 0.05145 0.80054 0.06324 0.0
H1156 H 0.04288 0.7616 0.15758 0.0
H1157 H 0.07735 0.75478 0.20027 0.0
H1158 H 0.17118 0.80355 0.2357 0.0
H1159 H 0.19575 0.8414 0.21561 0.0
H1160 H 0.20293 0.88071 0.12204 0.0
H1161 H 0.18494 0.87106 0.07221 0.0
H1162 H 0.05243 0.87709 0.1232 0.0
H1163 H 0.06205 0.84887 0.20416 0.0
H1164 H 0.22005 0.77175 0.13531 0.0
H1165 H 0.14562 0.73571 0.10428 0.0
C1166 C 0.21145 0.64136 0.56214 0.0
C1167 C 0.23298 0.63789 0.54366 0.0
C1168 C 0.25441 0.62575 0.55685 0.0
C1169 C 0.2457 0.62307 0.58298 0.0
N1170 N 0.2201 0.63293 0.58718 0.0
Co1171 Co 0.20376 0.63778 0.62376 0.0
N1172 N 0.24063 0.63076 0.64367 0.0
C1173 C 0.26303 0.61999 0.63275 0.0
C1174 C 0.28551 0.61658 0.65069 0.0
C1175 C 0.27663 0.62544 0.67463 0.0
C1176 C 0.24905 0.63377 0.67006 0.0
N1177 N 0.18736 0.64347 0.66013 0.0
C1178 C 0.20015 0.64612 0.68513 0.0
C1179 C 0.1796 0.64882 0.70466 0.0
C1180 C 0.15335 0.64743 0.69171 0.0
C1181 C 0.15913 0.64399 0.66497 0.0
N1182 N 0.167 0.64434 0.6038 0.0
C1183 C 0.14114 0.64325 0.61525 0.0
C1184 C 0.11898 0.64645 0.59692 0.0
C1185 C 0.13165 0.64984 0.57238 0.0
C1186 C 0.1611 0.64902 0.57699 0.0
N1187 N 0.19315 0.60462 0.62705 0.0
C1188 C 0.17794 0.55734 0.63449 0.0
C1189 C 0.18807 0.57083 0.65601 0.0
C1190 C 0.19606 0.59386 0.65179 0.0
C1191 C 0.17499 0.56846 0.60897 0.0
C1192 C 0.18254 0.59213 0.60572 0.0
N1193 N 0.21424 0.67044 0.62114 0.0
C1194 C 0.20217 0.71055 0.6268 0.0
C1195 C 0.23067 0.71712 0.62242 0.0
C1196 C 0.25045 0.69979 0.61635 0.0
C1197 C 0.24174 0.67668 0.61552 0.0
C1198 C 0.19448 0.68714 0.62629 0.0
H1199 H 0.25752 0.66382 0.61106 0.0
H1200 H 0.17266 0.68253 0.63062 0.0
H1201 H 0.20457 0.60287 0.66898 0.0
H1202 H 0.17994 0.60027 0.58599 0.0
C1203 C 0.26374 0.61671 0.60483 0.0
C1204 C 0.18256 0.65147 0.55513 0.0
C1205 C 0.23105 0.64274 0.69185 0.0
C1206 C 0.13898 0.64288 0.64353 0.0
H1207 H 0.23428 0.64429 0.52313 0.0
H1208 H 0.27502 0.62123 0.54883 0.0
H1209 H 0.30624 0.60917 0.64667 0.0
H1210 H 0.289 0.62556 0.69338 0.0
H1211 H 0.18322 0.6507 0.7262 0.0
H1212 H 0.13253 0.64879 0.70075 0.0
H1213 H 0.0963 0.64694 0.60097 0.0
H1214 H 0.12032 0.65243 0.55328 0.0
H1215 H 0.18991 0.56381 0.67639 0.0
H1216 H 0.16735 0.55896 0.59154 0.0
H1217 H 0.18593 0.7233 0.63096 0.0
H1218 H 0.27279 0.70383 0.61314 0.0
C1219 C 0.30804 0.88541 0.58796 0.0
C1220 C 0.29165 0.8949 0.56686 0.0
C1221 C 0.27135 0.90867 0.57827 0.0
C1222 C 0.27625 0.90685 0.60571 0.0
N1223 N 0.29831 0.89276 0.61233 0.0
Co1224 Co 0.31138 0.88522 0.65022 0.0
N1225 N 0.27526 0.89647 0.66668 0.0
C1226 C 0.25586 0.9101 0.65366 0.0
C1227 C 0.23317 0.9157 0.66948 0.0
C1228 C 0.23874 0.90522 0.69415 0.0
C1229 C 0.26474 0.89382 0.69222 0.0
N1230 N 0.32457 0.87736 0.68802 0.0
C1231 C 0.31012 0.87599 0.71183 0.0
C1232 C 0.32882 0.87069 0.73321 0.0
C1233 C 0.35563 0.86889 0.72261 0.0
C1234 C 0.35203 0.8732 0.69537 0.0
N1235 N 0.34741 0.874 0.63371 0.0
C1236 C 0.37229 0.87055 0.64738 0.0
C1237 C 0.39364 0.86255 0.63128 0.0
C1238 C 0.38147 0.86091 0.60586 0.0
C1239 C 0.35321 0.86793 0.60775 0.0
N1240 N 0.32797 0.91662 0.65365 0.0
C1241 C 0.34919 0.96241 0.65865 0.0
C1242 C 0.35359 0.94963 0.63513 0.0
C1243 C 0.34284 0.92684 0.63304 0.0
C1244 C 0.33404 0.95149 0.67953 0.0
C1245 C 0.32391 0.9288 0.67674 0.0
N1246 N 0.29485 0.85435 0.64686 0.0
C1247 C 0.3002 0.81292 0.6491 0.0
C1248 C 0.27228 0.8102 0.63894 0.0
C1249 C 0.25559 0.82982 0.63331 0.0
C1250 C 0.26739 0.85179 0.63717 0.0
C1251 C 0.31097 0.83519 0.65327 0.0
H1252 H 0.25442 0.86667 0.63192 0.0
H1253 H 0.33248 0.8369 0.66129 0.0
H1254 H 0.34643 0.91756 0.61466 0.0
H1255 H 0.31236 0.9213 0.69333 0.0
C1256 C 0.25796 0.91466 0.62578 0.0
C1257 C 0.3334 0.87036 0.58405 0.0
C1258 C 0.27966 0.88225 0.71564 0.0
C1259 C 0.37308 0.87095 0.67574 0.0
H1260 H 0.29396 0.8921 0.54546 0.0
H1261 H 0.25427 0.91805 0.56781 0.0
H1262 H 0.2144 0.92572 0.6636 0.0
H1263 H 0.22531 0.90612 0.71164 0.0
H1264 H 0.32373 0.86889 0.75438 0.0
H1265 H 0.37534 0.86461 0.73347 0.0
H1266 H 0.41517 0.85758 0.63748 0.0
H1267 H 0.39218 0.85529 0.58793 0.0
H1268 H 0.36537 0.95704 0.61845 0.0
H1269 H 0.32934 0.96054 0.69791 0.0
H1270 H 0.31351 0.79795 0.65384 0.0
H1271 H 0.23387 0.82817 0.62538 0.0
C1272 C 0.10782 0.24299 0.74617 0.0
C1273 C 0.12889 0.23711 0.76597 0.0
H1274 H 0.09057 0.26935 0.71923 0.0
C1275 C 0.14843 0.25445 0.77421 0.0
H1276 H 0.09197 0.23042 0.73962 0.0
C1277 C 0.1469 0.27691 0.76309 0.0
C1278 C 0.12623 0.28243 0.74307 0.0
H1279 H 0.16539 0.25066 0.78887 0.0
H1280 H 0.16233 0.28984 0.76964 0.0
C1281 C 0.10675 0.26534 0.73462 0.0
C1282 C 0.71714 0.65851 0.26123 0.0
C1283 C 0.7086 0.63536 0.25785 0.0
H1284 H 0.74974 0.68136 0.27676 0.0
C1285 C 0.72512 0.61727 0.26924 0.0
H1286 H 0.70483 0.67256 0.25195 0.0
C1287 C 0.75058 0.62225 0.28309 0.0
C1288 C 0.75972 0.64532 0.28544 0.0
H1289 H 0.71917 0.5993 0.26606 0.0
H1290 H 0.76378 0.60812 0.29095 0.0
C1291 C 0.74268 0.66349 0.27509 0.0
C1292 C 0.41787 0.27124 0.76676 0.0
C1293 C 0.39391 0.28565 0.76336 0.0
H1294 H 0.43651 0.23821 0.75868 0.0
C1295 C 0.36984 0.27776 0.74878 0.0
H1296 H 0.43665 0.27717 0.77792 0.0
C1297 C 0.36961 0.25554 0.73785 0.0
C1298 C 0.39347 0.24083 0.74137 0.0
H1299 H 0.35116 0.28874 0.74604 0.0
H1300 H 0.35051 0.24972 0.72714 0.0
C1301 C 0.41767 0.24898 0.75587 0.0
C1302 C 0.73342 0.89907 0.2764 0.0
C1303 C 0.72216 0.87652 0.27792 0.0
H1304 H 0.76957 0.92021 0.26621 0.0
C1305 C 0.73953 0.85746 0.27221 0.0
H1306 H 0.72015 0.91393 0.28065 0.0
C1307 C 0.76782 0.861 0.26445 0.0
C1308 C 0.77887 0.88361 0.26234 0.0
H1309 H 0.73097 0.83996 0.27318 0.0
H1310 H 0.78078 0.84622 0.25924 0.0
C1311 C 0.76156 0.90261 0.26845 0.0
C1312 C 0.79927 0.11184 0.28421 0.0
C1313 C 0.8006 0.13239 0.26871 0.0
H1314 H 0.78233 0.09552 0.31948 0.0
C1315 C 0.79313 0.15359 0.28012 0.0
H1316 H 0.80469 0.09534 0.27546 0.0
C1317 C 0.78032 0.15372 0.30534 0.0
C1318 C 0.77522 0.13267 0.31906 0.0
H1319 H 0.7937 0.16953 0.26818 0.0
H1320 H 0.77139 0.16977 0.31254 0.0
C1321 C 0.78652 0.11196 0.30933 0.0
C1322 C 0.93979 0.28701 0.74653 0.0
C1323 C 0.93559 0.27249 0.72421 0.0
H1324 H 0.93932 0.28903 0.78945 0.0
C1325 C 0.93962 0.24847 0.72773 0.0
H1326 H 0.93863 0.30573 0.74418 0.0
C1327 C 0.94177 0.23895 0.75368 0.0
C1328 C 0.93863 0.2533 0.7761 0.0
H1329 H 0.93747 0.2367 0.71099 0.0
H1330 H 0.94174 0.22021 0.7561 0.0
C1331 C 0.94073 0.27745 0.77253 0.0
C1332 C 0.72102 0.41352 0.27241 0.0
C1333 C 0.72091 0.39658 0.29305 0.0
H1334 H 0.71317 0.42058 0.23017 0.0
C1335 C 0.70871 0.37472 0.28824 0.0
H1336 H 0.73077 0.43034 0.27583 0.0
C1337 C 0.69913 0.36907 0.26238 0.0
C1338 C 0.70105 0.38541 0.24117 0.0
H1339 H 0.70887 0.36137 0.30393 0.0
H1340 H 0.69253 0.35136 0.25853 0.0
C1341 C 0.71097 0.40797 0.2465 0.0
C1342 C 0.6115 0.23503 0.74622 0.0
C1343 C 0.63738 0.23251 0.73282 0.0
H1344 H 0.5909 0.24898 0.78044 0.0
C1345 C 0.66325 0.23949 0.74497 0.0
H1346 H 0.59139 0.22986 0.73672 0.0
C1347 C 0.66297 0.25068 0.76962 0.0
C1348 C 0.63683 0.25469 0.78218 0.0
H1349 H 0.68328 0.23782 0.73451 0.0
H1350 H 0.68292 0.2571 0.7783 0.0
C1351 C 0.61124 0.24597 0.77098 0.0
C1352 C 0.23646 0.71006 0.09247 0.0
C1353 C 0.25189 0.70447 0.11636 0.0
H1354 H 0.20158 0.72973 0.07523 0.0
C1355 C 0.23944 0.70788 0.14147 0.0
H1356 H 0.24596 0.70753 0.07294 0.0
C1357 C 0.21442 0.72084 0.14277 0.0
C1358 C 0.20173 0.7299 0.11893 0.0
H1359 H 0.25117 0.70373 0.16007 0.0
H1360 H 0.20702 0.72613 0.16234 0.0
C1361 C 0.21129 0.72285 0.09376 0.0
C1362 C 0.30133 0.73435 0.40094 0.0
C1363 C 0.31385 0.74316 0.37739 0.0
H1364 H 0.26439 0.71825 0.41782 0.0
C1365 C 0.30147 0.73848 0.352 0.0
H1366 H 0.31029 0.73832 0.42072 0.0
C1367 C 0.27505 0.72718 0.35039 0.0
C1368 C 0.26119 0.72063 0.37418 0.0
H1369 H 0.31083 0.74552 0.33375 0.0
H1370 H 0.26413 0.72587 0.33092 0.0
C1371 C 0.27518 0.72291 0.3993 0.0
C1372 C 0.26542 0.77298 0.90806 0.0
C1373 C 0.24424 0.78196 0.8901 0.0
H1374 H 0.29254 0.74402 0.9187 0.0
C1375 C 0.23463 0.76823 0.86842 0.0
H1376 H 0.27308 0.78289 0.92516 0.0
C1377 C 0.24533 0.74591 0.86521 0.0
C1378 C 0.26629 0.73709 0.8832 0.0
H1379 H 0.21896 0.77472 0.85374 0.0
H1380 H 0.23732 0.73552 0.84862 0.0
C1381 C 0.27652 0.75077 0.90448 0.0
C1382 C 0.26228 0.7508 0.60959 0.0
C1383 C 0.24012 0.74161 0.62546 0.0
H1384 H 0.29006 0.77979 0.60185 0.0
C1385 C 0.22802 0.7557 0.6452 0.0
H1386 H 0.27169 0.74072 0.59381 0.0
C1387 C 0.23808 0.77825 0.64917 0.0
C1388 C 0.26075 0.78692 0.63389 0.0
H1389 H 0.21134 0.74915 0.65816 0.0
H1390 H 0.22872 0.78871 0.66468 0.0
C1391 C 0.27271 0.77317 0.614 0.0
C1392 C 0.8773 0.77742 0.24803 0.0
C1393 C 0.8758 0.79719 0.26435 0.0
H1394 H 0.87586 0.74041 0.24555 0.0
C1395 C 0.87223 0.79342 0.29237 0.0
H1396 H 0.88036 0.77924 0.22648 0.0
C1397 C 0.87036 0.77082 0.30358 0.0
C1398 C 0.87181 0.75107 0.28721 0.0
H1399 H 0.87045 0.80795 0.3058 0.0
H1400 H 0.86806 0.76892 0.32522 0.0
C1401 C 0.87518 0.75488 0.25918 0.0
C1402 C 0.2474 0.3983 0.74204 0.0
C1403 C 0.23332 0.37698 0.73761 0.0
H1404 H 0.2848 0.41585 0.75776 0.0
C1405 C 0.24791 0.35643 0.74525 0.0
H1406 H 0.23693 0.41445 0.73625 0.0
C1407 C 0.27559 0.35723 0.75735 0.0
C1408 C 0.28955 0.37858 0.76191 0.0
H1409 H 0.23775 0.33974 0.74207 0.0
H1410 H 0.28609 0.34112 0.76323 0.0
C1411 C 0.27494 0.3991 0.7542 0.0
C1412 C 0.62267 0.76598 0.22746 0.0
C1413 C 0.61655 0.76924 0.25497 0.0
H1414 H 0.62828 0.74223 0.19517 0.0
C1415 C 0.61188 0.74914 0.27101 0.0
H1416 H 0.62691 0.78071 0.21426 0.0
C1417 C 0.61357 0.72679 0.26012 0.0
C1418 C 0.61959 0.72352 0.2326 0.0
H1419 H 0.60666 0.75052 0.29211 0.0
H1420 H 0.61051 0.71205 0.27361 0.0
C1421 C 0.62398 0.74362 0.21648 0.0
C1422 C 0.27759 0.12045 0.75401 0.0
C1423 C 0.29077 0.14173 0.74715 0.0
H1424 H 0.24101 0.10308 0.77096 0.0
C1425 C 0.27577 0.16233 0.75232 0.0
H1426 H 0.28833 0.10425 0.75003 0.0
C1427 C 0.24851 0.16166 0.76421 0.0
C1428 C 0.2353 0.14035 0.77091 0.0
H1429 H 0.28516 0.17899 0.74711 0.0
H1430 H 0.2376 0.17782 0.76798 0.0
C1431 C 0.25038 0.11977 0.76583 0.0
C1432 C 0.26014 0.86045 0.75734 0.0
C1433 C 0.26668 0.88163 0.74397 0.0
H1434 H 0.24354 0.84322 0.79297 0.0
C1435 C 0.26137 0.9022 0.75819 0.0
H1436 H 0.26398 0.8442 0.74734 0.0
C1437 C 0.24984 0.90163 0.78452 0.0
C1438 C 0.24318 0.88046 0.79786 0.0
H1439 H 0.26628 0.91888 0.74892 0.0
H1440 H 0.24603 0.91789 0.7945 0.0
C1441 C 0.2484 0.85988 0.78364 0.0
C1442 C 0.15231 0.74646 0.26376 0.0
C1443 C 0.12944 0.74912 0.2817 0.0
H1444 H 0.17009 0.75475 0.22473 0.0
C1445 C 0.10572 0.76225 0.27191 0.0
H1446 H 0.17094 0.73651 0.27023 0.0
C1447 C 0.10524 0.77281 0.24575 0.0
C1448 C 0.12828 0.77045 0.22793 0.0
H1449 H 0.08748 0.76463 0.28472 0.0
H1450 H 0.08689 0.78324 0.23962 0.0
C1451 C 0.1518 0.75697 0.23752 0.0
C1452 C 0.25842 0.62079 0.7623 0.0
C1453 C 0.26506 0.64143 0.77618 0.0
H1454 H 0.24259 0.605 0.7256 0.0
C1455 C 0.26013 0.66259 0.76198 0.0
H1456 H 0.26204 0.60414 0.77227 0.0
C1457 C 0.24876 0.66309 0.73509 0.0
C1458 C 0.24221 0.64243 0.72125 0.0
H1459 H 0.265 0.67885 0.77177 0.0
H1460 H 0.24537 0.6797 0.72497 0.0
C1461 C 0.24723 0.62129 0.73543 0.0
C1462 C 0.40993 0.74833 0.25557 0.0
C1463 C 0.38713 0.76155 0.26587 0.0
H1464 H 0.42674 0.72885 0.22246 0.0
C1465 C 0.36266 0.76398 0.24849 0.0
H1466 H 0.42946 0.746 0.26747 0.0
C1467 C 0.36122 0.75405 0.22239 0.0
C1468 C 0.384 0.74095 0.21224 0.0
H1469 H 0.34416 0.77344 0.25506 0.0
H1470 H 0.34204 0.75665 0.21001 0.0
C1471 C 0.40842 0.73837 0.22943 0.0
C1472 C 0.75146 0.26536 0.91017 0.0
C1473 C 0.7365 0.27353 0.88682 0.0
H1474 H 0.78854 0.24749 0.92681 0.0
C1475 C 0.74939 0.27003 0.86168 0.0
H1476 H 0.74263 0.26802 0.92993 0.0
C1477 C 0.77615 0.25879 0.85994 0.0
C1478 C 0.79091 0.25031 0.88324 0.0
H1479 H 0.73874 0.27612 0.84323 0.0
H1480 H 0.78534 0.25667 0.84023 0.0
C1481 C 0.77801 0.25376 0.90839 0.0
C1482 C 0.76982 0.27118 0.59611 0.0
C1483 C 0.78505 0.27144 0.62106 0.0
H1484 H 0.73163 0.26079 0.57412 0.0
C1485 C 0.7718 0.26093 0.64355 0.0
H1486 H 0.7791 0.27923 0.57838 0.0
C1487 C 0.74439 0.25043 0.64112 0.0
C1488 C 0.72909 0.25036 0.61622 0.0
H1489 H 0.78269 0.26084 0.6631 0.0
H1490 H 0.735 0.24248 0.65886 0.0
C1491 C 0.74244 0.26074 0.59371 0.0
C1492 C 0.72457 0.24101 0.13035 0.0
C1493 C 0.73347 0.2567 0.15048 0.0
H1494 H 0.72708 0.20642 0.11491 0.0
C1495 C 0.75165 0.24815 0.17155 0.0
H1496 H 0.71033 0.24657 0.11395 0.0
C1497 C 0.76062 0.22486 0.17238 0.0
C1498 C 0.75181 0.20941 0.15217 0.0
H1499 H 0.7596 0.25956 0.18718 0.0
H1500 H 0.7749 0.21898 0.18862 0.0
C1501 C 0.73381 0.21781 0.13107 0.0
C1502 C 0.7389 0.26665 0.36055 0.0
C1503 C 0.74302 0.27923 0.38456 0.0
H1504 H 0.72879 0.23411 0.34215 0.0
C1505 C 0.74004 0.26688 0.40929 0.0
H1506 H 0.74166 0.27502 0.34102 0.0
C1507 C 0.73287 0.24303 0.40991 0.0
C1508 C 0.72819 0.2307 0.38584 0.0
H1509 H 0.74263 0.2757 0.42833 0.0
H1510 H 0.7303 0.2344 0.42932 0.0
C1511 C 0.73154 0.24295 0.36118 0.0
C1512 C 0.18675 0.5195 0.65963 0.0
C1513 C 0.17142 0.53196 0.63934 0.0
H1514 H 0.1916 0.48859 0.68305 0.0
C1515 C 0.14962 0.52005 0.62498 0.0
H1516 H 0.20431 0.52742 0.67078 0.0
C1517 C 0.14323 0.49657 0.63115 0.0
C1518 C 0.15826 0.48442 0.65203 0.0
H1519 H 0.13715 0.5289 0.60928 0.0
H1520 H 0.1266 0.48801 0.61942 0.0
C1521 C 0.17987 0.49657 0.66627 0.0
C1522 C 0.53174 0.69223 0.13636 0.0
C1523 C 0.50884 0.68276 0.12121 0.0
H1524 H 0.57134 0.68548 0.15795 0.0
C1525 C 0.50961 0.65913 0.11447 0.0
H1526 H 0.53178 0.71039 0.14173 0.0
C1527 C 0.53207 0.64502 0.12382 0.0
C1528 C 0.55401 0.65432 0.14002 0.0
H1529 H 0.49208 0.65121 0.10324 0.0
H1530 H 0.53186 0.6267 0.11915 0.0
C1531 C 0.55424 0.67808 0.14565 0.0
C1532 C 0.35946 1.00279 0.63936 0.0
C1533 C 0.3595 0.98705 0.66155 0.0
H1534 H 0.36501 0.03825 0.62575 0.0
C1535 C 0.36792 0.99546 0.68713 0.0
H1536 H 0.35292 0.99717 0.61939 0.0
C1537 C 0.37434 0.01898 0.69072 0.0
C1538 C 0.37319 0.03474 0.66879 0.0
H1539 H 0.36908 0.98395 0.70465 0.0
H1540 H 0.37961 0.02501 0.71085 0.0
C1541 C 0.36633 0.02637 0.64294 0.0
C1542 C 0.01268 0.89317 0.16339 0.0
C1543 C 0.02344 0.87127 0.17138 0.0
H1544 H 0.9773 0.91698 0.16491 0.0
C1545 C 0.00583 0.85617 0.18647 0.0
H1546 H 0.02568 0.90517 0.1518 0.0
C1547 C 0.97851 0.86295 0.19396 0.0
C1548 C 0.96807 0.88487 0.18637 0.0
H1549 H 0.01313 0.83895 0.19242 0.0
H1550 H 0.96548 0.85107 0.2057 0.0
C1551 C 0.98518 0.89995 0.17094 0.0
C1552 C 0.16014 1.00363 0.89212 0.0
C1553 C 0.15796 0.98633 0.87235 0.0
H1554 H 0.15793 0.04021 0.90051 0.0
C1555 C 0.14912 0.99309 0.84593 0.0
H1556 H 0.16699 0.99919 0.9126 0.0
C1557 C 0.14442 0.01645 0.83904 0.0
C1558 C 0.14782 0.03373 0.85844 0.0
H1559 H 0.14647 0.98032 0.83025 0.0
H1560 H 0.13869 0.02111 0.81831 0.0
C1561 C 0.15508 0.02712 0.88521 0.0
C1562 C 0.97295 0.65168 0.3776 0.0
C1563 C 0.95066 0.66348 0.36398 0.0
H1564 H 0.01603 0.65343 0.39308 0.0
C1565 C 0.95394 0.68694 0.35673 0.0
H1566 H 0.97055 0.63355 0.38338 0.0
C1567 C 0.97969 0.6984 0.36241 0.0
C1568 C 1.00247 0.68654 0.37551 0.0
H1569 H 0.93668 0.69626 0.34637 0.0
H1570 H 0.98191 0.71646 0.35629 0.0
C1571 C 0.99871 0.66313 0.38336 0.0
C1572 C 0.35247 0.51624 0.87914 0.0
C1573 C 0.35234 0.53346 0.8585 0.0
H1574 H 0.3594 0.48017 0.88969 0.0
C1575 C 0.36186 0.5272 0.83276 0.0
H1576 H 0.34517 0.52023 0.89915 0.0
C1577 C 0.3696 0.5043 0.82738 0.0
C1578 C 0.36866 0.48703 0.84768 0.0
H1579 H 0.3629 0.53994 0.81646 0.0
H1580 H 0.37574 0.49992 0.8071 0.0
C1581 C 0.36059 0.49327 0.87377 0.0
C1582 C 0.47674 0.83698 0.32604 0.0
C1583 C 0.46289 0.84982 0.34574 0.0
H1584 H 0.51458 0.83319 0.30263 0.0
C1585 C 0.47554 0.8704 0.35511 0.0
H1586 H 0.46758 0.82078 0.31904 0.0
C1587 C 0.5024 0.87739 0.34586 0.0
C1588 C 0.51694 0.86376 0.32735 0.0
H1589 H 0.46558 0.88016 0.37088 0.0
H1590 H 0.51255 0.89266 0.35428 0.0
C1591 C 0.50356 0.84395 0.31682 0.0
C1592 C 0.63777 0.19402 0.47034 0.0
C1593 C 0.62189 0.18366 0.49123 0.0
H1594 H 0.65805 0.18901 0.43238 0.0
C1595 C 0.60882 0.16193 0.48669 0.0
H1596 H 0.6474 0.21101 0.47273 0.0
C1597 C 0.61407 0.14985 0.46313 0.0
C1598 C 0.63277 0.15913 0.44403 0.0
H1599 H 0.59664 0.15321 0.50224 0.0
H1600 H 0.60596 0.13229 0.46115 0.0
C1601 C 0.64346 0.18169 0.44702 0.0
C1602 C 0.81476 0.12553 1.00447 0.0
C1603 C 0.80598 0.14133 0.024 0.0
H1604 H 0.83679 0.12083 0.96738 0.0
C1605 C 0.8116 0.16513 0.01986 0.0
H1606 H 0.81065 0.10711 0.00691 0.0
C1607 C 0.82579 0.17293 0.99714 0.0
C1608 C 0.8356 0.15718 0.97817 0.0
H1609 H 0.80604 0.17791 0.03463 0.0
H1610 H 0.82932 0.19144 0.99466 0.0
C1611 C 0.82955 0.13339 0.98174 0.0
C1612 C 0.84254 0.34918 0.49334 0.0
C1613 C 0.85027 0.36501 0.51344 0.0
H1614 H 0.82625 0.3446 0.45321 0.0
C1615 C 0.85047 0.38893 0.50737 0.0
H1616 H 0.84265 0.33064 0.49755 0.0
C1617 C 0.84121 0.39693 0.48181 0.0
C1618 C 0.83202 0.38099 0.46233 0.0
H1619 H 0.85639 0.40135 0.52272 0.0
H1620 H 0.83999 0.41543 0.47763 0.0
C1621 C 0.8334 0.35711 0.46802 0.0
C1622 C 0.66363 0.38053 1.0053 0.0
C1623 C 0.67351 0.36 0.99382 0.0
H1624 H 0.66158 0.40052 0.04154 0.0
C1625 C 0.69239 0.34552 0.00866 0.0
H1626 H 0.64888 0.39179 0.99414 0.0
C1627 C 0.6995 0.35043 0.03534 0.0
C1628 C 0.68811 0.37004 0.04752 0.0
H1629 H 0.70032 0.32965 1.00007 0.0
H1630 H 0.71246 0.33811 0.04699 0.0
C1631 C 0.67084 0.38549 0.0322 0.0
C1632 C 0.83572 0.52274 0.33913 0.0
C1633 C 0.82561 0.54047 0.35577 0.0
H1634 H 0.83562 0.48688 0.32916 0.0
C1635 C 0.80794 0.53366 0.37733 0.0
H1636 H 0.84991 0.5267 0.32267 0.0
C1637 C 0.80055 0.51015 0.38185 0.0
C1638 C 0.81025 0.49251 0.36479 0.0
H1639 H 0.79933 0.5465 0.39063 0.0
H1640 H 0.78732 0.50591 0.39893 0.0
C1641 C 0.82792 0.49941 0.3433 0.0
C1642 C 0.50155 0.37455 0.862 0.0
C1643 C 0.48422 0.36161 0.84407 0.0
H1644 H 0.54179 0.37711 0.88404 0.0
C1645 C 0.49522 0.34055 0.83467 0.0
H1646 H 0.4938 0.39086 0.86957 0.0
C1647 C 0.5227 0.33262 0.84303 0.0
C1648 C 0.54015 0.34562 0.86084 0.0
H1649 H 0.4825 0.33018 0.82082 0.0
H1650 H 0.53047 0.31634 0.83538 0.0
C1651 C 0.52907 0.36668 0.87026 0.0
C1652 C 0.68089 1.00159 0.35991 0.0
C1653 C 0.66098 0.01991 0.35824 0.0
H1654 H 0.68889 0.96525 0.35429 0.0
C1655 C 0.63288 0.01483 0.34915 0.0
H1656 H 0.70268 1.00481 0.36686 0.0
C1657 C 0.62511 0.9922 0.34142 0.0
C1658 C 0.64502 0.97385 0.34319 0.0
H1659 H 0.61704 0.02851 0.34741 0.0
H1660 H 0.60341 0.989 0.33421 0.0
C1661 C 0.67294 0.97886 0.35282 0.0
C1662 C 0.02592 0.14894 0.8667 0.0
C1663 C 0.0398 0.15919 0.84442 0.0
H1664 H 0.98844 0.14805 0.89146 0.0
C1665 C 0.02493 0.17651 0.82939 0.0
H1666 H 0.03641 0.13522 0.8784 0.0
C1667 C 0.99732 0.18373 0.83678 0.0
C1668 C 0.98373 0.17373 0.85932 0.0
H1669 H 0.03477 0.18458 0.81196 0.0
H1670 H 0.98659 0.19723 0.82492 0.0
C1671 C 0.99837 0.15618 0.87411 0.0
C1672 C 0.84444 0.03564 0.15037 0.0
C1673 C 0.82965 0.04999 0.16806 0.0
H1674 H 0.86338 1.00228 0.14401 0.0
C1675 C 0.82328 0.04126 0.19391 0.0
H1676 H 0.84899 0.04171 0.13007 0.0
C1677 C 0.8313 0.01865 0.20187 0.0
C1678 C 0.84581 1.00406 0.18413 0.0
H1679 H 0.81164 0.05185 0.20782 0.0
H1680 H 0.82592 0.01254 0.22195 0.0
C1681 C 0.85264 0.01303 0.15838 0.0
C1682 C 0.02054 0.3439 0.6758 0.0
C1683 C 0.03483 0.36139 0.66098 0.0
H1684 H 0.98241 0.32289 0.67989 0.0
C1685 C 0.02003 0.37164 0.63869 0.0
H1686 H 0.03109 0.33579 0.69322 0.0
C1687 C 0.99217 0.36427 0.63108 0.0
C1688 C 0.9781 0.34654 0.64564 0.0
H1689 H 0.03006 0.38544 0.6271 0.0
H1690 H 0.98155 0.37244 0.61373 0.0
C1691 C 0.99264 0.33651 0.66818 0.0
C1692 C 0.642 0.4761 0.16455 0.0
C1693 C 0.66785 0.46916 0.15269 0.0
H1694 H 0.61593 0.50432 0.17781 0.0
C1695 C 0.68698 0.48687 0.14452 0.0
H1696 H 0.62677 0.46337 0.17176 0.0
C1697 C 0.68099 0.51038 0.14887 0.0
C1698 C 0.65533 0.51706 0.1608 0.0
H1699 H 0.70674 0.48274 0.13468 0.0
H1700 H 0.69646 0.52344 0.14284 0.0
C1701 C 0.63573 0.49969 0.16825 0.0
C1702 C 0.49665 0.18176 0.67646 0.0
C1703 C 0.48148 0.16416 0.66273 0.0
H1704 H 0.53427 0.20365 0.67825 0.0
C1705 C 0.49425 0.15479 0.63976 0.0
H1706 H 0.48768 0.18929 0.69431 0.0
C1707 C 0.52084 0.16311 0.63047 0.0
C1708 C 0.53604 0.18072 0.64417 0.0
H1709 H 0.48358 0.14096 0.62888 0.0
H1710 H 0.52953 0.15575 0.6124 0.0
C1711 C 0.52339 0.18999 0.66725 0.0
C1712 C 0.35799 0.86789 0.50925 0.0
C1713 C 0.35778 0.84384 0.5036 0.0
H1714 H 0.3505 0.89498 0.53803 0.0
C1715 C 0.34957 0.82882 0.52513 0.0
H1716 H 0.36387 0.88033 0.49367 0.0
C1717 C 0.34192 0.83736 0.55077 0.0
C1718 C 0.34162 0.86135 0.55612 0.0
H1719 H 0.34937 0.81022 0.52236 0.0
H1720 H 0.336 0.82506 0.56651 0.0
C1721 C 0.35 0.87643 0.53484 0.0
C1722 C 0.17428 0.83627 0.02831 0.0
C1723 C 0.1487 0.84348 0.04048 0.0
H1724 H 0.20172 0.83789 0.99362 0.0
C1725 C 0.13153 0.85934 0.02524 0.0
H1726 H 0.18852 0.82448 0.03929 0.0
C1727 C 0.13938 0.86739 0.99903 0.0
C1728 C 0.1646 0.85971 0.98649 0.0
H1729 H 0.11214 0.86598 0.03388 0.0
H1730 H 0.12577 0.88004 0.98871 0.0
C1731 C 0.18196 0.8441 1.00196 0.0
C1732 C 0.18262 0.65125 0.50205 0.0
C1733 C 0.17372 0.6612 0.52653 0.0
H1734 H 0.18469 0.65359 0.4586 0.0
C1735 C 0.15487 0.68032 0.52334 0.0
H1736 H 0.19458 0.63524 0.50242 0.0
C1737 C 0.14549 0.68879 0.49749 0.0
C1738 C 0.15666 0.68034 0.4731 0.0
H1739 H 0.14667 0.68862 0.54104 0.0
H1740 H 0.12907 0.70199 0.49688 0.0
C1741 C 0.1756 0.66128 0.47627 0.0
C1742 C 0.36611 0.68701 0.9962 0.0
C1743 C 0.35683 0.67726 0.02105 0.0
H1744 H 0.3629 0.68789 0.9527 0.0
C1745 C 0.33935 0.65723 0.01874 0.0
H1746 H 0.38149 0.70106 0.99609 0.0
C1747 C 0.33192 0.64751 0.99329 0.0
C1748 C 0.33886 0.65859 0.96844 0.0
H1749 H 0.33183 0.64853 0.03683 0.0
H1750 H 0.32126 0.63085 0.99345 0.0
C1751 C 0.35621 0.67869 0.97077 0.0
loop_
_geom_bond_atom_site_label_1
_geom_bond_atom_site_label_2
_geom_bond_distance
_geom_bond_site_symmetry_2
_ccdc_geom_bond_type
C0 C1 1.443 . S
C0 N4 1.376 . S
C0 C38 1.389 . S
C1 C0 1.443 . S
C1 C2 1.340 . S
C1 H41 0.951 . S
C2 C1 1.340 . S
C2 C3 1.439 . S
C2 H42 0.950 . S
C3 C2 1.439 . S
C3 N4 1.374 . S
C3 C37 1.395 . S
N4 C0 1.376 . S
N4 C3 1.374 . S
N4 Co5 2.008 . S
Co5 N4 2.008 . S
Co5 N6 1.995 . S
Co5 N11 2.008 . S
Co5 N16 1.995 . S
Co5 N21 2.282 . S
Co5 N27 2.282 . S
N6 Co5 1.995 . S
N6 C7 1.376 . S
N6 C10 1.383 . S
C7 N6 1.376 . S
C7 C8 1.446 . S
C7 C37 1.391 . S
C8 C7 1.446 . S
C8 C9 1.339 . S
C8 H43 0.949 . S
C9 C8 1.339 . S
C9 C10 1.439 . S
C9 H44 0.950 . S
C10 N6 1.383 . S
C10 C9 1.439 . S
C10 C39 1.392 . S
N11 Co5 2.008 . S
N11 C12 1.376 . S
N11 C15 1.374 . S
C12 N11 1.376 . S
C12 C13 1.443 . S
C12 C39 1.389 . S
C13 C12 1.443 . S
C13 C14 1.340 . S
C13 H45 0.951 . S
C14 C13 1.340 . S
C14 C15 1.439 . S
C14 H46 0.950 . S
C15 N11 1.374 . S
C15 C14 1.439 . S
C15 C40 1.395 . S
N16 Co5 1.995 . S
N16 C17 1.376 . S
N16 C20 1.383 . S
C17 N16 1.376 . S
C17 C18 1.446 . S
C17 C40 1.391 . S
C18 C17 1.446 . S
C18 C19 1.339 . S
C18 H47 0.949 . S
C19 C18 1.339 . S
C19 C20 1.439 . S
C19 H48 0.950 . S
C20 N16 1.383 . S
C20 C19 1.439 . S
C20 C38 1.392 . S
N21 Co5 2.282 . S
N21 C24 1.332 . S
N21 C26 1.332 . S
C22 C23 1.386 . S
C22 C25 1.388 . S
C23 C22 1.386 . S
C23 C24 1.382 . S
C23 H49 0.950 . S
C24 N21 1.332 . S
C24 C23 1.382 . S
C24 H35 0.952 . S
C25 C22 1.388 . S
C25 C26 1.382 . S
C25 H50 0.950 . S
C26 N21 1.332 . S
C26 C25 1.382 . S
C26 H36 0.948 . S
N27 Co5 2.282 . S
N27 C31 1.332 . S
N27 C32 1.332 . S
C28 C29 1.388 . S
C28 C32 1.382 . S
C28 H51 0.950 . S
C29 C28 1.388 . S
C29 C30 1.386 . S
C30 C29 1.386 . S
C30 C31 1.382 . S
C30 H52 0.950 . S
C31 N27 1.332 . S
C31 C30 1.382 . S
C31 H33 0.952 . S
C32 N27 1.332 . S
C32 C28 1.382 . S
C32 H34 0.948 . S
H33 C31 0.952 . S
H34 C32 0.948 . S
H35 C24 0.952 . S
H36 C26 0.948 . S
C37 C3 1.395 . S
C37 C7 1.391 . S
C38 C0 1.389 . S
C38 C20 1.392 . S
C39 C10 1.392 . S
C39 C12 1.389 . S
C40 C15 1.395 . S
C40 C17 1.391 . S
H41 C1 0.951 . S
H42 C2 0.950 . S
H43 C8 0.949 . S
H44 C9 0.950 . S
H45 C13 0.951 . S
H46 C14 0.950 . S
H47 C18 0.949 . S
H48 C19 0.950 . S
H49 C23 0.950 . S
H50 C25 0.950 . S
H51 C28 0.950 . S
H52 C30 0.950 . S
C53 C54 1.443 . S
C53 N57 1.376 . S
C53 C91 1.389 . S
C54 C53 1.443 . S
C54 C55 1.340 . S
C54 H94 0.951 . S
C55 C54 1.340 . S
C55 C56 1.439 . S
C55 H95 0.950 . S
C56 C55 1.439 . S
C56 N57 1.374 . S
C56 C90 1.395 . S
N57 C53 1.376 . S
N57 C56 1.374 . S
N57 Co58 2.008 . S
Co58 N57 2.008 . S
Co58 N59 1.995 . S
Co58 N64 2.008 . S
Co58 N69 1.995 . S
Co58 N74 2.282 . S
Co58 N80 2.282 . S
N59 Co58 1.995 . S
N59 C60 1.376 . S
N59 C63 1.383 . S
C60 N59 1.376 . S
C60 C61 1.446 . S
C60 C90 1.391 . S
C61 C60 1.446 . S
C61 C62 1.339 . S
C61 H96 0.949 . S
C62 C61 1.339 . S
C62 C63 1.439 . S
C62 H97 0.950 . S
C63 N59 1.383 . S
C63 C62 1.439 . S
C63 C92 1.392 . S
N64 Co58 2.008 . S
N64 C65 1.376 . S
N64 C68 1.374 . S
C65 N64 1.376 . S
C65 C66 1.443 . S
C65 C92 1.389 . S
C66 C65 1.443 . S
C66 C67 1.340 . S
C66 H98 0.951 . S
C67 C66 1.340 . S
C67 C68 1.439 . S
C67 H99 0.950 . S
C68 N64 1.374 . S
C68 C67 1.439 . S
C68 C93 1.395 . S
N69 Co58 1.995 . S
N69 C70 1.376 . S
N69 C73 1.383 . S
C70 N69 1.376 . S
C70 C71 1.446 . S
C70 C93 1.391 . S
C71 C70 1.446 . S
C71 C72 1.339 . S
C71 H100 0.949 . S
C72 C71 1.339 . S
C72 C73 1.439 . S
C72 H101 0.950 . S
C73 N69 1.383 . S
C73 C72 1.439 . S
C73 C91 1.392 . S
N74 Co58 2.282 . S
N74 C77 1.332 . S
N74 C79 1.332 . S
C75 C76 1.386 . S
C75 C78 1.388 . S
C76 C75 1.386 . S
C76 C77 1.382 . S
C76 H102 0.950 . S
C77 N74 1.332 . S
C77 C76 1.382 . S
C77 H88 0.952 . S
C78 C75 1.388 . S
C78 C79 1.382 . S
C78 H103 0.950 . S
C79 N74 1.332 . S
C79 C78 1.382 . S
C79 H89 0.948 . S
N80 Co58 2.282 . S
N80 C84 1.332 . S
N80 C85 1.332 . S
C81 C82 1.388 . S
C81 C85 1.382 . S
C81 H104 0.950 . S
C82 C81 1.388 . S
C82 C83 1.386 . S
C83 C82 1.386 . S
C83 C84 1.382 . S
C83 H105 0.950 . S
C84 N80 1.332 . S
C84 C83 1.382 . S
C84 H86 0.952 . S
C85 N80 1.332 . S
C85 C81 1.382 . S
C85 H87 0.948 . S
H86 C84 0.952 . S
H87 C85 0.948 . S
H88 C77 0.952 . S
H89 C79 0.948 . S
C90 C56 1.395 . S
C90 C60 1.391 . S
C91 C53 1.389 . S
C91 C73 1.392 . S
C92 C63 1.392 . S
C92 C65 1.389 . S
C93 C68 1.395 . S
C93 C70 1.391 . S
H94 C54 0.951 . S
H95 C55 0.950 . S
H96 C61 0.949 . S
H97 C62 0.950 . S
H98 C66 0.951 . S
H99 C67 0.950 . S
H100 C71 0.949 . S
H101 C72 0.950 . S
H102 C76 0.950 . S
H103 C78 0.950 . S
H104 C81 0.950 . S
H105 C83 0.950 . S
C106 C107 1.443 . S
C106 N110 1.376 . S
C106 C144 1.389 . S
C107 C106 1.443 . S
C107 C108 1.340 . S
C107 H147 0.951 . S
C108 C107 1.340 . S
C108 C109 1.439 . S
C108 H148 0.950 . S
C109 C108 1.439 . S
C109 N110 1.374 . S
C109 C143 1.395 . S
N110 C106 1.376 . S
N110 C109 1.374 . S
N110 Co111 2.008 . S
Co111 N110 2.008 . S
Co111 N112 1.995 . S
Co111 N117 2.008 . S
Co111 N122 1.995 . S
Co111 N127 2.282 . S
Co111 N133 2.282 . S
N112 Co111 1.995 . S
N112 C113 1.376 . S
N112 C116 1.383 . S
C113 N112 1.376 . S
C113 C114 1.446 . S
C113 C143 1.391 . S
C114 C113 1.446 . S
C114 C115 1.339 . S
C114 H149 0.949 . S
C115 C114 1.339 . S
C115 C116 1.439 . S
C115 H150 0.950 . S
C116 N112 1.383 . S
C116 C115 1.439 . S
C116 C145 1.392 . S
N117 Co111 2.008 . S
N117 C118 1.376 . S
N117 C121 1.374 . S
C118 N117 1.376 . S
C118 C119 1.443 . S
C118 C145 1.389 . S
C119 C118 1.443 . S
C119 C120 1.340 . S
C119 H151 0.951 . S
C120 C119 1.340 . S
C120 C121 1.439 . S
C120 H152 0.950 . S
C121 N117 1.374 . S
C121 C120 1.439 . S
C121 C146 1.395 . S
N122 Co111 1.995 . S
N122 C123 1.376 . S
N122 C126 1.383 . S
C123 N122 1.376 . S
C123 C124 1.446 . S
C123 C146 1.391 . S
C124 C123 1.446 . S
C124 C125 1.339 . S
C124 H153 0.949 . S
C125 C124 1.339 . S
C125 C126 1.439 . S
C125 H154 0.950 . S
C126 N122 1.383 . S
C126 C125 1.439 . S
C126 C144 1.392 . S
N127 Co111 2.282 . S
N127 C130 1.332 . S
N127 C132 1.332 . S
C128 C129 1.386 . S
C128 C131 1.388 . S
C129 C128 1.386 . S
C129 C130 1.382 . S
C129 H155 0.950 . S
C130 N127 1.332 . S
C130 C129 1.382 . S
C130 H141 0.952 . S
C131 C128 1.388 . S
C131 C132 1.382 . S
C131 H156 0.950 . S
C132 N127 1.332 . S
C132 C131 1.382 . S
C132 H142 0.948 . S
N133 Co111 2.282 . S
N133 C137 1.332 . S
N133 C138 1.332 . S
C134 C135 1.388 . S
C134 C138 1.382 . S
C134 H157 0.950 . S
C135 C134 1.388 . S
C135 C136 1.386 . S
C136 C135 1.386 . S
C136 C137 1.382 . S
C136 H158 0.950 . S
C137 N133 1.332 . S
C137 C136 1.382 . S
C137 H139 0.952 . S
C138 N133 1.332 . S
C138 C134 1.382 . S
C138 H140 0.948 . S
H139 C137 0.952 . S
H140 C138 0.948 . S
H141 C130 0.952 . S
H142 C132 0.948 . S
C143 C109 1.395 . S
C143 C113 1.391 . S
C144 C106 1.389 . S
C144 C126 1.392 . S
C145 C116 1.392 . S
C145 C118 1.389 . S
C146 C121 1.395 . S
C146 C123 1.391 . S
H147 C107 0.951 . S
H148 C108 0.950 . S
H149 C114 0.949 . S
H150 C115 0.950 . S
H151 C119 0.951 . S
H152 C120 0.950 . S
H153 C124 0.949 . S
H154 C125 0.950 . S
H155 C129 0.950 . S
H156 C131 0.950 . S
H157 C134 0.950 . S
H158 C136 0.950 . S
C159 C160 1.443 . S
C159 N163 1.376 . S
C159 C197 1.389 . S
C160 C159 1.443 . S
C160 C161 1.340 . S
C160 H200 0.951 . S
C161 C160 1.340 . S
C161 C162 1.439 . S
C161 H201 0.950 . S
C162 C161 1.439 . S
C162 N163 1.374 . S
C162 C196 1.395 . S
N163 C159 1.376 . S
N163 C162 1.374 . S
N163 Co164 2.008 . S
Co164 N163 2.008 . S
Co164 N165 1.995 . S
Co164 N170 2.008 . S
Co164 N175 1.995 . S
Co164 N180 2.282 . S
Co164 N186 2.282 . S
N165 Co164 1.995 . S
N165 C166 1.376 . S
N165 C169 1.383 . S
C166 N165 1.376 . S
C166 C167 1.446 . S
C166 C196 1.391 . S
C167 C166 1.446 . S
C167 C168 1.339 . S
C167 H202 0.949 . S
C168 C167 1.339 . S
C168 C169 1.439 . S
C168 H203 0.950 . S
C169 N165 1.383 . S
C169 C168 1.439 . S
C169 C198 1.392 . S
N170 Co164 2.008 . S
N170 C171 1.376 . S
N170 C174 1.374 . S
C171 N170 1.376 . S
C171 C172 1.443 . S
C171 C198 1.389 . S
C172 C171 1.443 . S
C172 C173 1.340 . S
C172 H204 0.951 . S
C173 C172 1.340 . S
C173 C174 1.439 . S
C173 H205 0.950 . S
C174 N170 1.374 . S
C174 C173 1.439 . S
C174 C199 1.395 . S
N175 Co164 1.995 . S
N175 C176 1.376 . S
N175 C179 1.383 . S
C176 N175 1.376 . S
C176 C177 1.446 . S
C176 C199 1.391 . S
C177 C176 1.446 . S
C177 C178 1.339 . S
C177 H206 0.949 . S
C178 C177 1.339 . S
C178 C179 1.439 . S
C178 H207 0.950 . S
C179 N175 1.383 . S
C179 C178 1.439 . S
C179 C197 1.392 . S
N180 Co164 2.282 . S
N180 C183 1.332 . S
N180 C185 1.332 . S
C181 C182 1.386 . S
C181 C184 1.388 . S
C182 C181 1.386 . S
C182 C183 1.382 . S
C182 H208 0.950 . S
C183 N180 1.332 . S
C183 C182 1.382 . S
C183 H194 0.952 . S
C184 C181 1.388 . S
C184 C185 1.382 . S
C184 H209 0.950 . S
C185 N180 1.332 . S
C185 C184 1.382 . S
C185 H195 0.948 . S
N186 Co164 2.282 . S
N186 C190 1.332 . S
N186 C191 1.332 . S
C187 C188 1.388 . S
C187 C191 1.382 . S
C187 H210 0.950 . S
C188 C187 1.388 . S
C188 C189 1.386 . S
C189 C188 1.386 . S
C189 C190 1.382 . S
C189 H211 0.950 . S
C190 N186 1.332 . S
C190 C189 1.382 . S
C190 H192 0.952 . S
C191 N186 1.332 . S
C191 C187 1.382 . S
C191 H193 0.948 . S
H192 C190 0.952 . S
H193 C191 0.948 . S
H194 C183 0.952 . S
H195 C185 0.948 . S
C196 C162 1.395 . S
C196 C166 1.391 . S
C197 C159 1.389 . S
C197 C179 1.392 . S
C198 C169 1.392 . S
C198 C171 1.389 . S
C199 C174 1.395 . S
C199 C176 1.391 . S
H200 C160 0.951 . S
H201 C161 0.950 . S
H202 C167 0.949 . S
H203 C168 0.950 . S
H204 C172 0.951 . S
H205 C173 0.950 . S
H206 C177 0.949 . S
H207 C178 0.950 . S
H208 C182 0.950 . S
H209 C184 0.950 . S
H210 C187 0.950 . S
H211 C189 0.950 . S
C212 C213 1.443 . S
C212 N216 1.376 . S
C212 C250 1.389 . S
C213 C212 1.443 . S
C213 C214 1.340 . S
C213 H253 0.951 . S
C214 C213 1.340 . S
C214 C215 1.439 . S
C214 H254 0.950 . S
C215 C214 1.439 . S
C215 N216 1.374 . S
C215 C249 1.395 . S
N216 C212 1.376 . S
N216 C215 1.374 . S
N216 Co217 2.008 . S
Co217 N216 2.008 . S
Co217 N218 1.995 . S
Co217 N223 2.008 . S
Co217 N228 1.995 . S
Co217 N233 2.282 . S
Co217 N239 2.282 . S
N218 Co217 1.995 . S
N218 C219 1.376 . S
N218 C222 1.383 . S
C219 N218 1.376 . S
C219 C220 1.446 . S
C219 C249 1.391 . S
C220 C219 1.446 . S
C220 C221 1.339 . S
C220 H255 0.949 . S
C221 C220 1.339 . S
C221 C222 1.439 . S
C221 H256 0.950 . S
C222 N218 1.383 . S
C222 C221 1.439 . S
C222 C251 1.392 . S
N223 Co217 2.008 . S
N223 C224 1.376 . S
N223 C227 1.374 . S
C224 N223 1.376 . S
C224 C225 1.443 . S
C224 C251 1.389 . S
C225 C224 1.443 . S
C225 C226 1.340 . S
C225 H257 0.951 . S
C226 C225 1.340 . S
C226 C227 1.439 . S
C226 H258 0.950 . S
C227 N223 1.374 . S
C227 C226 1.439 . S
C227 C252 1.395 . S
N228 Co217 1.995 . S
N228 C229 1.376 . S
N228 C232 1.383 . S
C229 N228 1.376 . S
C229 C230 1.446 . S
C229 C252 1.391 . S
C230 C229 1.446 . S
C230 C231 1.339 . S
C230 H259 0.949 . S
C231 C230 1.339 . S
C231 C232 1.439 . S
C231 H260 0.950 . S
C232 N228 1.383 . S
C232 C231 1.439 . S
C232 C250 1.392 . S
N233 Co217 2.282 . S
N233 C236 1.332 . S
N233 C238 1.332 . S
C234 C235 1.386 . S
C234 C237 1.388 . S
C235 C234 1.386 . S
C235 C236 1.382 . S
C235 H261 0.950 . S
C236 N233 1.332 . S
C236 C235 1.382 . S
C236 H247 0.952 . S
C237 C234 1.388 . S
C237 C238 1.382 . S
C237 H262 0.950 . S
C238 N233 1.332 . S
C238 C237 1.382 . S
C238 H248 0.948 . S
N239 Co217 2.282 . S
N239 C243 1.332 . S
N239 C244 1.332 . S
C240 C241 1.388 . S
C240 C244 1.382 . S
C240 H263 0.950 . S
C241 C240 1.388 . S
C241 C242 1.386 . S
C242 C241 1.386 . S
C242 C243 1.382 . S
C242 H264 0.950 . S
C243 N239 1.332 . S
C243 C242 1.382 . S
C243 H245 0.952 . S
C244 N239 1.332 . S
C244 C240 1.382 . S
C244 H246 0.948 . S
H245 C243 0.952 . S
H246 C244 0.948 . S
H247 C236 0.952 . S
H248 C238 0.948 . S
C249 C215 1.395 . S
C249 C219 1.391 . S
C250 C212 1.389 . S
C250 C232 1.392 . S
C251 C222 1.392 . S
C251 C224 1.389 . S
C252 C227 1.395 . S
C252 C229 1.391 . S
H253 C213 0.951 . S
H254 C214 0.950 . S
H255 C220 0.949 . S
H256 C221 0.950 . S
H257 C225 0.951 . S
H258 C226 0.950 . S
H259 C230 0.949 . S
H260 C231 0.950 . S
H261 C235 0.950 . S
H262 C237 0.950 . S
H263 C240 0.950 . S
H264 C242 0.950 . S
C265 C266 1.443 . S
C265 N269 1.376 . S
C265 C303 1.389 . S
C266 C265 1.443 . S
C266 C267 1.340 . S
C266 H306 0.951 . S
C267 C266 1.340 . S
C267 C268 1.439 . S
C267 H307 0.950 . S
C268 C267 1.439 . S
C268 N269 1.374 . S
C268 C302 1.395 . S
N269 C265 1.376 . S
N269 C268 1.374 . S
N269 Co270 2.008 . S
Co270 N269 2.008 . S
Co270 N271 1.995 . S
Co270 N276 2.008 . S
Co270 N281 1.995 . S
Co270 N286 2.282 . S
Co270 N292 2.282 . S
N271 Co270 1.995 . S
N271 C272 1.376 . S
N271 C275 1.383 . S
C272 N271 1.376 . S
C272 C273 1.446 . S
C272 C302 1.391 . S
C273 C272 1.446 . S
C273 C274 1.339 . S
C273 H308 0.949 . S
C274 C273 1.339 . S
C274 C275 1.439 . S
C274 H309 0.950 . S
C275 N271 1.383 . S
C275 C274 1.439 . S
C275 C304 1.392 . S
N276 Co270 2.008 . S
N276 C277 1.376 . S
N276 C280 1.374 . S
C277 N276 1.376 . S
C277 C278 1.443 . S
C277 C304 1.389 . S
C278 C277 1.443 . S
C278 C279 1.340 . S
C278 H310 0.951 . S
C279 C278 1.340 . S
C279 C280 1.439 . S
C279 H311 0.950 . S
C280 N276 1.374 . S
C280 C279 1.439 . S
C280 C305 1.395 . S
N281 Co270 1.995 . S
N281 C282 1.376 . S
N281 C285 1.383 . S
C282 N281 1.376 . S
C282 C283 1.446 . S
C282 C305 1.391 . S
C283 C282 1.446 . S
C283 C284 1.339 . S
C283 H312 0.949 . S
C284 C283 1.339 . S
C284 C285 1.439 . S
C284 H313 0.950 . S
C285 N281 1.383 . S
C285 C284 1.439 . S
C285 C303 1.392 . S
N286 Co270 2.282 . S
N286 C289 1.332 . S
N286 C291 1.332 . S
C287 C288 1.386 . S
C287 C290 1.388 . S
C288 C287 1.386 . S
C288 C289 1.382 . S
C288 H314 0.950 . S
C289 N286 1.332 . S
C289 C288 1.382 . S
C289 H300 0.952 . S
C290 C287 1.388 . S
C290 C291 1.382 . S
C290 H315 0.950 . S
C291 N286 1.332 . S
C291 C290 1.382 . S
C291 H301 0.948 . S
N292 Co270 2.282 . S
N292 C296 1.332 . S
N292 C297 1.332 . S
C293 C294 1.388 . S
C293 C297 1.382 . S
C293 H316 0.950 . S
C294 C293 1.388 . S
C294 C295 1.386 . S
C295 C294 1.386 . S
C295 C296 1.382 . S
C295 H317 0.950 . S
C296 N292 1.332 . S
C296 C295 1.382 . S
C296 H298 0.952 . S
C297 N292 1.332 . S
C297 C293 1.382 . S
C297 H299 0.948 . S
H298 C296 0.952 . S
H299 C297 0.948 . S
H300 C289 0.952 . S
H301 C291 0.948 . S
C302 C268 1.395 . S
C302 C272 1.391 . S
C303 C265 1.389 . S
C303 C285 1.392 . S
C304 C275 1.392 . S
C304 C277 1.389 . S
C305 C280 1.395 . S
C305 C282 1.391 . S
H306 C266 0.951 . S
H307 C267 0.950 . S
H308 C273 0.949 . S
H309 C274 0.950 . S
H310 C278 0.951 . S
H311 C279 0.950 . S
H312 C283 0.949 . S
H313 C284 0.950 . S
H314 C288 0.950 . S
H315 C290 0.950 . S
H316 C293 0.950 . S
H317 C295 0.950 . S
C318 C319 1.443 . S
C318 N322 1.376 . S
C318 C356 1.389 . S
C319 C318 1.443 . S
C319 C320 1.340 . S
C319 H359 0.951 . S
C320 C319 1.340 . S
C320 C321 1.439 . S
C320 H360 0.950 . S
C321 C320 1.439 . S
C321 N322 1.374 . S
C321 C355 1.395 . S
N322 C318 1.376 . S
N322 C321 1.374 . S
N322 Co323 2.008 . S
Co323 N322 2.008 . S
Co323 N324 1.995 . S
Co323 N329 2.008 . S
Co323 N334 1.995 . S
Co323 N339 2.282 . S
Co323 N345 2.282 . S
N324 Co323 1.995 . S
N324 C325 1.376 . S
N324 C328 1.383 . S
C325 N324 1.376 . S
C325 C326 1.446 . S
C325 C355 1.391 . S
C326 C325 1.446 . S
C326 C327 1.339 . S
C326 H361 0.949 . S
C327 C326 1.339 . S
C327 C328 1.439 . S
C327 H362 0.950 . S
C328 N324 1.383 . S
C328 C327 1.439 . S
C328 C357 1.392 . S
N329 Co323 2.008 . S
N329 C330 1.376 . S
N329 C333 1.374 . S
C330 N329 1.376 . S
C330 C331 1.443 . S
C330 C357 1.389 . S
C331 C330 1.443 . S
C331 C332 1.340 . S
C331 H363 0.951 . S
C332 C331 1.340 . S
C332 C333 1.439 . S
C332 H364 0.950 . S
C333 N329 1.374 . S
C333 C332 1.439 . S
C333 C358 1.395 . S
N334 Co323 1.995 . S
N334 C335 1.376 . S
N334 C338 1.383 . S
C335 N334 1.376 . S
C335 C336 1.446 . S
C335 C358 1.391 . S
C336 C335 1.446 . S
C336 C337 1.339 . S
C336 H365 0.949 . S
C337 C336 1.339 . S
C337 C338 1.439 . S
C337 H366 0.950 . S
C338 N334 1.383 . S
C338 C337 1.439 . S
C338 C356 1.392 . S
N339 Co323 2.282 . S
N339 C342 1.332 . S
N339 C344 1.332 . S
C340 C341 1.386 . S
C340 C343 1.388 . S
C341 C340 1.386 . S
C341 C342 1.382 . S
C341 H367 0.950 . S
C342 N339 1.332 . S
C342 C341 1.382 . S
C342 H353 0.952 . S
C343 C340 1.388 . S
C343 C344 1.382 . S
C343 H368 0.950 . S
C344 N339 1.332 . S
C344 C343 1.382 . S
C344 H354 0.948 . S
N345 Co323 2.282 . S
N345 C349 1.332 . S
N345 C350 1.332 . S
C346 C347 1.388 . S
C346 C350 1.382 . S
C346 H369 0.950 . S
C347 C346 1.388 . S
C347 C348 1.386 . S
C348 C347 1.386 . S
C348 C349 1.382 . S
C348 H370 0.950 . S
C349 N345 1.332 . S
C349 C348 1.382 . S
C349 H351 0.952 . S
C350 N345 1.332 . S
C350 C346 1.382 . S
C350 H352 0.948 . S
H351 C349 0.952 . S
H352 C350 0.948 . S
H353 C342 0.952 . S
H354 C344 0.948 . S
C355 C321 1.395 . S
C355 C325 1.391 . S
C356 C318 1.389 . S
C356 C338 1.392 . S
C357 C328 1.392 . S
C357 C330 1.389 . S
C358 C333 1.395 . S
C358 C335 1.391 . S
H359 C319 0.951 . S
H360 C320 0.950 . S
H361 C326 0.949 . S
H362 C327 0.950 . S
H363 C331 0.951 . S
H364 C332 0.950 . S
H365 C336 0.949 . S
H366 C337 0.950 . S
H367 C341 0.950 . S
H368 C343 0.950 . S
H369 C346 0.950 . S
H370 C348 0.950 . S
C371 C372 1.443 . S
C371 N375 1.376 . S
C371 C409 1.389 . S
C372 C371 1.443 . S
C372 C373 1.340 . S
C372 H412 0.951 . S
C373 C372 1.340 . S
C373 C374 1.439 . S
C373 H413 0.950 . S
C374 C373 1.439 . S
C374 N375 1.374 . S
C374 C408 1.395 . S
N375 C371 1.376 . S
N375 C374 1.374 . S
N375 Co376 2.008 . S
Co376 N375 2.008 . S
Co376 N377 1.995 . S
Co376 N382 2.008 . S
Co376 N387 1.995 . S
Co376 N392 2.282 . S
Co376 N398 2.282 . S
N377 Co376 1.995 . S
N377 C378 1.376 . S
N377 C381 1.383 . S
C378 N377 1.376 . S
C378 C379 1.446 . S
C378 C408 1.391 . S
C379 C378 1.446 . S
C379 C380 1.339 . S
C379 H414 0.949 . S
C380 C379 1.339 . S
C380 C381 1.439 . S
C380 H415 0.950 . S
C381 N377 1.383 . S
C381 C380 1.439 . S
C381 C410 1.392 . S
N382 Co376 2.008 . S
N382 C383 1.376 . S
N382 C386 1.374 . S
C383 N382 1.376 . S
C383 C384 1.443 . S
C383 C410 1.389 . S
C384 C383 1.443 . S
C384 C385 1.340 . S
C384 H416 0.951 . S
C385 C384 1.340 . S
C385 C386 1.439 . S
C385 H417 0.950 . S
C386 N382 1.374 . S
C386 C385 1.439 . S
C386 C411 1.395 . S
N387 Co376 1.995 . S
N387 C388 1.376 . S
N387 C391 1.383 . S
C388 N387 1.376 . S
C388 C389 1.446 . S
C388 C411 1.391 . S
C389 C388 1.446 . S
C389 C390 1.339 . S
C389 H418 0.949 . S
C390 C389 1.339 . S
C390 C391 1.439 . S
C390 H419 0.950 . S
C391 N387 1.383 . S
C391 C390 1.439 . S
C391 C409 1.392 . S
N392 Co376 2.282 . S
N392 C395 1.332 . S
N392 C397 1.332 . S
C393 C394 1.386 . S
C393 C396 1.388 . S
C394 C393 1.386 . S
C394 C395 1.382 . S
C394 H420 0.950 . S
C395 N392 1.332 . S
C395 C394 1.382 . S
C395 H406 0.952 . S
C396 C393 1.388 . S
C396 C397 1.382 . S
C396 H421 0.950 . S
C397 N392 1.332 . S
C397 C396 1.382 . S
C397 H407 0.948 . S
N398 Co376 2.282 . S
N398 C402 1.332 . S
N398 C403 1.332 . S
C399 C400 1.388 . S
C399 C403 1.382 . S
C399 H422 0.950 . S
C400 C399 1.388 . S
C400 C401 1.386 . S
C401 C400 1.386 . S
C401 C402 1.382 . S
C401 H423 0.950 . S
C402 N398 1.332 . S
C402 C401 1.382 . S
C402 H404 0.952 . S
C403 N398 1.332 . S
C403 C399 1.382 . S
C403 H405 0.948 . S
H404 C402 0.952 . S
H405 C403 0.948 . S
H406 C395 0.952 . S
H407 C397 0.948 . S
C408 C374 1.395 . S
C408 C378 1.391 . S
C409 C371 1.389 . S
C409 C391 1.392 . S
C410 C381 1.392 . S
C410 C383 1.389 . S
C411 C386 1.395 . S
C411 C388 1.391 . S
H412 C372 0.951 . S
H413 C373 0.950 . S
H414 C379 0.949 . S
H415 C380 0.950 . S
H416 C384 0.951 . S
H417 C385 0.950 . S
H418 C389 0.949 . S
H419 C390 0.950 . S
H420 C394 0.950 . S
H421 C396 0.950 . S
H422 C399 0.950 . S
H423 C401 0.950 . S
C424 C425 1.443 . S
C424 N428 1.376 . S
C424 C462 1.389 . S
C425 C424 1.443 . S
C425 C426 1.340 . S
C425 H465 0.951 . S
C426 C425 1.340 . S
C426 C427 1.439 . S
C426 H466 0.950 . S
C427 C426 1.439 . S
C427 N428 1.374 . S
C427 C461 1.395 . S
N428 C424 1.376 . S
N428 C427 1.374 . S
N428 Co429 2.008 . S
Co429 N428 2.008 . S
Co429 N430 1.995 . S
Co429 N435 2.008 . S
Co429 N440 1.995 . S
Co429 N445 2.282 . S
Co429 N451 2.282 . S
N430 Co429 1.995 . S
N430 C431 1.376 . S
N430 C434 1.383 . S
C431 N430 1.376 . S
C431 C432 1.446 . S
C431 C461 1.391 . S
C432 C431 1.446 . S
C432 C433 1.339 . S
C432 H467 0.949 . S
C433 C432 1.339 . S
C433 C434 1.439 . S
C433 H468 0.950 . S
C434 N430 1.383 . S
C434 C433 1.439 . S
C434 C463 1.392 . S
N435 Co429 2.008 . S
N435 C436 1.376 . S
N435 C439 1.374 . S
C436 N435 1.376 . S
C436 C437 1.443 . S
C436 C463 1.389 . S
C437 C436 1.443 . S
C437 C438 1.340 . S
C437 H469 0.951 . S
C438 C437 1.340 . S
C438 C439 1.439 . S
C438 H470 0.950 . S
C439 N435 1.374 . S
C439 C438 1.439 . S
C439 C464 1.395 . S
N440 Co429 1.995 . S
N440 C441 1.376 . S
N440 C444 1.383 . S
C441 N440 1.376 . S
C441 C442 1.446 . S
C441 C464 1.391 . S
C442 C441 1.446 . S
C442 C443 1.339 . S
C442 H471 0.949 . S
C443 C442 1.339 . S
C443 C444 1.439 . S
C443 H472 0.950 . S
C444 N440 1.383 . S
C444 C443 1.439 . S
C444 C462 1.392 . S
N445 Co429 2.282 . S
N445 C448 1.332 . S
N445 C450 1.332 . S
C446 C447 1.386 . S
C446 C449 1.388 . S
C447 C446 1.386 . S
C447 C448 1.382 . S
C447 H473 0.950 . S
C448 N445 1.332 . S
C448 C447 1.382 . S
C448 H459 0.952 . S
C449 C446 1.388 . S
C449 C450 1.382 . S
C449 H474 0.950 . S
C450 N445 1.332 . S
C450 C449 1.382 . S
C450 H460 0.948 . S
N451 Co429 2.282 . S
N451 C455 1.332 . S
N451 C456 1.332 . S
C452 C453 1.388 . S
C452 C456 1.382 . S
C452 H475 0.950 . S
C453 C452 1.388 . S
C453 C454 1.386 . S
C454 C453 1.386 . S
C454 C455 1.382 . S
C454 H476 0.950 . S
C455 N451 1.332 . S
C455 C454 1.382 . S
C455 H457 0.952 . S
C456 N451 1.332 . S
C456 C452 1.382 . S
C456 H458 0.948 . S
H457 C455 0.952 . S
H458 C456 0.948 . S
H459 C448 0.952 . S
H460 C450 0.948 . S
C461 C427 1.395 . S
C461 C431 1.391 . S
C462 C424 1.389 . S
C462 C444 1.392 . S
C463 C434 1.392 . S
C463 C436 1.389 . S
C464 C439 1.395 . S
C464 C441 1.391 . S
H465 C425 0.951 . S
H466 C426 0.950 . S
H467 C432 0.949 . S
H468 C433 0.950 . S
H469 C437 0.951 . S
H470 C438 0.950 . S
H471 C442 0.949 . S
H472 C443 0.950 . S
H473 C447 0.950 . S
H474 C449 0.950 . S
H475 C452 0.950 . S
H476 C454 0.950 . S
C477 C478 1.443 . S
C477 N481 1.376 . S
C477 C515 1.389 . S
C478 C477 1.443 . S
C478 C479 1.340 . S
C478 H518 0.951 1_655 S
C479 C478 1.340 . S
C479 C480 1.439 . S
C479 H519 0.950 . S
C480 C479 1.439 . S
C480 N481 1.374 . S
C480 C514 1.395 . S
N481 C477 1.376 . S
N481 C480 1.374 . S
N481 Co482 2.008 . S
Co482 N481 2.008 . S
Co482 N483 1.995 . S
Co482 N488 2.008 . S
Co482 N493 1.995 . S
Co482 N498 2.282 . S
Co482 N504 2.282 . S
N483 Co482 1.995 . S
N483 C484 1.376 . S
N483 C487 1.383 . S
C484 N483 1.376 . S
C484 C485 1.446 . S
C484 C514 1.391 . S
C485 C484 1.446 . S
C485 C486 1.339 . S
C485 H520 0.949 . S
C486 C485 1.339 . S
C486 C487 1.439 . S
C486 H521 0.950 . S
C487 N483 1.383 . S
C487 C486 1.439 . S
C487 C516 1.392 . S
N488 Co482 2.008 . S
N488 C489 1.376 . S
N488 C492 1.374 . S
C489 N488 1.376 . S
C489 C490 1.443 . S
C489 C516 1.389 . S
C490 C489 1.443 . S
C490 C491 1.340 . S
C490 H522 0.951 . S
C491 C490 1.340 . S
C491 C492 1.439 . S
C491 H523 0.950 . S
C492 N488 1.374 . S
C492 C491 1.439 . S
C492 C517 1.395 . S
N493 Co482 1.995 . S
N493 C494 1.376 . S
N493 C497 1.383 . S
C494 N493 1.376 . S
C494 C495 1.446 . S
C494 C517 1.391 . S
C495 C494 1.446 . S
C495 C496 1.339 . S
C495 H524 0.949 . S
C496 C495 1.339 . S
C496 C497 1.439 . S
C496 H525 0.950 . S
C497 N493 1.383 . S
C497 C496 1.439 . S
C497 C515 1.392 . S
N498 Co482 2.282 . S
N498 C501 1.332 . S
N498 C503 1.332 . S
C499 C500 1.386 . S
C499 C502 1.388 . S
C500 C499 1.386 . S
C500 C501 1.382 . S
C500 H526 0.950 . S
C501 N498 1.332 . S
C501 C500 1.382 . S
C501 H512 0.952 . S
C502 C499 1.388 . S
C502 C503 1.382 . S
C502 H527 0.950 . S
C503 N498 1.332 . S
C503 C502 1.382 . S
C503 H513 0.948 . S
N504 Co482 2.282 . S
N504 C508 1.332 . S
N504 C509 1.332 . S
C505 C506 1.388 . S
C505 C509 1.382 . S
C505 H528 0.950 . S
C506 C505 1.388 . S
C506 C507 1.386 . S
C507 C506 1.386 . S
C507 C508 1.382 . S
C507 H529 0.950 . S
C508 N504 1.332 . S
C508 C507 1.382 . S
C508 H510 0.952 . S
C509 N504 1.332 . S
C509 C505 1.382 . S
C509 H511 0.948 . S
H510 C508 0.952 . S
H511 C509 0.948 . S
H512 C501 0.952 . S
H513 C503 0.948 . S
C514 C480 1.395 . S
C514 C484 1.391 . S
C515 C477 1.389 . S
C515 C497 1.392 . S
C516 C487 1.392 . S
C516 C489 1.389 . S
C517 C492 1.395 . S
C517 C494 1.391 . S
H518 C478 0.951 1_455 S
H519 C479 0.950 . S
H520 C485 0.949 . S
H521 C486 0.950 . S
H522 C490 0.951 . S
H523 C491 0.950 . S
H524 C495 0.949 . S
H525 C496 0.950 . S
H526 C500 0.950 . S
H527 C502 0.950 . S
H528 C505 0.950 . S
H529 C507 0.950 . S
C530 C531 1.443 . S
C530 N534 1.376 . S
C530 C568 1.389 . S
C531 C530 1.443 . S
C531 C532 1.340 . S
C531 H571 0.951 . S
C532 C531 1.340 . S
C532 C533 1.439 . S
C532 H572 0.950 . S
C533 C532 1.439 . S
C533 N534 1.374 . S
C533 C567 1.395 . S
N534 C530 1.376 . S
N534 C533 1.374 . S
N534 Co535 2.008 . S
Co535 N534 2.008 . S
Co535 N536 1.995 . S
Co535 N541 2.008 . S
Co535 N546 1.995 . S
Co535 N551 2.282 . S
Co535 N557 2.282 . S
N536 Co535 1.995 . S
N536 C537 1.376 . S
N536 C540 1.383 . S
C537 N536 1.376 . S
C537 C538 1.446 . S
C537 C567 1.391 . S
C538 C537 1.446 . S
C538 C539 1.339 . S
C538 H573 0.949 . S
C539 C538 1.339 . S
C539 C540 1.439 . S
C539 H574 0.950 . S
C540 N536 1.383 . S
C540 C539 1.439 . S
C540 C569 1.392 . S
N541 Co535 2.008 . S
N541 C542 1.376 . S
N541 C545 1.374 . S
C542 N541 1.376 . S
C542 C543 1.443 . S
C542 C569 1.389 . S
C543 C542 1.443 . S
C543 C544 1.340 . S
C543 H575 0.951 . S
C544 C543 1.340 . S
C544 C545 1.439 . S
C544 H576 0.950 . S
C545 N541 1.374 . S
C545 C544 1.439 . S
C545 C570 1.395 . S
N546 Co535 1.995 . S
N546 C547 1.376 . S
N546 C550 1.383 . S
C547 N546 1.376 . S
C547 C548 1.446 . S
C547 C570 1.391 . S
C548 C547 1.446 . S
C548 C549 1.339 . S
C548 H577 0.949 . S
C549 C548 1.339 . S
C549 C550 1.439 . S
C549 H578 0.950 . S
C550 N546 1.383 . S
C550 C549 1.439 . S
C550 C568 1.392 . S
N551 Co535 2.282 . S
N551 C554 1.332 . S
N551 C556 1.332 . S
C552 C553 1.386 . S
C552 C555 1.388 . S
C553 C552 1.386 . S
C553 C554 1.382 . S
C553 H579 0.950 . S
C554 N551 1.332 . S
C554 C553 1.382 . S
C554 H565 0.952 . S
C555 C552 1.388 . S
C555 C556 1.382 . S
C555 H580 0.950 . S
C556 N551 1.332 . S
C556 C555 1.382 . S
C556 H566 0.948 . S
N557 Co535 2.282 . S
N557 C561 1.332 . S
N557 C562 1.332 . S
C558 C559 1.388 . S
C558 C562 1.382 . S
C558 H581 0.950 . S
C559 C558 1.388 . S
C559 C560 1.386 . S
C560 C559 1.386 . S
C560 C561 1.382 . S
C560 H582 0.950 . S
C561 N557 1.332 . S
C561 C560 1.382 . S
C561 H563 0.952 . S
C562 N557 1.332 . S
C562 C558 1.382 . S
C562 H564 0.948 . S
H563 C561 0.952 . S
H564 C562 0.948 . S
H565 C554 0.952 . S
H566 C556 0.948 . S
C567 C533 1.395 . S
C567 C537 1.391 . S
C568 C530 1.389 . S
C568 C550 1.392 . S
C569 C540 1.392 . S
C569 C542 1.389 . S
C570 C545 1.395 . S
C570 C547 1.391 . S
H571 C531 0.951 . S
H572 C532 0.950 . S
H573 C538 0.949 . S
H574 C539 0.950 . S
H575 C543 0.951 . S
H576 C544 0.950 . S
H577 C548 0.949 . S
H578 C549 0.950 . S
H579 C553 0.950 . S
H580 C555 0.950 . S
H581 C558 0.950 . S
H582 C560 0.950 . S
C583 C584 1.443 . S
C583 N587 1.376 . S
C583 C621 1.389 . S
C584 C583 1.443 . S
C584 C585 1.340 . S
C584 H624 0.951 . S
C585 C584 1.340 . S
C585 C586 1.439 . S
C585 H625 0.950 . S
C586 C585 1.439 . S
C586 N587 1.374 . S
C586 C620 1.395 . S
N587 C583 1.376 . S
N587 C586 1.374 . S
N587 Co588 2.008 . S
Co588 N587 2.008 . S
Co588 N589 1.995 . S
Co588 N594 2.008 . S
Co588 N599 1.995 . S
Co588 N604 2.282 . S
Co588 N610 2.282 . S
N589 Co588 1.995 . S
N589 C590 1.376 . S
N589 C593 1.383 . S
C590 N589 1.376 . S
C590 C591 1.446 . S
C590 C620 1.391 . S
C591 C590 1.446 . S
C591 C592 1.339 . S
C591 H626 0.949 . S
C592 C591 1.339 . S
C592 C593 1.439 . S
C592 H627 0.950 . S
C593 N589 1.383 . S
C593 C592 1.439 . S
C593 C622 1.392 . S
N594 Co588 2.008 . S
N594 C595 1.376 . S
N594 C598 1.374 . S
C595 N594 1.376 . S
C595 C596 1.443 . S
C595 C622 1.389 . S
C596 C595 1.443 . S
C596 C597 1.340 . S
C596 H628 0.951 . S
C597 C596 1.340 . S
C597 C598 1.439 . S
C597 H629 0.950 . S
C598 N594 1.374 . S
C598 C597 1.439 . S
C598 C623 1.395 . S
N599 Co588 1.995 . S
N599 C600 1.376 . S
N599 C603 1.383 . S
C600 N599 1.376 . S
C600 C601 1.446 . S
C600 C623 1.391 . S
C601 C600 1.446 . S
C601 C602 1.339 . S
C601 H630 0.949 . S
C602 C601 1.339 . S
C602 C603 1.439 . S
C602 H631 0.950 . S
C603 N599 1.383 . S
C603 C602 1.439 . S
C603 C621 1.392 . S
N604 Co588 2.282 . S
N604 C607 1.332 . S
N604 C609 1.332 . S
C605 C606 1.386 . S
C605 C608 1.388 . S
C606 C605 1.386 . S
C606 C607 1.382 . S
C606 H632 0.950 . S
C607 N604 1.332 . S
C607 C606 1.382 . S
C607 H618 0.952 . S
C608 C605 1.388 . S
C608 C609 1.382 . S
C608 H633 0.965 . S
C609 N604 1.332 . S
C609 C608 1.382 . S
C609 H619 0.948 . S
N610 Co588 2.282 . S
N610 C614 1.332 . S
N610 C615 1.332 . S
C611 C612 1.388 . S
C611 C615 1.382 . S
C611 H634 0.950 . S
C612 C611 1.388 . S
C612 C613 1.386 . S
C613 C612 1.386 . S
C613 C614 1.382 . S
C613 H635 0.950 . S
C614 N610 1.332 . S
C614 C613 1.382 . S
C614 H616 0.952 . S
C615 N610 1.332 . S
C615 C611 1.382 . S
C615 H617 0.948 . S
H616 C614 0.952 . S
H617 C615 0.948 . S
H618 C607 0.952 . S
H619 C609 0.948 . S
C620 C586 1.395 . S
C620 C590 1.391 . S
C621 C583 1.389 . S
C621 C603 1.392 . S
C622 C593 1.392 . S
C622 C595 1.389 . S
C623 C598 1.395 . S
C623 C600 1.391 . S
H624 C584 0.951 . S
H625 C585 0.950 . S
H626 C591 0.949 . S
H627 C592 0.950 . S
H628 C596 0.951 . S
H629 C597 0.950 . S
H630 C601 0.949 . S
H631 C602 0.950 . S
H632 C606 0.950 . S
H633 C608 0.965 . S
H634 C611 0.950 . S
H635 C613 0.950 . S
C636 C637 1.443 . S
C636 N640 1.376 . S
C636 C674 1.389 . S
C637 C636 1.443 . S
C637 C638 1.340 . S
C637 H677 0.951 . S
C638 C637 1.340 . S
C638 C639 1.439 . S
C638 H678 0.950 . S
C639 C638 1.439 . S
C639 N640 1.374 . S
C639 C673 1.395 . S
N640 C636 1.376 . S
N640 C639 1.374 . S
N640 Co641 2.008 . S
Co641 N640 2.008 . S
Co641 N642 1.995 . S
Co641 N647 2.008 . S
Co641 N652 1.995 . S
Co641 N657 2.282 . S
Co641 N663 2.282 . S
N642 Co641 1.995 . S
N642 C643 1.376 . S
N642 C646 1.383 . S
C643 N642 1.376 . S
C643 C644 1.446 . S
C643 C673 1.391 . S
C644 C643 1.446 . S
C644 C645 1.339 . S
C644 H679 0.949 . S
C645 C644 1.339 . S
C645 C646 1.439 . S
C645 H680 0.950 . S
C646 N642 1.383 . S
C646 C645 1.439 . S
C646 C675 1.392 . S
N647 Co641 2.008 . S
N647 C648 1.376 . S
N647 C651 1.374 . S
C648 N647 1.376 . S
C648 C649 1.443 . S
C648 C675 1.389 . S
C649 C648 1.443 . S
C649 C650 1.340 . S
C649 H681 0.951 . S
C650 C649 1.340 . S
C650 C651 1.439 . S
C650 H682 0.950 . S
C651 N647 1.374 . S
C651 C650 1.439 . S
C651 C676 1.395 . S
N652 Co641 1.995 . S
N652 C653 1.376 . S
N652 C656 1.383 . S
C653 N652 1.376 . S
C653 C654 1.446 . S
C653 C676 1.391 . S
C654 C653 1.446 . S
C654 C655 1.339 . S
C654 H683 0.949 . S
C655 C654 1.339 . S
C655 C656 1.439 . S
C655 H684 0.950 . S
C656 N652 1.383 . S
C656 C655 1.439 . S
C656 C674 1.392 . S
N657 Co641 2.282 . S
N657 C660 1.332 . S
N657 C662 1.332 . S
C658 C659 1.386 . S
C658 C661 1.388 . S
C659 C658 1.386 . S
C659 C660 1.382 . S
C659 H685 0.950 . S
C660 N657 1.332 . S
C660 C659 1.382 . S
C660 H671 0.952 . S
C661 C658 1.388 . S
C661 C662 1.382 . S
C661 H686 0.950 . S
C662 N657 1.332 . S
C662 C661 1.382 . S
C662 H672 0.948 . S
N663 Co641 2.282 . S
N663 C667 1.332 . S
N663 C668 1.332 . S
C664 C665 1.388 . S
C664 C668 1.382 . S
C664 H687 0.950 . S
C665 C664 1.388 . S
C665 C666 1.386 . S
C666 C665 1.386 . S
C666 C667 1.382 . S
C666 H688 0.950 . S
C667 N663 1.332 . S
C667 C666 1.382 . S
C667 H669 0.952 . S
C668 N663 1.332 . S
C668 C664 1.382 . S
C668 H670 0.948 . S
H669 C667 0.952 . S
H670 C668 0.948 . S
H671 C660 0.952 . S
H672 C662 0.948 . S
C673 C639 1.395 . S
C673 C643 1.391 . S
C674 C636 1.389 . S
C674 C656 1.392 . S
C675 C646 1.392 . S
C675 C648 1.389 . S
C676 C651 1.395 . S
C676 C653 1.391 . S
H677 C637 0.951 . S
H678 C638 0.950 . S
H679 C644 0.949 . S
H680 C645 0.950 . S
H681 C649 0.951 . S
H682 C650 0.950 . S
H683 C654 0.949 . S
H684 C655 0.950 . S
H685 C659 0.950 . S
H686 C661 0.950 . S
H687 C664 0.950 . S
H688 C666 0.950 . S
C689 C690 1.443 . S
C689 N693 1.376 . S
C689 C727 1.389 . S
C690 C689 1.443 . S
C690 C691 1.340 . S
C690 H730 0.951 . S
C691 C690 1.340 . S
C691 C692 1.439 . S
C691 H731 0.950 . S
C692 C691 1.439 . S
C692 N693 1.374 . S
C692 C726 1.395 . S
N693 C689 1.376 . S
N693 C692 1.374 . S
N693 Co694 2.008 . S
Co694 N693 2.008 . S
Co694 N695 1.995 . S
Co694 N700 2.008 . S
Co694 N705 1.995 . S
Co694 N710 2.282 . S
Co694 N716 2.282 . S
N695 Co694 1.995 . S
N695 C696 1.376 . S
N695 C699 1.383 . S
C696 N695 1.376 . S
C696 C697 1.446 . S
C696 C726 1.391 . S
C697 C696 1.446 . S
C697 C698 1.339 . S
C697 H732 0.949 . S
C698 C697 1.339 . S
C698 C699 1.439 . S
C698 H733 0.950 . S
C699 N695 1.383 . S
C699 C698 1.439 . S
C699 C728 1.392 . S
N700 Co694 2.008 . S
N700 C701 1.376 . S
N700 C704 1.374 . S
C701 N700 1.376 . S
C701 C702 1.443 . S
C701 C728 1.389 . S
C702 C701 1.443 . S
C702 C703 1.340 . S
C702 H734 0.951 . S
C703 C702 1.340 . S
C703 C704 1.439 . S
C703 H735 0.950 . S
C704 N700 1.374 . S
C704 C703 1.439 . S
C704 C729 1.395 . S
N705 Co694 1.995 . S
N705 C706 1.376 . S
N705 C709 1.383 . S
C706 N705 1.376 . S
C706 C707 1.446 . S
C706 C729 1.391 . S
C707 C706 1.446 . S
C707 C708 1.339 . S
C707 H736 0.949 . S
C708 C707 1.339 . S
C708 C709 1.439 . S
C708 H737 0.950 . S
C709 N705 1.383 . S
C709 C708 1.439 . S
C709 C727 1.392 . S
N710 Co694 2.282 . S
N710 C713 1.332 . S
N710 C715 1.332 . S
C711 C712 1.386 . S
C711 C714 1.388 . S
C712 C711 1.386 . S
C712 C713 1.382 . S
C712 H738 0.950 . S
C713 N710 1.332 . S
C713 C712 1.382 . S
C713 H724 0.952 . S
C714 C711 1.388 . S
C714 C715 1.382 . S
C714 H739 0.950 . S
C715 N710 1.332 . S
C715 C714 1.382 . S
C715 H725 0.948 . S
N716 Co694 2.282 . S
N716 C720 1.332 . S
N716 C721 1.332 . S
C717 C718 1.388 . S
C717 C721 1.382 . S
C717 H740 0.950 . S
C718 C717 1.388 . S
C718 C719 1.386 . S
C719 C718 1.386 . S
C719 C720 1.382 . S
C719 H741 0.950 . S
C720 N716 1.332 . S
C720 C719 1.382 . S
C720 H722 0.952 . S
C721 N716 1.332 . S
C721 C717 1.382 . S
C721 H723 0.948 . S
H722 C720 0.952 . S
H723 C721 0.948 . S
H724 C713 0.952 . S
H725 C715 0.948 . S
C726 C692 1.395 . S
C726 C696 1.391 . S
C727 C689 1.389 . S
C727 C709 1.392 . S
C728 C699 1.392 . S
C728 C701 1.389 . S
C729 C704 1.395 . S
C729 C706 1.391 . S
H730 C690 0.951 . S
H731 C691 0.950 . S
H732 C697 0.949 . S
H733 C698 0.950 . S
H734 C702 0.951 . S
H735 C703 0.950 . S
H736 C707 0.949 . S
H737 C708 0.950 . S
H738 C712 0.950 . S
H739 C714 0.950 . S
H740 C717 0.950 . S
H741 C719 0.950 . S
C742 C743 1.443 . S
C742 N746 1.376 . S
C742 C780 1.389 . S
C743 C742 1.443 . S
C743 C744 1.340 . S
C743 H783 0.951 . S
C744 C743 1.340 . S
C744 C745 1.439 . S
C744 H784 0.950 . S
C745 C744 1.439 . S
C745 N746 1.374 . S
C745 C779 1.395 . S
N746 C742 1.376 . S
N746 C745 1.374 . S
N746 Co747 2.008 . S
Co747 N746 2.008 . S
Co747 N748 1.995 . S
Co747 N753 2.008 . S
Co747 N758 1.995 . S
Co747 N763 2.282 . S
Co747 N769 2.282 . S
N748 Co747 1.995 . S
N748 C749 1.376 . S
N748 C752 1.383 . S
C749 N748 1.376 . S
C749 C750 1.446 . S
C749 C779 1.391 . S
C750 C749 1.446 . S
C750 C751 1.339 . S
C750 H785 0.949 . S
C751 C750 1.339 . S
C751 C752 1.439 . S
C751 H786 0.950 . S
C752 N748 1.383 . S
C752 C751 1.439 . S
C752 C781 1.392 . S
N753 Co747 2.008 . S
N753 C754 1.376 . S
N753 C757 1.374 . S
C754 N753 1.376 . S
C754 C755 1.443 . S
C754 C781 1.389 . S
C755 C754 1.443 . S
C755 C756 1.340 . S
C755 H787 0.951 . S
C756 C755 1.340 . S
C756 C757 1.439 . S
C756 H788 0.950 . S
C757 N753 1.374 . S
C757 C756 1.439 . S
C757 C782 1.395 . S
N758 Co747 1.995 . S
N758 C759 1.376 . S
N758 C762 1.383 . S
C759 N758 1.376 . S
C759 C760 1.446 . S
C759 C782 1.391 . S
C760 C759 1.446 . S
C760 C761 1.339 . S
C760 H789 0.949 . S
C761 C760 1.339 . S
C761 C762 1.439 . S
C761 H790 0.950 . S
C762 N758 1.383 . S
C762 C761 1.439 . S
C762 C780 1.392 . S
N763 Co747 2.282 . S
N763 C766 1.332 . S
N763 C768 1.332 . S
C764 C765 1.386 . S
C764 C767 1.388 . S
C765 C764 1.386 . S
C765 C766 1.382 . S
C765 H791 0.950 . S
C766 N763 1.332 . S
C766 C765 1.382 . S
C766 H777 0.952 . S
C767 C764 1.388 . S
C767 C768 1.382 . S
C767 H792 0.950 . S
C768 N763 1.332 . S
C768 C767 1.382 . S
C768 H778 0.948 . S
N769 Co747 2.282 . S
N769 C773 1.332 . S
N769 C774 1.332 . S
C770 C771 1.388 . S
C770 C774 1.382 . S
C770 H793 0.950 . S
C771 C770 1.388 . S
C771 C772 1.386 . S
C772 C771 1.386 . S
C772 C773 1.382 . S
C772 H794 0.950 . S
C773 N769 1.332 . S
C773 C772 1.382 . S
C773 H775 0.952 . S
C774 N769 1.332 . S
C774 C770 1.382 . S
C774 H776 0.948 . S
H775 C773 0.952 . S
H776 C774 0.948 . S
H777 C766 0.952 . S
H778 C768 0.948 . S
C779 C745 1.395 . S
C779 C749 1.391 . S
C780 C742 1.389 . S
C780 C762 1.392 . S
C781 C752 1.392 . S
C781 C754 1.389 . S
C782 C757 1.395 . S
C782 C759 1.391 . S
H783 C743 0.951 . S
H784 C744 0.950 . S
H785 C750 0.949 . S
H786 C751 0.950 . S
H787 C755 0.951 . S
H788 C756 0.950 . S
H789 C760 0.949 . S
H790 C761 0.950 . S
H791 C765 0.950 . S
H792 C767 0.950 . S
H793 C770 0.950 . S
H794 C772 0.950 . S
C795 C796 1.443 . S
C795 N799 1.376 . S
C795 C833 1.389 . S
C796 C795 1.443 . S
C796 C797 1.340 . S
C796 H836 0.951 . S
C797 C796 1.340 . S
C797 C798 1.439 . S
C797 H837 0.950 . S
C798 C797 1.439 . S
C798 N799 1.374 . S
C798 C832 1.395 . S
N799 C795 1.376 . S
N799 C798 1.374 . S
N799 Co800 2.008 . S
Co800 N799 2.008 . S
Co800 N801 1.995 . S
Co800 N806 2.008 . S
Co800 N811 1.995 . S
Co800 N816 2.282 . S
Co800 N822 2.282 . S
N801 Co800 1.995 . S
N801 C802 1.376 . S
N801 C805 1.383 . S
C802 N801 1.376 . S
C802 C803 1.446 . S
C802 C832 1.391 . S
C803 C802 1.446 . S
C803 C804 1.339 . S
C803 H838 0.949 . S
C804 C803 1.339 . S
C804 C805 1.439 . S
C804 H839 0.950 . S
C805 N801 1.383 . S
C805 C804 1.439 . S
C805 C834 1.392 . S
N806 Co800 2.008 . S
N806 C807 1.376 . S
N806 C810 1.374 . S
C807 N806 1.376 . S
C807 C808 1.443 . S
C807 C834 1.389 . S
C808 C807 1.443 . S
C808 C809 1.340 . S
C808 H840 0.951 . S
C809 C808 1.340 . S
C809 C810 1.439 . S
C809 H841 0.950 . S
C810 N806 1.374 . S
C810 C809 1.439 . S
C810 C835 1.395 . S
N811 Co800 1.995 . S
N811 C812 1.376 . S
N811 C815 1.383 . S
C812 N811 1.376 . S
C812 C813 1.446 . S
C812 C835 1.391 . S
C813 C812 1.446 . S
C813 C814 1.339 . S
C813 H842 0.949 . S
C814 C813 1.339 . S
C814 C815 1.439 . S
C814 H843 0.950 . S
C815 N811 1.383 . S
C815 C814 1.439 . S
C815 C833 1.392 . S
N816 Co800 2.282 . S
N816 C819 1.332 . S
N816 C821 1.332 . S
C817 C818 1.386 . S
C817 C820 1.388 . S
C818 C817 1.386 . S
C818 C819 1.382 . S
C818 H844 0.950 . S
C819 N816 1.332 . S
C819 C818 1.382 . S
C819 H830 0.952 . S
C820 C817 1.388 . S
C820 C821 1.382 . S
C820 H845 0.950 . S
C821 N816 1.332 . S
C821 C820 1.382 . S
C821 H831 0.948 . S
N822 Co800 2.282 . S
N822 C826 1.332 . S
N822 C827 1.332 . S
C823 C824 1.388 . S
C823 C827 1.382 . S
C823 H846 0.950 . S
C824 C823 1.388 . S
C824 C825 1.386 . S
C825 C824 1.386 . S
C825 C826 1.382 . S
C825 H847 0.950 . S
C826 N822 1.332 . S
C826 C825 1.382 . S
C826 H828 0.952 . S
C827 N822 1.332 . S
C827 C823 1.382 . S
C827 H829 0.948 . S
H828 C826 0.952 . S
H829 C827 0.948 . S
H830 C819 0.952 . S
H831 C821 0.948 . S
C832 C798 1.395 . S
C832 C802 1.391 . S
C833 C795 1.389 . S
C833 C815 1.392 . S
C834 C805 1.392 . S
C834 C807 1.389 . S
C835 C810 1.395 . S
C835 C812 1.391 . S
H836 C796 0.951 . S
H837 C797 0.950 . S
H838 C803 0.949 . S
H839 C804 0.950 . S
H840 C808 0.951 . S
H841 C809 0.950 . S
H842 C813 0.949 . S
H843 C814 0.950 . S
H844 C818 0.950 . S
H845 C820 0.950 . S
H846 C823 0.950 . S
H847 C825 0.950 . S
C848 C849 1.443 . S
C848 N852 1.376 . S
C848 C886 1.389 . S
C849 C848 1.443 . S
C849 C850 1.340 . S
C849 H889 0.962 . S
C850 C849 1.340 . S
C850 C851 1.439 . S
C850 H890 0.950 . S
C851 C850 1.439 . S
C851 N852 1.374 . S
C851 C885 1.395 . S
N852 C848 1.376 . S
N852 C851 1.374 . S
N852 Co853 2.008 . S
Co853 N852 2.008 . S
Co853 N854 1.995 . S
Co853 N859 2.008 . S
Co853 N864 1.995 . S
Co853 N869 2.282 . S
Co853 N875 2.282 . S
N854 Co853 1.995 . S
N854 C855 1.376 . S
N854 C858 1.383 . S
C855 N854 1.376 . S
C855 C856 1.446 . S
C855 C885 1.391 . S
C856 C855 1.446 . S
C856 C857 1.339 . S
C856 H891 0.949 . S
C857 C856 1.339 . S
C857 C858 1.439 . S
C857 H892 0.950 . S
C858 N854 1.383 . S
C858 C857 1.439 . S
C858 C887 1.392 . S
N859 Co853 2.008 . S
N859 C860 1.376 . S
N859 C863 1.374 . S
C860 N859 1.376 . S
C860 C861 1.443 . S
C860 C887 1.389 . S
C861 C860 1.443 . S
C861 C862 1.340 . S
C861 H893 0.951 . S
C862 C861 1.340 . S
C862 C863 1.439 . S
C862 H894 0.950 . S
C863 N859 1.374 . S
C863 C862 1.439 . S
C863 C888 1.395 . S
N864 Co853 1.995 . S
N864 C865 1.376 . S
N864 C868 1.383 . S
C865 N864 1.376 . S
C865 C866 1.446 . S
C865 C888 1.391 . S
C866 C865 1.446 . S
C866 C867 1.339 . S
C866 H895 0.949 . S
C867 C866 1.339 . S
C867 C868 1.439 . S
C867 H896 0.950 . S
C868 N864 1.383 . S
C868 C867 1.439 . S
C868 C886 1.392 . S
N869 Co853 2.282 . S
N869 C872 1.332 . S
N869 C874 1.332 . S
C870 C871 1.386 . S
C870 C873 1.388 . S
C871 C870 1.386 . S
C871 C872 1.382 . S
C871 H897 0.950 . S
C872 N869 1.332 . S
C872 C871 1.382 . S
C872 H883 0.952 . S
C873 C870 1.388 . S
C873 C874 1.382 . S
C873 H898 0.950 . S
C874 N869 1.332 . S
C874 C873 1.382 . S
C874 H884 0.948 . S
N875 Co853 2.282 . S
N875 C879 1.332 . S
N875 C880 1.332 . S
C876 C877 1.388 . S
C876 C880 1.382 . S
C876 H899 0.950 . S
C877 C876 1.388 . S
C877 C878 1.386 . S
C878 C877 1.386 . S
C878 C879 1.382 . S
C878 H900 0.950 . S
C879 N875 1.332 . S
C879 C878 1.382 . S
C879 H881 0.952 . S
C880 N875 1.332 . S
C880 C876 1.382 . S
C880 H882 0.948 . S
H881 C879 0.952 . S
H882 C880 0.948 . S
H883 C872 0.952 . S
H884 C874 0.948 . S
C885 C851 1.395 . S
C885 C855 1.391 . S
C886 C848 1.389 . S
C886 C868 1.392 . S
C887 C858 1.392 . S
C887 C860 1.389 . S
C888 C863 1.395 . S
C888 C865 1.391 . S
H889 C849 0.962 . S
H890 C850 0.950 . S
H891 C856 0.949 . S
H892 C857 0.950 . S
H893 C861 0.951 . S
H894 C862 0.950 . S
H895 C866 0.949 . S
H896 C867 0.950 . S
H897 C871 0.950 . S
H898 C873 0.950 . S
H899 C876 0.950 . S
H900 C878 0.950 . S
C901 C902 1.443 . S
C901 N905 1.376 . S
C901 C939 1.389 . S
C902 C901 1.443 . S
C902 C903 1.340 . S
C902 H942 0.951 . S
C903 C902 1.340 . S
C903 C904 1.439 . S
C903 H943 0.950 . S
C904 C903 1.439 . S
C904 N905 1.374 . S
C904 C938 1.395 . S
N905 C901 1.376 . S
N905 C904 1.374 . S
N905 Co906 2.008 . S
Co906 N905 2.008 . S
Co906 N907 1.995 . S
Co906 N912 2.008 . S
Co906 N917 1.995 . S
Co906 N922 2.282 . S
Co906 N928 2.282 . S
N907 Co906 1.995 . S
N907 C908 1.376 . S
N907 C911 1.383 . S
C908 N907 1.376 . S
C908 C909 1.446 . S
C908 C938 1.391 . S
C909 C908 1.446 . S
C909 C910 1.339 . S
C909 H944 0.949 . S
C910 C909 1.339 . S
C910 C911 1.439 . S
C910 H945 0.950 . S
C911 N907 1.383 . S
C911 C910 1.439 . S
C911 C940 1.392 . S
N912 Co906 2.008 . S
N912 C913 1.376 . S
N912 C916 1.374 . S
C913 N912 1.376 . S
C913 C914 1.443 . S
C913 C940 1.389 . S
C914 C913 1.443 . S
C914 C915 1.340 . S
C914 H946 0.951 . S
C915 C914 1.340 . S
C915 C916 1.439 . S
C915 H947 0.950 . S
C916 N912 1.374 . S
C916 C915 1.439 . S
C916 C941 1.395 . S
N917 Co906 1.995 . S
N917 C918 1.376 . S
N917 C921 1.383 . S
C918 N917 1.376 . S
C918 C919 1.446 . S
C918 C941 1.391 . S
C919 C918 1.446 . S
C919 C920 1.339 . S
C919 H948 0.949 . S
C920 C919 1.339 . S
C920 C921 1.439 . S
C920 H949 0.950 . S
C921 N917 1.383 . S
C921 C920 1.439 . S
C921 C939 1.392 . S
N922 Co906 2.282 . S
N922 C925 1.332 . S
N922 C927 1.332 . S
C923 C924 1.386 . S
C923 C926 1.388 . S
C924 C923 1.386 . S
C924 C925 1.382 . S
C924 H950 0.950 . S
C925 N922 1.332 . S
C925 C924 1.382 . S
C925 H936 0.952 . S
C926 C923 1.388 . S
C926 C927 1.382 . S
C926 H951 0.950 . S
C927 N922 1.332 . S
C927 C926 1.382 . S
C927 H937 0.948 . S
N928 Co906 2.282 . S
N928 C932 1.332 . S
N928 C933 1.332 . S
C929 C930 1.388 . S
C929 C933 1.382 . S
C929 H952 0.950 . S
C930 C929 1.388 . S
C930 C931 1.386 . S
C931 C930 1.386 . S
C931 C932 1.382 . S
C931 H953 0.950 . S
C932 N928 1.332 . S
C932 C931 1.382 . S
C932 H934 0.952 . S
C933 N928 1.332 . S
C933 C929 1.382 . S
C933 H935 0.948 . S
H934 C932 0.952 . S
H935 C933 0.948 . S
H936 C925 0.952 . S
H937 C927 0.948 . S
C938 C904 1.395 . S
C938 C908 1.391 . S
C939 C901 1.389 . S
C939 C921 1.392 . S
C940 C911 1.392 . S
C940 C913 1.389 . S
C941 C916 1.395 . S
C941 C918 1.391 . S
H942 C902 0.951 . S
H943 C903 0.950 . S
H944 C909 0.949 . S
H945 C910 0.950 . S
H946 C914 0.951 . S
H947 C915 0.950 . S
H948 C919 0.949 . S
H949 C920 0.950 . S
H950 C924 0.950 . S
H951 C926 0.950 . S
H952 C929 0.950 . S
H953 C931 0.950 . S
C954 C955 1.443 . S
C954 N958 1.376 . S
C954 C992 1.389 . S
C955 C954 1.443 . S
C955 C956 1.340 . S
C955 H995 0.951 . S
C956 C955 1.340 . S
C956 C957 1.439 . S
C956 H996 0.950 . S
C957 C956 1.439 . S
C957 N958 1.374 . S
C957 C991 1.395 . S
N958 C954 1.376 . S
N958 C957 1.374 . S
N958 Co959 2.008 . S
Co959 N958 2.008 . S
Co959 N960 1.995 . S
Co959 N965 2.008 . S
Co959 N970 1.995 . S
Co959 N975 2.282 . S
Co959 N981 2.282 . S
N960 Co959 1.995 . S
N960 C961 1.376 . S
N960 C964 1.383 . S
C961 N960 1.376 . S
C961 C962 1.446 . S
C961 C991 1.391 . S
C962 C961 1.446 . S
C962 C963 1.339 . S
C962 H997 0.949 . S
C963 C962 1.339 . S
C963 C964 1.439 . S
C963 H998 0.950 . S
C964 N960 1.383 . S
C964 C963 1.439 . S
C964 C993 1.392 . S
N965 Co959 2.008 . S
N965 C966 1.376 . S
N965 C969 1.374 . S
C966 N965 1.376 . S
C966 C967 1.443 . S
C966 C993 1.389 . S
C967 C966 1.443 . S
C967 C968 1.340 . S
C967 H999 0.951 . S
C968 C967 1.340 . S
C968 C969 1.439 . S
C968 H1000 0.950 . S
C969 N965 1.374 . S
C969 C968 1.439 . S
C969 C994 1.395 . S
N970 Co959 1.995 . S
N970 C971 1.376 . S
N970 C974 1.383 . S
C971 N970 1.376 . S
C971 C972 1.446 . S
C971 C994 1.391 . S
C972 C971 1.446 . S
C972 C973 1.339 . S
C972 H1001 0.949 . S
C973 C972 1.339 . S
C973 C974 1.439 . S
C973 H1002 0.950 . S
C974 N970 1.383 . S
C974 C973 1.439 . S
C974 C992 1.392 . S
N975 Co959 2.282 . S
N975 C978 1.332 . S
N975 C980 1.332 . S
C976 C977 1.386 . S
C976 C979 1.388 . S
C977 C976 1.386 . S
C977 C978 1.382 . S
C977 H1003 0.950 . S
C978 N975 1.332 . S
C978 C977 1.382 . S
C978 H989 0.952 . S
C979 C976 1.388 . S
C979 C980 1.382 . S
C979 H1004 0.950 . S
C980 N975 1.332 . S
C980 C979 1.382 . S
C980 H990 0.948 . S
N981 Co959 2.282 . S
N981 C985 1.332 . S
N981 C986 1.332 . S
C982 C983 1.388 . S
C982 C986 1.382 . S
C982 H1005 0.950 . S
C983 C982 1.388 . S
C983 C984 1.386 . S
C984 C983 1.386 . S
C984 C985 1.382 . S
C984 H1006 0.950 . S
C985 N981 1.332 . S
C985 C984 1.382 . S
C985 H987 0.952 . S
C986 N981 1.332 . S
C986 C982 1.382 . S
C986 H988 0.948 . S
H987 C985 0.952 . S
H988 C986 0.948 . S
H989 C978 0.952 . S
H990 C980 0.948 . S
C991 C957 1.395 . S
C991 C961 1.391 . S
C992 C954 1.389 . S
C992 C974 1.392 . S
C993 C964 1.392 . S
C993 C966 1.389 . S
C994 C969 1.395 . S
C994 C971 1.391 . S
H995 C955 0.951 . S
H996 C956 0.950 . S
H997 C962 0.949 . S
H998 C963 0.950 . S
H999 C967 0.951 . S
H1000 C968 0.950 . S
H1001 C972 0.949 . S
H1002 C973 0.950 . S
H1003 C977 0.950 . S
H1004 C979 0.950 . S
H1005 C982 0.950 . S
H1006 C984 0.950 . S
C1007 C1008 1.443 . S
C1007 N1011 1.376 . S
C1007 C1045 1.389 . S
C1008 C1007 1.443 . S
C1008 C1009 1.340 . S
C1008 H1048 0.951 . S
C1009 C1008 1.340 . S
C1009 C1010 1.439 . S
C1009 H1049 0.950 . S
C1010 C1009 1.439 . S
C1010 N1011 1.374 . S
C1010 C1044 1.395 . S
N1011 C1007 1.376 . S
N1011 C1010 1.374 . S
N1011 Co1012 2.008 . S
Co1012 N1011 2.008 . S
Co1012 N1013 1.995 . S
Co1012 N1018 2.008 . S
Co1012 N1023 1.995 . S
Co1012 N1028 2.282 . S
Co1012 N1034 2.282 . S
N1013 Co1012 1.995 . S
N1013 C1014 1.376 . S
N1013 C1017 1.383 . S
C1014 N1013 1.376 . S
C1014 C1015 1.446 . S
C1014 C1044 1.391 . S
C1015 C1014 1.446 . S
C1015 C1016 1.339 . S
C1015 H1050 0.949 . S
C1016 C1015 1.339 . S
C1016 C1017 1.439 . S
C1016 H1051 0.950 . S
C1017 N1013 1.383 . S
C1017 C1016 1.439 . S
C1017 C1046 1.392 . S
N1018 Co1012 2.008 . S
N1018 C1019 1.376 . S
N1018 C1022 1.374 . S
C1019 N1018 1.376 . S
C1019 C1020 1.443 . S
C1019 C1046 1.389 . S
C1020 C1019 1.443 . S
C1020 C1021 1.340 . S
C1020 H1052 0.951 . S
C1021 C1020 1.340 . S
C1021 C1022 1.439 . S
C1021 H1053 0.950 . S
C1022 N1018 1.374 . S
C1022 C1021 1.439 . S
C1022 C1047 1.395 . S
N1023 Co1012 1.995 . S
N1023 C1024 1.376 . S
N1023 C1027 1.383 . S
C1024 N1023 1.376 . S
C1024 C1025 1.446 . S
C1024 C1047 1.391 . S
C1025 C1024 1.446 . S
C1025 C1026 1.339 . S
C1025 H1054 0.949 . S
C1026 C1025 1.339 . S
C1026 C1027 1.439 . S
C1026 H1055 0.950 . S
C1027 N1023 1.383 . S
C1027 C1026 1.439 . S
C1027 C1045 1.392 . S
N1028 Co1012 2.282 . S
N1028 C1031 1.332 . S
N1028 C1033 1.332 . S
C1029 C1030 1.386 . S
C1029 C1032 1.388 . S
C1030 C1029 1.386 . S
C1030 C1031 1.382 . S
C1030 H1056 0.950 . S
C1031 N1028 1.332 . S
C1031 C1030 1.382 . S
C1031 H1042 0.952 . S
C1032 C1029 1.388 . S
C1032 C1033 1.382 . S
C1032 H1057 0.950 . S
C1033 N1028 1.332 . S
C1033 C1032 1.382 . S
C1033 H1043 0.948 . S
N1034 Co1012 2.282 . S
N1034 C1038 1.332 . S
N1034 C1039 1.332 . S
C1035 C1036 1.388 . S
C1035 C1039 1.382 . S
C1035 H1058 0.950 . S
C1036 C1035 1.388 . S
C1036 C1037 1.386 . S
C1037 C1036 1.386 . S
C1037 C1038 1.382 . S
C1037 H1059 0.950 . S
C1038 N1034 1.332 . S
C1038 C1037 1.382 . S
C1038 H1040 0.952 . S
C1039 N1034 1.332 . S
C1039 C1035 1.382 . S
C1039 H1041 0.948 . S
H1040 C1038 0.952 . S
H1041 C1039 0.948 . S
H1042 C1031 0.952 . S
H1043 C1033 0.948 . S
C1044 C1010 1.395 . S
C1044 C1014 1.391 . S
C1045 C1007 1.389 . S
C1045 C1027 1.392 . S
C1046 C1017 1.392 . S
C1046 C1019 1.389 . S
C1047 C1022 1.395 . S
C1047 C1024 1.391 . S
H1048 C1008 0.951 . S
H1049 C1009 0.950 . S
H1050 C1015 0.949 . S
H1051 C1016 0.950 . S
H1052 C1020 0.951 . S
H1053 C1021 0.950 . S
H1054 C1025 0.949 . S
H1055 C1026 0.950 . S
H1056 C1030 0.950 . S
H1057 C1032 0.950 . S
H1058 C1035 0.950 . S
H1059 C1037 0.950 . S
C1060 C1061 1.443 . S
C1060 N1064 1.376 . S
C1060 C1098 1.389 . S
C1061 C1060 1.443 . S
C1061 C1062 1.340 . S
C1061 H1101 0.951 . S
C1062 C1061 1.340 . S
C1062 C1063 1.439 . S
C1062 H1102 0.950 . S
C1063 C1062 1.439 . S
C1063 N1064 1.374 . S
C1063 C1097 1.395 . S
N1064 C1060 1.376 . S
N1064 C1063 1.374 . S
N1064 Co1065 2.008 . S
Co1065 N1064 2.008 . S
Co1065 N1066 1.995 . S
Co1065 N1071 2.008 . S
Co1065 N1076 1.995 . S
Co1065 N1081 2.282 . S
Co1065 N1087 2.282 . S
N1066 Co1065 1.995 . S
N1066 C1067 1.376 . S
N1066 C1070 1.383 . S
C1067 N1066 1.376 . S
C1067 C1068 1.446 . S
C1067 C1097 1.391 . S
C1068 C1067 1.446 . S
C1068 C1069 1.339 . S
C1068 H1103 0.949 . S
C1069 C1068 1.339 . S
C1069 C1070 1.439 . S
C1069 H1104 0.950 . S
C1070 N1066 1.383 . S
C1070 C1069 1.439 . S
C1070 C1099 1.392 . S
N1071 Co1065 2.008 . S
N1071 C1072 1.376 . S
N1071 C1075 1.374 . S
C1072 N1071 1.376 . S
C1072 C1073 1.443 . S
C1072 C1099 1.389 . S
C1073 C1072 1.443 . S
C1073 C1074 1.340 . S
C1073 H1105 0.951 . S
C1074 C1073 1.340 . S
C1074 C1075 1.439 . S
C1074 H1106 0.950 . S
C1075 N1071 1.374 . S
C1075 C1074 1.439 . S
C1075 C1100 1.395 . S
N1076 Co1065 1.995 . S
N1076 C1077 1.376 . S
N1076 C1080 1.383 . S
C1077 N1076 1.376 . S
C1077 C1078 1.446 . S
C1077 C1100 1.391 . S
C1078 C1077 1.446 . S
C1078 C1079 1.339 . S
C1078 H1107 0.949 . S
C1079 C1078 1.339 . S
C1079 C1080 1.439 . S
C1079 H1108 0.950 . S
C1080 N1076 1.383 . S
C1080 C1079 1.439 . S
C1080 C1098 1.392 . S
N1081 Co1065 2.282 . S
N1081 C1084 1.332 . S
N1081 C1086 1.332 . S
C1082 C1083 1.386 . S
C1082 C1085 1.388 . S
C1083 C1082 1.386 . S
C1083 C1084 1.382 . S
C1083 H1109 0.950 . S
C1084 N1081 1.332 . S
C1084 C1083 1.382 . S
C1084 H1095 0.952 . S
C1085 C1082 1.388 . S
C1085 C1086 1.382 . S
C1085 H1110 0.950 . S
C1086 N1081 1.332 . S
C1086 C1085 1.382 . S
C1086 H1096 0.948 . S
N1087 Co1065 2.282 . S
N1087 C1091 1.332 . S
N1087 C1092 1.332 . S
C1088 C1089 1.388 . S
C1088 C1092 1.382 . S
C1088 H1111 0.950 . S
C1089 C1088 1.388 . S
C1089 C1090 1.386 . S
C1090 C1089 1.386 . S
C1090 C1091 1.382 . S
C1090 H1112 0.950 . S
C1091 N1087 1.332 . S
C1091 C1090 1.382 . S
C1091 H1093 0.952 . S
C1092 N1087 1.332 . S
C1092 C1088 1.382 . S
C1092 H1094 0.948 . S
H1093 C1091 0.952 . S
H1094 C1092 0.948 . S
H1095 C1084 0.952 . S
H1096 C1086 0.948 . S
C1097 C1063 1.395 . S
C1097 C1067 1.391 . S
C1098 C1060 1.389 . S
C1098 C1080 1.392 . S
C1099 C1070 1.392 . S
C1099 C1072 1.389 . S
C1100 C1075 1.395 . S
C1100 C1077 1.391 . S
H1101 C1061 0.951 . S
H1102 C1062 0.950 . S
H1103 C1068 0.949 . S
H1104 C1069 0.950 . S
H1105 C1073 0.951 . S
H1106 C1074 0.950 . S
H1107 C1078 0.949 . S
H1108 C1079 0.950 . S
H1109 C1083 0.950 . S
H1110 C1085 0.950 . S
H1111 C1088 0.950 . S
H1112 C1090 0.950 . S
C1113 C1114 1.443 . S
C1113 N1117 1.376 . S
C1113 C1151 1.389 . S
C1114 C1113 1.443 . S
C1114 C1115 1.340 . S
C1114 H1154 0.951 . S
C1115 C1114 1.340 . S
C1115 C1116 1.439 . S
C1115 H1155 0.950 . S
C1116 C1115 1.439 . S
C1116 N1117 1.374 . S
C1116 C1150 1.395 . S
N1117 C1113 1.376 . S
N1117 C1116 1.374 . S
N1117 Co1118 2.008 . S
Co1118 N1117 2.008 . S
Co1118 N1119 1.995 . S
Co1118 N1124 2.008 . S
Co1118 N1129 1.995 . S
Co1118 N1134 2.282 . S
Co1118 N1140 2.282 . S
N1119 Co1118 1.995 . S
N1119 C1120 1.376 . S
N1119 C1123 1.383 . S
C1120 N1119 1.376 . S
C1120 C1121 1.446 . S
C1120 C1150 1.391 . S
C1121 C1120 1.446 . S
C1121 C1122 1.339 . S
C1121 H1156 0.949 . S
C1122 C1121 1.339 . S
C1122 C1123 1.439 . S
C1122 H1157 0.950 . S
C1123 N1119 1.383 . S
C1123 C1122 1.439 . S
C1123 C1152 1.392 . S
N1124 Co1118 2.008 . S
N1124 C1125 1.376 . S
N1124 C1128 1.374 . S
C1125 N1124 1.376 . S
C1125 C1126 1.443 . S
C1125 C1152 1.389 . S
C1126 C1125 1.443 . S
C1126 C1127 1.340 . S
C1126 H1158 0.951 . S
C1127 C1126 1.340 . S
C1127 C1128 1.439 . S
C1127 H1159 0.950 . S
C1128 N1124 1.374 . S
C1128 C1127 1.439 . S
C1128 C1153 1.395 . S
N1129 Co1118 1.995 . S
N1129 C1130 1.376 . S
N1129 C1133 1.383 . S
C1130 N1129 1.376 . S
C1130 C1131 1.446 . S
C1130 C1153 1.391 . S
C1131 C1130 1.446 . S
C1131 C1132 1.339 . S
C1131 H1160 0.949 . S
C1132 C1131 1.339 . S
C1132 C1133 1.439 . S
C1132 H1161 0.950 . S
C1133 N1129 1.383 . S
C1133 C1132 1.439 . S
C1133 C1151 1.392 . S
N1134 Co1118 2.282 . S
N1134 C1137 1.332 . S
N1134 C1139 1.332 . S
C1135 C1136 1.386 . S
C1135 C1138 1.388 . S
C1136 C1135 1.386 . S
C1136 C1137 1.382 . S
C1136 H1162 0.950 . S
C1137 N1134 1.332 . S
C1137 C1136 1.382 . S
C1137 H1148 0.952 . S
C1138 C1135 1.388 . S
C1138 C1139 1.382 . S
C1138 H1163 0.950 1_455 S
C1139 N1134 1.332 . S
C1139 C1138 1.382 . S
C1139 H1149 0.948 . S
N1140 Co1118 2.282 . S
N1140 C1144 1.332 . S
N1140 C1145 1.332 . S
C1141 C1142 1.388 . S
C1141 C1145 1.382 . S
C1141 H1164 0.950 . S
C1142 C1141 1.388 . S
C1142 C1143 1.386 . S
C1143 C1142 1.386 . S
C1143 C1144 1.382 . S
C1143 H1165 0.950 . S
C1144 N1140 1.332 . S
C1144 C1143 1.382 . S
C1144 H1146 0.952 . S
C1145 N1140 1.332 . S
C1145 C1141 1.382 . S
C1145 H1147 0.948 . S
H1146 C1144 0.952 . S
H1147 C1145 0.948 . S
H1148 C1137 0.952 . S
H1149 C1139 0.948 . S
C1150 C1116 1.395 . S
C1150 C1120 1.391 . S
C1151 C1113 1.389 . S
C1151 C1133 1.392 . S
C1152 C1123 1.392 . S
C1152 C1125 1.389 . S
C1153 C1128 1.395 . S
C1153 C1130 1.391 . S
H1154 C1114 0.951 . S
H1155 C1115 0.950 . S
H1156 C1121 0.949 . S
H1157 C1122 0.950 . S
H1158 C1126 0.951 . S
H1159 C1127 0.950 . S
H1160 C1131 0.949 . S
H1161 C1132 0.950 . S
H1162 C1136 0.950 . S
H1163 C1138 0.950 1_655 S
H1164 C1141 0.950 . S
H1165 C1143 0.950 . S
C1166 C1167 1.443 . S
C1166 N1170 1.376 . S
C1166 C1204 1.389 . S
C1167 C1166 1.443 . S
C1167 C1168 1.340 . S
C1167 H1207 0.951 . S
C1168 C1167 1.340 . S
C1168 C1169 1.439 . S
C1168 H1208 0.950 . S
C1169 C1168 1.439 . S
C1169 N1170 1.374 . S
C1169 C1203 1.395 . S
N1170 C1166 1.376 . S
N1170 C1169 1.374 . S
N1170 Co1171 2.008 . S
Co1171 N1170 2.008 . S
Co1171 N1172 1.995 . S
Co1171 N1177 2.008 . S
Co1171 N1182 1.995 . S
Co1171 N1187 2.282 . S
Co1171 N1193 2.282 . S
N1172 Co1171 1.995 . S
N1172 C1173 1.376 . S
N1172 C1176 1.383 . S
C1173 N1172 1.376 . S
C1173 C1174 1.446 . S
C1173 C1203 1.391 . S
C1174 C1173 1.446 . S
C1174 C1175 1.339 . S
C1174 H1209 0.949 . S
C1175 C1174 1.339 . S
C1175 C1176 1.439 . S
C1175 H1210 0.950 . S
C1176 N1172 1.383 . S
C1176 C1175 1.439 . S
C1176 C1205 1.392 . S
N1177 Co1171 2.008 . S
N1177 C1178 1.376 . S
N1177 C1181 1.374 . S
C1178 N1177 1.376 . S
C1178 C1179 1.443 . S
C1178 C1205 1.389 . S
C1179 C1178 1.443 . S
C1179 C1180 1.340 . S
C1179 H1211 0.951 . S
C1180 C1179 1.340 . S
C1180 C1181 1.439 . S
C1180 H1212 0.950 . S
C1181 N1177 1.374 . S
C1181 C1180 1.439 . S
C1181 C1206 1.395 . S
N1182 Co1171 1.995 . S
N1182 C1183 1.376 . S
N1182 C1186 1.383 . S
C1183 N1182 1.376 . S
C1183 C1184 1.446 . S
C1183 C1206 1.391 . S
C1184 C1183 1.446 . S
C1184 C1185 1.339 . S
C1184 H1213 0.949 . S
C1185 C1184 1.339 . S
C1185 C1186 1.439 . S
C1185 H1214 0.950 . S
C1186 N1182 1.383 . S
C1186 C1185 1.439 . S
C1186 C1204 1.392 . S
N1187 Co1171 2.282 . S
N1187 C1190 1.332 . S
N1187 C1192 1.332 . S
C1188 C1189 1.386 . S
C1188 C1191 1.388 . S
C1189 C1188 1.386 . S
C1189 C1190 1.382 . S
C1189 H1215 0.950 . S
C1190 N1187 1.332 . S
C1190 C1189 1.382 . S
C1190 H1201 0.952 . S
C1191 C1188 1.388 . S
C1191 C1192 1.382 . S
C1191 H1216 0.950 . S
C1192 N1187 1.332 . S
C1192 C1191 1.382 . S
C1192 H1202 0.948 . S
N1193 Co1171 2.282 . S
N1193 C1197 1.332 . S
N1193 C1198 1.332 . S
C1194 C1195 1.388 . S
C1194 C1198 1.382 . S
C1194 H1217 0.950 . S
C1195 C1194 1.388 . S
C1195 C1196 1.386 . S
C1196 C1195 1.386 . S
C1196 C1197 1.382 . S
C1196 H1218 0.950 . S
C1197 N1193 1.332 . S
C1197 C1196 1.382 . S
C1197 H1199 0.952 . S
C1198 N1193 1.332 . S
C1198 C1194 1.382 . S
C1198 H1200 0.948 . S
H1199 C1197 0.952 . S
H1200 C1198 0.948 . S
H1201 C1190 0.952 . S
H1202 C1192 0.948 . S
C1203 C1169 1.395 . S
C1203 C1173 1.391 . S
C1204 C1166 1.389 . S
C1204 C1186 1.392 . S
C1205 C1176 1.392 . S
C1205 C1178 1.389 . S
C1206 C1181 1.395 . S
C1206 C1183 1.391 . S
H1207 C1167 0.951 . S
H1208 C1168 0.950 . S
H1209 C1174 0.949 . S
H1210 C1175 0.950 . S
H1211 C1179 0.951 . S
H1212 C1180 0.950 . S
H1213 C1184 0.949 . S
H1214 C1185 0.950 . S
H1215 C1189 0.950 . S
H1216 C1191 0.950 . S
H1217 C1194 0.950 . S
H1218 C1196 0.950 . S
C1219 C1220 1.443 . S
C1219 N1223 1.376 . S
C1219 C1257 1.389 . S
C1220 C1219 1.443 . S
C1220 C1221 1.340 . S
C1220 H1260 0.951 . S
C1221 C1220 1.340 . S
C1221 C1222 1.439 . S
C1221 H1261 0.950 . S
C1222 C1221 1.439 . S
C1222 N1223 1.374 . S
C1222 C1256 1.395 . S
N1223 C1219 1.376 . S
N1223 C1222 1.374 . S
N1223 Co1224 2.008 . S
Co1224 N1223 2.008 . S
Co1224 N1225 1.995 . S
Co1224 N1230 2.008 . S
Co1224 N1235 1.995 . S
Co1224 N1240 2.282 . S
Co1224 N1246 2.282 . S
N1225 Co1224 1.995 . S
N1225 C1226 1.376 . S
N1225 C1229 1.383 . S
C1226 N1225 1.376 . S
C1226 C1227 1.446 . S
C1226 C1256 1.391 . S
C1227 C1226 1.446 . S
C1227 C1228 1.339 . S
C1227 H1262 0.949 . S
C1228 C1227 1.339 . S
C1228 C1229 1.439 . S
C1228 H1263 0.950 . S
C1229 N1225 1.383 . S
C1229 C1228 1.439 . S
C1229 C1258 1.392 . S
N1230 Co1224 2.008 . S
N1230 C1231 1.376 . S
N1230 C1234 1.374 . S
C1231 N1230 1.376 . S
C1231 C1232 1.443 . S
C1231 C1258 1.389 . S
C1232 C1231 1.443 . S
C1232 C1233 1.340 . S
C1232 H1264 0.951 . S
C1233 C1232 1.340 . S
C1233 C1234 1.439 . S
C1233 H1265 0.950 . S
C1234 N1230 1.374 . S
C1234 C1233 1.439 . S
C1234 C1259 1.395 . S
N1235 Co1224 1.995 . S
N1235 C1236 1.376 . S
N1235 C1239 1.383 . S
C1236 N1235 1.376 . S
C1236 C1237 1.446 . S
C1236 C1259 1.391 . S
C1237 C1236 1.446 . S
C1237 C1238 1.339 . S
C1237 H1266 0.949 . S
C1238 C1237 1.339 . S
C1238 C1239 1.439 . S
C1238 H1267 0.950 . S
C1239 N1235 1.383 . S
C1239 C1238 1.439 . S
C1239 C1257 1.392 . S
N1240 Co1224 2.282 . S
N1240 C1243 1.332 . S
N1240 C1245 1.332 . S
C1241 C1242 1.386 . S
C1241 C1244 1.388 . S
C1242 C1241 1.386 . S
C1242 C1243 1.382 . S
C1242 H1268 0.950 . S
C1243 N1240 1.332 . S
C1243 C1242 1.382 . S
C1243 H1254 0.952 . S
C1244 C1241 1.388 . S
C1244 C1245 1.382 . S
C1244 H1269 0.950 . S
C1245 N1240 1.332 . S
C1245 C1244 1.382 . S
C1245 H1255 0.948 . S
N1246 Co1224 2.282 . S
N1246 C1250 1.332 . S
N1246 C1251 1.332 . S
C1247 C1248 1.388 . S
C1247 C1251 1.382 . S
C1247 H1270 0.950 . S
C1248 C1247 1.388 . S
C1248 C1249 1.386 . S
C1249 C1248 1.386 . S
C1249 C1250 1.382 . S
C1249 H1271 0.950 . S
C1250 N1246 1.332 . S
C1250 C1249 1.382 . S
C1250 H1252 0.952 . S
C1251 N1246 1.332 . S
C1251 C1247 1.382 . S
C1251 H1253 0.948 . S
H1252 C1250 0.952 . S
H1253 C1251 0.948 . S
H1254 C1243 0.952 . S
H1255 C1245 0.948 . S
C1256 C1222 1.395 . S
C1256 C1226 1.391 . S
C1257 C1219 1.389 . S
C1257 C1239 1.392 . S
C1258 C1229 1.392 . S
C1258 C1231 1.389 . S
C1259 C1234 1.395 . S
C1259 C1236 1.391 . S
H1260 C1220 0.951 . S
H1261 C1221 0.950 . S
H1262 C1227 0.949 . S
H1263 C1228 0.950 . S
H1264 C1232 0.951 . S
H1265 C1233 0.950 . S
H1266 C1237 0.949 . S
H1267 C1238 0.950 . S
H1268 C1242 0.950 . S
H1269 C1244 0.950 . S
H1270 C1247 0.950 . S
H1271 C1249 0.950 . S
C1272 C1273 1.387 . S
C1272 H1276 0.950 . S
C1272 C1281 1.390 . S
C1273 C1272 1.387 . S
C1273 C1275 1.387 . S
H1274 C1281 0.950 . S
C1275 C1273 1.387 . S
C1275 C1277 1.390 . S
C1275 H1279 0.950 . S
H1276 C1272 0.950 . S
C1277 C1275 1.390 . S
C1277 C1278 1.387 . S
C1277 H1280 0.950 . S
C1278 C1277 1.387 . S
C1278 C1281 1.387 . S
H1279 C1275 0.950 . S
H1280 C1277 0.950 . S
C1281 C1272 1.390 . S
C1281 H1274 0.950 . S
C1281 C1278 1.387 . S
C1282 C1283 1.387 . S
C1282 H1286 0.950 . S
C1282 C1291 1.390 . S
C1283 C1282 1.387 . S
C1283 C1285 1.387 . S
H1284 C1291 0.950 . S
C1285 C1283 1.387 . S
C1285 C1287 1.390 . S
C1285 H1289 0.950 . S
H1286 C1282 0.950 . S
C1287 C1285 1.390 . S
C1287 C1288 1.387 . S
C1287 H1290 0.950 . S
C1288 C1287 1.387 . S
C1288 C1291 1.387 . S
H1289 C1285 0.950 . S
H1290 C1287 0.950 . S
C1291 C1282 1.390 . S
C1291 H1284 0.950 . S
C1291 C1288 1.387 . S
C1292 C1293 1.387 . S
C1292 H1296 0.950 . S
C1292 C1301 1.390 . S
C1293 C1292 1.387 . S
C1293 C1295 1.387 . S
H1294 C1301 0.950 . S
C1295 C1293 1.387 . S
C1295 C1297 1.390 . S
C1295 H1299 0.950 . S
H1296 C1292 0.950 . S
C1297 C1295 1.390 . S
C1297 C1298 1.387 . S
C1297 H1300 0.950 . S
C1298 C1297 1.387 . S
C1298 C1301 1.387 . S
H1299 C1295 0.950 . S
H1300 C1297 0.950 . S
C1301 C1292 1.390 . S
C1301 H1294 0.950 . S
C1301 C1298 1.387 . S
C1302 C1303 1.387 . S
C1302 H1306 0.950 . S
C1302 C1311 1.390 . S
C1303 C1302 1.387 . S
C1303 C1305 1.387 . S
H1304 C1311 0.950 . S
C1305 C1303 1.387 . S
C1305 C1307 1.390 . S
C1305 H1309 0.950 . S
H1306 C1302 0.950 . S
C1307 C1305 1.390 . S
C1307 C1308 1.387 . S
C1307 H1310 0.950 . S
C1308 C1307 1.387 . S
C1308 C1311 1.387 . S
H1309 C1305 0.950 . S
H1310 C1307 0.950 . S
C1311 C1302 1.390 . S
C1311 H1304 0.950 . S
C1311 C1308 1.387 . S
C1312 C1313 1.387 . S
C1312 H1316 0.950 . S
C1312 C1321 1.390 . S
C1313 C1312 1.387 . S
C1313 C1315 1.387 . S
H1314 C1321 0.950 . S
C1315 C1313 1.387 . S
C1315 C1317 1.390 . S
C1315 H1319 0.950 . S
H1316 C1312 0.950 . S
C1317 C1315 1.390 . S
C1317 C1318 1.387 . S
C1317 H1320 0.950 . S
C1318 C1317 1.387 . S
C1318 C1321 1.387 . S
H1319 C1315 0.950 . S
H1320 C1317 0.950 . S
C1321 C1312 1.390 . S
C1321 H1314 0.950 . S
C1321 C1318 1.387 . S
C1322 C1323 1.387 . S
C1322 H1326 0.950 . S
C1322 C1331 1.390 . S
C1323 C1322 1.387 . S
C1323 C1325 1.387 . S
H1324 C1331 0.950 . S
C1325 C1323 1.387 . S
C1325 C1327 1.390 . S
C1325 H1329 0.950 . S
H1326 C1322 0.950 . S
C1327 C1325 1.390 . S
C1327 C1328 1.387 . S
C1327 H1330 0.950 . S
C1328 C1327 1.387 . S
C1328 C1331 1.387 . S
H1329 C1325 0.950 . S
H1330 C1327 0.950 . S
C1331 C1322 1.390 . S
C1331 H1324 0.950 . S
C1331 C1328 1.387 . S
C1332 C1333 1.387 . S
C1332 H1336 0.950 . S
C1332 C1341 1.390 . S
C1333 C1332 1.387 . S
C1333 C1335 1.387 . S
H1334 C1341 0.950 . S
C1335 C1333 1.387 . S
C1335 C1337 1.390 . S
C1335 H1339 0.950 . S
H1336 C1332 0.950 . S
C1337 C1335 1.390 . S
C1337 C1338 1.387 . S
C1337 H1340 0.950 . S
C1338 C1337 1.387 . S
C1338 C1341 1.387 . S
H1339 C1335 0.950 . S
H1340 C1337 0.950 . S
C1341 C1332 1.390 . S
C1341 H1334 0.950 . S
C1341 C1338 1.387 . S
C1342 C1343 1.387 . S
C1342 H1346 0.950 . S
C1342 C1351 1.390 . S
C1343 C1342 1.387 . S
C1343 C1345 1.387 . S
H1344 C1351 0.950 . S
C1345 C1343 1.387 . S
C1345 C1347 1.390 . S
C1345 H1349 0.950 . S
H1346 C1342 0.950 . S
C1347 C1345 1.390 . S
C1347 C1348 1.387 . S
C1347 H1350 0.950 . S
C1348 C1347 1.387 . S
C1348 C1351 1.387 . S
H1349 C1345 0.950 . S
H1350 C1347 0.950 . S
C1351 C1342 1.390 . S
C1351 H1344 0.950 . S
C1351 C1348 1.387 . S
C1352 C1353 1.387 . S
C1352 H1356 0.950 . S
C1352 C1361 1.390 . S
C1353 C1352 1.387 . S
C1353 C1355 1.387 . S
H1354 C1361 0.950 . S
C1355 C1353 1.387 . S
C1355 C1357 1.390 . S
C1355 H1359 0.950 . S
H1356 C1352 0.950 . S
C1357 C1355 1.390 . S
C1357 C1358 1.387 . S
C1357 H1360 0.950 . S
C1358 C1357 1.387 . S
C1358 C1361 1.387 . S
H1359 C1355 0.950 . S
H1360 C1357 0.950 . S
C1361 C1352 1.390 . S
C1361 H1354 0.950 . S
C1361 C1358 1.387 . S
C1362 C1363 1.387 . S
C1362 H1366 0.950 . S
C1362 C1371 1.390 . S
C1363 C1362 1.387 . S
C1363 C1365 1.387 . S
H1364 C1371 0.950 . S
C1365 C1363 1.387 . S
C1365 C1367 1.390 . S
C1365 H1369 0.950 . S
H1366 C1362 0.950 . S
C1367 C1365 1.390 . S
C1367 C1368 1.387 . S
C1367 H1370 0.950 . S
C1368 C1367 1.387 . S
C1368 C1371 1.387 . S
H1369 C1365 0.950 . S
H1370 C1367 0.950 . S
C1371 C1362 1.390 . S
C1371 H1364 0.950 . S
C1371 C1368 1.387 . S
C1372 C1373 1.387 . S
C1372 H1376 0.950 . S
C1372 C1381 1.390 . S
C1373 C1372 1.387 . S
C1373 C1375 1.387 . S
H1374 C1381 0.950 . S
C1375 C1373 1.387 . S
C1375 C1377 1.390 . S
C1375 H1379 0.950 . S
H1376 C1372 0.950 . S
C1377 C1375 1.390 . S
C1377 C1378 1.387 . S
C1377 H1380 0.950 . S
C1378 C1377 1.387 . S
C1378 C1381 1.387 . S
H1379 C1375 0.950 . S
H1380 C1377 0.950 . S
C1381 C1372 1.390 . S
C1381 H1374 0.950 . S
C1381 C1378 1.387 . S
C1382 C1383 1.387 . S
C1382 H1386 0.950 . S
C1382 C1391 1.390 . S
C1383 C1382 1.387 . S
C1383 C1385 1.387 . S
H1384 C1391 0.950 . S
C1385 C1383 1.387 . S
C1385 C1387 1.390 . S
C1385 H1389 0.950 . S
H1386 C1382 0.950 . S
C1387 C1385 1.390 . S
C1387 C1388 1.387 . S
C1387 H1390 0.950 . S
C1388 C1387 1.387 . S
C1388 C1391 1.387 . S
H1389 C1385 0.950 . S
H1390 C1387 0.950 . S
C1391 C1382 1.390 . S
C1391 H1384 0.950 . S
C1391 C1388 1.387 . S
C1392 C1393 1.387 . S
C1392 H1396 0.950 . S
C1392 C1401 1.390 . S
C1393 C1392 1.387 . S
C1393 C1395 1.387 . S
H1394 C1401 0.950 . S
C1395 C1393 1.387 . S
C1395 C1397 1.390 . S
C1395 H1399 0.950 . S
H1396 C1392 0.950 . S
C1397 C1395 1.390 . S
C1397 C1398 1.387 . S
C1397 H1400 0.950 . S
C1398 C1397 1.387 . S
C1398 C1401 1.387 . S
H1399 C1395 0.950 . S
H1400 C1397 0.950 . S
C1401 C1392 1.390 . S
C1401 H1394 0.950 . S
C1401 C1398 1.387 . S
C1402 C1403 1.387 . S
C1402 H1406 0.950 . S
C1402 C1411 1.390 . S
C1403 C1402 1.387 . S
C1403 C1405 1.387 . S
H1404 C1411 0.950 . S
C1405 C1403 1.387 . S
C1405 C1407 1.390 . S
C1405 H1409 0.950 . S
H1406 C1402 0.950 . S
C1407 C1405 1.390 . S
C1407 C1408 1.387 . S
C1407 H1410 0.950 . S
C1408 C1407 1.387 . S
C1408 C1411 1.387 . S
H1409 C1405 0.950 . S
H1410 C1407 0.950 . S
C1411 C1402 1.390 . S
C1411 H1404 0.950 . S
C1411 C1408 1.387 . S
C1412 C1413 1.387 . S
C1412 H1416 0.950 . S
C1412 C1421 1.390 . S
C1413 C1412 1.387 . S
C1413 C1415 1.387 . S
H1414 C1421 0.950 . S
C1415 C1413 1.387 . S
C1415 C1417 1.390 . S
C1415 H1419 0.950 . S
H1416 C1412 0.950 . S
C1417 C1415 1.390 . S
C1417 C1418 1.387 . S
C1417 H1420 0.950 . S
C1418 C1417 1.387 . S
C1418 C1421 1.387 . S
H1419 C1415 0.950 . S
H1420 C1417 0.950 . S
C1421 C1412 1.390 . S
C1421 H1414 0.950 . S
C1421 C1418 1.387 . S
C1422 C1423 1.387 . S
C1422 H1426 0.950 . S
C1422 C1431 1.390 . S
C1423 C1422 1.387 . S
C1423 C1425 1.387 . S
H1424 C1431 0.950 . S
C1425 C1423 1.387 . S
C1425 C1427 1.390 . S
C1425 H1429 0.950 . S
H1426 C1422 0.950 . S
C1427 C1425 1.390 . S
C1427 C1428 1.387 . S
C1427 H1430 0.950 . S
C1428 C1427 1.387 . S
C1428 C1431 1.387 . S
H1429 C1425 0.950 . S
H1430 C1427 0.950 . S
C1431 C1422 1.390 . S
C1431 H1424 0.950 . S
C1431 C1428 1.387 . S
C1432 C1433 1.387 . S
C1432 H1436 0.950 . S
C1432 C1441 1.390 . S
C1433 C1432 1.387 . S
C1433 C1435 1.387 . S
H1434 C1441 0.950 . S
C1435 C1433 1.387 . S
C1435 C1437 1.390 . S
C1435 H1439 0.950 . S
H1436 C1432 0.950 . S
C1437 C1435 1.390 . S
C1437 C1438 1.387 . S
C1437 H1440 0.950 . S
C1438 C1437 1.387 . S
C1438 C1441 1.387 . S
H1439 C1435 0.950 . S
H1440 C1437 0.950 . S
C1441 C1432 1.390 . S
C1441 H1434 0.950 . S
C1441 C1438 1.387 . S
C1442 C1443 1.387 . S
C1442 H1446 0.950 . S
C1442 C1451 1.390 . S
C1443 C1442 1.387 . S
C1443 C1445 1.387 . S
H1444 C1451 0.950 . S
C1445 C1443 1.387 . S
C1445 C1447 1.390 . S
C1445 H1449 0.950 . S
H1446 C1442 0.950 . S
C1447 C1445 1.390 . S
C1447 C1448 1.387 . S
C1447 H1450 0.950 . S
C1448 C1447 1.387 . S
C1448 C1451 1.387 . S
H1449 C1445 0.950 . S
H1450 C1447 0.950 . S
C1451 C1442 1.390 . S
C1451 H1444 0.950 . S
C1451 C1448 1.387 . S
C1452 C1453 1.387 . S
C1452 H1456 0.950 . S
C1452 C1461 1.390 . S
C1453 C1452 1.387 . S
C1453 C1455 1.387 . S
H1454 C1461 0.950 . S
C1455 C1453 1.387 . S
C1455 C1457 1.390 . S
C1455 H1459 0.950 . S
H1456 C1452 0.950 . S
C1457 C1455 1.390 . S
C1457 C1458 1.387 . S
C1457 H1460 0.950 . S
C1458 C1457 1.387 . S
C1458 C1461 1.387 . S
H1459 C1455 0.950 . S
H1460 C1457 0.950 . S
C1461 C1452 1.390 . S
C1461 H1454 0.950 . S
C1461 C1458 1.387 . S
C1462 C1463 1.387 . S
C1462 H1466 0.950 . S
C1462 C1471 1.390 . S
C1463 C1462 1.387 . S
C1463 C1465 1.387 . S
H1464 C1471 0.950 . S
C1465 C1463 1.387 . S
C1465 C1467 1.390 . S
C1465 H1469 0.950 . S
H1466 C1462 0.950 . S
C1467 C1465 1.390 . S
C1467 C1468 1.387 . S
C1467 H1470 0.950 . S
C1468 C1467 1.387 . S
C1468 C1471 1.387 . S
H1469 C1465 0.950 . S
H1470 C1467 0.950 . S
C1471 C1462 1.390 . S
C1471 H1464 0.950 . S
C1471 C1468 1.387 . S
C1472 C1473 1.387 . S
C1472 H1476 0.950 . S
C1472 C1481 1.390 . S
C1473 C1472 1.387 . S
C1473 C1475 1.387 . S
H1474 C1481 0.950 . S
C1475 C1473 1.387 . S
C1475 C1477 1.390 . S
C1475 H1479 0.950 . S
H1476 C1472 0.950 . S
C1477 C1475 1.390 . S
C1477 C1478 1.387 . S
C1477 H1480 0.950 . S
C1478 C1477 1.387 . S
C1478 C1481 1.387 . S
H1479 C1475 0.950 . S
H1480 C1477 0.950 . S
C1481 C1472 1.390 . S
C1481 H1474 0.950 . S
C1481 C1478 1.387 . S
C1482 C1483 1.387 . S
C1482 H1486 0.950 . S
C1482 C1491 1.390 . S
C1483 C1482 1.387 . S
C1483 C1485 1.387 . S
H1484 C1491 0.950 . S
C1485 C1483 1.387 . S
C1485 C1487 1.390 . S
C1485 H1489 0.950 . S
H1486 C1482 0.950 . S
C1487 C1485 1.390 . S
C1487 C1488 1.387 . S
C1487 H1490 0.950 . S
C1488 C1487 1.387 . S
C1488 C1491 1.387 . S
H1489 C1485 0.950 . S
H1490 C1487 0.950 . S
C1491 C1482 1.390 . S
C1491 H1484 0.950 . S
C1491 C1488 1.387 . S
C1492 C1493 1.387 . S
C1492 H1496 0.950 . S
C1492 C1501 1.390 . S
C1493 C1492 1.387 . S
C1493 C1495 1.387 . S
H1494 C1501 0.950 . S
C1495 C1493 1.387 . S
C1495 C1497 1.390 . S
C1495 H1499 0.950 . S
H1496 C1492 0.950 . S
C1497 C1495 1.390 . S
C1497 C1498 1.387 . S
C1497 H1500 0.950 . S
C1498 C1497 1.387 . S
C1498 C1501 1.387 . S
H1499 C1495 0.950 . S
H1500 C1497 0.950 . S
C1501 C1492 1.390 . S
C1501 H1494 0.950 . S
C1501 C1498 1.387 . S
C1502 C1503 1.387 . S
C1502 H1506 0.950 . S
C1502 C1511 1.390 . S
C1503 C1502 1.387 . S
C1503 C1505 1.387 . S
H1504 C1511 0.950 . S
C1505 C1503 1.387 . S
C1505 C1507 1.390 . S
C1505 H1509 0.950 . S
H1506 C1502 0.950 . S
C1507 C1505 1.390 . S
C1507 C1508 1.387 . S
C1507 H1510 0.950 . S
C1508 C1507 1.387 . S
C1508 C1511 1.387 . S
H1509 C1505 0.950 . S
H1510 C1507 0.950 . S
C1511 C1502 1.390 . S
C1511 H1504 0.950 . S
C1511 C1508 1.387 . S
C1512 C1513 1.387 . S
C1512 H1516 0.950 . S
C1512 C1521 1.390 . S
C1513 C1512 1.387 . S
C1513 C1515 1.387 . S
H1514 C1521 0.950 . S
C1515 C1513 1.387 . S
C1515 C1517 1.390 . S
C1515 H1519 0.950 . S
H1516 C1512 0.950 . S
C1517 C1515 1.390 . S
C1517 C1518 1.387 . S
C1517 H1520 0.950 . S
C1518 C1517 1.387 . S
C1518 C1521 1.387 . S
H1519 C1515 0.950 . S
H1520 C1517 0.950 . S
C1521 C1512 1.390 . S
C1521 H1514 0.950 . S
C1521 C1518 1.387 . S
C1522 C1523 1.387 . S
C1522 H1526 0.950 . S
C1522 C1531 1.390 . S
C1523 C1522 1.387 . S
C1523 C1525 1.387 . S
H1524 C1531 0.950 . S
C1525 C1523 1.387 . S
C1525 C1527 1.390 . S
C1525 H1529 0.950 . S
H1526 C1522 0.950 . S
C1527 C1525 1.390 . S
C1527 C1528 1.387 . S
C1527 H1530 0.950 . S
C1528 C1527 1.387 . S
C1528 C1531 1.387 . S
H1529 C1525 0.950 . S
H1530 C1527 0.950 . S
C1531 C1522 1.390 . S
C1531 H1524 0.950 . S
C1531 C1528 1.387 . S
C1532 C1533 1.387 1_545 S
C1532 H1536 0.950 . S
C1532 C1541 1.390 . S
C1533 C1532 1.387 1_565 S
C1533 C1535 1.387 . S
H1534 C1541 0.950 . S
C1535 C1533 1.387 . S
C1535 C1537 1.390 1_565 S
C1535 H1539 0.950 . S
H1536 C1532 0.950 . S
C1537 C1535 1.390 1_545 S
C1537 C1538 1.387 . S
C1537 H1540 0.950 . S
C1538 C1537 1.387 . S
C1538 C1541 1.387 . S
H1539 C1535 0.950 . S
H1540 C1537 0.950 . S
C1541 C1532 1.390 . S
C1541 H1534 0.950 . S
C1541 C1538 1.387 . S
C1542 C1543 1.387 . S
C1542 H1546 0.950 . S
C1542 C1551 1.390 . S
C1543 C1542 1.387 . S
C1543 C1545 1.387 . S
H1544 C1551 0.950 . S
C1545 C1543 1.387 . S
C1545 C1547 1.390 . S
C1545 H1549 0.950 1_655 S
H1546 C1542 0.950 . S
C1547 C1545 1.390 . S
C1547 C1548 1.387 . S
C1547 H1550 0.950 . S
C1548 C1547 1.387 . S
C1548 C1551 1.387 . S
H1549 C1545 0.950 1_455 S
H1550 C1547 0.950 . S
C1551 C1542 1.390 . S
C1551 H1544 0.950 . S
C1551 C1548 1.387 . S
C1552 C1553 1.387 1_545 S
C1552 H1556 0.950 . S
C1552 C1561 1.390 . S
C1553 C1552 1.387 1_565 S
C1553 C1555 1.387 . S
H1554 C1561 0.950 . S
C1555 C1553 1.387 . S
C1555 C1557 1.390 1_565 S
C1555 H1559 0.950 . S
H1556 C1552 0.950 . S
C1557 C1555 1.390 1_545 S
C1557 C1558 1.387 . S
C1557 H1560 0.950 . S
C1558 C1557 1.387 . S
C1558 C1561 1.387 . S
H1559 C1555 0.950 . S
H1560 C1557 0.950 . S
C1561 C1552 1.390 . S
C1561 H1554 0.950 . S
C1561 C1558 1.387 . S
C1562 C1563 1.387 . S
C1562 H1566 0.950 1_655 S
C1562 C1571 1.390 1_655 S
C1563 C1562 1.387 . S
C1563 C1565 1.387 . S
H1564 C1571 0.950 . S
C1565 C1563 1.387 . S
C1565 C1567 1.390 . S
C1565 H1569 0.950 . S
H1566 C1562 0.950 1_455 S
C1567 C1565 1.390 . S
C1567 C1568 1.387 . S
C1567 H1570 0.950 . S
C1568 C1567 1.387 . S
C1568 C1571 1.387 1_655 S
H1569 C1565 0.950 . S
H1570 C1567 0.950 . S
C1571 C1562 1.390 1_455 S
C1571 H1564 0.950 . S
C1571 C1568 1.387 1_455 S
C1572 C1573 1.387 . S
C1572 H1576 0.950 . S
C1572 C1581 1.390 . S
C1573 C1572 1.387 . S
C1573 C1575 1.387 . S
H1574 C1581 0.950 . S
C1575 C1573 1.387 . S
C1575 C1577 1.390 . S
C1575 H1579 0.950 . S
H1576 C1572 0.950 . S
C1577 C1575 1.390 . S
C1577 C1578 1.387 . S
C1577 H1580 0.950 . S
C1578 C1577 1.387 . S
C1578 C1581 1.387 . S
H1579 C1575 0.950 . S
H1580 C1577 0.950 . S
C1581 C1572 1.390 . S
C1581 H1574 0.950 . S
C1581 C1578 1.387 . S
C1582 C1583 1.387 . S
C1582 H1586 0.950 . S
C1582 C1591 1.390 . S
C1583 C1582 1.387 . S
C1583 C1585 1.387 . S
H1584 C1591 0.950 . S
C1585 C1583 1.387 . S
C1585 C1587 1.390 . S
C1585 H1589 0.950 . S
H1586 C1582 0.950 . S
C1587 C1585 1.390 . S
C1587 C1588 1.387 . S
C1587 H1590 0.950 . S
C1588 C1587 1.387 . S
C1588 C1591 1.387 . S
H1589 C1585 0.950 . S
H1590 C1587 0.950 . S
C1591 C1582 1.390 . S
C1591 H1584 0.950 . S
C1591 C1588 1.387 . S
C1592 C1593 1.387 . S
C1592 H1596 0.950 . S
C1592 C1601 1.390 . S
C1593 C1592 1.387 . S
C1593 C1595 1.387 . S
H1594 C1601 0.950 . S
C1595 C1593 1.387 . S
C1595 C1597 1.390 . S
C1595 H1599 0.950 . S
H1596 C1592 0.950 . S
C1597 C1595 1.390 . S
C1597 C1598 1.387 . S
C1597 H1600 0.950 . S
C1598 C1597 1.387 . S
C1598 C1601 1.387 . S
H1599 C1595 0.950 . S
H1600 C1597 0.950 . S
C1601 C1592 1.390 . S
C1601 H1594 0.950 . S
C1601 C1598 1.387 . S
C1602 C1603 1.368 1_556 S
C1602 H1606 0.962 . S
C1602 C1611 1.398 . S
C1603 C1602 1.368 1_554 S
C1603 C1605 1.387 . S
H1604 C1611 0.950 . S
C1605 C1603 1.387 . S
C1605 C1607 1.390 . S
C1605 H1609 0.950 . S
H1606 C1602 0.962 . S
C1607 C1605 1.390 . S
C1607 C1608 1.387 . S
C1607 H1610 0.950 . S
C1608 C1607 1.387 . S
C1608 C1611 1.387 1_554 S
H1609 C1605 0.950 . S
H1610 C1607 0.950 . S
C1611 C1602 1.398 . S
C1611 H1604 0.950 . S
C1611 C1608 1.387 1_556 S
C1612 C1613 1.387 . S
C1612 H1616 0.950 . S
C1612 C1621 1.390 . S
C1613 C1612 1.387 . S
C1613 C1615 1.387 . S
H1614 C1621 0.950 . S
C1615 C1613 1.387 . S
C1615 C1617 1.390 . S
C1615 H1619 0.950 . S
H1616 C1612 0.950 . S
C1617 C1615 1.390 . S
C1617 C1618 1.387 . S
C1617 H1620 0.950 . S
C1618 C1617 1.387 . S
C1618 C1621 1.387 . S
H1619 C1615 0.950 . S
H1620 C1617 0.950 . S
C1621 C1612 1.390 . S
C1621 H1614 0.950 . S
C1621 C1618 1.387 . S
C1622 C1623 1.387 . S
C1622 H1626 0.950 1_554 S
C1622 C1631 1.390 . S
C1623 C1622 1.387 . S
C1623 C1625 1.387 . S
H1624 C1631 0.950 . S
C1625 C1623 1.387 . S
C1625 C1627 1.390 . S
C1625 H1629 0.950 . S
H1626 C1622 0.950 1_556 S
C1627 C1625 1.390 . S
C1627 C1628 1.387 . S
C1627 H1630 0.950 . S
C1628 C1627 1.387 . S
C1628 C1631 1.387 . S
H1629 C1625 0.950 . S
H1630 C1627 0.950 . S
C1631 C1622 1.390 . S
C1631 H1624 0.950 . S
C1631 C1628 1.387 . S
C1632 C1633 1.387 . S
C1632 H1636 0.950 . S
C1632 C1641 1.390 . S
C1633 C1632 1.387 . S
C1633 C1635 1.387 . S
H1634 C1641 0.950 . S
C1635 C1633 1.387 . S
C1635 C1637 1.390 . S
C1635 H1639 0.950 . S
H1636 C1632 0.950 . S
C1637 C1635 1.390 . S
C1637 C1638 1.387 . S
C1637 H1640 0.950 . S
C1638 C1637 1.387 . S
C1638 C1641 1.387 . S
H1639 C1635 0.950 . S
H1640 C1637 0.950 . S
C1641 C1632 1.390 . S
C1641 H1634 0.950 . S
C1641 C1638 1.387 . S
C1642 C1643 1.387 . S
C1642 H1646 0.950 . S
C1642 C1651 1.390 . S
C1643 C1642 1.387 . S
C1643 C1645 1.387 . S
H1644 C1651 0.950 . S
C1645 C1643 1.387 . S
C1645 C1647 1.390 . S
C1645 H1649 0.950 . S
H1646 C1642 0.950 . S
C1647 C1645 1.390 . S
C1647 C1648 1.387 . S
C1647 H1650 0.950 . S
C1648 C1647 1.387 . S
C1648 C1651 1.387 . S
H1649 C1645 0.950 . S
H1650 C1647 0.950 . S
C1651 C1642 1.390 . S
C1651 H1644 0.950 . S
C1651 C1648 1.387 . S
C1652 C1653 1.387 1_565 S
C1652 H1656 0.950 . S
C1652 C1661 1.390 . S
C1653 C1652 1.387 1_545 S
C1653 C1655 1.387 . S
H1654 C1661 0.950 . S
C1655 C1653 1.387 . S
C1655 C1657 1.390 . S
C1655 H1659 0.950 . S
H1656 C1652 0.950 . S
C1657 C1655 1.390 . S
C1657 C1658 1.387 1_545 S
C1657 H1660 0.950 . S
C1658 C1657 1.387 1_565 S
C1658 C1661 1.387 . S
H1659 C1655 0.950 . S
H1660 C1657 0.950 . S
C1661 C1652 1.390 . S
C1661 H1654 0.950 . S
C1661 C1658 1.387 . S
C1662 C1663 1.387 . S
C1662 H1666 0.950 . S
C1662 C1671 1.390 1_455 S
C1663 C1662 1.387 . S
C1663 C1665 1.387 . S
H1664 C1671 0.950 . S
C1665 C1663 1.387 . S
C1665 C1667 1.390 . S
C1665 H1669 0.950 . S
H1666 C1662 0.950 . S
C1667 C1665 1.390 . S
C1667 C1668 1.387 1_455 S
C1667 H1670 0.950 . S
C1668 C1667 1.387 1_655 S
C1668 C1671 1.387 . S
H1669 C1665 0.950 . S
H1670 C1667 0.950 . S
C1671 C1662 1.390 1_655 S
C1671 H1664 0.950 . S
C1671 C1668 1.387 . S
C1672 C1673 1.387 . S
C1672 H1676 0.950 . S
C1672 C1681 1.390 1_545 S
C1673 C1672 1.387 . S
C1673 C1675 1.387 . S
H1674 C1681 0.950 . S
C1675 C1673 1.387 . S
C1675 C1677 1.390 . S
C1675 H1679 0.950 . S
H1676 C1672 0.950 . S
C1677 C1675 1.390 . S
C1677 C1678 1.387 1_545 S
C1677 H1680 0.950 . S
C1678 C1677 1.387 1_565 S
C1678 C1681 1.387 . S
H1679 C1675 0.950 . S
H1680 C1677 0.950 . S
C1681 C1672 1.390 1_565 S
C1681 H1674 0.950 . S
C1681 C1678 1.387 . S
C1682 C1683 1.387 . S
C1682 H1686 0.950 . S
C1682 C1691 1.390 1_455 S
C1683 C1682 1.387 . S
C1683 C1685 1.387 . S
H1684 C1691 0.950 . S
C1685 C1683 1.387 . S
C1685 C1687 1.390 1_455 S
C1685 H1689 0.950 . S
H1686 C1682 0.950 . S
C1687 C1685 1.390 1_655 S
C1687 C1688 1.387 . S
C1687 H1690 0.950 . S
C1688 C1687 1.387 . S
C1688 C1691 1.387 . S
H1689 C1685 0.950 . S
H1690 C1687 0.950 . S
C1691 C1682 1.390 1_655 S
C1691 H1684 0.950 . S
C1691 C1688 1.387 . S
C1692 C1693 1.387 . S
C1692 H1696 0.950 . S
C1692 C1701 1.390 . S
C1693 C1692 1.387 . S
C1693 C1695 1.387 . S
H1694 C1701 0.950 . S
C1695 C1693 1.387 . S
C1695 C1697 1.390 . S
C1695 H1699 0.950 . S
H1696 C1692 0.950 . S
C1697 C1695 1.390 . S
C1697 C1698 1.387 . S
C1697 H1700 0.950 . S
C1698 C1697 1.387 . S
C1698 C1701 1.387 . S
H1699 C1695 0.950 . S
H1700 C1697 0.950 . S
C1701 C1692 1.390 . S
C1701 H1694 0.950 . S
C1701 C1698 1.387 . S
C1702 C1703 1.387 . S
C1702 H1706 0.950 . S
C1702 C1711 1.390 . S
C1703 C1702 1.387 . S
C1703 C1705 1.387 . S
H1704 C1711 0.950 . S
C1705 C1703 1.387 . S
C1705 C1707 1.390 . S
C1705 H1709 0.950 . S
H1706 C1702 0.950 . S
C1707 C1705 1.390 . S
C1707 C1708 1.387 . S
C1707 H1710 0.950 . S
C1708 C1707 1.387 . S
C1708 C1711 1.387 . S
H1709 C1705 0.950 . S
H1710 C1707 0.950 . S
C1711 C1702 1.390 . S
C1711 H1704 0.950 . S
C1711 C1708 1.387 . S
C1712 C1713 1.387 . S
C1712 H1716 0.950 . S
C1712 C1721 1.390 . S
C1713 C1712 1.387 . S
C1713 C1715 1.387 . S
H1714 C1721 0.950 . S
C1715 C1713 1.387 . S
C1715 C1717 1.390 . S
C1715 H1719 0.950 . S
H1716 C1712 0.950 . S
C1717 C1715 1.390 . S
C1717 C1718 1.387 . S
C1717 H1720 0.950 . S
C1718 C1717 1.387 . S
C1718 C1721 1.387 . S
H1719 C1715 0.950 . S
H1720 C1717 0.950 . S
C1721 C1712 1.390 . S
C1721 H1714 0.950 . S
C1721 C1718 1.387 . S
C1722 C1723 1.387 1_556 S
C1722 H1726 0.950 . S
C1722 C1731 1.390 . S
C1723 C1722 1.387 1_554 S
C1723 C1725 1.387 . S
H1724 C1731 0.950 . S
C1725 C1723 1.387 . S
C1725 C1727 1.390 . S
C1725 H1729 0.950 . S
H1726 C1722 0.950 . S
C1727 C1725 1.390 . S
C1727 C1728 1.387 1_554 S
C1727 H1730 0.950 . S
C1728 C1727 1.387 1_556 S
C1728 C1731 1.387 . S
H1729 C1725 0.950 . S
H1730 C1727 0.950 . S
C1731 C1722 1.390 . S
C1731 H1724 0.950 . S
C1731 C1728 1.387 . S
C1732 C1733 1.387 . S
C1732 H1736 0.950 . S
C1732 C1741 1.390 . S
C1733 C1732 1.387 . S
C1733 C1735 1.387 . S
H1734 C1741 0.950 . S
C1735 C1733 1.387 . S
C1735 C1737 1.390 . S
C1735 H1739 0.950 . S
H1736 C1732 0.950 . S
C1737 C1735 1.390 . S
C1737 C1738 1.387 . S
C1737 H1740 0.950 . S
C1738 C1737 1.387 . S
C1738 C1741 1.387 . S
H1739 C1735 0.950 . S
H1740 C1737 0.950 . S
C1741 C1732 1.390 . S
C1741 H1734 0.950 . S
C1741 C1738 1.387 . S
C1742 C1743 1.387 1_556 S
C1742 H1746 0.950 . S
C1742 C1751 1.390 . S
C1743 C1742 1.387 1_554 S
C1743 C1745 1.387 . S
H1744 C1751 0.950 . S
C1745 C1743 1.387 . S
C1745 C1747 1.390 . S
C1745 H1749 0.950 . S
H1746 C1742 0.950 . S
C1747 C1745 1.390 . S
C1747 C1748 1.387 1_554 S
C1747 H1750 0.950 . S
C1748 C1747 1.387 1_556 S
C1748 C1751 1.387 . S
H1749 C1745 0.950 . S
H1750 C1747 0.950 . S
C1751 C1742 1.390 . S
C1751 H1744 0.950 . S
C1751 C1748 1.387 . S
C1273 C241 1.408 . S
C1278 C29 1.409 . S
C1283 C92 1.510 . S
C1288 C304 1.532 . S
C1293 C347 1.525 . S
C1298 C135 1.526 . S
C1303 C410 1.583 . S
C1308 C198 1.561 . S
C1313 C771 1.348 . S
C1318 C463 1.376 . S
C1323 C824 1.341 . S
C1328 C506 1.324 . S
C1333 C569 1.484 . S
C1338 C675 1.510 . S
C1343 C718 1.316 . S
C1348 C612 1.333 . S
C1353 C877 1.268 . S
C1358 C1142 1.293 . S
C1363 C940 1.618 . S
C1368 C1036 1.591 . S
C1373 C983 1.483 . S
C1378 C1089 1.489 . S
C1383 C1195 1.400 . S
C1388 C1248 1.406 . S
C1393 C188 1.736 . S
C1398 C294 1.722 . S
C1403 C39 2.049 . S
C1408 C357 2.047 . S
C1413 C400 1.724 . S
C1418 C82 1.743 . S
C1423 C145 2.095 . S
C1428 C251 2.096 . S
C1433 C1258 2.144 . S
C1438 C993 2.156 . S
C1443 C1046 2.358 . S
C1448 C1152 2.333 . S
C1453 C1099 2.163 . S
C1458 C1205 2.173 . S
C1463 C930 2.008 . S
C1468 C887 2.027 . S
C1473 C622 2.129 . S
C1478 C516 2.137 . S
C1483 C834 2.208 . S
C1488 C728 2.210 . S
C1493 C665 1.989 . S
C1498 C781 1.996 . S
C1503 C559 1.652 . S
C1508 C453 1.629 . S
C1513 C1188 1.650 . S
C1518 C22 1.658 . S
C1523 C870 1.608 . S
C1528 C91 1.583 . S
C1533 C1241 1.741 . S
C1538 C128 1.738 . S
C1543 C1135 1.562 1_655 S
C1548 C197 1.544 . S
C1553 C976 1.642 . S
C1558 C234 1.646 . S
C1563 C303 1.623 . S
C1568 C1029 1.634 1_655 S
C1573 C1082 1.778 . S
C1578 C340 1.772 . S
C1583 C939 1.533 . S
C1588 C409 1.547 . S
C1593 C711 1.580 . S
C1598 C462 1.559 . S
C1603 C764 1.642 . S
C1608 C499 1.644 1_554 S
C1613 C817 1.403 . S
C1618 C568 1.384 . S
C1623 C605 1.414 1_554 S
C1628 C674 1.406 . S
C1633 C287 1.785 . S
C1638 C552 1.803 . S
C1643 C356 2.050 . S
C1648 C621 2.050 . S
C1653 C446 1.847 . S
C1658 C393 1.853 . S
C1663 C250 2.007 . S
C1668 C515 2.013 . S
C1673 C780 1.817 . S
C1678 C181 1.814 . S
C1683 C38 1.985 . S
C1688 C833 1.986 . S
C1693 C658 1.760 . S
C1698 C75 1.772 . S
C1703 C144 2.054 . S
C1708 C727 2.063 . S
C1713 C923 2.095 . S
C1718 C1257 2.101 . S
C1723 C1151 2.127 . S
C1728 C992 2.132 . S
C1733 C1204 2.153 . S
C1738 C1045 2.161 . S
C1743 C886 2.134 . S
C1748 C1098 2.125 . S
