# Generated by pormake.
# Topology xfz, (5)-cn, num edge types: 1
# Building blocks:
#     Node 0, Type 0, BuildingBlock: XOMCOT_clean_sbu_1, # of connection points: 5
#     Node 1, Type 0, BuildingBlock: XOMCOT_clean_sbu_1, # of connection points: 5
#     Node 2, Type 0, BuildingBlock: XOMCOT_clean_sbu_1, # of connection points: 5
#     Node 3, Type 0, BuildingBlock: XOMCOT_clean_sbu_1, # of connection points: 5
#     Node 4, Type 0, BuildingBlock: XOMCOT_clean_sbu_1, # of connection points: 5
#     Node 5, Type 0, BuildingBlock: XOMCOT_clean_sbu_1, # of connection points: 5
#     Node 6, Type 0, BuildingBlock: XOMCOT_clean_sbu_1, # of connection points: 5
#     Node 7, Type 0, BuildingBlock: XOMCOT_clean_sbu_1, # of connection points: 5
#     Node 8, Type 0, BuildingBlock: XOMCOT_clean_sbu_1, # of connection points: 5
#     Node 9, Type 0, BuildingBlock: XOMCOT_clean_sbu_1, # of connection points: 5
#     Node 10, Type 0, BuildingBlock: XOMCOT_clean_sbu_1, # of connection points: 5
#     Node 11, Type 0, BuildingBlock: XOMCOT_clean_sbu_1, # of connection points: 5
#     Node 12, Type 0, BuildingBlock: XOMCOT_clean_sbu_1, # of connection points: 5
#     Node 13, Type 0, BuildingBlock: XOMCOT_clean_sbu_1, # of connection points: 5
#     Node 14, Type 0, BuildingBlock: XOMCOT_clean_sbu_1, # of connection points: 5
#     Node 15, Type 0, BuildingBlock: XOMCOT_clean_sbu_1, # of connection points: 5
#     Edge 16, Type (0, 0), BuildingBlock: UVAHIK_clean_linker_0, # of connection points: 2
#     Edge 17, Type (0, 0), BuildingBlock: UVAHIK_clean_linker_0, # of connection points: 2
#     Edge 18, Type (0, 0), BuildingBlock: UVAHIK_clean_linker_0, # of connection points: 2
#     Edge 19, Type (0, 0), BuildingBlock: UVAHIK_clean_linker_0, # of connection points: 2
#     Edge 20, Type (0, 0), BuildingBlock: UVAHIK_clean_linker_0, # of connection points: 2
#     Edge 21, Type (0, 0), BuildingBlock: UVAHIK_clean_linker_0, # of connection points: 2
#     Edge 22, Type (0, 0), BuildingBlock: UVAHIK_clean_linker_0, # of connection points: 2
#     Edge 23, Type (0, 0), BuildingBlock: UVAHIK_clean_linker_0, # of connection points: 2
#     Edge 24, Type (0, 0), BuildingBlock: UVAHIK_clean_linker_0, # of connection points: 2
#     Edge 25, Type (0, 0), BuildingBlock: UVAHIK_clean_linker_0, # of connection points: 2
#     Edge 26, Type (0, 0), BuildingBlock: UVAHIK_clean_linker_0, # of connection points: 2
#     Edge 27, Type (0, 0), BuildingBlock: UVAHIK_clean_linker_0, # of connection points: 2
#     Edge 28, Type (0, 0), BuildingBlock: UVAHIK_clean_linker_0, # of connection points: 2
#     Edge 29, Type (0, 0), BuildingBlock: UVAHIK_clean_linker_0, # of connection points: 2
#     Edge 30, Type (0, 0), BuildingBlock: UVAHIK_clean_linker_0, # of connection points: 2
#     Edge 31, Type (0, 0), BuildingBlock: UVAHIK_clean_linker_0, # of connection points: 2
#     Edge 32, Type (0, 0), BuildingBlock: UVAHIK_clean_linker_0, # of connection points: 2
#     Edge 33, Type (0, 0), BuildingBlock: UVAHIK_clean_linker_0, # of connection points: 2
#     Edge 34, Type (0, 0), BuildingBlock: UVAHIK_clean_linker_0, # of connection points: 2
#     Edge 35, Type (0, 0), BuildingBlock: UVAHIK_clean_linker_0, # of connection points: 2
#     Edge 36, Type (0, 0), BuildingBlock: UVAHIK_clean_linker_0, # of connection points: 2
#     Edge 37, Type (0, 0), BuildingBlock: UVAHIK_clean_linker_0, # of connection points: 2
#     Edge 38, Type (0, 0), BuildingBlock: UVAHIK_clean_linker_0, # of connection points: 2
#     Edge 39, Type (0, 0), BuildingBlock: UVAHIK_clean_linker_0, # of connection points: 2
#     Edge 40, Type (0, 0), BuildingBlock: UVAHIK_clean_linker_0, # of connection points: 2
#     Edge 41, Type (0, 0), BuildingBlock: UVAHIK_clean_linker_0, # of connection points: 2
#     Edge 42, Type (0, 0), BuildingBlock: UVAHIK_clean_linker_0, # of connection points: 2
#     Edge 43, Type (0, 0), BuildingBlock: UVAHIK_clean_linker_0, # of connection points: 2
#     Edge 44, Type (0, 0), BuildingBlock: UVAHIK_clean_linker_0, # of connection points: 2
#     Edge 45, Type (0, 0), BuildingBlock: UVAHIK_clean_linker_0, # of connection points: 2
#     Edge 46, Type (0, 0), BuildingBlock: UVAHIK_clean_linker_0, # of connection points: 2
#     Edge 47, Type (0, 0), BuildingBlock: UVAHIK_clean_linker_0, # of connection points: 2
#     Edge 48, Type (0, 0), BuildingBlock: UVAHIK_clean_linker_0, # of connection points: 2
#     Edge 49, Type (0, 0), BuildingBlock: UVAHIK_clean_linker_0, # of connection points: 2
#     Edge 50, Type (0, 0), BuildingBlock: UVAHIK_clean_linker_0, # of connection points: 2
#     Edge 51, Type (0, 0), BuildingBlock: UVAHIK_clean_linker_0, # of connection points: 2
#     Edge 52, Type (0, 0), BuildingBlock: UVAHIK_clean_linker_0, # of connection points: 2
#     Edge 53, Type (0, 0), BuildingBlock: UVAHIK_clean_linker_0, # of connection points: 2
#     Edge 54, Type (0, 0), BuildingBlock: UVAHIK_clean_linker_0, # of connection points: 2
#     Edge 55, Type (0, 0), BuildingBlock: UVAHIK_clean_linker_0, # of connection points: 2
# Relax obj value: 0.573
# Max RMSD: 0.322
# Mean RMSD: 0.322
data_MOF--net-xfz--node1-XOMCOT_clean_sbu_1--edge1-UVAHIK_clean_linker_0
_symmetry_space_group_name_H-M    P1
_symmetry_Int_Tables_number       1
_symmetry_cell_setting            triclinic
loop_
_symmetry_equiv_pos_as_xyz
'x, y, z'
_cell_length_a     48.098972
_cell_length_b     48.098911
_cell_length_c     73.972315
_cell_angle_alpha  89.983524
_cell_angle_beta   89.981717
_cell_angle_gamma 89.967569
loop_
_atom_site_label
_atom_site_type_symbol
_atom_site_fract_x
_atom_site_fract_y
_atom_site_fract_z
_atom_type_partial_charge
C0 C 0.22428 0.46698 0.31349 0.0
C1 C 0.22286 0.45061 0.29833 0.0
N2 N 0.20278 0.4315 0.30089 0.0
N3 N 0.20501 0.4584 0.32549 0.0
C4 C 0.1923 0.43664 0.3175 0.0
H5 H 0.23884 0.48372 0.3158 0.0
Co6 Co 0.20068 0.47294 0.34847 0.0
C7 C 0.14459 0.45584 0.35977 0.0
O8 O 0.15492 0.44569 0.37484 0.0
N9 N 0.19688 0.48794 0.37155 0.0
C10 C 0.18263 0.51338 0.39484 0.0
C11 C 0.17938 0.50846 0.37669 0.0
C12 C 0.21048 0.48068 0.3868 0.0
N13 N 0.20212 0.4958 0.40116 0.0
O14 O 0.20801 0.43668 0.35842 0.0
H15 H 0.16474 0.51882 0.36787 0.0
H16 H 0.22612 0.46455 0.38744 0.0
O17 O 0.16091 0.46574 0.34781 0.0
C18 C 0.23353 0.43004 0.3568 0.0
O19 O 0.25091 0.4484 0.35007 0.0
N20 N 0.19546 0.50818 0.33829 0.0
C21 C 0.19456 0.5589 0.32028 0.0
C22 C 0.17186 0.54078 0.31923 0.0
C23 C 0.17288 0.51527 0.32809 0.0
C24 C 0.21742 0.52591 0.33991 0.0
C25 C 0.21754 0.5514 0.33084 0.0
H26 H 0.15596 0.50094 0.326 0.0
H27 H 0.23539 0.51967 0.34772 0.0
H28 H 0.1758 0.42479 0.32379 0.0
H29 H 0.23604 0.45224 0.28652 0.0
H30 H 0.17089 0.52804 0.40291 0.0
H31 H 0.15409 0.54563 0.31079 0.0
H32 H 0.23556 0.56483 0.33173 0.0
C33 C 0.44571 0.7728 0.67163 0.0
C34 C 0.42898 0.77343 0.68665 0.0
N35 N 0.4124 0.79593 0.68547 0.0
N36 N 0.43989 0.79494 0.66113 0.0
C37 C 0.41935 0.80859 0.66981 0.0
H38 H 0.46114 0.75717 0.66848 0.0
Co39 Co 0.4572 0.80181 0.63934 0.0
C40 C 0.44085 0.85838 0.62907 0.0
O41 O 0.43165 0.84856 0.61361 0.0
N42 N 0.47518 0.80813 0.61731 0.0
C43 C 0.50346 0.82518 0.59627 0.0
C44 C 0.49603 0.82634 0.61418 0.0
C45 C 0.47028 0.79622 0.6011 0.0
N46 N 0.48711 0.80631 0.5881 0.0
O47 O 0.42245 0.79504 0.62729 0.0
H48 H 0.50492 0.84008 0.6242 0.0
H49 H 0.45465 0.78054 0.59872 0.0
O50 O 0.44961 0.84155 0.64113 0.0
C51 C 0.41872 0.76898 0.62537 0.0
O52 O 0.43875 0.75212 0.6305 0.0
N53 N 0.4909 0.80615 0.65156 0.0
C54 C 0.54038 0.80625 0.67088 0.0
C55 C 0.52173 0.82846 0.67241 0.0
C56 C 0.49678 0.82782 0.66286 0.0
C57 C 0.50896 0.78447 0.64979 0.0
C58 C 0.53387 0.78398 0.65949 0.0
H59 H 0.48205 0.84438 0.66504 0.0
H60 H 0.50361 0.76719 0.64111 0.0
H61 H 0.40996 0.82758 0.66487 0.0
H62 H 0.42887 0.75838 0.69753 0.0
H63 H 0.51897 0.83789 0.58962 0.0
H64 H 0.52595 0.84567 0.68146 0.0
H65 H 0.54777 0.76636 0.65824 0.0
C66 C 0.77498 0.56074 0.31956 0.0
C67 C 0.77636 0.57952 0.30559 0.0
N68 N 0.80062 0.59336 0.3069 0.0
N69 N 0.79835 0.5626 0.3295 0.0
C70 C 0.81354 0.58274 0.32158 0.0
H71 H 0.75805 0.54659 0.32236 0.0
Co72 Co 0.80487 0.54176 0.3499 0.0
C73 C 0.8619 0.55479 0.36077 0.0
O74 O 0.85208 0.56282 0.3765 0.0
N75 N 0.81074 0.52027 0.37055 0.0
C76 C 0.82703 0.4886 0.38972 0.0
C77 C 0.82896 0.49906 0.37248 0.0
C78 C 0.79797 0.52223 0.38672 0.0
N79 N 0.8076 0.50335 0.39862 0.0
O80 O 0.80032 0.57475 0.36406 0.0
H81 H 0.84309 0.49194 0.36209 0.0
H82 H 0.78194 0.53718 0.38986 0.0
O83 O 0.84501 0.54766 0.34829 0.0
C84 C 0.77506 0.58037 0.36764 0.0
O85 O 0.75571 0.56273 0.36257 0.0
N86 N 0.80752 0.50997 0.33562 0.0
C87 C 0.80872 0.4615 0.31528 0.0
C88 C 0.82918 0.48191 0.31295 0.0
C89 C 0.828 0.50624 0.32308 0.0
C90 C 0.78691 0.49078 0.33767 0.0
C91 C 0.78709 0.46624 0.32757 0.0
H92 H 0.84341 0.52211 0.32067 0.0
H93 H 0.77041 0.49451 0.34731 0.0
H94 H 0.83383 0.58915 0.32631 0.0
H95 H 0.76065 0.58281 0.29533 0.0
H96 H 0.83957 0.47211 0.39546 0.0
H97 H 0.84574 0.47924 0.30317 0.0
H98 H 0.7708 0.451 0.32954 0.0
C99 C 0.5462 0.21816 0.67818 0.0
C100 C 0.56604 0.21645 0.6915 0.0
N101 N 0.58419 0.19625 0.68696 0.0
N102 N 0.55169 0.19894 0.66542 0.0
C103 C 0.57489 0.18591 0.67111 0.0
H104 H 0.52942 0.2331 0.67748 0.0
Co105 Co 0.53379 0.19584 0.64337 0.0
C106 C 0.54613 0.13901 0.63116 0.0
O107 O 0.55598 0.14922 0.61598 0.0
N108 N 0.51581 0.19337 0.62117 0.0
C109 C 0.48811 0.18084 0.59858 0.0
C110 C 0.49464 0.17642 0.61645 0.0
C111 C 0.52168 0.20792 0.60607 0.0
N112 N 0.50529 0.20056 0.5921 0.0
O113 O 0.56906 0.20089 0.63153 0.0
H114 H 0.48499 0.16138 0.62534 0.0
H115 H 0.53787 0.22345 0.60525 0.0
O116 O 0.53812 0.15554 0.64361 0.0
C117 C 0.5772 0.22599 0.63291 0.0
O118 O 0.56038 0.24431 0.64027 0.0
N119 N 0.49979 0.19266 0.6554 0.0
C120 C 0.45139 0.19356 0.67582 0.0
C121 C 0.47154 0.17306 0.67876 0.0
C122 C 0.49564 0.17292 0.66837 0.0
C123 C 0.48034 0.21277 0.6523 0.0
C124 C 0.45561 0.21333 0.66222 0.0
H125 H 0.51151 0.15771 0.67138 0.0
H126 H 0.48432 0.22875 0.64234 0.0
H127 H 0.58505 0.1696 0.6635 0.0
H128 H 0.56753 0.22976 0.70326 0.0
H129 H 0.47272 0.16964 0.59079 0.0
H130 H 0.46888 0.15757 0.68926 0.0
H131 H 0.44047 0.22958 0.65978 0.0
C132 C 0.23428 0.56614 0.66265 0.0
C133 C 0.23256 0.588 0.67456 0.0
N134 N 0.20591 0.59672 0.67518 0.0
N135 N 0.20884 0.56096 0.65587 0.0
C136 C 0.19201 0.57993 0.66363 0.0
H137 H 0.25295 0.55504 0.65884 0.0
Co138 Co 0.20145 0.53559 0.63767 0.0
C139 C 0.14357 0.51931 0.65079 0.0
O140 O 0.15224 0.49608 0.65813 0.0
N141 N 0.1947 0.51074 0.61849 0.0
C142 C 0.18046 0.47638 0.60053 0.0
C143 C 0.17853 0.48778 0.61754 0.0
C144 C 0.20628 0.51262 0.60191 0.0
N145 N 0.19785 0.49221 0.59071 0.0
O146 O 0.19643 0.56679 0.62181 0.0
H147 H 0.16643 0.4793 0.62845 0.0
H148 H 0.22098 0.52846 0.59805 0.0
O149 O 0.16067 0.53581 0.64287 0.0
C150 C 0.21954 0.57656 0.61629 0.0
O151 O 0.24246 0.56286 0.62003 0.0
N152 N 0.20906 0.50574 0.65388 0.0
C153 C 0.22185 0.46225 0.67753 0.0
C154 C 0.20791 0.48599 0.6837 0.0
C155 C 0.20212 0.5076 0.67179 0.0
C156 C 0.22494 0.48392 0.64805 0.0
C157 C 0.23097 0.4616 0.65954 0.0
H158 H 0.19038 0.5251 0.67683 0.0
H159 H 0.23283 0.48349 0.63438 0.0
H160 H 0.17003 0.58137 0.66076 0.0
H161 H 0.24981 0.59707 0.68184 0.0
H162 H 0.16953 0.45818 0.59568 0.0
H163 H 0.20028 0.48741 0.69745 0.0
H164 H 0.24253 0.44398 0.65437 0.0
C165 C 0.58234 0.78063 0.32675 0.0
C166 C 0.60219 0.78163 0.31345 0.0
N167 N 0.61383 0.80713 0.31358 0.0
N168 N 0.58134 0.80536 0.33522 0.0
C169 C 0.60085 0.82108 0.32704 0.0
H170 H 0.56889 0.76324 0.3298 0.0
Co171 Co 0.55642 0.81261 0.35356 0.0
C172 C 0.56834 0.86927 0.36547 0.0
O173 O 0.57382 0.859 0.38154 0.0
N174 N 0.53086 0.81906 0.37217 0.0
C175 C 0.49609 0.83613 0.38865 0.0
C176 C 0.50981 0.83771 0.37236 0.0
C177 C 0.52937 0.80637 0.3884 0.0
N178 N 0.50862 0.81648 0.39872 0.0
O179 O 0.58614 0.8074 0.37042 0.0
H180 H 0.50506 0.8519 0.36144 0.0
H181 H 0.54324 0.79005 0.39273 0.0
O182 O 0.5631 0.85271 0.35241 0.0
C183 C 0.59007 0.78195 0.37439 0.0
O184 O 0.57217 0.76341 0.36849 0.0
N185 N 0.52817 0.81567 0.33644 0.0
C186 C 0.48953 0.81323 0.30861 0.0
C187 C 0.51086 0.83301 0.30829 0.0
C188 C 0.53 0.83394 0.32237 0.0
C189 C 0.50749 0.79631 0.33704 0.0
C190 C 0.48756 0.79502 0.32333 0.0
H191 H 0.54696 0.84856 0.3215 0.0
H192 H 0.50687 0.78144 0.348 0.0
H193 H 0.60508 0.84243 0.33071 0.0
H194 H 0.6067 0.7652 0.3039 0.0
H195 H 0.47891 0.84906 0.39299 0.0
H196 H 0.51288 0.84748 0.29714 0.0
H197 H 0.47136 0.77941 0.32391 0.0
C198 C 0.76677 0.44178 0.66837 0.0
C199 C 0.76859 0.4244 0.68305 0.0
N200 N 0.7947 0.41427 0.68386 0.0
N201 N 0.79158 0.44264 0.65997 0.0
C202 C 0.80821 0.42567 0.66964 0.0
H203 H 0.74851 0.45304 0.664 0.0
Co204 Co 0.79779 0.46288 0.63925 0.0
C205 C 0.85566 0.45162 0.62884 0.0
O206 O 0.84691 0.44425 0.61271 0.0
N207 N 0.80322 0.48381 0.61828 0.0
C208 C 0.81901 0.51479 0.59844 0.0
C209 C 0.82038 0.50581 0.61607 0.0
C210 C 0.79152 0.48004 0.60191 0.0
N211 N 0.80094 0.49836 0.58959 0.0
O212 O 0.79423 0.42914 0.62563 0.0
H213 H 0.83368 0.51428 0.62648 0.0
H214 H 0.7766 0.46398 0.59887 0.0
O215 O 0.83799 0.45787 0.64106 0.0
C216 C 0.76906 0.42304 0.62207 0.0
O217 O 0.74955 0.44109 0.62622 0.0
N218 N 0.79932 0.49516 0.65311 0.0
C219 C 0.79598 0.54213 0.67477 0.0
C220 C 0.81937 0.52486 0.6755 0.0
C221 C 0.82046 0.50115 0.66478 0.0
C222 C 0.77637 0.51173 0.6522 0.0
C223 C 0.77415 0.53539 0.66307 0.0
H224 H 0.83802 0.48742 0.66632 0.0
H225 H 0.75951 0.5062 0.64321 0.0
H226 H 0.82985 0.42208 0.66644 0.0
H227 H 0.75183 0.41944 0.69226 0.0
H228 H 0.83122 0.53127 0.59243 0.0
H229 H 0.83628 0.52919 0.68476 0.0
H230 H 0.75566 0.54821 0.66238 0.0
C231 C 0.4557 0.23112 0.32104 0.0
C232 C 0.43463 0.22844 0.3086 0.0
N233 N 0.41907 0.20624 0.31324 0.0
N234 N 0.45351 0.21059 0.33333 0.0
C235 C 0.431 0.19584 0.32832 0.0
H236 H 0.47141 0.2472 0.32128 0.0
Co237 Co 0.47509 0.20696 0.35373 0.0
C238 C 0.46437 0.15029 0.36684 0.0
O239 O 0.45737 0.16067 0.38263 0.0
N240 N 0.49721 0.20381 0.37443 0.0
C241 C 0.52974 0.19017 0.39387 0.0
C242 C 0.51944 0.18696 0.37668 0.0
C243 C 0.49447 0.21705 0.39041 0.0
N244 N 0.51387 0.20902 0.40248 0.0
O245 O 0.44215 0.21221 0.36796 0.0
H246 H 0.52728 0.17267 0.3666 0.0
H247 H 0.47843 0.23209 0.39334 0.0
O248 O 0.47016 0.1667 0.35382 0.0
C249 C 0.43619 0.23779 0.37016 0.0
O250 O 0.45408 0.25659 0.36459 0.0
N251 N 0.50668 0.20366 0.33919 0.0
C252 C 0.55354 0.20284 0.31727 0.0
C253 C 0.53466 0.18073 0.31698 0.0
C254 C 0.51104 0.18174 0.32782 0.0
C255 C 0.52467 0.22556 0.33951 0.0
C256 C 0.54832 0.22566 0.32851 0.0
H257 H 0.4961 0.16513 0.32669 0.0
H258 H 0.52045 0.24311 0.34823 0.0
H259 H 0.42306 0.17834 0.33593 0.0
H260 H 0.43123 0.24167 0.29697 0.0
H261 H 0.5468 0.17868 0.39983 0.0
H262 H 0.53777 0.16315 0.30805 0.0
H263 H 0.56239 0.24323 0.32881 0.0
C264 C 0.74154 0.93762 0.81696 0.0
C265 C 0.74076 0.91762 0.80368 0.0
N266 N 0.71512 0.90643 0.80358 0.0
N267 N 0.71629 0.93938 0.82481 0.0
C268 C 0.70075 0.91978 0.8166 0.0
H269 H 0.75909 0.95064 0.82038 0.0
Co270 Co 0.70684 0.96406 0.84304 0.0
C271 C 0.64812 0.97623 0.82946 0.0
O272 O 0.65554 0.99899 0.82103 0.0
N273 N 0.69754 0.98837 0.86212 0.0
C274 C 0.67932 0.02214 0.87905 0.0
C275 C 0.68105 0.01119 0.86192 0.0
C276 C 0.70552 0.98604 0.87955 0.0
N277 N 0.69462 0.00609 0.8901 0.0
O278 O 0.704 0.93259 0.85885 0.0
H279 H 0.67105 0.01969 0.85011 0.0
H280 H 0.71911 0.97 0.88461 0.0
O281 O 0.66623 0.96127 0.83774 0.0
C282 C 0.72817 0.92613 0.86454 0.0
O283 O 0.74899 0.9429 0.86083 0.0
N284 N 0.713 0.99447 0.82701 0.0
C285 C 0.72622 0.03824 0.80379 0.0
C286 C 0.7133 0.01428 0.79718 0.0
C287 C 0.70713 0.99256 0.80894 0.0
C288 C 0.72796 0.01666 0.83325 0.0
C289 C 0.73395 0.03924 0.82201 0.0
H290 H 0.69641 0.97466 0.80356 0.0
H291 H 0.73523 0.01713 0.84707 0.0
H292 H 0.67904 0.91608 0.81961 0.0
H293 H 0.75753 0.91202 0.79462 0.0
H294 H 0.6672 0.04004 0.88314 0.0
H295 H 0.70697 0.01276 0.78316 0.0
H296 H 0.74455 0.05725 0.82746 0.0
C297 C 0.95548 0.27241 0.17412 0.0
C298 C 0.93709 0.2746 0.18826 0.0
N299 N 0.91997 0.2962 0.18493 0.0
N300 N 0.95006 0.29262 0.16201 0.0
C301 C 0.92831 0.30676 0.16891 0.0
H302 H 0.97156 0.25686 0.1726 0.0
Co303 Co 0.96743 0.29647 0.13991 0.0
C304 C 0.9534 0.35301 0.12777 0.0
O305 O 0.94463 0.34287 0.1123 0.0
N306 N 0.98527 0.29986 0.11762 0.0
C307 C 0.01399 0.31352 0.09583 0.0
C308 C 0.00719 0.3164 0.11375 0.0
C309 C 0.97905 0.28726 0.10182 0.0
N310 N 0.99619 0.29528 0.08837 0.0
O311 O 0.93222 0.29025 0.12832 0.0
H312 H 0.01719 0.33026 0.12323 0.0
H313 H 0.9621 0.27273 0.1001 0.0
O314 O 0.96141 0.33648 0.1402 0.0
C315 C 0.92548 0.26468 0.12926 0.0
O316 O 0.94378 0.24695 0.1357 0.0
N317 N 1.00143 0.30066 0.15183 0.0
C318 C 0.05144 0.30206 0.17056 0.0
C319 C 0.03273 0.32427 0.17172 0.0
C320 C 0.00757 0.32298 0.16251 0.0
C321 C 0.01937 0.27877 0.15057 0.0
C322 C 0.04458 0.27895 0.15998 0.0
H323 H 0.99289 0.33967 0.16443 0.0
H324 H 0.0138 0.26093 0.14244 0.0
H325 H 0.91835 0.32396 0.16205 0.0
H326 H 0.93661 0.26151 0.20015 0.0
H327 H 0.03002 0.32484 0.08866 0.0
H328 H 0.03714 0.3421 0.18021 0.0
H329 H 0.0585 0.2613 0.15904 0.0
C330 C 0.27081 0.0487 0.825 0.0
C331 C 0.26881 0.06574 0.81015 0.0
N332 N 0.2928 0.08002 0.80854 0.0
N333 N 0.29595 0.05212 0.83267 0.0
C334 C 0.3089 0.07133 0.82243 0.0
H335 H 0.25482 0.03498 0.8301 0.0
Co336 Co 0.30661 0.03486 0.85377 0.0
C337 C 0.36452 0.05182 0.8598 0.0
O338 O 0.35714 0.06163 0.87567 0.0
N339 N 0.31659 0.01694 0.87515 0.0
C340 C 0.33832 0.99073 0.89542 0.0
C341 C 0.33757 0.99868 0.87759 0.0
C342 C 0.30453 0.01923 0.89152 0.0
N343 N 0.31749 0.00375 0.90423 0.0
O344 O 0.30228 0.06979 0.86604 0.0
H345 H 0.35178 0.99196 0.86713 0.0
H346 H 0.28648 0.03195 0.89403 0.0
O347 O 0.34591 0.04242 0.84912 0.0
C348 C 0.27727 0.07496 0.8706 0.0
O349 O 0.25833 0.05567 0.86803 0.0
N350 N 0.30876 1.00114 0.84143 0.0
C351 C 0.30568 0.95177 0.82214 0.0
C352 C 0.32758 0.97033 0.81918 0.0
C353 C 0.32852 0.9952 0.82875 0.0
C354 C 0.28738 0.98318 0.8446 0.0
C355 C 0.28529 0.9583 0.83494 0.0
H356 H 0.34471 0.00985 0.82547 0.0
H357 H 0.27155 0.9886 0.85438 0.0
H358 H 0.32971 0.07872 0.82514 0.0
H359 H 0.25083 0.06777 0.80147 0.0
H360 H 0.35352 0.97696 0.9014 0.0
H361 H 0.34328 0.96607 0.80904 0.0
H362 H 0.26792 0.94444 0.83733 0.0
C363 C 0.05657 0.72579 0.16131 0.0
C364 C 0.07365 0.72832 0.17611 0.0
N365 N 0.08982 0.7055 0.17698 0.0
N366 N 0.06174 0.70134 0.15309 0.0
C367 C 0.08232 0.68952 0.1628 0.0
H368 H 0.04093 0.74052 0.15698 0.0
Co369 Co 0.04257 0.68882 0.13309 0.0
C370 C 0.06114 0.63177 0.12739 0.0
O371 O 0.07106 0.63982 0.11169 0.0
N372 N 0.02285 0.67658 0.11279 0.0
C373 C 0.99452 0.65239 0.09499 0.0
C374 C 0.0035 0.6562 0.11244 0.0
C375 C 0.02515 0.68487 0.09544 0.0
N376 N 0.00832 0.67037 0.08434 0.0
O377 O 0.07586 0.69371 0.11928 0.0
H378 H 0.99682 0.64437 0.12409 0.0
H379 H 0.03898 0.70111 0.09091 0.0
O380 O 0.05149 0.64996 0.1383 0.0
C381 C 0.07876 0.71859 0.1137 0.0
O382 O 0.05797 0.73603 0.11588 0.0
N383 N 0.01044 0.6864 0.1471 0.0
C384 C 0.96551 0.69147 0.17034 0.0
C385 C 0.98739 0.6734 0.17447 0.0
C386 C 0.00973 0.6711 0.16263 0.0
C387 C 0.98909 0.70384 0.14274 0.0
C388 C 0.96605 0.70642 0.15413 0.0
H389 H 0.02712 0.65818 0.16648 0.0
H390 H 0.99041 0.71645 0.13065 0.0
H391 H 0.09095 0.66921 0.15993 0.0
H392 H 0.07394 0.74542 0.18562 0.0
H393 H 0.97973 0.63696 0.09042 0.0
H394 H 0.98752 0.66172 0.187 0.0
H395 H 0.94946 0.72072 0.15071 0.0
C396 C 0.71778 0.04589 0.16519 0.0
C397 C 0.71883 0.06269 0.18019 0.0
N398 N 0.69736 0.08065 0.17936 0.0
N399 N 0.69554 0.05301 0.15513 0.0
C400 C 0.6836 0.07439 0.16399 0.0
H401 H 0.73238 0.02963 0.16173 0.0
Co402 Co 0.6864 0.03711 0.13326 0.0
C403 C 0.62906 0.05546 0.12666 0.0
O404 O 0.63761 0.06745 0.1117 0.0
N405 N 0.67768 0.02078 0.11111 0.0
C406 C 0.65819 0.99433 0.08997 0.0
C407 C 0.65828 1.00102 0.10804 0.0
C408 C 0.68906 0.02573 0.09476 0.0
N409 N 0.6775 0.01004 0.08169 0.0
O410 O 0.69149 0.07277 0.12214 0.0
H411 H 0.64482 0.99224 0.11827 0.0
H412 H 0.70563 0.04042 0.09236 0.0
O413 O 0.64678 0.04401 0.13713 0.0
C414 C 0.71692 0.07737 0.11837 0.0
O415 O 0.73504 0.05727 0.12088 0.0
N416 N 0.68372 1.00255 0.14459 0.0
C417 C 0.68727 0.95309 0.16386 0.0
C418 C 0.66601 0.9722 0.16749 0.0
C419 C 0.66487 0.99708 0.15791 0.0
C420 C 0.70425 0.98398 0.14061 0.0
C421 C 0.70654 0.95905 0.1502 0.0
H422 H 0.64974 0.01242 0.16192 0.0
H423 H 0.71953 0.98909 0.1304 0.0
H424 H 0.66512 0.08503 0.15932 0.0
H425 H 0.73439 0.06202 0.19075 0.0
H426 H 0.64454 0.97962 0.08337 0.0
H427 H 0.6513 0.96863 0.17834 0.0
H428 H 0.72344 0.94487 0.14725 0.0
C429 C 0.06917 0.27782 0.82306 0.0
C430 C 0.08783 0.27702 0.80901 0.0
N431 N 0.10138 0.30156 0.80843 0.0
N432 N 0.07086 0.30271 0.83128 0.0
C433 C 0.0907 0.31673 0.82218 0.0
H434 H 0.05534 0.26126 0.82717 0.0
Co435 Co 0.05038 0.312 0.85149 0.0
C436 C 0.06528 0.37015 0.85895 0.0
O437 O 0.07533 0.36228 0.87466 0.0
N438 N 0.02945 0.32064 0.87203 0.0
C439 C 0.99805 0.33915 0.89055 0.0
C440 C 0.00963 0.34044 0.87357 0.0
C441 C 0.0295 0.30764 0.88819 0.0
N442 N 0.01068 0.31852 0.8997 0.0
O443 O 0.08363 0.30784 0.86559 0.0
H444 H 0.00378 0.35473 0.86294 0.0
H445 H 0.0426 0.29011 0.89144 0.0
O446 O 0.05669 0.35177 0.84783 0.0
C447 C 0.08768 0.28248 0.86984 0.0
O448 O 0.06834 0.26418 0.86585 0.0
N449 N 0.01841 0.31387 0.83725 0.0
C450 C 0.97199 0.31193 0.81493 0.0
C451 C 0.9941 0.32988 0.81102 0.0
C452 C 0.01718 0.33052 0.82233 0.0
C453 C 0.99726 0.29601 0.84119 0.0
C454 C 0.97352 0.29501 0.83032 0.0
H455 H 0.03442 0.3438 0.81875 0.0
H456 H 0.99894 0.2823 0.85273 0.0
H457 H 0.09691 0.33772 0.82548 0.0
H458 H 0.09128 0.25955 0.80008 0.0
H459 H 0.98185 0.35252 0.89583 0.0
H460 H 0.99359 0.34331 0.79926 0.0
H461 H 0.95689 0.28071 0.83363 0.0
C462 C 0.26968 0.95385 0.17952 0.0
C463 C 0.27937 0.93508 0.19194 0.0
N464 N 0.30458 0.92605 0.18648 0.0
N465 N 0.28858 0.95676 0.16626 0.0
C466 C 0.30963 0.93959 0.17077 0.0
H467 H 0.24971 0.9642 0.17982 0.0
Co468 Co 0.2817 0.97769 0.14591 0.0
C469 C 0.33551 0.99803 0.13191 0.0
O470 O 0.32269 0.02137 0.12794 0.0
N471 N 0.27306 0.99834 0.12495 0.0
C472 C 0.25792 0.02871 0.10449 0.0
C473 C 0.25923 0.02255 0.12259 0.0
C474 C 0.2795 0.99013 0.10797 0.0
N475 N 0.2707 0.00825 0.09526 0.0
O476 O 0.27622 0.94392 0.13271 0.0
H477 H 0.25063 0.03546 0.13306 0.0
H478 H 0.2906 0.97111 0.10506 0.0
O479 O 0.32192 0.97812 0.13938 0.0
C480 C 0.2514 0.93528 0.13467 0.0
O481 O 0.23371 0.95108 0.1435 0.0
N482 N 0.28535 0.0098 0.16026 0.0
C483 C 0.28544 0.05005 0.18733 0.0
C484 C 0.31013 0.03688 0.1822 0.0
C485 C 0.30959 0.01648 0.16889 0.0
C486 C 0.26096 0.02171 0.16567 0.0
C487 C 0.2606 0.04257 0.17882 0.0
H488 H 0.32841 0.00485 0.16661 0.0
H489 H 0.24149 0.01417 0.16025 0.0
H490 H 0.32803 0.9369 0.16256 0.0
H491 H 0.26818 0.92815 0.20379 0.0
H492 H 0.24862 0.04715 0.0987 0.0
H493 H 0.32956 0.04155 0.18896 0.0
H494 H 0.241 0.05163 0.18299 0.0
C495 C 0.93846 0.73416 0.81408 0.0
C496 C 0.91697 0.72871 0.80246 0.0
N497 N 0.90685 0.7033 0.80635 0.0
N498 N 0.94206 0.71222 0.82514 0.0
C499 C 0.92251 0.69364 0.82017 0.0
H500 H 0.95029 0.75324 0.81482 0.0
Co501 Co 0.96583 0.71392 0.84446 0.0
C502 C 0.98852 0.65812 0.85131 0.0
O503 O 0.01258 0.67063 0.85344 0.0
N504 N 0.98939 0.71734 0.86478 0.0
C505 C 0.02041 0.72992 0.88556 0.0
C506 C 0.01212 0.73318 0.86793 0.0
C507 C 0.98419 0.70507 0.88088 0.0
N508 N 1.00276 0.71224 0.8937 0.0
O509 O 0.93397 0.71606 0.85996 0.0
H510 H 0.02195 0.74706 0.85851 0.0
H511 H 0.96693 0.69106 0.8831 0.0
O512 O 0.9669 0.67244 0.84703 0.0
C513 C 0.92848 0.74015 0.86615 0.0
O514 O 0.94637 0.76034 0.86335 0.0
N515 N 0.99586 0.71363 0.82804 0.0
C516 C 0.03569 0.71783 0.80083 0.0
C517 C 0.02039 0.69335 0.80305 0.0
C518 C 1.00021 0.69185 0.81649 0.0
C519 C 0.00896 0.73836 0.825 0.0
C520 C 0.02978 0.74065 0.81189 0.0
H521 H 0.98735 0.6735 0.81701 0.0
H522 H 1.00256 0.7567 0.83234 0.0
H523 H 0.91908 0.67404 0.827 0.0
H524 H 0.90937 0.74242 0.79195 0.0
H525 H 0.03749 0.74067 0.89203 0.0
H526 H 0.02377 0.6756 0.79431 0.0
H527 H 0.04037 0.7603 0.80995 0.0
C528 C 0.90853 0.54558 0.37457 0.0
C529 C 0.89187 0.5478 0.35901 0.0
C530 C 0.9356 0.53511 0.37348 0.0
C531 C 0.99503 0.52342 0.34363 0.0
H532 H 0.01286 0.4637 0.3769 0.0
C533 C 0.10231 0.46867 0.34162 0.0
C534 C 0.1143 0.46133 0.35828 0.0
C535 C 0.07451 0.4773 0.34066 0.0
C536 C 0.0085 0.4806 0.36766 0.0
H537 H 0.89119 0.54196 0.32994 0.0
H538 H 0.93894 0.5243 0.32801 0.0
H539 H 0.96669 0.48444 0.37736 0.0
H540 H 0.10625 0.45685 0.38697 0.0
H541 H 0.05835 0.47254 0.38545 0.0
H542 H 0.03706 0.52046 0.33435 0.0
C543 C 0.93077 0.53041 0.34107 0.0
C544 C 0.98192 0.4924 0.3679 0.0
C545 C 0.90345 0.5405 0.34219 0.0
C546 C 0.09763 0.46204 0.37387 0.0
C547 C 0.06999 0.47102 0.37296 0.0
C548 C 0.02183 0.51192 0.34358 0.0
C549 C 0.94687 0.52699 0.35678 0.0
C550 C 0.97494 0.51407 0.35599 0.0
C551 C 0.05807 0.47916 0.35638 0.0
C552 C 0.02905 0.49045 0.3557 0.0
H553 H 0.90034 0.5509 0.38776 0.0
H554 H 0.94765 0.53304 0.38578 0.0
H555 H 0.99026 0.54019 0.33436 0.0
H556 H 0.11454 0.46816 0.32933 0.0
H557 H 0.06603 0.48275 0.32757 0.0
C558 C 0.53078 0.09709 0.64892 0.0
C559 C 0.539 0.10901 0.6324 0.0
C560 C 0.52106 0.06963 0.64963 0.0
C561 C 0.51626 0.00412 0.62218 0.0
H562 H 0.45605 0.98695 0.65523 0.0
C563 C 0.45002 0.90494 0.61512 0.0
C564 C 0.44761 0.88841 0.63072 0.0
C565 C 0.46064 0.93196 0.61616 0.0
C566 C 0.47296 0.99142 0.64601 0.0
H567 H 0.54373 0.10119 0.6037 0.0
H568 H 0.52614 0.05397 0.60478 0.0
H569 H 0.47681 0.03327 0.65549 0.0
H570 H 0.45313 0.88793 0.65981 0.0
H571 H 0.47105 0.93555 0.66166 0.0
H572 H 0.5116 0.96249 0.61232 0.0
C573 C 0.52782 0.06535 0.61736 0.0
C574 C 0.48506 0.01795 0.64621 0.0
C575 C 0.53788 0.09262 0.6167 0.0
C576 C 0.45477 0.90009 0.64753 0.0
C577 C 0.465 0.92735 0.6486 0.0
C578 C 0.50387 0.97782 0.6218 0.0
C579 C 0.51896 0.05348 0.63379 0.0
C580 C 0.50682 0.02478 0.63421 0.0
C581 C 0.46869 0.9433 0.63285 0.0
C582 C 0.48199 0.97122 0.63362 0.0
H583 H 0.53148 0.10911 0.66129 0.0
H584 H 0.51504 0.06118 0.66261 0.0
H585 H 0.53336 0.00815 0.61304 0.0
H586 H 0.44486 0.89663 0.60193 0.0
H587 H 0.46295 0.9439 0.60382 0.0
C588 C 0.90339 0.46166 0.61681 0.0
C589 C 0.88554 0.45808 0.6317 0.0
C590 C 0.93076 0.47081 0.61926 0.0
C591 C 0.98724 0.47486 0.65254 0.0
H592 H 0.01556 0.5341 0.62208 0.0
C593 C 0.09674 0.51762 0.66473 0.0
C594 C 0.1132 0.52315 0.6495 0.0
C595 C 0.06808 0.51372 0.66303 0.0
C596 C 0.00816 0.51736 0.6306 0.0
H597 H 0.88284 0.46052 0.66092 0.0
H598 H 0.93083 0.47598 0.6652 0.0
H599 H 0.96797 0.51754 0.618 0.0
H600 H 0.11264 0.52995 0.62061 0.0
H601 H 0.06259 0.52243 0.61742 0.0
H602 H 0.02741 0.47376 0.66475 0.0
C603 C 0.92352 0.47189 0.65161 0.0
C604 C 0.98082 0.5079 0.62826 0.0
C605 C 0.89601 0.46307 0.64916 0.0
C606 C 0.10028 0.52627 0.63262 0.0
C607 C 0.07156 0.5218 0.63083 0.0
C608 C 0.01462 0.48405 0.65473 0.0
C609 C 0.94109 0.47626 0.63667 0.0
C610 C 0.97006 0.48652 0.63921 0.0
C611 C 0.05521 0.51445 0.64595 0.0
C612 C 0.02555 0.50549 0.64383 0.0
H613 H 0.89602 0.45818 0.60317 0.0
H614 H 0.94388 0.47363 0.60749 0.0
H615 H 0.97972 0.45811 0.66102 0.0
H616 H 0.10628 0.51502 0.6779 0.0
H617 H 0.0562 0.50905 0.6751 0.0
C618 C 0.56161 0.91648 0.37908 0.0
C619 C 0.5621 0.89944 0.36364 0.0
C620 C 0.55206 0.94388 0.37808 0.0
C621 C 0.5086 0.99063 0.34952 0.0
H622 H 0.53759 0.04689 0.38195 0.0
C623 C 0.47685 0.10816 0.34831 0.0
C624 C 0.47156 0.12033 0.36527 0.0
C625 C 0.48724 0.08096 0.34709 0.0
C626 C 0.52915 0.03135 0.37289 0.0
H627 H 0.55392 0.89843 0.33482 0.0
H628 H 0.53812 0.94662 0.33294 0.0
H629 H 0.55921 1.00116 0.38106 0.0
H630 H 0.47225 0.11302 0.39421 0.0
H631 H 0.49053 0.06584 0.39205 0.0
H632 H 0.47886 0.0214 0.34114 0.0
C633 C 0.54444 0.93852 0.34597 0.0
C634 C 0.5415 0.00503 0.3724 0.0
C635 C 0.5538 0.91093 0.347 0.0
C636 C 0.476 0.10434 0.38092 0.0
C637 C 0.48672 0.07736 0.37971 0.0
C638 C 0.49648 0.01717 0.34984 0.0
C639 C 0.54297 0.95527 0.36157 0.0
C640 C 0.53114 0.98408 0.36094 0.0
C641 C 0.49294 0.06554 0.36281 0.0
C642 C 0.50634 0.03766 0.36175 0.0
H643 H 0.56762 0.90836 0.39216 0.0
H644 H 0.55087 0.95577 0.39048 0.0
H645 H 0.49973 0.97506 0.34068 0.0
H646 H 0.47358 0.11986 0.33598 0.0
H647 H 0.49183 0.07241 0.33387 0.0
C648 C 0.60738 0.96967 0.85 0.0
C649 C 0.61801 0.9723 0.8324 0.0
C650 C 0.57906 0.97446 0.85339 0.0
C651 C 0.50951 0.98154 0.83241 0.0
H652 H 0.49763 0.03887 0.86841 0.0
C653 C 0.40326 0.03737 0.83892 0.0
C654 C 0.39419 0.04506 0.85628 0.0
C655 C 0.43042 0.02764 0.83615 0.0
C656 C 0.50031 0.0225 0.85853 0.0
H657 H 0.60732 0.98019 0.80446 0.0
H658 H 0.55783 0.98737 0.81021 0.0
H659 H 0.54395 0.0196 0.8641 0.0
H660 H 0.40676 0.04874 0.88432 0.0
H661 H 0.45351 0.03119 0.87968 0.0
H662 H 0.4659 0.984 0.82696 0.0
C663 C 0.57123 0.98188 0.82142 0.0
C664 C 0.52698 0.01145 0.85607 0.0
C665 C 0.59955 0.97767 0.81811 0.0
C666 C 0.41311 0.04338 0.87071 0.0
C667 C 0.44009 0.03329 0.86801 0.0
C668 C 0.48271 0.99227 0.83505 0.0
C669 C 0.56086 0.98144 0.83918 0.0
C670 C 0.53196 0.99103 0.84288 0.0
C671 C 0.44913 0.02496 0.85073 0.0
C672 C 0.47771 0.01316 0.84804 0.0
H673 H 0.62126 0.96613 0.86131 0.0
H674 H 0.5716 0.97383 0.8672 0.0
H675 H 0.51269 0.96576 0.82217 0.0
H676 H 0.38925 0.03853 0.82749 0.0
H677 H 0.43665 0.02213 0.82256 0.0
C678 C 0.96536 0.39511 0.14635 0.0
C679 C 0.95975 0.3831 0.12941 0.0
C680 C 0.97475 0.42263 0.14762 0.0
C681 C 0.98389 0.48789 0.12031 0.0
H682 H 0.03919 0.50517 0.15677 0.0
C683 C 0.05477 0.58363 0.11527 0.0
C684 C 0.05388 0.60202 0.13006 0.0
C685 C 0.04337 0.557 0.11658 0.0
C686 C 0.02363 0.50064 0.14661 0.0
H687 H 0.95925 0.39079 0.10055 0.0
H688 H 0.97633 0.4381 0.10263 0.0
H689 H 0.01775 0.45912 0.15625 0.0
H690 H 0.04163 0.60609 0.15816 0.0
H691 H 0.02248 0.55893 0.16057 0.0
H692 H 0.99086 0.52908 0.11023 0.0
C693 C 0.9728 0.42678 0.11507 0.0
C694 C 0.01113 0.4743 0.14635 0.0
C695 C 0.96302 0.39947 0.11383 0.0
C696 C 0.04271 0.59246 0.14652 0.0
C697 C 0.03171 0.56552 0.14791 0.0
C698 C 0.99675 0.51395 0.12038 0.0
C699 C 0.97915 0.43874 0.13196 0.0
C700 C 0.99125 0.4674 0.13306 0.0
C701 C 0.03123 0.54786 0.13278 0.0
C702 C 0.01692 0.52051 0.13341 0.0
H703 H 0.96288 0.3831 0.15864 0.0
H704 H 0.97877 0.43114 0.16091 0.0
H705 H 0.9682 0.48385 0.11016 0.0
H706 H 0.0631 0.59021 0.10236 0.0
H707 H 0.04354 0.54368 0.10477 0.0
C708 C 0.38307 0.98315 0.14265 0.0
C709 C 0.36622 0.99762 0.13029 0.0
C710 C 0.41196 0.98766 0.14297 0.0
C711 C 0.46269 0.04215 0.12997 0.0
H712 H 0.51871 0.98557 0.13804 0.0
C713 C 0.57925 0.06274 0.11773 0.0
C714 C 0.59879 0.05086 0.12957 0.0
C715 C 0.55101 0.05612 0.1191 0.0
C716 C 0.50328 1.00168 0.13601 0.0
H717 H 0.36655 0.02638 0.10774 0.0
H718 H 0.41653 0.03358 0.10795 0.0
H719 H 0.46951 0.97254 0.13738 0.0
H720 H 0.60356 0.0231 0.15248 0.0
H721 H 0.55427 0.01172 0.15495 0.0
H722 H 0.49622 0.07125 0.12848 0.0
C723 C 0.40761 0.01951 0.11781 0.0
C724 C 0.47508 0.99418 0.13561 0.0
C725 C 0.37894 0.01518 0.11757 0.0
C726 C 0.58919 0.0327 0.14313 0.0
C727 C 0.56091 0.02595 0.14445 0.0
C728 C 0.49076 0.0496 0.13035 0.0
C729 C 0.42443 0.00662 0.13089 0.0
C730 C 0.45445 0.01429 0.13229 0.0
C731 C 0.54148 0.03736 0.13233 0.0
C732 C 0.51149 0.02945 0.13312 0.0
H733 H 0.3738 0.96965 0.1527 0.0
H734 H 0.4243 0.97734 0.15322 0.0
H735 H 0.44738 0.05834 0.12788 0.0
H736 H 0.58583 0.07671 0.10707 0.0
H737 H 0.53673 0.0651 0.1094 0.0
C738 C 0.00524 0.61527 0.86634 0.0
C739 C 0.98806 0.6275 0.85322 0.0
C740 C 0.00946 0.58659 0.86672 0.0
C741 C 0.01102 0.52572 0.83705 0.0
H742 H 0.01877 0.48594 0.88237 0.0
C743 C 0.04062 0.40801 0.84163 0.0
C744 C 0.05801 0.39992 0.85602 0.0
C745 C 0.03043 0.4353 0.84047 0.0
C746 C 0.01701 0.49677 0.86958 0.0
H747 H 0.9612 0.61924 0.83039 0.0
H748 H 0.96872 0.56853 0.83092 0.0
H749 H 1.00128 0.53344 0.88241 0.0
H750 H 0.07936 0.41476 0.87995 0.0
H751 H 0.06218 0.46224 0.87773 0.0
H752 H 0.02732 0.48912 0.82428 0.0
C753 C 0.97885 0.58135 0.84099 0.0
C754 C 0.0068 0.524 0.8696 0.0
C755 C 0.97427 0.61027 0.84079 0.0
C756 C 0.06591 0.42013 0.86874 0.0
C757 C 0.05579 0.44736 0.86756 0.0
C758 C 0.02133 0.4984 0.83703 0.0
C759 C 0.99688 0.56925 0.85382 0.0
C760 C 0.00417 0.53906 0.85339 0.0
C761 C 0.03738 0.4552 0.85366 0.0
C762 C 0.025 0.48375 0.85335 0.0
H763 H 0.01623 0.62808 0.87604 0.0
H764 H 0.0237 0.57816 0.87665 0.0
H765 H 0.00954 0.5368 0.82434 0.0
H766 H 0.03394 0.39303 0.83161 0.0
H767 H 0.01626 0.44049 0.82961 0.0
C768 C 0.26343 0.39009 0.34875 0.0
C769 C 0.24368 0.40168 0.36049 0.0
C770 C 0.27585 0.36464 0.3527 0.0
C771 C 0.29938 0.32445 0.39056 0.0
H772 H 0.31891 0.27174 0.35296 0.0
C773 C 0.3845 0.23173 0.37213 0.0
C774 C 0.40852 0.24694 0.37644 0.0
C775 C 0.35813 0.24374 0.37434 0.0
C776 C 0.31323 0.28575 0.36381 0.0
H777 H 0.22071 0.3956 0.38534 0.0
H778 H 0.24338 0.35097 0.3927 0.0
H779 H 0.28192 0.30543 0.34767 0.0
H780 H 0.42389 0.28544 0.38783 0.0
H781 H 0.37821 0.30615 0.39193 0.0
H782 H 0.33188 0.30585 0.4063 0.0
C783 C 0.24882 0.36154 0.38027 0.0
C784 C 0.29216 0.3052 0.36072 0.0
C785 C 0.23583 0.38692 0.37606 0.0
C786 C 0.40569 0.27329 0.38436 0.0
C787 C 0.37945 0.28509 0.38682 0.0
C788 C 0.32062 0.30509 0.39363 0.0
C789 C 0.2692 0.35035 0.36868 0.0
C790 C 0.28589 0.32554 0.37374 0.0
C791 C 0.3554 0.27094 0.38117 0.0
C792 C 0.32861 0.28634 0.37997 0.0
H793 H 0.26973 0.40103 0.33661 0.0
H794 H 0.29172 0.35682 0.34363 0.0
H795 H 0.29506 0.33991 0.40083 0.0
H796 H 0.38613 0.21144 0.36587 0.0
H797 H 0.33997 0.23228 0.36995 0.0
C798 C 0.22388 0.62616 0.62407 0.0
C799 C 0.22241 0.60567 0.61065 0.0
C800 C 0.23714 0.65147 0.62059 0.0
C801 C 0.29318 0.67596 0.59016 0.0
H802 H 0.29077 0.73922 0.62256 0.0
C803 C 0.36812 0.77284 0.61644 0.0
C804 C 0.39264 0.75709 0.61805 0.0
C805 C 0.34313 0.76006 0.61113 0.0
C806 C 0.29153 0.72207 0.61309 0.0
H807 H 0.23101 0.59618 0.58267 0.0
H808 H 0.25203 0.64121 0.57598 0.0
H809 H 0.25071 0.70843 0.62042 0.0
H810 H 0.41036 0.7159 0.61471 0.0
H811 H 0.36744 0.69389 0.60585 0.0
H812 H 0.33379 0.6897 0.58271 0.0
C813 C 0.24424 0.63752 0.5895 0.0
C814 C 0.26865 0.70407 0.61206 0.0
C815 C 0.23168 0.61188 0.59316 0.0
C816 C 0.39189 0.72871 0.61366 0.0
C817 C 0.36719 0.71607 0.60836 0.0
C818 C 0.31572 0.69416 0.59096 0.0
C819 C 0.24891 0.65693 0.60348 0.0
C820 C 0.26971 0.6799 0.60127 0.0
C821 C 0.34236 0.7314 0.6072 0.0
C822 C 0.31585 0.71655 0.60317 0.0
H823 H 0.21736 0.62157 0.63776 0.0
H824 H 0.24029 0.66546 0.63184 0.0
H825 H 0.29526 0.65774 0.5817 0.0
H826 H 0.36806 0.79476 0.61977 0.0
H827 H 0.32441 0.77251 0.61031 0.0
C828 C 0.64139 0.78542 0.37965 0.0
C829 C 0.61586 0.77227 0.38311 0.0
C830 C 0.66641 0.77218 0.38419 0.0
C831 C 0.69603 0.7107 0.40847 0.0
H832 H 0.74051 0.70196 0.36512 0.0
C833 C 0.74178 0.6078 0.38607 0.0
C834 C 0.76685 0.60665 0.37641 0.0
C835 C 0.73125 0.63318 0.39205 0.0
C836 C 0.72891 0.70464 0.37756 0.0
H837 H 0.59623 0.73645 0.3954 0.0
H838 H 0.63949 0.7136 0.40347 0.0
H839 H 0.70667 0.73949 0.36691 0.0
H840 H 0.80138 0.63088 0.36617 0.0
H841 H 0.78255 0.67572 0.37635 0.0
H842 H 0.71694 0.67456 0.41855 0.0
C843 C 0.64051 0.73399 0.39728 0.0
C844 C 0.70948 0.72622 0.37859 0.0
C845 C 0.61566 0.74698 0.39255 0.0
C846 C 0.78203 0.63124 0.37366 0.0
C847 C 0.77121 0.65684 0.37941 0.0
C848 C 0.71541 0.6891 0.40741 0.0
C849 C 0.6662 0.74583 0.39249 0.0
C850 C 0.69181 0.72858 0.39367 0.0
C851 C 0.74536 0.6581 0.3883 0.0
C852 C 0.73101 0.685 0.39156 0.0
H853 H 0.64207 0.80487 0.37228 0.0
H854 H 0.68588 0.78189 0.38042 0.0
H855 H 0.6831 0.71231 0.42041 0.0
H856 H 0.72972 0.58912 0.38845 0.0
H857 H 0.71113 0.63339 0.39864 0.0
C858 C 0.77653 0.37154 0.61942 0.0
C859 C 0.76091 0.39537 0.61524 0.0
C860 C 0.76535 0.345 0.61644 0.0
C861 C 0.7244 0.29871 0.62549 0.0
H862 H 0.66943 0.2828 0.58856 0.0
C863 C 0.61944 0.25222 0.6411 0.0
C864 C 0.60604 0.23425 0.629 0.0
C865 C 0.64549 0.26314 0.63704 0.0
C866 C 0.68515 0.28641 0.59878 0.0
H867 H 0.72268 0.41029 0.60317 0.0
H868 H 0.70333 0.36445 0.59794 0.0
H869 H 0.70394 0.31917 0.58342 0.0
H870 H 0.60958 0.21261 0.60346 0.0
H871 H 0.65537 0.23261 0.59593 0.0
H872 H 0.70466 0.26701 0.64123 0.0
C873 C 0.72411 0.36589 0.60349 0.0
C874 C 0.70477 0.30744 0.59591 0.0
C875 C 0.7351 0.39226 0.60664 0.0
C876 C 0.61964 0.22641 0.61299 0.0
C877 C 0.64569 0.23788 0.6087 0.0
C878 C 0.7048 0.27773 0.62835 0.0
C879 C 0.73855 0.34194 0.60903 0.0
C880 C 0.72362 0.31484 0.60964 0.0
C881 C 0.65866 0.25669 0.62061 0.0
C882 C 0.68403 0.27242 0.61544 0.0
H883 H 0.79648 0.37338 0.62611 0.0
H884 H 0.77709 0.32695 0.62072 0.0
H885 H 0.73854 0.30382 0.63638 0.0
H886 H 0.60942 0.2584 0.6536 0.0
H887 H 0.65463 0.27786 0.64638 0.0
C888 C 0.87687 0.73303 0.86741 0.0
C889 C 0.90076 0.74697 0.87353 0.0
C890 C 0.85036 0.74361 0.87129 0.0
C891 C 0.81216 0.79595 0.89901 0.0
H892 H 0.77223 0.81113 0.85458 0.0
C893 C 0.75632 0.89754 0.88546 0.0
C894 C 0.73446 0.89908 0.87296 0.0
C895 C 0.76824 0.872 0.88987 0.0
C896 C 0.78248 0.80651 0.86727 0.0
H897 H 0.91572 0.78144 0.88963 0.0
H898 H 0.86974 0.79958 0.89665 0.0
H899 H 0.80992 0.77743 0.85456 0.0
H900 H 0.70646 0.87507 0.85621 0.0
H901 H 0.72735 0.83004 0.86395 0.0
H902 H 0.78564 0.82613 0.91149 0.0
C903 C 0.87125 0.7806 0.88883 0.0
C904 C 0.8042 0.78715 0.86724 0.0
C905 C 0.89765 0.77031 0.88472 0.0
C906 C 0.72314 0.87437 0.86605 0.0
C907 C 0.73532 0.84867 0.87033 0.0
C908 C 0.79034 0.81519 0.89907 0.0
C909 C 0.84733 0.76801 0.88161 0.0
C910 C 0.82015 0.78268 0.88289 0.0
C911 C 0.75877 0.84735 0.88172 0.0
C912 C 0.77617 0.82175 0.88298 0.0
H913 H 0.87868 0.71509 0.85863 0.0
H914 H 0.8323 0.7334 0.86561 0.0
H915 H 0.82377 0.79258 0.91136 0.0
H916 H 0.76545 0.91634 0.89093 0.0
H917 H 0.78638 0.87198 0.89854 0.0
C918 C 0.75173 0.10731 0.10305 0.0
C919 C 0.72707 0.10517 0.1131 0.0
C920 C 0.76506 0.13288 0.10108 0.0
C921 C 0.78855 0.19079 0.09608 0.0
H922 H 0.80156 0.2215 0.14377 0.0
C923 C 0.87972 0.26695 0.11263 0.0
C924 C 0.89674 0.25516 0.12604 0.0
C925 C 0.85306 0.25605 0.10938 0.0
C926 C 0.79777 0.21355 0.13029 0.0
H927 H 0.69601 0.12827 0.12806 0.0
H928 H 0.71964 0.17323 0.12483 0.0
H929 H 0.76381 0.18845 0.13928 0.0
H930 H 0.8989 0.22391 0.14713 0.0
H931 H 0.85265 0.20553 0.14178 0.0
H932 H 0.8239 0.21457 0.08746 0.0
C933 C 0.72855 0.15507 0.1184 0.0
C934 C 0.77601 0.19475 0.12767 0.0
C935 C 0.71493 0.12942 0.12015 0.0
C936 C 0.88635 0.23322 0.13657 0.0
C937 C 0.85973 0.22287 0.13364 0.0
C938 C 0.81024 0.2098 0.09869 0.0
C939 C 0.75425 0.15688 0.10933 0.0
C940 C 0.77201 0.18211 0.11074 0.0
C941 C 0.84289 0.23387 0.1199 0.0
C942 C 0.81586 0.22027 0.11602 0.0
H943 H 0.76148 0.08892 0.09744 0.0
H944 H 0.78493 0.13338 0.09419 0.0
H945 H 0.78578 0.18163 0.08283 0.0
H946 H 0.88731 0.2839 0.10435 0.0
H947 H 0.84048 0.26479 0.09865 0.0
C948 C 0.13984 0.28317 0.87071 0.0
C949 C 0.11448 0.27235 0.87698 0.0
C950 C 0.16482 0.26904 0.8742 0.0
C951 C 0.19578 0.21112 0.90126 0.0
H952 H 0.2355 0.19367 0.85708 0.0
C953 C 0.24421 0.10514 0.88738 0.0
C954 C 0.2684 0.10275 0.87689 0.0
C955 C 0.23256 0.13115 0.89091 0.0
C956 C 0.22518 0.19877 0.86967 0.0
H957 H 0.09544 0.23968 0.89284 0.0
H958 H 0.13866 0.21543 0.89918 0.0
H959 H 0.20162 0.2314 0.85727 0.0
H960 H 0.30012 0.12574 0.86245 0.0
H961 H 0.27944 0.17155 0.86844 0.0
H962 H 0.21819 0.17743 0.91337 0.0
C963 C 0.13957 0.23466 0.89158 0.0
C964 C 0.20573 0.22046 0.86978 0.0
C965 C 0.11472 0.24848 0.88788 0.0
C966 C 0.28156 0.12704 0.87071 0.0
C967 C 0.26961 0.15319 0.87401 0.0
C968 C 0.21517 0.18944 0.90114 0.0
C969 C 0.16483 0.24416 0.88426 0.0
C970 C 0.18993 0.22608 0.88537 0.0
C971 C 0.24462 0.15545 0.88383 0.0
C972 C 0.22921 0.18224 0.88514 0.0
H973 H 0.14015 0.30139 0.8621 0.0
H974 H 0.18396 0.27696 0.86845 0.0
H975 H 0.18434 0.21526 0.91359 0.0
H976 H 0.23364 0.08676 0.89233 0.0
H977 H 0.21315 0.13202 0.89832 0.0
C978 C 0.22082 0.89421 0.13857 0.0
C979 C 0.24301 0.90687 0.12939 0.0
C980 C 0.21225 0.86747 0.13406 0.0
C981 C 0.20507 0.82021 0.09719 0.0
H982 H 0.18589 0.76887 0.13567 0.0
C983 C 0.13082 0.71851 0.11505 0.0
C984 C 0.10605 0.7296 0.10802 0.0
C985 C 0.15575 0.73343 0.11357 0.0
C986 C 0.19168 0.78245 0.12461 0.0
H987 H 0.27376 0.90142 0.10827 0.0
H988 H 0.25786 0.85442 0.09983 0.0
H989 H 0.2155 0.80864 0.14213 0.0
H990 H 0.08835 0.76329 0.09236 0.0
H991 H 0.13152 0.78912 0.0897 0.0
H992 H 0.17975 0.79492 0.0799 0.0
C993 C 0.24754 0.86532 0.11074 0.0
C994 C 0.20848 0.80538 0.12837 0.0
C995 C 0.25659 0.8921 0.11556 0.0
C996 C 0.10714 0.75435 0.098 0.0
C997 C 0.13199 0.76907 0.09636 0.0
C998 C 0.18806 0.79729 0.09342 0.0
C999 C 0.22536 0.85277 0.12007 0.0
C1000 C 0.21424 0.82516 0.11491 0.0
C1001 C 0.15631 0.75949 0.10488 0.0
C1002 C 0.18011 0.77889 0.10731 0.0
H1003 H 0.21005 0.90492 0.14939 0.0
H1004 H 0.19482 0.85851 0.14129 0.0
H1005 H 0.20919 0.83516 0.08657 0.0
H1006 H 0.13055 0.69949 0.12289 0.0
H1007 H 0.1742 0.72537 0.12012 0.0
C1008 C 0.21572 0.58691 0.29551 0.0
C1009 C 0.19499 0.58391 0.30873 0.0
C1010 C 0.21277 0.60675 0.28183 0.0
C1011 C 0.17337 0.66817 0.26652 0.0
H1012 H 0.16917 0.62939 0.22067 0.0
C1013 C 0.10265 0.70518 0.20917 0.0
C1014 C 0.10884 0.69828 0.19119 0.0
C1015 C 0.11978 0.69617 0.22321 0.0
C1016 C 0.17092 0.64096 0.23316 0.0
H1017 H 0.15626 0.60044 0.31905 0.0
H1018 H 0.15137 0.63558 0.29538 0.0
H1019 H 0.18907 0.60613 0.24672 0.0
H1020 H 0.13852 0.67804 0.1736 0.0
H1021 H 0.16921 0.66304 0.19806 0.0
H1022 H 0.15491 0.70292 0.25308 0.0
C1023 C 0.16979 0.6226 0.2955 0.0
C1024 C 0.18232 0.62752 0.24814 0.0
C1025 C 0.17249 0.60247 0.30897 0.0
C1026 C 0.13315 0.68324 0.18741 0.0
C1027 C 0.15062 0.67463 0.20144 0.0
C1028 C 0.1624 0.68184 0.25145 0.0
C1029 C 0.18931 0.62414 0.2814 0.0
C1030 C 0.18275 0.64064 0.26508 0.0
C1031 C 0.14381 0.68041 0.21958 0.0
C1032 C 0.16003 0.66801 0.23473 0.0
H1033 H 0.23313 0.57262 0.29499 0.0
H1034 H 0.22809 0.60759 0.2711 0.0
H1035 H 0.17368 0.67876 0.27944 0.0
H1036 H 0.08384 0.71648 0.21244 0.0
H1037 H 0.1134 0.70058 0.23695 0.0
C1038 C 0.56807 0.78616 0.69613 0.0
C1039 C 0.5655 0.80585 0.68223 0.0
C1040 C 0.58918 0.78879 0.709 0.0
C1041 C 0.65567 0.82161 0.71988 0.0
H1042 H 0.62345 0.83637 0.76695 0.0
C1043 C 0.71055 0.88987 0.7723 0.0
C1044 C 0.70411 0.88707 0.79069 0.0
C1045 C 0.69743 0.87318 0.75946 0.0
C1046 C 0.63315 0.83158 0.75412 0.0
H1047 H 0.58345 0.84258 0.67005 0.0
H1048 H 0.621 0.84674 0.69226 0.0
H1049 H 0.59449 0.81778 0.74299 0.0
H1050 H 0.68052 0.86366 0.81035 0.0
H1051 H 0.65849 0.83335 0.78807 0.0
H1052 H 0.69436 0.83535 0.73089 0.0
C1053 C 0.60669 0.82941 0.69327 0.0
C1054 C 0.61642 0.82101 0.74035 0.0
C1055 C 0.58525 0.82713 0.68065 0.0
C1056 C 0.68547 0.86633 0.79617 0.0
C1057 C 0.67278 0.84915 0.78337 0.0
C1058 C 0.67262 0.83161 0.73378 0.0
C1059 C 0.60827 0.8108 0.70786 0.0
C1060 C 0.62732 0.8168 0.72299 0.0
C1061 C 0.67795 0.8529 0.76477 0.0
C1062 C 0.66135 0.83772 0.75091 0.0
H1063 H 0.55282 0.76975 0.69763 0.0
H1064 H 0.58999 0.7743 0.7202 0.0
H1065 H 0.66451 0.81835 0.70658 0.0
H1066 H 0.72466 0.90597 0.76779 0.0
H1067 H 0.70164 0.87722 0.74533 0.0
C1068 C 0.83524 0.42079 0.30381 0.0
C1069 C 0.81018 0.43564 0.30461 0.0
C1070 C 0.83818 0.39853 0.29194 0.0
C1071 C 0.81402 0.37733 0.24793 0.0
H1072 H 0.8625 0.31459 0.25747 0.0
C1073 C 0.89076 0.33466 0.19619 0.0
C1074 C 0.89815 0.30641 0.19647 0.0
C1075 C 0.87168 0.34515 0.20865 0.0
C1076 C 0.84841 0.33158 0.25455 0.0
H1077 H 0.76804 0.43819 0.29443 0.0
H1078 H 0.77327 0.39914 0.27335 0.0
H1079 H 0.84343 0.34105 0.28263 0.0
H1080 H 0.8897 0.26663 0.20914 0.0
H1081 H 0.85647 0.28503 0.23101 0.0
H1082 H 0.81992 0.36853 0.21982 0.0
C1083 C 0.79059 0.40477 0.28196 0.0
C1084 C 0.83768 0.34686 0.26898 0.0
C1085 C 0.78755 0.42695 0.29403 0.0
C1086 C 0.88492 0.28861 0.20886 0.0
C1087 C 0.8658 0.2991 0.22132 0.0
C1088 C 0.82476 0.36203 0.23349 0.0
C1089 C 0.81616 0.39078 0.28052 0.0
C1090 C 0.82144 0.37063 0.26578 0.0
C1091 C 0.8595 0.32762 0.22164 0.0
C1092 C 0.84307 0.33977 0.23664 0.0
H1093 H 0.85289 0.42702 0.31195 0.0
H1094 H 0.85827 0.38843 0.29099 0.0
H1095 H 0.80162 0.3956 0.24504 0.0
H1096 H 0.90072 0.34896 0.18694 0.0
H1097 H 0.86766 0.36731 0.20871 0.0
C1098 C 0.28598 0.09987 0.77797 0.0
C1099 C 0.29993 0.09991 0.79469 0.0
C1100 C 0.29416 0.11783 0.76412 0.0
C1101 C 0.33953 0.1788 0.75387 0.0
H1102 H 0.3494 0.14132 0.70792 0.0
C1103 C 0.43049 0.19701 0.70637 0.0
C1104 C 0.42682 0.19462 0.68764 0.0
C1105 C 0.40801 0.19364 0.71803 0.0
C1106 C 0.34615 0.15244 0.72048 0.0
H1107 H 0.33236 0.12023 0.81022 0.0
H1108 H 0.34738 0.15052 0.78592 0.0
H1109 H 0.32239 0.11912 0.73157 0.0
H1110 H 0.39692 0.18848 0.66617 0.0
H1111 H 0.35728 0.18193 0.68671 0.0
H1112 H 0.36511 0.21124 0.74303 0.0
C1113 C 0.3298 0.13694 0.78356 0.0
C1114 C 0.33065 0.13969 0.73409 0.0
C1115 C 0.3215 0.11914 0.79744 0.0
C1116 C 0.40007 0.19042 0.68061 0.0
C1117 C 0.37754 0.18663 0.69232 0.0
C1118 C 0.35523 0.19146 0.74028 0.0
C1119 C 0.31658 0.13613 0.76661 0.0
C1120 C 0.32811 0.15221 0.75119 0.0
C1121 C 0.3815 0.18745 0.71116 0.0
C1122 C 0.35957 0.17786 0.72372 0.0
H1123 H 0.26933 0.08536 0.77529 0.0
H1124 H 0.28331 0.1169 0.75131 0.0
H1125 H 0.3374 0.1893 0.76675 0.0
H1126 H 0.45102 0.20033 0.71201 0.0
H1127 H 0.4118 0.19403 0.73246 0.0
C1128 C 0.22963 0.44108 0.70806 0.0
C1129 C 0.22427 0.43765 0.68952 0.0
C1130 C 0.22513 0.41923 0.72012 0.0
C1131 C 0.17792 0.36048 0.72327 0.0
H1132 H 0.2122 0.35089 0.7703 0.0
C1133 C 0.12351 0.29707 0.77837 0.0
C1134 C 0.12192 0.31014 0.79535 0.0
C1135 C 0.14198 0.3066 0.76521 0.0
C1136 C 0.20243 0.35332 0.7572 0.0
H1137 H 0.21289 0.4078 0.66884 0.0
H1138 H 0.20573 0.36942 0.68986 0.0
H1139 H 0.23625 0.37766 0.74694 0.0
H1140 H 0.13989 0.34253 0.81208 0.0
H1141 H 0.17136 0.3598 0.78892 0.0
H1142 H 0.14361 0.33737 0.73364 0.0
C1143 C 0.21274 0.38922 0.69512 0.0
C1144 C 0.21623 0.36857 0.74383 0.0
C1145 C 0.21713 0.41113 0.68305 0.0
C1146 C 0.14011 0.33229 0.79907 0.0
C1147 C 0.15852 0.34192 0.78586 0.0
C1148 C 0.16418 0.34528 0.7366 0.0
C1149 C 0.21531 0.39345 0.71386 0.0
C1150 C 0.20373 0.37299 0.72688 0.0
C1151 C 0.15924 0.32954 0.76865 0.0
C1152 C 0.1759 0.34218 0.75388 0.0
H1153 H 0.23568 0.46116 0.71338 0.0
H1154 H 0.22731 0.42328 0.73445 0.0
H1155 H 0.16739 0.36387 0.71052 0.0
H1156 H 0.10983 0.28004 0.77492 0.0
H1157 H 0.14228 0.29638 0.75217 0.0
C1158 C 0.47947 0.81072 0.27562 0.0
C1159 C 0.46966 0.8119 0.29347 0.0
C1160 C 0.46111 0.81352 0.26115 0.0
C1161 C 0.38582 0.81909 0.24914 0.0
H1162 H 0.41329 0.87289 0.21438 0.0
C1163 C 0.34442 0.89315 0.18658 0.0
C1164 C 0.32204 0.90602 0.19558 0.0
C1165 C 0.36184 0.87462 0.19575 0.0
C1166 C 0.40543 0.85738 0.2237 0.0
H1167 H 0.43308 0.8153 0.31034 0.0
H1168 H 0.40095 0.82124 0.28514 0.0
H1169 H 0.44526 0.85201 0.23582 0.0
H1170 H 0.30055 0.90888 0.2214 0.0
H1171 H 0.33048 0.87651 0.23707 0.0
H1172 H 0.34555 0.82609 0.23761 0.0
C1173 C 0.42267 0.8175 0.28218 0.0
C1174 C 0.42377 0.84531 0.23601 0.0
C1175 C 0.44104 0.81427 0.29666 0.0
C1176 C 0.31716 0.89923 0.21382 0.0
C1177 C 0.33433 0.88053 0.22287 0.0
C1178 C 0.36742 0.83138 0.23691 0.0
C1179 C 0.43263 0.81805 0.26427 0.0
C1180 C 0.41404 0.8267 0.24926 0.0
C1181 C 0.35703 0.86832 0.21401 0.0
C1182 C 0.37695 0.85131 0.22448 0.0
H1183 H 0.50149 0.80845 0.27289 0.0
H1184 H 0.46938 0.81319 0.24753 0.0
H1185 H 0.37775 0.80439 0.25891 0.0
H1186 H 0.34867 0.89739 0.1725 0.0
H1187 H 0.37922 0.8654 0.18861 0.0
C1188 C 0.81561 0.58605 0.68684 0.0
C1189 C 0.79434 0.56617 0.68701 0.0
C1190 C 0.81737 0.6058 0.70055 0.0
C1191 C 0.80412 0.61037 0.74822 0.0
H1192 H 0.83293 0.68495 0.74169 0.0
C1193 C 0.88419 0.66064 0.79516 0.0
C1194 C 0.88424 0.68963 0.79727 0.0
C1195 C 0.8644 0.64787 0.78412 0.0
C1196 C 0.82435 0.66441 0.74388 0.0
H1197 H 0.75739 0.55191 0.70091 0.0
H1198 H 0.76068 0.58644 0.72527 0.0
H1199 H 0.81261 0.66052 0.71609 0.0
H1200 H 0.86208 0.72768 0.79099 0.0
H1201 H 0.82757 0.70542 0.7717 0.0
H1202 H 0.81707 0.61378 0.77583 0.0
C1203 C 0.77583 0.58683 0.71444 0.0
C1204 C 0.81289 0.65039 0.72917 0.0
C1205 C 0.77385 0.56726 0.70051 0.0
C1206 C 0.86297 0.70537 0.7892 0.0
C1207 C 0.84316 0.69263 0.77823 0.0
C1208 C 0.8157 0.62437 0.76294 0.0
C1209 C 0.79807 0.60575 0.71483 0.0
C1210 C 0.80369 0.62285 0.73104 0.0
C1211 C 0.84423 0.66388 0.77507 0.0
C1212 C 0.8269 0.65113 0.76074 0.0
H1213 H 0.83164 0.58543 0.67655 0.0
H1214 H 0.83493 0.61988 0.70061 0.0
H1215 H 0.79732 0.58908 0.75002 0.0
H1216 H 0.90038 0.64803 0.80118 0.0
H1217 H 0.86597 0.62569 0.78182 0.0
C1218 C 0.58016 0.22136 0.29097 0.0
C1219 C 0.57778 0.2021 0.30513 0.0
C1220 C 0.59977 0.21718 0.27727 0.0
C1221 C 0.66148 0.1762 0.2638 0.0
H1222 H 0.62324 0.16794 0.21799 0.0
C1223 C 0.69541 0.09672 0.21093 0.0
C1224 C 0.69011 0.1014 0.19253 0.0
C1225 C 0.6869 0.11596 0.22389 0.0
C1226 C 0.63462 0.17078 0.23047 0.0
H1227 H 0.59487 0.16471 0.317 0.0
H1228 H 0.62954 0.15764 0.29332 0.0
H1229 H 0.60007 0.19118 0.24294 0.0
H1230 H 0.67311 0.13052 0.17313 0.0
H1231 H 0.65855 0.16454 0.19577 0.0
H1232 H 0.69578 0.15512 0.25151 0.0
C1233 C 0.61637 0.1759 0.2927 0.0
C1234 C 0.62128 0.18413 0.2448 0.0
C1235 C 0.5965 0.17981 0.30618 0.0
C1236 C 0.677 0.12621 0.18727 0.0
C1237 C 0.66871 0.14566 0.20024 0.0
C1238 C 0.67499 0.16314 0.2494 0.0
C1239 C 0.6175 0.19395 0.27778 0.0
C1240 C 0.63416 0.18596 0.26179 0.0
C1241 C 0.67311 0.14053 0.21875 0.0
C1242 C 0.66125 0.15921 0.2328 0.0
H1243 H 0.56571 0.23857 0.28989 0.0
H1244 H 0.60029 0.23138 0.26591 0.0
H1245 H 0.67194 0.17762 0.27674 0.0
H1246 H 0.70519 0.07764 0.21538 0.0
H1247 H 0.69012 0.11093 0.23801 0.0
C1248 C 0.63108 0.17513 0.68783 0.0
C1249 C 0.60867 0.18794 0.69678 0.0
C1250 C 0.65396 0.16538 0.69758 0.0
C1251 C 0.68839 0.16684 0.74253 0.0
H1252 H 0.70232 0.08897 0.73268 0.0
C1253 C 0.71641 0.08787 0.79688 0.0
C1254 C 0.72899 0.06271 0.7919 0.0
C1255 C 0.7122 0.10868 0.78401 0.0
C1256 C 0.69954 0.11091 0.73541 0.0
H1257 H 0.59331 0.20148 0.72291 0.0
H1258 H 0.63308 0.1844 0.73988 0.0
H1259 H 0.67452 0.11585 0.7118 0.0
H1260 H 0.75005 0.04064 0.77039 0.0
H1261 H 0.7437 0.07743 0.74801 0.0
H1262 H 0.71255 0.16149 0.76659 0.0
C1263 C 0.63315 0.18223 0.7253 0.0
C1264 C 0.68342 0.12634 0.72339 0.0
C1265 C 0.61026 0.1919 0.71557 0.0
C1266 C 0.73996 0.05981 0.77443 0.0
C1267 C 0.73616 0.08079 0.76163 0.0
C1268 C 0.70474 0.15143 0.75452 0.0
C1269 C 0.65495 0.16832 0.71646 0.0
C1270 C 0.67674 0.15413 0.7272 0.0
C1271 C 0.72078 0.10477 0.76599 0.0
C1272 C 0.70951 0.12295 0.75148 0.0
H1273 H 0.63087 0.17238 0.67332 0.0
H1274 H 0.67062 0.155 0.69039 0.0
H1275 H 0.68391 0.1884 0.74563 0.0
H1276 H 0.70766 0.09049 0.81027 0.0
H1277 H 0.70012 0.12672 0.78789 0.0
C1278 C 0.19687 0.4148 0.26966 0.0
C1279 C 0.19437 0.41026 0.28834 0.0
C1280 C 0.18805 0.39471 0.25737 0.0
C1281 C 0.13899 0.33681 0.25356 0.0
H1282 H 0.17296 0.33023 0.20618 0.0
C1283 C 0.08105 0.2839 0.19556 0.0
C1284 C 0.07709 0.3029 0.1814 0.0
C1285 C 0.10184 0.28853 0.20842 0.0
C1286 C 0.16346 0.33155 0.21944 0.0
H1287 H 0.18166 0.38065 0.30881 0.0
H1288 H 0.16626 0.34532 0.28727 0.0
H1289 H 0.19757 0.35466 0.23028 0.0
H1290 H 0.09264 0.3402 0.16858 0.0
H1291 H 0.12927 0.3481 0.19079 0.0
H1292 H 0.10447 0.3146 0.24251 0.0
C1293 C 0.17469 0.36465 0.28215 0.0
C1294 C 0.17741 0.34568 0.2332 0.0
C1295 C 0.1834 0.38489 0.29448 0.0
C1296 C 0.09548 0.32528 0.1794 0.0
C1297 C 0.11648 0.32968 0.19206 0.0
C1298 C 0.12518 0.32246 0.23985 0.0
C1299 C 0.17665 0.36947 0.26343 0.0
C1300 C 0.16476 0.34957 0.25017 0.0
C1301 C 0.11913 0.312 0.20709 0.0
C1302 C 0.13676 0.32075 0.22245 0.0
H1303 H 0.20486 0.43428 0.26451 0.0
H1304 H 0.18925 0.39948 0.24308 0.0
H1305 H 0.12853 0.33954 0.2664 0.0
H1306 H 0.06689 0.26661 0.19738 0.0
H1307 H 0.10353 0.27459 0.21987 0.0
C1308 C 0.36855 0.81975 0.6935 0.0
C1309 C 0.39253 0.80514 0.69871 0.0
C1310 C 0.34992 0.82957 0.70654 0.0
C1311 C 0.33314 0.82532 0.75593 0.0
H1312 H 0.30984 0.90176 0.74915 0.0
C1313 C 0.32479 0.90659 0.81176 0.0
C1314 C 0.30373 0.92667 0.81089 0.0
C1315 C 0.3265 0.88589 0.79861 0.0
C1316 C 0.31555 0.88018 0.75111 0.0
H1317 H 0.41575 0.7892 0.72156 0.0
H1318 H 0.38397 0.80689 0.74425 0.0
H1319 H 0.33067 0.87664 0.72409 0.0
H1320 H 0.2672 0.9405 0.79637 0.0
H1321 H 0.27054 0.90447 0.77296 0.0
H1322 H 0.31994 0.82989 0.78346 0.0
C1323 C 0.37886 0.81008 0.73015 0.0
C1324 C 0.32751 0.86571 0.73672 0.0
C1325 C 0.39725 0.80006 0.71714 0.0
C1326 C 0.28343 0.92494 0.79732 0.0
C1327 C 0.28542 0.90449 0.78395 0.0
C1328 C 0.32153 0.83994 0.77039 0.0
C1329 C 0.35509 0.82523 0.72506 0.0
C1330 C 0.33745 0.83846 0.73916 0.0
C1331 C 0.30749 0.88534 0.78419 0.0
C1332 C 0.31354 0.86781 0.76826 0.0
H1333 H 0.36423 0.82356 0.67936 0.0
H1334 H 0.33165 0.84083 0.70212 0.0
H1335 H 0.33988 0.8041 0.75815 0.0
H1336 H 0.34074 0.90781 0.82207 0.0
H1337 H 0.34393 0.87161 0.79899 0.0
C1338 C 0.94935 0.70736 0.20041 0.0
C1339 C 0.94314 0.69544 0.18361 0.0
C1340 C 0.92988 0.70665 0.21436 0.0
C1341 C 0.85705 0.68705 0.22621 0.0
H1342 H 0.89249 0.65841 0.26946 0.0
C1343 C 0.80384 0.61305 0.27618 0.0
C1344 C 0.81139 0.61375 0.29452 0.0
C1345 C 0.81633 0.631 0.2638 0.0
C1346 C 0.88216 0.66701 0.25772 0.0
H1347 H 0.91165 0.67497 0.1676 0.0
H1348 H 0.87766 0.67283 0.19217 0.0
H1349 H 0.92086 0.67654 0.24519 0.0
H1350 H 0.83637 0.63523 0.31449 0.0
H1351 H 0.85827 0.66665 0.29284 0.0
H1352 H 0.81829 0.67609 0.2386 0.0
C1353 C 0.89724 0.68331 0.19455 0.0
C1354 C 0.89848 0.67748 0.24374 0.0
C1355 C 0.91666 0.68437 0.1805 0.0
C1356 C 0.83061 0.63379 0.30038 0.0
C1357 C 0.84305 0.65183 0.288 0.0
C1358 C 0.84066 0.67651 0.24025 0.0
C1359 C 0.90407 0.6935 0.21183 0.0
C1360 C 0.88619 0.68692 0.22762 0.0
C1361 C 0.8366 0.65011 0.2695 0.0
C1362 C 0.85313 0.66566 0.25593 0.0
H1363 H 0.96972 0.71614 0.20296 0.0
H1364 H 0.93555 0.7152 0.22739 0.0
H1365 H 0.84696 0.69454 0.21406 0.0
H1366 H 0.78927 0.59772 0.27121 0.0
H1367 H 0.81119 0.62882 0.24961 0.0
C1368 C 0.71522 0.92461 0.18543 0.0
C1369 C 0.69049 0.92858 0.17568 0.0
C1370 C 0.71623 0.90525 0.19952 0.0
C1371 C 0.67842 0.84708 0.22131 0.0
H1372 H 0.69712 0.88444 0.26616 0.0
C1373 C 0.64961 0.79977 0.29002 0.0
C1374 C 0.63318 0.81795 0.30044 0.0
C1375 C 0.66523 0.80977 0.27548 0.0
C1376 C 0.69218 0.87359 0.25374 0.0
H1377 H 0.64827 0.9142 0.17186 0.0
H1378 H 0.65006 0.88014 0.19626 0.0
H1379 H 0.70889 0.90616 0.23734 0.0
H1380 H 0.62183 0.86123 0.30434 0.0
H1381 H 0.64928 0.8786 0.27923 0.0
H1382 H 0.66023 0.8153 0.23771 0.0
C1383 C 0.66866 0.89189 0.19312 0.0
C1384 C 0.69914 0.88587 0.23725 0.0
C1385 C 0.66754 0.91146 0.17923 0.0
C1386 C 0.63429 0.8466 0.29675 0.0
C1387 C 0.6501 0.8566 0.28233 0.0
C1388 C 0.67168 0.83468 0.23781 0.0
C1389 C 0.69264 0.88935 0.20385 0.0
C1390 C 0.69131 0.87326 0.22089 0.0
C1391 C 0.66503 0.83819 0.27122 0.0
C1392 C 0.6775 0.84838 0.25416 0.0
H1393 H 0.73311 0.93776 0.18299 0.0
H1394 H 0.73498 0.9036 0.20756 0.0
H1395 H 0.67231 0.83686 0.20888 0.0
H1396 H 0.64983 0.77768 0.29274 0.0
H1397 H 0.67684 0.79518 0.26727 0.0
C1398 C 0.92064 0.31431 0.80966 0.0
C1399 C 0.94765 0.31107 0.80279 0.0
C1400 C 0.89815 0.31758 0.79787 0.0
C1401 C 0.87655 0.31212 0.74981 0.0
H1402 H 0.83661 0.38049 0.75967 0.0
C1403 C 0.8301 0.38031 0.69393 0.0
C1404 C 0.80602 0.39597 0.69744 0.0
C1405 C 0.84211 0.36406 0.70747 0.0
C1406 C 0.84699 0.36098 0.75684 0.0
H1407 H 0.97224 0.30648 0.77843 0.0
H1408 H 0.93314 0.31224 0.75786 0.0
H1409 H 0.86672 0.36083 0.78271 0.0
H1410 H 0.77518 0.40592 0.71789 0.0
H1411 H 0.79572 0.37706 0.7413 0.0
H1412 H 0.85754 0.31286 0.72366 0.0
C1413 C 0.92918 0.31227 0.77228 0.0
C1414 C 0.86426 0.3497 0.77009 0.0
C1415 C 0.95161 0.30928 0.78403 0.0
C1416 C 0.79363 0.39409 0.71462 0.0
C1417 C 0.80556 0.37772 0.72814 0.0
C1418 C 0.85915 0.32334 0.73658 0.0
C1419 C 0.90236 0.31731 0.77906 0.0
C1420 C 0.87994 0.32569 0.76648 0.0
C1421 C 0.83023 0.36294 0.72482 0.0
C1422 C 0.84493 0.34843 0.73973 0.0
H1423 H 0.91712 0.31576 0.8241 0.0
H1424 H 0.87765 0.32128 0.80344 0.0
H1425 H 0.88815 0.29338 0.74678 0.0
H1426 H 0.83994 0.38082 0.68078 0.0
H1427 H 0.8613 0.35319 0.70449 0.0
C1428 C 0.29689 0.06099 0.21924 0.0
C1429 C 0.28567 0.06958 0.20267 0.0
C1430 C 0.3005 0.07998 0.23324 0.0
C1431 C 0.31712 0.15226 0.23915 0.0
H1432 H 0.31293 0.13258 0.28993 0.0
C1433 C 0.37917 0.21277 0.29256 0.0
C1434 C 0.39525 0.19545 0.30377 0.0
C1435 C 0.35745 0.20177 0.28226 0.0
C1436 C 0.31409 0.13847 0.27582 0.0
H1437 H 0.26804 0.10414 0.18784 0.0
H1438 H 0.27488 0.13788 0.21241 0.0
H1439 H 0.2879 0.10477 0.26763 0.0
H1440 H 0.40047 0.15315 0.31335 0.0
H1441 H 0.36289 0.134 0.2954 0.0
H1442 H 0.34468 0.18484 0.24713 0.0
C1443 C 0.28073 0.11638 0.21455 0.0
C1444 C 0.2997 0.12264 0.26308 0.0
C1445 C 0.27677 0.09717 0.20056 0.0
C1446 C 0.38837 0.16714 0.30503 0.0
C1447 C 0.36669 0.15617 0.29476 0.0
C1448 C 0.33157 0.16806 0.25188 0.0
C1449 C 0.2932 0.10803 0.23088 0.0
C1450 C 0.30211 0.12864 0.24456 0.0
C1451 C 0.35133 0.17324 0.28299 0.0
C1452 C 0.3312 0.16056 0.27025 0.0
H1453 H 0.30371 0.03971 0.22116 0.0
H1454 H 0.31051 0.07297 0.24554 0.0
H1455 H 0.31955 0.15726 0.22496 0.0
H1456 H 0.38354 0.23478 0.29158 0.0
H1457 H 0.34578 0.21549 0.27347 0.0
C1458 C 0.08483 0.72518 0.79102 0.0
C1459 C 0.05708 0.71934 0.78659 0.0
C1460 C 0.10576 0.72179 0.77808 0.0
C1461 C 0.11943 0.71073 0.72932 0.0
H1462 H 0.17269 0.65593 0.74599 0.0
C1463 C 0.16833 0.6303 0.68209 0.0
C1464 C 0.19455 0.6189 0.68607 0.0
C1465 C 0.15628 0.65 0.69351 0.0
C1466 C 0.15858 0.67177 0.74109 0.0
H1467 H 0.02892 0.70761 0.76508 0.0
H1468 H 0.06534 0.702 0.74241 0.0
H1469 H 0.14297 0.67931 0.76771 0.0
H1470 H 0.22925 0.62075 0.70484 0.0
H1471 H 0.20868 0.65575 0.7243 0.0
H1472 H 0.13447 0.70262 0.70262 0.0
C1473 C 0.07106 0.7091 0.7558 0.0
C1474 C 0.1415 0.68518 0.7536 0.0
C1475 C 0.05026 0.71207 0.76878 0.0
C1476 C 0.20904 0.62891 0.70126 0.0
C1477 C 0.19711 0.64886 0.71258 0.0
C1478 C 0.13674 0.69755 0.71681 0.0
C1479 C 0.09909 0.71298 0.76048 0.0
C1480 C 0.12105 0.70398 0.74776 0.0
C1481 C 0.17027 0.65913 0.7091 0.0
C1482 C 0.15575 0.67707 0.72248 0.0
H1483 H 0.09048 0.73076 0.80472 0.0
H1484 H 0.12723 0.72497 0.78199 0.0
H1485 H 0.10399 0.72538 0.72452 0.0
H1486 H 0.15672 0.62372 0.67034 0.0
H1487 H 0.13546 0.65716 0.69045 0.0
C1488 C 0.2107 0.51266 0.56133 0.0
C1489 C 0.20486 0.48912 0.5719 0.0
C1490 C 0.2164 0.50999 0.54294 0.0
C1491 C 0.2044 0.46287 0.50456 0.0
H1492 H 0.25406 0.51428 0.48027 0.0
C1493 C 0.21544 0.46592 0.42686 0.0
C1494 C 0.21032 0.49249 0.4197 0.0
C1495 C 0.22041 0.46252 0.44535 0.0
C1496 C 0.24026 0.4997 0.4869 0.0
H1497 H 0.2013 0.44424 0.57163 0.0
H1498 H 0.21161 0.43944 0.53942 0.0
H1499 H 0.25258 0.51318 0.51324 0.0
H1500 H 0.20786 0.53639 0.42591 0.0
H1501 H 0.21682 0.53057 0.45818 0.0
H1502 H 0.19183 0.44975 0.47815 0.0
C1503 C 0.21128 0.46004 0.54532 0.0
C1504 C 0.23928 0.49914 0.50576 0.0
C1505 C 0.20537 0.46275 0.56375 0.0
C1506 C 0.21153 0.51569 0.43116 0.0
C1507 C 0.2169 0.51237 0.44956 0.0
C1508 C 0.20561 0.46325 0.4857 0.0
C1509 C 0.21661 0.48367 0.53466 0.0
C1510 C 0.22069 0.48135 0.51481 0.0
C1511 C 0.22081 0.48571 0.45689 0.0
C1512 C 0.22294 0.48223 0.47671 0.0
H1513 H 0.20999 0.5333 0.56714 0.0
H1514 H 0.21974 0.52871 0.5351 0.0
H1515 H 0.18964 0.44911 0.51105 0.0
H1516 H 0.21441 0.44769 0.4183 0.0
H1517 H 0.22344 0.44177 0.45069 0.0
C1518 C 0.5247 0.80187 0.42882 0.0
C1519 C 0.50288 0.80941 0.41722 0.0
C1520 C 0.51956 0.79617 0.44698 0.0
C1521 C 0.46869 0.81048 0.48302 0.0
H1522 H 0.51468 0.7581 0.50944 0.0
C1523 C 0.46081 0.79561 0.56038 0.0
C1524 C 0.48633 0.80003 0.56915 0.0
C1525 C 0.4599 0.79188 0.54167 0.0
C1526 C 0.5016 0.77267 0.50219 0.0
H1527 H 0.45848 0.8161 0.41532 0.0
H1528 H 0.44924 0.80558 0.44711 0.0
H1529 H 0.51756 0.75997 0.47653 0.0
H1530 H 0.53089 0.80278 0.56554 0.0
H1531 H 0.52941 0.79582 0.5328 0.0
H1532 H 0.45291 0.82319 0.50881 0.0
C1533 C 0.47045 0.80462 0.44224 0.0
C1534 C 0.50333 0.77389 0.48338 0.0
C1535 C 0.47568 0.81062 0.42405 0.0
C1536 C 0.51099 0.7996 0.55902 0.0
C1537 C 0.51013 0.7954 0.54038 0.0
C1538 C 0.4667 0.80897 0.50183 0.0
C1539 C 0.4924 0.7976 0.45396 0.0
C1540 C 0.48755 0.79343 0.47361 0.0
C1541 C 0.48455 0.79199 0.53151 0.0
C1542 C 0.48371 0.7906 0.51158 0.0
H1543 H 0.54594 0.80126 0.42401 0.0
H1544 H 0.53709 0.79154 0.45565 0.0
H1545 H 0.45646 0.826 0.476 0.0
H1546 H 0.44151 0.7961 0.56791 0.0
H1547 H 0.43995 0.78928 0.53509 0.0
C1548 C 0.7947 0.52521 0.42748 0.0
C1549 C 0.80052 0.50119 0.4174 0.0
C1550 C 0.78994 0.52345 0.44603 0.0
C1551 C 0.80489 0.47746 0.48465 0.0
H1552 H 0.75633 0.52856 0.51017 0.0
C1553 C 0.79053 0.47285 0.56156 0.0
C1554 C 0.79538 0.49813 0.57052 0.0
C1555 C 0.78707 0.47225 0.54286 0.0
C1556 C 0.76994 0.5142 0.50316 0.0
H1557 H 0.80452 0.45643 0.41846 0.0
H1558 H 0.79538 0.45308 0.45086 0.0
H1559 H 0.75676 0.52835 0.47713 0.0
H1560 H 0.79931 0.54267 0.56714 0.0
H1561 H 0.79316 0.54166 0.53427 0.0
H1562 H 0.81797 0.46331 0.5107 0.0
C1563 C 0.79532 0.47341 0.44457 0.0
C1564 C 0.77029 0.51411 0.48429 0.0
C1565 C 0.80047 0.47525 0.42604 0.0
C1566 C 0.79583 0.52293 0.56051 0.0
C1567 C 0.79206 0.52236 0.54179 0.0
C1568 C 0.80426 0.47733 0.50348 0.0
C1569 C 0.79057 0.49756 0.45485 0.0
C1570 C 0.78811 0.49603 0.47482 0.0
C1571 C 0.78814 0.49694 0.53281 0.0
C1572 C 0.78709 0.49595 0.51289 0.0
H1573 H 0.79497 0.54551 0.42115 0.0
H1574 H 0.78685 0.54253 0.45354 0.0
H1575 H 0.81929 0.46366 0.47786 0.0
H1576 H 0.79039 0.45338 0.5689 0.0
H1577 H 0.78396 0.45241 0.53622 0.0
C1578 C 0.49087 0.22131 0.43113 0.0
C1579 C 0.51532 0.21645 0.42126 0.0
C1580 C 0.492 0.22592 0.44973 0.0
C1581 C 0.53724 0.21127 0.48874 0.0
H1582 H 0.48266 0.25592 0.5142 0.0
C1583 C 0.53379 0.21625 0.56634 0.0
C1584 C 0.50765 0.2096 0.57365 0.0
C1585 C 0.53647 0.22255 0.548 0.0
C1586 C 0.49806 0.24346 0.50723 0.0
H1587 H 0.56018 0.21415 0.4228 0.0
H1588 H 0.56237 0.22294 0.45528 0.0
H1589 H 0.48498 0.25788 0.48123 0.0
H1590 H 0.46373 0.20566 0.56781 0.0
H1591 H 0.46837 0.21675 0.53569 0.0
H1592 H 0.55013 0.19672 0.51474 0.0
C1593 C 0.54222 0.22241 0.44877 0.0
C1594 C 0.49934 0.24447 0.48838 0.0
C1595 C 0.54103 0.21745 0.43019 0.0
C1596 C 0.48411 0.21047 0.56245 0.0
C1597 C 0.48675 0.21707 0.54415 0.0
C1598 C 0.53616 0.21053 0.50757 0.0
C1599 C 0.51767 0.22607 0.45884 0.0
C1600 C 0.51852 0.22786 0.47888 0.0
C1601 C 0.51303 0.22261 0.5367 0.0
C1602 C 0.51617 0.22614 0.51696 0.0
H1603 H 0.47074 0.22029 0.42462 0.0
H1604 H 0.47263 0.22814 0.45704 0.0
H1605 H 0.55195 0.19783 0.48192 0.0
H1606 H 0.55232 0.21551 0.57462 0.0
H1607 H 0.55694 0.22686 0.54258 0.0
C1608 C 0.6969 0.03451 0.91784 0.0
C1609 C 0.69715 0.00839 0.90939 0.0
C1610 C 0.69867 0.03653 0.93665 0.0
C1611 C 0.71626 0.99529 0.97776 0.0
H1612 H 0.66873 0.04894 0.0018 0.0
C1613 C 0.68203 0.98671 0.05221 0.0
C1614 C 0.68359 0.01095 0.06271 0.0
C1615 C 0.68716 0.98776 0.03365 0.0
C1616 C 0.68236 0.0341 -0.00476 0.0
H1617 H 0.69906 0.96392 0.91392 0.0
H1618 H 0.70142 0.96728 0.94663 0.0
H1619 H 0.67125 0.04849 0.9689 0.0
H1620 H 0.69169 0.05526 0.06215 0.0
H1621 H 0.7003 0.05718 0.02958 0.0
H1622 H 0.7263 0.98018 0.00421 0.0
C1623 C 0.70077 0.98632 0.93883 0.0
C1624 C 0.68392 0.03389 0.9764 0.0
C1625 C 0.69932 0.98435 0.92006 0.0
C1626 C 0.69059 0.03624 0.05436 0.0
C1627 C 0.69532 0.03738 0.03576 0.0
C1628 C 0.7144 0.99529 -0.00342 0.0
C1629 C 0.70039 0.01241 0.94738 0.0
C1630 C 0.70058 0.01421 0.96742 0.0
C1631 C 0.69355 0.01316 0.02525 0.0
C1632 C 0.69718 0.01447 0.00545 0.0
H1633 H 0.69555 0.05335 0.90988 0.0
H1634 H 0.69873 0.05697 0.94277 0.0
H1635 H 0.72977 0.98026 0.97131 0.0
H1636 H 0.67688 0.96696 0.05837 0.0
H1637 H 0.68546 0.96884 0.02579 0.0
C1638 C 0.02757 0.30019 0.92877 0.0
C1639 C 0.00564 0.3101 0.91805 0.0
C1640 C 0.02302 0.29297 0.94679 0.0
C1641 C 0.97445 0.30631 0.98442 0.0
H1642 H 0.01823 0.24891 0.00782 0.0
C1643 C 0.96816 0.28627 0.0611 0.0
C1644 C 0.99423 0.28851 0.06952 0.0
C1645 C 0.96635 0.28332 0.04234 0.0
C1646 C 0.00576 0.26487 0.00141 0.0
H1647 H 0.96157 0.31924 0.91748 0.0
H1648 H 0.95336 0.30607 0.94892 0.0
H1649 H 0.0204 0.25418 0.97503 0.0
H1650 H 0.03873 0.28775 0.06528 0.0
H1651 H 0.03566 0.28222 0.0325 0.0
H1652 H 0.96006 0.31709 0.01089 0.0
C1653 C 0.97426 0.30452 0.94356 0.0
C1654 C 0.00711 0.26804 0.98267 0.0
C1655 C 0.97891 0.31205 0.92556 0.0
C1656 C 0.01843 0.28626 0.05903 0.0
C1657 C 0.01665 0.28288 0.04034 0.0
C1658 C 0.97285 0.30289 0.00313 0.0
C1659 C 0.99634 0.29519 0.95446 0.0
C1660 C 0.99209 0.28934 0.974 0.0
C1661 C 0.9906 0.28208 0.03178 0.0
C1662 C 0.98905 0.28264 0.01183 0.0
H1663 H 0.04845 0.29883 0.92339 0.0
H1664 H 0.04066 0.28648 0.95485 0.0
H1665 H 0.96287 0.32316 0.97828 0.0
H1666 H 0.94921 0.28816 0.06891 0.0
H1667 H 0.94604 0.28269 0.03603 0.0
C1668 C 0.29487 0.9887 0.06852 0.0
C1669 C 0.2745 0.00637 0.07594 0.0
C1670 C 0.29875 0.98724 0.04983 0.0
C1671 C 0.29039 0.0279 0.00883 0.0
H1672 H 0.29369 0.95719 0.98373 0.0
C1673 C 0.29412 0.02278 0.93141 0.0
C1674 C 0.31128 1.00259 0.92332 0.0
C1675 C 0.28886 0.02223 0.94994 0.0
C1676 C 0.29321 0.9771 0.99056 0.0
H1677 H 0.24185 0.03588 0.06924 0.0
H1678 H 0.24927 0.03385 0.03677 0.0
H1679 H 0.28648 0.95809 0.01641 0.0
H1680 H 0.33578 0.96551 0.9287 0.0
H1681 H 0.32761 0.96537 0.96104 0.0
H1682 H 0.29787 0.04703 0.98326 0.0
C1683 C 0.26221 0.02122 0.04551 0.0
C1684 C 0.28898 0.97757 0.00924 0.0
C1685 C 0.25807 0.02243 0.06416 0.0
C1686 C 0.32278 0.98166 0.93434 0.0
C1687 C 0.31778 0.98133 0.95293 0.0
C1688 C 0.29498 0.02744 0.99022 0.0
C1689 C 0.28261 0.00367 0.0382 0.0
C1690 C 0.28738 0.00299 0.01849 0.0
C1691 C 0.3009 1.00174 0.96097 0.0
C1692 C 0.29626 1.00205 0.98082 0.0
H1693 H 0.30826 0.97632 0.07706 0.0
H1694 H 0.31482 0.97375 0.0445 0.0
H1695 H 0.28964 0.04775 0.01573 0.0
H1696 H 0.28499 0.03941 0.92359 0.0
H1697 H 0.27533 0.03799 0.9556 0.0
C1698 C 0.02739 0.70504 0.92259 0.0
C1699 C 1.00272 0.70418 0.91244 0.0
C1700 C 0.02717 0.69855 0.94096 0.0
C1701 C 0.98009 0.69582 0.98009 0.0
H1702 H 0.04149 0.65637 0.0024 0.0
C1703 C 0.98191 0.66641 0.05586 0.0
C1704 C 0.00679 0.67245 0.06499 0.0
C1705 C 0.98055 0.66829 0.03705 0.0
C1706 C 0.02428 0.66752 -0.00366 0.0
H1707 H 0.95849 0.69544 0.91367 0.0
H1708 H 0.95827 0.6834 0.94561 0.0
H1709 H 0.04063 0.66243 0.96967 0.0
H1710 H 0.04987 0.68465 0.06158 0.0
H1711 H 0.04744 0.68818 0.02877 0.0
H1712 H 0.96384 0.70098 0.00682 0.0
C1713 C 0.97772 0.68949 0.93939 0.0
C1714 C 0.02379 0.67103 0.97763 0.0
C1715 C 0.97792 0.69607 0.92101 0.0
C1716 C 0.03032 0.68023 0.05494 0.0
C1717 C 0.02903 0.68191 0.03615 0.0
C1718 C 0.98051 0.69218 -0.00119 0.0
C1719 C 1.00229 0.69094 0.9496 0.0
C1720 C 1.00188 0.68554 0.96932 0.0
C1721 C 0.00413 0.67599 0.02703 0.0
C1722 C 0.00279 0.67832 0.00712 0.0
H1723 H 0.0469 0.71084 0.91636 0.0
H1724 H 0.04642 0.70016 0.94849 0.0
H1725 H 0.96312 0.70745 0.97414 0.0
H1726 H 0.96343 0.66054 0.06329 0.0
H1727 H 0.96114 0.66348 0.03032 0.0
loop_
_geom_bond_atom_site_label_1
_geom_bond_atom_site_label_2
_geom_bond_distance
_geom_bond_site_symmetry_2
_ccdc_geom_bond_type
C0 C1 1.351 . S
C0 N3 1.368 . S
C0 H5 0.931 . S
C1 C0 1.351 . S
C1 N2 1.373 . S
C1 H29 0.930 . S
N2 C1 1.373 . S
N2 C4 1.340 . S
N3 C0 1.368 . S
N3 C4 1.321 . S
N3 Co6 2.135 . S
C4 N2 1.340 . S
C4 N3 1.321 . S
C4 H28 0.930 . S
H5 C0 0.931 . S
Co6 N3 2.135 . S
Co6 N9 2.121 . S
Co6 O14 2.055 . S
Co6 O17 2.039 . S
Co6 N20 2.140 . S
C7 O8 1.227 . S
C7 O17 1.265 . S
O8 C7 1.227 . S
N9 Co6 2.121 . S
N9 C11 1.375 . S
N9 C12 1.313 . S
C10 C11 1.338 . S
C10 N13 1.377 . S
C10 H30 0.930 . S
C11 N9 1.375 . S
C11 C10 1.338 . S
C11 H15 0.931 . S
C12 N9 1.313 . S
C12 N13 1.344 . S
C12 H16 0.930 . S
N13 C10 1.377 . S
N13 C12 1.344 . S
O14 Co6 2.055 . S
O14 C18 1.253 . S
H15 C11 0.931 . S
H16 C12 0.930 . S
O17 Co6 2.039 . S
O17 C7 1.265 . S
C18 O14 1.253 . S
C18 O19 1.227 . S
O19 C18 1.227 . S
N20 Co6 2.140 . S
N20 C23 1.346 . S
N20 C24 1.345 . S
C21 C22 1.387 . S
C21 C25 1.391 . S
C22 C21 1.387 . S
C22 C23 1.369 . S
C22 H31 0.929 . S
C23 N20 1.346 . S
C23 C22 1.369 . S
C23 H26 0.928 . S
C24 N20 1.345 . S
C24 C25 1.371 . S
C24 H27 0.931 . S
C25 C21 1.391 . S
C25 C24 1.371 . S
C25 H32 0.930 . S
H26 C23 0.928 . S
H27 C24 0.931 . S
H28 C4 0.930 . S
H29 C1 0.930 . S
H30 C10 0.930 . S
H31 C22 0.929 . S
H32 C25 0.930 . S
C33 C34 1.351 . S
C33 N36 1.368 . S
C33 H38 0.931 . S
C34 C33 1.351 . S
C34 N35 1.373 . S
C34 H62 0.930 . S
N35 C34 1.373 . S
N35 C37 1.340 . S
N36 C33 1.368 . S
N36 C37 1.321 . S
N36 Co39 2.135 . S
C37 N35 1.340 . S
C37 N36 1.321 . S
C37 H61 0.930 . S
H38 C33 0.931 . S
Co39 N36 2.135 . S
Co39 N42 2.121 . S
Co39 O47 2.055 . S
Co39 O50 2.039 . S
Co39 N53 2.140 . S
C40 O41 1.227 . S
C40 O50 1.265 . S
O41 C40 1.227 . S
N42 Co39 2.121 . S
N42 C44 1.375 . S
N42 C45 1.313 . S
C43 C44 1.338 . S
C43 N46 1.377 . S
C43 H63 0.930 . S
C44 N42 1.375 . S
C44 C43 1.338 . S
C44 H48 0.931 . S
C45 N42 1.313 . S
C45 N46 1.344 . S
C45 H49 0.930 . S
N46 C43 1.377 . S
N46 C45 1.344 . S
O47 Co39 2.055 . S
O47 C51 1.253 . S
H48 C44 0.931 . S
H49 C45 0.930 . S
O50 Co39 2.039 . S
O50 C40 1.265 . S
C51 O47 1.253 . S
C51 O52 1.227 . S
O52 C51 1.227 . S
N53 Co39 2.140 . S
N53 C56 1.346 . S
N53 C57 1.345 . S
C54 C55 1.387 . S
C54 C58 1.391 . S
C55 C54 1.387 . S
C55 C56 1.369 . S
C55 H64 0.929 . S
C56 N53 1.346 . S
C56 C55 1.369 . S
C56 H59 0.928 . S
C57 N53 1.345 . S
C57 C58 1.371 . S
C57 H60 0.931 . S
C58 C54 1.391 . S
C58 C57 1.371 . S
C58 H65 0.930 . S
H59 C56 0.928 . S
H60 C57 0.931 . S
H61 C37 0.930 . S
H62 C34 0.930 . S
H63 C43 0.930 . S
H64 C55 0.929 . S
H65 C58 0.930 . S
C66 C67 1.351 . S
C66 N69 1.368 . S
C66 H71 0.931 . S
C67 C66 1.351 . S
C67 N68 1.373 . S
C67 H95 0.930 . S
N68 C67 1.373 . S
N68 C70 1.340 . S
N69 C66 1.368 . S
N69 C70 1.321 . S
N69 Co72 2.135 . S
C70 N68 1.340 . S
C70 N69 1.321 . S
C70 H94 0.930 . S
H71 C66 0.931 . S
Co72 N69 2.135 . S
Co72 N75 2.121 . S
Co72 O80 2.055 . S
Co72 O83 2.039 . S
Co72 N86 2.140 . S
C73 O74 1.227 . S
C73 O83 1.265 . S
O74 C73 1.227 . S
N75 Co72 2.121 . S
N75 C77 1.375 . S
N75 C78 1.313 . S
C76 C77 1.338 . S
C76 N79 1.377 . S
C76 H96 0.930 . S
C77 N75 1.375 . S
C77 C76 1.338 . S
C77 H81 0.931 . S
C78 N75 1.313 . S
C78 N79 1.344 . S
C78 H82 0.930 . S
N79 C76 1.377 . S
N79 C78 1.344 . S
O80 Co72 2.055 . S
O80 C84 1.253 . S
H81 C77 0.931 . S
H82 C78 0.930 . S
O83 Co72 2.039 . S
O83 C73 1.265 . S
C84 O80 1.253 . S
C84 O85 1.227 . S
O85 C84 1.227 . S
N86 Co72 2.140 . S
N86 C89 1.346 . S
N86 C90 1.345 . S
C87 C88 1.387 . S
C87 C91 1.391 . S
C88 C87 1.387 . S
C88 C89 1.369 . S
C88 H97 0.929 . S
C89 N86 1.346 . S
C89 C88 1.369 . S
C89 H92 0.928 . S
C90 N86 1.345 . S
C90 C91 1.371 . S
C90 H93 0.931 . S
C91 C87 1.391 . S
C91 C90 1.371 . S
C91 H98 0.930 . S
H92 C89 0.928 . S
H93 C90 0.931 . S
H94 C70 0.930 . S
H95 C67 0.930 . S
H96 C76 0.930 . S
H97 C88 0.929 . S
H98 C91 0.930 . S
C99 C100 1.351 . S
C99 N102 1.368 . S
C99 H104 0.931 . S
C100 C99 1.351 . S
C100 N101 1.373 . S
C100 H128 0.930 . S
N101 C100 1.373 . S
N101 C103 1.340 . S
N102 C99 1.368 . S
N102 C103 1.321 . S
N102 Co105 2.135 . S
C103 N101 1.340 . S
C103 N102 1.321 . S
C103 H127 0.930 . S
H104 C99 0.931 . S
Co105 N102 2.135 . S
Co105 N108 2.121 . S
Co105 O113 2.055 . S
Co105 O116 2.039 . S
Co105 N119 2.140 . S
C106 O107 1.227 . S
C106 O116 1.265 . S
O107 C106 1.227 . S
N108 Co105 2.121 . S
N108 C110 1.375 . S
N108 C111 1.313 . S
C109 C110 1.338 . S
C109 N112 1.377 . S
C109 H129 0.930 . S
C110 N108 1.375 . S
C110 C109 1.338 . S
C110 H114 0.931 . S
C111 N108 1.313 . S
C111 N112 1.344 . S
C111 H115 0.930 . S
N112 C109 1.377 . S
N112 C111 1.344 . S
O113 Co105 2.055 . S
O113 C117 1.253 . S
H114 C110 0.931 . S
H115 C111 0.930 . S
O116 Co105 2.039 . S
O116 C106 1.265 . S
C117 O113 1.253 . S
C117 O118 1.227 . S
O118 C117 1.227 . S
N119 Co105 2.140 . S
N119 C122 1.346 . S
N119 C123 1.345 . S
C120 C121 1.387 . S
C120 C124 1.391 . S
C121 C120 1.387 . S
C121 C122 1.369 . S
C121 H130 0.929 . S
C122 N119 1.346 . S
C122 C121 1.369 . S
C122 H125 0.928 . S
C123 N119 1.345 . S
C123 C124 1.371 . S
C123 H126 0.931 . S
C124 C120 1.391 . S
C124 C123 1.371 . S
C124 H131 0.930 . S
H125 C122 0.928 . S
H126 C123 0.931 . S
H127 C103 0.930 . S
H128 C100 0.930 . S
H129 C109 0.930 . S
H130 C121 0.929 . S
H131 C124 0.930 . S
C132 C133 1.351 . S
C132 N135 1.368 . S
C132 H137 0.931 . S
C133 C132 1.351 . S
C133 N134 1.373 . S
C133 H161 0.930 . S
N134 C133 1.373 . S
N134 C136 1.340 . S
N135 C132 1.368 . S
N135 C136 1.321 . S
N135 Co138 2.135 . S
C136 N134 1.340 . S
C136 N135 1.321 . S
C136 H160 0.930 . S
H137 C132 0.931 . S
Co138 N135 2.135 . S
Co138 N141 2.121 . S
Co138 O146 2.055 . S
Co138 O149 2.039 . S
Co138 N152 2.140 . S
C139 O140 1.227 . S
C139 O149 1.265 . S
O140 C139 1.227 . S
N141 Co138 2.121 . S
N141 C143 1.375 . S
N141 C144 1.313 . S
C142 C143 1.338 . S
C142 N145 1.377 . S
C142 H162 0.930 . S
C143 N141 1.375 . S
C143 C142 1.338 . S
C143 H147 0.931 . S
C144 N141 1.313 . S
C144 N145 1.344 . S
C144 H148 0.930 . S
N145 C142 1.377 . S
N145 C144 1.344 . S
O146 Co138 2.055 . S
O146 C150 1.253 . S
H147 C143 0.931 . S
H148 C144 0.930 . S
O149 Co138 2.039 . S
O149 C139 1.265 . S
C150 O146 1.253 . S
C150 O151 1.227 . S
O151 C150 1.227 . S
N152 Co138 2.140 . S
N152 C155 1.346 . S
N152 C156 1.345 . S
C153 C154 1.387 . S
C153 C157 1.391 . S
C154 C153 1.387 . S
C154 C155 1.369 . S
C154 H163 0.929 . S
C155 N152 1.346 . S
C155 C154 1.369 . S
C155 H158 0.928 . S
C156 N152 1.345 . S
C156 C157 1.371 . S
C156 H159 0.931 . S
C157 C153 1.391 . S
C157 C156 1.371 . S
C157 H164 0.930 . S
H158 C155 0.928 . S
H159 C156 0.931 . S
H160 C136 0.930 . S
H161 C133 0.930 . S
H162 C142 0.930 . S
H163 C154 0.929 . S
H164 C157 0.930 . S
C165 C166 1.351 . S
C165 N168 1.368 . S
C165 H170 0.931 . S
C166 C165 1.351 . S
C166 N167 1.373 . S
C166 H194 0.930 . S
N167 C166 1.373 . S
N167 C169 1.340 . S
N168 C165 1.368 . S
N168 C169 1.321 . S
N168 Co171 2.135 . S
C169 N167 1.340 . S
C169 N168 1.321 . S
C169 H193 0.930 . S
H170 C165 0.931 . S
Co171 N168 2.135 . S
Co171 N174 2.121 . S
Co171 O179 2.055 . S
Co171 O182 2.039 . S
Co171 N185 2.140 . S
C172 O173 1.227 . S
C172 O182 1.265 . S
O173 C172 1.227 . S
N174 Co171 2.121 . S
N174 C176 1.375 . S
N174 C177 1.313 . S
C175 C176 1.338 . S
C175 N178 1.377 . S
C175 H195 0.930 . S
C176 N174 1.375 . S
C176 C175 1.338 . S
C176 H180 0.931 . S
C177 N174 1.313 . S
C177 N178 1.344 . S
C177 H181 0.930 . S
N178 C175 1.377 . S
N178 C177 1.344 . S
O179 Co171 2.055 . S
O179 C183 1.253 . S
H180 C176 0.931 . S
H181 C177 0.930 . S
O182 Co171 2.039 . S
O182 C172 1.265 . S
C183 O179 1.253 . S
C183 O184 1.227 . S
O184 C183 1.227 . S
N185 Co171 2.140 . S
N185 C188 1.346 . S
N185 C189 1.345 . S
C186 C187 1.387 . S
C186 C190 1.391 . S
C187 C186 1.387 . S
C187 C188 1.369 . S
C187 H196 0.929 . S
C188 N185 1.346 . S
C188 C187 1.369 . S
C188 H191 0.928 . S
C189 N185 1.345 . S
C189 C190 1.371 . S
C189 H192 0.931 . S
C190 C186 1.391 . S
C190 C189 1.371 . S
C190 H197 0.930 . S
H191 C188 0.928 . S
H192 C189 0.931 . S
H193 C169 0.930 . S
H194 C166 0.930 . S
H195 C175 0.930 . S
H196 C187 0.929 . S
H197 C190 0.930 . S
C198 C199 1.351 . S
C198 N201 1.368 . S
C198 H203 0.931 . S
C199 C198 1.351 . S
C199 N200 1.373 . S
C199 H227 0.930 . S
N200 C199 1.373 . S
N200 C202 1.340 . S
N201 C198 1.368 . S
N201 C202 1.321 . S
N201 Co204 2.135 . S
C202 N200 1.340 . S
C202 N201 1.321 . S
C202 H226 0.930 . S
H203 C198 0.931 . S
Co204 N201 2.135 . S
Co204 N207 2.121 . S
Co204 O212 2.055 . S
Co204 O215 2.039 . S
Co204 N218 2.140 . S
C205 O206 1.227 . S
C205 O215 1.265 . S
O206 C205 1.227 . S
N207 Co204 2.121 . S
N207 C209 1.375 . S
N207 C210 1.313 . S
C208 C209 1.338 . S
C208 N211 1.377 . S
C208 H228 0.930 . S
C209 N207 1.375 . S
C209 C208 1.338 . S
C209 H213 0.931 . S
C210 N207 1.313 . S
C210 N211 1.344 . S
C210 H214 0.930 . S
N211 C208 1.377 . S
N211 C210 1.344 . S
O212 Co204 2.055 . S
O212 C216 1.253 . S
H213 C209 0.931 . S
H214 C210 0.930 . S
O215 Co204 2.039 . S
O215 C205 1.265 . S
C216 O212 1.253 . S
C216 O217 1.227 . S
O217 C216 1.227 . S
N218 Co204 2.140 . S
N218 C221 1.346 . S
N218 C222 1.345 . S
C219 C220 1.387 . S
C219 C223 1.391 . S
C220 C219 1.387 . S
C220 C221 1.369 . S
C220 H229 0.929 . S
C221 N218 1.346 . S
C221 C220 1.369 . S
C221 H224 0.928 . S
C222 N218 1.345 . S
C222 C223 1.371 . S
C222 H225 0.931 . S
C223 C219 1.391 . S
C223 C222 1.371 . S
C223 H230 0.930 . S
H224 C221 0.928 . S
H225 C222 0.931 . S
H226 C202 0.930 . S
H227 C199 0.930 . S
H228 C208 0.930 . S
H229 C220 0.929 . S
H230 C223 0.930 . S
C231 C232 1.351 . S
C231 N234 1.368 . S
C231 H236 0.931 . S
C232 C231 1.351 . S
C232 N233 1.373 . S
C232 H260 0.930 . S
N233 C232 1.373 . S
N233 C235 1.340 . S
N234 C231 1.368 . S
N234 C235 1.321 . S
N234 Co237 2.135 . S
C235 N233 1.340 . S
C235 N234 1.321 . S
C235 H259 0.930 . S
H236 C231 0.931 . S
Co237 N234 2.135 . S
Co237 N240 2.121 . S
Co237 O245 2.055 . S
Co237 O248 2.039 . S
Co237 N251 2.140 . S
C238 O239 1.227 . S
C238 O248 1.265 . S
O239 C238 1.227 . S
N240 Co237 2.121 . S
N240 C242 1.375 . S
N240 C243 1.313 . S
C241 C242 1.338 . S
C241 N244 1.377 . S
C241 H261 0.930 . S
C242 N240 1.375 . S
C242 C241 1.338 . S
C242 H246 0.931 . S
C243 N240 1.313 . S
C243 N244 1.344 . S
C243 H247 0.930 . S
N244 C241 1.377 . S
N244 C243 1.344 . S
O245 Co237 2.055 . S
O245 C249 1.253 . S
H246 C242 0.931 . S
H247 C243 0.930 . S
O248 Co237 2.039 . S
O248 C238 1.265 . S
C249 O245 1.253 . S
C249 O250 1.227 . S
O250 C249 1.227 . S
N251 Co237 2.140 . S
N251 C254 1.346 . S
N251 C255 1.345 . S
C252 C253 1.387 . S
C252 C256 1.391 . S
C253 C252 1.387 . S
C253 C254 1.369 . S
C253 H262 0.929 . S
C254 N251 1.346 . S
C254 C253 1.369 . S
C254 H257 0.928 . S
C255 N251 1.345 . S
C255 C256 1.371 . S
C255 H258 0.931 . S
C256 C252 1.391 . S
C256 C255 1.371 . S
C256 H263 0.930 . S
H257 C254 0.928 . S
H258 C255 0.931 . S
H259 C235 0.930 . S
H260 C232 0.930 . S
H261 C241 0.930 . S
H262 C253 0.929 . S
H263 C256 0.930 . S
C264 C265 1.351 . S
C264 N267 1.368 . S
C264 H269 0.931 . S
C265 C264 1.351 . S
C265 N266 1.373 . S
C265 H293 0.930 . S
N266 C265 1.373 . S
N266 C268 1.340 . S
N267 C264 1.368 . S
N267 C268 1.321 . S
N267 Co270 2.135 . S
C268 N266 1.340 . S
C268 N267 1.321 . S
C268 H292 0.930 . S
H269 C264 0.931 . S
Co270 N267 2.135 . S
Co270 N273 2.121 . S
Co270 O278 2.055 . S
Co270 O281 2.039 . S
Co270 N284 2.140 . S
C271 O272 1.227 . S
C271 O281 1.265 . S
O272 C271 1.227 . S
N273 Co270 2.121 . S
N273 C275 1.375 . S
N273 C276 1.313 . S
C274 C275 1.338 1_545 S
C274 N277 1.377 1_545 S
C274 H294 0.930 . S
C275 N273 1.375 . S
C275 C274 1.338 1_565 S
C275 H279 0.931 1_565 S
C276 N273 1.313 . S
C276 N277 1.344 . S
C276 H280 0.930 . S
N277 C274 1.377 1_565 S
N277 C276 1.344 . S
O278 Co270 2.055 . S
O278 C282 1.253 . S
H279 C275 0.931 1_545 S
H280 C276 0.930 . S
O281 Co270 2.039 . S
O281 C271 1.265 . S
C282 O278 1.253 . S
C282 O283 1.227 . S
O283 C282 1.227 . S
N284 Co270 2.140 . S
N284 C287 1.346 . S
N284 C288 1.345 1_565 S
C285 C286 1.387 . S
C285 C289 1.391 . S
C286 C285 1.387 . S
C286 C287 1.369 1_545 S
C286 H295 0.929 . S
C287 N284 1.346 . S
C287 C286 1.369 1_565 S
C287 H290 0.928 . S
C288 N284 1.345 1_545 S
C288 C289 1.371 . S
C288 H291 0.931 . S
C289 C285 1.391 . S
C289 C288 1.371 . S
C289 H296 0.930 . S
H290 C287 0.928 . S
H291 C288 0.931 . S
H292 C268 0.930 . S
H293 C265 0.930 . S
H294 C274 0.930 . S
H295 C286 0.929 . S
H296 C289 0.930 . S
C297 C298 1.351 . S
C297 N300 1.368 . S
C297 H302 0.931 . S
C298 C297 1.351 . S
C298 N299 1.373 . S
C298 H326 0.930 . S
N299 C298 1.373 . S
N299 C301 1.340 . S
N300 C297 1.368 . S
N300 C301 1.321 . S
N300 Co303 2.135 . S
C301 N299 1.340 . S
C301 N300 1.321 . S
C301 H325 0.930 . S
H302 C297 0.931 . S
Co303 N300 2.135 . S
Co303 N306 2.121 . S
Co303 O311 2.055 . S
Co303 O314 2.039 . S
Co303 N317 2.140 . S
C304 O305 1.227 . S
C304 O314 1.265 . S
O305 C304 1.227 . S
N306 Co303 2.121 . S
N306 C308 1.375 . S
N306 C309 1.313 . S
C307 C308 1.338 1_455 S
C307 N310 1.377 1_455 S
C307 H327 0.930 . S
C308 N306 1.375 . S
C308 C307 1.338 1_655 S
C308 H312 0.931 1_655 S
C309 N306 1.313 . S
C309 N310 1.344 . S
C309 H313 0.930 . S
N310 C307 1.377 1_655 S
N310 C309 1.344 . S
O311 Co303 2.055 . S
O311 C315 1.253 . S
H312 C308 0.931 1_455 S
H313 C309 0.930 . S
O314 Co303 2.039 . S
O314 C304 1.265 . S
C315 O311 1.253 . S
C315 O316 1.227 . S
O316 C315 1.227 . S
N317 Co303 2.140 . S
N317 C320 1.346 . S
N317 C321 1.345 1_655 S
C318 C319 1.387 . S
C318 C322 1.391 . S
C319 C318 1.387 . S
C319 C320 1.369 1_455 S
C319 H328 0.929 . S
C320 N317 1.346 . S
C320 C319 1.369 1_655 S
C320 H323 0.928 . S
C321 N317 1.345 1_455 S
C321 C322 1.371 . S
C321 H324 0.931 . S
C322 C318 1.391 . S
C322 C321 1.371 . S
C322 H329 0.930 . S
H323 C320 0.928 . S
H324 C321 0.931 . S
H325 C301 0.930 . S
H326 C298 0.930 . S
H327 C307 0.930 . S
H328 C319 0.929 . S
H329 C322 0.930 . S
C330 C331 1.351 . S
C330 N333 1.368 . S
C330 H335 0.931 . S
C331 C330 1.351 . S
C331 N332 1.373 . S
C331 H359 0.930 . S
N332 C331 1.373 . S
N332 C334 1.340 . S
N333 C330 1.368 . S
N333 C334 1.321 . S
N333 Co336 2.135 . S
C334 N332 1.340 . S
C334 N333 1.321 . S
C334 H358 0.930 . S
H335 C330 0.931 . S
Co336 N333 2.135 . S
Co336 N339 2.121 . S
Co336 O344 2.055 . S
Co336 O347 2.039 . S
Co336 N350 2.140 . S
C337 O338 1.227 . S
C337 O347 1.265 . S
O338 C337 1.227 . S
N339 Co336 2.121 . S
N339 C341 1.375 . S
N339 C342 1.313 . S
C340 C341 1.338 1_565 S
C340 N343 1.377 1_565 S
C340 H360 0.930 . S
C341 N339 1.375 . S
C341 C340 1.338 1_545 S
C341 H345 0.931 1_545 S
C342 N339 1.313 . S
C342 N343 1.344 . S
C342 H346 0.930 . S
N343 C340 1.377 1_545 S
N343 C342 1.344 . S
O344 Co336 2.055 . S
O344 C348 1.253 . S
H345 C341 0.931 1_565 S
H346 C342 0.930 . S
O347 Co336 2.039 . S
O347 C337 1.265 . S
C348 O344 1.253 . S
C348 O349 1.227 . S
O349 C348 1.227 . S
N350 Co336 2.140 . S
N350 C353 1.346 . S
N350 C354 1.345 1_545 S
C351 C352 1.387 . S
C351 C355 1.391 . S
C352 C351 1.387 . S
C352 C353 1.369 1_565 S
C352 H361 0.929 . S
C353 N350 1.346 . S
C353 C352 1.369 1_545 S
C353 H356 0.928 . S
C354 N350 1.345 1_565 S
C354 C355 1.371 . S
C354 H357 0.931 . S
C355 C351 1.391 . S
C355 C354 1.371 . S
C355 H362 0.930 . S
H356 C353 0.928 . S
H357 C354 0.931 . S
H358 C334 0.930 . S
H359 C331 0.930 . S
H360 C340 0.930 . S
H361 C352 0.929 . S
H362 C355 0.930 . S
C363 C364 1.351 . S
C363 N366 1.368 . S
C363 H368 0.931 . S
C364 C363 1.351 . S
C364 N365 1.373 . S
C364 H392 0.930 . S
N365 C364 1.373 . S
N365 C367 1.340 . S
N366 C363 1.368 . S
N366 C367 1.321 . S
N366 Co369 2.135 . S
C367 N365 1.340 . S
C367 N366 1.321 . S
C367 H391 0.930 . S
H368 C363 0.931 . S
Co369 N366 2.135 . S
Co369 N372 2.121 . S
Co369 O377 2.055 . S
Co369 O380 2.039 . S
Co369 N383 2.140 . S
C370 O371 1.227 . S
C370 O380 1.265 . S
O371 C370 1.227 . S
N372 Co369 2.121 . S
N372 C374 1.375 . S
N372 C375 1.313 . S
C373 C374 1.338 1_655 S
C373 N376 1.377 1_655 S
C373 H393 0.930 . S
C374 N372 1.375 . S
C374 C373 1.338 1_455 S
C374 H378 0.931 1_455 S
C375 N372 1.313 . S
C375 N376 1.344 . S
C375 H379 0.930 . S
N376 C373 1.377 1_455 S
N376 C375 1.344 . S
O377 Co369 2.055 . S
O377 C381 1.253 . S
H378 C374 0.931 1_655 S
H379 C375 0.930 . S
O380 Co369 2.039 . S
O380 C370 1.265 . S
C381 O377 1.253 . S
C381 O382 1.227 . S
O382 C381 1.227 . S
N383 Co369 2.140 . S
N383 C386 1.346 . S
N383 C387 1.345 1_455 S
C384 C385 1.387 . S
C384 C388 1.391 . S
C385 C384 1.387 . S
C385 C386 1.369 1_655 S
C385 H394 0.929 . S
C386 N383 1.346 . S
C386 C385 1.369 1_455 S
C386 H389 0.928 . S
C387 N383 1.345 1_655 S
C387 C388 1.371 . S
C387 H390 0.931 . S
C388 C384 1.391 . S
C388 C387 1.371 . S
C388 H395 0.930 . S
H389 C386 0.928 . S
H390 C387 0.931 . S
H391 C367 0.930 . S
H392 C364 0.930 . S
H393 C373 0.930 . S
H394 C385 0.929 . S
H395 C388 0.930 . S
C396 C397 1.351 . S
C396 N399 1.368 . S
C396 H401 0.931 . S
C397 C396 1.351 . S
C397 N398 1.373 . S
C397 H425 0.930 . S
N398 C397 1.373 . S
N398 C400 1.340 . S
N399 C396 1.368 . S
N399 C400 1.321 . S
N399 Co402 2.135 . S
C400 N398 1.340 . S
C400 N399 1.321 . S
C400 H424 0.930 . S
H401 C396 0.931 . S
Co402 N399 2.135 . S
Co402 N405 2.121 . S
Co402 O410 2.055 . S
Co402 O413 2.039 . S
Co402 N416 2.140 . S
C403 O404 1.227 . S
C403 O413 1.265 . S
O404 C403 1.227 . S
N405 Co402 2.121 . S
N405 C407 1.375 . S
N405 C408 1.313 . S
C406 C407 1.338 1_565 S
C406 N409 1.377 1_565 S
C406 H426 0.930 . S
C407 N405 1.375 . S
C407 C406 1.338 1_545 S
C407 H411 0.931 1_545 S
C408 N405 1.313 . S
C408 N409 1.344 . S
C408 H412 0.930 . S
N409 C406 1.377 1_545 S
N409 C408 1.344 . S
O410 Co402 2.055 . S
O410 C414 1.253 . S
H411 C407 0.931 1_565 S
H412 C408 0.930 . S
O413 Co402 2.039 . S
O413 C403 1.265 . S
C414 O410 1.253 . S
C414 O415 1.227 . S
O415 C414 1.227 . S
N416 Co402 2.140 . S
N416 C419 1.346 . S
N416 C420 1.345 1_545 S
C417 C418 1.387 . S
C417 C421 1.391 . S
C418 C417 1.387 . S
C418 C419 1.369 1_565 S
C418 H427 0.929 . S
C419 N416 1.346 . S
C419 C418 1.369 1_545 S
C419 H422 0.928 . S
C420 N416 1.345 1_565 S
C420 C421 1.371 . S
C420 H423 0.931 . S
C421 C417 1.391 . S
C421 C420 1.371 . S
C421 H428 0.930 . S
H422 C419 0.928 . S
H423 C420 0.931 . S
H424 C400 0.930 . S
H425 C397 0.930 . S
H426 C406 0.930 . S
H427 C418 0.929 . S
H428 C421 0.930 . S
C429 C430 1.351 . S
C429 N432 1.368 . S
C429 H434 0.931 . S
C430 C429 1.351 . S
C430 N431 1.373 . S
C430 H458 0.930 . S
N431 C430 1.373 . S
N431 C433 1.340 . S
N432 C429 1.368 . S
N432 C433 1.321 . S
N432 Co435 2.135 . S
C433 N431 1.340 . S
C433 N432 1.321 . S
C433 H457 0.930 . S
H434 C429 0.931 . S
Co435 N432 2.135 . S
Co435 N438 2.121 . S
Co435 O443 2.055 . S
Co435 O446 2.039 . S
Co435 N449 2.140 . S
C436 O437 1.227 . S
C436 O446 1.265 . S
O437 C436 1.227 . S
N438 Co435 2.121 . S
N438 C440 1.375 . S
N438 C441 1.313 . S
C439 C440 1.338 1_655 S
C439 N442 1.377 1_655 S
C439 H459 0.930 . S
C440 N438 1.375 . S
C440 C439 1.338 1_455 S
C440 H444 0.931 1_455 S
C441 N438 1.313 . S
C441 N442 1.344 . S
C441 H445 0.930 . S
N442 C439 1.377 1_455 S
N442 C441 1.344 . S
O443 Co435 2.055 . S
O443 C447 1.253 . S
H444 C440 0.931 1_655 S
H445 C441 0.930 . S
O446 Co435 2.039 . S
O446 C436 1.265 . S
C447 O443 1.253 . S
C447 O448 1.227 . S
O448 C447 1.227 . S
N449 Co435 2.140 . S
N449 C452 1.346 . S
N449 C453 1.345 1_455 S
C450 C451 1.387 . S
C450 C454 1.391 . S
C451 C450 1.387 . S
C451 C452 1.369 1_655 S
C451 H460 0.929 . S
C452 N449 1.346 . S
C452 C451 1.369 1_455 S
C452 H455 0.928 . S
C453 N449 1.345 1_655 S
C453 C454 1.371 . S
C453 H456 0.931 . S
C454 C450 1.391 . S
C454 C453 1.371 . S
C454 H461 0.930 . S
H455 C452 0.928 . S
H456 C453 0.931 . S
H457 C433 0.930 . S
H458 C430 0.930 . S
H459 C439 0.930 . S
H460 C451 0.929 . S
H461 C454 0.930 . S
C462 C463 1.351 . S
C462 N465 1.368 . S
C462 H467 0.931 . S
C463 C462 1.351 . S
C463 N464 1.373 . S
C463 H491 0.930 . S
N464 C463 1.373 . S
N464 C466 1.340 . S
N465 C462 1.368 . S
N465 C466 1.321 . S
N465 Co468 2.135 . S
C466 N464 1.340 . S
C466 N465 1.321 . S
C466 H490 0.930 . S
H467 C462 0.931 . S
Co468 N465 2.135 . S
Co468 N471 2.121 . S
Co468 O476 2.055 . S
Co468 O479 2.039 . S
Co468 N482 2.140 . S
C469 O470 1.227 . S
C469 O479 1.265 . S
O470 C469 1.227 . S
N471 Co468 2.121 . S
N471 C473 1.375 . S
N471 C474 1.313 . S
C472 C473 1.338 1_545 S
C472 N475 1.377 1_545 S
C472 H492 0.930 . S
C473 N471 1.375 . S
C473 C472 1.338 1_565 S
C473 H477 0.931 1_565 S
C474 N471 1.313 . S
C474 N475 1.344 . S
C474 H478 0.930 . S
N475 C472 1.377 1_565 S
N475 C474 1.344 . S
O476 Co468 2.055 . S
O476 C480 1.253 . S
H477 C473 0.931 1_545 S
H478 C474 0.930 . S
O479 Co468 2.039 . S
O479 C469 1.265 . S
C480 O476 1.253 . S
C480 O481 1.227 . S
O481 C480 1.227 . S
N482 Co468 2.140 . S
N482 C485 1.346 . S
N482 C486 1.345 1_565 S
C483 C484 1.387 . S
C483 C487 1.391 . S
C484 C483 1.387 . S
C484 C485 1.369 1_545 S
C484 H493 0.929 . S
C485 N482 1.346 . S
C485 C484 1.369 1_565 S
C485 H488 0.928 . S
C486 N482 1.345 1_545 S
C486 C487 1.371 . S
C486 H489 0.931 . S
C487 C483 1.391 . S
C487 C486 1.371 . S
C487 H494 0.930 . S
H488 C485 0.928 . S
H489 C486 0.931 . S
H490 C466 0.930 . S
H491 C463 0.930 . S
H492 C472 0.930 . S
H493 C484 0.929 . S
H494 C487 0.930 . S
C495 C496 1.351 . S
C495 N498 1.368 . S
C495 H500 0.931 . S
C496 C495 1.351 . S
C496 N497 1.373 . S
C496 H524 0.930 . S
N497 C496 1.373 . S
N497 C499 1.340 . S
N498 C495 1.368 . S
N498 C499 1.321 . S
N498 Co501 2.135 . S
C499 N497 1.340 . S
C499 N498 1.321 . S
C499 H523 0.930 . S
H500 C495 0.931 . S
Co501 N498 2.135 . S
Co501 N504 2.121 . S
Co501 O509 2.055 . S
Co501 O512 2.039 . S
Co501 N515 2.140 . S
C502 O503 1.227 . S
C502 O512 1.265 . S
O503 C502 1.227 . S
N504 Co501 2.121 . S
N504 C506 1.375 . S
N504 C507 1.313 . S
C505 C506 1.338 1_455 S
C505 N508 1.377 1_455 S
C505 H525 0.930 . S
C506 N504 1.375 . S
C506 C505 1.338 1_655 S
C506 H510 0.931 1_655 S
C507 N504 1.313 . S
C507 N508 1.344 . S
C507 H511 0.930 . S
N508 C505 1.377 1_655 S
N508 C507 1.344 . S
O509 Co501 2.055 . S
O509 C513 1.253 . S
H510 C506 0.931 1_455 S
H511 C507 0.930 . S
O512 Co501 2.039 . S
O512 C502 1.265 . S
C513 O509 1.253 . S
C513 O514 1.227 . S
O514 C513 1.227 . S
N515 Co501 2.140 . S
N515 C518 1.346 . S
N515 C519 1.345 1_655 S
C516 C517 1.387 . S
C516 C520 1.391 . S
C517 C516 1.387 . S
C517 C518 1.369 1_455 S
C517 H526 0.929 . S
C518 N515 1.346 . S
C518 C517 1.369 1_655 S
C518 H521 0.928 . S
C519 N515 1.345 1_455 S
C519 C520 1.371 . S
C519 H522 0.931 . S
C520 C516 1.391 . S
C520 C519 1.371 . S
C520 H527 0.930 . S
H521 C518 0.928 . S
H522 C519 0.931 . S
H523 C499 0.930 . S
H524 C496 0.930 . S
H525 C505 0.930 . S
H526 C517 0.929 . S
H527 C520 0.930 . S
C528 C529 1.349 . S
C528 C530 1.327 . S
C528 H553 0.950 . S
C529 C528 1.349 . S
C529 C545 1.349 . S
C530 C528 1.327 . S
C530 C549 1.429 . S
C530 H554 0.950 . S
C531 C548 1.574 1_655 S
C531 C550 1.368 . S
C531 H555 0.949 . S
H532 C536 0.949 . S
C533 C534 1.349 . S
C533 C535 1.327 . S
C533 H556 0.950 . S
C534 C533 1.349 . S
C534 C546 1.349 . S
C535 C533 1.327 . S
C535 C551 1.429 . S
C535 H557 0.950 . S
C536 H532 0.949 . S
C536 C544 1.574 1_455 S
C536 C552 1.368 . S
H537 C545 0.950 . S
H538 C543 0.950 . S
H539 C544 0.949 . S
H540 C546 0.950 . S
H541 C547 0.950 . S
H542 C548 0.949 . S
C543 H538 0.950 . S
C543 C545 1.327 . S
C543 C549 1.429 . S
C544 C536 1.574 1_655 S
C544 H539 0.949 . S
C544 C550 1.368 . S
C545 C529 1.349 . S
C545 H537 0.950 . S
C545 C543 1.327 . S
C546 C534 1.349 . S
C546 H540 0.950 . S
C546 C547 1.327 . S
C547 H541 0.950 . S
C547 C546 1.327 . S
C547 C551 1.429 . S
C548 C531 1.574 1_455 S
C548 H542 0.949 . S
C548 C552 1.368 . S
C549 C530 1.429 . S
C549 C543 1.429 . S
C549 C550 1.523 . S
C550 C531 1.368 . S
C550 C544 1.368 . S
C550 C549 1.523 . S
C551 C535 1.429 . S
C551 C547 1.429 . S
C551 C552 1.523 . S
C552 C536 1.368 . S
C552 C548 1.368 . S
C552 C551 1.523 . S
H553 C528 0.950 . S
H554 C530 0.950 . S
H555 C531 0.949 . S
H556 C533 0.950 . S
H557 C535 0.950 . S
C558 C559 1.349 . S
C558 C560 1.327 . S
C558 H583 0.950 . S
C559 C558 1.349 . S
C559 C575 1.349 . S
C560 C558 1.327 . S
C560 C579 1.429 . S
C560 H584 0.950 . S
C561 C578 1.574 1_545 S
C561 C580 1.368 . S
C561 H585 0.949 . S
H562 C566 0.949 . S
C563 C564 1.349 . S
C563 C565 1.327 . S
C563 H586 0.950 . S
C564 C563 1.349 . S
C564 C576 1.349 . S
C565 C563 1.327 . S
C565 C581 1.429 . S
C565 H587 0.950 . S
C566 H562 0.949 . S
C566 C574 1.574 1_565 S
C566 C582 1.368 . S
H567 C575 0.950 . S
H568 C573 0.950 . S
H569 C574 0.949 . S
H570 C576 0.950 . S
H571 C577 0.950 . S
H572 C578 0.949 . S
C573 H568 0.950 . S
C573 C575 1.327 . S
C573 C579 1.429 . S
C574 C566 1.574 1_545 S
C574 H569 0.949 . S
C574 C580 1.368 . S
C575 C559 1.349 . S
C575 H567 0.950 . S
C575 C573 1.327 . S
C576 C564 1.349 . S
C576 H570 0.950 . S
C576 C577 1.327 . S
C577 H571 0.950 . S
C577 C576 1.327 . S
C577 C581 1.429 . S
C578 C561 1.574 1_565 S
C578 H572 0.949 . S
C578 C582 1.368 . S
C579 C560 1.429 . S
C579 C573 1.429 . S
C579 C580 1.523 . S
C580 C561 1.368 . S
C580 C574 1.368 . S
C580 C579 1.523 . S
C581 C565 1.429 . S
C581 C577 1.429 . S
C581 C582 1.523 . S
C582 C566 1.368 . S
C582 C578 1.368 . S
C582 C581 1.523 . S
H583 C558 0.950 . S
H584 C560 0.950 . S
H585 C561 0.949 . S
H586 C563 0.950 . S
H587 C565 0.950 . S
C588 C589 1.349 . S
C588 C590 1.327 . S
C588 H613 0.950 . S
C589 C588 1.349 . S
C589 C605 1.349 . S
C590 C588 1.327 . S
C590 C609 1.429 . S
C590 H614 0.950 . S
C591 C608 1.574 1_655 S
C591 C610 1.368 . S
C591 H615 0.949 . S
H592 C596 0.949 . S
C593 C594 1.349 . S
C593 C595 1.327 . S
C593 H616 0.950 . S
C594 C593 1.349 . S
C594 C606 1.349 . S
C595 C593 1.327 . S
C595 C611 1.429 . S
C595 H617 0.950 . S
C596 H592 0.949 . S
C596 C604 1.574 1_455 S
C596 C612 1.368 . S
H597 C605 0.950 . S
H598 C603 0.950 . S
H599 C604 0.949 . S
H600 C606 0.950 . S
H601 C607 0.950 . S
H602 C608 0.949 . S
C603 H598 0.950 . S
C603 C605 1.327 . S
C603 C609 1.429 . S
C604 C596 1.574 1_655 S
C604 H599 0.949 . S
C604 C610 1.368 . S
C605 C589 1.349 . S
C605 H597 0.950 . S
C605 C603 1.327 . S
C606 C594 1.349 . S
C606 H600 0.950 . S
C606 C607 1.327 . S
C607 H601 0.950 . S
C607 C606 1.327 . S
C607 C611 1.429 . S
C608 C591 1.574 1_455 S
C608 H602 0.949 . S
C608 C612 1.368 . S
C609 C590 1.429 . S
C609 C603 1.429 . S
C609 C610 1.523 . S
C610 C591 1.368 . S
C610 C604 1.368 . S
C610 C609 1.523 . S
C611 C595 1.429 . S
C611 C607 1.429 . S
C611 C612 1.523 . S
C612 C596 1.368 . S
C612 C608 1.368 . S
C612 C611 1.523 . S
H613 C588 0.950 . S
H614 C590 0.950 . S
H615 C591 0.949 . S
H616 C593 0.950 . S
H617 C595 0.950 . S
C618 C619 1.349 . S
C618 C620 1.327 . S
C618 H643 0.950 . S
C619 C618 1.349 . S
C619 C635 1.349 . S
C620 C618 1.327 . S
C620 C639 1.429 . S
C620 H644 0.950 . S
C621 C638 1.574 1_565 S
C621 C640 1.368 . S
C621 H645 0.949 . S
H622 C626 0.949 . S
C623 C624 1.349 . S
C623 C625 1.327 . S
C623 H646 0.950 . S
C624 C623 1.349 . S
C624 C636 1.349 . S
C625 C623 1.327 . S
C625 C641 1.429 . S
C625 H647 0.950 . S
C626 H622 0.949 . S
C626 C634 1.574 1_545 S
C626 C642 1.368 . S
H627 C635 0.950 . S
H628 C633 0.950 . S
H629 C634 0.949 . S
H630 C636 0.950 . S
H631 C637 0.950 . S
H632 C638 0.949 . S
C633 H628 0.950 . S
C633 C635 1.327 . S
C633 C639 1.429 . S
C634 C626 1.574 1_565 S
C634 H629 0.949 . S
C634 C640 1.368 . S
C635 C619 1.349 . S
C635 H627 0.950 . S
C635 C633 1.327 . S
C636 C624 1.349 . S
C636 H630 0.950 . S
C636 C637 1.327 . S
C637 H631 0.950 . S
C637 C636 1.327 . S
C637 C641 1.429 . S
C638 C621 1.574 1_545 S
C638 H632 0.949 . S
C638 C642 1.368 . S
C639 C620 1.429 . S
C639 C633 1.429 . S
C639 C640 1.523 . S
C640 C621 1.368 . S
C640 C634 1.368 . S
C640 C639 1.523 . S
C641 C625 1.429 . S
C641 C637 1.429 . S
C641 C642 1.523 . S
C642 C626 1.368 . S
C642 C638 1.368 . S
C642 C641 1.523 . S
H643 C618 0.950 . S
H644 C620 0.950 . S
H645 C621 0.949 . S
H646 C623 0.950 . S
H647 C625 0.950 . S
C648 C649 1.349 . S
C648 C650 1.327 . S
C648 H673 0.950 . S
C649 C648 1.349 . S
C649 C665 1.349 . S
C650 C648 1.327 . S
C650 C669 1.429 . S
C650 H674 0.937 1_565 S
C651 C668 1.574 . S
C651 C670 1.368 . S
C651 H675 0.949 . S
H652 C656 0.949 . S
C653 C654 1.349 . S
C653 C655 1.327 . S
C653 H676 0.950 . S
C654 C653 1.349 . S
C654 C666 1.349 . S
C655 C653 1.327 . S
C655 C671 1.429 . S
C655 H677 0.937 1_545 S
C656 H652 0.949 . S
C656 C664 1.574 . S
C656 C672 1.368 . S
H657 C665 0.950 . S
H658 C663 0.950 . S
H659 C664 0.949 . S
H660 C666 0.950 . S
H661 C667 0.950 . S
H662 C668 0.949 . S
C663 H658 0.950 . S
C663 C665 1.327 . S
C663 C669 1.429 . S
C664 C656 1.574 . S
C664 H659 0.949 . S
C664 C670 1.368 1_545 S
C665 C649 1.349 . S
C665 H657 0.950 . S
C665 C663 1.327 . S
C666 C654 1.349 . S
C666 H660 0.950 . S
C666 C667 1.327 . S
C667 H661 0.950 . S
C667 C666 1.327 . S
C667 C671 1.429 . S
C668 C651 1.574 . S
C668 H662 0.949 . S
C668 C672 1.368 1_565 S
C669 C650 1.429 . S
C669 C663 1.429 . S
C669 C670 1.523 . S
C670 C651 1.368 . S
C670 C664 1.368 1_565 S
C670 C669 1.523 . S
C671 C655 1.429 . S
C671 C667 1.429 . S
C671 C672 1.523 . S
C672 C656 1.368 . S
C672 C668 1.368 1_545 S
C672 C671 1.523 . S
H673 C648 0.950 . S
H674 C650 0.937 1_545 S
H675 C651 0.949 . S
H676 C653 0.950 . S
H677 C655 0.937 1_565 S
C678 C679 1.349 . S
C678 C680 1.327 . S
C678 H703 0.950 . S
C679 C678 1.349 . S
C679 C695 1.349 . S
C680 C678 1.327 . S
C680 C699 1.429 . S
C680 H704 0.937 1_655 S
C681 C698 1.574 . S
C681 C700 1.368 . S
C681 H705 0.949 . S
H682 C686 0.949 . S
C683 C684 1.349 . S
C683 C685 1.327 . S
C683 H706 0.950 . S
C684 C683 1.349 . S
C684 C696 1.349 . S
C685 C683 1.327 . S
C685 C701 1.429 . S
C685 H707 0.937 1_455 S
C686 H682 0.949 . S
C686 C694 1.574 . S
C686 C702 1.368 . S
H687 C695 0.950 . S
H688 C693 0.950 . S
H689 C694 0.949 . S
H690 C696 0.950 . S
H691 C697 0.950 . S
H692 C698 0.949 . S
C693 H688 0.950 . S
C693 C695 1.327 . S
C693 C699 1.429 . S
C694 C686 1.574 . S
C694 H689 0.949 . S
C694 C700 1.368 1_455 S
C695 C679 1.349 . S
C695 H687 0.950 . S
C695 C693 1.327 . S
C696 C684 1.349 . S
C696 H690 0.950 . S
C696 C697 1.327 . S
C697 H691 0.950 . S
C697 C696 1.327 . S
C697 C701 1.429 . S
C698 C681 1.574 . S
C698 H692 0.949 . S
C698 C702 1.368 1_655 S
C699 C680 1.429 . S
C699 C693 1.429 . S
C699 C700 1.523 . S
C700 C681 1.368 . S
C700 C694 1.368 1_655 S
C700 C699 1.523 . S
C701 C685 1.429 . S
C701 C697 1.429 . S
C701 C702 1.523 . S
C702 C686 1.368 . S
C702 C698 1.368 1_455 S
C702 C701 1.523 . S
H703 C678 0.950 . S
H704 C680 0.937 1_455 S
H705 C681 0.949 . S
H706 C683 0.950 . S
H707 C685 0.937 1_655 S
C708 C709 1.349 . S
C708 C710 1.327 . S
C708 H733 0.950 . S
C709 C708 1.349 . S
C709 C725 1.349 . S
C710 C708 1.327 . S
C710 C729 1.429 . S
C710 H734 0.950 . S
C711 C728 1.574 . S
C711 C730 1.368 1_545 S
C711 H735 0.949 . S
H712 C716 0.949 . S
C713 C714 1.349 . S
C713 C715 1.327 . S
C713 H736 0.950 . S
C714 C713 1.349 . S
C714 C726 1.349 . S
C715 C713 1.327 . S
C715 C731 1.429 . S
C715 H737 0.950 . S
C716 H712 0.949 . S
C716 C724 1.574 . S
C716 C732 1.368 1_565 S
H717 C725 0.950 . S
H718 C723 0.937 1_545 S
H719 C724 0.949 . S
H720 C726 0.950 . S
H721 C727 0.937 1_565 S
H722 C728 0.949 . S
C723 H718 0.937 1_565 S
C723 C725 1.327 . S
C723 C729 1.429 . S
C724 C716 1.574 . S
C724 H719 0.949 . S
C724 C730 1.368 . S
C725 C709 1.349 . S
C725 H717 0.950 . S
C725 C723 1.327 . S
C726 C714 1.349 . S
C726 H720 0.950 . S
C726 C727 1.327 . S
C727 H721 0.937 1_545 S
C727 C726 1.327 . S
C727 C731 1.429 . S
C728 C711 1.574 . S
C728 H722 0.949 . S
C728 C732 1.368 . S
C729 C710 1.429 . S
C729 C723 1.429 . S
C729 C730 1.523 . S
C730 C711 1.368 1_565 S
C730 C724 1.368 . S
C730 C729 1.523 . S
C731 C715 1.429 . S
C731 C727 1.429 . S
C731 C732 1.523 . S
C732 C716 1.368 1_545 S
C732 C728 1.368 . S
C732 C731 1.523 . S
H733 C708 0.950 . S
H734 C710 0.950 . S
H735 C711 0.949 . S
H736 C713 0.950 . S
H737 C715 0.950 . S
C738 C739 1.349 . S
C738 C740 1.327 . S
C738 H763 0.950 . S
C739 C738 1.349 . S
C739 C755 1.349 . S
C740 C738 1.327 . S
C740 C759 1.429 . S
C740 H764 0.950 . S
C741 C758 1.574 . S
C741 C760 1.368 1_455 S
C741 H765 0.949 . S
H742 C746 0.949 . S
C743 C744 1.349 . S
C743 C745 1.327 . S
C743 H766 0.950 . S
C744 C743 1.349 . S
C744 C756 1.349 . S
C745 C743 1.327 . S
C745 C761 1.429 . S
C745 H767 0.950 . S
C746 H742 0.949 . S
C746 C754 1.574 . S
C746 C762 1.368 1_655 S
H747 C755 0.950 . S
H748 C753 0.937 1_455 S
H749 C754 0.949 . S
H750 C756 0.950 . S
H751 C757 0.937 1_655 S
H752 C758 0.949 . S
C753 H748 0.937 1_655 S
C753 C755 1.327 . S
C753 C759 1.429 . S
C754 C746 1.574 . S
C754 H749 0.949 . S
C754 C760 1.368 . S
C755 C739 1.349 . S
C755 H747 0.950 . S
C755 C753 1.327 . S
C756 C744 1.349 . S
C756 H750 0.950 . S
C756 C757 1.327 . S
C757 H751 0.937 1_455 S
C757 C756 1.327 . S
C757 C761 1.429 . S
C758 C741 1.574 . S
C758 H752 0.949 . S
C758 C762 1.368 . S
C759 C740 1.429 . S
C759 C753 1.429 . S
C759 C760 1.523 . S
C760 C741 1.368 1_655 S
C760 C754 1.368 . S
C760 C759 1.523 . S
C761 C745 1.429 . S
C761 C757 1.429 . S
C761 C762 1.523 . S
C762 C746 1.368 1_455 S
C762 C758 1.368 . S
C762 C761 1.523 . S
H763 C738 0.950 . S
H764 C740 0.950 . S
H765 C741 0.949 . S
H766 C743 0.950 . S
H767 C745 0.950 . S
C768 C769 1.349 . S
C768 C770 1.327 . S
C768 H793 0.950 . S
C769 C768 1.349 . S
C769 C785 1.349 . S
C770 C768 1.327 . S
C770 C789 1.429 . S
C770 H794 0.950 . S
C771 C788 1.574 . S
C771 C790 1.368 . S
C771 H795 0.949 . S
H772 C776 0.949 . S
C773 C774 1.349 . S
C773 C775 1.327 . S
C773 H796 0.950 . S
C774 C773 1.349 . S
C774 C786 1.349 . S
C775 C773 1.327 . S
C775 C791 1.429 . S
C775 H797 0.950 . S
C776 H772 0.949 . S
C776 C784 1.574 . S
C776 C792 1.368 . S
H777 C785 0.950 . S
H778 C783 0.950 . S
H779 C784 0.949 . S
H780 C786 0.950 . S
H781 C787 0.950 . S
H782 C788 0.949 . S
C783 H778 0.950 . S
C783 C785 1.327 . S
C783 C789 1.429 . S
C784 C776 1.574 . S
C784 H779 0.949 . S
C784 C790 1.368 . S
C785 C769 1.349 . S
C785 H777 0.950 . S
C785 C783 1.327 . S
C786 C774 1.349 . S
C786 H780 0.950 . S
C786 C787 1.327 . S
C787 H781 0.950 . S
C787 C786 1.327 . S
C787 C791 1.429 . S
C788 C771 1.574 . S
C788 H782 0.949 . S
C788 C792 1.368 . S
C789 C770 1.429 . S
C789 C783 1.429 . S
C789 C790 1.523 . S
C790 C771 1.368 . S
C790 C784 1.368 . S
C790 C789 1.523 . S
C791 C775 1.429 . S
C791 C787 1.429 . S
C791 C792 1.523 . S
C792 C776 1.368 . S
C792 C788 1.368 . S
C792 C791 1.523 . S
H793 C768 0.950 . S
H794 C770 0.950 . S
H795 C771 0.949 . S
H796 C773 0.950 . S
H797 C775 0.950 . S
C798 C799 1.349 . S
C798 C800 1.327 . S
C798 H823 0.950 . S
C799 C798 1.349 . S
C799 C815 1.349 . S
C800 C798 1.327 . S
C800 C819 1.429 . S
C800 H824 0.950 . S
C801 C818 1.574 . S
C801 C820 1.368 . S
C801 H825 0.949 . S
H802 C806 0.949 . S
C803 C804 1.349 . S
C803 C805 1.327 . S
C803 H826 0.950 . S
C804 C803 1.349 . S
C804 C816 1.349 . S
C805 C803 1.327 . S
C805 C821 1.429 . S
C805 H827 0.950 . S
C806 H802 0.949 . S
C806 C814 1.574 . S
C806 C822 1.368 . S
H807 C815 0.950 . S
H808 C813 0.950 . S
H809 C814 0.949 . S
H810 C816 0.950 . S
H811 C817 0.950 . S
H812 C818 0.949 . S
C813 H808 0.950 . S
C813 C815 1.327 . S
C813 C819 1.429 . S
C814 C806 1.574 . S
C814 H809 0.949 . S
C814 C820 1.368 . S
C815 C799 1.349 . S
C815 H807 0.950 . S
C815 C813 1.327 . S
C816 C804 1.349 . S
C816 H810 0.950 . S
C816 C817 1.327 . S
C817 H811 0.950 . S
C817 C816 1.327 . S
C817 C821 1.429 . S
C818 C801 1.574 . S
C818 H812 0.949 . S
C818 C822 1.368 . S
C819 C800 1.429 . S
C819 C813 1.429 . S
C819 C820 1.523 . S
C820 C801 1.368 . S
C820 C814 1.368 . S
C820 C819 1.523 . S
C821 C805 1.429 . S
C821 C817 1.429 . S
C821 C822 1.523 . S
C822 C806 1.368 . S
C822 C818 1.368 . S
C822 C821 1.523 . S
H823 C798 0.950 . S
H824 C800 0.950 . S
H825 C801 0.949 . S
H826 C803 0.950 . S
H827 C805 0.950 . S
C828 C829 1.349 . S
C828 C830 1.327 . S
C828 H853 0.950 . S
C829 C828 1.349 . S
C829 C845 1.349 . S
C830 C828 1.327 . S
C830 C849 1.429 . S
C830 H854 0.950 . S
C831 C848 1.574 . S
C831 C850 1.368 . S
C831 H855 0.949 . S
H832 C836 0.949 . S
C833 C834 1.349 . S
C833 C835 1.327 . S
C833 H856 0.950 . S
C834 C833 1.349 . S
C834 C846 1.349 . S
C835 C833 1.327 . S
C835 C851 1.429 . S
C835 H857 0.950 . S
C836 H832 0.949 . S
C836 C844 1.574 . S
C836 C852 1.368 . S
H837 C845 0.950 . S
H838 C843 0.950 . S
H839 C844 0.949 . S
H840 C846 0.950 . S
H841 C847 0.950 . S
H842 C848 0.949 . S
C843 H838 0.950 . S
C843 C845 1.327 . S
C843 C849 1.429 . S
C844 C836 1.574 . S
C844 H839 0.949 . S
C844 C850 1.368 . S
C845 C829 1.349 . S
C845 H837 0.950 . S
C845 C843 1.327 . S
C846 C834 1.349 . S
C846 H840 0.950 . S
C846 C847 1.327 . S
C847 H841 0.950 . S
C847 C846 1.327 . S
C847 C851 1.429 . S
C848 C831 1.574 . S
C848 H842 0.949 . S
C848 C852 1.368 . S
C849 C830 1.429 . S
C849 C843 1.429 . S
C849 C850 1.523 . S
C850 C831 1.368 . S
C850 C844 1.368 . S
C850 C849 1.523 . S
C851 C835 1.429 . S
C851 C847 1.429 . S
C851 C852 1.523 . S
C852 C836 1.368 . S
C852 C848 1.368 . S
C852 C851 1.523 . S
H853 C828 0.950 . S
H854 C830 0.950 . S
H855 C831 0.949 . S
H856 C833 0.950 . S
H857 C835 0.950 . S
C858 C859 1.349 . S
C858 C860 1.327 . S
C858 H883 0.950 . S
C859 C858 1.349 . S
C859 C875 1.349 . S
C860 C858 1.327 . S
C860 C879 1.429 . S
C860 H884 0.950 . S
C861 C878 1.574 . S
C861 C880 1.368 . S
C861 H885 0.949 . S
H862 C866 0.949 . S
C863 C864 1.349 . S
C863 C865 1.327 . S
C863 H886 0.950 . S
C864 C863 1.349 . S
C864 C876 1.349 . S
C865 C863 1.327 . S
C865 C881 1.429 . S
C865 H887 0.950 . S
C866 H862 0.949 . S
C866 C874 1.574 . S
C866 C882 1.368 . S
H867 C875 0.950 . S
H868 C873 0.950 . S
H869 C874 0.949 . S
H870 C876 0.950 . S
H871 C877 0.950 . S
H872 C878 0.949 . S
C873 H868 0.950 . S
C873 C875 1.327 . S
C873 C879 1.429 . S
C874 C866 1.574 . S
C874 H869 0.949 . S
C874 C880 1.368 . S
C875 C859 1.349 . S
C875 H867 0.950 . S
C875 C873 1.327 . S
C876 C864 1.349 . S
C876 H870 0.950 . S
C876 C877 1.327 . S
C877 H871 0.950 . S
C877 C876 1.327 . S
C877 C881 1.429 . S
C878 C861 1.574 . S
C878 H872 0.949 . S
C878 C882 1.368 . S
C879 C860 1.429 . S
C879 C873 1.429 . S
C879 C880 1.523 . S
C880 C861 1.368 . S
C880 C874 1.368 . S
C880 C879 1.523 . S
C881 C865 1.429 . S
C881 C877 1.429 . S
C881 C882 1.523 . S
C882 C866 1.368 . S
C882 C878 1.368 . S
C882 C881 1.523 . S
H883 C858 0.950 . S
H884 C860 0.950 . S
H885 C861 0.949 . S
H886 C863 0.950 . S
H887 C865 0.950 . S
C888 C889 1.349 . S
C888 C890 1.327 . S
C888 H913 0.950 . S
C889 C888 1.349 . S
C889 C905 1.349 . S
C890 C888 1.327 . S
C890 C909 1.429 . S
C890 H914 0.950 . S
C891 C908 1.574 . S
C891 C910 1.368 . S
C891 H915 0.949 . S
H892 C896 0.949 . S
C893 C894 1.349 . S
C893 C895 1.327 . S
C893 H916 0.950 . S
C894 C893 1.349 . S
C894 C906 1.349 . S
C895 C893 1.327 . S
C895 C911 1.429 . S
C895 H917 0.950 . S
C896 H892 0.949 . S
C896 C904 1.574 . S
C896 C912 1.368 . S
H897 C905 0.950 . S
H898 C903 0.950 . S
H899 C904 0.949 . S
H900 C906 0.950 . S
H901 C907 0.950 . S
H902 C908 0.949 . S
C903 H898 0.950 . S
C903 C905 1.327 . S
C903 C909 1.429 . S
C904 C896 1.574 . S
C904 H899 0.949 . S
C904 C910 1.368 . S
C905 C889 1.349 . S
C905 H897 0.950 . S
C905 C903 1.327 . S
C906 C894 1.349 . S
C906 H900 0.950 . S
C906 C907 1.327 . S
C907 H901 0.950 . S
C907 C906 1.327 . S
C907 C911 1.429 . S
C908 C891 1.574 . S
C908 H902 0.949 . S
C908 C912 1.368 . S
C909 C890 1.429 . S
C909 C903 1.429 . S
C909 C910 1.523 . S
C910 C891 1.368 . S
C910 C904 1.368 . S
C910 C909 1.523 . S
C911 C895 1.429 . S
C911 C907 1.429 . S
C911 C912 1.523 . S
C912 C896 1.368 . S
C912 C908 1.368 . S
C912 C911 1.523 . S
H913 C888 0.950 . S
H914 C890 0.950 . S
H915 C891 0.949 . S
H916 C893 0.950 . S
H917 C895 0.950 . S
C918 C919 1.349 . S
C918 C920 1.327 . S
C918 H943 0.950 . S
C919 C918 1.349 . S
C919 C935 1.349 . S
C920 C918 1.327 . S
C920 C939 1.429 . S
C920 H944 0.950 . S
C921 C938 1.574 . S
C921 C940 1.368 . S
C921 H945 0.949 . S
H922 C926 0.949 . S
C923 C924 1.349 . S
C923 C925 1.327 . S
C923 H946 0.950 . S
C924 C923 1.349 . S
C924 C936 1.349 . S
C925 C923 1.327 . S
C925 C941 1.429 . S
C925 H947 0.950 . S
C926 H922 0.949 . S
C926 C934 1.574 . S
C926 C942 1.368 . S
H927 C935 0.950 . S
H928 C933 0.950 . S
H929 C934 0.949 . S
H930 C936 0.950 . S
H931 C937 0.950 . S
H932 C938 0.949 . S
C933 H928 0.950 . S
C933 C935 1.327 . S
C933 C939 1.429 . S
C934 C926 1.574 . S
C934 H929 0.949 . S
C934 C940 1.368 . S
C935 C919 1.349 . S
C935 H927 0.950 . S
C935 C933 1.327 . S
C936 C924 1.349 . S
C936 H930 0.950 . S
C936 C937 1.327 . S
C937 H931 0.950 . S
C937 C936 1.327 . S
C937 C941 1.429 . S
C938 C921 1.574 . S
C938 H932 0.949 . S
C938 C942 1.368 . S
C939 C920 1.429 . S
C939 C933 1.429 . S
C939 C940 1.523 . S
C940 C921 1.368 . S
C940 C934 1.368 . S
C940 C939 1.523 . S
C941 C925 1.429 . S
C941 C937 1.429 . S
C941 C942 1.523 . S
C942 C926 1.368 . S
C942 C938 1.368 . S
C942 C941 1.523 . S
H943 C918 0.950 . S
H944 C920 0.950 . S
H945 C921 0.949 . S
H946 C923 0.950 . S
H947 C925 0.950 . S
C948 C949 1.349 . S
C948 C950 1.327 . S
C948 H973 0.950 . S
C949 C948 1.349 . S
C949 C965 1.349 . S
C950 C948 1.327 . S
C950 C969 1.429 . S
C950 H974 0.950 . S
C951 C968 1.574 . S
C951 C970 1.368 . S
C951 H975 0.949 . S
H952 C956 0.949 . S
C953 C954 1.349 . S
C953 C955 1.327 . S
C953 H976 0.950 . S
C954 C953 1.349 . S
C954 C966 1.349 . S
C955 C953 1.327 . S
C955 C971 1.429 . S
C955 H977 0.950 . S
C956 H952 0.949 . S
C956 C964 1.574 . S
C956 C972 1.368 . S
H957 C965 0.950 . S
H958 C963 0.950 . S
H959 C964 0.949 . S
H960 C966 0.950 . S
H961 C967 0.950 . S
H962 C968 0.949 . S
C963 H958 0.950 . S
C963 C965 1.327 . S
C963 C969 1.429 . S
C964 C956 1.574 . S
C964 H959 0.949 . S
C964 C970 1.368 . S
C965 C949 1.349 . S
C965 H957 0.950 . S
C965 C963 1.327 . S
C966 C954 1.349 . S
C966 H960 0.950 . S
C966 C967 1.327 . S
C967 H961 0.950 . S
C967 C966 1.327 . S
C967 C971 1.429 . S
C968 C951 1.574 . S
C968 H962 0.949 . S
C968 C972 1.368 . S
C969 C950 1.429 . S
C969 C963 1.429 . S
C969 C970 1.523 . S
C970 C951 1.368 . S
C970 C964 1.368 . S
C970 C969 1.523 . S
C971 C955 1.429 . S
C971 C967 1.429 . S
C971 C972 1.523 . S
C972 C956 1.368 . S
C972 C968 1.368 . S
C972 C971 1.523 . S
H973 C948 0.950 . S
H974 C950 0.950 . S
H975 C951 0.949 . S
H976 C953 0.950 . S
H977 C955 0.950 . S
C978 C979 1.349 . S
C978 C980 1.327 . S
C978 H1003 0.950 . S
C979 C978 1.349 . S
C979 C995 1.349 . S
C980 C978 1.327 . S
C980 C999 1.429 . S
C980 H1004 0.950 . S
C981 C998 1.574 . S
C981 C1000 1.368 . S
C981 H1005 0.949 . S
H982 C986 0.949 . S
C983 C984 1.349 . S
C983 C985 1.327 . S
C983 H1006 0.950 . S
C984 C983 1.349 . S
C984 C996 1.349 . S
C985 C983 1.327 . S
C985 C1001 1.429 . S
C985 H1007 0.950 . S
C986 H982 0.949 . S
C986 C994 1.574 . S
C986 C1002 1.368 . S
H987 C995 0.950 . S
H988 C993 0.950 . S
H989 C994 0.949 . S
H990 C996 0.950 . S
H991 C997 0.950 . S
H992 C998 0.949 . S
C993 H988 0.950 . S
C993 C995 1.327 . S
C993 C999 1.429 . S
C994 C986 1.574 . S
C994 H989 0.949 . S
C994 C1000 1.368 . S
C995 C979 1.349 . S
C995 H987 0.950 . S
C995 C993 1.327 . S
C996 C984 1.349 . S
C996 H990 0.950 . S
C996 C997 1.327 . S
C997 H991 0.950 . S
C997 C996 1.327 . S
C997 C1001 1.429 . S
C998 C981 1.574 . S
C998 H992 0.949 . S
C998 C1002 1.368 . S
C999 C980 1.429 . S
C999 C993 1.429 . S
C999 C1000 1.523 . S
C1000 C981 1.368 . S
C1000 C994 1.368 . S
C1000 C999 1.523 . S
C1001 C985 1.429 . S
C1001 C997 1.429 . S
C1001 C1002 1.523 . S
C1002 C986 1.368 . S
C1002 C998 1.368 . S
C1002 C1001 1.523 . S
H1003 C978 0.950 . S
H1004 C980 0.950 . S
H1005 C981 0.949 . S
H1006 C983 0.950 . S
H1007 C985 0.950 . S
C1008 C1009 1.349 . S
C1008 C1010 1.327 . S
C1008 H1033 0.950 . S
C1009 C1008 1.349 . S
C1009 C1025 1.349 . S
C1010 C1008 1.327 . S
C1010 C1029 1.429 . S
C1010 H1034 0.950 . S
C1011 C1028 1.574 . S
C1011 C1030 1.368 . S
C1011 H1035 0.949 . S
H1012 C1016 0.949 . S
C1013 C1014 1.349 . S
C1013 C1015 1.327 . S
C1013 H1036 0.950 . S
C1014 C1013 1.349 . S
C1014 C1026 1.349 . S
C1015 C1013 1.327 . S
C1015 C1031 1.429 . S
C1015 H1037 0.950 . S
C1016 H1012 0.949 . S
C1016 C1024 1.574 . S
C1016 C1032 1.368 . S
H1017 C1025 0.950 . S
H1018 C1023 0.950 . S
H1019 C1024 0.949 . S
H1020 C1026 0.950 . S
H1021 C1027 0.950 . S
H1022 C1028 0.949 . S
C1023 H1018 0.950 . S
C1023 C1025 1.327 . S
C1023 C1029 1.429 . S
C1024 C1016 1.574 . S
C1024 H1019 0.949 . S
C1024 C1030 1.368 . S
C1025 C1009 1.349 . S
C1025 H1017 0.950 . S
C1025 C1023 1.327 . S
C1026 C1014 1.349 . S
C1026 H1020 0.950 . S
C1026 C1027 1.327 . S
C1027 H1021 0.950 . S
C1027 C1026 1.327 . S
C1027 C1031 1.429 . S
C1028 C1011 1.574 . S
C1028 H1022 0.949 . S
C1028 C1032 1.368 . S
C1029 C1010 1.429 . S
C1029 C1023 1.429 . S
C1029 C1030 1.523 . S
C1030 C1011 1.368 . S
C1030 C1024 1.368 . S
C1030 C1029 1.523 . S
C1031 C1015 1.429 . S
C1031 C1027 1.429 . S
C1031 C1032 1.523 . S
C1032 C1016 1.368 . S
C1032 C1028 1.368 . S
C1032 C1031 1.523 . S
H1033 C1008 0.950 . S
H1034 C1010 0.950 . S
H1035 C1011 0.949 . S
H1036 C1013 0.950 . S
H1037 C1015 0.950 . S
C1038 C1039 1.349 . S
C1038 C1040 1.327 . S
C1038 H1063 0.950 . S
C1039 C1038 1.349 . S
C1039 C1055 1.349 . S
C1040 C1038 1.327 . S
C1040 C1059 1.429 . S
C1040 H1064 0.950 . S
C1041 C1058 1.574 . S
C1041 C1060 1.368 . S
C1041 H1065 0.949 . S
H1042 C1046 0.949 . S
C1043 C1044 1.349 . S
C1043 C1045 1.327 . S
C1043 H1066 0.950 . S
C1044 C1043 1.349 . S
C1044 C1056 1.349 . S
C1045 C1043 1.327 . S
C1045 C1061 1.429 . S
C1045 H1067 0.950 . S
C1046 H1042 0.949 . S
C1046 C1054 1.574 . S
C1046 C1062 1.368 . S
H1047 C1055 0.950 . S
H1048 C1053 0.950 . S
H1049 C1054 0.949 . S
H1050 C1056 0.950 . S
H1051 C1057 0.950 . S
H1052 C1058 0.949 . S
C1053 H1048 0.950 . S
C1053 C1055 1.327 . S
C1053 C1059 1.429 . S
C1054 C1046 1.574 . S
C1054 H1049 0.949 . S
C1054 C1060 1.368 . S
C1055 C1039 1.349 . S
C1055 H1047 0.950 . S
C1055 C1053 1.327 . S
C1056 C1044 1.349 . S
C1056 H1050 0.950 . S
C1056 C1057 1.327 . S
C1057 H1051 0.950 . S
C1057 C1056 1.327 . S
C1057 C1061 1.429 . S
C1058 C1041 1.574 . S
C1058 H1052 0.949 . S
C1058 C1062 1.368 . S
C1059 C1040 1.429 . S
C1059 C1053 1.429 . S
C1059 C1060 1.523 . S
C1060 C1041 1.368 . S
C1060 C1054 1.368 . S
C1060 C1059 1.523 . S
C1061 C1045 1.429 . S
C1061 C1057 1.429 . S
C1061 C1062 1.523 . S
C1062 C1046 1.368 . S
C1062 C1058 1.368 . S
C1062 C1061 1.523 . S
H1063 C1038 0.950 . S
H1064 C1040 0.950 . S
H1065 C1041 0.949 . S
H1066 C1043 0.950 . S
H1067 C1045 0.950 . S
C1068 C1069 1.349 . S
C1068 C1070 1.327 . S
C1068 H1093 0.950 . S
C1069 C1068 1.349 . S
C1069 C1085 1.349 . S
C1070 C1068 1.327 . S
C1070 C1089 1.429 . S
C1070 H1094 0.950 . S
C1071 C1088 1.574 . S
C1071 C1090 1.368 . S
C1071 H1095 0.949 . S
H1072 C1076 0.949 . S
C1073 C1074 1.349 . S
C1073 C1075 1.327 . S
C1073 H1096 0.950 . S
C1074 C1073 1.349 . S
C1074 C1086 1.349 . S
C1075 C1073 1.327 . S
C1075 C1091 1.429 . S
C1075 H1097 0.950 . S
C1076 H1072 0.949 . S
C1076 C1084 1.574 . S
C1076 C1092 1.368 . S
H1077 C1085 0.950 . S
H1078 C1083 0.950 . S
H1079 C1084 0.949 . S
H1080 C1086 0.950 . S
H1081 C1087 0.950 . S
H1082 C1088 0.949 . S
C1083 H1078 0.950 . S
C1083 C1085 1.327 . S
C1083 C1089 1.429 . S
C1084 C1076 1.574 . S
C1084 H1079 0.949 . S
C1084 C1090 1.368 . S
C1085 C1069 1.349 . S
C1085 H1077 0.950 . S
C1085 C1083 1.327 . S
C1086 C1074 1.349 . S
C1086 H1080 0.950 . S
C1086 C1087 1.327 . S
C1087 H1081 0.950 . S
C1087 C1086 1.327 . S
C1087 C1091 1.429 . S
C1088 C1071 1.574 . S
C1088 H1082 0.949 . S
C1088 C1092 1.368 . S
C1089 C1070 1.429 . S
C1089 C1083 1.429 . S
C1089 C1090 1.523 . S
C1090 C1071 1.368 . S
C1090 C1084 1.368 . S
C1090 C1089 1.523 . S
C1091 C1075 1.429 . S
C1091 C1087 1.429 . S
C1091 C1092 1.523 . S
C1092 C1076 1.368 . S
C1092 C1088 1.368 . S
C1092 C1091 1.523 . S
H1093 C1068 0.950 . S
H1094 C1070 0.950 . S
H1095 C1071 0.949 . S
H1096 C1073 0.950 . S
H1097 C1075 0.950 . S
C1098 C1099 1.349 . S
C1098 C1100 1.327 . S
C1098 H1123 0.950 . S
C1099 C1098 1.349 . S
C1099 C1115 1.349 . S
C1100 C1098 1.327 . S
C1100 C1119 1.429 . S
C1100 H1124 0.950 . S
C1101 C1118 1.574 . S
C1101 C1120 1.368 . S
C1101 H1125 0.949 . S
H1102 C1106 0.949 . S
C1103 C1104 1.349 . S
C1103 C1105 1.327 . S
C1103 H1126 0.950 . S
C1104 C1103 1.349 . S
C1104 C1116 1.349 . S
C1105 C1103 1.327 . S
C1105 C1121 1.429 . S
C1105 H1127 0.950 . S
C1106 H1102 0.949 . S
C1106 C1114 1.574 . S
C1106 C1122 1.368 . S
H1107 C1115 0.950 . S
H1108 C1113 0.950 . S
H1109 C1114 0.949 . S
H1110 C1116 0.950 . S
H1111 C1117 0.950 . S
H1112 C1118 0.949 . S
C1113 H1108 0.950 . S
C1113 C1115 1.327 . S
C1113 C1119 1.429 . S
C1114 C1106 1.574 . S
C1114 H1109 0.949 . S
C1114 C1120 1.368 . S
C1115 C1099 1.349 . S
C1115 H1107 0.950 . S
C1115 C1113 1.327 . S
C1116 C1104 1.349 . S
C1116 H1110 0.950 . S
C1116 C1117 1.327 . S
C1117 H1111 0.950 . S
C1117 C1116 1.327 . S
C1117 C1121 1.429 . S
C1118 C1101 1.574 . S
C1118 H1112 0.949 . S
C1118 C1122 1.368 . S
C1119 C1100 1.429 . S
C1119 C1113 1.429 . S
C1119 C1120 1.523 . S
C1120 C1101 1.368 . S
C1120 C1114 1.368 . S
C1120 C1119 1.523 . S
C1121 C1105 1.429 . S
C1121 C1117 1.429 . S
C1121 C1122 1.523 . S
C1122 C1106 1.368 . S
C1122 C1118 1.368 . S
C1122 C1121 1.523 . S
H1123 C1098 0.950 . S
H1124 C1100 0.950 . S
H1125 C1101 0.949 . S
H1126 C1103 0.950 . S
H1127 C1105 0.950 . S
C1128 C1129 1.349 . S
C1128 C1130 1.327 . S
C1128 H1153 0.950 . S
C1129 C1128 1.349 . S
C1129 C1145 1.349 . S
C1130 C1128 1.327 . S
C1130 C1149 1.429 . S
C1130 H1154 0.950 . S
C1131 C1148 1.574 . S
C1131 C1150 1.368 . S
C1131 H1155 0.949 . S
H1132 C1136 0.949 . S
C1133 C1134 1.349 . S
C1133 C1135 1.327 . S
C1133 H1156 0.950 . S
C1134 C1133 1.349 . S
C1134 C1146 1.349 . S
C1135 C1133 1.327 . S
C1135 C1151 1.429 . S
C1135 H1157 0.950 . S
C1136 H1132 0.949 . S
C1136 C1144 1.574 . S
C1136 C1152 1.368 . S
H1137 C1145 0.950 . S
H1138 C1143 0.950 . S
H1139 C1144 0.949 . S
H1140 C1146 0.950 . S
H1141 C1147 0.950 . S
H1142 C1148 0.949 . S
C1143 H1138 0.950 . S
C1143 C1145 1.327 . S
C1143 C1149 1.429 . S
C1144 C1136 1.574 . S
C1144 H1139 0.949 . S
C1144 C1150 1.368 . S
C1145 C1129 1.349 . S
C1145 H1137 0.950 . S
C1145 C1143 1.327 . S
C1146 C1134 1.349 . S
C1146 H1140 0.950 . S
C1146 C1147 1.327 . S
C1147 H1141 0.950 . S
C1147 C1146 1.327 . S
C1147 C1151 1.429 . S
C1148 C1131 1.574 . S
C1148 H1142 0.949 . S
C1148 C1152 1.368 . S
C1149 C1130 1.429 . S
C1149 C1143 1.429 . S
C1149 C1150 1.523 . S
C1150 C1131 1.368 . S
C1150 C1144 1.368 . S
C1150 C1149 1.523 . S
C1151 C1135 1.429 . S
C1151 C1147 1.429 . S
C1151 C1152 1.523 . S
C1152 C1136 1.368 . S
C1152 C1148 1.368 . S
C1152 C1151 1.523 . S
H1153 C1128 0.950 . S
H1154 C1130 0.950 . S
H1155 C1131 0.949 . S
H1156 C1133 0.950 . S
H1157 C1135 0.950 . S
C1158 C1159 1.349 . S
C1158 C1160 1.327 . S
C1158 H1183 0.950 . S
C1159 C1158 1.349 . S
C1159 C1175 1.349 . S
C1160 C1158 1.327 . S
C1160 C1179 1.429 . S
C1160 H1184 0.950 . S
C1161 C1178 1.574 . S
C1161 C1180 1.368 . S
C1161 H1185 0.949 . S
H1162 C1166 0.949 . S
C1163 C1164 1.349 . S
C1163 C1165 1.327 . S
C1163 H1186 0.950 . S
C1164 C1163 1.349 . S
C1164 C1176 1.349 . S
C1165 C1163 1.327 . S
C1165 C1181 1.429 . S
C1165 H1187 0.950 . S
C1166 H1162 0.949 . S
C1166 C1174 1.574 . S
C1166 C1182 1.368 . S
H1167 C1175 0.950 . S
H1168 C1173 0.950 . S
H1169 C1174 0.949 . S
H1170 C1176 0.950 . S
H1171 C1177 0.950 . S
H1172 C1178 0.949 . S
C1173 H1168 0.950 . S
C1173 C1175 1.327 . S
C1173 C1179 1.429 . S
C1174 C1166 1.574 . S
C1174 H1169 0.949 . S
C1174 C1180 1.368 . S
C1175 C1159 1.349 . S
C1175 H1167 0.950 . S
C1175 C1173 1.327 . S
C1176 C1164 1.349 . S
C1176 H1170 0.950 . S
C1176 C1177 1.327 . S
C1177 H1171 0.950 . S
C1177 C1176 1.327 . S
C1177 C1181 1.429 . S
C1178 C1161 1.574 . S
C1178 H1172 0.949 . S
C1178 C1182 1.368 . S
C1179 C1160 1.429 . S
C1179 C1173 1.429 . S
C1179 C1180 1.523 . S
C1180 C1161 1.368 . S
C1180 C1174 1.368 . S
C1180 C1179 1.523 . S
C1181 C1165 1.429 . S
C1181 C1177 1.429 . S
C1181 C1182 1.523 . S
C1182 C1166 1.368 . S
C1182 C1178 1.368 . S
C1182 C1181 1.523 . S
H1183 C1158 0.950 . S
H1184 C1160 0.950 . S
H1185 C1161 0.949 . S
H1186 C1163 0.950 . S
H1187 C1165 0.950 . S
C1188 C1189 1.349 . S
C1188 C1190 1.327 . S
C1188 H1213 0.950 . S
C1189 C1188 1.349 . S
C1189 C1205 1.349 . S
C1190 C1188 1.327 . S
C1190 C1209 1.429 . S
C1190 H1214 0.950 . S
C1191 C1208 1.574 . S
C1191 C1210 1.368 . S
C1191 H1215 0.949 . S
H1192 C1196 0.949 . S
C1193 C1194 1.349 . S
C1193 C1195 1.327 . S
C1193 H1216 0.950 . S
C1194 C1193 1.349 . S
C1194 C1206 1.349 . S
C1195 C1193 1.327 . S
C1195 C1211 1.429 . S
C1195 H1217 0.950 . S
C1196 H1192 0.949 . S
C1196 C1204 1.574 . S
C1196 C1212 1.368 . S
H1197 C1205 0.950 . S
H1198 C1203 0.950 . S
H1199 C1204 0.949 . S
H1200 C1206 0.950 . S
H1201 C1207 0.950 . S
H1202 C1208 0.949 . S
C1203 H1198 0.950 . S
C1203 C1205 1.327 . S
C1203 C1209 1.429 . S
C1204 C1196 1.574 . S
C1204 H1199 0.949 . S
C1204 C1210 1.368 . S
C1205 C1189 1.349 . S
C1205 H1197 0.950 . S
C1205 C1203 1.327 . S
C1206 C1194 1.349 . S
C1206 H1200 0.950 . S
C1206 C1207 1.327 . S
C1207 H1201 0.950 . S
C1207 C1206 1.327 . S
C1207 C1211 1.429 . S
C1208 C1191 1.574 . S
C1208 H1202 0.949 . S
C1208 C1212 1.368 . S
C1209 C1190 1.429 . S
C1209 C1203 1.429 . S
C1209 C1210 1.523 . S
C1210 C1191 1.368 . S
C1210 C1204 1.368 . S
C1210 C1209 1.523 . S
C1211 C1195 1.429 . S
C1211 C1207 1.429 . S
C1211 C1212 1.523 . S
C1212 C1196 1.368 . S
C1212 C1208 1.368 . S
C1212 C1211 1.523 . S
H1213 C1188 0.950 . S
H1214 C1190 0.950 . S
H1215 C1191 0.949 . S
H1216 C1193 0.950 . S
H1217 C1195 0.950 . S
C1218 C1219 1.349 . S
C1218 C1220 1.327 . S
C1218 H1243 0.950 . S
C1219 C1218 1.349 . S
C1219 C1235 1.349 . S
C1220 C1218 1.327 . S
C1220 C1239 1.429 . S
C1220 H1244 0.950 . S
C1221 C1238 1.574 . S
C1221 C1240 1.368 . S
C1221 H1245 0.949 . S
H1222 C1226 0.949 . S
C1223 C1224 1.349 . S
C1223 C1225 1.327 . S
C1223 H1246 0.950 . S
C1224 C1223 1.349 . S
C1224 C1236 1.349 . S
C1225 C1223 1.327 . S
C1225 C1241 1.429 . S
C1225 H1247 0.950 . S
C1226 H1222 0.949 . S
C1226 C1234 1.574 . S
C1226 C1242 1.368 . S
H1227 C1235 0.950 . S
H1228 C1233 0.950 . S
H1229 C1234 0.949 . S
H1230 C1236 0.950 . S
H1231 C1237 0.950 . S
H1232 C1238 0.949 . S
C1233 H1228 0.950 . S
C1233 C1235 1.327 . S
C1233 C1239 1.429 . S
C1234 C1226 1.574 . S
C1234 H1229 0.949 . S
C1234 C1240 1.368 . S
C1235 C1219 1.349 . S
C1235 H1227 0.950 . S
C1235 C1233 1.327 . S
C1236 C1224 1.349 . S
C1236 H1230 0.950 . S
C1236 C1237 1.327 . S
C1237 H1231 0.950 . S
C1237 C1236 1.327 . S
C1237 C1241 1.429 . S
C1238 C1221 1.574 . S
C1238 H1232 0.949 . S
C1238 C1242 1.368 . S
C1239 C1220 1.429 . S
C1239 C1233 1.429 . S
C1239 C1240 1.523 . S
C1240 C1221 1.368 . S
C1240 C1234 1.368 . S
C1240 C1239 1.523 . S
C1241 C1225 1.429 . S
C1241 C1237 1.429 . S
C1241 C1242 1.523 . S
C1242 C1226 1.368 . S
C1242 C1238 1.368 . S
C1242 C1241 1.523 . S
H1243 C1218 0.950 . S
H1244 C1220 0.950 . S
H1245 C1221 0.949 . S
H1246 C1223 0.950 . S
H1247 C1225 0.950 . S
C1248 C1249 1.349 . S
C1248 C1250 1.327 . S
C1248 H1273 0.950 . S
C1249 C1248 1.349 . S
C1249 C1265 1.349 . S
C1250 C1248 1.327 . S
C1250 C1269 1.429 . S
C1250 H1274 0.950 . S
C1251 C1268 1.574 . S
C1251 C1270 1.368 . S
C1251 H1275 0.949 . S
H1252 C1256 0.949 . S
C1253 C1254 1.349 . S
C1253 C1255 1.327 . S
C1253 H1276 0.950 . S
C1254 C1253 1.349 . S
C1254 C1266 1.349 . S
C1255 C1253 1.327 . S
C1255 C1271 1.429 . S
C1255 H1277 0.950 . S
C1256 H1252 0.949 . S
C1256 C1264 1.574 . S
C1256 C1272 1.368 . S
H1257 C1265 0.950 . S
H1258 C1263 0.950 . S
H1259 C1264 0.949 . S
H1260 C1266 0.950 . S
H1261 C1267 0.950 . S
H1262 C1268 0.949 . S
C1263 H1258 0.950 . S
C1263 C1265 1.327 . S
C1263 C1269 1.429 . S
C1264 C1256 1.574 . S
C1264 H1259 0.949 . S
C1264 C1270 1.368 . S
C1265 C1249 1.349 . S
C1265 H1257 0.950 . S
C1265 C1263 1.327 . S
C1266 C1254 1.349 . S
C1266 H1260 0.950 . S
C1266 C1267 1.327 . S
C1267 H1261 0.950 . S
C1267 C1266 1.327 . S
C1267 C1271 1.429 . S
C1268 C1251 1.574 . S
C1268 H1262 0.949 . S
C1268 C1272 1.368 . S
C1269 C1250 1.429 . S
C1269 C1263 1.429 . S
C1269 C1270 1.523 . S
C1270 C1251 1.368 . S
C1270 C1264 1.368 . S
C1270 C1269 1.523 . S
C1271 C1255 1.429 . S
C1271 C1267 1.429 . S
C1271 C1272 1.523 . S
C1272 C1256 1.368 . S
C1272 C1268 1.368 . S
C1272 C1271 1.523 . S
H1273 C1248 0.950 . S
H1274 C1250 0.950 . S
H1275 C1251 0.949 . S
H1276 C1253 0.950 . S
H1277 C1255 0.950 . S
C1278 C1279 1.349 . S
C1278 C1280 1.327 . S
C1278 H1303 0.950 . S
C1279 C1278 1.349 . S
C1279 C1295 1.349 . S
C1280 C1278 1.327 . S
C1280 C1299 1.429 . S
C1280 H1304 0.950 . S
C1281 C1298 1.574 . S
C1281 C1300 1.368 . S
C1281 H1305 0.949 . S
H1282 C1286 0.949 . S
C1283 C1284 1.349 . S
C1283 C1285 1.327 . S
C1283 H1306 0.950 . S
C1284 C1283 1.349 . S
C1284 C1296 1.349 . S
C1285 C1283 1.327 . S
C1285 C1301 1.429 . S
C1285 H1307 0.950 . S
C1286 H1282 0.949 . S
C1286 C1294 1.574 . S
C1286 C1302 1.368 . S
H1287 C1295 0.950 . S
H1288 C1293 0.950 . S
H1289 C1294 0.949 . S
H1290 C1296 0.950 . S
H1291 C1297 0.950 . S
H1292 C1298 0.949 . S
C1293 H1288 0.950 . S
C1293 C1295 1.327 . S
C1293 C1299 1.429 . S
C1294 C1286 1.574 . S
C1294 H1289 0.949 . S
C1294 C1300 1.368 . S
C1295 C1279 1.349 . S
C1295 H1287 0.950 . S
C1295 C1293 1.327 . S
C1296 C1284 1.349 . S
C1296 H1290 0.950 . S
C1296 C1297 1.327 . S
C1297 H1291 0.950 . S
C1297 C1296 1.327 . S
C1297 C1301 1.429 . S
C1298 C1281 1.574 . S
C1298 H1292 0.949 . S
C1298 C1302 1.368 . S
C1299 C1280 1.429 . S
C1299 C1293 1.429 . S
C1299 C1300 1.523 . S
C1300 C1281 1.368 . S
C1300 C1294 1.368 . S
C1300 C1299 1.523 . S
C1301 C1285 1.429 . S
C1301 C1297 1.429 . S
C1301 C1302 1.523 . S
C1302 C1286 1.368 . S
C1302 C1298 1.368 . S
C1302 C1301 1.523 . S
H1303 C1278 0.950 . S
H1304 C1280 0.950 . S
H1305 C1281 0.949 . S
H1306 C1283 0.950 . S
H1307 C1285 0.950 . S
C1308 C1309 1.349 . S
C1308 C1310 1.327 . S
C1308 H1333 0.950 . S
C1309 C1308 1.349 . S
C1309 C1325 1.349 . S
C1310 C1308 1.327 . S
C1310 C1329 1.429 . S
C1310 H1334 0.950 . S
C1311 C1328 1.574 . S
C1311 C1330 1.368 . S
C1311 H1335 0.949 . S
H1312 C1316 0.949 . S
C1313 C1314 1.349 . S
C1313 C1315 1.327 . S
C1313 H1336 0.950 . S
C1314 C1313 1.349 . S
C1314 C1326 1.349 . S
C1315 C1313 1.327 . S
C1315 C1331 1.429 . S
C1315 H1337 0.950 . S
C1316 H1312 0.949 . S
C1316 C1324 1.574 . S
C1316 C1332 1.368 . S
H1317 C1325 0.950 . S
H1318 C1323 0.950 . S
H1319 C1324 0.949 . S
H1320 C1326 0.950 . S
H1321 C1327 0.950 . S
H1322 C1328 0.949 . S
C1323 H1318 0.950 . S
C1323 C1325 1.327 . S
C1323 C1329 1.429 . S
C1324 C1316 1.574 . S
C1324 H1319 0.949 . S
C1324 C1330 1.368 . S
C1325 C1309 1.349 . S
C1325 H1317 0.950 . S
C1325 C1323 1.327 . S
C1326 C1314 1.349 . S
C1326 H1320 0.950 . S
C1326 C1327 1.327 . S
C1327 H1321 0.950 . S
C1327 C1326 1.327 . S
C1327 C1331 1.429 . S
C1328 C1311 1.574 . S
C1328 H1322 0.949 . S
C1328 C1332 1.368 . S
C1329 C1310 1.429 . S
C1329 C1323 1.429 . S
C1329 C1330 1.523 . S
C1330 C1311 1.368 . S
C1330 C1324 1.368 . S
C1330 C1329 1.523 . S
C1331 C1315 1.429 . S
C1331 C1327 1.429 . S
C1331 C1332 1.523 . S
C1332 C1316 1.368 . S
C1332 C1328 1.368 . S
C1332 C1331 1.523 . S
H1333 C1308 0.950 . S
H1334 C1310 0.950 . S
H1335 C1311 0.949 . S
H1336 C1313 0.950 . S
H1337 C1315 0.950 . S
C1338 C1339 1.349 . S
C1338 C1340 1.327 . S
C1338 H1363 0.950 . S
C1339 C1338 1.349 . S
C1339 C1355 1.349 . S
C1340 C1338 1.327 . S
C1340 C1359 1.429 . S
C1340 H1364 0.950 . S
C1341 C1358 1.574 . S
C1341 C1360 1.368 . S
C1341 H1365 0.949 . S
H1342 C1346 0.949 . S
C1343 C1344 1.349 . S
C1343 C1345 1.327 . S
C1343 H1366 0.950 . S
C1344 C1343 1.349 . S
C1344 C1356 1.349 . S
C1345 C1343 1.327 . S
C1345 C1361 1.429 . S
C1345 H1367 0.950 . S
C1346 H1342 0.949 . S
C1346 C1354 1.574 . S
C1346 C1362 1.368 . S
H1347 C1355 0.950 . S
H1348 C1353 0.950 . S
H1349 C1354 0.949 . S
H1350 C1356 0.950 . S
H1351 C1357 0.950 . S
H1352 C1358 0.949 . S
C1353 H1348 0.950 . S
C1353 C1355 1.327 . S
C1353 C1359 1.429 . S
C1354 C1346 1.574 . S
C1354 H1349 0.949 . S
C1354 C1360 1.368 . S
C1355 C1339 1.349 . S
C1355 H1347 0.950 . S
C1355 C1353 1.327 . S
C1356 C1344 1.349 . S
C1356 H1350 0.950 . S
C1356 C1357 1.327 . S
C1357 H1351 0.950 . S
C1357 C1356 1.327 . S
C1357 C1361 1.429 . S
C1358 C1341 1.574 . S
C1358 H1352 0.949 . S
C1358 C1362 1.368 . S
C1359 C1340 1.429 . S
C1359 C1353 1.429 . S
C1359 C1360 1.523 . S
C1360 C1341 1.368 . S
C1360 C1354 1.368 . S
C1360 C1359 1.523 . S
C1361 C1345 1.429 . S
C1361 C1357 1.429 . S
C1361 C1362 1.523 . S
C1362 C1346 1.368 . S
C1362 C1358 1.368 . S
C1362 C1361 1.523 . S
H1363 C1338 0.950 . S
H1364 C1340 0.950 . S
H1365 C1341 0.949 . S
H1366 C1343 0.950 . S
H1367 C1345 0.950 . S
C1368 C1369 1.349 . S
C1368 C1370 1.327 . S
C1368 H1393 0.950 . S
C1369 C1368 1.349 . S
C1369 C1385 1.349 . S
C1370 C1368 1.327 . S
C1370 C1389 1.429 . S
C1370 H1394 0.950 . S
C1371 C1388 1.574 . S
C1371 C1390 1.368 . S
C1371 H1395 0.949 . S
H1372 C1376 0.949 . S
C1373 C1374 1.349 . S
C1373 C1375 1.327 . S
C1373 H1396 0.950 . S
C1374 C1373 1.349 . S
C1374 C1386 1.349 . S
C1375 C1373 1.327 . S
C1375 C1391 1.429 . S
C1375 H1397 0.950 . S
C1376 H1372 0.949 . S
C1376 C1384 1.574 . S
C1376 C1392 1.368 . S
H1377 C1385 0.950 . S
H1378 C1383 0.950 . S
H1379 C1384 0.949 . S
H1380 C1386 0.950 . S
H1381 C1387 0.950 . S
H1382 C1388 0.949 . S
C1383 H1378 0.950 . S
C1383 C1385 1.327 . S
C1383 C1389 1.429 . S
C1384 C1376 1.574 . S
C1384 H1379 0.949 . S
C1384 C1390 1.368 . S
C1385 C1369 1.349 . S
C1385 H1377 0.950 . S
C1385 C1383 1.327 . S
C1386 C1374 1.349 . S
C1386 H1380 0.950 . S
C1386 C1387 1.327 . S
C1387 H1381 0.950 . S
C1387 C1386 1.327 . S
C1387 C1391 1.429 . S
C1388 C1371 1.574 . S
C1388 H1382 0.949 . S
C1388 C1392 1.368 . S
C1389 C1370 1.429 . S
C1389 C1383 1.429 . S
C1389 C1390 1.523 . S
C1390 C1371 1.368 . S
C1390 C1384 1.368 . S
C1390 C1389 1.523 . S
C1391 C1375 1.429 . S
C1391 C1387 1.429 . S
C1391 C1392 1.523 . S
C1392 C1376 1.368 . S
C1392 C1388 1.368 . S
C1392 C1391 1.523 . S
H1393 C1368 0.950 . S
H1394 C1370 0.950 . S
H1395 C1371 0.949 . S
H1396 C1373 0.950 . S
H1397 C1375 0.950 . S
C1398 C1399 1.349 . S
C1398 C1400 1.327 . S
C1398 H1423 0.950 . S
C1399 C1398 1.349 . S
C1399 C1415 1.349 . S
C1400 C1398 1.327 . S
C1400 C1419 1.429 . S
C1400 H1424 0.950 . S
C1401 C1418 1.574 . S
C1401 C1420 1.368 . S
C1401 H1425 0.949 . S
H1402 C1406 0.949 . S
C1403 C1404 1.349 . S
C1403 C1405 1.327 . S
C1403 H1426 0.950 . S
C1404 C1403 1.349 . S
C1404 C1416 1.349 . S
C1405 C1403 1.327 . S
C1405 C1421 1.429 . S
C1405 H1427 0.950 . S
C1406 H1402 0.949 . S
C1406 C1414 1.574 . S
C1406 C1422 1.368 . S
H1407 C1415 0.950 . S
H1408 C1413 0.950 . S
H1409 C1414 0.949 . S
H1410 C1416 0.950 . S
H1411 C1417 0.950 . S
H1412 C1418 0.949 . S
C1413 H1408 0.950 . S
C1413 C1415 1.327 . S
C1413 C1419 1.429 . S
C1414 C1406 1.574 . S
C1414 H1409 0.949 . S
C1414 C1420 1.368 . S
C1415 C1399 1.349 . S
C1415 H1407 0.950 . S
C1415 C1413 1.327 . S
C1416 C1404 1.349 . S
C1416 H1410 0.950 . S
C1416 C1417 1.327 . S
C1417 H1411 0.950 . S
C1417 C1416 1.327 . S
C1417 C1421 1.429 . S
C1418 C1401 1.574 . S
C1418 H1412 0.949 . S
C1418 C1422 1.368 . S
C1419 C1400 1.429 . S
C1419 C1413 1.429 . S
C1419 C1420 1.523 . S
C1420 C1401 1.368 . S
C1420 C1414 1.368 . S
C1420 C1419 1.523 . S
C1421 C1405 1.429 . S
C1421 C1417 1.429 . S
C1421 C1422 1.523 . S
C1422 C1406 1.368 . S
C1422 C1418 1.368 . S
C1422 C1421 1.523 . S
H1423 C1398 0.950 . S
H1424 C1400 0.950 . S
H1425 C1401 0.949 . S
H1426 C1403 0.950 . S
H1427 C1405 0.950 . S
C1428 C1429 1.349 . S
C1428 C1430 1.327 . S
C1428 H1453 0.950 . S
C1429 C1428 1.349 . S
C1429 C1445 1.349 . S
C1430 C1428 1.327 . S
C1430 C1449 1.429 . S
C1430 H1454 0.950 . S
C1431 C1448 1.574 . S
C1431 C1450 1.368 . S
C1431 H1455 0.949 . S
H1432 C1436 0.949 . S
C1433 C1434 1.349 . S
C1433 C1435 1.327 . S
C1433 H1456 0.950 . S
C1434 C1433 1.349 . S
C1434 C1446 1.349 . S
C1435 C1433 1.327 . S
C1435 C1451 1.429 . S
C1435 H1457 0.950 . S
C1436 H1432 0.949 . S
C1436 C1444 1.574 . S
C1436 C1452 1.368 . S
H1437 C1445 0.950 . S
H1438 C1443 0.950 . S
H1439 C1444 0.949 . S
H1440 C1446 0.950 . S
H1441 C1447 0.950 . S
H1442 C1448 0.949 . S
C1443 H1438 0.950 . S
C1443 C1445 1.327 . S
C1443 C1449 1.429 . S
C1444 C1436 1.574 . S
C1444 H1439 0.949 . S
C1444 C1450 1.368 . S
C1445 C1429 1.349 . S
C1445 H1437 0.950 . S
C1445 C1443 1.327 . S
C1446 C1434 1.349 . S
C1446 H1440 0.950 . S
C1446 C1447 1.327 . S
C1447 H1441 0.950 . S
C1447 C1446 1.327 . S
C1447 C1451 1.429 . S
C1448 C1431 1.574 . S
C1448 H1442 0.949 . S
C1448 C1452 1.368 . S
C1449 C1430 1.429 . S
C1449 C1443 1.429 . S
C1449 C1450 1.523 . S
C1450 C1431 1.368 . S
C1450 C1444 1.368 . S
C1450 C1449 1.523 . S
C1451 C1435 1.429 . S
C1451 C1447 1.429 . S
C1451 C1452 1.523 . S
C1452 C1436 1.368 . S
C1452 C1448 1.368 . S
C1452 C1451 1.523 . S
H1453 C1428 0.950 . S
H1454 C1430 0.950 . S
H1455 C1431 0.949 . S
H1456 C1433 0.950 . S
H1457 C1435 0.950 . S
C1458 C1459 1.349 . S
C1458 C1460 1.327 . S
C1458 H1483 0.950 . S
C1459 C1458 1.349 . S
C1459 C1475 1.349 . S
C1460 C1458 1.327 . S
C1460 C1479 1.429 . S
C1460 H1484 0.950 . S
C1461 C1478 1.574 . S
C1461 C1480 1.368 . S
C1461 H1485 0.949 . S
H1462 C1466 0.949 . S
C1463 C1464 1.349 . S
C1463 C1465 1.327 . S
C1463 H1486 0.950 . S
C1464 C1463 1.349 . S
C1464 C1476 1.349 . S
C1465 C1463 1.327 . S
C1465 C1481 1.429 . S
C1465 H1487 0.950 . S
C1466 H1462 0.949 . S
C1466 C1474 1.574 . S
C1466 C1482 1.368 . S
H1467 C1475 0.950 . S
H1468 C1473 0.950 . S
H1469 C1474 0.949 . S
H1470 C1476 0.950 . S
H1471 C1477 0.950 . S
H1472 C1478 0.949 . S
C1473 H1468 0.950 . S
C1473 C1475 1.327 . S
C1473 C1479 1.429 . S
C1474 C1466 1.574 . S
C1474 H1469 0.949 . S
C1474 C1480 1.368 . S
C1475 C1459 1.349 . S
C1475 H1467 0.950 . S
C1475 C1473 1.327 . S
C1476 C1464 1.349 . S
C1476 H1470 0.950 . S
C1476 C1477 1.327 . S
C1477 H1471 0.950 . S
C1477 C1476 1.327 . S
C1477 C1481 1.429 . S
C1478 C1461 1.574 . S
C1478 H1472 0.949 . S
C1478 C1482 1.368 . S
C1479 C1460 1.429 . S
C1479 C1473 1.429 . S
C1479 C1480 1.523 . S
C1480 C1461 1.368 . S
C1480 C1474 1.368 . S
C1480 C1479 1.523 . S
C1481 C1465 1.429 . S
C1481 C1477 1.429 . S
C1481 C1482 1.523 . S
C1482 C1466 1.368 . S
C1482 C1478 1.368 . S
C1482 C1481 1.523 . S
H1483 C1458 0.950 . S
H1484 C1460 0.950 . S
H1485 C1461 0.949 . S
H1486 C1463 0.950 . S
H1487 C1465 0.950 . S
C1488 C1489 1.349 . S
C1488 C1490 1.327 . S
C1488 H1513 0.950 . S
C1489 C1488 1.349 . S
C1489 C1505 1.349 . S
C1490 C1488 1.327 . S
C1490 C1509 1.429 . S
C1490 H1514 0.950 . S
C1491 C1508 1.574 . S
C1491 C1510 1.368 . S
C1491 H1515 0.949 . S
H1492 C1496 0.949 . S
C1493 C1494 1.349 . S
C1493 C1495 1.327 . S
C1493 H1516 0.950 . S
C1494 C1493 1.349 . S
C1494 C1506 1.349 . S
C1495 C1493 1.327 . S
C1495 C1511 1.429 . S
C1495 H1517 0.950 . S
C1496 H1492 0.949 . S
C1496 C1504 1.574 . S
C1496 C1512 1.368 . S
H1497 C1505 0.950 . S
H1498 C1503 0.950 . S
H1499 C1504 0.949 . S
H1500 C1506 0.950 . S
H1501 C1507 0.950 . S
H1502 C1508 0.949 . S
C1503 H1498 0.950 . S
C1503 C1505 1.327 . S
C1503 C1509 1.429 . S
C1504 C1496 1.574 . S
C1504 H1499 0.949 . S
C1504 C1510 1.368 . S
C1505 C1489 1.349 . S
C1505 H1497 0.950 . S
C1505 C1503 1.327 . S
C1506 C1494 1.349 . S
C1506 H1500 0.950 . S
C1506 C1507 1.327 . S
C1507 H1501 0.950 . S
C1507 C1506 1.327 . S
C1507 C1511 1.429 . S
C1508 C1491 1.574 . S
C1508 H1502 0.949 . S
C1508 C1512 1.368 . S
C1509 C1490 1.429 . S
C1509 C1503 1.429 . S
C1509 C1510 1.523 . S
C1510 C1491 1.368 . S
C1510 C1504 1.368 . S
C1510 C1509 1.523 . S
C1511 C1495 1.429 . S
C1511 C1507 1.429 . S
C1511 C1512 1.523 . S
C1512 C1496 1.368 . S
C1512 C1508 1.368 . S
C1512 C1511 1.523 . S
H1513 C1488 0.950 . S
H1514 C1490 0.950 . S
H1515 C1491 0.949 . S
H1516 C1493 0.950 . S
H1517 C1495 0.950 . S
C1518 C1519 1.349 . S
C1518 C1520 1.327 . S
C1518 H1543 0.950 . S
C1519 C1518 1.349 . S
C1519 C1535 1.349 . S
C1520 C1518 1.327 . S
C1520 C1539 1.429 . S
C1520 H1544 0.950 . S
C1521 C1538 1.574 . S
C1521 C1540 1.368 . S
C1521 H1545 0.949 . S
H1522 C1526 0.949 . S
C1523 C1524 1.349 . S
C1523 C1525 1.327 . S
C1523 H1546 0.950 . S
C1524 C1523 1.349 . S
C1524 C1536 1.349 . S
C1525 C1523 1.327 . S
C1525 C1541 1.429 . S
C1525 H1547 0.950 . S
C1526 H1522 0.949 . S
C1526 C1534 1.574 . S
C1526 C1542 1.368 . S
H1527 C1535 0.950 . S
H1528 C1533 0.950 . S
H1529 C1534 0.949 . S
H1530 C1536 0.950 . S
H1531 C1537 0.950 . S
H1532 C1538 0.949 . S
C1533 H1528 0.950 . S
C1533 C1535 1.327 . S
C1533 C1539 1.429 . S
C1534 C1526 1.574 . S
C1534 H1529 0.949 . S
C1534 C1540 1.368 . S
C1535 C1519 1.349 . S
C1535 H1527 0.950 . S
C1535 C1533 1.327 . S
C1536 C1524 1.349 . S
C1536 H1530 0.950 . S
C1536 C1537 1.327 . S
C1537 H1531 0.950 . S
C1537 C1536 1.327 . S
C1537 C1541 1.429 . S
C1538 C1521 1.574 . S
C1538 H1532 0.949 . S
C1538 C1542 1.368 . S
C1539 C1520 1.429 . S
C1539 C1533 1.429 . S
C1539 C1540 1.523 . S
C1540 C1521 1.368 . S
C1540 C1534 1.368 . S
C1540 C1539 1.523 . S
C1541 C1525 1.429 . S
C1541 C1537 1.429 . S
C1541 C1542 1.523 . S
C1542 C1526 1.368 . S
C1542 C1538 1.368 . S
C1542 C1541 1.523 . S
H1543 C1518 0.950 . S
H1544 C1520 0.950 . S
H1545 C1521 0.949 . S
H1546 C1523 0.950 . S
H1547 C1525 0.950 . S
C1548 C1549 1.349 . S
C1548 C1550 1.327 . S
C1548 H1573 0.950 . S
C1549 C1548 1.349 . S
C1549 C1565 1.349 . S
C1550 C1548 1.327 . S
C1550 C1569 1.429 . S
C1550 H1574 0.950 . S
C1551 C1568 1.574 . S
C1551 C1570 1.368 . S
C1551 H1575 0.949 . S
H1552 C1556 0.949 . S
C1553 C1554 1.349 . S
C1553 C1555 1.327 . S
C1553 H1576 0.950 . S
C1554 C1553 1.349 . S
C1554 C1566 1.349 . S
C1555 C1553 1.327 . S
C1555 C1571 1.429 . S
C1555 H1577 0.950 . S
C1556 H1552 0.949 . S
C1556 C1564 1.574 . S
C1556 C1572 1.368 . S
H1557 C1565 0.950 . S
H1558 C1563 0.950 . S
H1559 C1564 0.949 . S
H1560 C1566 0.950 . S
H1561 C1567 0.950 . S
H1562 C1568 0.949 . S
C1563 H1558 0.950 . S
C1563 C1565 1.327 . S
C1563 C1569 1.429 . S
C1564 C1556 1.574 . S
C1564 H1559 0.949 . S
C1564 C1570 1.368 . S
C1565 C1549 1.349 . S
C1565 H1557 0.950 . S
C1565 C1563 1.327 . S
C1566 C1554 1.349 . S
C1566 H1560 0.950 . S
C1566 C1567 1.327 . S
C1567 H1561 0.950 . S
C1567 C1566 1.327 . S
C1567 C1571 1.429 . S
C1568 C1551 1.574 . S
C1568 H1562 0.949 . S
C1568 C1572 1.368 . S
C1569 C1550 1.429 . S
C1569 C1563 1.429 . S
C1569 C1570 1.523 . S
C1570 C1551 1.368 . S
C1570 C1564 1.368 . S
C1570 C1569 1.523 . S
C1571 C1555 1.429 . S
C1571 C1567 1.429 . S
C1571 C1572 1.523 . S
C1572 C1556 1.368 . S
C1572 C1568 1.368 . S
C1572 C1571 1.523 . S
H1573 C1548 0.950 . S
H1574 C1550 0.950 . S
H1575 C1551 0.949 . S
H1576 C1553 0.950 . S
H1577 C1555 0.950 . S
C1578 C1579 1.349 . S
C1578 C1580 1.327 . S
C1578 H1603 0.950 . S
C1579 C1578 1.349 . S
C1579 C1595 1.349 . S
C1580 C1578 1.327 . S
C1580 C1599 1.429 . S
C1580 H1604 0.950 . S
C1581 C1598 1.574 . S
C1581 C1600 1.368 . S
C1581 H1605 0.949 . S
H1582 C1586 0.949 . S
C1583 C1584 1.349 . S
C1583 C1585 1.327 . S
C1583 H1606 0.950 . S
C1584 C1583 1.349 . S
C1584 C1596 1.349 . S
C1585 C1583 1.327 . S
C1585 C1601 1.429 . S
C1585 H1607 0.950 . S
C1586 H1582 0.949 . S
C1586 C1594 1.574 . S
C1586 C1602 1.368 . S
H1587 C1595 0.950 . S
H1588 C1593 0.950 . S
H1589 C1594 0.949 . S
H1590 C1596 0.950 . S
H1591 C1597 0.950 . S
H1592 C1598 0.949 . S
C1593 H1588 0.950 . S
C1593 C1595 1.327 . S
C1593 C1599 1.429 . S
C1594 C1586 1.574 . S
C1594 H1589 0.949 . S
C1594 C1600 1.368 . S
C1595 C1579 1.349 . S
C1595 H1587 0.950 . S
C1595 C1593 1.327 . S
C1596 C1584 1.349 . S
C1596 H1590 0.950 . S
C1596 C1597 1.327 . S
C1597 H1591 0.950 . S
C1597 C1596 1.327 . S
C1597 C1601 1.429 . S
C1598 C1581 1.574 . S
C1598 H1592 0.949 . S
C1598 C1602 1.368 . S
C1599 C1580 1.429 . S
C1599 C1593 1.429 . S
C1599 C1600 1.523 . S
C1600 C1581 1.368 . S
C1600 C1594 1.368 . S
C1600 C1599 1.523 . S
C1601 C1585 1.429 . S
C1601 C1597 1.429 . S
C1601 C1602 1.523 . S
C1602 C1586 1.368 . S
C1602 C1598 1.368 . S
C1602 C1601 1.523 . S
H1603 C1578 0.950 . S
H1604 C1580 0.950 . S
H1605 C1581 0.949 . S
H1606 C1583 0.950 . S
H1607 C1585 0.950 . S
C1608 C1609 1.349 1_545 S
C1608 C1610 1.327 . S
C1608 H1633 0.950 . S
C1609 C1608 1.349 1_565 S
C1609 C1625 1.349 . S
C1610 C1608 1.327 . S
C1610 C1629 1.403 1_545 S
C1610 H1634 0.950 . S
C1611 C1628 1.574 1_556 S
C1611 C1630 1.379 . S
C1611 H1635 0.949 . S
H1612 C1616 0.949 . S
C1613 C1614 1.349 1_565 S
C1613 C1615 1.327 . S
C1613 H1636 0.950 . S
C1614 C1613 1.349 1_545 S
C1614 C1626 1.349 . S
C1615 C1613 1.327 . S
C1615 C1631 1.403 1_565 S
C1615 H1637 0.950 . S
C1616 H1612 0.949 . S
C1616 C1624 1.574 1_554 S
C1616 C1632 1.379 . S
H1617 C1625 0.950 . S
H1618 C1623 0.950 . S
H1619 C1624 0.949 . S
H1620 C1626 0.950 . S
H1621 C1627 0.950 . S
H1622 C1628 0.949 . S
C1623 H1618 0.950 . S
C1623 C1625 1.327 . S
C1623 C1629 1.455 . S
C1624 C1616 1.574 1_556 S
C1624 H1619 0.949 . S
C1624 C1630 1.357 1_545 S
C1625 C1609 1.349 . S
C1625 H1617 0.950 . S
C1625 C1623 1.327 . S
C1626 C1614 1.349 . S
C1626 H1620 0.950 . S
C1626 C1627 1.327 . S
C1627 H1621 0.950 . S
C1627 C1626 1.327 . S
C1627 C1631 1.455 . S
C1628 C1611 1.574 1_554 S
C1628 H1622 0.949 . S
C1628 C1632 1.357 1_565 S
C1629 C1610 1.403 1_565 S
C1629 C1623 1.455 . S
C1629 C1630 1.523 . S
C1630 C1611 1.379 . S
C1630 C1624 1.357 1_565 S
C1630 C1629 1.523 . S
C1631 C1615 1.403 1_545 S
C1631 C1627 1.455 . S
C1631 C1632 1.523 . S
C1632 C1616 1.379 . S
C1632 C1628 1.357 1_545 S
C1632 C1631 1.523 . S
H1633 C1608 0.950 . S
H1634 C1610 0.950 . S
H1635 C1611 0.949 . S
H1636 C1613 0.950 . S
H1637 C1615 0.950 . S
C1638 C1639 1.349 . S
C1638 C1640 1.327 . S
C1638 H1663 0.950 . S
C1639 C1638 1.349 . S
C1639 C1655 1.349 1_455 S
C1640 C1638 1.327 . S
C1640 C1659 1.447 . S
C1640 H1664 0.950 . S
C1641 C1658 1.574 1_556 S
C1641 C1660 1.360 1_655 S
C1641 H1665 0.949 . S
H1642 C1646 0.949 . S
C1643 C1644 1.349 . S
C1643 C1645 1.327 . S
C1643 H1666 0.950 . S
C1644 C1643 1.349 . S
C1644 C1656 1.349 1_655 S
C1645 C1643 1.327 . S
C1645 C1661 1.447 . S
C1645 H1667 0.950 . S
C1646 H1642 0.949 . S
C1646 C1654 1.574 1_554 S
C1646 C1662 1.360 1_455 S
H1647 C1655 0.950 . S
H1648 C1653 0.950 . S
H1649 C1654 0.949 . S
H1650 C1656 0.950 . S
H1651 C1657 0.950 . S
H1652 C1658 0.949 . S
C1653 H1648 0.950 . S
C1653 C1655 1.327 . S
C1653 C1659 1.411 1_655 S
C1654 C1646 1.574 1_556 S
C1654 H1649 0.949 . S
C1654 C1660 1.376 . S
C1655 C1639 1.349 1_655 S
C1655 H1647 0.950 . S
C1655 C1653 1.327 . S
C1656 C1644 1.349 1_455 S
C1656 H1650 0.950 . S
C1656 C1657 1.327 . S
C1657 H1651 0.950 . S
C1657 C1656 1.327 . S
C1657 C1661 1.411 1_455 S
C1658 C1641 1.574 1_554 S
C1658 H1652 0.949 . S
C1658 C1662 1.376 . S
C1659 C1640 1.447 . S
C1659 C1653 1.411 1_455 S
C1659 C1660 1.523 . S
C1660 C1641 1.360 1_455 S
C1660 C1654 1.376 . S
C1660 C1659 1.523 . S
C1661 C1645 1.447 . S
C1661 C1657 1.411 1_655 S
C1661 C1662 1.523 . S
C1662 C1646 1.360 1_655 S
C1662 C1658 1.376 . S
C1662 C1661 1.523 . S
H1663 C1638 0.950 . S
H1664 C1640 0.950 . S
H1665 C1641 0.949 . S
H1666 C1643 0.950 . S
H1667 C1645 0.950 . S
C1668 C1669 1.349 . S
C1668 C1670 1.327 . S
C1668 H1693 0.950 . S
C1669 C1668 1.349 . S
C1669 C1685 1.349 1_565 S
C1670 C1668 1.327 . S
C1670 C1689 1.455 . S
C1670 H1694 0.950 . S
C1671 C1688 1.574 1_554 S
C1671 C1690 1.357 1_545 S
C1671 H1695 0.949 . S
H1672 C1676 0.949 . S
C1673 C1674 1.349 . S
C1673 C1675 1.327 . S
C1673 H1696 0.950 . S
C1674 C1673 1.349 . S
C1674 C1686 1.349 1_545 S
C1675 C1673 1.327 . S
C1675 C1691 1.455 . S
C1675 H1697 0.950 . S
C1676 H1672 0.949 . S
C1676 C1684 1.574 1_556 S
C1676 C1692 1.357 1_565 S
H1677 C1685 0.950 . S
H1678 C1683 0.950 . S
H1679 C1684 0.949 . S
H1680 C1686 0.950 . S
H1681 C1687 0.950 . S
H1682 C1688 0.949 . S
C1683 H1678 0.950 . S
C1683 C1685 1.327 . S
C1683 C1689 1.404 1_545 S
C1684 C1676 1.574 1_554 S
C1684 H1679 0.949 . S
C1684 C1690 1.379 . S
C1685 C1669 1.349 1_545 S
C1685 H1677 0.950 . S
C1685 C1683 1.327 . S
C1686 C1674 1.349 1_565 S
C1686 H1680 0.950 . S
C1686 C1687 1.327 . S
C1687 H1681 0.950 . S
C1687 C1686 1.327 . S
C1687 C1691 1.404 1_565 S
C1688 C1671 1.574 1_556 S
C1688 H1682 0.949 . S
C1688 C1692 1.379 . S
C1689 C1670 1.455 . S
C1689 C1683 1.404 1_565 S
C1689 C1690 1.523 . S
C1690 C1671 1.357 1_565 S
C1690 C1684 1.379 . S
C1690 C1689 1.523 . S
C1691 C1675 1.455 . S
C1691 C1687 1.404 1_545 S
C1691 C1692 1.523 . S
C1692 C1676 1.357 1_545 S
C1692 C1688 1.379 . S
C1692 C1691 1.523 . S
H1693 C1668 0.950 . S
H1694 C1670 0.950 . S
H1695 C1671 0.949 . S
H1696 C1673 0.950 . S
H1697 C1675 0.950 . S
C1698 C1699 1.349 1_455 S
C1698 C1700 1.327 . S
C1698 H1723 0.950 . S
C1699 C1698 1.349 1_655 S
C1699 C1715 1.349 . S
C1700 C1698 1.327 . S
C1700 C1719 1.411 1_455 S
C1700 H1724 0.950 . S
C1701 C1718 1.574 1_556 S
C1701 C1720 1.376 . S
C1701 H1725 0.949 . S
H1702 C1706 0.949 . S
C1703 C1704 1.349 1_655 S
C1703 C1705 1.327 . S
C1703 H1726 0.950 . S
C1704 C1703 1.349 1_455 S
C1704 C1716 1.349 . S
C1705 C1703 1.327 . S
C1705 C1721 1.411 1_655 S
C1705 H1727 0.950 . S
C1706 H1702 0.949 . S
C1706 C1714 1.574 1_554 S
C1706 C1722 1.376 . S
H1707 C1715 0.950 . S
H1708 C1713 0.950 . S
H1709 C1714 0.949 . S
H1710 C1716 0.950 . S
H1711 C1717 0.950 . S
H1712 C1718 0.949 . S
C1713 H1708 0.950 . S
C1713 C1715 1.327 . S
C1713 C1719 1.447 . S
C1714 C1706 1.574 1_556 S
C1714 H1709 0.949 . S
C1714 C1720 1.360 1_455 S
C1715 C1699 1.349 . S
C1715 H1707 0.950 . S
C1715 C1713 1.327 . S
C1716 C1704 1.349 . S
C1716 H1710 0.950 . S
C1716 C1717 1.327 . S
C1717 H1711 0.950 . S
C1717 C1716 1.327 . S
C1717 C1721 1.447 . S
C1718 C1701 1.574 1_554 S
C1718 H1712 0.949 . S
C1718 C1722 1.360 1_655 S
C1719 C1700 1.411 1_655 S
C1719 C1713 1.447 . S
C1719 C1720 1.523 . S
C1720 C1701 1.376 . S
C1720 C1714 1.360 1_655 S
C1720 C1719 1.523 . S
C1721 C1705 1.411 1_455 S
C1721 C1717 1.447 . S
C1721 C1722 1.523 . S
C1722 C1706 1.376 . S
C1722 C1718 1.360 1_455 S
C1722 C1721 1.523 . S
H1723 C1698 0.950 . S
H1724 C1700 0.950 . S
H1725 C1701 0.949 . S
H1726 C1703 0.950 . S
H1727 C1705 0.950 . S
C529 C73 0.786 . S
C534 C7 0.786 . S
C559 C106 0.786 . S
C564 C40 0.786 . S
C589 C205 0.786 . S
C594 C139 0.786 . S
C619 C172 0.786 . S
C624 C238 0.786 . S
C649 C271 0.786 . S
C654 C337 0.786 . S
C679 C304 0.786 . S
C684 C370 0.786 . S
C709 C469 0.786 . S
C714 C403 0.786 . S
C739 C502 0.786 . S
C744 C436 0.786 . S
C769 C18 1.163 . S
C774 C249 1.163 . S
C799 C150 1.163 . S
C804 C51 1.163 . S
C829 C183 1.163 . S
C834 C84 1.163 . S
C859 C216 1.163 . S
C864 C117 1.163 . S
C889 C513 1.163 . S
C894 C282 1.163 . S
C919 C414 1.163 . S
C924 C315 1.163 . S
C949 C447 1.163 . S
C954 C348 1.163 . S
C979 C480 1.163 . S
C984 C381 1.163 . S
C1009 C21 0.622 . S
C1014 N365 0.531 . S
C1039 C54 0.622 . S
C1044 N266 0.531 . S
C1069 C87 0.622 . S
C1074 N299 0.531 . S
C1099 N332 0.531 . S
C1104 C120 0.622 . S
C1129 C153 0.622 . S
C1134 N431 0.531 . S
C1159 C186 0.622 . S
C1164 N464 0.531 . S
C1189 C219 0.622 . S
C1194 N497 0.531 . S
C1219 C252 0.622 . S
C1224 N398 0.531 . S
C1249 N101 0.531 . S
C1254 C285 0.622 . S
C1279 N2 0.531 . S
C1284 C318 0.622 . S
C1309 N35 0.531 . S
C1314 C351 0.622 . S
C1339 C384 0.622 . S
C1344 N68 0.531 . S
C1369 C417 0.622 . S
C1374 N167 0.531 . S
C1399 C450 0.622 . S
C1404 N200 0.531 . S
C1429 C483 0.622 . S
C1434 N233 0.531 . S
C1459 C516 0.622 . S
C1464 N134 0.531 . S
C1489 N145 1.645 . S
C1494 N13 1.645 . S
C1519 N178 1.645 . S
C1524 N46 1.645 . S
C1549 N79 1.645 . S
C1554 N211 1.645 . S
C1579 N244 1.645 . S
C1584 N112 1.645 . S
C1609 N277 1.645 . S
C1614 N409 1.645 . S
C1639 N442 1.645 . S
C1644 N310 1.645 . S
C1669 N475 1.645 . S
C1674 N343 1.645 . S
C1699 N508 1.645 . S
C1704 N376 1.645 . S
