# Generated by pormake.
# Topology tzs, (4)-cn, num edge types: 1
# Building blocks:
#     Node 0, Type 0, BuildingBlock: AZAVOO_clean_sbu_0, # of connection points: 4
#     Node 1, Type 0, BuildingBlock: AZAVOO_clean_sbu_0, # of connection points: 4
#     Node 2, Type 0, BuildingBlock: AZAVOO_clean_sbu_0, # of connection points: 4
#     Node 3, Type 0, BuildingBlock: AZAVOO_clean_sbu_0, # of connection points: 4
#     Node 4, Type 0, BuildingBlock: AZAVOO_clean_sbu_0, # of connection points: 4
#     Node 5, Type 0, BuildingBlock: AZAVOO_clean_sbu_0, # of connection points: 4
#     Node 6, Type 0, BuildingBlock: AZAVOO_clean_sbu_0, # of connection points: 4
#     Node 7, Type 0, BuildingBlock: AZAVOO_clean_sbu_0, # of connection points: 4
#     Node 8, Type 0, BuildingBlock: AZAVOO_clean_sbu_0, # of connection points: 4
#     Node 9, Type 0, BuildingBlock: AZAVOO_clean_sbu_0, # of connection points: 4
#     Node 10, Type 0, BuildingBlock: AZAVOO_clean_sbu_0, # of connection points: 4
#     Node 11, Type 0, BuildingBlock: AZAVOO_clean_sbu_0, # of connection points: 4
#     Node 12, Type 0, BuildingBlock: AZAVOO_clean_sbu_0, # of connection points: 4
#     Node 13, Type 0, BuildingBlock: AZAVOO_clean_sbu_0, # of connection points: 4
#     Node 14, Type 0, BuildingBlock: AZAVOO_clean_sbu_0, # of connection points: 4
#     Node 15, Type 0, BuildingBlock: AZAVOO_clean_sbu_0, # of connection points: 4
#     Edge 16, Type (0, 0), BuildingBlock: ZUJKAS_clean_linker_0, # of connection points: 2
#     Edge 17, Type (0, 0), BuildingBlock: ZUJKAS_clean_linker_0, # of connection points: 2
#     Edge 18, Type (0, 0), BuildingBlock: ZUJKAS_clean_linker_0, # of connection points: 2
#     Edge 19, Type (0, 0), BuildingBlock: ZUJKAS_clean_linker_0, # of connection points: 2
#     Edge 20, Type (0, 0), BuildingBlock: ZUJKAS_clean_linker_0, # of connection points: 2
#     Edge 21, Type (0, 0), BuildingBlock: ZUJKAS_clean_linker_0, # of connection points: 2
#     Edge 22, Type (0, 0), BuildingBlock: ZUJKAS_clean_linker_0, # of connection points: 2
#     Edge 23, Type (0, 0), BuildingBlock: ZUJKAS_clean_linker_0, # of connection points: 2
#     Edge 24, Type (0, 0), BuildingBlock: ZUJKAS_clean_linker_0, # of connection points: 2
#     Edge 25, Type (0, 0), BuildingBlock: ZUJKAS_clean_linker_0, # of connection points: 2
#     Edge 26, Type (0, 0), BuildingBlock: ZUJKAS_clean_linker_0, # of connection points: 2
#     Edge 27, Type (0, 0), BuildingBlock: ZUJKAS_clean_linker_0, # of connection points: 2
#     Edge 28, Type (0, 0), BuildingBlock: ZUJKAS_clean_linker_0, # of connection points: 2
#     Edge 29, Type (0, 0), BuildingBlock: ZUJKAS_clean_linker_0, # of connection points: 2
#     Edge 30, Type (0, 0), BuildingBlock: ZUJKAS_clean_linker_0, # of connection points: 2
#     Edge 31, Type (0, 0), BuildingBlock: ZUJKAS_clean_linker_0, # of connection points: 2
#     Edge 32, Type (0, 0), BuildingBlock: ZUJKAS_clean_linker_0, # of connection points: 2
#     Edge 33, Type (0, 0), BuildingBlock: ZUJKAS_clean_linker_0, # of connection points: 2
#     Edge 34, Type (0, 0), BuildingBlock: ZUJKAS_clean_linker_0, # of connection points: 2
#     Edge 35, Type (0, 0), BuildingBlock: ZUJKAS_clean_linker_0, # of connection points: 2
#     Edge 36, Type (0, 0), BuildingBlock: ZUJKAS_clean_linker_0, # of connection points: 2
#     Edge 37, Type (0, 0), BuildingBlock: ZUJKAS_clean_linker_0, # of connection points: 2
#     Edge 38, Type (0, 0), BuildingBlock: ZUJKAS_clean_linker_0, # of connection points: 2
#     Edge 39, Type (0, 0), BuildingBlock: ZUJKAS_clean_linker_0, # of connection points: 2
#     Edge 40, Type (0, 0), BuildingBlock: ZUJKAS_clean_linker_0, # of connection points: 2
#     Edge 41, Type (0, 0), BuildingBlock: ZUJKAS_clean_linker_0, # of connection points: 2
#     Edge 42, Type (0, 0), BuildingBlock: ZUJKAS_clean_linker_0, # of connection points: 2
#     Edge 43, Type (0, 0), BuildingBlock: ZUJKAS_clean_linker_0, # of connection points: 2
#     Edge 44, Type (0, 0), BuildingBlock: ZUJKAS_clean_linker_0, # of connection points: 2
#     Edge 45, Type (0, 0), BuildingBlock: ZUJKAS_clean_linker_0, # of connection points: 2
#     Edge 46, Type (0, 0), BuildingBlock: ZUJKAS_clean_linker_0, # of connection points: 2
#     Edge 47, Type (0, 0), BuildingBlock: ZUJKAS_clean_linker_0, # of connection points: 2
# Relax obj value: 0.106
# Max RMSD: 0.117
# Mean RMSD: 0.117
data_MOF--net-tzs--node1-AZAVOO_clean_sbu_0--edge1-ZUJKAS_clean_linker_0
_symmetry_space_group_name_H-M    P1
_symmetry_Int_Tables_number       1
_symmetry_cell_setting            triclinic
loop_
_symmetry_equiv_pos_as_xyz
'x, y, z'
_cell_length_a     61.599758
_cell_length_b     61.543546
_cell_length_c     53.305091
_cell_angle_alpha  89.993767
_cell_angle_beta   90.02017
_cell_angle_gamma 89.991129
loop_
_atom_site_label
_atom_site_type_symbol
_atom_site_fract_x
_atom_site_fract_y
_atom_site_fract_z
_atom_type_partial_charge
Mg0 Mg 0.15428 0.35546 0.16719 0.0
O1 O 0.11977 0.34787 0.18101 0.0
O2 O 0.10681 0.32035 0.15814 0.0
Mg3 Mg 0.13296 0.31036 0.12997 0.0
C4 C 0.10466 0.33449 0.1755 0.0
C5 C 0.14653 0.39248 0.20446 0.0
O6 O 0.12803 0.39178 0.19222 0.0
O7 O 0.16712 0.3255 0.18722 0.0
O8 O 0.15476 0.2988 0.16259 0.0
O9 O 0.14115 0.3783 0.13906 0.0
O10 O 0.14659 0.34332 0.13191 0.0
C11 C 0.16562 0.30538 0.18159 0.0
C12 C 0.1395 0.36184 0.12409 0.0
O13 O 0.16069 0.37793 0.20019 0.0
Mg14 Mg 0.6416 0.14926 0.16519 0.0
O15 O 0.64808 0.11472 0.17976 0.0
O16 O 0.67488 0.10082 0.15649 0.0
Mg17 Mg 0.68567 0.1263 0.12786 0.0
C18 C 0.66095 0.09918 0.17413 0.0
C19 C 0.61028 0.17511 0.19606 0.0
O20 O 0.6165 0.18828 0.17803 0.0
O21 O 0.67197 0.16153 0.1847 0.0
O22 O 0.6981 0.14832 0.15988 0.0
O23 O 0.61825 0.13653 0.13719 0.0
O24 O 0.65331 0.14106 0.13001 0.0
C25 C 0.69196 0.15957 0.17877 0.0
C26 C 0.63462 0.13458 0.12215 0.0
O27 O 0.61965 0.1568 0.19808 0.0
Mg28 Mg 0.84891 0.64144 0.1753 0.0
O29 O 0.88433 0.64726 0.18697 0.0
O30 O 0.89677 0.67493 0.16396 0.0
Mg31 Mg 0.86985 0.68615 0.13737 0.0
C32 C 0.89946 0.66042 0.1808 0.0
C33 C 0.82503 0.60951 0.20752 0.0
O34 O 0.81067 0.6163 0.19105 0.0
O35 O 0.83807 0.67157 0.19656 0.0
O36 O 0.84972 0.69804 0.17115 0.0
O37 O 0.85956 0.61854 0.14575 0.0
O38 O 0.85498 0.6538 0.13981 0.0
C39 C 0.83966 0.69166 0.1908 0.0
C40 C 0.86073 0.63518 0.13098 0.0
O41 O 0.84345 0.61878 0.20816 0.0
Mg42 Mg 0.36125 0.85125 0.16187 0.0
O43 O 0.35553 0.88565 0.17747 0.0
O44 O 0.32873 0.90024 0.15471 0.0
Mg45 Mg 0.31721 0.87552 0.12562 0.0
C46 C 0.34281 0.90144 0.17225 0.0
C47 C 0.39716 0.82833 0.18649 0.0
O48 O 0.39466 0.82018 0.16388 0.0
O49 O 0.33089 0.83913 0.18146 0.0
O50 O 0.30472 0.85311 0.15726 0.0
O51 O 0.38461 0.86411 0.13409 0.0
O52 O 0.34944 0.86044 0.127 0.0
C53 C 0.31087 0.84146 0.17583 0.0
C54 C 0.36822 0.86675 0.11922 0.0
O55 O 0.38358 0.84243 0.19406 0.0
Mg56 Mg 0.1571 0.64345 0.31227 0.0
O57 O 0.12186 0.64895 0.2996 0.0
O58 O 0.10854 0.6761 0.32279 0.0
Mg59 Mg 0.1347 0.6873 0.35037 0.0
C60 C 0.10642 0.66182 0.30559 0.0
C61 C 0.17994 0.60919 0.28349 0.0
O62 O 0.19219 0.61363 0.30302 0.0
O63 O 0.1679 0.67397 0.29187 0.0
O64 O 0.15537 0.69998 0.31734 0.0
O65 O 0.14606 0.6199 0.34073 0.0
O66 O 0.14993 0.65508 0.34792 0.0
C67 C 0.16591 0.69397 0.29787 0.0
C68 C 0.14412 0.63618 0.35592 0.0
O69 O 0.16355 0.6212 0.27932 0.0
Mg70 Mg 0.36299 0.15178 0.31997 0.0
O71 O 0.35676 0.11687 0.3065 0.0
O72 O 0.33034 0.10314 0.33048 0.0
Mg73 Mg 0.31965 0.12911 0.35858 0.0
C74 C 0.34412 0.10131 0.3127 0.0
C75 C 0.39375 0.17713 0.28767 0.0
O76 O 0.38779 0.19073 0.30538 0.0
O77 O 0.33227 0.16323 0.30065 0.0
O78 O 0.3065 0.15038 0.32619 0.0
O79 O 0.38691 0.14 0.34777 0.0
O80 O 0.3519 0.14411 0.35561 0.0
C81 C 0.31236 0.16127 0.30689 0.0
C82 C 0.37083 0.13805 0.36322 0.0
O83 O 0.38437 0.15878 0.28643 0.0
Mg84 Mg 0.84987 0.35611 0.31354 0.0
O85 O 0.88485 0.35016 0.30002 0.0
O86 O 0.89759 0.32225 0.32251 0.0
Mg87 Mg 0.87191 0.31145 0.35076 0.0
C88 C 0.89992 0.33668 0.3055 0.0
C89 C 0.82479 0.38855 0.28421 0.0
O90 O 0.81209 0.38219 0.30262 0.0
O91 O 0.83827 0.3259 0.29305 0.0
O92 O 0.85034 0.29946 0.31824 0.0
O93 O 0.86126 0.37939 0.34226 0.0
O94 O 0.85766 0.3441 0.34879 0.0
C95 C 0.83974 0.30584 0.29896 0.0
C96 C 0.86335 0.36292 0.35715 0.0
O97 O 0.84268 0.37865 0.28101 0.0
Mg98 Mg 0.64283 0.84929 0.32429 0.0
O99 O 0.64906 0.88373 0.30916 0.0
O100 O 0.67569 0.89794 0.33248 0.0
Mg101 Mg 0.68671 0.87282 0.36141 0.0
C102 C 0.6618 0.89939 0.31476 0.0
C103 C 0.60755 0.82627 0.29864 0.0
O104 O 0.61062 0.81708 0.32062 0.0
O105 O 0.67325 0.83693 0.30499 0.0
O106 O 0.69926 0.85049 0.32974 0.0
O107 O 0.61935 0.86228 0.35188 0.0
O108 O 0.6544 0.85801 0.35942 0.0
C109 C 0.69322 0.83901 0.31098 0.0
C110 C 0.63563 0.86456 0.36699 0.0
O111 O 0.62065 0.84106 0.29176 0.0
Mg112 Mg 0.85617 0.65324 0.82436 0.0
O113 O 0.84971 0.61871 0.80969 0.0
O114 O 0.82181 0.60542 0.83169 0.0
Mg115 Mg 0.81004 0.63139 0.85916 0.0
C116 C 0.83643 0.6034 0.81485 0.0
C117 C 0.89461 0.67301 0.80147 0.0
O118 O 0.89142 0.68205 0.8235 0.0
O119 O 0.82706 0.66609 0.80273 0.0
O120 O 0.79972 0.65337 0.82612 0.0
O121 O 0.87785 0.64011 0.85378 0.0
O122 O 0.84267 0.64557 0.85898 0.0
C123 C 0.8068 0.66444 0.80753 0.0
C124 C 0.86084 0.63863 0.86789 0.0
O125 O 0.88036 0.65986 0.79327 0.0
Mg126 Mg 0.34436 0.8607 0.8188 0.0
O127 O 0.37832 0.85341 0.80289 0.0
O128 O 0.39144 0.82545 0.825 0.0
Mg129 Mg 0.36666 0.81543 0.85472 0.0
C130 C 0.39333 0.83965 0.80766 0.0
C131 C 0.32246 0.89731 0.79428 0.0
O132 O 0.31407 0.89479 0.81677 0.0
O133 O 0.33048 0.83091 0.79941 0.0
O134 O 0.34319 0.80407 0.82359 0.0
O135 O 0.35872 0.88349 0.84614 0.0
O136 O 0.35343 0.84853 0.85358 0.0
C137 C 0.33173 0.81079 0.80513 0.0
C138 C 0.36089 0.86702 0.86102 0.0
O139 O 0.33628 0.88343 0.7867 0.0
Mg140 Mg 0.13948 0.34958 0.82061 0.0
O141 O 0.14554 0.38443 0.80673 0.0
O142 O 0.17266 0.39777 0.82999 0.0
Mg143 Mg 0.18383 0.37189 0.85801 0.0
C144 C 0.15851 0.39982 0.81262 0.0
C145 C 0.10344 0.32778 0.79503 0.0
O146 O 0.10621 0.31859 0.81706 0.0
O147 O 0.16969 0.33788 0.80025 0.0
O148 O 0.19592 0.34995 0.82573 0.0
O149 O 0.11631 0.36159 0.84921 0.0
O150 O 0.15145 0.35731 0.8559 0.0
C151 C 0.18967 0.33927 0.80644 0.0
C152 C 0.13277 0.36347 0.86412 0.0
O153 O 0.11693 0.34223 0.78814 0.0
Mg154 Mg 0.65066 0.1435 0.81802 0.0
O155 O 0.61589 0.15058 0.80496 0.0
O156 O 0.60336 0.17788 0.82851 0.0
Mg157 Mg 0.62949 0.18737 0.85707 0.0
C158 C 0.60091 0.16397 0.81095 0.0
C159 C 0.67516 0.11217 0.78592 0.0
O160 O 0.68877 0.11808 0.80364 0.0
O161 O 0.66282 0.17411 0.79864 0.0
O162 O 0.65151 0.19987 0.8252 0.0
O163 O 0.63833 0.11981 0.84586 0.0
O164 O 0.64345 0.15471 0.85373 0.0
C165 C 0.66191 0.19395 0.80559 0.0
C166 C 0.63685 0.13595 0.86132 0.0
O167 O 0.657 0.12187 0.78446 0.0
Mg168 Mg 0.85449 0.35325 0.66491 0.0
O169 O 0.84911 0.38785 0.67983 0.0
O170 O 0.8214 0.40172 0.65793 0.0
Mg171 Mg 0.80966 0.37667 0.62925 0.0
C172 C 0.83598 0.40336 0.67489 0.0
C173 C 0.89066 0.33037 0.68864 0.0
O174 O 0.8869 0.32155 0.6666 0.0
O175 O 0.82456 0.34156 0.68573 0.0
O176 O 0.79793 0.35405 0.66109 0.0
O177 O 0.87736 0.36517 0.63604 0.0
O178 O 0.84202 0.36186 0.63009 0.0
C179 C 0.80448 0.34306 0.68001 0.0
C180 C 0.86073 0.36755 0.62148 0.0
O181 O 0.87768 0.34492 0.69647 0.0
Mg182 Mg 0.64839 0.86121 0.67087 0.0
O183 O 0.61378 0.8541 0.6848 0.0
O184 O 0.60135 0.82626 0.66201 0.0
Mg185 Mg 0.62727 0.81618 0.6336 0.0
C186 C 0.59888 0.84047 0.67924 0.0
C187 C 0.67317 0.89355 0.70078 0.0
O188 O 0.68611 0.88731 0.68255 0.0
O189 O 0.66132 0.83124 0.69089 0.0
O190 O 0.64947 0.80463 0.66582 0.0
O191 O 0.63545 0.88409 0.64255 0.0
O192 O 0.64088 0.84908 0.63567 0.0
C193 C 0.66023 0.81117 0.6849 0.0
C194 C 0.63402 0.86759 0.6276 0.0
O195 O 0.65518 0.88373 0.70352 0.0
Mg196 Mg 0.14113 0.64938 0.65979 0.0
O197 O 0.14705 0.61538 0.67668 0.0
O198 O 0.17591 0.60167 0.65676 0.0
Mg199 Mg 0.1884 0.62638 0.62819 0.0
C200 C 0.16072 0.60008 0.67296 0.0
C201 C 0.11186 0.65055 0.71075 0.0
O202 O 0.12433 0.63536 0.72035 0.0
O203 O 0.16955 0.66305 0.6818 0.0
O204 O 0.19779 0.64989 0.66025 0.0
O205 O 0.12024 0.63524 0.63029 0.0
O206 O 0.15562 0.64011 0.6263 0.0
C207 C 0.18996 0.66154 0.67796 0.0
C208 C 0.13765 0.63304 0.61697 0.0
O209 O 0.11617 0.65832 0.68926 0.0
Mg210 Mg 0.34952 0.14642 0.66418 0.0
O211 O 0.38332 0.15321 0.68061 0.0
O212 O 0.39674 0.18152 0.65937 0.0
Mg213 Mg 0.37237 0.19195 0.62924 0.0
C214 C 0.39839 0.16702 0.67643 0.0
C215 C 0.32649 0.11015 0.68769 0.0
O216 O 0.31796 0.11375 0.66546 0.0
O217 O 0.3359 0.17607 0.68408 0.0
O218 O 0.34837 0.20306 0.65994 0.0
O219 O 0.36387 0.12384 0.63659 0.0
O220 O 0.35899 0.15894 0.62971 0.0
C221 C 0.33696 0.1962 0.67836 0.0
C222 C 0.36632 0.14047 0.62202 0.0
O223 O 0.34089 0.12324 0.69567 0.0
H224 H 0.26817 0.15906 0.31216 0.0
H225 H 0.24079 0.18074 0.29038 0.0
H226 H 0.29109 0.21246 0.24768 0.0
H227 H 0.31856 0.1906 0.26893 0.0
H228 H 0.23667 0.22464 0.29112 0.0
H229 H 0.24805 0.19637 0.19339 0.0
H230 H 0.25925 0.18206 0.21997 0.0
H231 H 0.27288 0.20555 0.20744 0.0
C232 C 0.27342 0.17043 0.29789 0.0
C233 C 0.2956 0.17305 0.29229 0.0
C234 C 0.25773 0.18283 0.2855 0.0
C235 C 0.26387 0.19803 0.26722 0.0
C236 C 0.28594 0.20048 0.26132 0.0
H237 H 0.19634 0.3129 0.21775 0.0
H238 H 0.21856 0.28605 0.23964 0.0
C239 C 0.30164 0.18802 0.2736 0.0
C240 C 0.24737 0.21225 0.2554 0.0
H241 H 0.22804 0.22937 0.19877 0.0
C242 C 0.23461 0.22553 0.27093 0.0
C243 C 0.24451 0.21317 0.2291 0.0
C244 C 0.25674 0.19836 0.21152 0.0
C245 C 0.21952 0.2402 0.26083 0.0
C246 C 0.2175 0.24195 0.23448 0.0
C247 C 0.22978 0.22819 0.21898 0.0
C248 C 0.20307 0.25819 0.22247 0.0
C249 C 0.20581 0.25357 0.2785 0.0
C250 C 0.18717 0.25148 0.20531 0.0
C251 C 0.17461 0.26679 0.19253 0.0
C252 C 0.17773 0.28916 0.19664 0.0
C253 C 0.19338 0.29582 0.21426 0.0
C254 C 0.20604 0.28048 0.22691 0.0
H255 H 0.20443 0.24572 0.2972 0.0
H256 H 0.21353 0.26969 0.2812 0.0
H257 H 0.18924 0.25613 0.27085 0.0
H258 H 0.18466 0.23436 0.20156 0.0
H259 H 0.16268 0.26107 0.17914 0.0
H260 H 0.84214 0.26157 0.3026 0.0
H261 H 0.81963 0.23473 0.28113 0.0
H262 H 0.78679 0.28605 0.24117 0.0
H263 H 0.8095 0.31303 0.26215 0.0
H264 H 0.77584 0.23124 0.2844 0.0
H265 H 0.80004 0.24343 0.18529 0.0
H266 H 0.81557 0.25417 0.2112 0.0
H267 H 0.79167 0.26811 0.20036 0.0
C268 C 0.83035 0.26718 0.28897 0.0
C269 C 0.82763 0.28949 0.28411 0.0
C270 C 0.81749 0.25179 0.27675 0.0
C271 C 0.80168 0.25837 0.2594 0.0
C272 C 0.7992 0.28058 0.2541 0.0
H273 H 0.68533 0.1905 0.21494 0.0
H274 H 0.71264 0.21309 0.23548 0.0
C275 C 0.81215 0.29599 0.26621 0.0
C276 C 0.78684 0.24214 0.24815 0.0
H277 H 0.76763 0.223 0.19233 0.0
C278 C 0.77417 0.22929 0.26426 0.0
C279 C 0.78488 0.23944 0.2219 0.0
C280 C 0.79892 0.25186 0.20368 0.0
C281 C 0.75919 0.2142 0.25484 0.0
C282 C 0.7565 0.21224 0.22859 0.0
C283 C 0.76957 0.22467 0.21247 0.0
C284 C 0.74004 0.19763 0.21737 0.0
C285 C 0.74653 0.20037 0.27308 0.0
C286 C 0.74635 0.18158 0.20018 0.0
C287 C 0.73077 0.16877 0.18821 0.0
C288 C 0.70853 0.1718 0.19316 0.0
C289 C 0.7023 0.1876 0.21082 0.0
C290 C 0.71791 0.20048 0.22268 0.0
H291 H 0.75492 0.19914 0.29148 0.0
H292 H 0.73041 0.2079 0.27635 0.0
H293 H 0.74396 0.18373 0.26559 0.0
H294 H 0.76335 0.17915 0.19579 0.0
H295 H 0.73617 0.15675 0.17475 0.0
H296 H 0.84311 0.73589 0.18799 0.0
H297 H 0.82117 0.76295 0.20985 0.0
H298 H 0.78749 0.71188 0.24928 0.0
H299 H 0.80965 0.68468 0.22789 0.0
H300 H 0.77761 0.76713 0.20627 0.0
H301 H 0.80077 0.75403 0.30555 0.0
H302 H 0.81633 0.74314 0.27975 0.0
H303 H 0.79213 0.72953 0.29027 0.0
C304 C 0.83128 0.73039 0.20161 0.0
C305 C 0.82813 0.70808 0.20615 0.0
C306 C 0.81874 0.7459 0.21407 0.0
C307 C 0.80283 0.73945 0.23134 0.0
C308 C 0.79999 0.71725 0.23642 0.0
H309 H 0.68678 0.8082 0.27462 0.0
H310 H 0.71416 0.78545 0.25445 0.0
C311 C 0.81263 0.7017 0.22408 0.0
C312 C 0.78813 0.75584 0.24256 0.0
H313 H 0.76858 0.77484 0.29828 0.0
C314 C 0.77577 0.76896 0.2264 0.0
C315 C 0.78595 0.75839 0.2688 0.0
C316 C 0.79966 0.74568 0.28711 0.0
C317 C 0.76088 0.78417 0.23575 0.0
C318 C 0.75794 0.78597 0.26198 0.0
C319 C 0.77071 0.77328 0.27816 0.0
C320 C 0.74146 0.80064 0.27307 0.0
C321 C 0.74856 0.79827 0.21747 0.0
C322 C 0.74769 0.81658 0.29043 0.0
C323 C 0.73207 0.82949 0.30218 0.0
C324 C 0.70987 0.82666 0.29686 0.0
C325 C 0.70372 0.81095 0.27905 0.0
C326 C 0.71937 0.79797 0.2674 0.0
H327 H 0.75716 0.79954 0.1992 0.0
H328 H 0.7324 0.79095 0.21388 0.0
H329 H 0.7461 0.81488 0.22508 0.0
H330 H 0.76466 0.81886 0.29511 0.0
H331 H 0.73741 0.84143 0.31577 0.0
H332 H 0.26664 0.84443 0.17192 0.0
H333 H 0.23943 0.82222 0.1932 0.0
H334 H 0.29016 0.78813 0.23274 0.0
H335 H 0.31748 0.8105 0.21197 0.0
H336 H 0.2348 0.7784 0.1901 0.0
H337 H 0.24833 0.80255 0.28896 0.0
H338 H 0.25918 0.81781 0.2629 0.0
H339 H 0.27276 0.79368 0.27377 0.0
C340 C 0.27204 0.83241 0.18539 0.0
C341 C 0.29428 0.82928 0.19024 0.0
C342 C 0.25644 0.81972 0.19751 0.0
C343 C 0.26275 0.8037 0.21475 0.0
C344 C 0.28489 0.80072 0.21991 0.0
H345 H 0.19552 0.68769 0.26021 0.0
H346 H 0.21718 0.71527 0.23885 0.0
C347 C 0.30051 0.81348 0.20791 0.0
C348 C 0.24629 0.78922 0.22619 0.0
H349 H 0.22772 0.77011 0.28229 0.0
C350 C 0.23308 0.77673 0.21027 0.0
C351 C 0.24387 0.78729 0.25247 0.0
C352 C 0.25663 0.80121 0.27052 0.0
C353 C 0.21799 0.76186 0.21993 0.0
C354 C 0.2164 0.7591 0.24621 0.0
C355 C 0.22911 0.77209 0.26213 0.0
C356 C 0.20207 0.74252 0.25767 0.0
C357 C 0.20382 0.74934 0.20192 0.0
C358 C 0.18649 0.74865 0.2755 0.0
C359 C 0.17423 0.73291 0.28796 0.0
C360 C 0.17735 0.71069 0.28286 0.0
C361 C 0.19258 0.70464 0.26449 0.0
C362 C 0.20492 0.7204 0.25214 0.0
H363 H 0.20223 0.75791 0.18366 0.0
H364 H 0.2113 0.73325 0.19824 0.0
H365 H 0.18735 0.74668 0.2098 0.0
H366 H 0.18408 0.76563 0.28009 0.0
H367 H 0.16262 0.73818 0.30195 0.0
H368 H 0.65939 0.7669 0.68041 0.0
H369 H 0.68258 0.74049 0.70162 0.0
H370 H 0.71366 0.79228 0.74262 0.0
H371 H 0.69028 0.81884 0.72184 0.0
H372 H 0.72683 0.73819 0.69927 0.0
H373 H 0.70003 0.74882 0.7978 0.0
H374 H 0.68476 0.75928 0.77153 0.0
H375 H 0.7081 0.77375 0.78304 0.0
C376 C 0.67095 0.7727 0.69417 0.0
C377 C 0.67294 0.79503 0.69942 0.0
C378 C 0.68422 0.75756 0.70624 0.0
C379 C 0.6997 0.76439 0.72385 0.0
C380 C 0.70152 0.7866 0.72946 0.0
H381 H 0.81518 0.69578 0.77225 0.0
H382 H 0.78887 0.71894 0.75072 0.0
C383 C 0.68818 0.80178 0.71748 0.0
C384 C 0.71469 0.74838 0.7353 0.0
H385 H 0.73248 0.7285 0.79141 0.0
C386 C 0.72798 0.73595 0.71942 0.0
C387 C 0.71598 0.74533 0.76155 0.0
C388 C 0.70131 0.75734 0.77949 0.0
C389 C 0.74283 0.72082 0.7291 0.0
C390 C 0.74472 0.71839 0.75539 0.0
C391 C 0.73114 0.73052 0.77125 0.0
C392 C 0.76066 0.70339 0.76696 0.0
C393 C 0.75614 0.70741 0.71108 0.0
C394 C 0.75356 0.68704 0.78334 0.0
C395 C 0.76854 0.67391 0.79585 0.0
C396 C 0.79098 0.67689 0.79227 0.0
C397 C 0.79804 0.69293 0.77532 0.0
C398 C 0.78301 0.70614 0.76291 0.0
H399 H 0.7485 0.70668 0.69222 0.0
H400 H 0.77241 0.71491 0.70895 0.0
H401 H 0.75834 0.69057 0.71815 0.0
H402 H 0.73638 0.68466 0.78675 0.0
H403 H 0.76251 0.6617 0.80871 0.0
H404 H 0.1797 0.69286 0.71254 0.0
H405 H 0.20462 0.71733 0.73433 0.0
H406 H 0.25914 0.68483 0.7002 0.0
H407 H 0.23441 0.66054 0.67796 0.0
H408 H 0.23812 0.71009 0.76759 0.0
H409 H 0.26865 0.748 0.67997 0.0
H410 H 0.24497 0.73077 0.68064 0.0
H411 H 0.27169 0.719 0.68085 0.0
C412 C 0.19699 0.69079 0.70977 0.0
C413 C 0.20502 0.67487 0.69325 0.0
C414 C 0.21121 0.70482 0.72223 0.0
C415 C 0.23368 0.7032 0.71843 0.0
C416 C 0.24181 0.68671 0.70289 0.0
H417 H 0.33269 0.76644 0.80894 0.0
H418 H 0.30932 0.74025 0.78763 0.0
C419 C 0.22763 0.67275 0.69031 0.0
C420 C 0.24858 0.71897 0.73045 0.0
H421 H 0.28667 0.75773 0.71768 0.0
C422 C 0.24873 0.72052 0.75671 0.0
C423 C 0.26213 0.73281 0.71616 0.0
C424 C 0.26177 0.73277 0.68784 0.0
C425 C 0.26231 0.73536 0.7691 0.0
C426 C 0.2764 0.74868 0.75483 0.0
C427 C 0.27603 0.74732 0.72857 0.0
C428 C 0.29132 0.76446 0.7668 0.0
C429 C 0.26109 0.73697 0.79732 0.0
C430 C 0.28956 0.7867 0.76136 0.0
C431 C 0.30307 0.80174 0.77329 0.0
C432 C 0.31861 0.7948 0.7909 0.0
C433 C 0.32076 0.7724 0.79568 0.0
C434 C 0.30732 0.75739 0.78365 0.0
H435 H 0.24568 0.73008 0.80469 0.0
H436 H 0.27471 0.72765 0.80569 0.0
H437 H 0.26244 0.75411 0.80362 0.0
H438 H 0.2774 0.79247 0.74825 0.0
H439 H 0.30097 0.81884 0.76912 0.0
H440 H 0.18498 0.32037 0.76016 0.0
H441 H 0.21124 0.2975 0.73808 0.0
H442 H 0.25719 0.30652 0.79827 0.0
H443 H 0.23141 0.32995 0.82002 0.0
H444 H 0.277 0.30847 0.75405 0.0
H445 H 0.22422 0.23557 0.75673 0.0
H446 H 0.21176 0.25813 0.74102 0.0
H447 H 0.21796 0.25999 0.77396 0.0
C448 C 0.20073 0.3176 0.76862 0.0
C449 C 0.20602 0.32686 0.79196 0.0
C450 C 0.21566 0.30439 0.75607 0.0
C451 C 0.23597 0.29984 0.76684 0.0
C452 C 0.24156 0.30967 0.78968 0.0
H453 H 0.31698 0.1903 0.72377 0.0
H454 H 0.29384 0.21607 0.74624 0.0
C455 C 0.22678 0.32309 0.80209 0.0
C456 C 0.25137 0.28467 0.75455 0.0
H457 H 0.25627 0.23295 0.73215 0.0
C458 C 0.2725 0.29193 0.74933 0.0
C459 C 0.24563 0.26294 0.74888 0.0
C460 C 0.22374 0.2536 0.75567 0.0
C461 C 0.28795 0.27817 0.73827 0.0
C462 C 0.28189 0.25676 0.73156 0.0
C463 C 0.26086 0.24942 0.7371 0.0
C464 C 0.29699 0.24169 0.71863 0.0
C465 C 0.31071 0.28661 0.73443 0.0
C466 C 0.30646 0.2475 0.69566 0.0
C467 C 0.31992 0.23293 0.68296 0.0
C468 C 0.32382 0.21205 0.69272 0.0
C469 C 0.3143 0.20624 0.71573 0.0
C470 C 0.30106 0.22095 0.72859 0.0
H471 H 0.31447 0.30013 0.74755 0.0
H472 H 0.32295 0.27357 0.7371 0.0
H473 H 0.31226 0.293 0.71504 0.0
H474 H 0.30308 0.26315 0.68723 0.0
H475 H 0.32677 0.23785 0.66513 0.0
H476 H 0.6809 0.19009 0.75923 0.0
H477 H 0.7036 0.21687 0.73773 0.0
H478 H 0.69455 0.26169 0.79905 0.0
H479 H 0.67132 0.23542 0.82023 0.0
H480 H 0.69215 0.28227 0.75521 0.0
H481 H 0.76547 0.23003 0.75646 0.0
H482 H 0.74295 0.2177 0.74058 0.0
H483 H 0.7412 0.22327 0.77367 0.0
C484 C 0.68364 0.20569 0.76807 0.0
C485 C 0.67441 0.21053 0.79154 0.0
C486 C 0.69675 0.22092 0.75584 0.0
C487 C 0.7012 0.24108 0.76707 0.0
C488 C 0.69145 0.2462 0.7901 0.0
H489 H 0.81008 0.32338 0.72567 0.0
H490 H 0.78426 0.30019 0.74798 0.0
C491 C 0.67815 0.23112 0.80218 0.0
C492 C 0.71618 0.25684 0.75509 0.0
H493 H 0.7678 0.26266 0.73287 0.0
C494 C 0.70872 0.27801 0.75039 0.0
C495 C 0.73794 0.2514 0.74929 0.0
C496 C 0.74746 0.22944 0.75549 0.0
C497 C 0.72231 0.29382 0.73973 0.0
C498 C 0.74377 0.28809 0.73293 0.0
C499 C 0.7513 0.267 0.73792 0.0
C500 C 0.75869 0.30357 0.72037 0.0
C501 C 0.71365 0.31658 0.7364 0.0
C502 C 0.75286 0.3133 0.69754 0.0
C503 C 0.76746 0.32679 0.68493 0.0
C504 C 0.78838 0.33047 0.69465 0.0
C505 C 0.79412 0.32087 0.71766 0.0
C506 C 0.77939 0.30759 0.73041 0.0
H507 H 0.7001 0.31997 0.74958 0.0
H508 H 0.72655 0.32891 0.73938 0.0
H509 H 0.70728 0.31841 0.71704 0.0
H510 H 0.73723 0.30999 0.68906 0.0
H511 H 0.76258 0.33371 0.66711 0.0
H512 H 0.09551 0.37794 0.88627 0.0
H513 H 0.08977 0.38541 0.93086 0.0
H514 H 0.15754 0.37288 0.94531 0.0
H515 H 0.16347 0.36569 0.90091 0.0
H516 H 0.09568 0.35522 0.96721 0.0
H517 H 0.14705 0.42662 0.98732 0.0
H518 H 0.13927 0.41914 0.9558 0.0
H519 H 0.16206 0.40618 0.9708 0.0
C520 C 0.10929 0.37728 0.89887 0.0
C521 C 0.12995 0.37119 0.8901 0.0
C522 C 0.10597 0.38154 0.92431 0.0
C523 C 0.12326 0.37994 0.94132 0.0
C524 C 0.14406 0.37473 0.93242 0.0
H525 H 0.13888 0.33194 0.08631 0.0
H526 H 0.12947 0.33828 0.04248 0.0
C527 C 0.14741 0.3705 0.90702 0.0
C528 C 0.11931 0.38104 0.96863 0.0
H529 H 0.13997 0.40251 0.02246 0.0
C530 C 0.10498 0.3659 0.97931 0.0
C531 C 0.13114 0.39523 0.98436 0.0
C532 C 0.14555 0.41286 0.97393 0.0
C533 C 0.10342 0.36347 0.00538 0.0
C534 C 0.11684 0.37623 0.02104 0.0
C535 C 0.1299 0.3925 0.01041 0.0
C536 C 0.11932 0.37162 0.04811 0.0
C537 C 0.08785 0.34687 0.01585 0.0
C538 C 0.11673 0.38826 0.06583 0.0
C539 C 0.12232 0.38473 0.09088 0.0
C540 C 0.13068 0.36454 0.09857 0.0
C541 C 0.13234 0.34762 0.081 0.0
C542 C 0.12683 0.35119 0.05595 0.0
H543 H 0.07383 0.34439 0.00305 0.0
H544 H 0.09635 0.33106 0.0178 0.0
H545 H 0.08166 0.3518 0.03457 0.0
H546 H 0.11107 0.40417 0.06011 0.0
H547 H 0.12081 0.39808 0.10402 0.0
H548 H 0.63787 0.16502 0.89982 0.0
H549 H 0.63026 0.15786 0.94393 0.0
H550 H 0.61038 0.09256 0.92559 0.0
H551 H 0.61848 0.09942 0.88132 0.0
H552 H 0.59436 0.14459 0.97065 0.0
H553 H 0.66033 0.08276 0.9744 0.0
H554 H 0.65666 0.10053 0.94785 0.0
H555 H 0.63887 0.07773 0.95233 0.0
C556 C 0.63156 0.14923 0.90507 0.0
C557 C 0.62903 0.13269 0.88718 0.0
C558 C 0.62721 0.14517 0.9303 0.0
C559 C 0.62018 0.12455 0.93804 0.0
C560 C 0.61626 0.10842 0.92003 0.0
H561 H 0.59798 0.11723 0.10119 0.0
H562 H 0.59171 0.10957 0.05668 0.0
C563 C 0.62079 0.11242 0.89476 0.0
C564 C 0.61854 0.11984 0.96516 0.0
H565 H 0.64382 0.09222 0.0124 0.0
C566 C 0.60487 0.13289 0.97983 0.0
C567 C 0.63244 0.10462 0.97695 0.0
C568 C 0.64805 0.09068 0.96218 0.0
C569 C 0.60556 0.13202 0.00609 0.0
C570 C 0.61995 0.11728 0.0179 0.0
C571 C 0.63274 0.10338 0.00321 0.0
C572 C 0.62424 0.11829 0.04515 0.0
C573 C 0.59198 0.14791 0.02091 0.0
C574 C 0.64493 0.12449 0.0535 0.0
C575 C 0.64865 0.1286 0.07885 0.0
C576 C 0.63167 0.12664 0.09628 0.0
C577 C 0.61131 0.11909 0.08812 0.0
C578 C 0.60766 0.11482 0.06272 0.0
H579 H 0.58475 0.16071 0.0088 0.0
H580 H 0.57853 0.13908 0.03025 0.0
H581 H 0.60189 0.15591 0.03566 0.0
H582 H 0.65798 0.12719 0.04022 0.0
H583 H 0.66451 0.13435 0.08453 0.0
H584 H 0.82994 0.64022 0.90443 0.0
H585 H 0.83501 0.63301 0.94908 0.0
H586 H 0.9006 0.61175 0.93489 0.0
H587 H 0.89584 0.61941 0.89018 0.0
H588 H 0.84687 0.59739 0.97772 0.0
H589 H 0.90892 0.66303 0.98244 0.0
H590 H 0.89203 0.65887 0.95523 0.0
H591 H 0.91472 0.64122 0.96107 0.0
C592 C 0.84532 0.63366 0.91072 0.0
C593 C 0.8626 0.63068 0.89389 0.0
C594 C 0.84819 0.62954 0.93624 0.0
C595 C 0.86833 0.62231 0.94529 0.0
C596 C 0.8851 0.61781 0.9283 0.0
H597 H 0.87629 0.59869 0.10794 0.0
H598 H 0.88206 0.59331 0.06293 0.0
C599 C 0.88231 0.62209 0.90278 0.0
C600 C 0.87203 0.62122 0.97264 0.0
H601 H 0.89926 0.64626 0.02033 0.0
C602 C 0.85851 0.60782 0.98709 0.0
C603 C 0.88712 0.63507 0.98469 0.0
C604 C 0.90143 0.65051 0.97016 0.0
C605 C 0.85909 0.60849 0.01337 0.0
C606 C 0.87395 0.6226 0.02541 0.0
C607 C 0.88804 0.63536 0.01095 0.0
C608 C 0.87334 0.62622 0.05279 0.0
C609 C 0.84298 0.59501 0.02797 0.0
C610 C 0.86765 0.64679 0.06202 0.0
C611 C 0.86461 0.65 0.08766 0.0
C612 C 0.86716 0.63264 0.10451 0.0
C613 C 0.87402 0.61233 0.09536 0.0
C614 C 0.8772 0.60918 0.06968 0.0
H615 H 0.82997 0.58831 0.01576 0.0
H616 H 0.85154 0.58117 0.03691 0.0
H617 H 0.8353 0.60483 0.04303 0.0
H618 H 0.8647 0.66018 0.04925 0.0
H619 H 0.85934 0.66583 0.09411 0.0
H620 H 0.40569 0.8819 0.09819 0.0
H621 H 0.41192 0.89045 0.05396 0.0
H622 H 0.34427 0.87854 0.03816 0.0
H623 H 0.33784 0.87031 0.08222 0.0
H624 H 0.40653 0.86098 0.01711 0.0
H625 H 0.3554 0.93248 -0.00301 0.0
H626 H 0.36267 0.92468 0.02857 0.0
H627 H 0.34002 0.91198 0.01295 0.0
C628 C 0.39203 0.88164 0.08539 0.0
C629 C 0.37127 0.87536 0.09365 0.0
C630 C 0.39564 0.88653 0.06015 0.0
C631 C 0.37853 0.88535 0.04285 0.0
C632 C 0.3576 0.88007 0.05129 0.0
H633 H 0.36265 0.83722 0.89885 0.0
H634 H 0.37287 0.84382 0.94237 0.0
C635 C 0.35397 0.87523 0.07649 0.0
C636 C 0.38283 0.88675 0.01562 0.0
H637 H 0.36233 0.90828 0.96174 0.0
C638 C 0.39727 0.87169 0.00499 0.0
C639 C 0.37109 0.90099 -0.00014 0.0
C640 C 0.35662 0.9186 0.01024 0.0
C641 C 0.39893 0.86929 0.97892 0.0
C642 C 0.38549 0.882 0.96323 0.0
C643 C 0.37241 0.89829 0.97381 0.0
C644 C 0.38282 0.87716 0.93624 0.0
C645 C 0.41456 0.85273 0.9685 0.0
C646 C 0.38507 0.89369 0.91832 0.0
C647 C 0.379 0.89001 0.89345 0.0
C648 C 0.37049 0.86977 0.88615 0.0
C649 C 0.36927 0.85293 0.90386 0.0
C650 C 0.37526 0.85665 0.92873 0.0
H651 H 0.42866 0.85045 0.98124 0.0
H652 H 0.40618 0.83683 0.96681 0.0
H653 H 0.42061 0.85755 0.94969 0.0
H654 H 0.39076 0.90966 0.92378 0.0
H655 H 0.38018 0.9033 0.88019 0.0
H656 H 0.10259 0.61509 0.59358 0.0
H657 H 0.09879 0.60733 0.54882 0.0
H658 H 0.16581 0.62499 0.53716 0.0
H659 H 0.16985 0.63239 0.58185 0.0
H660 H 0.10307 0.63859 0.514 0.0
H661 H 0.16044 0.57212 0.49277 0.0
H662 H 0.15174 0.57822 0.52435 0.0
H663 H 0.17346 0.59343 0.51007 0.0
C664 C 0.11668 0.61676 0.58158 0.0
C665 C 0.1365 0.62448 0.59117 0.0
C666 C 0.11446 0.61232 0.55603 0.0
C667 C 0.13204 0.61543 0.53971 0.0
C668 C 0.15216 0.62201 0.54949 0.0
H669 H 0.14294 0.6659 0.39391 0.0
H670 H 0.13557 0.65886 0.43814 0.0
C671 C 0.15442 0.62635 0.57504 0.0
C672 C 0.12872 0.61477 0.51225 0.0
H673 H 0.15126 0.59593 0.4581 0.0
C674 C 0.1133 0.62891 0.50176 0.0
C675 C 0.14183 0.60194 0.49633 0.0
C676 C 0.15762 0.58541 0.50649 0.0
C677 C 0.1116 0.63159 0.47573 0.0
C678 C 0.12599 0.62013 0.45991 0.0
C679 C 0.14043 0.60494 0.47031 0.0
C680 C 0.12764 0.62489 0.4328 0.0
C681 C 0.09473 0.647 0.46549 0.0
C682 C 0.12561 0.60813 0.41515 0.0
C683 C 0.12998 0.61208 0.38987 0.0
C684 C 0.13656 0.63284 0.38188 0.0
C685 C 0.13775 0.64979 0.39945 0.0
C686 C 0.13344 0.64581 0.42473 0.0
H687 H 0.08075 0.64859 0.47853 0.0
H688 H 0.10207 0.66335 0.46323 0.0
H689 H 0.08863 0.64153 0.44693 0.0
H690 H 0.12125 0.59186 0.42105 0.0
H691 H 0.1289 0.59869 0.37675 0.0
H692 H 0.38597 0.10447 0.60268 0.0
H693 H 0.3963 0.09827 0.559 0.0
H694 H 0.37775 0.164 0.54072 0.0
H695 H 0.36782 0.17045 0.58436 0.0
H696 H 0.36748 0.09932 0.52171 0.0
H697 H 0.4328 0.15782 0.50061 0.0
H698 H 0.42526 0.15084 0.53236 0.0
H699 H 0.41035 0.17128 0.51532 0.0
C700 C 0.38461 0.11778 0.58947 0.0
C701 C 0.37596 0.13793 0.59688 0.0
C702 C 0.39054 0.1142 0.56455 0.0
C703 C 0.38799 0.13072 0.54667 0.0
C704 C 0.38037 0.15118 0.55431 0.0
H705 H 0.34105 0.13554 0.40096 0.0
H706 H 0.34812 0.12848 0.44517 0.0
C707 C 0.37454 0.15481 0.57925 0.0
C708 C 0.39029 0.12586 0.51963 0.0
H709 H 0.4103 0.14683 0.4652 0.0
C710 C 0.37726 0.10937 0.50939 0.0
C711 C 0.40332 0.13866 0.5036 0.0
C712 C 0.4189 0.15547 0.51361 0.0
C713 C 0.37562 0.1065 0.48339 0.0
C714 C 0.38696 0.12077 0.46731 0.0
C715 C 0.40134 0.13609 0.47757 0.0
C716 C 0.38237 0.12181 0.44013 0.0
C717 C 0.36123 0.08865 0.47341 0.0
C718 C 0.39927 0.12039 0.4226 0.0
C719 C 0.39529 0.12457 0.39726 0.0
C720 C 0.37436 0.13041 0.38913 0.0
C721 C 0.3573 0.13093 0.40658 0.0
C722 C 0.36131 0.12677 0.43188 0.0
H723 H 0.36022 0.07489 0.48686 0.0
H724 H 0.34456 0.09509 0.47073 0.0
H725 H 0.36721 0.08242 0.45512 0.0
H726 H 0.41566 0.11672 0.42865 0.0
H727 H 0.40877 0.12405 0.38424 0.0
H728 H 0.8635 0.40062 0.38361 0.0
H729 H 0.86823 0.40481 0.42872 0.0
H730 H 0.88382 0.33666 0.43512 0.0
H731 H 0.87808 0.33216 0.3901 0.0
H732 H 0.85273 0.34664 0.46554 0.0
H733 H 0.91707 0.40837 0.47739 0.0
H734 H 0.89581 0.41808 0.45736 0.0
H735 H 0.912 0.39516 0.44774 0.0
C736 C 0.86844 0.38661 0.39453 0.0
C737 C 0.87024 0.366 0.38337 0.0
C738 C 0.87132 0.38909 0.42033 0.0
C739 C 0.8766 0.37111 0.43531 0.0
C740 C 0.87974 0.35077 0.42391 0.0
H741 H 0.89861 0.37032 0.59546 0.0
H742 H 0.90274 0.37361 0.5501 0.0
C743 C 0.87645 0.3482 0.39818 0.0
C744 C 0.87587 0.37282 0.46301 0.0
H745 H 0.8938 0.4024 0.51308 0.0
C746 C 0.86193 0.35869 0.47593 0.0
C747 C 0.88791 0.38849 0.47659 0.0
C748 C 0.9042 0.40322 0.46405 0.0
C749 C 0.85949 0.35987 0.50197 0.0
C750 C 0.87064 0.37626 0.51541 0.0
C751 C 0.8849 0.39019 0.50263 0.0
C752 C 0.86848 0.37824 0.54293 0.0
C753 C 0.84536 0.34318 0.51482 0.0
C754 C 0.84798 0.38091 0.55401 0.0
C755 C 0.84549 0.37864 0.57991 0.0
C756 C 0.86357 0.3742 0.59512 0.0
C757 C 0.88434 0.37361 0.5842 0.0
C758 C 0.88675 0.37551 0.55828 0.0
H759 H 0.84305 0.32849 0.503 0.0
H760 H 0.85247 0.33807 0.53303 0.0
H761 H 0.82911 0.3503 0.51841 0.0
H762 H 0.83375 0.38367 0.5425 0.0
H763 H 0.82933 0.37947 0.5878 0.0
H764 H 0.63506 0.83767 0.58997 0.0
H765 H 0.62802 0.84403 0.54556 0.0
H766 H 0.60814 0.90973 0.56194 0.0
H767 H 0.61565 0.90366 0.6065 0.0
H768 H 0.59269 0.85719 0.51753 0.0
H769 H 0.65933 0.91831 0.51447 0.0
H770 H 0.65496 0.90096 0.54124 0.0
H771 H 0.63747 0.92385 0.53583 0.0
C772 C 0.62884 0.85337 0.58423 0.0
C773 C 0.6262 0.87026 0.60165 0.0
C774 C 0.62482 0.85698 0.55884 0.0
C775 C 0.61801 0.87749 0.55046 0.0
C776 C 0.61386 0.89394 0.56801 0.0
H777 H 0.59898 0.88276 0.38679 0.0
H778 H 0.59212 0.89112 0.43099 0.0
C779 C 0.61805 0.8904 0.59344 0.0
C780 C 0.61699 0.88179 0.52322 0.0
H781 H 0.64358 0.90838 0.47619 0.0
C782 C 0.60351 0.86864 0.50843 0.0
C783 C 0.63131 0.89666 0.51154 0.0
C784 C 0.64673 0.91067 0.52648 0.0
C785 C 0.60477 0.8691 0.48218 0.0
C786 C 0.61957 0.8835 0.47051 0.0
C787 C 0.63219 0.89749 0.48528 0.0
C788 C 0.62433 0.8821 0.44339 0.0
C789 C 0.59133 0.85313 0.46729 0.0
C790 C 0.64508 0.87553 0.43563 0.0
C791 C 0.64914 0.87103 0.41044 0.0
C792 C 0.63246 0.87295 0.39262 0.0
C793 C 0.61208 0.8809 0.40018 0.0
C794 C 0.60809 0.88558 0.4254 0.0
H795 H 0.58376 0.84056 0.47943 0.0
H796 H 0.57814 0.86197 0.45745 0.0
H797 H 0.60144 0.84485 0.45294 0.0
H798 H 0.65787 0.87285 0.44925 0.0
H799 H 0.66502 0.86499 0.40519 0.0
H800 H 0.20997 0.57769 0.29294 0.0
H801 H 0.20883 0.53991 0.27905 0.0
H802 H 0.15355 0.55425 0.23229 0.0
H803 H 0.15438 0.59216 0.24622 0.0
H804 H 0.16841 0.51472 0.28785 0.0
H805 H 0.19592 0.51539 0.18843 0.0
H806 H 0.20354 0.53628 0.2106 0.0
H807 H 0.17675 0.53607 0.1974 0.0
C808 C 0.19786 0.573 0.27924 0.0
C809 C 0.1821 0.5879 0.27087 0.0
C810 C 0.19724 0.55138 0.27138 0.0
C811 C 0.1811 0.54438 0.25474 0.0
C812 C 0.16623 0.55946 0.24503 0.0
H813 H 0.11929 0.42396 0.22176 0.0
H814 H 0.12941 0.46004 0.23706 0.0
C815 C 0.16673 0.58109 0.25301 0.0
C816 C 0.1783 0.52096 0.24976 0.0
H817 H 0.17999 0.48275 0.20348 0.0
C818 C 0.17113 0.50765 0.26948 0.0
C819 C 0.18194 0.5119 0.22581 0.0
C820 C 0.19011 0.52554 0.2043 0.0
C821 C 0.16686 0.48552 0.26563 0.0
C822 C 0.16991 0.47661 0.24152 0.0
C823 C 0.17769 0.48975 0.22197 0.0
C824 C 0.16396 0.45394 0.23578 0.0
C825 C 0.15886 0.47182 0.28718 0.0
C826 C 0.1801 0.4385 0.23069 0.0
C827 C 0.17438 0.41778 0.22223 0.0
C828 C 0.15244 0.41241 0.2183 0.0
C829 C 0.13631 0.42763 0.22458 0.0
C830 C 0.14205 0.44823 0.2333 0.0
H831 H 0.16076 0.48022 0.3055 0.0
H832 H 0.14139 0.46811 0.28438 0.0
H833 H 0.16777 0.45614 0.28783 0.0
H834 H 0.1971 0.44272 0.2325 0.0
H835 H 0.18717 0.40645 0.21744 0.0
H836 H 0.58898 0.14846 0.22903 0.0
H837 H 0.55194 0.15298 0.24474 0.0
H838 H 0.54811 0.21587 0.20938 0.0
H839 H 0.58505 0.2115 0.19344 0.0
H840 H 0.53077 0.1862 0.27392 0.0
H841 H 0.49865 0.17955 0.17665 0.0
H842 H 0.5261 0.17205 0.18481 0.0
H843 H 0.51886 0.20018 0.18159 0.0
C844 C 0.58043 0.16343 0.22498 0.0
C845 C 0.58984 0.17949 0.20968 0.0
C846 C 0.55926 0.16596 0.23393 0.0
C847 C 0.54721 0.18453 0.2277 0.0
C848 C 0.55706 0.20123 0.21394 0.0
H849 H 0.4191 0.2135 0.28864 0.0
H850 H 0.45597 0.21721 0.27229 0.0
C851 C 0.57821 0.19874 0.20498 0.0
C852 C 0.52395 0.18579 0.23435 0.0
H853 H 0.47306 0.18553 0.20887 0.0
C854 C 0.51812 0.1862 0.25975 0.0
C855 C 0.50758 0.18547 0.21572 0.0
C856 C 0.513 0.18411 0.18815 0.0
C857 C 0.49625 0.1863 0.26707 0.0
C858 C 0.47988 0.18624 0.24843 0.0
C859 C 0.48571 0.18582 0.22303 0.0
C860 C 0.45662 0.18538 0.25513 0.0
C861 C 0.49083 0.18582 0.29468 0.0
C862 C 0.44442 0.16673 0.24964 0.0
C863 C 0.42329 0.16458 0.25881 0.0
C864 C 0.41406 0.18108 0.27362 0.0
C865 C 0.42581 0.2004 0.27751 0.0
C866 C 0.44692 0.20252 0.26831 0.0
H867 H 0.50513 0.18145 0.30634 0.0
H868 H 0.48513 0.20213 0.30059 0.0
H869 H 0.47761 0.174 0.29849 0.0
H870 H 0.45162 0.15341 0.23928 0.0
H871 H 0.41465 0.14954 0.25539 0.0
H872 H 0.7883 0.58478 0.20794 0.0
H873 H 0.7848 0.54727 0.22238 0.0
H874 H 0.85055 0.54895 0.25009 0.0
H875 H 0.8542 0.58654 0.23588 0.0
H876 H 0.81168 0.51391 0.20366 0.0
H877 H 0.81653 0.51984 0.30748 0.0
H878 H 0.81012 0.54288 0.28781 0.0
H879 H 0.83775 0.5339 0.29102 0.0
C880 C 0.80187 0.57737 0.21762 0.0
C881 C 0.82158 0.58861 0.22061 0.0
C882 C 0.79985 0.55591 0.22577 0.0
C883 C 0.8174 0.54538 0.23728 0.0
C884 C 0.83672 0.55689 0.24153 0.0
H885 H 0.85052 0.40988 0.25019 0.0
H886 H 0.84678 0.44767 0.23648 0.0
C887 C 0.83877 0.57838 0.23336 0.0
C888 C 0.81619 0.52185 0.2427 0.0
H889 H 0.82005 0.4845 0.28976 0.0
C890 C 0.81334 0.50745 0.22251 0.0
C891 C 0.81828 0.51355 0.26729 0.0
C892 C 0.82065 0.52832 0.2897 0.0
C893 C 0.813 0.48489 0.22622 0.0
C894 C 0.81569 0.4766 0.25071 0.0
C895 C 0.81808 0.49098 0.27097 0.0
C896 C 0.81638 0.45303 0.25584 0.0
C897 C 0.80972 0.47005 0.20403 0.0
C898 C 0.80027 0.44348 0.27074 0.0
C899 C 0.80228 0.42192 0.27849 0.0
C900 C 0.82063 0.40962 0.27175 0.0
C901 C 0.83619 0.4189 0.25568 0.0
C902 C 0.83408 0.44048 0.24783 0.0
H903 H 0.80358 0.47899 0.18736 0.0
H904 H 0.82544 0.46241 0.199 0.0
H905 H 0.79812 0.45686 0.20874 0.0
H906 H 0.78648 0.45295 0.27706 0.0
H907 H 0.78997 0.41527 0.29078 0.0
H908 H 0.59484 0.84297 0.25317 0.0
H909 H 0.55886 0.83993 0.23384 0.0
H910 H 0.53798 0.79827 0.29428 0.0
H911 H 0.5739 0.80053 0.31312 0.0
H912 H 0.52183 0.78462 0.25087 0.0
H913 H 0.50758 0.87318 0.26076 0.0
H914 H 0.53088 0.8669 0.24193 0.0
H915 H 0.53064 0.85974 0.27468 0.0
C916 C 0.58267 0.83291 0.2621 0.0
C917 C 0.58714 0.82222 0.28483 0.0
C918 C 0.56207 0.83135 0.25118 0.0
C919 C 0.54557 0.81939 0.26303 0.0
C920 C 0.5504 0.80775 0.28493 0.0
H921 H 0.40826 0.84224 0.23372 0.0
H922 H 0.44347 0.83785 0.25455 0.0
C923 C 0.57099 0.80908 0.29568 0.0
C924 C 0.52303 0.81954 0.2533 0.0
H925 H 0.48098 0.85322 0.23833 0.0
C926 C 0.51286 0.79961 0.24818 0.0
C927 C 0.51115 0.83908 0.25046 0.0
C928 C 0.52052 0.86092 0.25749 0.0
C929 C 0.49129 0.7987 0.23981 0.0
C930 C 0.47979 0.8183 0.23575 0.0
C931 C 0.48983 0.8382 0.24132 0.0
C932 C 0.45772 0.81873 0.22468 0.0
C933 C 0.48096 0.77673 0.23584 0.0
C934 C 0.45396 0.80921 0.20119 0.0
C935 C 0.43385 0.81143 0.18947 0.0
C936 C 0.4172 0.82363 0.20075 0.0
C937 C 0.42076 0.83273 0.22457 0.0
C938 C 0.44087 0.83028 0.23645 0.0
H939 H 0.48874 0.76413 0.24778 0.0
H940 H 0.46332 0.77709 0.24007 0.0
H941 H 0.48315 0.77178 0.21599 0.0
H942 H 0.46684 0.80074 0.19142 0.0
H943 H 0.43172 0.80432 0.17105 0.0
H944 H 0.81846 0.5644 0.82771 0.0
H945 H 0.82053 0.53012 0.80489 0.0
H946 H 0.85908 0.56095 0.74747 0.0
H947 H 0.85771 0.59521 0.77067 0.0
H948 H 0.80552 0.52027 0.76012 0.0
H949 H 0.89451 0.50739 0.76031 0.0
H950 H 0.88156 0.52777 0.7795 0.0
H951 H 0.88693 0.53301 0.74686 0.0
C952 C 0.82752 0.56389 0.81031 0.0
C953 C 0.83797 0.58256 0.80105 0.0
C954 C 0.82869 0.54425 0.79728 0.0
C955 C 0.84023 0.54282 0.77464 0.0
C956 C 0.85058 0.56146 0.76524 0.0
H957 H 0.81774 0.44257 0.66335 0.0
H958 H 0.8194 0.4762 0.68749 0.0
C959 C 0.84964 0.5811 0.77843 0.0
C960 C 0.84045 0.52208 0.7604 0.0
H961 H 0.87381 0.48456 0.73312 0.0
C962 C 0.82047 0.51242 0.75435 0.0
C963 C 0.85995 0.51163 0.75318 0.0
C964 C 0.88195 0.52036 0.76051 0.0
C965 C 0.81943 0.4928 0.74102 0.0
C966 C 0.83889 0.48288 0.73277 0.0
C967 C 0.85889 0.49232 0.73917 0.0
C968 C 0.83878 0.46268 0.71757 0.0
C969 C 0.79745 0.48271 0.73638 0.0
C970 C 0.84992 0.44411 0.72588 0.0
C971 C 0.84931 0.42489 0.71187 0.0
C972 C 0.83747 0.42388 0.68933 0.0
C973 C 0.82675 0.44267 0.68081 0.0
C974 C 0.82758 0.46191 0.69466 0.0
H975 H 0.78523 0.48848 0.75019 0.0
H976 H 0.79168 0.4874 0.71741 0.0
H977 H 0.79824 0.4647 0.73735 0.0
H978 H 0.8588 0.44439 0.74342 0.0
H979 H 0.85779 0.41074 0.71895 0.0
H980 H 0.58485 0.87118 0.71292 0.0
H981 H 0.54975 0.8727 0.73433 0.0
H982 H 0.53037 0.81321 0.69794 0.0
H983 H 0.56512 0.81174 0.67609 0.0
H984 H 0.49862 0.84424 0.69613 0.0
H985 H 0.53023 0.83552 0.79317 0.0
H986 H 0.54177 0.85778 0.77597 0.0
H987 H 0.54674 0.83036 0.76587 0.0
C988 C 0.57317 0.85835 0.70955 0.0
C989 C 0.57788 0.84129 0.69283 0.0
C990 C 0.55314 0.85921 0.7219 0.0
C991 C 0.53756 0.84291 0.71798 0.0
C992 C 0.54217 0.82594 0.70126 0.0
H993 H 0.42658 0.81025 0.80845 0.0
H994 H 0.46092 0.81194 0.78581 0.0
C995 C 0.5621 0.82511 0.68882 0.0
C996 C 0.51628 0.84356 0.73098 0.0
H997 H 0.49265 0.84263 0.78889 0.0
C998 C 0.49729 0.84392 0.71641 0.0
C999 C 0.51461 0.8429 0.75744 0.0
C1000 C 0.53439 0.84141 0.77407 0.0
C1001 C 0.47664 0.84355 0.72757 0.0
C1002 C 0.47498 0.84328 0.75404 0.0
C1003 C 0.49398 0.84301 0.7686 0.0
C1004 C 0.45373 0.84228 0.76707 0.0
C1005 C 0.45684 0.8428 0.71091 0.0
C1006 C 0.43822 0.85881 0.76407 0.0
C1007 C 0.41842 0.85783 0.77688 0.0
C1008 C 0.41387 0.84042 0.79317 0.0
C1009 C 0.4295 0.82392 0.7961 0.0
C1010 C 0.44918 0.82486 0.7832 0.0
H1011 H 0.46096 0.83756 0.69154 0.0
H1012 H 0.44442 0.83155 0.7186 0.0
H1013 H 0.44959 0.85927 0.70979 0.0
H1014 H 0.44156 0.87263 0.75211 0.0
H1015 H 0.40685 0.8709 0.77433 0.0
H1016 H 0.17505 0.439 0.82715 0.0
H1017 H 0.17316 0.47357 0.80484 0.0
H1018 H 0.1378 0.4427 0.74474 0.0
H1019 H 0.13894 0.40816 0.76742 0.0
H1020 H 0.18982 0.48451 0.7615 0.0
H1021 H 0.10073 0.49525 0.75592 0.0
H1022 H 0.11318 0.47486 0.77554 0.0
H1023 H 0.10944 0.46999 0.74251 0.0
C1024 C 0.16672 0.43957 0.80926 0.0
C1025 C 0.15709 0.42081 0.7991 0.0
C1026 C 0.16564 0.45937 0.79653 0.0
C1027 C 0.15504 0.46087 0.77328 0.0
C1028 C 0.14553 0.44213 0.76297 0.0
H1029 H 0.18073 0.56131 0.66368 0.0
H1030 H 0.17874 0.52798 0.68824 0.0
C1031 C 0.14634 0.42234 0.77588 0.0
C1032 C 0.155 0.48179 0.75935 0.0
H1033 H 0.12214 0.51859 0.72997 0.0
C1034 C 0.17499 0.49201 0.75477 0.0
C1035 C 0.13564 0.49182 0.75089 0.0
C1036 C 0.11353 0.48253 0.75669 0.0
C1037 C 0.17621 0.51172 0.74162 0.0
C1038 C 0.15696 0.52115 0.73202 0.0
C1039 C 0.13692 0.51121 0.73704 0.0
C1040 C 0.15737 0.54124 0.7166 0.0
C1041 C 0.19812 0.52238 0.73857 0.0
C1042 C 0.14526 0.55957 0.72373 0.0
C1043 C 0.14607 0.57864 0.70944 0.0
C1044 C 0.15909 0.57975 0.6878 0.0
C1045 C 0.1708 0.56118 0.68044 0.0
C1046 C 0.16978 0.5421 0.69455 0.0
H1047 H 0.20966 0.51704 0.75338 0.0
H1048 H 0.20511 0.5177 0.72016 0.0
H1049 H 0.1968 0.54037 0.73927 0.0
H1050 H 0.13543 0.55922 0.74057 0.0
H1051 H 0.13677 0.59258 0.71558 0.0
H1052 H 0.432 0.19606 0.67663 0.0
H1053 H 0.46598 0.19374 0.69998 0.0
H1054 H 0.44522 0.13323 0.73295 0.0
H1055 H 0.41087 0.13558 0.71001 0.0
H1056 H 0.46359 0.16061 0.76743 0.0
H1057 H 0.51646 0.15376 0.68375 0.0
H1058 H 0.49933 0.17733 0.68293 0.0
H1059 H 0.48736 0.15066 0.68212 0.0
C1060 C 0.43461 0.18221 0.68882 0.0
C1061 C 0.41873 0.16592 0.69128 0.0
C1062 C 0.45413 0.18086 0.70204 0.0
C1063 C 0.45833 0.16307 0.71776 0.0
C1064 C 0.44236 0.14701 0.72074 0.0
H1065 H 0.58729 0.1338 0.77651 0.0
H1066 H 0.55234 0.13235 0.7548 0.0
C1067 C 0.42274 0.1484 0.70761 0.0
C1068 C 0.47928 0.16146 0.73135 0.0
H1069 H 0.53419 0.16115 0.72265 0.0
C1070 C 0.47903 0.16057 0.75765 0.0
C1071 C 0.4994 0.16103 0.71854 0.0
C1072 C 0.50071 0.16052 0.69027 0.0
C1073 C 0.4984 0.15992 0.77154 0.0
C1074 C 0.51852 0.16064 0.75876 0.0
C1075 C 0.51875 0.16087 0.73243 0.0
C1076 C 0.53955 0.16138 0.7723 0.0
C1077 C 0.49708 0.15824 0.79974 0.0
C1078 C 0.54408 0.17835 0.78908 0.0
C1079 C 0.56398 0.17918 0.80161 0.0
C1080 C 0.5799 0.16319 0.79739 0.0
C1081 C 0.57543 0.14638 0.78024 0.0
C1082 C 0.55545 0.14551 0.76782 0.0
H1083 H 0.48129 0.15132 0.80588 0.0
H1084 H 0.51037 0.14796 0.80734 0.0
H1085 H 0.49857 0.17471 0.80801 0.0
H1086 H 0.53229 0.19109 0.79232 0.0
H1087 H 0.56691 0.19246 0.8145 0.0
H1088 H 0.71115 0.08639 0.78744 0.0
H1089 H 0.71458 0.04933 0.77156 0.0
H1090 H 0.65092 0.05393 0.73831 0.0
H1091 H 0.64733 0.0911 0.75401 0.0
H1092 H 0.68544 0.01628 0.7864 0.0
H1093 H 0.68811 0.02559 0.68282 0.0
H1094 H 0.69396 0.04772 0.70404 0.0
H1095 H 0.66634 0.03996 0.69792 0.0
C1096 C 0.69805 0.07974 0.77626 0.0
C1097 C 0.67889 0.09165 0.77214 0.0
C1098 C 0.70004 0.05853 0.76727 0.0
C1099 C 0.68302 0.04894 0.75379 0.0
C1100 C 0.66435 0.06116 0.74843 0.0
H1101 H 0.64689 0.91489 0.73421 0.0
H1102 H 0.65116 0.95222 0.74922 0.0
C1103 C 0.66232 0.08239 0.75745 0.0
C1104 C 0.68393 0.02557 0.74745 0.0
H1105 H 0.6822 0.98987 0.69858 0.0
C1106 C 0.68491 0.01047 0.76719 0.0
C1107 C 0.68335 0.01812 0.72241 0.0
C1108 C 0.68308 0.03366 0.70053 0.0
C1109 C 0.68482 0.98804 0.76253 0.0
C1110 C 0.68354 0.9806 0.73753 0.0
C1111 C 0.68308 0.99568 0.71776 0.0
C1112 C 0.68229 0.95722 0.73133 0.0
C1113 C 0.68614 0.97248 0.78434 0.0
C1114 C 0.69856 0.94761 0.7167 0.0
C1115 C 0.69621 0.92632 0.70815 0.0
C1116 C 0.67739 0.91433 0.71384 0.0
C1117 C 0.6616 0.92365 0.72955 0.0
C1118 C 0.66401 0.94497 0.73817 0.0
H1119 H 0.69216 0.98059 0.80162 0.0
H1120 H 0.66972 0.96591 0.78829 0.0
H1121 H 0.69699 0.95859 0.77987 0.0
H1122 H 0.71278 0.95684 0.71127 0.0
H1123 H 0.70871 0.91962 0.69614 0.0
H1124 H 0.92997 0.6946 0.81909 0.0
H1125 H 0.9668 0.69341 0.80285 0.0
H1126 H 0.94503 0.65508 0.73992 0.0
H1127 H 0.90799 0.65548 0.75667 0.0
H1128 H 0.97937 0.63713 0.7615 0.0
H1129 H 0.99675 0.72434 0.74703 0.0
H1130 H 0.98792 0.71909 0.77847 0.0
H1131 H 0.96966 0.71434 0.75263 0.0
C1132 C 0.93286 0.68623 0.80154 0.0
C1133 C 0.91602 0.67508 0.78919 0.0
C1134 C 0.95398 0.68569 0.79218 0.0
C1135 C 0.95867 0.67442 0.76999 0.0
C1136 C 0.94175 0.66395 0.75706 0.0
H1137 H 0.08102 0.67788 0.69225 0.0
H1138 H 0.04446 0.68363 0.7079 0.0
C1139 C 0.92059 0.66426 0.76658 0.0
C1140 C 0.98149 0.67206 0.76156 0.0
H1141 H 0.02763 0.70066 0.74873 0.0
C1142 C 0.98988 0.65102 0.75847 0.0
C1143 C 0.99516 0.6902 0.75749 0.0
C1144 C 0.98684 0.71324 0.75882 0.0
C1145 C 0.0116 0.64759 0.75165 0.0
C1146 C 0.02552 0.66571 0.74866 0.0
C1147 C 0.01706 0.68676 0.7515 0.0
C1148 C 0.04845 0.66327 0.74068 0.0
C1149 C 0.01921 0.62461 0.74706 0.0
C1150 C 0.06318 0.65044 0.75434 0.0
C1151 C 0.0842 0.64683 0.74522 0.0
C1152 C 0.09087 0.65631 0.7225 0.0
C1153 C 0.07644 0.67018 0.70973 0.0
C1154 C 0.05546 0.67354 0.71867 0.0
H1155 H 0.00538 0.61341 0.74359 0.0
H1156 H 0.03037 0.62381 0.73074 0.0
H1157 H 0.02803 0.61868 0.76387 0.0
H1158 H 0.0583 0.64287 0.77179 0.0
H1159 H 0.09498 0.63623 0.75561 0.0
H1160 H 0.34195 0.09624 0.73331 0.0
H1161 H 0.33809 0.05984 0.75145 0.0
H1162 H 0.29812 0.04057 0.68881 0.0
H1163 H 0.30119 0.07689 0.67113 0.0
H1164 H 0.28287 0.02393 0.7312 0.0
H1165 H 0.37139 0.00843 0.72485 0.0
H1166 H 0.36482 0.03151 0.74394 0.0
H1167 H 0.35878 0.03195 0.71091 0.0
C1168 C 0.33209 0.08432 0.72361 0.0
C1169 C 0.32209 0.08938 0.70064 0.0
C1170 C 0.33007 0.06348 0.73387 0.0
C1171 C 0.31832 0.04733 0.7211 0.0
C1172 C 0.30742 0.05272 0.69887 0.0
H1173 H 0.33785 0.90897 0.74785 0.0
H1174 H 0.33474 0.94466 0.72776 0.0
C1175 C 0.30922 0.07353 0.68879 0.0
C1176 C 0.31783 0.0246 0.7303 0.0
H1177 H 0.3503 0.9817 0.74567 0.0
C1178 C 0.29761 0.01466 0.73431 0.0
C1179 C 0.33705 0.01235 0.7337 0.0
C1180 C 0.35923 0.02151 0.72788 0.0
C1181 C 0.29609 0.99294 0.7421 0.0
C1182 C 0.31535 0.98104 0.74671 0.0
C1183 C 0.33555 0.99086 0.74225 0.0
C1184 C 0.31506 0.95875 0.75723 0.0
C1185 C 0.27387 0.9829 0.74487 0.0
C1186 C 0.30478 0.95474 0.78022 0.0
C1187 C 0.30629 0.93437 0.79152 0.0
C1188 C 0.31848 0.91767 0.7803 0.0
C1189 C 0.32832 0.92149 0.75693 0.0
C1190 C 0.32661 0.94188 0.74549 0.0
H1191 H 0.26179 0.99113 0.73264 0.0
H1192 H 0.27408 0.96533 0.74018 0.0
H1193 H 0.26835 0.98477 0.76457 0.0
H1194 H 0.29627 0.96761 0.78998 0.0
H1195 H 0.29861 0.93204 0.8096 0.0
H1196 H 0.06912 0.30302 0.80952 0.0
H1197 H 0.03367 0.30053 0.78973 0.0
H1198 H 0.05607 0.34079 0.72873 0.0
H1199 H 0.09162 0.34407 0.74905 0.0
H1200 H 0.01885 0.35532 0.74665 0.0
H1201 H 0.01078 0.26688 0.73158 0.0
H1202 H 0.01689 0.27286 0.76371 0.0
H1203 H 0.03634 0.27939 0.7396 0.0
C1204 C 0.0667 0.31106 0.79167 0.0
C1205 C 0.08319 0.3238 0.78088 0.0
C1206 C 0.0464 0.30947 0.78026 0.0
C1207 C 0.04227 0.32019 0.75755 0.0
C1208 C 0.05894 0.3323 0.74622 0.0
H1209 H 0.92413 0.30558 0.67166 0.0
H1210 H 0.96053 0.30286 0.68908 0.0
C1211 C 0.07925 0.33412 0.7578 0.0
C1212 C 0.02001 0.32033 0.74697 0.0
H1213 H 0.97762 0.28747 0.73086 0.0
C1214 C 0.00991 0.34048 0.74293 0.0
C1215 C 0.00841 0.30097 0.74195 0.0
C1216 C 0.01877 0.27883 0.74419 0.0
C1217 C 0.98841 0.34182 0.73442 0.0
C1218 C 0.97644 0.32246 0.73067 0.0
C1219 C 0.98667 0.3023 0.73424 0.0
C1220 C 0.95369 0.32277 0.7216 0.0
C1221 C 0.97897 0.36397 0.72901 0.0
C1222 C 0.93746 0.33423 0.73456 0.0
C1223 C 0.91657 0.33608 0.72445 0.0
C1224 C 0.91153 0.32615 0.70143 0.0
C1225 C 0.92747 0.31354 0.68937 0.0
C1226 C 0.94834 0.31195 0.69931 0.0
H1227 H 0.99188 0.37632 0.72606 0.0
H1228 H 0.96844 0.36361 0.71211 0.0
H1229 H 0.96902 0.36927 0.74524 0.0
H1230 H 0.94107 0.34216 0.75221 0.0
H1231 H 0.90459 0.34573 0.73429 0.0
H1232 H 0.36485 0.09307 0.26818 0.0
H1233 H 0.36546 0.05896 0.24463 0.0
H1234 H 0.32741 0.02817 0.30249 0.0
H1235 H 0.32619 0.06228 0.32579 0.0
H1236 H 0.38089 0.01892 0.25594 0.0
H1237 H 0.29197 0.01475 0.24084 0.0
H1238 H 0.30521 0.03878 0.2527 0.0
H1239 H 0.29921 0.01645 0.27337 0.0
C1240 C 0.35659 0.07905 0.2759 0.0
C1241 C 0.34526 0.08049 0.29875 0.0
C1242 C 0.35697 0.05956 0.26242 0.0
C1243 C 0.34611 0.04113 0.27155 0.0
C1244 C 0.33539 0.04233 0.29473 0.0
H1245 H 0.36391 0.90841 0.2169 0.0
H1246 H 0.36542 0.94214 0.24116 0.0
C1247 C 0.33481 0.06185 0.30809 0.0
C1248 C 0.34598 0.02066 0.25684 0.0
H1249 H 0.31224 0.98326 0.2301 0.0
C1250 C 0.36589 0.01114 0.2502 0.0
C1251 C 0.3264 0.0107 0.24904 0.0
C1252 C 0.30449 0.02079 0.25412 0.0
C1253 C 0.36675 0.99181 0.23621 0.0
C1254 C 0.34715 0.98145 0.22921 0.0
C1255 C 0.32726 0.99108 0.23568 0.0
C1256 C 0.34674 0.96098 0.21447 0.0
C1257 C 0.38863 0.98301 0.22856 0.0
C1258 C 0.33529 0.96016 0.19174 0.0
C1259 C 0.33408 0.94085 0.17808 0.0
C1260 C 0.34439 0.9219 0.1868 0.0
C1261 C 0.35595 0.92275 0.20955 0.0
C1262 C 0.35695 0.94207 0.22336 0.0
H1263 H 0.40135 0.9958 0.2291 0.0
H1264 H 0.3935 0.96997 0.2418 0.0
H1265 H 0.38809 0.97602 0.20936 0.0
H1266 H 0.32724 0.97452 0.18453 0.0
H1267 H 0.32511 0.94084 0.1606 0.0
H1268 H 0.91388 0.36783 0.27228 0.0
H1269 H 0.94871 0.36923 0.25023 0.0
H1270 H 0.96793 0.30908 0.28531 0.0
H1271 H 0.93352 0.30775 0.30779 0.0
H1272 H 0.99999 0.33936 0.28701 0.0
H1273 H 0.96696 0.33274 0.19038 0.0
H1274 H 0.95609 0.35497 0.2082 0.0
H1275 H 0.9507 0.32751 0.21787 0.0
C1276 C 0.92548 0.35485 0.27524 0.0
C1277 C 0.92084 0.33764 0.29177 0.0
C1278 C 0.94534 0.35564 0.26252 0.0
C1279 C 0.96078 0.33909 0.26585 0.0
C1280 C 0.95623 0.32199 0.28242 0.0
H1281 H 0.07059 0.30603 0.17317 0.0
H1282 H 0.03615 0.30799 0.19569 0.0
C1283 C 0.9365 0.32126 0.29524 0.0
C1284 C 0.98187 0.3396 0.25246 0.0
H1285 H 0.00473 0.33906 0.19413 0.0
C1286 C 0.00105 0.33933 0.26669 0.0
C1287 C 0.98318 0.33929 0.22596 0.0
C1288 C 0.96316 0.33844 0.20966 0.0
C1289 C 0.02153 0.33868 0.25518 0.0
C1290 C 0.02285 0.3388 0.22868 0.0
C1291 C 0.00367 0.33914 0.21444 0.0
C1292 C 0.04393 0.33777 0.21531 0.0
C1293 C 0.0415 0.33718 0.2715 0.0
C1294 C 0.05971 0.35394 0.21875 0.0
C1295 C 0.07954 0.35279 0.20605 0.0
C1296 C 0.08384 0.33557 0.1894 0.0
C1297 C 0.06786 0.31952 0.18583 0.0
C1298 C 0.04813 0.32062 0.19866 0.0
H1299 H 0.03751 0.33149 0.29074 0.0
H1300 H 0.05367 0.32595 0.26325 0.0
H1301 H 0.049 0.35351 0.2731 0.0
H1302 H 0.05663 0.36758 0.23108 0.0
H1303 H 0.09137 0.36553 0.20909 0.0
H1304 H 0.67935 0.93866 0.32729 0.0
H1305 H 0.67732 0.97267 0.30391 0.0
H1306 H 0.63988 0.94089 0.24619 0.0
H1307 H 0.64125 0.90686 0.26989 0.0
H1308 H 0.69273 0.98218 0.25889 0.0
H1309 H 0.60357 0.99417 0.25847 0.0
H1310 H 0.61668 0.97418 0.27807 0.0
H1311 H 0.61162 0.96852 0.24546 0.0
C1312 C 0.67056 0.93888 0.30968 0.0
C1313 C 0.66041 0.92002 0.3005 0.0
C1314 C 0.66941 0.95837 0.29635 0.0
C1315 C 0.65817 0.95945 0.27348 0.0
C1316 C 0.64816 0.94061 0.26411 0.0
H1317 H 0.67951 0.06018 0.16222 0.0
H1318 H 0.6783 0.02642 0.18617 0.0
C1319 C 0.64909 0.92112 0.2776 0.0
C1320 C 0.65783 0.98009 0.25906 0.0
H1321 H 0.62419 0.01736 0.23174 0.0
C1322 C 0.67773 0.98991 0.25305 0.0
C1323 C 0.63825 0.99035 0.25176 0.0
C1324 C 0.61632 0.9814 0.25898 0.0
C1325 C 0.67863 0.00955 0.23974 0.0
C1326 C 0.65909 0.01933 0.23151 0.0
C1327 C 0.63916 0.0097 0.2378 0.0
C1328 C 0.65904 0.03964 0.21649 0.0
C1329 C 0.70052 0.01982 0.23511 0.0
C1330 C 0.64787 0.05809 0.22506 0.0
C1331 C 0.64825 0.07739 0.21121 0.0
C1332 C 0.65987 0.0786 0.18853 0.0
C1333 C 0.67066 0.05993 0.17977 0.0
C1334 C 0.67008 0.04062 0.1935 0.0
H1335 H 0.71284 0.014 0.24878 0.0
H1336 H 0.70623 0.01535 0.21605 0.0
H1337 H 0.69961 0.03781 0.2363 0.0
H1338 H 0.63912 0.05765 0.24269 0.0
H1339 H 0.63972 0.09144 0.21847 0.0
H1340 H 0.0716 0.68926 0.30898 0.0
H1341 H 0.03671 0.68629 0.28765 0.0
H1342 H 0.05804 0.62745 0.2513 0.0
H1343 H 0.09331 0.6305 0.27218 0.0
H1344 H 0.03792 0.65482 0.21883 0.0
H1345 H 0.98763 0.64505 0.30412 0.0
H1346 H 0.0041 0.66906 0.30518 0.0
H1347 H 0.01683 0.64273 0.30465 0.0
C1348 C 0.06891 0.67561 0.29653 0.0
C1349 C 0.08527 0.66004 0.29243 0.0
C1350 C 0.04886 0.67387 0.28447 0.0
C1351 C 0.04459 0.6564 0.26831 0.0
C1352 C 0.06094 0.64098 0.26386 0.0
H1353 H 0.91362 0.62891 0.21337 0.0
H1354 H 0.94916 0.62629 0.23366 0.0
C1355 C 0.08109 0.64276 0.27581 0.0
C1356 C 0.02327 0.65464 0.25551 0.0
H1357 H 0.96864 0.65372 0.26624 0.0
C1358 C 0.02277 0.65438 0.22919 0.0
C1359 C 0.00353 0.65367 0.26904 0.0
C1360 C 0.003 0.65241 0.29731 0.0
C1361 C 0.00304 0.65395 0.21602 0.0
C1362 C 0.98327 0.65428 0.22956 0.0
C1363 C 0.98379 0.65376 0.25588 0.0
C1364 C 0.96189 0.65563 0.21683 0.0
C1365 C 0.00358 0.65299 0.18774 0.0
C1366 C 0.95714 0.67315 0.2009 0.0
C1367 C 0.93692 0.67465 0.18918 0.0
C1368 C 0.92088 0.65879 0.19339 0.0
C1369 C 0.92557 0.64141 0.20967 0.0
C1370 C 0.94589 0.63986 0.22128 0.0
H1371 H 0.01912 0.64605 0.18082 0.0
H1372 H 0.98998 0.64308 0.18026 0.0
H1373 H 0.0021 0.6697 0.1801 0.0
H1374 H 0.96902 0.68583 0.19773 0.0
H1375 H 0.93383 0.68837 0.17696 0.0
loop_
_geom_bond_atom_site_label_1
_geom_bond_atom_site_label_2
_geom_bond_distance
_geom_bond_site_symmetry_2
_ccdc_geom_bond_type
Mg0 O1 2.028 . S
Mg0 O7 1.986 . S
Mg0 O9 2.114 . S
Mg0 O10 2.251 . S
Mg0 O13 2.010 . S
O1 Mg0 2.028 . S
O1 C4 1.250 . S
O2 Mg3 2.028 . S
O2 C4 1.248 . S
Mg3 O2 2.028 . S
Mg3 O8 2.032 . S
Mg3 O10 2.079 . S
C4 O1 1.250 . S
C4 O2 1.248 . S
C5 O6 1.264 . S
C5 O13 1.249 . S
O6 C5 1.264 . S
O7 Mg0 1.986 . S
O7 C11 1.246 . S
O8 Mg3 2.032 . S
O8 C11 1.259 . S
O9 Mg0 2.114 . S
O9 C12 1.252 . S
O10 Mg0 2.251 . S
O10 Mg3 2.079 . S
O10 C12 1.273 . S
C11 O7 1.246 . S
C11 O8 1.259 . S
C12 O9 1.252 . S
C12 O10 1.273 . S
O13 Mg0 2.010 . S
O13 C5 1.249 . S
Mg14 O15 2.028 . S
Mg14 O21 1.986 . S
Mg14 O23 2.114 . S
Mg14 O24 2.251 . S
Mg14 O27 2.010 . S
O15 Mg14 2.028 . S
O15 C18 1.250 . S
O16 Mg17 2.028 . S
O16 C18 1.248 . S
Mg17 O16 2.028 . S
Mg17 O22 2.032 . S
Mg17 O24 2.079 . S
C18 O15 1.250 . S
C18 O16 1.248 . S
C19 O20 1.264 . S
C19 O27 1.249 . S
O20 C19 1.264 . S
O21 Mg14 1.986 . S
O21 C25 1.246 . S
O22 Mg17 2.032 . S
O22 C25 1.259 . S
O23 Mg14 2.114 . S
O23 C26 1.252 . S
O24 Mg14 2.251 . S
O24 Mg17 2.079 . S
O24 C26 1.273 . S
C25 O21 1.246 . S
C25 O22 1.259 . S
C26 O23 1.252 . S
C26 O24 1.273 . S
O27 Mg14 2.010 . S
O27 C19 1.249 . S
Mg28 O29 2.028 . S
Mg28 O35 1.986 . S
Mg28 O37 2.114 . S
Mg28 O38 2.251 . S
Mg28 O41 2.010 . S
O29 Mg28 2.028 . S
O29 C32 1.250 . S
O30 Mg31 2.028 . S
O30 C32 1.248 . S
Mg31 O30 2.028 . S
Mg31 O36 2.032 . S
Mg31 O38 2.079 . S
C32 O29 1.250 . S
C32 O30 1.248 . S
C33 O34 1.264 . S
C33 O41 1.249 . S
O34 C33 1.264 . S
O35 Mg28 1.986 . S
O35 C39 1.246 . S
O36 Mg31 2.032 . S
O36 C39 1.259 . S
O37 Mg28 2.114 . S
O37 C40 1.252 . S
O38 Mg28 2.251 . S
O38 Mg31 2.079 . S
O38 C40 1.273 . S
C39 O35 1.246 . S
C39 O36 1.259 . S
C40 O37 1.252 . S
C40 O38 1.273 . S
O41 Mg28 2.010 . S
O41 C33 1.249 . S
Mg42 O43 2.028 . S
Mg42 O49 1.986 . S
Mg42 O51 2.114 . S
Mg42 O52 2.251 . S
Mg42 O55 2.010 . S
O43 Mg42 2.028 . S
O43 C46 1.250 . S
O44 Mg45 2.028 . S
O44 C46 1.248 . S
Mg45 O44 2.028 . S
Mg45 O50 2.032 . S
Mg45 O52 2.079 . S
C46 O43 1.250 . S
C46 O44 1.248 . S
C47 O48 1.264 . S
C47 O55 1.249 . S
O48 C47 1.264 . S
O49 Mg42 1.986 . S
O49 C53 1.246 . S
O50 Mg45 2.032 . S
O50 C53 1.259 . S
O51 Mg42 2.114 . S
O51 C54 1.252 . S
O52 Mg42 2.251 . S
O52 Mg45 2.079 . S
O52 C54 1.273 . S
C53 O49 1.246 . S
C53 O50 1.259 . S
C54 O51 1.252 . S
C54 O52 1.273 . S
O55 Mg42 2.010 . S
O55 C47 1.249 . S
Mg56 O57 2.028 . S
Mg56 O63 1.986 . S
Mg56 O65 2.114 . S
Mg56 O66 2.251 . S
Mg56 O69 2.010 . S
O57 Mg56 2.028 . S
O57 C60 1.250 . S
O58 Mg59 2.028 . S
O58 C60 1.248 . S
Mg59 O58 2.028 . S
Mg59 O64 2.032 . S
Mg59 O66 2.079 . S
C60 O57 1.250 . S
C60 O58 1.248 . S
C61 O62 1.264 . S
C61 O69 1.249 . S
O62 C61 1.264 . S
O63 Mg56 1.986 . S
O63 C67 1.246 . S
O64 Mg59 2.032 . S
O64 C67 1.259 . S
O65 Mg56 2.114 . S
O65 C68 1.252 . S
O66 Mg56 2.251 . S
O66 Mg59 2.079 . S
O66 C68 1.273 . S
C67 O63 1.246 . S
C67 O64 1.259 . S
C68 O65 1.252 . S
C68 O66 1.273 . S
O69 Mg56 2.010 . S
O69 C61 1.249 . S
Mg70 O71 2.028 . S
Mg70 O77 1.986 . S
Mg70 O79 2.114 . S
Mg70 O80 2.251 . S
Mg70 O83 2.010 . S
O71 Mg70 2.028 . S
O71 C74 1.250 . S
O72 Mg73 2.028 . S
O72 C74 1.248 . S
Mg73 O72 2.028 . S
Mg73 O78 2.032 . S
Mg73 O80 2.079 . S
C74 O71 1.250 . S
C74 O72 1.248 . S
C75 O76 1.264 . S
C75 O83 1.249 . S
O76 C75 1.264 . S
O77 Mg70 1.986 . S
O77 C81 1.246 . S
O78 Mg73 2.032 . S
O78 C81 1.259 . S
O79 Mg70 2.114 . S
O79 C82 1.252 . S
O80 Mg70 2.251 . S
O80 Mg73 2.079 . S
O80 C82 1.273 . S
C81 O77 1.246 . S
C81 O78 1.259 . S
C82 O79 1.252 . S
C82 O80 1.273 . S
O83 Mg70 2.010 . S
O83 C75 1.249 . S
Mg84 O85 2.028 . S
Mg84 O91 1.986 . S
Mg84 O93 2.114 . S
Mg84 O94 2.251 . S
Mg84 O97 2.010 . S
O85 Mg84 2.028 . S
O85 C88 1.250 . S
O86 Mg87 2.028 . S
O86 C88 1.248 . S
Mg87 O86 2.028 . S
Mg87 O92 2.032 . S
Mg87 O94 2.079 . S
C88 O85 1.250 . S
C88 O86 1.248 . S
C89 O90 1.264 . S
C89 O97 1.249 . S
O90 C89 1.264 . S
O91 Mg84 1.986 . S
O91 C95 1.246 . S
O92 Mg87 2.032 . S
O92 C95 1.259 . S
O93 Mg84 2.114 . S
O93 C96 1.252 . S
O94 Mg84 2.251 . S
O94 Mg87 2.079 . S
O94 C96 1.273 . S
C95 O91 1.246 . S
C95 O92 1.259 . S
C96 O93 1.252 . S
C96 O94 1.273 . S
O97 Mg84 2.010 . S
O97 C89 1.249 . S
Mg98 O99 2.028 . S
Mg98 O105 1.986 . S
Mg98 O107 2.114 . S
Mg98 O108 2.251 . S
Mg98 O111 2.010 . S
O99 Mg98 2.028 . S
O99 C102 1.250 . S
O100 Mg101 2.028 . S
O100 C102 1.248 . S
Mg101 O100 2.028 . S
Mg101 O106 2.032 . S
Mg101 O108 2.079 . S
C102 O99 1.250 . S
C102 O100 1.248 . S
C103 O104 1.264 . S
C103 O111 1.249 . S
O104 C103 1.264 . S
O105 Mg98 1.986 . S
O105 C109 1.246 . S
O106 Mg101 2.032 . S
O106 C109 1.259 . S
O107 Mg98 2.114 . S
O107 C110 1.252 . S
O108 Mg98 2.251 . S
O108 Mg101 2.079 . S
O108 C110 1.273 . S
C109 O105 1.246 . S
C109 O106 1.259 . S
C110 O107 1.252 . S
C110 O108 1.273 . S
O111 Mg98 2.010 . S
O111 C103 1.249 . S
Mg112 O113 2.028 . S
Mg112 O119 1.986 . S
Mg112 O121 2.114 . S
Mg112 O122 2.251 . S
Mg112 O125 2.010 . S
O113 Mg112 2.028 . S
O113 C116 1.250 . S
O114 Mg115 2.028 . S
O114 C116 1.248 . S
Mg115 O114 2.028 . S
Mg115 O120 2.032 . S
Mg115 O122 2.079 . S
C116 O113 1.250 . S
C116 O114 1.248 . S
C117 O118 1.264 . S
C117 O125 1.249 . S
O118 C117 1.264 . S
O119 Mg112 1.986 . S
O119 C123 1.246 . S
O120 Mg115 2.032 . S
O120 C123 1.259 . S
O121 Mg112 2.114 . S
O121 C124 1.252 . S
O122 Mg112 2.251 . S
O122 Mg115 2.079 . S
O122 C124 1.273 . S
C123 O119 1.246 . S
C123 O120 1.259 . S
C124 O121 1.252 . S
C124 O122 1.273 . S
O125 Mg112 2.010 . S
O125 C117 1.249 . S
Mg126 O127 2.028 . S
Mg126 O133 1.986 . S
Mg126 O135 2.114 . S
Mg126 O136 2.251 . S
Mg126 O139 2.010 . S
O127 Mg126 2.028 . S
O127 C130 1.250 . S
O128 Mg129 2.028 . S
O128 C130 1.248 . S
Mg129 O128 2.028 . S
Mg129 O134 2.032 . S
Mg129 O136 2.079 . S
C130 O127 1.250 . S
C130 O128 1.248 . S
C131 O132 1.264 . S
C131 O139 1.249 . S
O132 C131 1.264 . S
O133 Mg126 1.986 . S
O133 C137 1.246 . S
O134 Mg129 2.032 . S
O134 C137 1.259 . S
O135 Mg126 2.114 . S
O135 C138 1.252 . S
O136 Mg126 2.251 . S
O136 Mg129 2.079 . S
O136 C138 1.273 . S
C137 O133 1.246 . S
C137 O134 1.259 . S
C138 O135 1.252 . S
C138 O136 1.273 . S
O139 Mg126 2.010 . S
O139 C131 1.249 . S
Mg140 O141 2.028 . S
Mg140 O147 1.986 . S
Mg140 O149 2.114 . S
Mg140 O150 2.251 . S
Mg140 O153 2.010 . S
O141 Mg140 2.028 . S
O141 C144 1.250 . S
O142 Mg143 2.028 . S
O142 C144 1.248 . S
Mg143 O142 2.028 . S
Mg143 O148 2.032 . S
Mg143 O150 2.079 . S
C144 O141 1.250 . S
C144 O142 1.248 . S
C145 O146 1.264 . S
C145 O153 1.249 . S
O146 C145 1.264 . S
O147 Mg140 1.986 . S
O147 C151 1.246 . S
O148 Mg143 2.032 . S
O148 C151 1.259 . S
O149 Mg140 2.114 . S
O149 C152 1.252 . S
O150 Mg140 2.251 . S
O150 Mg143 2.079 . S
O150 C152 1.273 . S
C151 O147 1.246 . S
C151 O148 1.259 . S
C152 O149 1.252 . S
C152 O150 1.273 . S
O153 Mg140 2.010 . S
O153 C145 1.249 . S
Mg154 O155 2.028 . S
Mg154 O161 1.986 . S
Mg154 O163 2.114 . S
Mg154 O164 2.251 . S
Mg154 O167 2.010 . S
O155 Mg154 2.028 . S
O155 C158 1.250 . S
O156 Mg157 2.028 . S
O156 C158 1.248 . S
Mg157 O156 2.028 . S
Mg157 O162 2.032 . S
Mg157 O164 2.079 . S
C158 O155 1.250 . S
C158 O156 1.248 . S
C159 O160 1.264 . S
C159 O167 1.249 . S
O160 C159 1.264 . S
O161 Mg154 1.986 . S
O161 C165 1.246 . S
O162 Mg157 2.032 . S
O162 C165 1.259 . S
O163 Mg154 2.114 . S
O163 C166 1.252 . S
O164 Mg154 2.251 . S
O164 Mg157 2.079 . S
O164 C166 1.273 . S
C165 O161 1.246 . S
C165 O162 1.259 . S
C166 O163 1.252 . S
C166 O164 1.273 . S
O167 Mg154 2.010 . S
O167 C159 1.249 . S
Mg168 O169 2.028 . S
Mg168 O175 1.986 . S
Mg168 O177 2.114 . S
Mg168 O178 2.251 . S
Mg168 O181 2.010 . S
O169 Mg168 2.028 . S
O169 C172 1.250 . S
O170 Mg171 2.028 . S
O170 C172 1.248 . S
Mg171 O170 2.028 . S
Mg171 O176 2.032 . S
Mg171 O178 2.079 . S
C172 O169 1.250 . S
C172 O170 1.248 . S
C173 O174 1.264 . S
C173 O181 1.249 . S
O174 C173 1.264 . S
O175 Mg168 1.986 . S
O175 C179 1.246 . S
O176 Mg171 2.032 . S
O176 C179 1.259 . S
O177 Mg168 2.114 . S
O177 C180 1.252 . S
O178 Mg168 2.251 . S
O178 Mg171 2.079 . S
O178 C180 1.273 . S
C179 O175 1.246 . S
C179 O176 1.259 . S
C180 O177 1.252 . S
C180 O178 1.273 . S
O181 Mg168 2.010 . S
O181 C173 1.249 . S
Mg182 O183 2.028 . S
Mg182 O189 1.986 . S
Mg182 O191 2.114 . S
Mg182 O192 2.251 . S
Mg182 O195 2.010 . S
O183 Mg182 2.028 . S
O183 C186 1.250 . S
O184 Mg185 2.028 . S
O184 C186 1.248 . S
Mg185 O184 2.028 . S
Mg185 O190 2.032 . S
Mg185 O192 2.079 . S
C186 O183 1.250 . S
C186 O184 1.248 . S
C187 O188 1.264 . S
C187 O195 1.249 . S
O188 C187 1.264 . S
O189 Mg182 1.986 . S
O189 C193 1.246 . S
O190 Mg185 2.032 . S
O190 C193 1.259 . S
O191 Mg182 2.114 . S
O191 C194 1.252 . S
O192 Mg182 2.251 . S
O192 Mg185 2.079 . S
O192 C194 1.273 . S
C193 O189 1.246 . S
C193 O190 1.259 . S
C194 O191 1.252 . S
C194 O192 1.273 . S
O195 Mg182 2.010 . S
O195 C187 1.249 . S
Mg196 O197 2.028 . S
Mg196 O203 1.986 . S
Mg196 O205 2.114 . S
Mg196 O206 2.251 . S
Mg196 O209 2.010 . S
O197 Mg196 2.028 . S
O197 C200 1.250 . S
O198 Mg199 2.028 . S
O198 C200 1.248 . S
Mg199 O198 2.028 . S
Mg199 O204 2.032 . S
Mg199 O206 2.079 . S
C200 O197 1.250 . S
C200 O198 1.248 . S
C201 O202 1.264 . S
C201 O209 1.249 . S
O202 C201 1.264 . S
O203 Mg196 1.986 . S
O203 C207 1.246 . S
O204 Mg199 2.032 . S
O204 C207 1.259 . S
O205 Mg196 2.114 . S
O205 C208 1.252 . S
O206 Mg196 2.251 . S
O206 Mg199 2.079 . S
O206 C208 1.273 . S
C207 O203 1.246 . S
C207 O204 1.259 . S
C208 O205 1.252 . S
C208 O206 1.273 . S
O209 Mg196 2.010 . S
O209 C201 1.249 . S
Mg210 O211 2.028 . S
Mg210 O217 1.986 . S
Mg210 O219 2.114 . S
Mg210 O220 2.251 . S
Mg210 O223 2.010 . S
O211 Mg210 2.028 . S
O211 C214 1.250 . S
O212 Mg213 2.028 . S
O212 C214 1.248 . S
Mg213 O212 2.028 . S
Mg213 O218 2.032 . S
Mg213 O220 2.079 . S
C214 O211 1.250 . S
C214 O212 1.248 . S
C215 O216 1.264 . S
C215 O223 1.249 . S
O216 C215 1.264 . S
O217 Mg210 1.986 . S
O217 C221 1.246 . S
O218 Mg213 2.032 . S
O218 C221 1.259 . S
O219 Mg210 2.114 . S
O219 C222 1.252 . S
O220 Mg210 2.251 . S
O220 Mg213 2.079 . S
O220 C222 1.273 . S
C221 O217 1.246 . S
C221 O218 1.259 . S
C222 O219 1.252 . S
C222 O220 1.273 . S
O223 Mg210 2.010 . S
O223 C215 1.249 . S
H224 C232 0.929 . S
H225 C234 0.930 . S
H226 C236 0.930 . S
H227 C239 0.929 . S
H228 C242 0.930 . S
H229 C244 0.960 . S
H230 C244 0.960 . S
H231 C244 0.960 . S
C232 H224 0.929 . S
C232 C233 1.377 . S
C232 C234 1.384 . S
C233 C232 1.377 . S
C233 C239 1.390 . S
C234 H225 0.930 . S
C234 C232 1.384 . S
C234 C235 1.372 . S
C235 C234 1.372 . S
C235 C236 1.400 . S
C235 C240 1.490 . S
C236 H226 0.930 . S
C236 C235 1.400 . S
C236 C239 1.386 . S
H237 C253 0.930 . S
H238 C254 0.931 . S
C239 H227 0.929 . S
C239 C233 1.390 . S
C239 C236 1.386 . S
C240 C235 1.490 . S
C240 C242 1.395 . S
C240 C243 1.403 . S
H241 C247 0.930 . S
C242 H228 0.930 . S
C242 C240 1.395 . S
C242 C245 1.403 . S
C243 C240 1.403 . S
C243 C244 1.524 . S
C243 C247 1.400 . S
C244 H229 0.960 . S
C244 H230 0.960 . S
C244 H231 0.960 . S
C244 C243 1.524 . S
C245 C242 1.403 . S
C245 C246 1.392 . S
C245 C249 1.495 . S
C246 C245 1.392 . S
C246 C247 1.385 . S
C246 C248 1.478 . S
C247 H241 0.930 . S
C247 C243 1.400 . S
C247 C246 1.385 . S
C248 C246 1.478 . S
C248 C250 1.381 . S
C248 C254 1.383 . S
C249 C245 1.495 . S
C249 H255 0.959 . S
C249 H256 0.961 . S
C249 H257 0.960 . S
C250 C248 1.381 . S
C250 C251 1.394 . S
C250 H258 0.930 . S
C251 C250 1.394 . S
C251 C252 1.383 . S
C251 H259 0.929 . S
C252 C251 1.383 . S
C252 C253 1.377 . S
C253 H237 0.930 . S
C253 C252 1.377 . S
C253 C254 1.379 . S
C254 H238 0.931 . S
C254 C248 1.383 . S
C254 C253 1.379 . S
H255 C249 0.959 . S
H256 C249 0.961 . S
H257 C249 0.960 . S
H258 C250 0.930 . S
H259 C251 0.929 . S
H260 C268 0.929 . S
H261 C270 0.930 . S
H262 C272 0.930 . S
H263 C275 0.929 . S
H264 C278 0.930 . S
H265 C280 0.960 . S
H266 C280 0.960 . S
H267 C280 0.960 . S
C268 H260 0.929 . S
C268 C269 1.377 . S
C268 C270 1.384 . S
C269 C268 1.377 . S
C269 C275 1.390 . S
C270 H261 0.930 . S
C270 C268 1.384 . S
C270 C271 1.372 . S
C271 C270 1.372 . S
C271 C272 1.400 . S
C271 C276 1.490 . S
C272 H262 0.930 . S
C272 C271 1.400 . S
C272 C275 1.386 . S
H273 C289 0.930 . S
H274 C290 0.931 . S
C275 H263 0.929 . S
C275 C269 1.390 . S
C275 C272 1.386 . S
C276 C271 1.490 . S
C276 C278 1.395 . S
C276 C279 1.403 . S
H277 C283 0.930 . S
C278 H264 0.930 . S
C278 C276 1.395 . S
C278 C281 1.403 . S
C279 C276 1.403 . S
C279 C280 1.524 . S
C279 C283 1.400 . S
C280 H265 0.960 . S
C280 H266 0.960 . S
C280 H267 0.960 . S
C280 C279 1.524 . S
C281 C278 1.403 . S
C281 C282 1.392 . S
C281 C285 1.495 . S
C282 C281 1.392 . S
C282 C283 1.385 . S
C282 C284 1.478 . S
C283 H277 0.930 . S
C283 C279 1.400 . S
C283 C282 1.385 . S
C284 C282 1.478 . S
C284 C286 1.381 . S
C284 C290 1.383 . S
C285 C281 1.495 . S
C285 H291 0.959 . S
C285 H292 0.961 . S
C285 H293 0.960 . S
C286 C284 1.381 . S
C286 C287 1.394 . S
C286 H294 0.930 . S
C287 C286 1.394 . S
C287 C288 1.383 . S
C287 H295 0.929 . S
C288 C287 1.383 . S
C288 C289 1.377 . S
C289 H273 0.930 . S
C289 C288 1.377 . S
C289 C290 1.379 . S
C290 H274 0.931 . S
C290 C284 1.383 . S
C290 C289 1.379 . S
H291 C285 0.959 . S
H292 C285 0.961 . S
H293 C285 0.960 . S
H294 C286 0.930 . S
H295 C287 0.929 . S
H296 C304 0.929 . S
H297 C306 0.930 . S
H298 C308 0.930 . S
H299 C311 0.929 . S
H300 C314 0.930 . S
H301 C316 0.960 . S
H302 C316 0.960 . S
H303 C316 0.960 . S
C304 H296 0.929 . S
C304 C305 1.377 . S
C304 C306 1.384 . S
C305 C304 1.377 . S
C305 C311 1.390 . S
C306 H297 0.930 . S
C306 C304 1.384 . S
C306 C307 1.372 . S
C307 C306 1.372 . S
C307 C308 1.400 . S
C307 C312 1.490 . S
C308 H298 0.930 . S
C308 C307 1.400 . S
C308 C311 1.386 . S
H309 C325 0.930 . S
H310 C326 0.931 . S
C311 H299 0.929 . S
C311 C305 1.390 . S
C311 C308 1.386 . S
C312 C307 1.490 . S
C312 C314 1.395 . S
C312 C315 1.403 . S
H313 C319 0.930 . S
C314 H300 0.930 . S
C314 C312 1.395 . S
C314 C317 1.403 . S
C315 C312 1.403 . S
C315 C316 1.524 . S
C315 C319 1.400 . S
C316 H301 0.960 . S
C316 H302 0.960 . S
C316 H303 0.960 . S
C316 C315 1.524 . S
C317 C314 1.403 . S
C317 C318 1.392 . S
C317 C321 1.495 . S
C318 C317 1.392 . S
C318 C319 1.385 . S
C318 C320 1.478 . S
C319 H313 0.930 . S
C319 C315 1.400 . S
C319 C318 1.385 . S
C320 C318 1.478 . S
C320 C322 1.381 . S
C320 C326 1.383 . S
C321 C317 1.495 . S
C321 H327 0.959 . S
C321 H328 0.961 . S
C321 H329 0.960 . S
C322 C320 1.381 . S
C322 C323 1.394 . S
C322 H330 0.930 . S
C323 C322 1.394 . S
C323 C324 1.383 . S
C323 H331 0.929 . S
C324 C323 1.383 . S
C324 C325 1.377 . S
C325 H309 0.930 . S
C325 C324 1.377 . S
C325 C326 1.379 . S
C326 H310 0.931 . S
C326 C320 1.383 . S
C326 C325 1.379 . S
H327 C321 0.959 . S
H328 C321 0.961 . S
H329 C321 0.960 . S
H330 C322 0.930 . S
H331 C323 0.929 . S
H332 C340 0.929 . S
H333 C342 0.930 . S
H334 C344 0.930 . S
H335 C347 0.929 . S
H336 C350 0.930 . S
H337 C352 0.960 . S
H338 C352 0.960 . S
H339 C352 0.960 . S
C340 H332 0.929 . S
C340 C341 1.377 . S
C340 C342 1.384 . S
C341 C340 1.377 . S
C341 C347 1.390 . S
C342 H333 0.930 . S
C342 C340 1.384 . S
C342 C343 1.372 . S
C343 C342 1.372 . S
C343 C344 1.400 . S
C343 C348 1.490 . S
C344 H334 0.930 . S
C344 C343 1.400 . S
C344 C347 1.386 . S
H345 C361 0.930 . S
H346 C362 0.931 . S
C347 H335 0.929 . S
C347 C341 1.390 . S
C347 C344 1.386 . S
C348 C343 1.490 . S
C348 C350 1.395 . S
C348 C351 1.403 . S
H349 C355 0.930 . S
C350 H336 0.930 . S
C350 C348 1.395 . S
C350 C353 1.403 . S
C351 C348 1.403 . S
C351 C352 1.524 . S
C351 C355 1.400 . S
C352 H337 0.960 . S
C352 H338 0.960 . S
C352 H339 0.960 . S
C352 C351 1.524 . S
C353 C350 1.403 . S
C353 C354 1.392 . S
C353 C357 1.495 . S
C354 C353 1.392 . S
C354 C355 1.385 . S
C354 C356 1.478 . S
C355 H349 0.930 . S
C355 C351 1.400 . S
C355 C354 1.385 . S
C356 C354 1.478 . S
C356 C358 1.381 . S
C356 C362 1.383 . S
C357 C353 1.495 . S
C357 H363 0.959 . S
C357 H364 0.961 . S
C357 H365 0.960 . S
C358 C356 1.381 . S
C358 C359 1.394 . S
C358 H366 0.930 . S
C359 C358 1.394 . S
C359 C360 1.383 . S
C359 H367 0.929 . S
C360 C359 1.383 . S
C360 C361 1.377 . S
C361 H345 0.930 . S
C361 C360 1.377 . S
C361 C362 1.379 . S
C362 H346 0.931 . S
C362 C356 1.383 . S
C362 C361 1.379 . S
H363 C357 0.959 . S
H364 C357 0.961 . S
H365 C357 0.960 . S
H366 C358 0.930 . S
H367 C359 0.929 . S
H368 C376 0.929 . S
H369 C378 0.930 . S
H370 C380 0.930 . S
H371 C383 0.929 . S
H372 C386 0.930 . S
H373 C388 0.960 . S
H374 C388 0.960 . S
H375 C388 0.960 . S
C376 H368 0.929 . S
C376 C377 1.377 . S
C376 C378 1.384 . S
C377 C376 1.377 . S
C377 C383 1.390 . S
C378 H369 0.930 . S
C378 C376 1.384 . S
C378 C379 1.372 . S
C379 C378 1.372 . S
C379 C380 1.400 . S
C379 C384 1.490 . S
C380 H370 0.930 . S
C380 C379 1.400 . S
C380 C383 1.386 . S
H381 C397 0.930 . S
H382 C398 0.931 . S
C383 H371 0.929 . S
C383 C377 1.390 . S
C383 C380 1.386 . S
C384 C379 1.490 . S
C384 C386 1.395 . S
C384 C387 1.403 . S
H385 C391 0.930 . S
C386 H372 0.930 . S
C386 C384 1.395 . S
C386 C389 1.403 . S
C387 C384 1.403 . S
C387 C388 1.524 . S
C387 C391 1.400 . S
C388 H373 0.960 . S
C388 H374 0.960 . S
C388 H375 0.960 . S
C388 C387 1.524 . S
C389 C386 1.403 . S
C389 C390 1.392 . S
C389 C393 1.495 . S
C390 C389 1.392 . S
C390 C391 1.385 . S
C390 C392 1.478 . S
C391 H385 0.930 . S
C391 C387 1.400 . S
C391 C390 1.385 . S
C392 C390 1.478 . S
C392 C394 1.381 . S
C392 C398 1.383 . S
C393 C389 1.495 . S
C393 H399 0.959 . S
C393 H400 0.961 . S
C393 H401 0.960 . S
C394 C392 1.381 . S
C394 C395 1.394 . S
C394 H402 0.930 . S
C395 C394 1.394 . S
C395 C396 1.383 . S
C395 H403 0.929 . S
C396 C395 1.383 . S
C396 C397 1.377 . S
C397 H381 0.930 . S
C397 C396 1.377 . S
C397 C398 1.379 . S
C398 H382 0.931 . S
C398 C392 1.383 . S
C398 C397 1.379 . S
H399 C393 0.959 . S
H400 C393 0.961 . S
H401 C393 0.960 . S
H402 C394 0.930 . S
H403 C395 0.929 . S
H404 C412 0.929 . S
H405 C414 0.930 . S
H406 C416 0.930 . S
H407 C419 0.929 . S
H408 C422 0.930 . S
H409 C424 0.960 . S
H410 C424 0.960 . S
H411 C424 0.960 . S
C412 H404 0.929 . S
C412 C413 1.377 . S
C412 C414 1.384 . S
C413 C412 1.377 . S
C413 C419 1.390 . S
C414 H405 0.930 . S
C414 C412 1.384 . S
C414 C415 1.372 . S
C415 C414 1.372 . S
C415 C416 1.400 . S
C415 C420 1.490 . S
C416 H406 0.930 . S
C416 C415 1.400 . S
C416 C419 1.386 . S
H417 C433 0.930 . S
H418 C434 0.931 . S
C419 H407 0.929 . S
C419 C413 1.390 . S
C419 C416 1.386 . S
C420 C415 1.490 . S
C420 C422 1.395 . S
C420 C423 1.403 . S
H421 C427 0.930 . S
C422 H408 0.930 . S
C422 C420 1.395 . S
C422 C425 1.403 . S
C423 C420 1.403 . S
C423 C424 1.524 . S
C423 C427 1.400 . S
C424 H409 0.960 . S
C424 H410 0.960 . S
C424 H411 0.960 . S
C424 C423 1.524 . S
C425 C422 1.403 . S
C425 C426 1.392 . S
C425 C429 1.495 . S
C426 C425 1.392 . S
C426 C427 1.385 . S
C426 C428 1.478 . S
C427 H421 0.930 . S
C427 C423 1.400 . S
C427 C426 1.385 . S
C428 C426 1.478 . S
C428 C430 1.381 . S
C428 C434 1.383 . S
C429 C425 1.495 . S
C429 H435 0.959 . S
C429 H436 0.961 . S
C429 H437 0.960 . S
C430 C428 1.381 . S
C430 C431 1.394 . S
C430 H438 0.930 . S
C431 C430 1.394 . S
C431 C432 1.383 . S
C431 H439 0.929 . S
C432 C431 1.383 . S
C432 C433 1.377 . S
C433 H417 0.930 . S
C433 C432 1.377 . S
C433 C434 1.379 . S
C434 H418 0.931 . S
C434 C428 1.383 . S
C434 C433 1.379 . S
H435 C429 0.959 . S
H436 C429 0.961 . S
H437 C429 0.960 . S
H438 C430 0.930 . S
H439 C431 0.929 . S
H440 C448 0.929 . S
H441 C450 0.930 . S
H442 C452 0.930 . S
H443 C455 0.929 . S
H444 C458 0.930 . S
H445 C460 0.960 . S
H446 C460 0.960 . S
H447 C460 0.960 . S
C448 H440 0.929 . S
C448 C449 1.377 . S
C448 C450 1.384 . S
C449 C448 1.377 . S
C449 C455 1.390 . S
C450 H441 0.930 . S
C450 C448 1.384 . S
C450 C451 1.372 . S
C451 C450 1.372 . S
C451 C452 1.400 . S
C451 C456 1.490 . S
C452 H442 0.930 . S
C452 C451 1.400 . S
C452 C455 1.386 . S
H453 C469 0.930 . S
H454 C470 0.931 . S
C455 H443 0.929 . S
C455 C449 1.390 . S
C455 C452 1.386 . S
C456 C451 1.490 . S
C456 C458 1.395 . S
C456 C459 1.403 . S
H457 C463 0.930 . S
C458 H444 0.930 . S
C458 C456 1.395 . S
C458 C461 1.403 . S
C459 C456 1.403 . S
C459 C460 1.524 . S
C459 C463 1.400 . S
C460 H445 0.960 . S
C460 H446 0.960 . S
C460 H447 0.960 . S
C460 C459 1.524 . S
C461 C458 1.403 . S
C461 C462 1.392 . S
C461 C465 1.495 . S
C462 C461 1.392 . S
C462 C463 1.385 . S
C462 C464 1.478 . S
C463 H457 0.930 . S
C463 C459 1.400 . S
C463 C462 1.385 . S
C464 C462 1.478 . S
C464 C466 1.381 . S
C464 C470 1.383 . S
C465 C461 1.495 . S
C465 H471 0.959 . S
C465 H472 0.961 . S
C465 H473 0.960 . S
C466 C464 1.381 . S
C466 C467 1.394 . S
C466 H474 0.930 . S
C467 C466 1.394 . S
C467 C468 1.383 . S
C467 H475 0.929 . S
C468 C467 1.383 . S
C468 C469 1.377 . S
C469 H453 0.930 . S
C469 C468 1.377 . S
C469 C470 1.379 . S
C470 H454 0.931 . S
C470 C464 1.383 . S
C470 C469 1.379 . S
H471 C465 0.959 . S
H472 C465 0.961 . S
H473 C465 0.960 . S
H474 C466 0.930 . S
H475 C467 0.929 . S
H476 C484 0.929 . S
H477 C486 0.930 . S
H478 C488 0.930 . S
H479 C491 0.929 . S
H480 C494 0.930 . S
H481 C496 0.960 . S
H482 C496 0.960 . S
H483 C496 0.960 . S
C484 H476 0.929 . S
C484 C485 1.377 . S
C484 C486 1.384 . S
C485 C484 1.377 . S
C485 C491 1.390 . S
C486 H477 0.930 . S
C486 C484 1.384 . S
C486 C487 1.372 . S
C487 C486 1.372 . S
C487 C488 1.400 . S
C487 C492 1.490 . S
C488 H478 0.930 . S
C488 C487 1.400 . S
C488 C491 1.386 . S
H489 C505 0.930 . S
H490 C506 0.931 . S
C491 H479 0.929 . S
C491 C485 1.390 . S
C491 C488 1.386 . S
C492 C487 1.490 . S
C492 C494 1.395 . S
C492 C495 1.403 . S
H493 C499 0.930 . S
C494 H480 0.930 . S
C494 C492 1.395 . S
C494 C497 1.403 . S
C495 C492 1.403 . S
C495 C496 1.524 . S
C495 C499 1.400 . S
C496 H481 0.960 . S
C496 H482 0.960 . S
C496 H483 0.960 . S
C496 C495 1.524 . S
C497 C494 1.403 . S
C497 C498 1.392 . S
C497 C501 1.495 . S
C498 C497 1.392 . S
C498 C499 1.385 . S
C498 C500 1.478 . S
C499 H493 0.930 . S
C499 C495 1.400 . S
C499 C498 1.385 . S
C500 C498 1.478 . S
C500 C502 1.381 . S
C500 C506 1.383 . S
C501 C497 1.495 . S
C501 H507 0.959 . S
C501 H508 0.961 . S
C501 H509 0.960 . S
C502 C500 1.381 . S
C502 C503 1.394 . S
C502 H510 0.930 . S
C503 C502 1.394 . S
C503 C504 1.383 . S
C503 H511 0.929 . S
C504 C503 1.383 . S
C504 C505 1.377 . S
C505 H489 0.930 . S
C505 C504 1.377 . S
C505 C506 1.379 . S
C506 H490 0.931 . S
C506 C500 1.383 . S
C506 C505 1.379 . S
H507 C501 0.959 . S
H508 C501 0.961 . S
H509 C501 0.960 . S
H510 C502 0.930 . S
H511 C503 0.929 . S
H512 C520 0.929 . S
H513 C522 0.930 . S
H514 C524 0.930 . S
H515 C527 0.929 . S
H516 C530 0.930 . S
H517 C532 0.960 . S
H518 C532 0.960 . S
H519 C532 0.960 . S
C520 H512 0.929 . S
C520 C521 1.377 . S
C520 C522 1.384 . S
C521 C520 1.377 . S
C521 C527 1.390 . S
C522 H513 0.930 . S
C522 C520 1.384 . S
C522 C523 1.372 . S
C523 C522 1.372 . S
C523 C524 1.400 . S
C523 C528 1.490 . S
C524 H514 0.930 . S
C524 C523 1.400 . S
C524 C527 1.386 . S
H525 C541 0.930 . S
H526 C542 0.931 . S
C527 H515 0.929 . S
C527 C521 1.390 . S
C527 C524 1.386 . S
C528 C523 1.490 . S
C528 C530 1.395 . S
C528 C531 1.403 . S
H529 C535 0.930 . S
C530 H516 0.930 . S
C530 C528 1.395 . S
C530 C533 1.403 1_556 S
C531 C528 1.403 . S
C531 C532 1.524 . S
C531 C535 1.400 1_556 S
C532 H517 0.960 . S
C532 H518 0.960 . S
C532 H519 0.960 . S
C532 C531 1.524 . S
C533 C530 1.403 1_554 S
C533 C534 1.392 . S
C533 C537 1.495 . S
C534 C533 1.392 . S
C534 C535 1.385 . S
C534 C536 1.478 . S
C535 H529 0.930 . S
C535 C531 1.400 1_554 S
C535 C534 1.385 . S
C536 C534 1.478 . S
C536 C538 1.381 . S
C536 C542 1.383 . S
C537 C533 1.495 . S
C537 H543 0.959 . S
C537 H544 0.961 . S
C537 H545 0.960 . S
C538 C536 1.381 . S
C538 C539 1.394 . S
C538 H546 0.930 . S
C539 C538 1.394 . S
C539 C540 1.383 . S
C539 H547 0.929 . S
C540 C539 1.383 . S
C540 C541 1.377 . S
C541 H525 0.930 . S
C541 C540 1.377 . S
C541 C542 1.379 . S
C542 H526 0.931 . S
C542 C536 1.383 . S
C542 C541 1.379 . S
H543 C537 0.959 . S
H544 C537 0.961 . S
H545 C537 0.960 . S
H546 C538 0.930 . S
H547 C539 0.929 . S
H548 C556 0.929 . S
H549 C558 0.930 . S
H550 C560 0.930 . S
H551 C563 0.929 . S
H552 C566 0.930 . S
H553 C568 0.960 . S
H554 C568 0.960 . S
H555 C568 0.960 . S
C556 H548 0.929 . S
C556 C557 1.377 . S
C556 C558 1.384 . S
C557 C556 1.377 . S
C557 C563 1.390 . S
C558 H549 0.930 . S
C558 C556 1.384 . S
C558 C559 1.372 . S
C559 C558 1.372 . S
C559 C560 1.400 . S
C559 C564 1.490 . S
C560 H550 0.930 . S
C560 C559 1.400 . S
C560 C563 1.386 . S
H561 C577 0.930 . S
H562 C578 0.931 . S
C563 H551 0.929 . S
C563 C557 1.390 . S
C563 C560 1.386 . S
C564 C559 1.490 . S
C564 C566 1.395 . S
C564 C567 1.403 . S
H565 C571 0.930 . S
C566 H552 0.930 . S
C566 C564 1.395 . S
C566 C569 1.403 1_556 S
C567 C564 1.403 . S
C567 C568 1.524 . S
C567 C571 1.400 1_556 S
C568 H553 0.960 . S
C568 H554 0.960 . S
C568 H555 0.960 . S
C568 C567 1.524 . S
C569 C566 1.403 1_554 S
C569 C570 1.392 . S
C569 C573 1.495 . S
C570 C569 1.392 . S
C570 C571 1.385 . S
C570 C572 1.478 . S
C571 H565 0.930 . S
C571 C567 1.400 1_554 S
C571 C570 1.385 . S
C572 C570 1.478 . S
C572 C574 1.381 . S
C572 C578 1.383 . S
C573 C569 1.495 . S
C573 H579 0.959 . S
C573 H580 0.961 . S
C573 H581 0.960 . S
C574 C572 1.381 . S
C574 C575 1.394 . S
C574 H582 0.930 . S
C575 C574 1.394 . S
C575 C576 1.383 . S
C575 H583 0.929 . S
C576 C575 1.383 . S
C576 C577 1.377 . S
C577 H561 0.930 . S
C577 C576 1.377 . S
C577 C578 1.379 . S
C578 H562 0.931 . S
C578 C572 1.383 . S
C578 C577 1.379 . S
H579 C573 0.959 . S
H580 C573 0.961 . S
H581 C573 0.960 . S
H582 C574 0.930 . S
H583 C575 0.929 . S
H584 C592 0.929 . S
H585 C594 0.930 . S
H586 C596 0.930 . S
H587 C599 0.929 . S
H588 C602 0.930 . S
H589 C604 0.960 . S
H590 C604 0.960 . S
H591 C604 0.960 . S
C592 H584 0.929 . S
C592 C593 1.377 . S
C592 C594 1.384 . S
C593 C592 1.377 . S
C593 C599 1.390 . S
C594 H585 0.930 . S
C594 C592 1.384 . S
C594 C595 1.372 . S
C595 C594 1.372 . S
C595 C596 1.400 . S
C595 C600 1.490 . S
C596 H586 0.930 . S
C596 C595 1.400 . S
C596 C599 1.386 . S
H597 C613 0.930 . S
H598 C614 0.931 . S
C599 H587 0.929 . S
C599 C593 1.390 . S
C599 C596 1.386 . S
C600 C595 1.490 . S
C600 C602 1.395 . S
C600 C603 1.403 . S
H601 C607 0.930 . S
C602 H588 0.930 . S
C602 C600 1.395 . S
C602 C605 1.403 1_556 S
C603 C600 1.403 . S
C603 C604 1.524 . S
C603 C607 1.400 1_556 S
C604 H589 0.960 . S
C604 H590 0.960 . S
C604 H591 0.960 . S
C604 C603 1.524 . S
C605 C602 1.403 1_554 S
C605 C606 1.392 . S
C605 C609 1.495 . S
C606 C605 1.392 . S
C606 C607 1.385 . S
C606 C608 1.478 . S
C607 H601 0.930 . S
C607 C603 1.400 1_554 S
C607 C606 1.385 . S
C608 C606 1.478 . S
C608 C610 1.381 . S
C608 C614 1.383 . S
C609 C605 1.495 . S
C609 H615 0.959 . S
C609 H616 0.961 . S
C609 H617 0.960 . S
C610 C608 1.381 . S
C610 C611 1.394 . S
C610 H618 0.930 . S
C611 C610 1.394 . S
C611 C612 1.383 . S
C611 H619 0.929 . S
C612 C611 1.383 . S
C612 C613 1.377 . S
C613 H597 0.930 . S
C613 C612 1.377 . S
C613 C614 1.379 . S
C614 H598 0.931 . S
C614 C608 1.383 . S
C614 C613 1.379 . S
H615 C609 0.959 . S
H616 C609 0.961 . S
H617 C609 0.960 . S
H618 C610 0.930 . S
H619 C611 0.929 . S
H620 C628 0.929 . S
H621 C630 0.930 . S
H622 C632 0.930 . S
H623 C635 0.929 . S
H624 C638 0.930 . S
H625 C640 0.960 . S
H626 C640 0.960 . S
H627 C640 0.960 . S
C628 H620 0.929 . S
C628 C629 1.377 . S
C628 C630 1.384 . S
C629 C628 1.377 . S
C629 C635 1.390 . S
C630 H621 0.930 . S
C630 C628 1.384 . S
C630 C631 1.372 . S
C631 C630 1.372 . S
C631 C632 1.400 . S
C631 C636 1.490 . S
C632 H622 0.930 . S
C632 C631 1.400 . S
C632 C635 1.386 . S
H633 C649 0.930 . S
H634 C650 0.931 . S
C635 H623 0.929 . S
C635 C629 1.390 . S
C635 C632 1.386 . S
C636 C631 1.490 . S
C636 C638 1.395 . S
C636 C639 1.403 . S
H637 C643 0.930 . S
C638 H624 0.930 . S
C638 C636 1.395 . S
C638 C641 1.403 1_554 S
C639 C636 1.403 . S
C639 C640 1.524 . S
C639 C643 1.400 1_554 S
C640 H625 0.960 . S
C640 H626 0.960 . S
C640 H627 0.960 . S
C640 C639 1.524 . S
C641 C638 1.403 1_556 S
C641 C642 1.392 . S
C641 C645 1.495 . S
C642 C641 1.392 . S
C642 C643 1.385 . S
C642 C644 1.478 . S
C643 H637 0.930 . S
C643 C639 1.400 1_556 S
C643 C642 1.385 . S
C644 C642 1.478 . S
C644 C646 1.381 . S
C644 C650 1.383 . S
C645 C641 1.495 . S
C645 H651 0.959 . S
C645 H652 0.961 . S
C645 H653 0.960 . S
C646 C644 1.381 . S
C646 C647 1.394 . S
C646 H654 0.930 . S
C647 C646 1.394 . S
C647 C648 1.383 . S
C647 H655 0.929 . S
C648 C647 1.383 . S
C648 C649 1.377 . S
C649 H633 0.930 . S
C649 C648 1.377 . S
C649 C650 1.379 . S
C650 H634 0.931 . S
C650 C644 1.383 . S
C650 C649 1.379 . S
H651 C645 0.959 . S
H652 C645 0.961 . S
H653 C645 0.960 . S
H654 C646 0.930 . S
H655 C647 0.929 . S
H656 C664 0.929 . S
H657 C666 0.930 . S
H658 C668 0.930 . S
H659 C671 0.929 . S
H660 C674 0.930 . S
H661 C676 0.960 . S
H662 C676 0.960 . S
H663 C676 0.960 . S
C664 H656 0.929 . S
C664 C665 1.377 . S
C664 C666 1.384 . S
C665 C664 1.377 . S
C665 C671 1.390 . S
C666 H657 0.930 . S
C666 C664 1.384 . S
C666 C667 1.372 . S
C667 C666 1.372 . S
C667 C668 1.400 . S
C667 C672 1.490 . S
C668 H658 0.930 . S
C668 C667 1.400 . S
C668 C671 1.386 . S
H669 C685 0.930 . S
H670 C686 0.931 . S
C671 H659 0.929 . S
C671 C665 1.390 . S
C671 C668 1.386 . S
C672 C667 1.490 . S
C672 C674 1.395 . S
C672 C675 1.403 . S
H673 C679 0.930 . S
C674 H660 0.930 . S
C674 C672 1.395 . S
C674 C677 1.403 . S
C675 C672 1.403 . S
C675 C676 1.524 . S
C675 C679 1.400 . S
C676 H661 0.960 . S
C676 H662 0.960 . S
C676 H663 0.960 . S
C676 C675 1.524 . S
C677 C674 1.403 . S
C677 C678 1.392 . S
C677 C681 1.495 . S
C678 C677 1.392 . S
C678 C679 1.385 . S
C678 C680 1.478 . S
C679 H673 0.930 . S
C679 C675 1.400 . S
C679 C678 1.385 . S
C680 C678 1.478 . S
C680 C682 1.381 . S
C680 C686 1.383 . S
C681 C677 1.495 . S
C681 H687 0.959 . S
C681 H688 0.961 . S
C681 H689 0.960 . S
C682 C680 1.381 . S
C682 C683 1.394 . S
C682 H690 0.930 . S
C683 C682 1.394 . S
C683 C684 1.383 . S
C683 H691 0.929 . S
C684 C683 1.383 . S
C684 C685 1.377 . S
C685 H669 0.930 . S
C685 C684 1.377 . S
C685 C686 1.379 . S
C686 H670 0.931 . S
C686 C680 1.383 . S
C686 C685 1.379 . S
H687 C681 0.959 . S
H688 C681 0.961 . S
H689 C681 0.960 . S
H690 C682 0.930 . S
H691 C683 0.929 . S
H692 C700 0.929 . S
H693 C702 0.930 . S
H694 C704 0.930 . S
H695 C707 0.929 . S
H696 C710 0.930 . S
H697 C712 0.960 . S
H698 C712 0.960 . S
H699 C712 0.960 . S
C700 H692 0.929 . S
C700 C701 1.377 . S
C700 C702 1.384 . S
C701 C700 1.377 . S
C701 C707 1.390 . S
C702 H693 0.930 . S
C702 C700 1.384 . S
C702 C703 1.372 . S
C703 C702 1.372 . S
C703 C704 1.400 . S
C703 C708 1.490 . S
C704 H694 0.930 . S
C704 C703 1.400 . S
C704 C707 1.386 . S
H705 C721 0.930 . S
H706 C722 0.931 . S
C707 H695 0.929 . S
C707 C701 1.390 . S
C707 C704 1.386 . S
C708 C703 1.490 . S
C708 C710 1.395 . S
C708 C711 1.403 . S
H709 C715 0.930 . S
C710 H696 0.930 . S
C710 C708 1.395 . S
C710 C713 1.403 . S
C711 C708 1.403 . S
C711 C712 1.524 . S
C711 C715 1.400 . S
C712 H697 0.960 . S
C712 H698 0.960 . S
C712 H699 0.960 . S
C712 C711 1.524 . S
C713 C710 1.403 . S
C713 C714 1.392 . S
C713 C717 1.495 . S
C714 C713 1.392 . S
C714 C715 1.385 . S
C714 C716 1.478 . S
C715 H709 0.930 . S
C715 C711 1.400 . S
C715 C714 1.385 . S
C716 C714 1.478 . S
C716 C718 1.381 . S
C716 C722 1.383 . S
C717 C713 1.495 . S
C717 H723 0.959 . S
C717 H724 0.961 . S
C717 H725 0.960 . S
C718 C716 1.381 . S
C718 C719 1.394 . S
C718 H726 0.930 . S
C719 C718 1.394 . S
C719 C720 1.383 . S
C719 H727 0.929 . S
C720 C719 1.383 . S
C720 C721 1.377 . S
C721 H705 0.930 . S
C721 C720 1.377 . S
C721 C722 1.379 . S
C722 H706 0.931 . S
C722 C716 1.383 . S
C722 C721 1.379 . S
H723 C717 0.959 . S
H724 C717 0.961 . S
H725 C717 0.960 . S
H726 C718 0.930 . S
H727 C719 0.929 . S
H728 C736 0.929 . S
H729 C738 0.930 . S
H730 C740 0.930 . S
H731 C743 0.929 . S
H732 C746 0.930 . S
H733 C748 0.960 . S
H734 C748 0.960 . S
H735 C748 0.960 . S
C736 H728 0.929 . S
C736 C737 1.377 . S
C736 C738 1.384 . S
C737 C736 1.377 . S
C737 C743 1.390 . S
C738 H729 0.930 . S
C738 C736 1.384 . S
C738 C739 1.372 . S
C739 C738 1.372 . S
C739 C740 1.400 . S
C739 C744 1.490 . S
C740 H730 0.930 . S
C740 C739 1.400 . S
C740 C743 1.386 . S
H741 C757 0.930 . S
H742 C758 0.931 . S
C743 H731 0.929 . S
C743 C737 1.390 . S
C743 C740 1.386 . S
C744 C739 1.490 . S
C744 C746 1.395 . S
C744 C747 1.403 . S
H745 C751 0.930 . S
C746 H732 0.930 . S
C746 C744 1.395 . S
C746 C749 1.403 . S
C747 C744 1.403 . S
C747 C748 1.524 . S
C747 C751 1.400 . S
C748 H733 0.960 . S
C748 H734 0.960 . S
C748 H735 0.960 . S
C748 C747 1.524 . S
C749 C746 1.403 . S
C749 C750 1.392 . S
C749 C753 1.495 . S
C750 C749 1.392 . S
C750 C751 1.385 . S
C750 C752 1.478 . S
C751 H745 0.930 . S
C751 C747 1.400 . S
C751 C750 1.385 . S
C752 C750 1.478 . S
C752 C754 1.381 . S
C752 C758 1.383 . S
C753 C749 1.495 . S
C753 H759 0.959 . S
C753 H760 0.961 . S
C753 H761 0.960 . S
C754 C752 1.381 . S
C754 C755 1.394 . S
C754 H762 0.930 . S
C755 C754 1.394 . S
C755 C756 1.383 . S
C755 H763 0.929 . S
C756 C755 1.383 . S
C756 C757 1.377 . S
C757 H741 0.930 . S
C757 C756 1.377 . S
C757 C758 1.379 . S
C758 H742 0.931 . S
C758 C752 1.383 . S
C758 C757 1.379 . S
H759 C753 0.959 . S
H760 C753 0.961 . S
H761 C753 0.960 . S
H762 C754 0.930 . S
H763 C755 0.929 . S
H764 C772 0.929 . S
H765 C774 0.930 . S
H766 C776 0.930 . S
H767 C779 0.929 . S
H768 C782 0.930 . S
H769 C784 0.960 . S
H770 C784 0.960 . S
H771 C784 0.960 . S
C772 H764 0.929 . S
C772 C773 1.377 . S
C772 C774 1.384 . S
C773 C772 1.377 . S
C773 C779 1.390 . S
C774 H765 0.930 . S
C774 C772 1.384 . S
C774 C775 1.372 . S
C775 C774 1.372 . S
C775 C776 1.400 . S
C775 C780 1.490 . S
C776 H766 0.930 . S
C776 C775 1.400 . S
C776 C779 1.386 . S
H777 C793 0.930 . S
H778 C794 0.931 . S
C779 H767 0.929 . S
C779 C773 1.390 . S
C779 C776 1.386 . S
C780 C775 1.490 . S
C780 C782 1.395 . S
C780 C783 1.403 . S
H781 C787 0.930 . S
C782 H768 0.930 . S
C782 C780 1.395 . S
C782 C785 1.403 . S
C783 C780 1.403 . S
C783 C784 1.524 . S
C783 C787 1.400 . S
C784 H769 0.960 . S
C784 H770 0.960 . S
C784 H771 0.960 . S
C784 C783 1.524 . S
C785 C782 1.403 . S
C785 C786 1.392 . S
C785 C789 1.495 . S
C786 C785 1.392 . S
C786 C787 1.385 . S
C786 C788 1.478 . S
C787 H781 0.930 . S
C787 C783 1.400 . S
C787 C786 1.385 . S
C788 C786 1.478 . S
C788 C790 1.381 . S
C788 C794 1.383 . S
C789 C785 1.495 . S
C789 H795 0.959 . S
C789 H796 0.961 . S
C789 H797 0.960 . S
C790 C788 1.381 . S
C790 C791 1.394 . S
C790 H798 0.930 . S
C791 C790 1.394 . S
C791 C792 1.383 . S
C791 H799 0.929 . S
C792 C791 1.383 . S
C792 C793 1.377 . S
C793 H777 0.930 . S
C793 C792 1.377 . S
C793 C794 1.379 . S
C794 H778 0.931 . S
C794 C788 1.383 . S
C794 C793 1.379 . S
H795 C789 0.959 . S
H796 C789 0.961 . S
H797 C789 0.960 . S
H798 C790 0.930 . S
H799 C791 0.929 . S
H800 C808 0.929 . S
H801 C810 0.930 . S
H802 C812 0.930 . S
H803 C815 0.929 . S
H804 C818 0.930 . S
H805 C820 0.960 . S
H806 C820 0.960 . S
H807 C820 0.960 . S
C808 H800 0.929 . S
C808 C809 1.377 . S
C808 C810 1.384 . S
C809 C808 1.377 . S
C809 C815 1.390 . S
C810 H801 0.930 . S
C810 C808 1.384 . S
C810 C811 1.372 . S
C811 C810 1.372 . S
C811 C812 1.400 . S
C811 C816 1.490 . S
C812 H802 0.930 . S
C812 C811 1.400 . S
C812 C815 1.386 . S
H813 C829 0.930 . S
H814 C830 0.931 . S
C815 H803 0.929 . S
C815 C809 1.390 . S
C815 C812 1.386 . S
C816 C811 1.490 . S
C816 C818 1.395 . S
C816 C819 1.403 . S
H817 C823 0.930 . S
C818 H804 0.930 . S
C818 C816 1.395 . S
C818 C821 1.403 . S
C819 C816 1.403 . S
C819 C820 1.524 . S
C819 C823 1.400 . S
C820 H805 0.960 . S
C820 H806 0.960 . S
C820 H807 0.960 . S
C820 C819 1.524 . S
C821 C818 1.403 . S
C821 C822 1.392 . S
C821 C825 1.495 . S
C822 C821 1.392 . S
C822 C823 1.385 . S
C822 C824 1.478 . S
C823 H817 0.930 . S
C823 C819 1.400 . S
C823 C822 1.385 . S
C824 C822 1.478 . S
C824 C826 1.381 . S
C824 C830 1.383 . S
C825 C821 1.495 . S
C825 H831 0.959 . S
C825 H832 0.961 . S
C825 H833 0.960 . S
C826 C824 1.381 . S
C826 C827 1.394 . S
C826 H834 0.930 . S
C827 C826 1.394 . S
C827 C828 1.383 . S
C827 H835 0.929 . S
C828 C827 1.383 . S
C828 C829 1.377 . S
C829 H813 0.930 . S
C829 C828 1.377 . S
C829 C830 1.379 . S
C830 H814 0.931 . S
C830 C824 1.383 . S
C830 C829 1.379 . S
H831 C825 0.959 . S
H832 C825 0.961 . S
H833 C825 0.960 . S
H834 C826 0.930 . S
H835 C827 0.929 . S
H836 C844 0.929 . S
H837 C846 0.930 . S
H838 C848 0.930 . S
H839 C851 0.929 . S
H840 C854 0.930 . S
H841 C856 0.960 . S
H842 C856 0.960 . S
H843 C856 0.960 . S
C844 H836 0.929 . S
C844 C845 1.377 . S
C844 C846 1.384 . S
C845 C844 1.377 . S
C845 C851 1.390 . S
C846 H837 0.930 . S
C846 C844 1.384 . S
C846 C847 1.372 . S
C847 C846 1.372 . S
C847 C848 1.400 . S
C847 C852 1.490 . S
C848 H838 0.930 . S
C848 C847 1.400 . S
C848 C851 1.386 . S
H849 C865 0.930 . S
H850 C866 0.931 . S
C851 H839 0.929 . S
C851 C845 1.390 . S
C851 C848 1.386 . S
C852 C847 1.490 . S
C852 C854 1.395 . S
C852 C855 1.403 . S
H853 C859 0.930 . S
C854 H840 0.930 . S
C854 C852 1.395 . S
C854 C857 1.403 . S
C855 C852 1.403 . S
C855 C856 1.524 . S
C855 C859 1.400 . S
C856 H841 0.960 . S
C856 H842 0.960 . S
C856 H843 0.960 . S
C856 C855 1.524 . S
C857 C854 1.403 . S
C857 C858 1.392 . S
C857 C861 1.495 . S
C858 C857 1.392 . S
C858 C859 1.385 . S
C858 C860 1.478 . S
C859 H853 0.930 . S
C859 C855 1.400 . S
C859 C858 1.385 . S
C860 C858 1.478 . S
C860 C862 1.381 . S
C860 C866 1.383 . S
C861 C857 1.495 . S
C861 H867 0.959 . S
C861 H868 0.961 . S
C861 H869 0.960 . S
C862 C860 1.381 . S
C862 C863 1.394 . S
C862 H870 0.930 . S
C863 C862 1.394 . S
C863 C864 1.383 . S
C863 H871 0.929 . S
C864 C863 1.383 . S
C864 C865 1.377 . S
C865 H849 0.930 . S
C865 C864 1.377 . S
C865 C866 1.379 . S
C866 H850 0.931 . S
C866 C860 1.383 . S
C866 C865 1.379 . S
H867 C861 0.959 . S
H868 C861 0.961 . S
H869 C861 0.960 . S
H870 C862 0.930 . S
H871 C863 0.929 . S
H872 C880 0.929 . S
H873 C882 0.930 . S
H874 C884 0.930 . S
H875 C887 0.929 . S
H876 C890 0.930 . S
H877 C892 0.960 . S
H878 C892 0.960 . S
H879 C892 0.960 . S
C880 H872 0.929 . S
C880 C881 1.377 . S
C880 C882 1.384 . S
C881 C880 1.377 . S
C881 C887 1.390 . S
C882 H873 0.930 . S
C882 C880 1.384 . S
C882 C883 1.372 . S
C883 C882 1.372 . S
C883 C884 1.400 . S
C883 C888 1.490 . S
C884 H874 0.930 . S
C884 C883 1.400 . S
C884 C887 1.386 . S
H885 C901 0.930 . S
H886 C902 0.931 . S
C887 H875 0.929 . S
C887 C881 1.390 . S
C887 C884 1.386 . S
C888 C883 1.490 . S
C888 C890 1.395 . S
C888 C891 1.403 . S
H889 C895 0.930 . S
C890 H876 0.930 . S
C890 C888 1.395 . S
C890 C893 1.403 . S
C891 C888 1.403 . S
C891 C892 1.524 . S
C891 C895 1.400 . S
C892 H877 0.960 . S
C892 H878 0.960 . S
C892 H879 0.960 . S
C892 C891 1.524 . S
C893 C890 1.403 . S
C893 C894 1.392 . S
C893 C897 1.495 . S
C894 C893 1.392 . S
C894 C895 1.385 . S
C894 C896 1.478 . S
C895 H889 0.930 . S
C895 C891 1.400 . S
C895 C894 1.385 . S
C896 C894 1.478 . S
C896 C898 1.381 . S
C896 C902 1.383 . S
C897 C893 1.495 . S
C897 H903 0.959 . S
C897 H904 0.961 . S
C897 H905 0.960 . S
C898 C896 1.381 . S
C898 C899 1.394 . S
C898 H906 0.930 . S
C899 C898 1.394 . S
C899 C900 1.383 . S
C899 H907 0.929 . S
C900 C899 1.383 . S
C900 C901 1.377 . S
C901 H885 0.930 . S
C901 C900 1.377 . S
C901 C902 1.379 . S
C902 H886 0.931 . S
C902 C896 1.383 . S
C902 C901 1.379 . S
H903 C897 0.959 . S
H904 C897 0.961 . S
H905 C897 0.960 . S
H906 C898 0.930 . S
H907 C899 0.929 . S
H908 C916 0.929 . S
H909 C918 0.930 . S
H910 C920 0.930 . S
H911 C923 0.929 . S
H912 C926 0.930 . S
H913 C928 0.960 . S
H914 C928 0.960 . S
H915 C928 0.960 . S
C916 H908 0.929 . S
C916 C917 1.377 . S
C916 C918 1.384 . S
C917 C916 1.377 . S
C917 C923 1.390 . S
C918 H909 0.930 . S
C918 C916 1.384 . S
C918 C919 1.372 . S
C919 C918 1.372 . S
C919 C920 1.400 . S
C919 C924 1.490 . S
C920 H910 0.930 . S
C920 C919 1.400 . S
C920 C923 1.386 . S
H921 C937 0.930 . S
H922 C938 0.931 . S
C923 H911 0.929 . S
C923 C917 1.390 . S
C923 C920 1.386 . S
C924 C919 1.490 . S
C924 C926 1.395 . S
C924 C927 1.403 . S
H925 C931 0.930 . S
C926 H912 0.930 . S
C926 C924 1.395 . S
C926 C929 1.403 . S
C927 C924 1.403 . S
C927 C928 1.524 . S
C927 C931 1.400 . S
C928 H913 0.960 . S
C928 H914 0.960 . S
C928 H915 0.960 . S
C928 C927 1.524 . S
C929 C926 1.403 . S
C929 C930 1.392 . S
C929 C933 1.495 . S
C930 C929 1.392 . S
C930 C931 1.385 . S
C930 C932 1.478 . S
C931 H925 0.930 . S
C931 C927 1.400 . S
C931 C930 1.385 . S
C932 C930 1.478 . S
C932 C934 1.381 . S
C932 C938 1.383 . S
C933 C929 1.495 . S
C933 H939 0.959 . S
C933 H940 0.961 . S
C933 H941 0.960 . S
C934 C932 1.381 . S
C934 C935 1.394 . S
C934 H942 0.930 . S
C935 C934 1.394 . S
C935 C936 1.383 . S
C935 H943 0.929 . S
C936 C935 1.383 . S
C936 C937 1.377 . S
C937 H921 0.930 . S
C937 C936 1.377 . S
C937 C938 1.379 . S
C938 H922 0.931 . S
C938 C932 1.383 . S
C938 C937 1.379 . S
H939 C933 0.959 . S
H940 C933 0.961 . S
H941 C933 0.960 . S
H942 C934 0.930 . S
H943 C935 0.929 . S
H944 C952 0.929 . S
H945 C954 0.930 . S
H946 C956 0.930 . S
H947 C959 0.929 . S
H948 C962 0.930 . S
H949 C964 0.960 . S
H950 C964 0.960 . S
H951 C964 0.960 . S
C952 H944 0.929 . S
C952 C953 1.377 . S
C952 C954 1.384 . S
C953 C952 1.377 . S
C953 C959 1.390 . S
C954 H945 0.930 . S
C954 C952 1.384 . S
C954 C955 1.372 . S
C955 C954 1.372 . S
C955 C956 1.400 . S
C955 C960 1.490 . S
C956 H946 0.930 . S
C956 C955 1.400 . S
C956 C959 1.386 . S
H957 C973 0.930 . S
H958 C974 0.931 . S
C959 H947 0.929 . S
C959 C953 1.390 . S
C959 C956 1.386 . S
C960 C955 1.490 . S
C960 C962 1.395 . S
C960 C963 1.403 . S
H961 C967 0.930 . S
C962 H948 0.930 . S
C962 C960 1.395 . S
C962 C965 1.403 . S
C963 C960 1.403 . S
C963 C964 1.524 . S
C963 C967 1.400 . S
C964 H949 0.960 . S
C964 H950 0.960 . S
C964 H951 0.960 . S
C964 C963 1.524 . S
C965 C962 1.403 . S
C965 C966 1.392 . S
C965 C969 1.495 . S
C966 C965 1.392 . S
C966 C967 1.385 . S
C966 C968 1.478 . S
C967 H961 0.930 . S
C967 C963 1.400 . S
C967 C966 1.385 . S
C968 C966 1.478 . S
C968 C970 1.381 . S
C968 C974 1.383 . S
C969 C965 1.495 . S
C969 H975 0.959 . S
C969 H976 0.961 . S
C969 H977 0.960 . S
C970 C968 1.381 . S
C970 C971 1.394 . S
C970 H978 0.930 . S
C971 C970 1.394 . S
C971 C972 1.383 . S
C971 H979 0.929 . S
C972 C971 1.383 . S
C972 C973 1.377 . S
C973 H957 0.930 . S
C973 C972 1.377 . S
C973 C974 1.379 . S
C974 H958 0.931 . S
C974 C968 1.383 . S
C974 C973 1.379 . S
H975 C969 0.959 . S
H976 C969 0.961 . S
H977 C969 0.960 . S
H978 C970 0.930 . S
H979 C971 0.929 . S
H980 C988 0.929 . S
H981 C990 0.930 . S
H982 C992 0.930 . S
H983 C995 0.929 . S
H984 C998 0.930 . S
H985 C1000 0.960 . S
H986 C1000 0.960 . S
H987 C1000 0.960 . S
C988 H980 0.929 . S
C988 C989 1.377 . S
C988 C990 1.384 . S
C989 C988 1.377 . S
C989 C995 1.390 . S
C990 H981 0.930 . S
C990 C988 1.384 . S
C990 C991 1.372 . S
C991 C990 1.372 . S
C991 C992 1.400 . S
C991 C996 1.490 . S
C992 H982 0.930 . S
C992 C991 1.400 . S
C992 C995 1.386 . S
H993 C1009 0.930 . S
H994 C1010 0.931 . S
C995 H983 0.929 . S
C995 C989 1.390 . S
C995 C992 1.386 . S
C996 C991 1.490 . S
C996 C998 1.395 . S
C996 C999 1.403 . S
H997 C1003 0.930 . S
C998 H984 0.930 . S
C998 C996 1.395 . S
C998 C1001 1.403 . S
C999 C996 1.403 . S
C999 C1000 1.524 . S
C999 C1003 1.400 . S
C1000 H985 0.960 . S
C1000 H986 0.960 . S
C1000 H987 0.960 . S
C1000 C999 1.524 . S
C1001 C998 1.403 . S
C1001 C1002 1.392 . S
C1001 C1005 1.495 . S
C1002 C1001 1.392 . S
C1002 C1003 1.385 . S
C1002 C1004 1.478 . S
C1003 H997 0.930 . S
C1003 C999 1.400 . S
C1003 C1002 1.385 . S
C1004 C1002 1.478 . S
C1004 C1006 1.381 . S
C1004 C1010 1.383 . S
C1005 C1001 1.495 . S
C1005 H1011 0.959 . S
C1005 H1012 0.961 . S
C1005 H1013 0.960 . S
C1006 C1004 1.381 . S
C1006 C1007 1.394 . S
C1006 H1014 0.930 . S
C1007 C1006 1.394 . S
C1007 C1008 1.383 . S
C1007 H1015 0.929 . S
C1008 C1007 1.383 . S
C1008 C1009 1.377 . S
C1009 H993 0.930 . S
C1009 C1008 1.377 . S
C1009 C1010 1.379 . S
C1010 H994 0.931 . S
C1010 C1004 1.383 . S
C1010 C1009 1.379 . S
H1011 C1005 0.959 . S
H1012 C1005 0.961 . S
H1013 C1005 0.960 . S
H1014 C1006 0.930 . S
H1015 C1007 0.929 . S
H1016 C1024 0.929 . S
H1017 C1026 0.930 . S
H1018 C1028 0.930 . S
H1019 C1031 0.929 . S
H1020 C1034 0.930 . S
H1021 C1036 0.960 . S
H1022 C1036 0.960 . S
H1023 C1036 0.960 . S
C1024 H1016 0.929 . S
C1024 C1025 1.377 . S
C1024 C1026 1.384 . S
C1025 C1024 1.377 . S
C1025 C1031 1.390 . S
C1026 H1017 0.930 . S
C1026 C1024 1.384 . S
C1026 C1027 1.372 . S
C1027 C1026 1.372 . S
C1027 C1028 1.400 . S
C1027 C1032 1.490 . S
C1028 H1018 0.930 . S
C1028 C1027 1.400 . S
C1028 C1031 1.386 . S
H1029 C1045 0.930 . S
H1030 C1046 0.931 . S
C1031 H1019 0.929 . S
C1031 C1025 1.390 . S
C1031 C1028 1.386 . S
C1032 C1027 1.490 . S
C1032 C1034 1.395 . S
C1032 C1035 1.403 . S
H1033 C1039 0.930 . S
C1034 H1020 0.930 . S
C1034 C1032 1.395 . S
C1034 C1037 1.403 . S
C1035 C1032 1.403 . S
C1035 C1036 1.524 . S
C1035 C1039 1.400 . S
C1036 H1021 0.960 . S
C1036 H1022 0.960 . S
C1036 H1023 0.960 . S
C1036 C1035 1.524 . S
C1037 C1034 1.403 . S
C1037 C1038 1.392 . S
C1037 C1041 1.495 . S
C1038 C1037 1.392 . S
C1038 C1039 1.385 . S
C1038 C1040 1.478 . S
C1039 H1033 0.930 . S
C1039 C1035 1.400 . S
C1039 C1038 1.385 . S
C1040 C1038 1.478 . S
C1040 C1042 1.381 . S
C1040 C1046 1.383 . S
C1041 C1037 1.495 . S
C1041 H1047 0.959 . S
C1041 H1048 0.961 . S
C1041 H1049 0.960 . S
C1042 C1040 1.381 . S
C1042 C1043 1.394 . S
C1042 H1050 0.930 . S
C1043 C1042 1.394 . S
C1043 C1044 1.383 . S
C1043 H1051 0.929 . S
C1044 C1043 1.383 . S
C1044 C1045 1.377 . S
C1045 H1029 0.930 . S
C1045 C1044 1.377 . S
C1045 C1046 1.379 . S
C1046 H1030 0.931 . S
C1046 C1040 1.383 . S
C1046 C1045 1.379 . S
H1047 C1041 0.959 . S
H1048 C1041 0.961 . S
H1049 C1041 0.960 . S
H1050 C1042 0.930 . S
H1051 C1043 0.929 . S
H1052 C1060 0.929 . S
H1053 C1062 0.930 . S
H1054 C1064 0.930 . S
H1055 C1067 0.929 . S
H1056 C1070 0.930 . S
H1057 C1072 0.960 . S
H1058 C1072 0.960 . S
H1059 C1072 0.960 . S
C1060 H1052 0.929 . S
C1060 C1061 1.377 . S
C1060 C1062 1.384 . S
C1061 C1060 1.377 . S
C1061 C1067 1.390 . S
C1062 H1053 0.930 . S
C1062 C1060 1.384 . S
C1062 C1063 1.372 . S
C1063 C1062 1.372 . S
C1063 C1064 1.400 . S
C1063 C1068 1.490 . S
C1064 H1054 0.930 . S
C1064 C1063 1.400 . S
C1064 C1067 1.386 . S
H1065 C1081 0.930 . S
H1066 C1082 0.931 . S
C1067 H1055 0.929 . S
C1067 C1061 1.390 . S
C1067 C1064 1.386 . S
C1068 C1063 1.490 . S
C1068 C1070 1.395 . S
C1068 C1071 1.403 . S
H1069 C1075 0.930 . S
C1070 H1056 0.930 . S
C1070 C1068 1.395 . S
C1070 C1073 1.403 . S
C1071 C1068 1.403 . S
C1071 C1072 1.524 . S
C1071 C1075 1.400 . S
C1072 H1057 0.960 . S
C1072 H1058 0.960 . S
C1072 H1059 0.960 . S
C1072 C1071 1.524 . S
C1073 C1070 1.403 . S
C1073 C1074 1.392 . S
C1073 C1077 1.495 . S
C1074 C1073 1.392 . S
C1074 C1075 1.385 . S
C1074 C1076 1.478 . S
C1075 H1069 0.930 . S
C1075 C1071 1.400 . S
C1075 C1074 1.385 . S
C1076 C1074 1.478 . S
C1076 C1078 1.381 . S
C1076 C1082 1.383 . S
C1077 C1073 1.495 . S
C1077 H1083 0.959 . S
C1077 H1084 0.961 . S
C1077 H1085 0.960 . S
C1078 C1076 1.381 . S
C1078 C1079 1.394 . S
C1078 H1086 0.930 . S
C1079 C1078 1.394 . S
C1079 C1080 1.383 . S
C1079 H1087 0.929 . S
C1080 C1079 1.383 . S
C1080 C1081 1.377 . S
C1081 H1065 0.930 . S
C1081 C1080 1.377 . S
C1081 C1082 1.379 . S
C1082 H1066 0.931 . S
C1082 C1076 1.383 . S
C1082 C1081 1.379 . S
H1083 C1077 0.959 . S
H1084 C1077 0.961 . S
H1085 C1077 0.960 . S
H1086 C1078 0.930 . S
H1087 C1079 0.929 . S
H1088 C1096 0.929 . S
H1089 C1098 0.930 . S
H1090 C1100 0.930 . S
H1091 C1103 0.929 . S
H1092 C1106 0.930 . S
H1093 C1108 0.960 . S
H1094 C1108 0.960 . S
H1095 C1108 0.960 . S
C1096 H1088 0.929 . S
C1096 C1097 1.377 . S
C1096 C1098 1.384 . S
C1097 C1096 1.377 . S
C1097 C1103 1.390 . S
C1098 H1089 0.930 . S
C1098 C1096 1.384 . S
C1098 C1099 1.372 . S
C1099 C1098 1.372 . S
C1099 C1100 1.400 . S
C1099 C1104 1.490 . S
C1100 H1090 0.930 . S
C1100 C1099 1.400 . S
C1100 C1103 1.386 . S
H1101 C1117 0.930 . S
H1102 C1118 0.931 . S
C1103 H1091 0.929 . S
C1103 C1097 1.390 . S
C1103 C1100 1.386 . S
C1104 C1099 1.490 . S
C1104 C1106 1.395 . S
C1104 C1107 1.403 . S
H1105 C1111 0.930 . S
C1106 H1092 0.930 . S
C1106 C1104 1.395 . S
C1106 C1109 1.403 1_545 S
C1107 C1104 1.403 . S
C1107 C1108 1.524 . S
C1107 C1111 1.400 1_545 S
C1108 H1093 0.960 . S
C1108 H1094 0.960 . S
C1108 H1095 0.960 . S
C1108 C1107 1.524 . S
C1109 C1106 1.403 1_565 S
C1109 C1110 1.392 . S
C1109 C1113 1.495 . S
C1110 C1109 1.392 . S
C1110 C1111 1.385 . S
C1110 C1112 1.478 . S
C1111 H1105 0.930 . S
C1111 C1107 1.400 1_565 S
C1111 C1110 1.385 . S
C1112 C1110 1.478 . S
C1112 C1114 1.381 . S
C1112 C1118 1.383 . S
C1113 C1109 1.495 . S
C1113 H1119 0.959 . S
C1113 H1120 0.961 . S
C1113 H1121 0.960 . S
C1114 C1112 1.381 . S
C1114 C1115 1.394 . S
C1114 H1122 0.930 . S
C1115 C1114 1.394 . S
C1115 C1116 1.383 . S
C1115 H1123 0.929 . S
C1116 C1115 1.383 . S
C1116 C1117 1.377 . S
C1117 H1101 0.930 . S
C1117 C1116 1.377 . S
C1117 C1118 1.379 . S
C1118 H1102 0.931 . S
C1118 C1112 1.383 . S
C1118 C1117 1.379 . S
H1119 C1113 0.959 . S
H1120 C1113 0.961 . S
H1121 C1113 0.960 . S
H1122 C1114 0.930 . S
H1123 C1115 0.929 . S
H1124 C1132 0.929 . S
H1125 C1134 0.930 . S
H1126 C1136 0.930 . S
H1127 C1139 0.929 . S
H1128 C1142 0.930 . S
H1129 C1144 0.960 . S
H1130 C1144 0.960 . S
H1131 C1144 0.960 . S
C1132 H1124 0.929 . S
C1132 C1133 1.377 . S
C1132 C1134 1.384 . S
C1133 C1132 1.377 . S
C1133 C1139 1.390 . S
C1134 H1125 0.930 . S
C1134 C1132 1.384 . S
C1134 C1135 1.372 . S
C1135 C1134 1.372 . S
C1135 C1136 1.400 . S
C1135 C1140 1.490 . S
C1136 H1126 0.930 . S
C1136 C1135 1.400 . S
C1136 C1139 1.386 . S
H1137 C1153 0.930 . S
H1138 C1154 0.931 . S
C1139 H1127 0.929 . S
C1139 C1133 1.390 . S
C1139 C1136 1.386 . S
C1140 C1135 1.490 . S
C1140 C1142 1.395 . S
C1140 C1143 1.403 . S
H1141 C1147 0.930 . S
C1142 H1128 0.930 . S
C1142 C1140 1.395 . S
C1142 C1145 1.403 1_655 S
C1143 C1140 1.403 . S
C1143 C1144 1.524 . S
C1143 C1147 1.400 1_655 S
C1144 H1129 0.960 . S
C1144 H1130 0.960 . S
C1144 H1131 0.960 . S
C1144 C1143 1.524 . S
C1145 C1142 1.403 1_455 S
C1145 C1146 1.392 . S
C1145 C1149 1.495 . S
C1146 C1145 1.392 . S
C1146 C1147 1.385 . S
C1146 C1148 1.478 . S
C1147 H1141 0.930 . S
C1147 C1143 1.400 1_455 S
C1147 C1146 1.385 . S
C1148 C1146 1.478 . S
C1148 C1150 1.381 . S
C1148 C1154 1.383 . S
C1149 C1145 1.495 . S
C1149 H1155 0.959 . S
C1149 H1156 0.961 . S
C1149 H1157 0.960 . S
C1150 C1148 1.381 . S
C1150 C1151 1.394 . S
C1150 H1158 0.930 . S
C1151 C1150 1.394 . S
C1151 C1152 1.383 . S
C1151 H1159 0.929 . S
C1152 C1151 1.383 . S
C1152 C1153 1.377 . S
C1153 H1137 0.930 . S
C1153 C1152 1.377 . S
C1153 C1154 1.379 . S
C1154 H1138 0.931 . S
C1154 C1148 1.383 . S
C1154 C1153 1.379 . S
H1155 C1149 0.959 . S
H1156 C1149 0.961 . S
H1157 C1149 0.960 . S
H1158 C1150 0.930 . S
H1159 C1151 0.929 . S
H1160 C1168 0.929 . S
H1161 C1170 0.930 . S
H1162 C1172 0.930 . S
H1163 C1175 0.929 . S
H1164 C1178 0.930 . S
H1165 C1180 0.960 . S
H1166 C1180 0.960 . S
H1167 C1180 0.960 . S
C1168 H1160 0.929 . S
C1168 C1169 1.377 . S
C1168 C1170 1.384 . S
C1169 C1168 1.377 . S
C1169 C1175 1.390 . S
C1170 H1161 0.930 . S
C1170 C1168 1.384 . S
C1170 C1171 1.372 . S
C1171 C1170 1.372 . S
C1171 C1172 1.400 . S
C1171 C1176 1.490 . S
C1172 H1162 0.930 . S
C1172 C1171 1.400 . S
C1172 C1175 1.386 . S
H1173 C1189 0.930 . S
H1174 C1190 0.931 . S
C1175 H1163 0.929 . S
C1175 C1169 1.390 . S
C1175 C1172 1.386 . S
C1176 C1171 1.490 . S
C1176 C1178 1.395 . S
C1176 C1179 1.403 . S
H1177 C1183 0.930 . S
C1178 H1164 0.930 . S
C1178 C1176 1.395 . S
C1178 C1181 1.403 1_545 S
C1179 C1176 1.403 . S
C1179 C1180 1.524 . S
C1179 C1183 1.400 1_545 S
C1180 H1165 0.960 . S
C1180 H1166 0.960 . S
C1180 H1167 0.960 . S
C1180 C1179 1.524 . S
C1181 C1178 1.403 1_565 S
C1181 C1182 1.392 . S
C1181 C1185 1.495 . S
C1182 C1181 1.392 . S
C1182 C1183 1.385 . S
C1182 C1184 1.478 . S
C1183 H1177 0.930 . S
C1183 C1179 1.400 1_565 S
C1183 C1182 1.385 . S
C1184 C1182 1.478 . S
C1184 C1186 1.381 . S
C1184 C1190 1.383 . S
C1185 C1181 1.495 . S
C1185 H1191 0.959 . S
C1185 H1192 0.961 . S
C1185 H1193 0.960 . S
C1186 C1184 1.381 . S
C1186 C1187 1.394 . S
C1186 H1194 0.930 . S
C1187 C1186 1.394 . S
C1187 C1188 1.383 . S
C1187 H1195 0.929 . S
C1188 C1187 1.383 . S
C1188 C1189 1.377 . S
C1189 H1173 0.930 . S
C1189 C1188 1.377 . S
C1189 C1190 1.379 . S
C1190 H1174 0.931 . S
C1190 C1184 1.383 . S
C1190 C1189 1.379 . S
H1191 C1185 0.959 . S
H1192 C1185 0.961 . S
H1193 C1185 0.960 . S
H1194 C1186 0.930 . S
H1195 C1187 0.929 . S
H1196 C1204 0.929 . S
H1197 C1206 0.930 . S
H1198 C1208 0.930 . S
H1199 C1211 0.929 . S
H1200 C1214 0.930 . S
H1201 C1216 0.960 . S
H1202 C1216 0.960 . S
H1203 C1216 0.960 . S
C1204 H1196 0.929 . S
C1204 C1205 1.377 . S
C1204 C1206 1.384 . S
C1205 C1204 1.377 . S
C1205 C1211 1.390 . S
C1206 H1197 0.930 . S
C1206 C1204 1.384 . S
C1206 C1207 1.372 . S
C1207 C1206 1.372 . S
C1207 C1208 1.400 . S
C1207 C1212 1.490 . S
C1208 H1198 0.930 . S
C1208 C1207 1.400 . S
C1208 C1211 1.386 . S
H1209 C1225 0.930 . S
H1210 C1226 0.931 . S
C1211 H1199 0.929 . S
C1211 C1205 1.390 . S
C1211 C1208 1.386 . S
C1212 C1207 1.490 . S
C1212 C1214 1.395 . S
C1212 C1215 1.403 . S
H1213 C1219 0.930 . S
C1214 H1200 0.930 . S
C1214 C1212 1.395 . S
C1214 C1217 1.403 1_455 S
C1215 C1212 1.403 . S
C1215 C1216 1.524 . S
C1215 C1219 1.400 1_455 S
C1216 H1201 0.960 . S
C1216 H1202 0.960 . S
C1216 H1203 0.960 . S
C1216 C1215 1.524 . S
C1217 C1214 1.403 1_655 S
C1217 C1218 1.392 . S
C1217 C1221 1.495 . S
C1218 C1217 1.392 . S
C1218 C1219 1.385 . S
C1218 C1220 1.478 . S
C1219 H1213 0.930 . S
C1219 C1215 1.400 1_655 S
C1219 C1218 1.385 . S
C1220 C1218 1.478 . S
C1220 C1222 1.381 . S
C1220 C1226 1.383 . S
C1221 C1217 1.495 . S
C1221 H1227 0.959 . S
C1221 H1228 0.961 . S
C1221 H1229 0.960 . S
C1222 C1220 1.381 . S
C1222 C1223 1.394 . S
C1222 H1230 0.930 . S
C1223 C1222 1.394 . S
C1223 C1224 1.383 . S
C1223 H1231 0.929 . S
C1224 C1223 1.383 . S
C1224 C1225 1.377 . S
C1225 H1209 0.930 . S
C1225 C1224 1.377 . S
C1225 C1226 1.379 . S
C1226 H1210 0.931 . S
C1226 C1220 1.383 . S
C1226 C1225 1.379 . S
H1227 C1221 0.959 . S
H1228 C1221 0.961 . S
H1229 C1221 0.960 . S
H1230 C1222 0.930 . S
H1231 C1223 0.929 . S
H1232 C1240 0.929 . S
H1233 C1242 0.930 . S
H1234 C1244 0.930 . S
H1235 C1247 0.929 . S
H1236 C1250 0.930 . S
H1237 C1252 0.960 1_565 S
H1238 C1252 0.960 . S
H1239 C1252 0.960 . S
C1240 H1232 0.929 . S
C1240 C1241 1.377 . S
C1240 C1242 1.384 . S
C1241 C1240 1.377 . S
C1241 C1247 1.390 . S
C1242 H1233 0.930 . S
C1242 C1240 1.384 . S
C1242 C1243 1.372 . S
C1243 C1242 1.372 . S
C1243 C1244 1.400 . S
C1243 C1248 1.490 . S
C1244 H1234 0.930 . S
C1244 C1243 1.400 . S
C1244 C1247 1.386 . S
H1245 C1261 0.930 . S
H1246 C1262 0.931 . S
C1247 H1235 0.929 . S
C1247 C1241 1.390 . S
C1247 C1244 1.386 . S
C1248 C1243 1.490 . S
C1248 C1250 1.395 . S
C1248 C1251 1.403 . S
H1249 C1255 0.930 . S
C1250 H1236 0.930 . S
C1250 C1248 1.395 . S
C1250 C1253 1.403 1_545 S
C1251 C1248 1.403 . S
C1251 C1252 1.524 . S
C1251 C1255 1.400 1_545 S
C1252 H1237 0.960 1_545 S
C1252 H1238 0.960 . S
C1252 H1239 0.960 . S
C1252 C1251 1.524 . S
C1253 C1250 1.403 1_565 S
C1253 C1254 1.392 . S
C1253 C1257 1.495 . S
C1254 C1253 1.392 . S
C1254 C1255 1.385 . S
C1254 C1256 1.478 . S
C1255 H1249 0.930 . S
C1255 C1251 1.400 1_565 S
C1255 C1254 1.385 . S
C1256 C1254 1.478 . S
C1256 C1258 1.381 . S
C1256 C1262 1.383 . S
C1257 C1253 1.495 . S
C1257 H1263 0.959 1_565 S
C1257 H1264 0.961 . S
C1257 H1265 0.960 . S
C1258 C1256 1.381 . S
C1258 C1259 1.394 . S
C1258 H1266 0.930 . S
C1259 C1258 1.394 . S
C1259 C1260 1.383 . S
C1259 H1267 0.929 . S
C1260 C1259 1.383 . S
C1260 C1261 1.377 . S
C1261 H1245 0.930 . S
C1261 C1260 1.377 . S
C1261 C1262 1.379 . S
C1262 H1246 0.931 . S
C1262 C1256 1.383 . S
C1262 C1261 1.379 . S
H1263 C1257 0.959 1_545 S
H1264 C1257 0.961 . S
H1265 C1257 0.960 . S
H1266 C1258 0.930 . S
H1267 C1259 0.929 . S
H1268 C1276 0.929 . S
H1269 C1278 0.930 . S
H1270 C1280 0.930 . S
H1271 C1283 0.929 . S
H1272 C1286 0.930 . S
H1273 C1288 0.960 . S
H1274 C1288 0.960 . S
H1275 C1288 0.960 . S
C1276 H1268 0.929 . S
C1276 C1277 1.377 . S
C1276 C1278 1.384 . S
C1277 C1276 1.377 . S
C1277 C1283 1.390 . S
C1278 H1269 0.930 . S
C1278 C1276 1.384 . S
C1278 C1279 1.372 . S
C1279 C1278 1.372 . S
C1279 C1280 1.400 . S
C1279 C1284 1.490 . S
C1280 H1270 0.930 . S
C1280 C1279 1.400 . S
C1280 C1283 1.386 . S
H1281 C1297 0.930 . S
H1282 C1298 0.931 . S
C1283 H1271 0.929 . S
C1283 C1277 1.390 . S
C1283 C1280 1.386 . S
C1284 C1279 1.490 . S
C1284 C1286 1.395 . S
C1284 C1287 1.403 . S
H1285 C1291 0.930 . S
C1286 H1272 0.930 . S
C1286 C1284 1.395 . S
C1286 C1289 1.403 1_655 S
C1287 C1284 1.403 . S
C1287 C1288 1.524 . S
C1287 C1291 1.400 1_655 S
C1288 H1273 0.960 . S
C1288 H1274 0.960 . S
C1288 H1275 0.960 . S
C1288 C1287 1.524 . S
C1289 C1286 1.403 1_455 S
C1289 C1290 1.392 . S
C1289 C1293 1.495 . S
C1290 C1289 1.392 . S
C1290 C1291 1.385 . S
C1290 C1292 1.478 . S
C1291 H1285 0.930 . S
C1291 C1287 1.400 1_455 S
C1291 C1290 1.385 . S
C1292 C1290 1.478 . S
C1292 C1294 1.381 . S
C1292 C1298 1.383 . S
C1293 C1289 1.495 . S
C1293 H1299 0.959 . S
C1293 H1300 0.961 . S
C1293 H1301 0.960 . S
C1294 C1292 1.381 . S
C1294 C1295 1.394 . S
C1294 H1302 0.930 . S
C1295 C1294 1.394 . S
C1295 C1296 1.383 . S
C1295 H1303 0.929 . S
C1296 C1295 1.383 . S
C1296 C1297 1.377 . S
C1297 H1281 0.930 . S
C1297 C1296 1.377 . S
C1297 C1298 1.379 . S
C1298 H1282 0.931 . S
C1298 C1292 1.383 . S
C1298 C1297 1.379 . S
H1299 C1293 0.959 . S
H1300 C1293 0.961 . S
H1301 C1293 0.960 . S
H1302 C1294 0.930 . S
H1303 C1295 0.929 . S
H1304 C1312 0.929 . S
H1305 C1314 0.930 . S
H1306 C1316 0.930 . S
H1307 C1319 0.929 . S
H1308 C1322 0.930 . S
H1309 C1324 0.960 . S
H1310 C1324 0.960 . S
H1311 C1324 0.960 . S
C1312 H1304 0.929 . S
C1312 C1313 1.377 . S
C1312 C1314 1.384 . S
C1313 C1312 1.377 . S
C1313 C1319 1.390 . S
C1314 H1305 0.930 . S
C1314 C1312 1.384 . S
C1314 C1315 1.372 . S
C1315 C1314 1.372 . S
C1315 C1316 1.400 . S
C1315 C1320 1.490 . S
C1316 H1306 0.930 . S
C1316 C1315 1.400 . S
C1316 C1319 1.386 . S
H1317 C1333 0.930 . S
H1318 C1334 0.931 . S
C1319 H1307 0.929 . S
C1319 C1313 1.390 . S
C1319 C1316 1.386 . S
C1320 C1315 1.490 . S
C1320 C1322 1.395 . S
C1320 C1323 1.403 . S
H1321 C1327 0.930 . S
C1322 H1308 0.930 . S
C1322 C1320 1.395 . S
C1322 C1325 1.403 1_565 S
C1323 C1320 1.403 . S
C1323 C1324 1.524 . S
C1323 C1327 1.400 1_565 S
C1324 H1309 0.960 . S
C1324 H1310 0.960 . S
C1324 H1311 0.960 . S
C1324 C1323 1.524 . S
C1325 C1322 1.403 1_545 S
C1325 C1326 1.392 . S
C1325 C1329 1.495 . S
C1326 C1325 1.392 . S
C1326 C1327 1.385 . S
C1326 C1328 1.478 . S
C1327 H1321 0.930 . S
C1327 C1323 1.400 1_545 S
C1327 C1326 1.385 . S
C1328 C1326 1.478 . S
C1328 C1330 1.381 . S
C1328 C1334 1.383 . S
C1329 C1325 1.495 . S
C1329 H1335 0.959 . S
C1329 H1336 0.961 . S
C1329 H1337 0.960 . S
C1330 C1328 1.381 . S
C1330 C1331 1.394 . S
C1330 H1338 0.930 . S
C1331 C1330 1.394 . S
C1331 C1332 1.383 . S
C1331 H1339 0.929 . S
C1332 C1331 1.383 . S
C1332 C1333 1.377 . S
C1333 H1317 0.930 . S
C1333 C1332 1.377 . S
C1333 C1334 1.379 . S
C1334 H1318 0.931 . S
C1334 C1328 1.383 . S
C1334 C1333 1.379 . S
H1335 C1329 0.959 . S
H1336 C1329 0.961 . S
H1337 C1329 0.960 . S
H1338 C1330 0.930 . S
H1339 C1331 0.929 . S
H1340 C1348 0.929 . S
H1341 C1350 0.930 . S
H1342 C1352 0.930 . S
H1343 C1355 0.929 . S
H1344 C1358 0.930 . S
H1345 C1360 0.960 1_655 S
H1346 C1360 0.960 . S
H1347 C1360 0.960 . S
C1348 H1340 0.929 . S
C1348 C1349 1.377 . S
C1348 C1350 1.384 . S
C1349 C1348 1.377 . S
C1349 C1355 1.390 . S
C1350 H1341 0.930 . S
C1350 C1348 1.384 . S
C1350 C1351 1.372 . S
C1351 C1350 1.372 . S
C1351 C1352 1.400 . S
C1351 C1356 1.490 . S
C1352 H1342 0.930 . S
C1352 C1351 1.400 . S
C1352 C1355 1.386 . S
H1353 C1369 0.930 . S
H1354 C1370 0.931 . S
C1355 H1343 0.929 . S
C1355 C1349 1.390 . S
C1355 C1352 1.386 . S
C1356 C1351 1.490 . S
C1356 C1358 1.395 . S
C1356 C1359 1.403 . S
H1357 C1363 0.930 . S
C1358 H1344 0.930 . S
C1358 C1356 1.395 . S
C1358 C1361 1.403 1_455 S
C1359 C1356 1.403 . S
C1359 C1360 1.524 . S
C1359 C1363 1.400 1_455 S
C1360 H1345 0.960 1_455 S
C1360 H1346 0.960 . S
C1360 H1347 0.960 . S
C1360 C1359 1.524 . S
C1361 C1358 1.403 1_655 S
C1361 C1362 1.392 . S
C1361 C1365 1.495 . S
C1362 C1361 1.392 . S
C1362 C1363 1.385 . S
C1362 C1364 1.478 . S
C1363 H1357 0.930 . S
C1363 C1359 1.400 1_655 S
C1363 C1362 1.385 . S
C1364 C1362 1.478 . S
C1364 C1366 1.381 . S
C1364 C1370 1.383 . S
C1365 C1361 1.495 . S
C1365 H1371 0.959 1_655 S
C1365 H1372 0.961 . S
C1365 H1373 0.960 . S
C1366 C1364 1.381 . S
C1366 C1367 1.394 . S
C1366 H1374 0.930 . S
C1367 C1366 1.394 . S
C1367 C1368 1.383 . S
C1367 H1375 0.929 . S
C1368 C1367 1.383 . S
C1368 C1369 1.377 . S
C1369 H1353 0.930 . S
C1369 C1368 1.377 . S
C1369 C1370 1.379 . S
C1370 H1354 0.931 . S
C1370 C1364 1.383 . S
C1370 C1369 1.379 . S
H1371 C1365 0.959 1_455 S
H1372 C1365 0.961 . S
H1373 C1365 0.960 . S
H1374 C1366 0.930 . S
H1375 C1367 0.929 . S
C233 C81 1.106 . S
C252 C11 1.131 . S
C269 C95 1.108 . S
C288 C25 1.126 . S
C305 C39 1.114 . S
C324 C109 1.096 . S
C341 C53 1.107 . S
C360 C67 1.129 . S
C377 C193 1.109 . S
C396 C123 1.123 . S
C413 C207 1.107 . S
C432 C137 1.117 . S
C449 C151 1.115 . S
C468 C221 1.089 . S
C485 C165 1.115 . S
C504 C179 1.087 . S
C521 C152 1.517 . S
C540 C12 1.523 . S
C557 C166 1.517 . S
C576 C26 1.506 . S
C593 C124 1.518 . S
C612 C40 1.506 . S
C629 C54 1.519 . S
C648 C138 1.523 . S
C665 C208 1.519 . S
C684 C68 1.520 . S
C701 C222 1.520 . S
C720 C82 1.520 . S
C737 C96 1.517 . S
C756 C180 1.520 . S
C773 C194 1.516 . S
C792 C110 1.510 . S
C809 C61 1.020 . S
C828 C5 1.086 . S
C845 C19 1.043 . S
C864 C75 0.985 . S
C881 C33 1.038 . S
C900 C89 0.997 . S
C917 C103 1.045 . S
C936 C47 0.969 . S
C953 C116 1.572 . S
C972 C172 1.560 . S
C989 C186 1.574 . S
C1008 C130 1.569 . S
C1025 C144 1.572 . S
C1044 C200 1.560 . S
C1061 C214 1.571 . S
C1080 C158 1.564 . S
C1097 C159 1.024 . S
C1116 C187 1.063 . S
C1133 C117 1.022 . S
C1152 C201 1.083 . S
C1169 C215 1.042 . S
C1188 C131 0.981 . S
C1205 C145 1.019 . S
C1224 C173 1.092 . S
C1241 C74 1.572 . S
C1260 C46 1.574 . S
C1277 C88 1.575 . S
C1296 C4 1.572 . S
C1313 C102 1.574 . S
C1332 C18 1.567 . S
C1349 C60 1.571 . S
C1368 C32 1.562 . S
