# Generated by pormake.
# Topology uoa, (4)-cn, num edge types: 1
# Building blocks:
#     Node 0, Type 0, BuildingBlock: GALJAG_clean_sbu_0, # of connection points: 4
#     Node 1, Type 0, BuildingBlock: GALJAG_clean_sbu_0, # of connection points: 4
#     Node 2, Type 0, BuildingBlock: GALJAG_clean_sbu_0, # of connection points: 4
#     Node 3, Type 0, BuildingBlock: GALJAG_clean_sbu_0, # of connection points: 4
#     Node 4, Type 0, BuildingBlock: GALJAG_clean_sbu_0, # of connection points: 4
#     Node 5, Type 0, BuildingBlock: GALJAG_clean_sbu_0, # of connection points: 4
#     Node 6, Type 0, BuildingBlock: GALJAG_clean_sbu_0, # of connection points: 4
#     Node 7, Type 0, BuildingBlock: GALJAG_clean_sbu_0, # of connection points: 4
#     Node 8, Type 0, BuildingBlock: GALJAG_clean_sbu_0, # of connection points: 4
#     Node 9, Type 0, BuildingBlock: GALJAG_clean_sbu_0, # of connection points: 4
#     Node 10, Type 0, BuildingBlock: GALJAG_clean_sbu_0, # of connection points: 4
#     Node 11, Type 0, BuildingBlock: GALJAG_clean_sbu_0, # of connection points: 4
#     Node 12, Type 0, BuildingBlock: GALJAG_clean_sbu_0, # of connection points: 4
#     Node 13, Type 0, BuildingBlock: GALJAG_clean_sbu_0, # of connection points: 4
#     Node 14, Type 0, BuildingBlock: GALJAG_clean_sbu_0, # of connection points: 4
#     Node 15, Type 0, BuildingBlock: GALJAG_clean_sbu_0, # of connection points: 4
#     Node 16, Type 0, BuildingBlock: GALJAG_clean_sbu_0, # of connection points: 4
#     Node 17, Type 0, BuildingBlock: GALJAG_clean_sbu_0, # of connection points: 4
#     Node 18, Type 0, BuildingBlock: GALJAG_clean_sbu_0, # of connection points: 4
#     Node 19, Type 0, BuildingBlock: GALJAG_clean_sbu_0, # of connection points: 4
#     Node 20, Type 0, BuildingBlock: GALJAG_clean_sbu_0, # of connection points: 4
#     Node 21, Type 0, BuildingBlock: GALJAG_clean_sbu_0, # of connection points: 4
#     Node 22, Type 0, BuildingBlock: GALJAG_clean_sbu_0, # of connection points: 4
#     Node 23, Type 0, BuildingBlock: GALJAG_clean_sbu_0, # of connection points: 4
#     Node 24, Type 0, BuildingBlock: GALJAG_clean_sbu_0, # of connection points: 4
#     Node 25, Type 0, BuildingBlock: GALJAG_clean_sbu_0, # of connection points: 4
#     Node 26, Type 0, BuildingBlock: GALJAG_clean_sbu_0, # of connection points: 4
#     Node 27, Type 0, BuildingBlock: GALJAG_clean_sbu_0, # of connection points: 4
#     Node 28, Type 0, BuildingBlock: GALJAG_clean_sbu_0, # of connection points: 4
#     Node 29, Type 0, BuildingBlock: GALJAG_clean_sbu_0, # of connection points: 4
#     Node 30, Type 0, BuildingBlock: GALJAG_clean_sbu_0, # of connection points: 4
#     Node 31, Type 0, BuildingBlock: GALJAG_clean_sbu_0, # of connection points: 4
#     Edge 32, Type (0, 0), BuildingBlock: AJUNOK_clean_linker_0, # of connection points: 2
#     Edge 33, Type (0, 0), BuildingBlock: AJUNOK_clean_linker_0, # of connection points: 2
#     Edge 34, Type (0, 0), BuildingBlock: AJUNOK_clean_linker_0, # of connection points: 2
#     Edge 35, Type (0, 0), BuildingBlock: AJUNOK_clean_linker_0, # of connection points: 2
#     Edge 36, Type (0, 0), BuildingBlock: AJUNOK_clean_linker_0, # of connection points: 2
#     Edge 37, Type (0, 0), BuildingBlock: AJUNOK_clean_linker_0, # of connection points: 2
#     Edge 38, Type (0, 0), BuildingBlock: AJUNOK_clean_linker_0, # of connection points: 2
#     Edge 39, Type (0, 0), BuildingBlock: AJUNOK_clean_linker_0, # of connection points: 2
#     Edge 40, Type (0, 0), BuildingBlock: AJUNOK_clean_linker_0, # of connection points: 2
#     Edge 41, Type (0, 0), BuildingBlock: AJUNOK_clean_linker_0, # of connection points: 2
#     Edge 42, Type (0, 0), BuildingBlock: AJUNOK_clean_linker_0, # of connection points: 2
#     Edge 43, Type (0, 0), BuildingBlock: AJUNOK_clean_linker_0, # of connection points: 2
#     Edge 44, Type (0, 0), BuildingBlock: AJUNOK_clean_linker_0, # of connection points: 2
#     Edge 45, Type (0, 0), BuildingBlock: AJUNOK_clean_linker_0, # of connection points: 2
#     Edge 46, Type (0, 0), BuildingBlock: AJUNOK_clean_linker_0, # of connection points: 2
#     Edge 47, Type (0, 0), BuildingBlock: AJUNOK_clean_linker_0, # of connection points: 2
#     Edge 48, Type (0, 0), BuildingBlock: AJUNOK_clean_linker_0, # of connection points: 2
#     Edge 49, Type (0, 0), BuildingBlock: AJUNOK_clean_linker_0, # of connection points: 2
#     Edge 50, Type (0, 0), BuildingBlock: AJUNOK_clean_linker_0, # of connection points: 2
#     Edge 51, Type (0, 0), BuildingBlock: AJUNOK_clean_linker_0, # of connection points: 2
#     Edge 52, Type (0, 0), BuildingBlock: AJUNOK_clean_linker_0, # of connection points: 2
#     Edge 53, Type (0, 0), BuildingBlock: AJUNOK_clean_linker_0, # of connection points: 2
#     Edge 54, Type (0, 0), BuildingBlock: AJUNOK_clean_linker_0, # of connection points: 2
#     Edge 55, Type (0, 0), BuildingBlock: AJUNOK_clean_linker_0, # of connection points: 2
#     Edge 56, Type (0, 0), BuildingBlock: AJUNOK_clean_linker_0, # of connection points: 2
#     Edge 57, Type (0, 0), BuildingBlock: AJUNOK_clean_linker_0, # of connection points: 2
#     Edge 58, Type (0, 0), BuildingBlock: AJUNOK_clean_linker_0, # of connection points: 2
#     Edge 59, Type (0, 0), BuildingBlock: AJUNOK_clean_linker_0, # of connection points: 2
#     Edge 60, Type (0, 0), BuildingBlock: AJUNOK_clean_linker_0, # of connection points: 2
#     Edge 61, Type (0, 0), BuildingBlock: AJUNOK_clean_linker_0, # of connection points: 2
#     Edge 62, Type (0, 0), BuildingBlock: AJUNOK_clean_linker_0, # of connection points: 2
#     Edge 63, Type (0, 0), BuildingBlock: AJUNOK_clean_linker_0, # of connection points: 2
#     Edge 64, Type (0, 0), BuildingBlock: AJUNOK_clean_linker_0, # of connection points: 2
#     Edge 65, Type (0, 0), BuildingBlock: AJUNOK_clean_linker_0, # of connection points: 2
#     Edge 66, Type (0, 0), BuildingBlock: AJUNOK_clean_linker_0, # of connection points: 2
#     Edge 67, Type (0, 0), BuildingBlock: AJUNOK_clean_linker_0, # of connection points: 2
#     Edge 68, Type (0, 0), BuildingBlock: AJUNOK_clean_linker_0, # of connection points: 2
#     Edge 69, Type (0, 0), BuildingBlock: AJUNOK_clean_linker_0, # of connection points: 2
#     Edge 70, Type (0, 0), BuildingBlock: AJUNOK_clean_linker_0, # of connection points: 2
#     Edge 71, Type (0, 0), BuildingBlock: AJUNOK_clean_linker_0, # of connection points: 2
#     Edge 72, Type (0, 0), BuildingBlock: AJUNOK_clean_linker_0, # of connection points: 2
#     Edge 73, Type (0, 0), BuildingBlock: AJUNOK_clean_linker_0, # of connection points: 2
#     Edge 74, Type (0, 0), BuildingBlock: AJUNOK_clean_linker_0, # of connection points: 2
#     Edge 75, Type (0, 0), BuildingBlock: AJUNOK_clean_linker_0, # of connection points: 2
#     Edge 76, Type (0, 0), BuildingBlock: AJUNOK_clean_linker_0, # of connection points: 2
#     Edge 77, Type (0, 0), BuildingBlock: AJUNOK_clean_linker_0, # of connection points: 2
#     Edge 78, Type (0, 0), BuildingBlock: AJUNOK_clean_linker_0, # of connection points: 2
#     Edge 79, Type (0, 0), BuildingBlock: AJUNOK_clean_linker_0, # of connection points: 2
#     Edge 80, Type (0, 0), BuildingBlock: AJUNOK_clean_linker_0, # of connection points: 2
#     Edge 81, Type (0, 0), BuildingBlock: AJUNOK_clean_linker_0, # of connection points: 2
#     Edge 82, Type (0, 0), BuildingBlock: AJUNOK_clean_linker_0, # of connection points: 2
#     Edge 83, Type (0, 0), BuildingBlock: AJUNOK_clean_linker_0, # of connection points: 2
#     Edge 84, Type (0, 0), BuildingBlock: AJUNOK_clean_linker_0, # of connection points: 2
#     Edge 85, Type (0, 0), BuildingBlock: AJUNOK_clean_linker_0, # of connection points: 2
#     Edge 86, Type (0, 0), BuildingBlock: AJUNOK_clean_linker_0, # of connection points: 2
#     Edge 87, Type (0, 0), BuildingBlock: AJUNOK_clean_linker_0, # of connection points: 2
#     Edge 88, Type (0, 0), BuildingBlock: AJUNOK_clean_linker_0, # of connection points: 2
#     Edge 89, Type (0, 0), BuildingBlock: AJUNOK_clean_linker_0, # of connection points: 2
#     Edge 90, Type (0, 0), BuildingBlock: AJUNOK_clean_linker_0, # of connection points: 2
#     Edge 91, Type (0, 0), BuildingBlock: AJUNOK_clean_linker_0, # of connection points: 2
#     Edge 92, Type (0, 0), BuildingBlock: AJUNOK_clean_linker_0, # of connection points: 2
#     Edge 93, Type (0, 0), BuildingBlock: AJUNOK_clean_linker_0, # of connection points: 2
#     Edge 94, Type (0, 0), BuildingBlock: AJUNOK_clean_linker_0, # of connection points: 2
#     Edge 95, Type (0, 0), BuildingBlock: AJUNOK_clean_linker_0, # of connection points: 2
# Relax obj value: 0.050
# Max RMSD: 0.160
# Mean RMSD: 0.160
data_MOF--net-uoa--node1-GALJAG_clean_sbu_0--edge1-AJUNOK_clean_linker_0
_symmetry_space_group_name_H-M    P1
_symmetry_Int_Tables_number       1
_symmetry_cell_setting            triclinic
loop_
_symmetry_equiv_pos_as_xyz
'x, y, z'
_cell_length_a     55.659463
_cell_length_b     55.673835
_cell_length_c     21.039976
_cell_angle_alpha  90.005122
_cell_angle_beta   89.991088
_cell_angle_gamma 89.813465
loop_
_atom_site_label
_atom_site_type_symbol
_atom_site_fract_x
_atom_site_fract_y
_atom_site_fract_z
_atom_type_partial_charge
In0 In 0.02173 0.09065 0.03361 0.0
O1 O 0.06115 0.09281 0.06251 0.0
O2 O 0.04185 0.125 0.03946 0.0
C3 C 0.00815 0.04484 0.0211 0.0
C4 C 0.00481 0.1017 0.14861 0.0
C5 C 0.01443 0.10346 0.91278 0.0
O6 O 0.03013 0.05077 0.02199 0.0
O7 O 0.99351 0.06197 0.02806 0.0
O8 O -0.00045 0.10864 0.9564 0.0
O9 O 0.03307 0.09241 0.93083 0.0
C10 C 0.0611 0.11558 0.05956 0.0
O11 O 0.99426 0.10918 0.09891 0.0
O12 O 0.02259 0.08804 0.13947 0.0
In13 In 0.15297 0.76848 0.28662 0.0
O14 O 0.13478 0.74038 0.35053 0.0
O15 O 0.15181 0.77082 0.39277 0.0
C16 C 0.14331 0.75832 0.1647 0.0
C17 C 0.12601 0.80763 0.30286 0.0
C18 C 0.19999 0.75764 0.28522 0.0
O19 O 0.13734 0.74441 0.20966 0.0
O20 O 0.15357 0.77747 0.18179 0.0
O21 O 0.19252 0.77915 0.28298 0.0
O22 O 0.18372 0.74202 0.28932 0.0
C23 C 0.13963 0.75201 0.40072 0.0
O24 O 0.14865 0.80836 0.30946 0.0
O25 O 0.11771 0.78765 0.28493 0.0
In26 In 0.46696 0.90182 0.53385 0.0
O27 O 0.49445 0.88587 0.6036 0.0
O28 O 0.46744 0.91014 0.63783 0.0
C29 C 0.474 0.88525 0.41593 0.0
C30 C 0.42834 0.87802 0.57083 0.0
C31 C 0.48015 0.94705 0.51095 0.0
O32 O 0.48906 0.88167 0.46016 0.0
O33 O 0.45508 0.89619 0.43238 0.0
O34 O 0.45825 0.94134 0.51726 0.0
O35 O 0.49493 0.93001 0.5175 0.0
C36 C 0.48473 0.89627 0.65081 0.0
O37 O 0.42698 0.90019 0.55724 0.0
O38 O 0.44842 0.86807 0.56065 0.0
In39 In 0.34195 0.21943 0.78403 0.0
O40 O 0.3583 0.2471 0.85229 0.0
O41 O 0.33885 0.2173 0.8902 0.0
C42 C 0.35499 0.22883 0.66399 0.0
C43 C 0.36807 0.18004 0.80484 0.0
C44 C 0.29577 0.23242 0.77224 0.0
O45 O 0.36024 0.2428 0.70951 0.0
O46 O 0.34367 0.21011 0.67968 0.0
O47 O 0.30212 0.21052 0.77253 0.0
O48 O 0.31269 0.24722 0.77878 0.0
C49 C 0.35086 0.23603 0.90115 0.0
O50 O 0.34529 0.17939 0.80676 0.0
O51 O 0.37698 0.20009 0.78944 0.0
In52 In 0.02263 0.90013 0.45752 0.0
O53 O 0.06236 0.89474 0.43409 0.0
O54 O 0.03881 0.86434 0.43709 0.0
C55 C 0.01286 0.9469 0.47254 0.0
C56 C 0.00524 0.89358 0.34063 0.0
C57 C 0.01324 0.88623 0.57686 0.0
O58 O 0.03427 0.93906 0.47107 0.0
O59 O -0.00316 0.93114 0.46563 0.0
O60 O -0.0017 0.88336 0.53205 0.0
O61 O 0.03311 0.89525 0.56057 0.0
C62 C 0.05942 0.87245 0.42417 0.0
O63 O 0.99441 0.88512 0.38877 0.0
O64 O 0.02351 0.90617 0.35251 0.0
In65 In 0.33838 0.77604 0.71817 0.0
O66 O 0.35904 0.74851 0.65693 0.0
O67 O 0.34048 0.77779 0.61251 0.0
C68 C 0.34477 0.77139 0.84346 0.0
C69 C 0.3617 0.81698 0.70029 0.0
C70 C 0.29336 0.75991 0.71626 0.0
O71 O 0.35691 0.75894 0.80423 0.0
O72 O 0.33018 0.78614 0.81899 0.0
O73 O 0.29819 0.78213 0.71385 0.0
O74 O 0.31136 0.74604 0.71799 0.0
C75 C 0.35388 0.75966 0.606 0.0
O76 O 0.33927 0.81555 0.69039 0.0
O77 O 0.37142 0.79831 0.72308 0.0
In78 In 0.4733 0.09326 0.97454 0.0
O79 O 0.49917 0.11264 0.90702 0.0
O80 O 0.48295 0.07974 0.87715 0.0
C81 C 0.47901 0.10968 0.09377 0.0
C82 C 0.4354 0.1166 0.92734 0.0
C83 C 0.48496 0.04759 0.99938 0.0
O84 O 0.49489 0.11231 0.05121 0.0
O85 O 0.45993 0.0997 0.07505 0.0
O86 O 0.46343 0.05393 0.98825 0.0
O87 O 0.50017 0.06438 0.99817 0.0
C88 C 0.49633 0.09721 0.86338 0.0
O89 O 0.4337 0.09469 0.94321 0.0
O90 O 0.45528 0.12638 0.9395 0.0
In91 In 0.14844 0.21891 0.22762 0.0
O92 O 0.14501 0.17896 0.20511 0.0
O93 O 0.11357 0.20133 0.20588 0.0
C94 C 0.19479 0.22987 0.24318 0.0
C95 C 0.14175 0.23633 0.11067 0.0
C96 C 0.13381 0.22782 0.34675 0.0
O97 O 0.18764 0.2083 0.2413 0.0
O98 O 0.17853 0.24552 0.23652 0.0
O99 O 0.12977 0.24229 0.30147 0.0
O100 O 0.14426 0.20856 0.33088 0.0
C101 C 0.12267 0.18096 0.19438 0.0
O102 O 0.13308 0.24706 0.15876 0.0
O103 O 0.15449 0.21809 0.12256 0.0
In104 In 0.96791 0.90018 0.95684 0.0
O105 O -0.00403 0.88382 0.8894 0.0
O106 O 0.96665 0.90399 0.85085 0.0
C107 C 0.9782 0.88768 0.07668 0.0
C108 C 0.92945 0.87337 0.9333 0.0
C109 C 0.97842 0.94674 0.9709 0.0
O110 O 0.99224 0.88297 0.03086 0.0
O111 O 0.9587 0.89776 0.06119 0.0
O112 O 0.95691 0.93933 0.97046 0.0
O113 O 0.99416 0.9307 0.96251 0.0
C114 C 0.98521 0.89155 0.8403 0.0
O115 O 0.92816 0.89612 0.93272 0.0
O116 O 0.94958 0.86479 0.94963 0.0
In117 In 0.83967 0.21694 0.72083 0.0
O118 O 0.84387 0.17716 0.69621 0.0
O119 O 0.87508 0.19831 0.71567 0.0
C120 C 0.79318 0.22816 0.73638 0.0
C121 C 0.8482 0.23307 0.60349 0.0
C122 C 0.85362 0.22713 0.83945 0.0
O123 O 0.80047 0.20656 0.73655 0.0
O124 O 0.80929 0.24363 0.72686 0.0
O125 O 0.85821 0.24094 0.79311 0.0
O126 O 0.84259 0.20808 0.8251 0.0
C127 C 0.86662 0.17824 0.69902 0.0
O128 O 0.85518 0.24476 0.65178 0.0
O129 O 0.8363 0.21434 0.61511 0.0
In130 In 0.52285 0.09165 0.47046 0.0
O131 O 0.49357 0.10948 0.4085 0.0
O132 O 0.52443 0.09361 0.36461 0.0
C133 C 0.51772 0.09886 0.59553 0.0
C134 C 0.56281 0.11675 0.45351 0.0
C135 C 0.51019 0.04549 0.47032 0.0
O136 O 0.50474 0.11003 0.55552 0.0
O137 O 0.533 0.08461 0.57192 0.0
O138 O 0.53193 0.05202 0.46662 0.0
O139 O 0.49499 0.06239 0.47265 0.0
C140 C 0.50499 0.10496 0.35755 0.0
O141 O 0.56241 0.09425 0.44419 0.0
O142 O 0.54346 0.12585 0.47389 0.0
In143 In 0.63992 0.76052 0.22548 0.0
O144 O 0.62355 0.73249 0.15718 0.0
O145 O 0.6438 0.76186 0.11971 0.0
C146 C 0.62637 0.75566 0.34788 0.0
C147 C 0.61503 0.79978 0.1949 0.0
C148 C 0.68621 0.74781 0.23783 0.0
O149 O 0.62018 0.74055 0.30575 0.0
O150 O 0.63884 0.77292 0.32741 0.0
O151 O 0.67959 0.76958 0.23445 0.0
O152 O 0.6694 0.73267 0.23457 0.0
C153 C 0.63128 0.74352 0.1084 0.0
O154 O 0.63777 0.80021 0.19882 0.0
O155 O 0.60535 0.78014 0.21078 0.0
In156 In 0.97186 0.09223 0.5313 0.0
O157 O 0.93199 0.09479 0.55671 0.0
O158 O 0.95346 0.12671 0.55415 0.0
C159 C 0.98482 0.04631 0.51452 0.0
C160 C 0.98968 0.09886 0.64763 0.0
C161 C 0.97962 0.10747 0.41233 0.0
O162 O 0.96292 0.05264 0.5168 0.0
O163 O -0.00028 0.06314 0.52119 0.0
O164 O 0.9942 0.11173 0.45716 0.0
O165 O 0.96078 0.09647 0.4286 0.0
C166 C 0.93353 0.11715 0.56756 0.0
O167 O -0.00023 0.10813 0.59943 0.0
O168 O 0.97178 0.08573 0.63606 0.0
In169 In 0.64844 0.22121 0.28631 0.0
O170 O 0.63336 0.2493 0.35572 0.0
O171 O 0.65651 0.22149 0.39049 0.0
C172 C 0.63177 0.22977 0.16889 0.0
C173 C 0.62386 0.18329 0.32477 0.0
C174 C 0.69468 0.23119 0.26495 0.0
O175 O 0.62966 0.24496 0.21341 0.0
O176 O 0.64133 0.21007 0.18474 0.0
O177 O 0.68707 0.20981 0.2677 0.0
O178 O 0.67894 0.24721 0.27364 0.0
C179 C 0.64336 0.23935 0.40318 0.0
O180 O 0.64593 0.18141 0.31069 0.0
O181 O 0.61423 0.20344 0.31364 0.0
In182 In 0.51954 0.89984 0.0382 0.0
O183 O 0.49024 0.88455 0.10321 0.0
O184 O 0.52053 0.9024 0.14417 0.0
C185 C 0.50988 0.88963 0.91648 0.0
C186 C 0.55513 0.86953 0.06497 0.0
C187 C 0.51084 0.94712 0.0324 0.0
O188 O 0.49525 0.88508 0.96104 0.0
O189 O 0.52969 0.89848 0.93401 0.0
O190 O 0.5321 0.93883 0.03311 0.0
O191 O 0.49448 0.93152 0.03525 0.0
C192 C 0.50132 0.89091 0.15316 0.0
O193 O 0.55885 0.892 0.06241 0.0
O194 O 0.53434 0.86289 0.04858 0.0
In195 In 0.83686 0.77053 0.77962 0.0
O196 O 0.85234 0.74221 0.84757 0.0
O197 O 0.83185 0.77168 0.88496 0.0
C198 C 0.84936 0.76216 0.65874 0.0
C199 C 0.86419 0.80766 0.81006 0.0
C200 C 0.79079 0.7582 0.76798 0.0
O201 O 0.85441 0.7476 0.70318 0.0
O202 O 0.8389 0.78124 0.6761 0.0
O203 O 0.79704 0.78008 0.77066 0.0
O204 O 0.80775 0.7432 0.77201 0.0
C205 C 0.84422 0.75311 0.8961 0.0
O206 O 0.84168 0.81026 0.80278 0.0
O207 O 0.8725 0.78711 0.79657 0.0
In208 In 0.5355 0.59058 0.53028 0.0
O209 O 0.57456 0.58522 0.55799 0.0
O210 O 0.56304 0.62013 0.52806 0.0
C211 C 0.51947 0.54524 0.51999 0.0
C212 C 0.52017 0.60473 0.64626 0.0
C213 C 0.5266 0.60487 0.41033 0.0
O214 O 0.54153 0.55043 0.51805 0.0
O215 O 0.50562 0.56294 0.52801 0.0
O216 O 0.51313 0.61086 0.45629 0.0
O217 O 0.54461 0.59231 0.42548 0.0
C218 C 0.57986 0.60703 0.54902 0.0
O219 O 0.51035 0.61256 0.59599 0.0
O220 O 0.53695 0.58992 0.63732 0.0
In221 In 0.64877 0.27293 0.79028 0.0
O222 O 0.6455 0.31284 0.81379 0.0
O223 O 0.61394 0.29265 0.79087 0.0
C224 C 0.69483 0.25913 0.78218 0.0
C225 C 0.63715 0.25671 0.90583 0.0
C226 C 0.63782 0.26444 0.66869 0.0
O227 O 0.68886 0.28114 0.78236 0.0
O228 O 0.67761 0.24461 0.78761 0.0
O229 O 0.6322 0.24988 0.7126 0.0
O230 O 0.64842 0.28328 0.68669 0.0
C231 C 0.6228 0.31253 0.80779 0.0
O232 O 0.63009 0.24593 0.85611 0.0
O233 O 0.65032 0.27477 0.89644 0.0
In234 In 0.96725 0.39931 0.03118 0.0
O235 O 0.99559 0.38549 0.10176 0.0
O236 O 0.9668 0.40784 0.13493 0.0
C237 C 0.97548 0.38359 0.91291 0.0
C238 C 0.93086 0.37249 0.06928 0.0
C239 C 0.97734 0.44538 0.00935 0.0
O240 O 0.99044 0.38038 0.95759 0.0
O241 O 0.95607 0.39371 0.92916 0.0
O242 O 0.95585 0.4381 0.01409 0.0
O243 O 0.99327 0.42941 0.01643 0.0
C244 C 0.98495 0.39521 0.14861 0.0
O245 O 0.92775 0.3946 0.05696 0.0
O246 O 0.95135 0.36402 0.05606 0.0
In247 In 0.83444 0.71485 0.28033 0.0
O248 O 0.84874 0.74443 0.34622 0.0
O249 O 0.83216 0.71343 0.38673 0.0
C250 C 0.84619 0.72555 0.16001 0.0
C251 C 0.86443 0.6784 0.30321 0.0
C252 C 0.78701 0.72274 0.27054 0.0
O253 O 0.85056 0.73964 0.20584 0.0
O254 O 0.83646 0.70593 0.17555 0.0
O255 O 0.7957 0.70166 0.27072 0.0
O256 O 0.80226 0.73931 0.27621 0.0
C257 C 0.84277 0.7331 0.39606 0.0
O258 O 0.84184 0.6754 0.30404 0.0
O259 O 0.87125 0.69915 0.287 0.0
In260 In 0.51779 0.40441 0.95416 0.0
O261 O 0.55777 0.40037 0.93158 0.0
O262 O 0.53545 0.3691 0.93594 0.0
C263 C 0.50823 0.45138 0.96743 0.0
C264 C 0.49952 0.39609 0.83873 0.0
C265 C 0.50722 0.39146 0.07356 0.0
O266 O 0.52957 0.44338 0.96689 0.0
O267 O 0.49219 0.43571 0.95988 0.0
O268 O 0.49273 0.38841 0.02792 0.0
O269 O 0.52747 0.39976 0.05808 0.0
C270 C 0.55577 0.37792 0.92314 0.0
O271 O 0.4894 0.38798 0.88825 0.0
O272 O 0.51776 0.40898 0.84836 0.0
In273 In 0.84056 0.2701 0.2189 0.0
O274 O 0.84373 0.31003 0.19689 0.0
O275 O 0.8754 0.28955 0.21767 0.0
C276 C 0.79414 0.25815 0.22496 0.0
C277 C 0.8517 0.25438 0.10258 0.0
C278 C 0.85202 0.25979 0.33938 0.0
O279 O 0.80089 0.27985 0.22755 0.0
O280 O 0.81081 0.24297 0.21844 0.0
O281 O 0.8581 0.24626 0.29359 0.0
O282 O 0.84078 0.27863 0.32369 0.0
C283 C 0.86646 0.3095 0.20127 0.0
O284 O 0.85781 0.24255 0.15154 0.0
O285 O 0.83957 0.27313 0.11297 0.0
In286 In 0.97302 0.59445 0.47422 0.0
O287 O 0.93358 0.59634 0.44249 0.0
O288 O 0.95494 0.6281 0.44176 0.0
C289 C 0.98204 0.54822 0.49927 0.0
C290 C -0.0037 0.59721 0.36298 0.0
C291 C 0.9804 0.61045 0.59345 0.0
O292 O 0.96088 0.5559 0.48928 0.0
O293 O -0.00171 0.564 0.49693 0.0
O294 O -0.004 0.61256 0.54999 0.0
O295 O 0.96079 0.60131 0.57559 0.0
C296 C 0.93509 0.61843 0.42865 0.0
O297 O -0.00076 0.61302 0.40558 0.0
O298 O 0.98251 0.58018 0.37756 0.0
In299 In 0.64524 0.71643 0.72088 0.0
O300 O 0.65497 0.68658 0.65158 0.0
O301 O 0.62854 0.67952 0.72247 0.0
C302 C 0.6915 0.72881 0.73656 0.0
C303 C 0.62563 0.73856 0.6184 0.0
C304 C 0.62857 0.72133 0.84116 0.0
O305 O 0.68501 0.70746 0.72639 0.0
O306 O 0.67458 0.74388 0.73887 0.0
O307 O 0.62347 0.73626 0.79783 0.0
O308 O 0.64118 0.70383 0.82298 0.0
C309 C 0.64004 0.67196 0.67471 0.0
O310 O 0.61481 0.72219 0.64821 0.0
O311 O 0.64481 0.74538 0.64444 0.0
In312 In 0.46543 0.40507 0.45698 0.0
O313 O 0.49144 0.3883 0.38504 0.0
O314 O 0.46508 0.41379 0.35339 0.0
C315 C 0.4724 0.38967 0.57576 0.0
C316 C 0.4271 0.38056 0.42164 0.0
C317 C 0.48168 0.44946 0.47689 0.0
O318 O 0.48714 0.38504 0.53139 0.0
O319 O 0.45377 0.40112 0.55914 0.0
O320 O 0.4593 0.4452 0.47326 0.0
O321 O 0.49518 0.43143 0.46954 0.0
C322 C 0.48165 0.39925 0.33876 0.0
O323 O 0.42548 0.40294 0.43271 0.0
O324 O 0.44713 0.37087 0.43416 0.0
In325 In 0.34735 0.72703 0.22365 0.0
O326 O 0.35361 0.68797 0.19292 0.0
O327 O 0.38287 0.71274 0.19244 0.0
C328 C 0.30099 0.73437 0.25043 0.0
C329 C 0.3472 0.74906 0.11085 0.0
C330 C 0.36281 0.7351 0.34264 0.0
O331 O 0.30933 0.71341 0.24075 0.0
O332 O 0.31617 0.75116 0.24667 0.0
O333 O 0.36452 0.75074 0.29907 0.0
O334 O 0.35436 0.71515 0.32491 0.0
C335 C 0.37548 0.69189 0.17961 0.0
O336 O 0.36214 0.75491 0.15362 0.0
O337 O 0.33242 0.73292 0.12596 0.0
In338 In 0.02205 0.58949 0.97003 0.0
O339 O 0.06137 0.59075 0.94094 0.0
O340 O 0.04365 0.62308 0.97055 0.0
C341 C 0.00687 0.54411 0.97081 0.0
C342 C 0.00486 0.60364 0.85745 0.0
C343 C 0.0184 0.59661 0.0955 0.0
O344 O 0.02895 0.54943 0.96688 0.0
O345 O 0.99262 0.56182 0.97297 0.0
O346 O 0.00491 0.60777 0.05664 0.0
O347 O 0.03367 0.58271 0.07044 0.0
C348 C 0.06242 0.61333 0.94832 0.0
O349 O 0.99398 0.60933 0.90845 0.0
O350 O 0.02309 0.59041 0.86422 0.0
In351 In 0.14949 0.27208 0.72519 0.0
O352 O 0.13286 0.24362 0.65959 0.0
O353 O 0.15198 0.27321 0.61918 0.0
C354 C 0.13738 0.26249 0.84583 0.0
C355 C 0.12236 0.31027 0.69859 0.0
C356 C 0.19636 0.26159 0.73515 0.0
O357 O 0.13259 0.24826 0.80059 0.0
O358 O 0.14747 0.28182 0.82945 0.0
O359 O 0.18873 0.28306 0.73599 0.0
O360 O 0.18035 0.24584 0.72809 0.0
C361 C 0.13955 0.25465 0.60991 0.0
O362 O 0.14511 0.31166 0.69879 0.0
O363 O 0.11394 0.29037 0.71678 0.0
In364 In 0.48035 0.59958 0.02869 0.0
O365 O 0.44059 0.60489 0.05081 0.0
O366 O 0.46317 0.63568 0.04184 0.0
C367 C 0.48721 0.55223 0.01319 0.0
C368 C 0.49813 0.60576 0.14635 0.0
C369 C 0.49159 0.61276 0.9091 0.0
O370 O 0.46641 0.56149 0.01411 0.0
O371 O 0.50418 0.56687 0.02115 0.0
O372 O 0.50616 0.61525 0.95491 0.0
O373 O 0.47131 0.6045 0.92442 0.0
C374 C 0.44257 0.62751 0.05486 0.0
O375 O 0.50931 0.61336 0.09783 0.0
O376 O 0.47884 0.5948 0.1347 0.0
In377 In 0.1499 0.71635 0.78003 0.0
O378 O 0.13611 0.74417 0.85195 0.0
O379 O 0.15868 0.71533 0.88374 0.0
C380 C 0.1332 0.72488 0.66275 0.0
C381 C 0.12441 0.67876 0.81648 0.0
C382 C 0.1956 0.72774 0.75677 0.0
O383 O 0.12991 0.7395 0.70815 0.0
O384 O 0.14383 0.70562 0.67785 0.0
O385 O 0.18892 0.70606 0.7614 0.0
O386 O 0.17924 0.7432 0.76482 0.0
C387 C 0.14607 0.7334 0.89821 0.0
O388 O 0.14643 0.67641 0.80197 0.0
O389 O 0.11538 0.69933 0.80723 0.0
In390 In 0.01951 0.401 0.53607 0.0
O391 O 0.99109 0.38337 0.59986 0.0
O392 O 0.02011 0.40283 0.64215 0.0
C393 C 0.01037 0.38993 0.41449 0.0
C394 C 0.05757 0.37404 0.56417 0.0
C395 C 0.00789 0.44771 0.53096 0.0
O396 O -0.00393 0.38469 0.4592 0.0
O397 O 0.02968 0.39986 0.43175 0.0
O398 O 0.02959 0.4407 0.53028 0.0
O399 O 0.99257 0.43115 0.53497 0.0
C400 C 0.00176 0.38996 0.65017 0.0
O401 O 0.05924 0.39674 0.56137 0.0
O402 O 0.03758 0.36549 0.54702 0.0
In403 In 0.33969 0.27365 0.28531 0.0
O404 O 0.35825 0.24645 0.35148 0.0
O405 O 0.33888 0.27589 0.39185 0.0
C406 C 0.35222 0.26417 0.16475 0.0
C407 C 0.36294 0.31485 0.30163 0.0
C408 C 0.29371 0.25988 0.27781 0.0
O409 O 0.35824 0.25051 0.21029 0.0
O410 O 0.34028 0.28255 0.18056 0.0
O411 O 0.29963 0.28183 0.2767 0.0
O412 O 0.31096 0.24534 0.28352 0.0
C413 C 0.35152 0.25741 0.40126 0.0
O414 O 0.34032 0.31373 0.30804 0.0
O415 O 0.37314 0.29549 0.28525 0.0
C416 C 0.97892 0.10474 0.76066 0.0
C417 C -0.00313 0.10368 0.71366 0.0
C418 C 0.98482 0.10652 0.82504 0.0
C419 C 0.0089 0.10667 0.84478 0.0
H420 H 0.96012 0.10358 0.74769 0.0
H421 H 0.9704 0.10636 0.85963 0.0
S422 S 0.06255 0.10637 0.74 0.0
N423 N 0.03956 0.10493 0.69046 0.0
N424 N 0.05085 0.10743 0.81215 0.0
C425 C 0.02704 0.10674 0.7981 0.0
C426 C 0.02097 0.10548 0.73225 0.0
C427 C 0.14329 0.76404 0.98491 0.0
C428 C 0.14232 0.73999 0.96523 0.0
C429 C 0.14276 0.76992 0.04981 0.0
C430 C 0.14065 0.75197 0.0968 0.0
H431 H 0.14559 0.77824 0.95026 0.0
H432 H 0.14457 0.7886 0.06331 0.0
S433 S 0.13456 0.68651 0.06822 0.0
N434 N 0.13734 0.69831 0.99664 0.0
N435 N 0.13564 0.70934 0.11825 0.0
C436 C 0.13821 0.72799 0.07714 0.0
C437 C 0.13926 0.72201 0.01137 0.0
C438 C 0.51077 0.88275 0.26612 0.0
C439 C 0.49334 0.88519 0.21814 0.0
C440 C 0.50421 0.88065 0.32999 0.0
C441 C 0.47996 0.88139 0.34831 0.0
H442 H 0.52973 0.88324 0.25444 0.0
H443 H 0.51833 0.88001 0.3654 0.0
S444 S 0.42735 0.88454 0.24019 0.0
N445 N 0.45083 0.88567 0.19226 0.0
N446 N 0.43832 0.88232 0.31292 0.0
C447 C 0.46228 0.88227 0.30045 0.0
C448 C 0.46901 0.88401 0.23511 0.0
C449 C 0.35844 0.26651 0.51528 0.0
C450 C 0.35687 0.24931 0.46647 0.0
C451 C 0.35964 0.25962 0.5792 0.0
C452 C 0.35874 0.23529 0.59661 0.0
H453 H 0.35795 0.28551 0.50411 0.0
H454 H 0.35981 0.27353 0.61523 0.0
S455 S 0.35695 0.18322 0.48655 0.0
N456 N 0.35658 0.20692 0.43931 0.0
N457 N 0.35818 0.19386 0.55978 0.0
C458 C 0.35845 0.21786 0.5481 0.0
C459 C 0.35771 0.2249 0.48285 0.0
C460 C 0.97569 0.88645 0.72593 0.0
C461 C 0.99301 0.88652 0.77462 0.0
C462 C 0.98236 0.88455 0.66204 0.0
C463 C 0.00666 0.88314 0.64439 0.0
H464 H 0.95679 0.8885 0.73715 0.0
H465 H 0.96842 0.88556 0.6262 0.0
S466 S 0.05882 0.88024 0.75405 0.0
N467 N 0.0353 0.8829 0.80147 0.0
N468 N 0.04804 0.87995 0.68089 0.0
C469 C 0.02412 0.88196 0.69275 0.0
C470 C 0.01724 0.88347 0.75806 0.0
C471 C 0.36753 0.76088 0.9426 0.0
C472 C 0.346 0.76798 0.91295 0.0
C473 C 0.36837 0.75656 0.00841 0.0
C474 C 0.34756 0.75865 0.04588 0.0
H475 H 0.38371 0.7584 0.91471 0.0
H476 H 0.38503 0.75031 0.02943 0.0
S477 S 0.28691 0.77684 0.99156 0.0
N478 N 0.30361 0.77758 0.92673 0.0
N479 N 0.30512 0.76853 0.04952 0.0
C480 C 0.32611 0.7661 0.01705 0.0
C481 C 0.32535 0.77103 0.95072 0.0
C482 C 0.50788 0.11716 0.18177 0.0
C483 C 0.484 0.11393 0.16203 0.0
C484 C 0.51415 0.11574 0.24602 0.0
C485 C 0.49675 0.11148 0.29316 0.0
H486 H 0.52215 0.11924 0.14718 0.0
H487 H 0.53299 0.11693 0.25862 0.0
S488 S 0.43123 0.10547 0.26772 0.0
N489 N 0.44242 0.10892 0.19555 0.0
N490 N 0.45436 0.10667 0.31681 0.0
C491 C 0.47256 0.1103 0.2749 0.0
C492 C 0.46614 0.11141 0.20913 0.0
C493 C 0.1354 0.22308 0.52633 0.0
C494 C 0.13333 0.24717 0.54495 0.0
C495 C 0.134 0.21669 0.46189 0.0
C496 C 0.13012 0.23416 0.41438 0.0
H497 H 0.1396 0.20935 0.56112 0.0
H498 H 0.1371 0.19809 0.44904 0.0
S499 S 0.11943 0.29922 0.44123 0.0
N500 N 0.12442 0.28814 0.5128 0.0
N501 N 0.1213 0.27618 0.39201 0.0
C502 C 0.12601 0.25803 0.43342 0.0
C503 C 0.12779 0.26453 0.49872 0.0
C504 C 0.97397 0.8883 0.25648 0.0
C505 C -0.00178 0.88849 0.27456 0.0
C506 C 0.96753 0.88679 0.1921 0.0
C507 C 0.98512 0.88483 0.1441 0.0
H508 H 0.96 0.8906 0.29183 0.0
H509 H 0.94867 0.88798 0.17971 0.0
S510 S 0.05104 0.88108 0.16869 0.0
N511 N 0.0398 0.88445 0.24073 0.0
N512 N 0.02771 0.88075 0.12022 0.0
C513 C 0.00935 0.88324 0.16234 0.0
C514 C 0.0159 0.88533 0.22753 0.0
C515 C 0.85494 0.22279 0.019 0.0
C516 C 0.85718 0.24691 0.03712 0.0
C517 C 0.85518 0.21632 0.95457 0.0
C518 C 0.85807 0.23372 0.90649 0.0
H519 H 0.85143 0.2091 0.05436 0.0
H520 H 0.85204 0.19769 0.94231 0.0
S521 S 0.86855 0.29884 0.9311 0.0
N522 N 0.86504 0.28787 0.0034 0.0
N523 N 0.86601 0.27571 0.88245 0.0
C524 C 0.8623 0.25762 0.92466 0.0
C525 C 0.86168 0.26422 0.99006 0.0
C526 C 0.51602 0.0802 0.76808 0.0
C527 C 0.50551 0.10005 0.79837 0.0
C528 C 0.52076 0.08053 0.70282 0.0
C529 C 0.51437 0.10043 0.66506 0.0
H530 H 0.51999 0.06401 0.79478 0.0
H531 H 0.5285 0.06459 0.68135 0.0
S532 S 0.48683 0.15715 0.72237 0.0
N533 N 0.48968 0.14051 0.787 0.0
N534 N 0.49772 0.14085 0.66328 0.0
C535 C 0.50429 0.12064 0.69506 0.0
C536 C 0.5001 0.12053 0.76208 0.0
C537 C 0.63057 0.76587 0.52567 0.0
C538 C 0.6201 0.74515 0.55164 0.0
C539 C 0.63116 0.76968 0.45988 0.0
C540 C 0.62157 0.75277 0.41705 0.0
H541 H 0.63951 0.7787 0.55625 0.0
H542 H 0.64033 0.7855 0.4425 0.0
S543 S 0.5898 0.69667 0.46105 0.0
N544 N 0.59792 0.70847 0.52977 0.0
N545 N 0.59929 0.7155 0.40588 0.0
C546 C 0.60962 0.73271 0.4425 0.0
C547 C 0.60879 0.72895 0.50984 0.0
C548 C 0.96772 0.10803 0.29778 0.0
C549 C 0.98553 0.11148 0.3446 0.0
C550 C 0.97371 0.10669 0.23307 0.0
C551 C -0.00228 0.10836 0.21353 0.0
H552 H 0.94918 0.10518 0.31141 0.0
H553 H 0.95975 0.10273 0.1988 0.0
S554 S 0.05059 0.12092 0.31522 0.0
N555 N 0.02781 0.11943 0.36537 0.0
N556 N 0.039 0.11636 0.24404 0.0
C557 C 0.01542 0.1135 0.25906 0.0
C558 C 0.00933 0.11525 0.32464 0.0
C559 C 0.62837 0.26028 0.0832 0.0
C560 C 0.62771 0.23603 0.1015 0.0
C561 C 0.63026 0.26673 0.01917 0.0
C562 C 0.63107 0.24921 0.97104 0.0
H563 H 0.62903 0.27438 0.11866 0.0
H564 H 0.63199 0.2856 0.00744 0.0
S565 S 0.62635 0.18341 0.99321 0.0
N566 N 0.62554 0.19447 0.06606 0.0
N567 N 0.62853 0.20678 0.94521 0.0
C568 C 0.62844 0.22501 0.98813 0.0
C569 C 0.62692 0.21837 0.05359 0.0
C570 C 0.51542 0.89077 0.73663 0.0
C571 C 0.49131 0.8914 0.71731 0.0
C572 C 0.52138 0.88919 0.80138 0.0
C573 C 0.50341 0.8876 0.84849 0.0
H574 H 0.52966 0.89267 0.70191 0.0
H575 H 0.54016 0.88989 0.81473 0.0
S576 S 0.43762 0.88542 0.82045 0.0
N577 N 0.44946 0.88841 0.74899 0.0
N578 N 0.46057 0.88463 0.87013 0.0
C579 C 0.47929 0.88665 0.82898 0.0
C580 C 0.47326 0.8888 0.76346 0.0
C581 C 0.85252 0.73136 0.57357 0.0
C582 C 0.85186 0.75572 0.5909 0.0
C583 C 0.8503 0.72439 0.50999 0.0
C584 C 0.84783 0.74149 0.4612 0.0
H585 H 0.85345 0.71748 0.60958 0.0
H586 H 0.84996 0.70536 0.49913 0.0
S587 S 0.84788 0.80762 0.48062 0.0
N588 N 0.85036 0.7971 0.55376 0.0
N589 N 0.84683 0.78385 0.43371 0.0
C590 C 0.84871 0.76593 0.47726 0.0
C591 C 0.85053 0.77308 0.54232 0.0
C592 C 0.48911 0.61039 0.26144 0.0
C593 C 0.50634 0.60914 0.21253 0.0
C594 C 0.49593 0.61071 0.32552 0.0
C595 C 0.52023 0.60922 0.34306 0.0
H596 H 0.47012 0.61055 0.25016 0.0
H597 H 0.482 0.61079 0.36148 0.0
S598 S 0.57241 0.60763 0.23326 0.0
N599 N 0.54877 0.60831 0.18579 0.0
N600 N 0.56169 0.60814 0.30649 0.0
C601 C 0.5377 0.609 0.29464 0.0
C602 C 0.53074 0.60919 0.22924 0.0
C603 C 0.63958 0.22861 0.51701 0.0
C604 C 0.63904 0.24645 0.46965 0.0
C605 C 0.63746 0.2345 0.58136 0.0
C606 C 0.63539 0.25853 0.60073 0.0
H607 H 0.64204 0.20989 0.50432 0.0
H608 H 0.63875 0.22023 0.61622 0.0
S609 S 0.63135 0.31181 0.4953 0.0
N610 N 0.63445 0.2889 0.44601 0.0
N611 N 0.63141 0.30023 0.56761 0.0
C612 C 0.63396 0.27651 0.55382 0.0
C613 C 0.63552 0.27041 0.48803 0.0
C614 C 0.9702 0.38563 0.73359 0.0
C615 C 0.9942 0.38309 0.71453 0.0
C616 C 0.96394 0.38406 0.79808 0.0
C617 C 0.98146 0.3796 0.84516 0.0
H618 H 0.95652 0.39045 0.69923 0.0
H619 H 0.94547 0.38763 0.81135 0.0
S620 S 0.04612 0.36712 0.81658 0.0
N621 N 0.03499 0.37283 0.74543 0.0
N622 N 0.02328 0.36939 0.86635 0.0
C623 C 0.00515 0.37485 0.8255 0.0
C624 C 0.01152 0.37678 0.76015 0.0
C625 C 0.8464 0.71492 0.04443 0.0
C626 C 0.84979 0.73223 0.09257 0.0
C627 C 0.84614 0.72143 0.97998 0.0
C628 C 0.84886 0.7455 0.96188 0.0
H629 H 0.84307 0.69633 0.05666 0.0
H630 H 0.84245 0.70782 0.94453 0.0
S631 S 0.86139 0.79718 0.0678 0.0
N632 N 0.85849 0.7741 0.11646 0.0
N633 N 0.85747 0.7863 0.99557 0.0
C634 C 0.85363 0.76272 0.00896 0.0
C635 C 0.85427 0.75609 0.07433 0.0
C636 C 0.5174 0.3869 0.18872 0.0
C637 C 0.49991 0.38953 0.14081 0.0
C638 C 0.51131 0.38901 0.25328 0.0
C639 C 0.48769 0.39461 0.27163 0.0
H640 H 0.53603 0.38379 0.17616 0.0
H641 H 0.52533 0.38734 0.28873 0.0
S642 S 0.43499 0.40174 0.16506 0.0
N643 N 0.4577 0.3963 0.11666 0.0
N644 N 0.44647 0.40133 0.23735 0.0
C645 C 0.46993 0.39653 0.22431 0.0
C646 C 0.47598 0.39368 0.159 0.0
C647 C 0.8521 0.27071 0.45452 0.0
C648 C 0.85531 0.25318 0.40684 0.0
C649 C 0.85132 0.26436 0.51901 0.0
C650 C 0.85324 0.24025 0.53758 0.0
H651 H 0.84934 0.28937 0.44182 0.0
H652 H 0.84785 0.2782 0.55407 0.0
S653 S 0.86466 0.1879 0.43272 0.0
N654 N 0.86277 0.21099 0.38369 0.0
N655 N 0.86076 0.19906 0.50469 0.0
C656 C 0.85776 0.22275 0.49092 0.0
C657 C 0.85898 0.22922 0.4255 0.0
C658 C 0.97368 0.60865 0.77287 0.0
C659 C -0.0025 0.61132 0.79335 0.0
C660 C 0.96792 0.61011 0.70794 0.0
C661 C 0.98577 0.61451 0.6617 0.0
H662 H 0.9598 0.60368 0.80644 0.0
H663 H 0.94961 0.60642 0.69367 0.0
S664 S 0.05011 0.62708 0.69379 0.0
N665 N 0.03843 0.62156 0.76439 0.0
N666 N 0.02767 0.62473 0.64282 0.0
C667 C 0.00924 0.61938 0.68272 0.0
C668 C 0.01509 0.61763 0.7485 0.0
C669 C 0.62344 0.75495 0.99628 0.0
C670 C 0.62598 0.73666 0.04205 0.0
C671 C 0.62222 0.74965 0.93128 0.0
C672 C 0.62407 0.72587 0.90951 0.0
H673 H 0.62321 0.77364 0.01072 0.0
H674 H 0.62142 0.76442 0.89782 0.0
S675 S 0.62834 0.67129 0.01037 0.0
N676 N 0.62796 0.69376 0.06171 0.0
N677 N 0.6264 0.68367 0.93915 0.0
C678 C 0.62521 0.7073 0.95499 0.0
C679 C 0.62596 0.71272 0.02142 0.0
C680 C 0.50926 0.3888 0.72551 0.0
C681 C 0.49176 0.39045 0.77354 0.0
C682 C 0.50276 0.38645 0.66165 0.0
C683 C 0.47849 0.38625 0.64341 0.0
H684 H 0.52818 0.39003 0.73718 0.0
H685 H 0.51687 0.38634 0.62616 0.0
S686 S 0.42584 0.38748 0.7516 0.0
N687 N 0.44928 0.38937 0.79952 0.0
N688 N 0.43687 0.38576 0.6788 0.0
C689 C 0.46081 0.38655 0.69126 0.0
C690 C 0.46749 0.38842 0.75661 0.0
C691 C 0.36241 0.72279 0.45714 0.0
C692 C 0.36644 0.74071 0.41088 0.0
C693 C 0.36037 0.7286 0.52191 0.0
C694 C 0.36209 0.75252 0.54219 0.0
H695 H 0.35942 0.70434 0.44296 0.0
H696 H 0.3557 0.7146 0.55544 0.0
S697 S 0.37674 0.80546 0.44268 0.0
N698 N 0.3754 0.78288 0.39188 0.0
N699 N 0.37119 0.79373 0.51319 0.0
C700 C 0.36809 0.77025 0.49742 0.0
C701 C 0.37041 0.76435 0.43179 0.0
C702 C 0.00512 0.61832 0.19419 0.0
C703 C 0.01554 0.59799 0.16531 0.0
C704 C 0.00074 0.61888 0.26002 0.0
C705 C 0.00618 0.59893 0.29841 0.0
H706 H -0.0001 0.63366 0.16562 0.0
H707 H 0.99176 0.63439 0.28028 0.0
S708 S 0.0342 0.54177 0.2469 0.0
N709 N 0.03212 0.55789 0.18125 0.0
N710 N 0.02302 0.55879 0.30402 0.0
C711 C 0.01714 0.57886 0.27054 0.0
C712 C 0.02207 0.57843 0.20416 0.0
C713 C 0.13706 0.27371 0.96102 0.0
C714 C 0.13428 0.25603 0.91356 0.0
C715 C 0.13806 0.26751 0.02566 0.0
C716 C 0.13681 0.24339 0.04457 0.0
H717 H 0.1393 0.2924 0.94804 0.0
H718 H 0.14111 0.28147 0.06057 0.0
S719 S 0.1267 0.19061 0.94055 0.0
N720 N 0.12791 0.21363 0.89118 0.0
N721 N 0.13044 0.20201 0.01227 0.0
C722 C 0.13278 0.22572 0.99814 0.0
C723 C 0.1313 0.23203 0.93265 0.0
C724 C 0.52979 0.61045 0.76071 0.0
C725 C 0.51268 0.6113 0.71147 0.0
C726 C 0.523 0.6128 0.82455 0.0
C727 C 0.49874 0.61556 0.84166 0.0
H728 H 0.54855 0.60714 0.74996 0.0
H729 H 0.5367 0.61098 0.8608 0.0
S730 S 0.44723 0.62122 0.73049 0.0
N731 N 0.47075 0.61724 0.68368 0.0
N732 N 0.45776 0.62103 0.80391 0.0
C733 C 0.48159 0.61773 0.79271 0.0
C734 C 0.48861 0.61578 0.72751 0.0
C735 C 0.13449 0.72028 0.48335 0.0
C736 C 0.13251 0.74441 0.46498 0.0
C737 C 0.13288 0.71378 0.54765 0.0
C738 C 0.12893 0.73118 0.59532 0.0
H739 H 0.13895 0.70662 0.44858 0.0
H740 H 0.13608 0.69519 0.56034 0.0
S741 S 0.11796 0.79622 0.56902 0.0
N742 N 0.12323 0.78528 0.49741 0.0
N743 N 0.11977 0.7731 0.618 0.0
C744 C 0.12467 0.75504 0.57646 0.0
C745 C 0.12663 0.76165 0.51125 0.0
C746 C 0.01572 0.39034 0.23459 0.0
C747 C 0.99158 0.39095 0.21544 0.0
C748 C 0.02177 0.38904 0.29935 0.0
C749 C 0.00386 0.38761 0.34662 0.0
H750 H 0.02993 0.39201 0.1997 0.0
H751 H 0.04056 0.38976 0.31255 0.0
S752 S 0.93802 0.38567 0.31949 0.0
N753 N 0.94974 0.38837 0.24782 0.0
N754 N 0.96106 0.38491 0.36885 0.0
C755 C 0.97971 0.38668 0.32741 0.0
C756 C 0.97359 0.38865 0.26192 0.0
C757 C 0.3572 0.23351 0.07968 0.0
C758 C 0.35606 0.25781 0.09737 0.0
C759 C 0.35646 0.22675 0.01563 0.0
C760 C 0.35514 0.24405 0.96697 0.0
H761 H 0.3573 0.21955 0.11556 0.0
H762 H 0.35626 0.20777 0.00416 0.0
S763 S 0.35455 0.3101 0.98802 0.0
N764 N 0.35536 0.29931 0.06115 0.0
N765 N 0.35467 0.28649 0.94042 0.0
C766 C 0.35561 0.26842 0.98375 0.0
C767 C 0.35586 0.27533 0.04912 0.0
C768 C 0.01693 0.00183 0.99693 0.0
C769 C 1e-05 0.01995 0.00976 0.0
C770 C 0.00966 0.97832 0.98381 0.0
C771 C 0.98519 0.97198 0.98304 0.0
H772 H 0.03597 0.00582 0.99662 0.0
H773 H 0.02344 0.965 0.97433 0.0
S774 S 0.93366 0.01272 0.01422 0.0
N775 N 0.95757 0.02997 0.02133 0.0
N776 N 0.944 0.9857 0.99668 0.0
C777 C 0.96804 0.98989 0.99593 0.0
C778 C 0.97543 0.01388 0.00933 0.0
C779 C 0.24309 0.76919 0.27445 0.0
C780 C 0.22572 0.75108 0.2802 0.0
C781 C 0.26739 0.7635 0.26596 0.0
C782 C 0.27529 0.73947 0.26263 0.0
H783 H 0.23789 0.78795 0.27566 0.0
H784 H 0.28001 0.77815 0.26096 0.0
S785 S 0.23715 0.68527 0.27778 0.0
N786 N 0.21819 0.70801 0.28416 0.0
N787 N 0.26391 0.6974 0.2679 0.0
C788 C 0.2582 0.72115 0.26955 0.0
C789 C 0.23341 0.72693 0.27843 0.0
C790 C 0.47861 0.0144 0.48616 0.0
C791 C 0.50294 0.0201 0.47607 0.0
C792 C 0.47133 0.99069 0.49657 0.0
C793 C 0.48811 0.9718 0.49734 0.0
H794 H 0.46506 0.02841 0.4872 0.0
H795 H 0.45246 0.98723 0.50504 0.0
S796 S 0.55382 0.97695 0.46931 0.0
N797 N 0.54368 0.00477 0.46456 0.0
N798 N 0.53006 0.96019 0.48403 0.0
C799 C 0.51244 0.97715 0.48564 0.0
C800 C 0.51984 0.0013 0.475 0.0
C801 C 0.25245 0.22336 0.75296 0.0
C802 C 0.2706 0.24038 0.76333 0.0
C803 C 0.22858 0.23049 0.74337 0.0
C804 C 0.22191 0.25492 0.74379 0.0
H805 H 0.25668 0.20436 0.75209 0.0
H806 H 0.21526 0.21665 0.73576 0.0
S807 S 0.2626 0.30668 0.769 0.0
N808 N 0.28028 0.28288 0.77348 0.0
N809 N 0.23539 0.29617 0.75546 0.0
C810 C 0.23986 0.27216 0.75403 0.0
C811 C 0.2642 0.26491 0.76382 0.0
C812 C 0.98215 0.9793 0.48415 0.0
C813 C 0.00653 0.97244 0.48272 0.0
C814 C 0.97531 0.00318 0.49464 0.0
C815 C 0.99257 0.02117 0.50408 0.0
H816 H 0.96812 0.96611 0.47725 0.0
H817 H 0.95633 0.00753 0.49526 0.0
S818 S 0.05884 0.01267 0.50494 0.0
N819 N 0.048 0.98557 0.49171 0.0
N820 N 0.03523 0.03052 0.5114 0.0
C821 C 0.01705 0.01459 0.50274 0.0
C822 C 0.02401 0.99022 0.49205 0.0
C823 C 0.22601 0.7596 0.73834 0.0
C824 C 0.22057 0.735 0.74328 0.0
C825 C 0.24949 0.76741 0.72774 0.0
C826 C 0.26851 0.75093 0.72175 0.0
H827 H 0.21205 0.77308 0.74345 0.0
H828 H 0.25278 0.78656 0.72553 0.0
S829 S 0.26371 0.68443 0.72744 0.0
N830 N 0.23597 0.69411 0.73876 0.0
N831 N 0.28027 0.70876 0.71885 0.0
C832 C 0.26329 0.72622 0.72497 0.0
C833 C 0.23929 0.71825 0.73575 0.0
C834 C 0.48085 0.98008 0.01897 0.0
C835 C 0.505 0.97297 0.02658 0.0
C836 C 0.47453 0.00424 0.011 0.0
C837 C 0.49209 0.0223 0.01054 0.0
H838 H 0.46663 0.96685 0.01833 0.0
H839 H 0.45574 0.00873 0.00457 0.0
S840 S 0.55784 0.01333 0.03111 0.0
N841 N 0.54651 0.98601 0.03485 0.0
N842 N 0.53471 0.0315 0.02019 0.0
C843 C 0.5163 0.01552 0.01923 0.0
C844 C 0.52274 0.99085 0.02714 0.0
C845 C 0.2264 0.26124 0.25253 0.0
C846 C 0.22014 0.23675 0.25281 0.0
C847 C 0.25018 0.26856 0.26133 0.0
C848 C 0.26863 0.25168 0.2708 0.0
H849 H 0.21285 0.27497 0.24519 0.0
H850 H 0.25411 0.2876 0.26025 0.0
S851 S 0.26169 0.18534 0.27703 0.0
N852 N 0.23426 0.19561 0.26429 0.0
N853 N 0.27903 0.20929 0.28093 0.0
C854 C 0.26262 0.2271 0.27176 0.0
C855 C 0.23836 0.21966 0.26271 0.0
C856 C 0.76168 0.25984 0.74798 0.0
C857 C 0.76795 0.2353 0.74838 0.0
C858 C 0.7381 0.26741 0.76 0.0
C859 C 0.71985 0.25075 0.77286 0.0
H860 H 0.77507 0.27341 0.73819 0.0
H861 H 0.73415 0.28647 0.75856 0.0
S862 S 0.72693 0.18439 0.781 0.0
N863 N 0.75405 0.19436 0.76377 0.0
N864 N 0.70971 0.2085 0.78637 0.0
C865 C 0.72589 0.22613 0.77397 0.0
C866 C 0.74994 0.21843 0.7617 0.0
C867 C 0.72929 0.75844 0.25354 0.0
C868 C 0.71168 0.74066 0.24593 0.0
C869 C 0.75349 0.75233 0.26186 0.0
C870 C 0.76111 0.72819 0.26282 0.0
H871 H 0.72441 0.77729 0.25321 0.0
H872 H 0.76632 0.76677 0.26741 0.0
S873 S 0.72214 0.67471 0.24455 0.0
N874 N 0.7035 0.69777 0.23969 0.0
N875 N 0.74908 0.68635 0.25523 0.0
C876 C 0.74372 0.71018 0.25524 0.0
C877 C 0.71899 0.7164 0.24682 0.0
C878 C 0.72717 0.26162 0.25486 0.0
C879 C 0.72004 0.2374 0.25281 0.0
C880 C 0.75109 0.26822 0.24471 0.0
C881 C 0.76879 0.25084 0.23204 0.0
H882 H 0.71422 0.27568 0.26499 0.0
H883 H 0.75575 0.28706 0.2476 0.0
S884 S 0.75929 0.18498 0.21878 0.0
N885 N 0.73244 0.19601 0.23526 0.0
N886 N 0.77745 0.20833 0.21601 0.0
C887 C 0.76185 0.22654 0.22875 0.0
C888 C 0.73747 0.21984 0.2392 0.0
C889 C 0.72289 0.76013 0.75359 0.0
C890 C 0.71689 0.73581 0.74468 0.0
C891 C 0.74683 0.76729 0.76104 0.0
C892 C 0.76562 0.75037 0.76007 0.0
H893 H 0.70901 0.7738 0.7547 0.0
H894 H 0.75061 0.7862 0.76773 0.0
S895 S 0.75946 0.68444 0.73767 0.0
N896 N 0.73169 0.69482 0.73497 0.0
N897 N 0.77661 0.70816 0.74903 0.0
C898 C 0.75985 0.72597 0.75117 0.0
C899 C 0.7355 0.71872 0.74345 0.0
C900 C 0.4854 0.51656 0.50665 0.0
C901 C 0.51032 0.52058 0.51113 0.0
C902 C 0.47623 0.49352 0.49578 0.0
C903 C 0.49163 0.47363 0.48908 0.0
H904 H 0.47284 0.53137 0.51089 0.0
H905 H 0.45694 0.49133 0.49225 0.0
S906 S 0.55832 0.4744 0.49933 0.0
N907 N 0.55021 0.50265 0.50969 0.0
N908 N 0.53309 0.45938 0.48944 0.0
C909 C 0.5166 0.47736 0.49436 0.0
C910 C 0.52591 0.50081 0.50535 0.0
C911 C 0.0083 0.47665 0.99006 0.0
C912 C 0.98389 0.47063 0.9968 0.0
C913 C 0.01545 0.50038 0.98012 0.0
C914 C -0.0015 0.51906 0.97662 0.0
H915 H 0.02213 0.46296 0.99309 0.0
H916 H 0.03449 0.50409 0.97624 0.0
S917 S 0.93223 0.51276 0.98848 0.0
N918 N 0.94264 0.48516 0.99717 0.0
N919 N 0.95607 0.52992 0.97853 0.0
C920 C 0.97396 0.51329 0.98193 0.0
C921 C 0.96666 0.48903 0.99201 0.0
C922 C 0.5208 0.49374 0.98699 0.0
C923 C 0.5023 0.47698 0.97817 0.0
C924 C 0.51565 0.51797 0.99864 0.0
C925 C 0.4918 0.5264 0.00194 0.0
H926 H 0.53944 0.48814 0.98505 0.0
H927 H 0.53058 0.53018 0.00497 0.0
S928 S 0.43673 0.48976 0.98265 0.0
N929 N 0.45905 0.47046 0.97383 0.0
N930 N 0.44947 0.51603 0.9957 0.0
C931 C 0.47309 0.50984 0.99327 0.0
C932 C 0.47832 0.48514 0.98138 0.0
C933 C 0.01839 0.49118 0.52236 0.0
C934 C 0.00074 0.47326 0.52555 0.0
C935 C 0.01208 0.51538 0.5149 0.0
C936 C 0.98787 0.5226 0.5101 0.0
H937 H 0.03727 0.48651 0.52509 0.0
H938 H 0.02638 0.52849 0.51205 0.0
S939 S 0.93467 0.48274 0.51739 0.0
N940 N 0.95788 0.46443 0.52474 0.0
N941 N 0.94611 0.50992 0.51049 0.0
C942 C 0.97 0.50491 0.51409 0.0
C943 C 0.97641 0.48025 0.52187 0.0
C944 C 0.07828 0.15574 0.07827 0.0
C945 C 0.08002 0.1308 0.08727 0.0
C946 C 0.0923 0.17154 0.11342 0.0
C947 C 0.10897 0.16309 0.15824 0.0
H948 H 0.06528 0.16329 0.04547 0.0
H949 H 0.08992 0.19065 0.10553 0.0
S950 S 0.12209 0.09951 0.19652 0.0
N951 N 0.10065 0.09822 0.14229 0.0
N952 N 0.12782 0.12834 0.2072 0.0
C953 C 0.11204 0.13823 0.16543 0.0
C954 C 0.09738 0.12196 0.13011 0.0
C955 C 0.11797 0.84442 0.36823 0.0
C956 C 0.1098 0.82692 0.32495 0.0
C957 C 0.1017 0.85975 0.39954 0.0
C958 C 0.07688 0.85764 0.38918 0.0
H959 H 0.13685 0.84554 0.38019 0.0
H960 H 0.10847 0.87258 0.4338 0.0
S961 S 0.04681 0.81765 0.27284 0.0
N962 N 0.07558 0.81076 0.26729 0.0
N963 N 0.04514 0.83888 0.32738 0.0
C964 C 0.0687 0.84121 0.34341 0.0
C965 C 0.08515 0.82604 0.31087 0.0
C966 C 0.40138 0.83611 0.69019 0.0
C967 C 0.37675 0.8366 0.67567 0.0
C968 C 0.41765 0.85002 0.65627 0.0
C969 C 0.40993 0.8654 0.60753 0.0
H970 H 0.40841 0.82391 0.7258 0.0
H971 H 0.43659 0.84832 0.66759 0.0
S972 S 0.34724 0.87559 0.55552 0.0
N973 N 0.34512 0.85513 0.61214 0.0
N974 N 0.37609 0.88217 0.54971 0.0
C975 C 0.38527 0.86757 0.59544 0.0
C976 C 0.36855 0.85297 0.62937 0.0
C977 C 0.4249 0.14784 0.84922 0.0
C978 C 0.41705 0.1298 0.89091 0.0
C979 C 0.40865 0.16271 0.81782 0.0
C980 C 0.38379 0.16041 0.82741 0.0
H981 H 0.4439 0.15095 0.84184 0.0
H982 H 0.41577 0.17686 0.78797 0.0
S983 S 0.35385 0.1144 0.92721 0.0
N984 N 0.38285 0.10889 0.93617 0.0
N985 N 0.35189 0.13743 0.87789 0.0
C986 C 0.37551 0.1415 0.86604 0.0
C987 C 0.39226 0.12604 0.89772 0.0
C988 C 0.89977 0.817 0.8751 0.0
C989 C 0.87943 0.82543 0.84242 0.0
C990 C 0.91489 0.83266 0.90738 0.0
C991 C 0.91055 0.85753 0.90775 0.0
H992 H 0.90415 0.79802 0.87602 0.0
H993 H 0.93055 0.82514 0.93072 0.0
S994 S 0.8588 0.88865 0.83246 0.0
N995 N 0.85473 0.86 0.8152 0.0
N996 N 0.88374 0.88989 0.87495 0.0
C997 C 0.88981 0.86625 0.87701 0.0
C998 C 0.87411 0.85009 0.84452 0.0
C999 C 0.89101 0.12867 0.59385 0.0
C1000 C 0.91577 0.13036 0.60572 0.0
C1001 C 0.87462 0.1431 0.62764 0.0
C1002 C 0.88263 0.15923 0.67465 0.0
H1003 H 0.88445 0.11704 0.55644 0.0
H1004 H 0.85581 0.14257 0.61449 0.0
S1005 S 0.94528 0.16648 0.73148 0.0
N1006 N 0.94719 0.14688 0.67287 0.0
N1007 N 0.91651 0.17342 0.73708 0.0
C1008 C 0.90716 0.1595 0.6901 0.0
C1009 C 0.92373 0.14521 0.65535 0.0
C1010 C 0.61187 0.14088 0.34771 0.0
C1011 C 0.61121 0.16539 0.36309 0.0
C1012 C 0.59745 0.12446 0.38095 0.0
C1013 C 0.58237 0.13222 0.43076 0.0
H1014 H 0.62251 0.13462 0.30786 0.0
H1015 H 0.59701 0.10597 0.36499 0.0
S1016 S 0.57865 0.19379 0.49742 0.0
N1017 N 0.59724 0.19607 0.43665 0.0
N1018 N 0.57071 0.16527 0.49993 0.0
C1019 C 0.58343 0.15632 0.45 0.0
C1020 C 0.59771 0.17295 0.4158 0.0
C1021 C 0.56199 0.83105 0.12049 0.0
C1022 C 0.57166 0.85245 0.0962 0.0
C1023 C 0.57608 0.81484 0.15448 0.0
C1024 C 0.60062 0.81906 0.16506 0.0
H1025 H 0.54315 0.82682 0.11417 0.0
H1026 H 0.56758 0.7986 0.1716 0.0
S1027 S 0.63484 0.87249 0.11155 0.0
N1028 N 0.60721 0.87739 0.08577 0.0
N1029 N 0.63417 0.84634 0.14866 0.0
C1030 C 0.61067 0.84045 0.14134 0.0
C1031 C 0.59608 0.85727 0.10715 0.0
C1032 C 0.61286 0.63665 0.54242 0.0
C1033 C 0.60157 0.61795 0.57556 0.0
C1034 C 0.62822 0.65256 0.57391 0.0
C1035 C 0.63192 0.65067 0.63983 0.0
H1036 H 0.60842 0.64004 0.49308 0.0
H1037 H 0.63512 0.66785 0.54784 0.0
S1038 S 0.60876 0.6031 0.74617 0.0
N1039 N 0.59742 0.5966 0.67572 0.0
N1040 N 0.62538 0.62731 0.73563 0.0
C1041 C 0.62236 0.63089 0.67223 0.0
C1042 C 0.60735 0.61426 0.63979 0.0
C1043 C 0.59826 0.36453 0.90417 0.0
C1044 C 0.57374 0.36363 0.88871 0.0
C1045 C 0.61473 0.34895 0.87445 0.0
C1046 C 0.60704 0.33241 0.82805 0.0
H1047 H 0.6045 0.37644 0.94134 0.0
H1048 H 0.63324 0.34897 0.8903 0.0
S1049 S 0.54546 0.32696 0.7622 0.0
N1050 N 0.54314 0.34749 0.81843 0.0
N1051 N 0.57397 0.31871 0.76185 0.0
C1052 C 0.58289 0.33292 0.80881 0.0
C1053 C 0.56623 0.34841 0.83943 0.0
C1054 C 0.87319 0.34552 0.13263 0.0
C1055 C 0.88198 0.32887 0.17747 0.0
C1056 C 0.88897 0.36033 0.09845 0.0
C1057 C 0.91389 0.35848 0.10753 0.0
H1058 H 0.8542 0.34622 0.12143 0.0
H1059 H 0.88177 0.37243 0.06286 0.0
S1060 S 0.94544 0.32097 0.22731 0.0
N1061 N 0.9168 0.31406 0.23546 0.0
N1062 N 0.9464 0.34113 0.16992 0.0
C1063 C 0.92268 0.34305 0.15505 0.0
C1064 C 0.90671 0.32846 0.19049 0.0
C1065 C 0.92294 0.65359 0.36443 0.0
C1066 C 0.91635 0.63201 0.39425 0.0
C1067 C 0.90615 0.66757 0.3321 0.0
C1068 C 0.88188 0.66079 0.32868 0.0
H1069 H 0.94131 0.65995 0.36627 0.0
H1070 H 0.91225 0.68428 0.31135 0.0
S1071 S 0.85555 0.60499 0.39494 0.0
N1072 N 0.88422 0.60359 0.41507 0.0
N1073 N 0.85222 0.63034 0.35498 0.0
C1074 C 0.87506 0.63881 0.3563 0.0
C1075 C 0.8924 0.62432 0.38895 0.0
C1076 C 0.36907 0.35099 0.37035 0.0
C1077 C 0.37728 0.33568 0.32155 0.0
C1078 C 0.38493 0.36678 0.40121 0.0
C1079 C 0.40931 0.36729 0.38429 0.0
H1080 H 0.35079 0.34963 0.38761 0.0
H1081 H 0.37847 0.37746 0.44075 0.0
S1082 S 0.43842 0.33436 0.25162 0.0
N1083 N 0.41033 0.32496 0.25138 0.0
N1084 N 0.44014 0.35386 0.31049 0.0
C1085 C 0.41715 0.35351 0.33237 0.0
C1086 C 0.40108 0.33789 0.30055 0.0
C1087 C 0.41271 0.68319 0.11937 0.0
C1088 C 0.39125 0.67461 0.14623 0.0
C1089 C 0.42846 0.66791 0.08737 0.0
C1090 C 0.4236 0.64328 0.08113 0.0
H1091 H 0.41755 0.70197 0.12314 0.0
H1092 H 0.44492 0.6755 0.06874 0.0
S1093 S 0.36928 0.61186 0.14028 0.0
N1094 N 0.36531 0.64009 0.16222 0.0
N1095 N 0.39529 0.61102 0.1025 0.0
C1096 C 0.40189 0.63445 0.10621 0.0
C1097 C 0.38563 0.65019 0.13869 0.0
C1098 C 0.08135 0.65302 0.93515 0.0
C1099 C 0.08186 0.62827 0.92224 0.0
C1100 C 0.09552 0.66894 0.90081 0.0
C1101 C 0.11109 0.66075 0.85296 0.0
H1102 H 0.06907 0.66037 0.97013 0.0
H1103 H 0.094 0.68795 0.91137 0.0
S1104 S 0.12115 0.5976 0.80476 0.0
N1105 N 0.10046 0.59606 0.86095 0.0
N1106 N 0.12787 0.62636 0.79744 0.0
C1107 C 0.11312 0.63599 0.8422 0.0
C1108 C 0.09832 0.61963 0.87673 0.0
C1109 C 0.06696 0.33731 0.625 0.0
C1110 C 0.07521 0.35872 0.59734 0.0
C1111 C 0.08219 0.32263 0.66033 0.0
C1112 C 0.10654 0.32842 0.66881 0.0
H1113 H 0.04837 0.33188 0.62016 0.0
H1114 H 0.0748 0.30622 0.67982 0.0
S1115 S 0.13706 0.38286 0.60744 0.0
N1116 N 0.10904 0.38562 0.58242 0.0
N1117 N 0.13823 0.35738 0.64763 0.0
C1118 C 0.1151 0.34996 0.64217 0.0
C1119 C 0.09931 0.36525 0.60672 0.0
loop_
_geom_bond_atom_site_label_1
_geom_bond_atom_site_label_2
_geom_bond_distance
_geom_bond_site_symmetry_2
_ccdc_geom_bond_type
In0 O1 2.294 . S
In0 O2 2.326 . S
In0 O6 2.266 . S
In0 O7 2.326 1_455 S
In0 O8 2.266 1_454 S
In0 O9 2.326 1_554 S
In0 O11 2.294 1_455 S
In0 O12 2.326 . S
O1 In0 2.294 . S
O1 C10 1.240 . S
O2 In0 2.326 . S
O2 C10 1.252 . S
C3 O6 1.252 . S
C3 O7 1.260 1_455 S
C4 O11 1.236 1_455 S
C4 O12 1.260 . S
C5 O8 1.235 1_455 S
C5 O9 1.287 . S
O6 In0 2.266 . S
O6 C3 1.252 . S
O7 In0 2.326 1_655 S
O7 C3 1.260 1_655 S
O8 In0 2.266 1_656 S
O8 C5 1.235 1_655 S
O9 In0 2.326 1_556 S
O9 C5 1.287 . S
C10 O1 1.240 . S
C10 O2 1.252 . S
O11 In0 2.294 1_655 S
O11 C4 1.236 1_655 S
O12 In0 2.326 . S
O12 C4 1.260 . S
In13 O14 2.294 . S
In13 O15 2.326 . S
In13 O19 2.266 . S
In13 O20 2.326 . S
In13 O21 2.266 . S
In13 O22 2.326 . S
In13 O24 2.294 . S
In13 O25 2.326 . S
O14 In13 2.294 . S
O14 C23 1.240 . S
O15 In13 2.326 . S
O15 C23 1.252 . S
C16 O19 1.252 . S
C16 O20 1.260 . S
C17 O24 1.240 . S
C17 O25 1.252 . S
C18 O21 1.252 . S
C18 O22 1.260 . S
O19 In13 2.266 . S
O19 C16 1.252 . S
O20 In13 2.326 . S
O20 C16 1.260 . S
O21 In13 2.266 . S
O21 C18 1.252 . S
O22 In13 2.326 . S
O22 C18 1.260 . S
C23 O14 1.240 . S
C23 O15 1.252 . S
O24 In13 2.294 . S
O24 C17 1.240 . S
O25 In13 2.326 . S
O25 C17 1.252 . S
In26 O27 2.294 . S
In26 O28 2.326 . S
In26 O32 2.266 . S
In26 O33 2.326 . S
In26 O34 2.266 . S
In26 O35 2.326 . S
In26 O37 2.294 . S
In26 O38 2.326 . S
O27 In26 2.294 . S
O27 C36 1.240 . S
O28 In26 2.326 . S
O28 C36 1.252 . S
C29 O32 1.252 . S
C29 O33 1.260 . S
C30 O37 1.240 . S
C30 O38 1.252 . S
C31 O34 1.252 . S
C31 O35 1.260 . S
O32 In26 2.266 . S
O32 C29 1.252 . S
O33 In26 2.326 . S
O33 C29 1.260 . S
O34 In26 2.266 . S
O34 C31 1.252 . S
O35 In26 2.326 . S
O35 C31 1.260 . S
C36 O27 1.240 . S
C36 O28 1.252 . S
O37 In26 2.294 . S
O37 C30 1.240 . S
O38 In26 2.326 . S
O38 C30 1.252 . S
In39 O40 2.294 . S
In39 O41 2.326 . S
In39 O45 2.266 . S
In39 O46 2.326 . S
In39 O47 2.266 . S
In39 O48 2.326 . S
In39 O50 2.294 . S
In39 O51 2.326 . S
O40 In39 2.294 . S
O40 C49 1.240 . S
O41 In39 2.326 . S
O41 C49 1.252 . S
C42 O45 1.252 . S
C42 O46 1.260 . S
C43 O50 1.240 . S
C43 O51 1.252 . S
C44 O47 1.252 . S
C44 O48 1.260 . S
O45 In39 2.266 . S
O45 C42 1.252 . S
O46 In39 2.326 . S
O46 C42 1.260 . S
O47 In39 2.266 . S
O47 C44 1.252 . S
O48 In39 2.326 . S
O48 C44 1.260 . S
C49 O40 1.240 . S
C49 O41 1.252 . S
O50 In39 2.294 . S
O50 C43 1.240 . S
O51 In39 2.326 . S
O51 C43 1.252 . S
In52 O53 2.294 . S
In52 O54 2.326 . S
In52 O58 2.266 . S
In52 O59 2.326 1_455 S
In52 O60 2.266 1_455 S
In52 O61 2.326 . S
In52 O63 2.294 1_455 S
In52 O64 2.326 . S
O53 In52 2.294 . S
O53 C62 1.240 . S
O54 In52 2.326 . S
O54 C62 1.252 . S
C55 O58 1.252 . S
C55 O59 1.260 1_455 S
C56 O63 1.236 1_455 S
C56 O64 1.260 . S
C57 O60 1.235 1_455 S
C57 O61 1.287 . S
O58 In52 2.266 . S
O58 C55 1.252 . S
O59 In52 2.326 1_655 S
O59 C55 1.260 1_655 S
O60 In52 2.266 1_655 S
O60 C57 1.235 1_655 S
O61 In52 2.326 . S
O61 C57 1.287 . S
C62 O53 1.240 . S
C62 O54 1.252 . S
O63 In52 2.294 1_655 S
O63 C56 1.236 1_655 S
O64 In52 2.326 . S
O64 C56 1.260 . S
In65 O66 2.294 . S
In65 O67 2.326 . S
In65 O71 2.266 . S
In65 O72 2.326 . S
In65 O73 2.266 . S
In65 O74 2.326 . S
In65 O76 2.294 . S
In65 O77 2.326 . S
O66 In65 2.294 . S
O66 C75 1.240 . S
O67 In65 2.326 . S
O67 C75 1.252 . S
C68 O71 1.252 . S
C68 O72 1.260 . S
C69 O76 1.240 . S
C69 O77 1.252 . S
C70 O73 1.252 . S
C70 O74 1.260 . S
O71 In65 2.266 . S
O71 C68 1.252 . S
O72 In65 2.326 . S
O72 C68 1.260 . S
O73 In65 2.266 . S
O73 C70 1.252 . S
O74 In65 2.326 . S
O74 C70 1.260 . S
C75 O66 1.240 . S
C75 O67 1.252 . S
O76 In65 2.294 . S
O76 C69 1.240 . S
O77 In65 2.326 . S
O77 C69 1.252 . S
In78 O79 2.294 . S
In78 O80 2.326 . S
In78 O84 2.266 1_556 S
In78 O85 2.326 1_556 S
In78 O86 2.266 . S
In78 O87 2.326 . S
In78 O89 2.294 . S
In78 O90 2.326 . S
O79 In78 2.294 . S
O79 C88 1.240 . S
O80 In78 2.326 . S
O80 C88 1.252 . S
C81 O84 1.252 . S
C81 O85 1.260 . S
C82 O89 1.240 . S
C82 O90 1.252 . S
C83 O86 1.252 . S
C83 O87 1.260 . S
O84 In78 2.266 1_554 S
O84 C81 1.252 . S
O85 In78 2.326 1_554 S
O85 C81 1.260 . S
O86 In78 2.266 . S
O86 C83 1.252 . S
O87 In78 2.326 . S
O87 C83 1.260 . S
C88 O79 1.240 . S
C88 O80 1.252 . S
O89 In78 2.294 . S
O89 C82 1.240 . S
O90 In78 2.326 . S
O90 C82 1.252 . S
In91 O92 2.294 . S
In91 O93 2.326 . S
In91 O97 2.266 . S
In91 O98 2.326 . S
In91 O99 2.266 . S
In91 O100 2.326 . S
In91 O102 2.294 . S
In91 O103 2.326 . S
O92 In91 2.294 . S
O92 C101 1.240 . S
O93 In91 2.326 . S
O93 C101 1.252 . S
C94 O97 1.252 . S
C94 O98 1.260 . S
C95 O102 1.240 . S
C95 O103 1.252 . S
C96 O99 1.252 . S
C96 O100 1.260 . S
O97 In91 2.266 . S
O97 C94 1.252 . S
O98 In91 2.326 . S
O98 C94 1.260 . S
O99 In91 2.266 . S
O99 C96 1.252 . S
O100 In91 2.326 . S
O100 C96 1.260 . S
C101 O92 1.240 . S
C101 O93 1.252 . S
O102 In91 2.294 . S
O102 C95 1.240 . S
O103 In91 2.326 . S
O103 C95 1.252 . S
In104 O105 2.294 1_655 S
In104 O106 2.326 . S
In104 O110 2.266 1_656 S
In104 O111 2.326 1_556 S
In104 O112 2.266 . S
In104 O113 2.326 1_655 S
In104 O115 2.294 . S
In104 O116 2.326 . S
O105 In104 2.294 1_455 S
O105 C114 1.236 1_455 S
O106 In104 2.326 . S
O106 C114 1.260 . S
C107 O110 1.235 1_655 S
C107 O111 1.287 . S
C108 O115 1.240 . S
C108 O116 1.252 . S
C109 O112 1.252 . S
C109 O113 1.260 1_655 S
O110 In104 2.266 1_454 S
O110 C107 1.235 1_455 S
O111 In104 2.326 1_554 S
O111 C107 1.287 . S
O112 In104 2.266 . S
O112 C109 1.252 . S
O113 In104 2.326 1_455 S
O113 C109 1.260 1_455 S
C114 O105 1.236 1_655 S
C114 O106 1.260 . S
O115 In104 2.294 . S
O115 C108 1.240 . S
O116 In104 2.326 . S
O116 C108 1.252 . S
In117 O118 2.294 . S
In117 O119 2.326 . S
In117 O123 2.266 . S
In117 O124 2.326 . S
In117 O125 2.266 . S
In117 O126 2.326 . S
In117 O128 2.294 . S
In117 O129 2.326 . S
O118 In117 2.294 . S
O118 C127 1.240 . S
O119 In117 2.326 . S
O119 C127 1.252 . S
C120 O123 1.252 . S
C120 O124 1.260 . S
C121 O128 1.240 . S
C121 O129 1.252 . S
C122 O125 1.252 . S
C122 O126 1.260 . S
O123 In117 2.266 . S
O123 C120 1.252 . S
O124 In117 2.326 . S
O124 C120 1.260 . S
O125 In117 2.266 . S
O125 C122 1.252 . S
O126 In117 2.326 . S
O126 C122 1.260 . S
C127 O118 1.240 . S
C127 O119 1.252 . S
O128 In117 2.294 . S
O128 C121 1.240 . S
O129 In117 2.326 . S
O129 C121 1.252 . S
In130 O131 2.294 . S
In130 O132 2.326 . S
In130 O136 2.266 . S
In130 O137 2.326 . S
In130 O138 2.266 . S
In130 O139 2.326 . S
In130 O141 2.294 . S
In130 O142 2.326 . S
O131 In130 2.294 . S
O131 C140 1.240 . S
O132 In130 2.326 . S
O132 C140 1.252 . S
C133 O136 1.252 . S
C133 O137 1.260 . S
C134 O141 1.240 . S
C134 O142 1.252 . S
C135 O138 1.252 . S
C135 O139 1.260 . S
O136 In130 2.266 . S
O136 C133 1.252 . S
O137 In130 2.326 . S
O137 C133 1.260 . S
O138 In130 2.266 . S
O138 C135 1.252 . S
O139 In130 2.326 . S
O139 C135 1.260 . S
C140 O131 1.240 . S
C140 O132 1.252 . S
O141 In130 2.294 . S
O141 C134 1.240 . S
O142 In130 2.326 . S
O142 C134 1.252 . S
In143 O144 2.294 . S
In143 O145 2.326 . S
In143 O149 2.266 . S
In143 O150 2.326 . S
In143 O151 2.266 . S
In143 O152 2.326 . S
In143 O154 2.294 . S
In143 O155 2.326 . S
O144 In143 2.294 . S
O144 C153 1.240 . S
O145 In143 2.326 . S
O145 C153 1.252 . S
C146 O149 1.252 . S
C146 O150 1.260 . S
C147 O154 1.240 . S
C147 O155 1.252 . S
C148 O151 1.252 . S
C148 O152 1.260 . S
O149 In143 2.266 . S
O149 C146 1.252 . S
O150 In143 2.326 . S
O150 C146 1.260 . S
O151 In143 2.266 . S
O151 C148 1.252 . S
O152 In143 2.326 . S
O152 C148 1.260 . S
C153 O144 1.240 . S
C153 O145 1.252 . S
O154 In143 2.294 . S
O154 C147 1.240 . S
O155 In143 2.326 . S
O155 C147 1.252 . S
In156 O157 2.294 . S
In156 O158 2.326 . S
In156 O162 2.266 . S
In156 O163 2.326 1_655 S
In156 O164 2.266 1_655 S
In156 O165 2.326 . S
In156 O167 2.294 1_655 S
In156 O168 2.326 . S
O157 In156 2.294 . S
O157 C166 1.240 . S
O158 In156 2.326 . S
O158 C166 1.252 . S
C159 O162 1.252 . S
C159 O163 1.260 1_655 S
C160 O167 1.236 1_655 S
C160 O168 1.260 . S
C161 O164 1.235 1_655 S
C161 O165 1.287 . S
O162 In156 2.266 . S
O162 C159 1.252 . S
O163 In156 2.326 1_455 S
O163 C159 1.260 1_455 S
O164 In156 2.266 1_455 S
O164 C161 1.235 1_455 S
O165 In156 2.326 . S
O165 C161 1.287 . S
C166 O157 1.240 . S
C166 O158 1.252 . S
O167 In156 2.294 1_455 S
O167 C160 1.236 1_455 S
O168 In156 2.326 . S
O168 C160 1.260 . S
In169 O170 2.294 . S
In169 O171 2.326 . S
In169 O175 2.266 . S
In169 O176 2.326 . S
In169 O177 2.266 . S
In169 O178 2.326 . S
In169 O180 2.294 . S
In169 O181 2.326 . S
O170 In169 2.294 . S
O170 C179 1.240 . S
O171 In169 2.326 . S
O171 C179 1.252 . S
C172 O175 1.252 . S
C172 O176 1.260 . S
C173 O180 1.240 . S
C173 O181 1.252 . S
C174 O177 1.252 . S
C174 O178 1.260 . S
O175 In169 2.266 . S
O175 C172 1.252 . S
O176 In169 2.326 . S
O176 C172 1.260 . S
O177 In169 2.266 . S
O177 C174 1.252 . S
O178 In169 2.326 . S
O178 C174 1.260 . S
C179 O170 1.240 . S
C179 O171 1.252 . S
O180 In169 2.294 . S
O180 C173 1.240 . S
O181 In169 2.326 . S
O181 C173 1.252 . S
In182 O183 2.294 . S
In182 O184 2.326 . S
In182 O188 2.266 1_554 S
In182 O189 2.326 1_554 S
In182 O190 2.266 . S
In182 O191 2.326 . S
In182 O193 2.294 . S
In182 O194 2.326 . S
O183 In182 2.294 . S
O183 C192 1.240 . S
O184 In182 2.326 . S
O184 C192 1.252 . S
C185 O188 1.252 . S
C185 O189 1.260 . S
C186 O193 1.240 . S
C186 O194 1.252 . S
C187 O190 1.252 . S
C187 O191 1.260 . S
O188 In182 2.266 1_556 S
O188 C185 1.252 . S
O189 In182 2.326 1_556 S
O189 C185 1.260 . S
O190 In182 2.266 . S
O190 C187 1.252 . S
O191 In182 2.326 . S
O191 C187 1.260 . S
C192 O183 1.240 . S
C192 O184 1.252 . S
O193 In182 2.294 . S
O193 C186 1.240 . S
O194 In182 2.326 . S
O194 C186 1.252 . S
In195 O196 2.294 . S
In195 O197 2.326 . S
In195 O201 2.266 . S
In195 O202 2.326 . S
In195 O203 2.266 . S
In195 O204 2.326 . S
In195 O206 2.294 . S
In195 O207 2.326 . S
O196 In195 2.294 . S
O196 C205 1.240 . S
O197 In195 2.326 . S
O197 C205 1.252 . S
C198 O201 1.252 . S
C198 O202 1.260 . S
C199 O206 1.240 . S
C199 O207 1.252 . S
C200 O203 1.252 . S
C200 O204 1.260 . S
O201 In195 2.266 . S
O201 C198 1.252 . S
O202 In195 2.326 . S
O202 C198 1.260 . S
O203 In195 2.266 . S
O203 C200 1.252 . S
O204 In195 2.326 . S
O204 C200 1.260 . S
C205 O196 1.240 . S
C205 O197 1.252 . S
O206 In195 2.294 . S
O206 C199 1.240 . S
O207 In195 2.326 . S
O207 C199 1.252 . S
In208 O209 2.294 . S
In208 O210 2.326 . S
In208 O214 2.266 . S
In208 O215 2.326 . S
In208 O216 2.266 . S
In208 O217 2.326 . S
In208 O219 2.294 . S
In208 O220 2.326 . S
O209 In208 2.294 . S
O209 C218 1.240 . S
O210 In208 2.326 . S
O210 C218 1.252 . S
C211 O214 1.252 . S
C211 O215 1.260 . S
C212 O219 1.240 . S
C212 O220 1.252 . S
C213 O216 1.252 . S
C213 O217 1.260 . S
O214 In208 2.266 . S
O214 C211 1.252 . S
O215 In208 2.326 . S
O215 C211 1.260 . S
O216 In208 2.266 . S
O216 C213 1.252 . S
O217 In208 2.326 . S
O217 C213 1.260 . S
C218 O209 1.240 . S
C218 O210 1.252 . S
O219 In208 2.294 . S
O219 C212 1.240 . S
O220 In208 2.326 . S
O220 C212 1.252 . S
In221 O222 2.294 . S
In221 O223 2.326 . S
In221 O227 2.266 . S
In221 O228 2.326 . S
In221 O229 2.266 . S
In221 O230 2.326 . S
In221 O232 2.294 . S
In221 O233 2.326 . S
O222 In221 2.294 . S
O222 C231 1.240 . S
O223 In221 2.326 . S
O223 C231 1.252 . S
C224 O227 1.252 . S
C224 O228 1.260 . S
C225 O232 1.240 . S
C225 O233 1.252 . S
C226 O229 1.252 . S
C226 O230 1.260 . S
O227 In221 2.266 . S
O227 C224 1.252 . S
O228 In221 2.326 . S
O228 C224 1.260 . S
O229 In221 2.266 . S
O229 C226 1.252 . S
O230 In221 2.326 . S
O230 C226 1.260 . S
C231 O222 1.240 . S
C231 O223 1.252 . S
O232 In221 2.294 . S
O232 C225 1.240 . S
O233 In221 2.326 . S
O233 C225 1.252 . S
In234 O235 2.294 1_655 S
In234 O236 2.326 . S
In234 O240 2.266 1_654 S
In234 O241 2.326 1_554 S
In234 O242 2.266 . S
In234 O243 2.326 1_655 S
In234 O245 2.294 . S
In234 O246 2.326 . S
O235 In234 2.294 1_455 S
O235 C244 1.235 1_455 S
O236 In234 2.326 . S
O236 C244 1.260 . S
C237 O240 1.235 1_655 S
C237 O241 1.287 . S
C238 O245 1.240 . S
C238 O246 1.252 . S
C239 O242 1.252 . S
C239 O243 1.260 1_655 S
O240 In234 2.266 1_456 S
O240 C237 1.235 1_455 S
O241 In234 2.326 1_556 S
O241 C237 1.287 . S
O242 In234 2.266 . S
O242 C239 1.252 . S
O243 In234 2.326 1_455 S
O243 C239 1.260 1_455 S
C244 O235 1.235 1_655 S
C244 O236 1.260 . S
O245 In234 2.294 . S
O245 C238 1.240 . S
O246 In234 2.326 . S
O246 C238 1.252 . S
In247 O248 2.294 . S
In247 O249 2.326 . S
In247 O253 2.266 . S
In247 O254 2.326 . S
In247 O255 2.266 . S
In247 O256 2.326 . S
In247 O258 2.294 . S
In247 O259 2.326 . S
O248 In247 2.294 . S
O248 C257 1.240 . S
O249 In247 2.326 . S
O249 C257 1.252 . S
C250 O253 1.252 . S
C250 O254 1.260 . S
C251 O258 1.240 . S
C251 O259 1.252 . S
C252 O255 1.252 . S
C252 O256 1.260 . S
O253 In247 2.266 . S
O253 C250 1.252 . S
O254 In247 2.326 . S
O254 C250 1.260 . S
O255 In247 2.266 . S
O255 C252 1.252 . S
O256 In247 2.326 . S
O256 C252 1.260 . S
C257 O248 1.240 . S
C257 O249 1.252 . S
O258 In247 2.294 . S
O258 C251 1.240 . S
O259 In247 2.326 . S
O259 C251 1.252 . S
In260 O261 2.294 . S
In260 O262 2.326 . S
In260 O266 2.266 . S
In260 O267 2.326 . S
In260 O268 2.266 1_556 S
In260 O269 2.326 1_556 S
In260 O271 2.294 . S
In260 O272 2.326 . S
O261 In260 2.294 . S
O261 C270 1.240 . S
O262 In260 2.326 . S
O262 C270 1.252 . S
C263 O266 1.252 . S
C263 O267 1.260 . S
C264 O271 1.240 . S
C264 O272 1.252 . S
C265 O268 1.252 . S
C265 O269 1.260 . S
O266 In260 2.266 . S
O266 C263 1.252 . S
O267 In260 2.326 . S
O267 C263 1.260 . S
O268 In260 2.266 1_554 S
O268 C265 1.252 . S
O269 In260 2.326 1_554 S
O269 C265 1.260 . S
C270 O261 1.240 . S
C270 O262 1.252 . S
O271 In260 2.294 . S
O271 C264 1.240 . S
O272 In260 2.326 . S
O272 C264 1.252 . S
In273 O274 2.294 . S
In273 O275 2.326 . S
In273 O279 2.266 . S
In273 O280 2.326 . S
In273 O281 2.266 . S
In273 O282 2.326 . S
In273 O284 2.294 . S
In273 O285 2.326 . S
O274 In273 2.294 . S
O274 C283 1.240 . S
O275 In273 2.326 . S
O275 C283 1.252 . S
C276 O279 1.252 . S
C276 O280 1.260 . S
C277 O284 1.240 . S
C277 O285 1.252 . S
C278 O281 1.252 . S
C278 O282 1.260 . S
O279 In273 2.266 . S
O279 C276 1.252 . S
O280 In273 2.326 . S
O280 C276 1.260 . S
O281 In273 2.266 . S
O281 C278 1.252 . S
O282 In273 2.326 . S
O282 C278 1.260 . S
C283 O274 1.240 . S
C283 O275 1.252 . S
O284 In273 2.294 . S
O284 C277 1.240 . S
O285 In273 2.326 . S
O285 C277 1.252 . S
In286 O287 2.294 . S
In286 O288 2.326 . S
In286 O292 2.266 . S
In286 O293 2.326 1_655 S
In286 O294 2.266 1_655 S
In286 O295 2.326 . S
In286 O297 2.294 1_655 S
In286 O298 2.326 . S
O287 In286 2.294 . S
O287 C296 1.240 . S
O288 In286 2.326 . S
O288 C296 1.252 . S
C289 O292 1.252 . S
C289 O293 1.260 1_655 S
C290 O297 1.236 1_655 S
C290 O298 1.259 . S
C291 O294 1.236 1_655 S
C291 O295 1.286 . S
O292 In286 2.266 . S
O292 C289 1.252 . S
O293 In286 2.326 1_455 S
O293 C289 1.260 1_455 S
O294 In286 2.266 1_455 S
O294 C291 1.236 1_455 S
O295 In286 2.326 . S
O295 C291 1.286 . S
C296 O287 1.240 . S
C296 O288 1.252 . S
O297 In286 2.294 1_455 S
O297 C290 1.236 1_455 S
O298 In286 2.326 . S
O298 C290 1.259 . S
In299 O300 2.294 . S
In299 O301 2.326 . S
In299 O305 2.266 . S
In299 O306 2.326 . S
In299 O307 2.266 . S
In299 O308 2.326 . S
In299 O310 2.294 . S
In299 O311 2.326 . S
O300 In299 2.294 . S
O300 C309 1.240 . S
O301 In299 2.326 . S
O301 C309 1.252 . S
C302 O305 1.252 . S
C302 O306 1.260 . S
C303 O310 1.240 . S
C303 O311 1.252 . S
C304 O307 1.252 . S
C304 O308 1.260 . S
O305 In299 2.266 . S
O305 C302 1.252 . S
O306 In299 2.326 . S
O306 C302 1.260 . S
O307 In299 2.266 . S
O307 C304 1.252 . S
O308 In299 2.326 . S
O308 C304 1.260 . S
C309 O300 1.240 . S
C309 O301 1.252 . S
O310 In299 2.294 . S
O310 C303 1.240 . S
O311 In299 2.326 . S
O311 C303 1.252 . S
In312 O313 2.294 . S
In312 O314 2.326 . S
In312 O318 2.266 . S
In312 O319 2.326 . S
In312 O320 2.266 . S
In312 O321 2.326 . S
In312 O323 2.294 . S
In312 O324 2.326 . S
O313 In312 2.294 . S
O313 C322 1.240 . S
O314 In312 2.326 . S
O314 C322 1.252 . S
C315 O318 1.252 . S
C315 O319 1.260 . S
C316 O323 1.240 . S
C316 O324 1.252 . S
C317 O320 1.252 . S
C317 O321 1.260 . S
O318 In312 2.266 . S
O318 C315 1.252 . S
O319 In312 2.326 . S
O319 C315 1.260 . S
O320 In312 2.266 . S
O320 C317 1.252 . S
O321 In312 2.326 . S
O321 C317 1.260 . S
C322 O313 1.240 . S
C322 O314 1.252 . S
O323 In312 2.294 . S
O323 C316 1.240 . S
O324 In312 2.326 . S
O324 C316 1.252 . S
In325 O326 2.294 . S
In325 O327 2.326 . S
In325 O331 2.266 . S
In325 O332 2.326 . S
In325 O333 2.266 . S
In325 O334 2.326 . S
In325 O336 2.294 . S
In325 O337 2.326 . S
O326 In325 2.294 . S
O326 C335 1.240 . S
O327 In325 2.326 . S
O327 C335 1.252 . S
C328 O331 1.252 . S
C328 O332 1.260 . S
C329 O336 1.240 . S
C329 O337 1.252 . S
C330 O333 1.252 . S
C330 O334 1.260 . S
O331 In325 2.266 . S
O331 C328 1.252 . S
O332 In325 2.326 . S
O332 C328 1.260 . S
O333 In325 2.266 . S
O333 C330 1.252 . S
O334 In325 2.326 . S
O334 C330 1.260 . S
C335 O326 1.240 . S
C335 O327 1.252 . S
O336 In325 2.294 . S
O336 C329 1.240 . S
O337 In325 2.326 . S
O337 C329 1.252 . S
In338 O339 2.294 . S
In338 O340 2.326 . S
In338 O344 2.266 . S
In338 O345 2.326 1_455 S
In338 O346 2.266 1_456 S
In338 O347 2.326 1_556 S
In338 O349 2.294 1_455 S
In338 O350 2.326 . S
O339 In338 2.294 . S
O339 C348 1.240 . S
O340 In338 2.326 . S
O340 C348 1.252 . S
C341 O344 1.252 . S
C341 O345 1.260 1_455 S
C342 O349 1.235 1_455 S
C342 O350 1.260 . S
C343 O346 1.235 1_455 S
C343 O347 1.287 . S
O344 In338 2.266 . S
O344 C341 1.252 . S
O345 In338 2.326 1_655 S
O345 C341 1.260 1_655 S
O346 In338 2.266 1_654 S
O346 C343 1.235 1_655 S
O347 In338 2.326 1_554 S
O347 C343 1.287 . S
C348 O339 1.240 . S
C348 O340 1.252 . S
O349 In338 2.294 1_655 S
O349 C342 1.235 1_655 S
O350 In338 2.326 . S
O350 C342 1.260 . S
In351 O352 2.294 . S
In351 O353 2.326 . S
In351 O357 2.266 . S
In351 O358 2.326 . S
In351 O359 2.266 . S
In351 O360 2.326 . S
In351 O362 2.294 . S
In351 O363 2.326 . S
O352 In351 2.294 . S
O352 C361 1.240 . S
O353 In351 2.326 . S
O353 C361 1.252 . S
C354 O357 1.252 . S
C354 O358 1.260 . S
C355 O362 1.240 . S
C355 O363 1.252 . S
C356 O359 1.252 . S
C356 O360 1.260 . S
O357 In351 2.266 . S
O357 C354 1.252 . S
O358 In351 2.326 . S
O358 C354 1.260 . S
O359 In351 2.266 . S
O359 C356 1.252 . S
O360 In351 2.326 . S
O360 C356 1.260 . S
C361 O352 1.240 . S
C361 O353 1.252 . S
O362 In351 2.294 . S
O362 C355 1.240 . S
O363 In351 2.326 . S
O363 C355 1.252 . S
In364 O365 2.294 . S
In364 O366 2.326 . S
In364 O370 2.266 . S
In364 O371 2.326 . S
In364 O372 2.266 1_554 S
In364 O373 2.326 1_554 S
In364 O375 2.294 . S
In364 O376 2.326 . S
O365 In364 2.294 . S
O365 C374 1.240 . S
O366 In364 2.326 . S
O366 C374 1.252 . S
C367 O370 1.252 . S
C367 O371 1.260 . S
C368 O375 1.240 . S
C368 O376 1.252 . S
C369 O372 1.252 . S
C369 O373 1.260 . S
O370 In364 2.266 . S
O370 C367 1.252 . S
O371 In364 2.326 . S
O371 C367 1.260 . S
O372 In364 2.266 1_556 S
O372 C369 1.252 . S
O373 In364 2.326 1_556 S
O373 C369 1.260 . S
C374 O365 1.240 . S
C374 O366 1.252 . S
O375 In364 2.294 . S
O375 C368 1.240 . S
O376 In364 2.326 . S
O376 C368 1.252 . S
In377 O378 2.294 . S
In377 O379 2.326 . S
In377 O383 2.266 . S
In377 O384 2.326 . S
In377 O385 2.266 . S
In377 O386 2.326 . S
In377 O388 2.294 . S
In377 O389 2.326 . S
O378 In377 2.294 . S
O378 C387 1.240 . S
O379 In377 2.326 . S
O379 C387 1.252 . S
C380 O383 1.252 . S
C380 O384 1.260 . S
C381 O388 1.240 . S
C381 O389 1.252 . S
C382 O385 1.252 . S
C382 O386 1.260 . S
O383 In377 2.266 . S
O383 C380 1.252 . S
O384 In377 2.326 . S
O384 C380 1.260 . S
O385 In377 2.266 . S
O385 C382 1.252 . S
O386 In377 2.326 . S
O386 C382 1.260 . S
C387 O378 1.240 . S
C387 O379 1.252 . S
O388 In377 2.294 . S
O388 C381 1.240 . S
O389 In377 2.326 . S
O389 C381 1.252 . S
In390 O391 2.294 1_455 S
In390 O392 2.326 . S
In390 O396 2.266 1_455 S
In390 O397 2.326 . S
In390 O398 2.266 . S
In390 O399 2.326 1_455 S
In390 O401 2.294 . S
In390 O402 2.326 . S
O391 In390 2.294 1_655 S
O391 C400 1.236 1_655 S
O392 In390 2.326 . S
O392 C400 1.259 . S
C393 O396 1.236 1_455 S
C393 O397 1.286 . S
C394 O401 1.240 . S
C394 O402 1.252 . S
C395 O398 1.252 . S
C395 O399 1.260 1_455 S
O396 In390 2.266 1_655 S
O396 C393 1.236 1_655 S
O397 In390 2.326 . S
O397 C393 1.286 . S
O398 In390 2.266 . S
O398 C395 1.252 . S
O399 In390 2.326 1_655 S
O399 C395 1.260 1_655 S
C400 O391 1.236 1_455 S
C400 O392 1.259 . S
O401 In390 2.294 . S
O401 C394 1.240 . S
O402 In390 2.326 . S
O402 C394 1.252 . S
In403 O404 2.294 . S
In403 O405 2.326 . S
In403 O409 2.266 . S
In403 O410 2.326 . S
In403 O411 2.266 . S
In403 O412 2.326 . S
In403 O414 2.294 . S
In403 O415 2.326 . S
O404 In403 2.294 . S
O404 C413 1.240 . S
O405 In403 2.326 . S
O405 C413 1.252 . S
C406 O409 1.252 . S
C406 O410 1.260 . S
C407 O414 1.240 . S
C407 O415 1.252 . S
C408 O411 1.252 . S
C408 O412 1.260 . S
O409 In403 2.266 . S
O409 C406 1.252 . S
O410 In403 2.326 . S
O410 C406 1.260 . S
O411 In403 2.266 . S
O411 C408 1.252 . S
O412 In403 2.326 . S
O412 C408 1.260 . S
C413 O404 1.240 . S
C413 O405 1.252 . S
O414 In403 2.294 . S
O414 C407 1.240 . S
O415 In403 2.326 . S
O415 C407 1.252 . S
C416 C417 1.369 1_655 S
C416 C418 1.419 . S
C416 H420 0.930 . S
C417 C416 1.369 1_455 S
C417 C426 1.429 . S
C418 C416 1.419 . S
C418 C419 1.363 . S
C418 H421 0.929 . S
C419 C418 1.363 . S
C419 C425 1.428 1_655 S
H420 C416 0.930 . S
H421 C418 0.929 . S
S422 N423 1.613 . S
S422 N424 1.610 . S
N423 S422 1.613 . S
N423 C426 1.350 . S
N424 S422 1.610 . S
N424 C425 1.351 . S
C425 C419 1.428 1_455 S
C425 N424 1.351 . S
C425 C426 1.434 . S
C426 C417 1.429 . S
C426 N423 1.350 . S
C426 C425 1.434 . S
C427 C428 1.369 1_554 S
C427 C429 1.419 . S
C427 H431 0.930 . S
C428 C427 1.369 1_556 S
C428 C437 1.429 1_556 S
C429 C427 1.419 . S
C429 C430 1.363 . S
C429 H432 0.929 . S
C430 C429 1.363 . S
C430 C436 1.428 . S
H431 C427 0.930 . S
H432 C429 0.929 . S
S433 N434 1.613 1_554 S
S433 N435 1.610 . S
N434 S433 1.613 1_556 S
N434 C437 1.350 1_556 S
N435 S433 1.610 . S
N435 C436 1.351 . S
C436 C430 1.428 . S
C436 N435 1.351 . S
C436 C437 1.434 . S
C437 C428 1.429 1_554 S
C437 N434 1.350 1_554 S
C437 C436 1.434 . S
C438 C439 1.369 . S
C438 C440 1.419 . S
C438 H442 0.930 . S
C439 C438 1.369 . S
C439 C448 1.429 . S
C440 C438 1.419 . S
C440 C441 1.363 . S
C440 H443 0.929 . S
C441 C440 1.363 . S
C441 C447 1.428 . S
H442 C438 0.930 . S
H443 C440 0.929 . S
S444 N445 1.613 . S
S444 N446 1.610 . S
N445 S444 1.613 . S
N445 C448 1.350 . S
N446 S444 1.610 . S
N446 C447 1.351 . S
C447 C441 1.428 . S
C447 N446 1.351 . S
C447 C448 1.434 . S
C448 C439 1.429 . S
C448 N445 1.350 . S
C448 C447 1.434 . S
C449 C450 1.369 . S
C449 C451 1.419 . S
C449 H453 0.930 . S
C450 C449 1.369 . S
C450 C459 1.429 . S
C451 C449 1.419 . S
C451 C452 1.363 . S
C451 H454 0.929 . S
C452 C451 1.363 . S
C452 C458 1.428 . S
H453 C449 0.930 . S
H454 C451 0.929 . S
S455 N456 1.613 . S
S455 N457 1.610 . S
N456 S455 1.613 . S
N456 C459 1.350 . S
N457 S455 1.610 . S
N457 C458 1.351 . S
C458 C452 1.428 . S
C458 N457 1.351 . S
C458 C459 1.434 . S
C459 C450 1.429 . S
C459 N456 1.350 . S
C459 C458 1.434 . S
C460 C461 1.369 1_655 S
C460 C462 1.419 . S
C460 H464 0.930 . S
C461 C460 1.369 1_455 S
C461 C470 1.429 . S
C462 C460 1.419 . S
C462 C463 1.363 . S
C462 H465 0.929 . S
C463 C462 1.363 . S
C463 C469 1.428 1_655 S
H464 C460 0.930 . S
H465 C462 0.929 . S
S466 N467 1.613 . S
S466 N468 1.610 . S
N467 S466 1.613 . S
N467 C470 1.350 . S
N468 S466 1.610 . S
N468 C469 1.351 . S
C469 C463 1.428 1_455 S
C469 N468 1.351 . S
C469 C470 1.434 . S
C470 C461 1.429 . S
C470 N467 1.350 . S
C470 C469 1.434 . S
C471 C472 1.369 . S
C471 C473 1.419 . S
C471 H475 0.930 . S
C472 C471 1.369 . S
C472 C481 1.429 . S
C473 C471 1.419 . S
C473 C474 1.363 1_556 S
C473 H476 0.929 . S
C474 C473 1.363 1_554 S
C474 C480 1.428 1_554 S
H475 C471 0.930 . S
H476 C473 0.929 . S
S477 N478 1.613 . S
S477 N479 1.610 . S
N478 S477 1.613 . S
N478 C481 1.350 . S
N479 S477 1.610 . S
N479 C480 1.351 . S
C480 C474 1.428 1_556 S
C480 N479 1.351 . S
C480 C481 1.434 . S
C481 C472 1.429 . S
C481 N478 1.350 . S
C481 C480 1.434 . S
C482 C483 1.369 . S
C482 C484 1.419 . S
C482 H486 0.930 . S
C483 C482 1.369 . S
C483 C492 1.429 . S
C484 C482 1.419 . S
C484 C485 1.363 . S
C484 H487 0.929 . S
C485 C484 1.363 . S
C485 C491 1.428 . S
H486 C482 0.930 . S
H487 C484 0.929 . S
S488 N489 1.613 . S
S488 N490 1.610 . S
N489 S488 1.613 . S
N489 C492 1.350 . S
N490 S488 1.610 . S
N490 C491 1.351 . S
C491 C485 1.428 . S
C491 N490 1.351 . S
C491 C492 1.434 . S
C492 C483 1.429 . S
C492 N489 1.350 . S
C492 C491 1.434 . S
C493 C494 1.369 . S
C493 C495 1.419 . S
C493 H497 0.930 . S
C494 C493 1.369 . S
C494 C503 1.429 . S
C495 C493 1.419 . S
C495 C496 1.363 . S
C495 H498 0.929 . S
C496 C495 1.363 . S
C496 C502 1.428 . S
H497 C493 0.930 . S
H498 C495 0.929 . S
S499 N500 1.613 . S
S499 N501 1.610 . S
N500 S499 1.613 . S
N500 C503 1.350 . S
N501 S499 1.610 . S
N501 C502 1.351 . S
C502 C496 1.428 . S
C502 N501 1.351 . S
C502 C503 1.434 . S
C503 C494 1.429 . S
C503 N500 1.350 . S
C503 C502 1.434 . S
C504 C505 1.369 . S
C504 C506 1.422 . S
C504 H508 0.930 . S
C505 C504 1.369 . S
C505 C514 1.432 . S
C506 C504 1.422 . S
C506 C507 1.359 1_655 S
C506 H509 0.931 . S
C507 C506 1.359 1_455 S
C507 C513 1.428 . S
H508 C504 0.930 . S
H509 C506 0.931 . S
S510 N511 1.613 1_455 S
S510 N512 1.610 . S
N511 S510 1.613 1_655 S
N511 C514 1.351 . S
N512 S510 1.610 . S
N512 C513 1.351 . S
C513 C507 1.428 . S
C513 N512 1.351 . S
C513 C514 1.431 1_455 S
C514 C505 1.432 . S
C514 N511 1.351 . S
C514 C513 1.431 1_655 S
C515 C516 1.369 1_556 S
C515 C517 1.419 . S
C515 H519 0.930 . S
C516 C515 1.369 1_554 S
C516 C525 1.429 1_554 S
C517 C515 1.419 . S
C517 C518 1.363 . S
C517 H520 0.929 . S
C518 C517 1.363 . S
C518 C524 1.428 . S
H519 C515 0.930 . S
H520 C517 0.929 . S
S521 N522 1.613 1_556 S
S521 N523 1.610 . S
N522 S521 1.613 1_554 S
N522 C525 1.350 1_554 S
N523 S521 1.610 . S
N523 C524 1.351 . S
C524 C518 1.428 . S
C524 N523 1.351 . S
C524 C525 1.434 . S
C525 C516 1.429 1_556 S
C525 N522 1.350 1_556 S
C525 C524 1.434 . S
C526 C527 1.369 . S
C526 C528 1.419 . S
C526 H530 0.930 . S
C527 C526 1.369 . S
C527 C536 1.429 . S
C528 C526 1.419 . S
C528 C529 1.363 . S
C528 H531 0.929 . S
C529 C528 1.363 . S
C529 C535 1.428 . S
H530 C526 0.930 . S
H531 C528 0.929 . S
S532 N533 1.613 . S
S532 N534 1.610 . S
N533 S532 1.613 . S
N533 C536 1.350 . S
N534 S532 1.610 . S
N534 C535 1.351 . S
C535 C529 1.428 . S
C535 N534 1.351 . S
C535 C536 1.434 . S
C536 C527 1.429 . S
C536 N533 1.350 . S
C536 C535 1.434 . S
C537 C538 1.369 . S
C537 C539 1.419 . S
C537 H541 0.930 . S
C538 C537 1.369 . S
C538 C547 1.429 . S
C539 C537 1.419 . S
C539 C540 1.363 . S
C539 H542 0.929 . S
C540 C539 1.363 . S
C540 C546 1.428 . S
H541 C537 0.930 . S
H542 C539 0.929 . S
S543 N544 1.613 . S
S543 N545 1.610 . S
N544 S543 1.613 . S
N544 C547 1.350 . S
N545 S543 1.610 . S
N545 C546 1.351 . S
C546 C540 1.428 . S
C546 N545 1.351 . S
C546 C547 1.434 . S
C547 C538 1.429 . S
C547 N544 1.350 . S
C547 C546 1.434 . S
C548 C549 1.369 1_655 S
C548 C550 1.419 . S
C548 H552 0.930 . S
C549 C548 1.369 1_455 S
C549 C558 1.429 . S
C550 C548 1.419 . S
C550 C551 1.363 . S
C550 H553 0.929 . S
C551 C550 1.363 . S
C551 C557 1.428 1_655 S
H552 C548 0.930 . S
H553 C550 0.929 . S
S554 N555 1.613 . S
S554 N556 1.610 . S
N555 S554 1.613 . S
N555 C558 1.350 . S
N556 S554 1.610 . S
N556 C557 1.351 . S
C557 C551 1.428 1_455 S
C557 N556 1.351 . S
C557 C558 1.434 . S
C558 C549 1.429 . S
C558 N555 1.350 . S
C558 C557 1.434 . S
C559 C560 1.369 . S
C559 C561 1.419 . S
C559 H563 0.930 . S
C560 C559 1.369 . S
C560 C569 1.429 . S
C561 C559 1.419 . S
C561 C562 1.363 1_554 S
C561 H564 0.929 . S
C562 C561 1.363 1_556 S
C562 C568 1.428 1_556 S
H563 C559 0.930 . S
H564 C561 0.929 . S
S565 N566 1.613 . S
S565 N567 1.610 . S
N566 S565 1.613 . S
N566 C569 1.350 . S
N567 S565 1.610 . S
N567 C568 1.351 . S
C568 C562 1.428 1_554 S
C568 N567 1.351 . S
C568 C569 1.434 . S
C569 C560 1.429 . S
C569 N566 1.350 . S
C569 C568 1.434 . S
C570 C571 1.369 . S
C570 C572 1.419 . S
C570 H574 0.930 . S
C571 C570 1.369 . S
C571 C580 1.429 . S
C572 C570 1.419 . S
C572 C573 1.363 . S
C572 H575 0.929 . S
C573 C572 1.363 . S
C573 C579 1.428 . S
H574 C570 0.930 . S
H575 C572 0.929 . S
S576 N577 1.613 . S
S576 N578 1.610 . S
N577 S576 1.613 . S
N577 C580 1.350 . S
N578 S576 1.610 . S
N578 C579 1.351 . S
C579 C573 1.428 . S
C579 N578 1.351 . S
C579 C580 1.434 . S
C580 C571 1.429 . S
C580 N577 1.350 . S
C580 C579 1.434 . S
C581 C582 1.369 . S
C581 C583 1.419 . S
C581 H585 0.930 . S
C582 C581 1.369 . S
C582 C591 1.429 . S
C583 C581 1.419 . S
C583 C584 1.363 . S
C583 H586 0.929 . S
C584 C583 1.363 . S
C584 C590 1.428 . S
H585 C581 0.930 . S
H586 C583 0.929 . S
S587 N588 1.613 . S
S587 N589 1.610 . S
N588 S587 1.613 . S
N588 C591 1.350 . S
N589 S587 1.610 . S
N589 C590 1.351 . S
C590 C584 1.428 . S
C590 N589 1.351 . S
C590 C591 1.434 . S
C591 C582 1.429 . S
C591 N588 1.350 . S
C591 C590 1.434 . S
C592 C593 1.369 . S
C592 C594 1.419 . S
C592 H596 0.930 . S
C593 C592 1.369 . S
C593 C602 1.429 . S
C594 C592 1.419 . S
C594 C595 1.363 . S
C594 H597 0.929 . S
C595 C594 1.363 . S
C595 C601 1.428 . S
H596 C592 0.930 . S
H597 C594 0.929 . S
S598 N599 1.613 . S
S598 N600 1.610 . S
N599 S598 1.613 . S
N599 C602 1.350 . S
N600 S598 1.610 . S
N600 C601 1.351 . S
C601 C595 1.428 . S
C601 N600 1.351 . S
C601 C602 1.434 . S
C602 C593 1.429 . S
C602 N599 1.350 . S
C602 C601 1.434 . S
C603 C604 1.369 . S
C603 C605 1.419 . S
C603 H607 0.930 . S
C604 C603 1.369 . S
C604 C613 1.429 . S
C605 C603 1.419 . S
C605 C606 1.363 . S
C605 H608 0.929 . S
C606 C605 1.363 . S
C606 C612 1.428 . S
H607 C603 0.930 . S
H608 C605 0.929 . S
S609 N610 1.613 . S
S609 N611 1.610 . S
N610 S609 1.613 . S
N610 C613 1.350 . S
N611 S609 1.610 . S
N611 C612 1.351 . S
C612 C606 1.428 . S
C612 N611 1.351 . S
C612 C613 1.434 . S
C613 C604 1.429 . S
C613 N610 1.350 . S
C613 C612 1.434 . S
C614 C615 1.369 . S
C614 C616 1.419 . S
C614 H618 0.930 . S
C615 C614 1.369 . S
C615 C624 1.429 1_655 S
C616 C614 1.419 . S
C616 C617 1.363 1_655 S
C616 H619 0.929 . S
C617 C616 1.363 1_455 S
C617 C623 1.428 . S
H618 C614 0.930 . S
H619 C616 0.929 . S
S620 N621 1.613 . S
S620 N622 1.610 . S
N621 S620 1.613 . S
N621 C624 1.350 . S
N622 S620 1.610 . S
N622 C623 1.351 . S
C623 C617 1.428 . S
C623 N622 1.351 . S
C623 C624 1.434 . S
C624 C615 1.429 1_455 S
C624 N621 1.350 . S
C624 C623 1.434 . S
C625 C626 1.369 . S
C625 C627 1.419 . S
C625 H629 0.930 . S
C626 C625 1.369 . S
C626 C635 1.429 . S
C627 C625 1.419 . S
C627 C628 1.363 1_554 S
C627 H630 0.929 . S
C628 C627 1.363 1_556 S
C628 C634 1.428 1_556 S
H629 C625 0.930 . S
H630 C627 0.929 . S
S631 N632 1.613 . S
S631 N633 1.610 1_554 S
N632 S631 1.613 . S
N632 C635 1.350 . S
N633 S631 1.610 1_556 S
N633 C634 1.351 1_556 S
C634 C628 1.428 1_554 S
C634 N633 1.351 1_554 S
C634 C635 1.434 . S
C635 C626 1.429 . S
C635 N632 1.350 . S
C635 C634 1.434 . S
C636 C637 1.369 . S
C636 C638 1.419 . S
C636 H640 0.930 . S
C637 C636 1.369 . S
C637 C646 1.429 . S
C638 C636 1.419 . S
C638 C639 1.363 . S
C638 H641 0.929 . S
C639 C638 1.363 . S
C639 C645 1.428 . S
H640 C636 0.930 . S
H641 C638 0.929 . S
S642 N643 1.613 . S
S642 N644 1.610 . S
N643 S642 1.613 . S
N643 C646 1.350 . S
N644 S642 1.610 . S
N644 C645 1.351 . S
C645 C639 1.428 . S
C645 N644 1.351 . S
C645 C646 1.434 . S
C646 C637 1.429 . S
C646 N643 1.350 . S
C646 C645 1.434 . S
C647 C648 1.369 . S
C647 C649 1.419 . S
C647 H651 0.930 . S
C648 C647 1.369 . S
C648 C657 1.429 . S
C649 C647 1.419 . S
C649 C650 1.363 . S
C649 H652 0.929 . S
C650 C649 1.363 . S
C650 C656 1.428 . S
H651 C647 0.930 . S
H652 C649 0.929 . S
S653 N654 1.613 . S
S653 N655 1.610 . S
N654 S653 1.613 . S
N654 C657 1.350 . S
N655 S653 1.610 . S
N655 C656 1.351 . S
C656 C650 1.428 . S
C656 N655 1.351 . S
C656 C657 1.434 . S
C657 C648 1.429 . S
C657 N654 1.350 . S
C657 C656 1.434 . S
C658 C659 1.369 . S
C658 C660 1.419 . S
C658 H662 0.930 . S
C659 C658 1.369 . S
C659 C668 1.429 1_655 S
C660 C658 1.419 . S
C660 C661 1.363 1_655 S
C660 H663 0.929 . S
C661 C660 1.363 1_455 S
C661 C667 1.428 . S
H662 C658 0.930 . S
H663 C660 0.929 . S
S664 N665 1.613 . S
S664 N666 1.610 . S
N665 S664 1.613 . S
N665 C668 1.350 . S
N666 S664 1.610 . S
N666 C667 1.351 . S
C667 C661 1.428 . S
C667 N666 1.351 . S
C667 C668 1.434 . S
C668 C659 1.429 1_455 S
C668 N665 1.350 . S
C668 C667 1.434 . S
C669 C670 1.369 1_556 S
C669 C671 1.419 . S
C669 H673 0.930 1_556 S
C670 C669 1.369 1_554 S
C670 C679 1.429 1_554 S
C671 C669 1.419 . S
C671 C672 1.363 . S
C671 H674 0.929 . S
C672 C671 1.363 . S
C672 C678 1.428 . S
H673 C669 0.930 1_554 S
H674 C671 0.929 . S
S675 N676 1.613 . S
S675 N677 1.610 . S
N676 S675 1.613 . S
N676 C679 1.350 . S
N677 S675 1.610 . S
N677 C678 1.351 . S
C678 C672 1.428 . S
C678 N677 1.351 . S
C678 C679 1.434 . S
C679 C670 1.429 1_556 S
C679 N676 1.350 . S
C679 C678 1.434 . S
C680 C681 1.369 . S
C680 C682 1.419 . S
C680 H684 0.930 . S
C681 C680 1.369 . S
C681 C690 1.429 . S
C682 C680 1.419 . S
C682 C683 1.363 . S
C682 H685 0.929 . S
C683 C682 1.363 . S
C683 C689 1.428 . S
H684 C680 0.930 . S
H685 C682 0.929 . S
S686 N687 1.613 . S
S686 N688 1.610 . S
N687 S686 1.613 . S
N687 C690 1.350 . S
N688 S686 1.610 . S
N688 C689 1.351 . S
C689 C683 1.428 . S
C689 N688 1.351 . S
C689 C690 1.434 . S
C690 C681 1.429 . S
C690 N687 1.350 . S
C690 C689 1.434 . S
C691 C692 1.369 . S
C691 C693 1.419 . S
C691 H695 0.930 . S
C692 C691 1.369 . S
C692 C701 1.429 . S
C693 C691 1.419 . S
C693 C694 1.363 . S
C693 H696 0.929 . S
C694 C693 1.363 . S
C694 C700 1.428 . S
H695 C691 0.930 . S
H696 C693 0.929 . S
S697 N698 1.613 . S
S697 N699 1.610 . S
N698 S697 1.613 . S
N698 C701 1.350 . S
N699 S697 1.610 . S
N699 C700 1.351 . S
C700 C694 1.428 . S
C700 N699 1.351 . S
C700 C701 1.434 . S
C701 C692 1.429 . S
C701 N698 1.350 . S
C701 C700 1.434 . S
C702 C703 1.369 1_455 S
C702 C704 1.419 . S
C702 H706 0.930 . S
C703 C702 1.369 1_655 S
C703 C712 1.429 . S
C704 C702 1.419 . S
C704 C705 1.363 . S
C704 H707 0.929 . S
C705 C704 1.363 . S
C705 C711 1.428 1_455 S
H706 C702 0.930 . S
H707 C704 0.929 . S
S708 N709 1.613 . S
S708 N710 1.610 . S
N709 S708 1.613 . S
N709 C712 1.350 . S
N710 S708 1.610 . S
N710 C711 1.351 . S
C711 C705 1.428 1_655 S
C711 N710 1.351 . S
C711 C712 1.434 . S
C712 C703 1.429 . S
C712 N709 1.350 . S
C712 C711 1.434 . S
C713 C714 1.369 . S
C713 C715 1.419 . S
C713 H717 0.930 . S
C714 C713 1.369 . S
C714 C723 1.429 . S
C715 C713 1.419 . S
C715 C716 1.363 1_556 S
C715 H718 0.929 . S
C716 C715 1.363 1_554 S
C716 C722 1.428 1_554 S
H717 C713 0.930 . S
H718 C715 0.929 . S
S719 N720 1.613 . S
S719 N721 1.610 1_556 S
N720 S719 1.613 . S
N720 C723 1.350 . S
N721 S719 1.610 1_554 S
N721 C722 1.351 1_554 S
C722 C716 1.428 1_556 S
C722 N721 1.351 1_556 S
C722 C723 1.434 . S
C723 C714 1.429 . S
C723 N720 1.350 . S
C723 C722 1.434 . S
C724 C725 1.369 . S
C724 C726 1.419 . S
C724 H728 0.930 . S
C725 C724 1.369 . S
C725 C734 1.429 . S
C726 C724 1.419 . S
C726 C727 1.363 . S
C726 H729 0.929 . S
C727 C726 1.363 . S
C727 C733 1.428 . S
H728 C724 0.930 . S
H729 C726 0.929 . S
S730 N731 1.613 . S
S730 N732 1.610 . S
N731 S730 1.613 . S
N731 C734 1.350 . S
N732 S730 1.610 . S
N732 C733 1.351 . S
C733 C727 1.428 . S
C733 N732 1.351 . S
C733 C734 1.434 . S
C734 C725 1.429 . S
C734 N731 1.350 . S
C734 C733 1.434 . S
C735 C736 1.369 . S
C735 C737 1.419 . S
C735 H739 0.930 . S
C736 C735 1.369 . S
C736 C745 1.429 . S
C737 C735 1.419 . S
C737 C738 1.363 . S
C737 H740 0.929 . S
C738 C737 1.363 . S
C738 C744 1.428 . S
H739 C735 0.930 . S
H740 C737 0.929 . S
S741 N742 1.613 . S
S741 N743 1.610 . S
N742 S741 1.613 . S
N742 C745 1.350 . S
N743 S741 1.610 . S
N743 C744 1.351 . S
C744 C738 1.428 . S
C744 N743 1.351 . S
C744 C745 1.434 . S
C745 C736 1.429 . S
C745 N742 1.350 . S
C745 C744 1.434 . S
C746 C747 1.369 . S
C746 C748 1.419 . S
C746 H750 0.930 . S
C747 C746 1.369 . S
C747 C756 1.429 1_455 S
C748 C746 1.419 . S
C748 C749 1.363 1_455 S
C748 H751 0.929 . S
C749 C748 1.363 1_655 S
C749 C755 1.428 . S
H750 C746 0.930 . S
H751 C748 0.929 . S
S752 N753 1.613 . S
S752 N754 1.610 . S
N753 S752 1.613 . S
N753 C756 1.350 . S
N754 S752 1.610 . S
N754 C755 1.351 . S
C755 C749 1.428 . S
C755 N754 1.351 . S
C755 C756 1.434 . S
C756 C747 1.429 1_655 S
C756 N753 1.350 . S
C756 C755 1.434 . S
C757 C758 1.369 . S
C757 C759 1.419 . S
C757 H761 0.930 . S
C758 C757 1.369 . S
C758 C767 1.429 . S
C759 C757 1.419 . S
C759 C760 1.363 1_554 S
C759 H762 0.939 . S
C760 C759 1.363 1_556 S
C760 C766 1.428 1_556 S
H761 C757 0.930 . S
H762 C759 0.939 . S
S763 N764 1.613 . S
S763 N765 1.610 . S
N764 S763 1.613 . S
N764 C767 1.350 . S
N765 S763 1.610 . S
N765 C766 1.351 . S
C766 C760 1.428 1_554 S
C766 N765 1.351 . S
C766 C767 1.434 . S
C767 C758 1.429 . S
C767 N764 1.350 . S
C767 C766 1.434 . S
C768 C769 1.369 1_556 S
C768 C770 1.419 1_445 S
C768 H772 0.930 . S
C769 C768 1.369 1_554 S
C769 C778 1.429 . S
C770 C768 1.419 1_665 S
C770 C771 1.363 . S
C770 H773 0.929 . S
C771 C770 1.363 . S
C771 C777 1.428 1_556 S
H772 C768 0.930 . S
H773 C770 0.929 . S
S774 N775 1.613 1_565 S
S774 N776 1.610 1_455 S
N775 S774 1.613 1_545 S
N775 C778 1.350 . S
N776 S774 1.610 1_655 S
N776 C777 1.351 . S
C777 C771 1.428 1_554 S
C777 N776 1.351 . S
C777 C778 1.434 1_665 S
C778 C769 1.429 . S
C778 N775 1.350 . S
C778 C777 1.434 1_445 S
C779 C780 1.369 . S
C779 C781 1.419 . S
C779 H783 0.930 . S
C780 C779 1.369 . S
C780 C789 1.429 . S
C781 C779 1.419 . S
C781 C782 1.363 . S
C781 H784 0.929 . S
C782 C781 1.363 . S
C782 C788 1.428 . S
H783 C779 0.930 . S
H784 C781 0.929 . S
S785 N786 1.613 . S
S785 N787 1.610 . S
N786 S785 1.613 . S
N786 C789 1.350 . S
N787 S785 1.610 . S
N787 C788 1.351 . S
C788 C782 1.428 . S
C788 N787 1.351 . S
C788 C789 1.434 . S
C789 C780 1.429 . S
C789 N786 1.350 . S
C789 C788 1.434 . S
C790 C791 1.369 . S
C790 C792 1.419 1_545 S
C790 H794 0.930 . S
C791 C790 1.369 . S
C791 C800 1.429 . S
C792 C790 1.419 1_565 S
C792 C793 1.363 . S
C792 H795 0.929 . S
C793 C792 1.363 . S
C793 C799 1.428 . S
H794 C790 0.930 . S
H795 C792 0.929 . S
S796 N797 1.643 . S
S796 N798 1.580 1_545 S
N797 S796 1.643 . S
N797 C800 1.350 . S
N798 S796 1.580 1_565 S
N798 C799 1.351 . S
C799 C793 1.428 . S
C799 N798 1.351 . S
C799 C800 1.434 1_565 S
C800 C791 1.429 . S
C800 N797 1.350 . S
C800 C799 1.434 1_545 S
C801 C802 1.369 . S
C801 C803 1.419 . S
C801 H805 0.930 . S
C802 C801 1.369 . S
C802 C811 1.429 . S
C803 C801 1.419 . S
C803 C804 1.363 . S
C803 H806 0.929 . S
C804 C803 1.363 . S
C804 C810 1.428 . S
H805 C801 0.930 . S
H806 C803 0.929 . S
S807 N808 1.613 . S
S807 N809 1.610 . S
N808 S807 1.613 . S
N808 C811 1.350 . S
N809 S807 1.610 . S
N809 C810 1.351 . S
C810 C804 1.428 . S
C810 N809 1.351 . S
C810 C811 1.434 . S
C811 C802 1.429 . S
C811 N808 1.350 . S
C811 C810 1.434 . S
C812 C813 1.369 1_655 S
C812 C814 1.419 1_565 S
C812 H816 0.930 . S
C813 C812 1.369 1_455 S
C813 C822 1.429 . S
C814 C812 1.419 1_545 S
C814 C815 1.363 . S
C814 H817 0.929 . S
C815 C814 1.363 . S
C815 C821 1.428 1_655 S
H816 C812 0.930 . S
H817 C814 0.929 . S
S818 N819 1.613 1_545 S
S818 N820 1.610 . S
N819 S818 1.613 1_565 S
N819 C822 1.350 . S
N820 S818 1.610 . S
N820 C821 1.351 . S
C821 C815 1.428 1_455 S
C821 N820 1.351 . S
C821 C822 1.434 1_545 S
C822 C813 1.429 . S
C822 N819 1.350 . S
C822 C821 1.434 1_565 S
C823 C824 1.369 . S
C823 C825 1.419 . S
C823 H827 0.930 . S
C824 C823 1.369 . S
C824 C833 1.429 . S
C825 C823 1.419 . S
C825 C826 1.363 . S
C825 H828 0.929 . S
C826 C825 1.363 . S
C826 C832 1.428 . S
H827 C823 0.930 . S
H828 C825 0.929 . S
S829 N830 1.613 . S
S829 N831 1.610 . S
N830 S829 1.613 . S
N830 C833 1.350 . S
N831 S829 1.610 . S
N831 C832 1.351 . S
C832 C826 1.428 . S
C832 N831 1.351 . S
C832 C833 1.434 . S
C833 C824 1.429 . S
C833 N830 1.350 . S
C833 C832 1.434 . S
C834 C835 1.369 1_556 S
C834 C836 1.419 1_565 S
C834 H838 0.930 . S
C835 C834 1.369 1_554 S
C835 C844 1.429 . S
C836 C834 1.419 1_545 S
C836 C837 1.363 . S
C836 H839 0.929 . S
C837 C836 1.363 . S
C837 C843 1.428 1_556 S
H838 C834 0.930 . S
H839 C836 0.929 . S
S840 N841 1.613 1_545 S
S840 N842 1.610 . S
N841 S840 1.613 1_565 S
N841 C844 1.350 . S
N842 S840 1.610 . S
N842 C843 1.351 . S
C843 C837 1.428 1_554 S
C843 N842 1.351 . S
C843 C844 1.434 1_545 S
C844 C835 1.429 . S
C844 N841 1.350 . S
C844 C843 1.434 1_565 S
C845 C846 1.369 . S
C845 C847 1.419 . S
C845 H849 0.930 . S
C846 C845 1.369 . S
C846 C855 1.429 . S
C847 C845 1.419 . S
C847 C848 1.363 . S
C847 H850 0.929 . S
C848 C847 1.363 . S
C848 C854 1.428 . S
H849 C845 0.930 . S
H850 C847 0.929 . S
S851 N852 1.613 . S
S851 N853 1.610 . S
N852 S851 1.613 . S
N852 C855 1.350 . S
N853 S851 1.610 . S
N853 C854 1.351 . S
C854 C848 1.428 . S
C854 N853 1.351 . S
C854 C855 1.434 . S
C855 C846 1.429 . S
C855 N852 1.350 . S
C855 C854 1.434 . S
C856 C857 1.369 . S
C856 C858 1.419 . S
C856 H860 0.930 . S
C857 C856 1.369 . S
C857 C866 1.429 . S
C858 C856 1.419 . S
C858 C859 1.363 . S
C858 H861 0.929 . S
C859 C858 1.363 . S
C859 C865 1.428 . S
H860 C856 0.930 . S
H861 C858 0.929 . S
S862 N863 1.613 . S
S862 N864 1.610 . S
N863 S862 1.613 . S
N863 C866 1.350 . S
N864 S862 1.610 . S
N864 C865 1.351 . S
C865 C859 1.428 . S
C865 N864 1.351 . S
C865 C866 1.434 . S
C866 C857 1.429 . S
C866 N863 1.350 . S
C866 C865 1.434 . S
C867 C868 1.369 . S
C867 C869 1.419 . S
C867 H871 0.930 . S
C868 C867 1.369 . S
C868 C877 1.429 . S
C869 C867 1.419 . S
C869 C870 1.363 . S
C869 H872 0.929 . S
C870 C869 1.363 . S
C870 C876 1.428 . S
H871 C867 0.930 . S
H872 C869 0.929 . S
S873 N874 1.613 . S
S873 N875 1.610 . S
N874 S873 1.613 . S
N874 C877 1.350 . S
N875 S873 1.610 . S
N875 C876 1.351 . S
C876 C870 1.428 . S
C876 N875 1.351 . S
C876 C877 1.434 . S
C877 C868 1.429 . S
C877 N874 1.350 . S
C877 C876 1.434 . S
C878 C879 1.369 . S
C878 C880 1.419 . S
C878 H882 0.930 . S
C879 C878 1.369 . S
C879 C888 1.429 . S
C880 C878 1.419 . S
C880 C881 1.363 . S
C880 H883 0.929 . S
C881 C880 1.363 . S
C881 C887 1.428 . S
H882 C878 0.930 . S
H883 C880 0.929 . S
S884 N885 1.613 . S
S884 N886 1.610 . S
N885 S884 1.613 . S
N885 C888 1.350 . S
N886 S884 1.610 . S
N886 C887 1.351 . S
C887 C881 1.428 . S
C887 N886 1.351 . S
C887 C888 1.434 . S
C888 C879 1.429 . S
C888 N885 1.350 . S
C888 C887 1.434 . S
C889 C890 1.369 . S
C889 C891 1.419 . S
C889 H893 0.930 . S
C890 C889 1.369 . S
C890 C899 1.429 . S
C891 C889 1.419 . S
C891 C892 1.363 . S
C891 H894 0.929 . S
C892 C891 1.363 . S
C892 C898 1.428 . S
H893 C889 0.930 . S
H894 C891 0.929 . S
S895 N896 1.613 . S
S895 N897 1.610 . S
N896 S895 1.613 . S
N896 C899 1.350 . S
N897 S895 1.610 . S
N897 C898 1.351 . S
C898 C892 1.428 . S
C898 N897 1.351 . S
C898 C899 1.434 . S
C899 C890 1.429 . S
C899 N896 1.350 . S
C899 C898 1.434 . S
C900 C901 1.369 . S
C900 C902 1.419 . S
C900 H904 0.930 . S
C901 C900 1.369 . S
C901 C910 1.429 . S
C902 C900 1.419 . S
C902 C903 1.363 . S
C902 H905 0.929 . S
C903 C902 1.363 . S
C903 C909 1.428 . S
H904 C900 0.930 . S
H905 C902 0.929 . S
S906 N907 1.613 . S
S906 N908 1.610 . S
N907 S906 1.613 . S
N907 C910 1.350 . S
N908 S906 1.610 . S
N908 C909 1.351 . S
C909 C903 1.428 . S
C909 N908 1.351 . S
C909 C910 1.434 . S
C910 C901 1.429 . S
C910 N907 1.350 . S
C910 C909 1.434 . S
C911 C912 1.369 1_456 S
C911 C913 1.419 . S
C911 H915 0.930 . S
C912 C911 1.369 1_654 S
C912 C921 1.429 . S
C913 C911 1.419 . S
C913 C914 1.363 . S
C913 H916 0.929 . S
C914 C913 1.363 . S
C914 C920 1.428 1_456 S
H915 C911 0.930 . S
H916 C913 0.929 . S
S917 N918 1.613 . S
S917 N919 1.610 . S
N918 S917 1.613 . S
N918 C921 1.350 . S
N919 S917 1.610 . S
N919 C920 1.351 . S
C920 C914 1.428 1_654 S
C920 N919 1.351 . S
C920 C921 1.434 . S
C921 C912 1.429 . S
C921 N918 1.350 . S
C921 C920 1.434 . S
C922 C923 1.369 1_554 S
C922 C924 1.419 . S
C922 H926 0.930 . S
C923 C922 1.369 1_556 S
C923 C932 1.429 . S
C924 C922 1.419 . S
C924 C925 1.363 . S
C924 H927 0.929 . S
C925 C924 1.363 . S
C925 C931 1.428 1_554 S
H926 C922 0.930 . S
H927 C924 0.929 . S
S928 N929 1.613 . S
S928 N930 1.610 . S
N929 S928 1.613 . S
N929 C932 1.350 . S
N930 S928 1.610 . S
N930 C931 1.351 . S
C931 C925 1.428 1_556 S
C931 N930 1.351 . S
C931 C932 1.434 . S
C932 C923 1.429 . S
C932 N929 1.350 . S
C932 C931 1.434 . S
C933 C934 1.369 . S
C933 C935 1.419 1_455 S
C933 H937 0.930 . S
C934 C933 1.369 . S
C934 C943 1.429 . S
C935 C933 1.419 1_655 S
C935 C936 1.363 . S
C935 H938 0.929 . S
C936 C935 1.363 . S
C936 C942 1.428 . S
H937 C933 0.930 . S
H938 C935 0.929 . S
S939 N940 1.613 . S
S939 N941 1.610 1_455 S
N940 S939 1.613 . S
N940 C943 1.350 . S
N941 S939 1.610 1_655 S
N941 C942 1.351 . S
C942 C936 1.428 . S
C942 N941 1.351 . S
C942 C943 1.434 1_655 S
C943 C934 1.429 . S
C943 N940 1.350 . S
C943 C942 1.434 1_455 S
C944 C945 1.369 . S
C944 C946 1.419 . S
C944 H948 0.930 . S
C945 C944 1.369 . S
C945 C954 1.429 . S
C946 C944 1.419 . S
C946 C947 1.363 . S
C946 H949 0.929 . S
C947 C946 1.363 . S
C947 C953 1.428 . S
H948 C944 0.930 . S
H949 C946 0.929 . S
S950 N951 1.613 . S
S950 N952 1.610 . S
N951 S950 1.613 . S
N951 C954 1.350 . S
N952 S950 1.610 . S
N952 C953 1.351 . S
C953 C947 1.428 . S
C953 N952 1.351 . S
C953 C954 1.434 . S
C954 C945 1.429 . S
C954 N951 1.350 . S
C954 C953 1.434 . S
C955 C956 1.369 . S
C955 C957 1.419 . S
C955 H959 0.930 . S
C956 C955 1.369 . S
C956 C965 1.429 . S
C957 C955 1.419 . S
C957 C958 1.363 . S
C957 H960 0.929 . S
C958 C957 1.363 . S
C958 C964 1.428 . S
H959 C955 0.930 . S
H960 C957 0.929 . S
S961 N962 1.613 . S
S961 N963 1.610 . S
N962 S961 1.613 . S
N962 C965 1.350 . S
N963 S961 1.610 . S
N963 C964 1.351 . S
C964 C958 1.428 . S
C964 N963 1.351 . S
C964 C965 1.434 . S
C965 C956 1.429 . S
C965 N962 1.350 . S
C965 C964 1.434 . S
C966 C967 1.369 . S
C966 C968 1.419 . S
C966 H970 0.930 . S
C967 C966 1.369 . S
C967 C976 1.429 . S
C968 C966 1.419 . S
C968 C969 1.363 . S
C968 H971 0.929 . S
C969 C968 1.363 . S
C969 C975 1.428 . S
H970 C966 0.930 . S
H971 C968 0.929 . S
S972 N973 1.613 . S
S972 N974 1.610 . S
N973 S972 1.613 . S
N973 C976 1.350 . S
N974 S972 1.610 . S
N974 C975 1.351 . S
C975 C969 1.428 . S
C975 N974 1.351 . S
C975 C976 1.434 . S
C976 C967 1.429 . S
C976 N973 1.350 . S
C976 C975 1.434 . S
C977 C978 1.369 . S
C977 C979 1.419 . S
C977 H981 0.930 . S
C978 C977 1.369 . S
C978 C987 1.429 . S
C979 C977 1.419 . S
C979 C980 1.363 . S
C979 H982 0.929 . S
C980 C979 1.363 . S
C980 C986 1.428 . S
H981 C977 0.930 . S
H982 C979 0.929 . S
S983 N984 1.613 . S
S983 N985 1.610 . S
N984 S983 1.613 . S
N984 C987 1.350 . S
N985 S983 1.610 . S
N985 C986 1.351 . S
C986 C980 1.428 . S
C986 N985 1.351 . S
C986 C987 1.434 . S
C987 C978 1.429 . S
C987 N984 1.350 . S
C987 C986 1.434 . S
C988 C989 1.369 . S
C988 C990 1.419 . S
C988 H992 0.930 . S
C989 C988 1.369 . S
C989 C998 1.429 . S
C990 C988 1.419 . S
C990 C991 1.363 . S
C990 H993 0.929 . S
C991 C990 1.363 . S
C991 C997 1.428 . S
H992 C988 0.930 . S
H993 C990 0.929 . S
S994 N995 1.613 . S
S994 N996 1.610 . S
N995 S994 1.613 . S
N995 C998 1.350 . S
N996 S994 1.610 . S
N996 C997 1.351 . S
C997 C991 1.428 . S
C997 N996 1.351 . S
C997 C998 1.434 . S
C998 C989 1.429 . S
C998 N995 1.350 . S
C998 C997 1.434 . S
C999 C1000 1.369 . S
C999 C1001 1.419 . S
C999 H1003 0.930 . S
C1000 C999 1.369 . S
C1000 C1009 1.429 . S
C1001 C999 1.419 . S
C1001 C1002 1.363 . S
C1001 H1004 0.929 . S
C1002 C1001 1.363 . S
C1002 C1008 1.428 . S
H1003 C999 0.930 . S
H1004 C1001 0.929 . S
S1005 N1006 1.613 . S
S1005 N1007 1.610 . S
N1006 S1005 1.613 . S
N1006 C1009 1.350 . S
N1007 S1005 1.610 . S
N1007 C1008 1.351 . S
C1008 C1002 1.428 . S
C1008 N1007 1.351 . S
C1008 C1009 1.434 . S
C1009 C1000 1.429 . S
C1009 N1006 1.350 . S
C1009 C1008 1.434 . S
C1010 C1011 1.369 . S
C1010 C1012 1.419 . S
C1010 H1014 0.930 . S
C1011 C1010 1.369 . S
C1011 C1020 1.429 . S
C1012 C1010 1.419 . S
C1012 C1013 1.363 . S
C1012 H1015 0.929 . S
C1013 C1012 1.363 . S
C1013 C1019 1.428 . S
H1014 C1010 0.930 . S
H1015 C1012 0.929 . S
S1016 N1017 1.613 . S
S1016 N1018 1.610 . S
N1017 S1016 1.613 . S
N1017 C1020 1.350 . S
N1018 S1016 1.610 . S
N1018 C1019 1.351 . S
C1019 C1013 1.428 . S
C1019 N1018 1.351 . S
C1019 C1020 1.434 . S
C1020 C1011 1.429 . S
C1020 N1017 1.350 . S
C1020 C1019 1.434 . S
C1021 C1022 1.369 . S
C1021 C1023 1.419 . S
C1021 H1025 0.930 . S
C1022 C1021 1.369 . S
C1022 C1031 1.429 . S
C1023 C1021 1.419 . S
C1023 C1024 1.363 . S
C1023 H1026 0.929 . S
C1024 C1023 1.363 . S
C1024 C1030 1.428 . S
H1025 C1021 0.930 . S
H1026 C1023 0.929 . S
S1027 N1028 1.613 . S
S1027 N1029 1.610 1_556 S
N1028 S1027 1.613 . S
N1028 C1031 1.350 1_556 S
N1029 S1027 1.610 1_554 S
N1029 C1030 1.351 . S
C1030 C1024 1.428 . S
C1030 N1029 1.351 . S
C1030 C1031 1.434 . S
C1031 C1022 1.429 . S
C1031 N1028 1.350 1_554 S
C1031 C1030 1.434 . S
C1032 C1033 1.369 . S
C1032 C1034 1.419 . S
C1032 H1036 0.930 . S
C1033 C1032 1.369 . S
C1033 C1042 1.429 . S
C1034 C1032 1.419 . S
C1034 C1035 1.363 . S
C1034 H1037 0.929 . S
C1035 C1034 1.363 . S
C1035 C1041 1.428 . S
H1036 C1032 0.930 . S
H1037 C1034 0.929 . S
S1038 N1039 1.613 . S
S1038 N1040 1.610 . S
N1039 S1038 1.613 . S
N1039 C1042 1.350 . S
N1040 S1038 1.610 . S
N1040 C1041 1.351 . S
C1041 C1035 1.428 . S
C1041 N1040 1.351 . S
C1041 C1042 1.434 . S
C1042 C1033 1.429 . S
C1042 N1039 1.350 . S
C1042 C1041 1.434 . S
C1043 C1044 1.369 . S
C1043 C1045 1.419 . S
C1043 H1047 0.930 . S
C1044 C1043 1.369 . S
C1044 C1053 1.429 . S
C1045 C1043 1.419 . S
C1045 C1046 1.363 . S
C1045 H1048 0.929 . S
C1046 C1045 1.363 . S
C1046 C1052 1.428 . S
H1047 C1043 0.930 . S
H1048 C1045 0.929 . S
S1049 N1050 1.613 . S
S1049 N1051 1.610 . S
N1050 S1049 1.613 . S
N1050 C1053 1.350 . S
N1051 S1049 1.610 . S
N1051 C1052 1.351 . S
C1052 C1046 1.428 . S
C1052 N1051 1.351 . S
C1052 C1053 1.434 . S
C1053 C1044 1.429 . S
C1053 N1050 1.350 . S
C1053 C1052 1.434 . S
C1054 C1055 1.369 . S
C1054 C1056 1.419 . S
C1054 H1058 0.930 . S
C1055 C1054 1.369 . S
C1055 C1064 1.429 . S
C1056 C1054 1.419 . S
C1056 C1057 1.363 . S
C1056 H1059 0.929 . S
C1057 C1056 1.363 . S
C1057 C1063 1.428 . S
H1058 C1054 0.930 . S
H1059 C1056 0.929 . S
S1060 N1061 1.613 . S
S1060 N1062 1.610 . S
N1061 S1060 1.613 . S
N1061 C1064 1.350 . S
N1062 S1060 1.610 . S
N1062 C1063 1.351 . S
C1063 C1057 1.428 . S
C1063 N1062 1.351 . S
C1063 C1064 1.434 . S
C1064 C1055 1.429 . S
C1064 N1061 1.350 . S
C1064 C1063 1.434 . S
C1065 C1066 1.369 . S
C1065 C1067 1.419 . S
C1065 H1069 0.930 . S
C1066 C1065 1.369 . S
C1066 C1075 1.429 . S
C1067 C1065 1.419 . S
C1067 C1068 1.363 . S
C1067 H1070 0.929 . S
C1068 C1067 1.363 . S
C1068 C1074 1.428 . S
H1069 C1065 0.930 . S
H1070 C1067 0.929 . S
S1071 N1072 1.613 . S
S1071 N1073 1.610 . S
N1072 S1071 1.613 . S
N1072 C1075 1.350 . S
N1073 S1071 1.610 . S
N1073 C1074 1.351 . S
C1074 C1068 1.428 . S
C1074 N1073 1.351 . S
C1074 C1075 1.434 . S
C1075 C1066 1.429 . S
C1075 N1072 1.350 . S
C1075 C1074 1.434 . S
C1076 C1077 1.369 . S
C1076 C1078 1.419 . S
C1076 H1080 0.930 . S
C1077 C1076 1.369 . S
C1077 C1086 1.429 . S
C1078 C1076 1.419 . S
C1078 C1079 1.363 . S
C1078 H1081 0.929 . S
C1079 C1078 1.363 . S
C1079 C1085 1.428 . S
H1080 C1076 0.930 . S
H1081 C1078 0.929 . S
S1082 N1083 1.613 . S
S1082 N1084 1.610 . S
N1083 S1082 1.613 . S
N1083 C1086 1.350 . S
N1084 S1082 1.610 . S
N1084 C1085 1.351 . S
C1085 C1079 1.428 . S
C1085 N1084 1.351 . S
C1085 C1086 1.434 . S
C1086 C1077 1.429 . S
C1086 N1083 1.350 . S
C1086 C1085 1.434 . S
C1087 C1088 1.369 . S
C1087 C1089 1.419 . S
C1087 H1091 0.930 . S
C1088 C1087 1.369 . S
C1088 C1097 1.429 . S
C1089 C1087 1.419 . S
C1089 C1090 1.363 . S
C1089 H1092 0.929 . S
C1090 C1089 1.363 . S
C1090 C1096 1.428 . S
H1091 C1087 0.930 . S
H1092 C1089 0.929 . S
S1093 N1094 1.613 . S
S1093 N1095 1.610 . S
N1094 S1093 1.613 . S
N1094 C1097 1.350 . S
N1095 S1093 1.610 . S
N1095 C1096 1.351 . S
C1096 C1090 1.428 . S
C1096 N1095 1.351 . S
C1096 C1097 1.434 . S
C1097 C1088 1.429 . S
C1097 N1094 1.350 . S
C1097 C1096 1.434 . S
C1098 C1099 1.369 . S
C1098 C1100 1.419 . S
C1098 H1102 0.930 . S
C1099 C1098 1.369 . S
C1099 C1108 1.429 . S
C1100 C1098 1.419 . S
C1100 C1101 1.363 . S
C1100 H1103 0.929 . S
C1101 C1100 1.363 . S
C1101 C1107 1.428 . S
H1102 C1098 0.930 . S
H1103 C1100 0.929 . S
S1104 N1105 1.613 . S
S1104 N1106 1.610 . S
N1105 S1104 1.613 . S
N1105 C1108 1.350 . S
N1106 S1104 1.610 . S
N1106 C1107 1.351 . S
C1107 C1101 1.428 . S
C1107 N1106 1.351 . S
C1107 C1108 1.434 . S
C1108 C1099 1.429 . S
C1108 N1105 1.350 . S
C1108 C1107 1.434 . S
C1109 C1110 1.369 . S
C1109 C1111 1.419 . S
C1109 H1113 0.930 . S
C1110 C1109 1.369 . S
C1110 C1119 1.429 . S
C1111 C1109 1.419 . S
C1111 C1112 1.363 . S
C1111 H1114 0.929 . S
C1112 C1111 1.363 . S
C1112 C1118 1.428 . S
H1113 C1109 0.930 . S
H1114 C1111 0.929 . S
S1115 N1116 1.613 . S
S1115 N1117 1.610 . S
N1116 S1115 1.613 . S
N1116 C1119 1.350 . S
N1117 S1115 1.610 . S
N1117 C1118 1.351 . S
C1118 C1112 1.428 . S
C1118 N1117 1.351 . S
C1118 C1119 1.434 . S
C1119 C1110 1.429 . S
C1119 N1116 1.350 . S
C1119 C1118 1.434 . S
C417 C160 1.377 1_455 S
C419 C5 1.366 1_655 S
C428 C387 1.374 . S
C430 C16 1.375 . S
C439 C192 1.382 . S
C441 C29 1.368 . S
C450 C413 1.379 . S
C452 C42 1.369 . S
C461 C114 1.382 1_455 S
C463 C57 1.366 1_655 S
C472 C68 1.367 . S
C474 C329 1.381 . S
C483 C81 1.367 . S
C485 C140 1.382 . S
C494 C361 1.374 . S
C496 C96 1.376 . S
C505 C56 1.378 1_655 S
C507 C107 1.366 1_455 S
C516 C277 1.374 . S
C518 C122 1.374 . S
C527 C88 1.377 . S
C529 C133 1.375 . S
C538 C303 1.375 . S
C540 C146 1.376 . S
C549 C161 1.371 1_455 S
C551 C4 1.377 1_655 S
C560 C172 1.371 . S
C562 C225 1.381 . S
C571 C36 1.374 . S
C573 C185 1.375 . S
C582 C198 1.367 . S
C584 C257 1.382 . S
C593 C368 1.383 . S
C595 C213 1.369 . S
C604 C179 1.383 . S
C606 C226 1.368 . S
C615 C400 1.375 1_655 S
C617 C237 1.372 1_455 S
C626 C250 1.374 . S
C628 C205 1.375 . S
C637 C265 1.368 . S
C639 C322 1.379 . S
C648 C278 1.376 . S
C650 C121 1.375 . S
C659 C342 1.375 1_655 S
C661 C291 1.372 1_455 S
C670 C153 1.382 . S
C672 C304 1.368 . S
C681 C264 1.378 . S
C683 C315 1.374 . S
C692 C330 1.377 . S
C694 C75 1.375 . S
C703 C343 1.368 1_655 S
C705 C290 1.375 1_455 S
C714 C354 1.377 . S
C716 C95 1.375 . S
C725 C212 1.381 . S
C727 C369 1.371 . S
C736 C23 1.374 . S
C738 C380 1.374 . S
C747 C244 1.373 1_455 S
C749 C393 1.372 1_655 S
C758 C406 1.367 . S
C760 C49 1.382 . S
C769 C3 1.450 . S
C771 C109 1.447 . S
C780 C18 1.448 . S
C782 C328 1.448 . S
C791 C135 1.450 . S
C793 C31 1.446 . S
C802 C44 1.445 . S
C804 C356 1.450 . S
C813 C55 1.449 . S
C815 C159 1.447 . S
C824 C382 1.451 . S
C826 C70 1.446 . S
C835 C187 1.448 . S
C837 C83 1.448 . S
C846 C94 1.449 . S
C848 C408 1.447 . S
C857 C120 1.450 . S
C859 C224 1.446 . S
C868 C148 1.447 . S
C870 C252 1.449 . S
C879 C174 1.449 . S
C881 C276 1.447 . S
C890 C302 1.450 . S
C892 C200 1.446 . S
C901 C211 1.449 . S
C903 C317 1.447 . S
C912 C239 1.450 . S
C914 C341 1.446 . S
C923 C263 1.447 . S
C925 C367 1.449 . S
C934 C395 1.448 . S
C936 C289 1.448 . S
C945 C10 1.423 . S
C947 C101 1.425 . S
C956 C17 1.424 . S
C958 C62 1.423 . S
C967 C69 1.424 . S
C969 C30 1.425 . S
C978 C82 1.425 . S
C980 C43 1.425 . S
C989 C199 1.426 . S
C991 C108 1.424 . S
C1000 C166 1.423 . S
C1002 C127 1.425 . S
C1011 C173 1.423 . S
C1013 C134 1.425 . S
C1022 C186 1.425 . S
C1024 C147 1.423 . S
C1033 C218 1.423 . S
C1035 C309 1.425 . S
C1044 C270 1.424 . S
C1046 C231 1.424 . S
C1055 C283 1.425 . S
C1057 C238 1.423 . S
C1066 C296 1.423 . S
C1068 C251 1.425 . S
C1077 C407 1.425 . S
C1079 C316 1.423 . S
C1088 C335 1.425 . S
C1090 C374 1.425 . S
C1099 C348 1.424 . S
C1101 C381 1.425 . S
C1110 C394 1.426 . S
C1112 C355 1.424 . S
