# Generated by pormake.
# Topology vbr, (6)-cn, num edge types: 1
# Building blocks:
#     Node 0, Type 0, BuildingBlock: IZENUY_clean_sbu_0, # of connection points: 6
#     Node 1, Type 0, BuildingBlock: IZENUY_clean_sbu_0, # of connection points: 6
#     Node 2, Type 0, BuildingBlock: IZENUY_clean_sbu_0, # of connection points: 6
#     Node 3, Type 0, BuildingBlock: IZENUY_clean_sbu_0, # of connection points: 6
#     Node 4, Type 0, BuildingBlock: IZENUY_clean_sbu_0, # of connection points: 6
#     Node 5, Type 0, BuildingBlock: IZENUY_clean_sbu_0, # of connection points: 6
#     Node 6, Type 0, BuildingBlock: IZENUY_clean_sbu_0, # of connection points: 6
#     Node 7, Type 0, BuildingBlock: IZENUY_clean_sbu_0, # of connection points: 6
#     Node 8, Type 0, BuildingBlock: IZENUY_clean_sbu_0, # of connection points: 6
#     Node 9, Type 0, BuildingBlock: IZENUY_clean_sbu_0, # of connection points: 6
#     Node 10, Type 0, BuildingBlock: IZENUY_clean_sbu_0, # of connection points: 6
#     Node 11, Type 0, BuildingBlock: IZENUY_clean_sbu_0, # of connection points: 6
#     Node 12, Type 0, BuildingBlock: IZENUY_clean_sbu_0, # of connection points: 6
#     Node 13, Type 0, BuildingBlock: IZENUY_clean_sbu_0, # of connection points: 6
#     Node 14, Type 0, BuildingBlock: IZENUY_clean_sbu_0, # of connection points: 6
#     Node 15, Type 0, BuildingBlock: IZENUY_clean_sbu_0, # of connection points: 6
#     Edge 16, Type (0, 0), BuildingBlock: ZUJKAS_clean_linker_0, # of connection points: 2
#     Edge 17, Type (0, 0), BuildingBlock: ZUJKAS_clean_linker_0, # of connection points: 2
#     Edge 18, Type (0, 0), BuildingBlock: ZUJKAS_clean_linker_0, # of connection points: 2
#     Edge 19, Type (0, 0), BuildingBlock: ZUJKAS_clean_linker_0, # of connection points: 2
#     Edge 20, Type (0, 0), BuildingBlock: ZUJKAS_clean_linker_0, # of connection points: 2
#     Edge 21, Type (0, 0), BuildingBlock: ZUJKAS_clean_linker_0, # of connection points: 2
#     Edge 22, Type (0, 0), BuildingBlock: ZUJKAS_clean_linker_0, # of connection points: 2
#     Edge 23, Type (0, 0), BuildingBlock: ZUJKAS_clean_linker_0, # of connection points: 2
#     Edge 24, Type (0, 0), BuildingBlock: ZUJKAS_clean_linker_0, # of connection points: 2
#     Edge 25, Type (0, 0), BuildingBlock: ZUJKAS_clean_linker_0, # of connection points: 2
#     Edge 26, Type (0, 0), BuildingBlock: ZUJKAS_clean_linker_0, # of connection points: 2
#     Edge 27, Type (0, 0), BuildingBlock: ZUJKAS_clean_linker_0, # of connection points: 2
#     Edge 28, Type (0, 0), BuildingBlock: ZUJKAS_clean_linker_0, # of connection points: 2
#     Edge 29, Type (0, 0), BuildingBlock: ZUJKAS_clean_linker_0, # of connection points: 2
#     Edge 30, Type (0, 0), BuildingBlock: ZUJKAS_clean_linker_0, # of connection points: 2
#     Edge 31, Type (0, 0), BuildingBlock: ZUJKAS_clean_linker_0, # of connection points: 2
#     Edge 32, Type (0, 0), BuildingBlock: ZUJKAS_clean_linker_0, # of connection points: 2
#     Edge 33, Type (0, 0), BuildingBlock: ZUJKAS_clean_linker_0, # of connection points: 2
#     Edge 34, Type (0, 0), BuildingBlock: ZUJKAS_clean_linker_0, # of connection points: 2
#     Edge 35, Type (0, 0), BuildingBlock: ZUJKAS_clean_linker_0, # of connection points: 2
#     Edge 36, Type (0, 0), BuildingBlock: ZUJKAS_clean_linker_0, # of connection points: 2
#     Edge 37, Type (0, 0), BuildingBlock: ZUJKAS_clean_linker_0, # of connection points: 2
#     Edge 38, Type (0, 0), BuildingBlock: ZUJKAS_clean_linker_0, # of connection points: 2
#     Edge 39, Type (0, 0), BuildingBlock: ZUJKAS_clean_linker_0, # of connection points: 2
#     Edge 40, Type (0, 0), BuildingBlock: ZUJKAS_clean_linker_0, # of connection points: 2
#     Edge 41, Type (0, 0), BuildingBlock: ZUJKAS_clean_linker_0, # of connection points: 2
#     Edge 42, Type (0, 0), BuildingBlock: ZUJKAS_clean_linker_0, # of connection points: 2
#     Edge 43, Type (0, 0), BuildingBlock: ZUJKAS_clean_linker_0, # of connection points: 2
#     Edge 44, Type (0, 0), BuildingBlock: ZUJKAS_clean_linker_0, # of connection points: 2
#     Edge 45, Type (0, 0), BuildingBlock: ZUJKAS_clean_linker_0, # of connection points: 2
#     Edge 46, Type (0, 0), BuildingBlock: ZUJKAS_clean_linker_0, # of connection points: 2
#     Edge 47, Type (0, 0), BuildingBlock: ZUJKAS_clean_linker_0, # of connection points: 2
#     Edge 48, Type (0, 0), BuildingBlock: ZUJKAS_clean_linker_0, # of connection points: 2
#     Edge 49, Type (0, 0), BuildingBlock: ZUJKAS_clean_linker_0, # of connection points: 2
#     Edge 50, Type (0, 0), BuildingBlock: ZUJKAS_clean_linker_0, # of connection points: 2
#     Edge 51, Type (0, 0), BuildingBlock: ZUJKAS_clean_linker_0, # of connection points: 2
#     Edge 52, Type (0, 0), BuildingBlock: ZUJKAS_clean_linker_0, # of connection points: 2
#     Edge 53, Type (0, 0), BuildingBlock: ZUJKAS_clean_linker_0, # of connection points: 2
#     Edge 54, Type (0, 0), BuildingBlock: ZUJKAS_clean_linker_0, # of connection points: 2
#     Edge 55, Type (0, 0), BuildingBlock: ZUJKAS_clean_linker_0, # of connection points: 2
#     Edge 56, Type (0, 0), BuildingBlock: ZUJKAS_clean_linker_0, # of connection points: 2
#     Edge 57, Type (0, 0), BuildingBlock: ZUJKAS_clean_linker_0, # of connection points: 2
#     Edge 58, Type (0, 0), BuildingBlock: ZUJKAS_clean_linker_0, # of connection points: 2
#     Edge 59, Type (0, 0), BuildingBlock: ZUJKAS_clean_linker_0, # of connection points: 2
#     Edge 60, Type (0, 0), BuildingBlock: ZUJKAS_clean_linker_0, # of connection points: 2
#     Edge 61, Type (0, 0), BuildingBlock: ZUJKAS_clean_linker_0, # of connection points: 2
#     Edge 62, Type (0, 0), BuildingBlock: ZUJKAS_clean_linker_0, # of connection points: 2
#     Edge 63, Type (0, 0), BuildingBlock: ZUJKAS_clean_linker_0, # of connection points: 2
# Relax obj value: 0.289
# Max RMSD: 0.272
# Mean RMSD: 0.272
data_MOF--net-vbr--node1-IZENUY_clean_sbu_0--edge1-ZUJKAS_clean_linker_0
_symmetry_space_group_name_H-M    P1
_symmetry_Int_Tables_number       1
_symmetry_cell_setting            triclinic
loop_
_symmetry_equiv_pos_as_xyz
'x, y, z'
_cell_length_a     55.541649
_cell_length_b     36.615459
_cell_length_c     69.965983
_cell_angle_alpha  89.956574
_cell_angle_beta   89.9073
_cell_angle_gamma 89.918159
loop_
_atom_site_label
_atom_site_type_symbol
_atom_site_fract_x
_atom_site_fract_y
_atom_site_fract_z
_atom_type_partial_charge
Fe0 Fe 0.34783 0.17003 0.11004 0.0
Fe1 Fe 0.34278 0.09856 0.13304 0.0
O2 O 0.32999 0.13926 0.12358 0.0
Fe3 Fe 0.29901 0.14931 0.12722 0.0
O4 O 0.293 0.1485 0.1016 0.0
O5 O 0.32333 0.1845 0.09448 0.0
O6 O 0.35422 0.13549 0.09248 0.0
C7 C 0.36194 0.10363 0.09535 0.0
C8 C 0.32128 0.21931 0.12979 0.0
O9 O 0.36244 0.09001 0.11209 0.0
C10 C 0.31156 0.12506 0.16283 0.0
O11 O 0.37584 0.16082 0.1227 0.0
O12 O 0.3663 0.12301 0.14584 0.0
O13 O 0.30308 0.19911 0.12704 0.0
O14 O 0.34221 0.20725 0.12662 0.0
C15 C 0.29854 0.07215 0.12282 0.0
O16 O 0.3246 0.10013 0.15538 0.0
O17 O 0.30316 0.15079 0.15281 0.0
C18 C 0.38066 0.14559 0.13841 0.0
O19 O 0.321 0.07009 0.12103 0.0
O20 O 0.28878 0.10152 0.12836 0.0
C21 C 0.30427 0.16812 0.08972 0.0
Fe22 Fe 0.22056 0.85422 0.63279 0.0
Fe23 Fe 0.17419 0.8353 0.61156 0.0
O24 O 0.19087 0.86591 0.62596 0.0
Fe25 Fe 0.17807 0.9082 0.63315 0.0
O26 O 0.20212 0.93408 0.62208 0.0
O27 O 0.23204 0.90138 0.63326 0.0
O28 O 0.2305 0.85142 0.60799 0.0
C29 C 0.22116 0.82952 0.59625 0.0
C30 C 0.20415 0.88372 0.66611 0.0
O31 O 0.20042 0.81653 0.59913 0.0
C32 C 0.13837 0.8646 0.6364 0.0
O33 O 0.21465 0.80488 0.63386 0.0
O34 O 0.17561 0.79941 0.62951 0.0
O35 O 0.19336 0.90869 0.65677 0.0
O36 O 0.21255 0.85601 0.65775 0.0
C37 C 0.16446 0.90086 0.59427 0.0
O38 O 0.14462 0.84847 0.62117 0.0
O39 O 0.15274 0.88589 0.64476 0.0
C40 C 0.19545 0.78628 0.63515 0.0
O41 O 0.17241 0.86877 0.59267 0.0
O42 O 0.16105 0.91511 0.61063 0.0
C43 C 0.22414 0.93067 0.62596 0.0
Fe44 Fe 0.34384 0.90744 0.88143 0.0
Fe45 Fe 0.30065 0.85496 0.8817 0.0
O46 O 0.33031 0.86596 0.88907 0.0
Fe47 Fe 0.34603 0.83553 0.90431 0.0
O48 O 0.34884 0.87 0.92254 0.0
O49 O 0.36019 0.91551 0.90407 0.0
O50 O 0.31966 0.93451 0.89165 0.0
C51 C 0.29784 0.93159 0.88711 0.0
C52 C 0.38294 0.86159 0.87947 0.0
O53 O 0.29006 0.90248 0.87966 0.0
C54 C 0.32407 0.78574 0.88148 0.0
O55 O 0.32928 0.90672 0.85749 0.0
O56 O 0.3099 0.85425 0.85698 0.0
O57 O 0.37586 0.8458 0.89455 0.0
O58 O 0.3695 0.88396 0.87079 0.0
C59 C 0.2987 0.83523 0.9192 0.0
O60 O 0.3053 0.80536 0.88211 0.0
O61 O 0.34396 0.79821 0.88724 0.0
C62 C 0.31863 0.8814 0.84832 0.0
O63 O 0.2897 0.85487 0.9062 0.0
O64 O 0.31909 0.82028 0.91705 0.0
C65 C 0.35717 0.90174 0.92058 0.0
Fe66 Fe 0.16663 0.16767 0.40225 0.0
Fe67 Fe 0.17093 0.09612 0.3795 0.0
O68 O 0.18376 0.13757 0.38781 0.0
Fe69 Fe 0.21403 0.14886 0.38222 0.0
O70 O 0.22258 0.14938 0.40743 0.0
O71 O 0.19223 0.18425 0.41594 0.0
O72 O 0.16351 0.13314 0.42038 0.0
C73 C 0.1561 0.10097 0.41815 0.0
C74 C 0.1898 0.21782 0.38059 0.0
O75 O 0.15308 0.08773 0.40153 0.0
C76 C 0.19888 0.1226 0.34776 0.0
O77 O 0.13754 0.15624 0.39159 0.0
O78 O 0.14605 0.11954 0.36776 0.0
O79 O 0.2087 0.19847 0.38216 0.0
O80 O 0.16949 0.20476 0.38509 0.0
C81 C 0.21646 0.07193 0.38754 0.0
O82 O 0.18721 0.09733 0.35623 0.0
O83 O 0.20739 0.14923 0.35698 0.0
C84 C 0.13164 0.14091 0.37611 0.0
O85 O 0.19425 0.069 0.39066 0.0
O86 O 0.2251 0.10133 0.38095 0.0
C87 C 0.21214 0.16922 0.41969 0.0
Fe88 Fe 0.6799 0.91149 0.87749 0.0
Fe89 Fe 0.67211 0.84606 0.9043 0.0
O90 O 0.69123 0.87197 0.88912 0.0
Fe91 Fe 0.72173 0.85919 0.88586 0.0
O92 O 0.73265 0.90287 0.89498 0.0
O93 O 0.70847 0.93603 0.87734 0.0
O94 O 0.67394 0.93287 0.90054 0.0
C95 C 0.66167 0.91886 0.91388 0.0
C96 C 0.70707 0.88208 0.84874 0.0
O97 O 0.6551 0.8858 0.91303 0.0
C98 C 0.70033 0.7918 0.88533 0.0
O99 O 0.64876 0.89475 0.87553 0.0
O100 O 0.65073 0.83788 0.88516 0.0
O101 O 0.72306 0.87527 0.86115 0.0
O102 O 0.68616 0.89244 0.85376 0.0
C103 C 0.71371 0.84325 0.92518 0.0
O104 O 0.68604 0.80197 0.89843 0.0
O105 O 0.71329 0.81467 0.87654 0.0
C106 C 0.63974 0.86304 0.87647 0.0
O107 O 0.69177 0.85201 0.92475 0.0
O108 O 0.72576 0.84044 0.9099 0.0
C109 C 0.72684 0.93333 0.88786 0.0
Fe110 Fe 0.84264 0.17795 0.40359 0.0
Fe111 Fe 0.79483 0.15902 0.38455 0.0
O112 O 0.82509 0.1474 0.38974 0.0
Fe113 Fe 0.83754 0.1056 0.38142 0.0
O114 O 0.85538 0.09739 0.40343 0.0
O115 O 0.84634 0.14413 0.42203 0.0
O116 O 0.81719 0.19571 0.41739 0.0
C117 C 0.79684 0.18211 0.42121 0.0
C118 C 0.87718 0.14953 0.3774 0.0
O119 O 0.78687 0.16022 0.40979 0.0
C120 C 0.80934 0.13236 0.34996 0.0
O121 O 0.83958 0.21426 0.38599 0.0
O122 O 0.80031 0.20849 0.38388 0.0
O123 O 0.86247 0.12829 0.36942 0.0
O124 O 0.87156 0.16579 0.3927 0.0
C125 C 0.79191 0.08206 0.38977 0.0
O126 O 0.80094 0.15882 0.35936 0.0
O127 O 0.8212 0.10698 0.35818 0.0
C128 C 0.81927 0.22719 0.38142 0.0
O129 O 0.78341 0.11192 0.38371 0.0
O130 O 0.81414 0.07868 0.39268 0.0
C131 C 0.85398 0.11194 0.41994 0.0
Fe132 Fe 0.67412 0.09025 0.13599 0.0
Fe133 Fe 0.66348 0.15305 0.10826 0.0
O134 O 0.68422 0.12842 0.12258 0.0
Fe135 Fe 0.71497 0.14072 0.12318 0.0
O136 O 0.72453 0.09575 0.11467 0.0
O137 O 0.70269 0.06562 0.1354 0.0
O138 O 0.66644 0.06674 0.11391 0.0
C139 C 0.65323 0.07977 0.10088 0.0
C140 C 0.70398 0.12177 0.16191 0.0
O141 O 0.64574 0.11241 0.10196 0.0
C142 C 0.69393 0.20864 0.12343 0.0
O143 O 0.64317 0.10712 0.13925 0.0
O144 O 0.64458 0.16334 0.12876 0.0
O145 O 0.71872 0.12745 0.14831 0.0
O146 O 0.68247 0.11196 0.15855 0.0
C147 C 0.70238 0.1525 0.0842 0.0
O148 O 0.67799 0.19759 0.11185 0.0
O149 O 0.70794 0.18639 0.13161 0.0
C150 C 0.63438 0.13901 0.1386 0.0
O151 O 0.68052 0.14484 0.08664 0.0
O152 O 0.71637 0.15652 0.09831 0.0
C153 C 0.71992 0.06671 0.12367 0.0
Fe154 Fe 0.85242 0.84688 0.60784 0.0
Fe155 Fe 0.80288 0.86659 0.62394 0.0
O156 O 0.83402 0.87669 0.62158 0.0
Fe157 Fe 0.84646 0.91628 0.63247 0.0
O158 O 0.86652 0.92694 0.61195 0.0
O159 O 0.85939 0.8827 0.59125 0.0
O160 O 0.82852 0.83362 0.5914 0.0
C161 C 0.80971 0.85053 0.58641 0.0
C162 C 0.88461 0.86921 0.63715 0.0
O163 O 0.79819 0.86977 0.59827 0.0
C164 C 0.81344 0.88723 0.66049 0.0
O165 O 0.84618 0.80851 0.62357 0.0
O166 O 0.80701 0.81673 0.62286 0.0
O167 O 0.86975 0.89057 0.64497 0.0
O168 O 0.88007 0.85501 0.62115 0.0
C169 C 0.80252 0.94429 0.62204 0.0
O170 O 0.80565 0.86281 0.64942 0.0
O171 O 0.82761 0.91217 0.65446 0.0
C172 C 0.82511 0.79647 0.62609 0.0
O173 O 0.79247 0.91425 0.62595 0.0
O174 O 0.82504 0.94637 0.62102 0.0
C175 C 0.86682 0.91438 0.59497 0.0
Fe176 Fe 0.84805 0.65568 0.11045 0.0
Fe177 Fe 0.8414 0.59037 0.13747 0.0
O178 O 0.82922 0.6289 0.12541 0.0
Fe179 Fe 0.79827 0.63968 0.128 0.0
O180 O 0.79439 0.65708 0.10368 0.0
O181 O 0.82927 0.64806 0.08963 0.0
O182 O 0.86637 0.61696 0.10239 0.0
C183 C 0.86062 0.5836 0.10138 0.0
C184 C 0.81776 0.70854 0.12827 0.0
O185 O 0.84855 0.56885 0.11464 0.0
C186 C 0.81287 0.61934 0.16556 0.0
O187 O 0.86846 0.66574 0.12999 0.0
O188 O 0.87198 0.60917 0.13975 0.0
O189 O 0.80488 0.68528 0.13685 0.0
O190 O 0.83287 0.69886 0.11569 0.0
C191 C 0.79543 0.56506 0.12665 0.0
O192 O 0.83405 0.60961 0.16091 0.0
O193 O 0.79687 0.62469 0.15294 0.0
C194 C 0.87998 0.64151 0.13895 0.0
O195 O 0.81356 0.56392 0.13749 0.0
O196 O 0.789 0.5949 0.11916 0.0
C197 C 0.80707 0.65509 0.08869 0.0
Fe198 Fe 0.66698 0.35502 0.61227 0.0
Fe199 Fe 0.67497 0.42168 0.63797 0.0
O200 O 0.68642 0.38195 0.62657 0.0
Fe201 Fe 0.7172 0.37011 0.62909 0.0
O202 O 0.72051 0.35128 0.60494 0.0
O203 O 0.68552 0.36128 0.59127 0.0
O204 O 0.64914 0.39401 0.60371 0.0
C205 C 0.65576 0.42691 0.60184 0.0
C206 C 0.69706 0.30183 0.63039 0.0
O207 O 0.66809 0.44203 0.61478 0.0
C208 C 0.70315 0.39323 0.66637 0.0
O209 O 0.64667 0.3468 0.63219 0.0
O210 O 0.64412 0.40418 0.64076 0.0
O211 O 0.7099 0.32536 0.63872 0.0
O212 O 0.68174 0.31137 0.61793 0.0
C213 C 0.7214 0.44448 0.62658 0.0
O214 O 0.68214 0.40361 0.66167 0.0
O215 O 0.71899 0.38638 0.65378 0.0
C216 C 0.63562 0.37209 0.64074 0.0
O217 O 0.70323 0.44702 0.63736 0.0
O218 O 0.72731 0.414 0.61956 0.0
C219 C 0.70756 0.35357 0.59012 0.0
Fe220 Fe 0.84631 0.33463 0.90479 0.0
Fe221 Fe 0.84152 0.40712 0.88296 0.0
O222 O 0.8292 0.36476 0.89044 0.0
Fe223 Fe 0.79949 0.35251 0.88382 0.0
O224 O 0.7897 0.35028 0.90861 0.0
O225 O 0.82038 0.3167 0.91793 0.0
O226 O 0.84871 0.36821 0.9234 0.0
C227 C 0.85643 0.40032 0.92167 0.0
C228 C 0.82489 0.28478 0.88191 0.0
O229 O 0.85883 0.41482 0.90525 0.0
C230 C 0.81516 0.38162 0.85032 0.0
O231 O 0.87549 0.34749 0.89457 0.0
O232 O 0.86696 0.38529 0.87116 0.0
O233 O 0.80555 0.30309 0.88327 0.0
O234 O 0.84464 0.29845 0.88715 0.0
C235 C 0.79552 0.42895 0.89034 0.0
O236 O 0.82578 0.40697 0.85949 0.0
O237 O 0.80747 0.35366 0.85886 0.0
C238 C 0.88145 0.36382 0.87934 0.0
O239 O 0.81746 0.43237 0.89431 0.0
O240 O 0.78774 0.39974 0.8829 0.0
C241 C 0.79963 0.32992 0.92088 0.0
Fe242 Fe 0.66804 0.67758 0.40416 0.0
Fe243 Fe 0.67314 0.60485 0.38227 0.0
O244 O 0.68544 0.64705 0.3901 0.0
Fe245 Fe 0.71556 0.65887 0.38427 0.0
O246 O 0.72417 0.66012 0.40934 0.0
O247 O 0.69359 0.69468 0.4178 0.0
O248 O 0.66461 0.64385 0.42267 0.0
C249 C 0.65756 0.61136 0.42094 0.0
C250 C 0.69103 0.7271 0.38181 0.0
O251 O 0.65575 0.59661 0.40454 0.0
C252 C 0.70062 0.63114 0.35017 0.0
O253 O 0.63908 0.66557 0.39348 0.0
O254 O 0.64773 0.62689 0.37051 0.0
O255 O 0.71001 0.70827 0.38383 0.0
O256 O 0.67083 0.71416 0.38665 0.0
C257 C 0.7191 0.58216 0.38993 0.0
O258 O 0.68916 0.60591 0.35886 0.0
O259 O 0.70869 0.65839 0.35911 0.0
C260 C 0.63321 0.64869 0.37845 0.0
O261 O 0.69701 0.57868 0.3934 0.0
O262 O 0.72715 0.61182 0.38327 0.0
C263 C 0.71367 0.68004 0.42151 0.0
Fe264 Fe 0.17687 0.40894 0.88022 0.0
Fe265 Fe 0.17178 0.33646 0.90229 0.0
O266 O 0.18918 0.36667 0.88807 0.0
Fe267 Fe 0.21925 0.35449 0.88215 0.0
O268 O 0.23097 0.40144 0.8812 0.0
O269 O 0.20083 0.43492 0.89122 0.0
O270 O 0.15957 0.41732 0.90251 0.0
C271 C 0.16153 0.40276 0.91896 0.0
C272 C 0.20377 0.38224 0.84802 0.0
O273 O 0.16874 0.37032 0.92078 0.0
C274 C 0.19421 0.2869 0.8796 0.0
O275 O 0.15137 0.38708 0.86858 0.0
O276 O 0.14283 0.34892 0.89179 0.0
O277 O 0.21233 0.35525 0.85696 0.0
O278 O 0.19262 0.40771 0.85676 0.0
C279 C 0.21733 0.3333 0.91951 0.0
O280 O 0.17417 0.2999 0.88482 0.0
O281 O 0.21338 0.3052 0.88159 0.0
C282 C 0.13692 0.36546 0.87666 0.0
O283 O 0.19729 0.31878 0.91574 0.0
O284 O 0.228 0.35289 0.90727 0.0
C285 C 0.22293 0.43118 0.88782 0.0
Fe286 Fe 0.29614 0.64409 0.38739 0.0
Fe287 Fe 0.33713 0.59193 0.37664 0.0
O288 O 0.32678 0.63102 0.38913 0.0
Fe289 Fe 0.34698 0.65618 0.40366 0.0
O290 O 0.32875 0.64921 0.42478 0.0
O291 O 0.2939 0.66239 0.41176 0.0
O292 O 0.28576 0.60025 0.39676 0.0
C293 C 0.29108 0.56991 0.38925 0.0
C294 C 0.31763 0.71128 0.38635 0.0
O295 O 0.30845 0.56751 0.37763 0.0
C296 C 0.37748 0.64004 0.37441 0.0
O297 O 0.29296 0.62858 0.36266 0.0
O298 O 0.32938 0.61213 0.35349 0.0
O299 O 0.33271 0.70073 0.39882 0.0
O300 O 0.30417 0.68865 0.37794 0.0
C301 C 0.35751 0.58293 0.41214 0.0
O302 O 0.36819 0.60851 0.37348 0.0
O303 O 0.36712 0.66502 0.38372 0.0
C304 C 0.30811 0.62227 0.34948 0.0
O305 O 0.34447 0.56963 0.39913 0.0
O306 O 0.36439 0.61588 0.4113 0.0
C307 C 0.30701 0.65839 0.42639 0.0
Fe308 Fe 0.17383 0.59557 0.13402 0.0
Fe309 Fe 0.16446 0.66104 0.10769 0.0
O310 O 0.18465 0.6344 0.1215 0.0
Fe311 Fe 0.21561 0.64573 0.12254 0.0
O312 O 0.22464 0.60149 0.1129 0.0
O313 O 0.20193 0.5697 0.13242 0.0
O314 O 0.16526 0.57411 0.11156 0.0
C315 C 0.15241 0.58874 0.09877 0.0
C316 C 0.20427 0.62454 0.16065 0.0
O317 O 0.14605 0.62187 0.10027 0.0
C318 C 0.19567 0.71413 0.12435 0.0
O319 O 0.14323 0.61365 0.13787 0.0
O320 O 0.14549 0.67041 0.12823 0.0
O321 O 0.2192 0.62992 0.1472 0.0
O322 O 0.18276 0.61497 0.15707 0.0
C323 C 0.20345 0.6617 0.08389 0.0
O324 O 0.17972 0.70462 0.11241 0.0
O325 O 0.20912 0.69066 0.13218 0.0
C326 C 0.13478 0.64581 0.13751 0.0
O327 O 0.18159 0.65384 0.08604 0.0
O328 O 0.21735 0.66406 0.09815 0.0
C329 C 0.21903 0.57141 0.12052 0.0
Fe330 Fe 0.34131 0.40837 0.63128 0.0
Fe331 Fe 0.34828 0.33669 0.60861 0.0
O332 O 0.32964 0.36673 0.62206 0.0
Fe333 Fe 0.29897 0.35481 0.62591 0.0
O334 O 0.28732 0.40178 0.62691 0.0
O335 O 0.31841 0.4355 0.61953 0.0
O336 O 0.36019 0.418 0.61012 0.0
C337 C 0.36045 0.40376 0.59356 0.0
C338 C 0.31125 0.38032 0.66138 0.0
O339 O 0.35387 0.37129 0.59079 0.0
C340 C 0.32312 0.28653 0.62911 0.0
O341 O 0.36589 0.38574 0.64389 0.0
O342 O 0.37609 0.34759 0.62109 0.0
O343 O 0.30328 0.35411 0.65151 0.0
O344 O 0.32367 0.40574 0.65379 0.0
C345 C 0.30446 0.33541 0.5885 0.0
O346 O 0.3437 0.29939 0.62543 0.0
O347 O 0.30439 0.3054 0.62606 0.0
C348 C 0.38074 0.36372 0.63655 0.0
O349 O 0.32408 0.32053 0.59325 0.0
O350 O 0.29277 0.35472 0.60028 0.0
C351 C 0.29607 0.43194 0.62159 0.0
H352 H 0.25684 0.17711 0.07962 0.0
H353 H 0.24208 0.2036 0.04947 0.0
H354 H 0.31475 0.20643 0.02766 0.0
H355 H 0.32943 0.1801 0.05746 0.0
H356 H 0.25887 0.27372 0.03678 0.0
H357 H 0.27584 0.16641 0.98235 0.0
H358 H 0.27384 0.1565 0.00761 0.0
H359 H 0.30095 0.17556 0.99775 0.0
C360 C 0.26946 0.18239 0.06813 0.0
C361 C 0.29423 0.17676 0.0708 0.0
C362 C 0.26109 0.19767 0.05102 0.0
C363 C 0.27735 0.20674 0.03634 0.0
C364 C 0.30188 0.19914 0.03867 0.0
H365 H 0.26546 0.32312 0.92739 0.0
H366 H 0.28223 0.29602 0.95678 0.0
C367 C 0.31024 0.18429 0.05574 0.0
C368 C 0.26937 0.22775 0.01946 0.0
H369 H 0.26755 0.2262 0.97072 0.0
C370 C 0.26056 0.26326 0.02233 0.0
C371 C 0.2721 0.21423 1.00066 0.0
C372 C 0.28101 0.17597 0.99684 0.0
C373 C 0.25448 0.28575 0.00685 0.0
C374 C 0.25693 0.2721 0.98805 0.0
C375 C 0.26595 0.2367 0.98516 0.0
C376 C 0.24786 0.29256 0.97132 0.0
C377 C 0.24569 0.32406 0.01073 0.0
C378 C 0.22319 0.29994 0.96999 0.0
C379 C 0.21372 0.31513 0.9534 0.0
C380 C 0.2287 0.32318 0.93776 0.0
C381 C 0.25361 0.31741 0.93933 0.0
C382 C 0.26313 0.3018 0.956 0.0
H383 H 0.25185 0.33403 0.02489 0.0
H384 H 0.25201 0.34333 0.99953 0.0
H385 H 0.22571 0.32426 0.01076 0.0
H386 H 0.21106 0.29248 0.98148 0.0
H387 H 0.19443 0.3194 0.95257 0.0
H388 H 0.32779 0.64789 0.46142 0.0
H389 H 0.31527 0.67448 0.49194 0.0
H390 H 0.2546 0.72554 0.46423 0.0
H391 H 0.26658 0.69844 0.43384 0.0
H392 H 0.31144 0.74648 0.50107 0.0
H393 H 0.22305 0.67872 0.50998 0.0
H394 H 0.24496 0.66363 0.49263 0.0
H395 H 0.22565 0.70193 0.48749 0.0
C396 C 0.31156 0.6643 0.46189 0.0
C397 C 0.29811 0.6709 0.44521 0.0
C398 C 0.3045 0.67959 0.47932 0.0
C399 C 0.28388 0.70169 0.48039 0.0
C400 C 0.27026 0.70791 0.46382 0.0
H401 H 0.24573 0.86225 0.567 0.0
H402 H 0.26376 0.83117 0.53928 0.0
C403 C 0.27717 0.69241 0.44644 0.0
C404 C 0.27712 0.71951 0.49862 0.0
H405 H 0.23054 0.73027 0.52988 0.0
C406 C 0.29383 0.74271 0.5075 0.0
C407 C 0.25425 0.71427 0.50706 0.0
C408 C 0.23604 0.68799 0.49891 0.0
C409 C 0.2881 0.76136 0.52445 0.0
C410 C 0.26486 0.75727 0.53244 0.0
C411 C 0.24832 0.73363 0.52368 0.0
C412 C 0.25714 0.77654 0.55005 0.0
C413 C 0.30709 0.78477 0.53375 0.0
C414 C 0.24756 0.75626 0.56527 0.0
C415 C 0.23692 0.7739 0.58075 0.0
C416 C 0.23596 0.81217 0.58144 0.0
C417 C 0.24664 0.8327 0.5668 0.0
C418 C 0.25697 0.81494 0.55105 0.0
H419 H 0.3255 0.77659 0.5292 0.0
H420 H 0.30432 0.81364 0.52945 0.0
H421 H 0.30599 0.78312 0.54958 0.0
H422 H 0.24752 0.72667 0.56485 0.0
H423 H 0.22874 0.75759 0.59195 0.0
H424 H 0.24796 0.68799 0.07442 0.0
H425 H 0.25918 0.7203 0.04521 0.0
H426 H 0.18862 0.70054 0.02183 0.0
H427 H 0.17724 0.66759 0.05087 0.0
H428 H 0.22594 0.69153 0.99536 0.0
H429 H 0.23388 0.82333 0.03374 0.0
H430 H 0.25187 0.78774 0.0441 0.0
H431 H 0.21959 0.78377 0.04418 0.0
C432 C 0.2349 0.69001 0.06298 0.0
C433 C 0.21159 0.67564 0.06511 0.0
C434 C 0.24128 0.70879 0.04638 0.0
C435 C 0.22446 0.71371 0.03167 0.0
C436 C 0.20171 0.69746 0.03318 0.0
H437 H 0.2495 0.83067 0.92278 0.0
H438 H 0.22718 0.80465 0.95001 0.0
C439 C 0.19529 0.67857 0.04978 0.0
C440 C 0.23061 0.73637 0.01488 0.0
H441 H 0.25097 0.82094 1.00225 0.0
C442 C 0.23102 0.71999 0.99676 0.0
C443 C 0.23691 0.77363 0.0168 0.0
C444 C 0.23532 0.79329 0.03572 0.0
C445 C 0.23903 0.73934 0.98066 0.0
C446 C 0.24656 0.77597 0.9828 0.0
C447 C 0.24511 0.79284 1.00073 0.0
C448 C 0.25897 0.7954 0.96718 0.0
C449 C 0.24068 0.72005 0.96165 0.0
C450 C 0.28397 0.79969 0.96824 0.0
C451 C 0.29664 0.8142 0.95284 0.0
C452 C 0.28449 0.825 0.93616 0.0
C453 C 0.25925 0.82261 0.9355 0.0
C454 C 0.24655 0.80763 0.95093 0.0
H455 H 0.2358 0.6907 0.96272 0.0
H456 H 0.22836 0.73337 0.95129 0.0
H457 H 0.25925 0.72222 0.95584 0.0
H458 H 0.2938 0.7905 0.98072 0.0
H459 H 0.31607 0.81608 0.95379 0.0
H460 H 0.25682 0.32923 0.57794 0.0
H461 H 0.24171 0.30125 0.54828 0.0
H462 H 0.31451 0.2904 0.52752 0.0
H463 H 0.32962 0.31788 0.55685 0.0
H464 H 0.25036 0.31877 0.5073 0.0
H465 H 0.28731 0.18414 0.52965 0.0
H466 H 0.28283 0.22137 0.5462 0.0
H467 H 0.30828 0.22144 0.53032 0.0
C468 C 0.26948 0.32153 0.56686 0.0
C469 C 0.29438 0.32518 0.56977 0.0
C470 C 0.26088 0.30544 0.55001 0.0
C471 C 0.27711 0.29304 0.536 0.0
C472 C 0.30179 0.29907 0.53837 0.0
H473 H 0.26058 0.17704 0.4273 0.0
H474 H 0.27802 0.20616 0.45588 0.0
C475 C 0.31034 0.31486 0.55511 0.0
C476 C 0.26863 0.27222 0.51924 0.0
H477 H 0.27158 0.18807 0.49825 0.0
C478 C 0.2549 0.29019 0.50533 0.0
C479 C 0.2748 0.23499 0.51671 0.0
C480 C 0.28895 0.21415 0.53156 0.0
C481 C 0.24729 0.27189 0.4888 0.0
C482 C 0.25332 0.23462 0.48635 0.0
C483 C 0.26719 0.21671 0.50018 0.0
C484 C 0.24374 0.21334 0.47016 0.0
C485 C 0.23294 0.29253 0.474 0.0
C486 C 0.21902 0.20639 0.4693 0.0
C487 C 0.20917 0.18986 0.45324 0.0
C488 C 0.22387 0.1798 0.43772 0.0
C489 C 0.2489 0.18446 0.43909 0.0
C490 C 0.25881 0.20124 0.45529 0.0
H491 H 0.23453 0.32257 0.47584 0.0
H492 H 0.23895 0.28521 0.45934 0.0
H493 H 0.21365 0.28509 0.47535 0.0
H494 H 0.20721 0.21491 0.48081 0.0
H495 H 0.18983 0.18611 0.45266 0.0
H496 H 0.76021 0.82195 0.93129 0.0
H497 H 0.77627 0.79 0.95912 0.0
H498 H 0.70762 0.79993 0.9875 0.0
H499 H 0.69133 0.83236 0.95976 0.0
H500 H 0.74808 0.81285 0.01138 0.0
H501 H 0.75725 0.68349 0.97054 0.0
H502 H 0.77214 0.72205 0.95994 0.0
H503 H 0.73987 0.72179 0.96193 0.0
C504 C 0.74855 0.81779 0.94352 0.0
C505 C 0.72436 0.82931 0.94317 0.0
C506 C 0.75774 0.79928 0.95936 0.0
C507 C 0.74293 0.79178 0.97512 0.0
C508 C 0.71924 0.80512 0.97535 0.0
H509 H 0.76039 0.6744 0.08173 0.0
H510 H 0.74463 0.70587 0.05366 0.0
C511 C 0.70999 0.82373 0.9595 0.0
C512 C 0.752 0.7691 0.99109 0.0
H513 H 0.77338 0.68401 1.00191 0.0
C514 C 0.75352 0.78465 0.00935 0.0
C515 C 0.75907 0.7323 0.98835 0.0
C516 C 0.75684 0.71372 0.96918 0.0
C517 C 0.76236 0.76454 0.02493 0.0
C518 C 0.76944 0.72776 0.02218 0.0
C519 C 0.76794 0.71221 1.00392 0.0
C520 C 0.77836 0.70508 0.03819 0.0
C521 C 0.76448 0.78303 0.04413 0.0
C522 C 0.80223 0.69246 0.03832 0.0
C523 C 0.81133 0.67418 0.05433 0.0
C524 C 0.79664 0.6682 0.07045 0.0
C525 C 0.7723 0.67886 0.06968 0.0
C526 C 0.76326 0.69708 0.0537 0.0
H527 H 0.76383 0.81327 0.04284 0.0
H528 H 0.74928 0.77435 0.05338 0.0
H529 H 0.78152 0.77519 0.05134 0.0
H530 H 0.81408 0.69805 0.02636 0.0
H531 H 0.83012 0.66619 0.05439 0.0
H532 H 0.74734 0.31145 0.58419 0.0
H533 H 0.76038 0.28357 0.55429 0.0
H534 H 0.70268 0.33799 0.52437 0.0
H535 H 0.689 0.36525 0.55445 0.0
H536 H 0.70528 0.26616 0.51525 0.0
H537 H 0.79588 0.32839 0.51005 0.0
H538 H 0.79135 0.30508 0.53231 0.0
H539 H 0.77339 0.34461 0.52664 0.0
C540 C 0.73767 0.31806 0.5712 0.0
C541 C 0.71721 0.34069 0.57165 0.0
C542 C 0.74517 0.30211 0.55411 0.0
C543 C 0.73268 0.30908 0.53708 0.0
C544 C 0.71256 0.3323 0.53738 0.0
H545 H 0.79167 0.25409 0.42712 0.0
H546 H 0.77291 0.28431 0.45438 0.0
C547 C 0.70485 0.34796 0.55453 0.0
C548 C 0.74011 0.29092 0.51913 0.0
H549 H 0.78825 0.27754 0.48972 0.0
C550 C 0.72335 0.26886 0.50953 0.0
C551 C 0.76362 0.29474 0.51165 0.0
C552 C 0.78201 0.31979 0.52059 0.0
C553 C 0.7296 0.25012 0.49274 0.0
C554 C 0.75339 0.2529 0.48568 0.0
C555 C 0.77004 0.27521 0.49523 0.0
C556 C 0.7615 0.23414 0.46806 0.0
C557 C 0.71059 0.22814 0.48256 0.0
C558 C 0.76071 0.19586 0.4664 0.0
C559 C 0.77107 0.17851 0.45054 0.0
C560 C 0.78278 0.1993 0.43651 0.0
C561 C 0.78286 0.23753 0.43791 0.0
C562 C 0.77218 0.25478 0.45345 0.0
H563 H 0.69215 0.23704 0.48664 0.0
H564 H 0.71252 0.23047 0.46681 0.0
H565 H 0.71252 0.19895 0.48655 0.0
H566 H 0.75301 0.17935 0.4777 0.0
H567 H 0.77104 0.14896 0.44974 0.0
H568 H 0.67542 0.15992 0.05162 0.0
H569 H 0.68823 0.18668 0.02121 0.0
H570 H 0.76063 0.19668 0.04265 0.0
H571 H 0.74811 0.17017 0.07311 0.0
H572 H 0.71016 0.25957 0.01918 0.0
H573 H 0.76781 0.1506 0.98826 0.0
H574 H 0.74508 0.14158 0.00617 0.0
H575 H 0.77361 0.16059 0.01298 0.0
C576 C 0.69418 0.16721 0.04978 0.0
C577 C 0.71073 0.16316 0.06488 0.0
C578 C 0.70141 0.18257 0.03241 0.0
C579 C 0.72534 0.19353 0.02974 0.0
C580 C 0.74212 0.18802 0.04441 0.0
H581 H 0.8181 0.30608 0.95434 0.0
H582 H 0.79705 0.27462 0.98012 0.0
C583 C 0.7349 0.17294 0.06183 0.0
C584 C 0.73257 0.2134 0.01227 0.0
H585 H 0.77206 0.21024 0.97499 0.0
C586 C 0.72342 0.2487 0.00929 0.0
C587 C 0.74982 0.19898 0.99951 0.0
C588 C 0.75954 0.16072 1.00173 0.0
C589 C 0.7321 0.27083 0.9944 0.0
C590 C 0.75005 0.25687 0.98205 0.0
C591 C 0.75839 0.22095 0.98457 0.0
C592 C 0.7618 0.27962 0.96724 0.0
C593 C 0.72292 0.30948 0.9926 0.0
C594 C 0.74883 0.2938 0.95168 0.0
C595 C 0.76085 0.31227 0.93694 0.0
C596 C 0.78601 0.3162 0.9375 0.0
C597 C 0.79872 0.30319 0.95346 0.0
C598 C 0.78673 0.28515 0.96818 0.0
H599 H 0.71284 0.31831 1.00552 0.0
H600 H 0.73803 0.32874 0.99013 0.0
H601 H 0.7106 0.31129 0.98016 0.0
H602 H 0.72961 0.28937 0.95056 0.0
H603 H 0.75067 0.32175 0.92471 0.0
H604 H 0.76218 0.68644 0.42846 0.0
H605 H 0.78075 0.71456 0.45678 0.0
H606 H 0.71051 0.72764 0.48231 0.0
H607 H 0.69205 0.6996 0.45443 0.0
H608 H 0.76918 0.78704 0.46893 0.0
H609 H 0.75099 0.68568 0.52604 0.0
H610 H 0.75013 0.67418 0.50095 0.0
H611 H 0.7249 0.69663 0.51203 0.0
C612 C 0.75086 0.69451 0.44036 0.0
C613 C 0.72572 0.69109 0.43928 0.0
C614 C 0.76142 0.71069 0.45642 0.0
C615 C 0.74696 0.72289 0.47162 0.0
C616 C 0.722 0.71791 0.47086 0.0
H617 H 0.76215 0.84631 0.57623 0.0
H618 H 0.74632 0.81931 0.54666 0.0
C619 C 0.71148 0.7021 0.45487 0.0
C620 C 0.75733 0.74383 0.48761 0.0
H621 H 0.76074 0.74616 0.53624 0.0
C622 C 0.76765 0.77798 0.48365 0.0
C623 C 0.75498 0.73199 0.50674 0.0
C624 C 0.74485 0.69496 0.51173 0.0
C625 C 0.77518 0.8011 0.49844 0.0
C626 C 0.77245 0.78948 0.51758 0.0
C627 C 0.76241 0.75515 0.52152 0.0
C628 C 0.78139 0.81127 0.53378 0.0
C629 C 0.78549 0.83804 0.49356 0.0
C630 C 0.8062 0.81638 0.53598 0.0
C631 C 0.8152 0.83152 0.55274 0.0
C632 C 0.79952 0.84179 0.56759 0.0
C633 C 0.77456 0.83882 0.56492 0.0
C634 C 0.76555 0.82328 0.54814 0.0
H635 H 0.78078 0.84654 0.47878 0.0
H636 H 0.77896 0.85917 0.5037 0.0
H637 H 0.80541 0.83683 0.49462 0.0
H638 H 0.8187 0.80684 0.52517 0.0
H639 H 0.83453 0.8337 0.55445 0.0
H640 H 0.35695 0.87727 0.95746 0.0
H641 H 0.36305 0.91238 0.98661 0.0
H642 H 0.37726 0.00884 0.9531 0.0
H643 H 0.37086 0.97386 0.92362 0.0
H644 H 0.40211 0.95326 1.00036 0.0
H645 H 0.32138 0.03999 0.98804 0.0
H646 H 0.32708 0.99885 0.97459 0.0
H647 H 0.34312 0.04009 0.96901 0.0
C648 C 0.36154 0.90591 0.95618 0.0
C649 C 0.36325 0.92276 0.93811 0.0
C650 C 0.36508 0.92593 0.97293 0.0
C651 C 0.37028 0.96334 0.97208 0.0
C652 C 0.37287 0.98009 0.9541 0.0
H653 H 0.37475 0.12926 0.06027 0.0
H654 H 0.37979 0.09457 0.03083 0.0
C655 C 0.36936 0.96001 0.93726 0.0
C656 C 0.37201 0.98474 0.99009 0.0
H657 H 0.34453 0.05285 0.01536 0.0
C658 C 0.38959 0.97514 1.00364 0.0
C659 C 0.35555 0.01308 0.99442 0.0
C660 C 0.33556 0.02352 0.98086 0.0
C661 C 0.39132 0.99343 0.02128 0.0
C662 C 0.37476 0.02164 0.02563 0.0
C663 C 0.35728 0.0313 0.01202 0.0
C664 C 0.37502 0.04173 0.04413 0.0
C665 C 0.41108 0.98277 0.03496 0.0
C666 C 0.37123 0.02357 0.06161 0.0
C667 C 0.36852 0.04344 0.07864 0.0
C668 C 0.36926 0.08183 0.07841 0.0
C669 C 0.37404 0.09972 0.06099 0.0
C670 C 0.37688 0.07992 0.04409 0.0
H671 H 0.42594 0.96812 0.02757 0.0
H672 H 0.4186 0.00714 0.04225 0.0
H673 H 0.40359 0.96426 0.04603 0.0
H674 H 0.36925 0.99416 0.06197 0.0
H675 H 0.36452 0.02888 0.09174 0.0
H676 H 0.18815 0.89587 0.5606 0.0
H677 H 0.1808 0.92957 0.53116 0.0
H678 H 0.12059 0.98436 0.55777 0.0
H679 H 0.12903 0.95214 0.58785 0.0
H680 H 0.14654 0.93101 0.5072 0.0
H681 H 0.15353 0.07081 0.53714 0.0
H682 H 0.16081 0.03084 0.55098 0.0
H683 H 0.12988 0.04447 0.5478 0.0
C684 C 0.1734 0.91527 0.56022 0.0
C685 C 0.15924 0.92156 0.57656 0.0
C686 C 0.16914 0.93449 0.54332 0.0
C687 C 0.15032 0.96007 0.54215 0.0
C688 C 0.1357 0.96571 0.55836 0.0
H689 H 0.12304 0.04585 0.42476 0.0
H690 H 0.11747 0.01131 0.45466 0.0
C691 C 0.1404 0.94712 0.57553 0.0
C692 C 0.14645 0.98045 0.52387 0.0
H693 H 0.14329 0.06611 0.50465 0.0
C694 C 0.14584 0.9606 0.50666 0.0
C695 C 0.14556 0.01909 0.52305 0.0
C696 C 0.14771 0.04258 0.5407 0.0
C697 C 0.14552 0.97811 0.48875 0.0
C698 C 0.14457 0.01675 0.48794 0.0
C699 C 0.14398 0.03651 0.50518 0.0
C700 C 0.14688 0.03759 0.46964 0.0
C701 C 0.14759 0.95496 0.47097 0.0
C702 C 0.16465 0.06468 0.46817 0.0
C703 C 0.16726 0.08504 0.45147 0.0
C704 C 0.15246 0.07855 0.43556 0.0
C705 C 0.13479 0.05121 0.43677 0.0
C706 C 0.13175 0.03131 0.45382 0.0
H707 H 0.15449 0.92715 0.47423 0.0
H708 H 0.12952 0.95193 0.46443 0.0
H709 H 0.15978 0.96777 0.46032 0.0
H710 H 0.17672 0.07005 0.47999 0.0
H711 H 0.18123 0.10565 0.45093 0.0
H712 H 0.68705 0.97612 0.92863 0.0
H713 H 0.68267 1.00317 0.96043 0.0
H714 H 0.6198 0.93683 0.97061 0.0
H715 H 0.62483 0.90842 0.93924 0.0
H716 H 0.65084 0.0415 0.97901 0.0
H717 H 0.65901 0.90808 0.01562 0.0
H718 H 0.66403 0.91321 0.99032 0.0
H719 H 0.63387 0.9091 0.99961 0.0
C720 C 0.67209 0.96767 0.93755 0.0
C721 C 0.65639 0.93993 0.93149 0.0
C722 C 0.66965 0.98305 0.95578 0.0
C723 C 0.65133 0.97128 0.96824 0.0
C724 C 0.63463 0.94543 0.96162 0.0
H725 H 0.61865 0.09111 0.07363 0.0
H726 H 0.61657 0.06354 0.04183 0.0
C727 C 0.63735 0.92951 0.94357 0.0
C728 C 0.6501 0.98539 0.98822 0.0
H729 H 0.64763 0.9585 0.03501 0.0
C730 C 0.65018 0.02332 0.99125 0.0
C731 C 0.64981 0.96176 1.0043 0.0
C732 C 0.65195 0.92082 1.00234 0.0
C733 C 0.64977 0.03823 0.00977 0.0
C734 C 0.64822 0.0146 0.0258 0.0
C735 C 0.64835 0.97668 0.02277 0.0
C736 C 0.64764 0.02856 0.04582 0.0
C737 C 0.65191 0.07914 0.01192 0.0
C738 C 0.66469 0.01629 0.0592 0.0
C739 C 0.66544 0.0312 0.0776 0.0
C740 C 0.64927 0.05896 0.08298 0.0
C741 C 0.63144 0.06991 0.0699 0.0
C742 C 0.63045 0.05452 0.05161 0.0
H743 H 0.66021 0.09185 0.99908 0.0
H744 H 0.63369 0.09111 0.0137 0.0
H745 H 0.66291 0.08646 0.02459 0.0
H746 H 0.67805 0.99611 0.05518 0.0
H747 H 0.67955 0.02236 0.08724 0.0
H748 H 0.86464 0.98912 0.59114 0.0
H749 H 0.86834 0.02371 0.5611 0.0
H750 H 0.88895 0.92524 0.53155 0.0
H751 H 0.88524 0.89071 0.56123 0.0
H752 H 0.90722 0.03046 0.53135 0.0
H753 H 0.82474 0.95968 0.50598 0.0
H754 H 0.83336 0.96064 0.53084 0.0
H755 H 0.84838 0.93039 0.5145 0.0
C756 C 0.87067 0.97514 0.57836 0.0
C757 C 0.87449 0.93716 0.57853 0.0
C758 C 0.87263 0.99485 0.56119 0.0
C759 C 0.87844 0.97683 0.54405 0.0
C760 C 0.88404 0.93953 0.54455 0.0
H761 H 0.86615 0.03912 0.42346 0.0
H762 H 0.87499 0.00568 0.45311 0.0
C763 C 0.88201 0.91989 0.56156 0.0
C764 C 0.87684 0.99597 0.52537 0.0
H765 H 0.84455 0.99792 0.48384 0.0
C766 C 0.89351 0.02346 0.52096 0.0
C767 C 0.85904 0.98654 0.51178 0.0
C768 C 0.84021 0.95792 0.51598 0.0
C769 C 0.89297 0.04159 0.50322 0.0
C770 C 0.87496 0.03248 0.48971 0.0
C771 C 0.85844 0.00473 0.49411 0.0
C772 C 0.87181 0.05298 0.4715 0.0
C773 C 0.91192 0.06996 0.49901 0.0
C774 C 0.86707 0.09057 0.47196 0.0
C775 C 0.86207 0.10963 0.45514 0.0
C776 C 0.86149 0.09157 0.43736 0.0
C777 C 0.86662 0.05394 0.43685 0.0
C778 C 0.87161 0.0348 0.45378 0.0
H779 H 0.9284 0.06538 0.50768 0.0
H780 H 0.91698 0.06993 0.48364 0.0
H781 H 0.90474 0.09738 0.50267 0.0
H782 H 0.86649 0.10507 0.48543 0.0
H783 H 0.85812 0.13854 0.45619 0.0
H784 H 0.88592 0.60813 0.07043 0.0
H785 H 0.89063 0.5783 0.03947 0.0
H786 H 0.8537 0.48323 0.06085 0.0
H787 H 0.84865 0.51296 0.09203 0.0
H788 H 0.90072 0.47418 0.03615 0.0
H789 H 0.82759 0.55984 1.005 0.0
H790 H 0.85046 0.58213 0.01898 0.0
H791 H 0.82982 0.55144 0.03039 0.0
C792 C 0.8791 0.58062 0.06874 0.0
C793 C 0.86681 0.56299 0.08377 0.0
C794 C 0.88177 0.56371 0.05097 0.0
C795 C 0.8723 0.5288 0.04786 0.0
C796 C 0.86108 0.51028 0.06302 0.0
H797 H 0.8557 0.37426 0.95811 0.0
H798 H 0.86251 0.40731 0.98761 0.0
C799 C 0.85828 0.52726 0.08083 0.0
C800 C 0.87299 0.51252 0.0285 0.0
H801 H 0.84626 0.5173 0.98465 0.0
C802 C 0.88891 0.48363 0.02485 0.0
C803 C 0.8578 0.52536 0.01375 0.0
C804 C 0.84031 0.55629 0.0171 0.0
C805 C 0.88981 0.46682 0.00681 0.0
C806 C 0.8739 0.47863 0.99223 0.0
C807 C 0.85847 0.50828 0.99578 0.0
C808 C 0.87138 0.45853 0.97389 0.0
C809 C 0.90789 0.43666 1.00354 0.0
C810 C 0.87355 0.47646 0.95617 0.0
C811 C 0.8694 0.45756 0.93904 0.0
C812 C 0.86282 0.42047 0.93937 0.0
C813 C 0.86092 0.4027 0.95718 0.0
C814 C 0.865 0.42152 0.97417 0.0
H815 H 0.92375 0.43971 0.01307 0.0
H816 H 0.89937 0.41 0.00685 0.0
H817 H 0.91423 0.43615 0.98848 0.0
H818 H 0.8782 0.50517 0.95563 0.0
H819 H 0.87084 0.47214 0.92561 0.0
H820 H 0.64451 0.5388 0.42506 0.0
H821 H 0.63856 0.50513 0.45514 0.0
H822 H 0.65329 0.60325 0.48705 0.0
H823 H 0.65863 0.63693 0.4575 0.0
H824 H 0.67073 0.49312 0.48378 0.0
H825 H 0.59331 0.5691 0.51351 0.0
H826 H 0.6024 0.57336 0.48884 0.0
H827 H 0.61738 0.59933 0.50716 0.0
C828 C 0.64601 0.55331 0.43849 0.0
C829 C 0.65183 0.59071 0.43875 0.0
C830 C 0.6427 0.53401 0.45568 0.0
C831 C 0.645 0.55178 0.47342 0.0
C832 C 0.65069 0.58907 0.47363 0.0
H833 H 0.66607 0.49813 0.59226 0.0
H834 H 0.66159 0.52714 0.56083 0.0
C835 C 0.65391 0.60829 0.45659 0.0
C836 C 0.64305 0.53138 0.49183 0.0
H837 H 0.61686 0.53456 0.53612 0.0
C838 C 0.65866 0.5018 0.4951 0.0
C839 C 0.62732 0.54267 0.50669 0.0
C840 C 0.60899 0.57261 0.50381 0.0
C841 C 0.65967 0.4843 0.513 0.0
C842 C 0.64461 0.49657 0.52802 0.0
C843 C 0.62857 0.52546 0.52465 0.0
C844 C 0.64556 0.47992 0.54738 0.0
C845 C 0.67741 0.45356 0.51597 0.0
C846 C 0.6374 0.44415 0.55036 0.0
C847 C 0.6397 0.42763 0.56831 0.0
C848 C 0.6503 0.4465 0.5837 0.0
C849 C 0.65774 0.48283 0.5808 0.0
C850 C 0.65526 0.49942 0.56283 0.0
H851 H 0.69044 0.45125 0.50397 0.0
H852 H 0.68755 0.45758 0.52947 0.0
H853 H 0.6675 0.42736 0.51716 0.0
H854 H 0.62965 0.42875 0.53869 0.0
H855 H 0.63385 0.39959 0.56992 0.0
H856 H 0.13007 0.61476 0.06667 0.0
H857 H 0.12609 0.58445 0.03574 0.0
H858 H 0.15837 0.48706 0.05905 0.0
H859 H 0.16253 0.51714 0.09011 0.0
H860 H 0.16623 0.55636 0.01453 0.0
H861 H 0.09834 0.44912 0.02982 0.0
H862 H 0.10202 0.489 0.04472 0.0
H863 H 0.12274 0.45147 0.04661 0.0
C864 C 0.13586 0.5866 0.0654 0.0
C865 C 0.14652 0.56835 0.08099 0.0
C866 C 0.13366 0.5694 0.04764 0.0
C867 C 0.14176 0.53343 0.0451 0.0
C868 C 0.15165 0.51465 0.06076 0.0
H869 H 0.1661 0.37943 0.95578 0.0
H870 H 0.1594 0.41351 0.98505 0.0
C871 C 0.15402 0.53192 0.07852 0.0
C872 C 0.14154 0.51652 0.02578 0.0
H873 H 0.11985 0.44393 1.00053 0.0
C874 C 0.15589 0.532 0.01136 0.0
C875 C 0.12806 0.48476 0.02171 0.0
C876 C 0.11173 0.46769 0.03645 0.0
C877 C 0.15795 0.5157 0.99322 0.0
C878 C 0.14478 0.4835 0.98922 0.0
C879 C 0.1299 0.46863 1.00353 0.0
C880 C 0.14772 0.46303 0.97094 0.0
C881 C 0.17511 0.53216 0.97887 0.0
C882 C 0.14304 0.47922 0.95307 0.0
C883 C 0.14706 0.45971 0.93607 0.0
C884 C 0.15556 0.4235 0.93665 0.0
C885 C 0.15952 0.40721 0.95464 0.0
C886 C 0.15567 0.42669 0.9715 0.0
H887 H 0.1879 0.55148 0.98567 0.0
H888 H 0.18561 0.51057 0.97145 0.0
H889 H 0.16468 0.54748 0.96797 0.0
H890 H 0.1364 0.50699 0.95225 0.0
H891 H 0.14375 0.47308 0.92251 0.0
H892 H 0.3903 0.38397 0.56453 0.0
H893 H 0.39661 0.41595 0.53422 0.0
H894 H 0.34934 0.50238 0.55326 0.0
H895 H 0.34469 0.4717 0.5841 0.0
H896 H 0.36763 0.42699 0.50807 0.0
H897 H 0.39761 0.56451 0.52915 0.0
H898 H 0.39603 0.5275 0.54609 0.0
H899 H 0.36961 0.55434 0.54065 0.0
C900 C 0.38198 0.41045 0.56242 0.0
C901 C 0.36737 0.42573 0.57673 0.0
C902 C 0.3854 0.42862 0.54503 0.0
C903 C 0.37372 0.46202 0.54132 0.0
C904 C 0.35934 0.47748 0.55582 0.0
H905 H 0.33052 0.52863 0.42769 0.0
H906 H 0.3361 0.49875 0.4585 0.0
C907 C 0.35656 0.45983 0.57347 0.0
C908 C 0.37478 0.47862 0.52177 0.0
H909 H 0.38002 0.55952 0.49774 0.0
C910 C 0.37076 0.45592 0.50587 0.0
C911 C 0.37925 0.51625 0.51859 0.0
C912 C 0.38614 0.54188 0.53454 0.0
C913 C 0.37047 0.46975 0.48713 0.0
C914 C 0.37296 0.50784 0.4841 0.0
C915 C 0.37769 0.53041 0.49992 0.0
C916 C 0.37014 0.52497 0.46482 0.0
C917 C 0.36795 0.44303 0.47084 0.0
C918 C 0.38692 0.55079 0.45814 0.0
C919 C 0.38331 0.56887 0.4407 0.0
C920 C 0.36308 0.561 0.42939 0.0
C921 C 0.34661 0.53461 0.43584 0.0
C922 C 0.34987 0.51732 0.45348 0.0
H923 H 0.37554 0.41592 0.47471 0.0
H924 H 0.34858 0.43901 0.46765 0.0
H925 H 0.37719 0.45284 0.45773 0.0
H926 H 0.40267 0.55743 0.46655 0.0
H927 H 0.39619 0.58933 0.43618 0.0
H928 H 0.30881 0.06331 0.18527 0.0
H929 H 0.28826 0.05711 0.21623 0.0
H930 H 0.27368 0.1728 0.21649 0.0
H931 H 0.29356 0.17903 0.18555 0.0
H932 H 0.29436 0.08697 0.25187 0.0
H933 H 0.20673 0.13165 0.22253 0.0
H934 H 0.23203 0.12033 0.20743 0.0
H935 H 0.22992 0.16474 0.21837 0.0
C936 C 0.30149 0.08748 0.19205 0.0
C937 C 0.30262 0.12161 0.18281 0.0
C938 C 0.28963 0.08387 0.20971 0.0
C939 C 0.27875 0.1143 0.21846 0.0
C940 C 0.28119 0.14868 0.20977 0.0
H941 H 0.21216 0.17669 0.32321 0.0
H942 H 0.23002 0.17037 0.29144 0.0
C943 C 0.29278 0.15225 0.19212 0.0
C944 C 0.26458 0.11044 0.23649 0.0
H945 H 0.21013 0.13147 0.2567 0.0
C946 C 0.27584 0.09618 0.25285 0.0
C947 C 0.24027 0.12211 0.2378 0.0
C948 C 0.22644 0.13519 0.22054 0.0
C949 C 0.26387 0.09504 0.27062 0.0
C950 C 0.23999 0.10832 0.27204 0.0
C951 C 0.22847 0.12144 0.25559 0.0
C952 C 0.2274 0.11149 0.29076 0.0
C953 C 0.27709 0.08105 0.28796 0.0
C954 C 0.21929 0.0805 0.30072 0.0
C955 C 0.20872 0.08405 0.31888 0.0
C956 C 0.20634 0.11866 0.32744 0.0
C957 C 0.21376 0.14964 0.31707 0.0
C958 C 0.22402 0.14609 0.29891 0.0
H959 H 0.29635 0.07526 0.28489 0.0
H960 H 0.27597 0.10129 0.29974 0.0
H961 H 0.26846 0.05548 0.29302 0.0
H962 H 0.22154 0.05355 0.29459 0.0
H963 H 0.20339 0.05964 0.32654 0.0
H964 H 0.31346 0.9459 0.82851 0.0
H965 H 0.2929 0.95427 0.79772 0.0
H966 H 0.28586 0.83755 0.79208 0.0
H967 H 0.30604 0.82898 0.82271 0.0
H968 H 0.30059 0.92688 0.75954 0.0
H969 H 0.2158 0.87495 0.79117 0.0
H970 H 0.24122 0.88856 0.80554 0.0
H971 H 0.24075 0.84435 0.79434 0.0
C972 C 0.30805 0.92201 0.82047 0.0
C973 C 0.31122 0.88677 0.82814 0.0
C974 C 0.29616 0.92685 0.80295 0.0
C975 C 0.28728 0.89656 0.79287 0.0
C976 C 0.29201 0.86135 0.79985 0.0
H977 H 0.21583 0.83155 0.69215 0.0
H978 H 0.2341 0.84017 0.72352 0.0
C979 C 0.30372 0.8565 0.81731 0.0
C980 C 0.27213 0.90126 0.77553 0.0
H981 H 0.21728 0.8783 0.75704 0.0
C982 C 0.28225 0.91684 0.75904 0.0
C983 C 0.24809 0.88845 0.77496 0.0
C984 C 0.23571 0.87347 0.7925 0.0
C985 C 0.26943 0.91792 0.74169 0.0
C986 C 0.24582 0.90342 0.74093 0.0
C987 C 0.23538 0.88931 0.75763 0.0
C988 C 0.23264 0.89916 0.72259 0.0
C989 C 0.28163 0.93282 0.72406 0.0
C990 C 0.22492 0.92951 0.7119 0.0
C991 C 0.21418 0.92465 0.69393 0.0
C992 C 0.21119 0.88935 0.68634 0.0
C993 C 0.21796 0.8591 0.69753 0.0
C994 C 0.22844 0.86397 0.71547 0.0
H995 H 0.30108 0.93818 0.72644 0.0
H996 H 0.27974 0.91343 0.71196 0.0
H997 H 0.27287 0.95886 0.71985 0.0
H998 H 0.22767 0.95692 0.71727 0.0
H999 H 0.20931 0.9485 0.68562 0.0
H1000 H 0.7747 0.84909 0.67329 0.0
H1001 H 0.75499 0.85211 0.70407 0.0
H1002 H 0.80736 0.93072 0.72336 0.0
H1003 H 0.82695 0.92902 0.69178 0.0
H1004 H 0.77033 0.83302 0.73725 0.0
H1005 H 0.74632 0.97991 0.74047 0.0
H1006 H 0.75728 0.95852 0.71891 0.0
H1007 H 0.77797 0.97194 0.73736 0.0
C1008 C 0.78221 0.86718 0.68396 0.0
C1009 C 0.8026 0.88877 0.67996 0.0
C1010 C 0.77076 0.86891 0.70166 0.0
C1011 C 0.77939 0.89194 0.71608 0.0
C1012 C 0.79994 0.91336 0.71234 0.0
H1013 H 0.74965 0.85743 0.83474 0.0
H1014 H 0.76508 0.86106 0.80246 0.0
C1015 C 0.81131 0.91208 0.69435 0.0
C1016 C 0.76724 0.89157 0.73513 0.0
H1017 H 0.73985 0.94512 0.76887 0.0
C1018 C 0.76358 0.85761 0.74405 0.0
C1019 C 0.75794 0.92346 0.74395 0.0
C1020 C 0.75983 0.96049 0.73461 0.0
C1021 C 0.75129 0.85464 0.7615 0.0
C1022 C 0.74306 0.88664 0.7708 0.0
C1023 C 0.74625 0.92061 0.76179 0.0
C1024 C 0.73294 0.8853 0.7905 0.0
C1025 C 0.74706 0.81704 0.76972 0.0
C1026 C 0.70974 0.89858 0.79478 0.0
C1027 C 0.70073 0.89691 0.81359 0.0
C1028 C 0.71491 0.88217 0.82837 0.0
C1029 C 0.73806 0.86892 0.82384 0.0
C1030 C 0.74698 0.87077 0.80526 0.0
H1031 H 0.74681 0.79591 0.75833 0.0
H1032 H 0.76193 0.81016 0.77967 0.0
H1033 H 0.72979 0.81573 0.77771 0.0
H1034 H 0.69862 0.91011 0.78359 0.0
H1035 H 0.68294 0.9076 0.81658 0.0
H1036 H 0.67977 0.12402 0.19654 0.0
H1037 H 0.69783 0.12375 0.22871 0.0
H1038 H 0.76851 0.11448 0.20359 0.0
H1039 H 0.751 0.1158 0.17188 0.0
H1040 H 0.72706 0.07409 0.24792 0.0
H1041 H 0.77618 0.20373 0.23668 0.0
H1042 H 0.75289 0.18837 0.22068 0.0
H1043 H 0.78306 0.17066 0.21859 0.0
C1044 C 0.69914 0.12208 0.19795 0.0
C1045 C 0.71391 0.12069 0.18161 0.0
C1046 C 0.70944 0.12182 0.2163 0.0
C1047 C 0.7346 0.11996 0.21854 0.0
C1048 C 0.74915 0.11706 0.20225 0.0
H1049 H 0.81338 0.07344 0.32533 0.0
H1050 H 0.79621 0.06836 0.29305 0.0
C1051 C 0.73901 0.11778 0.18407 0.0
C1052 C 0.74602 0.12152 0.23774 0.0
H1053 H 0.78836 0.16788 0.26338 0.0
C1054 C 0.74034 0.09473 0.25139 0.0
C1055 C 0.76322 0.14863 0.24232 0.0
C1056 C 0.76903 0.17968 0.22887 0.0
C1057 C 0.75161 0.0941 0.26942 0.0
C1058 C 0.76948 0.12044 0.2737 0.0
C1059 C 0.77497 0.14731 0.26004 0.0
C1060 C 0.78118 0.123 0.29279 0.0
C1061 C 0.74379 0.06586 0.28385 0.0
C1062 C 0.77952 0.15584 0.30299 0.0
C1063 C 0.7897 0.15904 0.32109 0.0
C1064 C 0.80173 0.12937 0.32966 0.0
C1065 C 0.80421 0.09677 0.31919 0.0
C1066 C 0.7941 0.09368 0.30085 0.0
H1067 H 0.72606 0.05379 0.28014 0.0
H1068 H 0.75724 0.04343 0.28422 0.0
H1069 H 0.74256 0.07787 0.29839 0.0
H1070 H 0.76985 0.17896 0.2971 0.0
H1071 H 0.78753 0.18473 0.32857 0.0
H1072 H 0.70479 0.56725 0.3296 0.0
H1073 H 0.72574 0.55905 0.29892 0.0
H1074 H 0.73696 0.67531 0.29517 0.0
H1075 H 0.71639 0.6837 0.32566 0.0
H1076 H 0.71842 0.587 0.26213 0.0
H1077 H 0.80547 0.63487 0.29109 0.0
H1078 H 0.78034 0.62281 0.30623 0.0
H1079 H 0.78156 0.66703 0.29502 0.0
C1080 C 0.71133 0.59111 0.32205 0.0
C1081 C 0.70906 0.62611 0.33018 0.0
C1082 C 0.72347 0.58635 0.3046 0.0
C1083 C 0.73357 0.61647 0.29503 0.0
C1084 C 0.73 0.65155 0.30256 0.0
H1085 H 0.77425 0.65514 0.18001 0.0
H1086 H 0.75693 0.65041 0.21187 0.0
C1087 C 0.718 0.65631 0.31994 0.0
C1088 C 0.74794 0.6117 0.27722 0.0
H1089 H 0.80215 0.63327 0.25687 0.0
C1090 C 0.73682 0.59667 0.26106 0.0
C1091 C 0.77217 0.62358 0.27587 0.0
C1092 C 0.78569 0.63762 0.29303 0.0
C1093 C 0.74879 0.59518 0.24334 0.0
C1094 C 0.77236 0.60962 0.24167 0.0
C1095 C 0.78399 0.62267 0.25807 0.0
C1096 C 0.78433 0.61395 0.22275 0.0
C1097 C 0.73591 0.57858 0.22649 0.0
C1098 C 0.80632 0.59659 0.21851 0.0
C1099 C 0.81653 0.5995 0.20015 0.0
C1100 C 0.80486 0.61991 0.18584 0.0
C1101 C 0.78354 0.63871 0.19057 0.0
C1102 C 0.77349 0.63587 0.20878 0.0
H1103 H 0.72181 0.55901 0.23117 0.0
H1104 H 0.72696 0.60058 0.21821 0.0
H1105 H 0.7487 0.56417 0.21687 0.0
H1106 H 0.81517 0.57991 0.22919 0.0
H1107 H 0.83294 0.58469 0.19697 0.0
H1108 H 0.81007 0.44639 0.83065 0.0
H1109 H 0.78912 0.4554 0.80007 0.0
H1110 H 0.77989 0.33899 0.79472 0.0
H1111 H 0.80055 0.32976 0.82507 0.0
H1112 H 0.79719 0.42837 0.76264 0.0
H1113 H 0.71057 0.37836 0.79178 0.0
H1114 H 0.73559 0.39098 0.80685 0.0
H1115 H 0.73491 0.34687 0.79556 0.0
C1116 C 0.804 0.4227 0.82276 0.0
C1117 C 0.80684 0.38737 0.83038 0.0
C1118 C 0.79185 0.42791 0.80537 0.0
C1119 C 0.78232 0.39792 0.79541 0.0
C1120 C 0.78647 0.36259 0.80243 0.0
H1121 H 0.74181 0.35801 0.6811 0.0
H1122 H 0.75901 0.36373 0.71289 0.0
C1123 C 0.79849 0.35737 0.81972 0.0
C1124 C 0.76785 0.40303 0.77774 0.0
H1125 H 0.71376 0.38086 0.75756 0.0
C1126 C 0.77884 0.41848 0.7616 0.0
C1127 C 0.74371 0.39081 0.77647 0.0
C1128 C 0.73039 0.37617 0.79365 0.0
C1129 C 0.76685 0.41996 0.74394 0.0
C1130 C 0.74338 0.40516 0.74233 0.0
C1131 C 0.73184 0.39178 0.75874 0.0
C1132 C 0.73155 0.40048 0.72345 0.0
C1133 C 0.7796 0.43677 0.72704 0.0
C1134 C 0.7096 0.41778 0.71906 0.0
C1135 C 0.69949 0.41436 0.70073 0.0
C1136 C 0.71119 0.39348 0.68661 0.0
C1137 C 0.73249 0.3748 0.6915 0.0
C1138 C 0.74247 0.37818 0.70967 0.0
H1139 H 0.79366 0.4564 0.73167 0.0
H1140 H 0.78857 0.41488 0.71868 0.0
H1141 H 0.76672 0.45115 0.71751 0.0
H1142 H 0.7007 0.43474 0.7296 0.0
H1143 H 0.68308 0.42907 0.69742 0.0
H1144 H 0.20884 0.44526 0.82697 0.0
H1145 H 0.2256 0.45086 0.79452 0.0
H1146 H 0.23114 0.33366 0.79074 0.0
H1147 H 0.2147 0.32784 0.823 0.0
H1148 H 0.2735 0.41917 0.78325 0.0
H1149 H 0.19721 0.36728 0.73993 0.0
H1150 H 0.19327 0.38582 0.76367 0.0
H1151 H 0.20469 0.34029 0.76058 0.0
C1152 C 0.21316 0.42069 0.81905 0.0
C1153 C 0.21037 0.3861 0.82754 0.0
C1154 C 0.22289 0.42395 0.80058 0.0
C1155 C 0.22951 0.39266 0.7902 0.0
C1156 C 0.22594 0.35814 0.79841 0.0
H1157 H 0.29338 0.32633 0.68422 0.0
H1158 H 0.27474 0.33249 0.71566 0.0
C1159 C 0.21656 0.35488 0.81688 0.0
C1160 C 0.24146 0.39562 0.77124 0.0
H1161 H 0.23522 0.37113 0.72444 0.0
C1162 C 0.26507 0.40917 0.7703 0.0
C1163 C 0.23047 0.3823 0.75444 0.0
C1164 C 0.20494 0.36834 0.75456 0.0
C1165 C 0.27838 0.40828 0.75315 0.0
C1166 C 0.26754 0.39422 0.73637 0.0
C1167 C 0.24363 0.38173 0.73727 0.0
C1168 C 0.2808 0.3907 0.7179 0.0
C1169 C 0.30424 0.42082 0.75339 0.0
C1170 C 0.29087 0.42126 0.7087 0.0
C1171 C 0.3019 0.41772 0.69073 0.0
C1172 C 0.30271 0.38363 0.68146 0.0
C1173 C 0.29306 0.35301 0.6909 0.0
C1174 C 0.28229 0.35651 0.70889 0.0
H1175 H 0.31163 0.42153 0.76813 0.0
H1176 H 0.31577 0.40269 0.74453 0.0
H1177 H 0.3053 0.44886 0.74743 0.0
H1178 H 0.28953 0.44809 0.71511 0.0
H1179 H 0.30885 0.44194 0.68376 0.0
H1180 H 0.24953 0.64289 0.17183 0.0
H1181 H 0.26683 0.64101 0.20358 0.0
H1182 H 0.19846 0.60724 0.22688 0.0
H1183 H 0.18088 0.60801 0.19463 0.0
H1184 H 0.25663 0.67844 0.23518 0.0
H1185 H 0.24315 0.53045 0.24876 0.0
H1186 H 0.23888 0.55064 0.22548 0.0
H1187 H 0.21593 0.55496 0.24351 0.0
C1188 C 0.238 0.63491 0.1836 0.0
C1189 C 0.21375 0.62523 0.18054 0.0
C1190 C 0.24802 0.63395 0.20185 0.0
C1191 C 0.23415 0.62339 0.21764 0.0
C1192 C 0.20972 0.61463 0.21484 0.0
H1193 H 0.26151 0.62782 0.33797 0.0
H1194 H 0.2455 0.62719 0.3057 0.0
C1195 C 0.19961 0.61539 0.19643 0.0
C1196 C 0.24558 0.62213 0.23688 0.0
H1197 H 0.25851 0.5657 0.27449 0.0
C1198 C 0.25713 0.6537 0.2437 0.0
C1199 C 0.24648 0.58976 0.24797 0.0
C1200 C 0.23566 0.55441 0.24102 0.0
C1201 C 0.26913 0.65392 0.26137 0.0
C1202 C 0.26965 0.62181 0.27252 0.0
C1203 C 0.25821 0.59021 0.26577 0.0
C1204 C 0.28014 0.62156 0.29197 0.0
C1205 C 0.28082 0.68862 0.26828 0.0
C1206 C 0.3051 0.61852 0.29497 0.0
C1207 C 0.31452 0.61865 0.31362 0.0
C1208 C 0.29906 0.62215 0.32947 0.0
C1209 C 0.27409 0.62526 0.3262 0.0
C1210 C 0.26478 0.62478 0.30772 0.0
H1211 H 0.27815 0.71172 0.2582 0.0
H1212 H 0.2733 0.69632 0.28243 0.0
H1213 H 0.30043 0.68403 0.27016 0.0
H1214 H 0.31723 0.61602 0.2829 0.0
H1215 H 0.33378 0.61622 0.3156 0.0
H1216 H 0.40722 0.09775 0.16019 0.0
H1217 H 0.45059 0.10118 0.16651 0.0
H1218 H 0.45303 0.2076 0.14011 0.0
H1219 H 0.41 0.20403 0.13345 0.0
H1220 H 0.48381 0.1592 0.12361 0.0
H1221 H 0.49562 0.15649 0.20235 0.0
H1222 H 0.4768 0.12081 0.19309 0.0
H1223 H 0.46723 0.16758 0.19118 0.0
C1224 C 0.41688 0.12233 0.15628 0.0
C1225 C 0.40524 0.1505 0.1462 0.0
C1226 C 0.44168 0.12431 0.15994 0.0
C1227 C 0.45509 0.15472 0.15383 0.0
C1228 C 0.44309 0.18386 0.14494 0.0
H1229 H 0.607 0.20126 0.13561 0.0
H1230 H 0.5638 0.20722 0.14171 0.0
C1231 C 0.41848 0.18177 0.14114 0.0
C1232 C 0.48185 0.15437 0.15425 0.0
H1233 H 0.531 0.14793 0.18346 0.0
C1234 C 0.4941 0.1571 0.13673 0.0
C1235 C 0.49527 0.15119 0.17135 0.0
C1236 C 0.48311 0.14916 0.19059 0.0
C1237 C 0.5193 0.15639 0.13578 0.0
C1238 C 0.53277 0.15348 0.15285 0.0
C1239 C 0.52061 0.15049 0.17041 0.0
C1240 C 0.55948 0.15217 0.15241 0.0
C1241 C 0.53131 0.15777 0.11641 0.0
C1242 C 0.57158 0.1199 0.15736 0.0
C1243 C 0.59631 0.11642 0.15397 0.0
C1244 C 0.60941 0.14518 0.14555 0.0
C1245 C 0.59749 0.17842 0.14193 0.0
C1246 C 0.57276 0.18187 0.14535 0.0
H1247 H 0.51848 0.15173 0.10466 0.0
H1248 H 0.53869 0.18554 0.11399 0.0
H1249 H 0.54645 0.13798 0.11561 0.0
H1250 H 0.56168 0.09672 0.16291 0.0
H1251 H 0.6049 0.09052 0.15709 0.0
H1252 H 0.10332 0.81901 0.62301 0.0
H1253 H 0.06041 0.81979 0.63061 0.0
H1254 H 0.07214 0.90589 0.67151 0.0
H1255 H 0.11526 0.90556 0.6639 0.0
H1256 H 0.0348 0.81095 0.66608 0.0
H1257 H 0.02181 0.94881 0.63399 0.0
H1258 H 0.04855 0.92195 0.62971 0.0
H1259 H 0.04447 0.94473 0.6522 0.0
C1260 C 0.09689 0.83797 0.63375 0.0
C1261 C 0.1128 0.86248 0.64269 0.0
C1262 C 0.07232 0.8383 0.63811 0.0
C1263 C 0.063 0.86324 0.65142 0.0
C1264 C 0.07889 0.88678 0.66097 0.0
H1265 H 0.90826 0.91226 0.66341 0.0
H1266 H 0.95132 0.91026 0.67134 0.0
C1267 C 0.10357 0.88639 0.65667 0.0
C1268 C 0.03653 0.86537 0.65451 0.0
H1269 H 0.98735 0.91859 0.64511 0.0
C1270 C 0.02443 0.83465 0.66171 0.0
C1271 C 0.02301 0.89638 0.64891 0.0
C1272 C 0.03499 0.92983 0.64064 0.0
C1273 C 0.99916 0.83372 0.66299 0.0
C1274 C 0.98557 0.86404 0.65651 0.0
C1275 C 0.99774 0.89538 0.65011 0.0
C1276 C 0.95894 0.86244 0.65419 0.0
C1277 C 0.98728 0.80007 0.67109 0.0
C1278 C 0.94879 0.83595 0.64218 0.0
C1279 C 0.92432 0.837 0.63767 0.0
C1280 C 0.90933 0.86475 0.64494 0.0
C1281 C 0.91923 0.89036 0.65768 0.0
C1282 C 0.94387 0.88936 0.66214 0.0
H1283 H 0.99931 0.78589 0.68138 0.0
H1284 H 0.97011 0.80687 0.67842 0.0
H1285 H 0.98337 0.78075 0.65929 0.0
H1286 H 0.96003 0.8154 0.63549 0.0
H1287 H 0.91735 0.81683 0.62781 0.0
H1288 H 0.61072 0.80396 0.88376 0.0
H1289 H 0.5671 0.8 0.87948 0.0
H1290 H 0.5667 0.90642 0.85312 0.0
H1291 H 0.6103 0.91068 0.85728 0.0
H1292 H 0.53557 0.852 0.89665 0.0
H1293 H 0.52206 0.84542 0.81808 0.0
H1294 H 0.55035 0.83384 0.8293 0.0
H1295 H 0.5419 0.88084 0.82628 0.0
C1296 C 0.60149 0.82621 0.87664 0.0
C1297 C 0.6141 0.85775 0.87096 0.0
C1298 C 0.57651 0.82391 0.87425 0.0
C1299 C 0.56363 0.8528 0.86588 0.0
C1300 C 0.57628 0.88354 0.85934 0.0
H1301 H 0.41094 0.90787 0.85779 0.0
H1302 H 0.45475 0.90469 0.85324 0.0
C1303 C 0.60124 0.88598 0.86183 0.0
C1304 C 0.53685 0.85251 0.86592 0.0
H1305 H 0.48713 0.85479 0.83715 0.0
C1306 C 0.52498 0.85231 0.88364 0.0
C1307 C 0.52306 0.85351 0.84894 0.0
C1308 C 0.53491 0.85314 0.82953 0.0
C1309 C 0.49976 0.8535 0.88488 0.0
C1310 C 0.48587 0.85386 0.8679 0.0
C1311 C 0.49774 0.8543 0.85014 0.0
C1312 C 0.45906 0.85368 0.86851 0.0
C1313 C 0.48827 0.85541 0.90443 0.0
C1314 C 0.44679 0.82534 0.87787 0.0
C1315 C 0.42189 0.82724 0.88063 0.0
C1316 C 0.40859 0.85725 0.8738 0.0
C1317 C 0.42064 0.8844 0.86324 0.0
C1318 C 0.44569 0.88265 0.86066 0.0
H1319 H 0.50111 0.86548 0.91539 0.0
H1320 H 0.47226 0.87361 0.90438 0.0
H1321 H 0.4824 0.82766 0.90878 0.0
H1322 H 0.45659 0.80221 0.88359 0.0
H1323 H 0.41315 0.8056 0.88858 0.0
H1324 H 0.91189 0.19743 0.3888 0.0
H1325 H 0.95469 0.19625 0.38114 0.0
H1326 H 0.94334 0.105 0.34333 0.0
H1327 H 0.90023 0.10574 0.35108 0.0
H1328 H 0.97998 0.09328 0.36957 0.0
H1329 H 0.99297 0.22684 0.33418 0.0
H1330 H 0.97734 0.23101 0.35653 0.0
H1331 H 0.96363 0.20636 0.33715 0.0
C1332 C 0.91834 0.17744 0.37859 0.0
C1333 C 0.90254 0.15163 0.37058 0.0
C1334 C 0.94287 0.17698 0.37412 0.0
C1335 C 0.95226 0.15085 0.36146 0.0
C1336 C 0.93648 0.1256 0.35302 0.0
H1337 H 0.10768 0.09983 0.34911 0.0
H1338 H 0.06444 0.10124 0.34185 0.0
C1339 C 0.91182 0.12614 0.35742 0.0
C1340 C 0.97876 0.14813 0.35855 0.0
H1341 H 0.02848 0.19899 0.34763 0.0
C1342 C 0.99059 0.11609 0.36439 0.0
C1343 C 0.99261 0.17791 0.3518 0.0
C1344 C 0.98096 0.21233 0.34438 0.0
C1345 C 0.01587 0.11384 0.36479 0.0
C1346 C 0.02973 0.14427 0.35887 0.0
C1347 C 0.01788 0.1757 0.3522 0.0
C1348 C 0.05633 0.14539 0.3614 0.0
C1349 C 0.02753 0.07972 0.37262 0.0
C1350 C 0.06632 0.17071 0.37414 0.0
C1351 C 0.09092 0.17013 0.37822 0.0
C1352 C 0.10624 0.14424 0.3696 0.0
C1353 C 0.09642 0.12003 0.35607 0.0
C1354 C 0.07167 0.12061 0.35201 0.0
H1355 H 0.0143 0.0615 0.37977 0.0
H1356 H 0.03599 0.06428 0.36073 0.0
H1357 H 0.04185 0.08678 0.38304 0.0
H1358 H 0.05489 0.19021 0.38148 0.0
H1359 H 0.09782 0.1894 0.38859 0.0
H1360 H 0.90535 0.70575 0.13614 0.0
H1361 H 0.94858 0.71447 0.14107 0.0
H1362 H 0.95536 0.6025 0.15938 0.0
H1363 H 0.91218 0.59363 0.15485 0.0
H1364 H 0.98405 0.65068 0.18067 0.0
H1365 H 0.99622 0.67144 0.10251 0.0
H1366 H 0.97553 0.70242 0.1138 0.0
H1367 H 0.9685 0.65457 0.11265 0.0
C1368 C 0.91594 0.6831 0.14152 0.0
C1369 C 0.90526 0.64881 0.14483 0.0
C1370 C 0.9407 0.6881 0.14421 0.0
C1371 C 0.95531 0.65889 0.15017 0.0
C1372 C 0.94448 0.62535 0.15464 0.0
H1373 H 0.10432 0.59748 0.15512 0.0
H1374 H 0.06119 0.6047 0.16065 0.0
C1375 C 0.91974 0.62034 0.15201 0.0
C1376 C 0.982 0.66233 0.15055 0.0
H1377 H 0.03089 0.67492 0.1216 0.0
C1378 C 0.9943 0.65621 0.16779 0.0
C1379 C 0.99539 0.66942 0.13371 0.0
C1380 C 0.98333 0.67454 0.11457 0.0
C1381 C 0.01962 0.65691 0.16862 0.0
C1382 C 0.03299 0.66334 0.15172 0.0
C1383 C 0.02065 0.67021 0.13458 0.0
C1384 C 0.05973 0.66085 0.15103 0.0
C1385 C 0.03181 0.65087 0.18761 0.0
C1386 C 0.07343 0.69006 0.1439 0.0
C1387 C 0.09816 0.68597 0.14061 0.0
C1388 C 0.1097 0.65239 0.14421 0.0
C1389 C 0.09612 0.62375 0.15221 0.0
C1390 C 0.0714 0.62789 0.1555 0.0
H1391 H 0.01965 0.65766 0.19972 0.0
H1392 H 0.03689 0.62165 0.18893 0.0
H1393 H 0.04842 0.66755 0.18883 0.0
H1394 H 0.06481 0.71571 0.14028 0.0
H1395 H 0.10799 0.70865 0.13445 0.0
H1396 H 0.60815 0.31 0.63746 0.0
H1397 H 0.56468 0.30458 0.64238 0.0
H1398 H 0.56181 0.41582 0.66235 0.0
H1399 H 0.60527 0.42148 0.6577 0.0
H1400 H 0.53057 0.36601 0.68282 0.0
H1401 H 0.52015 0.35796 0.60395 0.0
H1402 H 0.54007 0.32452 0.61413 0.0
H1403 H 0.54785 0.3721 0.61514 0.0
C1404 C 0.59841 0.33313 0.64324 0.0
C1405 C 0.61024 0.36637 0.6469 0.0
C1406 C 0.57351 0.33002 0.64597 0.0
C1407 C 0.55994 0.36003 0.65238 0.0
C1408 C 0.5719 0.39238 0.65729 0.0
H1409 H 0.40672 0.41326 0.6577 0.0
H1410 H 0.45013 0.41116 0.66419 0.0
C1411 C 0.59679 0.39556 0.65457 0.0
C1412 C 0.53319 0.35879 0.65236 0.0
H1413 H 0.48498 0.35143 0.62242 0.0
C1414 C 0.52055 0.36275 0.66965 0.0
C1415 C 0.52016 0.35495 0.63512 0.0
C1416 C 0.53267 0.35246 0.61599 0.0
C1417 C 0.49518 0.36208 0.67018 0.0
C1418 C 0.48218 0.35797 0.65293 0.0
C1419 C 0.49491 0.35429 0.63567 0.0
C1420 C 0.4554 0.35728 0.65212 0.0
C1421 C 0.48254 0.36505 0.68921 0.0
C1422 C 0.4438 0.32758 0.64346 0.0
C1423 C 0.41918 0.32891 0.63958 0.0
C1424 C 0.40547 0.35996 0.6443 0.0
C1425 C 0.41673 0.38882 0.65406 0.0
C1426 C 0.44156 0.3876 0.65781 0.0
H1427 H 0.49477 0.35832 0.70126 0.0
H1428 H 0.47611 0.39351 0.6912 0.0
H1429 H 0.46668 0.34665 0.68982 0.0
H1430 H 0.45404 0.30387 0.63896 0.0
H1431 H 0.41103 0.30613 0.63213 0.0
H1432 H 0.11178 0.41257 0.85321 0.0
H1433 H 0.06798 0.41369 0.84809 0.0
H1434 H 0.06074 0.31486 0.88106 0.0
H1435 H 0.10412 0.31351 0.88631 0.0
H1436 H 0.03183 0.35566 0.83419 0.0
H1437 H 0.02213 0.39818 0.91 0.0
H1438 H 0.05011 0.40241 0.897 0.0
H1439 H 0.0409 0.35881 0.90623 0.0
C1440 C 0.10091 0.39065 0.859 0.0
C1441 C 0.11143 0.36322 0.87039 0.0
C1442 C 0.0759 0.39137 0.85607 0.0
C1443 C 0.06115 0.36463 0.86444 0.0
C1444 C 0.0718 0.33596 0.87468 0.0
H1445 H 0.91561 0.31539 0.89116 0.0
H1446 H 0.95874 0.31694 0.88477 0.0
C1447 C 0.09663 0.33528 0.87766 0.0
C1448 C 0.03453 0.36802 0.86417 0.0
H1449 H 0.98652 0.3796 0.89408 0.0
C1450 C 0.02184 0.36135 0.84718 0.0
C1451 C 0.02161 0.37565 0.88114 0.0
C1452 C 0.03432 0.3845 0.89962 0.0
C1453 C 0.99647 0.3604 0.84699 0.0
C1454 C 0.98363 0.3666 0.86417 0.0
C1455 C 0.99639 0.37456 0.88094 0.0
C1456 C 0.95704 0.36317 0.86558 0.0
C1457 C 0.98356 0.35136 0.82866 0.0
C1458 C 0.9416 0.38822 0.85655 0.0
C1459 C 0.91674 0.38742 0.86017 0.0
C1460 C 0.90698 0.36173 0.87301 0.0
C1461 C 0.92246 0.33573 0.88131 0.0
C1462 C 0.94716 0.33653 0.87766 0.0
H1463 H 0.99611 0.34145 0.81741 0.0
H1464 H 0.96961 0.33021 0.83123 0.0
H1465 H 0.97435 0.37619 0.82324 0.0
H1466 H 0.94887 0.40934 0.84737 0.0
H1467 H 0.90537 0.40792 0.8536 0.0
H1468 H 0.40751 0.69787 0.3818 0.0
H1469 H 0.4509 0.70093 0.37644 0.0
H1470 H 0.44888 0.59668 0.34787 0.0
H1471 H 0.40551 0.59298 0.35356 0.0
H1472 H 0.48235 0.59739 0.3752 0.0
H1473 H 0.49349 0.72183 0.33126 0.0
H1474 H 0.47655 0.73052 0.35262 0.0
H1475 H 0.4646 0.70025 0.33472 0.0
C1476 C 0.41615 0.67594 0.37398 0.0
C1477 C 0.40292 0.6451 0.36818 0.0
C1478 C 0.44104 0.67782 0.37083 0.0
C1479 C 0.45325 0.64921 0.36156 0.0
C1480 C 0.43991 0.61915 0.35502 0.0
H1481 H 0.60912 0.60361 0.35341 0.0
H1482 H 0.56579 0.60341 0.34654 0.0
C1483 C 0.41506 0.61713 0.35825 0.0
C1484 C 0.48008 0.64891 0.36044 0.0
H1485 H 0.52899 0.69981 0.34726 0.0
C1486 C 0.49252 0.61951 0.36879 0.0
C1487 C 0.49345 0.6778 0.35214 0.0
C1488 C 0.48133 0.70919 0.34201 0.0
C1489 C 0.5178 0.6189 0.36977 0.0
C1490 C 0.53113 0.64827 0.36196 0.0
C1491 C 0.51877 0.67728 0.35321 0.0
C1492 C 0.55774 0.65051 0.3641 0.0
C1493 C 0.53002 0.58757 0.37991 0.0
C1494 C 0.56775 0.67788 0.37561 0.0
C1495 C 0.59243 0.67811 0.37953 0.0
C1496 C 0.60775 0.65107 0.37193 0.0
C1497 C 0.59788 0.62479 0.35954 0.0
C1498 C 0.57309 0.62449 0.35569 0.0
H1499 H 0.51707 0.57066 0.38818 0.0
H1500 H 0.53894 0.56972 0.36921 0.0
H1501 H 0.54407 0.59782 0.38982 0.0
H1502 H 0.55631 0.69832 0.38218 0.0
H1503 H 0.59938 0.69894 0.38901 0.0
H1504 H 0.25076 0.06178 0.13163 0.0
H1505 H 0.22853 1.00399 0.13165 0.0
H1506 H 0.29151 0.94798 0.11054 0.0
H1507 H 0.31369 0.0054 0.11013 0.0
H1508 H 0.24955 0.92589 0.09264 0.0
H1509 H 0.23945 0.9239 0.17171 0.0
H1510 H 0.22777 0.96384 0.16 0.0
H1511 H 0.25958 0.95489 0.15959 0.0
C1512 C 0.2598 0.03723 0.12679 0.0
C1513 C 0.2841 0.03823 0.12105 0.0
C1514 C 0.24712 0.00418 0.12696 0.0
C1515 C 0.25851 0.97156 0.12146 0.0
C1516 C 0.2824 0.97277 0.11497 0.0
H1517 H 0.23205 0.74518 0.14524 0.0
H1518 H 0.24484 0.80903 0.14489 0.0
C1519 C 0.29507 0.00568 0.11478 0.0
C1520 C 0.24596 0.93585 0.12282 0.0
H1521 H 0.22219 0.87493 0.1547 0.0
C1522 C 0.24338 0.91484 0.10617 0.0
C1523 C 0.23825 0.9213 0.14055 0.0
C1524 C 0.24153 0.94192 0.15904 0.0
C1525 C 0.23353 0.87955 0.10679 0.0
C1526 C 0.22565 0.8651 0.1245 0.0
C1527 C 0.22802 0.88622 0.14113 0.0
C1528 C 0.21627 0.82728 0.12618 0.0
C1529 C 0.23248 0.8575 0.08857 0.0
C1530 C 0.19544 0.81661 0.11635 0.0
C1531 C 0.18808 0.78009 0.11649 0.0
C1532 C 0.20135 0.75353 0.12656 0.0
C1533 C 0.22145 0.76478 0.13727 0.0
C1534 C 0.22881 0.8013 0.13708 0.0
H1535 H 0.24411 0.86925 0.07719 0.0
H1536 H 0.23814 0.82882 0.09116 0.0
H1537 H 0.21369 0.85717 0.0832 0.0
H1538 H 0.1852 0.83637 0.10818 0.0
H1539 H 0.17241 0.77253 0.1082 0.0
H1540 H 0.27042 0.93816 0.63913 0.0
H1541 H 0.29452 0.99408 0.64032 0.0
H1542 H 0.23772 0.05301 0.61179 0.0
H1543 H 0.21362 0.99735 0.61033 0.0
H1544 H 0.28454 0.06991 0.59826 0.0
H1545 H 0.27801 0.07802 0.67755 0.0
H1546 H 0.28995 0.03624 0.6679 0.0
H1547 H 0.25908 0.04825 0.66357 0.0
C1548 C 0.26315 0.9629 0.63289 0.0
C1549 C 0.23996 0.96328 0.62478 0.0
C1550 C 0.27691 0.99489 0.6337 0.0
C1551 C 0.26774 0.02782 0.62644 0.0
C1552 C 0.24509 0.02792 0.61758 0.0
H1553 H 0.28425 0.25344 0.64504 0.0
H1554 H 0.27516 0.18829 0.64561 0.0
C1555 C 0.23132 0.99604 0.61678 0.0
C1556 C 0.2811 0.06266 0.62865 0.0
H1557 H 0.29834 0.12575 0.6619 0.0
C1558 C 0.2879 0.08194 0.61217 0.0
C1559 C 0.28523 0.07837 0.64684 0.0
C1560 C 0.27757 0.05941 0.66502 0.0
C1561 C 0.29812 0.11696 0.61334 0.0
C1562 C 0.30188 0.13292 0.63151 0.0
C1563 C 0.29569 0.11323 0.64801 0.0
C1564 C 0.30931 0.17165 0.63351 0.0
C1565 C 0.30366 0.1374 0.59511 0.0
C1566 C 0.33196 0.18385 0.62725 0.0
C1567 C 0.33731 0.22128 0.627 0.0
C1568 C 0.31998 0.24699 0.6329 0.0
C1569 C 0.29792 0.23437 0.64026 0.0
C1570 C 0.29269 0.19711 0.64062 0.0
H1571 H 0.29632 0.1234 0.5823 0.0
H1572 H 0.29611 0.16548 0.59572 0.0
H1573 H 0.32346 0.13971 0.59339 0.0
H1574 H 0.34517 0.16454 0.62195 0.0
H1575 H 0.35444 0.23013 0.62122 0.0
H1576 H 0.17325 0.23135 0.89949 0.0
H1577 H 0.1867 0.16757 0.9 0.0
H1578 H 0.2346 0.18942 0.85276 0.0
H1579 H 0.22222 0.25363 0.85301 0.0
H1580 H 0.18957 0.10921 0.87787 0.0
H1581 H 0.2819 0.1584 0.89232 0.0
H1582 H 0.25636 0.18872 0.89171 0.0
H1583 H 0.2709 0.1748 0.86984 0.0
C1584 C 0.18616 0.22223 0.88889 0.0
C1585 C 0.19682 0.24733 0.87627 0.0
C1586 C 0.19395 0.18583 0.88926 0.0
C1587 C 0.2123 0.17395 0.87686 0.0
C1588 C 0.22109 0.19823 0.86294 0.0
H1589 H 0.26131 0.9492 0.86278 0.0
H1590 H 0.23911 0.00675 0.86109 0.0
C1591 C 0.21378 0.23476 0.8629 0.0
C1592 C 0.22353 0.13731 0.87944 0.0
H1593 H 0.27779 0.09517 0.88587 0.0
C1594 C 0.20885 0.10611 0.8797 0.0
C1595 C 0.24863 0.13324 0.88243 0.0
C1596 C 0.26531 0.1656 0.88429 0.0
C1597 C 0.21861 0.07098 0.88243 0.0
C1598 C 0.24389 0.06679 0.88426 0.0
C1599 C 0.25846 0.09811 0.8843 0.0
C1600 C 0.25588 0.03048 0.88611 0.0
C1601 C 0.2016 0.039 0.88382 0.0
C1602 C 0.27321 0.02462 0.90045 0.0
C1603 C 0.28647 0.99215 0.90106 0.0
C1604 C 0.28239 0.96451 0.88755 0.0
C1605 C 0.26455 0.96979 0.87358 0.0
C1606 C 0.2517 1.00265 0.87269 0.0
H1607 H 0.18352 0.04775 0.88889 0.0
H1608 H 0.19931 0.02676 0.86944 0.0
H1609 H 0.20854 0.01769 0.89368 0.0
H1610 H 0.27685 0.04557 0.91098 0.0
H1611 H 0.30011 0.9888 0.91198 0.0
H1612 H 0.32947 0.76635 0.41098 0.0
H1613 H 0.31565 0.82967 0.41013 0.0
H1614 H 0.28087 0.80985 0.35606 0.0
H1615 H 0.2938 0.74594 0.35721 0.0
H1616 H 0.32079 0.88734 0.38752 0.0
H1617 H 0.22498 0.8453 0.38697 0.0
H1618 H 0.24914 0.81314 0.39056 0.0
H1619 H 0.24146 0.82818 0.36682 0.0
C1620 C 0.31912 0.77552 0.39877 0.0
C1621 C 0.31249 0.75091 0.38426 0.0
C1622 C 0.31119 0.81181 0.39832 0.0
C1623 C 0.29664 0.82441 0.38329 0.0
C1624 C 0.29139 0.80054 0.36814 0.0
H1625 H 0.25662 0.05447 0.36664 0.0
H1626 H 0.27756 0.99559 0.36574 0.0
C1627 C 0.29897 0.76405 0.36872 0.0
C1628 C 0.28614 0.8619 0.38401 0.0
H1629 H 0.23277 0.90832 0.38314 0.0
C1630 C 0.30153 0.89195 0.38658 0.0
C1631 C 0.26097 0.86797 0.38318 0.0
C1632 C 0.24316 0.83693 0.38193 0.0
C1633 C 0.29249 0.92776 0.38826 0.0
C1634 C 0.26736 0.9339 0.38677 0.0
C1635 C 0.25203 0.90381 0.38418 0.0
C1636 C 0.25627 0.97094 0.38829 0.0
C1637 C 0.30991 0.9584 0.39221 0.0
C1638 C 0.23714 0.97687 0.40109 0.0
C1639 C 0.22483 0.01018 0.40131 0.0
C1640 C 0.23154 0.0386 0.3889 0.0
C1641 C 0.25127 0.03328 0.37658 0.0
C1642 C 0.26333 0.99961 0.37612 0.0
H1643 H 0.32681 0.9481 0.39878 0.0
H1644 H 0.31475 0.97191 0.37853 0.0
H1645 H 0.30188 0.97917 0.40186 0.0
H1646 H 0.23132 0.95532 0.41066 0.0
H1647 H 0.20971 0.01347 0.41098 0.0
H1648 H 0.78734 0.24741 0.86642 0.0
H1649 H 0.78074 0.18153 0.86707 0.0
H1650 H 0.85119 0.16545 0.89147 0.0
H1651 H 0.85799 0.23163 0.89095 0.0
H1652 H 0.80806 0.12008 0.85185 0.0
H1653 H 0.80276 0.12212 0.93147 0.0
H1654 H 0.80058 0.16337 0.91742 0.0
H1655 H 0.82912 0.14107 0.92024 0.0
C1656 C 0.80164 0.22988 0.87161 0.0
C1657 C 0.82309 0.24484 0.8788 0.0
C1658 C 0.79784 0.19222 0.87197 0.0
C1659 C 0.81531 0.16873 0.87962 0.0
C1660 C 0.83736 0.18323 0.88575 0.0
H1661 H 0.77392 0.93709 0.90078 0.0
H1662 H 0.80062 0.99085 0.89956 0.0
C1663 C 0.84127 0.22102 0.88529 0.0
C1664 C 0.80943 0.12956 0.88218 0.0
H1665 H 0.79084 0.06829 0.91601 0.0
C1666 C 0.80484 0.10845 0.86588 0.0
C1667 C 0.80525 0.11446 0.90053 0.0
C1668 C 0.80953 0.1363 0.91848 0.0
C1669 C 0.79498 0.07331 0.86742 0.0
C1670 C 0.7893 0.05918 0.88569 0.0
C1671 C 0.79533 0.07924 0.90204 0.0
C1672 C 0.77354 0.02686 0.88775 0.0
C1673 C 0.78958 0.05218 0.84943 0.0
C1674 C 0.74945 0.02984 0.88214 0.0
C1675 C 0.7343 0.99966 0.88291 0.0
C1676 C 0.74286 0.96559 0.88931 0.0
C1677 C 0.76681 0.9629 0.89573 0.0
C1678 C 0.78208 0.99347 0.89498 0.0
H1679 H 0.80068 0.06184 0.83721 0.0
H1680 H 0.79282 0.02252 0.85157 0.0
H1681 H 0.77034 0.05601 0.84564 0.0
H1682 H 0.74243 0.05556 0.87684 0.0
H1683 H 0.7159 1.00298 0.8781 0.0
H1684 H 0.80389 0.01374 0.40262 0.0
H1685 H 0.77992 0.95801 0.40054 0.0
H1686 H 0.72076 0.0194 0.37688 0.0
H1687 H 0.74469 0.07541 0.37871 0.0
H1688 H 0.73452 0.93892 0.41589 0.0
H1689 H 0.73402 0.93995 0.33636 0.0
H1690 H 0.75404 0.9683 0.35018 0.0
H1691 H 0.72287 0.98051 0.34784 0.0
C1692 C 0.78571 0.01556 0.39712 0.0
C1693 C 0.77634 0.04911 0.39067 0.0
C1694 C 0.77202 0.98362 0.39596 0.0
C1695 C 0.74871 0.98443 0.38825 0.0
C1696 C 0.73887 0.01804 0.38255 0.0
H1697 H 0.66106 0.78328 0.39277 0.0
H1698 H 0.67102 0.84862 0.39312 0.0
C1699 C 0.75254 0.05008 0.38374 0.0
C1700 C 0.73521 0.94975 0.38567 0.0
H1701 H 0.71452 0.89084 0.35157 0.0
C1702 C 0.72985 0.92858 0.40185 0.0
C1703 C 0.72937 0.93619 0.36731 0.0
C1704 C 0.73549 0.95717 0.34937 0.0
C1705 C 0.71929 0.89386 0.40016 0.0
C1706 C 0.71367 0.88013 0.38179 0.0
C1707 C 0.71856 0.90164 0.36563 0.0
C1708 C 0.70545 0.8419 0.37902 0.0
C1709 C 0.7153 0.87138 0.41798 0.0
C1710 C 0.72088 0.81682 0.37009 0.0
C1711 C 0.71523 0.77968 0.36981 0.0
C1712 C 0.69391 0.76682 0.37834 0.0
C1713 C 0.67757 0.79231 0.38602 0.0
C1714 C 0.68335 0.8296 0.3864 0.0
H1715 H 0.72419 0.88354 0.43069 0.0
H1716 H 0.69571 0.86953 0.42095 0.0
H1717 H 0.72227 0.8432 0.41597 0.0
H1718 H 0.73796 0.82572 0.36421 0.0
H1719 H 0.72813 0.76078 0.36369 0.0
H1720 H 0.74677 0.04096 0.09332 0.0
H1721 H 0.76976 0.98323 0.0923 0.0
H1722 H 0.75248 0.96369 0.15154 0.0
H1723 H 0.72976 0.02049 0.15265 0.0
H1724 H 0.80216 0.94826 0.1405 0.0
H1725 H 0.73267 0.88263 0.09453 0.0
H1726 H 0.74553 0.92515 0.0866 0.0
H1727 H 0.72674 0.92434 0.10746 0.0
C1728 C 0.74827 0.02452 0.10614 0.0
C1729 C 0.73628 0.03492 0.12298 0.0
C1730 C 0.76126 0.99159 0.10553 0.0
C1731 C 0.76258 0.96913 0.12182 0.0
C1732 C 0.75164 0.98057 0.13883 0.0
H1733 H 0.77823 0.74089 0.14472 0.0
H1734 H 0.767 0.80557 0.1432 0.0
C1735 C 0.73855 0.01296 0.13938 0.0
C1736 C 0.77381 0.93247 0.12128 0.0
H1737 H 0.76315 0.84494 0.10682 0.0
C1738 C 0.79393 0.92571 0.13289 0.0
C1739 C 0.76269 0.90312 0.11161 0.0
C1740 C 0.74063 0.90884 0.0994 0.0
C1741 C 0.80294 0.89016 0.13539 0.0
C1742 C 0.79152 0.86076 0.126 0.0
C1743 C 0.77176 0.86762 0.11405 0.0
C1744 C 0.79949 0.82248 0.1286 0.0
C1745 C 0.82401 0.88404 0.14859 0.0
C1746 C 0.82166 0.81083 0.12122 0.0
C1747 C 0.82813 0.77398 0.12206 0.0
C1748 C 0.81251 0.74805 0.13028 0.0
C1749 C 0.79073 0.76012 0.1384 0.0
C1750 C 0.78422 0.79701 0.13744 0.0
H1751 H 0.82803 0.90856 0.15737 0.0
H1752 H 0.82047 0.86061 0.15828 0.0
H1753 H 0.84023 0.87739 0.13998 0.0
H1754 H 0.83359 0.83002 0.1142 0.0
H1755 H 0.84505 0.76565 0.11568 0.0
H1756 H 0.7333 0.27063 0.6516 0.0
H1757 H 0.74705 0.20714 0.65054 0.0
H1758 H 0.68852 0.18003 0.61278 0.0
H1759 H 0.67476 0.24343 0.61353 0.0
H1760 H 0.72531 0.13899 0.65879 0.0
H1761 H 0.74881 0.15208 0.58185 0.0
H1762 H 0.74194 0.19107 0.59666 0.0
H1763 H 0.71809 0.16282 0.58766 0.0
C1764 C 0.7231 0.25111 0.64328 0.0
C1765 C 0.70306 0.26238 0.63246 0.0
C1766 C 0.73102 0.21478 0.64269 0.0
C1767 C 0.71912 0.18901 0.63125 0.0
C1768 C 0.69829 0.19962 0.62137 0.0
H1769 H 0.75464 0.95435 0.63081 0.0
H1770 H 0.73261 0.01235 0.63254 0.0
C1771 C 0.69036 0.23591 0.62193 0.0
C1772 C 0.72925 0.15163 0.62891 0.0
H1773 H 0.75434 0.09411 0.59594 0.0
C1774 C 0.73154 0.12905 0.64504 0.0
C1775 C 0.73767 0.1389 0.61099 0.0
C1776 C 0.73675 0.16251 0.59331 0.0
C1777 C 0.74204 0.09413 0.64374 0.0
C1778 C 0.75021 0.08126 0.62577 0.0
C1779 C 0.74784 0.10382 0.60965 0.0
C1780 C 0.7628 0.04558 0.62362 0.0
C1781 C 0.74504 0.0718 0.66172 0.0
C1782 C 0.78678 0.04478 0.6173 0.0
C1783 C 0.79935 0.01174 0.61616 0.0
C1784 C 0.78819 0.97861 0.62123 0.0
C1785 C 0.76383 0.9793 0.62684 0.0
C1786 C 0.75126 0.01249 0.628 0.0
H1787 H 0.74265 0.08861 0.6748 0.0
H1788 H 0.73133 0.04979 0.66195 0.0
H1789 H 0.76311 0.05882 0.66216 0.0
H1790 H 0.79602 0.06992 0.61371 0.0
H1791 H 0.81802 0.01232 0.61168 0.0
H1792 H 0.72749 0.24305 0.14576 0.0
H1793 H 0.73783 0.30783 0.14587 0.0
H1794 H 0.68142 0.32953 0.10514 0.0
H1795 H 0.67105 0.26464 0.10475 0.0
H1796 H 0.72516 0.35931 0.0945 0.0
H1797 H 0.70407 0.39578 0.1694 0.0
H1798 H 0.72314 0.35631 0.16773 0.0
H1799 H 0.69301 0.35455 0.15833 0.0
C1800 C 0.717 0.2616 0.13703 0.0
C1801 C 0.69843 0.2485 0.12524 0.0
C1802 C 0.72287 0.29873 0.13718 0.0
C1803 C 0.71022 0.32363 0.12568 0.0
C1804 C 0.69134 0.31084 0.1142 0.0
H1805 H 0.75241 0.55544 0.10734 0.0
H1806 H 0.72815 0.49926 0.10576 0.0
C1807 C 0.68541 0.2737 0.11405 0.0
C1808 C 0.71789 0.36245 0.1247 0.0
H1809 H 0.73096 0.4362 0.15263 0.0
C1810 C 0.72599 0.37643 0.10712 0.0
C1811 C 0.71881 0.38484 0.14115 0.0
C1812 C 0.70906 0.37225 0.16018 0.0
C1813 C 0.73641 0.41134 0.10582 0.0
C1814 C 0.73853 0.43285 0.12249 0.0
C1815 C 0.72935 0.41959 0.13986 0.0
C1816 C 0.75281 0.46703 0.12278 0.0
C1817 C 0.74632 0.42422 0.0869 0.0
C1818 C 0.77457 0.46743 0.13283 0.0
C1819 C 0.78835 0.49912 0.13373 0.0
C1820 C 0.78066 0.53147 0.1247 0.0
C1821 C 0.75887 0.53104 0.11444 0.0
C1822 C 0.74502 0.49899 0.1135 0.0
H1823 H 0.74537 0.40273 0.07572 0.0
H1824 H 0.73588 0.44828 0.08193 0.0
H1825 H 0.76536 0.43285 0.08854 0.0
H1826 H 0.78095 0.44304 0.14002 0.0
H1827 H 0.80504 0.49819 0.1417 0.0
H1828 H 0.76835 0.44886 0.61333 0.0
H1829 H 0.79444 0.50332 0.61354 0.0
H1830 H 0.73559 0.5678 0.63546 0.0
H1831 H 0.7097 0.51439 0.63529 0.0
H1832 H 0.78677 0.5766 0.5959 0.0
H1833 H 0.79116 0.58126 0.67492 0.0
H1834 H 0.78277 0.54057 0.66194 0.0
H1835 H 0.76106 0.57626 0.66598 0.0
C1836 C 0.76097 0.47475 0.61801 0.0
C1837 C 0.73703 0.47712 0.62454 0.0
C1838 C 0.77589 0.50575 0.61818 0.0
C1839 C 0.76705 0.53934 0.62495 0.0
C1840 C 0.74292 0.54197 0.63061 0.0
H1841 H 0.78396 0.76339 0.6381 0.0
H1842 H 0.77493 0.69816 0.63843 0.0
C1843 C 0.72812 0.51132 0.63044 0.0
C1844 C 0.78257 0.57217 0.62638 0.0
H1845 H 0.7997 0.63749 0.6584 0.0
C1846 C 0.79023 0.58954 0.60956 0.0
C1847 C 0.78706 0.58891 0.64424 0.0
C1848 C 0.7803 0.57063 0.66282 0.0
C1849 C 0.80067 0.62453 0.61009 0.0
C1850 C 0.80365 0.64226 0.6279 0.0
C1851 C 0.79733 0.62389 0.64477 0.0
C1852 C 0.81041 0.68137 0.62916 0.0
C1853 C 0.80699 0.64336 0.59157 0.0
C1854 C 0.83363 0.69349 0.62439 0.0
C1855 C 0.83895 0.73094 0.62434 0.0
C1856 C 0.82104 0.75678 0.6289 0.0
C1857 C 0.79812 0.74427 0.63441 0.0
C1858 C 0.79292 0.70698 0.63461 0.0
H1859 H 0.80143 0.62724 0.57888 0.0
H1860 H 0.79821 0.6706 0.5909 0.0
H1861 H 0.82674 0.64767 0.59086 0.0
H1862 H 0.84745 0.67408 0.62034 0.0
H1863 H 0.85675 0.73967 0.61998 0.0
H1864 H 0.68593 0.73608 0.90863 0.0
H1865 H 0.69859 0.6724 0.90751 0.0
H1866 H 0.73751 0.69319 0.85524 0.0
H1867 H 0.72567 0.75762 0.85666 0.0
H1868 H 0.69381 0.6163 0.88364 0.0
H1869 H 0.79031 0.65412 0.88855 0.0
H1870 H 0.76647 0.68709 0.89145 0.0
H1871 H 0.77557 0.6727 0.86792 0.0
C1872 C 0.69698 0.72715 0.89675 0.0
C1873 C 0.70506 0.75216 0.88286 0.0
C1874 C 0.7042 0.69061 0.89613 0.0
C1875 C 0.7195 0.67811 0.88156 0.0
C1876 C 0.7263 0.70242 0.86695 0.0
H1877 H 0.75787 0.4469 0.86694 0.0
H1878 H 0.73768 0.50624 0.86464 0.0
C1879 C 0.71936 0.7392 0.8677 0.0
C1880 C 0.72919 0.64021 0.88234 0.0
H1881 H 0.78158 0.59156 0.88476 0.0
C1882 C 0.71301 0.61084 0.88386 0.0
C1883 C 0.75424 0.63311 0.883 0.0
C1884 C 0.77267 0.6634 0.88284 0.0
C1885 C 0.72117 0.57469 0.88609 0.0
C1886 C 0.74624 0.56756 0.88626 0.0
C1887 C 0.76236 0.59692 0.88457 0.0
C1888 C 0.75642 0.53018 0.88869 0.0
C1889 C 0.70285 0.54477 0.88888 0.0
C1890 C 0.77374 0.52371 0.90291 0.0
C1891 C 0.78561 0.49012 0.904 0.0
C1892 C 0.78022 0.46204 0.89103 0.0
C1893 C 0.7621 0.46784 0.87734 0.0
C1894 C 0.7505 0.50177 0.87604 0.0
H1895 H 0.6854 0.55577 0.89412 0.0
H1896 H 0.69949 0.53115 0.87498 0.0
H1897 H 0.70936 0.52392 0.89918 0.0
H1898 H 0.77861 0.54509 0.91288 0.0
H1899 H 0.79951 0.48644 0.91469 0.0
H1900 H 0.76601 0.57569 0.37794 0.0
H1901 H 0.79019 0.51982 0.376 0.0
H1902 H 0.73207 0.45859 0.40132 0.0
H1903 H 0.70789 0.51418 0.40356 0.0
H1904 H 0.77781 0.4398 0.41568 0.0
H1905 H 0.776 0.43991 0.33616 0.0
H1906 H 0.78754 0.48051 0.34727 0.0
H1907 H 0.75642 0.46857 0.35028 0.0
C1908 C 0.75846 0.55043 0.38332 0.0
C1909 C 0.73488 0.54942 0.39075 0.0
C1910 C 0.77227 0.51848 0.38207 0.0
C1911 C 0.76276 0.48494 0.38819 0.0
C1912 C 0.73971 0.48415 0.39641 0.0
H1913 H 0.78154 0.26112 0.36428 0.0
H1914 H 0.77211 0.32623 0.36476 0.0
C1915 C 0.72589 0.516 0.39766 0.0
C1916 C 0.77626 0.45029 0.38545 0.0
H1917 H 0.79578 0.39079 0.35112 0.0
C1918 C 0.78206 0.42927 0.40159 0.0
C1919 C 0.78154 0.43649 0.36702 0.0
C1920 C 0.77493 0.4573 0.34914 0.0
C1921 C 0.79244 0.39442 0.39979 0.0
C1922 C 0.79745 0.38044 0.38134 0.0
C1923 C 0.7922 0.40182 0.36522 0.0
C1924 C 0.80532 0.34208 0.37853 0.0
C1925 C 0.79686 0.37205 0.41758 0.0
C1926 C 0.82764 0.32955 0.38534 0.0
C1927 C 0.83318 0.29218 0.38498 0.0
C1928 C 0.81639 0.26685 0.3779 0.0
C1929 C 0.7948 0.2799 0.36993 0.0
C1930 C 0.78937 0.31713 0.37018 0.0
H1931 H 0.78855 0.38456 0.43046 0.0
H1932 H 0.78957 0.34401 0.41584 0.0
H1933 H 0.81653 0.36971 0.42006 0.0
H1934 H 0.84034 0.34848 0.3916 0.0
H1935 H 0.84993 0.283 0.39129 0.0
H1936 H 0.28678 0.75195 0.86367 0.0
H1937 H 0.2772 0.68696 0.864 0.0
H1938 H 0.34431 0.66412 0.89253 0.0
H1939 H 0.35401 0.72952 0.89243 0.0
H1940 H 0.3007 0.62286 0.85079 0.0
H1941 H 0.29185 0.62707 0.93005 0.0
H1942 H 0.29354 0.66796 0.91572 0.0
H1943 H 0.3202 0.64161 0.92023 0.0
C1944 C 0.29975 0.73309 0.86972 0.0
C1945 C 0.32104 0.746 0.87822 0.0
C1946 C 0.29424 0.69591 0.86988 0.0
C1947 C 0.30982 0.6708 0.87861 0.0
C1948 C 0.33186 0.68317 0.88599 0.0
H1949 H 0.26996 0.43745 0.87603 0.0
H1950 H 0.29434 0.49309 0.87459 0.0
C1951 C 0.33747 0.7205 0.88576 0.0
C1952 C 0.30185 0.6324 0.88111 0.0
H1953 H 0.28161 0.57217 0.91482 0.0
C1954 C 0.29687 0.61148 0.86479 0.0
C1955 C 0.29652 0.61792 0.8994 0.0
C1956 C 0.30059 0.63975 0.9174 0.0
C1957 C 0.28615 0.57683 0.86622 0.0
C1958 C 0.28055 0.56254 0.88451 0.0
C1959 C 0.2861 0.58307 0.90085 0.0
C1960 C 0.26691 0.52796 0.88687 0.0
C1961 C 0.2798 0.5566 0.84814 0.0
C1962 C 0.24379 0.52879 0.89497 0.0
C1963 C 0.22987 0.49707 0.89593 0.0
C1964 C 0.23881 0.46373 0.88885 0.0
C1965 C 0.26244 0.46265 0.88153 0.0
C1966 C 0.27636 0.49448 0.88057 0.0
H1967 H 0.28108 0.57436 0.83529 0.0
H1968 H 0.29241 0.53335 0.84622 0.0
H1969 H 0.26125 0.54542 0.84902 0.0
H1970 H 0.23619 0.55429 0.90002 0.0
H1971 H 0.21184 0.49895 0.90177 0.0
H1972 H 0.30441 0.49945 0.38449 0.0
H1973 H 0.27922 0.44512 0.38547 0.0
H1974 H 0.21784 0.51098 0.401 0.0
H1975 H 0.24322 0.56617 0.40004 0.0
H1976 H 0.24948 0.41702 0.41667 0.0
H1977 H 0.19785 0.45343 0.35103 0.0
H1978 H 0.22637 0.47458 0.35653 0.0
H1979 H 0.20005 0.48649 0.37002 0.0
C1980 C 0.28558 0.50251 0.38824 0.0
C1981 C 0.27576 0.53719 0.39203 0.0
C1982 C 0.27121 0.47136 0.38883 0.0
C1983 C 0.24662 0.47405 0.39307 0.0
C1984 C 0.23676 0.50842 0.39749 0.0
H1985 H 0.15813 0.27261 0.39063 0.0
H1986 H 0.16762 0.33783 0.394 0.0
C1987 C 0.25128 0.53983 0.39707 0.0
C1988 C 0.2317 0.44048 0.39225 0.0
H1989 H 0.19323 0.39381 0.363 0.0
C1990 C 0.23676 0.41221 0.4052 0.0
C1991 C 0.21521 0.43422 0.37721 0.0
C1992 C 0.20948 0.46359 0.36279 0.0
C1993 C 0.22658 0.37741 0.40301 0.0
C1994 C 0.21118 0.37058 0.38735 0.0
C1995 C 0.20506 0.39925 0.37497 0.0
C1996 C 0.20369 0.33284 0.38263 0.0
C1997 C 0.23315 0.34757 0.41697 0.0
C1998 C 0.22048 0.30894 0.37442 0.0
C1999 C 0.21515 0.2719 0.3724 0.0
C2000 C 0.19288 0.25793 0.37861 0.0
C2001 C 0.17541 0.28246 0.38563 0.0
C2002 C 0.18082 0.31969 0.38766 0.0
H2003 H 0.24155 0.35865 0.43014 0.0
H2004 H 0.21696 0.33155 0.42101 0.0
H2005 H 0.24614 0.3286 0.41009 0.0
H2006 H 0.23818 0.31868 0.37035 0.0
H2007 H 0.22897 0.25388 0.36685 0.0
H2008 H 0.26666 0.56639 0.10947 0.0
H2009 H 0.29142 0.51049 0.10826 0.0
H2010 H 0.22951 0.44638 0.12424 0.0
H2011 H 0.20493 0.50142 0.12548 0.0
H2012 H 0.29794 0.45911 0.14046 0.0
H2013 H 0.25778 0.39324 0.07687 0.0
H2014 H 0.25541 0.44173 0.08135 0.0
H2015 H 0.23563 0.41026 0.09333 0.0
C2016 C 0.25832 0.54026 0.1124 0.0
C2017 C 0.23387 0.53827 0.1176 0.0
C2018 C 0.27248 0.50846 0.11181 0.0
C2019 C 0.26222 0.47432 0.11603 0.0
C2020 C 0.23772 0.47236 0.12071 0.0
H2021 H 0.27999 0.25332 0.14082 0.0
H2022 H 0.27015 0.31797 0.13759 0.0
C2023 C 0.22372 0.50391 0.12149 0.0
C2024 C 0.27686 0.44047 0.11659 0.0
H2025 H 0.27736 0.35333 0.09939 0.0
C2026 C 0.29397 0.43617 0.13119 0.0
C2027 C 0.27161 0.41067 0.10447 0.0
C2028 C 0.25427 0.41423 0.088 0.0
C2029 C 0.30468 0.40199 0.13482 0.0
C2030 C 0.29812 0.37169 0.12349 0.0
C2031 C 0.28216 0.3766 0.10817 0.0
C2032 C 0.30571 0.33394 0.12819 0.0
C2033 C 0.32178 0.39784 0.15138 0.0
C2034 C 0.32924 0.32173 0.12458 0.0
C2035 C 0.335 0.28458 0.12646 0.0
C2036 C 0.3172 0.25917 0.13183 0.0
C2037 C 0.29408 0.27206 0.13654 0.0
C2038 C 0.2884 0.30901 0.13468 0.0
H2039 H 0.32381 0.42358 0.15962 0.0
H2040 H 0.3153 0.37605 0.16116 0.0
H2041 H 0.33975 0.38943 0.14598 0.0
H2042 H 0.34281 0.34057 0.11943 0.0
H2043 H 0.35294 0.27555 0.12262 0.0
H2044 H 0.23156 0.75099 0.65378 0.0
H2045 H 0.24138 0.68606 0.65202 0.0
H2046 H 0.17579 0.6661 0.6209 0.0
H2047 H 0.16581 0.73133 0.62251 0.0
H2048 H 0.21692 0.61945 0.66221 0.0
H2049 H 0.23137 0.63564 0.58387 0.0
H2050 H 0.22884 0.67424 0.59978 0.0
H2051 H 0.20244 0.64915 0.59307 0.0
C2052 C 0.2189 0.73269 0.64695 0.0
C2053 C 0.198 0.74639 0.63815 0.0
C2054 C 0.22457 0.69557 0.64595 0.0
C2055 C 0.20955 0.67142 0.63601 0.0
C2056 C 0.18778 0.68444 0.6284 0.0
H2057 H 0.24822 0.43791 0.63109 0.0
H2058 H 0.22426 0.49392 0.63349 0.0
C2059 C 0.18199 0.72166 0.62951 0.0
C2060 C 0.21793 0.63355 0.63238 0.0
H2061 H 0.24056 0.57843 0.59725 0.0
C2062 C 0.22176 0.61019 0.64799 0.0
C2063 C 0.22462 0.62189 0.61382 0.0
C2064 C 0.22183 0.64649 0.59663 0.0
C2065 C 0.23252 0.57571 0.64561 0.0
C2066 C 0.23937 0.56414 0.62706 0.0
C2067 C 0.2351 0.58724 0.61141 0.0
C2068 C 0.25285 0.52959 0.62388 0.0
C2069 C 0.23751 0.55268 0.66306 0.0
C2070 C 0.27653 0.53084 0.61688 0.0
C2071 C 0.29023 0.49891 0.61536 0.0
C2072 C 0.2805 0.46495 0.62077 0.0
C2073 C 0.25635 0.46357 0.62688 0.0
C2074 C 0.24265 0.4956 0.62841 0.0
H2075 H 0.23551 0.56853 0.67651 0.0
H2076 H 0.2246 0.5296 0.66353 0.0
H2077 H 0.25599 0.54112 0.6625 0.0
H2078 H 0.28471 0.55675 0.61319 0.0
H2079 H 0.30869 0.50103 0.61048 0.0
loop_
_geom_bond_atom_site_label_1
_geom_bond_atom_site_label_2
_geom_bond_distance
_geom_bond_site_symmetry_2
_ccdc_geom_bond_type
Fe0 O2 1.918 . S
Fe0 O5 1.997 . S
Fe0 O6 2.002 . S
Fe0 O11 1.976 . S
Fe0 O14 1.996 . S
Fe1 O2 1.918 . S
Fe1 O9 1.997 . S
Fe1 O12 1.996 . S
Fe1 O16 1.976 . S
Fe1 O19 2.002 . S
O2 Fe0 1.918 . S
O2 Fe1 1.918 . S
O2 Fe3 1.918 . S
Fe3 O2 1.918 . S
Fe3 O4 2.002 . S
Fe3 O13 1.976 . S
Fe3 O17 1.996 . S
Fe3 O20 1.997 . S
O4 Fe3 2.002 . S
O4 C21 1.295 . S
O5 Fe0 1.997 . S
O5 C21 1.235 . S
O6 Fe0 2.002 . S
O6 C7 1.295 . S
C7 O6 1.295 . S
C7 O9 1.235 . S
C8 O13 1.287 . S
C8 O14 1.255 . S
O9 Fe1 1.997 . S
O9 C7 1.235 . S
C10 O16 1.287 . S
C10 O17 1.255 . S
O11 Fe0 1.976 . S
O11 C18 1.287 . S
O12 Fe1 1.996 . S
O12 C18 1.255 . S
O13 Fe3 1.976 . S
O13 C8 1.287 . S
O14 Fe0 1.996 . S
O14 C8 1.255 . S
C15 O19 1.295 . S
C15 O20 1.235 . S
O16 Fe1 1.976 . S
O16 C10 1.287 . S
O17 Fe3 1.996 . S
O17 C10 1.255 . S
C18 O11 1.287 . S
C18 O12 1.255 . S
O19 Fe1 2.002 . S
O19 C15 1.295 . S
O20 Fe3 1.997 . S
O20 C15 1.235 . S
C21 O4 1.295 . S
C21 O5 1.235 . S
Fe22 O24 1.918 . S
Fe22 O27 1.997 . S
Fe22 O28 2.002 . S
Fe22 O33 1.976 . S
Fe22 O36 1.996 . S
Fe23 O24 1.918 . S
Fe23 O31 1.997 . S
Fe23 O34 1.996 . S
Fe23 O38 1.976 . S
Fe23 O41 2.002 . S
O24 Fe22 1.918 . S
O24 Fe23 1.918 . S
O24 Fe25 1.918 . S
Fe25 O24 1.918 . S
Fe25 O26 2.002 . S
Fe25 O35 1.976 . S
Fe25 O39 1.996 . S
Fe25 O42 1.997 . S
O26 Fe25 2.002 . S
O26 C43 1.295 . S
O27 Fe22 1.997 . S
O27 C43 1.235 . S
O28 Fe22 2.002 . S
O28 C29 1.295 . S
C29 O28 1.295 . S
C29 O31 1.235 . S
C30 O35 1.287 . S
C30 O36 1.255 . S
O31 Fe23 1.997 . S
O31 C29 1.235 . S
C32 O38 1.287 . S
C32 O39 1.255 . S
O33 Fe22 1.976 . S
O33 C40 1.287 . S
O34 Fe23 1.996 . S
O34 C40 1.255 . S
O35 Fe25 1.976 . S
O35 C30 1.287 . S
O36 Fe22 1.996 . S
O36 C30 1.255 . S
C37 O41 1.295 . S
C37 O42 1.235 . S
O38 Fe23 1.976 . S
O38 C32 1.287 . S
O39 Fe25 1.996 . S
O39 C32 1.255 . S
C40 O33 1.287 . S
C40 O34 1.255 . S
O41 Fe23 2.002 . S
O41 C37 1.295 . S
O42 Fe25 1.997 . S
O42 C37 1.235 . S
C43 O26 1.295 . S
C43 O27 1.235 . S
Fe44 O46 1.918 . S
Fe44 O49 1.997 . S
Fe44 O50 2.002 . S
Fe44 O55 1.976 . S
Fe44 O58 1.996 . S
Fe45 O46 1.918 . S
Fe45 O53 1.997 . S
Fe45 O56 1.996 . S
Fe45 O60 1.976 . S
Fe45 O63 2.002 . S
O46 Fe44 1.918 . S
O46 Fe45 1.918 . S
O46 Fe47 1.918 . S
Fe47 O46 1.918 . S
Fe47 O48 2.002 . S
Fe47 O57 1.976 . S
Fe47 O61 1.996 . S
Fe47 O64 1.997 . S
O48 Fe47 2.002 . S
O48 C65 1.295 . S
O49 Fe44 1.997 . S
O49 C65 1.235 . S
O50 Fe44 2.002 . S
O50 C51 1.295 . S
C51 O50 1.295 . S
C51 O53 1.235 . S
C52 O57 1.287 . S
C52 O58 1.255 . S
O53 Fe45 1.997 . S
O53 C51 1.235 . S
C54 O60 1.287 . S
C54 O61 1.255 . S
O55 Fe44 1.976 . S
O55 C62 1.287 . S
O56 Fe45 1.996 . S
O56 C62 1.255 . S
O57 Fe47 1.976 . S
O57 C52 1.287 . S
O58 Fe44 1.996 . S
O58 C52 1.255 . S
C59 O63 1.295 . S
C59 O64 1.235 . S
O60 Fe45 1.976 . S
O60 C54 1.287 . S
O61 Fe47 1.996 . S
O61 C54 1.255 . S
C62 O55 1.287 . S
C62 O56 1.255 . S
O63 Fe45 2.002 . S
O63 C59 1.295 . S
O64 Fe47 1.997 . S
O64 C59 1.235 . S
C65 O48 1.295 . S
C65 O49 1.235 . S
Fe66 O68 1.918 . S
Fe66 O71 1.997 . S
Fe66 O72 2.002 . S
Fe66 O77 1.976 . S
Fe66 O80 1.996 . S
Fe67 O68 1.918 . S
Fe67 O75 1.997 . S
Fe67 O78 1.996 . S
Fe67 O82 1.976 . S
Fe67 O85 2.002 . S
O68 Fe66 1.918 . S
O68 Fe67 1.918 . S
O68 Fe69 1.918 . S
Fe69 O68 1.918 . S
Fe69 O70 2.002 . S
Fe69 O79 1.976 . S
Fe69 O83 1.996 . S
Fe69 O86 1.997 . S
O70 Fe69 2.002 . S
O70 C87 1.295 . S
O71 Fe66 1.997 . S
O71 C87 1.235 . S
O72 Fe66 2.002 . S
O72 C73 1.295 . S
C73 O72 1.295 . S
C73 O75 1.235 . S
C74 O79 1.287 . S
C74 O80 1.255 . S
O75 Fe67 1.997 . S
O75 C73 1.235 . S
C76 O82 1.287 . S
C76 O83 1.255 . S
O77 Fe66 1.976 . S
O77 C84 1.287 . S
O78 Fe67 1.996 . S
O78 C84 1.255 . S
O79 Fe69 1.976 . S
O79 C74 1.287 . S
O80 Fe66 1.996 . S
O80 C74 1.255 . S
C81 O85 1.295 . S
C81 O86 1.235 . S
O82 Fe67 1.976 . S
O82 C76 1.287 . S
O83 Fe69 1.996 . S
O83 C76 1.255 . S
C84 O77 1.287 . S
C84 O78 1.255 . S
O85 Fe67 2.002 . S
O85 C81 1.295 . S
O86 Fe69 1.997 . S
O86 C81 1.235 . S
C87 O70 1.295 . S
C87 O71 1.235 . S
Fe88 O90 1.918 . S
Fe88 O93 1.997 . S
Fe88 O94 2.002 . S
Fe88 O99 1.976 . S
Fe88 O102 1.996 . S
Fe89 O90 1.918 . S
Fe89 O97 1.997 . S
Fe89 O100 1.996 . S
Fe89 O104 1.976 . S
Fe89 O107 2.002 . S
O90 Fe88 1.918 . S
O90 Fe89 1.918 . S
O90 Fe91 1.918 . S
Fe91 O90 1.918 . S
Fe91 O92 2.002 . S
Fe91 O101 1.976 . S
Fe91 O105 1.996 . S
Fe91 O108 1.997 . S
O92 Fe91 2.002 . S
O92 C109 1.295 . S
O93 Fe88 1.997 . S
O93 C109 1.235 . S
O94 Fe88 2.002 . S
O94 C95 1.295 . S
C95 O94 1.295 . S
C95 O97 1.235 . S
C96 O101 1.287 . S
C96 O102 1.255 . S
O97 Fe89 1.997 . S
O97 C95 1.235 . S
C98 O104 1.287 . S
C98 O105 1.255 . S
O99 Fe88 1.976 . S
O99 C106 1.287 . S
O100 Fe89 1.996 . S
O100 C106 1.255 . S
O101 Fe91 1.976 . S
O101 C96 1.287 . S
O102 Fe88 1.996 . S
O102 C96 1.255 . S
C103 O107 1.295 . S
C103 O108 1.235 . S
O104 Fe89 1.976 . S
O104 C98 1.287 . S
O105 Fe91 1.996 . S
O105 C98 1.255 . S
C106 O99 1.287 . S
C106 O100 1.255 . S
O107 Fe89 2.002 . S
O107 C103 1.295 . S
O108 Fe91 1.997 . S
O108 C103 1.235 . S
C109 O92 1.295 . S
C109 O93 1.235 . S
Fe110 O112 1.918 . S
Fe110 O115 1.997 . S
Fe110 O116 2.002 . S
Fe110 O121 1.976 . S
Fe110 O124 1.996 . S
Fe111 O112 1.918 . S
Fe111 O119 1.997 . S
Fe111 O122 1.996 . S
Fe111 O126 1.976 . S
Fe111 O129 2.002 . S
O112 Fe110 1.918 . S
O112 Fe111 1.918 . S
O112 Fe113 1.918 . S
Fe113 O112 1.918 . S
Fe113 O114 2.002 . S
Fe113 O123 1.976 . S
Fe113 O127 1.996 . S
Fe113 O130 1.997 . S
O114 Fe113 2.002 . S
O114 C131 1.295 . S
O115 Fe110 1.997 . S
O115 C131 1.235 . S
O116 Fe110 2.002 . S
O116 C117 1.295 . S
C117 O116 1.295 . S
C117 O119 1.235 . S
C118 O123 1.287 . S
C118 O124 1.255 . S
O119 Fe111 1.997 . S
O119 C117 1.235 . S
C120 O126 1.287 . S
C120 O127 1.255 . S
O121 Fe110 1.976 . S
O121 C128 1.287 . S
O122 Fe111 1.996 . S
O122 C128 1.255 . S
O123 Fe113 1.976 . S
O123 C118 1.287 . S
O124 Fe110 1.996 . S
O124 C118 1.255 . S
C125 O129 1.295 . S
C125 O130 1.235 . S
O126 Fe111 1.976 . S
O126 C120 1.287 . S
O127 Fe113 1.996 . S
O127 C120 1.255 . S
C128 O121 1.287 . S
C128 O122 1.255 . S
O129 Fe111 2.002 . S
O129 C125 1.295 . S
O130 Fe113 1.997 . S
O130 C125 1.235 . S
C131 O114 1.295 . S
C131 O115 1.235 . S
Fe132 O134 1.918 . S
Fe132 O137 1.997 . S
Fe132 O138 2.002 . S
Fe132 O143 1.976 . S
Fe132 O146 1.996 . S
Fe133 O134 1.918 . S
Fe133 O141 1.997 . S
Fe133 O144 1.996 . S
Fe133 O148 1.976 . S
Fe133 O151 2.002 . S
O134 Fe132 1.918 . S
O134 Fe133 1.918 . S
O134 Fe135 1.918 . S
Fe135 O134 1.918 . S
Fe135 O136 2.002 . S
Fe135 O145 1.976 . S
Fe135 O149 1.996 . S
Fe135 O152 1.997 . S
O136 Fe135 2.002 . S
O136 C153 1.295 . S
O137 Fe132 1.997 . S
O137 C153 1.235 . S
O138 Fe132 2.002 . S
O138 C139 1.295 . S
C139 O138 1.295 . S
C139 O141 1.235 . S
C140 O145 1.287 . S
C140 O146 1.255 . S
O141 Fe133 1.997 . S
O141 C139 1.235 . S
C142 O148 1.287 . S
C142 O149 1.255 . S
O143 Fe132 1.976 . S
O143 C150 1.287 . S
O144 Fe133 1.996 . S
O144 C150 1.255 . S
O145 Fe135 1.976 . S
O145 C140 1.287 . S
O146 Fe132 1.996 . S
O146 C140 1.255 . S
C147 O151 1.295 . S
C147 O152 1.235 . S
O148 Fe133 1.976 . S
O148 C142 1.287 . S
O149 Fe135 1.996 . S
O149 C142 1.255 . S
C150 O143 1.287 . S
C150 O144 1.255 . S
O151 Fe133 2.002 . S
O151 C147 1.295 . S
O152 Fe135 1.997 . S
O152 C147 1.235 . S
C153 O136 1.295 . S
C153 O137 1.235 . S
Fe154 O156 1.918 . S
Fe154 O159 1.997 . S
Fe154 O160 2.002 . S
Fe154 O165 1.976 . S
Fe154 O168 1.996 . S
Fe155 O156 1.918 . S
Fe155 O163 1.997 . S
Fe155 O166 1.996 . S
Fe155 O170 1.976 . S
Fe155 O173 2.002 . S
O156 Fe154 1.918 . S
O156 Fe155 1.918 . S
O156 Fe157 1.918 . S
Fe157 O156 1.918 . S
Fe157 O158 2.002 . S
Fe157 O167 1.976 . S
Fe157 O171 1.996 . S
Fe157 O174 1.997 . S
O158 Fe157 2.002 . S
O158 C175 1.295 . S
O159 Fe154 1.997 . S
O159 C175 1.235 . S
O160 Fe154 2.002 . S
O160 C161 1.295 . S
C161 O160 1.295 . S
C161 O163 1.235 . S
C162 O167 1.287 . S
C162 O168 1.255 . S
O163 Fe155 1.997 . S
O163 C161 1.235 . S
C164 O170 1.287 . S
C164 O171 1.255 . S
O165 Fe154 1.976 . S
O165 C172 1.287 . S
O166 Fe155 1.996 . S
O166 C172 1.255 . S
O167 Fe157 1.976 . S
O167 C162 1.287 . S
O168 Fe154 1.996 . S
O168 C162 1.255 . S
C169 O173 1.295 . S
C169 O174 1.235 . S
O170 Fe155 1.976 . S
O170 C164 1.287 . S
O171 Fe157 1.996 . S
O171 C164 1.255 . S
C172 O165 1.287 . S
C172 O166 1.255 . S
O173 Fe155 2.002 . S
O173 C169 1.295 . S
O174 Fe157 1.997 . S
O174 C169 1.235 . S
C175 O158 1.295 . S
C175 O159 1.235 . S
Fe176 O178 1.918 . S
Fe176 O181 1.997 . S
Fe176 O182 2.002 . S
Fe176 O187 1.976 . S
Fe176 O190 1.996 . S
Fe177 O178 1.918 . S
Fe177 O185 1.997 . S
Fe177 O188 1.996 . S
Fe177 O192 1.976 . S
Fe177 O195 2.002 . S
O178 Fe176 1.918 . S
O178 Fe177 1.918 . S
O178 Fe179 1.918 . S
Fe179 O178 1.918 . S
Fe179 O180 2.002 . S
Fe179 O189 1.976 . S
Fe179 O193 1.996 . S
Fe179 O196 1.997 . S
O180 Fe179 2.002 . S
O180 C197 1.295 . S
O181 Fe176 1.997 . S
O181 C197 1.235 . S
O182 Fe176 2.002 . S
O182 C183 1.295 . S
C183 O182 1.295 . S
C183 O185 1.235 . S
C184 O189 1.287 . S
C184 O190 1.255 . S
O185 Fe177 1.997 . S
O185 C183 1.235 . S
C186 O192 1.287 . S
C186 O193 1.255 . S
O187 Fe176 1.976 . S
O187 C194 1.287 . S
O188 Fe177 1.996 . S
O188 C194 1.255 . S
O189 Fe179 1.976 . S
O189 C184 1.287 . S
O190 Fe176 1.996 . S
O190 C184 1.255 . S
C191 O195 1.295 . S
C191 O196 1.235 . S
O192 Fe177 1.976 . S
O192 C186 1.287 . S
O193 Fe179 1.996 . S
O193 C186 1.255 . S
C194 O187 1.287 . S
C194 O188 1.255 . S
O195 Fe177 2.002 . S
O195 C191 1.295 . S
O196 Fe179 1.997 . S
O196 C191 1.235 . S
C197 O180 1.295 . S
C197 O181 1.235 . S
Fe198 O200 1.918 . S
Fe198 O203 1.997 . S
Fe198 O204 2.002 . S
Fe198 O209 1.976 . S
Fe198 O212 1.996 . S
Fe199 O200 1.918 . S
Fe199 O207 1.997 . S
Fe199 O210 1.996 . S
Fe199 O214 1.976 . S
Fe199 O217 2.002 . S
O200 Fe198 1.918 . S
O200 Fe199 1.918 . S
O200 Fe201 1.918 . S
Fe201 O200 1.918 . S
Fe201 O202 2.002 . S
Fe201 O211 1.976 . S
Fe201 O215 1.996 . S
Fe201 O218 1.997 . S
O202 Fe201 2.002 . S
O202 C219 1.295 . S
O203 Fe198 1.997 . S
O203 C219 1.235 . S
O204 Fe198 2.002 . S
O204 C205 1.295 . S
C205 O204 1.295 . S
C205 O207 1.235 . S
C206 O211 1.287 . S
C206 O212 1.255 . S
O207 Fe199 1.997 . S
O207 C205 1.235 . S
C208 O214 1.287 . S
C208 O215 1.255 . S
O209 Fe198 1.976 . S
O209 C216 1.287 . S
O210 Fe199 1.996 . S
O210 C216 1.255 . S
O211 Fe201 1.976 . S
O211 C206 1.287 . S
O212 Fe198 1.996 . S
O212 C206 1.255 . S
C213 O217 1.295 . S
C213 O218 1.235 . S
O214 Fe199 1.976 . S
O214 C208 1.287 . S
O215 Fe201 1.996 . S
O215 C208 1.255 . S
C216 O209 1.287 . S
C216 O210 1.255 . S
O217 Fe199 2.002 . S
O217 C213 1.295 . S
O218 Fe201 1.997 . S
O218 C213 1.235 . S
C219 O202 1.295 . S
C219 O203 1.235 . S
Fe220 O222 1.918 . S
Fe220 O225 1.997 . S
Fe220 O226 2.002 . S
Fe220 O231 1.976 . S
Fe220 O234 1.996 . S
Fe221 O222 1.918 . S
Fe221 O229 1.997 . S
Fe221 O232 1.996 . S
Fe221 O236 1.976 . S
Fe221 O239 2.002 . S
O222 Fe220 1.918 . S
O222 Fe221 1.918 . S
O222 Fe223 1.918 . S
Fe223 O222 1.918 . S
Fe223 O224 2.002 . S
Fe223 O233 1.976 . S
Fe223 O237 1.996 . S
Fe223 O240 1.997 . S
O224 Fe223 2.002 . S
O224 C241 1.295 . S
O225 Fe220 1.997 . S
O225 C241 1.235 . S
O226 Fe220 2.002 . S
O226 C227 1.295 . S
C227 O226 1.295 . S
C227 O229 1.235 . S
C228 O233 1.287 . S
C228 O234 1.255 . S
O229 Fe221 1.997 . S
O229 C227 1.235 . S
C230 O236 1.287 . S
C230 O237 1.255 . S
O231 Fe220 1.976 . S
O231 C238 1.287 . S
O232 Fe221 1.996 . S
O232 C238 1.255 . S
O233 Fe223 1.976 . S
O233 C228 1.287 . S
O234 Fe220 1.996 . S
O234 C228 1.255 . S
C235 O239 1.295 . S
C235 O240 1.235 . S
O236 Fe221 1.976 . S
O236 C230 1.287 . S
O237 Fe223 1.996 . S
O237 C230 1.255 . S
C238 O231 1.287 . S
C238 O232 1.255 . S
O239 Fe221 2.002 . S
O239 C235 1.295 . S
O240 Fe223 1.997 . S
O240 C235 1.235 . S
C241 O224 1.295 . S
C241 O225 1.235 . S
Fe242 O244 1.918 . S
Fe242 O247 1.997 . S
Fe242 O248 2.002 . S
Fe242 O253 1.976 . S
Fe242 O256 1.996 . S
Fe243 O244 1.918 . S
Fe243 O251 1.997 . S
Fe243 O254 1.996 . S
Fe243 O258 1.976 . S
Fe243 O261 2.002 . S
O244 Fe242 1.918 . S
O244 Fe243 1.918 . S
O244 Fe245 1.918 . S
Fe245 O244 1.918 . S
Fe245 O246 2.002 . S
Fe245 O255 1.976 . S
Fe245 O259 1.996 . S
Fe245 O262 1.997 . S
O246 Fe245 2.002 . S
O246 C263 1.295 . S
O247 Fe242 1.997 . S
O247 C263 1.235 . S
O248 Fe242 2.002 . S
O248 C249 1.295 . S
C249 O248 1.295 . S
C249 O251 1.235 . S
C250 O255 1.287 . S
C250 O256 1.255 . S
O251 Fe243 1.997 . S
O251 C249 1.235 . S
C252 O258 1.287 . S
C252 O259 1.255 . S
O253 Fe242 1.976 . S
O253 C260 1.287 . S
O254 Fe243 1.996 . S
O254 C260 1.255 . S
O255 Fe245 1.976 . S
O255 C250 1.287 . S
O256 Fe242 1.996 . S
O256 C250 1.255 . S
C257 O261 1.295 . S
C257 O262 1.235 . S
O258 Fe243 1.976 . S
O258 C252 1.287 . S
O259 Fe245 1.996 . S
O259 C252 1.255 . S
C260 O253 1.287 . S
C260 O254 1.255 . S
O261 Fe243 2.002 . S
O261 C257 1.295 . S
O262 Fe245 1.997 . S
O262 C257 1.235 . S
C263 O246 1.295 . S
C263 O247 1.235 . S
Fe264 O266 1.918 . S
Fe264 O269 1.997 . S
Fe264 O270 2.002 . S
Fe264 O275 1.976 . S
Fe264 O278 1.996 . S
Fe265 O266 1.918 . S
Fe265 O273 1.997 . S
Fe265 O276 1.996 . S
Fe265 O280 1.976 . S
Fe265 O283 2.002 . S
O266 Fe264 1.918 . S
O266 Fe265 1.918 . S
O266 Fe267 1.918 . S
Fe267 O266 1.918 . S
Fe267 O268 2.002 . S
Fe267 O277 1.976 . S
Fe267 O281 1.996 . S
Fe267 O284 1.997 . S
O268 Fe267 2.002 . S
O268 C285 1.295 . S
O269 Fe264 1.997 . S
O269 C285 1.235 . S
O270 Fe264 2.002 . S
O270 C271 1.295 . S
C271 O270 1.295 . S
C271 O273 1.235 . S
C272 O277 1.287 . S
C272 O278 1.255 . S
O273 Fe265 1.997 . S
O273 C271 1.235 . S
C274 O280 1.287 . S
C274 O281 1.255 . S
O275 Fe264 1.976 . S
O275 C282 1.287 . S
O276 Fe265 1.996 . S
O276 C282 1.255 . S
O277 Fe267 1.976 . S
O277 C272 1.287 . S
O278 Fe264 1.996 . S
O278 C272 1.255 . S
C279 O283 1.295 . S
C279 O284 1.235 . S
O280 Fe265 1.976 . S
O280 C274 1.287 . S
O281 Fe267 1.996 . S
O281 C274 1.255 . S
C282 O275 1.287 . S
C282 O276 1.255 . S
O283 Fe265 2.002 . S
O283 C279 1.295 . S
O284 Fe267 1.997 . S
O284 C279 1.235 . S
C285 O268 1.295 . S
C285 O269 1.235 . S
Fe286 O288 1.918 . S
Fe286 O291 1.997 . S
Fe286 O292 2.002 . S
Fe286 O297 1.976 . S
Fe286 O300 1.996 . S
Fe287 O288 1.918 . S
Fe287 O295 1.997 . S
Fe287 O298 1.996 . S
Fe287 O302 1.976 . S
Fe287 O305 2.002 . S
O288 Fe286 1.918 . S
O288 Fe287 1.918 . S
O288 Fe289 1.918 . S
Fe289 O288 1.918 . S
Fe289 O290 2.002 . S
Fe289 O299 1.976 . S
Fe289 O303 1.996 . S
Fe289 O306 1.997 . S
O290 Fe289 2.002 . S
O290 C307 1.295 . S
O291 Fe286 1.997 . S
O291 C307 1.235 . S
O292 Fe286 2.002 . S
O292 C293 1.295 . S
C293 O292 1.295 . S
C293 O295 1.235 . S
C294 O299 1.287 . S
C294 O300 1.255 . S
O295 Fe287 1.997 . S
O295 C293 1.235 . S
C296 O302 1.287 . S
C296 O303 1.255 . S
O297 Fe286 1.976 . S
O297 C304 1.287 . S
O298 Fe287 1.996 . S
O298 C304 1.255 . S
O299 Fe289 1.976 . S
O299 C294 1.287 . S
O300 Fe286 1.996 . S
O300 C294 1.255 . S
C301 O305 1.295 . S
C301 O306 1.235 . S
O302 Fe287 1.976 . S
O302 C296 1.287 . S
O303 Fe289 1.996 . S
O303 C296 1.255 . S
C304 O297 1.287 . S
C304 O298 1.255 . S
O305 Fe287 2.002 . S
O305 C301 1.295 . S
O306 Fe289 1.997 . S
O306 C301 1.235 . S
C307 O290 1.295 . S
C307 O291 1.235 . S
Fe308 O310 1.918 . S
Fe308 O313 1.997 . S
Fe308 O314 2.002 . S
Fe308 O319 1.976 . S
Fe308 O322 1.996 . S
Fe309 O310 1.918 . S
Fe309 O317 1.997 . S
Fe309 O320 1.996 . S
Fe309 O324 1.976 . S
Fe309 O327 2.002 . S
O310 Fe308 1.918 . S
O310 Fe309 1.918 . S
O310 Fe311 1.918 . S
Fe311 O310 1.918 . S
Fe311 O312 2.002 . S
Fe311 O321 1.976 . S
Fe311 O325 1.996 . S
Fe311 O328 1.997 . S
O312 Fe311 2.002 . S
O312 C329 1.295 . S
O313 Fe308 1.997 . S
O313 C329 1.235 . S
O314 Fe308 2.002 . S
O314 C315 1.295 . S
C315 O314 1.295 . S
C315 O317 1.235 . S
C316 O321 1.287 . S
C316 O322 1.255 . S
O317 Fe309 1.997 . S
O317 C315 1.235 . S
C318 O324 1.287 . S
C318 O325 1.255 . S
O319 Fe308 1.976 . S
O319 C326 1.287 . S
O320 Fe309 1.996 . S
O320 C326 1.255 . S
O321 Fe311 1.976 . S
O321 C316 1.287 . S
O322 Fe308 1.996 . S
O322 C316 1.255 . S
C323 O327 1.295 . S
C323 O328 1.235 . S
O324 Fe309 1.976 . S
O324 C318 1.287 . S
O325 Fe311 1.996 . S
O325 C318 1.255 . S
C326 O319 1.287 . S
C326 O320 1.255 . S
O327 Fe309 2.002 . S
O327 C323 1.295 . S
O328 Fe311 1.997 . S
O328 C323 1.235 . S
C329 O312 1.295 . S
C329 O313 1.235 . S
Fe330 O332 1.918 . S
Fe330 O335 1.997 . S
Fe330 O336 2.002 . S
Fe330 O341 1.976 . S
Fe330 O344 1.996 . S
Fe331 O332 1.918 . S
Fe331 O339 1.997 . S
Fe331 O342 1.996 . S
Fe331 O346 1.976 . S
Fe331 O349 2.002 . S
O332 Fe330 1.918 . S
O332 Fe331 1.918 . S
O332 Fe333 1.918 . S
Fe333 O332 1.918 . S
Fe333 O334 2.002 . S
Fe333 O343 1.976 . S
Fe333 O347 1.996 . S
Fe333 O350 1.997 . S
O334 Fe333 2.002 . S
O334 C351 1.295 . S
O335 Fe330 1.997 . S
O335 C351 1.235 . S
O336 Fe330 2.002 . S
O336 C337 1.295 . S
C337 O336 1.295 . S
C337 O339 1.235 . S
C338 O343 1.287 . S
C338 O344 1.255 . S
O339 Fe331 1.997 . S
O339 C337 1.235 . S
C340 O346 1.287 . S
C340 O347 1.255 . S
O341 Fe330 1.976 . S
O341 C348 1.287 . S
O342 Fe331 1.996 . S
O342 C348 1.255 . S
O343 Fe333 1.976 . S
O343 C338 1.287 . S
O344 Fe330 1.996 . S
O344 C338 1.255 . S
C345 O349 1.295 . S
C345 O350 1.235 . S
O346 Fe331 1.976 . S
O346 C340 1.287 . S
O347 Fe333 1.996 . S
O347 C340 1.255 . S
C348 O341 1.287 . S
C348 O342 1.255 . S
O349 Fe331 2.002 . S
O349 C345 1.295 . S
O350 Fe333 1.997 . S
O350 C345 1.235 . S
C351 O334 1.295 . S
C351 O335 1.235 . S
H352 C360 0.929 . S
H353 C362 0.930 . S
H354 C364 0.930 . S
H355 C367 0.929 . S
H356 C370 0.930 . S
H357 C372 0.960 1_556 S
H358 C372 0.960 . S
H359 C372 0.960 . S
C360 H352 0.929 . S
C360 C361 1.377 . S
C360 C362 1.384 . S
C361 C360 1.377 . S
C361 C367 1.390 . S
C362 H353 0.930 . S
C362 C360 1.384 . S
C362 C363 1.372 . S
C363 C362 1.372 . S
C363 C364 1.400 . S
C363 C368 1.490 . S
C364 H354 0.930 . S
C364 C363 1.400 . S
C364 C367 1.386 . S
H365 C381 0.930 . S
H366 C382 0.931 . S
C367 H355 0.929 . S
C367 C361 1.390 . S
C367 C364 1.386 . S
C368 C363 1.490 . S
C368 C370 1.395 . S
C368 C371 1.403 . S
H369 C375 0.930 . S
C370 H356 0.930 . S
C370 C368 1.395 . S
C370 C373 1.403 1_554 S
C371 C368 1.403 . S
C371 C372 1.524 . S
C371 C375 1.400 1_554 S
C372 H357 0.960 1_554 S
C372 H358 0.960 . S
C372 H359 0.960 . S
C372 C371 1.524 . S
C373 C370 1.403 1_556 S
C373 C374 1.392 . S
C373 C377 1.495 . S
C374 C373 1.392 . S
C374 C375 1.385 . S
C374 C376 1.478 . S
C375 H369 0.930 . S
C375 C371 1.400 1_556 S
C375 C374 1.385 . S
C376 C374 1.478 . S
C376 C378 1.381 . S
C376 C382 1.383 . S
C377 C373 1.495 . S
C377 H383 0.959 1_556 S
C377 H384 0.961 . S
C377 H385 0.960 . S
C378 C376 1.381 . S
C378 C379 1.394 . S
C378 H386 0.930 . S
C379 C378 1.394 . S
C379 C380 1.383 . S
C379 H387 0.929 . S
C380 C379 1.383 . S
C380 C381 1.377 . S
C381 H365 0.930 . S
C381 C380 1.377 . S
C381 C382 1.379 . S
C382 H366 0.931 . S
C382 C376 1.383 . S
C382 C381 1.379 . S
H383 C377 0.959 1_554 S
H384 C377 0.961 . S
H385 C377 0.960 . S
H386 C378 0.930 . S
H387 C379 0.929 . S
H388 C396 0.929 . S
H389 C398 0.930 . S
H390 C400 0.930 . S
H391 C403 0.929 . S
H392 C406 0.930 . S
H393 C408 0.960 . S
H394 C408 0.960 . S
H395 C408 0.960 . S
C396 H388 0.929 . S
C396 C397 1.377 . S
C396 C398 1.384 . S
C397 C396 1.377 . S
C397 C403 1.390 . S
C398 H389 0.930 . S
C398 C396 1.384 . S
C398 C399 1.372 . S
C399 C398 1.372 . S
C399 C400 1.400 . S
C399 C404 1.490 . S
C400 H390 0.930 . S
C400 C399 1.400 . S
C400 C403 1.386 . S
H401 C417 0.930 . S
H402 C418 0.931 . S
C403 H391 0.929 . S
C403 C397 1.390 . S
C403 C400 1.386 . S
C404 C399 1.490 . S
C404 C406 1.395 . S
C404 C407 1.403 . S
H405 C411 0.930 . S
C406 H392 0.930 . S
C406 C404 1.395 . S
C406 C409 1.403 . S
C407 C404 1.403 . S
C407 C408 1.524 . S
C407 C411 1.400 . S
C408 H393 0.960 . S
C408 H394 0.960 . S
C408 H395 0.960 . S
C408 C407 1.524 . S
C409 C406 1.403 . S
C409 C410 1.392 . S
C409 C413 1.495 . S
C410 C409 1.392 . S
C410 C411 1.385 . S
C410 C412 1.478 . S
C411 H405 0.930 . S
C411 C407 1.400 . S
C411 C410 1.385 . S
C412 C410 1.478 . S
C412 C414 1.381 . S
C412 C418 1.383 . S
C413 C409 1.495 . S
C413 H419 0.959 . S
C413 H420 0.961 . S
C413 H421 0.960 . S
C414 C412 1.381 . S
C414 C415 1.394 . S
C414 H422 0.930 . S
C415 C414 1.394 . S
C415 C416 1.383 . S
C415 H423 0.929 . S
C416 C415 1.383 . S
C416 C417 1.377 . S
C417 H401 0.930 . S
C417 C416 1.377 . S
C417 C418 1.379 . S
C418 H402 0.931 . S
C418 C412 1.383 . S
C418 C417 1.379 . S
H419 C413 0.959 . S
H420 C413 0.961 . S
H421 C413 0.960 . S
H422 C414 0.930 . S
H423 C415 0.929 . S
H424 C432 0.929 . S
H425 C434 0.930 . S
H426 C436 0.930 . S
H427 C439 0.929 . S
H428 C442 0.930 . S
H429 C444 0.960 . S
H430 C444 0.960 . S
H431 C444 0.960 . S
C432 H424 0.929 . S
C432 C433 1.377 . S
C432 C434 1.384 . S
C433 C432 1.377 . S
C433 C439 1.390 . S
C434 H425 0.930 . S
C434 C432 1.384 . S
C434 C435 1.372 . S
C435 C434 1.372 . S
C435 C436 1.400 . S
C435 C440 1.490 . S
C436 H426 0.930 . S
C436 C435 1.400 . S
C436 C439 1.386 . S
H437 C453 0.930 . S
H438 C454 0.931 . S
C439 H427 0.929 . S
C439 C433 1.390 . S
C439 C436 1.386 . S
C440 C435 1.490 . S
C440 C442 1.395 . S
C440 C443 1.403 . S
H441 C447 0.930 . S
C442 H428 0.930 . S
C442 C440 1.395 . S
C442 C445 1.403 1_554 S
C443 C440 1.403 . S
C443 C444 1.524 . S
C443 C447 1.400 1_554 S
C444 H429 0.960 . S
C444 H430 0.960 . S
C444 H431 0.960 . S
C444 C443 1.524 . S
C445 C442 1.403 1_556 S
C445 C446 1.392 . S
C445 C449 1.495 . S
C446 C445 1.392 . S
C446 C447 1.385 . S
C446 C448 1.478 . S
C447 H441 0.930 . S
C447 C443 1.400 1_556 S
C447 C446 1.385 . S
C448 C446 1.478 . S
C448 C450 1.381 . S
C448 C454 1.383 . S
C449 C445 1.495 . S
C449 H455 0.959 . S
C449 H456 0.961 . S
C449 H457 0.960 . S
C450 C448 1.381 . S
C450 C451 1.394 . S
C450 H458 0.930 . S
C451 C450 1.394 . S
C451 C452 1.383 . S
C451 H459 0.929 . S
C452 C451 1.383 . S
C452 C453 1.377 . S
C453 H437 0.930 . S
C453 C452 1.377 . S
C453 C454 1.379 . S
C454 H438 0.931 . S
C454 C448 1.383 . S
C454 C453 1.379 . S
H455 C449 0.959 . S
H456 C449 0.961 . S
H457 C449 0.960 . S
H458 C450 0.930 . S
H459 C451 0.929 . S
H460 C468 0.929 . S
H461 C470 0.930 . S
H462 C472 0.930 . S
H463 C475 0.929 . S
H464 C478 0.930 . S
H465 C480 0.960 . S
H466 C480 0.960 . S
H467 C480 0.960 . S
C468 H460 0.929 . S
C468 C469 1.377 . S
C468 C470 1.384 . S
C469 C468 1.377 . S
C469 C475 1.390 . S
C470 H461 0.930 . S
C470 C468 1.384 . S
C470 C471 1.372 . S
C471 C470 1.372 . S
C471 C472 1.400 . S
C471 C476 1.490 . S
C472 H462 0.930 . S
C472 C471 1.400 . S
C472 C475 1.386 . S
H473 C489 0.930 . S
H474 C490 0.931 . S
C475 H463 0.929 . S
C475 C469 1.390 . S
C475 C472 1.386 . S
C476 C471 1.490 . S
C476 C478 1.395 . S
C476 C479 1.403 . S
H477 C483 0.930 . S
C478 H464 0.930 . S
C478 C476 1.395 . S
C478 C481 1.403 . S
C479 C476 1.403 . S
C479 C480 1.524 . S
C479 C483 1.400 . S
C480 H465 0.960 . S
C480 H466 0.960 . S
C480 H467 0.960 . S
C480 C479 1.524 . S
C481 C478 1.403 . S
C481 C482 1.392 . S
C481 C485 1.495 . S
C482 C481 1.392 . S
C482 C483 1.385 . S
C482 C484 1.478 . S
C483 H477 0.930 . S
C483 C479 1.400 . S
C483 C482 1.385 . S
C484 C482 1.478 . S
C484 C486 1.381 . S
C484 C490 1.383 . S
C485 C481 1.495 . S
C485 H491 0.959 . S
C485 H492 0.961 . S
C485 H493 0.960 . S
C486 C484 1.381 . S
C486 C487 1.394 . S
C486 H494 0.930 . S
C487 C486 1.394 . S
C487 C488 1.383 . S
C487 H495 0.929 . S
C488 C487 1.383 . S
C488 C489 1.377 . S
C489 H473 0.930 . S
C489 C488 1.377 . S
C489 C490 1.379 . S
C490 H474 0.931 . S
C490 C484 1.383 . S
C490 C489 1.379 . S
H491 C485 0.959 . S
H492 C485 0.961 . S
H493 C485 0.960 . S
H494 C486 0.930 . S
H495 C487 0.929 . S
H496 C504 0.929 . S
H497 C506 0.930 . S
H498 C508 0.930 . S
H499 C511 0.929 . S
H500 C514 0.933 . S
H501 C516 0.960 . S
H502 C516 0.960 . S
H503 C516 0.960 . S
C504 H496 0.929 . S
C504 C505 1.377 . S
C504 C506 1.384 . S
C505 C504 1.377 . S
C505 C511 1.390 . S
C506 H497 0.930 . S
C506 C504 1.384 . S
C506 C507 1.372 . S
C507 C506 1.372 . S
C507 C508 1.400 . S
C507 C512 1.490 . S
C508 H498 0.930 . S
C508 C507 1.400 . S
C508 C511 1.386 . S
H509 C525 0.930 . S
H510 C526 0.931 . S
C511 H499 0.929 . S
C511 C505 1.390 . S
C511 C508 1.386 . S
C512 C507 1.490 . S
C512 C514 1.414 . S
C512 C515 1.403 . S
H513 C519 0.930 . S
C514 H500 0.933 . S
C514 C512 1.414 . S
C514 C517 1.382 1_556 S
C515 C512 1.403 . S
C515 C516 1.524 . S
C515 C519 1.400 1_556 S
C516 H501 0.960 . S
C516 H502 0.960 . S
C516 H503 0.960 . S
C516 C515 1.524 . S
C517 C514 1.382 1_554 S
C517 C518 1.392 . S
C517 C521 1.495 . S
C518 C517 1.392 . S
C518 C519 1.385 . S
C518 C520 1.478 . S
C519 H513 0.930 . S
C519 C515 1.400 1_554 S
C519 C518 1.385 . S
C520 C518 1.478 . S
C520 C522 1.381 . S
C520 C526 1.383 . S
C521 C517 1.495 . S
C521 H527 0.959 . S
C521 H528 0.961 . S
C521 H529 0.960 . S
C522 C520 1.381 . S
C522 C523 1.394 . S
C522 H530 0.930 . S
C523 C522 1.394 . S
C523 C524 1.383 . S
C523 H531 0.929 . S
C524 C523 1.383 . S
C524 C525 1.377 . S
C525 H509 0.930 . S
C525 C524 1.377 . S
C525 C526 1.379 . S
C526 H510 0.931 . S
C526 C520 1.383 . S
C526 C525 1.379 . S
H527 C521 0.959 . S
H528 C521 0.961 . S
H529 C521 0.960 . S
H530 C522 0.930 . S
H531 C523 0.929 . S
H532 C540 0.929 . S
H533 C542 0.930 . S
H534 C544 0.930 . S
H535 C547 0.929 . S
H536 C550 0.930 . S
H537 C552 0.960 . S
H538 C552 0.960 . S
H539 C552 0.960 . S
C540 H532 0.929 . S
C540 C541 1.377 . S
C540 C542 1.384 . S
C541 C540 1.377 . S
C541 C547 1.390 . S
C542 H533 0.930 . S
C542 C540 1.384 . S
C542 C543 1.372 . S
C543 C542 1.372 . S
C543 C544 1.400 . S
C543 C548 1.490 . S
C544 H534 0.930 . S
C544 C543 1.400 . S
C544 C547 1.386 . S
H545 C561 0.930 . S
H546 C562 0.931 . S
C547 H535 0.929 . S
C547 C541 1.390 . S
C547 C544 1.386 . S
C548 C543 1.490 . S
C548 C550 1.395 . S
C548 C551 1.403 . S
H549 C555 0.930 . S
C550 H536 0.930 . S
C550 C548 1.395 . S
C550 C553 1.403 . S
C551 C548 1.403 . S
C551 C552 1.524 . S
C551 C555 1.400 . S
C552 H537 0.960 . S
C552 H538 0.960 . S
C552 H539 0.960 . S
C552 C551 1.524 . S
C553 C550 1.403 . S
C553 C554 1.392 . S
C553 C557 1.495 . S
C554 C553 1.392 . S
C554 C555 1.385 . S
C554 C556 1.478 . S
C555 H549 0.930 . S
C555 C551 1.400 . S
C555 C554 1.385 . S
C556 C554 1.478 . S
C556 C558 1.381 . S
C556 C562 1.383 . S
C557 C553 1.495 . S
C557 H563 0.959 . S
C557 H564 0.961 . S
C557 H565 0.960 . S
C558 C556 1.381 . S
C558 C559 1.394 . S
C558 H566 0.930 . S
C559 C558 1.394 . S
C559 C560 1.383 . S
C559 H567 0.929 . S
C560 C559 1.383 . S
C560 C561 1.377 . S
C561 H545 0.930 . S
C561 C560 1.377 . S
C561 C562 1.379 . S
C562 H546 0.931 . S
C562 C556 1.383 . S
C562 C561 1.379 . S
H563 C557 0.959 . S
H564 C557 0.961 . S
H565 C557 0.960 . S
H566 C558 0.930 . S
H567 C559 0.929 . S
H568 C576 0.929 . S
H569 C578 0.930 . S
H570 C580 0.930 . S
H571 C583 0.929 . S
H572 C586 0.930 . S
H573 C588 0.960 . S
H574 C588 0.960 . S
H575 C588 0.960 . S
C576 H568 0.929 . S
C576 C577 1.377 . S
C576 C578 1.384 . S
C577 C576 1.377 . S
C577 C583 1.390 . S
C578 H569 0.930 . S
C578 C576 1.384 . S
C578 C579 1.372 . S
C579 C578 1.372 . S
C579 C580 1.400 . S
C579 C584 1.490 . S
C580 H570 0.930 . S
C580 C579 1.400 . S
C580 C583 1.386 . S
H581 C597 0.930 . S
H582 C598 0.931 . S
C583 H571 0.929 . S
C583 C577 1.390 . S
C583 C580 1.386 . S
C584 C579 1.490 . S
C584 C586 1.395 . S
C584 C587 1.403 . S
H585 C591 0.930 . S
C586 H572 0.930 . S
C586 C584 1.395 . S
C586 C589 1.403 1_554 S
C587 C584 1.403 . S
C587 C588 1.524 . S
C587 C591 1.400 1_554 S
C588 H573 0.960 . S
C588 H574 0.960 . S
C588 H575 0.960 . S
C588 C587 1.524 . S
C589 C586 1.403 1_556 S
C589 C590 1.392 . S
C589 C593 1.495 . S
C590 C589 1.392 . S
C590 C591 1.385 . S
C590 C592 1.478 . S
C591 H585 0.930 . S
C591 C587 1.400 1_556 S
C591 C590 1.385 . S
C592 C590 1.478 . S
C592 C594 1.381 . S
C592 C598 1.383 . S
C593 C589 1.495 . S
C593 H599 0.959 . S
C593 H600 0.961 . S
C593 H601 0.960 . S
C594 C592 1.381 . S
C594 C595 1.394 . S
C594 H602 0.930 . S
C595 C594 1.394 . S
C595 C596 1.383 . S
C595 H603 0.929 . S
C596 C595 1.383 . S
C596 C597 1.377 . S
C597 H581 0.930 . S
C597 C596 1.377 . S
C597 C598 1.379 . S
C598 H582 0.931 . S
C598 C592 1.383 . S
C598 C597 1.379 . S
H599 C593 0.959 . S
H600 C593 0.961 . S
H601 C593 0.960 . S
H602 C594 0.930 . S
H603 C595 0.929 . S
H604 C612 0.929 . S
H605 C614 0.930 . S
H606 C616 0.930 . S
H607 C619 0.929 . S
H608 C622 0.930 . S
H609 C624 0.960 . S
H610 C624 0.960 . S
H611 C624 0.960 . S
C612 H604 0.929 . S
C612 C613 1.377 . S
C612 C614 1.384 . S
C613 C612 1.377 . S
C613 C619 1.390 . S
C614 H605 0.930 . S
C614 C612 1.384 . S
C614 C615 1.372 . S
C615 C614 1.372 . S
C615 C616 1.400 . S
C615 C620 1.490 . S
C616 H606 0.930 . S
C616 C615 1.400 . S
C616 C619 1.386 . S
H617 C633 0.930 . S
H618 C634 0.931 . S
C619 H607 0.929 . S
C619 C613 1.390 . S
C619 C616 1.386 . S
C620 C615 1.490 . S
C620 C622 1.395 . S
C620 C623 1.403 . S
H621 C627 0.930 . S
C622 H608 0.930 . S
C622 C620 1.395 . S
C622 C625 1.403 . S
C623 C620 1.403 . S
C623 C624 1.524 . S
C623 C627 1.400 . S
C624 H609 0.960 . S
C624 H610 0.960 . S
C624 H611 0.960 . S
C624 C623 1.524 . S
C625 C622 1.403 . S
C625 C626 1.392 . S
C625 C629 1.495 . S
C626 C625 1.392 . S
C626 C627 1.385 . S
C626 C628 1.478 . S
C627 H621 0.930 . S
C627 C623 1.400 . S
C627 C626 1.385 . S
C628 C626 1.478 . S
C628 C630 1.381 . S
C628 C634 1.383 . S
C629 C625 1.495 . S
C629 H635 0.959 . S
C629 H636 0.961 . S
C629 H637 0.960 . S
C630 C628 1.381 . S
C630 C631 1.394 . S
C630 H638 0.930 . S
C631 C630 1.394 . S
C631 C632 1.383 . S
C631 H639 0.929 . S
C632 C631 1.383 . S
C632 C633 1.377 . S
C633 H617 0.930 . S
C633 C632 1.377 . S
C633 C634 1.379 . S
C634 H618 0.931 . S
C634 C628 1.383 . S
C634 C633 1.379 . S
H635 C629 0.959 . S
H636 C629 0.961 . S
H637 C629 0.960 . S
H638 C630 0.930 . S
H639 C631 0.929 . S
H640 C648 0.929 . S
H641 C650 0.930 . S
H642 C652 0.930 . S
H643 C655 0.929 . S
H644 C658 0.930 . S
H645 C660 0.960 1_545 S
H646 C660 0.960 . S
H647 C660 0.960 1_545 S
C648 H640 0.929 . S
C648 C649 1.377 . S
C648 C650 1.384 . S
C649 C648 1.377 . S
C649 C655 1.390 . S
C650 H641 0.930 . S
C650 C648 1.384 . S
C650 C651 1.372 . S
C651 C650 1.372 . S
C651 C652 1.400 . S
C651 C656 1.490 . S
C652 H642 0.930 . S
C652 C651 1.400 . S
C652 C655 1.386 . S
H653 C669 0.930 . S
H654 C670 0.931 . S
C655 H643 0.929 . S
C655 C649 1.390 . S
C655 C652 1.386 . S
C656 C651 1.490 . S
C656 C658 1.395 . S
C656 C659 1.403 . S
H657 C663 0.930 . S
C658 H644 0.930 . S
C658 C656 1.395 . S
C658 C661 1.412 1_556 S
C659 C656 1.403 . S
C659 C660 1.524 . S
C659 C663 1.400 1_566 S
C660 H645 0.960 1_565 S
C660 H646 0.960 . S
C660 H647 0.960 1_565 S
C660 C659 1.524 . S
C661 C658 1.412 1_554 S
C661 C662 1.385 1_565 S
C661 C665 1.495 1_565 S
C662 C661 1.385 1_545 S
C662 C663 1.385 . S
C662 C664 1.478 . S
C663 H657 0.930 . S
C663 C659 1.400 1_544 S
C663 C662 1.385 . S
C664 C662 1.478 . S
C664 C666 1.381 . S
C664 C670 1.383 . S
C665 C661 1.495 1_545 S
C665 H671 0.947 1_545 S
C665 H672 0.980 . S
C665 H673 0.954 1_545 S
C666 C664 1.381 . S
C666 C667 1.394 . S
C666 H674 0.930 . S
C667 C666 1.394 . S
C667 C668 1.383 . S
C667 H675 0.929 . S
C668 C667 1.383 . S
C668 C669 1.377 . S
C669 H653 0.930 . S
C669 C668 1.377 . S
C669 C670 1.379 . S
C670 H654 0.931 . S
C670 C664 1.383 . S
C670 C669 1.379 . S
H671 C665 0.947 1_565 S
H672 C665 0.980 . S
H673 C665 0.954 1_565 S
H674 C666 0.930 . S
H675 C667 0.929 . S
H676 C684 0.929 . S
H677 C686 0.930 . S
H678 C688 0.930 . S
H679 C691 0.929 . S
H680 C694 0.930 . S
H681 C696 0.960 . S
H682 C696 0.960 . S
H683 C696 0.960 . S
C684 H676 0.929 . S
C684 C685 1.377 . S
C684 C686 1.384 . S
C685 C684 1.377 . S
C685 C691 1.390 . S
C686 H677 0.930 . S
C686 C684 1.384 . S
C686 C687 1.372 . S
C687 C686 1.372 . S
C687 C688 1.400 . S
C687 C692 1.490 . S
C688 H678 0.930 . S
C688 C687 1.400 . S
C688 C691 1.386 . S
H689 C705 0.930 . S
H690 C706 0.931 . S
C691 H679 0.929 . S
C691 C685 1.390 . S
C691 C688 1.386 . S
C692 C687 1.490 . S
C692 C694 1.395 . S
C692 C695 1.403 1_565 S
H693 C699 0.930 . S
C694 H680 0.930 . S
C694 C692 1.395 . S
C694 C697 1.403 . S
C695 C692 1.403 1_545 S
C695 C696 1.524 . S
C695 C699 1.400 . S
C696 H681 0.960 . S
C696 H682 0.960 . S
C696 H683 0.960 . S
C696 C695 1.524 . S
C697 C694 1.403 . S
C697 C698 1.392 1_565 S
C697 C701 1.495 . S
C698 C697 1.392 1_545 S
C698 C699 1.385 . S
C698 C700 1.478 . S
C699 H693 0.930 . S
C699 C695 1.400 . S
C699 C698 1.385 . S
C700 C698 1.478 . S
C700 C702 1.381 . S
C700 C706 1.383 . S
C701 C697 1.495 . S
C701 H707 0.959 . S
C701 H708 0.961 . S
C701 H709 0.960 . S
C702 C700 1.381 . S
C702 C703 1.394 . S
C702 H710 0.930 . S
C703 C702 1.394 . S
C703 C704 1.383 . S
C703 H711 0.929 . S
C704 C703 1.383 . S
C704 C705 1.377 . S
C705 H689 0.930 . S
C705 C704 1.377 . S
C705 C706 1.379 . S
C706 H690 0.931 . S
C706 C700 1.383 . S
C706 C705 1.379 . S
H707 C701 0.959 . S
H708 C701 0.961 . S
H709 C701 0.960 . S
H710 C702 0.930 . S
H711 C703 0.929 . S
H712 C720 0.929 . S
H713 C722 0.930 . S
H714 C724 0.930 . S
H715 C727 0.929 . S
H716 C730 0.930 . S
H717 C732 0.960 . S
H718 C732 0.960 . S
H719 C732 0.960 1_556 S
C720 H712 0.929 . S
C720 C721 1.377 . S
C720 C722 1.384 . S
C721 C720 1.377 . S
C721 C727 1.390 . S
C722 H713 0.930 . S
C722 C720 1.384 . S
C722 C723 1.372 . S
C723 C722 1.372 . S
C723 C724 1.400 . S
C723 C728 1.490 . S
C724 H714 0.930 . S
C724 C723 1.400 . S
C724 C727 1.386 . S
H725 C741 0.930 . S
H726 C742 0.931 . S
C727 H715 0.929 . S
C727 C721 1.390 . S
C727 C724 1.386 . S
C728 C723 1.490 . S
C728 C730 1.395 1_565 S
C728 C731 1.358 1_556 S
H729 C735 0.930 . S
C730 H716 0.930 . S
C730 C728 1.395 1_545 S
C730 C733 1.403 . S
C731 C728 1.358 1_554 S
C731 C732 1.532 . S
C731 C735 1.440 . S
C732 H717 0.960 . S
C732 H718 0.960 . S
C732 H719 0.960 1_554 S
C732 C731 1.532 . S
C733 C730 1.403 . S
C733 C734 1.392 1_556 S
C733 C737 1.495 . S
C734 C733 1.392 1_554 S
C734 C735 1.385 1_545 S
C734 C736 1.478 . S
C735 H729 0.930 . S
C735 C731 1.440 . S
C735 C734 1.385 1_565 S
C736 C734 1.478 . S
C736 C738 1.381 . S
C736 C742 1.383 . S
C737 C733 1.495 . S
C737 H743 0.959 . S
C737 H744 0.961 . S
C737 H745 0.960 1_556 S
C738 C736 1.381 . S
C738 C739 1.394 . S
C738 H746 0.930 . S
C739 C738 1.394 . S
C739 C740 1.383 . S
C739 H747 0.929 . S
C740 C739 1.383 . S
C740 C741 1.377 . S
C741 H725 0.930 . S
C741 C740 1.377 . S
C741 C742 1.379 . S
C742 H726 0.931 . S
C742 C736 1.383 . S
C742 C741 1.379 . S
H743 C737 0.959 . S
H744 C737 0.961 . S
H745 C737 0.960 1_554 S
H746 C738 0.930 . S
H747 C739 0.929 . S
H748 C756 0.929 . S
H749 C758 0.930 . S
H750 C760 0.930 . S
H751 C763 0.929 . S
H752 C766 0.930 . S
H753 C768 0.960 . S
H754 C768 0.960 . S
H755 C768 0.960 . S
C756 H748 0.929 . S
C756 C757 1.377 . S
C756 C758 1.384 . S
C757 C756 1.377 . S
C757 C763 1.390 . S
C758 H749 0.930 . S
C758 C756 1.384 . S
C758 C759 1.372 . S
C759 C758 1.372 . S
C759 C760 1.400 . S
C759 C764 1.490 . S
C760 H750 0.930 . S
C760 C759 1.400 . S
C760 C763 1.386 . S
H761 C777 0.930 . S
H762 C778 0.931 . S
C763 H751 0.929 . S
C763 C757 1.390 . S
C763 C760 1.386 . S
C764 C759 1.490 . S
C764 C766 1.395 . S
C764 C767 1.403 . S
H765 C771 0.930 . S
C766 H752 0.930 . S
C766 C764 1.395 . S
C766 C769 1.403 1_565 S
C767 C764 1.403 . S
C767 C768 1.524 . S
C767 C771 1.400 1_565 S
C768 H753 0.960 . S
C768 H754 0.960 . S
C768 H755 0.960 . S
C768 C767 1.524 . S
C769 C766 1.403 1_545 S
C769 C770 1.392 . S
C769 C773 1.495 . S
C770 C769 1.392 . S
C770 C771 1.385 . S
C770 C772 1.478 . S
C771 H765 0.930 . S
C771 C767 1.400 1_545 S
C771 C770 1.385 . S
C772 C770 1.478 . S
C772 C774 1.381 . S
C772 C778 1.383 . S
C773 C769 1.495 . S
C773 H779 0.959 . S
C773 H780 0.961 . S
C773 H781 0.960 . S
C774 C772 1.381 . S
C774 C775 1.394 . S
C774 H782 0.930 . S
C775 C774 1.394 . S
C775 C776 1.383 . S
C775 H783 0.929 . S
C776 C775 1.383 . S
C776 C777 1.377 . S
C777 H761 0.930 . S
C777 C776 1.377 . S
C777 C778 1.379 . S
C778 H762 0.931 . S
C778 C772 1.383 . S
C778 C777 1.379 . S
H779 C773 0.959 . S
H780 C773 0.961 . S
H781 C773 0.960 . S
H782 C774 0.930 . S
H783 C775 0.929 . S
H784 C792 0.929 . S
H785 C794 0.930 . S
H786 C796 0.930 . S
H787 C799 0.929 . S
H788 C802 0.930 . S
H789 C804 0.960 . S
H790 C804 0.960 . S
H791 C804 0.960 1_554 S
C792 H784 0.929 . S
C792 C793 1.377 . S
C792 C794 1.384 . S
C793 C792 1.377 . S
C793 C799 1.390 . S
C794 H785 0.930 . S
C794 C792 1.384 . S
C794 C795 1.372 . S
C795 C794 1.372 . S
C795 C796 1.400 . S
C795 C800 1.490 . S
C796 H786 0.930 . S
C796 C795 1.400 . S
C796 C799 1.386 . S
H797 C813 0.930 . S
H798 C814 0.931 . S
C799 H787 0.929 . S
C799 C793 1.390 . S
C799 C796 1.386 . S
C800 C795 1.490 . S
C800 C802 1.395 . S
C800 C803 1.403 1_554 S
H801 C807 0.930 . S
C802 H788 0.930 . S
C802 C800 1.395 . S
C802 C805 1.403 . S
C803 C800 1.403 1_556 S
C803 C804 1.524 . S
C803 C807 1.400 . S
C804 H789 0.960 . S
C804 H790 0.960 . S
C804 H791 0.960 1_556 S
C804 C803 1.524 . S
C805 C802 1.403 . S
C805 C806 1.392 1_554 S
C805 C809 1.495 . S
C806 C805 1.392 1_556 S
C806 C807 1.385 . S
C806 C808 1.478 . S
C807 H801 0.930 . S
C807 C803 1.400 . S
C807 C806 1.385 . S
C808 C806 1.478 . S
C808 C810 1.381 . S
C808 C814 1.383 . S
C809 C805 1.495 . S
C809 H815 0.959 . S
C809 H816 0.961 . S
C809 H817 0.960 1_554 S
C810 C808 1.381 . S
C810 C811 1.394 . S
C810 H818 0.930 . S
C811 C810 1.394 . S
C811 C812 1.383 . S
C811 H819 0.929 . S
C812 C811 1.383 . S
C812 C813 1.377 . S
C813 H797 0.930 . S
C813 C812 1.377 . S
C813 C814 1.379 . S
C814 H798 0.931 . S
C814 C808 1.383 . S
C814 C813 1.379 . S
H815 C809 0.959 . S
H816 C809 0.961 . S
H817 C809 0.960 1_556 S
H818 C810 0.930 . S
H819 C811 0.929 . S
H820 C828 0.929 . S
H821 C830 0.930 . S
H822 C832 0.930 . S
H823 C835 0.929 . S
H824 C838 0.930 . S
H825 C840 0.960 . S
H826 C840 0.960 . S
H827 C840 0.960 . S
C828 H820 0.929 . S
C828 C829 1.377 . S
C828 C830 1.384 . S
C829 C828 1.377 . S
C829 C835 1.390 . S
C830 H821 0.930 . S
C830 C828 1.384 . S
C830 C831 1.372 . S
C831 C830 1.372 . S
C831 C832 1.400 . S
C831 C836 1.490 . S
C832 H822 0.930 . S
C832 C831 1.400 . S
C832 C835 1.386 . S
H833 C849 0.930 . S
H834 C850 0.931 . S
C835 H823 0.929 . S
C835 C829 1.390 . S
C835 C832 1.386 . S
C836 C831 1.490 . S
C836 C838 1.395 . S
C836 C839 1.403 . S
H837 C843 0.930 . S
C838 H824 0.930 . S
C838 C836 1.395 . S
C838 C841 1.403 . S
C839 C836 1.403 . S
C839 C840 1.524 . S
C839 C843 1.400 . S
C840 H825 0.960 . S
C840 H826 0.960 . S
C840 H827 0.960 . S
C840 C839 1.524 . S
C841 C838 1.403 . S
C841 C842 1.392 . S
C841 C845 1.495 . S
C842 C841 1.392 . S
C842 C843 1.385 . S
C842 C844 1.478 . S
C843 H837 0.930 . S
C843 C839 1.400 . S
C843 C842 1.385 . S
C844 C842 1.478 . S
C844 C846 1.381 . S
C844 C850 1.383 . S
C845 C841 1.495 . S
C845 H851 0.959 . S
C845 H852 0.961 . S
C845 H853 0.960 . S
C846 C844 1.381 . S
C846 C847 1.394 . S
C846 H854 0.930 . S
C847 C846 1.394 . S
C847 C848 1.383 . S
C847 H855 0.929 . S
C848 C847 1.383 . S
C848 C849 1.377 . S
C849 H833 0.930 . S
C849 C848 1.377 . S
C849 C850 1.379 . S
C850 H834 0.931 . S
C850 C844 1.383 . S
C850 C849 1.379 . S
H851 C845 0.959 . S
H852 C845 0.961 . S
H853 C845 0.960 . S
H854 C846 0.930 . S
H855 C847 0.929 . S
H856 C864 0.929 . S
H857 C866 0.930 . S
H858 C868 0.930 . S
H859 C871 0.929 . S
H860 C874 0.930 . S
H861 C876 0.960 . S
H862 C876 0.960 . S
H863 C876 0.960 . S
C864 H856 0.929 . S
C864 C865 1.377 . S
C864 C866 1.384 . S
C865 C864 1.377 . S
C865 C871 1.390 . S
C866 H857 0.930 . S
C866 C864 1.384 . S
C866 C867 1.372 . S
C867 C866 1.372 . S
C867 C868 1.400 . S
C867 C872 1.490 . S
C868 H858 0.930 . S
C868 C867 1.400 . S
C868 C871 1.386 . S
H869 C885 0.930 . S
H870 C886 0.931 . S
C871 H859 0.929 . S
C871 C865 1.390 . S
C871 C868 1.386 . S
C872 C867 1.490 . S
C872 C874 1.343 1_554 S
C872 C875 1.403 . S
H873 C879 0.930 . S
C874 H860 0.930 . S
C874 C872 1.343 1_556 S
C874 C877 1.457 . S
C875 C872 1.403 . S
C875 C876 1.524 . S
C875 C879 1.400 1_554 S
C876 H861 0.960 . S
C876 H862 0.960 . S
C876 H863 0.960 . S
C876 C875 1.524 . S
C877 C874 1.457 . S
C877 C878 1.392 . S
C877 C881 1.495 . S
C878 C877 1.392 . S
C878 C879 1.385 . S
C878 C880 1.478 . S
C879 H873 0.930 . S
C879 C875 1.400 1_556 S
C879 C878 1.385 . S
C880 C878 1.478 . S
C880 C882 1.381 . S
C880 C886 1.383 . S
C881 C877 1.495 . S
C881 H887 0.959 . S
C881 H888 0.961 . S
C881 H889 0.960 . S
C882 C880 1.381 . S
C882 C883 1.394 . S
C882 H890 0.930 . S
C883 C882 1.394 . S
C883 C884 1.383 . S
C883 H891 0.929 . S
C884 C883 1.383 . S
C884 C885 1.377 . S
C885 H869 0.930 . S
C885 C884 1.377 . S
C885 C886 1.379 . S
C886 H870 0.931 . S
C886 C880 1.383 . S
C886 C885 1.379 . S
H887 C881 0.959 . S
H888 C881 0.961 . S
H889 C881 0.960 . S
H890 C882 0.930 . S
H891 C883 0.929 . S
H892 C900 0.929 . S
H893 C902 0.930 . S
H894 C904 0.930 . S
H895 C907 0.929 . S
H896 C910 0.930 . S
H897 C912 0.960 . S
H898 C912 0.960 . S
H899 C912 0.960 . S
C900 H892 0.929 . S
C900 C901 1.377 . S
C900 C902 1.384 . S
C901 C900 1.377 . S
C901 C907 1.390 . S
C902 H893 0.930 . S
C902 C900 1.384 . S
C902 C903 1.372 . S
C903 C902 1.372 . S
C903 C904 1.400 . S
C903 C908 1.490 . S
C904 H894 0.930 . S
C904 C903 1.400 . S
C904 C907 1.386 . S
H905 C921 0.930 . S
H906 C922 0.931 . S
C907 H895 0.929 . S
C907 C901 1.390 . S
C907 C904 1.386 . S
C908 C903 1.490 . S
C908 C910 1.395 . S
C908 C911 1.403 . S
H909 C915 0.930 . S
C910 H896 0.930 . S
C910 C908 1.395 . S
C910 C913 1.403 . S
C911 C908 1.403 . S
C911 C912 1.524 . S
C911 C915 1.400 . S
C912 H897 0.960 . S
C912 H898 0.960 . S
C912 H899 0.960 . S
C912 C911 1.524 . S
C913 C910 1.403 . S
C913 C914 1.392 . S
C913 C917 1.495 . S
C914 C913 1.392 . S
C914 C915 1.385 . S
C914 C916 1.478 . S
C915 H909 0.930 . S
C915 C911 1.400 . S
C915 C914 1.385 . S
C916 C914 1.478 . S
C916 C918 1.381 . S
C916 C922 1.383 . S
C917 C913 1.495 . S
C917 H923 0.959 . S
C917 H924 0.961 . S
C917 H925 0.960 . S
C918 C916 1.381 . S
C918 C919 1.394 . S
C918 H926 0.930 . S
C919 C918 1.394 . S
C919 C920 1.383 . S
C919 H927 0.929 . S
C920 C919 1.383 . S
C920 C921 1.377 . S
C921 H905 0.930 . S
C921 C920 1.377 . S
C921 C922 1.379 . S
C922 H906 0.931 . S
C922 C916 1.383 . S
C922 C921 1.379 . S
H923 C917 0.959 . S
H924 C917 0.961 . S
H925 C917 0.960 . S
H926 C918 0.930 . S
H927 C919 0.929 . S
H928 C936 0.929 . S
H929 C938 0.930 . S
H930 C940 0.930 . S
H931 C943 0.929 . S
H932 C946 0.930 . S
H933 C948 0.960 . S
H934 C948 0.960 . S
H935 C948 0.960 . S
C936 H928 0.929 . S
C936 C937 1.377 . S
C936 C938 1.384 . S
C937 C936 1.377 . S
C937 C943 1.390 . S
C938 H929 0.930 . S
C938 C936 1.384 . S
C938 C939 1.372 . S
C939 C938 1.372 . S
C939 C940 1.400 . S
C939 C944 1.490 . S
C940 H930 0.930 . S
C940 C939 1.400 . S
C940 C943 1.386 . S
H941 C957 0.930 . S
H942 C958 0.931 . S
C943 H931 0.929 . S
C943 C937 1.390 . S
C943 C940 1.386 . S
C944 C939 1.490 . S
C944 C946 1.395 . S
C944 C947 1.403 . S
H945 C951 0.930 . S
C946 H932 0.930 . S
C946 C944 1.395 . S
C946 C949 1.403 . S
C947 C944 1.403 . S
C947 C948 1.524 . S
C947 C951 1.400 . S
C948 H933 0.960 . S
C948 H934 0.960 . S
C948 H935 0.960 . S
C948 C947 1.524 . S
C949 C946 1.403 . S
C949 C950 1.392 . S
C949 C953 1.495 . S
C950 C949 1.392 . S
C950 C951 1.385 . S
C950 C952 1.478 . S
C951 H945 0.930 . S
C951 C947 1.400 . S
C951 C950 1.385 . S
C952 C950 1.478 . S
C952 C954 1.381 . S
C952 C958 1.383 . S
C953 C949 1.495 . S
C953 H959 0.959 . S
C953 H960 0.961 . S
C953 H961 0.960 . S
C954 C952 1.381 . S
C954 C955 1.394 . S
C954 H962 0.930 . S
C955 C954 1.394 . S
C955 C956 1.383 . S
C955 H963 0.929 . S
C956 C955 1.383 . S
C956 C957 1.377 . S
C957 H941 0.930 . S
C957 C956 1.377 . S
C957 C958 1.379 . S
C958 H942 0.931 . S
C958 C952 1.383 . S
C958 C957 1.379 . S
H959 C953 0.959 . S
H960 C953 0.961 . S
H961 C953 0.960 . S
H962 C954 0.930 . S
H963 C955 0.929 . S
H964 C972 0.929 . S
H965 C974 0.930 . S
H966 C976 0.930 . S
H967 C979 0.929 . S
H968 C982 0.930 . S
H969 C984 0.960 . S
H970 C984 0.960 . S
H971 C984 0.960 . S
C972 H964 0.929 . S
C972 C973 1.377 . S
C972 C974 1.384 . S
C973 C972 1.377 . S
C973 C979 1.390 . S
C974 H965 0.930 . S
C974 C972 1.384 . S
C974 C975 1.372 . S
C975 C974 1.372 . S
C975 C976 1.400 . S
C975 C980 1.490 . S
C976 H966 0.930 . S
C976 C975 1.400 . S
C976 C979 1.386 . S
H977 C993 0.930 . S
H978 C994 0.931 . S
C979 H967 0.929 . S
C979 C973 1.390 . S
C979 C976 1.386 . S
C980 C975 1.490 . S
C980 C982 1.395 . S
C980 C983 1.403 . S
H981 C987 0.930 . S
C982 H968 0.930 . S
C982 C980 1.395 . S
C982 C985 1.403 . S
C983 C980 1.403 . S
C983 C984 1.524 . S
C983 C987 1.400 . S
C984 H969 0.960 . S
C984 H970 0.960 . S
C984 H971 0.960 . S
C984 C983 1.524 . S
C985 C982 1.403 . S
C985 C986 1.392 . S
C985 C989 1.495 . S
C986 C985 1.392 . S
C986 C987 1.385 . S
C986 C988 1.478 . S
C987 H981 0.930 . S
C987 C983 1.400 . S
C987 C986 1.385 . S
C988 C986 1.478 . S
C988 C990 1.381 . S
C988 C994 1.383 . S
C989 C985 1.495 . S
C989 H995 0.959 . S
C989 H996 0.961 . S
C989 H997 0.960 . S
C990 C988 1.381 . S
C990 C991 1.394 . S
C990 H998 0.930 . S
C991 C990 1.394 . S
C991 C992 1.383 . S
C991 H999 0.929 . S
C992 C991 1.383 . S
C992 C993 1.377 . S
C993 H977 0.930 . S
C993 C992 1.377 . S
C993 C994 1.379 . S
C994 H978 0.931 . S
C994 C988 1.383 . S
C994 C993 1.379 . S
H995 C989 0.959 . S
H996 C989 0.961 . S
H997 C989 0.960 . S
H998 C990 0.930 . S
H999 C991 0.929 . S
H1000 C1008 0.929 . S
H1001 C1010 0.930 . S
H1002 C1012 0.930 . S
H1003 C1015 0.929 . S
H1004 C1018 0.930 . S
H1005 C1020 0.960 . S
H1006 C1020 0.960 . S
H1007 C1020 0.960 . S
C1008 H1000 0.929 . S
C1008 C1009 1.377 . S
C1008 C1010 1.384 . S
C1009 C1008 1.377 . S
C1009 C1015 1.390 . S
C1010 H1001 0.930 . S
C1010 C1008 1.384 . S
C1010 C1011 1.372 . S
C1011 C1010 1.372 . S
C1011 C1012 1.400 . S
C1011 C1016 1.490 . S
C1012 H1002 0.930 . S
C1012 C1011 1.400 . S
C1012 C1015 1.386 . S
H1013 C1029 0.930 . S
H1014 C1030 0.931 . S
C1015 H1003 0.929 . S
C1015 C1009 1.390 . S
C1015 C1012 1.386 . S
C1016 C1011 1.490 . S
C1016 C1018 1.395 . S
C1016 C1019 1.403 . S
H1017 C1023 0.930 . S
C1018 H1004 0.930 . S
C1018 C1016 1.395 . S
C1018 C1021 1.403 . S
C1019 C1016 1.403 . S
C1019 C1020 1.524 . S
C1019 C1023 1.400 . S
C1020 H1005 0.960 . S
C1020 H1006 0.960 . S
C1020 H1007 0.960 . S
C1020 C1019 1.524 . S
C1021 C1018 1.403 . S
C1021 C1022 1.392 . S
C1021 C1025 1.495 . S
C1022 C1021 1.392 . S
C1022 C1023 1.385 . S
C1022 C1024 1.478 . S
C1023 H1017 0.930 . S
C1023 C1019 1.400 . S
C1023 C1022 1.385 . S
C1024 C1022 1.478 . S
C1024 C1026 1.381 . S
C1024 C1030 1.383 . S
C1025 C1021 1.495 . S
C1025 H1031 0.959 . S
C1025 H1032 0.961 . S
C1025 H1033 0.960 . S
C1026 C1024 1.381 . S
C1026 C1027 1.394 . S
C1026 H1034 0.930 . S
C1027 C1026 1.394 . S
C1027 C1028 1.383 . S
C1027 H1035 0.929 . S
C1028 C1027 1.383 . S
C1028 C1029 1.377 . S
C1029 H1013 0.930 . S
C1029 C1028 1.377 . S
C1029 C1030 1.379 . S
C1030 H1014 0.931 . S
C1030 C1024 1.383 . S
C1030 C1029 1.379 . S
H1031 C1025 0.959 . S
H1032 C1025 0.961 . S
H1033 C1025 0.960 . S
H1034 C1026 0.930 . S
H1035 C1027 0.929 . S
H1036 C1044 0.929 . S
H1037 C1046 0.930 . S
H1038 C1048 0.930 . S
H1039 C1051 0.929 . S
H1040 C1054 0.930 . S
H1041 C1056 0.960 . S
H1042 C1056 0.960 . S
H1043 C1056 0.960 . S
C1044 H1036 0.929 . S
C1044 C1045 1.377 . S
C1044 C1046 1.384 . S
C1045 C1044 1.377 . S
C1045 C1051 1.390 . S
C1046 H1037 0.930 . S
C1046 C1044 1.384 . S
C1046 C1047 1.372 . S
C1047 C1046 1.372 . S
C1047 C1048 1.400 . S
C1047 C1052 1.490 . S
C1048 H1038 0.930 . S
C1048 C1047 1.400 . S
C1048 C1051 1.386 . S
H1049 C1065 0.930 . S
H1050 C1066 0.931 . S
C1051 H1039 0.929 . S
C1051 C1045 1.390 . S
C1051 C1048 1.386 . S
C1052 C1047 1.490 . S
C1052 C1054 1.395 . S
C1052 C1055 1.403 . S
H1053 C1059 0.930 . S
C1054 H1040 0.930 . S
C1054 C1052 1.395 . S
C1054 C1057 1.403 . S
C1055 C1052 1.403 . S
C1055 C1056 1.524 . S
C1055 C1059 1.400 . S
C1056 H1041 0.960 . S
C1056 H1042 0.960 . S
C1056 H1043 0.960 . S
C1056 C1055 1.524 . S
C1057 C1054 1.403 . S
C1057 C1058 1.392 . S
C1057 C1061 1.495 . S
C1058 C1057 1.392 . S
C1058 C1059 1.385 . S
C1058 C1060 1.478 . S
C1059 H1053 0.930 . S
C1059 C1055 1.400 . S
C1059 C1058 1.385 . S
C1060 C1058 1.478 . S
C1060 C1062 1.381 . S
C1060 C1066 1.383 . S
C1061 C1057 1.495 . S
C1061 H1067 0.959 . S
C1061 H1068 0.961 . S
C1061 H1069 0.960 . S
C1062 C1060 1.381 . S
C1062 C1063 1.394 . S
C1062 H1070 0.930 . S
C1063 C1062 1.394 . S
C1063 C1064 1.383 . S
C1063 H1071 0.929 . S
C1064 C1063 1.383 . S
C1064 C1065 1.377 . S
C1065 H1049 0.930 . S
C1065 C1064 1.377 . S
C1065 C1066 1.379 . S
C1066 H1050 0.931 . S
C1066 C1060 1.383 . S
C1066 C1065 1.379 . S
H1067 C1061 0.959 . S
H1068 C1061 0.961 . S
H1069 C1061 0.960 . S
H1070 C1062 0.930 . S
H1071 C1063 0.929 . S
H1072 C1080 0.929 . S
H1073 C1082 0.930 . S
H1074 C1084 0.930 . S
H1075 C1087 0.929 . S
H1076 C1090 0.930 . S
H1077 C1092 0.960 . S
H1078 C1092 0.960 . S
H1079 C1092 0.960 . S
C1080 H1072 0.929 . S
C1080 C1081 1.377 . S
C1080 C1082 1.384 . S
C1081 C1080 1.377 . S
C1081 C1087 1.390 . S
C1082 H1073 0.930 . S
C1082 C1080 1.384 . S
C1082 C1083 1.372 . S
C1083 C1082 1.372 . S
C1083 C1084 1.400 . S
C1083 C1088 1.490 . S
C1084 H1074 0.930 . S
C1084 C1083 1.400 . S
C1084 C1087 1.386 . S
H1085 C1101 0.930 . S
H1086 C1102 0.931 . S
C1087 H1075 0.929 . S
C1087 C1081 1.390 . S
C1087 C1084 1.386 . S
C1088 C1083 1.490 . S
C1088 C1090 1.395 . S
C1088 C1091 1.403 . S
H1089 C1095 0.930 . S
C1090 H1076 0.930 . S
C1090 C1088 1.395 . S
C1090 C1093 1.403 . S
C1091 C1088 1.403 . S
C1091 C1092 1.524 . S
C1091 C1095 1.400 . S
C1092 H1077 0.960 . S
C1092 H1078 0.960 . S
C1092 H1079 0.960 . S
C1092 C1091 1.524 . S
C1093 C1090 1.403 . S
C1093 C1094 1.392 . S
C1093 C1097 1.495 . S
C1094 C1093 1.392 . S
C1094 C1095 1.385 . S
C1094 C1096 1.478 . S
C1095 H1089 0.930 . S
C1095 C1091 1.400 . S
C1095 C1094 1.385 . S
C1096 C1094 1.478 . S
C1096 C1098 1.381 . S
C1096 C1102 1.383 . S
C1097 C1093 1.495 . S
C1097 H1103 0.959 . S
C1097 H1104 0.961 . S
C1097 H1105 0.960 . S
C1098 C1096 1.381 . S
C1098 C1099 1.394 . S
C1098 H1106 0.930 . S
C1099 C1098 1.394 . S
C1099 C1100 1.383 . S
C1099 H1107 0.929 . S
C1100 C1099 1.383 . S
C1100 C1101 1.377 . S
C1101 H1085 0.930 . S
C1101 C1100 1.377 . S
C1101 C1102 1.379 . S
C1102 H1086 0.931 . S
C1102 C1096 1.383 . S
C1102 C1101 1.379 . S
H1103 C1097 0.959 . S
H1104 C1097 0.961 . S
H1105 C1097 0.960 . S
H1106 C1098 0.930 . S
H1107 C1099 0.929 . S
H1108 C1116 0.929 . S
H1109 C1118 0.930 . S
H1110 C1120 0.930 . S
H1111 C1123 0.929 . S
H1112 C1126 0.930 . S
H1113 C1128 0.960 . S
H1114 C1128 0.960 . S
H1115 C1128 0.960 . S
C1116 H1108 0.929 . S
C1116 C1117 1.377 . S
C1116 C1118 1.384 . S
C1117 C1116 1.377 . S
C1117 C1123 1.390 . S
C1118 H1109 0.930 . S
C1118 C1116 1.384 . S
C1118 C1119 1.372 . S
C1119 C1118 1.372 . S
C1119 C1120 1.400 . S
C1119 C1124 1.490 . S
C1120 H1110 0.930 . S
C1120 C1119 1.400 . S
C1120 C1123 1.386 . S
H1121 C1137 0.930 . S
H1122 C1138 0.931 . S
C1123 H1111 0.929 . S
C1123 C1117 1.390 . S
C1123 C1120 1.386 . S
C1124 C1119 1.490 . S
C1124 C1126 1.395 . S
C1124 C1127 1.403 . S
H1125 C1131 0.930 . S
C1126 H1112 0.930 . S
C1126 C1124 1.395 . S
C1126 C1129 1.403 . S
C1127 C1124 1.403 . S
C1127 C1128 1.524 . S
C1127 C1131 1.400 . S
C1128 H1113 0.960 . S
C1128 H1114 0.960 . S
C1128 H1115 0.960 . S
C1128 C1127 1.524 . S
C1129 C1126 1.403 . S
C1129 C1130 1.392 . S
C1129 C1133 1.495 . S
C1130 C1129 1.392 . S
C1130 C1131 1.385 . S
C1130 C1132 1.478 . S
C1131 H1125 0.930 . S
C1131 C1127 1.400 . S
C1131 C1130 1.385 . S
C1132 C1130 1.478 . S
C1132 C1134 1.381 . S
C1132 C1138 1.383 . S
C1133 C1129 1.495 . S
C1133 H1139 0.959 . S
C1133 H1140 0.961 . S
C1133 H1141 0.960 . S
C1134 C1132 1.381 . S
C1134 C1135 1.394 . S
C1134 H1142 0.930 . S
C1135 C1134 1.394 . S
C1135 C1136 1.383 . S
C1135 H1143 0.929 . S
C1136 C1135 1.383 . S
C1136 C1137 1.377 . S
C1137 H1121 0.930 . S
C1137 C1136 1.377 . S
C1137 C1138 1.379 . S
C1138 H1122 0.931 . S
C1138 C1132 1.383 . S
C1138 C1137 1.379 . S
H1139 C1133 0.959 . S
H1140 C1133 0.961 . S
H1141 C1133 0.960 . S
H1142 C1134 0.930 . S
H1143 C1135 0.929 . S
H1144 C1152 0.929 . S
H1145 C1154 0.930 . S
H1146 C1156 0.930 . S
H1147 C1159 0.929 . S
H1148 C1162 0.930 . S
H1149 C1164 0.960 . S
H1150 C1164 0.960 . S
H1151 C1164 0.960 . S
C1152 H1144 0.929 . S
C1152 C1153 1.377 . S
C1152 C1154 1.384 . S
C1153 C1152 1.377 . S
C1153 C1159 1.390 . S
C1154 H1145 0.930 . S
C1154 C1152 1.384 . S
C1154 C1155 1.372 . S
C1155 C1154 1.372 . S
C1155 C1156 1.400 . S
C1155 C1160 1.490 . S
C1156 H1146 0.930 . S
C1156 C1155 1.400 . S
C1156 C1159 1.386 . S
H1157 C1173 0.930 . S
H1158 C1174 0.931 . S
C1159 H1147 0.929 . S
C1159 C1153 1.390 . S
C1159 C1156 1.386 . S
C1160 C1155 1.490 . S
C1160 C1162 1.395 . S
C1160 C1163 1.403 . S
H1161 C1167 0.930 . S
C1162 H1148 0.930 . S
C1162 C1160 1.395 . S
C1162 C1165 1.403 . S
C1163 C1160 1.403 . S
C1163 C1164 1.524 . S
C1163 C1167 1.400 . S
C1164 H1149 0.960 . S
C1164 H1150 0.960 . S
C1164 H1151 0.960 . S
C1164 C1163 1.524 . S
C1165 C1162 1.403 . S
C1165 C1166 1.392 . S
C1165 C1169 1.495 . S
C1166 C1165 1.392 . S
C1166 C1167 1.385 . S
C1166 C1168 1.478 . S
C1167 H1161 0.930 . S
C1167 C1163 1.400 . S
C1167 C1166 1.385 . S
C1168 C1166 1.478 . S
C1168 C1170 1.381 . S
C1168 C1174 1.383 . S
C1169 C1165 1.495 . S
C1169 H1175 0.959 . S
C1169 H1176 0.961 . S
C1169 H1177 0.960 . S
C1170 C1168 1.381 . S
C1170 C1171 1.394 . S
C1170 H1178 0.930 . S
C1171 C1170 1.394 . S
C1171 C1172 1.383 . S
C1171 H1179 0.929 . S
C1172 C1171 1.383 . S
C1172 C1173 1.377 . S
C1173 H1157 0.930 . S
C1173 C1172 1.377 . S
C1173 C1174 1.379 . S
C1174 H1158 0.931 . S
C1174 C1168 1.383 . S
C1174 C1173 1.379 . S
H1175 C1169 0.959 . S
H1176 C1169 0.961 . S
H1177 C1169 0.960 . S
H1178 C1170 0.930 . S
H1179 C1171 0.929 . S
H1180 C1188 0.929 . S
H1181 C1190 0.930 . S
H1182 C1192 0.930 . S
H1183 C1195 0.929 . S
H1184 C1198 0.930 . S
H1185 C1200 0.960 . S
H1186 C1200 0.960 . S
H1187 C1200 0.960 . S
C1188 H1180 0.929 . S
C1188 C1189 1.377 . S
C1188 C1190 1.384 . S
C1189 C1188 1.377 . S
C1189 C1195 1.390 . S
C1190 H1181 0.930 . S
C1190 C1188 1.384 . S
C1190 C1191 1.372 . S
C1191 C1190 1.372 . S
C1191 C1192 1.400 . S
C1191 C1196 1.490 . S
C1192 H1182 0.930 . S
C1192 C1191 1.400 . S
C1192 C1195 1.386 . S
H1193 C1209 0.930 . S
H1194 C1210 0.931 . S
C1195 H1183 0.929 . S
C1195 C1189 1.390 . S
C1195 C1192 1.386 . S
C1196 C1191 1.490 . S
C1196 C1198 1.395 . S
C1196 C1199 1.403 . S
H1197 C1203 0.930 . S
C1198 H1184 0.930 . S
C1198 C1196 1.395 . S
C1198 C1201 1.403 . S
C1199 C1196 1.403 . S
C1199 C1200 1.524 . S
C1199 C1203 1.400 . S
C1200 H1185 0.960 . S
C1200 H1186 0.960 . S
C1200 H1187 0.960 . S
C1200 C1199 1.524 . S
C1201 C1198 1.403 . S
C1201 C1202 1.392 . S
C1201 C1205 1.495 . S
C1202 C1201 1.392 . S
C1202 C1203 1.385 . S
C1202 C1204 1.478 . S
C1203 H1197 0.930 . S
C1203 C1199 1.400 . S
C1203 C1202 1.385 . S
C1204 C1202 1.478 . S
C1204 C1206 1.381 . S
C1204 C1210 1.383 . S
C1205 C1201 1.495 . S
C1205 H1211 0.959 . S
C1205 H1212 0.961 . S
C1205 H1213 0.960 . S
C1206 C1204 1.381 . S
C1206 C1207 1.394 . S
C1206 H1214 0.930 . S
C1207 C1206 1.394 . S
C1207 C1208 1.383 . S
C1207 H1215 0.929 . S
C1208 C1207 1.383 . S
C1208 C1209 1.377 . S
C1209 H1193 0.930 . S
C1209 C1208 1.377 . S
C1209 C1210 1.379 . S
C1210 H1194 0.931 . S
C1210 C1204 1.383 . S
C1210 C1209 1.379 . S
H1211 C1205 0.959 . S
H1212 C1205 0.961 . S
H1213 C1205 0.960 . S
H1214 C1206 0.930 . S
H1215 C1207 0.929 . S
H1216 C1224 0.929 . S
H1217 C1226 0.930 . S
H1218 C1228 0.930 . S
H1219 C1231 0.929 . S
H1220 C1234 0.930 . S
H1221 C1236 0.960 . S
H1222 C1236 0.960 . S
H1223 C1236 0.960 . S
C1224 H1216 0.929 . S
C1224 C1225 1.377 . S
C1224 C1226 1.384 . S
C1225 C1224 1.377 . S
C1225 C1231 1.390 . S
C1226 H1217 0.930 . S
C1226 C1224 1.384 . S
C1226 C1227 1.372 . S
C1227 C1226 1.372 . S
C1227 C1228 1.400 . S
C1227 C1232 1.490 . S
C1228 H1218 0.930 . S
C1228 C1227 1.400 . S
C1228 C1231 1.386 . S
H1229 C1245 0.930 . S
H1230 C1246 0.931 . S
C1231 H1219 0.929 . S
C1231 C1225 1.390 . S
C1231 C1228 1.386 . S
C1232 C1227 1.490 . S
C1232 C1234 1.395 . S
C1232 C1235 1.403 . S
H1233 C1239 0.930 . S
C1234 H1220 0.930 . S
C1234 C1232 1.395 . S
C1234 C1237 1.403 . S
C1235 C1232 1.403 . S
C1235 C1236 1.524 . S
C1235 C1239 1.400 . S
C1236 H1221 0.960 . S
C1236 H1222 0.960 . S
C1236 H1223 0.960 . S
C1236 C1235 1.524 . S
C1237 C1234 1.403 . S
C1237 C1238 1.392 . S
C1237 C1241 1.495 . S
C1238 C1237 1.392 . S
C1238 C1239 1.385 . S
C1238 C1240 1.478 . S
C1239 H1233 0.930 . S
C1239 C1235 1.400 . S
C1239 C1238 1.385 . S
C1240 C1238 1.478 . S
C1240 C1242 1.381 . S
C1240 C1246 1.383 . S
C1241 C1237 1.495 . S
C1241 H1247 0.959 . S
C1241 H1248 0.961 . S
C1241 H1249 0.960 . S
C1242 C1240 1.381 . S
C1242 C1243 1.394 . S
C1242 H1250 0.930 . S
C1243 C1242 1.394 . S
C1243 C1244 1.383 . S
C1243 H1251 0.929 . S
C1244 C1243 1.383 . S
C1244 C1245 1.377 . S
C1245 H1229 0.930 . S
C1245 C1244 1.377 . S
C1245 C1246 1.379 . S
C1246 H1230 0.931 . S
C1246 C1240 1.383 . S
C1246 C1245 1.379 . S
H1247 C1241 0.959 . S
H1248 C1241 0.961 . S
H1249 C1241 0.960 . S
H1250 C1242 0.930 . S
H1251 C1243 0.929 . S
H1252 C1260 0.929 . S
H1253 C1262 0.930 . S
H1254 C1264 0.930 . S
H1255 C1267 0.929 . S
H1256 C1270 0.930 . S
H1257 C1272 0.960 . S
H1258 C1272 0.960 . S
H1259 C1272 0.960 . S
C1260 H1252 0.929 . S
C1260 C1261 1.377 . S
C1260 C1262 1.384 . S
C1261 C1260 1.377 . S
C1261 C1267 1.390 . S
C1262 H1253 0.930 . S
C1262 C1260 1.384 . S
C1262 C1263 1.372 . S
C1263 C1262 1.372 . S
C1263 C1264 1.400 . S
C1263 C1268 1.490 . S
C1264 H1254 0.930 . S
C1264 C1263 1.400 . S
C1264 C1267 1.386 . S
H1265 C1281 0.930 . S
H1266 C1282 0.931 . S
C1267 H1255 0.929 . S
C1267 C1261 1.390 . S
C1267 C1264 1.386 . S
C1268 C1263 1.490 . S
C1268 C1270 1.395 . S
C1268 C1271 1.403 . S
H1269 C1275 0.930 . S
C1270 H1256 0.930 . S
C1270 C1268 1.395 . S
C1270 C1273 1.403 1_455 S
C1271 C1268 1.403 . S
C1271 C1272 1.524 . S
C1271 C1275 1.400 1_455 S
C1272 H1257 0.960 . S
C1272 H1258 0.960 . S
C1272 H1259 0.960 . S
C1272 C1271 1.524 . S
C1273 C1270 1.403 1_655 S
C1273 C1274 1.392 . S
C1273 C1277 1.495 . S
C1274 C1273 1.392 . S
C1274 C1275 1.385 . S
C1274 C1276 1.478 . S
C1275 H1269 0.930 . S
C1275 C1271 1.400 1_655 S
C1275 C1274 1.385 . S
C1276 C1274 1.478 . S
C1276 C1278 1.381 . S
C1276 C1282 1.383 . S
C1277 C1273 1.495 . S
C1277 H1283 0.959 . S
C1277 H1284 0.961 . S
C1277 H1285 0.960 . S
C1278 C1276 1.381 . S
C1278 C1279 1.394 . S
C1278 H1286 0.930 . S
C1279 C1278 1.394 . S
C1279 C1280 1.383 . S
C1279 H1287 0.929 . S
C1280 C1279 1.383 . S
C1280 C1281 1.377 . S
C1281 H1265 0.930 . S
C1281 C1280 1.377 . S
C1281 C1282 1.379 . S
C1282 H1266 0.931 . S
C1282 C1276 1.383 . S
C1282 C1281 1.379 . S
H1283 C1277 0.959 . S
H1284 C1277 0.961 . S
H1285 C1277 0.960 . S
H1286 C1278 0.930 . S
H1287 C1279 0.929 . S
H1288 C1296 0.929 . S
H1289 C1298 0.930 . S
H1290 C1300 0.930 . S
H1291 C1303 0.929 . S
H1292 C1306 0.930 . S
H1293 C1308 0.960 . S
H1294 C1308 0.960 . S
H1295 C1308 0.960 . S
C1296 H1288 0.929 . S
C1296 C1297 1.377 . S
C1296 C1298 1.384 . S
C1297 C1296 1.377 . S
C1297 C1303 1.390 . S
C1298 H1289 0.930 . S
C1298 C1296 1.384 . S
C1298 C1299 1.372 . S
C1299 C1298 1.372 . S
C1299 C1300 1.400 . S
C1299 C1304 1.490 . S
C1300 H1290 0.930 . S
C1300 C1299 1.400 . S
C1300 C1303 1.386 . S
H1301 C1317 0.930 . S
H1302 C1318 0.931 . S
C1303 H1291 0.929 . S
C1303 C1297 1.390 . S
C1303 C1300 1.386 . S
C1304 C1299 1.490 . S
C1304 C1306 1.395 . S
C1304 C1307 1.403 . S
H1305 C1311 0.930 . S
C1306 H1292 0.930 . S
C1306 C1304 1.395 . S
C1306 C1309 1.403 . S
C1307 C1304 1.403 . S
C1307 C1308 1.524 . S
C1307 C1311 1.400 . S
C1308 H1293 0.960 . S
C1308 H1294 0.960 . S
C1308 H1295 0.960 . S
C1308 C1307 1.524 . S
C1309 C1306 1.403 . S
C1309 C1310 1.392 . S
C1309 C1313 1.495 . S
C1310 C1309 1.392 . S
C1310 C1311 1.385 . S
C1310 C1312 1.478 . S
C1311 H1305 0.930 . S
C1311 C1307 1.400 . S
C1311 C1310 1.385 . S
C1312 C1310 1.478 . S
C1312 C1314 1.381 . S
C1312 C1318 1.383 . S
C1313 C1309 1.495 . S
C1313 H1319 0.959 . S
C1313 H1320 0.961 . S
C1313 H1321 0.960 . S
C1314 C1312 1.381 . S
C1314 C1315 1.394 . S
C1314 H1322 0.930 . S
C1315 C1314 1.394 . S
C1315 C1316 1.383 . S
C1315 H1323 0.929 . S
C1316 C1315 1.383 . S
C1316 C1317 1.377 . S
C1317 H1301 0.930 . S
C1317 C1316 1.377 . S
C1317 C1318 1.379 . S
C1318 H1302 0.931 . S
C1318 C1312 1.383 . S
C1318 C1317 1.379 . S
H1319 C1313 0.959 . S
H1320 C1313 0.961 . S
H1321 C1313 0.960 . S
H1322 C1314 0.930 . S
H1323 C1315 0.929 . S
H1324 C1332 0.929 . S
H1325 C1334 0.930 . S
H1326 C1336 0.930 . S
H1327 C1339 0.929 . S
H1328 C1342 0.930 . S
H1329 C1344 0.960 . S
H1330 C1344 0.960 . S
H1331 C1344 0.960 . S
C1332 H1324 0.929 . S
C1332 C1333 1.377 . S
C1332 C1334 1.384 . S
C1333 C1332 1.377 . S
C1333 C1339 1.390 . S
C1334 H1325 0.930 . S
C1334 C1332 1.384 . S
C1334 C1335 1.372 . S
C1335 C1334 1.372 . S
C1335 C1336 1.400 . S
C1335 C1340 1.490 . S
C1336 H1326 0.930 . S
C1336 C1335 1.400 . S
C1336 C1339 1.386 . S
H1337 C1353 0.930 . S
H1338 C1354 0.931 . S
C1339 H1327 0.929 . S
C1339 C1333 1.390 . S
C1339 C1336 1.386 . S
C1340 C1335 1.490 . S
C1340 C1342 1.395 . S
C1340 C1343 1.403 . S
H1341 C1347 0.930 . S
C1342 H1328 0.930 . S
C1342 C1340 1.395 . S
C1342 C1345 1.403 1_655 S
C1343 C1340 1.403 . S
C1343 C1344 1.524 . S
C1343 C1347 1.400 1_655 S
C1344 H1329 0.960 . S
C1344 H1330 0.960 . S
C1344 H1331 0.960 . S
C1344 C1343 1.524 . S
C1345 C1342 1.403 1_455 S
C1345 C1346 1.392 . S
C1345 C1349 1.495 . S
C1346 C1345 1.392 . S
C1346 C1347 1.385 . S
C1346 C1348 1.478 . S
C1347 H1341 0.930 . S
C1347 C1343 1.400 1_455 S
C1347 C1346 1.385 . S
C1348 C1346 1.478 . S
C1348 C1350 1.381 . S
C1348 C1354 1.383 . S
C1349 C1345 1.495 . S
C1349 H1355 0.959 . S
C1349 H1356 0.961 . S
C1349 H1357 0.960 . S
C1350 C1348 1.381 . S
C1350 C1351 1.394 . S
C1350 H1358 0.930 . S
C1351 C1350 1.394 . S
C1351 C1352 1.383 . S
C1351 H1359 0.929 . S
C1352 C1351 1.383 . S
C1352 C1353 1.377 . S
C1353 H1337 0.930 . S
C1353 C1352 1.377 . S
C1353 C1354 1.379 . S
C1354 H1338 0.931 . S
C1354 C1348 1.383 . S
C1354 C1353 1.379 . S
H1355 C1349 0.959 . S
H1356 C1349 0.961 . S
H1357 C1349 0.960 . S
H1358 C1350 0.930 . S
H1359 C1351 0.929 . S
H1360 C1368 0.929 . S
H1361 C1370 0.930 . S
H1362 C1372 0.930 . S
H1363 C1375 0.929 . S
H1364 C1378 0.930 . S
H1365 C1380 0.960 . S
H1366 C1380 0.960 . S
H1367 C1380 0.960 . S
C1368 H1360 0.929 . S
C1368 C1369 1.377 . S
C1368 C1370 1.384 . S
C1369 C1368 1.377 . S
C1369 C1375 1.390 . S
C1370 H1361 0.930 . S
C1370 C1368 1.384 . S
C1370 C1371 1.372 . S
C1371 C1370 1.372 . S
C1371 C1372 1.400 . S
C1371 C1376 1.490 . S
C1372 H1362 0.930 . S
C1372 C1371 1.400 . S
C1372 C1375 1.386 . S
H1373 C1389 0.930 . S
H1374 C1390 0.931 . S
C1375 H1363 0.929 . S
C1375 C1369 1.390 . S
C1375 C1372 1.386 . S
C1376 C1371 1.490 . S
C1376 C1378 1.395 . S
C1376 C1379 1.403 . S
H1377 C1383 0.930 . S
C1378 H1364 0.930 . S
C1378 C1376 1.395 . S
C1378 C1381 1.403 1_655 S
C1379 C1376 1.403 . S
C1379 C1380 1.524 . S
C1379 C1383 1.400 1_655 S
C1380 H1365 0.960 . S
C1380 H1366 0.960 . S
C1380 H1367 0.960 . S
C1380 C1379 1.524 . S
C1381 C1378 1.403 1_455 S
C1381 C1382 1.392 . S
C1381 C1385 1.495 . S
C1382 C1381 1.392 . S
C1382 C1383 1.385 . S
C1382 C1384 1.478 . S
C1383 H1377 0.930 . S
C1383 C1379 1.400 1_455 S
C1383 C1382 1.385 . S
C1384 C1382 1.478 . S
C1384 C1386 1.381 . S
C1384 C1390 1.383 . S
C1385 C1381 1.495 . S
C1385 H1391 0.959 . S
C1385 H1392 0.961 . S
C1385 H1393 0.960 . S
C1386 C1384 1.381 . S
C1386 C1387 1.394 . S
C1386 H1394 0.930 . S
C1387 C1386 1.394 . S
C1387 C1388 1.383 . S
C1387 H1395 0.929 . S
C1388 C1387 1.383 . S
C1388 C1389 1.377 . S
C1389 H1373 0.930 . S
C1389 C1388 1.377 . S
C1389 C1390 1.379 . S
C1390 H1374 0.931 . S
C1390 C1384 1.383 . S
C1390 C1389 1.379 . S
H1391 C1385 0.959 . S
H1392 C1385 0.961 . S
H1393 C1385 0.960 . S
H1394 C1386 0.930 . S
H1395 C1387 0.929 . S
H1396 C1404 0.929 . S
H1397 C1406 0.930 . S
H1398 C1408 0.930 . S
H1399 C1411 0.929 . S
H1400 C1414 0.930 . S
H1401 C1416 0.960 . S
H1402 C1416 0.960 . S
H1403 C1416 0.960 . S
C1404 H1396 0.929 . S
C1404 C1405 1.377 . S
C1404 C1406 1.384 . S
C1405 C1404 1.377 . S
C1405 C1411 1.390 . S
C1406 H1397 0.930 . S
C1406 C1404 1.384 . S
C1406 C1407 1.372 . S
C1407 C1406 1.372 . S
C1407 C1408 1.400 . S
C1407 C1412 1.490 . S
C1408 H1398 0.930 . S
C1408 C1407 1.400 . S
C1408 C1411 1.386 . S
H1409 C1425 0.930 . S
H1410 C1426 0.931 . S
C1411 H1399 0.929 . S
C1411 C1405 1.390 . S
C1411 C1408 1.386 . S
C1412 C1407 1.490 . S
C1412 C1414 1.395 . S
C1412 C1415 1.403 . S
H1413 C1419 0.930 . S
C1414 H1400 0.930 . S
C1414 C1412 1.395 . S
C1414 C1417 1.403 . S
C1415 C1412 1.403 . S
C1415 C1416 1.524 . S
C1415 C1419 1.400 . S
C1416 H1401 0.960 . S
C1416 H1402 0.960 . S
C1416 H1403 0.960 . S
C1416 C1415 1.524 . S
C1417 C1414 1.403 . S
C1417 C1418 1.392 . S
C1417 C1421 1.495 . S
C1418 C1417 1.392 . S
C1418 C1419 1.385 . S
C1418 C1420 1.478 . S
C1419 H1413 0.930 . S
C1419 C1415 1.400 . S
C1419 C1418 1.385 . S
C1420 C1418 1.478 . S
C1420 C1422 1.381 . S
C1420 C1426 1.383 . S
C1421 C1417 1.495 . S
C1421 H1427 0.959 . S
C1421 H1428 0.961 . S
C1421 H1429 0.960 . S
C1422 C1420 1.381 . S
C1422 C1423 1.394 . S
C1422 H1430 0.930 . S
C1423 C1422 1.394 . S
C1423 C1424 1.383 . S
C1423 H1431 0.929 . S
C1424 C1423 1.383 . S
C1424 C1425 1.377 . S
C1425 H1409 0.930 . S
C1425 C1424 1.377 . S
C1425 C1426 1.379 . S
C1426 H1410 0.931 . S
C1426 C1420 1.383 . S
C1426 C1425 1.379 . S
H1427 C1421 0.959 . S
H1428 C1421 0.961 . S
H1429 C1421 0.960 . S
H1430 C1422 0.930 . S
H1431 C1423 0.929 . S
H1432 C1440 0.929 . S
H1433 C1442 0.930 . S
H1434 C1444 0.930 . S
H1435 C1447 0.929 . S
H1436 C1450 0.930 . S
H1437 C1452 0.960 . S
H1438 C1452 0.960 . S
H1439 C1452 0.960 . S
C1440 H1432 0.929 . S
C1440 C1441 1.377 . S
C1440 C1442 1.384 . S
C1441 C1440 1.377 . S
C1441 C1447 1.390 . S
C1442 H1433 0.930 . S
C1442 C1440 1.384 . S
C1442 C1443 1.372 . S
C1443 C1442 1.372 . S
C1443 C1444 1.400 . S
C1443 C1448 1.490 . S
C1444 H1434 0.930 . S
C1444 C1443 1.400 . S
C1444 C1447 1.386 . S
H1445 C1461 0.930 . S
H1446 C1462 0.931 . S
C1447 H1435 0.929 . S
C1447 C1441 1.390 . S
C1447 C1444 1.386 . S
C1448 C1443 1.490 . S
C1448 C1450 1.395 . S
C1448 C1451 1.403 . S
H1449 C1455 0.930 . S
C1450 H1436 0.930 . S
C1450 C1448 1.395 . S
C1450 C1453 1.403 1_455 S
C1451 C1448 1.403 . S
C1451 C1452 1.524 . S
C1451 C1455 1.400 1_455 S
C1452 H1437 0.960 . S
C1452 H1438 0.960 . S
C1452 H1439 0.960 . S
C1452 C1451 1.524 . S
C1453 C1450 1.403 1_655 S
C1453 C1454 1.392 . S
C1453 C1457 1.495 . S
C1454 C1453 1.392 . S
C1454 C1455 1.385 . S
C1454 C1456 1.478 . S
C1455 H1449 0.930 . S
C1455 C1451 1.400 1_655 S
C1455 C1454 1.385 . S
C1456 C1454 1.478 . S
C1456 C1458 1.381 . S
C1456 C1462 1.383 . S
C1457 C1453 1.495 . S
C1457 H1463 0.959 . S
C1457 H1464 0.961 . S
C1457 H1465 0.960 . S
C1458 C1456 1.381 . S
C1458 C1459 1.394 . S
C1458 H1466 0.930 . S
C1459 C1458 1.394 . S
C1459 C1460 1.383 . S
C1459 H1467 0.929 . S
C1460 C1459 1.383 . S
C1460 C1461 1.377 . S
C1461 H1445 0.930 . S
C1461 C1460 1.377 . S
C1461 C1462 1.379 . S
C1462 H1446 0.931 . S
C1462 C1456 1.383 . S
C1462 C1461 1.379 . S
H1463 C1457 0.959 . S
H1464 C1457 0.961 . S
H1465 C1457 0.960 . S
H1466 C1458 0.930 . S
H1467 C1459 0.929 . S
H1468 C1476 0.929 . S
H1469 C1478 0.930 . S
H1470 C1480 0.930 . S
H1471 C1483 0.929 . S
H1472 C1486 0.930 . S
H1473 C1488 0.960 . S
H1474 C1488 0.960 . S
H1475 C1488 0.960 . S
C1476 H1468 0.929 . S
C1476 C1477 1.377 . S
C1476 C1478 1.384 . S
C1477 C1476 1.377 . S
C1477 C1483 1.390 . S
C1478 H1469 0.930 . S
C1478 C1476 1.384 . S
C1478 C1479 1.372 . S
C1479 C1478 1.372 . S
C1479 C1480 1.400 . S
C1479 C1484 1.490 . S
C1480 H1470 0.930 . S
C1480 C1479 1.400 . S
C1480 C1483 1.386 . S
H1481 C1497 0.930 . S
H1482 C1498 0.931 . S
C1483 H1471 0.929 . S
C1483 C1477 1.390 . S
C1483 C1480 1.386 . S
C1484 C1479 1.490 . S
C1484 C1486 1.395 . S
C1484 C1487 1.403 . S
H1485 C1491 0.930 . S
C1486 H1472 0.930 . S
C1486 C1484 1.395 . S
C1486 C1489 1.403 . S
C1487 C1484 1.403 . S
C1487 C1488 1.524 . S
C1487 C1491 1.400 . S
C1488 H1473 0.960 . S
C1488 H1474 0.960 . S
C1488 H1475 0.960 . S
C1488 C1487 1.524 . S
C1489 C1486 1.403 . S
C1489 C1490 1.392 . S
C1489 C1493 1.495 . S
C1490 C1489 1.392 . S
C1490 C1491 1.385 . S
C1490 C1492 1.478 . S
C1491 H1485 0.930 . S
C1491 C1487 1.400 . S
C1491 C1490 1.385 . S
C1492 C1490 1.478 . S
C1492 C1494 1.381 . S
C1492 C1498 1.383 . S
C1493 C1489 1.495 . S
C1493 H1499 0.959 . S
C1493 H1500 0.961 . S
C1493 H1501 0.960 . S
C1494 C1492 1.381 . S
C1494 C1495 1.394 . S
C1494 H1502 0.930 . S
C1495 C1494 1.394 . S
C1495 C1496 1.383 . S
C1495 H1503 0.929 . S
C1496 C1495 1.383 . S
C1496 C1497 1.377 . S
C1497 H1481 0.930 . S
C1497 C1496 1.377 . S
C1497 C1498 1.379 . S
C1498 H1482 0.931 . S
C1498 C1492 1.383 . S
C1498 C1497 1.379 . S
H1499 C1493 0.959 . S
H1500 C1493 0.961 . S
H1501 C1493 0.960 . S
H1502 C1494 0.930 . S
H1503 C1495 0.929 . S
H1504 C1512 0.929 . S
H1505 C1514 0.930 . S
H1506 C1516 0.930 1_565 S
H1507 C1519 0.929 . S
H1508 C1522 0.930 . S
H1509 C1524 0.960 . S
H1510 C1524 0.960 . S
H1511 C1524 0.960 . S
C1512 H1504 0.929 . S
C1512 C1513 1.377 . S
C1512 C1514 1.384 . S
C1513 C1512 1.377 . S
C1513 C1519 1.390 . S
C1514 H1505 0.930 . S
C1514 C1512 1.384 . S
C1514 C1515 1.372 1_545 S
C1515 C1514 1.372 1_565 S
C1515 C1516 1.400 1_565 S
C1515 C1520 1.490 . S
C1516 H1506 0.930 1_545 S
C1516 C1515 1.400 1_545 S
C1516 C1519 1.386 . S
H1517 C1533 0.930 . S
H1518 C1534 0.931 . S
C1519 H1507 0.929 . S
C1519 C1513 1.390 . S
C1519 C1516 1.386 . S
C1520 C1515 1.490 . S
C1520 C1522 1.395 . S
C1520 C1523 1.403 . S
H1521 C1527 0.930 . S
C1522 H1508 0.930 . S
C1522 C1520 1.395 . S
C1522 C1525 1.403 . S
C1523 C1520 1.403 . S
C1523 C1524 1.524 . S
C1523 C1527 1.400 . S
C1524 H1509 0.960 . S
C1524 H1510 0.960 . S
C1524 H1511 0.960 . S
C1524 C1523 1.524 . S
C1525 C1522 1.403 . S
C1525 C1526 1.392 . S
C1525 C1529 1.495 . S
C1526 C1525 1.392 . S
C1526 C1527 1.385 . S
C1526 C1528 1.478 . S
C1527 H1521 0.930 . S
C1527 C1523 1.400 . S
C1527 C1526 1.385 . S
C1528 C1526 1.478 . S
C1528 C1530 1.381 . S
C1528 C1534 1.383 . S
C1529 C1525 1.495 . S
C1529 H1535 0.959 . S
C1529 H1536 0.961 . S
C1529 H1537 0.960 . S
C1530 C1528 1.381 . S
C1530 C1531 1.394 . S
C1530 H1538 0.930 . S
C1531 C1530 1.394 . S
C1531 C1532 1.383 . S
C1531 H1539 0.929 . S
C1532 C1531 1.383 . S
C1532 C1533 1.377 . S
C1533 H1517 0.930 . S
C1533 C1532 1.377 . S
C1533 C1534 1.379 . S
C1534 H1518 0.931 . S
C1534 C1528 1.383 . S
C1534 C1533 1.379 . S
H1535 C1529 0.959 . S
H1536 C1529 0.961 . S
H1537 C1529 0.960 . S
H1538 C1530 0.930 . S
H1539 C1531 0.929 . S
H1540 C1548 0.929 . S
H1541 C1550 0.930 . S
H1542 C1552 0.930 1_545 S
H1543 C1555 0.929 . S
H1544 C1558 0.930 . S
H1545 C1560 0.960 . S
H1546 C1560 0.960 . S
H1547 C1560 0.960 . S
C1548 H1540 0.929 . S
C1548 C1549 1.377 . S
C1548 C1550 1.384 . S
C1549 C1548 1.377 . S
C1549 C1555 1.390 . S
C1550 H1541 0.930 . S
C1550 C1548 1.384 . S
C1550 C1551 1.372 1_565 S
C1551 C1550 1.372 1_545 S
C1551 C1552 1.400 1_545 S
C1551 C1556 1.490 . S
C1552 H1542 0.930 1_565 S
C1552 C1551 1.400 1_565 S
C1552 C1555 1.386 . S
H1553 C1569 0.930 . S
H1554 C1570 0.931 . S
C1555 H1543 0.929 . S
C1555 C1549 1.390 . S
C1555 C1552 1.386 . S
C1556 C1551 1.490 . S
C1556 C1558 1.395 . S
C1556 C1559 1.403 . S
H1557 C1563 0.930 . S
C1558 H1544 0.930 . S
C1558 C1556 1.395 . S
C1558 C1561 1.403 . S
C1559 C1556 1.403 . S
C1559 C1560 1.524 . S
C1559 C1563 1.400 . S
C1560 H1545 0.960 . S
C1560 H1546 0.960 . S
C1560 H1547 0.960 . S
C1560 C1559 1.524 . S
C1561 C1558 1.403 . S
C1561 C1562 1.392 . S
C1561 C1565 1.495 . S
C1562 C1561 1.392 . S
C1562 C1563 1.385 . S
C1562 C1564 1.478 . S
C1563 H1557 0.930 . S
C1563 C1559 1.400 . S
C1563 C1562 1.385 . S
C1564 C1562 1.478 . S
C1564 C1566 1.381 . S
C1564 C1570 1.383 . S
C1565 C1561 1.495 . S
C1565 H1571 0.959 . S
C1565 H1572 0.961 . S
C1565 H1573 0.960 . S
C1566 C1564 1.381 . S
C1566 C1567 1.394 . S
C1566 H1574 0.930 . S
C1567 C1566 1.394 . S
C1567 C1568 1.383 . S
C1567 H1575 0.929 . S
C1568 C1567 1.383 . S
C1568 C1569 1.377 . S
C1569 H1553 0.930 . S
C1569 C1568 1.377 . S
C1569 C1570 1.379 . S
C1570 H1554 0.931 . S
C1570 C1564 1.383 . S
C1570 C1569 1.379 . S
H1571 C1565 0.959 . S
H1572 C1565 0.961 . S
H1573 C1565 0.960 . S
H1574 C1566 0.930 . S
H1575 C1567 0.929 . S
H1576 C1584 0.929 . S
H1577 C1586 0.930 . S
H1578 C1588 0.930 . S
H1579 C1591 0.929 . S
H1580 C1594 0.930 . S
H1581 C1596 0.960 . S
H1582 C1596 0.960 . S
H1583 C1596 0.960 . S
C1584 H1576 0.929 . S
C1584 C1585 1.377 . S
C1584 C1586 1.384 . S
C1585 C1584 1.377 . S
C1585 C1591 1.390 . S
C1586 H1577 0.930 . S
C1586 C1584 1.384 . S
C1586 C1587 1.372 . S
C1587 C1586 1.372 . S
C1587 C1588 1.400 . S
C1587 C1592 1.490 . S
C1588 H1578 0.930 . S
C1588 C1587 1.400 . S
C1588 C1591 1.386 . S
H1589 C1605 0.930 . S
H1590 C1606 0.930 . S
C1591 H1579 0.929 . S
C1591 C1585 1.390 . S
C1591 C1588 1.386 . S
C1592 C1587 1.490 . S
C1592 C1594 1.395 . S
C1592 C1595 1.403 . S
H1593 C1599 0.930 . S
C1594 H1580 0.930 . S
C1594 C1592 1.395 . S
C1594 C1597 1.403 . S
C1595 C1592 1.403 . S
C1595 C1596 1.524 . S
C1595 C1599 1.400 . S
C1596 H1581 0.960 . S
C1596 H1582 0.960 . S
C1596 H1583 0.960 . S
C1596 C1595 1.524 . S
C1597 C1594 1.403 . S
C1597 C1598 1.392 . S
C1597 C1601 1.495 . S
C1598 C1597 1.392 . S
C1598 C1599 1.385 . S
C1598 C1600 1.490 . S
C1599 H1593 0.930 . S
C1599 C1595 1.400 . S
C1599 C1598 1.385 . S
C1600 C1598 1.490 . S
C1600 C1602 1.374 1_545 S
C1600 C1606 1.378 1_545 S
C1601 C1597 1.495 . S
C1601 H1607 0.959 . S
C1601 H1608 0.943 1_545 S
C1601 H1609 0.960 . S
C1602 C1600 1.374 1_565 S
C1602 C1603 1.394 . S
C1602 H1610 0.930 . S
C1603 C1602 1.394 . S
C1603 C1604 1.383 . S
C1603 H1611 0.929 . S
C1604 C1603 1.383 . S
C1604 C1605 1.377 . S
C1605 H1589 0.930 . S
C1605 C1604 1.377 . S
C1605 C1606 1.379 . S
C1606 H1590 0.930 . S
C1606 C1600 1.378 1_565 S
C1606 C1605 1.379 . S
H1607 C1601 0.959 . S
H1608 C1601 0.943 1_565 S
H1609 C1601 0.960 . S
H1610 C1602 0.930 . S
H1611 C1603 0.929 . S
H1612 C1620 0.929 . S
H1613 C1622 0.930 . S
H1614 C1624 0.930 . S
H1615 C1627 0.929 . S
H1616 C1630 0.930 . S
H1617 C1632 0.960 . S
H1618 C1632 0.960 . S
H1619 C1632 0.960 . S
C1620 H1612 0.929 . S
C1620 C1621 1.377 . S
C1620 C1622 1.384 . S
C1621 C1620 1.377 . S
C1621 C1627 1.390 . S
C1622 H1613 0.930 . S
C1622 C1620 1.384 . S
C1622 C1623 1.372 . S
C1623 C1622 1.372 . S
C1623 C1624 1.400 . S
C1623 C1628 1.490 . S
C1624 H1614 0.930 . S
C1624 C1623 1.400 . S
C1624 C1627 1.386 . S
H1625 C1641 0.930 . S
H1626 C1642 0.931 . S
C1627 H1615 0.929 . S
C1627 C1621 1.390 . S
C1627 C1624 1.386 . S
C1628 C1623 1.490 . S
C1628 C1630 1.395 . S
C1628 C1631 1.403 . S
H1629 C1635 0.930 . S
C1630 H1616 0.930 . S
C1630 C1628 1.395 . S
C1630 C1633 1.403 . S
C1631 C1628 1.403 . S
C1631 C1632 1.524 . S
C1631 C1635 1.400 . S
C1632 H1617 0.960 . S
C1632 H1618 0.960 . S
C1632 H1619 0.960 . S
C1632 C1631 1.524 . S
C1633 C1630 1.403 . S
C1633 C1634 1.392 . S
C1633 C1637 1.495 . S
C1634 C1633 1.392 . S
C1634 C1635 1.385 . S
C1634 C1636 1.478 . S
C1635 H1629 0.930 . S
C1635 C1631 1.400 . S
C1635 C1634 1.385 . S
C1636 C1634 1.478 . S
C1636 C1638 1.381 1_565 S
C1636 C1642 1.383 1_565 S
C1637 C1633 1.495 . S
C1637 H1643 0.959 . S
C1637 H1644 0.961 . S
C1637 H1645 0.960 . S
C1638 C1636 1.381 1_545 S
C1638 C1639 1.394 . S
C1638 H1646 0.930 1_545 S
C1639 C1638 1.394 . S
C1639 C1640 1.383 . S
C1639 H1647 0.929 . S
C1640 C1639 1.383 . S
C1640 C1641 1.377 . S
C1641 H1625 0.930 . S
C1641 C1640 1.377 . S
C1641 C1642 1.379 . S
C1642 H1626 0.931 . S
C1642 C1636 1.383 1_545 S
C1642 C1641 1.379 . S
H1643 C1637 0.959 . S
H1644 C1637 0.961 . S
H1645 C1637 0.960 . S
H1646 C1638 0.930 1_565 S
H1647 C1639 0.929 . S
H1648 C1656 0.929 . S
H1649 C1658 0.930 . S
H1650 C1660 0.930 . S
H1651 C1663 0.929 . S
H1652 C1666 0.930 . S
H1653 C1668 0.960 . S
H1654 C1668 0.960 . S
H1655 C1668 0.960 . S
C1656 H1648 0.929 . S
C1656 C1657 1.377 . S
C1656 C1658 1.384 . S
C1657 C1656 1.377 . S
C1657 C1663 1.390 . S
C1658 H1649 0.930 . S
C1658 C1656 1.384 . S
C1658 C1659 1.372 . S
C1659 C1658 1.372 . S
C1659 C1660 1.400 . S
C1659 C1664 1.490 . S
C1660 H1650 0.930 . S
C1660 C1659 1.400 . S
C1660 C1663 1.386 . S
H1661 C1677 0.930 . S
H1662 C1678 0.931 . S
C1663 H1651 0.929 . S
C1663 C1657 1.390 . S
C1663 C1660 1.386 . S
C1664 C1659 1.490 . S
C1664 C1666 1.395 . S
C1664 C1667 1.403 . S
H1665 C1671 0.930 . S
C1666 H1652 0.930 . S
C1666 C1664 1.395 . S
C1666 C1669 1.403 . S
C1667 C1664 1.403 . S
C1667 C1668 1.524 . S
C1667 C1671 1.400 . S
C1668 H1653 0.960 . S
C1668 H1654 0.960 . S
C1668 H1655 0.960 . S
C1668 C1667 1.524 . S
C1669 C1666 1.403 . S
C1669 C1670 1.392 . S
C1669 C1673 1.495 . S
C1670 C1669 1.392 . S
C1670 C1671 1.385 . S
C1670 C1672 1.478 . S
C1671 H1665 0.930 . S
C1671 C1667 1.400 . S
C1671 C1670 1.385 . S
C1672 C1670 1.478 . S
C1672 C1674 1.381 1_545 S
C1672 C1678 1.383 1_545 S
C1673 C1669 1.495 . S
C1673 H1679 0.959 . S
C1673 H1680 0.961 . S
C1673 H1681 0.960 . S
C1674 C1672 1.381 1_565 S
C1674 C1675 1.394 . S
C1674 H1682 0.930 1_565 S
C1675 C1674 1.394 . S
C1675 C1676 1.383 . S
C1675 H1683 0.929 . S
C1676 C1675 1.383 . S
C1676 C1677 1.377 . S
C1677 H1661 0.930 . S
C1677 C1676 1.377 . S
C1677 C1678 1.379 . S
C1678 H1662 0.931 . S
C1678 C1672 1.383 1_565 S
C1678 C1677 1.379 . S
H1679 C1673 0.959 . S
H1680 C1673 0.961 . S
H1681 C1673 0.960 . S
H1682 C1674 0.930 1_545 S
H1683 C1675 0.929 . S
H1684 C1692 0.929 . S
H1685 C1694 0.930 1_565 S
H1686 C1696 0.930 . S
H1687 C1699 0.929 . S
H1688 C1702 0.930 . S
H1689 C1704 0.960 . S
H1690 C1704 0.960 . S
H1691 C1704 0.960 . S
C1692 H1684 0.929 . S
C1692 C1693 1.377 . S
C1692 C1694 1.384 . S
C1693 C1692 1.377 . S
C1693 C1699 1.390 . S
C1694 H1685 0.930 1_545 S
C1694 C1692 1.384 . S
C1694 C1695 1.372 1_545 S
C1695 C1694 1.372 1_565 S
C1695 C1696 1.400 1_565 S
C1695 C1700 1.490 . S
C1696 H1686 0.930 . S
C1696 C1695 1.400 1_545 S
C1696 C1699 1.386 . S
H1697 C1713 0.930 . S
H1698 C1714 0.931 . S
C1699 H1687 0.929 . S
C1699 C1693 1.390 . S
C1699 C1696 1.386 . S
C1700 C1695 1.490 . S
C1700 C1702 1.395 . S
C1700 C1703 1.403 . S
H1701 C1707 0.930 . S
C1702 H1688 0.930 . S
C1702 C1700 1.395 . S
C1702 C1705 1.403 . S
C1703 C1700 1.403 . S
C1703 C1704 1.524 . S
C1703 C1707 1.400 . S
C1704 H1689 0.960 . S
C1704 H1690 0.960 . S
C1704 H1691 0.960 . S
C1704 C1703 1.524 . S
C1705 C1702 1.403 . S
C1705 C1706 1.392 . S
C1705 C1709 1.495 . S
C1706 C1705 1.392 . S
C1706 C1707 1.385 . S
C1706 C1708 1.478 . S
C1707 H1701 0.930 . S
C1707 C1703 1.400 . S
C1707 C1706 1.385 . S
C1708 C1706 1.478 . S
C1708 C1710 1.381 . S
C1708 C1714 1.383 . S
C1709 C1705 1.495 . S
C1709 H1715 0.959 . S
C1709 H1716 0.961 . S
C1709 H1717 0.960 . S
C1710 C1708 1.381 . S
C1710 C1711 1.394 . S
C1710 H1718 0.930 . S
C1711 C1710 1.394 . S
C1711 C1712 1.383 . S
C1711 H1719 0.929 . S
C1712 C1711 1.383 . S
C1712 C1713 1.377 . S
C1713 H1697 0.930 . S
C1713 C1712 1.377 . S
C1713 C1714 1.379 . S
C1714 H1698 0.931 . S
C1714 C1708 1.383 . S
C1714 C1713 1.379 . S
H1715 C1709 0.959 . S
H1716 C1709 0.961 . S
H1717 C1709 0.960 . S
H1718 C1710 0.930 . S
H1719 C1711 0.929 . S
H1720 C1728 0.929 . S
H1721 C1730 0.930 . S
H1722 C1732 0.930 1_565 S
H1723 C1735 0.929 . S
H1724 C1738 0.930 . S
H1725 C1740 0.960 . S
H1726 C1740 0.960 . S
H1727 C1740 0.960 . S
C1728 H1720 0.929 . S
C1728 C1729 1.377 . S
C1728 C1730 1.384 . S
C1729 C1728 1.377 . S
C1729 C1735 1.390 . S
C1730 H1721 0.930 . S
C1730 C1728 1.384 . S
C1730 C1731 1.372 1_545 S
C1731 C1730 1.372 1_565 S
C1731 C1732 1.400 1_565 S
C1731 C1736 1.490 . S
C1732 H1722 0.930 1_545 S
C1732 C1731 1.400 1_545 S
C1732 C1735 1.386 . S
H1733 C1749 0.930 . S
H1734 C1750 0.931 . S
C1735 H1723 0.929 . S
C1735 C1729 1.390 . S
C1735 C1732 1.386 . S
C1736 C1731 1.490 . S
C1736 C1738 1.395 . S
C1736 C1739 1.403 . S
H1737 C1743 0.930 . S
C1738 H1724 0.930 . S
C1738 C1736 1.395 . S
C1738 C1741 1.403 . S
C1739 C1736 1.403 . S
C1739 C1740 1.524 . S
C1739 C1743 1.400 . S
C1740 H1725 0.960 . S
C1740 H1726 0.960 . S
C1740 H1727 0.960 . S
C1740 C1739 1.524 . S
C1741 C1738 1.403 . S
C1741 C1742 1.392 . S
C1741 C1745 1.495 . S
C1742 C1741 1.392 . S
C1742 C1743 1.385 . S
C1742 C1744 1.478 . S
C1743 H1737 0.930 . S
C1743 C1739 1.400 . S
C1743 C1742 1.385 . S
C1744 C1742 1.478 . S
C1744 C1746 1.381 . S
C1744 C1750 1.383 . S
C1745 C1741 1.495 . S
C1745 H1751 0.959 . S
C1745 H1752 0.961 . S
C1745 H1753 0.960 . S
C1746 C1744 1.381 . S
C1746 C1747 1.394 . S
C1746 H1754 0.930 . S
C1747 C1746 1.394 . S
C1747 C1748 1.383 . S
C1747 H1755 0.929 . S
C1748 C1747 1.383 . S
C1748 C1749 1.377 . S
C1749 H1733 0.930 . S
C1749 C1748 1.377 . S
C1749 C1750 1.379 . S
C1750 H1734 0.931 . S
C1750 C1744 1.383 . S
C1750 C1749 1.379 . S
H1751 C1745 0.959 . S
H1752 C1745 0.961 . S
H1753 C1745 0.960 . S
H1754 C1746 0.930 . S
H1755 C1747 0.929 . S
H1756 C1764 0.929 . S
H1757 C1766 0.930 . S
H1758 C1768 0.930 . S
H1759 C1771 0.929 . S
H1760 C1774 0.930 . S
H1761 C1776 0.960 . S
H1762 C1776 0.960 . S
H1763 C1776 0.960 . S
C1764 H1756 0.929 . S
C1764 C1765 1.377 . S
C1764 C1766 1.384 . S
C1765 C1764 1.377 . S
C1765 C1771 1.390 . S
C1766 H1757 0.930 . S
C1766 C1764 1.384 . S
C1766 C1767 1.372 . S
C1767 C1766 1.372 . S
C1767 C1768 1.400 . S
C1767 C1772 1.490 . S
C1768 H1758 0.930 . S
C1768 C1767 1.400 . S
C1768 C1771 1.386 . S
H1769 C1785 0.930 . S
H1770 C1786 0.931 . S
C1771 H1759 0.929 . S
C1771 C1765 1.390 . S
C1771 C1768 1.386 . S
C1772 C1767 1.490 . S
C1772 C1774 1.395 . S
C1772 C1775 1.403 . S
H1773 C1779 0.930 . S
C1774 H1760 0.930 . S
C1774 C1772 1.395 . S
C1774 C1777 1.403 . S
C1775 C1772 1.403 . S
C1775 C1776 1.524 . S
C1775 C1779 1.400 . S
C1776 H1761 0.960 . S
C1776 H1762 0.960 . S
C1776 H1763 0.960 . S
C1776 C1775 1.524 . S
C1777 C1774 1.403 . S
C1777 C1778 1.392 . S
C1777 C1781 1.495 . S
C1778 C1777 1.392 . S
C1778 C1779 1.385 . S
C1778 C1780 1.478 . S
C1779 H1773 0.930 . S
C1779 C1775 1.400 . S
C1779 C1778 1.385 . S
C1780 C1778 1.478 . S
C1780 C1782 1.381 1_545 S
C1780 C1786 1.383 1_545 S
C1781 C1777 1.495 . S
C1781 H1787 0.959 . S
C1781 H1788 0.961 . S
C1781 H1789 0.960 . S
C1782 C1780 1.381 1_565 S
C1782 C1783 1.394 . S
C1782 H1790 0.930 1_565 S
C1783 C1782 1.394 . S
C1783 C1784 1.383 . S
C1783 H1791 0.929 . S
C1784 C1783 1.383 . S
C1784 C1785 1.377 . S
C1785 H1769 0.930 . S
C1785 C1784 1.377 . S
C1785 C1786 1.379 . S
C1786 H1770 0.931 . S
C1786 C1780 1.383 1_565 S
C1786 C1785 1.379 . S
H1787 C1781 0.959 . S
H1788 C1781 0.961 . S
H1789 C1781 0.960 . S
H1790 C1782 0.930 1_545 S
H1791 C1783 0.929 . S
H1792 C1800 0.929 . S
H1793 C1802 0.930 . S
H1794 C1804 0.930 . S
H1795 C1807 0.929 . S
H1796 C1810 0.930 . S
H1797 C1812 0.960 . S
H1798 C1812 0.960 . S
H1799 C1812 0.960 . S
C1800 H1792 0.929 . S
C1800 C1801 1.377 . S
C1800 C1802 1.384 . S
C1801 C1800 1.377 . S
C1801 C1807 1.390 . S
C1802 H1793 0.930 . S
C1802 C1800 1.384 . S
C1802 C1803 1.372 . S
C1803 C1802 1.372 . S
C1803 C1804 1.400 . S
C1803 C1808 1.490 . S
C1804 H1794 0.930 . S
C1804 C1803 1.400 . S
C1804 C1807 1.386 . S
H1805 C1821 0.930 . S
H1806 C1822 0.931 . S
C1807 H1795 0.929 . S
C1807 C1801 1.390 . S
C1807 C1804 1.386 . S
C1808 C1803 1.490 . S
C1808 C1810 1.395 . S
C1808 C1811 1.403 . S
H1809 C1815 0.930 . S
C1810 H1796 0.930 . S
C1810 C1808 1.395 . S
C1810 C1813 1.403 . S
C1811 C1808 1.403 . S
C1811 C1812 1.524 . S
C1811 C1815 1.400 . S
C1812 H1797 0.960 . S
C1812 H1798 0.960 . S
C1812 H1799 0.960 . S
C1812 C1811 1.524 . S
C1813 C1810 1.403 . S
C1813 C1814 1.392 . S
C1813 C1817 1.495 . S
C1814 C1813 1.392 . S
C1814 C1815 1.385 . S
C1814 C1816 1.478 . S
C1815 H1809 0.930 . S
C1815 C1811 1.400 . S
C1815 C1814 1.385 . S
C1816 C1814 1.478 . S
C1816 C1818 1.381 . S
C1816 C1822 1.383 . S
C1817 C1813 1.495 . S
C1817 H1823 0.959 . S
C1817 H1824 0.961 . S
C1817 H1825 0.960 . S
C1818 C1816 1.381 . S
C1818 C1819 1.394 . S
C1818 H1826 0.930 . S
C1819 C1818 1.394 . S
C1819 C1820 1.383 . S
C1819 H1827 0.929 . S
C1820 C1819 1.383 . S
C1820 C1821 1.377 . S
C1821 H1805 0.930 . S
C1821 C1820 1.377 . S
C1821 C1822 1.379 . S
C1822 H1806 0.931 . S
C1822 C1816 1.383 . S
C1822 C1821 1.379 . S
H1823 C1817 0.959 . S
H1824 C1817 0.961 . S
H1825 C1817 0.960 . S
H1826 C1818 0.930 . S
H1827 C1819 0.929 . S
H1828 C1836 0.929 . S
H1829 C1838 0.930 . S
H1830 C1840 0.930 . S
H1831 C1843 0.929 . S
H1832 C1846 0.930 . S
H1833 C1848 0.960 . S
H1834 C1848 0.960 . S
H1835 C1848 0.960 . S
C1836 H1828 0.929 . S
C1836 C1837 1.377 . S
C1836 C1838 1.384 . S
C1837 C1836 1.377 . S
C1837 C1843 1.390 . S
C1838 H1829 0.930 . S
C1838 C1836 1.384 . S
C1838 C1839 1.372 . S
C1839 C1838 1.372 . S
C1839 C1840 1.400 . S
C1839 C1844 1.490 . S
C1840 H1830 0.930 . S
C1840 C1839 1.400 . S
C1840 C1843 1.386 . S
H1841 C1857 0.930 . S
H1842 C1858 0.931 . S
C1843 H1831 0.929 . S
C1843 C1837 1.390 . S
C1843 C1840 1.386 . S
C1844 C1839 1.490 . S
C1844 C1846 1.395 . S
C1844 C1847 1.403 . S
H1845 C1851 0.930 . S
C1846 H1832 0.930 . S
C1846 C1844 1.395 . S
C1846 C1849 1.403 . S
C1847 C1844 1.403 . S
C1847 C1848 1.524 . S
C1847 C1851 1.400 . S
C1848 H1833 0.960 . S
C1848 H1834 0.960 . S
C1848 H1835 0.960 . S
C1848 C1847 1.524 . S
C1849 C1846 1.403 . S
C1849 C1850 1.392 . S
C1849 C1853 1.495 . S
C1850 C1849 1.392 . S
C1850 C1851 1.385 . S
C1850 C1852 1.478 . S
C1851 H1845 0.930 . S
C1851 C1847 1.400 . S
C1851 C1850 1.385 . S
C1852 C1850 1.478 . S
C1852 C1854 1.381 . S
C1852 C1858 1.383 . S
C1853 C1849 1.495 . S
C1853 H1859 0.959 . S
C1853 H1860 0.961 . S
C1853 H1861 0.960 . S
C1854 C1852 1.381 . S
C1854 C1855 1.394 . S
C1854 H1862 0.930 . S
C1855 C1854 1.394 . S
C1855 C1856 1.383 . S
C1855 H1863 0.929 . S
C1856 C1855 1.383 . S
C1856 C1857 1.377 . S
C1857 H1841 0.930 . S
C1857 C1856 1.377 . S
C1857 C1858 1.379 . S
C1858 H1842 0.931 . S
C1858 C1852 1.383 . S
C1858 C1857 1.379 . S
H1859 C1853 0.959 . S
H1860 C1853 0.961 . S
H1861 C1853 0.960 . S
H1862 C1854 0.930 . S
H1863 C1855 0.929 . S
H1864 C1872 0.929 . S
H1865 C1874 0.930 . S
H1866 C1876 0.930 . S
H1867 C1879 0.929 . S
H1868 C1882 0.930 . S
H1869 C1884 0.960 . S
H1870 C1884 0.960 . S
H1871 C1884 0.960 . S
C1872 H1864 0.929 . S
C1872 C1873 1.377 . S
C1872 C1874 1.384 . S
C1873 C1872 1.377 . S
C1873 C1879 1.390 . S
C1874 H1865 0.930 . S
C1874 C1872 1.384 . S
C1874 C1875 1.372 . S
C1875 C1874 1.372 . S
C1875 C1876 1.400 . S
C1875 C1880 1.490 . S
C1876 H1866 0.930 . S
C1876 C1875 1.400 . S
C1876 C1879 1.386 . S
H1877 C1893 0.930 . S
H1878 C1894 0.931 . S
C1879 H1867 0.929 . S
C1879 C1873 1.390 . S
C1879 C1876 1.386 . S
C1880 C1875 1.490 . S
C1880 C1882 1.395 . S
C1880 C1883 1.403 . S
H1881 C1887 0.930 . S
C1882 H1868 0.930 . S
C1882 C1880 1.395 . S
C1882 C1885 1.403 . S
C1883 C1880 1.403 . S
C1883 C1884 1.524 . S
C1883 C1887 1.400 . S
C1884 H1869 0.960 . S
C1884 H1870 0.960 . S
C1884 H1871 0.960 . S
C1884 C1883 1.524 . S
C1885 C1882 1.403 . S
C1885 C1886 1.392 . S
C1885 C1889 1.495 . S
C1886 C1885 1.392 . S
C1886 C1887 1.385 . S
C1886 C1888 1.478 . S
C1887 H1881 0.930 . S
C1887 C1883 1.400 . S
C1887 C1886 1.385 . S
C1888 C1886 1.478 . S
C1888 C1890 1.381 . S
C1888 C1894 1.383 . S
C1889 C1885 1.495 . S
C1889 H1895 0.959 . S
C1889 H1896 0.961 . S
C1889 H1897 0.960 . S
C1890 C1888 1.381 . S
C1890 C1891 1.394 . S
C1890 H1898 0.930 . S
C1891 C1890 1.394 . S
C1891 C1892 1.383 . S
C1891 H1899 0.929 . S
C1892 C1891 1.383 . S
C1892 C1893 1.377 . S
C1893 H1877 0.930 . S
C1893 C1892 1.377 . S
C1893 C1894 1.379 . S
C1894 H1878 0.931 . S
C1894 C1888 1.383 . S
C1894 C1893 1.379 . S
H1895 C1889 0.959 . S
H1896 C1889 0.961 . S
H1897 C1889 0.960 . S
H1898 C1890 0.930 . S
H1899 C1891 0.929 . S
H1900 C1908 0.929 . S
H1901 C1910 0.930 . S
H1902 C1912 0.930 . S
H1903 C1915 0.929 . S
H1904 C1918 0.930 . S
H1905 C1920 0.960 . S
H1906 C1920 0.960 . S
H1907 C1920 0.960 . S
C1908 H1900 0.929 . S
C1908 C1909 1.377 . S
C1908 C1910 1.384 . S
C1909 C1908 1.377 . S
C1909 C1915 1.390 . S
C1910 H1901 0.930 . S
C1910 C1908 1.384 . S
C1910 C1911 1.372 . S
C1911 C1910 1.372 . S
C1911 C1912 1.400 . S
C1911 C1916 1.490 . S
C1912 H1902 0.930 . S
C1912 C1911 1.400 . S
C1912 C1915 1.386 . S
H1913 C1929 0.930 . S
H1914 C1930 0.931 . S
C1915 H1903 0.929 . S
C1915 C1909 1.390 . S
C1915 C1912 1.386 . S
C1916 C1911 1.490 . S
C1916 C1918 1.395 . S
C1916 C1919 1.403 . S
H1917 C1923 0.930 . S
C1918 H1904 0.930 . S
C1918 C1916 1.395 . S
C1918 C1921 1.403 . S
C1919 C1916 1.403 . S
C1919 C1920 1.524 . S
C1919 C1923 1.400 . S
C1920 H1905 0.960 . S
C1920 H1906 0.960 . S
C1920 H1907 0.960 . S
C1920 C1919 1.524 . S
C1921 C1918 1.403 . S
C1921 C1922 1.392 . S
C1921 C1925 1.495 . S
C1922 C1921 1.392 . S
C1922 C1923 1.385 . S
C1922 C1924 1.478 . S
C1923 H1917 0.930 . S
C1923 C1919 1.400 . S
C1923 C1922 1.385 . S
C1924 C1922 1.478 . S
C1924 C1926 1.381 . S
C1924 C1930 1.383 . S
C1925 C1921 1.495 . S
C1925 H1931 0.959 . S
C1925 H1932 0.961 . S
C1925 H1933 0.960 . S
C1926 C1924 1.381 . S
C1926 C1927 1.394 . S
C1926 H1934 0.930 . S
C1927 C1926 1.394 . S
C1927 C1928 1.383 . S
C1927 H1935 0.929 . S
C1928 C1927 1.383 . S
C1928 C1929 1.377 . S
C1929 H1913 0.930 . S
C1929 C1928 1.377 . S
C1929 C1930 1.379 . S
C1930 H1914 0.931 . S
C1930 C1924 1.383 . S
C1930 C1929 1.379 . S
H1931 C1925 0.959 . S
H1932 C1925 0.961 . S
H1933 C1925 0.960 . S
H1934 C1926 0.930 . S
H1935 C1927 0.929 . S
H1936 C1944 0.929 . S
H1937 C1946 0.930 . S
H1938 C1948 0.930 . S
H1939 C1951 0.929 . S
H1940 C1954 0.930 . S
H1941 C1956 0.960 . S
H1942 C1956 0.960 . S
H1943 C1956 0.960 . S
C1944 H1936 0.929 . S
C1944 C1945 1.377 . S
C1944 C1946 1.384 . S
C1945 C1944 1.377 . S
C1945 C1951 1.390 . S
C1946 H1937 0.930 . S
C1946 C1944 1.384 . S
C1946 C1947 1.372 . S
C1947 C1946 1.372 . S
C1947 C1948 1.400 . S
C1947 C1952 1.490 . S
C1948 H1938 0.930 . S
C1948 C1947 1.400 . S
C1948 C1951 1.386 . S
H1949 C1965 0.930 . S
H1950 C1966 0.931 . S
C1951 H1939 0.929 . S
C1951 C1945 1.390 . S
C1951 C1948 1.386 . S
C1952 C1947 1.490 . S
C1952 C1954 1.395 . S
C1952 C1955 1.403 . S
H1953 C1959 0.930 . S
C1954 H1940 0.930 . S
C1954 C1952 1.395 . S
C1954 C1957 1.403 . S
C1955 C1952 1.403 . S
C1955 C1956 1.524 . S
C1955 C1959 1.400 . S
C1956 H1941 0.960 . S
C1956 H1942 0.960 . S
C1956 H1943 0.960 . S
C1956 C1955 1.524 . S
C1957 C1954 1.403 . S
C1957 C1958 1.392 . S
C1957 C1961 1.495 . S
C1958 C1957 1.392 . S
C1958 C1959 1.385 . S
C1958 C1960 1.478 . S
C1959 H1953 0.930 . S
C1959 C1955 1.400 . S
C1959 C1958 1.385 . S
C1960 C1958 1.478 . S
C1960 C1962 1.381 . S
C1960 C1966 1.383 . S
C1961 C1957 1.495 . S
C1961 H1967 0.959 . S
C1961 H1968 0.961 . S
C1961 H1969 0.960 . S
C1962 C1960 1.381 . S
C1962 C1963 1.394 . S
C1962 H1970 0.930 . S
C1963 C1962 1.394 . S
C1963 C1964 1.383 . S
C1963 H1971 0.929 . S
C1964 C1963 1.383 . S
C1964 C1965 1.377 . S
C1965 H1949 0.930 . S
C1965 C1964 1.377 . S
C1965 C1966 1.379 . S
C1966 H1950 0.931 . S
C1966 C1960 1.383 . S
C1966 C1965 1.379 . S
H1967 C1961 0.959 . S
H1968 C1961 0.961 . S
H1969 C1961 0.960 . S
H1970 C1962 0.930 . S
H1971 C1963 0.929 . S
H1972 C1980 0.929 . S
H1973 C1982 0.930 . S
H1974 C1984 0.930 . S
H1975 C1987 0.929 . S
H1976 C1990 0.930 . S
H1977 C1992 0.960 . S
H1978 C1992 0.960 . S
H1979 C1992 0.960 . S
C1980 H1972 0.929 . S
C1980 C1981 1.377 . S
C1980 C1982 1.384 . S
C1981 C1980 1.377 . S
C1981 C1987 1.390 . S
C1982 H1973 0.930 . S
C1982 C1980 1.384 . S
C1982 C1983 1.372 . S
C1983 C1982 1.372 . S
C1983 C1984 1.400 . S
C1983 C1988 1.490 . S
C1984 H1974 0.930 . S
C1984 C1983 1.400 . S
C1984 C1987 1.386 . S
H1985 C2001 0.930 . S
H1986 C2002 0.931 . S
C1987 H1975 0.929 . S
C1987 C1981 1.390 . S
C1987 C1984 1.386 . S
C1988 C1983 1.490 . S
C1988 C1990 1.395 . S
C1988 C1991 1.403 . S
H1989 C1995 0.930 . S
C1990 H1976 0.930 . S
C1990 C1988 1.395 . S
C1990 C1993 1.403 . S
C1991 C1988 1.403 . S
C1991 C1992 1.524 . S
C1991 C1995 1.400 . S
C1992 H1977 0.960 . S
C1992 H1978 0.960 . S
C1992 H1979 0.960 . S
C1992 C1991 1.524 . S
C1993 C1990 1.403 . S
C1993 C1994 1.392 . S
C1993 C1997 1.495 . S
C1994 C1993 1.392 . S
C1994 C1995 1.385 . S
C1994 C1996 1.478 . S
C1995 H1989 0.930 . S
C1995 C1991 1.400 . S
C1995 C1994 1.385 . S
C1996 C1994 1.478 . S
C1996 C1998 1.381 . S
C1996 C2002 1.383 . S
C1997 C1993 1.495 . S
C1997 H2003 0.959 . S
C1997 H2004 0.961 . S
C1997 H2005 0.960 . S
C1998 C1996 1.381 . S
C1998 C1999 1.394 . S
C1998 H2006 0.930 . S
C1999 C1998 1.394 . S
C1999 C2000 1.383 . S
C1999 H2007 0.929 . S
C2000 C1999 1.383 . S
C2000 C2001 1.377 . S
C2001 H1985 0.930 . S
C2001 C2000 1.377 . S
C2001 C2002 1.379 . S
C2002 H1986 0.931 . S
C2002 C1996 1.383 . S
C2002 C2001 1.379 . S
H2003 C1997 0.959 . S
H2004 C1997 0.961 . S
H2005 C1997 0.960 . S
H2006 C1998 0.930 . S
H2007 C1999 0.929 . S
H2008 C2016 0.929 . S
H2009 C2018 0.930 . S
H2010 C2020 0.930 . S
H2011 C2023 0.929 . S
H2012 C2026 0.930 . S
H2013 C2028 0.960 . S
H2014 C2028 0.960 . S
H2015 C2028 0.960 . S
C2016 H2008 0.929 . S
C2016 C2017 1.377 . S
C2016 C2018 1.384 . S
C2017 C2016 1.377 . S
C2017 C2023 1.390 . S
C2018 H2009 0.930 . S
C2018 C2016 1.384 . S
C2018 C2019 1.372 . S
C2019 C2018 1.372 . S
C2019 C2020 1.400 . S
C2019 C2024 1.490 . S
C2020 H2010 0.930 . S
C2020 C2019 1.400 . S
C2020 C2023 1.386 . S
H2021 C2037 0.930 . S
H2022 C2038 0.931 . S
C2023 H2011 0.929 . S
C2023 C2017 1.390 . S
C2023 C2020 1.386 . S
C2024 C2019 1.490 . S
C2024 C2026 1.395 . S
C2024 C2027 1.403 . S
H2025 C2031 0.930 . S
C2026 H2012 0.930 . S
C2026 C2024 1.395 . S
C2026 C2029 1.403 . S
C2027 C2024 1.403 . S
C2027 C2028 1.524 . S
C2027 C2031 1.400 . S
C2028 H2013 0.960 . S
C2028 H2014 0.960 . S
C2028 H2015 0.960 . S
C2028 C2027 1.524 . S
C2029 C2026 1.403 . S
C2029 C2030 1.392 . S
C2029 C2033 1.495 . S
C2030 C2029 1.392 . S
C2030 C2031 1.385 . S
C2030 C2032 1.478 . S
C2031 H2025 0.930 . S
C2031 C2027 1.400 . S
C2031 C2030 1.385 . S
C2032 C2030 1.478 . S
C2032 C2034 1.381 . S
C2032 C2038 1.383 . S
C2033 C2029 1.495 . S
C2033 H2039 0.959 . S
C2033 H2040 0.961 . S
C2033 H2041 0.960 . S
C2034 C2032 1.381 . S
C2034 C2035 1.394 . S
C2034 H2042 0.930 . S
C2035 C2034 1.394 . S
C2035 C2036 1.383 . S
C2035 H2043 0.929 . S
C2036 C2035 1.383 . S
C2036 C2037 1.377 . S
C2037 H2021 0.930 . S
C2037 C2036 1.377 . S
C2037 C2038 1.379 . S
C2038 H2022 0.931 . S
C2038 C2032 1.383 . S
C2038 C2037 1.379 . S
H2039 C2033 0.959 . S
H2040 C2033 0.961 . S
H2041 C2033 0.960 . S
H2042 C2034 0.930 . S
H2043 C2035 0.929 . S
H2044 C2052 0.929 . S
H2045 C2054 0.930 . S
H2046 C2056 0.930 . S
H2047 C2059 0.929 . S
H2048 C2062 0.930 . S
H2049 C2064 0.960 . S
H2050 C2064 0.960 . S
H2051 C2064 0.960 . S
C2052 H2044 0.929 . S
C2052 C2053 1.377 . S
C2052 C2054 1.384 . S
C2053 C2052 1.377 . S
C2053 C2059 1.390 . S
C2054 H2045 0.930 . S
C2054 C2052 1.384 . S
C2054 C2055 1.372 . S
C2055 C2054 1.372 . S
C2055 C2056 1.400 . S
C2055 C2060 1.490 . S
C2056 H2046 0.930 . S
C2056 C2055 1.400 . S
C2056 C2059 1.386 . S
H2057 C2073 0.930 . S
H2058 C2074 0.931 . S
C2059 H2047 0.929 . S
C2059 C2053 1.390 . S
C2059 C2056 1.386 . S
C2060 C2055 1.490 . S
C2060 C2062 1.395 . S
C2060 C2063 1.403 . S
H2061 C2067 0.930 . S
C2062 H2048 0.930 . S
C2062 C2060 1.395 . S
C2062 C2065 1.403 . S
C2063 C2060 1.403 . S
C2063 C2064 1.524 . S
C2063 C2067 1.400 . S
C2064 H2049 0.960 . S
C2064 H2050 0.960 . S
C2064 H2051 0.960 . S
C2064 C2063 1.524 . S
C2065 C2062 1.403 . S
C2065 C2066 1.392 . S
C2065 C2069 1.495 . S
C2066 C2065 1.392 . S
C2066 C2067 1.385 . S
C2066 C2068 1.478 . S
C2067 H2061 0.930 . S
C2067 C2063 1.400 . S
C2067 C2066 1.385 . S
C2068 C2066 1.478 . S
C2068 C2070 1.381 . S
C2068 C2074 1.383 . S
C2069 C2065 1.495 . S
C2069 H2075 0.959 . S
C2069 H2076 0.961 . S
C2069 H2077 0.960 . S
C2070 C2068 1.381 . S
C2070 C2071 1.394 . S
C2070 H2078 0.930 . S
C2071 C2070 1.394 . S
C2071 C2072 1.383 . S
C2071 H2079 0.929 . S
C2072 C2071 1.383 . S
C2072 C2073 1.377 . S
C2073 H2057 0.930 . S
C2073 C2072 1.377 . S
C2073 C2074 1.379 . S
C2074 H2058 0.931 . S
C2074 C2068 1.383 . S
C2074 C2073 1.379 . S
H2075 C2069 0.959 . S
H2076 C2069 0.961 . S
H2077 C2069 0.960 . S
H2078 C2070 0.930 . S
H2079 C2071 0.929 . S
C361 C21 0.687 . S
C380 C279 0.732 . S
C397 C307 0.692 . S
C416 C29 0.695 . S
C433 C323 0.684 . S
C452 C59 0.640 . S
C469 C345 0.680 . S
C488 C87 0.630 . S
C505 C103 0.692 . S
C524 C197 0.683 . S
C541 C219 0.676 . S
C560 C117 0.721 . S
C577 C147 0.692 . S
C596 C241 0.709 . S
C613 C263 0.690 . S
C632 C161 0.709 . S
C649 C65 1.470 . S
C668 C7 1.481 . S
C685 C37 1.471 . S
C704 C73 1.469 . S
C721 C95 1.463 . S
C740 C139 1.455 . S
C757 C175 1.464 . S
C776 C131 1.474 . S
C793 C183 1.473 . S
C812 C227 1.469 . S
C829 C249 1.473 . S
C848 C205 1.470 . S
C865 C315 1.467 . S
C884 C271 1.467 . S
C901 C337 1.467 . S
C920 C301 1.462 . S
C937 C10 1.805 . S
C956 C76 1.785 . S
C973 C62 1.806 . S
C992 C30 1.785 . S
C1009 C164 1.822 . S
C1028 C96 1.831 . S
C1045 C140 1.826 . S
C1064 C120 1.810 . S
C1081 C252 1.805 . S
C1100 C186 1.785 . S
C1117 C230 1.807 . S
C1136 C208 1.785 . S
C1153 C272 1.825 . S
C1172 C338 1.837 . S
C1189 C316 1.821 . S
C1208 C304 1.824 . S
C1225 C18 1.404 . S
C1244 C150 1.385 . S
C1261 C32 1.401 . S
C1280 C162 1.397 . S
C1297 C106 1.407 . S
C1316 C52 1.387 . S
C1333 C118 1.402 . S
C1352 C84 1.395 . S
C1369 C194 1.407 . S
C1388 C326 1.408 . S
C1405 C216 1.405 . S
C1424 C348 1.416 . S
C1441 C282 1.401 . S
C1460 C238 1.414 . S
C1477 C296 1.405 . S
C1496 C260 1.384 . S
C1513 C15 1.287 . S
C1532 C318 1.263 . S
C1549 C43 1.284 . S
C1568 C340 1.287 . S
C1585 C274 1.269 . S
C1604 C51 1.300 . S
C1621 C294 1.268 . S
C1640 C81 1.300 . S
C1657 C228 1.273 . S
C1676 C109 1.275 . S
C1693 C125 1.288 . S
C1712 C250 1.268 . S
C1729 C153 1.290 . S
C1748 C184 1.290 . S
C1765 C206 1.273 . S
C1784 C169 1.279 . S
C1801 C142 1.272 . S
C1820 C191 1.284 . S
C1837 C213 1.284 . S
C1856 C172 1.283 . S
C1873 C98 1.268 . S
C1892 C235 1.299 . S
C1909 C257 1.288 . S
C1928 C128 1.256 . S
C1945 C54 1.276 . S
C1964 C285 1.274 . S
C1981 C293 1.290 . S
C2000 C74 1.253 . S
C2017 C329 1.289 . S
C2036 C8 1.283 . S
C2053 C40 1.273 . S
C2072 C351 1.282 . S
