# Generated by pormake.
# Topology unm, (4)-cn, num edge types: 1
# Building blocks:
#     Node 0, Type 0, BuildingBlock: ICAMEG_clean_sbu_1, # of connection points: 4
#     Node 1, Type 0, BuildingBlock: ICAMEG_clean_sbu_1, # of connection points: 4
#     Node 2, Type 0, BuildingBlock: ICAMEG_clean_sbu_1, # of connection points: 4
#     Node 3, Type 0, BuildingBlock: ICAMEG_clean_sbu_1, # of connection points: 4
#     Node 4, Type 0, BuildingBlock: ICAMEG_clean_sbu_1, # of connection points: 4
#     Node 5, Type 0, BuildingBlock: ICAMEG_clean_sbu_1, # of connection points: 4
#     Node 6, Type 0, BuildingBlock: ICAMEG_clean_sbu_1, # of connection points: 4
#     Node 7, Type 0, BuildingBlock: ICAMEG_clean_sbu_1, # of connection points: 4
#     Edge 8, Type (0, 0), BuildingBlock: KIFKEQ_clean_linker_1, # of connection points: 2
#     Edge 9, Type (0, 0), BuildingBlock: KIFKEQ_clean_linker_1, # of connection points: 2
#     Edge 10, Type (0, 0), BuildingBlock: KIFKEQ_clean_linker_1, # of connection points: 2
#     Edge 11, Type (0, 0), BuildingBlock: KIFKEQ_clean_linker_1, # of connection points: 2
#     Edge 12, Type (0, 0), BuildingBlock: KIFKEQ_clean_linker_1, # of connection points: 2
#     Edge 13, Type (0, 0), BuildingBlock: KIFKEQ_clean_linker_1, # of connection points: 2
#     Edge 14, Type (0, 0), BuildingBlock: KIFKEQ_clean_linker_1, # of connection points: 2
#     Edge 15, Type (0, 0), BuildingBlock: KIFKEQ_clean_linker_1, # of connection points: 2
#     Edge 16, Type (0, 0), BuildingBlock: KIFKEQ_clean_linker_1, # of connection points: 2
#     Edge 17, Type (0, 0), BuildingBlock: KIFKEQ_clean_linker_1, # of connection points: 2
#     Edge 18, Type (0, 0), BuildingBlock: KIFKEQ_clean_linker_1, # of connection points: 2
#     Edge 19, Type (0, 0), BuildingBlock: KIFKEQ_clean_linker_1, # of connection points: 2
#     Edge 20, Type (0, 0), BuildingBlock: KIFKEQ_clean_linker_1, # of connection points: 2
#     Edge 21, Type (0, 0), BuildingBlock: KIFKEQ_clean_linker_1, # of connection points: 2
#     Edge 22, Type (0, 0), BuildingBlock: KIFKEQ_clean_linker_1, # of connection points: 2
#     Edge 23, Type (0, 0), BuildingBlock: KIFKEQ_clean_linker_1, # of connection points: 2
# Relax obj value: 0.085
# Max RMSD: 0.086
# Mean RMSD: 0.086
data_MOF--net-unm--node1-ICAMEG_clean_sbu_1--edge1-KIFKEQ_clean_linker_1
_symmetry_space_group_name_H-M    P1
_symmetry_Int_Tables_number       1
_symmetry_cell_setting            triclinic
loop_
_symmetry_equiv_pos_as_xyz
'x, y, z'
_cell_length_a     25.702628
_cell_length_b     25.685894
_cell_length_c     51.3234
_cell_angle_alpha  90.060424
_cell_angle_beta   89.934814
_cell_angle_gamma 89.978027
loop_
_atom_site_label
_atom_site_type_symbol
_atom_site_fract_x
_atom_site_fract_y
_atom_site_fract_z
_atom_type_partial_charge
Co0 Co 0.18919 0.2644 0.14677 0.0
Co1 Co 0.24421 0.35732 0.18704 0.0
O2 O 0.24884 0.30125 0.16133 0.0
C3 C 0.24233 0.30332 0.09919 0.0
O4 O 0.24635 0.34903 0.1105 0.0
C5 C 0.31636 0.28036 0.21108 0.0
O6 O 0.28207 0.24389 0.20594 0.0
O7 O 0.1947 0.31652 0.20952 0.0
O8 O 0.15454 0.26289 0.18136 0.0
H9 H 0.15239 0.48228 0.24691 0.0
H10 H 0.29576 0.22405 0.13797 0.0
O11 O 0.22202 0.26522 0.11138 0.0
H12 H 0.20293 0.08373 0.18417 0.0
H13 H 0.10261 0.13089 0.08947 0.0
H14 H 0.07467 0.27185 0.15327 0.0
H15 H 0.15782 0.1653 0.1727 0.0
H16 H 0.17723 0.17756 0.1086 0.0
O17 O 0.30613 0.32771 0.20579 0.0
H18 H 0.15812 0.41192 0.2143 0.0
H19 H 0.32304 0.42246 0.21461 0.0
H20 H 0.99898 0.2259 0.13481 0.0
H21 H 0.34232 0.14289 0.14881 0.0
H22 H 0.01271 0.15487 0.10264 0.0
H23 H 0.29588 0.07213 0.17219 0.0
O24 O 0.15275 0.33118 0.13889 0.0
H25 H 0.4031 0.38479 0.13151 0.0
H26 H 0.24481 0.46648 0.16732 0.0
H27 H 0.30269 0.51762 0.13881 0.0
H28 H 0.38258 0.47678 0.12074 0.0
H29 H 0.34384 0.33494 0.15988 0.0
H30 H 0.3191 0.49266 0.24738 0.0
H31 H 0.23331 0.52311 0.26371 0.0
O32 O 0.18347 0.38827 0.16842 0.0
C33 C 0.15939 0.28326 0.20387 0.0
C34 C 0.19001 0.46939 0.23993 0.0
C35 C 0.28358 0.47515 0.24022 0.0
N36 N 0.24084 0.41311 0.21253 0.0
C37 C 0.1935 0.42961 0.22143 0.0
C38 C 0.28556 0.43525 0.22173 0.0
C39 C 0.23542 0.49226 0.24936 0.0
C40 C 0.27519 0.19322 0.14793 0.0
N41 N 0.22412 0.19937 0.15468 0.0
C42 C 0.3018 0.14745 0.15411 0.0
C43 C 0.27574 0.10779 0.16725 0.0
C44 C 0.2236 0.11429 0.174 0.0
C45 C 0.19829 0.16063 0.16754 0.0
C46 C 0.09612 0.16176 0.10347 0.0
C47 C 0.08099 0.24084 0.13938 0.0
C48 C 0.13822 0.18844 0.1143 0.0
N49 N 0.13033 0.22732 0.13208 0.0
C50 C 0.03797 0.21502 0.12895 0.0
C51 C 0.04569 0.17521 0.11088 0.0
C52 C 0.15256 0.3757 0.15 0.0
C53 C 0.36845 0.40305 0.1393 0.0
C54 C 0.27929 0.44836 0.15941 0.0
C55 C 0.31204 0.47756 0.14335 0.0
C56 C 0.35688 0.45463 0.13324 0.0
N57 N 0.2909 0.3978 0.16529 0.0
C58 C 0.33482 0.37507 0.15545 0.0
Co59 Co 0.24024 0.68282 0.64517 0.0
Co60 Co 0.15026 0.74125 0.68534 0.0
O61 O 0.20724 0.74468 0.66009 0.0
C62 C 0.21155 0.74197 0.59794 0.0
O63 O 0.16508 0.74777 0.60819 0.0
C64 C 0.2247 0.81809 0.7089 0.0
O65 O 0.26363 0.78661 0.70374 0.0
O66 O 0.19137 0.69346 0.70843 0.0
O67 O 0.233 0.6444 0.6787 0.0
H68 H 0.0258 0.65099 0.74587 0.0
H69 H 0.29306 0.78479 0.6398 0.0
O70 O 0.2472 0.71889 0.61074 0.0
H71 H 0.41451 0.67469 0.68968 0.0
H72 H 0.37261 0.58935 0.5899 0.0
H73 H 0.22101 0.56888 0.64793 0.0
H74 H 0.33052 0.63954 0.6745 0.0
H75 H 0.33062 0.66618 0.60969 0.0
O76 O 0.17822 0.80438 0.70371 0.0
H77 H 0.09707 0.656 0.71377 0.0
H78 H 0.08259 0.82066 0.71114 0.0
H79 H 0.26201 0.49102 0.62872 0.0
H80 H 0.37693 0.82138 0.65434 0.0
H81 H 0.33839 0.50097 0.59944 0.0
H82 H 0.43819 0.76622 0.67958 0.0
O83 O 0.17171 0.65417 0.63431 0.0
H84 H 0.12331 0.89735 0.62793 0.0
H85 H 0.0415 0.7404 0.66495 0.0
H86 H 0.99085 0.79672 0.63551 0.0
H87 H 0.03174 0.87596 0.61683 0.0
H88 H 0.1727 0.83957 0.6572 0.0
H89 H 0.01152 0.81744 0.74341 0.0
H90 H 0.98253 0.73213 0.76093 0.0
O91 O 0.11971 0.67928 0.66723 0.0
C92 C 0.21656 0.65262 0.70176 0.0
C93 C 0.03802 0.68839 0.73835 0.0
C94 C 0.03006 0.78182 0.737 0.0
N95 N 0.09389 0.73855 0.71051 0.0
C96 C 0.0783 0.69148 0.72013 0.0
C97 C 0.07047 0.78341 0.7188 0.0
C98 C 0.01379 0.73393 0.74681 0.0
C99 C 0.31981 0.76041 0.65051 0.0
N100 N 0.30704 0.71007 0.6562 0.0
C101 C 0.36712 0.78139 0.6588 0.0
C102 C 0.40144 0.75045 0.67299 0.0
C103 C 0.38815 0.6991 0.67869 0.0
C104 C 0.34048 0.67945 0.6701 0.0
C105 C 0.33938 0.5845 0.60264 0.0
C106 C 0.25438 0.57356 0.63534 0.0
C107 C 0.31536 0.62787 0.61386 0.0
N108 N 0.2735 0.62204 0.63005 0.0
C109 C 0.27737 0.52931 0.62446 0.0
C110 C 0.32018 0.53492 0.60801 0.0
C111 C 0.129 0.65192 0.64695 0.0
C112 C 0.10503 0.86298 0.63598 0.0
C113 C 0.05967 0.77454 0.65675 0.0
C114 C 0.03073 0.80644 0.64018 0.0
C115 C 0.05368 0.85092 0.62973 0.0
N116 N 0.11001 0.78662 0.66281 0.0
C117 C 0.13275 0.8302 0.65264 0.0
Co118 Co 0.8292 0.74544 0.14444 0.0
Co119 Co 0.77335 0.65723 0.18747 0.0
O120 O 0.76882 0.71084 0.1602 0.0
C121 C 0.77236 0.703 0.0984 0.0
O122 O 0.75808 0.66228 0.11205 0.0
C123 C 0.69556 0.73561 0.20729 0.0
O124 O 0.71984 0.77264 0.1946 0.0
O125 O 0.82429 0.69938 0.20833 0.0
O126 O 0.86296 0.75169 0.1791 0.0
H127 H 0.86661 0.53729 0.24908 0.0
H128 H 0.72411 0.78596 0.13228 0.0
O129 O 0.79841 0.73967 0.10879 0.0
H130 H 0.81541 0.93102 0.17552 0.0
H131 H 0.91858 0.87009 0.08334 0.0
H132 H 0.94344 0.73778 0.15176 0.0
H133 H 0.85986 0.84724 0.16798 0.0
H134 H 0.84299 0.82681 0.10351 0.0
O135 O 0.71316 0.68918 0.20705 0.0
H136 H 0.86006 0.60456 0.21499 0.0
H137 H 0.69509 0.59544 0.21743 0.0
H138 H 0.02005 0.78043 0.13226 0.0
H139 H 0.67837 0.86937 0.13903 0.0
H140 H 0.00788 0.84709 0.09777 0.0
H141 H 0.72401 0.94253 0.16093 0.0
O142 O 0.86515 0.67774 0.13877 0.0
H143 H 0.61046 0.62673 0.13547 0.0
H144 H 0.77021 0.54639 0.17016 0.0
H145 H 0.70966 0.49335 0.14404 0.0
H146 H 0.62899 0.53348 0.12656 0.0
H147 H 0.67241 0.67847 0.16138 0.0
H148 H 0.69989 0.52841 0.2517 0.0
H149 H 0.78612 0.49876 0.26769 0.0
O150 O 0.83247 0.62312 0.16879 0.0
C151 C 0.8588 0.73291 0.20195 0.0
C152 C 0.82881 0.54983 0.24225 0.0
C153 C 0.73524 0.54491 0.24375 0.0
N154 N 0.77727 0.6039 0.21418 0.0
C155 C 0.82485 0.58785 0.22291 0.0
C156 C 0.73278 0.58303 0.2244 0.0
C157 C 0.78364 0.52826 0.2527 0.0
C158 C 0.74439 0.81782 0.14155 0.0
N159 N 0.79456 0.81172 0.14976 0.0
C160 C 0.71822 0.86487 0.14544 0.0
C161 C 0.74382 0.90586 0.15777 0.0
C162 C 0.79507 0.8994 0.166 0.0
C163 C 0.81997 0.85178 0.16181 0.0
C164 C 0.92438 0.84117 0.09838 0.0
C165 C 0.93778 0.76699 0.13688 0.0
C166 C 0.88173 0.81645 0.10984 0.0
N167 N 0.88876 0.78003 0.12892 0.0
C168 C 0.98133 0.79091 0.12586 0.0
C169 C 0.97448 0.82826 0.10649 0.0
C170 C 0.86395 0.63383 0.15033 0.0
C171 C 0.64538 0.60875 0.14305 0.0
C172 C 0.73538 0.56422 0.1625 0.0
C173 C 0.70112 0.53394 0.1478 0.0
C174 C 0.65585 0.55646 0.13802 0.0
N175 N 0.72479 0.61545 0.16742 0.0
C176 C 0.6805 0.6378 0.15786 0.0
Co177 Co 0.76533 0.32297 0.64681 0.0
Co178 Co 0.86076 0.27026 0.68632 0.0
O179 O 0.80379 0.26429 0.66129 0.0
C180 C 0.80514 0.27009 0.59949 0.0
O181 O 0.85061 0.26685 0.61101 0.0
C182 C 0.78491 0.19838 0.71125 0.0
O183 O 0.74827 0.23224 0.70571 0.0
O184 O 0.82053 0.32037 0.70879 0.0
O185 O 0.76382 0.35804 0.68133 0.0
H186 H 0.98746 0.36511 0.74383 0.0
H187 H 0.72708 0.21549 0.63838 0.0
O188 O 0.76644 0.28978 0.6115 0.0
H189 H 0.58629 0.30548 0.68579 0.0
H190 H 0.62871 0.40582 0.59013 0.0
H191 H 0.77023 0.43778 0.65294 0.0
H192 H 0.6664 0.35234 0.67355 0.0
H193 H 0.67759 0.33248 0.60914 0.0
O194 O 0.83222 0.20886 0.70598 0.0
H195 H 0.91573 0.35773 0.71217 0.0
H196 H 0.92748 0.19282 0.71389 0.0
H197 H 0.72206 0.51222 0.63459 0.0
H198 H 0.6474 0.16719 0.65 0.0
H199 H 0.65074 0.49646 0.60293 0.0
H200 H 0.57643 0.2122 0.67399 0.0
O201 O 0.83097 0.36074 0.63838 0.0
H202 H 0.88721 0.10934 0.63202 0.0
H203 H 0.96897 0.26969 0.66534 0.0
H204 H 0.01935 0.21109 0.63678 0.0
H205 H 0.97846 0.13016 0.61995 0.0
H206 H 0.83811 0.16932 0.6604 0.0
H207 H 0.99906 0.19841 0.74574 0.0
H208 H 0.02961 0.28504 0.76086 0.0
O209 O 0.89049 0.33049 0.66675 0.0
C210 C 0.78584 0.35452 0.70349 0.0
C211 C 0.97454 0.32714 0.73737 0.0
C212 C 0.98099 0.23358 0.73847 0.0
N213 N 0.91747 0.27492 0.71115 0.0
C214 C 0.93399 0.32271 0.71941 0.0
C215 C 0.9403 0.23065 0.7205 0.0
C216 C 0.99814 0.2822 0.74693 0.0
C217 C 0.69612 0.23544 0.64858 0.0
N218 N 0.70133 0.28669 0.65524 0.0
C219 C 0.6512 0.20786 0.6552 0.0
C220 C 0.61142 0.23311 0.6687 0.0
C221 C 0.61695 0.28544 0.67534 0.0
C222 C 0.66246 0.31175 0.66844 0.0
C223 C 0.65968 0.41319 0.60392 0.0
C224 C 0.73909 0.43058 0.63927 0.0
C225 C 0.6876 0.37182 0.61469 0.0
N226 N 0.72661 0.38083 0.6322 0.0
C227 C 0.71202 0.4729 0.6289 0.0
C228 C 0.67204 0.46403 0.61112 0.0
C229 C 0.87628 0.36121 0.64856 0.0
C230 C 0.90549 0.14443 0.63927 0.0
C231 C 0.95084 0.23473 0.65799 0.0
C232 C 0.9796 0.20159 0.64189 0.0
C233 C 0.95666 0.15617 0.63248 0.0
N234 N 0.90068 0.22295 0.66458 0.0
C235 C 0.87793 0.17847 0.65543 0.0
Co236 Co 0.6864 0.23457 0.36203 0.0
Co237 Co 0.74301 0.14757 0.31984 0.0
O238 O 0.74766 0.20326 0.34574 0.0
C239 C 0.74947 0.20562 0.40794 0.0
O240 O 0.75519 0.15938 0.39737 0.0
C241 C 0.81912 0.22336 0.29678 0.0
O242 O 0.78805 0.26212 0.30283 0.0
O243 O 0.69412 0.19 0.29796 0.0
O244 O 0.64558 0.22775 0.32914 0.0
H245 H 0.64994 0.02626 0.25877 0.0
H246 H 0.7875 0.28942 0.36604 0.0
O247 O 0.72488 0.24114 0.39577 0.0
H248 H 0.67134 0.4104 0.31941 0.0
H249 H 0.5946 0.36359 0.41996 0.0
H250 H 0.57295 0.21247 0.36169 0.0
H251 H 0.63917 0.32499 0.33431 0.0
H252 H 0.67063 0.32381 0.39836 0.0
O253 O 0.80522 0.17658 0.30115 0.0
H254 H 0.65649 0.09585 0.29174 0.0
H255 H 0.82113 0.08137 0.29217 0.0
H256 H 0.49583 0.25124 0.3827 0.0
H257 H 0.82114 0.37473 0.35175 0.0
H258 H 0.50639 0.32739 0.4121 0.0
H259 H 0.76292 0.43577 0.32815 0.0
O260 O 0.66016 0.16504 0.37281 0.0
H261 H 0.90178 0.11757 0.37494 0.0
H262 H 0.74317 0.03764 0.33876 0.0
H263 H 0.80089 0.98541 0.36678 0.0
H264 H 0.88096 0.02535 0.38503 0.0
H265 H 0.84261 0.16855 0.3471 0.0
H266 H 0.81637 0.01198 0.25902 0.0
H267 H 0.73029 0.98384 0.24217 0.0
O268 O 0.68205 0.11585 0.3383 0.0
C269 C 0.65289 0.21332 0.30564 0.0
C270 C 0.68768 0.03812 0.26599 0.0
C271 C 0.78109 0.03016 0.2661 0.0
N272 N 0.73912 0.09257 0.29395 0.0
C273 C 0.69163 0.07745 0.2847 0.0
C274 C 0.78354 0.06962 0.28481 0.0
C275 C 0.73277 0.01437 0.25667 0.0
C276 C 0.7618 0.31604 0.35604 0.0
N277 N 0.71142 0.30235 0.3511 0.0
C278 C 0.78112 0.36418 0.34789 0.0
C279 C 0.74846 0.39837 0.33461 0.0
C280 C 0.69708 0.38414 0.32968 0.0
C281 C 0.67913 0.33566 0.33809 0.0
C282 C 0.58947 0.33049 0.40715 0.0
C283 C 0.57784 0.24579 0.37429 0.0
C284 C 0.63239 0.30773 0.3949 0.0
N285 N 0.6262 0.26607 0.37861 0.0
C286 C 0.53403 0.2675 0.38621 0.0
C287 C 0.53999 0.31017 0.40272 0.0
C288 C 0.65684 0.12329 0.35944 0.0
C289 C 0.86705 0.0997 0.36707 0.0
C290 C 0.7777 0.05541 0.34676 0.0
C291 C 0.81037 0.02557 0.36254 0.0
C292 C 0.85532 0.04798 0.37275 0.0
N293 N 0.78946 0.1061 0.34125 0.0
C294 C 0.83348 0.12832 0.3512 0.0
Co295 Co 0.26047 0.18962 0.85977 0.0
Co296 Co 0.35627 0.24224 0.82039 0.0
O297 O 0.29907 0.2483 0.84535 0.0
C298 C 0.29897 0.24331 0.90718 0.0
O299 O 0.34476 0.24652 0.89593 0.0
C300 C 0.28113 0.31478 0.79538 0.0
O301 O 0.24417 0.28114 0.80071 0.0
O302 O 0.31601 0.19257 0.79778 0.0
O303 O 0.25968 0.15434 0.82528 0.0
H304 H 0.48288 0.14713 0.76275 0.0
H305 H 0.22175 0.2971 0.8679 0.0
O306 O 0.26076 0.2231 0.89503 0.0
H307 H 0.0821 0.20649 0.82015 0.0
H308 H 0.12321 0.10688 0.91623 0.0
H309 H 0.26548 0.07479 0.85369 0.0
H310 H 0.16215 0.1599 0.83272 0.0
H311 H 0.17218 0.18019 0.89722 0.0
O312 O 0.32827 0.30396 0.80083 0.0
H313 H 0.41103 0.15466 0.79442 0.0
H314 H 0.42363 0.31952 0.79305 0.0
H315 H 0.21723 1.00039 0.87204 0.0
H316 H 0.14211 0.34512 0.85596 0.0
H317 H 0.14554 0.01621 0.90357 0.0
H318 H 0.07171 0.2998 0.83179 0.0
O319 O 0.32604 0.15194 0.86846 0.0
H320 H 0.38305 0.40257 0.87503 0.0
H321 H 0.46433 0.24207 0.84144 0.0
H322 H 0.51478 0.3002 0.87013 0.0
H323 H 0.47414 0.3812 0.88709 0.0
H324 H 0.33387 0.34305 0.84652 0.0
H325 H 0.49533 0.31377 0.7612 0.0
H326 H 0.52552 0.22709 0.74589 0.0
O327 O 0.38553 0.18164 0.83985 0.0
C328 C 0.28163 0.15812 0.80309 0.0
C329 C 0.47013 0.18512 0.76929 0.0
C330 C 0.47705 0.27865 0.76839 0.0
N331 N 0.41318 0.23745 0.79562 0.0
C332 C 0.42951 0.18963 0.78726 0.0
C333 C 0.4363 0.28166 0.78636 0.0
C334 C 0.494 0.23 0.75983 0.0
C335 C 0.19104 0.27701 0.85762 0.0
N336 N 0.19653 0.22574 0.85105 0.0
C337 C 0.14614 0.30444 0.85082 0.0
C338 C 0.10668 0.27901 0.83723 0.0
C339 C 0.11251 0.22666 0.83067 0.0
C340 C 0.15798 0.20051 0.83776 0.0
C341 C 0.15436 0.09949 0.9025 0.0
C342 C 0.2342 0.08202 0.86731 0.0
C343 C 0.18234 0.14083 0.89174 0.0
N344 N 0.22159 0.13179 0.87432 0.0
C345 C 0.20707 0.03972 0.87768 0.0
C346 C 0.16689 0.04862 0.89538 0.0
C347 C 0.37126 0.15108 0.85812 0.0
C348 C 0.40122 0.36744 0.86773 0.0
C349 C 0.4463 0.27705 0.84886 0.0
C350 C 0.47511 0.30993 0.86503 0.0
C351 C 0.4523 0.35539 0.87452 0.0
N352 N 0.39623 0.28913 0.84227 0.0
C353 C 0.37362 0.33365 0.8515 0.0
Co354 Co 0.32614 0.76159 0.35729 0.0
Co355 Co 0.27326 0.86452 0.32263 0.0
O356 O 0.26753 0.80338 0.34511 0.0
C357 C 0.27721 0.7983 0.40615 0.0
O358 O 0.27365 0.84435 0.39524 0.0
C359 C 0.19806 0.79396 0.29566 0.0
O360 O 0.22871 0.75446 0.30093 0.0
O361 O 0.32292 0.82807 0.29842 0.0
O362 O 0.35814 0.76297 0.32193 0.0
H363 H 0.36799 1.00129 0.27108 0.0
H364 H 0.21846 0.72536 0.36722 0.0
O365 O 0.29589 0.76005 0.39334 0.0
H366 H 0.29964 0.58797 0.31367 0.0
H367 H 0.40878 0.61644 0.40849 0.0
H368 H 0.44034 0.76332 0.34873 0.0
H369 H 0.3499 0.66534 0.32698 0.0
H370 H 0.33571 0.66972 0.3924 0.0
O371 O 0.21168 0.84004 0.30185 0.0
H372 H 0.36063 0.92434 0.29952 0.0
H373 H 0.19584 0.936 0.29814 0.0
H374 H 0.51448 0.71081 0.36415 0.0
H375 H 0.16687 0.64836 0.35459 0.0
H376 H 0.49892 0.63678 0.39428 0.0
H377 H 0.20744 0.57912 0.32751 0.0
O378 O 0.36698 0.82486 0.36683 0.0
H379 H 0.11318 0.88197 0.37836 0.0
H380 H 0.27334 0.96877 0.34824 0.0
H381 H 0.21527 0.01421 0.37905 0.0
H382 H 0.13446 0.97079 0.39429 0.0
H383 H 0.17262 0.83776 0.34778 0.0
H384 H 0.20138 0.01283 0.26952 0.0
H385 H 0.28794 0.04606 0.25584 0.0
O386 O 0.33361 0.89052 0.34317 0.0
C387 C 0.35489 0.79026 0.30125 0.0
C388 C 0.33004 0.98715 0.27687 0.0
C389 C 0.23654 0.99358 0.27597 0.0
N390 N 0.27789 0.92546 0.30039 0.0
C391 C 0.32564 0.94356 0.29298 0.0
C392 C 0.23364 0.94987 0.29208 0.0
C393 C 0.28512 0.01224 0.26832 0.0
C394 C 0.2365 0.6951 0.35568 0.0
N395 N 0.28714 0.69974 0.3479 0.0
C396 C 0.20705 0.65172 0.34849 0.0
C397 C 0.22981 0.61292 0.33326 0.0
C398 C 0.28154 0.61787 0.32547 0.0
C399 C 0.30976 0.66184 0.333 0.0
C400 C 0.41606 0.64857 0.39535 0.0
C401 C 0.43322 0.731 0.36172 0.0
C402 C 0.37485 0.67895 0.38623 0.0
N403 N 0.38373 0.71944 0.36955 0.0
C404 C 0.47537 0.70148 0.37044 0.0
C405 C 0.46662 0.65998 0.38736 0.0
C406 C 0.36638 0.87226 0.3594 0.0
C407 C 0.14822 0.90135 0.37182 0.0
C408 C 0.23839 0.94954 0.35486 0.0
C409 C 0.20557 0.97552 0.37225 0.0
C410 C 0.16022 0.95115 0.38078 0.0
N411 N 0.22635 0.90072 0.34614 0.0
C412 C 0.18194 0.87659 0.35441 0.0
Co413 Co 0.73534 0.83003 0.86091 0.0
Co414 Co 0.64847 0.7714 0.81935 0.0
O415 O 0.70407 0.7679 0.84536 0.0
C416 C 0.70737 0.76716 0.90728 0.0
O417 O 0.6626 0.75666 0.89617 0.0
C418 C 0.72459 0.69497 0.79663 0.0
O419 O 0.7631 0.72664 0.80221 0.0
O420 O 0.69075 0.81947 0.79693 0.0
O421 O 0.72891 0.86901 0.8275 0.0
H422 H 0.52735 0.86175 0.75728 0.0
H423 H 0.78979 0.72898 0.86627 0.0
O424 O 0.7416 0.79383 0.89528 0.0
H425 H 0.91147 0.84232 0.8183 0.0
H426 H 0.86354 0.92511 0.91777 0.0
H427 H 0.71378 0.94359 0.85855 0.0
H428 H 0.82611 0.87561 0.83273 0.0
H429 H 0.82399 0.84783 0.89726 0.0
O430 O 0.67779 0.70851 0.80124 0.0
H431 H 0.59661 0.85672 0.79039 0.0
H432 H 0.58274 0.69197 0.79243 0.0
H433 H 0.75235 0.0219 0.87847 0.0
H434 H 0.87502 0.69422 0.85246 0.0
H435 H 0.8278 0.01295 0.90835 0.0
H436 H 0.93642 0.75103 0.82819 0.0
O437 O 0.66583 0.85683 0.87133 0.0
H438 H 0.61825 0.61387 0.8754 0.0
H439 H 0.53871 0.77206 0.83847 0.0
H440 H 0.48638 0.71502 0.86684 0.0
H441 H 0.52611 0.63515 0.88546 0.0
H442 H 0.66935 0.6724 0.84722 0.0
H443 H 0.51369 0.69522 0.75916 0.0
H444 H 0.48542 0.78059 0.74141 0.0
O445 O 0.61653 0.83318 0.8372 0.0
C446 C 0.71451 0.86074 0.80413 0.0
C447 C 0.53926 0.82433 0.76489 0.0
C448 C 0.53165 0.73086 0.76592 0.0
N449 N 0.59361 0.77413 0.79342 0.0
C450 C 0.5784 0.82123 0.78369 0.0
C451 C 0.57091 0.72926 0.7847 0.0
C452 C 0.51578 0.77877 0.75598 0.0
C453 C 0.81657 0.75406 0.85597 0.0
N454 N 0.80312 0.80428 0.8504 0.0
C455 C 0.86466 0.73411 0.8481 0.0
C456 C 0.89905 0.76598 0.83445 0.0
C457 C 0.88506 0.8172 0.82887 0.0
C458 C 0.83662 0.83578 0.83702 0.0
C459 C 0.83072 0.92953 0.90476 0.0
C460 C 0.74676 0.93935 0.8714 0.0
C461 C 0.80808 0.8859 0.89313 0.0
N462 N 0.76673 0.89118 0.87662 0.0
C463 C 0.76837 0.98386 0.88268 0.0
C464 C 0.81066 0.9788 0.89946 0.0
C465 C 0.62412 0.8596 0.85796 0.0
C466 C 0.60047 0.64851 0.86737 0.0
C467 C 0.5564 0.73766 0.84666 0.0
C468 C 0.52651 0.70535 0.86262 0.0
C469 C 0.5488 0.66051 0.87304 0.0
N470 N 0.60705 0.72565 0.84118 0.0
C471 C 0.62915 0.68171 0.85131 0.0
H472 H 0.28808 0.37405 0.06599 0.0
H473 H 0.2289 0.21663 0.06935 0.0
H474 H 0.30423 0.36339 0.01913 0.0
H475 H 0.24483 0.20645 0.023 0.0
H476 H 0.2125 0.23066 0.93728 0.0
H477 H 0.20275 0.24786 0.98356 0.0
H478 H 0.35958 0.30748 0.98665 0.0
H479 H 0.36978 0.2901 0.93989 0.0
C480 C 0.27892 0.33716 0.05684 0.0
C481 C 0.25674 0.29639 0.07141 0.0
C482 C 0.28831 0.33106 0.03007 0.0
C483 C 0.27511 0.28434 0.0174 0.0
C484 C 0.25455 0.24321 0.03216 0.0
C485 C 0.24567 0.24905 0.0588 0.0
C486 C 0.24495 0.24779 0.94764 0.0
C487 C 0.29215 0.25852 0.93486 0.0
C488 C 0.23936 0.2574 0.97424 0.0
C489 C 0.28062 0.27838 0.98876 0.0
C490 C 0.32716 0.29128 0.97589 0.0
C491 C 0.333 0.28116 0.94917 0.0
H492 H 0.29977 0.72522 0.56948 0.0
H493 H 0.1454 0.79116 0.5639 0.0
H494 H 0.31332 0.74087 0.52325 0.0
H495 H 0.15919 0.80665 0.51735 0.0
H496 H 0.23081 0.86865 0.4391 0.0
H497 H 0.21429 0.85868 0.48582 0.0
H498 H 0.27639 0.70258 0.48278 0.0
H499 H 0.29309 0.71238 0.43637 0.0
C500 C 0.2688 0.74344 0.55847 0.0
C501 C 0.2213 0.75657 0.57041 0.0
C502 C 0.2765 0.75207 0.5319 0.0
C503 C 0.23708 0.77435 0.51659 0.0
C504 C 0.19031 0.78947 0.52866 0.0
C505 C 0.1824 0.78047 0.55531 0.0
C506 C 0.24066 0.83211 0.44839 0.0
C507 C 0.26356 0.79143 0.43401 0.0
C508 C 0.23103 0.82639 0.47512 0.0
C509 C 0.24457 0.78007 0.48801 0.0
C510 C 0.26635 0.73907 0.47348 0.0
C511 C 0.27557 0.7446 0.44682 0.0
H512 H 0.83929 0.73629 0.06165 0.0
H513 H 0.68448 0.6747 0.07151 0.0
H514 H 0.82474 0.74524 0.01526 0.0
H515 H 0.66771 0.68745 0.02494 0.0
H516 H 0.66508 0.68664 0.93546 0.0
H517 H 0.68144 0.66535 0.98124 0.0
H518 H 0.78311 0.79914 0.9871 0.0
H519 H 0.76949 0.81764 0.9415 0.0
C520 C 0.80179 0.72514 0.05378 0.0
C521 C 0.76279 0.70534 0.07011 0.0
C522 C 0.79312 0.73073 0.02715 0.0
C523 C 0.74448 0.71842 0.01615 0.0
C524 C 0.70578 0.69713 0.03251 0.0
C525 C 0.71513 0.69006 0.05923 0.0
C526 C 0.69129 0.71096 0.94664 0.0
C527 C 0.71658 0.75331 0.93484 0.0
C528 C 0.70042 0.69908 0.97293 0.0
C529 C 0.7342 0.73003 0.98806 0.0
C530 C 0.75834 0.77307 0.97612 0.0
C531 C 0.75023 0.78406 0.94987 0.0
H532 H 0.7352 0.29396 0.43658 0.0
H533 H 0.79964 0.13874 0.44134 0.0
H534 H 0.75182 0.30673 0.48274 0.0
H535 H 0.81625 0.15187 0.4879 0.0
H536 H 0.87737 0.22475 0.567 0.0
H537 H 0.86874 0.20813 0.52013 0.0
H538 H 0.71133 0.26662 0.52246 0.0
H539 H 0.71961 0.28316 0.56886 0.0
C540 C 0.75339 0.26267 0.44738 0.0
C541 C 0.76558 0.21507 0.43527 0.0
C542 C 0.76263 0.26995 0.47391 0.0
C543 C 0.78461 0.23002 0.48899 0.0
C544 C 0.79924 0.1833 0.47672 0.0
C545 C 0.78961 0.1758 0.4501 0.0
C546 C 0.84083 0.23367 0.55751 0.0
C547 C 0.79934 0.25565 0.57167 0.0
C548 C 0.8359 0.22405 0.53072 0.0
C549 C 0.78962 0.23677 0.51761 0.0
C550 C 0.7478 0.25732 0.53194 0.0
C551 C 0.75251 0.26648 0.55862 0.0
H552 H 0.40191 0.3431 0.21567 0.0
H553 H 0.34833 0.18679 0.23131 0.0
H554 H 0.48609 0.32205 0.23497 0.0
H555 H 0.43268 0.16591 0.25069 0.0
H556 H 0.55556 0.18296 0.31683 0.0
H557 H 0.47673 0.19542 0.29145 0.0
H558 H 0.56712 0.2651 0.22967 0.0
H559 H 0.64704 0.25216 0.25548 0.0
C560 C 0.40808 0.30417 0.22316 0.0
C561 C 0.36802 0.26681 0.22223 0.0
C562 C 0.4566 0.292 0.23396 0.0
C563 C 0.46613 0.24234 0.24437 0.0
C564 C 0.42644 0.20465 0.24298 0.0
C565 C 0.37809 0.21663 0.2319 0.0
C566 C 0.55872 0.20067 0.29775 0.0
C567 C 0.60728 0.2171 0.2882 0.0
C568 C 0.51356 0.20737 0.28309 0.0
C569 C 0.51554 0.2313 0.25855 0.0
C570 C 0.56437 0.24677 0.24862 0.0
C571 C 0.61006 0.23916 0.26323 0.0
H572 H 0.15295 0.89466 0.71708 0.0
H573 H 0.31714 0.86223 0.72502 0.0
H574 H 0.16604 0.98081 0.73532 0.0
H575 H 0.33008 0.94886 0.74399 0.0
H576 H 0.34083 0.12415 0.76147 0.0
H577 H 0.32805 0.0442 0.7361 0.0
H578 H 0.18472 0.01534 0.77763 0.0
H579 H 0.19692 0.09455 0.8024 0.0
C580 C 0.19194 0.90574 0.72283 0.0
C581 C 0.23389 0.87099 0.71987 0.0
C582 C 0.19942 0.95535 0.73335 0.0
C583 C 0.24904 0.97184 0.74137 0.0
C584 C 0.29138 0.93768 0.73783 0.0
C585 C 0.2839 0.8878 0.72718 0.0
C586 C 0.306 0.10135 0.7647 0.0
C587 C 0.26993 0.11601 0.78402 0.0
C588 C 0.29902 0.05515 0.7504 0.0
C589 C 0.2555 0.02301 0.7549 0.0
C590 C 0.2184 0.03917 0.77335 0.0
C591 C 0.2255 0.08483 0.78767 0.0
H592 H 0.39891 0.69796 0.28699 0.0
H593 H 0.40579 0.86285 0.27177 0.0
H594 H 0.47831 0.68509 0.26204 0.0
H595 H 0.48726 0.85103 0.24835 0.0
H596 H 0.6246 0.81177 0.19562 0.0
H597 H 0.53775 0.82345 0.21397 0.0
H598 H 0.56594 0.69532 0.2668 0.0
H599 H 0.65088 0.68193 0.2472 0.0
C600 C 0.41716 0.73145 0.27801 0.0
C601 C 0.39595 0.7814 0.28138 0.0
C602 C 0.4634 0.7243 0.26403 0.0
C603 C 0.49071 0.76712 0.25363 0.0
C604 C 0.46775 0.81683 0.25582 0.0
C605 C 0.4207 0.82376 0.26929 0.0
C606 C 0.61211 0.78631 0.21124 0.0
C607 C 0.64462 0.74592 0.21996 0.0
C608 C 0.56219 0.79301 0.22186 0.0
C609 C 0.54384 0.76008 0.24185 0.0
C610 C 0.57736 0.72059 0.25094 0.0
C611 C 0.62664 0.71323 0.23993 0.0
H612 H 0.84945 0.11493 0.71898 0.0
H613 H 0.68966 0.16404 0.7282 0.0
H614 H 0.82785 0.03034 0.73768 0.0
H615 H 0.66814 0.07922 0.74683 0.0
H616 H 0.67589 0.95589 0.81301 0.0
H617 H 0.68977 0.03522 0.7881 0.0
H618 H 0.77638 0.9479 0.7306 0.0
H619 H 0.76215 0.86763 0.75597 0.0
C620 C 0.80966 0.10771 0.72494 0.0
C621 C 0.77142 0.14667 0.72239 0.0
C622 C 0.7972 0.05892 0.7354 0.0
C623 C 0.74629 0.04793 0.74375 0.0
C624 C 0.70785 0.08656 0.74078 0.0
C625 C 0.7202 0.13523 0.73012 0.0
C626 C 0.69731 0.95352 0.79484 0.0
C627 C 0.71807 0.90581 0.78638 0.0
C628 C 0.70501 0.99894 0.78048 0.0
C629 C 0.73424 0.99804 0.75736 0.0
C630 C 0.75393 0.94988 0.74844 0.0
C631 C 0.7455 0.90394 0.76276 0.0
H632 H 0.86335 0.31646 0.28158 0.0
H633 H 0.89583 0.15197 0.28839 0.0
H634 H 0.95031 0.33009 0.26313 0.0
H635 H 0.98225 0.16572 0.27074 0.0
H636 H 0.09626 0.19834 0.20417 0.0
H637 H 0.01706 0.18549 0.22874 0.0
H638 H 0.04559 0.32792 0.27118 0.0
H639 H 0.12563 0.34137 0.24595 0.0
C640 C 0.889 0.2833 0.27928 0.0
C641 C 0.8721 0.23301 0.28608 0.0
C642 C 0.93905 0.29117 0.26895 0.0
C643 C 0.9733 0.24894 0.26525 0.0
C644 C 0.95673 0.19904 0.27282 0.0
C645 C 0.90694 0.19117 0.28299 0.0
C646 C 0.08651 0.22657 0.21906 0.0
C647 C 0.11758 0.27096 0.22298 0.0
C648 C 0.04084 0.21909 0.23327 0.0
C649 C 0.02457 0.25577 0.25191 0.0
C650 C 0.05665 0.29921 0.25673 0.0
C651 C 0.10289 0.30657 0.24252 0.0
H652 H 0.26241 0.64552 0.75028 0.0
H653 H 0.17736 0.55789 0.69268 0.0
H654 H 0.27493 0.56524 0.77587 0.0
H655 H 0.18956 0.47853 0.71779 0.0
H656 H 0.18663 0.34974 0.77772 0.0
H657 H 0.16627 0.43467 0.75889 0.0
H658 H 0.32592 0.4825 0.76927 0.0
H659 H 0.34634 0.39783 0.78817 0.0
C660 C 0.24565 0.60934 0.74341 0.0
C661 C 0.21905 0.60764 0.71959 0.0
C662 C 0.2531 0.5634 0.75785 0.0
C663 C 0.23328 0.5154 0.74884 0.0
C664 C 0.20485 0.51469 0.72549 0.0
C665 C 0.19812 0.56011 0.71102 0.0
C666 C 0.21739 0.37836 0.77604 0.0
C667 C 0.26826 0.36659 0.78418 0.0
C668 C 0.20571 0.42709 0.76526 0.0
C669 C 0.24448 0.46545 0.76257 0.0
C670 C 0.29502 0.45414 0.77133 0.0
C671 C 0.30681 0.40529 0.78191 0.0
H672 H 0.15202 0.70137 0.28151 0.0
H673 H 0.12475 0.86732 0.28402 0.0
H674 H 0.06567 0.68862 0.26249 0.0
H675 H 0.03865 0.85447 0.26566 0.0
H676 H 0.92391 0.81646 0.1997 0.0
H677 H 1.00318 0.83067 0.22408 0.0
H678 H 0.9709 0.69448 0.27065 0.0
H679 H 0.89099 0.67963 0.24572 0.0
C680 C 0.12768 0.7351 0.27807 0.0
C681 C 0.14576 0.78543 0.284 0.0
C682 C 0.07792 0.72773 0.26743 0.0
C683 C 0.04512 0.77053 0.26246 0.0
C684 C 0.06302 0.82067 0.26885 0.0
C685 C 0.11256 0.82801 0.27943 0.0
C686 C 0.9329 0.78996 0.21545 0.0
C687 C 0.90082 0.74679 0.22064 0.0
C688 C 0.97858 0.79822 0.22953 0.0
C689 C 0.99381 0.76355 0.24926 0.0
C690 C 0.96069 0.72156 0.25533 0.0
C691 C 0.91451 0.71343 0.24126 0.0
H692 H 0.84515 0.38986 0.74471 0.0
H693 H 0.70007 0.41665 0.70449 0.0
H694 H 0.83145 0.46991 0.76992 0.0
H695 H 0.68697 0.49597 0.72906 0.0
H696 H 0.65403 0.6172 0.78904 0.0
H697 H 0.66832 0.53093 0.77118 0.0
H698 H 0.83181 0.56506 0.76192 0.0
H699 H 0.81767 0.65184 0.78055 0.0
C700 C 0.80988 0.41206 0.74161 0.0
C701 C 0.77373 0.39659 0.72253 0.0
C702 C 0.80236 0.45832 0.75582 0.0
C703 C 0.75824 0.48972 0.75145 0.0
C704 C 0.72112 0.47273 0.73324 0.0
C705 C 0.72873 0.42701 0.71904 0.0
C706 C 0.69316 0.60658 0.78323 0.0
C707 C 0.73459 0.64199 0.78592 0.0
C708 C 0.70133 0.55689 0.77293 0.0
C709 C 0.75114 0.54097 0.76484 0.0
C710 C 0.79299 0.57579 0.76814 0.0
C711 C 0.78481 0.62574 0.77859 0.0
H712 H 0.95477 0.64797 0.1232 0.0
H713 H 0.86327 0.52995 0.16203 0.0
H714 H 0.02503 0.585 0.11705 0.0
H715 H 0.93321 0.46726 0.15554 0.0
H716 H 0.15404 0.48078 0.15787 0.0
H717 H 0.08301 0.54214 0.15178 0.0
H718 H 0.98726 0.41917 0.12042 0.0
H719 H 0.0589 0.35741 0.12612 0.0
C720 C 0.94913 0.60844 0.12996 0.0
C721 C 0.90347 0.59417 0.1433 0.0
C722 C 0.98944 0.57248 0.12648 0.0
C723 C 0.98453 0.52134 0.13585 0.0
C724 C 0.93784 0.50628 0.14788 0.0
C725 C 0.89789 0.54236 0.15173 0.0
C726 C 0.11831 0.46687 0.14918 0.0
C727 C 0.11212 0.41406 0.14263 0.0
C728 C 0.07768 0.50217 0.14557 0.0
C729 C 0.02963 0.48535 0.1357 0.0
C730 C 0.02392 0.43305 0.12816 0.0
C731 C 0.065 0.3978 0.13134 0.0
H732 H 0.98201 0.36042 0.65381 0.0
H733 H 0.85502 0.45443 0.62499 0.0
H734 H 0.04199 0.43223 0.64627 0.0
H735 H 0.91532 0.52671 0.6179 0.0
H736 H 0.02651 0.64913 0.66084 0.0
H737 H 0.9649 0.57872 0.65397 0.0
H738 H 0.08055 0.49367 0.61023 0.0
H739 H 0.14238 0.56506 0.61644 0.0
C740 C 0.96701 0.39604 0.64544 0.0
C741 C 0.91361 0.4018 0.64022 0.0
C742 C 1.00149 0.43705 0.64096 0.0
C743 C 0.98319 0.48496 0.63157 0.0
C744 C 0.93029 0.4901 0.62521 0.0
C745 C 0.89588 0.44869 0.62923 0.0
C746 C 0.03862 0.61614 0.64919 0.0
C747 C 0.08959 0.61271 0.63934 0.0
C748 C 1.00313 0.57586 0.64518 0.0
C749 C 0.01805 0.53081 0.63162 0.0
C750 C 0.06821 0.52807 0.6208 0.0
C751 C 0.1035 0.56895 0.62435 0.0
H752 H 0.57554 0.13248 0.39393 0.0
H753 H 0.65132 0.02277 0.34239 0.0
H754 H 0.50557 0.06961 0.4013 0.0
H755 H 0.58231 0.96021 0.35022 0.0
H756 H 0.36467 0.97842 0.36075 0.0
H757 H 0.43777 0.03675 0.36815 0.0
H758 H 0.53631 0.90497 0.38507 0.0
H759 H 0.46282 0.8462 0.37792 0.0
C760 C 0.57799 0.09468 0.38464 0.0
C761 C 0.61889 0.0829 0.36737 0.0
C762 C 0.53791 0.05878 0.38887 0.0
C763 C 0.53861 0.01011 0.37634 0.0
C764 C 0.58107 0.99717 0.36039 0.0
C765 C 0.62054 0.03326 0.3558 0.0
C766 C 0.40156 0.96184 0.36662 0.0
C767 C 0.40806 0.90761 0.36845 0.0
C768 C 0.44335 0.99535 0.37104 0.0
C769 C 0.4927 0.97532 0.37705 0.0
C770 C 0.49863 0.92132 0.38035 0.0
C771 C 0.45654 0.88776 0.37632 0.0
H772 H 0.3491 0.05653 0.88008 0.0
H773 H 0.47712 0.15201 0.85371 0.0
H774 H 0.409 0.98348 0.88618 0.0
H775 H 0.53675 0.07948 0.8604 0.0
H776 H 0.52296 0.86416 0.84183 0.0
H777 H 0.46087 0.9343 0.84891 0.0
H778 H 0.57289 0.01526 0.89659 0.0
H779 H 0.63501 0.94415 0.89024 0.0
C780 C 0.39009 0.0624 0.8762 0.0
C781 C 0.40827 0.10997 0.86617 0.0
C782 C 0.42426 0.02055 0.87965 0.0
C783 C 0.47735 0.02597 0.87372 0.0
C784 C 0.49606 0.07445 0.86532 0.0
C785 C 0.46181 0.11589 0.86136 0.0
C786 C 0.53411 0.89617 0.85436 0.0
C787 C 0.58418 0.89855 0.86534 0.0
C788 C 0.49838 0.93627 0.85848 0.0
C789 C 0.5122 0.9801 0.87326 0.0
C790 C 0.56142 0.9818 0.88509 0.0
C791 C 0.59687 0.94107 0.88144 0.0
loop_
_geom_bond_atom_site_label_1
_geom_bond_atom_site_label_2
_geom_bond_distance
_geom_bond_site_symmetry_2
_ccdc_geom_bond_type
Co0 O2 2.143 . S
Co0 O8 2.074 . S
Co0 O11 2.093 . S
Co0 O24 2.097 . S
Co0 N41 2.151 . S
Co0 N49 2.214 . S
Co1 O2 2.160 . S
Co1 O7 2.058 . S
Co1 O17 2.057 . S
Co1 O32 2.037 . S
Co1 N36 2.145 . S
Co1 N57 2.257 . S
O2 Co0 2.143 . S
O2 Co1 2.160 . S
C3 O4 1.278 . S
C3 O11 1.224 . S
O4 C3 1.278 . S
C5 O6 1.245 . S
C5 O17 1.232 . S
O6 C5 1.245 . S
O7 Co1 2.058 . S
O7 C33 1.269 . S
O8 Co0 2.074 . S
O8 C33 1.257 . S
H9 C34 0.930 . S
H10 C40 0.930 . S
O11 Co0 2.093 . S
O11 C3 1.224 . S
H12 C44 0.929 . S
H13 C46 0.930 . S
H14 C47 0.930 . S
H15 C45 0.929 . S
H16 C48 0.928 . S
O17 Co1 2.057 . S
O17 C5 1.232 . S
H18 C37 0.929 . S
H19 C38 0.929 . S
H20 C50 0.931 . S
H21 C42 0.929 . S
H22 C51 0.930 . S
H23 C43 0.931 . S
O24 Co0 2.097 . S
O24 C52 1.214 . S
H25 C53 0.929 . S
H26 C54 0.929 . S
H27 C55 0.930 . S
H28 C56 0.929 . S
H29 C58 0.930 . S
H30 C35 0.930 . S
H31 C39 0.930 . S
O32 Co1 2.037 . S
O32 C52 1.234 . S
C33 O7 1.269 . S
C33 O8 1.257 . S
C34 H9 0.930 . S
C34 C37 1.388 . S
C34 C39 1.418 . S
C35 H30 0.930 . S
C35 C38 1.404 . S
C35 C39 1.353 . S
N36 Co1 2.145 . S
N36 C37 1.397 . S
N36 C38 1.334 . S
C37 H18 0.929 . S
C37 C34 1.388 . S
C37 N36 1.397 . S
C38 H19 0.929 . S
C38 C35 1.404 . S
C38 N36 1.334 . S
C39 H31 0.930 . S
C39 C34 1.418 . S
C39 C35 1.353 . S
C40 H10 0.930 . S
C40 N41 1.330 . S
C40 C42 1.446 . S
N41 Co0 2.151 . S
N41 C40 1.330 . S
N41 C45 1.418 . S
C42 H21 0.929 . S
C42 C40 1.446 . S
C42 C43 1.332 . S
C43 H23 0.931 . S
C43 C42 1.332 . S
C43 C44 1.267 . S
C44 H12 0.929 . S
C44 C43 1.267 . S
C44 C45 1.251 . S
C45 H15 0.929 . S
C45 N41 1.418 . S
C45 C44 1.251 . S
C46 H13 0.930 . S
C46 C48 1.406 . S
C46 C51 1.261 1_455 S
C47 H14 0.930 . S
C47 N49 1.325 . S
C47 C50 1.357 1_455 S
C48 H16 0.928 . S
C48 C46 1.406 . S
C48 N49 1.261 . S
N49 Co0 2.214 . S
N49 C47 1.325 . S
N49 C48 1.261 . S
C50 H20 0.931 . S
C50 C47 1.357 1_655 S
C50 C51 1.312 . S
C51 H22 0.930 . S
C51 C46 1.261 1_655 S
C51 C50 1.312 . S
C52 O24 1.214 . S
C52 O32 1.234 . S
C53 H25 0.929 . S
C53 C56 1.391 . S
C53 C58 1.391 . S
C54 H26 0.929 . S
C54 C55 1.390 . S
C54 N57 1.391 . S
C55 H27 0.930 . S
C55 C54 1.390 . S
C55 C56 1.392 . S
C56 H28 0.929 . S
C56 C53 1.391 . S
C56 C55 1.392 . S
N57 Co1 2.257 . S
N57 C54 1.391 . S
N57 C58 1.388 . S
C58 H29 0.930 . S
C58 C53 1.391 . S
C58 N57 1.388 . S
Co59 O61 2.143 . S
Co59 O67 2.074 . S
Co59 O70 2.093 . S
Co59 O83 2.097 . S
Co59 N100 2.151 . S
Co59 N108 2.214 . S
Co60 O61 2.160 . S
Co60 O66 2.058 . S
Co60 O76 2.057 . S
Co60 O91 2.037 . S
Co60 N95 2.145 . S
Co60 N116 2.257 . S
O61 Co59 2.143 . S
O61 Co60 2.160 . S
C62 O63 1.278 . S
C62 O70 1.224 . S
O63 C62 1.278 . S
C64 O65 1.245 . S
C64 O76 1.232 . S
O65 C64 1.245 . S
O66 Co60 2.058 . S
O66 C92 1.269 . S
O67 Co59 2.074 . S
O67 C92 1.257 . S
H68 C93 0.930 . S
H69 C99 0.930 . S
O70 Co59 2.093 . S
O70 C62 1.224 . S
H71 C103 0.929 . S
H72 C105 0.930 . S
H73 C106 0.930 . S
H74 C104 0.929 . S
H75 C107 0.928 . S
O76 Co60 2.057 . S
O76 C64 1.232 . S
H77 C96 0.929 . S
H78 C97 0.929 . S
H79 C109 0.931 . S
H80 C101 0.929 . S
H81 C110 0.930 . S
H82 C102 0.931 . S
O83 Co59 2.097 . S
O83 C111 1.214 . S
H84 C112 0.929 . S
H85 C113 0.929 . S
H86 C114 0.930 . S
H87 C115 0.929 1_655 S
H88 C117 0.930 . S
H89 C94 0.930 . S
H90 C98 0.930 1_655 S
O91 Co60 2.037 . S
O91 C111 1.234 . S
C92 O66 1.269 . S
C92 O67 1.257 . S
C93 H68 0.930 . S
C93 C96 1.388 . S
C93 C98 1.418 . S
C94 H89 0.930 . S
C94 C97 1.404 . S
C94 C98 1.353 . S
N95 Co60 2.145 . S
N95 C96 1.397 . S
N95 C97 1.334 . S
C96 H77 0.929 . S
C96 C93 1.388 . S
C96 N95 1.397 . S
C97 H78 0.929 . S
C97 C94 1.404 . S
C97 N95 1.334 . S
C98 H90 0.930 1_455 S
C98 C93 1.418 . S
C98 C94 1.353 . S
C99 H69 0.930 . S
C99 N100 1.330 . S
C99 C101 1.446 . S
N100 Co59 2.151 . S
N100 C99 1.330 . S
N100 C104 1.418 . S
C101 H80 0.929 . S
C101 C99 1.446 . S
C101 C102 1.332 . S
C102 H82 0.931 . S
C102 C101 1.332 . S
C102 C103 1.267 . S
C103 H71 0.929 . S
C103 C102 1.267 . S
C103 C104 1.251 . S
C104 H74 0.929 . S
C104 N100 1.418 . S
C104 C103 1.251 . S
C105 H72 0.930 . S
C105 C107 1.406 . S
C105 C110 1.261 . S
C106 H73 0.930 . S
C106 N108 1.325 . S
C106 C109 1.357 . S
C107 H75 0.928 . S
C107 C105 1.406 . S
C107 N108 1.261 . S
N108 Co59 2.214 . S
N108 C106 1.325 . S
N108 C107 1.261 . S
C109 H79 0.931 . S
C109 C106 1.357 . S
C109 C110 1.312 . S
C110 H81 0.930 . S
C110 C105 1.261 . S
C110 C109 1.312 . S
C111 O83 1.214 . S
C111 O91 1.234 . S
C112 H84 0.929 . S
C112 C115 1.391 . S
C112 C117 1.391 . S
C113 H85 0.929 . S
C113 C114 1.390 1_455 S
C113 N116 1.391 . S
C114 H86 0.930 . S
C114 C113 1.390 1_655 S
C114 C115 1.392 1_655 S
C115 H87 0.929 1_455 S
C115 C112 1.391 . S
C115 C114 1.392 1_455 S
N116 Co60 2.257 . S
N116 C113 1.391 . S
N116 C117 1.388 . S
C117 H88 0.930 . S
C117 C112 1.391 . S
C117 N116 1.388 . S
Co118 O120 2.143 . S
Co118 O126 2.074 . S
Co118 O129 2.093 . S
Co118 O142 2.097 . S
Co118 N159 2.151 . S
Co118 N167 2.214 . S
Co119 O120 2.160 . S
Co119 O125 2.058 . S
Co119 O135 2.057 . S
Co119 O150 2.037 . S
Co119 N154 2.145 . S
Co119 N175 2.257 . S
O120 Co118 2.143 . S
O120 Co119 2.160 . S
C121 O122 1.278 . S
C121 O129 1.224 . S
O122 C121 1.278 . S
C123 O124 1.245 . S
C123 O135 1.232 . S
O124 C123 1.245 . S
O125 Co119 2.058 . S
O125 C151 1.269 . S
O126 Co118 2.074 . S
O126 C151 1.257 . S
H127 C152 0.930 . S
H128 C158 0.930 . S
O129 Co118 2.093 . S
O129 C121 1.224 . S
H130 C162 0.929 . S
H131 C164 0.930 . S
H132 C165 0.930 . S
H133 C163 0.929 . S
H134 C166 0.928 . S
O135 Co119 2.057 . S
O135 C123 1.232 . S
H136 C155 0.929 . S
H137 C156 0.929 . S
H138 C168 0.931 . S
H139 C160 0.929 . S
H140 C169 0.930 . S
H141 C161 0.931 . S
O142 Co118 2.097 . S
O142 C170 1.214 . S
H143 C171 0.929 . S
H144 C172 0.929 . S
H145 C173 0.930 . S
H146 C174 0.929 . S
H147 C176 0.930 . S
H148 C153 0.930 . S
H149 C157 0.930 . S
O150 Co119 2.037 . S
O150 C170 1.234 . S
C151 O125 1.269 . S
C151 O126 1.257 . S
C152 H127 0.930 . S
C152 C155 1.388 . S
C152 C157 1.418 . S
C153 H148 0.930 . S
C153 C156 1.404 . S
C153 C157 1.353 . S
N154 Co119 2.145 . S
N154 C155 1.397 . S
N154 C156 1.334 . S
C155 H136 0.929 . S
C155 C152 1.388 . S
C155 N154 1.397 . S
C156 H137 0.929 . S
C156 C153 1.404 . S
C156 N154 1.334 . S
C157 H149 0.930 . S
C157 C152 1.418 . S
C157 C153 1.353 . S
C158 H128 0.930 . S
C158 N159 1.330 . S
C158 C160 1.446 . S
N159 Co118 2.151 . S
N159 C158 1.330 . S
N159 C163 1.418 . S
C160 H139 0.929 . S
C160 C158 1.446 . S
C160 C161 1.332 . S
C161 H141 0.931 . S
C161 C160 1.332 . S
C161 C162 1.267 . S
C162 H130 0.929 . S
C162 C161 1.267 . S
C162 C163 1.251 . S
C163 H133 0.929 . S
C163 N159 1.418 . S
C163 C162 1.251 . S
C164 H131 0.930 . S
C164 C166 1.406 . S
C164 C169 1.261 1_655 S
C165 H132 0.930 . S
C165 N167 1.325 . S
C165 C168 1.357 1_655 S
C166 H134 0.928 . S
C166 C164 1.406 . S
C166 N167 1.261 . S
N167 Co118 2.214 . S
N167 C165 1.325 . S
N167 C166 1.261 . S
C168 H138 0.931 . S
C168 C165 1.357 1_455 S
C168 C169 1.312 . S
C169 H140 0.930 . S
C169 C164 1.261 1_455 S
C169 C168 1.312 . S
C170 O142 1.214 . S
C170 O150 1.234 . S
C171 H143 0.929 . S
C171 C174 1.391 . S
C171 C176 1.391 . S
C172 H144 0.929 . S
C172 C173 1.390 . S
C172 N175 1.391 . S
C173 H145 0.930 . S
C173 C172 1.390 . S
C173 C174 1.392 . S
C174 H146 0.929 . S
C174 C171 1.391 . S
C174 C173 1.392 . S
N175 Co119 2.257 . S
N175 C172 1.391 . S
N175 C176 1.388 . S
C176 H147 0.930 . S
C176 C171 1.391 . S
C176 N175 1.388 . S
Co177 O179 2.143 . S
Co177 O185 2.074 . S
Co177 O188 2.093 . S
Co177 O201 2.097 . S
Co177 N218 2.151 . S
Co177 N226 2.214 . S
Co178 O179 2.160 . S
Co178 O184 2.058 . S
Co178 O194 2.057 . S
Co178 O209 2.037 . S
Co178 N213 2.145 . S
Co178 N234 2.257 . S
O179 Co177 2.143 . S
O179 Co178 2.160 . S
C180 O181 1.278 . S
C180 O188 1.224 . S
O181 C180 1.278 . S
C182 O183 1.245 . S
C182 O194 1.232 . S
O183 C182 1.245 . S
O184 Co178 2.058 . S
O184 C210 1.269 . S
O185 Co177 2.074 . S
O185 C210 1.257 . S
H186 C211 0.930 . S
H187 C217 0.930 . S
O188 Co177 2.093 . S
O188 C180 1.224 . S
H189 C221 0.929 . S
H190 C223 0.930 . S
H191 C224 0.930 . S
H192 C222 0.929 . S
H193 C225 0.928 . S
O194 Co178 2.057 . S
O194 C182 1.232 . S
H195 C214 0.929 . S
H196 C215 0.929 . S
H197 C227 0.931 . S
H198 C219 0.929 . S
H199 C228 0.930 . S
H200 C220 0.931 . S
O201 Co177 2.097 . S
O201 C229 1.214 . S
H202 C230 0.929 . S
H203 C231 0.929 . S
H204 C232 0.930 . S
H205 C233 0.929 1_455 S
H206 C235 0.930 . S
H207 C212 0.930 . S
H208 C216 0.930 1_455 S
O209 Co178 2.037 . S
O209 C229 1.234 . S
C210 O184 1.269 . S
C210 O185 1.257 . S
C211 H186 0.930 . S
C211 C214 1.388 . S
C211 C216 1.418 . S
C212 H207 0.930 . S
C212 C215 1.404 . S
C212 C216 1.353 . S
N213 Co178 2.145 . S
N213 C214 1.397 . S
N213 C215 1.334 . S
C214 H195 0.929 . S
C214 C211 1.388 . S
C214 N213 1.397 . S
C215 H196 0.929 . S
C215 C212 1.404 . S
C215 N213 1.334 . S
C216 H208 0.930 1_655 S
C216 C211 1.418 . S
C216 C212 1.353 . S
C217 H187 0.930 . S
C217 N218 1.330 . S
C217 C219 1.446 . S
N218 Co177 2.151 . S
N218 C217 1.330 . S
N218 C222 1.418 . S
C219 H198 0.929 . S
C219 C217 1.446 . S
C219 C220 1.332 . S
C220 H200 0.931 . S
C220 C219 1.332 . S
C220 C221 1.267 . S
C221 H189 0.929 . S
C221 C220 1.267 . S
C221 C222 1.251 . S
C222 H192 0.929 . S
C222 N218 1.418 . S
C222 C221 1.251 . S
C223 H190 0.930 . S
C223 C225 1.406 . S
C223 C228 1.261 . S
C224 H191 0.930 . S
C224 N226 1.325 . S
C224 C227 1.357 . S
C225 H193 0.928 . S
C225 C223 1.406 . S
C225 N226 1.261 . S
N226 Co177 2.214 . S
N226 C224 1.325 . S
N226 C225 1.261 . S
C227 H197 0.931 . S
C227 C224 1.357 . S
C227 C228 1.312 . S
C228 H199 0.930 . S
C228 C223 1.261 . S
C228 C227 1.312 . S
C229 O201 1.214 . S
C229 O209 1.234 . S
C230 H202 0.929 . S
C230 C233 1.391 . S
C230 C235 1.391 . S
C231 H203 0.929 . S
C231 C232 1.390 1_655 S
C231 N234 1.391 . S
C232 H204 0.930 . S
C232 C231 1.390 1_455 S
C232 C233 1.392 1_455 S
C233 H205 0.929 1_655 S
C233 C230 1.391 . S
C233 C232 1.392 1_655 S
N234 Co178 2.257 . S
N234 C231 1.391 . S
N234 C235 1.388 . S
C235 H206 0.930 . S
C235 C230 1.391 . S
C235 N234 1.388 . S
Co236 O238 2.143 . S
Co236 O244 2.074 . S
Co236 O247 2.093 . S
Co236 O260 2.097 . S
Co236 N277 2.151 . S
Co236 N285 2.214 . S
Co237 O238 2.160 . S
Co237 O243 2.058 . S
Co237 O253 2.057 . S
Co237 O268 2.037 . S
Co237 N272 2.145 . S
Co237 N293 2.257 . S
O238 Co236 2.143 . S
O238 Co237 2.160 . S
C239 O240 1.278 . S
C239 O247 1.224 . S
O240 C239 1.278 . S
C241 O242 1.245 . S
C241 O253 1.232 . S
O242 C241 1.245 . S
O243 Co237 2.058 . S
O243 C269 1.269 . S
O244 Co236 2.074 . S
O244 C269 1.257 . S
H245 C270 0.930 . S
H246 C276 0.930 . S
O247 Co236 2.093 . S
O247 C239 1.224 . S
H248 C280 0.929 . S
H249 C282 0.930 . S
H250 C283 0.930 . S
H251 C281 0.929 . S
H252 C284 0.928 . S
O253 Co237 2.057 . S
O253 C241 1.232 . S
H254 C273 0.929 . S
H255 C274 0.929 . S
H256 C286 0.931 . S
H257 C278 0.929 . S
H258 C287 0.930 . S
H259 C279 0.931 . S
O260 Co236 2.097 . S
O260 C288 1.214 . S
H261 C289 0.929 . S
H262 C290 0.929 . S
H263 C291 0.930 . S
H264 C292 0.929 1_565 S
H265 C294 0.930 . S
H266 C271 0.930 . S
H267 C275 0.930 1_565 S
O268 Co237 2.037 . S
O268 C288 1.234 . S
C269 O243 1.269 . S
C269 O244 1.257 . S
C270 H245 0.930 . S
C270 C273 1.388 . S
C270 C275 1.418 . S
C271 H266 0.930 . S
C271 C274 1.404 . S
C271 C275 1.353 . S
N272 Co237 2.145 . S
N272 C273 1.397 . S
N272 C274 1.334 . S
C273 H254 0.929 . S
C273 C270 1.388 . S
C273 N272 1.397 . S
C274 H255 0.929 . S
C274 C271 1.404 . S
C274 N272 1.334 . S
C275 H267 0.930 1_545 S
C275 C270 1.418 . S
C275 C271 1.353 . S
C276 H246 0.930 . S
C276 N277 1.330 . S
C276 C278 1.446 . S
N277 Co236 2.151 . S
N277 C276 1.330 . S
N277 C281 1.418 . S
C278 H257 0.929 . S
C278 C276 1.446 . S
C278 C279 1.332 . S
C279 H259 0.931 . S
C279 C278 1.332 . S
C279 C280 1.267 . S
C280 H248 0.929 . S
C280 C279 1.267 . S
C280 C281 1.251 . S
C281 H251 0.929 . S
C281 N277 1.418 . S
C281 C280 1.251 . S
C282 H249 0.930 . S
C282 C284 1.406 . S
C282 C287 1.261 . S
C283 H250 0.930 . S
C283 N285 1.325 . S
C283 C286 1.357 . S
C284 H252 0.928 . S
C284 C282 1.406 . S
C284 N285 1.261 . S
N285 Co236 2.214 . S
N285 C283 1.325 . S
N285 C284 1.261 . S
C286 H256 0.931 . S
C286 C283 1.357 . S
C286 C287 1.312 . S
C287 H258 0.930 . S
C287 C282 1.261 . S
C287 C286 1.312 . S
C288 O260 1.214 . S
C288 O268 1.234 . S
C289 H261 0.929 . S
C289 C292 1.391 . S
C289 C294 1.391 . S
C290 H262 0.929 . S
C290 C291 1.390 1_545 S
C290 N293 1.391 . S
C291 H263 0.930 . S
C291 C290 1.390 1_565 S
C291 C292 1.392 1_565 S
C292 H264 0.929 1_545 S
C292 C289 1.391 . S
C292 C291 1.392 1_545 S
N293 Co237 2.257 . S
N293 C290 1.391 . S
N293 C294 1.388 . S
C294 H265 0.930 . S
C294 C289 1.391 . S
C294 N293 1.388 . S
Co295 O297 2.143 . S
Co295 O303 2.074 . S
Co295 O306 2.093 . S
Co295 O319 2.097 . S
Co295 N336 2.151 . S
Co295 N344 2.214 . S
Co296 O297 2.160 . S
Co296 O302 2.058 . S
Co296 O312 2.057 . S
Co296 O327 2.037 . S
Co296 N331 2.145 . S
Co296 N352 2.257 . S
O297 Co295 2.143 . S
O297 Co296 2.160 . S
C298 O299 1.278 . S
C298 O306 1.224 . S
O299 C298 1.278 . S
C300 O301 1.245 . S
C300 O312 1.232 . S
O301 C300 1.245 . S
O302 Co296 2.058 . S
O302 C328 1.269 . S
O303 Co295 2.074 . S
O303 C328 1.257 . S
H304 C329 0.930 . S
H305 C335 0.930 . S
O306 Co295 2.093 . S
O306 C298 1.224 . S
H307 C339 0.929 . S
H308 C341 0.930 . S
H309 C342 0.930 . S
H310 C340 0.929 . S
H311 C343 0.928 . S
O312 Co296 2.057 . S
O312 C300 1.232 . S
H313 C332 0.929 . S
H314 C333 0.929 . S
H315 C345 0.931 . S
H316 C337 0.929 . S
H317 C346 0.930 . S
H318 C338 0.931 . S
O319 Co295 2.097 . S
O319 C347 1.214 . S
H320 C348 0.929 . S
H321 C349 0.929 . S
H322 C350 0.930 . S
H323 C351 0.929 . S
H324 C353 0.930 . S
H325 C330 0.930 . S
H326 C334 0.930 . S
O327 Co296 2.037 . S
O327 C347 1.234 . S
C328 O302 1.269 . S
C328 O303 1.257 . S
C329 H304 0.930 . S
C329 C332 1.388 . S
C329 C334 1.418 . S
C330 H325 0.930 . S
C330 C333 1.404 . S
C330 C334 1.353 . S
N331 Co296 2.145 . S
N331 C332 1.397 . S
N331 C333 1.334 . S
C332 H313 0.929 . S
C332 C329 1.388 . S
C332 N331 1.397 . S
C333 H314 0.929 . S
C333 C330 1.404 . S
C333 N331 1.334 . S
C334 H326 0.930 . S
C334 C329 1.418 . S
C334 C330 1.353 . S
C335 H305 0.930 . S
C335 N336 1.330 . S
C335 C337 1.446 . S
N336 Co295 2.151 . S
N336 C335 1.330 . S
N336 C340 1.418 . S
C337 H316 0.929 . S
C337 C335 1.446 . S
C337 C338 1.332 . S
C338 H318 0.931 . S
C338 C337 1.332 . S
C338 C339 1.267 . S
C339 H307 0.929 . S
C339 C338 1.267 . S
C339 C340 1.251 . S
C340 H310 0.929 . S
C340 N336 1.418 . S
C340 C339 1.251 . S
C341 H308 0.930 . S
C341 C343 1.406 . S
C341 C346 1.261 1_545 S
C342 H309 0.930 . S
C342 N344 1.325 . S
C342 C345 1.357 1_545 S
C343 H311 0.928 . S
C343 C341 1.406 . S
C343 N344 1.261 . S
N344 Co295 2.214 . S
N344 C342 1.325 . S
N344 C343 1.261 . S
C345 H315 0.931 . S
C345 C342 1.357 1_565 S
C345 C346 1.312 . S
C346 H317 0.930 . S
C346 C341 1.261 1_565 S
C346 C345 1.312 . S
C347 O319 1.214 . S
C347 O327 1.234 . S
C348 H320 0.929 . S
C348 C351 1.391 . S
C348 C353 1.391 . S
C349 H321 0.929 . S
C349 C350 1.390 . S
C349 N352 1.391 . S
C350 H322 0.930 . S
C350 C349 1.390 . S
C350 C351 1.392 . S
C351 H323 0.929 . S
C351 C348 1.391 . S
C351 C350 1.392 . S
N352 Co296 2.257 . S
N352 C349 1.391 . S
N352 C353 1.388 . S
C353 H324 0.930 . S
C353 C348 1.391 . S
C353 N352 1.388 . S
Co354 O356 2.143 . S
Co354 O362 2.074 . S
Co354 O365 2.093 . S
Co354 O378 2.097 . S
Co354 N395 2.151 . S
Co354 N403 2.214 . S
Co355 O356 2.160 . S
Co355 O361 2.058 . S
Co355 O371 2.057 . S
Co355 O386 2.037 . S
Co355 N390 2.145 . S
Co355 N411 2.257 . S
O356 Co354 2.143 . S
O356 Co355 2.160 . S
C357 O358 1.278 . S
C357 O365 1.224 . S
O358 C357 1.278 . S
C359 O360 1.245 . S
C359 O371 1.232 . S
O360 C359 1.245 . S
O361 Co355 2.058 . S
O361 C387 1.269 . S
O362 Co354 2.074 . S
O362 C387 1.257 . S
H363 C388 0.930 . S
H364 C394 0.930 . S
O365 Co354 2.093 . S
O365 C357 1.224 . S
H366 C398 0.929 . S
H367 C400 0.930 . S
H368 C401 0.930 . S
H369 C399 0.929 . S
H370 C402 0.928 . S
O371 Co355 2.057 . S
O371 C359 1.232 . S
H372 C391 0.929 . S
H373 C392 0.929 . S
H374 C404 0.931 . S
H375 C396 0.929 . S
H376 C405 0.930 . S
H377 C397 0.931 . S
O378 Co354 2.097 . S
O378 C406 1.214 . S
H379 C407 0.929 . S
H380 C408 0.929 . S
H381 C409 0.930 . S
H382 C410 0.929 1_545 S
H383 C412 0.930 . S
H384 C389 0.930 . S
H385 C393 0.930 1_545 S
O386 Co355 2.037 . S
O386 C406 1.234 . S
C387 O361 1.269 . S
C387 O362 1.257 . S
C388 H363 0.930 . S
C388 C391 1.388 . S
C388 C393 1.418 . S
C389 H384 0.930 . S
C389 C392 1.404 . S
C389 C393 1.353 . S
N390 Co355 2.145 . S
N390 C391 1.397 . S
N390 C392 1.334 . S
C391 H372 0.929 . S
C391 C388 1.388 . S
C391 N390 1.397 . S
C392 H373 0.929 . S
C392 C389 1.404 . S
C392 N390 1.334 . S
C393 H385 0.930 1_565 S
C393 C388 1.418 . S
C393 C389 1.353 . S
C394 H364 0.930 . S
C394 N395 1.330 . S
C394 C396 1.446 . S
N395 Co354 2.151 . S
N395 C394 1.330 . S
N395 C399 1.418 . S
C396 H375 0.929 . S
C396 C394 1.446 . S
C396 C397 1.332 . S
C397 H377 0.931 . S
C397 C396 1.332 . S
C397 C398 1.267 . S
C398 H366 0.929 . S
C398 C397 1.267 . S
C398 C399 1.251 . S
C399 H369 0.929 . S
C399 N395 1.418 . S
C399 C398 1.251 . S
C400 H367 0.930 . S
C400 C402 1.406 . S
C400 C405 1.261 . S
C401 H368 0.930 . S
C401 N403 1.325 . S
C401 C404 1.357 . S
C402 H370 0.928 . S
C402 C400 1.406 . S
C402 N403 1.261 . S
N403 Co354 2.214 . S
N403 C401 1.325 . S
N403 C402 1.261 . S
C404 H374 0.931 . S
C404 C401 1.357 . S
C404 C405 1.312 . S
C405 H376 0.930 . S
C405 C400 1.261 . S
C405 C404 1.312 . S
C406 O378 1.214 . S
C406 O386 1.234 . S
C407 H379 0.929 . S
C407 C410 1.391 . S
C407 C412 1.391 . S
C408 H380 0.929 . S
C408 C409 1.390 1_565 S
C408 N411 1.391 . S
C409 H381 0.930 . S
C409 C408 1.390 1_545 S
C409 C410 1.392 1_545 S
C410 H382 0.929 1_565 S
C410 C407 1.391 . S
C410 C409 1.392 1_565 S
N411 Co355 2.257 . S
N411 C408 1.391 . S
N411 C412 1.388 . S
C412 H383 0.930 . S
C412 C407 1.391 . S
C412 N411 1.388 . S
Co413 O415 2.143 . S
Co413 O421 2.074 . S
Co413 O424 2.093 . S
Co413 O437 2.097 . S
Co413 N454 2.151 . S
Co413 N462 2.214 . S
Co414 O415 2.160 . S
Co414 O420 2.058 . S
Co414 O430 2.057 . S
Co414 O445 2.037 . S
Co414 N449 2.145 . S
Co414 N470 2.257 . S
O415 Co413 2.143 . S
O415 Co414 2.160 . S
C416 O417 1.278 . S
C416 O424 1.224 . S
O417 C416 1.278 . S
C418 O419 1.245 . S
C418 O430 1.232 . S
O419 C418 1.245 . S
O420 Co414 2.058 . S
O420 C446 1.269 . S
O421 Co413 2.074 . S
O421 C446 1.257 . S
H422 C447 0.930 . S
H423 C453 0.930 . S
O424 Co413 2.093 . S
O424 C416 1.224 . S
H425 C457 0.929 . S
H426 C459 0.930 . S
H427 C460 0.930 . S
H428 C458 0.929 . S
H429 C461 0.928 . S
O430 Co414 2.057 . S
O430 C418 1.232 . S
H431 C450 0.929 . S
H432 C451 0.929 . S
H433 C463 0.931 . S
H434 C455 0.929 . S
H435 C464 0.930 . S
H436 C456 0.931 . S
O437 Co413 2.097 . S
O437 C465 1.214 . S
H438 C466 0.929 . S
H439 C467 0.929 . S
H440 C468 0.930 . S
H441 C469 0.929 . S
H442 C471 0.930 . S
H443 C448 0.930 . S
H444 C452 0.930 . S
O445 Co414 2.037 . S
O445 C465 1.234 . S
C446 O420 1.269 . S
C446 O421 1.257 . S
C447 H422 0.930 . S
C447 C450 1.388 . S
C447 C452 1.418 . S
C448 H443 0.930 . S
C448 C451 1.404 . S
C448 C452 1.353 . S
N449 Co414 2.145 . S
N449 C450 1.397 . S
N449 C451 1.334 . S
C450 H431 0.929 . S
C450 C447 1.388 . S
C450 N449 1.397 . S
C451 H432 0.929 . S
C451 C448 1.404 . S
C451 N449 1.334 . S
C452 H444 0.930 . S
C452 C447 1.418 . S
C452 C448 1.353 . S
C453 H423 0.930 . S
C453 N454 1.330 . S
C453 C455 1.446 . S
N454 Co413 2.151 . S
N454 C453 1.330 . S
N454 C458 1.418 . S
C455 H434 0.929 . S
C455 C453 1.446 . S
C455 C456 1.332 . S
C456 H436 0.931 . S
C456 C455 1.332 . S
C456 C457 1.267 . S
C457 H425 0.929 . S
C457 C456 1.267 . S
C457 C458 1.251 . S
C458 H428 0.929 . S
C458 N454 1.418 . S
C458 C457 1.251 . S
C459 H426 0.930 . S
C459 C461 1.406 . S
C459 C464 1.261 1_565 S
C460 H427 0.930 . S
C460 N462 1.325 . S
C460 C463 1.357 1_565 S
C461 H429 0.928 . S
C461 C459 1.406 . S
C461 N462 1.261 . S
N462 Co413 2.214 . S
N462 C460 1.325 . S
N462 C461 1.261 . S
C463 H433 0.931 . S
C463 C460 1.357 1_545 S
C463 C464 1.312 . S
C464 H435 0.930 . S
C464 C459 1.261 1_545 S
C464 C463 1.312 . S
C465 O437 1.214 . S
C465 O445 1.234 . S
C466 H438 0.929 . S
C466 C469 1.391 . S
C466 C471 1.391 . S
C467 H439 0.929 . S
C467 C468 1.390 . S
C467 N470 1.391 . S
C468 H440 0.930 . S
C468 C467 1.390 . S
C468 C469 1.392 . S
C469 H441 0.929 . S
C469 C466 1.391 . S
C469 C468 1.392 . S
N470 Co414 2.257 . S
N470 C467 1.391 . S
N470 C471 1.388 . S
C471 H442 0.930 . S
C471 C466 1.391 . S
C471 N470 1.388 . S
H472 C480 0.950 . S
H473 C485 0.950 . S
H474 C482 0.950 . S
H475 C484 0.950 . S
H476 C486 0.950 . S
H477 C488 0.950 . S
H478 C490 0.950 . S
H479 C491 0.950 . S
C480 H472 0.950 . S
C480 C481 1.386 . S
C480 C482 1.391 . S
C481 C480 1.386 . S
C481 C485 1.393 . S
C482 H474 0.950 . S
C482 C480 1.391 . S
C482 C483 1.400 . S
C483 C482 1.400 . S
C483 C484 1.398 . S
C483 C489 1.491 1_554 S
C484 H475 0.950 . S
C484 C483 1.398 . S
C484 C485 1.391 . S
C485 H473 0.950 . S
C485 C481 1.393 . S
C485 C484 1.391 . S
C486 H476 0.950 . S
C486 C487 1.386 . S
C486 C488 1.391 . S
C487 C486 1.386 . S
C487 C491 1.393 . S
C488 H477 0.950 . S
C488 C486 1.391 . S
C488 C489 1.400 . S
C489 C483 1.491 1_556 S
C489 C488 1.400 . S
C489 C490 1.398 . S
C490 H478 0.950 . S
C490 C489 1.398 . S
C490 C491 1.391 . S
C491 H479 0.950 . S
C491 C487 1.393 . S
C491 C490 1.391 . S
H492 C500 0.950 . S
H493 C505 0.950 . S
H494 C502 0.950 . S
H495 C504 0.950 . S
H496 C506 0.950 . S
H497 C508 0.950 . S
H498 C510 0.950 . S
H499 C511 0.950 . S
C500 H492 0.950 . S
C500 C501 1.386 . S
C500 C502 1.391 . S
C501 C500 1.386 . S
C501 C505 1.393 . S
C502 H494 0.950 . S
C502 C500 1.391 . S
C502 C503 1.400 . S
C503 C502 1.400 . S
C503 C504 1.398 . S
C503 C509 1.491 . S
C504 H495 0.950 . S
C504 C503 1.398 . S
C504 C505 1.391 . S
C505 H493 0.950 . S
C505 C501 1.393 . S
C505 C504 1.391 . S
C506 H496 0.950 . S
C506 C507 1.386 . S
C506 C508 1.391 . S
C507 C506 1.386 . S
C507 C511 1.393 . S
C508 H497 0.950 . S
C508 C506 1.391 . S
C508 C509 1.400 . S
C509 C503 1.491 . S
C509 C508 1.400 . S
C509 C510 1.398 . S
C510 H498 0.950 . S
C510 C509 1.398 . S
C510 C511 1.391 . S
C511 H499 0.950 . S
C511 C507 1.393 . S
C511 C510 1.391 . S
H512 C520 0.950 . S
H513 C525 0.950 . S
H514 C522 0.950 . S
H515 C524 0.950 . S
H516 C526 0.950 . S
H517 C528 0.950 . S
H518 C530 0.950 . S
H519 C531 0.950 . S
C520 H512 0.950 . S
C520 C521 1.386 . S
C520 C522 1.391 . S
C521 C520 1.386 . S
C521 C525 1.393 . S
C522 H514 0.950 . S
C522 C520 1.391 . S
C522 C523 1.400 . S
C523 C522 1.400 . S
C523 C524 1.398 . S
C523 C529 1.491 1_554 S
C524 H515 0.950 . S
C524 C523 1.398 . S
C524 C525 1.391 . S
C525 H513 0.950 . S
C525 C521 1.393 . S
C525 C524 1.391 . S
C526 H516 0.950 . S
C526 C527 1.386 . S
C526 C528 1.391 . S
C527 C526 1.386 . S
C527 C531 1.393 . S
C528 H517 0.950 . S
C528 C526 1.391 . S
C528 C529 1.400 . S
C529 C523 1.491 1_556 S
C529 C528 1.400 . S
C529 C530 1.398 . S
C530 H518 0.950 . S
C530 C529 1.398 . S
C530 C531 1.391 . S
C531 H519 0.950 . S
C531 C527 1.393 . S
C531 C530 1.391 . S
H532 C540 0.950 . S
H533 C545 0.950 . S
H534 C542 0.950 . S
H535 C544 0.950 . S
H536 C546 0.950 . S
H537 C548 0.950 . S
H538 C550 0.950 . S
H539 C551 0.950 . S
C540 H532 0.950 . S
C540 C541 1.386 . S
C540 C542 1.391 . S
C541 C540 1.386 . S
C541 C545 1.393 . S
C542 H534 0.950 . S
C542 C540 1.391 . S
C542 C543 1.400 . S
C543 C542 1.400 . S
C543 C544 1.398 . S
C543 C549 1.491 . S
C544 H535 0.950 . S
C544 C543 1.398 . S
C544 C545 1.391 . S
C545 H533 0.950 . S
C545 C541 1.393 . S
C545 C544 1.391 . S
C546 H536 0.950 . S
C546 C547 1.386 . S
C546 C548 1.391 . S
C547 C546 1.386 . S
C547 C551 1.393 . S
C548 H537 0.950 . S
C548 C546 1.391 . S
C548 C549 1.400 . S
C549 C543 1.491 . S
C549 C548 1.400 . S
C549 C550 1.398 . S
C550 H538 0.950 . S
C550 C549 1.398 . S
C550 C551 1.391 . S
C551 H539 0.950 . S
C551 C547 1.393 . S
C551 C550 1.391 . S
H552 C560 0.950 . S
H553 C565 0.950 . S
H554 C562 0.950 . S
H555 C564 0.950 . S
H556 C566 0.950 . S
H557 C568 0.950 . S
H558 C570 0.950 . S
H559 C571 0.950 . S
C560 H552 0.950 . S
C560 C561 1.386 . S
C560 C562 1.391 . S
C561 C560 1.386 . S
C561 C565 1.393 . S
C562 H554 0.950 . S
C562 C560 1.391 . S
C562 C563 1.400 . S
C563 C562 1.400 . S
C563 C564 1.398 . S
C563 C569 1.491 . S
C564 H555 0.950 . S
C564 C563 1.398 . S
C564 C565 1.391 . S
C565 H553 0.950 . S
C565 C561 1.393 . S
C565 C564 1.391 . S
C566 H556 0.950 . S
C566 C567 1.386 . S
C566 C568 1.391 . S
C567 C566 1.386 . S
C567 C571 1.393 . S
C568 H557 0.950 . S
C568 C566 1.391 . S
C568 C569 1.400 . S
C569 C563 1.491 . S
C569 C568 1.400 . S
C569 C570 1.398 . S
C570 H558 0.950 . S
C570 C569 1.398 . S
C570 C571 1.391 . S
C571 H559 0.950 . S
C571 C567 1.393 . S
C571 C570 1.391 . S
H572 C580 0.950 . S
H573 C585 0.950 . S
H574 C582 0.950 . S
H575 C584 0.950 . S
H576 C586 0.950 . S
H577 C588 0.950 . S
H578 C590 0.950 1_565 S
H579 C591 0.950 . S
C580 H572 0.950 . S
C580 C581 1.386 . S
C580 C582 1.391 . S
C581 C580 1.386 . S
C581 C585 1.393 . S
C582 H574 0.950 . S
C582 C580 1.391 . S
C582 C583 1.400 . S
C583 C582 1.400 . S
C583 C584 1.398 . S
C583 C589 1.492 1_565 S
C584 H575 0.950 . S
C584 C583 1.398 . S
C584 C585 1.391 . S
C585 H573 0.950 . S
C585 C581 1.393 . S
C585 C584 1.391 . S
C586 H576 0.950 . S
C586 C587 1.386 . S
C586 C588 1.391 . S
C587 C586 1.386 . S
C587 C591 1.393 . S
C588 H577 0.950 . S
C588 C586 1.391 . S
C588 C589 1.399 . S
C589 C583 1.492 1_545 S
C589 C588 1.399 . S
C589 C590 1.398 . S
C590 H578 0.950 1_545 S
C590 C589 1.398 . S
C590 C591 1.391 . S
C591 H579 0.950 . S
C591 C587 1.393 . S
C591 C590 1.391 . S
H592 C600 0.950 . S
H593 C605 0.950 . S
H594 C602 0.950 . S
H595 C604 0.950 . S
H596 C606 0.950 . S
H597 C608 0.950 . S
H598 C610 0.950 . S
H599 C611 0.950 . S
C600 H592 0.950 . S
C600 C601 1.386 . S
C600 C602 1.391 . S
C601 C600 1.386 . S
C601 C605 1.393 . S
C602 H594 0.950 . S
C602 C600 1.391 . S
C602 C603 1.400 . S
C603 C602 1.400 . S
C603 C604 1.398 . S
C603 C609 1.491 . S
C604 H595 0.950 . S
C604 C603 1.398 . S
C604 C605 1.391 . S
C605 H593 0.950 . S
C605 C601 1.393 . S
C605 C604 1.391 . S
C606 H596 0.950 . S
C606 C607 1.386 . S
C606 C608 1.391 . S
C607 C606 1.386 . S
C607 C611 1.393 . S
C608 H597 0.950 . S
C608 C606 1.391 . S
C608 C609 1.400 . S
C609 C603 1.491 . S
C609 C608 1.400 . S
C609 C610 1.398 . S
C610 H598 0.950 . S
C610 C609 1.398 . S
C610 C611 1.391 . S
C611 H599 0.950 . S
C611 C607 1.393 . S
C611 C610 1.391 . S
H612 C620 0.950 . S
H613 C625 0.950 . S
H614 C622 0.950 . S
H615 C624 0.950 . S
H616 C626 0.950 . S
H617 C628 0.950 1_545 S
H618 C630 0.950 . S
H619 C631 0.950 . S
C620 H612 0.950 . S
C620 C621 1.386 . S
C620 C622 1.391 . S
C621 C620 1.386 . S
C621 C625 1.393 . S
C622 H614 0.950 . S
C622 C620 1.391 . S
C622 C623 1.400 . S
C623 C622 1.400 . S
C623 C624 1.398 . S
C623 C629 1.489 1_545 S
C624 H615 0.950 . S
C624 C623 1.398 . S
C624 C625 1.391 . S
C625 H613 0.950 . S
C625 C621 1.393 . S
C625 C624 1.391 . S
C626 H616 0.950 . S
C626 C627 1.386 . S
C626 C628 1.391 . S
C627 C626 1.386 . S
C627 C631 1.393 . S
C628 H617 0.950 1_565 S
C628 C626 1.391 . S
C628 C629 1.400 . S
C629 C623 1.489 1_565 S
C629 C628 1.400 . S
C629 C630 1.400 . S
C630 H618 0.950 . S
C630 C629 1.400 . S
C630 C631 1.391 . S
C631 H619 0.950 . S
C631 C627 1.393 . S
C631 C630 1.391 . S
H632 C640 0.950 . S
H633 C645 0.950 . S
H634 C642 0.950 . S
H635 C644 0.950 . S
H636 C646 0.950 . S
H637 C648 0.950 1_655 S
H638 C650 0.950 . S
H639 C651 0.950 . S
C640 H632 0.950 . S
C640 C641 1.386 . S
C640 C642 1.391 . S
C641 C640 1.386 . S
C641 C645 1.393 . S
C642 H634 0.950 . S
C642 C640 1.391 . S
C642 C643 1.400 . S
C643 C642 1.400 . S
C643 C644 1.398 . S
C643 C649 1.506 . S
C644 H635 0.950 . S
C644 C643 1.398 . S
C644 C645 1.391 . S
C645 H633 0.950 . S
C645 C641 1.393 . S
C645 C644 1.391 . S
C646 H636 0.950 . S
C646 C647 1.386 . S
C646 C648 1.391 . S
C647 C646 1.386 . S
C647 C651 1.393 . S
C648 H637 0.950 1_455 S
C648 C646 1.391 . S
C648 C649 1.397 1_455 S
C649 C643 1.506 . S
C649 C648 1.397 1_655 S
C649 C650 1.386 1_655 S
C650 H638 0.950 . S
C650 C649 1.386 1_455 S
C650 C651 1.391 . S
C651 H639 0.950 . S
C651 C647 1.393 . S
C651 C650 1.391 . S
H652 C660 0.950 . S
H653 C665 0.950 . S
H654 C662 0.950 . S
H655 C664 0.950 . S
H656 C666 0.950 . S
H657 C668 0.950 . S
H658 C670 0.950 . S
H659 C671 0.950 . S
C660 H652 0.950 . S
C660 C661 1.386 . S
C660 C662 1.391 . S
C661 C660 1.386 . S
C661 C665 1.393 . S
C662 H654 0.950 . S
C662 C660 1.391 . S
C662 C663 1.400 . S
C663 C662 1.400 . S
C663 C664 1.398 . S
C663 C669 1.491 . S
C664 H655 0.950 . S
C664 C663 1.398 . S
C664 C665 1.391 . S
C665 H653 0.950 . S
C665 C661 1.393 . S
C665 C664 1.391 . S
C666 H656 0.950 . S
C666 C667 1.386 . S
C666 C668 1.391 . S
C667 C666 1.386 . S
C667 C671 1.393 . S
C668 H657 0.950 . S
C668 C666 1.391 . S
C668 C669 1.400 . S
C669 C663 1.491 . S
C669 C668 1.400 . S
C669 C670 1.398 . S
C670 H658 0.950 . S
C670 C669 1.398 . S
C670 C671 1.391 . S
C671 H659 0.950 . S
C671 C667 1.393 . S
C671 C670 1.391 . S
H672 C680 0.950 . S
H673 C685 0.950 . S
H674 C682 0.950 . S
H675 C684 0.950 . S
H676 C686 0.950 . S
H677 C688 0.950 . S
H678 C690 0.950 . S
H679 C691 0.950 . S
C680 H672 0.950 . S
C680 C681 1.386 . S
C680 C682 1.391 . S
C681 C680 1.386 . S
C681 C685 1.393 . S
C682 H674 0.950 . S
C682 C680 1.391 . S
C682 C683 1.400 . S
C683 C682 1.400 . S
C683 C684 1.398 . S
C683 C689 1.499 . S
C684 H675 0.950 . S
C684 C683 1.398 . S
C684 C685 1.391 . S
C685 H673 0.950 . S
C685 C681 1.393 . S
C685 C684 1.391 . S
C686 H676 0.950 . S
C686 C687 1.386 . S
C686 C688 1.391 1_655 S
C687 C686 1.386 . S
C687 C691 1.393 . S
C688 H677 0.950 . S
C688 C686 1.391 1_455 S
C688 C689 1.401 . S
C689 C683 1.499 . S
C689 C688 1.401 . S
C689 C690 1.389 1_455 S
C690 H678 0.950 . S
C690 C689 1.389 1_655 S
C690 C691 1.391 . S
C691 H679 0.950 . S
C691 C687 1.393 . S
C691 C690 1.391 . S
H692 C700 0.950 . S
H693 C705 0.950 . S
H694 C702 0.950 . S
H695 C704 0.950 . S
H696 C706 0.950 . S
H697 C708 0.950 . S
H698 C710 0.950 . S
H699 C711 0.950 . S
C700 H692 0.950 . S
C700 C701 1.386 . S
C700 C702 1.391 . S
C701 C700 1.386 . S
C701 C705 1.393 . S
C702 H694 0.950 . S
C702 C700 1.391 . S
C702 C703 1.400 . S
C703 C702 1.400 . S
C703 C704 1.398 . S
C703 C709 1.491 . S
C704 H695 0.950 . S
C704 C703 1.398 . S
C704 C705 1.391 . S
C705 H693 0.950 . S
C705 C701 1.393 . S
C705 C704 1.391 . S
C706 H696 0.950 . S
C706 C707 1.386 . S
C706 C708 1.391 . S
C707 C706 1.386 . S
C707 C711 1.393 . S
C708 H697 0.950 . S
C708 C706 1.391 . S
C708 C709 1.400 . S
C709 C703 1.491 . S
C709 C708 1.400 . S
C709 C710 1.398 . S
C710 H698 0.950 . S
C710 C709 1.398 . S
C710 C711 1.391 . S
C711 H699 0.950 . S
C711 C707 1.393 . S
C711 C710 1.391 . S
H712 C720 0.950 . S
H713 C725 0.950 . S
H714 C722 0.950 . S
H715 C724 0.950 . S
H716 C726 0.950 . S
H717 C728 0.950 . S
H718 C730 0.950 . S
H719 C731 0.950 . S
C720 H712 0.950 . S
C720 C721 1.386 . S
C720 C722 1.391 . S
C721 C720 1.386 . S
C721 C725 1.393 . S
C722 H714 0.950 . S
C722 C720 1.391 . S
C722 C723 1.400 . S
C723 C722 1.400 . S
C723 C724 1.398 . S
C723 C729 1.491 1_655 S
C724 H715 0.950 . S
C724 C723 1.398 . S
C724 C725 1.391 . S
C725 H713 0.950 . S
C725 C721 1.393 . S
C725 C724 1.391 . S
C726 H716 0.950 . S
C726 C727 1.386 . S
C726 C728 1.391 . S
C727 C726 1.386 . S
C727 C731 1.393 . S
C728 H717 0.950 . S
C728 C726 1.391 . S
C728 C729 1.400 . S
C729 C723 1.491 1_455 S
C729 C728 1.400 . S
C729 C730 1.398 . S
C730 H718 0.950 . S
C730 C729 1.398 . S
C730 C731 1.391 . S
C731 H719 0.950 . S
C731 C727 1.393 . S
C731 C730 1.391 . S
H732 C740 0.950 . S
H733 C745 0.950 . S
H734 C742 0.950 . S
H735 C744 0.950 . S
H736 C746 0.950 . S
H737 C748 0.950 . S
H738 C750 0.950 . S
H739 C751 0.950 . S
C740 H732 0.950 . S
C740 C741 1.386 . S
C740 C742 1.391 1_655 S
C741 C740 1.386 . S
C741 C745 1.393 . S
C742 H734 0.950 . S
C742 C740 1.391 1_455 S
C742 C743 1.400 1_455 S
C743 C742 1.400 1_655 S
C743 C744 1.398 . S
C743 C749 1.491 1_655 S
C744 H735 0.950 . S
C744 C743 1.398 . S
C744 C745 1.391 . S
C745 H733 0.950 . S
C745 C741 1.393 . S
C745 C744 1.391 . S
C746 H736 0.950 . S
C746 C747 1.386 . S
C746 C748 1.391 1_455 S
C747 C746 1.386 . S
C747 C751 1.393 . S
C748 H737 0.950 . S
C748 C746 1.391 1_655 S
C748 C749 1.400 1_655 S
C749 C743 1.491 1_455 S
C749 C748 1.400 1_455 S
C749 C750 1.398 . S
C750 H738 0.950 . S
C750 C749 1.398 . S
C750 C751 1.391 . S
C751 H739 0.950 . S
C751 C747 1.393 . S
C751 C750 1.391 . S
H752 C760 0.950 . S
H753 C765 0.950 . S
H754 C762 0.950 . S
H755 C764 0.950 . S
H756 C766 0.950 . S
H757 C768 0.950 . S
H758 C770 0.950 . S
H759 C771 0.950 . S
C760 H752 0.950 . S
C760 C761 1.386 . S
C760 C762 1.391 1_545 S
C761 C760 1.386 . S
C761 C765 1.393 . S
C762 H754 0.950 . S
C762 C760 1.391 1_565 S
C762 C763 1.400 1_565 S
C763 C762 1.400 1_545 S
C763 C764 1.398 . S
C763 C769 1.491 1_545 S
C764 H755 0.950 . S
C764 C763 1.398 . S
C764 C765 1.391 . S
C765 H753 0.950 . S
C765 C761 1.393 . S
C765 C764 1.391 . S
C766 H756 0.950 . S
C766 C767 1.386 . S
C766 C768 1.391 1_565 S
C767 C766 1.386 . S
C767 C771 1.393 . S
C768 H757 0.950 . S
C768 C766 1.391 1_545 S
C768 C769 1.400 1_545 S
C769 C763 1.491 1_565 S
C769 C768 1.400 1_565 S
C769 C770 1.398 . S
C770 H758 0.950 . S
C770 C769 1.398 . S
C770 C771 1.391 . S
C771 H759 0.950 . S
C771 C767 1.393 . S
C771 C770 1.391 . S
H772 C780 0.950 . S
H773 C785 0.950 . S
H774 C782 0.950 . S
H775 C784 0.950 . S
H776 C786 0.950 . S
H777 C788 0.950 . S
H778 C790 0.950 . S
H779 C791 0.950 . S
C780 H772 0.950 . S
C780 C781 1.386 . S
C780 C782 1.391 . S
C781 C780 1.386 . S
C781 C785 1.393 . S
C782 H774 0.950 . S
C782 C780 1.391 . S
C782 C783 1.400 . S
C783 C782 1.400 . S
C783 C784 1.398 . S
C783 C789 1.491 1_545 S
C784 H775 0.950 . S
C784 C783 1.398 . S
C784 C785 1.391 . S
C785 H773 0.950 . S
C785 C781 1.393 . S
C785 C784 1.391 . S
C786 H776 0.950 . S
C786 C787 1.386 . S
C786 C788 1.391 . S
C787 C786 1.386 . S
C787 C791 1.393 . S
C788 H777 0.950 . S
C788 C786 1.391 . S
C788 C789 1.400 . S
C789 C783 1.491 1_565 S
C789 C788 1.400 . S
C789 C790 1.398 . S
C790 H778 0.950 . S
C790 C789 1.398 . S
C790 C791 1.391 . S
C791 H779 0.950 . S
C791 C787 1.393 . S
C791 C790 1.391 . S
C481 C3 1.474 . S
C487 C298 1.478 . S
C501 C62 1.472 . S
C507 C357 1.466 . S
C521 C121 1.463 . S
C527 C416 1.466 . S
C541 C239 1.466 . S
C547 C180 1.472 . S
C561 C5 1.648 . S
C567 C269 1.641 . S
C581 C64 1.648 . S
C587 C328 1.647 . S
C601 C387 1.646 . S
C607 C123 1.649 . S
C621 C182 1.647 . S
C627 C446 1.644 . S
C641 C241 1.652 . S
C647 C33 1.637 . S
C661 C92 1.641 . S
C667 C300 1.648 . S
C681 C359 1.650 . S
C687 C151 1.637 . S
C701 C210 1.638 . S
C707 C418 1.653 . S
C721 C170 0.799 . S
C727 C52 0.793 . S
C741 C229 0.801 . S
C747 C111 0.794 . S
C761 C288 0.803 . S
C767 C406 0.796 . S
C781 C347 0.795 . S
C787 C465 0.792 . S
