# Generated by pormake.
# Topology svf, (7)-cn, num edge types: 1
# Building blocks:
#     Node 0, Type 0, BuildingBlock: NUHQUE_clean_sbu_2, # of connection points: 7
#     Node 1, Type 0, BuildingBlock: NUHQUE_clean_sbu_2, # of connection points: 7
#     Node 2, Type 0, BuildingBlock: NUHQUE_clean_sbu_2, # of connection points: 7
#     Node 3, Type 0, BuildingBlock: NUHQUE_clean_sbu_2, # of connection points: 7
#     Node 4, Type 0, BuildingBlock: NUHQUE_clean_sbu_2, # of connection points: 7
#     Node 5, Type 0, BuildingBlock: NUHQUE_clean_sbu_2, # of connection points: 7
#     Node 6, Type 0, BuildingBlock: NUHQUE_clean_sbu_2, # of connection points: 7
#     Node 7, Type 0, BuildingBlock: NUHQUE_clean_sbu_2, # of connection points: 7
#     Edge 8, Type (0, 0), BuildingBlock: UVAHIK_clean_linker_0, # of connection points: 2
#     Edge 9, Type (0, 0), BuildingBlock: UVAHIK_clean_linker_0, # of connection points: 2
#     Edge 10, Type (0, 0), BuildingBlock: UVAHIK_clean_linker_0, # of connection points: 2
#     Edge 11, Type (0, 0), BuildingBlock: UVAHIK_clean_linker_0, # of connection points: 2
#     Edge 12, Type (0, 0), BuildingBlock: UVAHIK_clean_linker_0, # of connection points: 2
#     Edge 13, Type (0, 0), BuildingBlock: UVAHIK_clean_linker_0, # of connection points: 2
#     Edge 14, Type (0, 0), BuildingBlock: UVAHIK_clean_linker_0, # of connection points: 2
#     Edge 15, Type (0, 0), BuildingBlock: UVAHIK_clean_linker_0, # of connection points: 2
#     Edge 16, Type (0, 0), BuildingBlock: UVAHIK_clean_linker_0, # of connection points: 2
#     Edge 17, Type (0, 0), BuildingBlock: UVAHIK_clean_linker_0, # of connection points: 2
#     Edge 18, Type (0, 0), BuildingBlock: UVAHIK_clean_linker_0, # of connection points: 2
#     Edge 19, Type (0, 0), BuildingBlock: UVAHIK_clean_linker_0, # of connection points: 2
#     Edge 20, Type (0, 0), BuildingBlock: UVAHIK_clean_linker_0, # of connection points: 2
#     Edge 21, Type (0, 0), BuildingBlock: UVAHIK_clean_linker_0, # of connection points: 2
#     Edge 22, Type (0, 0), BuildingBlock: UVAHIK_clean_linker_0, # of connection points: 2
#     Edge 23, Type (0, 0), BuildingBlock: UVAHIK_clean_linker_0, # of connection points: 2
#     Edge 24, Type (0, 0), BuildingBlock: UVAHIK_clean_linker_0, # of connection points: 2
#     Edge 25, Type (0, 0), BuildingBlock: UVAHIK_clean_linker_0, # of connection points: 2
#     Edge 26, Type (0, 0), BuildingBlock: UVAHIK_clean_linker_0, # of connection points: 2
#     Edge 27, Type (0, 0), BuildingBlock: UVAHIK_clean_linker_0, # of connection points: 2
#     Edge 28, Type (0, 0), BuildingBlock: UVAHIK_clean_linker_0, # of connection points: 2
#     Edge 29, Type (0, 0), BuildingBlock: UVAHIK_clean_linker_0, # of connection points: 2
#     Edge 30, Type (0, 0), BuildingBlock: UVAHIK_clean_linker_0, # of connection points: 2
#     Edge 31, Type (0, 0), BuildingBlock: UVAHIK_clean_linker_0, # of connection points: 2
#     Edge 32, Type (0, 0), BuildingBlock: UVAHIK_clean_linker_0, # of connection points: 2
#     Edge 33, Type (0, 0), BuildingBlock: UVAHIK_clean_linker_0, # of connection points: 2
#     Edge 34, Type (0, 0), BuildingBlock: UVAHIK_clean_linker_0, # of connection points: 2
#     Edge 35, Type (0, 0), BuildingBlock: UVAHIK_clean_linker_0, # of connection points: 2
# Relax obj value: 0.236
# Max RMSD: 0.222
# Mean RMSD: 0.216
data_MOF--net-svf--node1-NUHQUE_clean_sbu_2--edge1-UVAHIK_clean_linker_0
_symmetry_space_group_name_H-M    P1
_symmetry_Int_Tables_number       1
_symmetry_cell_setting            triclinic
loop_
_symmetry_equiv_pos_as_xyz
'x, y, z'
_cell_length_a     59.340586
_cell_length_b     59.238613
_cell_length_c     27.685262
_cell_angle_alpha  96.40344
_cell_angle_beta   90.097911
_cell_angle_gamma 89.822005
loop_
_atom_site_label
_atom_site_type_symbol
_atom_site_fract_x
_atom_site_fract_y
_atom_site_fract_z
_atom_type_partial_charge
O0 O 0.12539 0.35692 0.95883 0.0
Tb1 Tb 0.10655 0.38696 0.98836 0.0
Eu2 Eu 0.14499 0.4089 0.05786 0.0
C3 C 0.1224 0.34671 0.91487 0.0
O4 O 0.13459 0.32877 0.89985 0.0
C5 C 0.13504 0.42652 0.95116 0.0
O6 O 0.1703 0.43718 0.06432 0.0
C7 C 0.16898 0.37238 0.05761 0.0
C8 C 0.18479 0.44121 0.0998 0.0
O9 O 0.20101 0.45586 0.09535 0.0
C10 C 0.09909 0.3924 0.1004 0.0
C11 C 0.18283 0.3513 0.05742 0.0
C12 C 0.18876 0.3392 1.01261 0.0
C13 C 0.20288 0.32003 1.01055 0.0
C14 C 0.21076 0.31276 0.0539 0.0
C15 C 0.20461 0.32388 0.09939 0.0
C16 C 0.19095 0.34359 0.10104 0.0
O17 O 0.1232 0.40805 0.93938 0.0
O18 O 0.14376 0.43077 0.99494 0.0
O19 O 0.07219 0.38494 0.95973 0.0
O20 O 0.08458 0.41568 1.00158 0.0
C21 C 0.0675 0.4059 0.97812 0.0
O22 O 0.11349 0.40947 0.10551 0.0
O23 O 0.10037 0.37757 0.06137 0.0
O24 O 0.16903 0.38847 0.09459 0.0
O25 O 0.15561 0.37615 0.02098 0.0
H26 H 0.18261 0.34489 0.97912 0.0
H27 H 0.22228 0.29845 0.0522 0.0
H28 H 0.18636 0.35258 0.13588 0.0
O29 O 0.60226 0.16773 0.14976 0.0
Tb30 Tb 0.60711 0.13828 0.09804 0.0
Eu31 Eu 0.64418 0.12416 0.03368 0.0
C32 C 0.61774 0.17409 0.18234 0.0
O33 O 0.63788 0.16481 0.17842 0.0
C34 C 0.63988 0.10209 0.13448 0.0
O35 O 0.65906 0.10131 0.97445 0.0
C36 C 0.66884 0.16021 0.03976 0.0
C37 C 0.64612 0.08469 0.95709 0.0
O38 O 0.62854 0.07966 0.98266 0.0
C39 C 0.59865 0.14255 0.99091 0.0
C40 C 0.68302 0.18067 0.03796 0.0
C41 C 0.68845 0.19394 0.08148 0.0
C42 C 0.70365 0.21212 0.08197 0.0
C43 C 0.71299 0.21729 0.03802 0.0
C44 C 0.70739 0.20468 0.99382 0.0
C45 C 0.69236 0.18626 0.9938 0.0
O46 O 0.62811 0.12062 0.14767 0.0
O47 O 0.6475 0.09867 0.08962 0.0
O48 O 0.57406 0.12588 0.1156 0.0
O49 O 0.59524 0.10598 0.06397 0.0
C50 C 0.5759 0.10713 0.08619 0.0
O51 O 0.61347 0.12601 0.98438 0.0
O52 O 0.5987 0.15495 0.03338 0.0
O53 O 0.67412 0.14129 1.01284 0.0
O54 O 0.65031 0.15948 0.06605 0.0
H55 H 0.68118 0.18972 0.11523 0.0
H56 H 0.72503 0.23103 0.0381 0.0
H57 H 0.68831 0.17615 0.95986 0.0
O58 O 0.85582 0.60887 0.13612 0.0
Tb59 Tb 0.88127 0.61756 0.08639 0.0
Eu60 Eu 0.89446 0.65316 1.01674 0.0
C61 C 0.85874 0.61367 0.18307 0.0
O62 O 0.87511 0.62739 0.19901 0.0
C63 C 0.9164 0.65313 0.12041 0.0
O64 O 0.91976 0.66003 0.96188 0.0
C65 C 0.86361 0.68416 0.033 0.0
C66 C 0.93336 0.64286 0.95004 0.0
O67 O 0.93124 0.62449 0.97217 0.0
C68 C 0.87018 0.60613 0.9772 0.0
C69 C 0.84091 0.69376 0.02523 0.0
C70 C 0.8272 0.69841 0.06639 0.0
C71 C 0.80665 0.70999 0.06404 0.0
C72 C 0.79924 0.71601 0.01919 0.0
C73 C 0.81255 0.71158 0.97738 0.0
C74 C 0.83367 0.70074 0.98052 0.0
O75 O 0.8958 0.64704 0.13034 0.0
O76 O 0.9216 0.65374 0.07459 0.0
O77 O 0.89768 0.58796 0.11093 0.0
O78 O 0.91276 0.60428 0.05422 0.0
C79 C 0.91465 0.58776 0.08123 0.0
O80 O 0.88505 0.62142 0.96846 0.0
O81 O 0.86132 0.60673 0.02092 0.0
O82 O 0.8794 0.68503 0.99988 0.0
O83 O 0.86506 0.66631 0.05748 0.0
H84 H 0.83298 0.69367 0.10107 0.0
H85 H 0.7836 0.7254 1.01721 0.0
H86 H 0.84433 0.69797 0.94866 0.0
O87 O 0.35241 0.91456 0.94989 0.0
Tb88 Tb 0.37847 0.90383 0.99644 0.0
Eu89 Eu 0.39395 0.86817 0.05969 0.0
C90 C 0.35236 0.90787 0.90311 0.0
O91 O 0.36526 0.89085 0.88584 0.0
C92 C 0.41528 0.87055 0.9555 0.0
O93 O 0.41898 0.85836 0.11297 0.0
C94 C 0.36186 0.83868 0.04165 0.0
C95 C 0.43326 0.87449 0.12768 0.0
O96 O 0.43176 0.89402 0.10957 0.0
C97 C 0.36985 0.91425 0.10622 0.0
C98 C 0.33935 0.82929 0.05173 0.0
C99 C 0.32464 0.82445 1.01207 0.0
C100 C 0.30417 0.81313 1.01718 0.0
C101 C 0.29795 0.80758 0.06315 0.0
C102 C 0.3123 0.81203 0.10328 0.0
C103 C 0.33326 0.82265 0.09748 0.0
O104 O 0.39458 0.87706 0.94683 0.0
O105 O 0.42064 0.86814 1.00065 0.0
O106 O 0.39505 0.93399 0.9762 0.0
O107 O 0.40947 0.91605 0.03172 0.0
C108 C 0.41162 0.93323 1.0068 0.0
O109 O 0.3858 0.89939 0.11167 0.0
O110 O 0.35952 0.91352 0.06389 0.0
O111 O 0.37874 0.83581 0.07132 0.0
O112 O 0.36288 0.85776 0.02122 0.0
H113 H 0.32977 0.8284 0.97639 0.0
H114 H 0.28209 0.79897 0.06748 0.0
H115 H 0.34469 0.82549 0.12809 0.0
O116 O 0.10249 0.67062 0.63584 0.0
Tb117 Tb 0.10418 0.64044 0.58498 0.0
Eu118 Eu 0.14242 0.6234 0.51631 0.0
C119 C 0.11839 0.67482 0.66865 0.0
O120 O 0.1381 0.66488 0.66154 0.0
C121 C 0.13644 0.60314 0.61953 0.0
O122 O 0.15628 0.59358 0.46994 0.0
C123 C 0.16872 0.65838 0.52437 0.0
C124 C 0.14156 0.57742 0.45831 0.0
O125 O 0.12057 0.58066 0.47248 0.0
C126 C 0.09769 0.64484 0.47718 0.0
C127 C 0.18394 0.67847 0.52812 0.0
C128 C 0.18762 0.69117 0.57354 0.0
C129 C 0.20185 0.71027 0.57784 0.0
C130 C 0.21217 0.71669 0.53597 0.0
C131 C 0.20904 0.70429 0.49019 0.0
C132 C 0.19474 0.68516 0.48649 0.0
O133 O 0.12494 0.62179 0.63262 0.0
O134 O 0.14431 0.59923 0.57499 0.0
O135 O 0.07074 0.6308 0.60758 0.0
O136 O 0.08848 0.60977 0.55172 0.0
C137 C 0.07008 0.61228 0.57725 0.0
O138 O 0.11172 0.62769 0.4692 0.0
O139 O 0.09814 0.6571 0.51976 0.0
O140 O 0.17096 0.64147 0.48953 0.0
O141 O 0.15243 0.65598 0.55586 0.0
H142 H 0.17942 0.68615 0.6056 0.0
H143 H 0.22306 0.73142 0.53922 0.0
H144 H 0.19214 0.67541 0.45144 0.0
O145 O 0.36042 0.10232 0.64366 0.0
Tb146 Tb 0.38132 0.11759 0.59312 0.0
Eu147 Eu 0.39248 0.15527 0.52769 0.0
C148 C 0.35964 0.11014 0.68985 0.0
O149 O 0.3677 0.13027 0.70486 0.0
C150 C 0.41557 0.15312 0.63167 0.0
O151 O 0.41706 0.16424 0.47287 0.0
C152 C 0.36138 0.18623 0.54287 0.0
C153 C 0.43029 0.14775 0.4546 0.0
O154 O 0.4284 0.12766 0.46987 0.0
C155 C 0.36817 0.10817 0.48556 0.0
C156 C 0.33928 0.19708 0.53422 0.0
C157 C 0.32588 0.20334 0.57537 0.0
C158 C 0.30626 0.21627 0.57222 0.0
C159 C 0.29941 0.2222 0.52704 0.0
C160 C 0.31199 0.21587 0.48479 0.0
C161 C 0.33238 0.20363 0.48858 0.0
O162 O 0.39533 0.14588 0.64132 0.0
O163 O 0.42002 0.15579 0.5861 0.0
O164 O 0.40284 0.08938 0.6075 0.0
O165 O 0.41108 0.10868 0.54933 0.0
C166 C 0.41695 0.09178 0.57267 0.0
O167 O 0.38291 0.1238 0.47747 0.0
O168 O 0.35973 0.10814 0.5296 0.0
O169 O 0.37796 0.18749 0.51182 0.0
O170 O 0.36203 0.16793 0.56609 0.0
H171 H 0.33144 0.19917 0.61067 0.0
H172 H 0.28417 0.23221 0.52493 0.0
H173 H 0.34265 0.19925 0.45657 0.0
O174 O 0.86338 0.42008 0.44636 0.0
Tb175 Tb 0.8844 0.40326 0.49436 0.0
Eu176 Eu 0.89616 0.36555 0.55876 0.0
C177 C 0.86197 0.41326 0.39975 0.0
O178 O 0.8696 0.39321 0.38228 0.0
C179 C 0.91755 0.36756 0.45336 0.0
O180 O 0.92299 0.35468 0.60678 0.0
C181 C 0.86437 0.33532 0.54706 0.0
C182 C 0.92081 0.3598 0.65372 0.0
O183 O 0.90152 0.36793 0.67135 0.0
C184 C 0.87203 0.41242 0.6015 0.0
C185 C 0.84135 0.32707 0.55718 0.0
C186 C 0.8269 0.32256 0.51709 0.0
C187 C 0.80615 0.31184 0.52151 0.0
C188 C 0.79929 0.30638 0.567 0.0
C189 C 0.81305 0.31082 0.60823 0.0
C190 C 0.83446 0.32088 0.60305 0.0
O191 O 0.8972 0.37493 0.44469 0.0
O192 O 0.92259 0.3649 0.49864 0.0
O193 O 0.90639 0.43098 0.4803 0.0
O194 O 0.91459 0.41127 0.53794 0.0
C195 C 0.92064 0.42813 0.51475 0.0
O196 O 0.88779 0.39753 0.60847 0.0
O197 O 0.86287 0.41198 0.55804 0.0
O198 O 0.88021 0.33507 0.58028 0.0
O199 O 0.86646 0.35197 0.51933 0.0
H200 H 0.83246 0.3262 0.48148 0.0
H201 H 0.78324 0.29795 0.56997 0.0
H202 H 0.84559 0.32371 0.63416 0.0
O203 O 0.60425 0.85353 0.44024 0.0
Tb204 Tb 0.60754 0.88319 0.49212 0.0
Eu205 Eu 0.64308 0.89897 0.56186 0.0
C206 C 0.61994 0.84811 0.40759 0.0
O207 O 0.63978 0.85785 0.41273 0.0
C208 C 0.64005 0.92084 0.4611 0.0
O209 O 0.65753 0.91884 0.62668 0.0
C210 C 0.66655 0.86207 0.5505 0.0
C211 C 0.65104 0.91458 0.66998 0.0
O212 O 0.64155 0.89506 0.67554 0.0
C213 C 0.59704 0.88023 0.59862 0.0
C214 C 0.68022 0.84109 0.54877 0.0
C215 C 0.68409 0.82839 0.50382 0.0
C216 C 0.69857 0.8095 0.50015 0.0
C217 C 0.70845 0.80286 0.54237 0.0
C218 C 0.70511 0.81539 0.58799 0.0
C219 C 0.69082 0.83462 0.59092 0.0
O220 O 0.62996 0.90149 0.44642 0.0
O221 O 0.64604 0.92492 0.50707 0.0
O222 O 0.57478 0.89463 0.46885 0.0
O223 O 0.59362 0.91511 0.52371 0.0
C224 C 0.57512 0.91341 0.49838 0.0
O225 O 0.61068 0.89763 0.60502 0.0
O226 O 0.59864 0.86703 0.55729 0.0
O227 O 0.67325 0.88055 0.57719 0.0
O228 O 0.64714 0.86368 0.52762 0.0
H229 H 0.67637 0.83367 0.47136 0.0
H230 H 0.71943 0.78813 0.53931 0.0
H231 H 0.68833 0.84479 0.62553 0.0
C232 C 0.02973 0.41647 1.00987 0.0
C233 C 0.04627 0.41803 0.97436 0.0
C234 C 0.01404 0.43403 0.01995 0.0
C235 C 0.01126 0.49549 1.01512 0.0
H236 H 0.9485 0.48922 0.04955 0.0
C237 C 0.94852 0.5703 0.03937 0.0
C238 C 0.93209 0.5701 0.07565 0.0
C239 C 0.96343 0.55208 0.03027 0.0
C240 C 0.96611 0.4912 0.04073 0.0
H241 H 0.05907 0.43814 0.91999 0.0
H242 H 0.03118 0.46843 0.9361 0.0
H243 H 0.9706 0.4554 0.02222 0.0
H244 H 0.91906 0.5517 0.13294 0.0
H245 H 0.94525 0.51985 0.11724 0.0
H246 H 0.00676 0.53128 0.03351 0.0
C247 C 0.03036 0.4539 0.95658 0.0
C248 C 0.9787 0.47185 0.02484 0.0
C249 C 0.04601 0.4364 0.94664 0.0
C250 C 0.93149 0.55207 0.1044 0.0
C251 C 0.94636 0.53384 0.09527 0.0
C252 C 0.99868 0.51482 0.03099 0.0
C253 C 0.01491 0.45339 0.99485 0.0
C254 C 1.00133 0.47382 1.01137 0.0
C255 C 0.96208 0.53339 0.05729 0.0
C256 C 0.97593 0.51288 0.0436 0.0
H257 H 0.03022 0.40279 0.03278 0.0
H258 H 1.00244 0.43323 0.04987 0.0
H259 H 0.02886 0.4975 1.00625 0.0
H260 H 0.94934 0.58412 1.01688 0.0
H261 H 0.97531 0.55216 1.00062 0.0
C262 C 0.43291 0.96523 0.97927 0.0
C263 C 0.42972 0.94982 1.01347 0.0
C264 C 0.44947 0.9818 0.98682 0.0
C265 C 0.50104 0.99712 0.05515 0.0
H266 H 0.48387 0.05866 0.0347 0.0
C267 C 0.54008 0.08979 0.10954 0.0
C268 C 0.55878 0.08954 0.07863 0.0
C269 C 0.5241 0.07256 0.1024 0.0
C270 C 0.48869 0.04153 0.04069 0.0
H271 H 0.44119 0.93901 0.08166 0.0
H272 H 0.46998 0.96837 0.09545 0.0
H273 H 0.45651 0.0279 0.01886 0.0
H274 H 0.57556 0.07175 1.01585 0.0
H275 H 0.54753 0.0415 1.0037 0.0
H276 H 0.53333 1.01094 0.07655 0.0
C277 C 0.45997 0.96744 0.06253 0.0
C278 C 0.47325 0.02398 0.03125 0.0
C279 C 0.44351 0.95076 0.05477 0.0
C280 C 0.56132 0.0721 0.04038 0.0
C281 C 0.54543 0.05488 0.03342 0.0
C282 C 0.51654 0.01465 0.06409 0.0
C283 C 0.46288 0.98323 0.02887 0.0
C284 C 0.47933 1.00165 0.03838 0.0
C285 C 0.52686 0.05504 0.06449 0.0
C286 C 0.51036 0.03686 0.05691 0.0
H287 H 0.42254 0.96456 0.94689 0.0
H288 H 0.45172 0.99357 0.95996 0.0
H289 H 0.5061 0.98 0.06064 0.0
H290 H 0.53796 0.10309 0.13938 0.0
H291 H 0.50977 0.07272 0.12665 0.0
C292 C 0.03957 0.59219 0.61645 0.0
C293 C 0.05265 0.59493 0.57542 0.0
C294 C 0.026 0.573 0.61692 0.0
C295 C 0.02159 0.51481 0.55412 0.0
H296 H 0.96134 0.51592 0.60831 0.0
C297 C 0.9495 0.45491 0.4925 0.0
C298 C 0.93947 0.44324 0.52806 0.0
C299 C 0.96581 0.47123 0.50563 0.0
C300 C 0.97834 0.51541 0.594 0.0
H301 H 0.06079 0.58127 0.50166 0.0
H302 H 0.03632 0.54848 0.50139 0.0
H303 H 0.98378 0.55074 0.61609 0.0
H304 H 0.93849 0.43873 0.60466 0.0
H305 H 0.9667 0.4683 0.62808 0.0
H306 H 0.01541 0.47988 0.52905 0.0
C307 C 0.0372 0.56038 0.53401 0.0
C308 C 0.99114 0.53524 0.59835 0.0
C309 C 0.05097 0.57926 0.53387 0.0
C310 C 0.94626 0.44754 0.57677 0.0
C311 C 0.9622 0.46436 0.59014 0.0
C312 C 0.00868 0.49517 0.54914 0.0
C313 C 0.02525 0.5566 0.5761 0.0
C314 C 0.01261 0.53525 0.57709 0.0
C315 C 0.97183 0.47637 0.55459 0.0
C316 C 0.98684 0.49554 0.56806 0.0
H317 H 0.0408 0.60415 0.64894 0.0
H318 H 0.01691 0.57054 0.6498 0.0
H319 H 0.03836 0.51416 0.53861 0.0
H320 H 0.9444 0.45172 0.45474 0.0
H321 H 0.97305 0.48052 0.47788 0.0
C322 C 0.54252 0.93256 0.46377 0.0
C323 C 0.55791 0.93106 0.50168 0.0
C324 C 0.5278 0.95103 0.46539 0.0
C325 C 0.52159 1.00944 0.52643 0.0
H326 H 0.459 1.00254 0.48709 0.0
C327 C 0.44588 0.06483 0.59495 0.0
C328 C 0.43565 0.07644 0.55937 0.0
C329 C 0.46254 0.04879 0.58184 0.0
C330 C 0.47657 1.00461 0.49737 0.0
H331 H 0.56946 0.94643 0.57207 0.0
H332 H 0.5432 0.97806 0.57603 0.0
H333 H 0.48422 0.96962 0.47649 0.0
H334 H 0.43444 0.08094 0.48275 0.0
H335 H 0.46332 0.05196 0.45946 0.0
H336 H 0.51335 0.04412 0.55029 0.0
C337 C 0.54299 0.96569 0.54411 0.0
C338 C 0.49097 0.98591 0.49129 0.0
C339 C 0.55785 0.9475 0.54212 0.0
C340 C 0.4424 0.07222 0.51066 0.0
C341 C 0.45871 0.05573 0.49736 0.0
C342 C 0.5071 0.02799 0.5332 0.0
C343 C 0.52823 0.96796 0.50525 0.0
C344 C 0.51348 0.98807 0.50682 0.0
C345 C 0.46867 0.04393 0.53295 0.0
C346 C 0.48452 0.02551 0.51938 0.0
H347 H 0.54244 0.91996 0.43223 0.0
H348 H 0.5166 0.95238 0.43493 0.0
H349 H 0.53901 0.01172 0.53764 0.0
H350 H 0.44082 0.06798 0.6327 0.0
H351 H 0.47014 0.03964 0.60953 0.0
C352 C 0.17115 0.54864 0.43307 0.0
C353 C 0.14848 0.55536 0.43355 0.0
C354 C 0.17739 0.52713 0.41158 0.0
C355 C 0.18728 0.48921 0.33333 0.0
H356 H 0.14533 0.43875 0.32164 0.0
C357 C 0.19954 0.42902 0.17617 0.0
C358 C 0.18099 0.43305 0.14697 0.0
C359 C 0.19707 0.43074 0.22644 0.0
C360 C 0.15749 0.45245 0.32555 0.0
H361 H 0.11454 0.54525 0.41174 0.0
H362 H 0.12549 0.50828 0.37198 0.0
H363 H 0.13865 0.47133 0.38228 0.0
H364 H 0.14487 0.43795 0.14527 0.0
H365 H 0.1406 0.44177 0.23281 0.0
H366 H 0.20546 0.47122 0.27529 0.0
C367 C 0.13841 0.51906 0.3899 0.0
C368 C 0.15355 0.47122 0.3597 0.0
C369 C 0.13215 0.54039 0.41204 0.0
C370 C 0.15939 0.43485 0.16736 0.0
C371 C 0.15697 0.43694 0.21771 0.0
C372 C 0.19136 0.47042 0.29983 0.0
C373 C 0.16109 0.51214 0.3895 0.0
C374 C 0.1678 0.49028 0.36209 0.0
C375 C 0.17623 0.43738 0.24751 0.0
C376 C 0.1759 0.45236 0.29383 0.0
H377 H 0.18402 0.55984 0.44993 0.0
H378 H 0.19499 0.52227 0.4122 0.0
H379 H 0.19847 0.50363 0.33359 0.0
H380 H 0.21629 0.42712 0.1607 0.0
H381 H 0.21205 0.43036 0.24878 0.0
C382 C 0.4639 0.13482 0.40634 0.0
C383 C 0.44858 0.15218 0.42181 0.0
C384 C 0.48312 0.13969 0.38103 0.0
C385 C 0.52032 0.18764 0.36902 0.0
H386 H 0.54874 0.14528 0.27062 0.0
C387 C 0.59293 0.19955 0.2342 0.0
C388 C 0.60888 0.18193 0.23028 0.0
C389 C 0.57564 0.19968 0.26817 0.0
C390 C 0.54101 0.15706 0.29858 0.0
H391 H 0.4401 0.18773 0.41972 0.0
H392 H 0.4736 0.19616 0.37441 0.0
H393 H 0.51103 0.13727 0.29893 0.0
H394 H 0.62125 0.15242 0.26199 0.0
H395 H 0.59066 0.15237 0.32058 0.0
H396 H 0.55018 0.20781 0.36683 0.0
C397 C 0.47106 0.17897 0.38309 0.0
C398 C 0.51949 0.15256 0.31454 0.0
C399 C 0.45188 0.17412 0.40872 0.0
C400 C 0.60934 0.16642 0.26506 0.0
C401 C 0.59174 0.1662 0.29815 0.0
C402 C 0.54174 0.19232 0.35239 0.0
C403 C 0.4872 0.16196 0.37053 0.0
C404 C 0.50906 0.16768 0.3503 0.0
C405 C 0.57414 0.18197 0.29755 0.0
C406 C 0.55226 0.17687 0.31771 0.0
H407 H 0.46161 0.11768 0.41561 0.0
H408 H 0.49533 0.12625 0.37202 0.0
H409 H 0.51279 0.1994 0.39724 0.0
H410 H 0.59219 0.21142 0.20714 0.0
H411 H 0.56205 0.21188 0.26725 0.0
C412 C 0.87587 0.4491 0.376 0.0
C413 C 0.8605 0.43115 0.36815 0.0
C414 C 0.87293 0.46842 0.35292 0.0
C415 C 0.8469 0.49408 0.25563 0.0
H416 H 0.84462 0.54735 0.35112 0.0
C417 C 0.83337 0.5818 0.19617 0.0
C418 C 0.84977 0.59754 0.2145 0.0
C419 C 0.83013 0.56198 0.2178 0.0
C420 C 0.84522 0.53265 0.3241 0.0
H421 H 0.83122 0.41801 0.32786 0.0
H422 H 0.82586 0.4525 0.28674 0.0
H423 H 0.85002 0.50994 0.37786 0.0
H424 H 0.8738 0.60626 0.27279 0.0
H425 H 0.86836 0.57163 0.31011 0.0
H426 H 0.84326 0.51686 0.20161 0.0
C427 C 0.8401 0.45142 0.31092 0.0
C428 C 0.84827 0.51134 0.33933 0.0
C429 C 0.8431 0.43187 0.3342 0.0
C430 C 0.86105 0.59442 0.25785 0.0
C431 C 0.85794 0.57452 0.27923 0.0
C432 C 0.84407 0.51549 0.24026 0.0
C433 C 0.85452 0.47005 0.32187 0.0
C434 C 0.84948 0.49203 0.30515 0.0
C435 C 0.84324 0.5577 0.25797 0.0
C436 C 0.8435 0.53497 0.27443 0.0
H437 H 0.88964 0.44856 0.40159 0.0
H438 H 0.88447 0.4825 0.36093 0.0
H439 H 0.84798 0.47929 0.22892 0.0
H440 H 0.82429 0.58393 0.163 0.0
H441 H 0.81831 0.54946 0.20151 0.0
C442 C 0.59554 0.8236 0.35271 0.0
C443 C 0.61129 0.84128 0.35892 0.0
C444 C 0.5786 0.82399 0.31795 0.0
C445 C 0.54407 0.8673 0.28592 0.0
H446 H 0.51686 0.82404 0.18774 0.0
C447 C 0.46707 0.88792 0.17468 0.0
C448 C 0.45186 0.87039 0.1602 0.0
C449 C 0.48639 0.88345 0.20035 0.0
C450 C 0.52411 0.83608 0.21576 0.0
H451 H 0.62361 0.8716 0.33059 0.0
H452 H 0.59363 0.87254 0.27061 0.0
H453 H 0.55404 0.81604 0.22018 0.0
H454 H 0.44377 0.83494 0.16411 0.0
H455 H 0.47749 0.82719 0.20993 0.0
H456 H 0.51397 0.88697 0.28334 0.0
C457 C 0.59459 0.85828 0.29192 0.0
C458 C 0.54542 0.83163 0.23358 0.0
C459 C 0.61186 0.85755 0.32578 0.0
C460 C 0.45543 0.84867 0.1744 0.0
C461 C 0.47474 0.84422 0.2003 0.0
C462 C 0.52265 0.8716 0.26873 0.0
C463 C 0.57718 0.84229 0.29008 0.0
C464 C 0.55557 0.84735 0.26825 0.0
C465 C 0.4907 0.86141 0.21212 0.0
C466 C 0.51257 0.8561 0.2332 0.0
H467 H 0.5947 0.81114 0.37848 0.0
H468 H 0.56517 0.81159 0.317 0.0
H469 H 0.55146 0.87931 0.31386 0.0
H470 H 0.46455 0.90491 0.16462 0.0
H471 H 0.49844 0.89702 0.20878 0.0
C472 C 0.88717 0.4393 0.67022 0.0
C473 C 0.86887 0.43223 0.63988 0.0
C474 C 0.88538 0.45786 0.70615 0.0
C475 C 0.84738 0.50738 0.75398 0.0
H476 H 0.88954 0.51003 0.86159 0.0
C477 C 0.84707 0.57307 0.93526 0.0
C478 C 0.86682 0.5863 0.93909 0.0
C479 C 0.84508 0.55428 0.89912 0.0
C480 C 0.87755 0.50952 0.83191 0.0
H481 H 0.83417 0.43974 0.62374 0.0
H482 H 0.83039 0.47134 0.68853 0.0
H483 H 0.88992 0.47746 0.80017 0.0
H484 H 0.90017 0.58942 0.90842 0.0
H485 H 0.89697 0.55652 0.84769 0.0
H486 H 0.83458 0.53938 0.78826 0.0
C487 C 0.84656 0.46292 0.68376 0.0
C488 C 0.87793 0.49086 0.79578 0.0
C489 C 0.84859 0.44456 0.64656 0.0
C490 C 0.88454 0.57996 0.90639 0.0
C491 C 0.88279 0.56097 0.87151 0.0
C492 C 0.84666 0.52584 0.79103 0.0
C493 C 0.86494 0.46993 0.71465 0.0
C494 C 0.86323 0.48952 0.75523 0.0
C495 C 0.86306 0.54788 0.86711 0.0
C496 C 0.86199 0.52731 0.83008 0.0
H497 H 0.90329 0.4307 0.66557 0.0
H498 H 0.9004 0.46281 0.72674 0.0
H499 H 0.83583 0.50755 0.72378 0.0
H500 H 0.83315 0.57733 0.95988 0.0
H501 H 0.82968 0.54445 0.89688 0.0
C502 C 0.5663 0.85744 0.63584 0.0
C503 C 0.57854 0.87774 0.63495 0.0
C504 C 0.54878 0.85579 0.66989 0.0
C505 C 0.50806 0.89122 0.74962 0.0
H506 H 0.50157 0.83771 0.81705 0.0
C507 C 0.42956 0.8781 0.87198 0.0
C508 C 0.43317 0.86898 0.91631 0.0
C509 C 0.44698 0.87865 0.83738 0.0
C510 C 0.50307 0.85285 0.79874 0.0
H511 H 0.58132 0.91234 0.66943 0.0
H512 H 0.55082 0.9096 0.72736 0.0
H513 H 0.53209 0.83965 0.75822 0.0
H514 H 0.45846 0.85312 0.95802 0.0
H515 H 0.48849 0.85361 0.89767 0.0
H516 H 0.47909 0.90447 0.78999 0.0
C517 C 0.55478 0.89482 0.70213 0.0
C518 C 0.52056 0.85387 0.76448 0.0
C519 C 0.57251 0.89633 0.6689 0.0
C520 C 0.45478 0.86009 0.92432 0.0
C521 C 0.47211 0.86035 0.88944 0.0
C522 C 0.49038 0.89007 0.7833 0.0
C523 C 0.54256 0.87453 0.70342 0.0
C524 C 0.52347 0.87312 0.7394 0.0
C525 C 0.46865 0.86984 0.84545 0.0
C526 C 0.48754 0.87089 0.80871 0.0
H527 H 0.57033 0.84278 0.61036 0.0
H528 H 0.5398 0.83988 0.66929 0.0
H529 H 0.50949 0.90632 0.73112 0.0
H530 H 0.41335 0.88538 0.86436 0.0
H531 H 0.44338 0.88595 0.80405 0.0
C532 C 0.15265 0.4619 0.9223 0.0
C533 C 0.1374 0.44362 0.91489 0.0
C534 C 0.15373 0.47857 0.88967 0.0
C535 C 0.1196 0.50392 0.79484 0.0
H536 H 0.17617 0.53095 0.76203 0.0
C537 C 0.12275 0.58472 0.69226 0.0
C538 C 0.13865 0.58551 0.65467 0.0
C539 C 0.12326 0.56735 0.72307 0.0
C540 C 0.1602 0.52355 0.77054 0.0
H541 H 0.11123 0.42898 0.86645 0.0
H542 H 0.11303 0.45782 0.81022 0.0
H543 H 0.17594 0.50095 0.81622 0.0
H544 H 0.16782 0.56828 0.621 0.0
H545 H 0.16924 0.53843 0.67591 0.0
H546 H 0.10384 0.52652 0.7494 0.0
C547 C 0.12423 0.45938 0.84131 0.0
C548 C 0.16003 0.5064 0.80215 0.0
C549 C 0.12335 0.44258 0.87354 0.0
C550 C 0.15537 0.56843 0.64958 0.0
C551 C 0.15619 0.55127 0.68124 0.0
C552 C 0.11974 0.52123 0.7638 0.0
C553 C 0.13935 0.47779 0.84882 0.0
C554 C 0.13971 0.49621 0.81485 0.0
C555 C 0.13994 0.55025 0.71818 0.0
C556 C 0.14002 0.53141 0.75104 0.0
H557 H 0.1637 0.46346 0.95367 0.0
H558 H 0.16549 0.49245 0.89728 0.0
H559 H 0.10354 0.49684 0.80378 0.0
H560 H 0.10941 0.59729 0.6972 0.0
H561 H 0.11054 0.56742 0.75109 0.0
C562 C 0.45681 0.15783 0.65731 0.0
C563 C 0.43412 0.15439 0.66976 0.0
C564 C 0.47441 0.15706 0.69163 0.0
C565 C 0.48611 0.15842 0.82699 0.0
H566 H 0.54486 0.13627 0.78291 0.0
C567 C 0.56356 0.16183 0.96054 0.0
C568 C 0.58058 0.14514 0.95316 0.0
C569 C 0.54601 0.16324 0.92632 0.0
C570 C 0.52859 0.14234 0.79644 0.0
H571 H 0.41267 0.1474 0.7295 0.0
H572 H 0.44299 0.14609 0.78888 0.0
H573 H 0.5143 0.13765 0.72473 0.0
H574 H 0.59186 0.11663 0.90307 0.0
H575 H 0.56152 0.11881 0.84444 0.0
H576 H 0.50021 0.16247 0.8989 0.0
C577 C 0.44734 0.14969 0.75258 0.0
C578 C 0.51091 0.14347 0.76248 0.0
C579 C 0.42975 0.15039 0.71818 0.0
C580 C 0.57936 0.12994 0.91019 0.0
C581 C 0.5618 0.13129 0.87609 0.0
C582 C 0.50379 0.15726 0.86098 0.0
C583 C 0.47014 0.15284 0.74006 0.0
C584 C 0.48923 0.15158 0.77687 0.0
C585 C 0.54463 0.14794 0.88332 0.0
C586 C 0.5255 0.14922 0.84657 0.0
H587 H 0.46112 0.16078 0.62055 0.0
H588 H 0.49146 0.15995 0.67997 0.0
H589 H 0.46998 0.16501 0.84026 0.0
H590 H 0.56368 0.1738 0.99308 0.0
H591 H 0.5336 0.17659 0.93365 0.0
C592 C 0.62681 0.9475 0.68051 0.0
C593 C 0.64376 0.93471 0.70014 0.0
C594 C 0.62717 0.97099 0.68889 0.0
C595 C 0.6681 0.01623 0.73419 0.0
H596 H 0.6157 0.05498 0.7319 0.0
C597 C 0.66538 0.0836 0.87737 0.0
C598 C 0.64667 0.07821 0.90484 0.0
C599 C 0.66547 0.07804 0.82719 0.0
C600 C 0.63069 0.04446 0.73147 0.0
H601 H 0.67149 0.93524 0.75074 0.0
H602 H 0.66996 0.97623 0.77211 0.0
H603 H 0.61214 0.01508 0.70518 0.0
H604 H 0.61244 0.06546 0.90153 0.0
H605 H 0.61283 0.05457 0.81575 0.0
H606 H 0.68548 0.0448 0.76849 0.0
C607 C 0.658 0.96852 0.74574 0.0
C608 C 0.62863 0.02138 0.71638 0.0
C609 C 0.6584 0.94501 0.73521 0.0
C610 C 0.62745 0.0689 0.88139 0.0
C611 C 0.62752 0.06333 0.83156 0.0
C612 C 0.6697 0.03902 0.75188 0.0
C613 C 0.64377 0.98183 0.71922 0.0
C614 C 0.64688 1.0067 0.72218 0.0
C615 C 0.647 0.06663 0.80408 0.0
C616 C 0.65001 0.0523 0.75737 0.0
H617 H 0.61541 0.93964 0.65302 0.0
H618 H 0.61569 0.98037 0.6682 0.0
H619 H 0.68309 1.00578 0.73462 0.0
H620 H 0.68017 0.09157 0.89474 0.0
H621 H 0.68055 0.08121 0.80708 0.0
C622 C 0.0938 0.69643 0.728 0.0
C623 C 0.10983 0.67916 0.71807 0.0
C624 C 0.07654 0.6938 0.76081 0.0
C625 C 0.05241 0.65573 0.84459 0.0
H626 H 0.99734 0.66799 0.77589 0.0
C627 C 0.96674 0.62629 0.90551 0.0
C628 C 0.95169 0.64453 0.91562 0.0
C629 C 0.98585 0.62885 0.87778 0.0
C630 C 0.01262 0.66449 0.79526 0.0
H631 H 0.1226 0.64734 0.73909 0.0
H632 H 0.09222 0.64246 0.79541 0.0
H633 H 0.03347 0.67892 0.74436 0.0
H634 H 0.94358 0.67899 0.90187 0.0
H635 H 0.97714 0.68349 0.85351 0.0
H636 H 0.03133 0.64102 0.89517 0.0
C637 C 0.09295 0.65811 0.77865 0.0
C638 C 0.03324 0.67099 0.77777 0.0
C639 C 0.11052 0.66103 0.74669 0.0
C640 C 0.9551 0.66477 0.89492 0.0
C641 C 0.97416 0.66728 0.86704 0.0
C642 C 0.03175 0.64909 0.86193 0.0
C643 C 0.07498 0.67367 0.78299 0.0
C644 C 0.05327 0.66713 0.80287 0.0
C645 C 0.98998 0.64959 0.8597 0.0
C646 C 0.01175 0.6538 0.83778 0.0
H647 H 0.09298 0.71046 0.70606 0.0
H648 H 0.06319 0.70639 0.76491 0.0
H649 H 0.06762 0.65236 0.86427 0.0
H650 H 0.96426 0.61035 0.9205 0.0
H651 H 0.99778 0.61493 0.87182 0.0
C652 C 0.34066 0.09043 0.75302 0.0
C653 C 0.35929 0.09299 0.72328 0.0
C654 C 0.33884 0.07089 0.77664 0.0
C655 C 0.35248 0.01245 0.7509 0.0
H656 H 0.34157 1.0061 0.88664 0.0
C657 C 0.35831 0.92756 0.83012 0.0
C658 C 0.34535 0.92471 0.87132 0.0
C659 C 0.35727 0.94791 0.80957 0.0
C660 C 0.34408 1.00764 0.84842 0.0
H661 H 0.39137 0.07893 0.69729 0.0
H662 H 0.38806 0.04472 0.73812 0.0
H663 H 0.3468 0.04391 0.86124 0.0
H664 H 0.31936 0.93946 0.92001 0.0
H665 H 0.31656 0.97458 0.88223 0.0
H666 H 0.34941 0.97645 0.7374 0.0
C667 C 0.37493 0.05753 0.74312 0.0
C668 C 0.34727 0.02921 0.83421 0.0
C669 C 0.3768 0.07698 0.71997 0.0
C670 C 0.32953 0.94136 0.88826 0.0
C671 C 0.32821 0.96155 0.86718 0.0
C672 C 0.34893 0.99097 0.76488 0.0
C673 C 0.35555 0.054 0.76994 0.0
C674 C 0.35171 0.03161 0.78551 0.0
C675 C 0.34292 0.96545 0.82937 0.0
C676 C 0.34487 0.98833 0.81382 0.0
H677 H 0.32705 0.10272 0.75555 0.0
H678 H 0.32378 0.06827 0.79734 0.0
H679 H 0.35567 0.01414 0.71294 0.0
H680 H 0.37085 0.91509 0.81671 0.0
H681 H 0.36894 0.95044 0.78064 0.0
C682 C 0.94099 0.37428 0.72948 0.0
C683 C 0.94113 0.36138 0.68383 0.0
C684 C 0.961 0.3782 0.75528 0.0
C685 C 0.02298 0.37529 0.74113 0.0
H686 H 0.02165 0.36573 0.87738 0.0
C687 C 0.10292 0.37134 0.86086 0.0
C688 C 0.10289 0.35236 0.8869 0.0
C689 C 0.08334 0.3773 0.83723 0.0
C690 C 0.02221 0.36863 0.83944 0.0
H691 H 0.96201 0.34215 0.62943 0.0
H692 H 0.99677 0.34821 0.67537 0.0
H693 H 0.98649 0.36682 0.83273 0.0
H694 H 0.08356 0.32416 0.90777 0.0
H695 H 0.04946 0.33414 0.86571 0.0
H696 H 0.05893 0.37541 0.74738 0.0
C697 C 0.98139 0.35589 0.69061 0.0
C698 C 1.00211 0.36949 0.81402 0.0
C699 C 0.96144 0.35212 0.66469 0.0
C700 C 0.08364 0.33896 0.88801 0.0
C701 C 0.06419 0.34483 0.86452 0.0
C702 C 0.04315 0.37426 0.76658 0.0
C703 C 0.98137 0.36911 0.73595 0.0
C704 C 1.00236 0.37203 0.76426 0.0
C705 C 0.06375 0.36424 0.83967 0.0
C706 C 0.04286 0.37003 0.81539 0.0
H707 H 0.92559 0.38192 0.74468 0.0
H708 H 0.96057 0.38855 0.79008 0.0
H709 H 0.02355 0.37773 0.70295 0.0
H710 H 0.11795 0.3815 0.85896 0.0
H711 H 0.08338 0.39219 0.81779 0.0
C712 C 0.34681 0.94636 0.15299 0.0
C713 C 0.36696 0.93387 0.14543 0.0
C714 C 0.34511 0.96467 0.1905 0.0
C715 C 0.37785 0.99318 0.30091 0.0
H716 H 0.33271 0.04035 0.29744 0.0
C717 C 0.38315 0.08214 0.41464 0.0
C718 C 0.36523 0.08827 0.44703 0.0
C719 C 0.38177 0.06312 0.37957 0.0
C720 C 0.34534 0.02722 0.29911 0.0
H721 H 0.4015 0.93203 0.17021 0.0
H722 H 0.39919 0.964 0.23181 0.0
H723 H 0.33376 1.00865 0.23283 0.0
H724 H 0.33162 0.07872 0.46696 0.0
H725 H 0.32877 0.04592 0.40364 0.0
H726 H 0.39012 0.01271 0.36577 0.0
C727 C 0.38399 0.95926 0.2117 0.0
C728 C 0.34595 1.00877 0.26191 0.0
C729 C 0.38545 0.94073 0.17545 0.0
C730 C 0.34569 0.07472 0.44262 0.0
C731 C 0.34405 0.05593 0.40625 0.0
C732 C 0.37759 0.01188 0.33712 0.0
C733 C 0.36371 0.97157 0.22094 0.0
C734 C 0.36235 0.99131 0.26165 0.0
C735 C 0.36221 0.04974 0.37449 0.0
C736 C 0.36138 0.02922 0.33689 0.0
H737 H 0.33223 0.94174 0.13052 0.0
H738 H 0.32901 0.97316 0.1957 0.0
H739 H 0.39036 0.98017 0.30437 0.0
H740 H 0.39866 0.09181 0.41708 0.0
H741 H 0.39609 0.05891 0.35603 0.0
C742 C 0.06094 0.37778 0.123 0.0
C743 C 0.08084 0.38964 0.13724 0.0
C744 C 0.04342 0.37521 0.15623 0.0
C745 C 0.02487 0.39384 0.28814 0.0
H746 H 0.97805 0.34942 0.25437 0.0
C747 C 0.95882 0.36877 0.42981 0.0
C748 C 0.93596 0.36752 0.41562 0.0
C749 C 0.97613 0.37112 0.3959 0.0
C750 C 0.9909 0.36202 0.26444 0.0
H751 H 0.09771 0.40789 0.1988 0.0
H752 H 0.06829 0.40235 0.25731 0.0
H753 H 0.00848 0.35344 0.19787 0.0
H754 H 0.91382 0.3675 0.35335 0.0
H755 H 0.94404 0.37072 0.29394 0.0
H756 H 0.00741 0.40136 0.35609 0.0
C757 C 0.06537 0.3956 0.21999 0.0
C758 C 0.00861 0.36458 0.23148 0.0
C759 C 0.08267 0.39871 0.18623 0.0
C760 C 0.93112 0.3682 0.36588 0.0
C761 C 0.94853 0.37007 0.33169 0.0
C762 C 0.00746 0.39083 0.32151 0.0
C763 C 0.04513 0.38385 0.20591 0.0
C764 C 0.02608 0.38071 0.24215 0.0
C765 C 0.97135 0.37191 0.34622 0.0
C766 C 0.99006 0.37497 0.31024 0.0
H767 H 0.05862 0.37078 0.08547 0.0
H768 H 0.02842 0.36661 0.14195 0.0
H769 H 0.03715 0.40685 0.29885 0.0
H770 H 0.9634 0.36858 0.46764 0.0
H771 H 0.99339 0.37227 0.40871 0.0
C772 C 0.63238 0.08669 0.21545 0.0
C773 C 0.64277 0.08418 0.16933 0.0
C774 C 0.63319 0.06926 0.24639 0.0
C775 C 0.64665 1.00625 0.24733 0.0
H776 H 0.64167 0.02127 0.38661 0.0
C777 C 0.63523 0.93517 0.37789 0.0
C778 C 0.64299 0.93878 0.42637 0.0
C779 C 0.63607 0.95252 0.3467 0.0
C780 C 0.64335 0.0165 0.34791 0.0
H781 H 0.66241 0.0607 0.1206 0.0
H782 H 0.66448 0.03083 0.17452 0.0
H783 H 0.6424 0.0514 0.33409 0.0
H784 H 0.65795 0.96417 0.47905 0.0
H785 H 0.65998 0.99394 0.42504 0.0
H786 H 0.64836 0.97137 0.26138 0.0
C787 C 0.6552 0.04614 0.18682 0.0
C788 C 0.6434 0.03406 0.31721 0.0
C789 C 0.65427 0.06356 0.15573 0.0
C790 C 0.6519 0.96043 0.44211 0.0
C791 C 0.65279 0.97778 0.4109 0.0
C792 C 0.64672 0.98869 0.27808 0.0
C793 C 0.64453 0.04846 0.23284 0.0
C794 C 0.64494 0.02941 0.26608 0.0
C795 C 0.64471 0.97435 0.36249 0.0
C796 C 0.645 0.99335 0.32918 0.0
H797 H 0.62306 0.10204 0.22745 0.0
H798 H 0.62431 0.07203 0.28064 0.0
H799 H 0.6476 1.00146 0.20853 0.0
H800 H 0.62799 0.91895 0.36409 0.0
H801 H 0.6293 0.94883 0.31038 0.0
C802 C 0.08215 0.63959 0.39168 0.0
C803 C 0.07958 0.64819 0.44079 0.0
C804 C 0.06458 0.64112 0.35799 0.0
C805 C 0.00664 0.66785 0.34354 0.0
H806 H 1.00539 0.62488 0.22736 0.0
C807 C 0.92947 0.6569 0.20872 0.0
C808 C 0.93455 0.655 0.15869 0.0
C809 C 0.94674 0.65688 0.24388 0.0
C810 C 1.0055 0.63713 0.25948 0.0
H811 H 0.056 0.66467 0.49298 0.0
H812 H 0.02516 0.66642 0.43555 0.0
H813 H 0.03543 0.62276 0.28622 0.0
H814 H 0.96213 0.65157 0.10708 0.0
H815 H 0.99191 0.65116 0.16786 0.0
H816 H 0.97591 0.68141 0.31696 0.0
C817 C 0.04101 0.65932 0.42184 0.0
C818 C 0.023 0.63608 0.29351 0.0
C819 C 0.05881 0.65827 0.45528 0.0
C820 C 0.95742 0.65323 0.14509 0.0
C821 C 0.97459 0.65279 0.18006 0.0
C822 C 0.98885 0.66854 0.30992 0.0
C823 C 0.04344 0.65073 0.37234 0.0
C824 C 0.02418 0.65158 0.33616 0.0
C825 C 0.96957 0.65448 0.23003 0.0
C826 C 0.98811 0.65335 0.26706 0.0
H827 H 0.09786 0.63165 0.37912 0.0
H828 H 0.06784 0.63477 0.32052 0.0
H829 H 0.0067 0.68048 0.37489 0.0
H830 H 0.91212 0.65821 0.22076 0.0
H831 H 0.94215 0.65813 0.28193 0.0
C832 C 0.31597 0.23586 0.40883 0.0
C833 C 0.30305 0.22303 0.43831 0.0
C834 C 0.30572 0.24645 0.37123 0.0
C835 C 0.25099 0.24783 0.30149 0.0
H836 H 0.27307 0.30603 0.27103 0.0
C837 C 0.21239 0.29019 0.14394 0.0
C838 C 0.21275 0.31392 0.14369 0.0
C839 C 0.22326 0.27976 0.18028 0.0
C840 C 0.2664 0.28997 0.27956 0.0
H841 H 0.26947 0.21046 0.4499 0.0
H842 H 0.25166 0.22924 0.38702 0.0
H843 H 0.29285 0.28612 0.3309 0.0
H844 H 0.22394 0.34539 0.18361 0.0
H845 H 0.24195 0.32723 0.24931 0.0
H846 H 0.22378 0.25214 0.2532 0.0
C847 C 0.26973 0.23095 0.3912 0.0
C848 C 0.27808 0.27824 0.31339 0.0
C849 C 0.27996 0.2202 0.42787 0.0
C850 C 0.22324 0.32709 0.18276 0.0
C851 C 0.23393 0.31658 0.21997 0.0
C852 C 0.23909 0.25971 0.26878 0.0
C853 C 0.28228 0.24454 0.3625 0.0
C854 C 0.27057 0.25691 0.3249 0.0
C855 C 0.23442 0.29266 0.21884 0.0
C856 C 0.24666 0.28087 0.25664 0.0
H857 H 0.33374 0.23859 0.41627 0.0
H858 H 0.31615 0.2564 0.34961 0.0
H859 H 0.24468 0.23133 0.3081 0.0
H860 H 0.20431 0.27946 0.11473 0.0
H861 H 0.22344 0.26139 0.17685 0.0
C862 C 0.71422 0.24862 0.132 0.0
C863 C 0.71079 0.225 0.12852 0.0
C864 C 0.72215 0.26044 0.17514 0.0
C865 C 0.7272 0.25676 0.30636 0.0
H866 H 0.77828 0.29701 0.30016 0.0
C867 C 0.78346 0.28253 0.4712 0.0
C868 C 0.79237 0.3046 0.47791 0.0
C869 C 0.77129 0.27515 0.42938 0.0
C870 C 0.76375 0.28618 0.30252 0.0
H871 H 0.7132 0.1953 0.1676 0.0
H872 H 0.72658 0.21599 0.24302 0.0
H873 H 0.76086 0.27979 0.22508 0.0
H874 H 0.79518 0.33641 0.44668 0.0
H875 H 0.7737 0.32352 0.37326 0.0
H876 H 0.73015 0.26289 0.38365 0.0
C877 C 0.72291 0.22538 0.21252 0.0
C878 C 0.75382 0.27628 0.25953 0.0
C879 C 0.71517 0.21354 0.16934 0.0
C880 C 0.78864 0.31925 0.44215 0.0
C881 C 0.77638 0.31186 0.40021 0.0
C882 C 0.73702 0.26674 0.34928 0.0
C883 C 0.72661 0.2489 0.21575 0.0
C884 C 0.73575 0.26111 0.26109 0.0
C885 C 0.76768 0.28968 0.39329 0.0
C886 C 0.75572 0.28116 0.34785 0.0
H887 H 0.71077 0.258 0.10138 0.0
H888 H 0.72469 0.27861 0.17684 0.0
H889 H 0.71303 0.24542 0.30856 0.0
H890 H 0.78642 0.2707 0.4977 0.0
H891 H 0.76527 0.2578 0.42473 0.0
C892 C 0.70814 0.77429 0.44456 0.0
C893 C 0.70536 0.79801 0.45199 0.0
C894 C 0.71727 0.7639 0.40113 0.0
C895 C 0.75417 0.77703 0.30178 0.0
H896 H 0.73356 0.71923 0.23754 0.0
C897 C 0.80577 0.72723 0.15066 0.0
C898 C 0.79406 0.71775 0.10915 0.0
C899 C 0.79412 0.73597 0.19228 0.0
C900 C 0.73939 0.73545 0.25493 0.0
H901 H 0.70951 0.82934 0.41925 0.0
H902 H 0.72481 0.81118 0.34312 0.0
H903 H 0.71362 0.7369 0.30934 0.0
H904 H 0.76092 0.70966 0.07907 0.0
H905 H 0.74046 0.72531 0.15189 0.0
H906 H 0.77973 0.77582 0.24732 0.0
C907 C 0.72022 0.80063 0.37107 0.0
C908 C 0.72811 0.74546 0.29624 0.0
C909 C 0.71114 0.81101 0.41444 0.0
C910 C 0.7704 0.71693 0.11045 0.0
C911 C 0.7587 0.72571 0.15224 0.0
C912 C 0.76543 0.76704 0.26067 0.0
C913 C 0.7238 0.77703 0.3643 0.0
C914 C 0.73538 0.76638 0.32003 0.0
C915 C 0.77047 0.73558 0.19337 0.0
C916 C 0.75822 0.74611 0.23684 0.0
H917 H 0.70372 0.7638 0.47273 0.0
H918 H 0.71996 0.7457 0.39714 0.0
H919 H 0.76041 0.79298 0.3197 0.0
H920 H 0.82398 0.72847 0.15063 0.0
H921 H 0.80368 0.7432 0.22359 0.0
C922 C 0.28484 0.81121 0.1712 0.0
C923 C 0.30529 0.80371 0.14951 0.0
C924 C 0.27544 0.80018 0.20845 0.0
C925 C 0.28768 0.75636 0.29331 0.0
H926 H 0.2225 0.75507 0.30084 0.0
C927 C 0.24299 0.72066 0.45269 0.0
C928 C 0.22101 0.71186 0.44726 0.0
C929 C 0.25342 0.73063 0.41528 0.0
C930 C 0.24071 0.75483 0.29894 0.0
H931 H 0.33201 0.77886 0.14968 0.0
H932 H 0.31551 0.7591 0.21373 0.0
H933 H 0.24045 0.7748 0.23935 0.0
H934 H 0.19333 0.70559 0.39646 0.0
H935 H 0.21208 0.72168 0.32975 0.0
H936 H 0.28797 0.73516 0.35067 0.0
C937 C 0.30691 0.77397 0.20342 0.0
C938 C 0.25113 0.76669 0.26407 0.0
C939 C 0.31651 0.78532 0.16669 0.0
C940 C 0.21026 0.71215 0.40202 0.0
C941 C 0.22094 0.72179 0.36397 0.0
C942 C 0.27727 0.74409 0.3274 0.0
C943 C 0.28596 0.78094 0.22425 0.0
C944 C 0.27481 0.76791 0.26107 0.0
C945 C 0.24256 0.73159 0.37034 0.0
C946 C 0.2536 0.74338 0.33136 0.0
H947 H 0.27572 0.82519 0.15809 0.0
H948 H 0.25967 0.8066 0.22416 0.0
H949 H 0.3059 0.75695 0.29289 0.0
H950 H 0.25211 0.72033 0.48652 0.0
H951 H 0.26982 0.7382 0.42252 0.0
C952 C 0.73929 0.79934 0.62593 0.0
C953 C 0.71734 0.80834 0.63126 0.0
C954 C 0.75002 0.79005 0.664 0.0
C955 C 0.73826 0.7685 0.78355 0.0
H956 H 0.80345 0.76494 0.78615 0.0
C957 C 0.78327 0.71323 0.91307 0.0
C958 C 0.8044 0.72012 0.93213 0.0
C959 C 0.77337 0.72411 0.87603 0.0
C960 C 0.78525 0.76598 0.78677 0.0
H961 H 0.69012 0.81588 0.68267 0.0
H962 H 0.70943 0.80106 0.75044 0.0
H963 H 0.78514 0.78605 0.72756 0.0
H964 H 0.83176 0.74378 0.92776 0.0
H965 H 0.81436 0.7634 0.86432 0.0
H966 H 0.73847 0.74978 0.84508 0.0
C967 C 0.71799 0.80016 0.71579 0.0
C968 C 0.77459 0.77783 0.75216 0.0
C969 C 0.70698 0.80907 0.67707 0.0
C970 C 0.81569 0.73781 0.9128 0.0
C971 C 0.80559 0.74906 0.87638 0.0
C972 C 0.74895 0.75713 0.81901 0.0
C973 C 0.73954 0.79007 0.70955 0.0
C974 C 0.7509 0.77896 0.74931 0.0
C975 C 0.78407 0.74262 0.85789 0.0
C976 C 0.77264 0.75536 0.82077 0.0
H977 H 0.7482 0.79902 0.59176 0.0
H978 H 0.76635 0.78225 0.65681 0.0
H979 H 0.72003 0.76862 0.78262 0.0
H980 H 0.77413 0.69976 0.92782 0.0
H981 H 0.75716 0.71808 0.86218 0.0
C982 C 0.20983 0.74688 0.63062 0.0
C983 C 0.20714 0.7231 0.62599 0.0
C984 C 0.21755 0.7586 0.6741 0.0
C985 C 0.22459 0.75443 0.80522 0.0
H986 H 0.27425 0.79615 0.79601 0.0
C987 C 0.28147 0.78306 0.96856 0.0
C988 C 0.29019 0.80524 0.97399 0.0
C989 C 0.26916 0.77503 0.92724 0.0
C990 C 0.26012 0.78491 0.79933 0.0
H991 H 0.20987 0.69323 0.66432 0.0
H992 H 0.22282 0.71377 0.74054 0.0
H993 H 0.25625 0.77848 0.72208 0.0
H994 H 0.29242 0.83655 0.94067 0.0
H995 H 0.27068 0.82258 0.86833 0.0
H996 H 0.22845 0.76074 0.88236 0.0
C997 C 0.21894 0.7233 0.71037 0.0
C998 C 0.24984 0.77472 0.7569 0.0
C999 C 0.21142 0.71153 0.66671 0.0
C1000 C 0.28608 0.81931 0.93728 0.0
C1001 C 0.27366 0.81128 0.89586 0.0
C1002 C 0.23475 0.76473 0.84763 0.0
C1003 C 0.2225 0.7469 0.71425 0.0
C1004 C 0.23222 0.75906 0.75937 0.0
C1005 C 0.26515 0.78897 0.89021 0.0
C1006 C 0.25293 0.77977 0.84524 0.0
H1007 H 0.20629 0.75645 0.60034 0.0
H1008 H 0.21978 0.77683 0.67622 0.0
H1009 H 0.21081 0.74274 0.80831 0.0
H1010 H 0.28471 0.7716 0.99568 0.0
H1011 H 0.26336 0.75761 0.92375 0.0
C1012 C 0.2168 0.31987 0.92492 0.0
C1013 C 0.2102 0.30778 0.96335 0.0
C1014 C 0.22518 0.30841 0.8818 0.0
C1015 C 0.25311 0.25532 0.83332 0.0
H1016 H 0.23546 0.27371 0.70859 0.0
C1017 C 0.28777 0.21065 0.65156 0.0
C1018 C 0.29355 0.22499 0.61645 0.0
C1019 C 0.27581 0.21918 0.69321 0.0
C1020 C 0.24072 0.26848 0.74313 0.0
H1021 H 0.20665 0.27403 0.98603 0.0
H1022 H 0.22148 0.2541 0.91085 0.0
H1023 H 0.21797 0.2918 0.7826 0.0
H1024 H 0.29176 0.25951 0.59765 0.0
H1025 H 0.27137 0.27446 0.67034 0.0
H1026 H 0.27628 0.2324 0.79403 0.0
C1027 C 0.22036 0.27246 0.91435 0.0
C1028 C 0.23067 0.27884 0.78551 0.0
C1029 C 0.21186 0.2839 0.95736 0.0
C1030 C 0.28722 0.24798 0.62376 0.0
C1031 C 0.27543 0.25651 0.66536 0.0
C1032 C 0.26329 0.24504 0.79091 0.0
C1033 C 0.22723 0.28461 0.87622 0.0
C1034 C 0.23696 0.2726 0.8311 0.0
C1035 C 0.26954 0.24224 0.70061 0.0
C1036 C 0.25745 0.25175 0.74536 0.0
H1037 H 0.21615 0.33826 0.92868 0.0
H1038 H 0.23064 0.31826 0.85328 0.0
H1039 H 0.25844 0.25028 0.868 0.0
H1040 H 0.29229 0.19281 0.64651 0.0
H1041 H 0.27133 0.20767 0.71938 0.0
C1042 C 0.78181 0.30708 0.66761 0.0
C1043 C 0.8046 0.30346 0.65488 0.0
C1044 C 0.77203 0.29638 0.70482 0.0
C1045 C 0.78093 0.24739 0.77731 0.0
H1046 H 0.72937 0.27409 0.84841 0.0
C1047 C 0.74157 0.21081 0.94421 0.0
C1048 C 0.71798 0.21119 0.94875 0.0
C1049 C 0.75216 0.22081 0.90679 0.0
C1050 C 0.74358 0.26626 0.82848 0.0
H1051 H 0.83529 0.28665 0.67366 0.0
H1052 H 0.81859 0.26888 0.74087 0.0
H1053 H 0.74882 0.2955 0.79133 0.0
H1054 H 0.68694 0.22214 0.91751 0.0
H1055 H 0.70541 0.23975 0.85181 0.0
H1056 H 0.77592 0.21841 0.8161 0.0
C1057 C 0.80799 0.2794 0.72067 0.0
C1058 C 0.75482 0.27856 0.7955 0.0
C1059 C 0.81775 0.28995 0.6827 0.0
C1060 C 0.70512 0.22126 0.91427 0.0
C1061 C 0.71574 0.23158 0.87712 0.0
C1062 C 0.76986 0.23523 0.81089 0.0
C1063 C 0.78479 0.28201 0.73154 0.0
C1064 C 0.7736 0.26929 0.76899 0.0
C1065 C 0.73943 0.2318 0.8734 0.0
C1066 C 0.75094 0.24444 0.83667 0.0
H1067 H 0.77115 0.31747 0.64714 0.0
H1068 H 0.75413 0.29872 0.71103 0.0
H1069 H 0.79497 0.23934 0.7572 0.0
H1070 H 0.75188 0.20348 0.97083 0.0
H1071 H 0.7704 0.22086 0.9054 0.0
loop_
_geom_bond_atom_site_label_1
_geom_bond_atom_site_label_2
_geom_bond_distance
_geom_bond_site_symmetry_2
_ccdc_geom_bond_type
O0 Tb1 2.292 . S
O0 C3 1.255 . S
Tb1 O0 2.292 . S
Tb1 O17 2.326 . S
Tb1 O19 2.500 . S
Tb1 O20 2.473 1_556 S
Tb1 O23 2.324 1_556 S
Eu2 O6 2.292 . S
Eu2 C7 2.852 . S
Eu2 O18 2.324 1_554 S
Eu2 O22 2.326 . S
Eu2 O24 2.500 . S
Eu2 O25 2.473 . S
C3 O0 1.255 . S
C3 O4 1.247 . S
O4 C3 1.247 . S
C5 O17 1.242 . S
C5 O18 1.258 . S
O6 Eu2 2.292 . S
O6 C8 1.255 . S
C7 Eu2 2.852 . S
C7 C11 1.503 . S
C7 O24 1.273 . S
C7 O25 1.257 . S
C8 O6 1.255 . S
C8 O9 1.247 . S
O9 C8 1.247 . S
C10 O22 1.242 . S
C10 O23 1.258 . S
C11 C7 1.503 . S
C11 C12 1.379 1_554 S
C11 C16 1.392 . S
C12 C11 1.379 1_556 S
C12 C13 1.404 . S
C12 H26 0.929 . S
C13 C12 1.404 . S
C13 C14 1.389 1_556 S
C14 C13 1.389 1_554 S
C14 C15 1.399 . S
C14 H27 0.931 . S
C15 C14 1.399 . S
C15 C16 1.390 . S
C16 C11 1.392 . S
C16 C15 1.390 . S
C16 H28 0.929 . S
O17 Tb1 2.326 . S
O17 C5 1.242 . S
O18 Eu2 2.324 1_556 S
O18 C5 1.258 . S
O19 Tb1 2.500 . S
O19 C21 1.273 . S
O20 Tb1 2.473 1_554 S
O20 C21 1.257 1_554 S
C21 O19 1.273 . S
C21 O20 1.257 1_556 S
O22 Eu2 2.326 . S
O22 C10 1.242 . S
O23 Tb1 2.324 1_554 S
O23 C10 1.258 . S
O24 Eu2 2.500 . S
O24 C7 1.273 . S
O25 Eu2 2.473 . S
O25 C7 1.257 . S
H26 C12 0.929 . S
H27 C14 0.931 . S
H28 C16 0.929 . S
O29 Tb30 2.292 . S
O29 C32 1.255 . S
Tb30 O29 2.292 . S
Tb30 O46 2.326 . S
Tb30 O48 2.500 . S
Tb30 O49 2.473 . S
Tb30 O52 2.324 . S
Eu31 O35 2.292 . S
Eu31 C36 2.852 1_556 S
Eu31 O47 2.324 1_556 S
Eu31 O51 2.326 . S
Eu31 O53 2.500 . S
Eu31 O54 2.473 1_556 S
C32 O29 1.255 . S
C32 O33 1.247 . S
O33 C32 1.247 . S
C34 O46 1.242 . S
C34 O47 1.258 . S
O35 Eu31 2.292 . S
O35 C37 1.255 . S
C36 Eu31 2.852 1_554 S
C36 C40 1.503 . S
C36 O53 1.273 1_554 S
C36 O54 1.257 . S
C37 O35 1.255 . S
C37 O38 1.247 . S
O38 C37 1.247 . S
C39 O51 1.242 . S
C39 O52 1.258 1_556 S
C40 C36 1.503 . S
C40 C41 1.379 . S
C40 C45 1.392 1_554 S
C41 C40 1.379 . S
C41 C42 1.404 . S
C41 H55 0.929 . S
C42 C41 1.404 . S
C42 C43 1.389 . S
C43 C42 1.389 . S
C43 C44 1.399 1_554 S
C43 H56 0.931 . S
C44 C43 1.399 1_556 S
C44 C45 1.390 . S
C45 C40 1.392 1_556 S
C45 C44 1.390 . S
C45 H57 0.929 . S
O46 Tb30 2.326 . S
O46 C34 1.242 . S
O47 Eu31 2.324 1_554 S
O47 C34 1.258 . S
O48 Tb30 2.500 . S
O48 C50 1.273 . S
O49 Tb30 2.473 . S
O49 C50 1.257 . S
C50 O48 1.273 . S
C50 O49 1.257 . S
O51 Eu31 2.326 . S
O51 C39 1.242 . S
O52 Tb30 2.324 . S
O52 C39 1.258 1_554 S
O53 Eu31 2.500 . S
O53 C36 1.273 1_556 S
O54 Eu31 2.473 1_554 S
O54 C36 1.257 . S
H55 C41 0.929 . S
H56 C43 0.931 . S
H57 C45 0.929 . S
O58 Tb59 2.292 . S
O58 C61 1.255 . S
Tb59 O58 2.292 . S
Tb59 O75 2.326 . S
Tb59 O77 2.500 . S
Tb59 O78 2.473 . S
Tb59 O81 2.324 1_554 S
Eu60 O64 2.292 1_554 S
Eu60 C65 2.852 . S
Eu60 O76 2.324 . S
Eu60 O80 2.326 1_554 S
Eu60 O82 2.500 1_554 S
Eu60 O83 2.473 . S
C61 O58 1.255 . S
C61 O62 1.247 . S
O62 C61 1.247 . S
C63 O75 1.242 . S
C63 O76 1.258 . S
O64 Eu60 2.292 1_556 S
O64 C66 1.255 . S
C65 Eu60 2.852 . S
C65 C69 1.503 . S
C65 O82 1.273 1_554 S
C65 O83 1.257 . S
C66 O64 1.255 . S
C66 O67 1.247 . S
O67 C66 1.247 . S
C68 O80 1.242 . S
C68 O81 1.258 . S
C69 C65 1.503 . S
C69 C70 1.379 . S
C69 C74 1.392 1_554 S
C70 C69 1.379 . S
C70 C71 1.404 . S
C70 H84 0.929 . S
C71 C70 1.404 . S
C71 C72 1.389 . S
C72 C71 1.389 . S
C72 C73 1.399 1_554 S
C72 H85 0.931 . S
C73 C72 1.399 1_556 S
C73 C74 1.390 . S
C74 C69 1.392 1_556 S
C74 C73 1.390 . S
C74 H86 0.929 . S
O75 Tb59 2.326 . S
O75 C63 1.242 . S
O76 Eu60 2.324 . S
O76 C63 1.258 . S
O77 Tb59 2.500 . S
O77 C79 1.273 . S
O78 Tb59 2.473 . S
O78 C79 1.257 . S
C79 O77 1.273 . S
C79 O78 1.257 . S
O80 Eu60 2.326 1_556 S
O80 C68 1.242 . S
O81 Tb59 2.324 1_556 S
O81 C68 1.258 . S
O82 Eu60 2.500 1_556 S
O82 C65 1.273 1_556 S
O83 Eu60 2.473 . S
O83 C65 1.257 . S
H84 C70 0.929 . S
H85 C72 0.931 . S
H86 C74 0.929 . S
O87 Tb88 2.292 . S
O87 C90 1.255 . S
Tb88 O87 2.292 . S
Tb88 O104 2.326 . S
Tb88 O106 2.500 . S
Tb88 O107 2.473 1_556 S
Tb88 O110 2.324 1_556 S
Eu89 O93 2.292 . S
Eu89 C94 2.852 . S
Eu89 O105 2.324 1_554 S
Eu89 O109 2.326 . S
Eu89 O111 2.500 . S
Eu89 O112 2.473 1_554 S
C90 O87 1.255 . S
C90 O91 1.247 . S
O91 C90 1.247 . S
C92 O104 1.242 . S
C92 O105 1.258 . S
O93 Eu89 2.292 . S
O93 C95 1.255 . S
C94 Eu89 2.852 . S
C94 C98 1.503 . S
C94 O111 1.273 . S
C94 O112 1.257 1_554 S
C95 O93 1.255 . S
C95 O96 1.247 . S
O96 C95 1.247 . S
C97 O109 1.242 . S
C97 O110 1.258 . S
C98 C94 1.503 . S
C98 C99 1.379 1_554 S
C98 C103 1.392 . S
C99 C98 1.379 1_556 S
C99 C100 1.404 . S
C99 H113 0.929 . S
C100 C99 1.404 . S
C100 C101 1.389 1_556 S
C101 C100 1.389 1_554 S
C101 C102 1.399 . S
C101 H114 0.931 . S
C102 C101 1.399 . S
C102 C103 1.390 . S
C103 C98 1.392 . S
C103 C102 1.390 . S
C103 H115 0.929 . S
O104 Tb88 2.326 . S
O104 C92 1.242 . S
O105 Eu89 2.324 1_556 S
O105 C92 1.258 . S
O106 Tb88 2.500 . S
O106 C108 1.273 . S
O107 Tb88 2.473 1_554 S
O107 C108 1.257 1_554 S
C108 O106 1.273 . S
C108 O107 1.257 1_556 S
O109 Eu89 2.326 . S
O109 C97 1.242 . S
O110 Tb88 2.324 1_554 S
O110 C97 1.258 . S
O111 Eu89 2.500 . S
O111 C94 1.273 . S
O112 Eu89 2.473 1_556 S
O112 C94 1.257 1_556 S
H113 C99 0.929 . S
H114 C101 0.931 . S
H115 C103 0.929 . S
O116 Tb117 2.292 . S
O116 C119 1.255 . S
Tb117 O116 2.292 . S
Tb117 O133 2.326 . S
Tb117 O135 2.500 . S
Tb117 O136 2.473 . S
Tb117 O139 2.324 . S
Eu118 O122 2.292 . S
Eu118 C123 2.852 . S
Eu118 O134 2.324 . S
Eu118 O138 2.326 . S
Eu118 O140 2.500 . S
Eu118 O141 2.473 . S
C119 O116 1.255 . S
C119 O120 1.247 . S
O120 C119 1.247 . S
C121 O133 1.242 . S
C121 O134 1.258 . S
O122 Eu118 2.292 . S
O122 C124 1.255 . S
C123 Eu118 2.852 . S
C123 C127 1.503 . S
C123 O140 1.273 . S
C123 O141 1.257 . S
C124 O122 1.255 . S
C124 O125 1.247 . S
O125 C124 1.247 . S
C126 O138 1.242 . S
C126 O139 1.258 . S
C127 C123 1.503 . S
C127 C128 1.379 . S
C127 C132 1.392 . S
C128 C127 1.379 . S
C128 C129 1.404 . S
C128 H142 0.929 . S
C129 C128 1.404 . S
C129 C130 1.389 . S
C130 C129 1.389 . S
C130 C131 1.399 . S
C130 H143 0.931 . S
C131 C130 1.399 . S
C131 C132 1.390 . S
C132 C127 1.392 . S
C132 C131 1.390 . S
C132 H144 0.929 . S
O133 Tb117 2.326 . S
O133 C121 1.242 . S
O134 Eu118 2.324 . S
O134 C121 1.258 . S
O135 Tb117 2.500 . S
O135 C137 1.273 . S
O136 Tb117 2.473 . S
O136 C137 1.257 . S
C137 O135 1.273 . S
C137 O136 1.257 . S
O138 Eu118 2.326 . S
O138 C126 1.242 . S
O139 Tb117 2.324 . S
O139 C126 1.258 . S
O140 Eu118 2.500 . S
O140 C123 1.273 . S
O141 Eu118 2.473 . S
O141 C123 1.257 . S
H142 C128 0.929 . S
H143 C130 0.931 . S
H144 C132 0.929 . S
O145 Tb146 2.292 . S
O145 C148 1.255 . S
Tb146 O145 2.292 . S
Tb146 O162 2.326 . S
Tb146 O164 2.500 . S
Tb146 O165 2.473 . S
Tb146 O168 2.324 . S
Eu147 O151 2.292 . S
Eu147 C152 2.852 . S
Eu147 O163 2.324 . S
Eu147 O167 2.326 . S
Eu147 O169 2.500 . S
Eu147 O170 2.473 . S
C148 O145 1.255 . S
C148 O149 1.247 . S
O149 C148 1.247 . S
C150 O162 1.242 . S
C150 O163 1.258 . S
O151 Eu147 2.292 . S
O151 C153 1.255 . S
C152 Eu147 2.852 . S
C152 C156 1.503 . S
C152 O169 1.273 . S
C152 O170 1.257 . S
C153 O151 1.255 . S
C153 O154 1.247 . S
O154 C153 1.247 . S
C155 O167 1.242 . S
C155 O168 1.258 . S
C156 C152 1.503 . S
C156 C157 1.379 . S
C156 C161 1.392 . S
C157 C156 1.379 . S
C157 C158 1.404 . S
C157 H171 0.929 . S
C158 C157 1.404 . S
C158 C159 1.389 . S
C159 C158 1.389 . S
C159 C160 1.399 . S
C159 H172 0.931 . S
C160 C159 1.399 . S
C160 C161 1.390 . S
C161 C156 1.392 . S
C161 C160 1.390 . S
C161 H173 0.929 . S
O162 Tb146 2.326 . S
O162 C150 1.242 . S
O163 Eu147 2.324 . S
O163 C150 1.258 . S
O164 Tb146 2.500 . S
O164 C166 1.273 . S
O165 Tb146 2.473 . S
O165 C166 1.257 . S
C166 O164 1.273 . S
C166 O165 1.257 . S
O167 Eu147 2.326 . S
O167 C155 1.242 . S
O168 Tb146 2.324 . S
O168 C155 1.258 . S
O169 Eu147 2.500 . S
O169 C152 1.273 . S
O170 Eu147 2.473 . S
O170 C152 1.257 . S
H171 C157 0.929 . S
H172 C159 0.931 . S
H173 C161 0.929 . S
O174 Tb175 2.292 . S
O174 C177 1.255 . S
Tb175 O174 2.292 . S
Tb175 O191 2.326 . S
Tb175 O193 2.500 . S
Tb175 O194 2.473 . S
Tb175 O197 2.324 . S
Eu176 O180 2.292 . S
Eu176 C181 2.852 . S
Eu176 O192 2.324 . S
Eu176 O196 2.326 . S
Eu176 O198 2.500 . S
Eu176 O199 2.473 . S
C177 O174 1.255 . S
C177 O178 1.247 . S
O178 C177 1.247 . S
C179 O191 1.242 . S
C179 O192 1.258 . S
O180 Eu176 2.292 . S
O180 C182 1.255 . S
C181 Eu176 2.852 . S
C181 C185 1.503 . S
C181 O198 1.273 . S
C181 O199 1.257 . S
C182 O180 1.255 . S
C182 O183 1.247 . S
O183 C182 1.247 . S
C184 O196 1.242 . S
C184 O197 1.258 . S
C185 C181 1.503 . S
C185 C186 1.379 . S
C185 C190 1.392 . S
C186 C185 1.379 . S
C186 C187 1.404 . S
C186 H200 0.929 . S
C187 C186 1.404 . S
C187 C188 1.389 . S
C188 C187 1.389 . S
C188 C189 1.399 . S
C188 H201 0.931 . S
C189 C188 1.399 . S
C189 C190 1.390 . S
C190 C185 1.392 . S
C190 C189 1.390 . S
C190 H202 0.929 . S
O191 Tb175 2.326 . S
O191 C179 1.242 . S
O192 Eu176 2.324 . S
O192 C179 1.258 . S
O193 Tb175 2.500 . S
O193 C195 1.273 . S
O194 Tb175 2.473 . S
O194 C195 1.257 . S
C195 O193 1.273 . S
C195 O194 1.257 . S
O196 Eu176 2.326 . S
O196 C184 1.242 . S
O197 Tb175 2.324 . S
O197 C184 1.258 . S
O198 Eu176 2.500 . S
O198 C181 1.273 . S
O199 Eu176 2.473 . S
O199 C181 1.257 . S
H200 C186 0.929 . S
H201 C188 0.931 . S
H202 C190 0.929 . S
O203 Tb204 2.292 . S
O203 C206 1.255 . S
Tb204 O203 2.292 . S
Tb204 O220 2.326 . S
Tb204 O222 2.500 . S
Tb204 O223 2.473 . S
Tb204 O226 2.324 . S
Eu205 O209 2.292 . S
Eu205 C210 2.852 . S
Eu205 O221 2.324 . S
Eu205 O225 2.326 . S
Eu205 O227 2.500 . S
Eu205 O228 2.473 . S
C206 O203 1.255 . S
C206 O207 1.247 . S
O207 C206 1.247 . S
C208 O220 1.242 . S
C208 O221 1.258 . S
O209 Eu205 2.292 . S
O209 C211 1.255 . S
C210 Eu205 2.852 . S
C210 C214 1.503 . S
C210 O227 1.273 . S
C210 O228 1.257 . S
C211 O209 1.255 . S
C211 O212 1.247 . S
O212 C211 1.247 . S
C213 O225 1.242 . S
C213 O226 1.258 . S
C214 C210 1.503 . S
C214 C215 1.379 . S
C214 C219 1.392 . S
C215 C214 1.379 . S
C215 C216 1.404 . S
C215 H229 0.929 . S
C216 C215 1.404 . S
C216 C217 1.389 . S
C217 C216 1.389 . S
C217 C218 1.399 . S
C217 H230 0.931 . S
C218 C217 1.399 . S
C218 C219 1.390 . S
C219 C214 1.392 . S
C219 C218 1.390 . S
C219 H231 0.929 . S
O220 Tb204 2.326 . S
O220 C208 1.242 . S
O221 Eu205 2.324 . S
O221 C208 1.258 . S
O222 Tb204 2.500 . S
O222 C224 1.273 . S
O223 Tb204 2.473 . S
O223 C224 1.257 . S
C224 O222 1.273 . S
C224 O223 1.257 . S
O225 Eu205 2.326 . S
O225 C213 1.242 . S
O226 Tb204 2.324 . S
O226 C213 1.258 . S
O227 Eu205 2.500 . S
O227 C210 1.273 . S
O228 Eu205 2.473 . S
O228 C210 1.257 . S
H229 C215 0.929 . S
H230 C217 0.931 . S
H231 C219 0.929 . S
C232 C233 1.349 1_554 S
C232 C234 1.327 . S
C232 H257 0.950 . S
C233 C232 1.349 1_556 S
C233 C249 1.349 . S
C234 C232 1.327 . S
C234 C253 1.429 . S
C234 H258 0.950 . S
C235 C252 1.574 1_456 S
C235 C254 1.368 1_556 S
C235 H259 0.949 . S
H236 C240 0.949 . S
C237 C238 1.349 . S
C237 C239 1.327 . S
C237 H260 0.950 . S
C238 C237 1.349 . S
C238 C250 1.349 . S
C239 C237 1.327 . S
C239 C255 1.429 . S
C239 H261 0.962 . S
C240 H236 0.949 . S
C240 C248 1.574 . S
C240 C256 1.368 . S
H241 C249 0.950 . S
H242 C247 0.950 . S
H243 C248 0.949 . S
H244 C250 0.950 . S
H245 C251 0.950 . S
H246 C252 0.949 1_556 S
C247 H242 0.950 . S
C247 C249 1.327 . S
C247 C253 1.429 1_556 S
C248 C240 1.574 . S
C248 H243 0.949 . S
C248 C254 1.368 1_655 S
C249 C233 1.349 . S
C249 H241 0.950 . S
C249 C247 1.327 . S
C250 C238 1.349 . S
C250 H244 0.950 . S
C250 C251 1.327 . S
C251 H245 0.950 . S
C251 C250 1.327 . S
C251 C255 1.429 . S
C252 C235 1.574 1_654 S
C252 H246 0.949 1_554 S
C252 C256 1.368 . S
C253 C234 1.429 . S
C253 C247 1.429 1_554 S
C253 C254 1.523 . S
C254 C235 1.368 1_554 S
C254 C248 1.368 1_455 S
C254 C253 1.523 . S
C255 C239 1.429 . S
C255 C251 1.429 . S
C255 C256 1.523 . S
C256 C240 1.368 . S
C256 C252 1.368 . S
C256 C255 1.523 . S
H257 C232 0.950 . S
H258 C234 0.950 . S
H259 C235 0.949 . S
H260 C237 0.950 . S
H261 C239 0.962 . S
C262 C263 1.349 . S
C262 C264 1.327 . S
C262 H287 0.950 . S
C263 C262 1.349 . S
C263 C279 1.349 1_556 S
C264 C262 1.327 . S
C264 C283 1.429 1_556 S
C264 H288 0.950 . S
C265 C282 1.574 1_565 S
C265 C284 1.368 . S
C265 H289 0.949 . S
H266 C270 0.949 . S
C267 C268 1.349 . S
C267 C269 1.327 . S
C267 H290 0.950 . S
C268 C267 1.349 . S
C268 C280 1.349 . S
C269 C267 1.327 . S
C269 C285 1.429 . S
C269 H291 0.950 . S
C270 H266 0.949 . S
C270 C278 1.574 . S
C270 C286 1.368 1_556 S
H271 C279 0.950 . S
H272 C277 0.950 . S
H273 C278 0.949 . S
H274 C280 0.950 . S
H275 C281 0.950 1_556 S
H276 C282 0.949 . S
C277 H272 0.950 . S
C277 C279 1.327 . S
C277 C283 1.429 . S
C278 C270 1.574 . S
C278 H273 0.949 . S
C278 C284 1.368 1_546 S
C279 C263 1.349 1_554 S
C279 H271 0.950 . S
C279 C277 1.327 . S
C280 C268 1.349 . S
C280 H274 0.950 . S
C280 C281 1.327 . S
C281 H275 0.950 1_554 S
C281 C280 1.327 . S
C281 C285 1.429 . S
C282 C265 1.574 1_545 S
C282 H276 0.949 . S
C282 C286 1.368 . S
C283 C264 1.429 1_554 S
C283 C277 1.429 . S
C283 C284 1.523 . S
C284 C265 1.368 . S
C284 C278 1.368 1_564 S
C284 C283 1.523 . S
C285 C269 1.429 . S
C285 C281 1.429 . S
C285 C286 1.523 . S
C286 C270 1.368 1_554 S
C286 C282 1.368 . S
C286 C285 1.523 . S
H287 C262 0.950 . S
H288 C264 0.950 . S
H289 C265 0.949 . S
H290 C267 0.950 . S
H291 C269 0.950 . S
C292 C293 1.349 . S
C292 C294 1.327 . S
C292 H317 0.950 . S
C293 C292 1.349 . S
C293 C309 1.349 . S
C294 C292 1.327 . S
C294 C313 1.429 . S
C294 H318 0.950 . S
C295 C312 1.574 1_455 S
C295 C314 1.368 . S
C295 H319 0.949 . S
H296 C300 0.949 . S
C297 C298 1.349 . S
C297 C299 1.327 . S
C297 H320 0.950 . S
C298 C297 1.349 . S
C298 C310 1.349 . S
C299 C297 1.327 . S
C299 C315 1.429 . S
C299 H321 0.950 . S
C300 H296 0.949 . S
C300 C308 1.574 . S
C300 C316 1.368 . S
H301 C309 0.950 . S
H302 C307 0.950 . S
H303 C308 0.949 . S
H304 C310 0.950 . S
H305 C311 0.950 . S
H306 C312 0.949 . S
C307 H302 0.950 . S
C307 C309 1.327 . S
C307 C313 1.429 . S
C308 C300 1.574 . S
C308 H303 0.949 . S
C308 C314 1.368 1_655 S
C309 C293 1.349 . S
C309 H301 0.950 . S
C309 C307 1.327 . S
C310 C298 1.349 . S
C310 H304 0.950 . S
C310 C311 1.327 . S
C311 H305 0.950 . S
C311 C310 1.327 . S
C311 C315 1.429 . S
C312 C295 1.574 1_655 S
C312 H306 0.949 . S
C312 C316 1.368 . S
C313 C294 1.429 . S
C313 C307 1.429 . S
C313 C314 1.523 . S
C314 C295 1.368 . S
C314 C308 1.368 1_455 S
C314 C313 1.523 . S
C315 C299 1.429 . S
C315 C311 1.429 . S
C315 C316 1.523 . S
C316 C300 1.368 . S
C316 C312 1.368 . S
C316 C315 1.523 . S
H317 C292 0.950 . S
H318 C294 0.950 . S
H319 C295 0.949 . S
H320 C297 0.950 . S
H321 C299 0.950 . S
C322 C323 1.349 . S
C322 C324 1.327 . S
C322 H347 0.950 . S
C323 C322 1.349 . S
C323 C339 1.349 . S
C324 C322 1.327 . S
C324 C343 1.429 . S
C324 H348 0.950 . S
C325 C342 1.574 1_565 S
C325 C344 1.368 . S
C325 H349 0.949 . S
H326 C330 0.949 . S
C327 C328 1.349 . S
C327 C329 1.327 . S
C327 H350 0.950 . S
C328 C327 1.349 . S
C328 C340 1.349 . S
C329 C327 1.327 . S
C329 C345 1.429 . S
C329 H351 0.950 . S
C330 H326 0.949 . S
C330 C338 1.574 . S
C330 C346 1.368 1_565 S
H331 C339 0.950 . S
H332 C337 0.950 . S
H333 C338 0.949 . S
H334 C340 0.950 . S
H335 C341 0.950 . S
H336 C342 0.949 . S
C337 H332 0.950 . S
C337 C339 1.327 . S
C337 C343 1.429 . S
C338 C330 1.574 . S
C338 H333 0.949 . S
C338 C344 1.368 . S
C339 C323 1.349 . S
C339 H331 0.950 . S
C339 C337 1.327 . S
C340 C328 1.349 . S
C340 H334 0.950 . S
C340 C341 1.327 . S
C341 H335 0.950 . S
C341 C340 1.327 . S
C341 C345 1.429 . S
C342 C325 1.574 1_545 S
C342 H336 0.949 . S
C342 C346 1.368 . S
C343 C324 1.429 . S
C343 C337 1.429 . S
C343 C344 1.523 . S
C344 C325 1.368 . S
C344 C338 1.368 . S
C344 C343 1.523 . S
C345 C329 1.429 . S
C345 C341 1.429 . S
C345 C346 1.523 . S
C346 C330 1.368 1_545 S
C346 C342 1.368 . S
C346 C345 1.523 . S
H347 C322 0.950 . S
H348 C324 0.950 . S
H349 C325 0.949 . S
H350 C327 0.950 . S
H351 C329 0.950 . S
C352 C353 1.349 . S
C352 C354 1.327 . S
C352 H377 0.950 . S
C353 C352 1.349 . S
C353 C369 1.349 . S
C354 C352 1.327 . S
C354 C373 1.429 . S
C354 H378 0.950 . S
C355 C372 1.574 . S
C355 C374 1.368 . S
C355 H379 0.949 . S
H356 C360 0.949 . S
C357 C358 1.349 . S
C357 C359 1.327 . S
C357 H380 0.950 . S
C358 C357 1.349 . S
C358 C370 1.349 . S
C359 C357 1.327 . S
C359 C375 1.429 . S
C359 H381 0.950 . S
C360 H356 0.949 . S
C360 C368 1.574 . S
C360 C376 1.368 . S
H361 C369 0.950 . S
H362 C367 0.950 . S
H363 C368 0.949 . S
H364 C370 0.950 . S
H365 C371 0.950 . S
H366 C372 0.949 . S
C367 H362 0.950 . S
C367 C369 1.327 . S
C367 C373 1.429 . S
C368 C360 1.574 . S
C368 H363 0.949 . S
C368 C374 1.368 . S
C369 C353 1.349 . S
C369 H361 0.950 . S
C369 C367 1.327 . S
C370 C358 1.349 . S
C370 H364 0.950 . S
C370 C371 1.327 . S
C371 H365 0.950 . S
C371 C370 1.327 . S
C371 C375 1.429 . S
C372 C355 1.574 . S
C372 H366 0.949 . S
C372 C376 1.368 . S
C373 C354 1.429 . S
C373 C367 1.429 . S
C373 C374 1.523 . S
C374 C355 1.368 . S
C374 C368 1.368 . S
C374 C373 1.523 . S
C375 C359 1.429 . S
C375 C371 1.429 . S
C375 C376 1.523 . S
C376 C360 1.368 . S
C376 C372 1.368 . S
C376 C375 1.523 . S
H377 C352 0.950 . S
H378 C354 0.950 . S
H379 C355 0.949 . S
H380 C357 0.950 . S
H381 C359 0.950 . S
C382 C383 1.349 . S
C382 C384 1.327 . S
C382 H407 0.950 . S
C383 C382 1.349 . S
C383 C399 1.349 . S
C384 C382 1.327 . S
C384 C403 1.429 . S
C384 H408 0.950 . S
C385 C402 1.574 . S
C385 C404 1.368 . S
C385 H409 0.949 . S
H386 C390 0.949 . S
C387 C388 1.349 . S
C387 C389 1.327 . S
C387 H410 0.950 . S
C388 C387 1.349 . S
C388 C400 1.349 . S
C389 C387 1.327 . S
C389 C405 1.429 . S
C389 H411 0.950 . S
C390 H386 0.949 . S
C390 C398 1.574 . S
C390 C406 1.368 . S
H391 C399 0.950 . S
H392 C397 0.950 . S
H393 C398 0.949 . S
H394 C400 0.950 . S
H395 C401 0.950 . S
H396 C402 0.949 . S
C397 H392 0.950 . S
C397 C399 1.327 . S
C397 C403 1.429 . S
C398 C390 1.574 . S
C398 H393 0.949 . S
C398 C404 1.368 . S
C399 C383 1.349 . S
C399 H391 0.950 . S
C399 C397 1.327 . S
C400 C388 1.349 . S
C400 H394 0.950 . S
C400 C401 1.327 . S
C401 H395 0.950 . S
C401 C400 1.327 . S
C401 C405 1.429 . S
C402 C385 1.574 . S
C402 H396 0.949 . S
C402 C406 1.368 . S
C403 C384 1.429 . S
C403 C397 1.429 . S
C403 C404 1.523 . S
C404 C385 1.368 . S
C404 C398 1.368 . S
C404 C403 1.523 . S
C405 C389 1.429 . S
C405 C401 1.429 . S
C405 C406 1.523 . S
C406 C390 1.368 . S
C406 C402 1.368 . S
C406 C405 1.523 . S
H407 C382 0.950 . S
H408 C384 0.950 . S
H409 C385 0.949 . S
H410 C387 0.950 . S
H411 C389 0.950 . S
C412 C413 1.349 . S
C412 C414 1.327 . S
C412 H437 0.950 . S
C413 C412 1.349 . S
C413 C429 1.349 . S
C414 C412 1.327 . S
C414 C433 1.429 . S
C414 H438 0.950 . S
C415 C432 1.574 . S
C415 C434 1.368 . S
C415 H439 0.949 . S
H416 C420 0.949 . S
C417 C418 1.349 . S
C417 C419 1.327 . S
C417 H440 0.950 . S
C418 C417 1.349 . S
C418 C430 1.349 . S
C419 C417 1.327 . S
C419 C435 1.429 . S
C419 H441 0.950 . S
C420 H416 0.949 . S
C420 C428 1.574 . S
C420 C436 1.368 . S
H421 C429 0.950 . S
H422 C427 0.950 . S
H423 C428 0.949 . S
H424 C430 0.950 . S
H425 C431 0.950 . S
H426 C432 0.949 . S
C427 H422 0.950 . S
C427 C429 1.327 . S
C427 C433 1.429 . S
C428 C420 1.574 . S
C428 H423 0.949 . S
C428 C434 1.368 . S
C429 C413 1.349 . S
C429 H421 0.950 . S
C429 C427 1.327 . S
C430 C418 1.349 . S
C430 H424 0.950 . S
C430 C431 1.327 . S
C431 H425 0.950 . S
C431 C430 1.327 . S
C431 C435 1.429 . S
C432 C415 1.574 . S
C432 H426 0.949 . S
C432 C436 1.368 . S
C433 C414 1.429 . S
C433 C427 1.429 . S
C433 C434 1.523 . S
C434 C415 1.368 . S
C434 C428 1.368 . S
C434 C433 1.523 . S
C435 C419 1.429 . S
C435 C431 1.429 . S
C435 C436 1.523 . S
C436 C420 1.368 . S
C436 C432 1.368 . S
C436 C435 1.523 . S
H437 C412 0.950 . S
H438 C414 0.950 . S
H439 C415 0.949 . S
H440 C417 0.950 . S
H441 C419 0.950 . S
C442 C443 1.349 . S
C442 C444 1.327 . S
C442 H467 0.950 . S
C443 C442 1.349 . S
C443 C459 1.349 . S
C444 C442 1.327 . S
C444 C463 1.429 . S
C444 H468 0.950 . S
C445 C462 1.574 . S
C445 C464 1.368 . S
C445 H469 0.949 . S
H446 C450 0.949 . S
C447 C448 1.349 . S
C447 C449 1.327 . S
C447 H470 0.950 . S
C448 C447 1.349 . S
C448 C460 1.349 . S
C449 C447 1.327 . S
C449 C465 1.429 . S
C449 H471 0.950 . S
C450 H446 0.949 . S
C450 C458 1.574 . S
C450 C466 1.368 . S
H451 C459 0.950 . S
H452 C457 0.950 . S
H453 C458 0.949 . S
H454 C460 0.950 . S
H455 C461 0.950 . S
H456 C462 0.949 . S
C457 H452 0.950 . S
C457 C459 1.327 . S
C457 C463 1.429 . S
C458 C450 1.574 . S
C458 H453 0.949 . S
C458 C464 1.368 . S
C459 C443 1.349 . S
C459 H451 0.950 . S
C459 C457 1.327 . S
C460 C448 1.349 . S
C460 H454 0.950 . S
C460 C461 1.327 . S
C461 H455 0.950 . S
C461 C460 1.327 . S
C461 C465 1.429 . S
C462 C445 1.574 . S
C462 H456 0.949 . S
C462 C466 1.368 . S
C463 C444 1.429 . S
C463 C457 1.429 . S
C463 C464 1.523 . S
C464 C445 1.368 . S
C464 C458 1.368 . S
C464 C463 1.523 . S
C465 C449 1.429 . S
C465 C461 1.429 . S
C465 C466 1.523 . S
C466 C450 1.368 . S
C466 C462 1.368 . S
C466 C465 1.523 . S
H467 C442 0.950 . S
H468 C444 0.950 . S
H469 C445 0.949 . S
H470 C447 0.950 . S
H471 C449 0.950 . S
C472 C473 1.349 . S
C472 C474 1.327 . S
C472 H497 0.950 . S
C473 C472 1.349 . S
C473 C489 1.349 . S
C474 C472 1.327 . S
C474 C493 1.429 . S
C474 H498 0.950 . S
C475 C492 1.574 . S
C475 C494 1.368 . S
C475 H499 0.949 . S
H476 C480 0.949 . S
C477 C478 1.349 . S
C477 C479 1.327 . S
C477 H500 0.950 . S
C478 C477 1.349 . S
C478 C490 1.349 . S
C479 C477 1.327 . S
C479 C495 1.429 . S
C479 H501 0.950 . S
C480 H476 0.949 . S
C480 C488 1.574 . S
C480 C496 1.368 . S
H481 C489 0.950 . S
H482 C487 0.950 . S
H483 C488 0.949 . S
H484 C490 0.950 . S
H485 C491 0.950 . S
H486 C492 0.949 . S
C487 H482 0.950 . S
C487 C489 1.327 . S
C487 C493 1.429 . S
C488 C480 1.574 . S
C488 H483 0.949 . S
C488 C494 1.368 . S
C489 C473 1.349 . S
C489 H481 0.950 . S
C489 C487 1.327 . S
C490 C478 1.349 . S
C490 H484 0.950 . S
C490 C491 1.327 . S
C491 H485 0.950 . S
C491 C490 1.327 . S
C491 C495 1.429 . S
C492 C475 1.574 . S
C492 H486 0.949 . S
C492 C496 1.368 . S
C493 C474 1.429 . S
C493 C487 1.429 . S
C493 C494 1.523 . S
C494 C475 1.368 . S
C494 C488 1.368 . S
C494 C493 1.523 . S
C495 C479 1.429 . S
C495 C491 1.429 . S
C495 C496 1.523 . S
C496 C480 1.368 . S
C496 C492 1.368 . S
C496 C495 1.523 . S
H497 C472 0.950 . S
H498 C474 0.950 . S
H499 C475 0.949 . S
H500 C477 0.950 . S
H501 C479 0.950 . S
C502 C503 1.349 . S
C502 C504 1.327 . S
C502 H527 0.950 . S
C503 C502 1.349 . S
C503 C519 1.349 . S
C504 C502 1.327 . S
C504 C523 1.429 . S
C504 H528 0.950 . S
C505 C522 1.574 . S
C505 C524 1.368 . S
C505 H529 0.949 . S
H506 C510 0.949 . S
C507 C508 1.349 . S
C507 C509 1.327 . S
C507 H530 0.950 . S
C508 C507 1.349 . S
C508 C520 1.349 . S
C509 C507 1.327 . S
C509 C525 1.429 . S
C509 H531 0.950 . S
C510 H506 0.949 . S
C510 C518 1.574 . S
C510 C526 1.368 . S
H511 C519 0.950 . S
H512 C517 0.950 . S
H513 C518 0.949 . S
H514 C520 0.950 . S
H515 C521 0.950 . S
H516 C522 0.949 . S
C517 H512 0.950 . S
C517 C519 1.327 . S
C517 C523 1.429 . S
C518 C510 1.574 . S
C518 H513 0.949 . S
C518 C524 1.368 . S
C519 C503 1.349 . S
C519 H511 0.950 . S
C519 C517 1.327 . S
C520 C508 1.349 . S
C520 H514 0.950 . S
C520 C521 1.327 . S
C521 H515 0.950 . S
C521 C520 1.327 . S
C521 C525 1.429 . S
C522 C505 1.574 . S
C522 H516 0.949 . S
C522 C526 1.368 . S
C523 C504 1.429 . S
C523 C517 1.429 . S
C523 C524 1.523 . S
C524 C505 1.368 . S
C524 C518 1.368 . S
C524 C523 1.523 . S
C525 C509 1.429 . S
C525 C521 1.429 . S
C525 C526 1.523 . S
C526 C510 1.368 . S
C526 C522 1.368 . S
C526 C525 1.523 . S
H527 C502 0.950 . S
H528 C504 0.950 . S
H529 C505 0.949 . S
H530 C507 0.950 . S
H531 C509 0.950 . S
C532 C533 1.349 . S
C532 C534 1.327 . S
C532 H557 0.950 . S
C533 C532 1.349 . S
C533 C549 1.349 . S
C534 C532 1.327 . S
C534 C553 1.429 . S
C534 H558 0.950 . S
C535 C552 1.574 . S
C535 C554 1.368 . S
C535 H559 0.949 . S
H536 C540 0.949 . S
C537 C538 1.349 . S
C537 C539 1.327 . S
C537 H560 0.950 . S
C538 C537 1.349 . S
C538 C550 1.349 . S
C539 C537 1.327 . S
C539 C555 1.429 . S
C539 H561 0.950 . S
C540 H536 0.949 . S
C540 C548 1.574 . S
C540 C556 1.368 . S
H541 C549 0.950 . S
H542 C547 0.950 . S
H543 C548 0.949 . S
H544 C550 0.950 . S
H545 C551 0.950 . S
H546 C552 0.949 . S
C547 H542 0.950 . S
C547 C549 1.327 . S
C547 C553 1.429 . S
C548 C540 1.574 . S
C548 H543 0.949 . S
C548 C554 1.368 . S
C549 C533 1.349 . S
C549 H541 0.950 . S
C549 C547 1.327 . S
C550 C538 1.349 . S
C550 H544 0.950 . S
C550 C551 1.327 . S
C551 H545 0.950 . S
C551 C550 1.327 . S
C551 C555 1.429 . S
C552 C535 1.574 . S
C552 H546 0.949 . S
C552 C556 1.368 . S
C553 C534 1.429 . S
C553 C547 1.429 . S
C553 C554 1.523 . S
C554 C535 1.368 . S
C554 C548 1.368 . S
C554 C553 1.523 . S
C555 C539 1.429 . S
C555 C551 1.429 . S
C555 C556 1.523 . S
C556 C540 1.368 . S
C556 C552 1.368 . S
C556 C555 1.523 . S
H557 C532 0.950 . S
H558 C534 0.950 . S
H559 C535 0.949 . S
H560 C537 0.950 . S
H561 C539 0.950 . S
C562 C563 1.349 . S
C562 C564 1.327 . S
C562 H587 0.950 . S
C563 C562 1.349 . S
C563 C579 1.349 . S
C564 C562 1.327 . S
C564 C583 1.429 . S
C564 H588 0.950 . S
C565 C582 1.574 . S
C565 C584 1.368 . S
C565 H589 0.949 . S
H566 C570 0.949 . S
C567 C568 1.349 . S
C567 C569 1.327 . S
C567 H590 0.950 . S
C568 C567 1.349 . S
C568 C580 1.349 . S
C569 C567 1.327 . S
C569 C585 1.429 . S
C569 H591 0.950 . S
C570 H566 0.949 . S
C570 C578 1.574 . S
C570 C586 1.368 . S
H571 C579 0.950 . S
H572 C577 0.950 . S
H573 C578 0.949 . S
H574 C580 0.950 . S
H575 C581 0.950 . S
H576 C582 0.949 . S
C577 H572 0.950 . S
C577 C579 1.327 . S
C577 C583 1.429 . S
C578 C570 1.574 . S
C578 H573 0.949 . S
C578 C584 1.368 . S
C579 C563 1.349 . S
C579 H571 0.950 . S
C579 C577 1.327 . S
C580 C568 1.349 . S
C580 H574 0.950 . S
C580 C581 1.327 . S
C581 H575 0.950 . S
C581 C580 1.327 . S
C581 C585 1.429 . S
C582 C565 1.574 . S
C582 H576 0.949 . S
C582 C586 1.368 . S
C583 C564 1.429 . S
C583 C577 1.429 . S
C583 C584 1.523 . S
C584 C565 1.368 . S
C584 C578 1.368 . S
C584 C583 1.523 . S
C585 C569 1.429 . S
C585 C581 1.429 . S
C585 C586 1.523 . S
C586 C570 1.368 . S
C586 C582 1.368 . S
C586 C585 1.523 . S
H587 C562 0.950 . S
H588 C564 0.950 . S
H589 C565 0.949 . S
H590 C567 0.950 . S
H591 C569 0.950 . S
C592 C593 1.349 . S
C592 C594 1.327 . S
C592 H617 0.950 . S
C593 C592 1.349 . S
C593 C609 1.349 . S
C594 C592 1.327 . S
C594 C613 1.429 . S
C594 H618 0.950 . S
C595 C612 1.574 1_565 S
C595 C614 1.368 . S
C595 H619 0.949 . S
H596 C600 0.949 . S
C597 C598 1.349 . S
C597 C599 1.327 . S
C597 H620 0.950 . S
C598 C597 1.349 . S
C598 C610 1.349 . S
C599 C597 1.327 . S
C599 C615 1.429 . S
C599 H621 0.950 . S
C600 H596 0.949 . S
C600 C608 1.574 1_545 S
C600 C616 1.368 . S
H601 C609 0.950 . S
H602 C607 0.950 . S
H603 C608 0.949 . S
H604 C610 0.950 . S
H605 C611 0.950 . S
H606 C612 0.949 . S
C607 H602 0.950 . S
C607 C609 1.327 . S
C607 C613 1.429 . S
C608 C600 1.574 1_565 S
C608 H603 0.949 . S
C608 C614 1.368 . S
C609 C593 1.349 . S
C609 H601 0.950 . S
C609 C607 1.327 . S
C610 C598 1.349 . S
C610 H604 0.950 . S
C610 C611 1.327 . S
C611 H605 0.950 . S
C611 C610 1.327 . S
C611 C615 1.429 . S
C612 C595 1.574 1_545 S
C612 H606 0.949 . S
C612 C616 1.368 . S
C613 C594 1.429 . S
C613 C607 1.429 . S
C613 C614 1.523 . S
C614 C595 1.368 . S
C614 C608 1.368 . S
C614 C613 1.523 . S
C615 C599 1.429 . S
C615 C611 1.429 . S
C615 C616 1.523 . S
C616 C600 1.368 . S
C616 C612 1.368 . S
C616 C615 1.523 . S
H617 C592 0.950 . S
H618 C594 0.950 . S
H619 C595 0.949 . S
H620 C597 0.950 . S
H621 C599 0.950 . S
C622 C623 1.349 . S
C622 C624 1.327 . S
C622 H647 0.950 . S
C623 C622 1.349 . S
C623 C639 1.349 . S
C624 C622 1.327 . S
C624 C643 1.429 . S
C624 H648 0.950 . S
C625 C642 1.553 1_455 S
C625 C644 1.368 . S
C625 H649 0.949 . S
H626 C630 0.949 . S
C627 C628 1.349 . S
C627 C629 1.327 . S
C627 H650 0.950 . S
C628 C627 1.349 . S
C628 C640 1.349 . S
C629 C627 1.327 . S
C629 C645 1.429 . S
C629 H651 0.950 . S
C630 H626 0.949 . S
C630 C638 1.574 1_655 S
C630 C646 1.368 . S
H631 C639 0.950 . S
H632 C637 0.950 . S
H633 C638 0.949 . S
H634 C640 0.950 . S
H635 C641 0.950 . S
H636 C642 0.956 . S
C637 H632 0.950 . S
C637 C639 1.327 . S
C637 C643 1.429 . S
C638 C630 1.574 1_455 S
C638 H633 0.949 . S
C638 C644 1.368 . S
C639 C623 1.349 . S
C639 H631 0.950 . S
C639 C637 1.327 . S
C640 C628 1.349 . S
C640 H634 0.950 . S
C640 C641 1.327 . S
C641 H635 0.950 . S
C641 C640 1.327 . S
C641 C645 1.429 . S
C642 C625 1.553 1_655 S
C642 H636 0.956 . S
C642 C646 1.383 . S
C643 C624 1.429 . S
C643 C637 1.429 . S
C643 C644 1.523 . S
C644 C625 1.368 . S
C644 C638 1.368 . S
C644 C643 1.523 . S
C645 C629 1.429 . S
C645 C641 1.429 . S
C645 C646 1.523 . S
C646 C630 1.368 . S
C646 C642 1.383 . S
C646 C645 1.523 . S
H647 C622 0.950 . S
H648 C624 0.950 . S
H649 C625 0.949 . S
H650 C627 0.950 . S
H651 C629 0.950 . S
C652 C653 1.349 . S
C652 C654 1.327 . S
C652 H677 0.950 . S
C653 C652 1.349 . S
C653 C669 1.349 . S
C654 C652 1.327 . S
C654 C673 1.429 . S
C654 H678 0.950 . S
C655 C672 1.549 1_545 S
C655 C674 1.387 . S
C655 H679 0.955 . S
H656 C660 0.955 . S
C657 C658 1.349 . S
C657 C659 1.327 . S
C657 H680 0.950 . S
C658 C657 1.349 . S
C658 C670 1.349 . S
C659 C657 1.327 . S
C659 C675 1.429 . S
C659 H681 0.950 . S
C660 H656 0.955 . S
C660 C668 1.549 1_565 S
C660 C676 1.387 . S
H661 C669 0.950 . S
H662 C667 0.950 . S
H663 C668 0.949 . S
H664 C670 0.950 . S
H665 C671 0.950 . S
H666 C672 0.949 . S
C667 H662 0.950 . S
C667 C669 1.327 . S
C667 C673 1.429 . S
C668 C660 1.549 1_545 S
C668 H663 0.949 . S
C668 C674 1.368 . S
C669 C653 1.349 . S
C669 H661 0.950 . S
C669 C667 1.327 . S
C670 C658 1.349 . S
C670 H664 0.950 . S
C670 C671 1.327 . S
C671 H665 0.950 . S
C671 C670 1.327 . S
C671 C675 1.429 . S
C672 C655 1.549 1_565 S
C672 H666 0.949 . S
C672 C676 1.368 . S
C673 C654 1.429 . S
C673 C667 1.429 . S
C673 C674 1.523 . S
C674 C655 1.387 . S
C674 C668 1.368 . S
C674 C673 1.523 . S
C675 C659 1.429 . S
C675 C671 1.429 . S
C675 C676 1.523 . S
C676 C660 1.387 . S
C676 C672 1.368 . S
C676 C675 1.523 . S
H677 C652 0.950 . S
H678 C654 0.950 . S
H679 C655 0.955 . S
H680 C657 0.950 . S
H681 C659 0.950 . S
C682 C683 1.349 . S
C682 C684 1.327 . S
C682 H707 0.950 . S
C683 C682 1.349 . S
C683 C699 1.349 . S
C684 C682 1.327 . S
C684 C703 1.429 . S
C684 H708 0.950 . S
C685 C702 1.574 . S
C685 C704 1.368 1_455 S
C685 H709 0.949 . S
H686 C690 0.949 . S
C687 C688 1.349 . S
C687 C689 1.327 . S
C687 H710 0.950 . S
C688 C687 1.349 . S
C688 C700 1.349 . S
C689 C687 1.327 . S
C689 C705 1.429 . S
C689 H711 0.950 . S
C690 H686 0.949 . S
C690 C698 1.574 1_455 S
C690 C706 1.368 . S
H691 C699 0.950 . S
H692 C697 0.950 . S
H693 C698 0.949 . S
H694 C700 0.950 . S
H695 C701 0.950 . S
H696 C702 0.949 . S
C697 H692 0.950 . S
C697 C699 1.327 . S
C697 C703 1.429 . S
C698 C690 1.574 1_655 S
C698 H693 0.949 . S
C698 C704 1.368 . S
C699 C683 1.349 . S
C699 H691 0.950 . S
C699 C697 1.327 . S
C700 C688 1.349 . S
C700 H694 0.950 . S
C700 C701 1.327 . S
C701 H695 0.950 . S
C701 C700 1.327 . S
C701 C705 1.429 . S
C702 C685 1.574 . S
C702 H696 0.949 . S
C702 C706 1.368 . S
C703 C684 1.429 . S
C703 C697 1.429 . S
C703 C704 1.523 . S
C704 C685 1.368 1_655 S
C704 C698 1.368 . S
C704 C703 1.523 . S
C705 C689 1.429 . S
C705 C701 1.429 . S
C705 C706 1.523 . S
C706 C690 1.368 . S
C706 C702 1.368 . S
C706 C705 1.523 . S
H707 C682 0.950 . S
H708 C684 0.950 . S
H709 C685 0.949 . S
H710 C687 0.950 . S
H711 C689 0.950 . S
C712 C713 1.349 . S
C712 C714 1.327 . S
C712 H737 0.950 . S
C713 C712 1.349 . S
C713 C729 1.349 . S
C714 C712 1.327 . S
C714 C733 1.429 . S
C714 H738 0.950 . S
C715 C732 1.574 1_565 S
C715 C734 1.368 . S
C715 H739 0.949 . S
H716 C720 0.949 . S
C717 C718 1.349 . S
C717 C719 1.327 . S
C717 H740 0.950 . S
C718 C717 1.349 . S
C718 C730 1.349 . S
C719 C717 1.327 . S
C719 C735 1.429 . S
C719 H741 0.950 . S
C720 H716 0.949 . S
C720 C728 1.574 1_545 S
C720 C736 1.368 . S
H721 C729 0.950 . S
H722 C727 0.950 . S
H723 C728 0.949 . S
H724 C730 0.950 . S
H725 C731 0.950 . S
H726 C732 0.949 . S
C727 H722 0.950 . S
C727 C729 1.327 . S
C727 C733 1.429 . S
C728 C720 1.574 1_565 S
C728 H723 0.949 . S
C728 C734 1.368 . S
C729 C713 1.349 . S
C729 H721 0.950 . S
C729 C727 1.327 . S
C730 C718 1.349 . S
C730 H724 0.950 . S
C730 C731 1.327 . S
C731 H725 0.950 . S
C731 C730 1.327 . S
C731 C735 1.429 . S
C732 C715 1.574 1_545 S
C732 H726 0.949 . S
C732 C736 1.368 . S
C733 C714 1.429 . S
C733 C727 1.429 . S
C733 C734 1.523 . S
C734 C715 1.368 . S
C734 C728 1.368 . S
C734 C733 1.523 . S
C735 C719 1.429 . S
C735 C731 1.429 . S
C735 C736 1.523 . S
C736 C720 1.368 . S
C736 C732 1.368 . S
C736 C735 1.523 . S
H737 C712 0.950 . S
H738 C714 0.950 . S
H739 C715 0.949 . S
H740 C717 0.950 . S
H741 C719 0.950 . S
C742 C743 1.349 . S
C742 C744 1.327 . S
C742 H767 0.950 . S
C743 C742 1.349 . S
C743 C759 1.349 . S
C744 C742 1.327 . S
C744 C763 1.429 . S
C744 H768 0.950 . S
C745 C762 1.574 . S
C745 C764 1.368 . S
C745 H769 0.949 . S
H746 C750 0.949 . S
C747 C748 1.349 . S
C747 C749 1.327 . S
C747 H770 0.950 . S
C748 C747 1.349 . S
C748 C760 1.349 . S
C749 C747 1.327 . S
C749 C765 1.429 . S
C749 H771 0.950 . S
C750 H746 0.949 . S
C750 C758 1.574 1_655 S
C750 C766 1.368 . S
H751 C759 0.950 . S
H752 C757 0.950 . S
H753 C758 0.949 . S
H754 C760 0.950 . S
H755 C761 0.950 . S
H756 C762 0.949 . S
C757 H752 0.950 . S
C757 C759 1.327 . S
C757 C763 1.429 . S
C758 C750 1.574 1_455 S
C758 H753 0.949 . S
C758 C764 1.368 . S
C759 C743 1.349 . S
C759 H751 0.950 . S
C759 C757 1.327 . S
C760 C748 1.349 . S
C760 H754 0.950 . S
C760 C761 1.327 . S
C761 H755 0.950 . S
C761 C760 1.327 . S
C761 C765 1.429 . S
C762 C745 1.574 . S
C762 H756 0.949 . S
C762 C766 1.368 1_455 S
C763 C744 1.429 . S
C763 C757 1.429 . S
C763 C764 1.523 . S
C764 C745 1.368 . S
C764 C758 1.368 . S
C764 C763 1.523 . S
C765 C749 1.429 . S
C765 C761 1.429 . S
C765 C766 1.523 . S
C766 C750 1.368 . S
C766 C762 1.368 1_655 S
C766 C765 1.523 . S
H767 C742 0.950 . S
H768 C744 0.950 . S
H769 C745 0.949 . S
H770 C747 0.950 . S
H771 C749 0.950 . S
C772 C773 1.349 . S
C772 C774 1.327 . S
C772 H797 0.950 . S
C773 C772 1.349 . S
C773 C789 1.349 . S
C774 C772 1.327 . S
C774 C793 1.429 . S
C774 H798 0.950 . S
C775 C792 1.574 . S
C775 C794 1.368 1_565 S
C775 H799 0.949 . S
H776 C780 0.949 . S
C777 C778 1.349 . S
C777 C779 1.327 . S
C777 H800 0.950 . S
C778 C777 1.349 . S
C778 C790 1.349 . S
C779 C777 1.327 . S
C779 C795 1.429 . S
C779 H801 0.950 . S
C780 H776 0.949 . S
C780 C788 1.574 . S
C780 C796 1.368 1_545 S
H781 C789 0.950 . S
H782 C787 0.950 . S
H783 C788 0.949 . S
H784 C790 0.950 . S
H785 C791 0.950 . S
H786 C792 0.949 . S
C787 H782 0.950 . S
C787 C789 1.327 . S
C787 C793 1.429 . S
C788 C780 1.574 . S
C788 H783 0.949 . S
C788 C794 1.368 . S
C789 C773 1.349 . S
C789 H781 0.950 . S
C789 C787 1.327 . S
C790 C778 1.349 . S
C790 H784 0.950 . S
C790 C791 1.327 . S
C791 H785 0.950 . S
C791 C790 1.327 . S
C791 C795 1.429 . S
C792 C775 1.574 . S
C792 H786 0.949 . S
C792 C796 1.368 . S
C793 C774 1.429 . S
C793 C787 1.429 . S
C793 C794 1.523 . S
C794 C775 1.368 1_545 S
C794 C788 1.368 . S
C794 C793 1.523 . S
C795 C779 1.429 . S
C795 C791 1.429 . S
C795 C796 1.523 . S
C796 C780 1.368 1_565 S
C796 C792 1.368 . S
C796 C795 1.523 . S
H797 C772 0.950 . S
H798 C774 0.950 . S
H799 C775 0.949 . S
H800 C777 0.950 . S
H801 C779 0.950 . S
C802 C803 1.349 . S
C802 C804 1.327 . S
C802 H827 0.950 . S
C803 C802 1.349 . S
C803 C819 1.349 . S
C804 C802 1.327 . S
C804 C823 1.429 . S
C804 H828 0.950 . S
C805 C822 1.574 1_455 S
C805 C824 1.368 . S
C805 H829 0.949 . S
H806 C810 0.949 . S
C807 C808 1.349 . S
C807 C809 1.327 . S
C807 H830 0.950 . S
C808 C807 1.349 . S
C808 C820 1.349 . S
C809 C807 1.327 . S
C809 C825 1.429 . S
C809 H831 0.950 . S
C810 H806 0.949 . S
C810 C818 1.574 . S
C810 C826 1.368 1_455 S
H811 C819 0.950 . S
H812 C817 0.950 . S
H813 C818 0.949 . S
H814 C820 0.950 . S
H815 C821 0.950 . S
H816 C822 0.949 . S
C817 H812 0.950 . S
C817 C819 1.327 . S
C817 C823 1.429 . S
C818 C810 1.574 . S
C818 H813 0.949 . S
C818 C824 1.368 . S
C819 C803 1.349 . S
C819 H811 0.950 . S
C819 C817 1.327 . S
C820 C808 1.349 . S
C820 H814 0.950 . S
C820 C821 1.327 . S
C821 H815 0.950 . S
C821 C820 1.327 . S
C821 C825 1.429 . S
C822 C805 1.574 1_655 S
C822 H816 0.949 . S
C822 C826 1.368 . S
C823 C804 1.429 . S
C823 C817 1.429 . S
C823 C824 1.523 . S
C824 C805 1.368 . S
C824 C818 1.368 . S
C824 C823 1.523 . S
C825 C809 1.429 . S
C825 C821 1.429 . S
C825 C826 1.523 . S
C826 C810 1.368 1_655 S
C826 C822 1.368 . S
C826 C825 1.523 . S
H827 C802 0.950 . S
H828 C804 0.950 . S
H829 C805 0.949 . S
H830 C807 0.950 . S
H831 C809 0.950 . S
C832 C833 1.349 . S
C832 C834 1.327 . S
C832 H857 0.950 . S
C833 C832 1.349 . S
C833 C849 1.349 . S
C834 C832 1.327 . S
C834 C853 1.429 . S
C834 H858 0.950 . S
C835 C852 1.574 . S
C835 C854 1.368 . S
C835 H859 0.949 . S
H836 C840 0.949 . S
C837 C838 1.349 . S
C837 C839 1.327 . S
C837 H860 0.950 . S
C838 C837 1.349 . S
C838 C850 1.349 . S
C839 C837 1.327 . S
C839 C855 1.429 . S
C839 H861 0.950 . S
C840 H836 0.949 . S
C840 C848 1.574 . S
C840 C856 1.368 . S
H841 C849 0.950 . S
H842 C847 0.950 . S
H843 C848 0.949 . S
H844 C850 0.950 . S
H845 C851 0.950 . S
H846 C852 0.949 . S
C847 H842 0.950 . S
C847 C849 1.327 . S
C847 C853 1.429 . S
C848 C840 1.574 . S
C848 H843 0.949 . S
C848 C854 1.368 . S
C849 C833 1.349 . S
C849 H841 0.950 . S
C849 C847 1.327 . S
C850 C838 1.349 . S
C850 H844 0.950 . S
C850 C851 1.327 . S
C851 H845 0.950 . S
C851 C850 1.327 . S
C851 C855 1.429 . S
C852 C835 1.574 . S
C852 H846 0.949 . S
C852 C856 1.368 . S
C853 C834 1.429 . S
C853 C847 1.429 . S
C853 C854 1.523 . S
C854 C835 1.368 . S
C854 C848 1.368 . S
C854 C853 1.523 . S
C855 C839 1.429 . S
C855 C851 1.429 . S
C855 C856 1.523 . S
C856 C840 1.368 . S
C856 C852 1.368 . S
C856 C855 1.523 . S
H857 C832 0.950 . S
H858 C834 0.950 . S
H859 C835 0.949 . S
H860 C837 0.950 . S
H861 C839 0.950 . S
C862 C863 1.349 . S
C862 C864 1.327 . S
C862 H887 0.950 . S
C863 C862 1.349 . S
C863 C879 1.349 . S
C864 C862 1.327 . S
C864 C883 1.429 . S
C864 H888 0.950 . S
C865 C882 1.574 . S
C865 C884 1.368 . S
C865 H889 0.949 . S
H866 C870 0.949 . S
C867 C868 1.349 . S
C867 C869 1.327 . S
C867 H890 0.950 . S
C868 C867 1.349 . S
C868 C880 1.349 . S
C869 C867 1.327 . S
C869 C885 1.429 . S
C869 H891 0.950 . S
C870 H866 0.949 . S
C870 C878 1.574 . S
C870 C886 1.368 . S
H871 C879 0.950 . S
H872 C877 0.950 . S
H873 C878 0.949 . S
H874 C880 0.950 . S
H875 C881 0.950 . S
H876 C882 0.949 . S
C877 H872 0.950 . S
C877 C879 1.327 . S
C877 C883 1.429 . S
C878 C870 1.574 . S
C878 H873 0.949 . S
C878 C884 1.368 . S
C879 C863 1.349 . S
C879 H871 0.950 . S
C879 C877 1.327 . S
C880 C868 1.349 . S
C880 H874 0.950 . S
C880 C881 1.327 . S
C881 H875 0.950 . S
C881 C880 1.327 . S
C881 C885 1.429 . S
C882 C865 1.574 . S
C882 H876 0.949 . S
C882 C886 1.368 . S
C883 C864 1.429 . S
C883 C877 1.429 . S
C883 C884 1.523 . S
C884 C865 1.368 . S
C884 C878 1.368 . S
C884 C883 1.523 . S
C885 C869 1.429 . S
C885 C881 1.429 . S
C885 C886 1.523 . S
C886 C870 1.368 . S
C886 C882 1.368 . S
C886 C885 1.523 . S
H887 C862 0.950 . S
H888 C864 0.950 . S
H889 C865 0.949 . S
H890 C867 0.950 . S
H891 C869 0.950 . S
C892 C893 1.349 . S
C892 C894 1.327 . S
C892 H917 0.950 . S
C893 C892 1.349 . S
C893 C909 1.349 . S
C894 C892 1.327 . S
C894 C913 1.429 . S
C894 H918 0.950 . S
C895 C912 1.574 . S
C895 C914 1.368 . S
C895 H919 0.949 . S
H896 C900 0.949 . S
C897 C898 1.349 . S
C897 C899 1.327 . S
C897 H920 0.950 . S
C898 C897 1.349 . S
C898 C910 1.349 . S
C899 C897 1.327 . S
C899 C915 1.429 . S
C899 H921 0.950 . S
C900 H896 0.949 . S
C900 C908 1.574 . S
C900 C916 1.368 . S
H901 C909 0.950 . S
H902 C907 0.950 . S
H903 C908 0.949 . S
H904 C910 0.950 . S
H905 C911 0.950 . S
H906 C912 0.949 . S
C907 H902 0.950 . S
C907 C909 1.327 . S
C907 C913 1.429 . S
C908 C900 1.574 . S
C908 H903 0.949 . S
C908 C914 1.368 . S
C909 C893 1.349 . S
C909 H901 0.950 . S
C909 C907 1.327 . S
C910 C898 1.349 . S
C910 H904 0.950 . S
C910 C911 1.327 . S
C911 H905 0.950 . S
C911 C910 1.327 . S
C911 C915 1.429 . S
C912 C895 1.574 . S
C912 H906 0.949 . S
C912 C916 1.368 . S
C913 C894 1.429 . S
C913 C907 1.429 . S
C913 C914 1.523 . S
C914 C895 1.368 . S
C914 C908 1.368 . S
C914 C913 1.523 . S
C915 C899 1.429 . S
C915 C911 1.429 . S
C915 C916 1.523 . S
C916 C900 1.368 . S
C916 C912 1.368 . S
C916 C915 1.523 . S
H917 C892 0.950 . S
H918 C894 0.950 . S
H919 C895 0.949 . S
H920 C897 0.950 . S
H921 C899 0.950 . S
C922 C923 1.349 . S
C922 C924 1.327 . S
C922 H947 0.950 . S
C923 C922 1.349 . S
C923 C939 1.349 . S
C924 C922 1.327 . S
C924 C943 1.429 . S
C924 H948 0.950 . S
C925 C942 1.574 . S
C925 C944 1.368 . S
C925 H949 0.949 . S
H926 C930 0.949 . S
C927 C928 1.349 . S
C927 C929 1.327 . S
C927 H950 0.950 . S
C928 C927 1.349 . S
C928 C940 1.349 . S
C929 C927 1.327 . S
C929 C945 1.429 . S
C929 H951 0.950 . S
C930 H926 0.949 . S
C930 C938 1.574 . S
C930 C946 1.368 . S
H931 C939 0.950 . S
H932 C937 0.950 . S
H933 C938 0.949 . S
H934 C940 0.950 . S
H935 C941 0.950 . S
H936 C942 0.949 . S
C937 H932 0.950 . S
C937 C939 1.327 . S
C937 C943 1.429 . S
C938 C930 1.574 . S
C938 H933 0.949 . S
C938 C944 1.368 . S
C939 C923 1.349 . S
C939 H931 0.950 . S
C939 C937 1.327 . S
C940 C928 1.349 . S
C940 H934 0.950 . S
C940 C941 1.327 . S
C941 H935 0.950 . S
C941 C940 1.327 . S
C941 C945 1.429 . S
C942 C925 1.574 . S
C942 H936 0.949 . S
C942 C946 1.368 . S
C943 C924 1.429 . S
C943 C937 1.429 . S
C943 C944 1.523 . S
C944 C925 1.368 . S
C944 C938 1.368 . S
C944 C943 1.523 . S
C945 C929 1.429 . S
C945 C941 1.429 . S
C945 C946 1.523 . S
C946 C930 1.368 . S
C946 C942 1.368 . S
C946 C945 1.523 . S
H947 C922 0.950 . S
H948 C924 0.950 . S
H949 C925 0.949 . S
H950 C927 0.950 . S
H951 C929 0.950 . S
C952 C953 1.349 . S
C952 C954 1.327 . S
C952 H977 0.950 . S
C953 C952 1.349 . S
C953 C969 1.349 . S
C954 C952 1.327 . S
C954 C973 1.429 . S
C954 H978 0.950 . S
C955 C972 1.574 . S
C955 C974 1.368 . S
C955 H979 0.949 . S
H956 C960 0.949 . S
C957 C958 1.349 . S
C957 C959 1.327 . S
C957 H980 0.950 . S
C958 C957 1.349 . S
C958 C970 1.349 . S
C959 C957 1.327 . S
C959 C975 1.429 . S
C959 H981 0.950 . S
C960 H956 0.949 . S
C960 C968 1.574 . S
C960 C976 1.368 . S
H961 C969 0.950 . S
H962 C967 0.950 . S
H963 C968 0.949 . S
H964 C970 0.950 . S
H965 C971 0.950 . S
H966 C972 0.949 . S
C967 H962 0.950 . S
C967 C969 1.327 . S
C967 C973 1.429 . S
C968 C960 1.574 . S
C968 H963 0.949 . S
C968 C974 1.368 . S
C969 C953 1.349 . S
C969 H961 0.950 . S
C969 C967 1.327 . S
C970 C958 1.349 . S
C970 H964 0.950 . S
C970 C971 1.327 . S
C971 H965 0.950 . S
C971 C970 1.327 . S
C971 C975 1.429 . S
C972 C955 1.574 . S
C972 H966 0.949 . S
C972 C976 1.368 . S
C973 C954 1.429 . S
C973 C967 1.429 . S
C973 C974 1.523 . S
C974 C955 1.368 . S
C974 C968 1.368 . S
C974 C973 1.523 . S
C975 C959 1.429 . S
C975 C971 1.429 . S
C975 C976 1.523 . S
C976 C960 1.368 . S
C976 C972 1.368 . S
C976 C975 1.523 . S
H977 C952 0.950 . S
H978 C954 0.950 . S
H979 C955 0.949 . S
H980 C957 0.950 . S
H981 C959 0.950 . S
C982 C983 1.349 . S
C982 C984 1.327 . S
C982 H1007 0.950 . S
C983 C982 1.349 . S
C983 C999 1.349 . S
C984 C982 1.327 . S
C984 C1003 1.429 . S
C984 H1008 0.950 . S
C985 C1002 1.574 . S
C985 C1004 1.368 . S
C985 H1009 0.949 . S
H986 C990 0.949 . S
C987 C988 1.349 . S
C987 C989 1.327 . S
C987 H1010 0.950 . S
C988 C987 1.349 . S
C988 C1000 1.349 . S
C989 C987 1.327 . S
C989 C1005 1.429 . S
C989 H1011 0.950 . S
C990 H986 0.949 . S
C990 C998 1.574 . S
C990 C1006 1.368 . S
H991 C999 0.950 . S
H992 C997 0.950 . S
H993 C998 0.949 . S
H994 C1000 0.950 . S
H995 C1001 0.950 . S
H996 C1002 0.949 . S
C997 H992 0.950 . S
C997 C999 1.327 . S
C997 C1003 1.429 . S
C998 C990 1.574 . S
C998 H993 0.949 . S
C998 C1004 1.368 . S
C999 C983 1.349 . S
C999 H991 0.950 . S
C999 C997 1.327 . S
C1000 C988 1.349 . S
C1000 H994 0.950 . S
C1000 C1001 1.327 . S
C1001 H995 0.950 . S
C1001 C1000 1.327 . S
C1001 C1005 1.429 . S
C1002 C985 1.574 . S
C1002 H996 0.949 . S
C1002 C1006 1.368 . S
C1003 C984 1.429 . S
C1003 C997 1.429 . S
C1003 C1004 1.523 . S
C1004 C985 1.368 . S
C1004 C998 1.368 . S
C1004 C1003 1.523 . S
C1005 C989 1.429 . S
C1005 C1001 1.429 . S
C1005 C1006 1.523 . S
C1006 C990 1.368 . S
C1006 C1002 1.368 . S
C1006 C1005 1.523 . S
H1007 C982 0.950 . S
H1008 C984 0.950 . S
H1009 C985 0.949 . S
H1010 C987 0.950 . S
H1011 C989 0.950 . S
C1012 C1013 1.349 . S
C1012 C1014 1.327 . S
C1012 H1037 0.950 . S
C1013 C1012 1.349 . S
C1013 C1029 1.349 . S
C1014 C1012 1.327 . S
C1014 C1033 1.429 . S
C1014 H1038 0.950 . S
C1015 C1032 1.574 . S
C1015 C1034 1.368 . S
C1015 H1039 0.949 . S
H1016 C1020 0.949 . S
C1017 C1018 1.349 . S
C1017 C1019 1.327 . S
C1017 H1040 0.950 . S
C1018 C1017 1.349 . S
C1018 C1030 1.349 . S
C1019 C1017 1.327 . S
C1019 C1035 1.429 . S
C1019 H1041 0.950 . S
C1020 H1016 0.949 . S
C1020 C1028 1.574 . S
C1020 C1036 1.368 . S
H1021 C1029 0.950 . S
H1022 C1027 0.950 . S
H1023 C1028 0.949 . S
H1024 C1030 0.950 . S
H1025 C1031 0.950 . S
H1026 C1032 0.949 . S
C1027 H1022 0.950 . S
C1027 C1029 1.327 . S
C1027 C1033 1.429 . S
C1028 C1020 1.574 . S
C1028 H1023 0.949 . S
C1028 C1034 1.368 . S
C1029 C1013 1.349 . S
C1029 H1021 0.950 . S
C1029 C1027 1.327 . S
C1030 C1018 1.349 . S
C1030 H1024 0.950 . S
C1030 C1031 1.327 . S
C1031 H1025 0.950 . S
C1031 C1030 1.327 . S
C1031 C1035 1.429 . S
C1032 C1015 1.574 . S
C1032 H1026 0.949 . S
C1032 C1036 1.368 . S
C1033 C1014 1.429 . S
C1033 C1027 1.429 . S
C1033 C1034 1.523 . S
C1034 C1015 1.368 . S
C1034 C1028 1.368 . S
C1034 C1033 1.523 . S
C1035 C1019 1.429 . S
C1035 C1031 1.429 . S
C1035 C1036 1.523 . S
C1036 C1020 1.368 . S
C1036 C1032 1.368 . S
C1036 C1035 1.523 . S
H1037 C1012 0.950 . S
H1038 C1014 0.950 . S
H1039 C1015 0.949 . S
H1040 C1017 0.950 . S
H1041 C1019 0.950 . S
C1042 C1043 1.349 . S
C1042 C1044 1.327 . S
C1042 H1067 0.950 . S
C1043 C1042 1.349 . S
C1043 C1059 1.349 . S
C1044 C1042 1.327 . S
C1044 C1063 1.429 . S
C1044 H1068 0.950 . S
C1045 C1062 1.574 . S
C1045 C1064 1.368 . S
C1045 H1069 0.949 . S
H1046 C1050 0.949 . S
C1047 C1048 1.349 . S
C1047 C1049 1.327 . S
C1047 H1070 0.950 . S
C1048 C1047 1.349 . S
C1048 C1060 1.349 . S
C1049 C1047 1.327 . S
C1049 C1065 1.429 . S
C1049 H1071 0.950 . S
C1050 H1046 0.949 . S
C1050 C1058 1.574 . S
C1050 C1066 1.368 . S
H1051 C1059 0.950 . S
H1052 C1057 0.950 . S
H1053 C1058 0.949 . S
H1054 C1060 0.950 . S
H1055 C1061 0.950 . S
H1056 C1062 0.949 . S
C1057 H1052 0.950 . S
C1057 C1059 1.327 . S
C1057 C1063 1.429 . S
C1058 C1050 1.574 . S
C1058 H1053 0.949 . S
C1058 C1064 1.368 . S
C1059 C1043 1.349 . S
C1059 H1051 0.950 . S
C1059 C1057 1.327 . S
C1060 C1048 1.349 . S
C1060 H1054 0.950 . S
C1060 C1061 1.327 . S
C1061 H1055 0.950 . S
C1061 C1060 1.327 . S
C1061 C1065 1.429 . S
C1062 C1045 1.574 . S
C1062 H1056 0.949 . S
C1062 C1066 1.368 . S
C1063 C1044 1.429 . S
C1063 C1057 1.429 . S
C1063 C1064 1.523 . S
C1064 C1045 1.368 . S
C1064 C1058 1.368 . S
C1064 C1063 1.523 . S
C1065 C1049 1.429 . S
C1065 C1061 1.429 . S
C1065 C1066 1.523 . S
C1066 C1050 1.368 . S
C1066 C1062 1.368 . S
C1066 C1065 1.523 . S
H1067 C1042 0.950 . S
H1068 C1044 0.950 . S
H1069 C1045 0.949 . S
H1070 C1047 0.950 . S
H1071 C1049 0.950 . S
C233 C21 0.461 . S
C238 C79 0.473 . S
C263 C108 0.473 . S
C268 C50 0.461 . S
C293 C137 0.461 . S
C298 C195 0.473 . S
C323 C224 0.461 . S
C328 C166 0.473 . S
C353 C124 1.049 . S
C358 C8 1.049 . S
C383 C153 0.704 . S
C388 C32 0.482 . S
C413 C177 0.723 . S
C418 C61 0.723 . S
C443 C206 0.482 . S
C448 C95 0.704 . S
C473 C184 1.571 . S
C478 C68 1.571 . S
C503 C213 1.833 . S
C508 C92 1.947 . S
C533 C5 2.230 . S
C538 C121 2.230 . S
C563 C150 1.947 . S
C568 C39 1.833 . S
C593 C211 1.049 . S
C598 C37 1.049 . S
C623 C119 0.482 . S
C628 C66 0.704 . S
C653 C148 0.723 . S
C658 C90 0.723 . S
C683 C182 0.704 . S
C688 C3 0.482 . S
C713 C97 1.571 . S
C718 C155 1.571 . S
C743 C10 1.833 . S
C748 C179 1.947 . S
C773 C34 2.230 . S
C778 C208 2.230 . S
C803 C126 1.833 . S
C808 C63 1.947 . S
C833 C160 3.220 . S
C838 C15 3.219 . S
C863 C42 2.406 . S
C868 C187 2.424 . S
C893 C216 2.406 . S
C898 C71 2.425 . S
C923 C102 3.220 . S
C928 C131 3.219 . S
C953 C218 3.219 . S
C958 C73 3.219 . S
C983 C129 2.406 . S
C988 C100 2.425 . S
C1013 C13 2.406 . S
C1018 C158 2.424 . S
C1043 C189 3.220 . S
C1048 C44 3.219 . S
