# Generated by pormake.
# Topology lhb, (8)-cn, num edge types: 1
# Building blocks:
#     Node 0, Type 0, BuildingBlock: TAGTUT_clean_sbu_1, # of connection points: 8
#     Node 1, Type 0, BuildingBlock: TAGTUT_clean_sbu_1, # of connection points: 8
#     Node 2, Type 0, BuildingBlock: TAGTUT_clean_sbu_1, # of connection points: 8
#     Node 3, Type 0, BuildingBlock: TAGTUT_clean_sbu_1, # of connection points: 8
#     Node 4, Type 0, BuildingBlock: TAGTUT_clean_sbu_1, # of connection points: 8
#     Node 5, Type 0, BuildingBlock: TAGTUT_clean_sbu_1, # of connection points: 8
#     Node 6, Type 0, BuildingBlock: TAGTUT_clean_sbu_1, # of connection points: 8
#     Node 7, Type 0, BuildingBlock: TAGTUT_clean_sbu_1, # of connection points: 8
#     Edge 8, Type (0, 0), BuildingBlock: OJICUG_clean_linker_0, # of connection points: 2
#     Edge 9, Type (0, 0), BuildingBlock: OJICUG_clean_linker_0, # of connection points: 2
#     Edge 10, Type (0, 0), BuildingBlock: OJICUG_clean_linker_0, # of connection points: 2
#     Edge 11, Type (0, 0), BuildingBlock: OJICUG_clean_linker_0, # of connection points: 2
#     Edge 12, Type (0, 0), BuildingBlock: OJICUG_clean_linker_0, # of connection points: 2
#     Edge 13, Type (0, 0), BuildingBlock: OJICUG_clean_linker_0, # of connection points: 2
#     Edge 14, Type (0, 0), BuildingBlock: OJICUG_clean_linker_0, # of connection points: 2
#     Edge 15, Type (0, 0), BuildingBlock: OJICUG_clean_linker_0, # of connection points: 2
#     Edge 16, Type (0, 0), BuildingBlock: OJICUG_clean_linker_0, # of connection points: 2
#     Edge 17, Type (0, 0), BuildingBlock: OJICUG_clean_linker_0, # of connection points: 2
#     Edge 18, Type (0, 0), BuildingBlock: OJICUG_clean_linker_0, # of connection points: 2
#     Edge 19, Type (0, 0), BuildingBlock: OJICUG_clean_linker_0, # of connection points: 2
#     Edge 20, Type (0, 0), BuildingBlock: OJICUG_clean_linker_0, # of connection points: 2
#     Edge 21, Type (0, 0), BuildingBlock: OJICUG_clean_linker_0, # of connection points: 2
#     Edge 22, Type (0, 0), BuildingBlock: OJICUG_clean_linker_0, # of connection points: 2
#     Edge 23, Type (0, 0), BuildingBlock: OJICUG_clean_linker_0, # of connection points: 2
#     Edge 24, Type (0, 0), BuildingBlock: OJICUG_clean_linker_0, # of connection points: 2
#     Edge 25, Type (0, 0), BuildingBlock: OJICUG_clean_linker_0, # of connection points: 2
#     Edge 26, Type (0, 0), BuildingBlock: OJICUG_clean_linker_0, # of connection points: 2
#     Edge 27, Type (0, 0), BuildingBlock: OJICUG_clean_linker_0, # of connection points: 2
#     Edge 28, Type (0, 0), BuildingBlock: OJICUG_clean_linker_0, # of connection points: 2
#     Edge 29, Type (0, 0), BuildingBlock: OJICUG_clean_linker_0, # of connection points: 2
#     Edge 30, Type (0, 0), BuildingBlock: OJICUG_clean_linker_0, # of connection points: 2
#     Edge 31, Type (0, 0), BuildingBlock: OJICUG_clean_linker_0, # of connection points: 2
#     Edge 32, Type (0, 0), BuildingBlock: OJICUG_clean_linker_0, # of connection points: 2
#     Edge 33, Type (0, 0), BuildingBlock: OJICUG_clean_linker_0, # of connection points: 2
#     Edge 34, Type (0, 0), BuildingBlock: OJICUG_clean_linker_0, # of connection points: 2
#     Edge 35, Type (0, 0), BuildingBlock: OJICUG_clean_linker_0, # of connection points: 2
#     Edge 36, Type (0, 0), BuildingBlock: OJICUG_clean_linker_0, # of connection points: 2
#     Edge 37, Type (0, 0), BuildingBlock: OJICUG_clean_linker_0, # of connection points: 2
#     Edge 38, Type (0, 0), BuildingBlock: OJICUG_clean_linker_0, # of connection points: 2
#     Edge 39, Type (0, 0), BuildingBlock: OJICUG_clean_linker_0, # of connection points: 2
# Relax obj value: 0.057
# Max RMSD: 0.154
# Mean RMSD: 0.154
data_MOF--net-lhb--node1-TAGTUT_clean_sbu_1--edge1-OJICUG_clean_linker_0
_symmetry_space_group_name_H-M    P1
_symmetry_Int_Tables_number       1
_symmetry_cell_setting            triclinic
loop_
_symmetry_equiv_pos_as_xyz
'x, y, z'
_cell_length_a     25.79192
_cell_length_b     11.356982
_cell_length_c     46.47876
_cell_angle_alpha  93.134659
_cell_angle_beta   90.361253
_cell_angle_gamma 89.865191
loop_
_atom_site_label
_atom_site_type_symbol
_atom_site_fract_x
_atom_site_fract_y
_atom_site_fract_z
_atom_type_partial_charge
C0 C 0.08267 0.03191 0.10043 0.0
C1 C 0.14287 0.09026 0.01572 0.0
C2 C 0.94972 0.21594 0.99249 0.0
Mg3 Mg 0.089 0.87855 0.04246 0.0
O4 O 0.0279 0.95508 0.03423 0.0
Mg5 Mg 0.02186 0.12806 0.04249 0.0
Mg6 Mg 0.99082 0.94779 0.99592 0.0
O7 O 0.95209 0.94662 0.95918 0.0
Mg8 Mg 0.88756 0.02343 0.95876 0.0
Mg9 Mg 0.95202 0.77692 0.94801 0.0
C10 C 0.02193 0.68195 0.00549 0.0
C11 C 0.07068 0.86638 0.9447 0.0
O12 O 0.05897 0.11005 0.0866 0.0
O13 O 0.09529 0.93116 0.08852 0.0
O14 O 0.10387 0.15572 0.02314 0.0
O15 O 0.1439 -0.02037 0.01962 0.0
O16 O 0.05813 0.71027 0.0239 0.0
O17 O 0.99291 0.75712 0.99363 0.0
C18 C 0.91325 -0.0148 0.04925 0.0
O19 O 0.91971 0.93932 0.02381 0.0
O20 O 0.9432 0.06713 0.05993 0.0
O21 O 0.92369 0.84827 0.90253 0.0
O22 O 0.88084 0.0174 0.91418 0.0
O23 O 0.86711 0.74854 0.96514 0.0
C24 C 0.90124 0.945 0.89562 0.0
O25 O 0.83043 0.92154 0.97743 0.0
O26 O 0.90885 0.19067 0.97781 0.0
C27 C 0.8291 0.80965 0.97566 0.0
O28 O 0.98385 0.13975 -0.00143 0.0
O29 O 0.06577 0.93742 0.96714 0.0
O30 O 0.03328 0.80319 0.93458 0.0
C31 C 0.37642 0.23058 0.1471 0.0
C32 C 0.45034 0.08317 0.22576 0.0
C33 C 0.25772 0.9541 0.25482 0.0
Mg34 Mg 0.39126 0.2993 0.21086 0.0
O35 O 0.32692 0.22347 0.21081 0.0
Mg36 Mg 0.32693 0.05532 0.19804 0.0
Mg37 Mg 0.28834 0.22078 0.2473 0.0
O38 O 0.25109 0.22306 0.28527 0.0
Mg39 Mg 0.18958 0.14658 0.29165 0.0
Mg40 Mg 0.25649 0.39482 0.29488 0.0
C41 C 0.33078 0.48761 0.24664 0.0
C42 C 0.36486 0.24922 0.30166 0.0
O43 O 0.35529 0.1315 0.15312 0.0
O44 O 0.39571 0.30201 0.16636 0.0
O45 O 0.41198 0.02325 0.21513 0.0
O46 O 0.44912 0.19489 0.22806 0.0
O47 O 0.37165 0.46163 0.23231 0.0
O48 O 0.2955 0.41279 0.25152 0.0
C49 C 0.20833 0.14651 0.19522 0.0
O50 O 0.21337 0.21439 0.21822 0.0
O51 O 0.24565 0.08472 0.18462 0.0
O52 O 0.21789 0.37095 0.33837 0.0
O53 O 0.18125 0.19206 0.33771 0.0
O54 O 0.17494 0.42545 0.2745 0.0
C55 C 0.19345 0.29063 0.35088 0.0
O56 O 0.13567 0.24937 0.26863 0.0
O57 O 0.22099 -0.01865 0.2727 0.0
C58 C 0.13649 0.36059 0.26575 0.0
O59 O 0.28624 0.0304 0.24332 0.0
O60 O 0.35931 0.20829 0.27566 0.0
O61 O 0.3347 0.32986 0.31271 0.0
C62 C 0.87564 0.73128 0.14723 0.0
C63 C 0.94988 0.58309 0.22566 0.0
C64 C 0.7577 0.45457 0.25538 0.0
Mg65 Mg 0.89082 0.79968 0.211 0.0
O66 O 0.82644 0.72404 0.21106 0.0
Mg67 Mg 0.82625 0.55596 0.19821 0.0
Mg68 Mg 0.78807 0.72132 0.24762 0.0
O69 O 0.75108 0.72358 0.2857 0.0
Mg70 Mg 0.6897 0.64707 0.29235 0.0
Mg71 Mg 0.75677 0.8952 0.29537 0.0
C72 C 0.83086 -0.01198 0.24704 0.0
C73 C 0.86486 0.74821 0.30188 0.0
O74 O 0.85455 0.63217 0.15326 0.0
O75 O 0.89493 0.80272 0.16648 0.0
O76 O 0.91138 0.52334 0.21513 0.0
O77 O 0.94876 0.69481 0.22797 0.0
O78 O 0.87158 -0.03804 0.23259 0.0
O79 O 0.79555 0.9133 0.25195 0.0
C80 C 0.70772 0.64799 0.19562 0.0
O81 O 0.71293 0.71564 0.21865 0.0
O82 O 0.74493 0.58604 0.18494 0.0
O83 O 0.71837 0.8717 0.33891 0.0
O84 O 0.68164 0.69299 0.33844 0.0
O85 O 0.67515 0.92613 0.2751 0.0
C86 C 0.69394 0.79167 0.35152 0.0
O87 O 0.6358 0.75005 0.26936 0.0
O88 O 0.72124 0.4818 0.27344 0.0
C89 C 0.63666 0.86124 0.26642 0.0
O90 O 0.78571 0.53096 0.24356 0.0
O91 O 0.85917 0.70799 0.27583 0.0
O92 O 0.83495 0.82912 0.31306 0.0
C93 C 0.08248 0.52607 0.60032 0.0
C94 C 0.13681 0.59903 0.51518 0.0
C95 C 0.94223 0.72617 0.49652 0.0
Mg96 Mg 0.08524 0.38362 0.54082 0.0
O97 O 0.0231 0.45954 0.5349 0.0
Mg98 Mg 0.01744 0.63123 0.54474 0.0
Mg99 Mg 0.98455 0.4582 0.49708 0.0
O100 O 0.94487 0.46212 0.46076 0.0
Mg101 Mg 0.8804 0.53849 0.46105 0.0
Mg102 Mg 0.94508 0.29447 0.44765 0.0
C103 C 0.01678 0.19139 0.50363 0.0
C104 C 0.06349 0.38647 0.44481 0.0
O105 O 0.05739 0.60648 0.58798 0.0
O106 O 0.09475 0.42791 0.58699 0.0
O107 O 0.09839 0.6634 0.52414 0.0
O108 O 0.13807 0.48772 0.51788 0.0
O109 O 0.05416 0.21865 0.52133 0.0
O110 O 0.98677 0.26754 0.49285 0.0
C111 C 0.90975 0.48419 0.55166 0.0
O112 O 0.91452 0.4444 0.52555 0.0
O113 O 0.94003 0.56466 0.56278 0.0
O114 O 0.91619 0.37344 0.40302 0.0
O115 O 0.87433 0.54185 0.41653 0.0
O116 O 0.86009 0.26242 0.46471 0.0
C117 C 0.89428 0.47222 0.3972 0.0
O118 O 0.82335 0.43383 0.47839 0.0
O119 O 0.90086 0.70123 0.48228 0.0
C120 C 0.82204 0.32216 0.4757 0.0
O121 O 0.97706 0.64993 0.50157 0.0
O122 O 0.05863 0.45385 0.46786 0.0
O123 O 0.02622 0.32404 0.43424 0.0
C124 C 0.38166 0.70551 0.64656 0.0
C125 C 0.45576 0.55449 0.725 0.0
C126 C 0.26379 0.42655 0.75446 0.0
Mg127 Mg 0.39704 0.77123 0.71033 0.0
O128 O 0.33234 0.69657 0.71005 0.0
Mg129 Mg 0.33203 0.52854 0.69718 0.0
Mg130 Mg 0.29386 0.6936 0.74654 0.0
O131 O 0.25687 0.69543 0.78463 0.0
Mg132 Mg 0.19553 0.61883 0.79143 0.0
Mg133 Mg 0.26278 0.86673 0.79443 0.0
C134 C 0.33705 -0.04008 0.74627 0.0
C135 C 0.37092 0.71905 0.80058 0.0
O136 O 0.35981 0.60707 0.65244 0.0
O137 O 0.40215 0.77492 0.66585 0.0
O138 O 0.41741 0.49501 0.71415 0.0
O139 O 0.45452 0.66614 0.72756 0.0
O140 O 0.37787 0.93361 0.73192 0.0
O141 O 0.30154 0.88544 0.75102 0.0
C142 C 0.21347 0.62155 0.69454 0.0
O143 O 0.21881 0.68919 0.71756 0.0
O144 O 0.25058 0.55902 0.68393 0.0
O145 O 0.22447 0.84325 0.83798 0.0
O146 O 0.18744 0.66495 0.83757 0.0
O147 O 0.18092 0.89782 0.77418 0.0
C148 C 0.19989 0.76358 0.85063 0.0
O149 O 0.14156 0.7217 0.76841 0.0
O150 O 0.22741 0.45365 0.77259 0.0
C151 C 0.1424 0.83291 0.76548 0.0
O152 O 0.29136 0.50313 0.74242 0.0
O153 O 0.36497 0.6797 0.7745 0.0
O154 O 0.34106 0.7995 0.81203 0.0
C155 C 0.88158 0.2072 0.64678 0.0
C156 C 0.95574 0.05518 0.72505 0.0
C157 C 0.76406 0.92755 0.75478 0.0
Mg158 Mg 0.89703 0.27216 0.71058 0.0
O159 O 0.83227 0.19775 0.71025 0.0
Mg160 Mg 0.83194 0.02977 0.69732 0.0
Mg161 Mg 0.79385 0.19467 0.74676 0.0
O162 O 0.75697 0.1964 0.78489 0.0
Mg163 Mg 0.69573 0.11961 0.79179 0.0
Mg164 Mg 0.76284 0.36766 0.79469 0.0
C165 C 0.83718 0.46082 0.74661 0.0
C166 C 0.87098 0.2199 0.80076 0.0
O167 O 0.8597 0.10869 0.65259 0.0
O168 O 0.90209 0.27636 0.66612 0.0
O169 O 0.91733 -0.00406 0.71419 0.0
O170 O 0.95454 0.16681 0.72771 0.0
O171 O 0.87802 0.43438 0.73228 0.0
O172 O 0.80155 0.38652 0.75127 0.0
C173 C 0.71333 0.12257 0.69484 0.0
O174 O 0.71871 0.19015 0.71786 0.0
O175 O 0.75045 0.06028 0.68415 0.0
O176 O 0.72464 0.34423 0.83827 0.0
O177 O 0.68772 0.16585 0.83794 0.0
O178 O 0.68094 0.39851 0.77445 0.0
C179 C 0.70014 0.26457 0.85096 0.0
O180 O 0.64168 0.22223 0.76877 0.0
O181 O 0.72777 0.9546 0.77297 0.0
C182 C 0.64245 0.33341 0.7658 0.0
O183 O 0.79139 0.00419 0.7426 0.0
O184 O 0.86504 0.18081 0.77466 0.0
O185 O 0.84116 0.30034 0.81224 0.0
C186 C 0.58188 0.02603 0.60089 0.0
C187 C 0.63652 0.09987 0.51589 0.0
C188 C 0.4418 0.22731 0.49729 0.0
Mg189 Mg 0.58484 0.88423 0.5413 0.0
O190 O 0.52276 -0.03975 0.53532 0.0
Mg191 Mg 0.51701 0.13167 0.54533 0.0
Mg192 Mg 0.48451 -0.04028 0.4974 0.0
O193 O 0.44506 -0.03578 0.46101 0.0
Mg194 Mg 0.38052 0.0402 0.46127 0.0
Mg195 Mg 0.44549 0.79681 0.44764 0.0
C196 C 0.51634 0.69275 0.50388 0.0
C197 C 0.5639 0.88925 0.44523 0.0
O198 O 0.55672 0.1064 0.58858 0.0
O199 O 0.59426 0.92806 0.58751 0.0
O200 O 0.59813 0.16426 0.5249 0.0
O201 O 0.63769 -0.01152 0.51846 0.0
O202 O 0.55359 0.71974 0.52169 0.0
O203 O 0.48678 0.76925 0.49292 0.0
C204 C 0.40934 -0.01573 0.55182 0.0
O205 O 0.41427 0.94521 0.52567 0.0
O206 O 0.43951 0.06456 0.56312 0.0
O207 O 0.41683 0.87662 0.40306 0.0
O208 O 0.37523 0.04518 0.41675 0.0
O209 O 0.36041 0.76368 0.46438 0.0
C210 C 0.39515 -0.0242 0.39736 0.0
O211 O 0.3232 0.93457 0.47804 0.0
O212 O 0.40044 0.20216 0.48305 0.0
C213 C 0.32209 0.82292 0.47522 0.0
O214 O 0.47688 0.15136 0.50212 0.0
O215 O 0.55885 0.95605 0.46837 0.0
O216 O 0.52671 0.82706 0.43448 0.0
C217 C 0.58216 0.53341 0.10082 0.0
C218 C 0.64274 0.59087 0.01613 0.0
C219 C 0.44962 0.71685 0.99266 0.0
Mg220 Mg 0.58866 0.37953 0.04293 0.0
O221 O 0.52772 0.45625 0.03449 0.0
Mg222 Mg 0.52165 0.6292 0.04272 0.0
Mg223 Mg 0.49086 0.44889 0.9961 0.0
O224 O 0.45228 0.44758 0.95931 0.0
Mg225 Mg 0.38772 0.52421 0.95879 0.0
Mg226 Mg 0.45231 0.27785 0.94814 0.0
C227 C 0.52169 0.18296 0.00588 0.0
C228 C 0.57097 0.36755 0.945 0.0
O229 O 0.55857 0.61146 0.08691 0.0
O230 O 0.59475 0.4325 0.08898 0.0
O231 O 0.60375 0.65653 0.02347 0.0
O232 O 0.6437 0.48029 0.0201 0.0
O233 O 0.55771 0.21123 0.02441 0.0
O234 O 0.49298 0.25821 0.99384 0.0
C235 C 0.41307 0.48613 0.04931 0.0
O236 O 0.41961 0.44045 0.02386 0.0
O237 O 0.44293 0.56814 0.06004 0.0
O238 O 0.42411 0.34898 0.90261 0.0
O239 O 0.38133 0.51826 0.9142 0.0
O240 O 0.36735 0.24922 0.96513 0.0
C241 C 0.40173 0.44574 0.89567 0.0
O242 O 0.33045 0.42207 0.97732 0.0
O243 O 0.40882 0.69145 0.97793 0.0
C244 C 0.32922 0.31017 0.97556 0.0
O245 O 0.48382 0.64082 -0.00125 0.0
O246 O 0.56595 0.43856 0.96744 0.0
O247 O 0.53363 0.30431 0.93483 0.0
C248 C 0.11026 0.18569 0.13815 0.0
C249 C 0.10103 0.06592 0.12996 0.0
H250 H 0.15163 0.30768 0.16681 0.0
C251 C 0.1152 -0.02026 0.14896 0.0
H252 H 0.09932 0.25453 0.12404 0.0
C253 C 0.14324 0.0113 0.17395 0.0
C254 C 0.15877 0.12889 0.17996 0.0
H255 H 0.10779 0.88729 0.14355 0.0
H256 H 0.15815 0.94171 0.18679 0.0
C257 C 0.13943 0.21695 0.16291 0.0
C258 C 0.86415 -0.03167 0.0947 0.0
C259 C 0.88518 0.91376 0.06978 0.0
H260 H 0.84234 0.94983 0.13833 0.0
C261 C 0.89217 0.78979 0.06841 0.0
H262 H 0.85842 0.06301 0.09641 0.0
C263 C 0.88471 0.72455 0.09292 0.0
C264 C 0.86927 0.78261 0.11879 0.0
H265 H 0.90888 0.74515 0.04945 0.0
H266 H 0.89539 0.63216 0.09229 0.0
C267 C 0.85555 0.90312 0.11875 0.0
C268 C 0.12853 0.25468 0.42215 0.0
C269 C 0.11276 0.37121 0.42938 0.0
H270 H 0.16604 0.13712 0.39127 0.0
C271 C 0.13298 0.46314 0.41405 0.0
H272 H 0.11309 0.18223 0.43369 0.0
C273 C 0.16364 0.43719 0.3897 0.0
C274 C 0.17355 0.319 0.38026 0.0
H275 H 0.1207 0.55327 0.41895 0.0
H276 H 0.17536 0.50911 0.37683 0.0
C277 C 0.15821 0.22858 0.39765 0.0
C278 C 0.91219 0.71739 0.34766 0.0
C279 C 0.89077 0.66985 0.32195 0.0
H280 H 0.9324 0.68816 0.3912 0.0
C281 C 0.88109 0.54695 0.31914 0.0
H282 H 0.91982 0.81111 0.3505 0.0
C283 C 0.88646 0.47632 0.34292 0.0
C284 C 0.90257 0.52773 0.3695 0.0
H285 H 0.8639 0.50781 0.29955 0.0
H286 H 0.87375 0.38537 0.34114 0.0
C287 C 0.9188 0.64666 0.37099 0.0
C288 C 0.11859 0.46355 0.64713 0.0
C289 C 0.10282 0.55407 0.62975 0.0
H290 H 0.16414 0.41714 0.68334 0.0
C291 C 0.11242 0.67225 0.63931 0.0
H292 H 0.11096 0.3721 0.64066 0.0
C293 C 0.14322 0.69818 0.66379 0.0
C294 C 0.16389 0.60622 0.67913 0.0
H295 H 0.10032 0.74425 0.62645 0.0
H296 H 0.1553 0.78835 0.66877 0.0
C297 C 0.14836 0.48964 0.67179 0.0
C298 C 0.85685 0.38241 0.62066 0.0
C299 C 0.87282 0.26312 0.61909 0.0
H300 H 0.85588 0.54731 0.60034 0.0
C301 C 0.88858 0.21194 0.59251 0.0
H302 H 0.84357 0.42381 0.64086 0.0
C303 C 0.89377 0.28293 0.56882 0.0
C304 C 0.8843 0.40598 0.57172 0.0
H305 H 0.90114 0.12078 0.59068 0.0
H306 H 0.91062 0.24379 0.54924 0.0
C307 C 0.86334 0.45348 0.59743 0.0
C308 C 0.16412 0.70374 0.89752 0.0
C309 C 0.18013 0.79315 0.88001 0.0
H310 H 0.11881 0.6599 0.93371 0.0
C311 C 0.17113 0.91187 0.88936 0.0
H312 H 0.17123 0.61189 0.89123 0.0
C313 C 0.14076 0.93954 0.91374 0.0
C314 C 0.11984 0.8488 0.92921 0.0
H315 H 0.18341 -0.01693 0.87642 0.0
H316 H 0.12921 0.03024 0.91855 0.0
C317 C 0.13474 0.73153 0.92207 0.0
C318 C 0.88431 0.0181 0.818 0.0
C319 C 0.89673 0.13971 0.8204 0.0
H320 H 0.87525 0.85817 0.84042 0.0
C321 C 0.92154 0.18506 0.84534 0.0
H322 H 0.86445 -0.01911 0.799 0.0
C323 C 0.92921 0.11355 0.86846 0.0
C324 C 0.9103 -0.00327 0.86759 0.0
H325 H 0.93123 0.27785 0.84784 0.0
H326 H 0.94532 0.15355 0.88825 0.0
C327 C 0.8904 0.94719 0.84164 0.0
C328 C 0.64833 -0.00996 0.67221 0.0
C329 C 0.66365 0.10679 0.67954 0.0
H330 H 0.61096 0.87217 0.64114 0.0
C331 C 0.64261 0.19857 0.66429 0.0
H332 H 0.66438 0.9177 0.68371 0.0
C333 C 0.61165 0.17236 0.63988 0.0
C334 C 0.60227 0.05409 0.6303 0.0
H335 H 0.6545 0.28887 0.66926 0.0
H336 H 0.59927 0.24429 0.62707 0.0
C337 C 0.6184 -0.03631 0.64763 0.0
C338 C 0.39414 0.7824 0.56875 0.0
C339 C 0.384 0.90515 0.57171 0.0
H340 H 0.40215 0.62019 0.5905 0.0
C341 C 0.36245 0.95173 0.59735 0.0
H342 H 0.41145 0.74403 0.54921 0.0
C343 C 0.35601 0.88011 0.62048 0.0
C344 C 0.37265 0.7613 0.61889 0.0
H345 H 0.3545 0.04533 0.6003 0.0
H346 H 0.34231 0.92086 0.64067 0.0
C347 C 0.38903 0.71093 0.59234 0.0
C348 C 0.63516 0.23283 0.92246 0.0
C349 C 0.6202 0.35009 0.92956 0.0
H350 H 0.67167 0.11308 0.89166 0.0
C351 C 0.64103 0.44077 0.91404 0.0
H352 H 0.61929 0.16126 0.93415 0.0
C353 C 0.67139 0.41302 0.88966 0.0
C354 C 0.68043 0.29427 0.88035 0.0
H355 H 0.62942 0.53145 0.91881 0.0
H356 H 0.68358 0.48417 0.87667 0.0
C357 C 0.66452 0.20495 0.89791 0.0
C358 C 0.39082 0.44708 0.84168 0.0
C359 C 0.41067 0.49715 0.86759 0.0
H360 H 0.36475 0.47995 0.79902 0.0
C361 C 0.42943 0.61408 0.86834 0.0
H362 H 0.37581 0.35794 0.84055 0.0
C363 C 0.42163 0.68517 0.84516 0.0
C364 C 0.39683 0.6393 0.82026 0.0
H365 H 0.44552 0.65447 0.8881 0.0
H366 H 0.4312 0.77805 0.84758 0.0
C367 C 0.38459 0.51758 0.81797 0.0
C368 C 0.60991 0.68744 0.13844 0.0
C369 C 0.60044 0.56768 0.13036 0.0
H370 H 0.65145 0.80937 0.16704 0.0
C371 C 0.6143 0.48168 0.14947 0.0
H372 H 0.59921 0.75615 0.12425 0.0
C373 C 0.64229 0.51332 0.17448 0.0
C374 C 0.65809 0.6308 0.1804 0.0
H375 H 0.60671 0.38925 0.14413 0.0
H376 H 0.65698 0.44378 0.18741 0.0
C377 C 0.63904 0.71876 0.16323 0.0
C378 C 0.35577 0.40249 0.11878 0.0
C379 C 0.3698 0.28214 0.11871 0.0
H380 H 0.35814 0.56272 0.09656 0.0
C381 C 0.38531 0.2246 0.09279 0.0
H382 H 0.3425 0.44876 0.1384 0.0
C383 C 0.3925 0.29025 0.06833 0.0
C384 C 0.38519 0.41414 0.06979 0.0
H385 H 0.39624 0.13236 0.09209 0.0
H386 H 0.40927 0.24603 0.04933 0.0
C387 C 0.3641 0.46813 0.09477 0.0
C388 C 0.62926 0.75737 0.42294 0.0
C389 C 0.61333 0.87396 0.42997 0.0
H390 H 0.66682 0.63916 0.39221 0.0
C391 C 0.63342 -0.03448 0.41446 0.0
H392 H 0.6139 0.6852 0.43461 0.0
C393 C 0.66407 0.93904 0.39014 0.0
C394 C 0.6741 0.82068 0.38089 0.0
H395 H 0.621 0.05567 0.41919 0.0
H396 H 0.67568 0.01062 0.37713 0.0
C397 C 0.65891 0.73072 0.39845 0.0
C398 C 0.38795 -0.02112 0.34302 0.0
C399 C 0.4032 0.0314 0.36965 0.0
H400 H 0.36585 0.00871 0.29949 0.0
C401 C 0.41858 0.15091 0.37109 0.0
H402 H 0.37599 0.8874 0.34127 0.0
C403 C 0.4119 0.2209 0.34763 0.0
C404 C 0.39119 0.17212 0.32186 0.0
H405 H 0.43163 0.19327 0.39131 0.0
H406 H 0.41885 0.31491 0.3504 0.0
C407 C 0.38245 0.04885 0.31913 0.0
C408 C 0.01122 0.48718 0.02466 0.0
C409 C 1.00732 0.55996 0.00139 0.0
H410 H 0.99174 0.32137 0.04081 0.0
C411 C 0.98154 0.52136 0.97603 0.0
H412 H 0.02962 0.51737 0.04475 0.0
C413 C 0.95944 0.41064 0.974 0.0
C414 C 0.96357 0.33779 -0.00279 0.0
H415 H 0.97834 0.57665 0.95788 0.0
H416 H 0.94096 0.3803 0.95394 0.0
C417 C 0.98909 0.37629 0.02261 0.0
C418 C 0.28495 0.64712 0.27365 0.0
C419 C 0.31776 0.61027 0.25112 0.0
H420 H 0.23813 0.78554 0.29185 0.0
C421 C 0.32991 0.68598 0.22936 0.0
H422 H 0.27596 0.59065 0.29085 0.0
C423 C 0.30783 0.79667 0.22963 0.0
C424 C 0.27404 0.83277 0.25184 0.0
H425 H 0.35441 0.65783 0.2114 0.0
H426 H 0.31728 0.85359 0.21252 0.0
C427 C 0.2628 0.75782 0.27393 0.0
C428 C 0.83015 0.18667 0.22991 0.0
C429 C 0.818 0.11077 0.25163 0.0
H430 H 0.8175 0.35436 0.21313 0.0
C431 C 0.78525 0.14757 0.2742 0.0
H432 H 0.85462 0.15864 0.21193 0.0
C433 C 0.7631 0.25829 0.27453 0.0
C434 C 0.77425 0.33333 0.25244 0.0
H435 H 0.77628 0.09099 0.29138 0.0
H436 H 0.73844 0.28588 0.29245 0.0
C437 C 0.80807 0.29737 0.23023 0.0
C438 C 0.99083 0.88449 0.52259 0.0
C439 C 0.95634 0.84844 0.50057 0.0
H440 H 0.03916 0.02171 0.54013 0.0
C441 C 0.94335 0.92411 0.47883 0.0
H442 H 1.00072 0.82802 0.53972 0.0
C443 C 0.96583 0.03414 0.47874 0.0
C444 C 1.0009 0.06977 0.50058 0.0
H445 H 0.91766 0.89655 0.46119 0.0
H446 H 0.95546 0.09125 0.46173 0.0
C447 C 0.01338 -0.00549 0.52251 0.0
C448 C 0.2911 0.11931 0.77329 0.0
C449 C 0.32438 0.08279 0.75095 0.0
H450 H 0.24377 0.25721 0.79127 0.0
C451 C 0.33724 0.15918 0.72946 0.0
H452 H 0.28159 0.06245 0.79032 0.0
C453 C 0.31518 0.26993 0.72971 0.0
C454 C 0.28067 0.30545 0.75163 0.0
H455 H 0.3622 0.13146 0.71166 0.0
H456 H 0.32514 0.3272 0.71276 0.0
C457 C 0.26897 0.23003 0.77355 0.0
C458 C 0.79129 0.62026 0.77364 0.0
C459 C 0.82469 0.58376 0.75134 0.0
H460 H 0.74388 0.75811 0.79155 0.0
C461 C 0.83779 0.66031 0.72993 0.0
H462 H 0.78161 0.56331 0.79061 0.0
C463 C 0.81579 0.77112 0.73017 0.0
C464 C 0.78108 0.80654 0.752 0.0
H465 H 0.86287 0.63266 0.71218 0.0
H466 H 0.82592 0.82848 0.71327 0.0
C467 C 0.76921 0.73103 0.77388 0.0
C468 C 0.51447 0.4948 0.52229 0.0
C469 C 0.49995 0.57135 0.50101 0.0
H470 H 0.50368 0.32751 0.53926 0.0
C471 C 0.4627 0.53711 0.48019 0.0
H472 H 0.54199 0.52069 0.53917 0.0
C473 C 0.4403 0.42709 0.48058 0.0
C474 C 0.45555 0.34986 0.50155 0.0
H475 H 0.45056 0.5952 0.46374 0.0
H476 H 0.41294 0.40077 0.46365 0.0
C477 C 0.49198 0.38487 0.52268 0.0
C478 C 0.48856 0.87729 0.02293 0.0
C479 C 0.46332 0.83877 -0.00255 0.0
H480 H 0.52885 0.01844 0.0452 0.0
C481 C 0.45936 0.91166 0.97425 0.0
H482 H 0.49107 0.82233 0.04113 0.0
C483 C 0.48142 0.02241 0.97635 0.0
C484 C 0.50697 0.06102 0.00177 0.0
H485 H 0.44108 0.8813 0.95413 0.0
H486 H 0.47839 0.07769 0.95818 0.0
C487 C 0.51064 -0.01176 0.02506 0.0
C488 C 0.27798 0.12854 0.98551 0.0
C489 C 0.28151 0.25179 0.98515 0.0
H490 H 0.23125 -0.0195 0.99518 0.0
C491 C 0.23828 0.32072 0.99379 0.0
H492 H 0.31042 0.07292 0.97888 0.0
C493 C 0.19293 0.26812 0.00293 0.0
C494 C 0.18961 0.14512 0.00385 0.0
H495 H 0.23933 0.41601 0.99361 0.0
H496 H 0.1608 0.32436 0.00975 0.0
C497 C 0.2325 0.07572 0.9948 0.0
C498 C 0.77777 0.6283 0.98574 0.0
C499 C 0.78141 0.75152 0.98536 0.0
H500 H 0.73092 0.48055 0.99549 0.0
C501 C 0.73831 0.82071 0.99407 0.0
H502 H 0.81011 0.57249 0.97905 0.0
C503 C 0.69296 0.76839 0.0033 0.0
C504 C 0.68951 0.64542 0.00422 0.0
H505 H 0.73945 0.91599 0.99389 0.0
H506 H 0.66093 0.82483 0.01016 0.0
C507 C 0.73228 0.57576 0.99511 0.0
C508 C 0.04703 0.34731 0.24421 0.0
C509 C 0.08994 0.41624 0.25359 0.0
H510 H 0.96885 0.34552 0.22817 0.0
C511 C 0.08669 0.53923 0.25283 0.0
H512 H 0.04827 0.25204 0.24444 0.0
C513 C 0.04123 0.59235 0.24365 0.0
C514 C 0.99785 0.52392 0.23488 0.0
H515 H 0.1189 0.59499 0.25983 0.0
H516 H 0.04017 0.6877 0.24364 0.0
C517 C 1.00141 0.40066 0.23494 0.0
C518 C 0.2312 0.83165 0.49347 0.0
C519 C 0.27436 0.76339 0.48431 0.0
H520 H 0.15407 0.83392 0.50997 0.0
C521 C 0.27082 0.64008 0.48391 0.0
H522 H 0.23222 0.92705 0.49383 0.0
C523 C 0.22552 0.58649 0.49316 0.0
C524 C 0.18288 0.6552 0.50298 0.0
H525 H 0.30317 0.58504 0.47683 0.0
H526 H 0.22433 0.49115 0.49304 0.0
C527 C 0.18606 0.77829 0.50263 0.0
C528 C 0.73188 0.33199 0.49504 0.0
C529 C 0.77433 0.26322 0.48503 0.0
H530 H 0.65521 0.33501 0.5122 0.0
C531 C 0.77002 0.13995 0.48391 0.0
H532 H 0.73351 0.42741 0.49602 0.0
C533 C 0.72463 0.08683 0.49319 0.0
C534 C 0.68266 0.15595 0.50376 0.0
H535 H 0.80178 0.08453 0.47617 0.0
H536 H 0.72281 -0.00856 0.49243 0.0
C537 C 0.68664 0.27909 0.50422 0.0
C538 C 0.04696 0.06437 0.7433 0.0
C539 C 1.00372 -0.00416 0.73431 0.0
H540 H 0.12446 0.06731 0.75976 0.0
C541 C 0.00745 0.87258 0.73424 0.0
H542 H 0.04581 0.15974 0.7434 0.0
C543 C 0.05307 0.81937 0.74364 0.0
C544 C 0.09583 0.88843 0.75325 0.0
H545 H 0.97503 0.81734 0.72731 0.0
H546 H 0.05445 0.72408 0.74377 0.0
C547 C 0.0924 0.01141 0.75259 0.0
C548 C 0.59233 0.51157 0.75277 0.0
C549 C 0.59585 0.38863 0.7535 0.0
H550 H 0.54567 0.65958 0.74342 0.0
C551 C 0.55318 0.3193 0.74387 0.0
H552 H 0.62432 0.56766 0.75995 0.0
C553 C 0.50757 0.37221 0.73438 0.0
C554 C 0.50375 0.49543 0.73436 0.0
H555 H 0.55464 0.22402 0.74405 0.0
H556 H 0.47522 0.31678 0.72743 0.0
C557 C 0.5469 0.56423 0.74338 0.0
C558 C 0.54737 0.84774 0.24468 0.0
C559 C 0.59017 0.91679 0.25418 0.0
H560 H 0.46937 0.84571 0.22838 0.0
C561 C 0.58687 0.03977 0.2534 0.0
H562 H 0.54866 0.75247 0.24491 0.0
C563 C 0.54149 0.09276 0.24406 0.0
C564 C 0.49824 0.02419 0.23515 0.0
H565 H 0.619 0.09562 0.2605 0.0
H566 H 0.54039 0.18811 0.24404 0.0
C567 C 0.50183 0.90095 0.23525 0.0
loop_
_geom_bond_atom_site_label_1
_geom_bond_atom_site_label_2
_geom_bond_distance
_geom_bond_site_symmetry_2
_ccdc_geom_bond_type
C0 O12 1.241 1_565 S
C0 O13 1.280 . S
C1 O14 1.277 . S
C1 O15 1.245 . S
C2 O26 1.242 1_554 S
C2 O28 1.299 1_655 S
Mg3 O4 1.926 . S
Mg3 O13 1.984 . S
Mg3 O15 1.988 1_565 S
Mg3 O16 2.061 . S
O4 Mg3 1.926 . S
O4 Mg5 1.986 1_565 S
O4 Mg6 1.916 1_565 S
Mg5 O4 1.986 1_545 S
Mg5 O12 2.042 . S
Mg5 O14 2.041 . S
Mg5 O20 2.038 1_455 S
Mg5 O28 2.238 . S
Mg6 O4 1.916 1_545 S
Mg6 O7 1.918 1_454 S
Mg6 O17 2.098 1_444 S
Mg6 O19 2.078 1_445 S
Mg6 O28 2.114 . S
Mg6 O29 2.080 1_554 S
O7 Mg6 1.918 1_656 S
O7 Mg8 1.926 . S
O7 Mg9 1.986 1_545 S
Mg8 O7 1.926 . S
Mg8 O22 1.984 . S
Mg8 O25 1.988 1_545 S
Mg8 O26 2.061 . S
Mg9 O7 1.986 1_565 S
Mg9 O17 2.238 . S
Mg9 O21 2.042 . S
Mg9 O23 2.041 . S
Mg9 O30 2.038 1_655 S
C10 O16 1.247 . S
C10 O17 1.289 1_454 S
C11 O29 1.245 1_565 S
C11 O30 1.274 . S
O12 C0 1.241 1_545 S
O12 Mg5 2.042 . S
O13 C0 1.280 . S
O13 Mg3 1.984 . S
O14 C1 1.277 . S
O14 Mg5 2.041 . S
O15 C1 1.245 . S
O15 Mg3 1.988 1_545 S
O16 Mg3 2.061 . S
O16 C10 1.247 . S
O17 Mg6 2.098 1_666 S
O17 Mg9 2.238 . S
O17 C10 1.289 1_656 S
C18 O19 1.245 1_545 S
C18 O20 1.274 . S
O19 Mg6 2.078 1_665 S
O19 C18 1.245 1_565 S
O20 Mg5 2.038 1_655 S
O20 C18 1.274 . S
O21 Mg9 2.042 . S
O21 C24 1.241 1_565 S
O22 Mg8 1.984 . S
O22 C24 1.280 . S
O23 Mg9 2.041 . S
O23 C27 1.277 . S
C24 O21 1.241 1_545 S
C24 O22 1.280 . S
O25 Mg8 1.988 1_565 S
O25 C27 1.245 . S
O26 C2 1.242 1_556 S
O26 Mg8 2.061 . S
C27 O23 1.277 . S
C27 O25 1.245 . S
O28 C2 1.299 1_455 S
O28 Mg5 2.238 . S
O28 Mg6 2.114 . S
O29 Mg6 2.080 1_556 S
O29 C11 1.245 1_545 S
O30 Mg9 2.038 1_455 S
O30 C11 1.274 . S
C31 O43 1.241 . S
C31 O44 1.280 . S
C32 O45 1.277 . S
C32 O46 1.245 . S
C33 O57 1.247 . S
C33 O59 1.289 1_565 S
Mg34 O35 1.926 . S
Mg34 O44 1.984 . S
Mg34 O46 1.988 . S
Mg34 O47 2.061 . S
O35 Mg34 1.926 . S
O35 Mg36 1.986 . S
O35 Mg37 1.917 . S
Mg36 O35 1.986 . S
Mg36 O43 2.042 . S
Mg36 O45 2.041 . S
Mg36 O51 2.038 . S
Mg36 O59 2.238 . S
Mg37 O35 1.917 . S
Mg37 O38 1.917 . S
Mg37 O48 2.106 . S
Mg37 O50 2.079 . S
Mg37 O59 2.106 . S
Mg37 O60 2.079 . S
O38 Mg37 1.917 . S
O38 Mg39 1.926 . S
O38 Mg40 1.986 . S
Mg39 O38 1.926 . S
Mg39 O53 1.984 . S
Mg39 O56 1.988 . S
Mg39 O57 2.061 1_545 S
Mg40 O38 1.986 . S
Mg40 O48 2.238 . S
Mg40 O52 2.042 . S
Mg40 O54 2.041 . S
Mg40 O61 2.038 . S
C41 O47 1.247 . S
C41 O48 1.289 . S
C42 O60 1.245 . S
C42 O61 1.274 . S
O43 C31 1.241 . S
O43 Mg36 2.042 . S
O44 C31 1.280 . S
O44 Mg34 1.984 . S
O45 C32 1.277 . S
O45 Mg36 2.041 . S
O46 C32 1.245 . S
O46 Mg34 1.988 . S
O47 Mg34 2.061 . S
O47 C41 1.247 . S
O48 Mg37 2.106 . S
O48 Mg40 2.238 . S
O48 C41 1.289 . S
C49 O50 1.245 . S
C49 O51 1.274 . S
O50 Mg37 2.079 . S
O50 C49 1.245 . S
O51 Mg36 2.038 . S
O51 C49 1.274 . S
O52 Mg40 2.042 . S
O52 C55 1.241 . S
O53 Mg39 1.984 . S
O53 C55 1.280 . S
O54 Mg40 2.041 . S
O54 C58 1.277 . S
C55 O52 1.241 . S
C55 O53 1.280 . S
O56 Mg39 1.988 . S
O56 C58 1.245 . S
O57 C33 1.247 . S
O57 Mg39 2.061 1_565 S
C58 O54 1.277 . S
C58 O56 1.245 . S
O59 C33 1.289 1_545 S
O59 Mg36 2.238 . S
O59 Mg37 2.106 . S
O60 Mg37 2.079 . S
O60 C42 1.245 . S
O61 Mg40 2.038 . S
O61 C42 1.274 . S
C62 O74 1.241 . S
C62 O75 1.280 . S
C63 O76 1.277 . S
C63 O77 1.245 . S
C64 O88 1.247 . S
C64 O90 1.289 . S
Mg65 O66 1.926 . S
Mg65 O75 1.984 . S
Mg65 O77 1.988 . S
Mg65 O78 2.061 1_565 S
O66 Mg65 1.926 . S
O66 Mg67 1.986 . S
O66 Mg68 1.917 . S
Mg67 O66 1.986 . S
Mg67 O74 2.042 . S
Mg67 O76 2.041 . S
Mg67 O82 2.038 . S
Mg67 O90 2.238 . S
Mg68 O66 1.917 . S
Mg68 O69 1.917 . S
Mg68 O79 2.106 . S
Mg68 O81 2.079 . S
Mg68 O90 2.106 . S
Mg68 O91 2.079 . S
O69 Mg68 1.917 . S
O69 Mg70 1.926 . S
O69 Mg71 1.986 . S
Mg70 O69 1.926 . S
Mg70 O84 1.984 . S
Mg70 O87 1.988 . S
Mg70 O88 2.061 . S
Mg71 O69 1.986 . S
Mg71 O79 2.238 . S
Mg71 O83 2.042 . S
Mg71 O85 2.041 . S
Mg71 O92 2.038 . S
C72 O78 1.247 . S
C72 O79 1.289 1_545 S
C73 O91 1.245 . S
C73 O92 1.274 . S
O74 C62 1.241 . S
O74 Mg67 2.042 . S
O75 C62 1.280 . S
O75 Mg65 1.984 . S
O76 C63 1.277 . S
O76 Mg67 2.041 . S
O77 C63 1.245 . S
O77 Mg65 1.988 . S
O78 Mg65 2.061 1_545 S
O78 C72 1.247 . S
O79 Mg68 2.106 . S
O79 Mg71 2.238 . S
O79 C72 1.289 1_565 S
C80 O81 1.245 . S
C80 O82 1.274 . S
O81 Mg68 2.079 . S
O81 C80 1.245 . S
O82 Mg67 2.038 . S
O82 C80 1.274 . S
O83 Mg71 2.042 . S
O83 C86 1.241 . S
O84 Mg70 1.984 . S
O84 C86 1.280 . S
O85 Mg71 2.041 . S
O85 C89 1.277 . S
C86 O83 1.241 . S
C86 O84 1.280 . S
O87 Mg70 1.988 . S
O87 C89 1.245 . S
O88 C64 1.247 . S
O88 Mg70 2.061 . S
C89 O85 1.277 . S
C89 O87 1.245 . S
O90 C64 1.289 . S
O90 Mg67 2.238 . S
O90 Mg68 2.106 . S
O91 Mg68 2.079 . S
O91 C73 1.245 . S
O92 Mg71 2.038 . S
O92 C73 1.274 . S
C93 O105 1.241 . S
C93 O106 1.280 . S
C94 O107 1.277 . S
C94 O108 1.245 . S
C95 O119 1.247 . S
C95 O121 1.289 1_655 S
Mg96 O97 1.926 . S
Mg96 O106 1.984 . S
Mg96 O108 1.988 . S
Mg96 O109 2.061 . S
O97 Mg96 1.926 . S
O97 Mg98 1.986 . S
O97 Mg99 1.917 . S
Mg98 O97 1.986 . S
Mg98 O105 2.042 . S
Mg98 O107 2.041 . S
Mg98 O113 2.038 1_455 S
Mg98 O121 2.238 . S
Mg99 O97 1.917 . S
Mg99 O100 1.917 1_455 S
Mg99 O110 2.106 1_455 S
Mg99 O112 2.079 1_455 S
Mg99 O121 2.106 . S
Mg99 O122 2.079 . S
O100 Mg99 1.917 1_655 S
O100 Mg101 1.926 . S
O100 Mg102 1.986 . S
Mg101 O100 1.926 . S
Mg101 O115 1.984 . S
Mg101 O118 1.988 . S
Mg101 O119 2.061 . S
Mg102 O100 1.986 . S
Mg102 O110 2.238 . S
Mg102 O114 2.042 . S
Mg102 O116 2.041 . S
Mg102 O123 2.038 1_655 S
C103 O109 1.247 . S
C103 O110 1.289 1_455 S
C104 O122 1.245 . S
C104 O123 1.274 . S
O105 C93 1.241 . S
O105 Mg98 2.042 . S
O106 C93 1.280 . S
O106 Mg96 1.984 . S
O107 C94 1.277 . S
O107 Mg98 2.041 . S
O108 C94 1.245 . S
O108 Mg96 1.988 . S
O109 Mg96 2.061 . S
O109 C103 1.247 . S
O110 Mg99 2.106 1_655 S
O110 Mg102 2.238 . S
O110 C103 1.289 1_655 S
C111 O112 1.245 . S
C111 O113 1.274 . S
O112 Mg99 2.079 1_655 S
O112 C111 1.245 . S
O113 Mg98 2.038 1_655 S
O113 C111 1.274 . S
O114 Mg102 2.042 . S
O114 C117 1.241 . S
O115 Mg101 1.984 . S
O115 C117 1.280 . S
O116 Mg102 2.041 . S
O116 C120 1.277 . S
C117 O114 1.241 . S
C117 O115 1.280 . S
O118 Mg101 1.988 . S
O118 C120 1.245 . S
O119 C95 1.247 . S
O119 Mg101 2.061 . S
C120 O116 1.277 . S
C120 O118 1.245 . S
O121 C95 1.289 1_455 S
O121 Mg98 2.238 . S
O121 Mg99 2.106 . S
O122 Mg99 2.079 . S
O122 C104 1.245 . S
O123 Mg102 2.038 1_455 S
O123 C104 1.274 . S
C124 O136 1.241 . S
C124 O137 1.280 . S
C125 O138 1.277 . S
C125 O139 1.245 . S
C126 O150 1.247 . S
C126 O152 1.289 . S
Mg127 O128 1.926 . S
Mg127 O137 1.984 . S
Mg127 O139 1.988 . S
Mg127 O140 2.061 1_565 S
O128 Mg127 1.926 . S
O128 Mg129 1.986 . S
O128 Mg130 1.917 . S
Mg129 O128 1.986 . S
Mg129 O136 2.042 . S
Mg129 O138 2.041 . S
Mg129 O144 2.038 . S
Mg129 O152 2.238 . S
Mg130 O128 1.917 . S
Mg130 O131 1.917 . S
Mg130 O141 2.106 . S
Mg130 O143 2.079 . S
Mg130 O152 2.106 . S
Mg130 O153 2.079 . S
O131 Mg130 1.917 . S
O131 Mg132 1.926 . S
O131 Mg133 1.986 . S
Mg132 O131 1.926 . S
Mg132 O146 1.984 . S
Mg132 O149 1.988 . S
Mg132 O150 2.061 . S
Mg133 O131 1.986 . S
Mg133 O141 2.238 . S
Mg133 O145 2.042 . S
Mg133 O147 2.041 . S
Mg133 O154 2.038 . S
C134 O140 1.247 . S
C134 O141 1.289 1_545 S
C135 O153 1.245 . S
C135 O154 1.274 . S
O136 C124 1.241 . S
O136 Mg129 2.042 . S
O137 C124 1.280 . S
O137 Mg127 1.984 . S
O138 C125 1.277 . S
O138 Mg129 2.041 . S
O139 C125 1.245 . S
O139 Mg127 1.988 . S
O140 Mg127 2.061 1_545 S
O140 C134 1.247 . S
O141 Mg130 2.106 . S
O141 Mg133 2.238 . S
O141 C134 1.289 1_565 S
C142 O143 1.245 . S
C142 O144 1.274 . S
O143 Mg130 2.079 . S
O143 C142 1.245 . S
O144 Mg129 2.038 . S
O144 C142 1.274 . S
O145 Mg133 2.042 . S
O145 C148 1.241 . S
O146 Mg132 1.984 . S
O146 C148 1.280 . S
O147 Mg133 2.041 . S
O147 C151 1.277 . S
C148 O145 1.241 . S
C148 O146 1.280 . S
O149 Mg132 1.988 . S
O149 C151 1.245 . S
O150 C126 1.247 . S
O150 Mg132 2.061 . S
C151 O147 1.277 . S
C151 O149 1.245 . S
O152 C126 1.289 . S
O152 Mg129 2.238 . S
O152 Mg130 2.106 . S
O153 Mg130 2.079 . S
O153 C135 1.245 . S
O154 Mg133 2.038 . S
O154 C135 1.274 . S
C155 O167 1.241 . S
C155 O168 1.280 . S
C156 O169 1.277 . S
C156 O170 1.245 . S
C157 O181 1.247 . S
C157 O183 1.289 1_565 S
Mg158 O159 1.926 . S
Mg158 O168 1.984 . S
Mg158 O170 1.988 . S
Mg158 O171 2.061 . S
O159 Mg158 1.926 . S
O159 Mg160 1.986 . S
O159 Mg161 1.917 . S
Mg160 O159 1.986 . S
Mg160 O167 2.042 . S
Mg160 O169 2.041 . S
Mg160 O175 2.038 . S
Mg160 O183 2.238 . S
Mg161 O159 1.917 . S
Mg161 O162 1.917 . S
Mg161 O172 2.106 . S
Mg161 O174 2.079 . S
Mg161 O183 2.106 . S
Mg161 O184 2.079 . S
O162 Mg161 1.917 . S
O162 Mg163 1.926 . S
O162 Mg164 1.986 . S
Mg163 O162 1.926 . S
Mg163 O177 1.984 . S
Mg163 O180 1.988 . S
Mg163 O181 2.061 1_545 S
Mg164 O162 1.986 . S
Mg164 O172 2.238 . S
Mg164 O176 2.042 . S
Mg164 O178 2.041 . S
Mg164 O185 2.038 . S
C165 O171 1.247 . S
C165 O172 1.289 . S
C166 O184 1.245 . S
C166 O185 1.274 . S
O167 C155 1.241 . S
O167 Mg160 2.042 . S
O168 C155 1.280 . S
O168 Mg158 1.984 . S
O169 C156 1.277 . S
O169 Mg160 2.041 . S
O170 C156 1.245 . S
O170 Mg158 1.988 . S
O171 Mg158 2.061 . S
O171 C165 1.247 . S
O172 Mg161 2.106 . S
O172 Mg164 2.238 . S
O172 C165 1.289 . S
C173 O174 1.245 . S
C173 O175 1.274 . S
O174 Mg161 2.079 . S
O174 C173 1.245 . S
O175 Mg160 2.038 . S
O175 C173 1.274 . S
O176 Mg164 2.042 . S
O176 C179 1.241 . S
O177 Mg163 1.984 . S
O177 C179 1.280 . S
O178 Mg164 2.041 . S
O178 C182 1.277 . S
C179 O176 1.241 . S
C179 O177 1.280 . S
O180 Mg163 1.988 . S
O180 C182 1.245 . S
O181 C157 1.247 . S
O181 Mg163 2.061 1_565 S
C182 O178 1.277 . S
C182 O180 1.245 . S
O183 C157 1.289 1_545 S
O183 Mg160 2.238 . S
O183 Mg161 2.106 . S
O184 Mg161 2.079 . S
O184 C166 1.245 . S
O185 Mg164 2.038 . S
O185 C166 1.274 . S
C186 O198 1.241 1_565 S
C186 O199 1.280 . S
C187 O200 1.277 . S
C187 O201 1.245 . S
C188 O212 1.247 . S
C188 O214 1.289 . S
Mg189 O190 1.926 . S
Mg189 O199 1.984 . S
Mg189 O201 1.988 1_565 S
Mg189 O202 2.061 . S
O190 Mg189 1.926 . S
O190 Mg191 1.986 1_565 S
O190 Mg192 1.916 1_565 S
Mg191 O190 1.986 1_545 S
Mg191 O198 2.042 . S
Mg191 O200 2.041 . S
Mg191 O206 2.038 . S
Mg191 O214 2.238 . S
Mg192 O190 1.916 1_545 S
Mg192 O193 1.917 . S
Mg192 O203 2.101 1_545 S
Mg192 O205 2.078 1_545 S
Mg192 O214 2.112 . S
Mg192 O215 2.079 . S
O193 Mg192 1.917 . S
O193 Mg194 1.926 . S
O193 Mg195 1.986 1_545 S
Mg194 O193 1.926 . S
Mg194 O208 1.984 . S
Mg194 O211 1.988 1_545 S
Mg194 O212 2.061 . S
Mg195 O193 1.986 1_565 S
Mg195 O203 2.238 . S
Mg195 O207 2.042 . S
Mg195 O209 2.041 . S
Mg195 O216 2.038 . S
C196 O202 1.247 . S
C196 O203 1.289 . S
C197 O215 1.245 1_565 S
C197 O216 1.274 . S
O198 C186 1.241 1_545 S
O198 Mg191 2.042 . S
O199 C186 1.280 . S
O199 Mg189 1.984 . S
O200 C187 1.277 . S
O200 Mg191 2.041 . S
O201 C187 1.245 . S
O201 Mg189 1.988 1_545 S
O202 Mg189 2.061 . S
O202 C196 1.247 . S
O203 Mg192 2.101 1_565 S
O203 Mg195 2.238 . S
O203 C196 1.289 . S
C204 O205 1.245 1_545 S
C204 O206 1.274 . S
O205 Mg192 2.078 1_565 S
O205 C204 1.245 1_565 S
O206 Mg191 2.038 . S
O206 C204 1.274 . S
O207 Mg195 2.042 . S
O207 C210 1.241 1_565 S
O208 Mg194 1.984 . S
O208 C210 1.280 . S
O209 Mg195 2.041 . S
O209 C213 1.277 . S
C210 O207 1.241 1_545 S
C210 O208 1.280 . S
O211 Mg194 1.988 1_565 S
O211 C213 1.245 . S
O212 C188 1.247 . S
O212 Mg194 2.061 . S
C213 O209 1.277 . S
C213 O211 1.245 . S
O214 C188 1.289 . S
O214 Mg191 2.238 . S
O214 Mg192 2.112 . S
O215 Mg192 2.079 . S
O215 C197 1.245 1_545 S
O216 Mg195 2.038 . S
O216 C197 1.274 . S
C217 O229 1.241 . S
C217 O230 1.280 . S
C218 O231 1.277 . S
C218 O232 1.245 . S
C219 O243 1.242 1_554 S
C219 O245 1.299 . S
Mg220 O221 1.926 . S
Mg220 O230 1.984 . S
Mg220 O232 1.988 . S
Mg220 O233 2.061 . S
O221 Mg220 1.926 . S
O221 Mg222 1.986 . S
O221 Mg223 1.917 . S
Mg222 O221 1.986 . S
Mg222 O229 2.042 . S
Mg222 O231 2.041 . S
Mg222 O237 2.038 . S
Mg222 O245 2.238 . S
Mg223 O221 1.917 . S
Mg223 O224 1.917 1_554 S
Mg223 O234 2.106 1_554 S
Mg223 O236 2.079 . S
Mg223 O245 2.106 . S
Mg223 O246 2.079 1_554 S
O224 Mg223 1.917 1_556 S
O224 Mg225 1.926 . S
O224 Mg226 1.986 . S
Mg225 O224 1.926 . S
Mg225 O239 1.984 . S
Mg225 O242 1.988 . S
Mg225 O243 2.061 . S
Mg226 O224 1.986 . S
Mg226 O234 2.238 . S
Mg226 O238 2.042 . S
Mg226 O240 2.041 . S
Mg226 O247 2.038 . S
C227 O233 1.247 . S
C227 O234 1.289 1_554 S
C228 O246 1.245 . S
C228 O247 1.274 . S
O229 C217 1.241 . S
O229 Mg222 2.042 . S
O230 C217 1.280 . S
O230 Mg220 1.984 . S
O231 C218 1.277 . S
O231 Mg222 2.041 . S
O232 C218 1.245 . S
O232 Mg220 1.988 . S
O233 Mg220 2.061 . S
O233 C227 1.247 . S
O234 Mg223 2.106 1_556 S
O234 Mg226 2.238 . S
O234 C227 1.289 1_556 S
C235 O236 1.245 . S
C235 O237 1.274 . S
O236 Mg223 2.079 . S
O236 C235 1.245 . S
O237 Mg222 2.038 . S
O237 C235 1.274 . S
O238 Mg226 2.042 . S
O238 C241 1.241 . S
O239 Mg225 1.984 . S
O239 C241 1.280 . S
O240 Mg226 2.041 . S
O240 C244 1.277 . S
C241 O238 1.241 . S
C241 O239 1.280 . S
O242 Mg225 1.988 . S
O242 C244 1.245 . S
O243 C219 1.242 1_556 S
O243 Mg225 2.061 . S
C244 O240 1.277 . S
C244 O242 1.245 . S
O245 C219 1.299 . S
O245 Mg222 2.238 . S
O245 Mg223 2.106 . S
O246 Mg223 2.079 1_556 S
O246 C228 1.245 . S
O247 Mg226 2.038 . S
O247 C228 1.274 . S
C248 C249 1.387 . S
C248 H252 0.950 . S
C248 C257 1.390 . S
C249 C248 1.387 . S
C249 C251 1.387 1_545 S
H250 C257 0.950 . S
C251 C249 1.387 1_565 S
C251 C253 1.390 1_565 S
C251 H255 0.950 . S
H252 C248 0.950 . S
C253 C251 1.390 1_545 S
C253 C254 1.387 . S
C253 H256 0.953 . S
C254 C253 1.387 . S
C254 C257 1.387 . S
H255 C251 0.950 . S
H256 C253 0.953 . S
C257 C248 1.390 . S
C257 H250 0.950 . S
C257 C254 1.387 . S
C258 C259 1.387 1_545 S
C258 H262 0.950 . S
C258 C267 1.390 1_545 S
C259 C258 1.387 1_565 S
C259 C261 1.387 . S
H260 C267 0.950 1_545 S
C261 C259 1.387 . S
C261 C263 1.390 . S
C261 H265 0.950 . S
H262 C258 0.950 . S
C263 C261 1.390 . S
C263 C264 1.387 . S
C263 H266 0.950 . S
C264 C263 1.387 . S
C264 C267 1.387 . S
H265 C261 0.950 . S
H266 C263 0.950 . S
C267 C258 1.390 1_565 S
C267 H260 0.950 1_565 S
C267 C264 1.387 . S
C268 C269 1.387 . S
C268 H272 0.950 . S
C268 C277 1.390 . S
C269 C268 1.387 . S
C269 C271 1.387 . S
H270 C277 0.950 . S
C271 C269 1.387 . S
C271 C273 1.390 . S
C271 H275 0.950 . S
H272 C268 0.950 . S
C273 C271 1.390 . S
C273 C274 1.387 . S
C273 H276 0.950 . S
C274 C273 1.387 . S
C274 C277 1.387 . S
H275 C271 0.950 . S
H276 C273 0.950 . S
C277 C268 1.390 . S
C277 H270 0.950 . S
C277 C274 1.387 . S
C278 C279 1.387 . S
C278 H282 0.950 . S
C278 C287 1.390 . S
C279 C278 1.387 . S
C279 C281 1.387 . S
H280 C287 0.950 . S
C281 C279 1.387 . S
C281 C283 1.390 . S
C281 H285 0.950 . S
H282 C278 0.950 . S
C283 C281 1.390 . S
C283 C284 1.387 . S
C283 H286 0.950 . S
C284 C283 1.387 . S
C284 C287 1.387 . S
H285 C281 0.950 . S
H286 C283 0.950 . S
C287 C278 1.390 . S
C287 H280 0.950 . S
C287 C284 1.387 . S
C288 C289 1.387 . S
C288 H292 0.950 . S
C288 C297 1.390 . S
C289 C288 1.387 . S
C289 C291 1.387 . S
H290 C297 0.950 . S
C291 C289 1.387 . S
C291 C293 1.390 . S
C291 H295 0.950 . S
H292 C288 0.950 . S
C293 C291 1.390 . S
C293 C294 1.387 . S
C293 H296 0.950 . S
C294 C293 1.387 . S
C294 C297 1.387 . S
H295 C291 0.950 . S
H296 C293 0.950 . S
C297 C288 1.390 . S
C297 H290 0.950 . S
C297 C294 1.387 . S
C298 C299 1.387 . S
C298 H302 0.950 . S
C298 C307 1.390 . S
C299 C298 1.387 . S
C299 C301 1.387 . S
H300 C307 0.950 . S
C301 C299 1.387 . S
C301 C303 1.390 . S
C301 H305 0.950 . S
H302 C298 0.950 . S
C303 C301 1.390 . S
C303 C304 1.387 . S
C303 H306 0.950 . S
C304 C303 1.387 . S
C304 C307 1.387 . S
H305 C301 0.950 . S
H306 C303 0.950 . S
C307 C298 1.390 . S
C307 H300 0.950 . S
C307 C304 1.387 . S
C308 C309 1.387 . S
C308 H312 0.950 . S
C308 C317 1.390 . S
C309 C308 1.387 . S
C309 C311 1.387 . S
H310 C317 0.950 . S
C311 C309 1.387 . S
C311 C313 1.390 . S
C311 H315 0.950 . S
H312 C308 0.950 . S
C313 C311 1.390 . S
C313 C314 1.387 . S
C313 H316 0.950 . S
C314 C313 1.387 . S
C314 C317 1.387 . S
H315 C311 0.950 . S
H316 C313 0.950 . S
C317 C308 1.390 . S
C317 H310 0.950 . S
C317 C314 1.387 . S
C318 C319 1.387 . S
C318 H322 0.950 . S
C318 C327 1.390 . S
C319 C318 1.387 . S
C319 C321 1.387 . S
H320 C327 0.950 1_565 S
C321 C319 1.387 . S
C321 C323 1.390 . S
C321 H325 0.950 . S
H322 C318 0.950 . S
C323 C321 1.390 . S
C323 C324 1.387 . S
C323 H326 0.950 . S
C324 C323 1.387 . S
C324 C327 1.387 . S
H325 C321 0.950 . S
H326 C323 0.950 . S
C327 C318 1.390 . S
C327 H320 0.950 1_545 S
C327 C324 1.387 . S
C328 C329 1.387 . S
C328 H332 0.950 . S
C328 C337 1.390 1_545 S
C329 C328 1.387 . S
C329 C331 1.387 . S
H330 C337 0.950 . S
C331 C329 1.387 . S
C331 C333 1.390 . S
C331 H335 0.950 . S
H332 C328 0.950 . S
C333 C331 1.390 . S
C333 C334 1.387 . S
C333 H336 0.950 . S
C334 C333 1.387 . S
C334 C337 1.387 1_545 S
H335 C331 0.950 . S
H336 C333 0.950 . S
C337 C328 1.390 1_565 S
C337 H330 0.950 . S
C337 C334 1.387 1_565 S
C338 C339 1.387 . S
C338 H342 0.950 . S
C338 C347 1.390 . S
C339 C338 1.387 . S
C339 C341 1.387 1_565 S
H340 C347 0.950 . S
C341 C339 1.387 1_545 S
C341 C343 1.390 1_545 S
C341 H345 0.950 . S
H342 C338 0.950 . S
C343 C341 1.390 1_565 S
C343 C344 1.387 . S
C343 H346 0.950 1_565 S
C344 C343 1.387 . S
C344 C347 1.387 . S
H345 C341 0.950 . S
H346 C343 0.950 1_545 S
C347 C338 1.390 . S
C347 H340 0.950 . S
C347 C344 1.387 . S
C348 C349 1.387 . S
C348 H352 0.950 . S
C348 C357 1.390 . S
C349 C348 1.387 . S
C349 C351 1.387 . S
H350 C357 0.950 . S
C351 C349 1.387 . S
C351 C353 1.390 . S
C351 H355 0.950 . S
H352 C348 0.950 . S
C353 C351 1.390 . S
C353 C354 1.387 . S
C353 H356 0.950 . S
C354 C353 1.387 . S
C354 C357 1.387 . S
H355 C351 0.950 . S
H356 C353 0.950 . S
C357 C348 1.390 . S
C357 H350 0.950 . S
C357 C354 1.387 . S
C358 C359 1.387 . S
C358 H362 0.950 . S
C358 C367 1.390 . S
C359 C358 1.387 . S
C359 C361 1.387 . S
H360 C367 0.950 . S
C361 C359 1.387 . S
C361 C363 1.390 . S
C361 H365 0.950 . S
H362 C358 0.950 . S
C363 C361 1.390 . S
C363 C364 1.387 . S
C363 H366 0.950 . S
C364 C363 1.387 . S
C364 C367 1.387 . S
H365 C361 0.950 . S
H366 C363 0.950 . S
C367 C358 1.390 . S
C367 H360 0.950 . S
C367 C364 1.387 . S
C368 C369 1.387 . S
C368 H372 0.950 . S
C368 C377 1.390 . S
C369 C368 1.387 . S
C369 C371 1.387 . S
H370 C377 0.950 . S
C371 C369 1.387 . S
C371 C373 1.390 . S
C371 H375 0.950 . S
H372 C368 0.950 . S
C373 C371 1.390 . S
C373 C374 1.387 . S
C373 H376 0.950 . S
C374 C373 1.387 . S
C374 C377 1.387 . S
H375 C371 0.950 . S
H376 C373 0.950 . S
C377 C368 1.390 . S
C377 H370 0.950 . S
C377 C374 1.387 . S
C378 C379 1.387 . S
C378 H382 0.950 . S
C378 C387 1.390 . S
C379 C378 1.387 . S
C379 C381 1.387 . S
H380 C387 0.950 . S
C381 C379 1.387 . S
C381 C383 1.390 . S
C381 H385 0.950 . S
H382 C378 0.950 . S
C383 C381 1.390 . S
C383 C384 1.387 . S
C383 H386 0.950 . S
C384 C383 1.387 . S
C384 C387 1.387 . S
H385 C381 0.950 . S
H386 C383 0.950 . S
C387 C378 1.390 . S
C387 H380 0.950 . S
C387 C384 1.387 . S
C388 C389 1.387 . S
C388 H392 0.950 . S
C388 C397 1.390 . S
C389 C388 1.387 . S
C389 C391 1.387 . S
H390 C397 0.950 . S
C391 C389 1.387 . S
C391 C393 1.390 . S
C391 H395 0.950 1_565 S
H392 C388 0.950 . S
C393 C391 1.390 . S
C393 C394 1.387 . S
C393 H396 0.950 . S
C394 C393 1.387 . S
C394 C397 1.387 . S
H395 C391 0.950 1_545 S
H396 C393 0.950 . S
C397 C388 1.390 . S
C397 H390 0.950 . S
C397 C394 1.387 . S
C398 C399 1.387 . S
C398 H402 0.950 . S
C398 C407 1.390 . S
C399 C398 1.387 . S
C399 C401 1.387 . S
H400 C407 0.950 . S
C401 C399 1.387 . S
C401 C403 1.390 . S
C401 H405 0.950 . S
H402 C398 0.950 . S
C403 C401 1.390 . S
C403 C404 1.387 . S
C403 H406 0.950 . S
C404 C403 1.387 . S
C404 C407 1.387 . S
H405 C401 0.950 . S
H406 C403 0.950 . S
C407 C398 1.390 . S
C407 H400 0.950 . S
C407 C404 1.387 . S
C408 C409 1.387 1_655 S
C408 H412 0.950 . S
C408 C417 1.390 . S
C409 C408 1.387 1_455 S
C409 C411 1.387 1_554 S
H410 C417 0.950 . S
C411 C409 1.387 1_556 S
C411 C413 1.390 . S
C411 H415 0.950 . S
H412 C408 0.950 . S
C413 C411 1.390 . S
C413 C414 1.384 1_455 S
C413 H416 0.950 . S
C414 C413 1.384 1_655 S
C414 C417 1.390 1_556 S
H415 C411 0.950 . S
H416 C413 0.950 . S
C417 C408 1.390 . S
C417 H410 0.950 . S
C417 C414 1.390 1_554 S
C418 C419 1.387 . S
C418 H422 0.950 . S
C418 C427 1.390 . S
C419 C418 1.387 . S
C419 C421 1.387 . S
H420 C427 0.950 . S
C421 C419 1.387 . S
C421 C423 1.390 . S
C421 H425 0.950 . S
H422 C418 0.950 . S
C423 C421 1.390 . S
C423 C424 1.387 . S
C423 H426 0.950 . S
C424 C423 1.387 . S
C424 C427 1.387 . S
H425 C421 0.950 . S
H426 C423 0.950 . S
C427 C418 1.390 . S
C427 H420 0.950 . S
C427 C424 1.387 . S
C428 C429 1.387 . S
C428 H432 0.950 . S
C428 C437 1.390 . S
C429 C428 1.387 . S
C429 C431 1.387 . S
H430 C437 0.950 . S
C431 C429 1.387 . S
C431 C433 1.390 . S
C431 H435 0.950 . S
H432 C428 0.950 . S
C433 C431 1.390 . S
C433 C434 1.387 . S
C433 H436 0.950 . S
C434 C433 1.387 . S
C434 C437 1.387 . S
H435 C431 0.950 . S
H436 C433 0.950 . S
C437 C428 1.390 . S
C437 H430 0.950 . S
C437 C434 1.387 . S
C438 C439 1.388 . S
C438 H442 0.950 . S
C438 C447 1.388 1_665 S
C439 C438 1.388 . S
C439 C441 1.385 1_655 S
H440 C447 0.948 1_655 S
C441 C439 1.385 1_455 S
C441 C443 1.390 1_565 S
C441 H445 0.950 . S
H442 C438 0.950 . S
C443 C441 1.390 1_545 S
C443 C444 1.387 . S
C443 H446 0.950 . S
C444 C443 1.387 . S
C444 C447 1.392 . S
H445 C441 0.950 . S
H446 C443 0.950 . S
C447 C438 1.388 1_445 S
C447 H440 0.948 1_455 S
C447 C444 1.392 . S
C448 C449 1.387 . S
C448 H452 0.950 . S
C448 C457 1.390 . S
C449 C448 1.387 . S
C449 C451 1.387 . S
H450 C457 0.950 . S
C451 C449 1.387 . S
C451 C453 1.390 . S
C451 H455 0.950 . S
H452 C448 0.950 . S
C453 C451 1.390 . S
C453 C454 1.387 . S
C453 H456 0.950 . S
C454 C453 1.387 . S
C454 C457 1.387 . S
H455 C451 0.950 . S
H456 C453 0.950 . S
C457 C448 1.390 . S
C457 H450 0.950 . S
C457 C454 1.387 . S
C458 C459 1.387 . S
C458 H462 0.950 . S
C458 C467 1.390 . S
C459 C458 1.387 . S
C459 C461 1.387 . S
H460 C467 0.950 . S
C461 C459 1.387 . S
C461 C463 1.390 . S
C461 H465 0.950 . S
H462 C458 0.950 . S
C463 C461 1.390 . S
C463 C464 1.387 . S
C463 H466 0.950 . S
C464 C463 1.387 . S
C464 C467 1.387 . S
H465 C461 0.950 . S
H466 C463 0.950 . S
C467 C458 1.390 . S
C467 H460 0.950 . S
C467 C464 1.387 . S
C468 C469 1.387 . S
C468 H472 0.950 . S
C468 C477 1.390 . S
C469 C468 1.387 . S
C469 C471 1.387 . S
H470 C477 0.950 . S
C471 C469 1.387 . S
C471 C473 1.390 . S
C471 H475 0.950 . S
H472 C468 0.950 . S
C473 C471 1.390 . S
C473 C474 1.387 . S
C473 H476 0.950 . S
C474 C473 1.387 . S
C474 C477 1.387 . S
H475 C471 0.950 . S
H476 C473 0.950 . S
C477 C468 1.390 . S
C477 H470 0.950 . S
C477 C474 1.387 . S
C478 C479 1.387 1_554 S
C478 H482 0.950 . S
C478 C487 1.390 1_565 S
C479 C478 1.387 1_556 S
C479 C481 1.387 . S
H480 C487 0.950 . S
C481 C479 1.387 . S
C481 C483 1.390 1_565 S
C481 H485 0.950 . S
H482 C478 0.950 . S
C483 C481 1.390 1_545 S
C483 C484 1.387 1_556 S
C483 H486 0.950 . S
C484 C483 1.387 1_554 S
C484 C487 1.387 . S
H485 C481 0.950 . S
H486 C483 0.950 . S
C487 C478 1.390 1_545 S
C487 H480 0.950 . S
C487 C484 1.387 . S
C488 C489 1.387 . S
C488 H492 0.950 . S
C488 C497 1.390 . S
C489 C488 1.387 . S
C489 C491 1.387 1_556 S
H490 C497 0.950 . S
C491 C489 1.387 1_554 S
C491 C493 1.390 . S
C491 H495 0.950 . S
H492 C488 0.950 . S
C493 C491 1.390 . S
C493 C494 1.387 . S
C493 H496 0.950 . S
C494 C493 1.387 . S
C494 C497 1.387 1_554 S
H495 C491 0.950 . S
H496 C493 0.950 . S
C497 C488 1.390 . S
C497 H490 0.950 . S
C497 C494 1.387 1_556 S
C498 C499 1.387 . S
C498 H502 0.950 . S
C498 C507 1.390 . S
C499 C498 1.387 . S
C499 C501 1.387 1_556 S
H500 C507 0.950 . S
C501 C499 1.387 1_554 S
C501 C503 1.390 . S
C501 H505 0.950 . S
H502 C498 0.950 . S
C503 C501 1.390 . S
C503 C504 1.387 . S
C503 H506 0.950 . S
C504 C503 1.387 . S
C504 C507 1.387 1_554 S
H505 C501 0.950 . S
H506 C503 0.950 . S
C507 C498 1.390 . S
C507 H500 0.950 . S
C507 C504 1.387 1_556 S
C508 C509 1.387 . S
C508 H512 0.950 . S
C508 C517 1.390 1_455 S
C509 C508 1.387 . S
C509 C511 1.387 . S
H510 C517 0.950 . S
C511 C509 1.387 . S
C511 C513 1.390 1_455 S
C511 H515 0.950 . S
H512 C508 0.950 . S
C513 C511 1.390 1_655 S
C513 C514 1.387 . S
C513 H516 0.950 . S
C514 C513 1.387 . S
C514 C517 1.387 . S
H515 C511 0.950 . S
H516 C513 0.950 . S
C517 C508 1.390 1_655 S
C517 H510 0.950 . S
C517 C514 1.387 . S
C518 C519 1.387 . S
C518 H522 0.950 . S
C518 C527 1.390 . S
C519 C518 1.387 . S
C519 C521 1.387 . S
H520 C527 0.950 . S
C521 C519 1.387 . S
C521 C523 1.390 . S
C521 H525 0.950 . S
H522 C518 0.950 . S
C523 C521 1.390 . S
C523 C524 1.387 . S
C523 H526 0.950 . S
C524 C523 1.387 . S
C524 C527 1.387 . S
H525 C521 0.950 . S
H526 C523 0.950 . S
C527 C518 1.390 . S
C527 H520 0.950 . S
C527 C524 1.387 . S
C528 C529 1.387 . S
C528 H532 0.950 . S
C528 C537 1.390 . S
C529 C528 1.387 . S
C529 C531 1.387 . S
H530 C537 0.950 . S
C531 C529 1.387 . S
C531 C533 1.390 . S
C531 H535 0.950 . S
H532 C528 0.950 . S
C533 C531 1.390 . S
C533 C534 1.387 . S
C533 H536 0.950 . S
C534 C533 1.387 . S
C534 C537 1.387 . S
H535 C531 0.950 . S
H536 C533 0.950 . S
C537 C528 1.390 . S
C537 H530 0.950 . S
C537 C534 1.387 . S
C538 C539 1.387 . S
C538 H542 0.950 . S
C538 C547 1.390 1_645 S
C539 C538 1.387 . S
C539 C541 1.387 . S
H540 C547 0.950 . S
C541 C539 1.387 . S
C541 C543 1.390 1_645 S
C541 H545 0.950 . S
H542 C538 0.950 . S
C543 C541 1.390 1_465 S
C543 C544 1.387 . S
C543 H546 0.950 . S
C544 C543 1.387 . S
C544 C547 1.387 . S
H545 C541 0.950 . S
H546 C543 0.950 . S
C547 C538 1.390 1_465 S
C547 H540 0.950 . S
C547 C544 1.387 . S
C548 C549 1.387 . S
C548 H552 0.950 . S
C548 C557 1.390 . S
C549 C548 1.387 . S
C549 C551 1.387 . S
H550 C557 0.950 . S
C551 C549 1.387 . S
C551 C553 1.390 . S
C551 H555 0.950 . S
H552 C548 0.950 . S
C553 C551 1.390 . S
C553 C554 1.387 . S
C553 H556 0.950 . S
C554 C553 1.387 . S
C554 C557 1.387 . S
H555 C551 0.950 . S
H556 C553 0.950 . S
C557 C548 1.390 . S
C557 H550 0.950 . S
C557 C554 1.387 . S
C558 C559 1.387 . S
C558 H562 0.950 . S
C558 C567 1.390 1_565 S
C559 C558 1.387 . S
C559 C561 1.387 . S
H560 C567 0.950 . S
C561 C559 1.387 . S
C561 C563 1.390 1_565 S
C561 H565 0.950 . S
H562 C558 0.950 . S
C563 C561 1.390 1_545 S
C563 C564 1.387 . S
C563 H566 0.950 . S
C564 C563 1.387 . S
C564 C567 1.387 . S
H565 C561 0.950 . S
H566 C563 0.950 . S
C567 C558 1.390 1_545 S
C567 H560 0.950 . S
C567 C564 1.387 . S
C249 C0 1.582 1_545 S
C254 C49 1.623 . S
C259 C18 1.796 1_565 S
C264 C62 1.790 . S
C269 C104 1.622 . S
C274 C55 1.581 . S
C279 C73 1.798 . S
C284 C117 1.789 . S
C289 C93 1.581 . S
C294 C142 1.621 . S
C299 C155 1.790 . S
C304 C111 1.796 . S
C309 C148 1.586 . S
C314 C11 1.624 . S
C319 C166 1.796 . S
C324 C24 1.790 . S
C329 C173 1.623 . S
C334 C186 1.585 1_545 S
C339 C204 1.797 1_565 S
C344 C124 1.788 . S
C349 C228 1.625 . S
C354 C179 1.585 . S
C359 C241 1.790 . S
C364 C135 1.796 . S
C369 C217 1.585 . S
C374 C80 1.624 . S
C379 C31 1.790 . S
C384 C235 1.796 . S
C389 C197 1.621 . S
C394 C86 1.581 . S
C399 C210 1.790 . S
C404 C42 1.796 . S
C409 C10 0.962 . S
C414 C2 0.962 1_556 S
C419 C41 0.964 . S
C424 C33 0.964 . S
C429 C72 0.962 . S
C434 C64 0.962 . S
C439 C95 0.965 . S
C444 C103 0.962 . S
C449 C134 0.964 . S
C454 C126 0.964 . S
C459 C165 0.964 . S
C464 C157 0.964 . S
C469 C196 0.962 . S
C474 C188 0.962 . S
C479 C219 0.958 1_556 S
C484 C227 0.962 . S
C489 C244 1.462 . S
C494 C1 1.462 . S
C499 C27 1.462 . S
C504 C218 1.462 . S
C509 C58 1.465 . S
C514 C63 1.465 . S
C519 C213 1.465 . S
C524 C94 1.465 . S
C529 C120 1.465 . S
C534 C187 1.465 . S
C539 C156 1.463 . S
C544 C151 1.463 . S
C549 C182 1.462 . S
C554 C125 1.462 . S
C559 C89 1.465 . S
C564 C32 1.465 . S
