# Generated by pormake.
# Topology lcx, (8)-cn, num edge types: 1
# Building blocks:
#     Node 0, Type 0, BuildingBlock: OLANAS_clean_sbu_2, # of connection points: 8
#     Node 1, Type 0, BuildingBlock: OLANAS_clean_sbu_2, # of connection points: 8
#     Node 2, Type 0, BuildingBlock: OLANAS_clean_sbu_2, # of connection points: 8
#     Node 3, Type 0, BuildingBlock: OLANAS_clean_sbu_2, # of connection points: 8
#     Node 4, Type 0, BuildingBlock: OLANAS_clean_sbu_2, # of connection points: 8
#     Node 5, Type 0, BuildingBlock: OLANAS_clean_sbu_2, # of connection points: 8
#     Edge 6, Type (0, 0), None
#     Edge 7, Type (0, 0), None
#     Edge 8, Type (0, 0), None
#     Edge 9, Type (0, 0), None
#     Edge 10, Type (0, 0), None
#     Edge 11, Type (0, 0), None
#     Edge 12, Type (0, 0), None
#     Edge 13, Type (0, 0), None
#     Edge 14, Type (0, 0), None
#     Edge 15, Type (0, 0), None
#     Edge 16, Type (0, 0), None
#     Edge 17, Type (0, 0), None
#     Edge 18, Type (0, 0), None
#     Edge 19, Type (0, 0), None
#     Edge 20, Type (0, 0), None
#     Edge 21, Type (0, 0), None
#     Edge 22, Type (0, 0), None
#     Edge 23, Type (0, 0), None
#     Edge 24, Type (0, 0), None
#     Edge 25, Type (0, 0), None
#     Edge 26, Type (0, 0), None
#     Edge 27, Type (0, 0), None
#     Edge 28, Type (0, 0), None
#     Edge 29, Type (0, 0), None
# Relax obj value: 0.049
# Max RMSD: 0.139
# Mean RMSD: 0.138
data_MOF--net-lcx--node1-OLANAS_clean_sbu_2--edge1-none
_symmetry_space_group_name_H-M    P1
_symmetry_Int_Tables_number       1
_symmetry_cell_setting            triclinic
loop_
_symmetry_equiv_pos_as_xyz
'x, y, z'
_cell_length_a     18.865972
_cell_length_b     18.266223
_cell_length_c     17.779927
_cell_angle_alpha  90.250109
_cell_angle_beta   89.421927
_cell_angle_gamma 89.751598
loop_
_atom_site_label
_atom_site_type_symbol
_atom_site_fract_x
_atom_site_fract_y
_atom_site_fract_z
_atom_type_partial_charge
C0 C 0.89187 0.3313 0.48048 0.0
O1 O 0.82954 0.36157 0.46924 0.0
C2 C 0.95852 0.37396 0.47502 0.0
C3 C 0.9687 0.4442 0.44706 0.0
C4 C 0.03871 0.47173 0.44221 0.0
C5 C 0.09716 0.42814 0.46098 0.0
C6 C 0.0835 0.35764 0.48604 0.0
N7 N 0.01595 0.33596 0.49324 0.0
N8 N 0.00516 0.22569 0.39064 0.0
Co9 Co 0.0023 0.23821 0.49998 0.0
N10 N -0.00854 0.13934 0.50588 0.0
C11 C 0.03331 0.0353 0.44172 0.0
C12 C 0.04959 0.00473 0.51216 0.0
C13 C 0.03606 0.04387 0.57956 0.0
C14 C 0.00565 0.11313 0.57436 0.0
C15 C 0.00403 0.10487 0.44032 0.0
N16 N -0.00022 0.23975 0.61029 0.0
N17 N 0.89922 0.25799 0.49524 0.0
N18 N 0.10671 0.23048 0.50193 0.0
C19 C 0.00412 0.153 0.37465 0.0
O20 O 0.00771 0.12783 0.30529 0.0
C21 C 0.13512 0.29836 0.49436 0.0
O22 O 0.20385 0.30888 0.48803 0.0
C23 C 0.151 0.16572 0.50053 0.0
C24 C 0.20787 0.06555 0.4303 0.0
C25 C 0.16939 0.13163 0.43086 0.0
C26 C 0.17558 0.1355 0.56899 0.0
C27 C 0.21547 0.07035 0.56786 0.0
C28 C 0.23182 0.03851 0.49856 0.0
C29 C 0.00409 0.16906 0.63409 0.0
O30 O 0.0093 0.15217 0.70567 0.0
C31 C -0.00453 0.3 0.6637 0.0
C32 C 0.05771 0.33364 0.69136 0.0
C33 C 0.05463 0.37891 0.75619 0.0
C34 C -0.0103 0.38394 0.79575 0.0
C35 C 0.92549 0.36449 0.76078 0.0
C36 C 0.92923 0.32 0.69593 0.0
C37 C 0.83759 0.20932 0.49995 0.0
C38 C 0.80675 0.19145 0.57046 0.0
C39 C 0.73956 0.15689 0.57554 0.0
C40 C 0.70185 0.14538 0.5086 0.0
C41 C 0.73563 0.14922 0.4378 0.0
C42 C 0.80336 0.18308 0.43415 0.0
C43 C -0.00087 0.28032 0.3326 0.0
C44 C -0.01492 0.38049 0.21736 0.0
C45 C 0.92343 0.35102 0.24887 0.0
C46 C 0.9313 0.29891 0.30537 0.0
C47 C 0.05988 0.31756 0.30483 0.0
C48 C 0.05305 0.37045 0.24771 0.0
H49 H 0.92397 0.47942 0.43638 0.0
H50 H 0.04746 0.5278 0.42535 0.0
H51 H 0.15071 0.44817 0.45393 0.0
H52 H 0.04332 0.00615 0.38966 0.0
H53 H 0.06875 0.94913 0.51447 0.0
H54 H 0.0493 0.02118 0.63374 0.0
H55 H 0.15024 0.15389 0.37854 0.0
H56 H 0.16012 0.16009 0.62222 0.0
H57 H 0.25761 0.98597 0.49819 0.0
H58 H 0.10758 0.326 0.66164 0.0
H59 H -0.01311 0.42082 0.84383 0.0
H60 H 0.88084 0.30417 0.66853 0.0
H61 H 0.83668 0.20019 0.62111 0.0
H62 H 0.65229 0.11661 0.51219 0.0
H63 H 0.83097 0.18431 0.38083 0.0
H64 H -0.02337 0.42728 0.18353 0.0
H65 H 0.88451 0.27751 0.33207 0.0
H66 H 0.1108 0.30889 0.3309 0.0
C67 C 0.31266 0.52006 0.87517 0.0
O68 O 0.33447 0.52234 0.80478 0.0
C69 C 0.3612 0.52108 0.93934 0.0
C70 C 0.4272 0.55381 0.93891 0.0
C71 C 0.45943 0.56776 0.00857 0.0
C72 C 0.42482 0.55049 0.07723 0.0
C73 C 0.357 0.5215 0.0741 0.0
N74 N 0.3297 0.50809 0.00615 0.0
N75 N 0.21049 0.42306 0.0082 0.0
Co76 Co 0.23534 0.52659 0.00257 0.0
N77 N 0.14293 0.5492 0.99531 0.0
C78 C 0.04421 0.51653 0.05776 0.0
C79 C 0.01834 0.58952 0.05281 0.0
C80 C 0.0595 0.64296 0.01898 0.0
C81 C 0.12641 0.62117 0.99611 0.0
C82 C 0.10229 0.49478 0.0169 0.0
N83 N 0.24977 0.63339 0.99871 0.0
N84 N 0.24307 0.52014 0.89452 0.0
N85 N 0.23492 0.5299 0.11381 0.0
C86 C 0.13886 0.42223 0.01913 0.0
O87 O 0.10449 0.36078 0.03017 0.0
C88 C 0.30385 0.52525 0.13556 0.0
O89 O 0.32188 0.52625 0.2068 0.0
C90 C 0.17629 0.51947 0.16733 0.0
C91 C 0.10005 0.4372 0.24305 0.0
C92 C 0.15569 0.44755 0.1906 0.0
C93 C 0.13628 0.58048 0.19498 0.0
C94 C 0.08113 0.56966 0.24843 0.0
C95 C 0.06983 0.49924 0.27535 0.0
C96 C 0.18708 0.66874 0.99336 0.0
O97 O 0.18171 0.74061 0.99496 0.0
C98 C 0.31363 0.67452 0.00468 0.0
C99 C 0.34232 0.69116 0.07611 0.0
C100 C 0.4091 0.72409 0.08 0.0
C101 C 0.4406 0.74778 0.0134 0.0
C102 C 0.41207 0.73406 0.94283 0.0
C103 C 0.34708 0.69877 0.93827 0.0
C104 C 0.18527 0.51582 0.8421 0.0
C105 C 0.14902 0.58048 0.82114 0.0
C106 C 0.0914 0.5762 0.77233 0.0
C107 C 0.07811 0.50908 0.73781 0.0
C108 C 0.10343 0.44315 0.76602 0.0
C109 C 0.15777 0.44681 0.81934 0.0
C110 C 0.25426 0.3565 0.00635 0.0
C111 C 0.31531 0.21558 0.001 0.0
C112 C 0.30787 0.25471 0.93322 0.0
C113 C 0.27506 0.32451 0.93705 0.0
C114 C 0.27671 0.32133 0.07328 0.0
C115 C 0.30922 0.25097 0.07157 0.0
H116 H 0.45298 0.5678 0.88635 0.0
H117 H 0.51302 0.58728 0.00837 0.0
H118 H 0.44875 0.56192 0.13094 0.0
H119 H 0.02879 0.48158 0.10162 0.0
H120 H 0.97101 0.60765 0.08149 0.0
H121 H 0.04422 0.70011 0.02214 0.0
H122 H 0.17886 0.4 0.16473 0.0
H123 H 0.14561 0.6345 0.17223 0.0
H124 H 0.02279 0.49104 0.30827 0.0
H125 H 0.31585 0.67347 0.12706 0.0
H126 H 0.49197 0.77255 0.01618 0.0
H127 H 0.32519 0.6852 0.88388 0.0
H128 H 0.16336 0.63274 0.84513 0.0
H129 H 0.03611 0.50654 0.69975 0.0
H130 H 0.17525 0.39694 0.84499 0.0
H131 H 0.34221 0.16388 0.99874 0.0
H132 H 0.2729 0.35678 0.8866 0.0
H133 H 0.27519 0.35089 0.12584 0.0
C134 C 0.05697 0.65109 0.53579 0.0
O135 O 0.11976 0.62112 0.54497 0.0
C136 C -0.00933 0.60849 0.54526 0.0
C137 C -0.01792 0.53873 0.57477 0.0
C138 C 0.91263 0.51033 0.58233 0.0
C139 C 0.85309 0.55353 0.5661 0.0
C140 C 0.86527 0.62419 0.54041 0.0
N141 N 0.93235 0.64601 0.52949 0.0
N142 N 0.94213 0.74146 0.4114 0.0
Co143 Co 0.94553 0.74362 0.52147 0.0
N144 N 0.95593 0.84237 0.51451 0.0
C145 C 0.911 0.93796 0.44131 0.0
C146 C 0.8983 0.97716 0.50877 0.0
C147 C 0.91493 0.94648 0.57913 0.0
C148 C 0.94473 0.87704 0.58022 0.0
C149 C 0.94033 0.86832 0.44628 0.0
N150 N 0.94839 0.75643 0.631 0.0
N151 N 0.04894 0.72416 0.52037 0.0
N152 N 0.84104 0.7513 0.52467 0.0
C153 C 0.93893 0.812 0.38708 0.0
O154 O 0.93229 0.82846 0.31554 0.0
C155 C 0.81313 0.68341 0.53432 0.0
O156 O 0.74466 0.6727 0.54311 0.0
C157 C 0.79658 0.81606 0.52382 0.0
C158 C 0.7318 0.90996 0.45378 0.0
C159 C 0.77149 0.84445 0.45448 0.0
C160 C 0.77914 0.85249 0.59238 0.0
C161 C 0.7412 0.91879 0.59108 0.0
C162 C 0.71653 0.94391 0.52235 0.0
C163 C 0.94758 0.82932 0.64631 0.0
O164 O 0.94552 0.85498 0.71553 0.0
C165 C 0.95533 0.70215 0.68973 0.0
C166 C 0.89472 0.66863 0.72158 0.0
C167 C 0.90169 0.61743 0.78029 0.0
C168 C 0.96942 0.60713 0.8118 0.0
C169 C 0.03081 0.62942 0.77261 0.0
C170 C 0.02319 0.67982 0.71386 0.0
C171 C 0.1104 0.77318 0.51537 0.0
C172 C 0.14554 0.79774 0.58116 0.0
C173 C 0.21314 0.83169 0.5773 0.0
C174 C 0.24636 0.83688 0.50629 0.0
C175 C 0.20817 0.82669 0.43943 0.0
C176 C 0.14062 0.79252 0.44475 0.0
C177 C 0.94689 0.68095 0.35854 0.0
C178 C 0.95449 0.59302 0.23084 0.0
C179 C 0.01814 0.61907 0.26126 0.0
C180 C 0.01333 0.66427 0.32501 0.0
C181 C 0.88504 0.64427 0.33252 0.0
C182 C 0.88885 0.59768 0.26843 0.0
H183 H 0.0277 0.50454 0.58456 0.0
H184 H 0.90516 0.45435 0.60018 0.0
H185 H 0.79999 0.5332 0.57576 0.0
H186 H 0.89756 0.96069 0.38721 0.0
H187 H 0.87945 0.03287 0.50633 0.0
H188 H 0.90515 0.97564 0.63124 0.0
H189 H 0.78631 0.81816 0.40192 0.0
H190 H 0.79894 0.8319 0.64517 0.0
H191 H 0.69063 -0.00359 0.52155 0.0
H192 H 0.84328 0.67812 0.69692 0.0
H193 H -0.02474 0.56519 0.85449 0.0
H194 H 0.06983 0.69701 0.68358 0.0
H195 H 0.11865 0.79486 0.63488 0.0
H196 H 0.29589 0.86573 0.50292 0.0
H197 H 0.11003 0.7853 0.39433 0.0
H198 H 0.95993 0.55135 0.18941 0.0
H199 H 0.06134 0.68364 0.35056 0.0
H200 H 0.83527 0.65097 0.36263 0.0
C201 C 0.63785 0.46655 0.87402 0.0
O202 O 0.61708 0.46831 0.80372 0.0
C203 C 0.58818 0.46427 0.93849 0.0
C204 C 0.52158 0.43284 0.93708 0.0
C205 C 0.48905 0.41466 0.00634 0.0
C206 C 0.52347 0.42745 0.0753 0.0
C207 C 0.59093 0.45738 0.07304 0.0
N208 N 0.61893 0.47402 0.00564 0.0
N209 N 0.73778 0.55981 0.00788 0.0
Co210 Co 0.71339 0.45608 0.00063 0.0
N211 N 0.80582 0.43428 0.99234 0.0
C212 C 0.90528 0.46725 0.05141 0.0
C213 C 0.93199 0.39484 0.04281 0.0
C214 C 0.89065 0.34129 0.00952 0.0
C215 C 0.82305 0.3626 0.99011 0.0
C216 C 0.84603 0.48871 0.01434 0.0
N217 N 0.69964 0.34921 0.99455 0.0
N218 N 0.70718 0.4632 0.89291 0.0
N219 N 0.71237 0.45172 0.11169 0.0
C220 C 0.80903 0.56068 0.02008 0.0
O221 O 0.84294 0.62179 0.03429 0.0
C222 C 0.64313 0.45257 0.13398 0.0
O223 O 0.62416 0.44765 0.20514 0.0
C224 C 0.77004 0.45818 0.16578 0.0
C225 C 0.84049 0.53238 0.25549 0.0
C226 C 0.78996 0.52757 0.19713 0.0
C227 C 0.80824 0.39502 0.18798 0.0
C228 C 0.85929 0.39982 0.24522 0.0
C229 C 0.8669 0.46652 0.28327 0.0
C230 C 0.7627 0.31453 0.98705 0.0
O231 O 0.76857 0.24273 0.98469 0.0
C232 C 0.63549 0.30797 0.99505 0.0
C233 C 0.60543 0.28323 0.06381 0.0
C234 C 0.53955 0.24792 0.06315 0.0
C235 C 0.50775 0.23542 0.99395 0.0
C236 C 0.53621 0.26 0.92618 0.0
C237 C 0.60279 0.29239 0.92603 0.0
C238 C 0.76651 0.47192 0.84177 0.0
C239 C 0.80462 0.40934 0.81522 0.0
C240 C 0.86628 0.41876 0.7712 0.0
C241 C 0.88409 0.48934 0.75005 0.0
C242 C 0.85487 0.55145 0.78278 0.0
C243 C 0.79517 0.54276 0.82907 0.0
C244 C 0.6937 0.62605 0.01001 0.0
C245 C 0.63285 0.76701 0.01484 0.0
C246 C 0.6407 0.73201 0.94427 0.0
C247 C 0.67219 0.66131 0.94303 0.0
C248 C 0.67239 0.65808 0.07932 0.0
C249 C 0.63877 0.72759 0.08265 0.0
H250 H 0.49603 0.42239 0.88401 0.0
H251 H 0.4354 0.39528 0.00662 0.0
H252 H 0.49926 0.4125 0.12839 0.0
H253 H 0.91954 0.50116 0.09659 0.0
H254 H -0.02013 0.37695 0.06913 0.0
H255 H 0.90668 0.2843 0.0103 0.0
H256 H 0.76972 0.57752 0.17397 0.0
H257 H 0.80059 0.3437 0.15855 0.0
H258 H 0.9093 0.47025 0.32182 0.0
H259 H 0.63054 0.29593 0.11673 0.0
H260 H 0.45631 0.21051 0.99333 0.0
H261 H 0.62608 0.31133 0.87375 0.0
H262 H 0.78871 0.35497 0.83216 0.0
H263 H 0.93118 0.4961 0.71837 0.0
H264 H 0.7747 0.58995 0.85804 0.0
H265 H 0.60576 0.81862 0.0165 0.0
H266 H 0.6738 0.63172 0.89047 0.0
H267 H 0.67504 0.62604 0.12996 0.0
C268 C 0.4217 0.10683 0.33095 0.0
O269 O 0.3969 0.17246 0.3473 0.0
C270 C 0.42854 0.04946 0.38822 0.0
C271 C 0.39395 0.0469 0.45774 0.0
C272 C 0.39327 0.97946 0.49635 0.0
C273 C 0.42501 0.91637 0.46501 0.0
C274 C 0.46005 0.92326 0.39625 0.0
N275 N 0.46044 -0.01133 0.36266 0.0
N276 N 0.57056 0.01331 0.2601 0.0
Co277 Co 0.46988 0.98358 0.26069 0.0
N278 N 0.47783 0.97678 0.15867 0.0
C279 C 0.55896 0.94959 0.06178 0.0
C280 C 0.50287 0.91582 0.02292 0.0
C281 C 0.43413 0.9125 0.05477 0.0
C282 C 0.42301 0.94455 0.12503 0.0
C283 C 0.54405 0.98063 0.13194 0.0
N284 N 0.37076 0.95133 0.24842 0.0
N285 N 0.43805 0.086 0.2589 0.0
N286 N 0.49921 0.88153 0.27489 0.0
C287 C 0.59555 0.00538 0.18792 0.0
O288 O 0.66323 0.01227 0.1709 0.0
C289 C 0.4862 0.86349 0.3481 0.0
O290 O 0.49089 0.79569 0.37226 0.0
C291 C 0.50787 0.82494 0.2186 0.0
C292 C 0.58259 0.7421 0.14223 0.0
C293 C 0.57511 0.8072 0.18559 0.0
C294 C 0.44783 0.78481 0.19706 0.0
C295 C 0.45503 0.726 0.1477 0.0
C296 C 0.52346 0.6967 0.13769 0.0
C297 C 0.36054 0.93583 0.1742 0.0
O298 O 0.29975 0.91134 0.14897 0.0
C299 C 0.31212 0.94959 0.30215 0.0
C300 C 0.28951 0.88287 0.33611 0.0
C301 C 0.22449 0.8803 0.37708 0.0
C302 C 0.18335 0.94401 0.3797 0.0
C303 C 0.21384 0.01279 0.36579 0.0
C304 C 0.27418 0.01457 0.31916 0.0
C305 C 0.43422 0.1378 0.19755 0.0
C306 C 0.36763 0.16341 0.16969 0.0
C307 C 0.3642 0.23052 0.12965 0.0
C308 C 0.4262 0.27149 0.12569 0.0
C309 C 0.49253 0.23654 0.12988 0.0
C310 C 0.49679 0.17164 0.17145 0.0
C311 C 0.62164 0.01787 0.32055 0.0
C312 C 0.75327 0.02526 0.38908 0.0
C313 C 0.715 0.09035 0.38207 0.0
C314 C 0.64902 0.08685 0.34435 0.0
C315 C 0.65488 0.95317 0.34684 0.0
C316 C 0.719 0.95719 0.3865 0.0
H317 H 0.36723 0.09462 0.48078 0.0
H318 H 0.36789 0.9758 0.55043 0.0
H319 H 0.42218 0.86425 0.4936 0.0
H320 H 0.61208 0.95006 0.03824 0.0
H321 H 0.51256 0.89267 0.96791 0.0
H322 H 0.39129 0.88594 0.02545 0.0
H323 H 0.62008 0.84285 0.19363 0.0
H324 H 0.39539 0.80211 0.21457 0.0
H325 H 0.52996 0.64798 0.10537 0.0
H326 H 0.32249 0.83439 0.33173 0.0
H327 H 0.13734 0.94176 0.41492 0.0
H328 H 0.29331 0.06679 0.29989 0.0
H329 H 0.31991 0.13205 0.17944 0.0
H330 H 0.42271 0.32237 0.09686 0.0
H331 H 0.54801 0.14745 0.18231 0.0
H332 H 0.80192 0.0289 0.41876 0.0
H333 H 0.61969 0.13663 0.33316 0.0
H334 H 0.63039 0.90049 0.33812 0.0
C335 C 0.53091 0.87758 0.68343 0.0
O336 O 0.55707 0.81252 0.66695 0.0
C337 C 0.52156 0.93427 0.62613 0.0
C338 C 0.55501 0.93742 0.5561 0.0
C339 C 0.55475 0.00509 0.518 0.0
C340 C 0.52213 0.06748 0.54981 0.0
C341 C 0.48676 0.05941 0.61827 0.0
N342 N 0.48832 -0.00586 0.65196 0.0
N343 N 0.57628 0.03568 0.76648 0.0
Co344 Co 0.47876 -0.00077 0.75403 0.0
N345 N 0.47065 0.00609 0.85615 0.0
C346 C 0.51269 0.07082 0.9606 0.0
C347 C 0.44384 0.06645 0.99188 0.0
C348 C 0.38859 0.03162 0.95265 0.0
C349 C 0.40464 0.00015 0.88291 0.0
C350 C 0.52441 0.04003 0.88992 0.0
N351 N 0.37946 0.96513 0.75509 0.0
N352 N 0.51525 0.89841 0.75564 0.0
N353 N 0.44494 0.09982 0.73914 0.0
C354 C 0.5862 0.0514 0.84069 0.0
O355 O 0.64637 0.07749 0.86594 0.0
C356 C 0.45785 0.11805 0.6659 0.0
O357 O 0.45061 0.18548 0.64129 0.0
C358 C 0.43611 0.15692 0.79468 0.0
C359 C 0.48865 0.25842 0.86062 0.0
C360 C 0.4955 0.19931 0.8121 0.0
C361 C 0.36957 0.17383 0.82984 0.0
C362 C 0.3622 0.23987 0.872 0.0
C363 C 0.42044 0.28675 0.87339 0.0
C364 C 0.35423 0.97274 0.82726 0.0
O365 O 0.28682 0.96358 0.84439 0.0
C366 C 0.32809 0.96118 0.69511 0.0
C367 C 0.29329 0.02595 0.67191 0.0
C368 C 0.22855 0.02212 0.6339 0.0
C369 C 0.19483 0.95386 0.63042 0.0
C370 C 0.23422 0.88915 0.6342 0.0
C371 C 0.30114 0.8925 0.67003 0.0
C372 C 0.51866 0.84597 0.81607 0.0
C373 C 0.45631 0.80991 0.83772 0.0
C374 C 0.46049 0.74485 0.87824 0.0
C375 C 0.52669 0.71058 0.88494 0.0
C376 C 0.5879 0.7529 0.88444 0.0
C377 C 0.5847 0.82104 0.84601 0.0
C378 C 0.6354 0.0365 0.71378 0.0
C379 C 0.76531 0.04157 0.63897 0.0
C380 C 0.73534 0.97283 0.65433 0.0
C381 C 0.67464 0.97173 0.70018 0.0
C382 C 0.65753 0.10238 0.67824 0.0
C383 C 0.72321 0.10472 0.63882 0.0
H384 H 0.58208 0.89013 0.53259 0.0
H385 H 0.58029 0.00958 0.46414 0.0
H386 H 0.52415 0.11981 0.52155 0.0
H387 H 0.55504 0.09766 0.99041 0.0
H388 H 0.43347 0.0895 0.04677 0.0
H389 H 0.33536 0.03017 0.97585 0.0
H390 H 0.5477 0.18295 0.79281 0.0
H391 H 0.32518 0.13692 0.82447 0.0
H392 H 0.41502 0.33569 0.90616 0.0
H393 H 0.31678 0.07884 0.68197 0.0
H394 H 0.14514 0.95071 0.60261 0.0
H395 H 0.33138 0.84285 0.67898 0.0
H396 H 0.40501 0.83276 0.82469 0.0
H397 H 0.52918 0.65926 0.91375 0.0
H398 H 0.63206 0.85363 0.83923 0.0
H399 H 0.81233 0.04344 0.6053 0.0
H400 H 0.6563 0.91996 0.7214 0.0
H401 H 0.62378 0.15041 0.68032 0.0
loop_
_geom_bond_atom_site_label_1
_geom_bond_atom_site_label_2
_geom_bond_distance
_geom_bond_site_symmetry_2
_ccdc_geom_bond_type
C0 O1 1.201 . S
C0 C2 1.493 . S
C0 N17 1.318 . S
O1 C0 1.201 . S
C2 C0 1.493 . S
C2 C3 1.381 . S
C2 N7 1.335 1_655 S
C3 C2 1.381 . S
C3 C4 1.411 1_655 S
C3 H49 0.931 . S
C4 C3 1.411 1_455 S
C4 C5 1.384 . S
C4 H50 0.930 . S
C5 C4 1.384 . S
C5 C6 1.376 . S
C5 H51 0.929 . S
C6 C5 1.376 . S
C6 N7 1.330 . S
C6 C21 1.484 . S
N7 C2 1.335 1_455 S
N7 C6 1.330 . S
N7 Co9 1.859 . S
N8 Co9 1.962 . S
N8 C19 1.318 . S
N8 C43 1.421 . S
Co9 N7 1.859 . S
Co9 N8 1.962 . S
Co9 N10 1.859 . S
Co9 N16 1.958 . S
Co9 N17 1.962 1_455 S
Co9 N18 1.958 . S
N10 Co9 1.859 . S
N10 C14 1.330 . S
N10 C15 1.335 . S
C11 C12 1.413 . S
C11 C15 1.381 . S
C11 H52 0.931 . S
C12 C11 1.413 . S
C12 C13 1.386 . S
C12 H53 0.926 1_545 S
C13 C12 1.386 . S
C13 C14 1.376 . S
C13 H54 0.929 . S
C14 N10 1.330 . S
C14 C13 1.376 . S
C14 C29 1.484 . S
C15 N10 1.335 . S
C15 C11 1.381 . S
C15 C19 1.493 . S
N16 Co9 1.958 . S
N16 C29 1.344 . S
N16 C31 1.425 . S
N17 C0 1.318 . S
N17 Co9 1.962 1_655 S
N17 C37 1.421 . S
N18 Co9 1.958 . S
N18 C21 1.344 . S
N18 C23 1.425 . S
C19 N8 1.318 . S
C19 C15 1.493 . S
C19 O20 1.201 . S
O20 C19 1.201 . S
C21 C6 1.484 . S
C21 N18 1.344 . S
C21 O22 1.268 . S
O22 C21 1.268 . S
C23 N18 1.425 . S
C23 C25 1.392 . S
C23 C26 1.368 . S
C24 C25 1.382 . S
C24 C28 1.386 . S
C25 C23 1.392 . S
C25 C24 1.382 . S
C25 H55 0.928 . S
C26 C23 1.368 . S
C26 C27 1.367 . S
C26 H56 0.930 . S
C27 C26 1.367 . S
C27 C28 1.369 . S
C28 C24 1.386 . S
C28 C27 1.369 . S
C28 H57 0.930 . S
C29 C14 1.484 . S
C29 N16 1.344 . S
C29 O30 1.268 . S
O30 C29 1.268 . S
C31 N16 1.425 . S
C31 C32 1.368 . S
C31 C36 1.392 1_455 S
C32 C31 1.368 . S
C32 C33 1.367 . S
C32 H58 0.930 . S
C33 C32 1.367 . S
C33 C34 1.369 . S
C34 C33 1.369 . S
C34 C35 1.386 1_455 S
C34 H59 0.930 1_455 S
C35 C34 1.386 1_655 S
C35 C36 1.382 . S
C36 C31 1.392 1_655 S
C36 C35 1.382 . S
C36 H60 0.928 . S
C37 N17 1.421 . S
C37 C38 1.371 . S
C37 C42 1.385 . S
C38 C37 1.371 . S
C38 C39 1.367 . S
C38 H61 0.931 . S
C39 C38 1.367 . S
C39 C40 1.401 . S
C40 C39 1.401 . S
C40 C41 1.385 . S
C40 H62 0.930 . S
C41 C40 1.385 . S
C41 C42 1.402 . S
C42 C37 1.385 . S
C42 C41 1.402 . S
C42 H63 0.929 . S
C43 N8 1.421 . S
C43 C46 1.385 1_455 S
C43 C47 1.371 . S
C44 C45 1.385 1_455 S
C44 C48 1.401 . S
C44 H64 0.930 . S
C45 C44 1.385 1_655 S
C45 C46 1.402 . S
C46 C43 1.385 1_655 S
C46 C45 1.402 . S
C46 H65 0.929 . S
C47 C43 1.371 . S
C47 C48 1.367 . S
C47 H66 0.931 . S
C48 C44 1.401 . S
C48 C47 1.367 . S
H49 C3 0.931 . S
H50 C4 0.930 . S
H51 C5 0.929 . S
H52 C11 0.931 . S
H53 C12 0.926 1_565 S
H54 C13 0.929 . S
H55 C25 0.928 . S
H56 C26 0.930 . S
H57 C28 0.930 . S
H58 C32 0.930 . S
H59 C34 0.930 1_655 S
H60 C36 0.928 . S
H61 C38 0.931 . S
H62 C40 0.930 . S
H63 C42 0.929 . S
H64 C44 0.930 . S
H65 C46 0.929 . S
H66 C47 0.931 . S
C67 O68 1.201 . S
C67 C69 1.493 . S
C67 N84 1.318 . S
O68 C67 1.201 . S
C69 C67 1.493 . S
C69 C70 1.381 . S
C69 N74 1.335 1_556 S
C70 C69 1.381 . S
C70 C71 1.411 1_556 S
C70 H116 0.931 . S
C71 C70 1.411 1_554 S
C71 C72 1.384 . S
C71 H117 0.930 . S
C72 C71 1.384 . S
C72 C73 1.376 . S
C72 H118 0.929 . S
C73 C72 1.376 . S
C73 N74 1.330 . S
C73 C88 1.484 . S
N74 C69 1.335 1_554 S
N74 C73 1.330 . S
N74 Co76 1.859 . S
N75 Co76 1.962 . S
N75 C86 1.318 . S
N75 C110 1.421 . S
Co76 N74 1.859 . S
Co76 N75 1.962 . S
Co76 N77 1.859 . S
Co76 N83 1.958 . S
Co76 N84 1.962 1_554 S
Co76 N85 1.958 . S
N77 Co76 1.859 . S
N77 C81 1.330 . S
N77 C82 1.335 . S
C78 C79 1.411 . S
C78 C82 1.381 . S
C78 H119 0.931 . S
C79 C78 1.411 . S
C79 C80 1.384 . S
C79 H120 0.930 1_455 S
C80 C79 1.384 . S
C80 C81 1.376 . S
C80 H121 0.929 . S
C81 N77 1.330 . S
C81 C80 1.376 . S
C81 C96 1.484 . S
C82 N77 1.335 . S
C82 C78 1.381 . S
C82 C86 1.493 . S
N83 Co76 1.958 . S
N83 C96 1.344 . S
N83 C98 1.425 . S
N84 C67 1.318 . S
N84 Co76 1.962 1_556 S
N84 C104 1.421 . S
N85 Co76 1.958 . S
N85 C88 1.344 . S
N85 C90 1.425 . S
C86 N75 1.318 . S
C86 C82 1.493 . S
C86 O87 1.201 . S
O87 C86 1.201 . S
C88 C73 1.484 . S
C88 N85 1.344 . S
C88 O89 1.268 . S
O89 C88 1.268 . S
C90 N85 1.425 . S
C90 C92 1.392 . S
C90 C93 1.368 . S
C91 C92 1.382 . S
C91 C95 1.386 . S
C92 C90 1.392 . S
C92 C91 1.382 . S
C92 H122 0.928 . S
C93 C90 1.368 . S
C93 C94 1.367 . S
C93 H123 0.930 . S
C94 C93 1.367 . S
C94 C95 1.369 . S
C95 C91 1.386 . S
C95 C94 1.369 . S
C95 H124 0.930 . S
C96 C81 1.484 . S
C96 N83 1.344 . S
C96 O97 1.268 . S
O97 C96 1.268 . S
C98 N83 1.425 . S
C98 C99 1.368 . S
C98 C103 1.392 1_554 S
C99 C98 1.368 . S
C99 C100 1.367 . S
C99 H125 0.930 . S
C100 C99 1.367 . S
C100 C101 1.369 1_554 S
C101 C100 1.369 1_556 S
C101 C102 1.386 . S
C101 H126 0.930 . S
C102 C101 1.386 . S
C102 C103 1.382 . S
C103 C98 1.392 1_556 S
C103 C102 1.382 . S
C103 H127 0.928 . S
C104 N84 1.421 . S
C104 C105 1.371 . S
C104 C109 1.385 . S
C105 C104 1.371 . S
C105 C106 1.367 . S
C105 H128 0.931 . S
C106 C105 1.367 . S
C106 C107 1.401 . S
C107 C106 1.401 . S
C107 C108 1.385 . S
C107 H129 0.930 . S
C108 C107 1.385 . S
C108 C109 1.402 . S
C109 C104 1.385 . S
C109 C108 1.402 . S
C109 H130 0.929 . S
C110 N75 1.421 . S
C110 C113 1.385 1_554 S
C110 C114 1.371 . S
C111 C112 1.385 1_554 S
C111 C115 1.401 . S
C111 H131 0.930 . S
C112 C111 1.385 1_556 S
C112 C113 1.402 . S
C113 C110 1.385 1_556 S
C113 C112 1.402 . S
C113 H132 0.929 . S
C114 C110 1.371 . S
C114 C115 1.367 . S
C114 H133 0.931 . S
C115 C111 1.401 . S
C115 C114 1.367 . S
H116 C70 0.931 . S
H117 C71 0.930 . S
H118 C72 0.929 . S
H119 C78 0.931 . S
H120 C79 0.930 1_655 S
H121 C80 0.929 . S
H122 C92 0.928 . S
H123 C93 0.930 . S
H124 C95 0.930 . S
H125 C99 0.930 . S
H126 C101 0.930 . S
H127 C103 0.928 . S
H128 C105 0.931 . S
H129 C107 0.930 . S
H130 C109 0.929 . S
H131 C111 0.930 . S
H132 C113 0.929 . S
H133 C114 0.931 . S
C134 O135 1.201 . S
C134 C136 1.493 . S
C134 N151 1.318 . S
O135 C134 1.201 . S
C136 C134 1.493 . S
C136 C137 1.381 . S
C136 N141 1.335 1_455 S
C137 C136 1.381 . S
C137 C138 1.411 1_455 S
C137 H183 0.931 . S
C138 C137 1.411 1_655 S
C138 C139 1.384 . S
C138 H184 0.930 . S
C139 C138 1.384 . S
C139 C140 1.376 . S
C139 H185 0.929 . S
C140 C139 1.376 . S
C140 N141 1.330 . S
C140 C155 1.484 . S
N141 C136 1.335 1_655 S
N141 C140 1.330 . S
N141 Co143 1.859 . S
N142 Co143 1.962 . S
N142 C153 1.318 . S
N142 C177 1.421 . S
Co143 N141 1.859 . S
Co143 N142 1.962 . S
Co143 N144 1.859 . S
Co143 N150 1.958 . S
Co143 N151 1.962 1_655 S
Co143 N152 1.958 . S
N144 Co143 1.859 . S
N144 C148 1.330 . S
N144 C149 1.335 . S
C145 C146 1.411 1_565 S
C145 C149 1.381 . S
C145 H186 0.931 . S
C146 C145 1.411 1_545 S
C146 C147 1.384 1_545 S
C146 H187 0.930 . S
C147 C146 1.384 1_565 S
C147 C148 1.376 . S
C147 H188 0.929 . S
C148 N144 1.330 . S
C148 C147 1.376 . S
C148 C163 1.484 . S
C149 N144 1.335 . S
C149 C145 1.381 . S
C149 C153 1.493 . S
N150 Co143 1.958 . S
N150 C163 1.344 . S
N150 C165 1.425 . S
N151 C134 1.318 . S
N151 Co143 1.962 1_455 S
N151 C171 1.421 . S
N152 Co143 1.958 . S
N152 C155 1.344 . S
N152 C157 1.425 . S
C153 N142 1.318 . S
C153 C149 1.493 . S
C153 O154 1.201 . S
O154 C153 1.201 . S
C155 C140 1.484 . S
C155 N152 1.344 . S
C155 O156 1.268 . S
O156 C155 1.268 . S
C157 N152 1.425 . S
C157 C159 1.392 . S
C157 C160 1.368 . S
C158 C159 1.382 . S
C158 C162 1.386 . S
C159 C157 1.392 . S
C159 C158 1.382 . S
C159 H189 0.928 . S
C160 C157 1.368 . S
C160 C161 1.367 . S
C160 H190 0.930 . S
C161 C160 1.367 . S
C161 C162 1.369 . S
C162 C158 1.386 . S
C162 C161 1.369 . S
C162 H191 0.930 . S
C163 C148 1.484 . S
C163 N150 1.344 . S
C163 O164 1.268 . S
O164 C163 1.268 . S
C165 N150 1.425 . S
C165 C166 1.368 . S
C165 C170 1.392 1_655 S
C166 C165 1.368 . S
C166 C167 1.367 . S
C166 H192 0.930 . S
C167 C166 1.367 . S
C167 C168 1.369 1_655 S
C168 C167 1.369 1_455 S
C168 C169 1.386 . S
C168 H193 0.930 . S
C169 C168 1.386 . S
C169 C170 1.382 . S
C170 C165 1.392 1_455 S
C170 C169 1.382 . S
C170 H194 0.928 . S
C171 N151 1.421 . S
C171 C172 1.371 . S
C171 C176 1.385 . S
C172 C171 1.371 . S
C172 C173 1.367 . S
C172 H195 0.931 . S
C173 C172 1.367 . S
C173 C174 1.401 . S
C174 C173 1.401 . S
C174 C175 1.385 . S
C174 H196 0.930 . S
C175 C174 1.385 . S
C175 C176 1.402 . S
C176 C171 1.385 . S
C176 C175 1.402 . S
C176 H197 0.929 . S
C177 N142 1.421 . S
C177 C180 1.385 1_655 S
C177 C181 1.371 . S
C178 C179 1.385 1_655 S
C178 C182 1.401 . S
C178 H198 0.930 . S
C179 C178 1.385 1_455 S
C179 C180 1.402 . S
C180 C177 1.385 1_455 S
C180 C179 1.402 . S
C180 H199 0.929 . S
C181 C177 1.371 . S
C181 C182 1.367 . S
C181 H200 0.931 . S
C182 C178 1.401 . S
C182 C181 1.367 . S
H183 C137 0.931 . S
H184 C138 0.930 . S
H185 C139 0.929 . S
H186 C145 0.931 . S
H187 C146 0.930 . S
H188 C147 0.929 . S
H189 C159 0.928 . S
H190 C160 0.930 . S
H191 C162 0.930 . S
H192 C166 0.930 . S
H193 C168 0.930 . S
H194 C170 0.928 . S
H195 C172 0.931 . S
H196 C174 0.930 . S
H197 C176 0.929 . S
H198 C178 0.930 . S
H199 C180 0.929 . S
H200 C181 0.931 . S
C201 O202 1.201 . S
C201 C203 1.493 . S
C201 N218 1.318 . S
O202 C201 1.201 . S
C203 C201 1.493 . S
C203 C204 1.381 . S
C203 N208 1.335 1_556 S
C204 C203 1.381 . S
C204 C205 1.411 1_556 S
C204 H250 0.931 . S
C205 C204 1.411 1_554 S
C205 C206 1.384 . S
C205 H251 0.930 . S
C206 C205 1.384 . S
C206 C207 1.376 . S
C206 H252 0.929 . S
C207 C206 1.376 . S
C207 N208 1.330 . S
C207 C222 1.484 . S
N208 C203 1.335 1_554 S
N208 C207 1.330 . S
N208 Co210 1.859 . S
N209 Co210 1.962 . S
N209 C220 1.318 . S
N209 C244 1.421 . S
Co210 N208 1.859 . S
Co210 N209 1.962 . S
Co210 N211 1.859 . S
Co210 N217 1.958 . S
Co210 N218 1.962 1_554 S
Co210 N219 1.958 . S
N211 Co210 1.859 . S
N211 C215 1.330 . S
N211 C216 1.335 . S
C212 C213 1.411 1_655 S
C212 C216 1.381 . S
C212 H253 0.931 . S
C213 C212 1.411 1_455 S
C213 C214 1.384 1_455 S
C213 H254 0.930 . S
C214 C213 1.384 1_655 S
C214 C215 1.376 . S
C214 H255 0.929 . S
C215 N211 1.330 . S
C215 C214 1.376 . S
C215 C230 1.484 . S
C216 N211 1.335 . S
C216 C212 1.381 . S
C216 C220 1.493 . S
N217 Co210 1.958 . S
N217 C230 1.344 . S
N217 C232 1.425 . S
N218 C201 1.318 . S
N218 Co210 1.962 1_556 S
N218 C238 1.421 . S
N219 Co210 1.958 . S
N219 C222 1.344 . S
N219 C224 1.425 . S
C220 N209 1.318 . S
C220 C216 1.493 . S
C220 O221 1.201 . S
O221 C220 1.201 . S
C222 C207 1.484 . S
C222 N219 1.344 . S
C222 O223 1.268 . S
O223 C222 1.268 . S
C224 N219 1.425 . S
C224 C226 1.392 . S
C224 C227 1.368 . S
C225 C226 1.382 . S
C225 C229 1.386 . S
C226 C224 1.392 . S
C226 C225 1.382 . S
C226 H256 0.928 . S
C227 C224 1.368 . S
C227 C228 1.367 . S
C227 H257 0.930 . S
C228 C227 1.367 . S
C228 C229 1.369 . S
C229 C225 1.386 . S
C229 C228 1.369 . S
C229 H258 0.930 . S
C230 C215 1.484 . S
C230 N217 1.344 . S
C230 O231 1.268 . S
O231 C230 1.268 . S
C232 N217 1.425 . S
C232 C233 1.368 . S
C232 C237 1.392 1_554 S
C233 C232 1.368 . S
C233 C234 1.367 . S
C233 H259 0.930 . S
C234 C233 1.367 . S
C234 C235 1.369 1_554 S
C235 C234 1.369 1_556 S
C235 C236 1.386 . S
C235 H260 0.930 . S
C236 C235 1.386 . S
C236 C237 1.382 . S
C237 C232 1.392 1_556 S
C237 C236 1.382 . S
C237 H261 0.928 . S
C238 N218 1.421 . S
C238 C239 1.371 . S
C238 C243 1.385 . S
C239 C238 1.371 . S
C239 C240 1.367 . S
C239 H262 0.931 . S
C240 C239 1.367 . S
C240 C241 1.401 . S
C241 C240 1.401 . S
C241 C242 1.385 . S
C241 H263 0.930 . S
C242 C241 1.385 . S
C242 C243 1.402 . S
C243 C238 1.385 . S
C243 C242 1.402 . S
C243 H264 0.929 . S
C244 N209 1.421 . S
C244 C247 1.385 1_554 S
C244 C248 1.371 . S
C245 C246 1.385 1_554 S
C245 C249 1.401 . S
C245 H265 0.930 . S
C246 C245 1.385 1_556 S
C246 C247 1.402 . S
C247 C244 1.385 1_556 S
C247 C246 1.402 . S
C247 H266 0.929 . S
C248 C244 1.371 . S
C248 C249 1.367 . S
C248 H267 0.931 . S
C249 C245 1.401 . S
C249 C248 1.367 . S
H250 C204 0.931 . S
H251 C205 0.930 . S
H252 C206 0.929 . S
H253 C212 0.931 . S
H254 C213 0.930 . S
H255 C214 0.929 . S
H256 C226 0.928 . S
H257 C227 0.930 . S
H258 C229 0.930 . S
H259 C233 0.930 . S
H260 C235 0.930 . S
H261 C237 0.928 . S
H262 C239 0.931 . S
H263 C241 0.930 . S
H264 C243 0.929 . S
H265 C245 0.930 . S
H266 C247 0.929 . S
H267 C248 0.931 . S
C268 O269 1.201 . S
C268 C270 1.493 . S
C268 N285 1.318 . S
O269 C268 1.201 . S
C270 C268 1.493 . S
C270 C271 1.381 . S
C270 N275 1.335 1_545 S
C271 C270 1.381 . S
C271 C272 1.411 1_545 S
C271 H317 0.931 . S
C272 C271 1.411 1_565 S
C272 C273 1.384 . S
C272 H318 0.930 . S
C273 C272 1.384 . S
C273 C274 1.376 . S
C273 H319 0.929 . S
C274 C273 1.376 . S
C274 N275 1.330 . S
C274 C289 1.484 . S
N275 C270 1.335 1_565 S
N275 C274 1.330 . S
N275 Co277 1.859 . S
N276 Co277 1.962 . S
N276 C287 1.318 . S
N276 C311 1.421 . S
Co277 N275 1.859 . S
Co277 N276 1.962 . S
Co277 N278 1.859 . S
Co277 N284 1.958 . S
Co277 N285 1.962 1_565 S
Co277 N286 1.958 . S
N278 Co277 1.859 . S
N278 C282 1.330 . S
N278 C283 1.335 . S
C279 C280 1.411 1_554 S
C279 C283 1.381 . S
C279 H320 0.931 . S
C280 C279 1.411 1_556 S
C280 C281 1.384 1_556 S
C280 H321 0.930 . S
C281 C280 1.384 1_554 S
C281 C282 1.376 . S
C281 H322 0.929 . S
C282 N278 1.330 . S
C282 C281 1.376 . S
C282 C297 1.484 . S
C283 N278 1.335 . S
C283 C279 1.381 . S
C283 C287 1.493 . S
N284 Co277 1.958 . S
N284 C297 1.344 . S
N284 C299 1.425 . S
N285 C268 1.318 . S
N285 Co277 1.962 1_545 S
N285 C305 1.421 . S
N286 Co277 1.958 . S
N286 C289 1.344 . S
N286 C291 1.425 . S
C287 N276 1.318 . S
C287 C283 1.493 . S
C287 O288 1.201 . S
O288 C287 1.201 . S
C289 C274 1.484 . S
C289 N286 1.344 . S
C289 O290 1.268 . S
O290 C289 1.268 . S
C291 N286 1.425 . S
C291 C293 1.392 . S
C291 C294 1.368 . S
C292 C293 1.382 . S
C292 C296 1.386 . S
C293 C291 1.392 . S
C293 C292 1.382 . S
C293 H323 0.928 . S
C294 C291 1.368 . S
C294 C295 1.367 . S
C294 H324 0.930 . S
C295 C294 1.367 . S
C295 C296 1.369 . S
C296 C292 1.386 . S
C296 C295 1.369 . S
C296 H325 0.930 . S
C297 C282 1.484 . S
C297 N284 1.344 . S
C297 O298 1.268 . S
O298 C297 1.268 . S
C299 N284 1.425 . S
C299 C300 1.370 . S
C299 C304 1.389 1_565 S
C300 C299 1.370 . S
C300 C301 1.367 . S
C300 H326 0.930 . S
C301 C300 1.367 . S
C301 C302 1.369 1_565 S
C302 C301 1.369 1_545 S
C302 C303 1.386 . S
C302 H327 0.930 . S
C303 C302 1.386 . S
C303 C304 1.382 . S
C304 C299 1.389 1_545 S
C304 C303 1.382 . S
C304 H328 0.928 . S
C305 N285 1.421 . S
C305 C306 1.371 . S
C305 C310 1.385 . S
C306 C305 1.371 . S
C306 C307 1.367 . S
C306 H329 0.931 . S
C307 C306 1.367 . S
C307 C308 1.401 . S
C308 C307 1.401 . S
C308 C309 1.385 . S
C308 H330 0.930 . S
C309 C308 1.385 . S
C309 C310 1.402 . S
C310 C305 1.385 . S
C310 C309 1.402 . S
C310 H331 0.929 . S
C311 N276 1.421 . S
C311 C314 1.385 1_565 S
C311 C315 1.371 . S
C312 C313 1.374 1_565 S
C312 C316 1.413 . S
C312 H332 0.930 . S
C313 C312 1.374 1_545 S
C313 C314 1.402 . S
C314 C311 1.385 1_545 S
C314 C313 1.402 . S
C314 H333 0.929 . S
C315 C311 1.371 . S
C315 C316 1.367 . S
C315 H334 0.931 . S
C316 C312 1.413 . S
C316 C315 1.367 . S
H317 C271 0.931 . S
H318 C272 0.930 . S
H319 C273 0.929 . S
H320 C279 0.931 . S
H321 C280 0.930 . S
H322 C281 0.929 . S
H323 C293 0.928 . S
H324 C294 0.930 . S
H325 C296 0.930 . S
H326 C300 0.930 . S
H327 C302 0.930 . S
H328 C304 0.928 . S
H329 C306 0.931 . S
H330 C308 0.930 . S
H331 C310 0.929 . S
H332 C312 0.930 . S
H333 C314 0.929 . S
H334 C315 0.931 . S
C335 O336 1.201 . S
C335 C337 1.493 . S
C335 N352 1.318 . S
O336 C335 1.201 . S
C337 C335 1.493 . S
C337 C338 1.381 . S
C337 N342 1.335 1_565 S
C338 C337 1.381 . S
C338 C339 1.411 1_565 S
C338 H384 0.931 . S
C339 C338 1.411 1_545 S
C339 C340 1.384 . S
C339 H385 0.930 . S
C340 C339 1.384 . S
C340 C341 1.376 . S
C340 H386 0.929 . S
C341 C340 1.376 . S
C341 N342 1.330 . S
C341 C356 1.484 . S
N342 C337 1.335 1_545 S
N342 C341 1.330 . S
N342 Co344 1.859 . S
N343 Co344 1.962 . S
N343 C354 1.318 . S
N343 C378 1.421 . S
Co344 N342 1.859 . S
Co344 N343 1.962 . S
Co344 N345 1.859 . S
Co344 N351 1.958 . S
Co344 N352 1.962 1_545 S
Co344 N353 1.958 . S
N345 Co344 1.859 . S
N345 C349 1.330 . S
N345 C350 1.335 . S
C346 C347 1.411 1_556 S
C346 C350 1.381 . S
C346 H387 0.931 . S
C347 C346 1.411 1_554 S
C347 C348 1.384 1_554 S
C347 H388 0.930 . S
C348 C347 1.384 1_556 S
C348 C349 1.376 . S
C348 H389 0.929 . S
C349 N345 1.330 . S
C349 C348 1.376 . S
C349 C364 1.484 . S
C350 N345 1.335 . S
C350 C346 1.381 . S
C350 C354 1.493 . S
N351 Co344 1.958 . S
N351 C364 1.344 . S
N351 C366 1.425 . S
N352 C335 1.318 . S
N352 Co344 1.962 1_565 S
N352 C372 1.421 . S
N353 Co344 1.958 . S
N353 C356 1.344 . S
N353 C358 1.425 . S
C354 N343 1.318 . S
C354 C350 1.493 . S
C354 O355 1.201 . S
O355 C354 1.201 . S
C356 C341 1.484 . S
C356 N353 1.344 . S
C356 O357 1.268 . S
O357 C356 1.268 . S
C358 N353 1.425 . S
C358 C360 1.392 . S
C358 C361 1.368 . S
C359 C360 1.382 . S
C359 C363 1.386 . S
C360 C358 1.392 . S
C360 C359 1.382 . S
C360 H390 0.928 . S
C361 C358 1.368 . S
C361 C362 1.367 . S
C361 H391 0.930 . S
C362 C361 1.367 . S
C362 C363 1.369 . S
C363 C359 1.386 . S
C363 C362 1.369 . S
C363 H392 0.930 . S
C364 C349 1.484 . S
C364 N351 1.344 . S
C364 O365 1.268 . S
O365 C364 1.268 . S
C366 N351 1.425 . S
C366 C367 1.368 . S
C366 C371 1.392 1_545 S
C367 C366 1.368 . S
C367 C368 1.367 . S
C367 H393 0.930 . S
C368 C367 1.367 . S
C368 C369 1.369 1_545 S
C369 C368 1.369 1_565 S
C369 C370 1.386 . S
C369 H394 0.930 . S
C370 C369 1.386 . S
C370 C371 1.382 . S
C371 C366 1.392 1_565 S
C371 C370 1.382 . S
C371 H395 0.928 . S
C372 N352 1.421 . S
C372 C373 1.371 . S
C372 C377 1.385 . S
C373 C372 1.371 . S
C373 C374 1.367 . S
C373 H396 0.931 . S
C374 C373 1.367 . S
C374 C375 1.401 . S
C375 C374 1.401 . S
C375 C376 1.385 . S
C375 H397 0.930 . S
C376 C375 1.385 . S
C376 C377 1.402 . S
C377 C372 1.385 . S
C377 C376 1.402 . S
C377 H398 0.929 . S
C378 N343 1.421 . S
C378 C381 1.385 1_545 S
C378 C382 1.371 . S
C379 C380 1.385 1_545 S
C379 C383 1.401 . S
C379 H399 0.930 . S
C380 C379 1.385 1_565 S
C380 C381 1.402 . S
C381 C378 1.385 1_565 S
C381 C380 1.402 . S
C381 H400 0.929 . S
C382 C378 1.371 . S
C382 C383 1.367 . S
C382 H401 0.931 . S
C383 C379 1.401 . S
C383 C382 1.367 . S
H384 C338 0.931 . S
H385 C339 0.930 . S
H386 C340 0.929 . S
H387 C346 0.931 . S
H388 C347 0.930 . S
H389 C348 0.929 . S
H390 C360 0.928 . S
H391 C361 0.930 . S
H392 C363 0.930 . S
H393 C367 0.930 . S
H394 C369 0.930 . S
H395 C371 0.928 . S
H396 C373 0.931 . S
H397 C375 0.930 . S
H398 C377 0.929 . S
H399 C379 0.930 . S
H400 C381 0.929 . S
H401 C382 0.931 . S
C48 C91 1.336 . S
C106 C169 1.333 . S
C225 C182 1.365 . S
C240 C35 1.367 . S
C303 C24 1.364 . S
C374 C102 1.335 . S
C316 C158 1.379 . S
C236 C359 1.414 . S
C173 C370 1.321 . S
C292 C249 1.366 . S
C383 C39 1.475 . S
C307 C115 1.440 . S
C167 C242 1.688 . S
C45 C228 1.692 . S
C33 C108 1.766 . S
C179 C94 1.761 . S
C380 C161 1.667 . S
C234 C309 1.712 . S
C368 C27 1.106 . S
C100 C295 1.071 . S
C41 C313 2.245 . S
C112 C362 1.785 . S
C175 C301 1.807 . S
C246 C376 2.279 . S
