# Generated by pormake.
# Topology wkh, (6)-cn, num edge types: 1
# Building blocks:
#     Node 0, Type 0, BuildingBlock: IZENUY_clean_sbu_0, # of connection points: 6
#     Node 1, Type 0, BuildingBlock: IZENUY_clean_sbu_0, # of connection points: 6
#     Node 2, Type 0, BuildingBlock: IZENUY_clean_sbu_0, # of connection points: 6
#     Node 3, Type 0, BuildingBlock: IZENUY_clean_sbu_0, # of connection points: 6
#     Node 4, Type 0, BuildingBlock: IZENUY_clean_sbu_0, # of connection points: 6
#     Node 5, Type 0, BuildingBlock: IZENUY_clean_sbu_0, # of connection points: 6
#     Node 6, Type 0, BuildingBlock: IZENUY_clean_sbu_0, # of connection points: 6
#     Node 7, Type 0, BuildingBlock: IZENUY_clean_sbu_0, # of connection points: 6
#     Node 8, Type 0, BuildingBlock: IZENUY_clean_sbu_0, # of connection points: 6
#     Node 9, Type 0, BuildingBlock: IZENUY_clean_sbu_0, # of connection points: 6
#     Node 10, Type 0, BuildingBlock: IZENUY_clean_sbu_0, # of connection points: 6
#     Node 11, Type 0, BuildingBlock: IZENUY_clean_sbu_0, # of connection points: 6
#     Edge 12, Type (0, 0), BuildingBlock: EYOCIG_clean_linker_4, # of connection points: 2
#     Edge 13, Type (0, 0), BuildingBlock: EYOCIG_clean_linker_4, # of connection points: 2
#     Edge 14, Type (0, 0), BuildingBlock: EYOCIG_clean_linker_4, # of connection points: 2
#     Edge 15, Type (0, 0), BuildingBlock: EYOCIG_clean_linker_4, # of connection points: 2
#     Edge 16, Type (0, 0), BuildingBlock: EYOCIG_clean_linker_4, # of connection points: 2
#     Edge 17, Type (0, 0), BuildingBlock: EYOCIG_clean_linker_4, # of connection points: 2
#     Edge 18, Type (0, 0), BuildingBlock: EYOCIG_clean_linker_4, # of connection points: 2
#     Edge 19, Type (0, 0), BuildingBlock: EYOCIG_clean_linker_4, # of connection points: 2
#     Edge 20, Type (0, 0), BuildingBlock: EYOCIG_clean_linker_4, # of connection points: 2
#     Edge 21, Type (0, 0), BuildingBlock: EYOCIG_clean_linker_4, # of connection points: 2
#     Edge 22, Type (0, 0), BuildingBlock: EYOCIG_clean_linker_4, # of connection points: 2
#     Edge 23, Type (0, 0), BuildingBlock: EYOCIG_clean_linker_4, # of connection points: 2
#     Edge 24, Type (0, 0), BuildingBlock: EYOCIG_clean_linker_4, # of connection points: 2
#     Edge 25, Type (0, 0), BuildingBlock: EYOCIG_clean_linker_4, # of connection points: 2
#     Edge 26, Type (0, 0), BuildingBlock: EYOCIG_clean_linker_4, # of connection points: 2
#     Edge 27, Type (0, 0), BuildingBlock: EYOCIG_clean_linker_4, # of connection points: 2
#     Edge 28, Type (0, 0), BuildingBlock: EYOCIG_clean_linker_4, # of connection points: 2
#     Edge 29, Type (0, 0), BuildingBlock: EYOCIG_clean_linker_4, # of connection points: 2
#     Edge 30, Type (0, 0), BuildingBlock: EYOCIG_clean_linker_4, # of connection points: 2
#     Edge 31, Type (0, 0), BuildingBlock: EYOCIG_clean_linker_4, # of connection points: 2
#     Edge 32, Type (0, 0), BuildingBlock: EYOCIG_clean_linker_4, # of connection points: 2
#     Edge 33, Type (0, 0), BuildingBlock: EYOCIG_clean_linker_4, # of connection points: 2
#     Edge 34, Type (0, 0), BuildingBlock: EYOCIG_clean_linker_4, # of connection points: 2
#     Edge 35, Type (0, 0), BuildingBlock: EYOCIG_clean_linker_4, # of connection points: 2
#     Edge 36, Type (0, 0), BuildingBlock: EYOCIG_clean_linker_4, # of connection points: 2
#     Edge 37, Type (0, 0), BuildingBlock: EYOCIG_clean_linker_4, # of connection points: 2
#     Edge 38, Type (0, 0), BuildingBlock: EYOCIG_clean_linker_4, # of connection points: 2
#     Edge 39, Type (0, 0), BuildingBlock: EYOCIG_clean_linker_4, # of connection points: 2
#     Edge 40, Type (0, 0), BuildingBlock: EYOCIG_clean_linker_4, # of connection points: 2
#     Edge 41, Type (0, 0), BuildingBlock: EYOCIG_clean_linker_4, # of connection points: 2
#     Edge 42, Type (0, 0), BuildingBlock: EYOCIG_clean_linker_4, # of connection points: 2
#     Edge 43, Type (0, 0), BuildingBlock: EYOCIG_clean_linker_4, # of connection points: 2
#     Edge 44, Type (0, 0), BuildingBlock: EYOCIG_clean_linker_4, # of connection points: 2
#     Edge 45, Type (0, 0), BuildingBlock: EYOCIG_clean_linker_4, # of connection points: 2
#     Edge 46, Type (0, 0), BuildingBlock: EYOCIG_clean_linker_4, # of connection points: 2
#     Edge 47, Type (0, 0), BuildingBlock: EYOCIG_clean_linker_4, # of connection points: 2
# Relax obj value: 0.285
# Max RMSD: 0.257
# Mean RMSD: 0.257
data_MOF--net-wkh--node1-IZENUY_clean_sbu_0--edge1-EYOCIG_clean_linker_4
_symmetry_space_group_name_H-M    P1
_symmetry_Int_Tables_number       1
_symmetry_cell_setting            triclinic
loop_
_symmetry_equiv_pos_as_xyz
'x, y, z'
_cell_length_a     21.100439
_cell_length_b     21.098041
_cell_length_c     62.015472
_cell_angle_alpha  90.00768
_cell_angle_beta   90.001423
_cell_angle_gamma 119.98689
loop_
_atom_site_label
_atom_site_type_symbol
_atom_site_fract_x
_atom_site_fract_y
_atom_site_fract_z
_atom_type_partial_charge
Fe0 Fe 0.2312 0.33496 1.0339 0.0
Fe1 Fe 0.34517 0.28676 1.04013 0.0
O2 O 0.30938 0.34383 0.04739 0.0
Fe3 Fe 0.35181 0.40971 0.06825 0.0
O4 O 0.2688 0.36596 0.08435 0.0
O5 O 0.193 0.35508 0.05818 0.0
O6 O 0.17611 0.24092 1.04159 0.0
C7 C 0.19274 0.19264 1.03819 0.0
C8 C 0.29772 0.47873 1.03928 0.0
O9 O 0.25662 0.20796 1.03297 0.0
C10 C 0.47304 0.42376 0.04797 0.0
O11 O 0.25422 0.31029 1.00746 0.0
O12 O 0.36197 0.32016 1.01273 0.0
O13 O 0.32456 0.4749 0.05725 0.0
O14 O 0.28162 0.42933 1.02557 0.0
C15 C 0.35815 0.2866 0.08363 0.0
O16 O 0.44036 0.35492 0.04614 0.0
O17 O 0.43885 0.45656 0.0535 0.0
C18 C 0.31257 0.3146 1.00021 0.0
O19 O 0.33031 0.24906 0.06696 0.0
O20 O 0.38276 0.35511 0.08376 0.0
C21 C 0.20657 0.35298 0.07803 0.0
Fe22 Fe 0.95818 0.34407 0.2349 0.0
Fe23 Fe 0.91236 0.22343 0.20054 0.0
O24 O 0.98165 0.30162 0.21403 0.0
Fe25 Fe 0.07449 0.3374 0.20679 0.0
O26 O 0.0973 0.32253 0.23362 0.0
O27 O 0.0437 0.37501 0.25041 0.0
O28 O 0.91893 0.26105 0.25099 0.0
C29 C 0.8697 0.19881 0.24467 0.0
C30 C 0.06535 0.4653 0.21462 0.0
O31 O 0.85405 0.18523 0.22482 0.0
C32 C 1.0141 0.30481 0.16687 0.0
O33 O 0.86577 0.31683 0.22388 0.0
O34 O 0.86842 0.27386 0.19221 0.0
O35 O 0.1015 0.4326 0.2128 0.0
O36 O 0.99837 0.43112 0.22014 0.0
C37 C 1.0162 0.18495 0.20485 0.0
O38 O 0.96006 0.24646 0.17411 0.0
O39 O 0.05791 0.35421 0.17939 0.0
C40 C 0.83511 0.28997 0.20591 0.0
O41 O 0.95132 0.16833 0.20824 0.0
O42 O 0.06475 0.24883 0.19964 0.0
C43 C 0.08759 0.35039 0.25029 0.0
Fe44 Fe 0.70515 0.90468 0.36719 0.0
Fe45 Fe 0.75333 0.06684 0.37344 0.0
O46 O 0.69627 0.974 0.38069 0.0
Fe47 Fe 0.6304 0.95056 0.40155 0.0
O48 O 0.67415 0.91129 0.41764 0.0
O49 O 0.68504 0.84636 0.39147 0.0
O50 O 0.79919 0.94362 0.3749 0.0
C51 C 0.84745 1.0085 0.3715 0.0
C52 C 0.56139 0.82749 0.37256 0.0
O53 O 0.83212 0.05707 0.36629 0.0
C54 C 0.61634 0.05776 0.38128 0.0
O55 O 0.72981 0.95238 0.34076 0.0
O56 O 0.71992 0.05026 0.34604 0.0
O57 O 0.56523 0.85816 0.39054 0.0
O58 O 0.61079 0.86076 0.35886 0.0
C59 C 0.75349 0.07998 0.41694 0.0
O60 O 0.68517 0.0939 0.37945 0.0
O61 O 0.58355 0.99078 0.3868 0.0
C62 C 0.72549 1.00642 0.33352 0.0
O63 O 0.79103 0.08966 0.40027 0.0
O64 O 0.68499 0.0361 0.41706 0.0
C65 C 0.68712 0.86201 0.41132 0.0
Fe66 Fe 0.69591 0.62259 0.56822 0.0
Fe67 Fe 0.8165 0.69731 0.53386 0.0
O68 O 0.73833 0.68846 0.54735 0.0
Fe69 Fe 0.70254 0.74552 0.5401 0.0
O70 O 0.71741 0.78324 0.56693 0.0
O71 O 0.66498 0.67721 0.58372 0.0
O72 O 0.77893 0.66636 0.58431 0.0
C73 C 0.84116 0.67932 0.57799 0.0
C74 C 0.57467 0.60853 0.54794 0.0
O75 O 0.85472 0.67721 0.55814 0.0
C76 C 0.73511 0.71765 0.50018 0.0
O77 O 0.72314 0.5574 0.55721 0.0
O78 O 0.76607 0.60294 0.52554 0.0
O79 O 0.60735 0.67737 0.5461 0.0
O80 O 0.60886 0.57573 0.55346 0.0
C81 C 0.85497 0.83963 0.53816 0.0
O82 O 0.79346 0.72196 0.50743 0.0
O83 O 0.68572 0.7121 0.5127 0.0
C84 C 0.74997 0.55355 0.53924 0.0
O85 O 0.87159 0.79136 0.54156 0.0
O86 O 0.79108 0.82431 0.53295 0.0
C87 C 0.68958 0.74572 0.5836 0.0
Fe88 Fe 0.08952 0.68824 0.73488 0.0
Fe89 Fe 0.13533 0.80885 0.70052 0.0
O90 O 0.06605 0.73067 0.71401 0.0
Fe91 Fe 0.97321 0.69489 0.70676 0.0
O92 O 0.95039 0.70977 0.73359 0.0
O93 O 1.004 0.65731 0.75038 0.0
O94 O 0.12876 0.77126 0.75097 0.0
C95 C 0.178 0.8335 0.74466 0.0
C96 C 0.98235 0.56699 0.7146 0.0
O97 O 0.19365 0.84706 0.72481 0.0
C98 C 0.0336 0.72746 0.66684 0.0
O99 O 0.18192 0.71547 0.72386 0.0
O100 O 0.17928 0.75842 0.69219 0.0
O101 O 0.9462 0.59969 0.71276 0.0
O102 O 0.04933 0.60118 0.72011 0.0
C103 C 0.03149 0.84733 0.70483 0.0
O104 O 0.08763 0.78582 0.67409 0.0
O105 O 0.98979 0.67806 0.67936 0.0
C106 C 0.21258 0.74232 0.70589 0.0
O107 O 0.09637 0.86395 0.70823 0.0
O108 O 0.98294 0.78345 0.69961 0.0
C109 C 0.9601 0.68192 0.75026 0.0
Fe110 Fe 0.34253 0.12759 0.86721 0.0
Fe111 Fe 0.29437 0.96543 0.87345 0.0
O112 O 0.35142 0.05827 0.8807 0.0
Fe113 Fe 0.4173 0.08172 0.90157 0.0
O114 O 0.37354 0.12099 0.91766 0.0
O115 O 0.36265 0.18591 0.89149 0.0
O116 O 0.24849 0.08865 0.87491 0.0
C117 C 0.20024 0.02377 0.87151 0.0
C118 C 0.48629 0.20478 0.87258 0.0
O119 O 0.21557 0.9752 0.86629 0.0
C120 C 0.43136 0.97452 0.88128 0.0
O121 O 0.31787 0.07989 0.84078 0.0
O122 O 0.32776 0.98201 0.84605 0.0
O123 O 0.48246 0.17412 0.89056 0.0
O124 O 0.43688 0.17151 0.85888 0.0
C125 C 0.29421 0.9523 0.91695 0.0
O126 O 0.36253 0.93838 0.87945 0.0
O127 O 0.46415 0.0415 0.88681 0.0
C128 C 0.32219 0.02585 0.83353 0.0
O129 O 0.25667 0.94261 0.90027 0.0
O130 O 0.36271 0.99619 0.91707 0.0
C131 C 0.36057 0.17026 0.91134 0.0
Fe132 Fe 0.75327 0.69484 0.87473 0.0
Fe133 Fe 0.63034 0.6882 0.84661 0.0
O134 O 0.69621 0.73063 0.86748 0.0
Fe135 Fe 0.70508 0.80882 0.88097 0.0
O136 O 0.79911 0.86391 0.87328 0.0
O137 O 0.83206 0.7834 0.88189 0.0
O138 O 0.79097 0.7097 0.84791 0.0
C139 C 0.75344 0.68186 0.83123 0.0
C140 C 0.72543 0.72744 0.91465 0.0
O141 O 0.68494 0.65725 0.83111 0.0
C142 C 0.56132 0.74228 0.8756 0.0
O143 O 0.68512 0.59964 0.86873 0.0
O144 O 0.5835 0.60115 0.86137 0.0
O145 O 0.72974 0.7858 0.90741 0.0
O146 O 0.71987 0.67803 0.90213 0.0
C147 C 0.68705 0.83345 0.83684 0.0
O148 O 0.56516 0.71544 0.85762 0.0
O149 O 0.61072 0.7584 0.8893 0.0
C150 C 0.61629 0.56696 0.86689 0.0
O151 O 0.67409 0.77122 0.83052 0.0
O152 O 0.68496 0.84702 0.85669 0.0
C153 C 0.84738 0.84729 0.87668 0.0
Fe154 Fe 0.07451 0.74559 1.04141 0.0
Fe155 Fe 0.95821 0.62263 1.0133 0.0
O156 O 0.98167 0.68854 1.03416 0.0
Fe157 Fe 0.91238 0.69745 0.04765 0.0
O158 O 0.95132 0.79149 1.03995 0.0
O159 O 0.06475 0.82441 0.04856 0.0
O160 O 0.09731 0.78327 1.01458 0.0
C161 C 0.08762 0.74571 0.99791 0.0
C162 C 1.01412 0.71779 0.08133 0.0
O163 O 0.04373 0.67721 0.99779 0.0
C164 C 0.83516 0.55367 0.04228 0.0
O165 O 0.10154 0.67741 1.03541 0.0
O166 O 0.99842 0.57578 1.02806 0.0
O167 O 0.96008 0.72212 0.07408 0.0
O168 O 0.05794 0.71221 0.06881 0.0
C169 C 0.8697 0.67939 1.00352 0.0
O170 O 0.86582 0.55747 1.02431 0.0
O171 O 0.86845 0.60309 0.05598 0.0
C172 C 0.0654 0.60857 1.03358 0.0
O173 O 0.91895 0.66639 0.9972 0.0
O174 O 0.85406 0.67733 1.02337 0.0
C175 C 1.0162 0.83975 0.04335 0.0
Fe176 Fe 0.34515 0.0668 0.20809 0.0
Fe177 Fe 0.35179 0.95047 0.17997 0.0
O178 O 0.30936 0.97395 0.20083 0.0
Fe179 Fe 0.23118 0.90466 0.21432 0.0
O180 O 0.1761 0.94363 0.20662 0.0
O181 O 0.2566 0.05707 0.21524 0.0
O182 O 0.33028 0.08963 0.18126 0.0
C183 C 0.35812 0.07992 0.16459 0.0
C184 C 0.31256 1.00638 0.24801 0.0
O185 O 0.38273 0.03601 0.16447 0.0
C186 C 0.2977 0.82739 0.20895 0.0
O187 O 0.44033 0.0938 0.20209 0.0
O188 O 0.43884 0.99066 0.19473 0.0
O189 O 0.25421 0.95235 0.24076 0.0
O190 O 0.36196 0.05021 0.23549 0.0
C191 C 0.20654 0.862 0.17019 0.0
O192 O 0.32455 0.85805 0.19098 0.0
O193 O 0.28161 0.86071 0.22265 0.0
C194 C 0.47302 0.05764 0.20025 0.0
O195 O 0.26878 0.91124 0.16387 0.0
O196 O 0.19298 0.84634 0.19004 0.0
C197 C 0.19272 1.00852 0.21003 0.0
Fe198 Fe 0.41732 0.34405 0.34664 0.0
Fe199 Fe 0.34261 0.22344 0.381 0.0
O200 O 0.35147 0.30163 0.36751 0.0
Fe201 Fe 0.29441 0.33743 0.37477 0.0
O202 O 0.25669 0.32255 0.34794 0.0
O203 O 0.36271 0.37498 0.33114 0.0
O204 O 0.37356 0.26102 0.33055 0.0
C205 C 0.36061 0.19878 0.33687 0.0
C206 C 0.43139 0.4653 0.36692 0.0
O207 O 0.36272 0.18523 0.35672 0.0
C208 C 0.32228 0.30485 0.41468 0.0
O209 O 0.48251 0.31681 0.35765 0.0
O210 O 0.43698 0.27388 0.38932 0.0
O211 O 0.36256 0.43262 0.36876 0.0
O212 O 0.46418 0.43111 0.3614 0.0
C213 C 0.20031 0.18498 0.37671 0.0
O214 O 0.31796 0.24648 0.40743 0.0
O215 O 0.32784 0.35425 0.40217 0.0
C216 C 0.48637 0.28999 0.37562 0.0
O217 O 0.24857 0.16835 0.3733 0.0
O218 O 0.21563 0.24887 0.38192 0.0
C219 C 0.29421 0.35038 0.33127 0.0
Fe220 Fe 0.08948 0.40962 0.51333 0.0
Fe221 Fe 0.13533 0.33484 0.54769 0.0
O222 O 0.06603 0.34373 0.53419 0.0
Fe223 Fe 0.97319 0.28668 0.54144 0.0
O224 O 0.95038 0.24898 0.51461 0.0
O225 O 1.00396 0.35503 0.49782 0.0
O226 O 0.12874 0.36585 0.49724 0.0
C227 C 0.178 0.35287 0.50355 0.0
C228 C 0.98229 0.42369 0.5336 0.0
O229 O 0.19364 0.35494 0.52341 0.0
C230 C 0.03359 0.3145 0.58136 0.0
O231 O 0.18187 0.47479 0.52435 0.0
O232 O 0.17925 0.42921 0.55602 0.0
O233 O 0.94615 0.35485 0.53543 0.0
O234 O 0.04927 0.45648 0.52809 0.0
C235 C 0.03151 0.19253 0.54338 0.0
O236 O 0.08763 0.31018 0.57412 0.0
O237 O 0.98976 0.32008 0.56884 0.0
C238 C 0.21253 0.47861 0.54232 0.0
O239 O 0.09638 0.24079 0.53998 0.0
O240 O 0.98295 0.20787 0.54859 0.0
C241 C 0.96007 0.28653 0.49793 0.0
Fe242 Fe 0.70255 0.96548 0.70808 0.0
Fe243 Fe 0.69589 0.0818 0.67997 0.0
O244 O 0.73832 0.05833 0.70084 0.0
Fe245 Fe 0.8165 0.12762 0.71433 0.0
O246 O 0.87159 0.08865 0.70663 0.0
O247 O 0.7911 0.97521 0.71523 0.0
O248 O 0.71742 0.94265 0.68125 0.0
C249 C 0.68957 0.95236 0.66458 0.0
C250 C 0.73513 0.02589 0.748 0.0
O251 O 0.66495 0.99626 0.66446 0.0
C252 C 0.74998 0.20489 0.70896 0.0
O253 O 0.60736 0.93847 0.70208 0.0
O254 O 0.60885 0.04161 0.69473 0.0
O255 O 0.79347 0.07993 0.74076 0.0
O256 O 0.68573 0.98207 0.73548 0.0
C257 C 0.84114 0.17028 0.6702 0.0
O258 O 0.72313 0.17421 0.69099 0.0
O259 O 0.76607 0.17157 0.72266 0.0
C260 C 0.57467 0.97463 0.70024 0.0
O261 O 0.7789 0.12103 0.66388 0.0
O262 O 0.85471 0.18593 0.69005 0.0
C263 C 0.85498 0.02377 0.71003 0.0
C264 C 0.69111 0.49797 0.04413 0.0
C265 C 0.7563 0.52113 0.04224 0.0
C266 C 0.61652 0.47996 0.0457 0.0
C267 C 0.55211 0.46123 0.0471 0.0
C268 C 0.20926 0.68335 0.21078 0.0
C269 C 0.25133 0.74853 0.20889 0.0
C270 C 0.15265 0.60878 0.21235 0.0
C271 C 0.10694 0.54438 0.21374 0.0
C272 C 0.5421 0.20164 0.37745 0.0
C273 C 0.51892 0.24366 0.37557 0.0
C274 C 0.56013 0.14506 0.37902 0.0
C275 C 0.57886 0.09938 0.38041 0.0
C276 C 0.35659 0.53431 0.54415 0.0
C277 C 0.29139 0.51113 0.54227 0.0
C278 C 0.43118 0.55233 0.54571 0.0
C279 C 0.4956 0.57106 0.54708 0.0
C280 C 0.83843 0.34893 0.71078 0.0
C281 C 0.79637 0.28375 0.7089 0.0
C282 C 0.89505 0.42351 0.71235 0.0
C283 C 0.94075 0.48791 0.71373 0.0
C284 C 0.50559 0.83063 0.87744 0.0
C285 C 0.52877 0.78861 0.87555 0.0
C286 C 0.48757 0.88722 0.87901 0.0
C287 C 0.46884 0.93291 0.88041 0.0
C288 C 0.56008 0.42346 0.86916 0.0
C289 C 0.57882 0.48788 0.86777 0.0
C290 C 0.54205 0.34886 0.87074 0.0
C291 C 0.51886 0.28366 0.87263 0.0
C292 C 0.15271 0.55237 1.03586 0.0
C293 C 0.10701 0.57109 1.03446 0.0
C294 C 0.20931 0.53439 1.03744 0.0
C295 C 0.25137 0.51125 1.03933 0.0
C296 C 0.6165 0.14494 0.20251 0.0
C297 C 0.5521 0.09924 0.20112 0.0
C298 C 0.69107 0.20154 0.20408 0.0
C299 C 0.75625 0.2436 0.20596 0.0
C300 C 0.4876 0.60881 0.36917 0.0
C301 C 0.46886 0.54438 0.36779 0.0
C302 C 0.50565 0.68342 0.37073 0.0
C303 C 0.52884 0.74862 0.37261 0.0
C304 C 0.89498 0.47989 0.53585 0.0
C305 C 0.94068 0.46117 0.53447 0.0
C306 C 0.83838 0.49788 0.53742 0.0
C307 C 0.79634 0.52103 0.5393 0.0
C308 C 0.43119 0.88733 0.7025 0.0
C309 C 0.49559 0.93303 0.70111 0.0
C310 C 0.35662 0.83073 0.70407 0.0
C311 C 0.29144 0.78868 0.70595 0.0
C312 C 0.32521 0.27533 0.96065 0.0
C313 C 0.3151 0.29317 0.97829 0.0
C314 C 0.33748 0.2444 0.94188 0.0
C315 C 0.34771 0.21244 0.92728 0.0
C316 C 0.06607 0.31749 0.12731 0.0
C317 C 0.03807 0.30735 0.14495 0.0
C318 C 0.10931 0.32982 0.10855 0.0
C319 C 0.15152 0.34008 0.09397 0.0
C320 C 0.79563 0.10158 0.2752 0.0
C321 C 0.82756 0.14377 0.26061 0.0
C322 C 0.76473 0.05836 0.29396 0.0
C323 C 0.7469 0.03039 0.3116 0.0
C324 C 0.7102 0.78786 0.44185 0.0
C325 C 0.69998 0.81983 0.42726 0.0
C326 C 0.72247 0.75693 0.46062 0.0
C327 C 0.73258 0.73909 0.47826 0.0
C328 C 0.93841 0.70247 0.60852 0.0
C329 C 0.8962 0.69221 0.59393 0.0
C330 C 0.98164 0.71478 0.62728 0.0
C331 C 1.00962 0.72492 0.64492 0.0
C332 C 0.28297 0.97394 0.79396 0.0
C333 C 0.30079 1.00189 0.8116 0.0
C334 C 0.25208 0.93073 0.77519 0.0
C335 C 0.22014 0.88854 0.7606 0.0
C336 C 0.76468 0.71479 0.95422 0.0
C337 C 0.74685 0.7249 0.93658 0.0
C338 C 0.79559 0.7025 0.97299 0.0
C339 C 0.82754 0.69226 0.98758 0.0
C340 C 0.06606 0.75704 0.1209 0.0
C341 C 0.03808 0.73921 0.10326 0.0
C342 C 0.1093 0.78794 0.13966 0.0
C343 C 0.1515 0.81987 0.15425 0.0
C344 C 0.32522 0.05832 0.28757 0.0
C345 C 0.3151 0.03036 0.26993 0.0
C346 C 0.33751 0.10154 0.30633 0.0
C347 C 0.34774 0.14374 0.32093 0.0
C348 C 0.28304 0.3175 0.45425 0.0
C349 C 0.30087 0.30739 0.43661 0.0
C350 C 0.25212 0.32978 0.47302 0.0
C351 C 0.22017 0.34001 0.48762 0.0
C352 C 0.98162 0.27524 0.62092 0.0
C353 C 1.00961 0.29308 0.60328 0.0
C354 C 0.93838 0.24434 0.63967 0.0
C355 C 0.89618 0.21241 0.65426 0.0
C356 C 0.71017 0.9307 0.80632 0.0
C357 C 0.69993 0.88849 0.82091 0.0
C358 C 0.72247 0.97393 0.78756 0.0
C359 C 0.73259 1.00192 0.76993 0.0
C360 C 0.3723 0.16655 0.13211 0.0
C361 C 0.36781 0.12528 0.14624 0.0
C362 C 0.37231 0.21414 0.11611 0.0
C363 C 0.36783 0.25092 0.10198 0.0
C364 C 0.17417 0.36455 0.28278 0.0
C365 C 0.13293 0.36006 0.26864 0.0
C366 C 0.22175 0.36454 0.29879 0.0
C367 C 0.25852 0.36005 0.31292 0.0
C368 C 0.82592 0.16655 0.44944 0.0
C369 C 0.78916 0.12531 0.43529 0.0
C370 C 0.87349 0.21411 0.46544 0.0
C371 C 0.91474 0.25086 0.47958 0.0
C372 C 0.67542 0.81818 0.61608 0.0
C373 C 0.67991 0.78141 0.60195 0.0
C374 C 0.67541 0.86576 0.63209 0.0
C375 C 0.6799 0.90701 0.64623 0.0
C376 C 0.87349 0.66773 0.78275 0.0
C377 C 0.91474 0.67223 0.76861 0.0
C378 C 0.8259 0.66772 0.79875 0.0
C379 C 0.78912 0.67219 0.81289 0.0
C380 C 0.1742 0.81812 0.96543 0.0
C381 C 0.13295 0.78137 0.97956 0.0
C382 C 0.22178 0.8657 0.94943 0.0
C383 C 0.25854 0.90695 0.93529 0.0
C384 C 0.09572 0.05418 1.04023 0.0
C385 C 0.13747 0.11841 1.03954 0.0
C386 C 0.0577 0.97823 1.04129 0.0
C387 C 0.03517 0.914 0.04198 0.0
C388 C 0.09571 0.05 0.20797 0.0
C389 C 0.13745 0.0275 0.20866 0.0
C390 C 0.05771 0.08796 0.20691 0.0
C391 C 0.03519 0.12968 0.20622 0.0
C392 C 0.06186 0.08797 0.37464 0.0
C393 C 0.12608 0.12971 0.37534 0.0
C394 C 0.98592 0.04998 0.37357 0.0
C395 C 0.92169 0.02747 0.37287 0.0
C396 C 0.99 0.05404 0.5413 0.0
C397 C 1.01253 0.11828 0.542 0.0
C398 C 0.95198 0.97809 0.54022 0.0
C399 C 0.91023 0.91387 0.53953 0.0
C400 C 0.98998 0.94432 0.70689 0.0
C401 C 1.0125 0.9026 0.7062 0.0
C402 C 0.95198 0.98229 0.70797 0.0
C403 C 0.91024 1.00478 0.70866 0.0
C404 C 0.06177 0.98229 0.87357 0.0
C405 C 0.126 1.0048 0.87288 0.0
C406 C 0.98583 0.9443 0.87463 0.0
C407 C 0.92161 0.90256 0.87532 0.0
loop_
_geom_bond_atom_site_label_1
_geom_bond_atom_site_label_2
_geom_bond_distance
_geom_bond_site_symmetry_2
_ccdc_geom_bond_type
Fe0 O2 1.918 1_556 S
Fe0 O5 1.997 1_556 S
Fe0 O6 2.001 1_556 S
Fe0 O11 1.976 . S
Fe0 O14 1.996 . S
Fe1 O2 1.918 . S
Fe1 O9 1.997 . S
Fe1 O12 1.996 1_554 S
Fe1 O16 1.980 . S
Fe1 O19 2.002 . S
O2 Fe0 1.918 1_554 S
O2 Fe1 1.918 . S
O2 Fe3 1.918 . S
Fe3 O2 1.918 . S
Fe3 O4 2.002 . S
Fe3 O13 1.976 . S
Fe3 O17 1.996 . S
Fe3 O20 1.997 . S
O4 Fe3 2.002 . S
O4 C21 1.295 . S
O5 Fe0 1.997 1_554 S
O5 C21 1.235 . S
O6 Fe0 2.001 1_554 S
O6 C7 1.297 . S
C7 O6 1.297 . S
C7 O9 1.235 . S
C8 O13 1.287 . S
C8 O14 1.255 1_554 S
O9 Fe1 1.997 . S
O9 C7 1.235 . S
C10 O16 1.310 . S
C10 O17 1.255 . S
O11 Fe0 1.976 . S
O11 C18 1.287 . S
O12 Fe1 1.996 1_556 S
O12 C18 1.255 . S
O13 Fe3 1.976 . S
O13 C8 1.287 . S
O14 Fe0 1.996 . S
O14 C8 1.255 1_556 S
C15 O19 1.295 . S
C15 O20 1.235 . S
O16 Fe1 1.980 . S
O16 C10 1.310 . S
O17 Fe3 1.996 . S
O17 C10 1.255 . S
C18 O11 1.287 . S
C18 O12 1.255 . S
O19 Fe1 2.002 . S
O19 C15 1.295 . S
O20 Fe3 1.997 . S
O20 C15 1.235 . S
C21 O4 1.295 . S
C21 O5 1.235 . S
Fe22 O24 1.918 . S
Fe22 O27 1.997 1_655 S
Fe22 O28 2.002 . S
Fe22 O33 1.976 . S
Fe22 O36 1.996 . S
Fe23 O24 1.918 . S
Fe23 O31 1.997 . S
Fe23 O34 1.996 . S
Fe23 O38 1.976 . S
Fe23 O41 2.002 . S
O24 Fe22 1.918 . S
O24 Fe23 1.918 . S
O24 Fe25 1.918 1_655 S
Fe25 O24 1.918 1_455 S
Fe25 O26 2.002 . S
Fe25 O35 1.976 . S
Fe25 O39 1.996 . S
Fe25 O42 1.997 . S
O26 Fe25 2.002 . S
O26 C43 1.295 . S
O27 Fe22 1.997 1_455 S
O27 C43 1.235 . S
O28 Fe22 2.002 . S
O28 C29 1.295 . S
C29 O28 1.295 . S
C29 O31 1.235 . S
C30 O35 1.287 . S
C30 O36 1.255 1_455 S
O31 Fe23 1.997 . S
O31 C29 1.235 . S
C32 O38 1.287 . S
C32 O39 1.255 1_655 S
O33 Fe22 1.976 . S
O33 C40 1.287 . S
O34 Fe23 1.996 . S
O34 C40 1.255 . S
O35 Fe25 1.976 . S
O35 C30 1.287 . S
O36 Fe22 1.996 . S
O36 C30 1.255 1_655 S
C37 O41 1.295 1_455 S
C37 O42 1.235 . S
O38 Fe23 1.976 . S
O38 C32 1.287 . S
O39 Fe25 1.996 . S
O39 C32 1.255 1_455 S
C40 O33 1.287 . S
C40 O34 1.255 . S
O41 Fe23 2.002 . S
O41 C37 1.295 1_655 S
O42 Fe25 1.997 . S
O42 C37 1.235 . S
C43 O26 1.295 . S
C43 O27 1.235 . S
Fe44 O46 1.918 . S
Fe44 O49 1.997 . S
Fe44 O50 2.002 . S
Fe44 O55 1.976 . S
Fe44 O58 1.996 . S
Fe45 O46 1.918 1_545 S
Fe45 O53 1.997 . S
Fe45 O56 1.996 . S
Fe45 O60 1.976 . S
Fe45 O63 2.002 . S
O46 Fe44 1.918 . S
O46 Fe45 1.918 1_565 S
O46 Fe47 1.918 . S
Fe47 O46 1.918 . S
Fe47 O48 2.002 . S
Fe47 O57 1.976 . S
Fe47 O61 1.996 . S
Fe47 O64 1.997 1_565 S
O48 Fe47 2.002 . S
O48 C65 1.295 . S
O49 Fe44 1.997 . S
O49 C65 1.235 . S
O50 Fe44 2.002 . S
O50 C51 1.295 1_565 S
C51 O50 1.295 1_545 S
C51 O53 1.235 . S
C52 O57 1.287 . S
C52 O58 1.255 . S
O53 Fe45 1.997 . S
O53 C51 1.235 . S
C54 O60 1.287 . S
C54 O61 1.255 1_545 S
O55 Fe44 1.976 . S
O55 C62 1.287 . S
O56 Fe45 1.996 . S
O56 C62 1.255 1_545 S
O57 Fe47 1.976 . S
O57 C52 1.287 . S
O58 Fe44 1.996 . S
O58 C52 1.255 . S
C59 O63 1.295 . S
C59 O64 1.235 . S
O60 Fe45 1.976 . S
O60 C54 1.287 . S
O61 Fe47 1.996 . S
O61 C54 1.255 1_565 S
C62 O55 1.287 . S
C62 O56 1.255 1_565 S
O63 Fe45 2.002 . S
O63 C59 1.295 . S
O64 Fe47 1.997 1_545 S
O64 C59 1.235 . S
C65 O48 1.295 . S
C65 O49 1.235 . S
Fe66 O68 1.918 . S
Fe66 O71 1.997 . S
Fe66 O72 2.002 . S
Fe66 O77 1.976 . S
Fe66 O80 1.996 . S
Fe67 O68 1.918 . S
Fe67 O75 1.997 . S
Fe67 O78 1.996 . S
Fe67 O82 1.976 . S
Fe67 O85 2.002 . S
O68 Fe66 1.918 . S
O68 Fe67 1.918 . S
O68 Fe69 1.918 . S
Fe69 O68 1.918 . S
Fe69 O70 2.002 . S
Fe69 O79 1.976 . S
Fe69 O83 1.996 . S
Fe69 O86 1.997 . S
O70 Fe69 2.002 . S
O70 C87 1.295 . S
O71 Fe66 1.997 . S
O71 C87 1.235 . S
O72 Fe66 2.002 . S
O72 C73 1.295 . S
C73 O72 1.295 . S
C73 O75 1.235 . S
C74 O79 1.287 . S
C74 O80 1.255 . S
O75 Fe67 1.997 . S
O75 C73 1.235 . S
C76 O82 1.287 . S
C76 O83 1.255 . S
O77 Fe66 1.976 . S
O77 C84 1.287 . S
O78 Fe67 1.996 . S
O78 C84 1.255 . S
O79 Fe69 1.976 . S
O79 C74 1.287 . S
O80 Fe66 1.996 . S
O80 C74 1.255 . S
C81 O85 1.295 . S
C81 O86 1.235 . S
O82 Fe67 1.976 . S
O82 C76 1.287 . S
O83 Fe69 1.996 . S
O83 C76 1.255 . S
C84 O77 1.287 . S
C84 O78 1.255 . S
O85 Fe67 2.002 . S
O85 C81 1.295 . S
O86 Fe69 1.997 . S
O86 C81 1.235 . S
C87 O70 1.295 . S
C87 O71 1.235 . S
Fe88 O90 1.918 . S
Fe88 O93 1.997 1_455 S
Fe88 O94 2.002 . S
Fe88 O99 1.976 . S
Fe88 O102 1.996 . S
Fe89 O90 1.918 . S
Fe89 O97 1.997 . S
Fe89 O100 1.996 . S
Fe89 O104 1.976 . S
Fe89 O107 2.002 . S
O90 Fe88 1.918 . S
O90 Fe89 1.918 . S
O90 Fe91 1.918 1_455 S
Fe91 O90 1.918 1_655 S
Fe91 O92 2.002 . S
Fe91 O101 1.976 . S
Fe91 O105 1.996 . S
Fe91 O108 1.997 . S
O92 Fe91 2.002 . S
O92 C109 1.295 . S
O93 Fe88 1.997 1_655 S
O93 C109 1.235 . S
O94 Fe88 2.002 . S
O94 C95 1.295 . S
C95 O94 1.295 . S
C95 O97 1.235 . S
C96 O101 1.287 . S
C96 O102 1.255 1_655 S
O97 Fe89 1.997 . S
O97 C95 1.235 . S
C98 O104 1.287 . S
C98 O105 1.255 1_455 S
O99 Fe88 1.976 . S
O99 C106 1.287 . S
O100 Fe89 1.996 . S
O100 C106 1.255 . S
O101 Fe91 1.976 . S
O101 C96 1.287 . S
O102 Fe88 1.996 . S
O102 C96 1.255 1_455 S
C103 O107 1.295 1_655 S
C103 O108 1.235 . S
O104 Fe89 1.976 . S
O104 C98 1.287 . S
O105 Fe91 1.996 . S
O105 C98 1.255 1_655 S
C106 O99 1.287 . S
C106 O100 1.255 . S
O107 Fe89 2.002 . S
O107 C103 1.295 1_455 S
O108 Fe91 1.997 . S
O108 C103 1.235 . S
C109 O92 1.295 . S
C109 O93 1.235 . S
Fe110 O112 1.918 . S
Fe110 O115 1.997 . S
Fe110 O116 2.002 . S
Fe110 O121 1.976 . S
Fe110 O124 1.996 . S
Fe111 O112 1.918 1_565 S
Fe111 O119 1.997 . S
Fe111 O122 1.996 . S
Fe111 O126 1.976 . S
Fe111 O129 2.002 . S
O112 Fe110 1.918 . S
O112 Fe111 1.918 1_545 S
O112 Fe113 1.918 . S
Fe113 O112 1.918 . S
Fe113 O114 2.002 . S
Fe113 O123 1.976 . S
Fe113 O127 1.996 . S
Fe113 O130 1.997 1_545 S
O114 Fe113 2.002 . S
O114 C131 1.295 . S
O115 Fe110 1.997 . S
O115 C131 1.235 . S
O116 Fe110 2.002 . S
O116 C117 1.295 1_545 S
C117 O116 1.295 1_565 S
C117 O119 1.235 . S
C118 O123 1.287 . S
C118 O124 1.255 . S
O119 Fe111 1.997 . S
O119 C117 1.235 . S
C120 O126 1.287 . S
C120 O127 1.255 1_565 S
O121 Fe110 1.976 . S
O121 C128 1.287 . S
O122 Fe111 1.996 . S
O122 C128 1.255 1_565 S
O123 Fe113 1.976 . S
O123 C118 1.287 . S
O124 Fe110 1.996 . S
O124 C118 1.255 . S
C125 O129 1.295 . S
C125 O130 1.235 . S
O126 Fe111 1.976 . S
O126 C120 1.287 . S
O127 Fe113 1.996 . S
O127 C120 1.255 1_545 S
C128 O121 1.287 . S
C128 O122 1.255 1_545 S
O129 Fe111 2.002 . S
O129 C125 1.295 . S
O130 Fe113 1.997 1_565 S
O130 C125 1.235 . S
C131 O114 1.295 . S
C131 O115 1.235 . S
Fe132 O134 1.918 . S
Fe132 O137 1.997 . S
Fe132 O138 2.002 . S
Fe132 O143 1.976 . S
Fe132 O146 1.996 . S
Fe133 O134 1.918 . S
Fe133 O141 1.997 . S
Fe133 O144 1.996 . S
Fe133 O148 1.976 . S
Fe133 O151 2.002 . S
O134 Fe132 1.918 . S
O134 Fe133 1.918 . S
O134 Fe135 1.918 . S
Fe135 O134 1.918 . S
Fe135 O136 2.002 . S
Fe135 O145 1.976 . S
Fe135 O149 1.996 . S
Fe135 O152 1.997 . S
O136 Fe135 2.002 . S
O136 C153 1.295 . S
O137 Fe132 1.997 . S
O137 C153 1.235 . S
O138 Fe132 2.002 . S
O138 C139 1.295 . S
C139 O138 1.295 . S
C139 O141 1.235 . S
C140 O145 1.287 . S
C140 O146 1.255 . S
O141 Fe133 1.997 . S
O141 C139 1.235 . S
C142 O148 1.287 . S
C142 O149 1.255 . S
O143 Fe132 1.976 . S
O143 C150 1.287 . S
O144 Fe133 1.996 . S
O144 C150 1.255 . S
O145 Fe135 1.976 . S
O145 C140 1.287 . S
O146 Fe132 1.996 . S
O146 C140 1.255 . S
C147 O151 1.295 . S
C147 O152 1.235 . S
O148 Fe133 1.976 . S
O148 C142 1.287 . S
O149 Fe135 1.996 . S
O149 C142 1.255 . S
C150 O143 1.287 . S
C150 O144 1.255 . S
O151 Fe133 2.002 . S
O151 C147 1.295 . S
O152 Fe135 1.997 . S
O152 C147 1.235 . S
C153 O136 1.295 . S
C153 O137 1.235 . S
Fe154 O156 1.918 1_455 S
Fe154 O159 1.997 . S
Fe154 O160 2.002 . S
Fe154 O165 1.976 . S
Fe154 O168 1.996 1_556 S
Fe155 O156 1.918 . S
Fe155 O163 1.997 1_655 S
Fe155 O166 1.996 . S
Fe155 O170 1.976 . S
Fe155 O173 2.002 . S
O156 Fe154 1.918 1_655 S
O156 Fe155 1.918 . S
O156 Fe157 1.933 . S
Fe157 O156 1.933 . S
Fe157 O158 2.005 . S
Fe157 O167 1.942 1_556 S
Fe157 O171 1.991 1_556 S
Fe157 O174 2.028 . S
O158 Fe157 2.005 . S
O158 C175 1.295 1_655 S
O159 Fe154 1.997 . S
O159 C175 1.235 . S
O160 Fe154 2.002 . S
O160 C161 1.295 . S
C161 O160 1.295 . S
C161 O163 1.235 . S
C162 O167 1.287 . S
C162 O168 1.255 1_655 S
O163 Fe155 1.997 1_455 S
O163 C161 1.235 . S
C164 O170 1.287 . S
C164 O171 1.255 1_556 S
O165 Fe154 1.976 . S
O165 C172 1.287 . S
O166 Fe155 1.996 . S
O166 C172 1.255 1_655 S
O167 Fe157 1.942 1_554 S
O167 C162 1.287 . S
O168 Fe154 1.996 1_554 S
O168 C162 1.255 1_455 S
C169 O173 1.295 . S
C169 O174 1.235 . S
O170 Fe155 1.976 . S
O170 C164 1.287 . S
O171 Fe157 1.991 1_554 S
O171 C164 1.255 1_554 S
C172 O165 1.287 . S
C172 O166 1.255 1_455 S
O173 Fe155 2.002 . S
O173 C169 1.295 . S
O174 Fe157 2.028 . S
O174 C169 1.235 . S
C175 O158 1.295 1_455 S
C175 O159 1.235 . S
Fe176 O178 1.918 1_545 S
Fe176 O181 1.997 . S
Fe176 O182 2.002 . S
Fe176 O187 1.976 . S
Fe176 O190 1.996 . S
Fe177 O178 1.918 . S
Fe177 O185 1.997 1_565 S
Fe177 O188 1.996 . S
Fe177 O192 1.976 . S
Fe177 O195 2.002 . S
O178 Fe176 1.918 1_565 S
O178 Fe177 1.918 . S
O178 Fe179 1.918 . S
Fe179 O178 1.918 . S
Fe179 O180 2.002 . S
Fe179 O189 1.976 . S
Fe179 O193 1.996 . S
Fe179 O196 1.997 . S
O180 Fe179 2.002 . S
O180 C197 1.295 1_565 S
O181 Fe176 1.997 . S
O181 C197 1.235 . S
O182 Fe176 2.002 . S
O182 C183 1.295 . S
C183 O182 1.295 . S
C183 O185 1.235 . S
C184 O189 1.287 . S
C184 O190 1.255 1_565 S
O185 Fe177 1.997 1_545 S
O185 C183 1.235 . S
C186 O192 1.287 . S
C186 O193 1.255 . S
O187 Fe176 1.976 . S
O187 C194 1.287 . S
O188 Fe177 1.996 . S
O188 C194 1.255 1_565 S
O189 Fe179 1.976 . S
O189 C184 1.287 . S
O190 Fe176 1.996 . S
O190 C184 1.255 1_545 S
C191 O195 1.295 . S
C191 O196 1.235 . S
O192 Fe177 1.976 . S
O192 C186 1.287 . S
O193 Fe179 1.996 . S
O193 C186 1.255 . S
C194 O187 1.287 . S
C194 O188 1.255 1_545 S
O195 Fe177 2.002 . S
O195 C191 1.295 . S
O196 Fe179 1.997 . S
O196 C191 1.235 . S
C197 O180 1.295 1_545 S
C197 O181 1.235 . S
Fe198 O200 1.918 . S
Fe198 O203 1.997 . S
Fe198 O204 2.002 . S
Fe198 O209 1.976 . S
Fe198 O212 1.996 . S
Fe199 O200 1.918 . S
Fe199 O207 1.997 . S
Fe199 O210 1.996 . S
Fe199 O214 1.976 . S
Fe199 O217 2.002 . S
O200 Fe198 1.918 . S
O200 Fe199 1.918 . S
O200 Fe201 1.918 . S
Fe201 O200 1.918 . S
Fe201 O202 2.002 . S
Fe201 O211 1.976 . S
Fe201 O215 1.996 . S
Fe201 O218 1.997 . S
O202 Fe201 2.002 . S
O202 C219 1.295 . S
O203 Fe198 1.997 . S
O203 C219 1.235 . S
O204 Fe198 2.002 . S
O204 C205 1.295 . S
C205 O204 1.295 . S
C205 O207 1.235 . S
C206 O211 1.287 . S
C206 O212 1.255 . S
O207 Fe199 1.997 . S
O207 C205 1.235 . S
C208 O214 1.287 . S
C208 O215 1.255 . S
O209 Fe198 1.976 . S
O209 C216 1.287 . S
O210 Fe199 1.996 . S
O210 C216 1.255 . S
O211 Fe201 1.976 . S
O211 C206 1.287 . S
O212 Fe198 1.996 . S
O212 C206 1.255 . S
C213 O217 1.295 . S
C213 O218 1.235 . S
O214 Fe199 1.976 . S
O214 C208 1.287 . S
O215 Fe201 1.996 . S
O215 C208 1.255 . S
C216 O209 1.287 . S
C216 O210 1.255 . S
O217 Fe199 2.002 . S
O217 C213 1.295 . S
O218 Fe201 1.997 . S
O218 C213 1.235 . S
C219 O202 1.295 . S
C219 O203 1.235 . S
Fe220 O222 1.918 . S
Fe220 O225 1.997 1_455 S
Fe220 O226 2.002 . S
Fe220 O231 1.976 . S
Fe220 O234 1.996 . S
Fe221 O222 1.918 . S
Fe221 O229 1.997 . S
Fe221 O232 1.996 . S
Fe221 O236 1.976 . S
Fe221 O239 2.002 . S
O222 Fe220 1.918 . S
O222 Fe221 1.918 . S
O222 Fe223 1.918 1_455 S
Fe223 O222 1.918 1_655 S
Fe223 O224 2.002 . S
Fe223 O233 1.976 . S
Fe223 O237 1.996 . S
Fe223 O240 1.997 . S
O224 Fe223 2.002 . S
O224 C241 1.295 . S
O225 Fe220 1.997 1_655 S
O225 C241 1.235 . S
O226 Fe220 2.002 . S
O226 C227 1.295 . S
C227 O226 1.295 . S
C227 O229 1.235 . S
C228 O233 1.287 . S
C228 O234 1.255 1_655 S
O229 Fe221 1.997 . S
O229 C227 1.235 . S
C230 O236 1.287 . S
C230 O237 1.255 1_455 S
O231 Fe220 1.976 . S
O231 C238 1.287 . S
O232 Fe221 1.996 . S
O232 C238 1.255 . S
O233 Fe223 1.976 . S
O233 C228 1.287 . S
O234 Fe220 1.996 . S
O234 C228 1.255 1_455 S
C235 O239 1.295 1_655 S
C235 O240 1.235 . S
O236 Fe221 1.976 . S
O236 C230 1.287 . S
O237 Fe223 1.996 . S
O237 C230 1.255 1_655 S
C238 O231 1.287 . S
C238 O232 1.255 . S
O239 Fe221 2.002 . S
O239 C235 1.295 1_455 S
O240 Fe223 1.997 . S
O240 C235 1.235 . S
C241 O224 1.295 . S
C241 O225 1.235 . S
Fe242 O244 1.918 1_565 S
Fe242 O247 1.997 . S
Fe242 O248 2.002 . S
Fe242 O253 1.976 . S
Fe242 O256 1.996 . S
Fe243 O244 1.918 . S
Fe243 O251 1.997 1_545 S
Fe243 O254 1.996 . S
Fe243 O258 1.976 . S
Fe243 O261 2.002 . S
O244 Fe242 1.918 1_545 S
O244 Fe243 1.918 . S
O244 Fe245 1.918 . S
Fe245 O244 1.918 . S
Fe245 O246 2.002 . S
Fe245 O255 1.976 . S
Fe245 O259 1.996 . S
Fe245 O262 1.997 . S
O246 Fe245 2.002 . S
O246 C263 1.295 1_545 S
O247 Fe242 1.997 . S
O247 C263 1.235 . S
O248 Fe242 2.002 . S
O248 C249 1.295 . S
C249 O248 1.295 . S
C249 O251 1.235 . S
C250 O255 1.287 . S
C250 O256 1.255 1_545 S
O251 Fe243 1.997 1_565 S
O251 C249 1.235 . S
C252 O258 1.287 . S
C252 O259 1.255 . S
O253 Fe242 1.976 . S
O253 C260 1.287 . S
O254 Fe243 1.996 . S
O254 C260 1.255 1_545 S
O255 Fe245 1.976 . S
O255 C250 1.287 . S
O256 Fe242 1.996 . S
O256 C250 1.255 1_565 S
C257 O261 1.295 . S
C257 O262 1.235 . S
O258 Fe243 1.976 . S
O258 C252 1.287 . S
O259 Fe245 1.996 . S
O259 C252 1.255 . S
C260 O253 1.287 . S
C260 O254 1.255 1_565 S
O261 Fe243 2.002 . S
O261 C257 1.295 . S
O262 Fe245 1.997 . S
O262 C257 1.235 . S
C263 O246 1.295 1_565 S
C263 O247 1.235 . S
C264 C265 1.169 1_554 S
C264 C266 1.380 . S
C265 C264 1.169 1_556 S
C266 C264 1.380 . S
C266 C267 1.170 . S
C267 C266 1.170 . S
C268 C269 1.170 . S
C268 C270 1.380 . S
C269 C268 1.170 . S
C270 C268 1.380 . S
C270 C271 1.170 . S
C271 C270 1.170 . S
C272 C273 1.170 . S
C272 C274 1.380 . S
C273 C272 1.170 . S
C274 C272 1.380 . S
C274 C275 1.170 . S
C275 C274 1.170 . S
C276 C277 1.170 . S
C276 C278 1.380 . S
C277 C276 1.170 . S
C278 C276 1.380 . S
C278 C279 1.170 . S
C279 C278 1.170 . S
C280 C281 1.170 . S
C280 C282 1.380 . S
C281 C280 1.170 . S
C282 C280 1.380 . S
C282 C283 1.170 . S
C283 C282 1.170 . S
C284 C285 1.170 . S
C284 C286 1.380 . S
C285 C284 1.170 . S
C286 C284 1.380 . S
C286 C287 1.170 . S
C287 C286 1.170 . S
C288 C289 1.170 . S
C288 C290 1.380 . S
C289 C288 1.170 . S
C290 C288 1.380 . S
C290 C291 1.170 . S
C291 C290 1.170 . S
C292 C293 1.170 . S
C292 C294 1.380 . S
C293 C292 1.170 . S
C294 C292 1.380 . S
C294 C295 1.170 . S
C295 C294 1.170 . S
C296 C297 1.170 . S
C296 C298 1.380 . S
C297 C296 1.170 . S
C298 C296 1.380 . S
C298 C299 1.170 . S
C299 C298 1.170 . S
C300 C301 1.170 . S
C300 C302 1.380 . S
C301 C300 1.170 . S
C302 C300 1.380 . S
C302 C303 1.170 . S
C303 C302 1.170 . S
C304 C305 1.170 . S
C304 C306 1.380 . S
C305 C304 1.170 . S
C306 C304 1.380 . S
C306 C307 1.170 . S
C307 C306 1.170 . S
C308 C309 1.170 . S
C308 C310 1.380 . S
C309 C308 1.170 . S
C310 C308 1.380 . S
C310 C311 1.170 . S
C311 C310 1.170 . S
C312 C313 1.170 . S
C312 C314 1.380 . S
C313 C312 1.170 . S
C314 C312 1.380 . S
C314 C315 1.170 . S
C315 C314 1.170 . S
C316 C317 1.170 . S
C316 C318 1.380 . S
C317 C316 1.170 . S
C318 C316 1.380 . S
C318 C319 1.170 . S
C319 C318 1.170 . S
C320 C321 1.170 . S
C320 C322 1.380 . S
C321 C320 1.170 . S
C322 C320 1.380 . S
C322 C323 1.170 . S
C323 C322 1.170 . S
C324 C325 1.170 . S
C324 C326 1.380 . S
C325 C324 1.170 . S
C326 C324 1.380 . S
C326 C327 1.170 . S
C327 C326 1.170 . S
C328 C329 1.170 . S
C328 C330 1.380 . S
C329 C328 1.170 . S
C330 C328 1.380 . S
C330 C331 1.170 . S
C331 C330 1.170 . S
C332 C333 1.170 . S
C332 C334 1.380 . S
C333 C332 1.170 . S
C334 C332 1.380 . S
C334 C335 1.170 . S
C335 C334 1.170 . S
C336 C337 1.170 . S
C336 C338 1.380 . S
C337 C336 1.170 . S
C338 C336 1.380 . S
C338 C339 1.170 . S
C339 C338 1.170 . S
C340 C341 1.170 . S
C340 C342 1.380 . S
C341 C340 1.170 . S
C342 C340 1.380 . S
C342 C343 1.170 . S
C343 C342 1.170 . S
C344 C345 1.170 . S
C344 C346 1.380 . S
C345 C344 1.170 . S
C346 C344 1.380 . S
C346 C347 1.170 . S
C347 C346 1.170 . S
C348 C349 1.170 . S
C348 C350 1.380 . S
C349 C348 1.170 . S
C350 C348 1.380 . S
C350 C351 1.170 . S
C351 C350 1.170 . S
C352 C353 1.170 . S
C352 C354 1.380 . S
C353 C352 1.170 . S
C354 C352 1.380 . S
C354 C355 1.170 . S
C355 C354 1.170 . S
C356 C357 1.170 . S
C356 C358 1.380 . S
C357 C356 1.170 . S
C358 C356 1.380 . S
C358 C359 1.170 . S
C359 C358 1.170 . S
C360 C361 1.170 . S
C360 C362 1.380 . S
C361 C360 1.170 . S
C362 C360 1.380 . S
C362 C363 1.170 . S
C363 C362 1.170 . S
C364 C365 1.170 . S
C364 C366 1.380 . S
C365 C364 1.170 . S
C366 C364 1.380 . S
C366 C367 1.170 . S
C367 C366 1.170 . S
C368 C369 1.170 . S
C368 C370 1.380 . S
C369 C368 1.170 . S
C370 C368 1.380 . S
C370 C371 1.170 . S
C371 C370 1.170 . S
C372 C373 1.170 . S
C372 C374 1.380 . S
C373 C372 1.170 . S
C374 C372 1.380 . S
C374 C375 1.170 . S
C375 C374 1.170 . S
C376 C377 1.170 . S
C376 C378 1.380 . S
C377 C376 1.170 . S
C378 C376 1.380 . S
C378 C379 1.170 . S
C379 C378 1.170 . S
C380 C381 1.170 . S
C380 C382 1.380 . S
C381 C380 1.170 . S
C382 C380 1.380 . S
C382 C383 1.170 . S
C383 C382 1.170 . S
C384 C385 1.181 . S
C384 C386 1.371 1_544 S
C385 C384 1.181 . S
C386 C384 1.371 1_566 S
C386 C387 1.170 . S
C387 C386 1.170 . S
C388 C389 1.170 . S
C388 C390 1.380 . S
C389 C388 1.170 . S
C390 C388 1.380 . S
C390 C391 1.170 . S
C391 C390 1.170 . S
C392 C393 1.170 . S
C392 C394 1.380 1_455 S
C393 C392 1.170 . S
C394 C392 1.380 1_655 S
C394 C395 1.170 . S
C395 C394 1.170 . S
C396 C397 1.170 . S
C396 C398 1.380 1_545 S
C397 C396 1.170 . S
C398 C396 1.380 1_565 S
C398 C399 1.170 . S
C399 C398 1.170 . S
C400 C401 1.170 . S
C400 C402 1.380 . S
C401 C400 1.170 . S
C402 C400 1.380 . S
C402 C403 1.170 . S
C403 C402 1.170 . S
C404 C405 1.170 . S
C404 C406 1.380 1_455 S
C405 C404 1.170 . S
C406 C404 1.380 1_655 S
C406 C407 1.170 . S
C407 C406 1.170 . S
C265 C164 1.727 . S
C267 C10 1.810 . S
C269 C186 1.740 . S
C271 C30 1.798 . S
C273 C216 1.763 . S
C275 C54 1.792 . S
C277 C238 1.726 . S
C279 C74 1.809 . S
C281 C252 1.760 . S
C283 C96 1.797 . S
C285 C142 1.749 . S
C287 C120 1.794 . S
C289 C150 1.798 . S
C291 C118 1.759 . S
C293 C172 1.792 . S
C295 C8 1.763 1_556 S
C297 C194 1.801 . S
C299 C40 1.734 . S
C301 C206 1.792 . S
C303 C52 1.763 . S
C305 C228 1.797 . S
C307 C84 1.761 . S
C309 C260 1.792 . S
C311 C106 1.763 . S
C313 C18 1.470 . S
C315 C131 1.476 . S
C317 C32 1.472 1_455 S
C319 C21 1.478 . S
C321 C29 1.483 . S
C323 C62 1.477 1_545 S
C325 C65 1.492 . S
C327 C76 1.487 . S
C329 C73 1.502 . S
C331 C98 1.499 1_655 S
C333 C128 1.498 1_565 S
C335 C95 1.502 . S
C337 C140 1.470 . S
C339 C169 1.476 . S
C341 C162 1.469 1_455 S
C343 C191 1.476 . S
C345 C184 1.483 1_545 S
C347 C205 1.489 . S
C349 C208 1.491 . S
C351 C227 1.496 . S
C353 C230 1.498 1_655 S
C355 C257 1.502 . S
C357 C147 1.492 . S
C359 C250 1.488 1_565 S
C361 C183 1.301 . S
C363 C15 1.291 . S
C365 C43 1.298 . S
C367 C219 1.287 . S
C369 C59 1.282 . S
C371 C241 1.293 . S
C373 C87 1.281 . S
C375 C249 1.291 . S
C377 C109 1.300 . S
C379 C139 1.299 . S
C381 C161 1.279 . S
C383 C125 1.282 . S
C385 C7 0.550 . S
C387 C175 0.566 . S
C389 C197 0.554 . S
C391 C37 0.563 . S
C393 C213 0.547 . S
C395 C51 0.581 . S
C397 C235 0.541 . S
C399 C81 0.576 . S
C401 C103 0.584 . S
C403 C263 0.533 . S
C405 C117 0.581 . S
C407 C153 0.546 . S
