# Generated by pormake.
# Topology umu, (4)-cn, num edge types: 1
# Building blocks:
#     Node 0, Type 0, BuildingBlock: CEKHIL_clean_sbu_0, # of connection points: 4
#     Node 1, Type 0, BuildingBlock: CEKHIL_clean_sbu_0, # of connection points: 4
#     Node 2, Type 0, BuildingBlock: CEKHIL_clean_sbu_0, # of connection points: 4
#     Node 3, Type 0, BuildingBlock: CEKHIL_clean_sbu_0, # of connection points: 4
#     Node 4, Type 0, BuildingBlock: CEKHIL_clean_sbu_0, # of connection points: 4
#     Node 5, Type 0, BuildingBlock: CEKHIL_clean_sbu_0, # of connection points: 4
#     Node 6, Type 0, BuildingBlock: CEKHIL_clean_sbu_0, # of connection points: 4
#     Node 7, Type 0, BuildingBlock: CEKHIL_clean_sbu_0, # of connection points: 4
#     Node 8, Type 0, BuildingBlock: CEKHIL_clean_sbu_0, # of connection points: 4
#     Node 9, Type 0, BuildingBlock: CEKHIL_clean_sbu_0, # of connection points: 4
#     Node 10, Type 0, BuildingBlock: CEKHIL_clean_sbu_0, # of connection points: 4
#     Node 11, Type 0, BuildingBlock: CEKHIL_clean_sbu_0, # of connection points: 4
#     Node 12, Type 0, BuildingBlock: CEKHIL_clean_sbu_0, # of connection points: 4
#     Node 13, Type 0, BuildingBlock: CEKHIL_clean_sbu_0, # of connection points: 4
#     Node 14, Type 0, BuildingBlock: CEKHIL_clean_sbu_0, # of connection points: 4
#     Node 15, Type 0, BuildingBlock: CEKHIL_clean_sbu_0, # of connection points: 4
#     Node 16, Type 0, BuildingBlock: CEKHIL_clean_sbu_0, # of connection points: 4
#     Node 17, Type 0, BuildingBlock: CEKHIL_clean_sbu_0, # of connection points: 4
#     Node 18, Type 0, BuildingBlock: CEKHIL_clean_sbu_0, # of connection points: 4
#     Node 19, Type 0, BuildingBlock: CEKHIL_clean_sbu_0, # of connection points: 4
#     Node 20, Type 0, BuildingBlock: CEKHIL_clean_sbu_0, # of connection points: 4
#     Node 21, Type 0, BuildingBlock: CEKHIL_clean_sbu_0, # of connection points: 4
#     Node 22, Type 0, BuildingBlock: CEKHIL_clean_sbu_0, # of connection points: 4
#     Node 23, Type 0, BuildingBlock: CEKHIL_clean_sbu_0, # of connection points: 4
#     Node 24, Type 0, BuildingBlock: CEKHIL_clean_sbu_0, # of connection points: 4
#     Node 25, Type 0, BuildingBlock: CEKHIL_clean_sbu_0, # of connection points: 4
#     Node 26, Type 0, BuildingBlock: CEKHIL_clean_sbu_0, # of connection points: 4
#     Node 27, Type 0, BuildingBlock: CEKHIL_clean_sbu_0, # of connection points: 4
#     Node 28, Type 0, BuildingBlock: CEKHIL_clean_sbu_0, # of connection points: 4
#     Node 29, Type 0, BuildingBlock: CEKHIL_clean_sbu_0, # of connection points: 4
#     Node 30, Type 0, BuildingBlock: CEKHIL_clean_sbu_0, # of connection points: 4
#     Node 31, Type 0, BuildingBlock: CEKHIL_clean_sbu_0, # of connection points: 4
#     Edge 32, Type (0, 0), BuildingBlock: XIVTED_clean_linker_0, # of connection points: 2
#     Edge 33, Type (0, 0), BuildingBlock: XIVTED_clean_linker_0, # of connection points: 2
#     Edge 34, Type (0, 0), BuildingBlock: XIVTED_clean_linker_0, # of connection points: 2
#     Edge 35, Type (0, 0), BuildingBlock: XIVTED_clean_linker_0, # of connection points: 2
#     Edge 36, Type (0, 0), BuildingBlock: XIVTED_clean_linker_0, # of connection points: 2
#     Edge 37, Type (0, 0), BuildingBlock: XIVTED_clean_linker_0, # of connection points: 2
#     Edge 38, Type (0, 0), BuildingBlock: XIVTED_clean_linker_0, # of connection points: 2
#     Edge 39, Type (0, 0), BuildingBlock: XIVTED_clean_linker_0, # of connection points: 2
#     Edge 40, Type (0, 0), BuildingBlock: XIVTED_clean_linker_0, # of connection points: 2
#     Edge 41, Type (0, 0), BuildingBlock: XIVTED_clean_linker_0, # of connection points: 2
#     Edge 42, Type (0, 0), BuildingBlock: XIVTED_clean_linker_0, # of connection points: 2
#     Edge 43, Type (0, 0), BuildingBlock: XIVTED_clean_linker_0, # of connection points: 2
#     Edge 44, Type (0, 0), BuildingBlock: XIVTED_clean_linker_0, # of connection points: 2
#     Edge 45, Type (0, 0), BuildingBlock: XIVTED_clean_linker_0, # of connection points: 2
#     Edge 46, Type (0, 0), BuildingBlock: XIVTED_clean_linker_0, # of connection points: 2
#     Edge 47, Type (0, 0), BuildingBlock: XIVTED_clean_linker_0, # of connection points: 2
#     Edge 48, Type (0, 0), BuildingBlock: XIVTED_clean_linker_0, # of connection points: 2
#     Edge 49, Type (0, 0), BuildingBlock: XIVTED_clean_linker_0, # of connection points: 2
#     Edge 50, Type (0, 0), BuildingBlock: XIVTED_clean_linker_0, # of connection points: 2
#     Edge 51, Type (0, 0), BuildingBlock: XIVTED_clean_linker_0, # of connection points: 2
#     Edge 52, Type (0, 0), BuildingBlock: XIVTED_clean_linker_0, # of connection points: 2
#     Edge 53, Type (0, 0), BuildingBlock: XIVTED_clean_linker_0, # of connection points: 2
#     Edge 54, Type (0, 0), BuildingBlock: XIVTED_clean_linker_0, # of connection points: 2
#     Edge 55, Type (0, 0), BuildingBlock: XIVTED_clean_linker_0, # of connection points: 2
#     Edge 56, Type (0, 0), BuildingBlock: XIVTED_clean_linker_0, # of connection points: 2
#     Edge 57, Type (0, 0), BuildingBlock: XIVTED_clean_linker_0, # of connection points: 2
#     Edge 58, Type (0, 0), BuildingBlock: XIVTED_clean_linker_0, # of connection points: 2
#     Edge 59, Type (0, 0), BuildingBlock: XIVTED_clean_linker_0, # of connection points: 2
#     Edge 60, Type (0, 0), BuildingBlock: XIVTED_clean_linker_0, # of connection points: 2
#     Edge 61, Type (0, 0), BuildingBlock: XIVTED_clean_linker_0, # of connection points: 2
#     Edge 62, Type (0, 0), BuildingBlock: XIVTED_clean_linker_0, # of connection points: 2
#     Edge 63, Type (0, 0), BuildingBlock: XIVTED_clean_linker_0, # of connection points: 2
#     Edge 64, Type (0, 0), BuildingBlock: XIVTED_clean_linker_0, # of connection points: 2
#     Edge 65, Type (0, 0), BuildingBlock: XIVTED_clean_linker_0, # of connection points: 2
#     Edge 66, Type (0, 0), BuildingBlock: XIVTED_clean_linker_0, # of connection points: 2
#     Edge 67, Type (0, 0), BuildingBlock: XIVTED_clean_linker_0, # of connection points: 2
#     Edge 68, Type (0, 0), BuildingBlock: XIVTED_clean_linker_0, # of connection points: 2
#     Edge 69, Type (0, 0), BuildingBlock: XIVTED_clean_linker_0, # of connection points: 2
#     Edge 70, Type (0, 0), BuildingBlock: XIVTED_clean_linker_0, # of connection points: 2
#     Edge 71, Type (0, 0), BuildingBlock: XIVTED_clean_linker_0, # of connection points: 2
#     Edge 72, Type (0, 0), BuildingBlock: XIVTED_clean_linker_0, # of connection points: 2
#     Edge 73, Type (0, 0), BuildingBlock: XIVTED_clean_linker_0, # of connection points: 2
#     Edge 74, Type (0, 0), BuildingBlock: XIVTED_clean_linker_0, # of connection points: 2
#     Edge 75, Type (0, 0), BuildingBlock: XIVTED_clean_linker_0, # of connection points: 2
#     Edge 76, Type (0, 0), BuildingBlock: XIVTED_clean_linker_0, # of connection points: 2
#     Edge 77, Type (0, 0), BuildingBlock: XIVTED_clean_linker_0, # of connection points: 2
#     Edge 78, Type (0, 0), BuildingBlock: XIVTED_clean_linker_0, # of connection points: 2
#     Edge 79, Type (0, 0), BuildingBlock: XIVTED_clean_linker_0, # of connection points: 2
#     Edge 80, Type (0, 0), BuildingBlock: XIVTED_clean_linker_0, # of connection points: 2
#     Edge 81, Type (0, 0), BuildingBlock: XIVTED_clean_linker_0, # of connection points: 2
#     Edge 82, Type (0, 0), BuildingBlock: XIVTED_clean_linker_0, # of connection points: 2
#     Edge 83, Type (0, 0), BuildingBlock: XIVTED_clean_linker_0, # of connection points: 2
#     Edge 84, Type (0, 0), BuildingBlock: XIVTED_clean_linker_0, # of connection points: 2
#     Edge 85, Type (0, 0), BuildingBlock: XIVTED_clean_linker_0, # of connection points: 2
#     Edge 86, Type (0, 0), BuildingBlock: XIVTED_clean_linker_0, # of connection points: 2
#     Edge 87, Type (0, 0), BuildingBlock: XIVTED_clean_linker_0, # of connection points: 2
#     Edge 88, Type (0, 0), BuildingBlock: XIVTED_clean_linker_0, # of connection points: 2
#     Edge 89, Type (0, 0), BuildingBlock: XIVTED_clean_linker_0, # of connection points: 2
#     Edge 90, Type (0, 0), BuildingBlock: XIVTED_clean_linker_0, # of connection points: 2
#     Edge 91, Type (0, 0), BuildingBlock: XIVTED_clean_linker_0, # of connection points: 2
#     Edge 92, Type (0, 0), BuildingBlock: XIVTED_clean_linker_0, # of connection points: 2
#     Edge 93, Type (0, 0), BuildingBlock: XIVTED_clean_linker_0, # of connection points: 2
#     Edge 94, Type (0, 0), BuildingBlock: XIVTED_clean_linker_0, # of connection points: 2
#     Edge 95, Type (0, 0), BuildingBlock: XIVTED_clean_linker_0, # of connection points: 2
# Relax obj value: 0.132
# Max RMSD: 0.097
# Mean RMSD: 0.097
data_MOF--net-umu--node1-CEKHIL_clean_sbu_0--edge1-XIVTED_clean_linker_0
_symmetry_space_group_name_H-M    P1
_symmetry_Int_Tables_number       1
_symmetry_cell_setting            triclinic
loop_
_symmetry_equiv_pos_as_xyz
'x, y, z'
_cell_length_a     80.50046
_cell_length_b     80.540993
_cell_length_c     26.202618
_cell_angle_alpha  89.915446
_cell_angle_beta   89.941962
_cell_angle_gamma 90.011241
loop_
_atom_site_label
_atom_site_type_symbol
_atom_site_fract_x
_atom_site_fract_y
_atom_site_fract_z
_atom_type_partial_charge
Co0 Co 0.22457 0.17026 0.09203 0.0
O1 O 0.21914 0.14816 0.06923 0.0
O2 O 0.2027 0.16994 0.06046 0.0
C3 C 0.23481 0.1623 0.16856 0.0
O4 O 0.22561 0.1949 0.1114 0.0
Co5 Co 0.26098 0.18036 0.12084 0.0
O6 O 0.2502 0.20058 0.14827 0.0
C7 C 0.25126 0.17491 0.01323 0.0
C8 C 0.20519 0.15418 0.05267 0.0
C9 C 0.23554 0.20478 0.13521 0.0
O10 O 0.23568 0.17497 0.02465 0.0
O11 O 0.2629 0.1752 0.0465 0.0
O12 O 0.21884 0.16427 0.1632 0.0
O13 O 0.24344 0.16432 0.12796 0.0
Co14 Co 0.10432 0.97313 0.33443 0.0
O15 O 0.1266 0.96988 0.30903 0.0
O16 O 0.10674 0.95097 0.30616 0.0
C17 C 0.11197 0.98546 0.40823 0.0
O18 O 0.08 0.97153 0.35742 0.0
Co19 Co 0.08996 1.00829 0.35909 0.0
O20 O 0.07229 0.99555 0.39415 0.0
C21 C 0.09469 0.99741 0.25198 0.0
C22 C 0.12198 0.95508 0.29549 0.0
C23 C 0.06958 0.98039 0.38308 0.0
O24 O 0.09755 0.98234 0.26607 0.0
O25 O 0.09267 1.00943 0.2833 0.0
O26 O 0.11193 0.96931 0.40505 0.0
O27 O 0.10837 0.99321 0.36691 0.0
Co28 Co 0.30652 0.85388 0.5811 0.0
O29 O 0.31005 0.87629 0.55694 0.0
O30 O 0.32877 0.85627 0.55319 0.0
C31 C 0.2941 0.86117 0.65525 0.0
O32 O 0.30784 0.82942 0.60284 0.0
Co33 Co 0.27115 0.83971 0.60445 0.0
O34 O 0.28365 0.82177 0.63886 0.0
C35 C 0.28227 0.84512 0.49782 0.0
C36 C 0.32483 0.8716 0.54326 0.0
C37 C 0.29881 0.81898 0.62794 0.0
O38 O 0.29737 0.84766 0.51221 0.0
O39 O 0.27017 0.84301 0.5289 0.0
O40 O 0.31026 0.86104 0.6522 0.0
O41 O 0.28639 0.85791 0.61363 0.0
Co42 Co 0.42626 0.05773 0.83006 0.0
O43 O 0.40384 0.06202 0.80713 0.0
O44 O 0.42458 0.0799 0.80133 0.0
C45 C 0.41895 0.04596 0.90529 0.0
O46 O 0.45089 0.05832 0.85025 0.0
Co47 Co 0.43941 0.02209 0.85476 0.0
O48 O 0.45806 0.03413 0.887 0.0
C49 C 0.43387 0.03273 0.74772 0.0
C50 C 0.40903 0.07657 0.79271 0.0
C51 C 0.46124 0.04913 0.87505 0.0
O52 O 0.43177 0.04798 0.76128 0.0
O53 O 0.43579 0.02078 0.77944 0.0
O54 O 0.41966 0.06207 0.9014 0.0
O55 O 0.42171 0.03792 0.8639 0.0
Co56 Co 0.21974 0.86614 0.05664 0.0
O57 O 0.21395 0.88812 0.07988 0.0
O58 O 0.19791 0.86601 0.08839 0.0
C59 C 0.22974 0.87394 0.9796 0.0
O60 O 0.22108 0.84161 0.03664 0.0
Co61 Co 0.2563 0.85666 0.02821 0.0
O62 O 0.24564 0.83667 -0.00152 0.0
C63 C 0.24634 0.86068 0.13617 0.0
C64 C 0.20012 0.8818 0.09645 0.0
C65 C 0.23105 0.83214 0.01147 0.0
O66 O 0.23083 0.86133 0.12403 0.0
O67 O 0.25813 0.86043 0.10338 0.0
O68 O 0.2138 0.87193 -0.0143 0.0
O69 O 0.23851 0.87239 0.02015 0.0
Co70 Co 0.4127 0.97115 0.30617 0.0
O71 O 0.39062 0.96543 0.32901 0.0
O72 O 0.41269 0.94941 0.3385 0.0
C73 C 0.40525 0.98095 0.22857 0.0
O74 O 0.4373 0.97244 0.28664 0.0
Co75 Co 0.42228 1.00763 0.27706 0.0
O76 O 0.44226 0.99683 0.24752 0.0
C77 C 0.41784 0.99798 0.38514 0.0
C78 C 0.39687 0.95163 0.34606 0.0
C79 C 0.44678 0.9823 0.26099 0.0
O80 O 0.41728 0.98244 0.37341 0.0
O81 O 0.41821 1.00968 0.35203 0.0
O82 O 0.40716 0.96503 0.23523 0.0
O83 O 0.4066 0.98981 0.26896 0.0
Co84 Co 0.31139 0.16966 0.56737 0.0
O85 O 0.31561 0.14763 0.59345 0.0
O86 O 0.33372 0.16823 0.59531 0.0
C87 C 0.29929 0.16126 0.49402 0.0
O88 O 0.31184 0.19393 0.5434 0.0
Co89 Co 0.27556 0.1823 0.54159 0.0
O90 O 0.2877 0.19992 0.50437 0.0
C91 C 0.28695 0.17977 0.64907 0.0
C92 C 0.33028 0.15285 0.60631 0.0
C93 C 0.30261 0.20357 0.51613 0.0
O94 O 0.30198 0.17643 0.63549 0.0
O95 O 0.27488 0.18138 0.61768 0.0
O96 O 0.31543 0.16201 0.49692 0.0
O97 O 0.29145 0.16459 0.53537 0.0
Co98 Co 0.11435 0.05941 0.80968 0.0
O99 O 0.13633 0.06427 0.83467 0.0
O100 O 0.11485 0.08121 0.84164 0.0
C101 C 0.12255 0.04925 0.73335 0.0
O102 O 0.08995 0.05895 0.78762 0.0
Co103 Co 0.10388 0.02324 0.78014 0.0
O104 O 0.08455 0.03462 0.74885 0.0
C105 C 0.10737 0.03291 0.8885 0.0
C106 C 0.13048 0.07833 0.85084 0.0
C107 C 0.08037 0.04931 0.76158 0.0
O108 O 0.1086 0.04841 0.87658 0.0
O109 O 0.10696 0.02119 0.85557 0.0
O110 O 0.12101 0.06523 0.73933 0.0
O111 O 0.12027 0.04049 0.77364 0.0
Co112 Co 0.80522 0.85476 0.0594 0.0
O113 O 0.80897 0.87727 0.08201 0.0
O114 O 0.82746 0.85707 0.08712 0.0
C115 C 0.79295 0.86172 0.98474 0.0
O116 O 0.80635 0.83016 0.03928 0.0
Co117 Co 0.76979 0.84069 0.03704 0.0
O118 O 0.78218 0.82258 0.00323 0.0
C119 C 0.78084 0.8467 0.1433 0.0
C120 C 0.8237 0.87251 0.09591 0.0
C121 C 0.7973 0.81971 0.01445 0.0
O122 O 0.79596 0.84907 0.12872 0.0
O123 O 0.76875 0.84441 0.1124 0.0
O124 O 0.8091 0.86146 -0.01209 0.0
O125 O 0.78514 0.85875 0.0265 0.0
Co126 Co 0.92472 0.0547 0.80596 0.0
O127 O 0.90264 0.05879 0.83206 0.0
O128 O 0.92339 0.0767 0.83592 0.0
C129 C 0.91637 0.04337 0.73129 0.0
O130 O 0.94903 0.05542 0.78266 0.0
Co131 Co 0.93747 0.01921 0.7778 0.0
O132 O 0.95578 0.03144 0.74407 0.0
C133 C 0.93339 0.02922 0.88599 0.0
C134 C 0.90798 0.07326 0.84647 0.0
C135 C 0.95909 0.04637 0.75635 0.0
O136 O 0.93121 0.04455 0.87339 0.0
O137 O 0.93475 0.01744 0.85348 0.0
O138 O 0.91718 0.05947 0.73576 0.0
O139 O 0.91969 0.03511 0.7719 0.0
Co140 Co 0.72593 0.18105 0.56115 0.0
O141 O 0.72208 0.15861 0.58429 0.0
O142 O 0.70381 0.17898 0.59027 0.0
C143 C 0.73767 0.17391 0.48585 0.0
O144 O 0.72502 0.20566 0.54071 0.0
Co145 Co 0.76147 0.19454 0.53672 0.0
O146 O 0.74918 0.2129 0.50373 0.0
C147 C 0.75087 0.18876 0.6436 0.0
C148 C 0.70748 0.16351 0.59905 0.0
C149 C 0.73414 0.21599 0.51552 0.0
O150 O 0.73565 0.18667 0.62982 0.0
O151 O 0.76286 0.1908 0.61206 0.0
O152 O 0.72154 0.17439 0.49001 0.0
O153 O 0.74575 0.17677 0.52712 0.0
Co154 Co 0.6033 0.97821 0.30748 0.0
O155 O 0.62582 0.9747 0.33036 0.0
O156 O 0.6057 0.95613 0.33655 0.0
C157 C 0.6102 0.99011 0.23213 0.0
O158 O 0.57869 0.97693 0.28735 0.0
Co159 Co 0.58928 1.01356 0.28344 0.0
O160 O 0.57104 1.00102 0.25077 0.0
C161 C 0.59543 1.003 0.39011 0.0
C162 C 0.62112 0.96004 0.34527 0.0
C163 C 0.56819 0.98593 0.26244 0.0
O164 O 0.59758 0.9878 0.37623 0.0
O165 O 0.59326 1.01497 0.35862 0.0
O166 O 0.60998 0.97399 0.23618 0.0
O167 O 0.60726 0.9981 0.27351 0.0
Co168 Co 0.81173 0.16405 0.08473 0.0
O169 O 0.81699 0.14183 0.06271 0.0
O170 O 0.83347 0.16353 0.05226 0.0
C171 C 0.80188 0.15707 0.16269 0.0
O172 O 0.81082 0.18871 0.1035 0.0
Co173 Co 0.7753 0.17409 0.11303 0.0
O174 O 0.78639 0.19395 0.14213 0.0
C175 C 0.78503 0.16947 0.00524 0.0
C176 C 0.8309 0.14773 0.04532 0.0
C177 C 0.801 0.1983 0.12883 0.0
O178 O 0.80054 0.16867 0.01731 0.0
O179 O 0.77326 0.17 0.03808 0.0
O180 O 0.81783 0.15865 0.15579 0.0
O181 O 0.793 0.15835 0.12227 0.0
Co182 Co 0.61704 0.06531 0.83177 0.0
O183 O 0.63912 0.07131 0.80984 0.0
O184 O 0.61695 0.08717 0.80017 0.0
C185 C 0.62428 0.05533 0.90931 0.0
O186 O 0.59239 0.06363 0.85056 0.0
Co187 Co 0.60795 0.02853 0.8588 0.0
O188 O 0.58774 0.03892 0.88819 0.0
C189 C 0.61234 0.03882 0.75131 0.0
C190 C 0.63282 0.0851 0.79303 0.0
C191 C 0.58301 0.05345 0.87541 0.0
O192 O 0.61276 0.05428 0.76394 0.0
O193 O 0.61206 0.02692 0.78374 0.0
O194 O 0.62226 0.07125 0.90303 0.0
O195 O 0.62324 0.04659 0.86857 0.0
Co196 Co 0.71978 0.87189 0.58368 0.0
O197 O 0.71356 0.89382 0.56092 0.0
O198 O 0.69805 0.8714 0.55139 0.0
C199 C 0.72933 0.87943 0.66136 0.0
O200 O 0.72169 0.84735 0.60321 0.0
Co201 Co 0.75657 0.86339 0.61206 0.0
O202 O 0.74634 0.84308 0.6415 0.0
C203 C 0.74667 0.86724 0.50416 0.0
C204 C 0.69992 0.88726 0.54383 0.0
C205 C 0.7319 0.83815 0.62849 0.0
O206 O 0.73115 0.86755 0.51635 0.0
O207 O 0.75846 0.86726 0.53691 0.0
O208 O 0.71346 0.87718 0.65462 0.0
O209 O 0.73826 0.87846 0.62091 0.0
Co210 Co 0.91512 0.96914 0.33029 0.0
O211 O 0.89323 0.96443 0.30391 0.0
O212 O 0.91467 0.94738 0.29844 0.0
C213 C 0.90657 0.97936 0.40623 0.0
O214 O 0.93939 0.96921 0.35377 0.0
Co215 Co 0.92618 1.00495 0.36146 0.0
O216 O 0.94485 0.9931 0.39476 0.0
C217 C 0.92339 0.99561 0.25243 0.0
C218 C 0.89911 0.95029 0.28839 0.0
C219 C 0.94888 0.97844 0.38139 0.0
O220 O 0.92143 0.98014 0.26379 0.0
O221 O 0.92407 1.00719 0.28579 0.0
O222 O 0.90793 0.96336 0.40014 0.0
O223 O 0.90926 0.98813 0.36619 0.0
Co224 Co 0.72823 0.68141 0.58557 0.0
O225 O 0.72431 0.65895 0.56277 0.0
O226 O 0.70614 0.6794 0.55652 0.0
C227 C 0.73995 0.67436 0.661 0.0
O228 O 0.72733 0.70604 0.6055 0.0
Co229 Co 0.76376 0.69492 0.60956 0.0
O230 O 0.75153 0.71347 0.64167 0.0
C231 C 0.75322 0.68891 0.5029 0.0
C232 C 0.70976 0.66392 0.54784 0.0
C233 C 0.73647 0.71649 0.63001 0.0
O234 O 0.73798 0.68693 0.51677 0.0
O235 O 0.7652 0.69096 0.53437 0.0
O236 O 0.72382 0.67483 0.65688 0.0
O237 O 0.74804 0.67715 0.61964 0.0
Co238 Co 0.60641 0.47923 0.83423 0.0
O239 O 0.62879 0.47545 0.8101 0.0
O240 O 0.60851 0.45699 0.80651 0.0
C241 C 0.61381 0.49156 0.90834 0.0
O242 O 0.58194 0.47813 0.85589 0.0
Co243 Co 0.59252 0.51468 0.85715 0.0
O244 O 0.57438 0.50238 0.89137 0.0
C245 C 0.598 0.50356 0.75068 0.0
C246 C 0.62389 0.46074 0.79651 0.0
C247 C 0.57151 0.48723 0.88068 0.0
O248 O 0.6003 0.48844 0.76525 0.0
O249 O 0.59599 0.51568 0.78164 0.0
O250 O 0.61352 0.47541 0.90535 0.0
O251 O 0.61062 0.49932 0.86667 0.0
Co252 Co 0.80716 0.35466 0.08183 0.0
O253 O 0.81132 0.37704 0.05843 0.0
O254 O 0.82945 0.3565 0.05402 0.0
C255 C 0.79498 0.36204 0.15628 0.0
O256 O 0.80788 0.33009 0.1027 0.0
Co257 Co 0.77151 0.34123 0.10513 0.0
O258 O 0.78357 0.32283 0.13866 0.0
C259 C 0.78262 0.34677 -0.00148 0.0
C260 C 0.82598 0.37198 0.04472 0.0
C261 C 0.79865 0.31974 0.12744 0.0
O262 O 0.79779 0.34894 0.01277 0.0
O263 O 0.77052 0.34478 0.02968 0.0
O264 O 0.81113 0.36147 0.15311 0.0
O265 O 0.78715 0.35909 0.11465 0.0
Co266 Co 0.92946 0.55659 0.33761 0.0
O267 O 0.9071 0.56014 0.31328 0.0
O268 O 0.92731 0.57863 0.30802 0.0
C269 C 0.922 0.54488 0.4127 0.0
O270 O 0.95393 0.55784 0.35925 0.0
Co271 Co 0.94324 0.5213 0.36377 0.0
O272 O 0.96117 0.53394 0.39768 0.0
C273 C 0.93823 0.5316 0.25625 0.0
C274 C 0.91193 0.57478 0.29856 0.0
C275 C 0.96418 0.54895 0.38543 0.0
O276 O 0.93565 0.5468 0.26947 0.0
O277 O 0.94027 0.51974 0.28821 0.0
O278 O 0.92232 0.561 0.4084 0.0
O279 O 0.9252 0.5368 0.3717 0.0
Co280 Co 0.72167 0.3716 0.55802 0.0
O281 O 0.7163 0.39372 0.58094 0.0
O282 O 0.69995 0.37189 0.59051 0.0
C283 C 0.7315 0.37901 0.4804 0.0
O284 O 0.72259 0.34702 0.53842 0.0
Co285 Co 0.75802 0.36161 0.52878 0.0
O286 O 0.74696 0.34177 0.49947 0.0
C287 C 0.74845 0.3659 0.63691 0.0
C288 C 0.70243 0.38766 0.5981 0.0
C289 C 0.73236 0.33743 0.51291 0.0
O290 O 0.73292 0.36675 0.62516 0.0
O291 O 0.76016 0.36546 0.60383 0.0
O292 O 0.71555 0.37729 0.48714 0.0
O293 O 0.74038 0.3775 0.52072 0.0
Co294 Co 0.9173 0.47002 0.81422 0.0
O295 O 0.89513 0.46467 0.83675 0.0
O296 O 0.91684 0.44817 0.84601 0.0
C297 C 0.90994 0.48012 0.73691 0.0
O298 O 0.94194 0.47107 0.79469 0.0
Co299 Co 0.92719 0.50655 0.78633 0.0
O300 O 0.94706 0.49564 0.75667 0.0
C301 C 0.92264 0.49649 0.89404 0.0
C302 C 0.90105 0.4507 0.85346 0.0
C303 C 0.95149 0.48102 0.76951 0.0
O304 O 0.92204 0.481 0.88182 0.0
O305 O 0.92303 0.50831 0.86133 0.0
O306 O 0.91165 0.46416 0.74316 0.0
O307 O 0.91143 0.48885 0.77751 0.0
Co308 Co 0.81407 0.6642 0.06153 0.0
O309 O 0.82012 0.64213 0.08343 0.0
O310 O 0.83583 0.66439 0.09359 0.0
C311 C 0.80434 0.65712 0.98361 0.0
O312 O 0.81236 0.68883 0.04294 0.0
Co313 Co 0.7773 0.67314 0.03412 0.0
O314 O 0.78762 0.69355 0.00568 0.0
C315 C 0.78734 0.66874 0.14166 0.0
C316 C 0.83382 0.64851 0.10063 0.0
C317 C 0.80216 0.69826 0.01846 0.0
O318 O 0.80283 0.66838 0.12919 0.0
O319 O 0.77549 0.66893 0.10911 0.0
O320 O 0.82025 0.65913 -0.00968 0.0
O321 O 0.79547 0.65798 0.02421 0.0
Co322 Co 0.62151 0.5655 0.30927 0.0
O323 O 0.64357 0.57105 0.33239 0.0
O324 O 0.62164 0.58731 0.34099 0.0
C325 C 0.62909 0.55548 0.23211 0.0
O326 O 0.59696 0.56437 0.28933 0.0
Co327 Co 0.61177 0.529 0.2813 0.0
O328 O 0.5918 0.5398 0.25176 0.0
C329 C 0.61571 0.53898 0.38916 0.0
C330 C 0.63742 0.58493 0.349 0.0
C331 C 0.58738 0.55443 0.26444 0.0
O332 O 0.61659 0.55446 0.37676 0.0
O333 O 0.61535 0.52716 0.35657 0.0
O334 O 0.62729 0.57142 0.23827 0.0
O335 O 0.62757 0.54671 0.27273 0.0
Co336 Co 0.30905 0.35999 0.55146 0.0
O337 O 0.31426 0.38252 0.5707 0.0
O338 O 0.33046 0.36088 0.58537 0.0
C339 C 0.30001 0.36587 0.47204 0.0
O340 O 0.30843 0.33508 0.53632 0.0
Co341 Co 0.27308 0.34911 0.52313 0.0
O342 O 0.28421 0.32865 0.49855 0.0
C343 C 0.28182 0.3559 0.63059 0.0
C344 C 0.32794 0.37675 0.59012 0.0
C345 C 0.29888 0.32484 0.51263 0.0
O346 O 0.29736 0.35665 0.61888 0.0
O347 O 0.27028 0.35433 0.59737 0.0
O348 O 0.31586 0.36425 0.48044 0.0
O349 O 0.29056 0.3651 0.51151 0.0
Co350 Co 0.43136 0.55804 0.3122 0.0
O351 O 0.40902 0.56158 0.33671 0.0
O352 O 0.42921 0.58012 0.34114 0.0
C353 C 0.42388 0.54618 0.23752 0.0
O354 O 0.45581 0.55928 0.29023 0.0
Co355 Co 0.44519 0.52271 0.28746 0.0
O356 O 0.46312 0.53524 0.25295 0.0
C357 C 0.44006 0.53333 0.39455 0.0
C358 C 0.41384 0.57625 0.35096 0.0
C359 C 0.46608 0.55031 0.26442 0.0
O360 O 0.4376 0.54848 0.3806 0.0
O361 O 0.44207 0.52133 0.3631 0.0
O362 O 0.42417 0.5623 0.24148 0.0
O363 O 0.42711 0.53814 0.27868 0.0
Co364 Co 0.22741 0.67588 0.06367 0.0
O365 O 0.224 0.65341 0.0874 0.0
O366 O 0.20519 0.67333 0.09166 0.0
C367 C 0.23982 0.66879 -0.01064 0.0
O368 O 0.22597 0.70039 0.04232 0.0
Co369 Co 0.26272 0.69023 0.04043 0.0
O370 O 0.25012 0.70811 0.00612 0.0
C371 C 0.25168 0.68452 0.14697 0.0
C372 C 0.2092 0.65799 0.10123 0.0
C373 C 0.23495 0.71086 0.01716 0.0
O374 O 0.23657 0.68201 0.13262 0.0
O375 O 0.26376 0.68672 0.11587 0.0
O376 O 0.22366 0.66884 -0.00755 0.0
O377 O 0.24753 0.67201 0.031 0.0
Co378 Co 0.10816 0.47294 0.81286 0.0
O379 O 0.13033 0.4676 0.83632 0.0
O380 O 0.10872 0.45077 0.84171 0.0
C381 C 0.11613 0.48435 0.73771 0.0
O382 O 0.08358 0.47341 0.79233 0.0
Co383 Co 0.09662 0.50907 0.7873 0.0
O384 O 0.07723 0.49791 0.75611 0.0
C385 C 0.10169 0.4984 0.89457 0.0
C386 C 0.12439 0.45334 0.8507 0.0
C387 C 0.07351 0.48303 0.76803 0.0
O388 O 0.10293 0.48302 0.8814 0.0
O389 O 0.10051 0.51034 0.86249 0.0
O390 O 0.11469 0.46828 0.74158 0.0
O391 O 0.11365 0.49249 0.77903 0.0
Co392 Co 0.31428 0.66365 0.58819 0.0
O393 O 0.32008 0.64165 0.56531 0.0
O394 O 0.33611 0.66375 0.55642 0.0
C395 C 0.3043 0.65595 0.66532 0.0
O396 O 0.31287 0.68821 0.60788 0.0
Co397 Co 0.27768 0.67305 0.61645 0.0
O398 O 0.2883 0.69307 0.6461 0.0
C399 C 0.28766 0.66889 0.50857 0.0
C400 C 0.33391 0.64795 0.54866 0.0
C401 C 0.30287 0.69765 0.63307 0.0
O402 O 0.30317 0.66833 0.52073 0.0
O403 O 0.27586 0.66916 0.54135 0.0
O404 O 0.32023 0.65798 0.65919 0.0
O405 O 0.29553 0.65741 0.62475 0.0
Co406 Co 0.11933 0.56017 0.3381 0.0
O407 O 0.14135 0.5654 0.31343 0.0
O408 O 0.11962 0.58202 0.30671 0.0
C409 C 0.12731 0.54979 0.4145 0.0
O410 O 0.09488 0.55961 0.35966 0.0
Co411 Co 0.1086 0.52406 0.36746 0.0
O412 O 0.08936 0.53544 0.39927 0.0
C413 C 0.1124 0.53381 0.25902 0.0
C414 C 0.13529 0.57944 0.29759 0.0
C415 C 0.08526 0.55011 0.38609 0.0
O416 O 0.11384 0.54928 0.27091 0.0
O417 O 0.11166 0.5221 0.29203 0.0
O418 O 0.12577 0.56579 0.40871 0.0
O419 O 0.12518 0.54115 0.37399 0.0
Co420 Co 0.22178 0.36157 0.07976 0.0
O421 O 0.21485 0.38369 0.06065 0.0
O422 O 0.20027 0.36093 0.04624 0.0
C423 C 0.23049 0.36806 0.15909 0.0
O424 O 0.22438 0.33676 0.09523 0.0
Co425 Co 0.25862 0.35373 0.10741 0.0
O426 O 0.24914 0.33253 0.13276 0.0
C427 C 0.24906 0.3593 -8e-05 0.0
C428 C 0.20158 0.37697 0.04161 0.0
C429 C 0.23482 0.32743 0.11913 0.0
O430 O 0.23353 0.35905 0.01208 0.0
O431 O 0.26079 0.35875 0.03285 0.0
O432 O 0.2148 0.36522 0.15093 0.0
O433 O 0.23986 0.36812 0.1194 0.0
Co434 Co 0.4164 0.47274 0.83631 0.0
O435 O 0.39439 0.46749 0.81228 0.0
O436 O 0.41624 0.45112 0.80343 0.0
C437 C 0.40868 0.48232 0.9138 0.0
O438 O 0.44089 0.47366 0.85707 0.0
Co439 Co 0.42617 0.50906 0.86625 0.0
O440 O 0.44583 0.49795 0.89662 0.0
C441 C 0.42257 0.49966 0.75783 0.0
C442 C 0.40051 0.45367 0.79511 0.0
C443 C 0.4503 0.4834 0.88325 0.0
O444 O 0.42157 0.48413 0.76953 0.0
O445 O 0.42288 0.51133 0.79094 0.0
O446 O 0.41039 0.46641 0.90673 0.0
O447 O 0.41032 0.49134 0.87371 0.0
H448 H 0.16252 0.07364 0.88068 0.0
H449 H 0.17425 0.16236 0.0144 0.0
H450 H 0.12287 0.10962 0.88762 0.0
H451 H 0.20894 0.12171 0.02617 0.0
H452 H 0.1555 0.14433 0.96513 0.0
H453 H 0.18003 0.09222 0.93009 0.0
C454 C 0.15748 0.0855 0.89248 0.0
C455 C 0.14116 0.09003 0.8799 0.0
C456 C 0.1672 0.13939 0.9787 0.0
C457 C 0.16131 0.11156 0.93705 0.0
C458 C 0.17791 0.14966 0.00681 0.0
C459 C 0.19322 0.14356 0.02447 0.0
C460 C 0.17193 0.12295 0.96788 0.0
C461 C 0.1973 0.127 0.01345 0.0
C462 C 0.16751 0.09613 0.92095 0.0
C463 C 0.13538 0.1056 0.89647 0.0
N464 N 0.18679 0.11736 -0.01416 0.0
N465 N 0.14545 0.11583 0.92415 0.0
H466 H 0.15355 0.96171 0.26344 0.0
H467 H 0.16957 0.87267 0.13536 0.0
H468 H 0.11656 0.92294 0.26308 0.0
H469 H 0.20287 0.91446 0.12267 0.0
H470 H 0.15025 0.89009 0.18441 0.0
H471 H 0.17211 0.94377 0.21499 0.0
C472 C 0.14933 0.94938 0.25333 0.0
C473 C 0.13344 0.94386 0.26743 0.0
C474 C 0.16177 0.89543 0.17075 0.0
C475 C 0.15475 0.92311 0.21145 0.0
C476 C 0.17281 0.8855 0.14272 0.0
C477 C 0.18789 0.8921 0.1248 0.0
C478 C 0.1659 0.91206 0.18116 0.0
C479 C 0.19141 0.9088 0.13559 0.0
C480 C 0.15995 0.93912 0.22544 0.0
C481 C 0.1287 0.92773 0.25303 0.0
N482 N 0.18056 0.91814 0.16306 0.0
N483 N 0.13931 0.91791 0.22586 0.0
H484 H 0.36412 0.95448 0.37143 0.0
H485 H 0.35703 0.86606 0.51137 0.0
H486 H 0.40576 0.92107 0.38539 0.0
H487 H 0.31851 0.90329 0.51171 0.0
H488 H 0.37495 0.88518 0.46314 0.0
H489 H 0.34708 0.935 0.41972 0.0
C490 C 0.3697 0.94301 0.38453 0.0
C491 C 0.38643 0.93945 0.37427 0.0
C492 C 0.36259 0.88916 0.47393 0.0
C493 C 0.36686 0.91693 0.43007 0.0
C494 C 0.35235 0.87825 0.50148 0.0
C495 C 0.33622 0.88306 0.5157 0.0
C496 C 0.35661 0.90495 0.4602 0.0
C497 C 0.33083 0.89902 0.50174 0.0
C498 C 0.35993 0.93187 0.41232 0.0
C499 C 0.39292 0.92434 0.39241 0.0
N500 N 0.34096 0.90931 0.47475 0.0
N501 N 0.38312 0.91363 0.41939 0.0
H502 H 0.4159 0.10824 0.75863 0.0
H503 H 0.32527 0.12085 0.637 0.0
H504 H 0.37653 0.07196 0.76617 0.0
H505 H 0.36235 0.15953 0.63752 0.0
H506 H 0.34444 0.10273 0.68255 0.0
H507 H 0.39707 0.12715 0.71317 0.0
C508 C 0.4033 0.10425 0.75087 0.0
C509 C 0.3978 0.08846 0.76632 0.0
C510 C 0.34845 0.11517 0.67278 0.0
C511 C 0.37621 0.11002 0.71407 0.0
C512 C 0.33748 0.12555 0.6466 0.0
C513 C 0.34217 0.14177 0.63331 0.0
C514 C 0.36435 0.12094 0.68592 0.0
C515 C 0.35819 0.14712 0.64697 0.0
C516 C 0.39256 0.11506 0.72489 0.0
C517 C 0.38135 0.08399 0.75512 0.0
N518 N 0.36871 0.13674 0.67248 0.0
N519 N 0.3712 0.09466 0.7297 0.0
H520 H 0.8181 0.90475 0.12295 0.0
H521 H 0.90718 0.91904 0.25333 0.0
H522 H 0.85562 0.86656 0.12952 0.0
H523 H 0.86695 0.95439 0.25787 0.0
H524 H 0.88929 0.89993 0.20529 0.0
H525 H 0.83663 0.92341 0.16895 0.0
C526 C 0.83028 0.90029 0.1339 0.0
C527 C 0.83527 0.88403 0.12231 0.0
C528 C 0.88439 0.91186 0.21687 0.0
C529 C 0.85668 0.90544 0.17546 0.0
C530 C 0.8946 0.92278 0.2443 0.0
C531 C 0.88856 0.93836 0.25978 0.0
C532 C 0.86805 0.91658 0.20461 0.0
C533 C 0.87216 0.94253 0.2469 0.0
C534 C 0.84087 0.91096 0.16036 0.0
C535 C 0.85123 0.87899 0.13764 0.0
N536 N 0.86253 0.93175 0.22012 0.0
N537 N 0.86136 0.88964 0.16344 0.0
H538 H 0.91481 0.10514 0.87863 0.0
H539 H 0.82722 0.11499 0.02175 0.0
H540 H 0.87629 0.06789 0.8798 0.0
H541 H 0.86158 0.15575 0.00473 0.0
H542 H 0.84609 0.09731 0.97359 0.0
H543 H 0.89651 0.12364 0.92763 0.0
C544 C 0.90251 0.10085 0.88906 0.0
C545 C 0.89709 0.08492 0.87499 0.0
C546 C 0.84957 0.11011 0.9803 0.0
C547 C 0.87614 0.10597 0.93133 0.0
C548 C 0.83878 0.12024 0.00801 0.0
C549 C 0.84278 0.13692 0.01735 0.0
C550 C 0.8646 0.1166 0.96165 0.0
C551 C 0.85798 0.14297 -0.00158 0.0
C552 C 0.89207 0.11143 0.91703 0.0
C553 C 0.88103 0.08005 0.88963 0.0
N554 N 0.86834 0.13281 0.97149 0.0
N555 N 0.87119 0.09048 0.917 0.0
H556 H 0.71345 0.13158 0.62854 0.0
H557 H 0.62393 0.11581 0.7547 0.0
H558 H 0.67544 0.16932 0.63232 0.0
H559 H 0.66558 0.08238 0.76789 0.0
H560 H 0.64168 0.13526 0.7069 0.0
H561 H 0.69514 0.11299 0.67571 0.0
C562 C 0.70121 0.13596 0.63913 0.0
C563 C 0.69601 0.15207 0.62637 0.0
C564 C 0.64691 0.12368 0.72041 0.0
C565 C 0.67483 0.13071 0.68088 0.0
C566 C 0.63679 0.11257 0.7477 0.0
C567 C 0.64326 0.09741 0.7654 0.0
C568 C 0.66357 0.11953 0.71047 0.0
C569 C 0.66002 0.09389 0.75513 0.0
C570 C 0.69074 0.12533 0.6663 0.0
C571 C 0.67998 0.15701 0.64135 0.0
N572 N 0.66952 0.10479 0.72833 0.0
N573 N 0.66994 0.14637 0.66777 0.0
H574 H 0.65295 0.96652 0.37476 0.0
H575 H 0.66949 0.8778 0.5049 0.0
H576 H 0.61568 0.92804 0.37938 0.0
H577 H 0.70231 0.91995 0.51747 0.0
H578 H 0.65 0.89505 0.45579 0.0
H579 H 0.67166 0.94865 0.42294 0.0
C580 C 0.6487 0.95426 0.38572 0.0
C581 C 0.63269 0.94881 0.37293 0.0
C582 C 0.66145 0.9005 0.46945 0.0
C583 C 0.65418 0.92814 0.42862 0.0
C584 C 0.67259 0.89067 0.4975 0.0
C585 C 0.68758 0.89742 0.51541 0.0
C586 C 0.66541 0.91718 0.45896 0.0
C587 C 0.69093 0.91417 0.50457 0.0
C588 C 0.65941 0.94405 0.41348 0.0
C589 C 0.62792 0.93277 0.38841 0.0
N590 N 0.68 0.9234 0.47704 0.0
N591 N 0.63862 0.92299 0.41541 0.0
H592 H 0.6779 0.67005 0.51402 0.0
H593 H 0.67001 0.58164 0.37547 0.0
H594 H 0.71558 0.63199 0.51788 0.0
H595 H 0.62879 0.61564 0.38761 0.0
H596 H 0.6871 0.60087 0.42421 0.0
H597 H 0.65989 0.6512 0.46536 0.0
C598 C 0.68237 0.65773 0.50483 0.0
C599 C 0.6983 0.65261 0.52015 0.0
C600 C 0.67433 0.60419 0.41631 0.0
C601 C 0.67782 0.63103 0.46413 0.0
C602 C 0.66454 0.5932 0.38825 0.0
C603 C 0.6479 0.59699 0.37735 0.0
C604 C 0.66754 0.61922 0.43369 0.0
C605 C 0.64155 0.61219 0.39511 0.0
C606 C 0.67209 0.64698 0.47703 0.0
C607 C 0.70342 0.63651 0.50705 0.0
N608 N 0.65138 0.62276 0.42237 0.0
N609 N 0.69327 0.62637 0.47977 0.0
H610 H 0.61784 0.42865 0.76501 0.0
H611 H 0.70583 0.42034 0.62321 0.0
H612 H 0.65564 0.46663 0.76438 0.0
H613 H 0.67181 0.37921 0.63809 0.0
H614 H 0.68672 0.43764 0.67185 0.0
H615 H 0.63659 0.41048 0.7165 0.0
C616 C 0.63008 0.43316 0.75486 0.0
C617 C 0.63516 0.44921 0.76888 0.0
C618 C 0.68338 0.42484 0.66458 0.0
C619 C 0.65663 0.42854 0.71304 0.0
C620 C 0.6943 0.41493 0.63659 0.0
C621 C 0.69045 0.39826 0.62648 0.0
C622 C 0.66837 0.41814 0.6827 0.0
C623 C 0.67529 0.39199 0.64498 0.0
C624 C 0.64078 0.42278 0.72714 0.0
C625 C 0.65116 0.45437 0.75458 0.0
N626 N 0.66479 0.40193 0.67216 0.0
N627 N 0.66125 0.44412 0.72742 0.0
H628 H 0.86836 0.45436 0.87802 0.0
H629 H 0.8581 0.36561 0.01377 0.0
H630 H 0.90901 0.41976 0.89219 0.0
H631 H 0.82073 0.40399 0.01433 0.0
H632 H 0.87682 0.38442 0.96723 0.0
H633 H 0.85061 0.43521 0.92497 0.0
C634 C 0.87358 0.44269 0.8909 0.0
C635 C 0.89025 0.4387 0.88106 0.0
C636 C 0.86454 0.38871 0.9777 0.0
C637 C 0.86983 0.41654 0.93533 0.0
C638 C 0.85384 0.37799 0.00427 0.0
C639 C 0.8378 0.38322 0.01804 0.0
C640 C 0.8591 0.40475 0.9645 0.0
C641 C 0.83296 0.39939 0.00465 0.0
C642 C 0.86341 0.43174 0.91793 0.0
C643 C 0.89624 0.42336 0.89889 0.0
N644 N 0.84352 0.40951 0.9786 0.0
N645 N 0.88604 0.41282 0.92513 0.0
H646 H 0.86428 0.65766 0.14002 0.0
H647 H 0.88021 0.56844 0.26769 0.0
H648 H 0.83125 0.61573 0.1258 0.0
H649 H 0.91757 0.60685 0.26536 0.0
H650 H 0.86169 0.58652 0.21952 0.0
H651 H 0.88363 0.64014 0.1888 0.0
C652 C 0.86111 0.64478 0.14698 0.0
C653 C 0.84609 0.63817 0.12872 0.0
C654 C 0.87392 0.59105 0.22947 0.0
C655 C 0.8681 0.61811 0.18479 0.0
C656 C 0.88452 0.58072 0.2572 0.0
C657 C 0.90051 0.58609 0.27064 0.0
C658 C 0.87923 0.607 0.21499 0.0
C659 C 0.90536 0.60217 0.25579 0.0
C660 C 0.87216 0.6348 0.17484 0.0
C661 C 0.84265 0.6214 0.13898 0.0
N662 N 0.89476 0.61207 0.2288 0.0
N663 N 0.8535 0.61202 0.16635 0.0
H664 H 0.35847 0.36904 0.6315 0.0
H665 H 0.36841 0.45794 0.76486 0.0
H666 H 0.32372 0.40943 0.61422 0.0
H667 H 0.40865 0.42262 0.75802 0.0
H668 H 0.35132 0.43916 0.7145 0.0
H669 H 0.37659 0.38739 0.6816 0.0
C670 C 0.35468 0.38176 0.63803 0.0
C671 C 0.33953 0.3877 0.61856 0.0
C672 C 0.36389 0.43547 0.7239 0.0
C673 C 0.36011 0.40867 0.67622 0.0
C674 C 0.37367 0.44618 0.75291 0.0
C675 C 0.39003 0.44188 0.76574 0.0
C676 C 0.37039 0.42019 0.70761 0.0
C677 C 0.39611 0.42646 0.74897 0.0
C678 C 0.36503 0.39222 0.66663 0.0
C679 C 0.33526 0.40429 0.62831 0.0
N680 N 0.38628 0.41614 0.72084 0.0
N681 N 0.34543 0.41412 0.65655 0.0
H682 H 0.33114 0.61523 0.52349 0.0
H683 H 0.41956 0.60831 0.38353 0.0
H684 H 0.3645 0.65693 0.5095 0.0
H685 H 0.38216 0.56993 0.38258 0.0
H686 H 0.40049 0.62617 0.43207 0.0
H687 H 0.35065 0.59827 0.4753 0.0
C688 C 0.34261 0.62084 0.51041 0.0
C689 C 0.34615 0.63757 0.52062 0.0
C690 C 0.39647 0.61385 0.42109 0.0
C691 C 0.3687 0.61808 0.4649 0.0
C692 C 0.40734 0.60365 0.39336 0.0
C693 C 0.40246 0.58758 0.37887 0.0
C694 C 0.38065 0.60789 0.4347 0.0
C695 C 0.38649 0.58221 0.39276 0.0
C696 C 0.35376 0.61112 0.48267 0.0
C697 C 0.36125 0.64409 0.50252 0.0
N698 N 0.37623 0.59229 0.41991 0.0
N699 N 0.37198 0.63434 0.47556 0.0
H700 H 0.12666 0.6104 0.26131 0.0
H701 H 0.21549 0.62603 0.13019 0.0
H702 H 0.16772 0.57607 0.26849 0.0
H703 H 0.17718 0.66346 0.13493 0.0
H704 H 0.1974 0.60726 0.17761 0.0
H705 H 0.14421 0.62973 0.21263 0.0
C706 C 0.13936 0.60693 0.25278 0.0
C707 C 0.14572 0.59157 0.26912 0.0
C708 C 0.19289 0.61956 0.16832 0.0
C709 C 0.16584 0.61359 0.21316 0.0
C710 C 0.20323 0.63031 0.14104 0.0
C711 C 0.19788 0.64639 0.12849 0.0
C712 C 0.17697 0.62482 0.1833 0.0
C713 C 0.18183 0.65118 0.14376 0.0
C714 C 0.14937 0.61797 0.22496 0.0
C715 C 0.16226 0.58776 0.25685 0.0
N716 N 0.17195 0.64045 0.17035 0.0
N717 N 0.17169 0.59864 0.22962 0.0
H718 H 0.11562 0.42225 0.88492 0.0
H719 H 0.17249 0.36676 -0.00391 0.0
H720 H 0.15703 0.45618 0.87866 0.0
H721 H 0.20217 0.41041 0.02379 0.0
H722 H 0.15275 0.38379 0.94831 0.0
H723 H 0.13288 0.40252 0.93182 0.0
C724 C 0.12841 0.42548 0.89295 0.0
C725 C 0.13488 0.44089 0.87754 0.0
C726 C 0.16338 0.38977 0.9655 0.0
C727 C 0.15497 0.41817 0.93084 0.0
C728 C 0.17476 0.37997 -0.00739 0.0
C729 C 0.18899 0.38715 0.01428 0.0
C730 C 0.16625 0.40694 0.96004 0.0
C731 C 0.19135 0.40431 0.00801 0.0
C732 C 0.13836 0.41411 0.91954 0.0
C733 C 0.15151 0.44444 0.88951 0.0
N734 N 0.18017 0.41355 0.98139 0.0
N735 N 0.1609 0.43322 0.91553 0.0
H736 H 0.28119 0.16556 0.97464 0.0
H737 H 0.25954 0.19404 0.69115 0.0
H738 H 0.23324 0.18462 0.92945 0.0
H739 H 0.30475 0.16823 0.73116 0.0
H740 H 0.25081 0.19289 0.77989 0.0
H741 H 0.29066 0.16785 0.88676 0.0
C742 C 0.27262 0.17021 0.94614 0.0
C743 C 0.25642 0.17502 0.95937 0.0
C744 C 0.26265 0.18751 0.76936 0.0
C745 C 0.26727 0.17776 0.85874 0.0
C746 C 0.2677 0.18819 0.71871 0.0
C747 C 0.28283 0.18103 0.70366 0.0
C748 C 0.27279 0.17959 0.80533 0.0
C749 C 0.29299 0.17388 0.74112 0.0
C750 C 0.27807 0.17151 0.89597 0.0
C751 C 0.24582 0.18075 0.92083 0.0
N752 N 0.28771 0.17323 0.79033 0.0
N753 N 0.25148 0.18206 0.87216 0.0
H754 H 0.10436 0.97783 0.17141 0.0
H755 H 0.09965 0.05263 0.97066 0.0
H756 H 0.08549 0.02666 0.2076 0.0
H757 H 0.11142 1.00205 0.92939 0.0
H758 H 0.09549 0.04355 0.0589 0.0
H759 H 0.10738 0.98648 0.08242 0.0
C760 C 0.10067 0.99028 0.16061 0.0
C761 C 0.09479 1.00156 0.19712 0.0
C762 C 0.09898 0.03446 0.03043 0.0
C763 C 0.09842 1.01159 0.09574 0.0
C764 C 0.10146 0.03966 0.98018 0.0
C765 C 0.1058 0.02808 0.94259 0.0
C766 C 0.101 0.0176 0.04307 0.0
C767 C 0.10793 1.01141 0.95702 0.0
C768 C 0.10247 0.99524 0.10988 0.0
C769 C 0.09025 0.01757 0.18092 0.0
N770 N 0.10551 1.00667 0.0061 0.0
N771 N 0.09226 0.02214 0.13153 0.0
H772 H 0.22686 0.85167 0.21769 0.0
H773 H 0.30152 0.85665 0.41865 0.0
H774 H 0.27682 0.8664 0.17774 0.0
H775 H 0.25342 0.83543 0.45231 0.0
H776 H 0.29268 0.86084 0.33027 0.0
H777 H 0.23607 0.84705 0.3055 0.0
C778 C 0.23971 0.85408 0.22747 0.0
C779 C 0.2511 0.85931 0.19031 0.0
C780 C 0.28412 0.85517 0.35702 0.0
C781 C 0.26175 0.85394 0.29027 0.0
C782 C 0.28921 0.85267 0.40735 0.0
C783 C 0.27816 0.8458 0.44301 0.0
C784 C 0.2679 0.85077 0.34246 0.0
C785 C 0.26231 0.84096 0.42629 0.0
C786 C 0.245 0.85132 0.27745 0.0
C787 C 0.26763 0.86219 0.20504 0.0
N788 N 0.25763 0.84363 0.37734 0.0
N789 N 0.27246 0.85944 0.25385 0.0
H790 H 0.44297 1.00342 0.70392 0.0
H791 H 0.4119 0.02857 0.42559 0.0
H792 H 0.4227 0.05166 0.66733 0.0
H793 H 0.42664 0.97883 0.46763 0.0
H794 H 0.41649 0.03749 0.5131 0.0
H795 H 0.43857 0.9948 0.61617 0.0
C796 C 0.43767 1.01227 0.67735 0.0
C797 C 0.43307 0.02828 0.69318 0.0
C798 C 0.41867 0.02462 0.50329 0.0
C799 C 0.4279 0.01836 0.59245 0.0
C800 C 0.41605 0.01948 0.45331 0.0
C801 C 0.41901 1.00292 0.43918 0.0
C802 C 0.42441 1.01316 0.53948 0.0
C803 C 0.42419 0.99169 0.47684 0.0
C804 C 0.43511 1.00728 0.62723 0.0
C805 C 0.42644 0.03922 0.65683 0.0
N806 N 0.42684 0.99706 0.52529 0.0
N807 N 0.42396 0.03401 0.60811 0.0
H808 H 0.75233 0.83659 0.19022 0.0
H809 H 0.77683 0.87401 0.46152 0.0
H810 H 0.79964 0.85985 0.22082 0.0
H811 H 0.72764 0.85648 0.42395 0.0
H812 H 0.78574 0.86818 0.37454 0.0
H813 H 0.74383 0.84212 0.27763 0.0
C814 C 0.76101 0.84276 0.21545 0.0
C815 C 0.77669 0.8479 0.19801 0.0
C816 C 0.77299 0.86567 0.38521 0.0
C817 C 0.76691 0.85441 0.29818 0.0
C818 C 0.76786 0.86902 0.43485 0.0
C819 C 0.75147 0.86562 0.4501 0.0
C820 C 0.76169 0.85875 0.35058 0.0
C821 C 0.74037 0.85932 0.4138 0.0
C822 C 0.75609 0.84598 0.26533 0.0
C823 C 0.78745 0.85566 0.23263 0.0
N824 N 0.74573 0.85596 0.36574 0.0
N825 N 0.78231 0.85879 0.28108 0.0
H826 H 0.93884 0.99845 0.92661 0.0
H827 H 0.92405 0.02711 0.21394 0.0
H828 H 0.92826 0.04914 0.9698 0.0
H829 H 0.92689 0.97568 0.16779 0.0
H830 H 0.92761 0.03551 0.12561 0.0
H831 H 0.9369 0.99023 0.01562 0.0
C832 C 0.93619 1.00791 0.95479 0.0
C833 C 0.9336 0.02454 0.94051 0.0
C834 C 0.92745 0.02239 0.13473 0.0
C835 C 0.93132 1.01508 0.0428 0.0
C836 C 0.92543 0.01753 0.18526 0.0
C837 C 0.92518 1.00061 0.19845 0.0
C838 C 0.9293 1.01028 0.09688 0.0
C839 C 0.92696 0.98885 0.15943 0.0
C840 C 0.93504 1.00315 0.00568 0.0
C841 C 0.93032 0.03619 0.97895 0.0
N842 N 0.92899 0.99392 0.11032 0.0
N843 N 0.92921 0.03121 0.0284 0.0
H844 H 0.75471 0.16322 0.96334 0.0
H845 H 0.77995 0.19796 0.68883 0.0
H846 H 0.8043 0.1793 0.92416 0.0
H847 H 0.73192 0.17662 0.72254 0.0
H848 H 0.78849 0.1927 0.77638 0.0
H849 H 0.74592 0.16864 0.87605 0.0
C850 C 0.76379 0.16782 0.93626 0.0
C851 C 0.78025 0.17093 0.95113 0.0
C852 C 0.77607 0.1892 0.76472 0.0
C853 C 0.77018 0.17732 0.85118 0.0
C854 C 0.77114 0.19226 0.71475 0.0
C855 C 0.75522 0.1876 0.69817 0.0
C856 C 0.76503 0.18141 0.79852 0.0
C857 C 0.7443 0.18043 0.73365 0.0
C858 C 0.75874 0.17093 0.88642 0.0
C859 C 0.7915 0.17671 0.9143 0.0
N860 N 0.74946 0.17746 0.78217 0.0
N861 N 0.78621 0.17985 0.86602 0.0
H862 H 0.60342 0.0585 0.67016 0.0
H863 H 0.60683 0.98372 0.46927 0.0
H864 H 0.61827 1.00851 0.70893 0.0
H865 H 0.58706 0.03236 0.4351 0.0
H866 H 0.61163 0.99265 0.55717 0.0
H867 H 0.59875 0.04948 0.58223 0.0
C868 C 0.60586 0.04569 0.66009 0.0
C869 C 0.61111 0.03423 0.69699 0.0
C870 C 0.60616 1.00132 0.53042 0.0
C871 C 0.60566 0.02378 0.59689 0.0
C872 C 0.60331 0.99619 0.48035 0.0
C873 C 0.59661 1.00732 0.44469 0.0
C874 C 0.60229 0.01768 0.54477 0.0
C875 C 0.59239 0.02338 0.46113 0.0
C876 C 0.60308 0.04051 0.61004 0.0
C877 C 0.61403 0.01775 0.68186 0.0
N878 N 0.59537 0.02809 0.50988 0.0
N879 N 0.61122 1.01302 0.63303 0.0
H880 H 0.78232 0.69796 0.45721 0.0
H881 H 0.75721 0.66198 0.1845 0.0
H882 H 0.73431 0.67649 0.42454 0.0
H883 H 0.80657 0.67904 0.22202 0.0
H884 H 0.74846 0.66756 0.27174 0.0
H885 H 0.79089 0.69239 0.36987 0.0
C886 C 0.77351 0.69217 0.43156 0.0
C887 C 0.75759 0.68757 0.44837 0.0
C888 C 0.76122 0.67003 0.26102 0.0
C889 C 0.76744 0.68101 0.34827 0.0
C890 C 0.76626 0.66682 0.21122 0.0
C891 C 0.78264 0.67017 0.19586 0.0
C892 C 0.7726 0.67676 0.29575 0.0
C893 C 0.79384 0.67626 0.23224 0.0
C894 C 0.77847 0.68893 0.38171 0.0
C895 C 0.74668 0.68027 0.41323 0.0
N896 N 0.78857 0.67948 0.28048 0.0
N897 N 0.75186 0.67712 0.36484 0.0
H898 H 0.60669 0.55867 0.47002 0.0
H899 H 0.60926 0.48403 0.67198 0.0
H900 H 0.62075 0.50846 0.43149 0.0
H901 H 0.58915 0.53262 0.7046 0.0
H902 H 0.61395 0.49275 0.58369 0.0
H903 H 0.60149 0.54961 0.55773 0.0
C904 C 0.60884 0.5458 0.4801 0.0
C905 C 0.61405 0.5343 0.44335 0.0
C906 C 0.60841 0.50145 0.61019 0.0
C907 C 0.608 0.52382 0.54321 0.0
C908 C 0.60562 0.49644 0.66048 0.0
C909 C 0.59892 0.50765 0.69584 0.0
C910 C 0.60448 0.51776 0.59535 0.0
C911 C 0.59452 0.5236 0.67883 0.0
C912 C 0.60575 0.5406 0.53002 0.0
C913 C 0.61657 0.51774 0.45846 0.0
N914 N 0.59748 0.52821 0.62991 0.0
N915 N 0.61349 0.513 0.5072 0.0
H916 H 0.77898 0.37167 0.67816 0.0
H917 H 0.75377 0.33717 0.95284 0.0
H918 H 0.72925 0.35629 0.71837 0.0
H919 H 0.80166 0.35891 0.91971 0.0
H920 H 0.74532 0.34228 0.8652 0.0
H921 H 0.78787 0.36616 0.76532 0.0
C922 C 0.76989 0.36721 0.70543 0.0
C923 C 0.75335 0.36433 0.69089 0.0
C924 C 0.75769 0.3459 0.87699 0.0
C925 C 0.76354 0.35784 0.79067 0.0
C926 C 0.76258 0.34292 0.92702 0.0
C927 C 0.77843 0.34775 0.94381 0.0
C928 C 0.7687 0.35377 0.84331 0.0
C929 C 0.78934 0.35497 0.90842 0.0
C930 C 0.775 0.36405 0.75518 0.0
C931 C 0.7421 0.35871 0.72795 0.0
N932 N 0.78423 0.35786 0.85981 0.0
N933 N 0.74745 0.35553 0.77613 0.0
H934 H 0.94867 0.50268 0.21252 0.0
H935 H 0.91516 0.52649 0.93563 0.0
H936 H 0.92632 0.54999 0.17595 0.0
H937 H 0.93293 0.47757 0.97546 0.0
H938 H 0.9198 0.53546 0.023 0.0
H939 H 0.94447 0.49381 0.12474 0.0
C940 C 0.94297 0.51127 0.18594 0.0
C941 C 0.93771 0.52709 0.20174 0.0
C942 C 0.92265 0.52275 0.01278 0.0
C943 C 0.93275 0.51689 0.10119 0.0
C944 C 0.91999 0.51759 0.96288 0.0
C945 C 0.92378 0.50127 0.94818 0.0
C946 C 0.92926 0.51156 0.04835 0.0
C947 C 0.92981 0.49025 0.98523 0.0
C948 C 0.94052 0.50615 0.13584 0.0
C949 C 0.93058 0.53771 0.16546 0.0
N950 N 0.93248 0.49564 0.03366 0.0
N951 N 0.92821 0.53237 0.11687 0.0
H952 H 0.25037 0.35471 0.67029 0.0
H953 H 0.28033 0.3619 0.95979 0.0
H954 H 0.30182 0.35941 0.715 0.0
H955 H 0.2288 0.35785 0.91543 0.0
H956 H 0.28829 0.36165 0.87029 0.0
H957 H 0.24224 0.35634 0.75958 0.0
C958 C 0.26 0.35608 0.69881 0.0
C959 C 0.27685 0.35687 0.68492 0.0
C960 C 0.27524 0.36084 0.88006 0.0
C961 C 0.26752 0.35876 0.78761 0.0
C962 C 0.27064 0.36098 0.93128 0.0
C963 C 0.25383 0.3598 0.94537 0.0
C964 C 0.26297 0.35949 0.84236 0.0
C965 C 0.2419 0.35874 0.90648 0.0
C966 C 0.25531 0.35703 0.7499 0.0
C967 C 0.28869 0.35869 0.72379 0.0
N968 N 0.24671 0.35855 0.85673 0.0
N969 N 0.28379 0.35955 0.77337 0.0
H970 H 0.44939 0.50422 0.43968 0.0
H971 H 0.41751 0.53032 0.71647 0.0
H972 H 0.42897 0.55254 0.47415 0.0
H973 H 0.4318 0.48031 0.6764 0.0
H974 H 0.42279 0.53903 0.62897 0.0
H975 H 0.44498 0.49594 0.52796 0.0
C976 C 0.44407 0.51315 0.46588 0.0
C977 C 0.43941 0.52907 0.44931 0.0
C978 C 0.42474 0.52615 0.63923 0.0
C979 C 0.43421 0.51956 0.55052 0.0
C980 C 0.42171 0.52114 0.68919 0.0
C981 C 0.42431 0.50456 0.70384 0.0
C982 C 0.4305 0.51454 0.6036 0.0
C983 C 0.42961 0.4932 0.66675 0.0
C984 C 0.4415 0.50836 0.51629 0.0
C985 C 0.43276 0.54014 0.4852 0.0
N986 N 0.43263 0.49844 0.61831 0.0
N987 N 0.43025 0.53513 0.53413 0.0
H988 H 0.3072 0.67754 0.4268 0.0
H989 H 0.23242 0.67298 0.22615 0.0
H990 H 0.25713 0.6633 0.46715 0.0
H991 H 0.28063 0.69392 0.19238 0.0
H992 H 0.24129 0.66865 0.31445 0.0
H993 H 0.298 0.68204 0.33894 0.0
C994 C 0.29433 0.67522 0.41711 0.0
C995 C 0.2829 0.67017 0.4544 0.0
C996 C 0.24987 0.67429 0.28768 0.0
C997 C 0.27227 0.6754 0.35436 0.0
C998 C 0.24477 0.67686 0.2374 0.0
C999 C 0.25583 0.68371 0.20174 0.0
C1000 C 0.26612 0.67858 0.30218 0.0
C1001 C 0.27173 0.68843 0.21839 0.0
C1002 C 0.28905 0.6779 0.36709 0.0
C1003 C 0.26634 0.66738 0.43975 0.0
N1004 N 0.27642 0.68568 0.2673 0.0
N1005 N 0.26152 0.67007 0.3909 0.0
H1006 H 0.10926 0.554 0.17477 0.0
H1007 H 0.107 0.47809 0.97767 0.0
H1008 H 0.11268 0.50245 0.21971 0.0
H1009 H 0.0979 0.52923 0.93586 0.0
H1010 H 0.10975 0.48676 0.06673 0.0
H1011 H 0.10619 0.54517 0.08604 0.0
C1012 C 0.10942 0.54086 0.16604 0.0
C1013 C 0.11115 0.52898 0.20482 0.0
C1014 C 0.10709 0.49604 0.03795 0.0
C1015 C 0.10761 0.51878 0.10362 0.0
C1016 C 0.10547 0.49109 -0.01284 0.0
C1017 C 0.10227 0.50293 0.94913 0.0
C1018 C 0.10555 0.51294 0.05061 0.0
C1019 C 0.10045 0.51963 0.96371 0.0
C1020 C 0.10761 0.53581 0.11544 0.0
C1021 C 0.11127 0.51209 0.19121 0.0
N1022 N 0.10218 0.52413 0.01319 0.0
N1023 N 0.10952 0.50751 0.14179 0.0
H1024 H 0.24708 0.22595 0.20796 0.0
H1025 H 0.21214 0.30736 0.06978 0.0
H1026 H 0.21349 0.22384 0.07998 0.0
H1027 H 0.24826 0.30714 0.19136 0.0
H1028 H 0.20859 0.27725 0.08101 0.0
H1029 H 0.24343 0.25593 0.21133 0.0
C1030 C 0.23874 0.23179 0.18093 0.0
C1031 C 0.23076 0.22238 0.14322 0.0
C1032 C 0.21714 0.28386 0.10558 0.0
C1033 C 0.22673 0.25694 0.14615 0.0
C1034 C 0.21913 0.30105 0.09931 0.0
C1035 C 0.23071 0.30975 0.12915 0.0
C1036 C 0.2267 0.27539 0.14221 0.0
C1037 C 0.23941 0.30093 0.16684 0.0
C1038 C 0.23668 0.24896 0.18276 0.0
C1039 C 0.21993 0.23062 0.10961 0.0
N1040 N 0.23731 0.28429 0.17199 0.0
N1041 N 0.21844 0.24749 0.1113 0.0
H1042 H 0.05166 0.95683 0.33073 0.0
H1043 H 0.96802 0.98771 0.46215 0.0
H1044 H 0.04909 0.9894 0.46101 0.0
H1045 H 0.96878 0.95679 0.32792 0.0
H1046 H 0.99771 0.98306 0.4729 0.0
H1047 H 0.02177 0.95141 0.3395 0.0
C1048 C 0.04492 0.96248 0.362 0.0
C1049 C 0.05281 0.9738 0.39469 0.0
C1050 C 0.99141 0.97707 0.44141 0.0
C1051 C 0.01867 0.9678 0.40464 0.0
C1052 C 0.97441 0.97972 0.43531 0.0
C1053 C 0.96596 0.97286 0.3936 0.0
C1054 C 1.00017 0.96773 0.40501 0.0
C1055 C 0.97484 0.96241 0.36046 0.0
C1056 C 0.02783 0.95947 0.36678 0.0
C1057 C 0.04346 0.98081 0.43441 0.0
N1058 N 0.99155 0.96042 0.36627 0.0
N1059 N 0.02689 0.97786 0.43785 0.0
H1060 H 0.32243 0.80089 0.57602 0.0
H1061 H 0.29177 0.71744 0.71005 0.0
H1062 H 0.28943 0.79856 0.70561 0.0
H1063 H 0.32431 0.71777 0.57916 0.0
H1064 H 0.29543 0.74733 0.71829 0.0
H1065 H 0.32787 0.77102 0.58564 0.0
C1066 C 0.31667 0.7942 0.60727 0.0
C1067 C 0.30526 0.80216 0.6396 0.0
C1068 C 0.30197 0.74091 0.68805 0.0
C1069 C 0.31128 0.76805 0.65053 0.0
C1070 C 0.29987 0.7238 0.68337 0.0
C1071 C 0.30754 0.71513 0.64341 0.0
C1072 C 0.31158 0.74957 0.65197 0.0
C1073 C 0.3181 0.72399 0.6104 0.0
C1074 C 0.31969 0.77713 0.61254 0.0
C1075 C 0.2981 0.79288 0.67929 0.0
N1076 N 0.31957 0.74079 0.61482 0.0
N1077 N 0.30108 0.77634 0.68323 0.0
H1078 H 0.47927 0.07272 0.82255 0.0
H1079 H 0.56342 0.04201 0.9525 0.0
H1080 H 0.48222 0.03903 0.95037 0.0
H1081 H 0.56257 0.07469 0.82197 0.0
H1082 H 0.5335 0.04531 0.9614 0.0
H1083 H 0.50923 0.07801 0.83059 0.0
C1084 C 0.48613 0.06675 0.85303 0.0
C1085 C 0.47829 0.05522 0.88537 0.0
C1086 C 0.5398 0.05195 0.93108 0.0
C1087 C 0.51249 0.06111 0.89453 0.0
C1088 C 0.55693 0.05006 0.92602 0.0
C1089 C 0.56547 0.05789 0.88599 0.0
C1090 C 0.53099 0.06152 0.89533 0.0
C1091 C 0.55645 0.06837 0.85326 0.0
C1092 C 0.50324 0.06969 0.8574 0.0
C1093 C 0.48779 0.0478 0.92405 0.0
N1094 N 0.53963 0.06965 0.85807 0.0
N1095 N 0.50436 0.05074 0.92718 0.0
H1096 H 0.24207 0.81228 0.93452 0.0
H1097 H 0.2115 0.72901 0.06961 0.0
H1098 H 0.20958 0.81212 0.06552 0.0
H1099 H 0.24405 0.73116 0.93893 0.0
H1100 H 0.20607 0.75888 0.05985 0.0
H1101 H 0.23831 0.78239 0.92645 0.0
C1102 C 0.23396 0.80596 0.96126 0.0
C1103 C 0.22633 0.81467 0.00119 0.0
C1104 C 0.21414 0.75273 0.03274 0.0
C1105 C 0.22219 0.78024 -0.00715 0.0
C1106 C 0.21715 0.73566 0.03809 0.0
C1107 C 0.22845 0.72765 0.00549 0.0
C1108 C 0.22244 0.76175 -0.00559 0.0
C1109 C 0.23548 0.73688 0.96547 0.0
C1110 C 0.23181 0.78885 0.95667 0.0
C1111 C 0.21576 0.80586 0.03429 0.0
N1112 N 0.23251 0.75342 0.96146 0.0
N1113 N 0.21424 0.78906 0.02998 0.0
H1114 H 0.46645 0.99286 0.18284 0.0
H1115 H 0.55012 0.96265 0.31606 0.0
H1116 H 0.46694 0.96113 0.31557 0.0
H1117 H 0.5476 0.99504 0.18507 0.0
H1118 H 0.5202 0.95726 0.30757 0.0
H1119 H 0.49631 0.98903 0.17392 0.0
C1120 C 0.47284 0.9849 0.2098 0.0
C1121 C 0.46422 0.97751 0.25046 0.0
C1122 C 0.52628 0.96529 0.28013 0.0
C1123 C 0.49864 0.9733 0.24112 0.0
C1124 C 0.54337 0.96828 0.28477 0.0
C1125 C 0.5513 0.97952 0.25169 0.0
C1126 C 0.51714 0.97355 0.24203 0.0
C1127 C 0.54194 0.98652 0.21196 0.0
C1128 C 0.48993 0.98271 0.20473 0.0
C1129 C 0.47312 0.96712 0.2838 0.0
N1130 N 0.52538 0.98357 0.20863 0.0
N1131 N 0.48991 0.96556 0.27898 0.0
H1132 H 0.29386 0.22232 0.43406 0.0
H1133 H 0.32245 0.30697 0.56556 0.0
H1134 H 0.32356 0.2238 0.57085 0.0
H1135 H 0.28791 0.30318 0.44029 0.0
H1136 H 0.32818 0.27712 0.55775 0.0
H1137 H 0.29736 0.25222 0.42455 0.0
C1138 C 0.30141 0.22892 0.4616 0.0
C1139 C 0.30822 0.2206 0.50371 0.0
C1140 C 0.31954 0.2829 0.53154 0.0
C1141 C 0.31194 0.25501 0.49385 0.0
C1142 C 0.3163 0.29994 0.53587 0.0
C1143 C 0.30446 0.30752 0.50408 0.0
C1144 C 0.31099 0.27346 0.49487 0.0
C1145 C 0.29689 0.29781 0.46625 0.0
C1146 C 0.30334 0.24603 0.4563 0.0
C1147 C 0.31805 0.22975 0.53791 0.0
N1148 N 0.30018 0.28132 0.46301 0.0
N1149 N 0.31934 0.24655 0.53282 0.0
H1150 H 0.97924 0.03727 0.67763 0.0
H1151 H 0.06084 0.07192 0.81276 0.0
H1152 H 0.97781 0.06896 0.81011 0.0
H1153 H 0.06039 0.03821 0.68499 0.0
H1154 H 0.03076 0.07585 0.80254 0.0
H1155 H 1.00891 0.04261 0.66938 0.0
C1156 C 0.98514 0.04558 0.70456 0.0
C1157 C 0.97608 0.05247 0.74507 0.0
C1158 C 0.03732 0.06783 0.77621 0.0
C1159 C 1.01027 0.05837 0.7366 0.0
C1160 C 0.0545 0.06565 0.78186 0.0
C1161 C 0.06309 0.05451 0.75018 0.0
C1162 C 0.02875 0.05886 0.73847 0.0
C1163 C 0.05424 0.04669 0.71086 0.0
C1164 C 1.00213 0.0486 0.69993 0.0
C1165 C 0.98435 0.06333 0.77843 0.0
N1166 N 0.03758 0.04888 0.7065 0.0
N1167 N 1.00106 0.06569 0.77407 0.0
H1168 H 0.82452 0.71809 0.06959 0.0
H1169 H 0.78867 0.79959 0.93559 0.0
H1170 H 0.78977 0.71852 0.94435 0.0
H1171 H 0.81993 0.80123 0.06905 0.0
H1172 H 0.79423 0.76998 0.92767 0.0
H1173 H 0.82787 0.74827 0.06014 0.0
C1174 C 0.81786 0.72446 0.03947 0.0
C1175 C 0.80665 0.71581 0.00821 0.0
C1176 C 0.80009 0.77679 0.95838 0.0
C1177 C 0.81039 0.75025 -0.00273 0.0
C1178 C 0.79695 0.79374 0.9628 0.0
C1179 C 0.80365 0.80283 0.00346 0.0
C1180 C 0.80979 0.76872 -0.0046 0.0
C1181 C 0.81446 0.79465 0.03722 0.0
C1182 C 0.81972 0.74169 0.03425 0.0
C1183 C 0.79833 0.7247 0.96988 0.0
N1184 N 0.81695 0.77796 0.03305 0.0
N1185 N 0.80027 0.74139 0.96584 0.0
H1186 H 0.71117 0.23444 0.56903 0.0
H1187 H 0.74279 0.31757 0.43524 0.0
H1188 H 0.74356 0.23641 0.43792 0.0
H1189 H 0.7108 0.3176 0.56739 0.0
H1190 H 0.73854 0.28777 0.42665 0.0
H1191 H 0.70628 0.26443 0.56027 0.0
C1192 C 0.71691 0.24108 0.53765 0.0
C1193 C 0.728 0.23298 0.50462 0.0
C1194 C 0.73226 0.29425 0.45725 0.0
C1195 C 0.72259 0.26721 0.49466 0.0
C1196 C 0.73469 0.31131 0.46214 0.0
C1197 C 0.72735 0.32005 0.50253 0.0
C1198 C 0.72264 0.2857 0.49356 0.0
C1199 C 0.71677 0.31132 0.53581 0.0
C1200 C 0.7142 0.25822 0.53287 0.0
C1201 C 0.73514 0.24221 0.46478 0.0
N1202 N 0.71497 0.29456 0.53118 0.0
N1203 N 0.73246 0.2588 0.46131 0.0
H1204 H 0.82199 0.30151 0.0748 0.0
H1205 H 0.79059 0.21797 0.20692 0.0
H1206 H 0.78883 0.29908 0.20402 0.0
H1207 H 0.8224 0.21832 0.07435 0.0
H1208 H 0.79465 0.24777 0.21586 0.0
H1209 H 0.82701 0.27154 0.08326 0.0
C1210 C 0.8161 0.29477 0.10571 0.0
C1211 C 0.80477 0.30275 0.1383 0.0
C1212 C 0.80093 0.24138 0.18509 0.0
C1213 C 0.81034 0.26853 0.14792 0.0
C1214 C 0.79862 0.22431 0.18 0.0
C1215 C 0.80596 0.21568 0.13938 0.0
C1216 C 0.81044 0.25004 0.14878 0.0
C1217 C 0.81644 0.22452 0.1061 0.0
C1218 C 0.81889 0.27764 0.11031 0.0
C1219 C 0.79744 0.2934 0.17752 0.0
N1220 N 0.81813 0.2413 0.11095 0.0
N1221 N 0.80021 0.27681 0.18085 0.0
H1222 H 0.71283 0.73437 0.57743 0.0
H1223 H 0.7436 0.81868 0.70549 0.0
H1224 H 0.74636 0.73751 0.70535 0.0
H1225 H 0.71062 0.81757 0.57589 0.0
H1226 H 0.74031 0.78879 0.71503 0.0
H1227 H 0.70749 0.76431 0.58511 0.0
C1228 C 0.71875 0.74126 0.60787 0.0
C1229 C 0.73026 0.73349 0.64032 0.0
C1230 C 0.73361 0.79504 0.68478 0.0
C1231 C 0.72433 0.76767 0.64905 0.0
C1232 C 0.7355 0.81215 0.67933 0.0
C1233 C 0.72758 0.82061 0.63937 0.0
C1234 C 0.72395 0.78616 0.64949 0.0
C1235 C 0.71702 0.81152 0.6071 0.0
C1236 C 0.71578 0.75836 0.61204 0.0
C1237 C 0.73761 0.74303 0.67895 0.0
N1238 N 0.71574 0.79472 0.61228 0.0
N1239 N 0.73466 0.75959 0.68186 0.0
H1240 H 0.55357 0.46339 0.82944 0.0
H1241 H 0.46978 0.49384 0.96179 0.0
H1242 H 0.55088 0.49691 0.95742 0.0
H1243 H 0.47048 0.46209 0.82938 0.0
H1244 H 0.49964 0.49004 0.97094 0.0
H1245 H 0.5237 0.45786 0.83877 0.0
C1246 C 0.5468 0.46926 0.86028 0.0
C1247 C 0.55466 0.48084 0.89222 0.0
C1248 C 0.4933 0.48371 0.94018 0.0
C1249 C 0.52056 0.47468 0.90284 0.0
C1250 C 0.47621 0.48587 0.93498 0.0
C1251 C 0.46767 0.47849 0.89428 0.0
C1252 C 0.50207 0.47431 0.9039 0.0
C1253 C 0.47661 0.46809 0.86116 0.0
C1254 C 0.52973 0.46618 0.86538 0.0
C1255 C 0.54527 0.48811 0.9314 0.0
N1256 N 0.4934 0.46655 0.8661 0.0
N1257 N 0.52874 0.48506 0.9352 0.0
H1258 H 0.9826 0.57195 0.33183 0.0
H1259 H 0.06557 0.54023 0.4651 0.0
H1260 H 0.98443 0.53995 0.46385 0.0
H1261 H 0.06562 0.57194 0.33232 0.0
H1262 H 0.03584 0.54491 0.47475 0.0
H1263 H 1.01256 0.57696 0.34071 0.0
C1264 C 0.9892 0.56633 0.36345 0.0
C1265 C 0.98107 0.55528 0.39665 0.0
C1266 C 0.04232 0.55105 0.4438 0.0
C1267 C 1.01529 0.56081 0.40673 0.0
C1268 C 0.05933 0.54837 0.43831 0.0
C1269 C 0.06804 0.55549 0.39738 0.0
C1270 C 0.03378 0.56067 0.40754 0.0
C1271 C 0.05936 0.56614 0.36428 0.0
C1272 C 1.00632 0.56911 0.36831 0.0
C1273 C 0.99025 0.54832 0.43683 0.0
N1274 N 0.04263 0.56815 0.36947 0.0
N1275 N 1.00684 0.55103 0.44033 0.0
H1276 H 0.97111 0.49197 0.69186 0.0
H1277 H 0.05507 0.45958 0.81975 0.0
H1278 H 0.9717 0.45956 0.82304 0.0
H1279 H 0.05238 0.49433 0.69459 0.0
H1280 H 0.025 0.45496 0.81233 0.0
H1281 H 1.00098 0.48831 0.68278 0.0
C1282 C 0.97752 0.48389 0.71843 0.0
C1283 C 0.96892 0.47625 0.7587 0.0
C1284 C 0.03106 0.46338 0.78598 0.0
C1285 C 1.00336 0.47221 0.74912 0.0
C1286 C 0.04824 0.46595 0.78999 0.0
C1287 C 0.05621 0.47755 0.75819 0.0
C1288 C 0.02186 0.47239 0.7497 0.0
C1289 C 0.04673 0.48548 0.72046 0.0
C1290 C 0.99462 0.48181 0.71328 0.0
C1291 C 0.97786 0.46573 0.79154 0.0
N1292 N 0.03009 0.48287 0.71762 0.0
N1293 N 0.99466 0.46424 0.78659 0.0
H1294 H 0.48584 0.5418 0.18437 0.0
H1295 H 0.5679 0.57701 0.31591 0.0
H1296 H 0.48483 0.57289 0.31817 0.0
H1297 H 0.56697 0.54257 0.19 0.0
H1298 H 0.53774 0.58068 0.30711 0.0
H1299 H 0.51544 0.54735 0.17504 0.0
C1300 C 0.49182 0.55004 0.21135 0.0
C1301 C 0.48291 0.55669 0.25254 0.0
C1302 C 0.54421 0.57254 0.2809 0.0
C1303 C 0.51701 0.56282 0.24285 0.0
C1304 C 0.56143 0.5705 0.28573 0.0
C1305 C 0.56993 0.55926 0.25414 0.0
C1306 C 0.5355 0.56335 0.24399 0.0
C1307 C 0.56091 0.55114 0.21577 0.0
C1308 C 0.50876 0.55317 0.20612 0.0
C1309 C 0.49126 0.56746 0.28597 0.0
N1310 N 0.54422 0.55323 0.21214 0.0
N1311 N 0.50794 0.56994 0.28101 0.0
H1312 H 0.26706 0.15411 0.1809 0.0
H1313 H 0.26587 0.15887 0.48437 0.0
H1314 H 0.22262 0.16464 0.26734 0.0
H1315 H 0.31096 0.15897 0.39501 0.0
H1316 H 0.24964 0.15752 0.40633 0.0
H1317 H 0.28274 0.15226 0.25967 0.0
C1318 C 0.26053 0.15598 0.21662 0.0
C1319 C 0.24348 0.15971 0.21753 0.0
C1320 C 0.26306 0.15779 0.40368 0.0
C1321 C 0.26155 0.15757 0.30828 0.0
C1322 C 0.2724 0.15855 0.44823 0.0
C1323 C 0.28985 0.15917 0.44617 0.0
C1324 C 0.27118 0.15755 0.35646 0.0
C1325 C 0.29756 0.15854 0.39831 0.0
C1326 C 0.26957 0.15493 0.26162 0.0
C1327 C 0.23573 0.16177 0.26496 0.0
N1328 N 0.28814 0.15782 0.35522 0.0
N1329 N 0.24487 0.16076 0.30862 0.0
H1330 H 0.11122 0.01892 0.41949 0.0
H1331 H 0.13139 0.01734 0.71734 0.0
H1332 H 0.11939 0.97376 0.5048 0.0
H1333 H 0.11667 0.06168 0.63663 0.0
H1334 H 0.13007 1.00178 0.63798 0.0
H1335 H 0.11569 0.03499 0.49661 0.0
C1336 C 0.11395 1.01233 0.45455 0.0
C1337 C 0.11484 0.9949 0.45573 0.0
C1338 C 0.12722 1.01491 0.63738 0.0
C1339 C 0.1201 1.01342 0.54449 0.0
C1340 C 0.12802 0.02386 0.68266 0.0
C1341 C 0.12401 0.04083 0.68359 0.0
C1342 C 0.12234 0.02295 0.59242 0.0
C1343 C 0.11988 0.04864 0.63753 0.0
C1344 C 0.11653 0.02158 0.49862 0.0
C1345 C 0.11853 0.98715 0.50223 0.0
N1346 N 0.11903 0.03958 0.59374 0.0
N1347 N 0.12101 0.99648 0.54486 0.0
H1348 H 0.26152 0.88317 0.96238 0.0
H1349 H 0.26065 0.85951 0.66697 0.0
H1350 H 0.21758 0.86632 0.88378 0.0
H1351 H 0.30562 0.86918 0.75148 0.0
H1352 H 0.24445 0.86419 0.74384 0.0
H1353 H 0.27724 0.88093 0.88337 0.0
C1354 C 0.25512 0.87914 0.92821 0.0
C1355 C 0.23821 0.87482 0.92968 0.0
C1356 C 0.25784 0.8653 0.74574 0.0
C1357 C 0.25629 0.87209 0.83891 0.0
C1358 C 0.26717 0.86259 0.70181 0.0
C1359 C 0.28459 0.86389 0.7028 0.0
C1360 C 0.26591 0.86943 0.79127 0.0
C1361 C 0.29225 0.86801 0.74905 0.0
C1362 C 0.26416 0.8778 0.88315 0.0
C1363 C 0.23056 0.86981 0.88426 0.0
N1364 N 0.28284 0.87065 0.79152 0.0
N1365 N 0.23971 0.86847 0.84066 0.0
H1366 H 0.412 0.05825 0.00137 0.0
H1367 H 0.4127 0.96818 0.13338 0.0
H1368 H 0.41951 1.01255 0.91859 0.0
H1369 H 0.39726 1.01298 0.21009 0.0
H1370 H 0.4154 0.98415 0.05375 0.0
H1371 H 0.40719 0.0419 0.07926 0.0
C1372 C 0.41266 0.04483 -0.0004 0.0
C1373 C 0.4162 0.03679 0.95351 0.0
C1374 C 0.41128 0.99042 0.08801 0.0
C1375 C 0.41071 0.01801 0.04196 0.0
C1376 C 0.40964 0.98128 0.13326 0.0
C1377 C 0.40483 0.98928 0.17833 0.0
C1378 C 0.40813 1.00764 0.08816 0.0
C1379 C 0.40115 1.00633 0.17625 0.0
C1380 C 0.40987 0.03548 0.04391 0.0
C1381 C 0.41688 0.01933 0.95329 0.0
N1382 N 0.40299 1.01495 0.13213 0.0
N1383 N 0.41421 1.01056 -0.00327 0.0
H1384 H 0.75963 0.85886 0.97133 0.0
H1385 H 0.7608 0.88908 0.68128 0.0
H1386 H 0.8046 0.87134 0.89002 0.0
H1387 H 0.71704 0.8695 0.75507 0.0
H1388 H 0.77638 0.88525 0.75998 0.0
H1389 H 0.74357 0.86457 0.89482 0.0
C1390 C 0.76618 0.86275 0.93725 0.0
C1391 C 0.78355 0.86459 0.93708 0.0
C1392 C 0.76336 0.88188 0.75923 0.0
C1393 C 0.76505 0.87135 0.84912 0.0
C1394 C 0.7544 0.88414 0.71438 0.0
C1395 C 0.7376 0.87954 0.71161 0.0
C1396 C 0.7555 0.87493 0.80192 0.0
C1397 C 0.72994 0.87329 0.75566 0.0
C1398 C 0.75694 0.86604 0.89354 0.0
C1399 C 0.79127 0.86971 0.89179 0.0
N1400 N 0.739 0.87105 0.79903 0.0
N1401 N 0.78194 0.87296 0.84958 0.0
H1402 H 0.91102 0.05614 0.63467 0.0
H1403 H 0.91031 0.96621 0.50301 0.0
H1404 H 0.91452 1.01006 0.71834 0.0
H1405 H 0.8998 1.01179 0.4225 0.0
H1406 H 0.91126 0.98198 0.58318 0.0
H1407 H 0.9066 0.04011 0.55608 0.0
C1408 C 0.91081 0.04271 0.63652 0.0
C1409 C 0.91324 0.03445 0.68299 0.0
C1410 C 0.9086 0.98848 0.54793 0.0
C1411 C 0.90824 1.01605 0.59376 0.0
C1412 C 0.90797 0.97945 0.50233 0.0
C1413 C 0.90509 0.98772 0.45613 0.0
C1414 C 0.90638 1.00585 0.54702 0.0
C1415 C 0.90223 1.00493 0.45727 0.0
C1416 C 0.90828 0.03355 0.59179 0.0
C1417 C 0.91283 0.01699 0.68331 0.0
N1418 N 0.90308 1.01343 0.50181 0.0
N1419 N 0.91046 1.0084 0.63947 0.0
H1420 H 0.81494 0.16516 0.25689 0.0
H1421 H 0.72516 0.16585 0.39104 0.0
H1422 H 0.76977 0.14964 0.18237 0.0
H1423 H 0.77103 0.1751 0.4713 0.0
H1424 H 0.7413 0.16031 0.3133 0.0
H1425 H 0.79919 0.16877 0.3365 0.0
C1426 C 0.80181 0.16227 0.25751 0.0
C1427 C 0.79364 0.15716 0.21305 0.0
C1428 C 0.7478 0.16355 0.34804 0.0
C1429 C 0.77551 0.1615 0.3032 0.0
C1430 C 0.73857 0.16676 0.39226 0.0
C1431 C 0.74673 0.17096 0.43762 0.0
C1432 C 0.76527 0.16462 0.34933 0.0
C1433 C 0.76418 0.17193 0.43717 0.0
C1434 C 0.79278 0.16443 0.30275 0.0
C1435 C 0.77654 0.15373 0.21575 0.0
N1436 N 0.77284 0.16882 0.39381 0.0
N1437 N 0.76804 0.15607 0.25984 0.0
H1438 H 0.61784 0.97788 0.13653 0.0
H1439 H 0.61652 0.06796 0.00435 0.0
H1440 H 0.60867 0.02347 0.21832 0.0
H1441 H 0.63208 0.02321 0.92757 0.0
H1442 H 0.6136 0.05194 0.08375 0.0
H1443 H 0.62263 0.99425 0.05867 0.0
C1444 C 0.61679 0.99128 0.13807 0.0
C1445 C 0.61282 0.99929 0.18389 0.0
C1446 C 0.61779 0.04568 0.04953 0.0
C1447 C 0.61831 0.01808 0.09548 0.0
C1448 C 0.61955 0.05486 0.0044 0.0
C1449 C 0.62447 0.0469 0.95939 0.0
C1450 C 0.62095 0.02846 0.04934 0.0
C1451 C 0.62812 0.02984 0.96138 0.0
C1452 C 0.61958 1.00064 0.09378 0.0
C1453 C 0.61166 0.01672 0.18384 0.0
N1454 N 0.62618 0.02119 0.00542 0.0
N1455 N 0.61436 0.0255 0.14042 0.0
H1456 H 0.81725 0.66579 0.88956 0.0
H1457 H 0.72746 0.6661 0.75589 0.0
H1458 H 0.77227 0.64943 0.96395 0.0
H1459 H 0.77329 0.67583 0.67555 0.0
H1460 H 0.74363 0.66055 0.83355 0.0
H1461 H 0.80143 0.66959 0.81024 0.0
C1462 C 0.80414 0.66276 0.88897 0.0
C1463 C 0.79606 0.65735 0.93333 0.0
C1464 C 0.75012 0.6639 0.79881 0.0
C1465 C 0.77785 0.66191 0.84348 0.0
C1466 C 0.74087 0.66712 0.75464 0.0
C1467 C 0.74901 0.67145 0.70925 0.0
C1468 C 0.76758 0.66509 0.79746 0.0
C1469 C 0.76645 0.67256 0.70967 0.0
C1470 C 0.79508 0.66503 0.84389 0.0
C1471 C 0.77899 0.65375 0.93066 0.0
N1472 N 0.77512 0.66943 0.75298 0.0
N1473 N 0.77045 0.6562 0.88671 0.0
H1474 H 0.6379 0.52365 0.21429 0.0
H1475 H 0.61209 0.52499 0.92046 0.0
H1476 H 0.62097 0.5678 0.13679 0.0
H1477 H 0.62233 0.47992 0.00406 0.0
H1478 H 0.61734 0.54107 -0.00287 0.0
H1479 H 0.63494 0.50803 0.13542 0.0
C1480 C 0.63371 0.53012 0.18038 0.0
C1481 C 0.62959 0.54705 0.18213 0.0
C1482 C 0.61844 0.52768 -0.00113 0.0
C1483 C 0.62601 0.5291 0.09154 0.0
C1484 C 0.61541 0.51842 0.95506 0.0
C1485 C 0.61672 0.50101 0.95584 0.0
C1486 C 0.62292 0.51955 0.04406 0.0
C1487 C 0.62114 0.49329 0.00179 0.0
C1488 C 0.63196 0.52114 0.1354 0.0
C1489 C 0.62434 0.55479 0.13704 0.0
N1490 N 0.62411 0.50263 0.04413 0.0
N1491 N 0.62258 0.5457 0.09354 0.0
H1492 H 0.76322 0.38799 0.46124 0.0
H1493 H 0.76155 0.36046 0.16903 0.0
H1494 H 0.71901 0.37029 0.38589 0.0
H1495 H 0.80677 0.37079 0.25155 0.0
H1496 H 0.74555 0.36613 0.24569 0.0
H1497 H 0.77875 0.38455 0.38225 0.0
C1498 C 0.75671 0.38354 0.42775 0.0
C1499 C 0.73979 0.37934 0.43015 0.0
C1500 C 0.75896 0.36715 0.2472 0.0
C1501 C 0.75764 0.3752 0.33947 0.0
C1502 C 0.76817 0.36388 0.2034 0.0
C1503 C 0.78559 0.36509 0.20388 0.0
C1504 C 0.76715 0.3718 0.29205 0.0
C1505 C 0.79339 0.36965 0.24953 0.0
C1506 C 0.76564 0.38151 0.38272 0.0
C1507 C 0.73201 0.37374 0.3856 0.0
N1508 N 0.78409 0.37287 0.29185 0.0
N1509 N 0.74105 0.37171 0.34205 0.0
H1510 H 0.91637 0.46731 0.64116 0.0
H1511 H 0.91513 0.55732 0.50867 0.0
H1512 H 0.9025 0.51235 0.71938 0.0
H1513 H 0.92257 0.51151 0.42638 0.0
H1514 H 0.91068 0.54108 0.58698 0.0
H1515 H 0.9185 0.48324 0.56134 0.0
C1516 C 0.91355 0.48046 0.64137 0.0
C1517 C 0.90934 0.48853 0.68686 0.0
C1518 C 0.91326 0.53462 0.55165 0.0
C1519 C 0.91196 0.50684 0.59642 0.0
C1520 C 0.91584 0.5439 0.50709 0.0
C1521 C 0.91928 0.53579 0.46104 0.0
C1522 C 0.9142 0.51715 0.54995 0.0
C1523 C 0.92002 0.51834 0.46105 0.0
C1524 C 0.91486 0.48958 0.59599 0.0
C1525 C 0.90593 0.50565 0.68517 0.0
N1526 N 0.91755 0.50964 0.50472 0.0
N1527 N 0.90742 0.51423 0.64087 0.0
H1528 H 0.24502 0.3947 0.20264 0.0
H1529 H 0.29536 0.34071 0.40425 0.0
H1530 H 0.23446 0.3429 0.22771 0.0
H1531 H 0.28643 0.39288 0.4273 0.0
H1532 H 0.27686 0.34139 0.32955 0.0
H1533 H 0.26314 0.39458 0.27792 0.0
C1534 C 0.24623 0.38342 0.22493 0.0
C1535 C 0.23802 0.3689 0.21 0.0
C1536 C 0.27914 0.35272 0.35061 0.0
C1537 C 0.25935 0.3684 0.29397 0.0
C1538 C 0.28985 0.35238 0.3926 0.0
C1539 C 0.29257 0.36684 0.42104 0.0
C1540 C 0.27129 0.36766 0.33694 0.0
C1541 C 0.28484 0.38157 0.40551 0.0
C1542 C 0.25667 0.38331 0.26742 0.0
C1543 C 0.24034 0.35443 0.2389 0.0
N1544 N 0.27458 0.38165 0.36433 0.0
N1545 N 0.25098 0.35447 0.27927 0.0
H1546 H 0.41631 0.46913 0.00826 0.0
H1547 H 0.41553 0.55864 0.14284 0.0
H1548 H 0.40048 0.5142 0.93357 0.0
H1549 H 0.42516 0.51282 0.22323 0.0
H1550 H 0.41013 0.54251 0.06514 0.0
H1551 H 0.41924 0.48474 0.08829 0.0
C1552 C 0.41319 0.48221 0.00894 0.0
C1553 C 0.40823 0.4904 0.96431 0.0
C1554 C 0.4134 0.53601 0.09991 0.0
C1555 C 0.41179 0.50836 0.05492 0.0
C1556 C 0.41654 0.54523 0.14411 0.0
C1557 C 0.42084 0.53709 0.18946 0.0
C1558 C 0.41465 0.51857 0.1012 0.0
C1559 C 0.42192 0.51966 0.18908 0.0
C1560 C 0.41497 0.49115 0.05441 0.0
C1561 C 0.40448 0.50742 0.96708 0.0
N1562 N 0.4189 0.51101 0.14571 0.0
N1563 N 0.40645 0.51584 0.0114 0.0
H1564 H 0.27324 0.67093 0.97744 0.0
H1565 H 0.27262 0.64644 0.68271 0.0
H1566 H 0.22836 0.66053 0.89326 0.0
H1567 H 0.31637 0.66397 0.7609 0.0
H1568 H 0.25685 0.64879 0.76161 0.0
H1569 H 0.28946 0.66629 0.90063 0.0
C1570 C 0.26674 0.6677 0.94268 0.0
C1571 C 0.24934 0.66618 0.94177 0.0
C1572 C 0.26991 0.65203 0.76176 0.0
C1573 C 0.26806 0.66067 0.85339 0.0
C1574 C 0.27897 0.65064 0.71677 0.0
C1575 C 0.29584 0.65511 0.71523 0.0
C1576 C 0.27771 0.65797 0.80584 0.0
C1577 C 0.30342 0.66034 0.7605 0.0
C1578 C 0.27609 0.66502 0.89879 0.0
C1579 C 0.24171 0.66188 0.89563 0.0
N1580 N 0.29425 0.66174 0.80402 0.0
N1581 N 0.25114 0.65925 0.85319 0.0
H1582 H 0.12234 0.56247 0.51135 0.0
H1583 H 0.12082 0.47199 0.64026 0.0
H1584 H 0.1341 0.51733 0.43043 0.0
H1585 H 0.11809 0.51771 0.72566 0.0
H1586 H 0.1252 0.48835 0.56209 0.0
H1587 H 0.12061 0.54632 0.59086 0.0
C1588 C 0.12478 0.54925 0.51045 0.0
C1589 C 0.12827 0.54122 0.4643 0.0
C1590 C 0.12368 0.49476 0.59809 0.0
C1591 C 0.12608 0.52266 0.5544 0.0
C1592 C 0.12115 0.48541 0.64257 0.0
C1593 C 0.11901 0.49346 0.68945 0.0
C1594 C 0.12397 0.51224 0.60071 0.0
C1595 C 0.11958 0.51092 0.69034 0.0
C1596 C 0.12371 0.54 0.55567 0.0
C1597 C 0.13122 0.52402 0.46515 0.0
N1598 N 0.12193 0.51969 0.64675 0.0
N1599 N 0.12993 0.51531 0.50929 0.0
loop_
_geom_bond_atom_site_label_1
_geom_bond_atom_site_label_2
_geom_bond_distance
_geom_bond_site_symmetry_2
_ccdc_geom_bond_type
Co0 O1 2.216 . S
Co0 O2 2.091 . S
Co0 O4 2.004 . S
Co0 O10 2.021 1_554 S
Co0 O12 2.137 . S
Co0 O13 2.244 . S
O1 Co0 2.216 . S
O1 C8 1.247 . S
O2 Co0 2.091 . S
O2 C8 1.261 . S
C3 O12 1.247 . S
C3 O13 1.272 . S
O4 Co0 2.004 . S
O4 C9 1.259 . S
Co5 O6 2.061 . S
Co5 O11 2.052 . S
Co5 O13 2.135 . S
O6 Co5 2.061 . S
O6 C9 1.235 . S
C7 O10 1.238 . S
C7 O11 1.241 1_556 S
C8 O1 1.247 . S
C8 O2 1.261 . S
C9 O4 1.259 . S
C9 O6 1.235 . S
O10 Co0 2.021 1_556 S
O10 C7 1.238 . S
O11 Co5 2.052 . S
O11 C7 1.241 1_554 S
O12 Co0 2.137 . S
O12 C3 1.247 . S
O13 Co0 2.244 . S
O13 C3 1.272 . S
O13 Co5 2.135 . S
Co14 O15 2.216 . S
Co14 O16 2.091 . S
Co14 O18 2.004 . S
Co14 O24 2.021 . S
Co14 O26 2.137 . S
Co14 O27 2.244 . S
O15 Co14 2.216 . S
O15 C22 1.247 . S
O16 Co14 2.091 . S
O16 C22 1.261 . S
C17 O26 1.247 . S
C17 O27 1.272 . S
O18 Co14 2.004 . S
O18 C23 1.259 . S
Co19 O20 2.061 . S
Co19 O25 2.052 . S
Co19 O27 2.135 . S
O20 Co19 2.061 . S
O20 C23 1.235 . S
C21 O24 1.238 . S
C21 O25 1.241 . S
C22 O15 1.247 . S
C22 O16 1.261 . S
C23 O18 1.259 . S
C23 O20 1.235 . S
O24 Co14 2.021 . S
O24 C21 1.238 . S
O25 Co19 2.052 . S
O25 C21 1.241 . S
O26 Co14 2.137 . S
O26 C17 1.247 . S
O27 Co14 2.244 . S
O27 C17 1.272 . S
O27 Co19 2.135 . S
Co28 O29 2.216 . S
Co28 O30 2.091 . S
Co28 O32 2.004 . S
Co28 O38 2.021 . S
Co28 O40 2.137 . S
Co28 O41 2.244 . S
O29 Co28 2.216 . S
O29 C36 1.247 . S
O30 Co28 2.091 . S
O30 C36 1.261 . S
C31 O40 1.247 . S
C31 O41 1.272 . S
O32 Co28 2.004 . S
O32 C37 1.259 . S
Co33 O34 2.061 . S
Co33 O39 2.052 . S
Co33 O41 2.135 . S
O34 Co33 2.061 . S
O34 C37 1.235 . S
C35 O38 1.238 . S
C35 O39 1.241 . S
C36 O29 1.247 . S
C36 O30 1.261 . S
C37 O32 1.259 . S
C37 O34 1.235 . S
O38 Co28 2.021 . S
O38 C35 1.238 . S
O39 Co33 2.052 . S
O39 C35 1.241 . S
O40 Co28 2.137 . S
O40 C31 1.247 . S
O41 Co28 2.244 . S
O41 C31 1.272 . S
O41 Co33 2.135 . S
Co42 O43 2.216 . S
Co42 O44 2.091 . S
Co42 O46 2.004 . S
Co42 O52 2.021 . S
Co42 O54 2.137 . S
Co42 O55 2.244 . S
O43 Co42 2.216 . S
O43 C50 1.247 . S
O44 Co42 2.091 . S
O44 C50 1.261 . S
C45 O54 1.247 . S
C45 O55 1.272 . S
O46 Co42 2.004 . S
O46 C51 1.259 . S
Co47 O48 2.061 . S
Co47 O53 2.052 . S
Co47 O55 2.135 . S
O48 Co47 2.061 . S
O48 C51 1.235 . S
C49 O52 1.238 . S
C49 O53 1.241 . S
C50 O43 1.247 . S
C50 O44 1.261 . S
C51 O46 1.259 . S
C51 O48 1.235 . S
O52 Co42 2.021 . S
O52 C49 1.238 . S
O53 Co47 2.052 . S
O53 C49 1.241 . S
O54 Co42 2.137 . S
O54 C45 1.247 . S
O55 Co42 2.244 . S
O55 C45 1.272 . S
O55 Co47 2.135 . S
Co56 O57 2.216 . S
Co56 O58 2.091 . S
Co56 O60 2.004 . S
Co56 O66 2.021 . S
Co56 O68 2.137 . S
Co56 O69 2.244 . S
O57 Co56 2.216 . S
O57 C64 1.247 . S
O58 Co56 2.091 . S
O58 C64 1.261 . S
C59 O68 1.247 . S
C59 O69 1.272 . S
O60 Co56 2.004 . S
O60 C65 1.259 . S
Co61 O62 2.061 . S
Co61 O67 2.052 . S
Co61 O69 2.135 . S
O62 Co61 2.061 . S
O62 C65 1.235 . S
C63 O66 1.238 . S
C63 O67 1.241 . S
C64 O57 1.247 . S
C64 O58 1.261 . S
C65 O60 1.259 . S
C65 O62 1.235 . S
O66 Co56 2.021 . S
O66 C63 1.238 . S
O67 Co61 2.052 . S
O67 C63 1.241 . S
O68 Co56 2.137 . S
O68 C59 1.247 . S
O69 Co56 2.244 . S
O69 C59 1.272 . S
O69 Co61 2.135 . S
Co70 O71 2.216 . S
Co70 O72 2.091 . S
Co70 O74 2.004 . S
Co70 O80 2.021 . S
Co70 O82 2.137 . S
Co70 O83 2.244 . S
O71 Co70 2.216 . S
O71 C78 1.247 . S
O72 Co70 2.091 . S
O72 C78 1.261 . S
C73 O82 1.247 . S
C73 O83 1.272 . S
O74 Co70 2.004 . S
O74 C79 1.259 . S
Co75 O76 2.061 . S
Co75 O81 2.052 . S
Co75 O83 2.135 . S
O76 Co75 2.061 . S
O76 C79 1.235 . S
C77 O80 1.238 . S
C77 O81 1.241 . S
C78 O71 1.247 . S
C78 O72 1.261 . S
C79 O74 1.259 . S
C79 O76 1.235 . S
O80 Co70 2.021 . S
O80 C77 1.238 . S
O81 Co75 2.052 . S
O81 C77 1.241 . S
O82 Co70 2.137 . S
O82 C73 1.247 . S
O83 Co70 2.244 . S
O83 C73 1.272 . S
O83 Co75 2.135 . S
Co84 O85 2.216 . S
Co84 O86 2.091 . S
Co84 O88 2.004 . S
Co84 O94 2.021 . S
Co84 O96 2.137 . S
Co84 O97 2.244 . S
O85 Co84 2.216 . S
O85 C92 1.247 . S
O86 Co84 2.091 . S
O86 C92 1.261 . S
C87 O96 1.247 . S
C87 O97 1.272 . S
O88 Co84 2.004 . S
O88 C93 1.259 . S
Co89 O90 2.061 . S
Co89 O95 2.052 . S
Co89 O97 2.135 . S
O90 Co89 2.061 . S
O90 C93 1.235 . S
C91 O94 1.238 . S
C91 O95 1.241 . S
C92 O85 1.247 . S
C92 O86 1.261 . S
C93 O88 1.259 . S
C93 O90 1.235 . S
O94 Co84 2.021 . S
O94 C91 1.238 . S
O95 Co89 2.052 . S
O95 C91 1.241 . S
O96 Co84 2.137 . S
O96 C87 1.247 . S
O97 Co84 2.244 . S
O97 C87 1.272 . S
O97 Co89 2.135 . S
Co98 O99 2.216 . S
Co98 O100 2.091 . S
Co98 O102 2.004 . S
Co98 O108 2.021 . S
Co98 O110 2.137 . S
Co98 O111 2.244 . S
O99 Co98 2.216 . S
O99 C106 1.247 . S
O100 Co98 2.091 . S
O100 C106 1.261 . S
C101 O110 1.247 . S
C101 O111 1.272 . S
O102 Co98 2.004 . S
O102 C107 1.259 . S
Co103 O104 2.061 . S
Co103 O109 2.052 . S
Co103 O111 2.135 . S
O104 Co103 2.061 . S
O104 C107 1.235 . S
C105 O108 1.238 . S
C105 O109 1.241 . S
C106 O99 1.247 . S
C106 O100 1.261 . S
C107 O102 1.259 . S
C107 O104 1.235 . S
O108 Co98 2.021 . S
O108 C105 1.238 . S
O109 Co103 2.052 . S
O109 C105 1.241 . S
O110 Co98 2.137 . S
O110 C101 1.247 . S
O111 Co98 2.244 . S
O111 C101 1.272 . S
O111 Co103 2.135 . S
Co112 O113 2.216 . S
Co112 O114 2.091 . S
Co112 O116 2.004 . S
Co112 O122 2.021 . S
Co112 O124 2.137 . S
Co112 O125 2.244 . S
O113 Co112 2.216 . S
O113 C120 1.247 . S
O114 Co112 2.091 . S
O114 C120 1.261 . S
C115 O124 1.247 . S
C115 O125 1.272 . S
O116 Co112 2.004 . S
O116 C121 1.259 . S
Co117 O118 2.061 . S
Co117 O123 2.052 . S
Co117 O125 2.135 . S
O118 Co117 2.061 . S
O118 C121 1.235 . S
C119 O122 1.238 . S
C119 O123 1.241 . S
C120 O113 1.247 . S
C120 O114 1.261 . S
C121 O116 1.259 . S
C121 O118 1.235 . S
O122 Co112 2.021 . S
O122 C119 1.238 . S
O123 Co117 2.052 . S
O123 C119 1.241 . S
O124 Co112 2.137 . S
O124 C115 1.247 . S
O125 Co112 2.244 . S
O125 C115 1.272 . S
O125 Co117 2.135 . S
Co126 O127 2.216 . S
Co126 O128 2.091 . S
Co126 O130 2.004 . S
Co126 O136 2.021 . S
Co126 O138 2.137 . S
Co126 O139 2.244 . S
O127 Co126 2.216 . S
O127 C134 1.247 . S
O128 Co126 2.091 . S
O128 C134 1.261 . S
C129 O138 1.247 . S
C129 O139 1.272 . S
O130 Co126 2.004 . S
O130 C135 1.259 . S
Co131 O132 2.061 . S
Co131 O137 2.052 . S
Co131 O139 2.135 . S
O132 Co131 2.061 . S
O132 C135 1.235 . S
C133 O136 1.238 . S
C133 O137 1.241 . S
C134 O127 1.247 . S
C134 O128 1.261 . S
C135 O130 1.259 . S
C135 O132 1.235 . S
O136 Co126 2.021 . S
O136 C133 1.238 . S
O137 Co131 2.052 . S
O137 C133 1.241 . S
O138 Co126 2.137 . S
O138 C129 1.247 . S
O139 Co126 2.244 . S
O139 C129 1.272 . S
O139 Co131 2.135 . S
Co140 O141 2.216 . S
Co140 O142 2.091 . S
Co140 O144 2.004 . S
Co140 O150 2.021 . S
Co140 O152 2.137 . S
Co140 O153 2.244 . S
O141 Co140 2.216 . S
O141 C148 1.247 . S
O142 Co140 2.091 . S
O142 C148 1.261 . S
C143 O152 1.247 . S
C143 O153 1.272 . S
O144 Co140 2.004 . S
O144 C149 1.259 . S
Co145 O146 2.061 . S
Co145 O151 2.052 . S
Co145 O153 2.135 . S
O146 Co145 2.061 . S
O146 C149 1.235 . S
C147 O150 1.238 . S
C147 O151 1.241 . S
C148 O141 1.247 . S
C148 O142 1.261 . S
C149 O144 1.259 . S
C149 O146 1.235 . S
O150 Co140 2.021 . S
O150 C147 1.238 . S
O151 Co145 2.052 . S
O151 C147 1.241 . S
O152 Co140 2.137 . S
O152 C143 1.247 . S
O153 Co140 2.244 . S
O153 C143 1.272 . S
O153 Co145 2.135 . S
Co154 O155 2.216 . S
Co154 O156 2.091 . S
Co154 O158 2.004 . S
Co154 O164 2.021 . S
Co154 O166 2.137 . S
Co154 O167 2.244 . S
O155 Co154 2.216 . S
O155 C162 1.247 . S
O156 Co154 2.091 . S
O156 C162 1.261 . S
C157 O166 1.247 . S
C157 O167 1.272 . S
O158 Co154 2.004 . S
O158 C163 1.259 . S
Co159 O160 2.061 . S
Co159 O165 2.052 . S
Co159 O167 2.135 . S
O160 Co159 2.061 . S
O160 C163 1.235 . S
C161 O164 1.238 . S
C161 O165 1.241 . S
C162 O155 1.247 . S
C162 O156 1.261 . S
C163 O158 1.259 . S
C163 O160 1.235 . S
O164 Co154 2.021 . S
O164 C161 1.238 . S
O165 Co159 2.052 . S
O165 C161 1.241 . S
O166 Co154 2.137 . S
O166 C157 1.247 . S
O167 Co154 2.244 . S
O167 C157 1.272 . S
O167 Co159 2.135 . S
Co168 O169 2.216 . S
Co168 O170 2.091 . S
Co168 O172 2.004 . S
Co168 O178 2.021 1_554 S
Co168 O180 2.137 . S
Co168 O181 2.244 . S
O169 Co168 2.216 . S
O169 C176 1.247 . S
O170 Co168 2.091 . S
O170 C176 1.261 . S
C171 O180 1.247 . S
C171 O181 1.272 . S
O172 Co168 2.004 . S
O172 C177 1.259 . S
Co173 O174 2.061 . S
Co173 O179 2.052 . S
Co173 O181 2.135 . S
O174 Co173 2.061 . S
O174 C177 1.235 . S
C175 O178 1.238 . S
C175 O179 1.241 1_556 S
C176 O169 1.247 . S
C176 O170 1.261 . S
C177 O172 1.259 . S
C177 O174 1.235 . S
O178 Co168 2.021 1_556 S
O178 C175 1.238 . S
O179 Co173 2.052 . S
O179 C175 1.241 1_554 S
O180 Co168 2.137 . S
O180 C171 1.247 . S
O181 Co168 2.244 . S
O181 C171 1.272 . S
O181 Co173 2.135 . S
Co182 O183 2.216 . S
Co182 O184 2.091 . S
Co182 O186 2.004 . S
Co182 O192 2.021 . S
Co182 O194 2.137 . S
Co182 O195 2.244 . S
O183 Co182 2.216 . S
O183 C190 1.247 . S
O184 Co182 2.091 . S
O184 C190 1.261 . S
C185 O194 1.247 . S
C185 O195 1.272 . S
O186 Co182 2.004 . S
O186 C191 1.259 . S
Co187 O188 2.061 . S
Co187 O193 2.052 . S
Co187 O195 2.135 . S
O188 Co187 2.061 . S
O188 C191 1.235 . S
C189 O192 1.238 . S
C189 O193 1.241 . S
C190 O183 1.247 . S
C190 O184 1.261 . S
C191 O186 1.259 . S
C191 O188 1.235 . S
O192 Co182 2.021 . S
O192 C189 1.238 . S
O193 Co187 2.052 . S
O193 C189 1.241 . S
O194 Co182 2.137 . S
O194 C185 1.247 . S
O195 Co182 2.244 . S
O195 C185 1.272 . S
O195 Co187 2.135 . S
Co196 O197 2.216 . S
Co196 O198 2.091 . S
Co196 O200 2.004 . S
Co196 O206 2.021 . S
Co196 O208 2.137 . S
Co196 O209 2.244 . S
O197 Co196 2.216 . S
O197 C204 1.247 . S
O198 Co196 2.091 . S
O198 C204 1.261 . S
C199 O208 1.247 . S
C199 O209 1.272 . S
O200 Co196 2.004 . S
O200 C205 1.259 . S
Co201 O202 2.061 . S
Co201 O207 2.052 . S
Co201 O209 2.135 . S
O202 Co201 2.061 . S
O202 C205 1.235 . S
C203 O206 1.238 . S
C203 O207 1.241 . S
C204 O197 1.247 . S
C204 O198 1.261 . S
C205 O200 1.259 . S
C205 O202 1.235 . S
O206 Co196 2.021 . S
O206 C203 1.238 . S
O207 Co201 2.052 . S
O207 C203 1.241 . S
O208 Co196 2.137 . S
O208 C199 1.247 . S
O209 Co196 2.244 . S
O209 C199 1.272 . S
O209 Co201 2.135 . S
Co210 O211 2.216 . S
Co210 O212 2.091 . S
Co210 O214 2.004 . S
Co210 O220 2.021 . S
Co210 O222 2.137 . S
Co210 O223 2.244 . S
O211 Co210 2.216 . S
O211 C218 1.247 . S
O212 Co210 2.091 . S
O212 C218 1.261 . S
C213 O222 1.247 . S
C213 O223 1.272 . S
O214 Co210 2.004 . S
O214 C219 1.259 . S
Co215 O216 2.061 . S
Co215 O221 2.052 . S
Co215 O223 2.135 . S
O216 Co215 2.061 . S
O216 C219 1.235 . S
C217 O220 1.238 . S
C217 O221 1.241 . S
C218 O211 1.247 . S
C218 O212 1.261 . S
C219 O214 1.259 . S
C219 O216 1.235 . S
O220 Co210 2.021 . S
O220 C217 1.238 . S
O221 Co215 2.052 . S
O221 C217 1.241 . S
O222 Co210 2.137 . S
O222 C213 1.247 . S
O223 Co210 2.244 . S
O223 C213 1.272 . S
O223 Co215 2.135 . S
Co224 O225 2.216 . S
Co224 O226 2.091 . S
Co224 O228 2.004 . S
Co224 O234 2.021 . S
Co224 O236 2.137 . S
Co224 O237 2.244 . S
O225 Co224 2.216 . S
O225 C232 1.247 . S
O226 Co224 2.091 . S
O226 C232 1.261 . S
C227 O236 1.247 . S
C227 O237 1.272 . S
O228 Co224 2.004 . S
O228 C233 1.259 . S
Co229 O230 2.061 . S
Co229 O235 2.052 . S
Co229 O237 2.135 . S
O230 Co229 2.061 . S
O230 C233 1.235 . S
C231 O234 1.238 . S
C231 O235 1.241 . S
C232 O225 1.247 . S
C232 O226 1.261 . S
C233 O228 1.259 . S
C233 O230 1.235 . S
O234 Co224 2.021 . S
O234 C231 1.238 . S
O235 Co229 2.052 . S
O235 C231 1.241 . S
O236 Co224 2.137 . S
O236 C227 1.247 . S
O237 Co224 2.244 . S
O237 C227 1.272 . S
O237 Co229 2.135 . S
Co238 O239 2.216 . S
Co238 O240 2.091 . S
Co238 O242 2.004 . S
Co238 O248 2.021 . S
Co238 O250 2.137 . S
Co238 O251 2.244 . S
O239 Co238 2.216 . S
O239 C246 1.247 . S
O240 Co238 2.091 . S
O240 C246 1.261 . S
C241 O250 1.247 . S
C241 O251 1.272 . S
O242 Co238 2.004 . S
O242 C247 1.259 . S
Co243 O244 2.061 . S
Co243 O249 2.052 . S
Co243 O251 2.135 . S
O244 Co243 2.061 . S
O244 C247 1.235 . S
C245 O248 1.238 . S
C245 O249 1.241 . S
C246 O239 1.247 . S
C246 O240 1.261 . S
C247 O242 1.259 . S
C247 O244 1.235 . S
O248 Co238 2.021 . S
O248 C245 1.238 . S
O249 Co243 2.052 . S
O249 C245 1.241 . S
O250 Co238 2.137 . S
O250 C241 1.247 . S
O251 Co238 2.244 . S
O251 C241 1.272 . S
O251 Co243 2.135 . S
Co252 O253 2.216 . S
Co252 O254 2.091 . S
Co252 O256 2.004 . S
Co252 O262 2.021 1_554 S
Co252 O264 2.137 . S
Co252 O265 2.244 . S
O253 Co252 2.216 . S
O253 C260 1.247 . S
O254 Co252 2.091 . S
O254 C260 1.261 . S
C255 O264 1.247 . S
C255 O265 1.272 . S
O256 Co252 2.004 . S
O256 C261 1.259 . S
Co257 O258 2.061 . S
Co257 O263 2.052 . S
Co257 O265 2.135 . S
O258 Co257 2.061 . S
O258 C261 1.235 . S
C259 O262 1.238 . S
C259 O263 1.241 1_556 S
C260 O253 1.247 . S
C260 O254 1.261 . S
C261 O256 1.259 . S
C261 O258 1.235 . S
O262 Co252 2.021 1_556 S
O262 C259 1.238 . S
O263 Co257 2.052 . S
O263 C259 1.241 1_554 S
O264 Co252 2.137 . S
O264 C255 1.247 . S
O265 Co252 2.244 . S
O265 C255 1.272 . S
O265 Co257 2.135 . S
Co266 O267 2.216 . S
Co266 O268 2.091 . S
Co266 O270 2.004 . S
Co266 O276 2.021 . S
Co266 O278 2.137 . S
Co266 O279 2.244 . S
O267 Co266 2.216 . S
O267 C274 1.247 . S
O268 Co266 2.091 . S
O268 C274 1.261 . S
C269 O278 1.247 . S
C269 O279 1.272 . S
O270 Co266 2.004 . S
O270 C275 1.259 . S
Co271 O272 2.061 . S
Co271 O277 2.052 . S
Co271 O279 2.135 . S
O272 Co271 2.061 . S
O272 C275 1.235 . S
C273 O276 1.238 . S
C273 O277 1.241 . S
C274 O267 1.247 . S
C274 O268 1.261 . S
C275 O270 1.259 . S
C275 O272 1.235 . S
O276 Co266 2.021 . S
O276 C273 1.238 . S
O277 Co271 2.052 . S
O277 C273 1.241 . S
O278 Co266 2.137 . S
O278 C269 1.247 . S
O279 Co266 2.244 . S
O279 C269 1.272 . S
O279 Co271 2.135 . S
Co280 O281 2.216 . S
Co280 O282 2.091 . S
Co280 O284 2.004 . S
Co280 O290 2.021 . S
Co280 O292 2.137 . S
Co280 O293 2.244 . S
O281 Co280 2.216 . S
O281 C288 1.247 . S
O282 Co280 2.091 . S
O282 C288 1.261 . S
C283 O292 1.247 . S
C283 O293 1.272 . S
O284 Co280 2.004 . S
O284 C289 1.259 . S
Co285 O286 2.061 . S
Co285 O291 2.052 . S
Co285 O293 2.135 . S
O286 Co285 2.061 . S
O286 C289 1.235 . S
C287 O290 1.238 . S
C287 O291 1.241 . S
C288 O281 1.247 . S
C288 O282 1.261 . S
C289 O284 1.259 . S
C289 O286 1.235 . S
O290 Co280 2.021 . S
O290 C287 1.238 . S
O291 Co285 2.052 . S
O291 C287 1.241 . S
O292 Co280 2.137 . S
O292 C283 1.247 . S
O293 Co280 2.244 . S
O293 C283 1.272 . S
O293 Co285 2.135 . S
Co294 O295 2.216 . S
Co294 O296 2.091 . S
Co294 O298 2.004 . S
Co294 O304 2.021 . S
Co294 O306 2.137 . S
Co294 O307 2.244 . S
O295 Co294 2.216 . S
O295 C302 1.247 . S
O296 Co294 2.091 . S
O296 C302 1.261 . S
C297 O306 1.247 . S
C297 O307 1.272 . S
O298 Co294 2.004 . S
O298 C303 1.259 . S
Co299 O300 2.061 . S
Co299 O305 2.052 . S
Co299 O307 2.135 . S
O300 Co299 2.061 . S
O300 C303 1.235 . S
C301 O304 1.238 . S
C301 O305 1.241 . S
C302 O295 1.247 . S
C302 O296 1.261 . S
C303 O298 1.259 . S
C303 O300 1.235 . S
O304 Co294 2.021 . S
O304 C301 1.238 . S
O305 Co299 2.052 . S
O305 C301 1.241 . S
O306 Co294 2.137 . S
O306 C297 1.247 . S
O307 Co294 2.244 . S
O307 C297 1.272 . S
O307 Co299 2.135 . S
Co308 O309 2.216 . S
Co308 O310 2.091 . S
Co308 O312 2.004 . S
Co308 O318 2.021 . S
Co308 O320 2.137 . S
Co308 O321 2.244 . S
O309 Co308 2.216 . S
O309 C316 1.247 . S
O310 Co308 2.091 . S
O310 C316 1.261 . S
C311 O320 1.247 . S
C311 O321 1.272 . S
O312 Co308 2.004 . S
O312 C317 1.259 . S
Co313 O314 2.061 . S
Co313 O319 2.052 . S
Co313 O321 2.135 . S
O314 Co313 2.061 . S
O314 C317 1.235 . S
C315 O318 1.238 . S
C315 O319 1.241 . S
C316 O309 1.247 . S
C316 O310 1.261 . S
C317 O312 1.259 . S
C317 O314 1.235 . S
O318 Co308 2.021 . S
O318 C315 1.238 . S
O319 Co313 2.052 . S
O319 C315 1.241 . S
O320 Co308 2.137 . S
O320 C311 1.247 . S
O321 Co308 2.244 . S
O321 C311 1.272 . S
O321 Co313 2.135 . S
Co322 O323 2.216 . S
Co322 O324 2.091 . S
Co322 O326 2.004 . S
Co322 O332 2.021 . S
Co322 O334 2.137 . S
Co322 O335 2.244 . S
O323 Co322 2.216 . S
O323 C330 1.247 . S
O324 Co322 2.091 . S
O324 C330 1.261 . S
C325 O334 1.247 . S
C325 O335 1.272 . S
O326 Co322 2.004 . S
O326 C331 1.259 . S
Co327 O328 2.061 . S
Co327 O333 2.052 . S
Co327 O335 2.135 . S
O328 Co327 2.061 . S
O328 C331 1.235 . S
C329 O332 1.238 . S
C329 O333 1.241 . S
C330 O323 1.247 . S
C330 O324 1.261 . S
C331 O326 1.259 . S
C331 O328 1.235 . S
O332 Co322 2.021 . S
O332 C329 1.238 . S
O333 Co327 2.052 . S
O333 C329 1.241 . S
O334 Co322 2.137 . S
O334 C325 1.247 . S
O335 Co322 2.244 . S
O335 C325 1.272 . S
O335 Co327 2.135 . S
Co336 O337 2.216 . S
Co336 O338 2.091 . S
Co336 O340 2.004 . S
Co336 O346 2.021 . S
Co336 O348 2.137 . S
Co336 O349 2.244 . S
O337 Co336 2.216 . S
O337 C344 1.247 . S
O338 Co336 2.091 . S
O338 C344 1.261 . S
C339 O348 1.247 . S
C339 O349 1.272 . S
O340 Co336 2.004 . S
O340 C345 1.259 . S
Co341 O342 2.061 . S
Co341 O347 2.052 . S
Co341 O349 2.135 . S
O342 Co341 2.061 . S
O342 C345 1.235 . S
C343 O346 1.238 . S
C343 O347 1.241 . S
C344 O337 1.247 . S
C344 O338 1.261 . S
C345 O340 1.259 . S
C345 O342 1.235 . S
O346 Co336 2.021 . S
O346 C343 1.238 . S
O347 Co341 2.052 . S
O347 C343 1.241 . S
O348 Co336 2.137 . S
O348 C339 1.247 . S
O349 Co336 2.244 . S
O349 C339 1.272 . S
O349 Co341 2.135 . S
Co350 O351 2.216 . S
Co350 O352 2.091 . S
Co350 O354 2.004 . S
Co350 O360 2.021 . S
Co350 O362 2.137 . S
Co350 O363 2.244 . S
O351 Co350 2.216 . S
O351 C358 1.247 . S
O352 Co350 2.091 . S
O352 C358 1.261 . S
C353 O362 1.247 . S
C353 O363 1.272 . S
O354 Co350 2.004 . S
O354 C359 1.259 . S
Co355 O356 2.061 . S
Co355 O361 2.052 . S
Co355 O363 2.135 . S
O356 Co355 2.061 . S
O356 C359 1.235 . S
C357 O360 1.238 . S
C357 O361 1.241 . S
C358 O351 1.247 . S
C358 O352 1.261 . S
C359 O354 1.259 . S
C359 O356 1.235 . S
O360 Co350 2.021 . S
O360 C357 1.238 . S
O361 Co355 2.052 . S
O361 C357 1.241 . S
O362 Co350 2.137 . S
O362 C353 1.247 . S
O363 Co350 2.244 . S
O363 C353 1.272 . S
O363 Co355 2.135 . S
Co364 O365 2.216 . S
Co364 O366 2.091 . S
Co364 O368 2.004 . S
Co364 O374 2.021 . S
Co364 O376 2.137 . S
Co364 O377 2.244 . S
O365 Co364 2.216 . S
O365 C372 1.247 . S
O366 Co364 2.091 . S
O366 C372 1.261 . S
C367 O376 1.247 . S
C367 O377 1.272 . S
O368 Co364 2.004 . S
O368 C373 1.259 . S
Co369 O370 2.061 . S
Co369 O375 2.052 . S
Co369 O377 2.135 . S
O370 Co369 2.061 . S
O370 C373 1.235 . S
C371 O374 1.238 . S
C371 O375 1.241 . S
C372 O365 1.247 . S
C372 O366 1.261 . S
C373 O368 1.259 . S
C373 O370 1.235 . S
O374 Co364 2.021 . S
O374 C371 1.238 . S
O375 Co369 2.052 . S
O375 C371 1.241 . S
O376 Co364 2.137 . S
O376 C367 1.247 . S
O377 Co364 2.244 . S
O377 C367 1.272 . S
O377 Co369 2.135 . S
Co378 O379 2.216 . S
Co378 O380 2.091 . S
Co378 O382 2.004 . S
Co378 O388 2.021 . S
Co378 O390 2.137 . S
Co378 O391 2.244 . S
O379 Co378 2.216 . S
O379 C386 1.247 . S
O380 Co378 2.091 . S
O380 C386 1.261 . S
C381 O390 1.247 . S
C381 O391 1.272 . S
O382 Co378 2.004 . S
O382 C387 1.259 . S
Co383 O384 2.061 . S
Co383 O389 2.052 . S
Co383 O391 2.135 . S
O384 Co383 2.061 . S
O384 C387 1.235 . S
C385 O388 1.238 . S
C385 O389 1.241 . S
C386 O379 1.247 . S
C386 O380 1.261 . S
C387 O382 1.259 . S
C387 O384 1.235 . S
O388 Co378 2.021 . S
O388 C385 1.238 . S
O389 Co383 2.052 . S
O389 C385 1.241 . S
O390 Co378 2.137 . S
O390 C381 1.247 . S
O391 Co378 2.244 . S
O391 C381 1.272 . S
O391 Co383 2.135 . S
Co392 O393 2.216 . S
Co392 O394 2.091 . S
Co392 O396 2.004 . S
Co392 O402 2.021 . S
Co392 O404 2.137 . S
Co392 O405 2.244 . S
O393 Co392 2.216 . S
O393 C400 1.247 . S
O394 Co392 2.091 . S
O394 C400 1.261 . S
C395 O404 1.247 . S
C395 O405 1.272 . S
O396 Co392 2.004 . S
O396 C401 1.259 . S
Co397 O398 2.061 . S
Co397 O403 2.052 . S
Co397 O405 2.135 . S
O398 Co397 2.061 . S
O398 C401 1.235 . S
C399 O402 1.238 . S
C399 O403 1.241 . S
C400 O393 1.247 . S
C400 O394 1.261 . S
C401 O396 1.259 . S
C401 O398 1.235 . S
O402 Co392 2.021 . S
O402 C399 1.238 . S
O403 Co397 2.052 . S
O403 C399 1.241 . S
O404 Co392 2.137 . S
O404 C395 1.247 . S
O405 Co392 2.244 . S
O405 C395 1.272 . S
O405 Co397 2.135 . S
Co406 O407 2.216 . S
Co406 O408 2.091 . S
Co406 O410 2.004 . S
Co406 O416 2.021 . S
Co406 O418 2.137 . S
Co406 O419 2.244 . S
O407 Co406 2.216 . S
O407 C414 1.247 . S
O408 Co406 2.091 . S
O408 C414 1.261 . S
C409 O418 1.247 . S
C409 O419 1.272 . S
O410 Co406 2.004 . S
O410 C415 1.259 . S
Co411 O412 2.061 . S
Co411 O417 2.052 . S
Co411 O419 2.135 . S
O412 Co411 2.061 . S
O412 C415 1.235 . S
C413 O416 1.238 . S
C413 O417 1.241 . S
C414 O407 1.247 . S
C414 O408 1.261 . S
C415 O410 1.259 . S
C415 O412 1.235 . S
O416 Co406 2.021 . S
O416 C413 1.238 . S
O417 Co411 2.052 . S
O417 C413 1.241 . S
O418 Co406 2.137 . S
O418 C409 1.247 . S
O419 Co406 2.244 . S
O419 C409 1.272 . S
O419 Co411 2.135 . S
Co420 O421 2.216 . S
Co420 O422 2.091 . S
Co420 O424 2.004 . S
Co420 O430 2.021 1_554 S
Co420 O432 2.137 . S
Co420 O433 2.244 . S
O421 Co420 2.216 . S
O421 C428 1.247 . S
O422 Co420 2.091 . S
O422 C428 1.261 . S
C423 O432 1.247 . S
C423 O433 1.272 . S
O424 Co420 2.004 . S
O424 C429 1.259 . S
Co425 O426 2.061 . S
Co425 O431 2.052 . S
Co425 O433 2.135 . S
O426 Co425 2.061 . S
O426 C429 1.235 . S
C427 O430 1.238 . S
C427 O431 1.241 1_556 S
C428 O421 1.247 . S
C428 O422 1.261 . S
C429 O424 1.259 . S
C429 O426 1.235 . S
O430 Co420 2.021 1_556 S
O430 C427 1.238 . S
O431 Co425 2.052 . S
O431 C427 1.241 1_554 S
O432 Co420 2.137 . S
O432 C423 1.247 . S
O433 Co420 2.244 . S
O433 C423 1.272 . S
O433 Co425 2.135 . S
Co434 O435 2.216 . S
Co434 O436 2.091 . S
Co434 O438 2.004 . S
Co434 O444 2.021 . S
Co434 O446 2.137 . S
Co434 O447 2.244 . S
O435 Co434 2.216 . S
O435 C442 1.247 . S
O436 Co434 2.091 . S
O436 C442 1.261 . S
C437 O446 1.247 . S
C437 O447 1.272 . S
O438 Co434 2.004 . S
O438 C443 1.259 . S
Co439 O440 2.061 . S
Co439 O445 2.052 . S
Co439 O447 2.135 . S
O440 Co439 2.061 . S
O440 C443 1.235 . S
C441 O444 1.238 . S
C441 O445 1.241 . S
C442 O435 1.247 . S
C442 O436 1.261 . S
C443 O438 1.259 . S
C443 O440 1.235 . S
O444 Co434 2.021 . S
O444 C441 1.238 . S
O445 Co439 2.052 . S
O445 C441 1.241 . S
O446 Co434 2.137 . S
O446 C437 1.247 . S
O447 Co434 2.244 . S
O447 C437 1.272 . S
O447 Co439 2.135 . S
H448 C454 0.930 . S
H449 C458 0.930 . S
H450 C463 0.929 . S
H451 C461 0.929 . S
H452 C456 0.929 . S
H453 C462 0.929 . S
C454 H448 0.930 . S
C454 C455 1.367 . S
C454 C462 1.378 . S
C455 C454 1.367 . S
C455 C463 1.433 . S
C456 H452 0.929 . S
C456 C458 1.378 . S
C456 C460 1.350 . S
C457 C460 1.463 . S
C457 C462 1.350 . S
C457 N465 1.427 . S
C458 H449 0.930 . S
C458 C456 1.378 . S
C458 C459 1.367 1_556 S
C459 C458 1.367 1_554 S
C459 C461 1.433 . S
C460 C456 1.350 . S
C460 C457 1.463 . S
C460 N464 1.427 1_556 S
C461 H451 0.929 . S
C461 C459 1.433 . S
C461 N464 1.384 . S
C462 H453 0.929 . S
C462 C454 1.378 . S
C462 C457 1.350 . S
C463 H450 0.929 . S
C463 C455 1.433 . S
C463 N465 1.384 . S
N464 C460 1.427 1_554 S
N464 C461 1.384 . S
N465 C457 1.427 . S
N465 C463 1.384 . S
H466 C472 0.930 . S
H467 C476 0.930 . S
H468 C481 0.929 . S
H469 C479 0.929 . S
H470 C474 0.929 . S
H471 C480 0.929 . S
C472 H466 0.930 . S
C472 C473 1.367 . S
C472 C480 1.378 . S
C473 C472 1.367 . S
C473 C481 1.433 . S
C474 H470 0.929 . S
C474 C476 1.378 . S
C474 C478 1.350 . S
C475 C478 1.463 . S
C475 C480 1.350 . S
C475 N483 1.427 . S
C476 H467 0.930 . S
C476 C474 1.378 . S
C476 C477 1.367 . S
C477 C476 1.367 . S
C477 C479 1.433 . S
C478 C474 1.350 . S
C478 C475 1.463 . S
C478 N482 1.427 . S
C479 H469 0.929 . S
C479 C477 1.433 . S
C479 N482 1.384 . S
C480 H471 0.929 . S
C480 C472 1.378 . S
C480 C475 1.350 . S
C481 H468 0.929 . S
C481 C473 1.433 . S
C481 N483 1.384 . S
N482 C478 1.427 . S
N482 C479 1.384 . S
N483 C475 1.427 . S
N483 C481 1.384 . S
H484 C490 0.930 . S
H485 C494 0.930 . S
H486 C499 0.929 . S
H487 C497 0.929 . S
H488 C492 0.929 . S
H489 C498 0.929 . S
C490 H484 0.930 . S
C490 C491 1.367 . S
C490 C498 1.378 . S
C491 C490 1.367 . S
C491 C499 1.433 . S
C492 H488 0.929 . S
C492 C494 1.378 . S
C492 C496 1.350 . S
C493 C496 1.463 . S
C493 C498 1.350 . S
C493 N501 1.427 . S
C494 H485 0.930 . S
C494 C492 1.378 . S
C494 C495 1.367 . S
C495 C494 1.367 . S
C495 C497 1.433 . S
C496 C492 1.350 . S
C496 C493 1.463 . S
C496 N500 1.427 . S
C497 H487 0.929 . S
C497 C495 1.433 . S
C497 N500 1.384 . S
C498 H489 0.929 . S
C498 C490 1.378 . S
C498 C493 1.350 . S
C499 H486 0.929 . S
C499 C491 1.433 . S
C499 N501 1.384 . S
N500 C496 1.427 . S
N500 C497 1.384 . S
N501 C493 1.427 . S
N501 C499 1.384 . S
H502 C508 0.930 . S
H503 C512 0.930 . S
H504 C517 0.929 . S
H505 C515 0.929 . S
H506 C510 0.929 . S
H507 C516 0.929 . S
C508 H502 0.930 . S
C508 C509 1.367 . S
C508 C516 1.378 . S
C509 C508 1.367 . S
C509 C517 1.433 . S
C510 H506 0.929 . S
C510 C512 1.378 . S
C510 C514 1.350 . S
C511 C514 1.463 . S
C511 C516 1.350 . S
C511 N519 1.427 . S
C512 H503 0.930 . S
C512 C510 1.378 . S
C512 C513 1.367 . S
C513 C512 1.367 . S
C513 C515 1.433 . S
C514 C510 1.350 . S
C514 C511 1.463 . S
C514 N518 1.427 . S
C515 H505 0.929 . S
C515 C513 1.433 . S
C515 N518 1.384 . S
C516 H507 0.929 . S
C516 C508 1.378 . S
C516 C511 1.350 . S
C517 H504 0.929 . S
C517 C509 1.433 . S
C517 N519 1.384 . S
N518 C514 1.427 . S
N518 C515 1.384 . S
N519 C511 1.427 . S
N519 C517 1.384 . S
H520 C526 0.930 . S
H521 C530 0.930 . S
H522 C535 0.929 . S
H523 C533 0.929 . S
H524 C528 0.929 . S
H525 C534 0.929 . S
C526 H520 0.930 . S
C526 C527 1.367 . S
C526 C534 1.378 . S
C527 C526 1.367 . S
C527 C535 1.433 . S
C528 H524 0.929 . S
C528 C530 1.378 . S
C528 C532 1.350 . S
C529 C532 1.463 . S
C529 C534 1.350 . S
C529 N537 1.427 . S
C530 H521 0.930 . S
C530 C528 1.378 . S
C530 C531 1.367 . S
C531 C530 1.367 . S
C531 C533 1.433 . S
C532 C528 1.350 . S
C532 C529 1.463 . S
C532 N536 1.427 . S
C533 H523 0.929 . S
C533 C531 1.433 . S
C533 N536 1.384 . S
C534 H525 0.929 . S
C534 C526 1.378 . S
C534 C529 1.350 . S
C535 H522 0.929 . S
C535 C527 1.433 . S
C535 N537 1.384 . S
N536 C532 1.427 . S
N536 C533 1.384 . S
N537 C529 1.427 . S
N537 C535 1.384 . S
H538 C544 0.930 . S
H539 C548 0.930 . S
H540 C553 0.929 . S
H541 C551 0.929 . S
H542 C546 0.929 . S
H543 C552 0.929 . S
C544 H538 0.930 . S
C544 C545 1.367 . S
C544 C552 1.378 . S
C545 C544 1.367 . S
C545 C553 1.433 . S
C546 H542 0.929 . S
C546 C548 1.378 . S
C546 C550 1.350 1_554 S
C547 C550 1.463 . S
C547 C552 1.350 . S
C547 N555 1.427 . S
C548 H539 0.930 . S
C548 C546 1.378 . S
C548 C549 1.367 . S
C549 C548 1.367 . S
C549 C551 1.433 1_554 S
C550 C546 1.350 1_556 S
C550 C547 1.463 . S
C550 N554 1.427 . S
C551 H541 0.929 . S
C551 C549 1.433 1_556 S
C551 N554 1.384 . S
C552 H543 0.929 . S
C552 C544 1.378 . S
C552 C547 1.350 . S
C553 H540 0.929 . S
C553 C545 1.433 . S
C553 N555 1.384 . S
N554 C550 1.427 . S
N554 C551 1.384 . S
N555 C547 1.427 . S
N555 C553 1.384 . S
H556 C562 0.930 . S
H557 C566 0.930 . S
H558 C571 0.929 . S
H559 C569 0.929 . S
H560 C564 0.929 . S
H561 C570 0.929 . S
C562 H556 0.930 . S
C562 C563 1.367 . S
C562 C570 1.378 . S
C563 C562 1.367 . S
C563 C571 1.433 . S
C564 H560 0.929 . S
C564 C566 1.378 . S
C564 C568 1.350 . S
C565 C568 1.463 . S
C565 C570 1.350 . S
C565 N573 1.427 . S
C566 H557 0.930 . S
C566 C564 1.378 . S
C566 C567 1.367 . S
C567 C566 1.367 . S
C567 C569 1.433 . S
C568 C564 1.350 . S
C568 C565 1.463 . S
C568 N572 1.427 . S
C569 H559 0.929 . S
C569 C567 1.433 . S
C569 N572 1.384 . S
C570 H561 0.929 . S
C570 C562 1.378 . S
C570 C565 1.350 . S
C571 H558 0.929 . S
C571 C563 1.433 . S
C571 N573 1.384 . S
N572 C568 1.427 . S
N572 C569 1.384 . S
N573 C565 1.427 . S
N573 C571 1.384 . S
H574 C580 0.930 . S
H575 C584 0.930 . S
H576 C589 0.929 . S
H577 C587 0.929 . S
H578 C582 0.929 . S
H579 C588 0.929 . S
C580 H574 0.930 . S
C580 C581 1.367 . S
C580 C588 1.378 . S
C581 C580 1.367 . S
C581 C589 1.433 . S
C582 H578 0.929 . S
C582 C584 1.378 . S
C582 C586 1.350 . S
C583 C586 1.463 . S
C583 C588 1.350 . S
C583 N591 1.427 . S
C584 H575 0.930 . S
C584 C582 1.378 . S
C584 C585 1.367 . S
C585 C584 1.367 . S
C585 C587 1.433 . S
C586 C582 1.350 . S
C586 C583 1.463 . S
C586 N590 1.427 . S
C587 H577 0.929 . S
C587 C585 1.433 . S
C587 N590 1.384 . S
C588 H579 0.929 . S
C588 C580 1.378 . S
C588 C583 1.350 . S
C589 H576 0.929 . S
C589 C581 1.433 . S
C589 N591 1.384 . S
N590 C586 1.427 . S
N590 C587 1.384 . S
N591 C583 1.427 . S
N591 C589 1.384 . S
H592 C598 0.930 . S
H593 C602 0.930 . S
H594 C607 0.929 . S
H595 C605 0.929 . S
H596 C600 0.929 . S
H597 C606 0.929 . S
C598 H592 0.930 . S
C598 C599 1.367 . S
C598 C606 1.378 . S
C599 C598 1.367 . S
C599 C607 1.433 . S
C600 H596 0.929 . S
C600 C602 1.378 . S
C600 C604 1.350 . S
C601 C604 1.463 . S
C601 C606 1.350 . S
C601 N609 1.427 . S
C602 H593 0.930 . S
C602 C600 1.378 . S
C602 C603 1.367 . S
C603 C602 1.367 . S
C603 C605 1.433 . S
C604 C600 1.350 . S
C604 C601 1.463 . S
C604 N608 1.427 . S
C605 H595 0.929 . S
C605 C603 1.433 . S
C605 N608 1.384 . S
C606 H597 0.929 . S
C606 C598 1.378 . S
C606 C601 1.350 . S
C607 H594 0.929 . S
C607 C599 1.433 . S
C607 N609 1.384 . S
N608 C604 1.427 . S
N608 C605 1.384 . S
N609 C601 1.427 . S
N609 C607 1.384 . S
H610 C616 0.930 . S
H611 C620 0.930 . S
H612 C625 0.929 . S
H613 C623 0.929 . S
H614 C618 0.929 . S
H615 C624 0.929 . S
C616 H610 0.930 . S
C616 C617 1.367 . S
C616 C624 1.378 . S
C617 C616 1.367 . S
C617 C625 1.433 . S
C618 H614 0.929 . S
C618 C620 1.378 . S
C618 C622 1.350 . S
C619 C622 1.463 . S
C619 C624 1.350 . S
C619 N627 1.427 . S
C620 H611 0.930 . S
C620 C618 1.378 . S
C620 C621 1.367 . S
C621 C620 1.367 . S
C621 C623 1.433 . S
C622 C618 1.350 . S
C622 C619 1.463 . S
C622 N626 1.427 . S
C623 H613 0.929 . S
C623 C621 1.433 . S
C623 N626 1.384 . S
C624 H615 0.929 . S
C624 C616 1.378 . S
C624 C619 1.350 . S
C625 H612 0.929 . S
C625 C617 1.433 . S
C625 N627 1.384 . S
N626 C622 1.427 . S
N626 C623 1.384 . S
N627 C619 1.427 . S
N627 C625 1.384 . S
H628 C634 0.930 . S
H629 C638 0.930 . S
H630 C643 0.929 . S
H631 C641 0.929 . S
H632 C636 0.929 . S
H633 C642 0.929 . S
C634 H628 0.930 . S
C634 C635 1.367 . S
C634 C642 1.378 . S
C635 C634 1.367 . S
C635 C643 1.433 . S
C636 H632 0.929 . S
C636 C638 1.378 . S
C636 C640 1.350 1_554 S
C637 C640 1.463 . S
C637 C642 1.350 . S
C637 N645 1.427 . S
C638 H629 0.930 . S
C638 C636 1.378 . S
C638 C639 1.367 . S
C639 C638 1.367 . S
C639 C641 1.433 1_554 S
C640 C636 1.350 1_556 S
C640 C637 1.463 . S
C640 N644 1.427 . S
C641 H631 0.929 . S
C641 C639 1.433 1_556 S
C641 N644 1.384 . S
C642 H633 0.929 . S
C642 C634 1.378 . S
C642 C637 1.350 . S
C643 H630 0.929 . S
C643 C635 1.433 . S
C643 N645 1.384 . S
N644 C640 1.427 . S
N644 C641 1.384 . S
N645 C637 1.427 . S
N645 C643 1.384 . S
H646 C652 0.930 . S
H647 C656 0.930 . S
H648 C661 0.929 . S
H649 C659 0.929 . S
H650 C654 0.929 . S
H651 C660 0.929 . S
C652 H646 0.930 . S
C652 C653 1.367 . S
C652 C660 1.378 . S
C653 C652 1.367 . S
C653 C661 1.433 . S
C654 H650 0.929 . S
C654 C656 1.378 . S
C654 C658 1.350 . S
C655 C658 1.463 . S
C655 C660 1.350 . S
C655 N663 1.427 . S
C656 H647 0.930 . S
C656 C654 1.378 . S
C656 C657 1.367 . S
C657 C656 1.367 . S
C657 C659 1.433 . S
C658 C654 1.350 . S
C658 C655 1.463 . S
C658 N662 1.427 . S
C659 H649 0.929 . S
C659 C657 1.433 . S
C659 N662 1.384 . S
C660 H651 0.929 . S
C660 C652 1.378 . S
C660 C655 1.350 . S
C661 H648 0.929 . S
C661 C653 1.433 . S
C661 N663 1.384 . S
N662 C658 1.427 . S
N662 C659 1.384 . S
N663 C655 1.427 . S
N663 C661 1.384 . S
H664 C670 0.930 . S
H665 C674 0.930 . S
H666 C679 0.929 . S
H667 C677 0.929 . S
H668 C672 0.929 . S
H669 C678 0.929 . S
C670 H664 0.930 . S
C670 C671 1.367 . S
C670 C678 1.378 . S
C671 C670 1.367 . S
C671 C679 1.433 . S
C672 H668 0.929 . S
C672 C674 1.378 . S
C672 C676 1.350 . S
C673 C676 1.463 . S
C673 C678 1.350 . S
C673 N681 1.427 . S
C674 H665 0.930 . S
C674 C672 1.378 . S
C674 C675 1.367 . S
C675 C674 1.367 . S
C675 C677 1.433 . S
C676 C672 1.350 . S
C676 C673 1.463 . S
C676 N680 1.427 . S
C677 H667 0.929 . S
C677 C675 1.433 . S
C677 N680 1.384 . S
C678 H669 0.929 . S
C678 C670 1.378 . S
C678 C673 1.350 . S
C679 H666 0.929 . S
C679 C671 1.433 . S
C679 N681 1.384 . S
N680 C676 1.427 . S
N680 C677 1.384 . S
N681 C673 1.427 . S
N681 C679 1.384 . S
H682 C688 0.930 . S
H683 C692 0.930 . S
H684 C697 0.929 . S
H685 C695 0.929 . S
H686 C690 0.929 . S
H687 C696 0.929 . S
C688 H682 0.930 . S
C688 C689 1.367 . S
C688 C696 1.378 . S
C689 C688 1.367 . S
C689 C697 1.433 . S
C690 H686 0.929 . S
C690 C692 1.378 . S
C690 C694 1.350 . S
C691 C694 1.463 . S
C691 C696 1.350 . S
C691 N699 1.427 . S
C692 H683 0.930 . S
C692 C690 1.378 . S
C692 C693 1.367 . S
C693 C692 1.367 . S
C693 C695 1.433 . S
C694 C690 1.350 . S
C694 C691 1.463 . S
C694 N698 1.427 . S
C695 H685 0.929 . S
C695 C693 1.433 . S
C695 N698 1.384 . S
C696 H687 0.929 . S
C696 C688 1.378 . S
C696 C691 1.350 . S
C697 H684 0.929 . S
C697 C689 1.433 . S
C697 N699 1.384 . S
N698 C694 1.427 . S
N698 C695 1.384 . S
N699 C691 1.427 . S
N699 C697 1.384 . S
H700 C706 0.930 . S
H701 C710 0.930 . S
H702 C715 0.929 . S
H703 C713 0.929 . S
H704 C708 0.929 . S
H705 C714 0.929 . S
C706 H700 0.930 . S
C706 C707 1.367 . S
C706 C714 1.378 . S
C707 C706 1.367 . S
C707 C715 1.433 . S
C708 H704 0.929 . S
C708 C710 1.378 . S
C708 C712 1.350 . S
C709 C712 1.463 . S
C709 C714 1.350 . S
C709 N717 1.427 . S
C710 H701 0.930 . S
C710 C708 1.378 . S
C710 C711 1.367 . S
C711 C710 1.367 . S
C711 C713 1.433 . S
C712 C708 1.350 . S
C712 C709 1.463 . S
C712 N716 1.427 . S
C713 H703 0.929 . S
C713 C711 1.433 . S
C713 N716 1.384 . S
C714 H705 0.929 . S
C714 C706 1.378 . S
C714 C709 1.350 . S
C715 H702 0.929 . S
C715 C707 1.433 . S
C715 N717 1.384 . S
N716 C712 1.427 . S
N716 C713 1.384 . S
N717 C709 1.427 . S
N717 C715 1.384 . S
H718 C724 0.930 . S
H719 C728 0.930 . S
H720 C733 0.929 . S
H721 C731 0.929 . S
H722 C726 0.929 . S
H723 C732 0.929 1_554 S
C724 H718 0.930 . S
C724 C725 1.367 . S
C724 C732 1.378 . S
C725 C724 1.367 . S
C725 C733 1.433 . S
C726 H722 0.929 . S
C726 C728 1.378 . S
C726 C730 1.350 . S
C727 C730 1.463 . S
C727 C732 1.350 . S
C727 N735 1.427 . S
C728 H719 0.930 . S
C728 C726 1.378 . S
C728 C729 1.367 1_556 S
C729 C728 1.367 1_554 S
C729 C731 1.433 . S
C730 C726 1.350 . S
C730 C727 1.463 . S
C730 N734 1.427 1_556 S
C731 H721 0.929 . S
C731 C729 1.433 . S
C731 N734 1.384 . S
C732 H723 0.929 1_556 S
C732 C724 1.378 . S
C732 C727 1.350 . S
C733 H720 0.929 . S
C733 C725 1.433 . S
C733 N735 1.384 . S
N734 C730 1.427 1_554 S
N734 C731 1.384 . S
N735 C727 1.427 . S
N735 C733 1.384 . S
H736 C742 0.930 . S
H737 C746 0.930 . S
H738 C751 0.929 . S
H739 C749 0.929 . S
H740 C744 0.929 . S
H741 C750 0.929 . S
C742 H736 0.930 . S
C742 C743 1.367 . S
C742 C750 1.378 . S
C743 C742 1.367 . S
C743 C751 1.433 . S
C744 H740 0.929 . S
C744 C746 1.378 . S
C744 C748 1.350 . S
C745 C748 1.463 . S
C745 C750 1.350 . S
C745 N753 1.427 . S
C746 H737 0.930 . S
C746 C744 1.378 . S
C746 C747 1.367 . S
C747 C746 1.367 . S
C747 C749 1.433 . S
C748 C744 1.350 . S
C748 C745 1.463 . S
C748 N752 1.427 . S
C749 H739 0.929 . S
C749 C747 1.433 . S
C749 N752 1.384 . S
C750 H741 0.929 . S
C750 C742 1.378 . S
C750 C745 1.350 . S
C751 H738 0.929 . S
C751 C743 1.433 . S
C751 N753 1.384 . S
N752 C748 1.427 . S
N752 C749 1.384 . S
N753 C745 1.427 . S
N753 C751 1.384 . S
H754 C760 0.930 . S
H755 C764 0.930 1_556 S
H756 C769 0.948 . S
H757 C767 0.953 . S
H758 C762 0.929 . S
H759 C768 0.929 . S
C760 H754 0.930 . S
C760 C761 1.367 . S
C760 C768 1.378 . S
C761 C760 1.367 . S
C761 C769 1.402 1_565 S
C762 H758 0.929 . S
C762 C764 1.378 . S
C762 C766 1.350 . S
C763 C766 1.463 1_565 S
C763 C768 1.350 . S
C763 N771 1.427 1_565 S
C764 H755 0.930 1_554 S
C764 C762 1.378 . S
C764 C765 1.367 1_554 S
C765 C764 1.367 1_556 S
C765 C767 1.393 1_545 S
C766 C762 1.350 . S
C766 C763 1.463 1_545 S
C766 N770 1.427 1_545 S
C767 H757 0.953 . S
C767 C765 1.393 1_565 S
C767 N770 1.399 1_556 S
C768 H759 0.929 . S
C768 C760 1.378 . S
C768 C763 1.350 . S
C769 H756 0.948 . S
C769 C761 1.402 1_545 S
C769 N771 1.396 . S
N770 C766 1.427 1_565 S
N770 C767 1.399 1_554 S
N771 C763 1.427 1_545 S
N771 C769 1.396 . S
H772 C778 0.930 . S
H773 C782 0.930 . S
H774 C787 0.929 . S
H775 C785 0.929 . S
H776 C780 0.929 . S
H777 C786 0.929 . S
C778 H772 0.930 . S
C778 C779 1.367 . S
C778 C786 1.378 . S
C779 C778 1.367 . S
C779 C787 1.433 . S
C780 H776 0.929 . S
C780 C782 1.378 . S
C780 C784 1.350 . S
C781 C784 1.463 . S
C781 C786 1.350 . S
C781 N789 1.427 . S
C782 H773 0.930 . S
C782 C780 1.378 . S
C782 C783 1.367 . S
C783 C782 1.367 . S
C783 C785 1.433 . S
C784 C780 1.350 . S
C784 C781 1.463 . S
C784 N788 1.427 . S
C785 H775 0.929 . S
C785 C783 1.433 . S
C785 N788 1.384 . S
C786 H777 0.929 . S
C786 C778 1.378 . S
C786 C781 1.350 . S
C787 H774 0.929 . S
C787 C779 1.433 . S
C787 N789 1.384 . S
N788 C784 1.427 . S
N788 C785 1.384 . S
N789 C781 1.427 . S
N789 C787 1.384 . S
H790 C796 0.930 1_565 S
H791 C800 0.930 1_545 S
H792 C805 0.929 . S
H793 C803 0.929 . S
H794 C798 0.929 . S
H795 C804 0.929 . S
C796 H790 0.930 1_545 S
C796 C797 1.367 . S
C796 C804 1.378 1_545 S
C797 C796 1.367 . S
C797 C805 1.433 . S
C798 H794 0.929 . S
C798 C800 1.378 1_545 S
C798 C802 1.350 1_545 S
C799 C802 1.463 1_545 S
C799 C804 1.350 1_545 S
C799 N807 1.427 . S
C800 H791 0.930 1_565 S
C800 C798 1.378 1_565 S
C800 C801 1.367 . S
C801 C800 1.367 . S
C801 C803 1.433 . S
C802 C798 1.350 1_565 S
C802 C799 1.463 1_565 S
C802 N806 1.427 . S
C803 H793 0.929 . S
C803 C801 1.433 . S
C803 N806 1.384 . S
C804 H795 0.929 . S
C804 C796 1.378 1_565 S
C804 C799 1.350 1_565 S
C805 H792 0.929 . S
C805 C797 1.433 . S
C805 N807 1.384 . S
N806 C802 1.427 . S
N806 C803 1.384 . S
N807 C799 1.427 . S
N807 C805 1.384 . S
H808 C814 0.930 . S
H809 C818 0.930 . S
H810 C823 0.929 . S
H811 C821 0.929 . S
H812 C816 0.929 . S
H813 C822 0.929 . S
C814 H808 0.930 . S
C814 C815 1.367 . S
C814 C822 1.378 . S
C815 C814 1.367 . S
C815 C823 1.433 . S
C816 H812 0.929 . S
C816 C818 1.378 . S
C816 C820 1.350 . S
C817 C820 1.463 . S
C817 C822 1.350 . S
C817 N825 1.427 . S
C818 H809 0.930 . S
C818 C816 1.378 . S
C818 C819 1.367 . S
C819 C818 1.367 . S
C819 C821 1.433 . S
C820 C816 1.350 . S
C820 C817 1.463 . S
C820 N824 1.427 . S
C821 H811 0.929 . S
C821 C819 1.433 . S
C821 N824 1.384 . S
C822 H813 0.929 . S
C822 C814 1.378 . S
C822 C817 1.350 . S
C823 H810 0.929 . S
C823 C815 1.433 . S
C823 N825 1.384 . S
N824 C820 1.427 . S
N824 C821 1.384 . S
N825 C817 1.427 . S
N825 C823 1.384 . S
H826 C832 0.930 . S
H827 C836 0.930 . S
H828 C841 0.929 . S
H829 C839 0.929 . S
H830 C834 0.929 . S
H831 C840 0.929 . S
C832 H826 0.930 . S
C832 C833 1.367 . S
C832 C840 1.378 1_556 S
C833 C832 1.367 . S
C833 C841 1.433 . S
C834 H830 0.929 . S
C834 C836 1.378 . S
C834 C838 1.350 . S
C835 C838 1.463 1_545 S
C835 C840 1.350 . S
C835 N843 1.427 . S
C836 H827 0.930 . S
C836 C834 1.378 . S
C836 C837 1.367 . S
C837 C836 1.367 . S
C837 C839 1.433 . S
C838 C834 1.350 . S
C838 C835 1.463 1_565 S
C838 N842 1.427 . S
C839 H829 0.929 . S
C839 C837 1.433 . S
C839 N842 1.384 . S
C840 H831 0.929 . S
C840 C832 1.378 1_554 S
C840 C835 1.350 . S
C841 H828 0.929 . S
C841 C833 1.433 . S
C841 N843 1.384 1_556 S
N842 C838 1.427 . S
N842 C839 1.384 . S
N843 C835 1.427 . S
N843 C841 1.384 1_554 S
H844 C850 0.930 . S
H845 C854 0.930 . S
H846 C859 0.929 . S
H847 C857 0.929 . S
H848 C852 0.929 . S
H849 C858 0.929 . S
C850 H844 0.930 . S
C850 C851 1.367 . S
C850 C858 1.378 . S
C851 C850 1.367 . S
C851 C859 1.433 . S
C852 H848 0.929 . S
C852 C854 1.378 . S
C852 C856 1.350 . S
C853 C856 1.463 . S
C853 C858 1.350 . S
C853 N861 1.427 . S
C854 H845 0.930 . S
C854 C852 1.378 . S
C854 C855 1.367 . S
C855 C854 1.367 . S
C855 C857 1.433 . S
C856 C852 1.350 . S
C856 C853 1.463 . S
C856 N860 1.427 . S
C857 H847 0.929 . S
C857 C855 1.433 . S
C857 N860 1.384 . S
C858 H849 0.929 . S
C858 C850 1.378 . S
C858 C853 1.350 . S
C859 H846 0.929 . S
C859 C851 1.433 . S
C859 N861 1.384 . S
N860 C856 1.427 . S
N860 C857 1.384 . S
N861 C853 1.427 . S
N861 C859 1.384 . S
H862 C868 0.930 . S
H863 C872 0.930 . S
H864 C877 0.900 1_565 S
H865 C875 0.896 1_545 S
H866 C870 0.929 . S
H867 C876 0.929 . S
C868 H862 0.930 . S
C868 C869 1.367 . S
C868 C876 1.378 . S
C869 C868 1.367 . S
C869 C877 1.489 . S
C870 H866 0.929 . S
C870 C872 1.378 . S
C870 C874 1.350 . S
C871 C874 1.463 1_545 S
C871 C876 1.350 . S
C871 N879 1.427 1_545 S
C872 H863 0.930 . S
C872 C870 1.378 . S
C872 C873 1.367 . S
C873 C872 1.367 . S
C873 C875 1.498 . S
C874 C870 1.350 . S
C874 C871 1.463 1_565 S
C874 N878 1.427 1_565 S
C875 H865 0.896 1_565 S
C875 C873 1.498 . S
C875 N878 1.358 1_565 S
C876 H867 0.929 . S
C876 C868 1.378 . S
C876 C871 1.350 . S
C877 H864 0.900 1_545 S
C877 C869 1.489 . S
C877 N879 1.361 1_545 S
N878 C874 1.427 1_545 S
N878 C875 1.358 1_545 S
N879 C871 1.427 1_565 S
N879 C877 1.361 1_565 S
H880 C886 0.930 . S
H881 C890 0.930 . S
H882 C895 0.929 . S
H883 C893 0.929 . S
H884 C888 0.929 . S
H885 C894 0.929 . S
C886 H880 0.930 . S
C886 C887 1.367 . S
C886 C894 1.378 . S
C887 C886 1.367 . S
C887 C895 1.433 . S
C888 H884 0.929 . S
C888 C890 1.378 . S
C888 C892 1.350 . S
C889 C892 1.463 . S
C889 C894 1.350 . S
C889 N897 1.427 . S
C890 H881 0.930 . S
C890 C888 1.378 . S
C890 C891 1.367 . S
C891 C890 1.367 . S
C891 C893 1.433 . S
C892 C888 1.350 . S
C892 C889 1.463 . S
C892 N896 1.427 . S
C893 H883 0.929 . S
C893 C891 1.433 . S
C893 N896 1.384 . S
C894 H885 0.929 . S
C894 C886 1.378 . S
C894 C889 1.350 . S
C895 H882 0.929 . S
C895 C887 1.433 . S
C895 N897 1.384 . S
N896 C892 1.427 . S
N896 C893 1.384 . S
N897 C889 1.427 . S
N897 C895 1.384 . S
H898 C904 0.930 . S
H899 C908 0.930 . S
H900 C913 0.929 . S
H901 C911 0.929 . S
H902 C906 0.929 . S
H903 C912 0.929 . S
C904 H898 0.930 . S
C904 C905 1.367 . S
C904 C912 1.378 . S
C905 C904 1.367 . S
C905 C913 1.433 . S
C906 H902 0.929 . S
C906 C908 1.378 . S
C906 C910 1.350 . S
C907 C910 1.463 . S
C907 C912 1.350 . S
C907 N915 1.427 . S
C908 H899 0.930 . S
C908 C906 1.378 . S
C908 C909 1.367 . S
C909 C908 1.367 . S
C909 C911 1.433 . S
C910 C906 1.350 . S
C910 C907 1.463 . S
C910 N914 1.427 . S
C911 H901 0.929 . S
C911 C909 1.433 . S
C911 N914 1.384 . S
C912 H903 0.929 . S
C912 C904 1.378 . S
C912 C907 1.350 . S
C913 H900 0.929 . S
C913 C905 1.433 . S
C913 N915 1.384 . S
N914 C910 1.427 . S
N914 C911 1.384 . S
N915 C907 1.427 . S
N915 C913 1.384 . S
H916 C922 0.930 . S
H917 C926 0.930 . S
H918 C931 0.929 . S
H919 C929 0.929 . S
H920 C924 0.929 . S
H921 C930 0.929 . S
C922 H916 0.930 . S
C922 C923 1.367 . S
C922 C930 1.378 . S
C923 C922 1.367 . S
C923 C931 1.433 . S
C924 H920 0.929 . S
C924 C926 1.378 . S
C924 C928 1.350 . S
C925 C928 1.463 . S
C925 C930 1.350 . S
C925 N933 1.427 . S
C926 H917 0.930 . S
C926 C924 1.378 . S
C926 C927 1.367 . S
C927 C926 1.367 . S
C927 C929 1.433 . S
C928 C924 1.350 . S
C928 C925 1.463 . S
C928 N932 1.427 . S
C929 H919 0.929 . S
C929 C927 1.433 . S
C929 N932 1.384 . S
C930 H921 0.929 . S
C930 C922 1.378 . S
C930 C925 1.350 . S
C931 H918 0.929 . S
C931 C923 1.433 . S
C931 N933 1.384 . S
N932 C928 1.427 . S
N932 C929 1.384 . S
N933 C925 1.427 . S
N933 C931 1.384 . S
H934 C940 0.930 . S
H935 C944 0.930 . S
H936 C949 0.929 . S
H937 C947 0.929 . S
H938 C942 0.929 . S
H939 C948 0.929 . S
C940 H934 0.930 . S
C940 C941 1.367 . S
C940 C948 1.378 . S
C941 C940 1.367 . S
C941 C949 1.433 . S
C942 H938 0.929 . S
C942 C944 1.378 1_554 S
C942 C946 1.350 . S
C943 C946 1.463 . S
C943 C948 1.350 . S
C943 N951 1.427 . S
C944 H935 0.930 . S
C944 C942 1.378 1_556 S
C944 C945 1.367 . S
C945 C944 1.367 . S
C945 C947 1.433 . S
C946 C942 1.350 . S
C946 C943 1.463 . S
C946 N950 1.427 . S
C947 H937 0.929 . S
C947 C945 1.433 . S
C947 N950 1.384 1_556 S
C948 H939 0.929 . S
C948 C940 1.378 . S
C948 C943 1.350 . S
C949 H936 0.929 . S
C949 C941 1.433 . S
C949 N951 1.384 . S
N950 C946 1.427 . S
N950 C947 1.384 1_554 S
N951 C943 1.427 . S
N951 C949 1.384 . S
H952 C958 0.930 . S
H953 C962 0.930 . S
H954 C967 0.929 . S
H955 C965 0.929 . S
H956 C960 0.929 . S
H957 C966 0.929 . S
C958 H952 0.930 . S
C958 C959 1.367 . S
C958 C966 1.378 . S
C959 C958 1.367 . S
C959 C967 1.433 . S
C960 H956 0.929 . S
C960 C962 1.378 . S
C960 C964 1.350 . S
C961 C964 1.463 . S
C961 C966 1.350 . S
C961 N969 1.427 . S
C962 H953 0.930 . S
C962 C960 1.378 . S
C962 C963 1.367 . S
C963 C962 1.367 . S
C963 C965 1.433 . S
C964 C960 1.350 . S
C964 C961 1.463 . S
C964 N968 1.427 . S
C965 H955 0.929 . S
C965 C963 1.433 . S
C965 N968 1.384 . S
C966 H957 0.929 . S
C966 C958 1.378 . S
C966 C961 1.350 . S
C967 H954 0.929 . S
C967 C959 1.433 . S
C967 N969 1.384 . S
N968 C964 1.427 . S
N968 C965 1.384 . S
N969 C961 1.427 . S
N969 C967 1.384 . S
H970 C976 0.930 . S
H971 C980 0.930 . S
H972 C985 0.929 . S
H973 C983 0.929 . S
H974 C978 0.929 . S
H975 C984 0.929 . S
C976 H970 0.930 . S
C976 C977 1.367 . S
C976 C984 1.378 . S
C977 C976 1.367 . S
C977 C985 1.433 . S
C978 H974 0.929 . S
C978 C980 1.378 . S
C978 C982 1.350 . S
C979 C982 1.463 . S
C979 C984 1.350 . S
C979 N987 1.427 . S
C980 H971 0.930 . S
C980 C978 1.378 . S
C980 C981 1.367 . S
C981 C980 1.367 . S
C981 C983 1.433 . S
C982 C978 1.350 . S
C982 C979 1.463 . S
C982 N986 1.427 . S
C983 H973 0.929 . S
C983 C981 1.433 . S
C983 N986 1.384 . S
C984 H975 0.929 . S
C984 C976 1.378 . S
C984 C979 1.350 . S
C985 H972 0.929 . S
C985 C977 1.433 . S
C985 N987 1.384 . S
N986 C982 1.427 . S
N986 C983 1.384 . S
N987 C979 1.427 . S
N987 C985 1.384 . S
H988 C994 0.930 . S
H989 C998 0.930 . S
H990 C1003 0.929 . S
H991 C1001 0.929 . S
H992 C996 0.929 . S
H993 C1002 0.929 . S
C994 H988 0.930 . S
C994 C995 1.367 . S
C994 C1002 1.378 . S
C995 C994 1.367 . S
C995 C1003 1.433 . S
C996 H992 0.929 . S
C996 C998 1.378 . S
C996 C1000 1.350 . S
C997 C1000 1.463 . S
C997 C1002 1.350 . S
C997 N1005 1.427 . S
C998 H989 0.930 . S
C998 C996 1.378 . S
C998 C999 1.367 . S
C999 C998 1.367 . S
C999 C1001 1.433 . S
C1000 C996 1.350 . S
C1000 C997 1.463 . S
C1000 N1004 1.427 . S
C1001 H991 0.929 . S
C1001 C999 1.433 . S
C1001 N1004 1.384 . S
C1002 H993 0.929 . S
C1002 C994 1.378 . S
C1002 C997 1.350 . S
C1003 H990 0.929 . S
C1003 C995 1.433 . S
C1003 N1005 1.384 . S
N1004 C1000 1.427 . S
N1004 C1001 1.384 . S
N1005 C997 1.427 . S
N1005 C1003 1.384 . S
H1006 C1012 0.930 . S
H1007 C1016 0.930 1_556 S
H1008 C1021 0.929 . S
H1009 C1019 0.929 . S
H1010 C1014 0.929 . S
H1011 C1020 0.929 . S
C1012 H1006 0.930 . S
C1012 C1013 1.367 . S
C1012 C1020 1.378 . S
C1013 C1012 1.367 . S
C1013 C1021 1.433 . S
C1014 H1010 0.929 . S
C1014 C1016 1.378 . S
C1014 C1018 1.350 . S
C1015 C1018 1.463 . S
C1015 C1020 1.350 . S
C1015 N1023 1.427 . S
C1016 H1007 0.930 1_554 S
C1016 C1014 1.378 . S
C1016 C1017 1.367 1_554 S
C1017 C1016 1.367 1_556 S
C1017 C1019 1.433 . S
C1018 C1014 1.350 . S
C1018 C1015 1.463 . S
C1018 N1022 1.427 . S
C1019 H1009 0.929 . S
C1019 C1017 1.433 . S
C1019 N1022 1.384 1_556 S
C1020 H1011 0.929 . S
C1020 C1012 1.378 . S
C1020 C1015 1.350 . S
C1021 H1008 0.929 . S
C1021 C1013 1.433 . S
C1021 N1023 1.384 . S
N1022 C1018 1.427 . S
N1022 C1019 1.384 1_554 S
N1023 C1015 1.427 . S
N1023 C1021 1.384 . S
H1024 C1030 0.930 . S
H1025 C1034 0.928 1_556 S
H1026 C1039 0.913 1_556 S
H1027 C1037 0.929 . S
H1028 C1032 0.927 1_556 S
H1029 C1038 0.929 . S
C1030 H1024 0.930 . S
C1030 C1031 1.367 . S
C1030 C1038 1.378 . S
C1031 C1030 1.367 . S
C1031 C1039 1.433 . S
C1032 H1028 0.927 1_554 S
C1032 C1034 1.378 . S
C1032 C1036 1.350 . S
C1033 C1036 1.463 . S
C1033 C1038 1.350 . S
C1033 N1041 1.427 . S
C1034 H1025 0.928 1_554 S
C1034 C1032 1.378 . S
C1034 C1035 1.367 . S
C1035 C1034 1.367 . S
C1035 C1037 1.433 . S
C1036 C1032 1.350 . S
C1036 C1033 1.463 . S
C1036 N1040 1.427 . S
C1037 H1027 0.929 . S
C1037 C1035 1.433 . S
C1037 N1040 1.384 . S
C1038 H1029 0.929 . S
C1038 C1030 1.378 . S
C1038 C1033 1.350 . S
C1039 H1026 0.913 1_554 S
C1039 C1031 1.433 . S
C1039 N1041 1.384 . S
N1040 C1036 1.427 . S
N1040 C1037 1.384 . S
N1041 C1033 1.427 . S
N1041 C1039 1.384 . S
H1042 C1048 0.930 . S
H1043 C1052 0.930 . S
H1044 C1057 0.929 . S
H1045 C1055 0.929 . S
H1046 C1050 0.929 . S
H1047 C1056 0.929 . S
C1048 H1042 0.930 . S
C1048 C1049 1.367 . S
C1048 C1056 1.378 . S
C1049 C1048 1.367 . S
C1049 C1057 1.433 . S
C1050 H1046 0.929 . S
C1050 C1052 1.378 . S
C1050 C1054 1.350 . S
C1051 C1054 1.463 1_455 S
C1051 C1056 1.350 . S
C1051 N1059 1.427 . S
C1052 H1043 0.930 . S
C1052 C1050 1.378 . S
C1052 C1053 1.367 . S
C1053 C1052 1.367 . S
C1053 C1055 1.433 . S
C1054 C1050 1.350 . S
C1054 C1051 1.463 1_655 S
C1054 N1058 1.427 . S
C1055 H1045 0.929 . S
C1055 C1053 1.433 . S
C1055 N1058 1.384 . S
C1056 H1047 0.929 . S
C1056 C1048 1.378 . S
C1056 C1051 1.350 . S
C1057 H1044 0.929 . S
C1057 C1049 1.433 . S
C1057 N1059 1.384 . S
N1058 C1054 1.427 . S
N1058 C1055 1.384 . S
N1059 C1051 1.427 . S
N1059 C1057 1.384 . S
H1060 C1066 0.930 . S
H1061 C1070 0.930 . S
H1062 C1075 0.929 . S
H1063 C1073 0.929 . S
H1064 C1068 0.929 . S
H1065 C1074 0.929 . S
C1066 H1060 0.930 . S
C1066 C1067 1.367 . S
C1066 C1074 1.378 . S
C1067 C1066 1.367 . S
C1067 C1075 1.433 . S
C1068 H1064 0.929 . S
C1068 C1070 1.378 . S
C1068 C1072 1.350 . S
C1069 C1072 1.463 . S
C1069 C1074 1.350 . S
C1069 N1077 1.427 . S
C1070 H1061 0.930 . S
C1070 C1068 1.378 . S
C1070 C1071 1.367 . S
C1071 C1070 1.367 . S
C1071 C1073 1.433 . S
C1072 C1068 1.350 . S
C1072 C1069 1.463 . S
C1072 N1076 1.427 . S
C1073 H1063 0.929 . S
C1073 C1071 1.433 . S
C1073 N1076 1.384 . S
C1074 H1065 0.929 . S
C1074 C1066 1.378 . S
C1074 C1069 1.350 . S
C1075 H1062 0.929 . S
C1075 C1067 1.433 . S
C1075 N1077 1.384 . S
N1076 C1072 1.427 . S
N1076 C1073 1.384 . S
N1077 C1069 1.427 . S
N1077 C1075 1.384 . S
H1078 C1084 0.930 . S
H1079 C1088 0.930 . S
H1080 C1093 0.929 . S
H1081 C1091 0.929 . S
H1082 C1086 0.929 . S
H1083 C1092 0.929 . S
C1084 H1078 0.930 . S
C1084 C1085 1.367 . S
C1084 C1092 1.378 . S
C1085 C1084 1.367 . S
C1085 C1093 1.433 . S
C1086 H1082 0.929 . S
C1086 C1088 1.378 . S
C1086 C1090 1.350 . S
C1087 C1090 1.463 . S
C1087 C1092 1.350 . S
C1087 N1095 1.427 . S
C1088 H1079 0.930 . S
C1088 C1086 1.378 . S
C1088 C1089 1.367 . S
C1089 C1088 1.367 . S
C1089 C1091 1.433 . S
C1090 C1086 1.350 . S
C1090 C1087 1.463 . S
C1090 N1094 1.427 . S
C1091 H1081 0.929 . S
C1091 C1089 1.433 . S
C1091 N1094 1.384 . S
C1092 H1083 0.929 . S
C1092 C1084 1.378 . S
C1092 C1087 1.350 . S
C1093 H1080 0.929 . S
C1093 C1085 1.433 . S
C1093 N1095 1.384 . S
N1094 C1090 1.427 . S
N1094 C1091 1.384 . S
N1095 C1087 1.427 . S
N1095 C1093 1.384 . S
H1096 C1102 0.930 . S
H1097 C1106 0.930 . S
H1098 C1111 0.929 . S
H1099 C1109 0.929 . S
H1100 C1104 0.929 . S
H1101 C1110 0.929 . S
C1102 H1096 0.930 . S
C1102 C1103 1.367 . S
C1102 C1110 1.378 . S
C1103 C1102 1.367 . S
C1103 C1111 1.433 . S
C1104 H1100 0.929 . S
C1104 C1106 1.378 . S
C1104 C1108 1.350 . S
C1105 C1108 1.463 . S
C1105 C1110 1.350 . S
C1105 N1113 1.427 . S
C1106 H1097 0.930 . S
C1106 C1104 1.378 . S
C1106 C1107 1.367 . S
C1107 C1106 1.367 . S
C1107 C1109 1.433 . S
C1108 C1104 1.350 . S
C1108 C1105 1.463 . S
C1108 N1112 1.427 . S
C1109 H1099 0.929 . S
C1109 C1107 1.433 . S
C1109 N1112 1.384 . S
C1110 H1101 0.929 . S
C1110 C1102 1.378 . S
C1110 C1105 1.350 . S
C1111 H1098 0.929 . S
C1111 C1103 1.433 . S
C1111 N1113 1.384 . S
N1112 C1108 1.427 . S
N1112 C1109 1.384 . S
N1113 C1105 1.427 . S
N1113 C1111 1.384 . S
H1114 C1120 0.930 . S
H1115 C1124 0.930 . S
H1116 C1129 0.929 . S
H1117 C1127 0.929 . S
H1118 C1122 0.929 . S
H1119 C1128 0.929 . S
C1120 H1114 0.930 . S
C1120 C1121 1.367 . S
C1120 C1128 1.378 . S
C1121 C1120 1.367 . S
C1121 C1129 1.433 . S
C1122 H1118 0.929 . S
C1122 C1124 1.378 . S
C1122 C1126 1.350 . S
C1123 C1126 1.463 . S
C1123 C1128 1.350 . S
C1123 N1131 1.427 . S
C1124 H1115 0.930 . S
C1124 C1122 1.378 . S
C1124 C1125 1.367 . S
C1125 C1124 1.367 . S
C1125 C1127 1.433 . S
C1126 C1122 1.350 . S
C1126 C1123 1.463 . S
C1126 N1130 1.427 . S
C1127 H1117 0.929 . S
C1127 C1125 1.433 . S
C1127 N1130 1.384 . S
C1128 H1119 0.929 . S
C1128 C1120 1.378 . S
C1128 C1123 1.350 . S
C1129 H1116 0.929 . S
C1129 C1121 1.433 . S
C1129 N1131 1.384 . S
N1130 C1126 1.427 . S
N1130 C1127 1.384 . S
N1131 C1123 1.427 . S
N1131 C1129 1.384 . S
H1132 C1138 0.930 . S
H1133 C1142 0.930 . S
H1134 C1147 0.929 . S
H1135 C1145 0.929 . S
H1136 C1140 0.929 . S
H1137 C1146 0.929 . S
C1138 H1132 0.930 . S
C1138 C1139 1.367 . S
C1138 C1146 1.378 . S
C1139 C1138 1.367 . S
C1139 C1147 1.433 . S
C1140 H1136 0.929 . S
C1140 C1142 1.378 . S
C1140 C1144 1.350 . S
C1141 C1144 1.463 . S
C1141 C1146 1.350 . S
C1141 N1149 1.427 . S
C1142 H1133 0.930 . S
C1142 C1140 1.378 . S
C1142 C1143 1.367 . S
C1143 C1142 1.367 . S
C1143 C1145 1.433 . S
C1144 C1140 1.350 . S
C1144 C1141 1.463 . S
C1144 N1148 1.427 . S
C1145 H1135 0.929 . S
C1145 C1143 1.433 . S
C1145 N1148 1.384 . S
C1146 H1137 0.929 . S
C1146 C1138 1.378 . S
C1146 C1141 1.350 . S
C1147 H1134 0.929 . S
C1147 C1139 1.433 . S
C1147 N1149 1.384 . S
N1148 C1144 1.427 . S
N1148 C1145 1.384 . S
N1149 C1141 1.427 . S
N1149 C1147 1.384 . S
H1150 C1156 0.930 . S
H1151 C1160 0.930 . S
H1152 C1165 0.929 . S
H1153 C1163 0.929 . S
H1154 C1158 0.929 . S
H1155 C1164 0.929 . S
C1156 H1150 0.930 . S
C1156 C1157 1.367 . S
C1156 C1164 1.378 . S
C1157 C1156 1.367 . S
C1157 C1165 1.433 . S
C1158 H1154 0.929 . S
C1158 C1160 1.378 . S
C1158 C1162 1.350 . S
C1159 C1162 1.463 1_655 S
C1159 C1164 1.350 . S
C1159 N1167 1.427 . S
C1160 H1151 0.930 . S
C1160 C1158 1.378 . S
C1160 C1161 1.367 . S
C1161 C1160 1.367 . S
C1161 C1163 1.433 . S
C1162 C1158 1.350 . S
C1162 C1159 1.463 1_455 S
C1162 N1166 1.427 . S
C1163 H1153 0.929 . S
C1163 C1161 1.433 . S
C1163 N1166 1.384 . S
C1164 H1155 0.929 . S
C1164 C1156 1.378 . S
C1164 C1159 1.350 . S
C1165 H1152 0.929 . S
C1165 C1157 1.433 . S
C1165 N1167 1.384 . S
N1166 C1162 1.427 . S
N1166 C1163 1.384 . S
N1167 C1159 1.427 . S
N1167 C1165 1.384 . S
H1168 C1174 0.930 . S
H1169 C1178 0.930 . S
H1170 C1183 0.929 . S
H1171 C1181 0.929 . S
H1172 C1176 0.929 . S
H1173 C1182 0.929 . S
C1174 H1168 0.930 . S
C1174 C1175 1.367 . S
C1174 C1182 1.378 . S
C1175 C1174 1.367 . S
C1175 C1183 1.433 . S
C1176 H1172 0.929 . S
C1176 C1178 1.378 . S
C1176 C1180 1.350 . S
C1177 C1180 1.463 . S
C1177 C1182 1.350 . S
C1177 N1185 1.427 . S
C1178 H1169 0.930 . S
C1178 C1176 1.378 . S
C1178 C1179 1.367 . S
C1179 C1178 1.367 . S
C1179 C1181 1.433 . S
C1180 C1176 1.350 . S
C1180 C1177 1.463 . S
C1180 N1184 1.427 . S
C1181 H1171 0.929 . S
C1181 C1179 1.433 . S
C1181 N1184 1.384 . S
C1182 H1173 0.929 . S
C1182 C1174 1.378 . S
C1182 C1177 1.350 . S
C1183 H1170 0.929 . S
C1183 C1175 1.433 . S
C1183 N1185 1.384 . S
N1184 C1180 1.427 . S
N1184 C1181 1.384 . S
N1185 C1177 1.427 . S
N1185 C1183 1.384 . S
H1186 C1192 0.930 . S
H1187 C1196 0.930 . S
H1188 C1201 0.929 . S
H1189 C1199 0.929 . S
H1190 C1194 0.929 . S
H1191 C1200 0.929 . S
C1192 H1186 0.930 . S
C1192 C1193 1.367 . S
C1192 C1200 1.378 . S
C1193 C1192 1.367 . S
C1193 C1201 1.433 . S
C1194 H1190 0.929 . S
C1194 C1196 1.378 . S
C1194 C1198 1.350 . S
C1195 C1198 1.463 . S
C1195 C1200 1.350 . S
C1195 N1203 1.427 . S
C1196 H1187 0.930 . S
C1196 C1194 1.378 . S
C1196 C1197 1.367 . S
C1197 C1196 1.367 . S
C1197 C1199 1.433 . S
C1198 C1194 1.350 . S
C1198 C1195 1.463 . S
C1198 N1202 1.427 . S
C1199 H1189 0.929 . S
C1199 C1197 1.433 . S
C1199 N1202 1.384 . S
C1200 H1191 0.929 . S
C1200 C1192 1.378 . S
C1200 C1195 1.350 . S
C1201 H1188 0.929 . S
C1201 C1193 1.433 . S
C1201 N1203 1.384 . S
N1202 C1198 1.427 . S
N1202 C1199 1.384 . S
N1203 C1195 1.427 . S
N1203 C1201 1.384 . S
H1204 C1210 0.930 . S
H1205 C1214 0.930 . S
H1206 C1219 0.929 . S
H1207 C1217 0.936 . S
H1208 C1212 0.929 . S
H1209 C1218 0.929 . S
C1210 H1204 0.930 . S
C1210 C1211 1.367 . S
C1210 C1218 1.378 . S
C1211 C1210 1.367 . S
C1211 C1219 1.433 . S
C1212 H1208 0.929 . S
C1212 C1214 1.378 . S
C1212 C1216 1.350 . S
C1213 C1216 1.463 . S
C1213 C1218 1.350 . S
C1213 N1221 1.427 . S
C1214 H1205 0.930 . S
C1214 C1212 1.378 . S
C1214 C1215 1.367 . S
C1215 C1214 1.367 . S
C1215 C1217 1.433 . S
C1216 C1212 1.350 . S
C1216 C1213 1.463 . S
C1216 N1220 1.427 . S
C1217 H1207 0.936 . S
C1217 C1215 1.433 . S
C1217 N1220 1.384 . S
C1218 H1209 0.929 . S
C1218 C1210 1.378 . S
C1218 C1213 1.350 . S
C1219 H1206 0.929 . S
C1219 C1211 1.433 . S
C1219 N1221 1.384 . S
N1220 C1216 1.427 . S
N1220 C1217 1.384 . S
N1221 C1213 1.427 . S
N1221 C1219 1.384 . S
H1222 C1228 0.930 . S
H1223 C1232 0.930 . S
H1224 C1237 0.929 . S
H1225 C1235 0.929 . S
H1226 C1230 0.929 . S
H1227 C1236 0.929 . S
C1228 H1222 0.930 . S
C1228 C1229 1.367 . S
C1228 C1236 1.378 . S
C1229 C1228 1.367 . S
C1229 C1237 1.433 . S
C1230 H1226 0.929 . S
C1230 C1232 1.378 . S
C1230 C1234 1.350 . S
C1231 C1234 1.463 . S
C1231 C1236 1.350 . S
C1231 N1239 1.427 . S
C1232 H1223 0.930 . S
C1232 C1230 1.378 . S
C1232 C1233 1.367 . S
C1233 C1232 1.367 . S
C1233 C1235 1.433 . S
C1234 C1230 1.350 . S
C1234 C1231 1.463 . S
C1234 N1238 1.427 . S
C1235 H1225 0.929 . S
C1235 C1233 1.433 . S
C1235 N1238 1.384 . S
C1236 H1227 0.929 . S
C1236 C1228 1.378 . S
C1236 C1231 1.350 . S
C1237 H1224 0.929 . S
C1237 C1229 1.433 . S
C1237 N1239 1.384 . S
N1238 C1234 1.427 . S
N1238 C1235 1.384 . S
N1239 C1231 1.427 . S
N1239 C1237 1.384 . S
H1240 C1246 0.930 . S
H1241 C1250 0.930 . S
H1242 C1255 0.929 . S
H1243 C1253 0.929 . S
H1244 C1248 0.929 . S
H1245 C1254 0.929 . S
C1246 H1240 0.930 . S
C1246 C1247 1.367 . S
C1246 C1254 1.378 . S
C1247 C1246 1.367 . S
C1247 C1255 1.433 . S
C1248 H1244 0.929 . S
C1248 C1250 1.378 . S
C1248 C1252 1.350 . S
C1249 C1252 1.463 . S
C1249 C1254 1.350 . S
C1249 N1257 1.427 . S
C1250 H1241 0.930 . S
C1250 C1248 1.378 . S
C1250 C1251 1.367 . S
C1251 C1250 1.367 . S
C1251 C1253 1.433 . S
C1252 C1248 1.350 . S
C1252 C1249 1.463 . S
C1252 N1256 1.427 . S
C1253 H1243 0.929 . S
C1253 C1251 1.433 . S
C1253 N1256 1.384 . S
C1254 H1245 0.929 . S
C1254 C1246 1.378 . S
C1254 C1249 1.350 . S
C1255 H1242 0.929 . S
C1255 C1247 1.433 . S
C1255 N1257 1.384 . S
N1256 C1252 1.427 . S
N1256 C1253 1.384 . S
N1257 C1249 1.427 . S
N1257 C1255 1.384 . S
H1258 C1264 0.930 . S
H1259 C1268 0.930 . S
H1260 C1273 0.929 . S
H1261 C1271 0.929 . S
H1262 C1266 0.929 . S
H1263 C1272 0.929 . S
C1264 H1258 0.930 . S
C1264 C1265 1.367 . S
C1264 C1272 1.378 . S
C1265 C1264 1.367 . S
C1265 C1273 1.433 . S
C1266 H1262 0.929 . S
C1266 C1268 1.378 . S
C1266 C1270 1.350 . S
C1267 C1270 1.463 1_655 S
C1267 C1272 1.350 . S
C1267 N1275 1.427 . S
C1268 H1259 0.930 . S
C1268 C1266 1.378 . S
C1268 C1269 1.367 . S
C1269 C1268 1.367 . S
C1269 C1271 1.433 . S
C1270 C1266 1.350 . S
C1270 C1267 1.463 1_455 S
C1270 N1274 1.427 . S
C1271 H1261 0.929 . S
C1271 C1269 1.433 . S
C1271 N1274 1.384 . S
C1272 H1263 0.929 . S
C1272 C1264 1.378 . S
C1272 C1267 1.350 . S
C1273 H1260 0.929 . S
C1273 C1265 1.433 . S
C1273 N1275 1.384 . S
N1274 C1270 1.427 . S
N1274 C1271 1.384 . S
N1275 C1267 1.427 . S
N1275 C1273 1.384 . S
H1276 C1282 0.930 . S
H1277 C1286 0.930 . S
H1278 C1291 0.929 . S
H1279 C1289 0.929 . S
H1280 C1284 0.929 . S
H1281 C1290 0.929 . S
C1282 H1276 0.930 . S
C1282 C1283 1.367 . S
C1282 C1290 1.378 . S
C1283 C1282 1.367 . S
C1283 C1291 1.433 . S
C1284 H1280 0.929 . S
C1284 C1286 1.378 . S
C1284 C1288 1.350 . S
C1285 C1288 1.463 1_655 S
C1285 C1290 1.350 . S
C1285 N1293 1.427 . S
C1286 H1277 0.930 . S
C1286 C1284 1.378 . S
C1286 C1287 1.367 . S
C1287 C1286 1.367 . S
C1287 C1289 1.433 . S
C1288 C1284 1.350 . S
C1288 C1285 1.463 1_455 S
C1288 N1292 1.427 . S
C1289 H1279 0.929 . S
C1289 C1287 1.433 . S
C1289 N1292 1.384 . S
C1290 H1281 0.929 . S
C1290 C1282 1.378 . S
C1290 C1285 1.350 . S
C1291 H1278 0.929 . S
C1291 C1283 1.433 . S
C1291 N1293 1.384 . S
N1292 C1288 1.427 . S
N1292 C1289 1.384 . S
N1293 C1285 1.427 . S
N1293 C1291 1.384 . S
H1294 C1300 0.930 . S
H1295 C1304 0.930 . S
H1296 C1309 0.929 . S
H1297 C1307 0.929 . S
H1298 C1302 0.929 . S
H1299 C1308 0.929 . S
C1300 H1294 0.930 . S
C1300 C1301 1.367 . S
C1300 C1308 1.378 . S
C1301 C1300 1.367 . S
C1301 C1309 1.433 . S
C1302 H1298 0.929 . S
C1302 C1304 1.378 . S
C1302 C1306 1.350 . S
C1303 C1306 1.463 . S
C1303 C1308 1.350 . S
C1303 N1311 1.427 . S
C1304 H1295 0.930 . S
C1304 C1302 1.378 . S
C1304 C1305 1.367 . S
C1305 C1304 1.367 . S
C1305 C1307 1.433 . S
C1306 C1302 1.350 . S
C1306 C1303 1.463 . S
C1306 N1310 1.427 . S
C1307 H1297 0.929 . S
C1307 C1305 1.433 . S
C1307 N1310 1.384 . S
C1308 H1299 0.929 . S
C1308 C1300 1.378 . S
C1308 C1303 1.350 . S
C1309 H1296 0.929 . S
C1309 C1301 1.433 . S
C1309 N1311 1.384 . S
N1310 C1306 1.427 . S
N1310 C1307 1.384 . S
N1311 C1303 1.427 . S
N1311 C1309 1.384 . S
H1312 C1318 0.930 . S
H1313 C1322 0.930 . S
H1314 C1327 0.929 . S
H1315 C1325 0.929 . S
H1316 C1320 0.929 . S
H1317 C1326 0.929 . S
C1318 H1312 0.930 . S
C1318 C1319 1.367 . S
C1318 C1326 1.378 . S
C1319 C1318 1.367 . S
C1319 C1327 1.433 . S
C1320 H1316 0.929 . S
C1320 C1322 1.378 . S
C1320 C1324 1.350 . S
C1321 C1324 1.463 . S
C1321 C1326 1.350 . S
C1321 N1329 1.427 . S
C1322 H1313 0.930 . S
C1322 C1320 1.378 . S
C1322 C1323 1.367 . S
C1323 C1322 1.367 . S
C1323 C1325 1.433 . S
C1324 C1320 1.350 . S
C1324 C1321 1.463 . S
C1324 N1328 1.427 . S
C1325 H1315 0.929 . S
C1325 C1323 1.433 . S
C1325 N1328 1.384 . S
C1326 H1317 0.929 . S
C1326 C1318 1.378 . S
C1326 C1321 1.350 . S
C1327 H1314 0.929 . S
C1327 C1319 1.433 . S
C1327 N1329 1.384 . S
N1328 C1324 1.427 . S
N1328 C1325 1.384 . S
N1329 C1321 1.427 . S
N1329 C1327 1.384 . S
H1330 C1336 0.950 . S
H1331 C1340 0.946 . S
H1332 C1345 0.929 . S
H1333 C1343 0.929 . S
H1334 C1338 0.929 . S
H1335 C1344 0.929 . S
C1336 H1330 0.950 . S
C1336 C1337 1.367 . S
C1336 C1344 1.378 1_565 S
C1337 C1336 1.367 . S
C1337 C1345 1.433 . S
C1338 H1334 0.929 . S
C1338 C1340 1.378 1_565 S
C1338 C1342 1.350 1_565 S
C1339 C1342 1.463 1_565 S
C1339 C1344 1.350 1_565 S
C1339 N1347 1.427 . S
C1340 H1331 0.946 . S
C1340 C1338 1.378 1_545 S
C1340 C1341 1.367 . S
C1341 C1340 1.367 . S
C1341 C1343 1.433 . S
C1342 C1338 1.350 1_545 S
C1342 C1339 1.463 1_545 S
C1342 N1346 1.427 . S
C1343 H1333 0.929 . S
C1343 C1341 1.433 . S
C1343 N1346 1.384 . S
C1344 H1335 0.929 . S
C1344 C1336 1.378 1_545 S
C1344 C1339 1.350 1_545 S
C1345 H1332 0.929 . S
C1345 C1337 1.433 . S
C1345 N1347 1.384 . S
N1346 C1342 1.427 . S
N1346 C1343 1.384 . S
N1347 C1339 1.427 . S
N1347 C1345 1.384 . S
H1348 C1354 0.930 . S
H1349 C1358 0.930 . S
H1350 C1363 0.929 . S
H1351 C1361 0.929 . S
H1352 C1356 0.929 . S
H1353 C1362 0.929 . S
C1354 H1348 0.930 . S
C1354 C1355 1.367 . S
C1354 C1362 1.378 . S
C1355 C1354 1.367 . S
C1355 C1363 1.433 . S
C1356 H1352 0.929 . S
C1356 C1358 1.378 . S
C1356 C1360 1.350 . S
C1357 C1360 1.463 . S
C1357 C1362 1.350 . S
C1357 N1365 1.427 . S
C1358 H1349 0.930 . S
C1358 C1356 1.378 . S
C1358 C1359 1.367 . S
C1359 C1358 1.367 . S
C1359 C1361 1.433 . S
C1360 C1356 1.350 . S
C1360 C1357 1.463 . S
C1360 N1364 1.427 . S
C1361 H1351 0.929 . S
C1361 C1359 1.433 . S
C1361 N1364 1.384 . S
C1362 H1353 0.929 . S
C1362 C1354 1.378 . S
C1362 C1357 1.350 . S
C1363 H1350 0.929 . S
C1363 C1355 1.433 . S
C1363 N1365 1.384 . S
N1364 C1360 1.427 . S
N1364 C1361 1.384 . S
N1365 C1357 1.427 . S
N1365 C1363 1.384 . S
H1366 C1372 0.930 1_556 S
H1367 C1376 0.930 . S
H1368 C1381 0.929 1_565 S
H1369 C1379 0.929 1_545 S
H1370 C1374 0.929 . S
H1371 C1380 0.929 . S
C1372 H1366 0.930 1_554 S
C1372 C1373 1.367 1_554 S
C1372 C1380 1.378 . S
C1373 C1372 1.367 1_556 S
C1373 C1381 1.433 . S
C1374 H1370 0.929 . S
C1374 C1376 1.378 . S
C1374 C1378 1.350 . S
C1375 C1378 1.463 1_545 S
C1375 C1380 1.350 . S
C1375 N1383 1.427 1_545 S
C1376 H1367 0.930 . S
C1376 C1374 1.378 . S
C1376 C1377 1.367 . S
C1377 C1376 1.367 . S
C1377 C1379 1.433 . S
C1378 C1374 1.350 . S
C1378 C1375 1.463 1_565 S
C1378 N1382 1.427 1_565 S
C1379 H1369 0.929 1_565 S
C1379 C1377 1.433 . S
C1379 N1382 1.384 1_565 S
C1380 H1371 0.929 . S
C1380 C1372 1.378 . S
C1380 C1375 1.350 . S
C1381 H1368 0.929 1_545 S
C1381 C1373 1.433 . S
C1381 N1383 1.384 1_546 S
N1382 C1378 1.427 1_545 S
N1382 C1379 1.384 1_545 S
N1383 C1375 1.427 1_565 S
N1383 C1381 1.384 1_564 S
H1384 C1390 0.930 . S
H1385 C1394 0.930 . S
H1386 C1399 0.929 . S
H1387 C1397 0.929 . S
H1388 C1392 0.929 . S
H1389 C1398 0.929 . S
C1390 H1384 0.930 . S
C1390 C1391 1.367 . S
C1390 C1398 1.378 . S
C1391 C1390 1.367 . S
C1391 C1399 1.433 . S
C1392 H1388 0.929 . S
C1392 C1394 1.378 . S
C1392 C1396 1.350 . S
C1393 C1396 1.463 . S
C1393 C1398 1.350 . S
C1393 N1401 1.427 . S
C1394 H1385 0.930 . S
C1394 C1392 1.378 . S
C1394 C1395 1.367 . S
C1395 C1394 1.367 . S
C1395 C1397 1.433 . S
C1396 C1392 1.350 . S
C1396 C1393 1.463 . S
C1396 N1400 1.427 . S
C1397 H1387 0.929 . S
C1397 C1395 1.433 . S
C1397 N1400 1.384 . S
C1398 H1389 0.929 . S
C1398 C1390 1.378 . S
C1398 C1393 1.350 . S
C1399 H1386 0.929 . S
C1399 C1391 1.433 . S
C1399 N1401 1.384 . S
N1400 C1396 1.427 . S
N1400 C1397 1.384 . S
N1401 C1393 1.427 . S
N1401 C1399 1.384 . S
H1402 C1408 0.930 . S
H1403 C1412 0.930 . S
H1404 C1417 0.929 1_565 S
H1405 C1415 0.929 1_545 S
H1406 C1410 0.929 . S
H1407 C1416 0.929 . S
C1408 H1402 0.930 . S
C1408 C1409 1.367 . S
C1408 C1416 1.378 . S
C1409 C1408 1.367 . S
C1409 C1417 1.433 . S
C1410 H1406 0.929 . S
C1410 C1412 1.378 . S
C1410 C1414 1.350 . S
C1411 C1414 1.463 1_545 S
C1411 C1416 1.350 . S
C1411 N1419 1.427 1_545 S
C1412 H1403 0.930 . S
C1412 C1410 1.378 . S
C1412 C1413 1.367 . S
C1413 C1412 1.367 . S
C1413 C1415 1.433 . S
C1414 C1410 1.350 . S
C1414 C1411 1.463 1_565 S
C1414 N1418 1.427 1_565 S
C1415 H1405 0.929 1_565 S
C1415 C1413 1.433 . S
C1415 N1418 1.384 1_565 S
C1416 H1407 0.929 . S
C1416 C1408 1.378 . S
C1416 C1411 1.350 . S
C1417 H1404 0.929 1_545 S
C1417 C1409 1.433 . S
C1417 N1419 1.384 1_545 S
N1418 C1414 1.427 1_545 S
N1418 C1415 1.384 1_545 S
N1419 C1411 1.427 1_565 S
N1419 C1417 1.384 1_565 S
H1420 C1426 0.930 . S
H1421 C1430 0.930 . S
H1422 C1435 0.929 . S
H1423 C1433 0.929 . S
H1424 C1428 0.929 . S
H1425 C1434 0.929 . S
C1426 H1420 0.930 . S
C1426 C1427 1.367 . S
C1426 C1434 1.378 . S
C1427 C1426 1.367 . S
C1427 C1435 1.433 . S
C1428 H1424 0.929 . S
C1428 C1430 1.378 . S
C1428 C1432 1.350 . S
C1429 C1432 1.463 . S
C1429 C1434 1.350 . S
C1429 N1437 1.427 . S
C1430 H1421 0.930 . S
C1430 C1428 1.378 . S
C1430 C1431 1.367 . S
C1431 C1430 1.367 . S
C1431 C1433 1.433 . S
C1432 C1428 1.350 . S
C1432 C1429 1.463 . S
C1432 N1436 1.427 . S
C1433 H1423 0.929 . S
C1433 C1431 1.433 . S
C1433 N1436 1.384 . S
C1434 H1425 0.929 . S
C1434 C1426 1.378 . S
C1434 C1429 1.350 . S
C1435 H1422 0.929 . S
C1435 C1427 1.433 . S
C1435 N1437 1.384 . S
N1436 C1432 1.427 . S
N1436 C1433 1.384 . S
N1437 C1429 1.427 . S
N1437 C1435 1.384 . S
H1438 C1444 0.930 . S
H1439 C1448 0.930 . S
H1440 C1453 0.929 1_545 S
H1441 C1451 0.929 1_565 S
H1442 C1446 0.929 . S
H1443 C1452 0.929 . S
C1444 H1438 0.930 . S
C1444 C1445 1.367 . S
C1444 C1452 1.378 . S
C1445 C1444 1.367 . S
C1445 C1453 1.433 . S
C1446 H1442 0.929 . S
C1446 C1448 1.378 . S
C1446 C1450 1.350 . S
C1447 C1450 1.463 1_565 S
C1447 C1452 1.350 . S
C1447 N1455 1.427 1_565 S
C1448 H1439 0.930 . S
C1448 C1446 1.378 . S
C1448 C1449 1.367 1_554 S
C1449 C1448 1.367 1_556 S
C1449 C1451 1.433 . S
C1450 C1446 1.350 . S
C1450 C1447 1.463 1_545 S
C1450 N1454 1.427 1_545 S
C1451 H1441 0.929 1_545 S
C1451 C1449 1.433 . S
C1451 N1454 1.384 1_546 S
C1452 H1443 0.929 . S
C1452 C1444 1.378 . S
C1452 C1447 1.350 . S
C1453 H1440 0.929 1_565 S
C1453 C1445 1.433 . S
C1453 N1455 1.384 1_565 S
N1454 C1450 1.427 1_565 S
N1454 C1451 1.384 1_564 S
N1455 C1447 1.427 1_545 S
N1455 C1453 1.384 1_545 S
H1456 C1462 0.930 . S
H1457 C1466 0.930 . S
H1458 C1471 0.929 . S
H1459 C1469 0.929 . S
H1460 C1464 0.929 . S
H1461 C1470 0.929 . S
C1462 H1456 0.930 . S
C1462 C1463 1.367 . S
C1462 C1470 1.378 . S
C1463 C1462 1.367 . S
C1463 C1471 1.433 . S
C1464 H1460 0.929 . S
C1464 C1466 1.378 . S
C1464 C1468 1.350 . S
C1465 C1468 1.463 . S
C1465 C1470 1.350 . S
C1465 N1473 1.427 . S
C1466 H1457 0.930 . S
C1466 C1464 1.378 . S
C1466 C1467 1.367 . S
C1467 C1466 1.367 . S
C1467 C1469 1.433 . S
C1468 C1464 1.350 . S
C1468 C1465 1.463 . S
C1468 N1472 1.427 . S
C1469 H1459 0.929 . S
C1469 C1467 1.433 . S
C1469 N1472 1.384 . S
C1470 H1461 0.929 . S
C1470 C1462 1.378 . S
C1470 C1465 1.350 . S
C1471 H1458 0.929 . S
C1471 C1463 1.433 . S
C1471 N1473 1.384 . S
N1472 C1468 1.427 . S
N1472 C1469 1.384 . S
N1473 C1465 1.427 . S
N1473 C1471 1.384 . S
H1474 C1480 0.930 . S
H1475 C1484 0.930 . S
H1476 C1489 0.929 . S
H1477 C1487 0.929 . S
H1478 C1482 0.929 . S
H1479 C1488 0.929 . S
C1480 H1474 0.930 . S
C1480 C1481 1.367 . S
C1480 C1488 1.378 . S
C1481 C1480 1.367 . S
C1481 C1489 1.433 . S
C1482 H1478 0.929 . S
C1482 C1484 1.378 1_554 S
C1482 C1486 1.350 . S
C1483 C1486 1.463 . S
C1483 C1488 1.350 . S
C1483 N1491 1.427 . S
C1484 H1475 0.930 . S
C1484 C1482 1.378 1_556 S
C1484 C1485 1.367 . S
C1485 C1484 1.367 . S
C1485 C1487 1.433 1_556 S
C1486 C1482 1.350 . S
C1486 C1483 1.463 . S
C1486 N1490 1.427 . S
C1487 H1477 0.929 . S
C1487 C1485 1.433 1_554 S
C1487 N1490 1.384 . S
C1488 H1479 0.929 . S
C1488 C1480 1.378 . S
C1488 C1483 1.350 . S
C1489 H1476 0.929 . S
C1489 C1481 1.433 . S
C1489 N1491 1.384 . S
N1490 C1486 1.427 . S
N1490 C1487 1.384 . S
N1491 C1483 1.427 . S
N1491 C1489 1.384 . S
H1492 C1498 0.930 . S
H1493 C1502 0.930 . S
H1494 C1507 0.929 . S
H1495 C1505 0.929 . S
H1496 C1500 0.929 . S
H1497 C1506 0.929 . S
C1498 H1492 0.930 . S
C1498 C1499 1.367 . S
C1498 C1506 1.378 . S
C1499 C1498 1.367 . S
C1499 C1507 1.433 . S
C1500 H1496 0.929 . S
C1500 C1502 1.378 . S
C1500 C1504 1.350 . S
C1501 C1504 1.463 . S
C1501 C1506 1.350 . S
C1501 N1509 1.427 . S
C1502 H1493 0.930 . S
C1502 C1500 1.378 . S
C1502 C1503 1.367 . S
C1503 C1502 1.367 . S
C1503 C1505 1.433 . S
C1504 C1500 1.350 . S
C1504 C1501 1.463 . S
C1504 N1508 1.427 . S
C1505 H1495 0.929 . S
C1505 C1503 1.433 . S
C1505 N1508 1.384 . S
C1506 H1497 0.929 . S
C1506 C1498 1.378 . S
C1506 C1501 1.350 . S
C1507 H1494 0.929 . S
C1507 C1499 1.433 . S
C1507 N1509 1.384 . S
N1508 C1504 1.427 . S
N1508 C1505 1.384 . S
N1509 C1501 1.427 . S
N1509 C1507 1.384 . S
H1510 C1516 0.930 . S
H1511 C1520 0.930 . S
H1512 C1525 0.929 . S
H1513 C1523 0.929 . S
H1514 C1518 0.929 . S
H1515 C1524 0.929 . S
C1516 H1510 0.930 . S
C1516 C1517 1.367 . S
C1516 C1524 1.378 . S
C1517 C1516 1.367 . S
C1517 C1525 1.433 . S
C1518 H1514 0.929 . S
C1518 C1520 1.378 . S
C1518 C1522 1.350 . S
C1519 C1522 1.463 . S
C1519 C1524 1.350 . S
C1519 N1527 1.427 . S
C1520 H1511 0.930 . S
C1520 C1518 1.378 . S
C1520 C1521 1.367 . S
C1521 C1520 1.367 . S
C1521 C1523 1.433 . S
C1522 C1518 1.350 . S
C1522 C1519 1.463 . S
C1522 N1526 1.427 . S
C1523 H1513 0.929 . S
C1523 C1521 1.433 . S
C1523 N1526 1.384 . S
C1524 H1515 0.929 . S
C1524 C1516 1.378 . S
C1524 C1519 1.350 . S
C1525 H1512 0.929 . S
C1525 C1517 1.433 . S
C1525 N1527 1.384 . S
N1526 C1522 1.427 . S
N1526 C1523 1.384 . S
N1527 C1519 1.427 . S
N1527 C1525 1.384 . S
H1528 C1534 0.930 . S
H1529 C1538 0.930 . S
H1530 C1543 0.929 . S
H1531 C1541 0.929 . S
H1532 C1536 0.929 . S
H1533 C1542 0.929 . S
C1534 H1528 0.930 . S
C1534 C1535 1.367 . S
C1534 C1542 1.378 . S
C1535 C1534 1.367 . S
C1535 C1543 1.433 . S
C1536 H1532 0.929 . S
C1536 C1538 1.378 . S
C1536 C1540 1.350 . S
C1537 C1540 1.463 . S
C1537 C1542 1.350 . S
C1537 N1545 1.427 . S
C1538 H1529 0.930 . S
C1538 C1536 1.378 . S
C1538 C1539 1.367 . S
C1539 C1538 1.367 . S
C1539 C1541 1.433 . S
C1540 C1536 1.350 . S
C1540 C1537 1.463 . S
C1540 N1544 1.427 . S
C1541 H1531 0.929 . S
C1541 C1539 1.433 . S
C1541 N1544 1.384 . S
C1542 H1533 0.929 . S
C1542 C1534 1.378 . S
C1542 C1537 1.350 . S
C1543 H1530 0.929 . S
C1543 C1535 1.433 . S
C1543 N1545 1.384 . S
N1544 C1540 1.427 . S
N1544 C1541 1.384 . S
N1545 C1537 1.427 . S
N1545 C1543 1.384 . S
H1546 C1552 0.930 . S
H1547 C1556 0.930 . S
H1548 C1561 0.929 . S
H1549 C1559 0.929 . S
H1550 C1554 0.929 . S
H1551 C1560 0.929 . S
C1552 H1546 0.930 . S
C1552 C1553 1.367 1_554 S
C1552 C1560 1.378 . S
C1553 C1552 1.367 1_556 S
C1553 C1561 1.433 . S
C1554 H1550 0.929 . S
C1554 C1556 1.378 . S
C1554 C1558 1.350 . S
C1555 C1558 1.463 . S
C1555 C1560 1.350 . S
C1555 N1563 1.427 . S
C1556 H1547 0.930 . S
C1556 C1554 1.378 . S
C1556 C1557 1.367 . S
C1557 C1556 1.367 . S
C1557 C1559 1.433 . S
C1558 C1554 1.350 . S
C1558 C1555 1.463 . S
C1558 N1562 1.427 . S
C1559 H1549 0.929 . S
C1559 C1557 1.433 . S
C1559 N1562 1.384 . S
C1560 H1551 0.929 . S
C1560 C1552 1.378 . S
C1560 C1555 1.350 . S
C1561 H1548 0.929 . S
C1561 C1553 1.433 . S
C1561 N1563 1.384 1_556 S
N1562 C1558 1.427 . S
N1562 C1559 1.384 . S
N1563 C1555 1.427 . S
N1563 C1561 1.384 1_554 S
H1564 C1570 0.930 . S
H1565 C1574 0.930 . S
H1566 C1579 0.929 . S
H1567 C1577 0.929 . S
H1568 C1572 0.929 . S
H1569 C1578 0.929 . S
C1570 H1564 0.930 . S
C1570 C1571 1.367 . S
C1570 C1578 1.378 . S
C1571 C1570 1.367 . S
C1571 C1579 1.433 . S
C1572 H1568 0.929 . S
C1572 C1574 1.378 . S
C1572 C1576 1.350 . S
C1573 C1576 1.463 . S
C1573 C1578 1.350 . S
C1573 N1581 1.427 . S
C1574 H1565 0.930 . S
C1574 C1572 1.378 . S
C1574 C1575 1.367 . S
C1575 C1574 1.367 . S
C1575 C1577 1.433 . S
C1576 C1572 1.350 . S
C1576 C1573 1.463 . S
C1576 N1580 1.427 . S
C1577 H1567 0.929 . S
C1577 C1575 1.433 . S
C1577 N1580 1.384 . S
C1578 H1569 0.929 . S
C1578 C1570 1.378 . S
C1578 C1573 1.350 . S
C1579 H1566 0.929 . S
C1579 C1571 1.433 . S
C1579 N1581 1.384 . S
N1580 C1576 1.427 . S
N1580 C1577 1.384 . S
N1581 C1573 1.427 . S
N1581 C1579 1.384 . S
H1582 C1588 0.930 . S
H1583 C1592 0.930 . S
H1584 C1597 0.929 . S
H1585 C1595 0.929 . S
H1586 C1590 0.929 . S
H1587 C1596 0.929 . S
C1588 H1582 0.930 . S
C1588 C1589 1.367 . S
C1588 C1596 1.378 . S
C1589 C1588 1.367 . S
C1589 C1597 1.433 . S
C1590 H1586 0.929 . S
C1590 C1592 1.378 . S
C1590 C1594 1.350 . S
C1591 C1594 1.463 . S
C1591 C1596 1.350 . S
C1591 N1599 1.427 . S
C1592 H1583 0.930 . S
C1592 C1590 1.378 . S
C1592 C1593 1.367 . S
C1593 C1592 1.367 . S
C1593 C1595 1.433 . S
C1594 C1590 1.350 . S
C1594 C1591 1.463 . S
C1594 N1598 1.427 . S
C1595 H1585 0.929 . S
C1595 C1593 1.433 . S
C1595 N1598 1.384 . S
C1596 H1587 0.929 . S
C1596 C1588 1.378 . S
C1596 C1591 1.350 . S
C1597 H1584 0.929 . S
C1597 C1589 1.433 . S
C1597 N1599 1.384 . S
N1598 C1594 1.427 . S
N1598 C1595 1.384 . S
N1599 C1591 1.427 . S
N1599 C1597 1.384 . S
C455 C106 1.558 . S
C459 C8 1.557 . S
C473 C22 1.564 . S
C477 C64 1.562 . S
C491 C78 1.565 . S
C495 C36 1.563 . S
C509 C50 1.563 . S
C513 C92 1.565 . S
C527 C120 1.565 . S
C531 C218 1.564 . S
C545 C134 1.564 . S
C549 C176 1.565 . S
C563 C148 1.564 . S
C567 C190 1.562 . S
C581 C162 1.558 . S
C585 C204 1.557 . S
C599 C232 1.565 . S
C603 C330 1.566 . S
C617 C246 1.565 . S
C621 C288 1.566 . S
C635 C302 1.566 . S
C639 C260 1.565 . S
C653 C316 1.560 . S
C657 C274 1.562 . S
C671 C344 1.557 . S
C675 C442 1.558 . S
C689 C400 1.558 . S
C693 C358 1.557 . S
C707 C414 1.557 . S
C711 C372 1.559 . S
C725 C386 1.557 . S
C729 C428 1.557 . S
C743 C7 0.605 . S
C747 C91 0.585 . S
C761 C21 0.600 . S
C765 C105 0.606 . S
C779 C63 0.608 . S
C783 C35 0.588 . S
C797 C49 0.598 . S
C801 C77 0.585 . S
C815 C119 0.606 . S
C819 C203 0.586 . S
C833 C133 0.606 . S
C837 C217 0.586 . S
C851 C175 0.596 . S
C855 C147 0.586 . S
C869 C189 0.597 . S
C873 C161 0.607 . S
C887 C231 0.585 . S
C891 C315 0.600 . S
C905 C329 0.607 . S
C909 C245 0.598 . S
C923 C287 0.585 . S
C927 C259 0.601 . S
C941 C273 0.601 . S
C945 C301 0.584 . S
C959 C343 0.600 . S
C963 C427 0.585 . S
C977 C357 0.585 . S
C981 C441 0.600 . S
C995 C399 0.598 . S
C999 C371 0.607 . S
C1013 C413 0.606 . S
C1017 C385 0.598 . S
C1031 C9 1.520 . S
C1035 C429 1.524 . S
C1049 C23 1.525 . S
C1053 C219 1.518 . S
C1067 C37 1.525 . S
C1071 C401 1.519 . S
C1085 C51 1.526 . S
C1089 C191 1.517 . S
C1103 C65 1.519 . S
C1107 C373 1.524 . S
C1121 C79 1.524 . S
C1125 C163 1.520 . S
C1139 C93 1.518 . S
C1143 C345 1.525 . S
C1157 C135 1.518 . S
C1161 C107 1.525 . S
C1175 C317 1.526 . S
C1179 C121 1.517 . S
C1193 C149 1.524 . S
C1197 C289 1.519 . S
C1211 C261 1.524 . S
C1215 C177 1.520 . S
C1229 C233 1.525 . S
C1233 C205 1.518 . S
C1247 C247 1.524 . S
C1251 C443 1.519 . S
C1265 C275 1.521 . S
C1269 C415 1.522 . S
C1283 C303 1.521 . S
C1287 C387 1.522 . S
C1301 C359 1.520 . S
C1305 C331 1.523 . S
C1319 C3 1.605 . S
C1323 C87 1.607 . S
C1337 C17 1.604 . S
C1341 C101 1.608 . S
C1355 C59 1.608 1_556 S
C1359 C31 1.604 . S
C1373 C45 1.608 . S
C1377 C73 1.605 . S
C1391 C115 1.604 1_556 S
C1395 C199 1.608 . S
C1409 C129 1.607 . S
C1413 C213 1.605 . S
C1427 C171 1.608 . S
C1431 C143 1.605 . S
C1445 C157 1.607 . S
C1449 C185 1.606 . S
C1463 C311 1.605 1_556 S
C1467 C227 1.607 . S
C1481 C325 1.607 . S
C1485 C241 1.605 . S
C1499 C283 1.608 . S
C1503 C255 1.604 . S
C1517 C297 1.605 . S
C1521 C269 1.608 . S
C1535 C423 1.608 . S
C1539 C339 1.604 . S
C1553 C437 1.605 . S
C1557 C353 1.607 . S
C1571 C367 1.604 1_556 S
C1575 C395 1.608 . S
C1589 C409 1.605 . S
C1593 C381 1.608 . S
