# Generated by pormake.
# Topology yfx, (5)-cn, num edge types: 1
# Building blocks:
#     Node 0, Type 0, BuildingBlock: BEQFEK_clean_sbu_0, # of connection points: 5
#     Node 1, Type 0, BuildingBlock: BEQFEK_clean_sbu_0, # of connection points: 5
#     Node 2, Type 0, BuildingBlock: BEQFEK_clean_sbu_0, # of connection points: 5
#     Node 3, Type 0, BuildingBlock: BEQFEK_clean_sbu_0, # of connection points: 5
#     Node 4, Type 0, BuildingBlock: BEQFEK_clean_sbu_0, # of connection points: 5
#     Node 5, Type 0, BuildingBlock: BEQFEK_clean_sbu_0, # of connection points: 5
#     Node 6, Type 0, BuildingBlock: BEQFEK_clean_sbu_0, # of connection points: 5
#     Node 7, Type 0, BuildingBlock: BEQFEK_clean_sbu_0, # of connection points: 5
#     Edge 8, Type (0, 0), None
#     Edge 9, Type (0, 0), None
#     Edge 10, Type (0, 0), None
#     Edge 11, Type (0, 0), None
#     Edge 12, Type (0, 0), None
#     Edge 13, Type (0, 0), None
#     Edge 14, Type (0, 0), None
#     Edge 15, Type (0, 0), None
#     Edge 16, Type (0, 0), None
#     Edge 17, Type (0, 0), None
#     Edge 18, Type (0, 0), None
#     Edge 19, Type (0, 0), None
#     Edge 20, Type (0, 0), None
#     Edge 21, Type (0, 0), None
#     Edge 22, Type (0, 0), None
#     Edge 23, Type (0, 0), None
#     Edge 24, Type (0, 0), None
#     Edge 25, Type (0, 0), None
#     Edge 26, Type (0, 0), None
#     Edge 27, Type (0, 0), None
# Relax obj value: 0.128
# Max RMSD: 0.154
# Mean RMSD: 0.154
data_MOF--net-yfx--node1-BEQFEK_clean_sbu_0--edge1-none
_symmetry_space_group_name_H-M    P1
_symmetry_Int_Tables_number       1
_symmetry_cell_setting            triclinic
loop_
_symmetry_equiv_pos_as_xyz
'x, y, z'
_cell_length_a     21.470553
_cell_length_b     21.163304
_cell_length_c     10.691764
_cell_angle_alpha  90.000633
_cell_angle_beta   89.987713
_cell_angle_gamma 90.863467
loop_
_atom_site_label
_atom_site_type_symbol
_atom_site_fract_x
_atom_site_fract_y
_atom_site_fract_z
_atom_type_partial_charge
Co0 Co 0.33171 0.34051 -0.02 0.0
Co1 Co 0.18766 0.36845 0.00804 0.0
C2 C 0.24306 0.27026 0.82098 0.0
O3 O 0.29694 0.28021 0.86554 0.0
O4 O 0.19486 0.30127 0.86014 0.0
C5 C 0.44163 0.29088 -0.01392 0.0
O6 O 0.40464 0.24317 0.01538 0.0
C7 C 0.06445 0.45121 -0.00545 0.0
C8 C 0.05626 0.46735 0.19608 0.0
C9 C 0.03188 0.48853 0.08364 0.0
N10 N 0.10687 0.41349 0.05359 0.0
N11 N 0.09959 0.42341 0.17453 0.0
C12 C 0.05568 0.45094 0.85671 0.0
H13 H 0.08955 0.41898 0.81165 0.0
H14 H 0.06152 0.49912 0.81795 0.0
H15 H 1.0076 0.43406 0.83631 0.0
C16 C 0.33249 0.46734 0.88632 0.0
N17 N 0.3023 0.41877 0.94064 0.0
N18 N 0.24452 0.43431 0.96427 0.0
C19 C 0.23787 0.49558 0.93304 0.0
C20 C 0.29253 0.51673 0.87805 0.0
C21 C 0.39933 0.46775 0.84737 0.0
H22 H 0.4292 0.46448 0.93164 0.0
H23 H 0.40756 0.42646 0.78613 0.0
H24 H 0.41208 0.51142 0.79529 0.0
O25 O 0.32225 0.31187 0.15218 0.0
O26 O 0.21985 0.32173 0.16512 0.0
H27 H 0.20382 0.58666 -0.00725 0.0
H28 H 0.15014 0.53963 0.90608 0.0
C29 C 0.18687 0.53744 -0.02192 0.0
H30 H 0.168 0.52008 0.0681 0.0
H31 H 0.12723 0.40291 0.24327 0.0
O32 O 0.41875 0.34304 0.95669 0.0
C33 C 0.27201 0.30317 0.21083 0.0
Co34 Co 0.68701 0.33476 -0.00702 0.0
Co35 Co 0.6645 0.18685 0.02575 0.0
C36 C 0.7552 0.25091 0.83474 0.0
O37 O 0.7463 0.30524 0.87771 0.0
O38 O 0.72504 0.20202 0.87621 0.0
C39 C 0.70361 0.44831 0.87176 0.0
O40 O 0.72133 0.41343 0.77728 0.0
C41 C 0.56592 0.08475 0.9606 0.0
C42 C 0.58502 1.01059 0.09747 0.0
C43 C 0.54118 0.0274 0.00825 0.0
N44 N 0.62001 0.10095 0.02068 0.0
N45 N 0.63159 0.0545 0.0994 0.0
C46 C 0.53788 0.1238 0.85897 0.0
H47 H 0.56422 0.16845 0.84418 0.0
H48 H 0.48786 0.13231 0.87752 0.0
H49 H 0.54127 0.09845 0.76992 0.0
C50 C 0.55412 0.32482 0.94431 0.0
N51 N 0.6093 0.29897 -0.03129 0.0
N52 N 0.6002 0.24353 0.01981 0.0
C53 C 0.53963 0.23534 0.04438 0.0
C54 C 0.50835 0.28435 -0.00955 0.0
C55 C 0.54628 0.38654 0.87893 0.0
H56 H 0.53807 0.42423 0.9489 0.0
H57 H 0.58838 0.39851 0.82368 0.0
H58 H 0.50622 0.38374 0.81399 0.0
O59 O 0.71884 0.31994 0.16063 0.0
O60 O 0.71052 0.21476 0.18341 0.0
H61 H 0.48854 0.21616 0.21119 0.0
H62 H 0.48057 0.15631 0.09487 0.0
C63 C 0.51432 0.18964 0.13862 0.0
H64 H 0.55259 0.16348 0.18379 0.0
H65 H 0.66972 0.05448 0.15958 0.0
O66 O 0.68375 0.42358 -0.02804 0.0
C67 C 0.7274 0.27004 0.22356 0.0
Co68 Co 0.68382 0.68949 -0.02 0.0
Co69 Co 0.8279 0.6616 0.00794 0.0
C70 C 0.77246 0.75975 0.82089 0.0
O71 O 0.71859 0.74977 0.86547 0.0
O72 O 0.82068 0.72876 0.86003 0.0
C73 C 0.57385 0.73907 -0.01386 0.0
O74 O 0.61081 0.7868 0.01545 0.0
C75 C 0.95116 0.57889 -0.00548 0.0
C76 C 0.95923 0.5627 0.19605 0.0
C77 C 0.98367 0.54154 0.08363 0.0
N78 N 0.90869 0.61659 0.05353 0.0
N79 N 0.91591 0.60664 0.17448 0.0
C80 C 0.96 0.57919 0.8567 0.0
H81 H 0.92614 0.61115 0.81163 0.0
H82 H 0.95418 0.53102 0.8179 0.0
H83 H 0.00809 0.59607 0.83635 0.0
C84 C 0.68303 0.56258 0.88677 0.0
N85 N 0.71326 0.61122 0.94075 0.0
N86 N 0.77106 0.59571 0.96428 0.0
C87 C 0.77771 0.53441 0.9333 0.0
C88 C 0.72298 0.5132 0.87881 0.0
C89 C 0.61618 0.56212 0.84796 0.0
H90 H 0.58633 0.56549 0.93226 0.0
H91 H 0.60794 0.60332 0.78652 0.0
H92 H 0.60342 0.51839 0.79612 0.0
O93 O 0.69327 0.71815 0.15215 0.0
O94 O 0.79567 0.7083 0.16502 0.0
H95 H 0.81193 0.44335 -0.00734 0.0
H96 H 0.86552 0.49055 0.90605 0.0
C97 C 0.8288 0.49261 -0.02189 0.0
H98 H 0.84764 0.50994 0.06816 0.0
H99 H 0.88822 0.62711 0.2432 0.0
O100 O 0.59678 0.68693 0.95672 0.0
C101 C 0.74351 0.72685 0.21076 0.0
Co102 Co 0.32847 0.69506 -0.00703 0.0
Co103 Co 0.35094 0.84299 0.02571 0.0
C104 C 0.26026 0.7789 0.83478 0.0
O105 O 0.26916 0.72458 0.87777 0.0
O106 O 0.29041 0.82781 0.8762 0.0
C107 C 0.31201 0.58161 0.87138 0.0
O108 O 0.29453 0.61658 0.77687 0.0
C109 C 0.44955 0.94505 0.96052 0.0
C110 C 0.43059 0.01915 0.09768 0.0
C111 C 0.47443 1.00225 0.00851 0.0
N112 N 0.39544 0.9289 0.02064 0.0
N113 N 0.38394 0.97533 0.0995 0.0
C114 C 0.47754 0.906 0.8588 0.0
H115 H 0.45114 0.86139 0.84397 0.0
H116 H 0.52754 0.8974 0.87732 0.0
H117 H 0.4742 0.93141 0.76979 0.0
C118 C 0.46139 0.70506 0.94432 0.0
N119 N 0.40618 0.73089 -0.03131 0.0
N120 N 0.41524 0.78633 0.01978 0.0
C121 C 0.4758 0.79455 0.04439 0.0
C122 C 0.50713 0.74555 -0.00952 0.0
C123 C 0.46928 0.64334 0.87894 0.0
H124 H 0.47747 0.60566 0.94892 0.0
H125 H 0.42722 0.63136 0.82364 0.0
H126 H 0.50937 0.64616 0.81405 0.0
O127 O 0.29663 0.70987 0.16065 0.0
O128 O 0.3049 0.81506 0.18337 0.0
H129 H 0.52683 0.81374 0.21126 0.0
H130 H 0.53481 0.8736 0.09496 0.0
C131 C 0.50106 0.84025 0.13868 0.0
H132 H 0.46277 0.86638 0.18386 0.0
H133 H 0.34581 0.97538 0.15971 0.0
O134 O 0.33171 0.60623 -0.0282 0.0
C135 C 0.28805 0.75977 0.22356 0.0
Co136 Co 0.83442 0.83844 0.47981 0.0
Co137 Co 0.68862 0.86749 0.50398 0.0
C138 C 0.74362 0.76799 0.32299 0.0
O139 O 0.79733 0.778 0.36869 0.0
O140 O 0.69492 0.79908 0.35972 0.0
C141 C 0.95094 0.81641 0.36617 0.0
O142 O 0.92025 0.786 0.27808 0.0
C143 C 0.55977 0.94619 0.50294 0.0
C144 C 0.57592 0.99043 0.68528 0.0
C145 C 0.53677 0.99433 0.58272 0.0
N146 N 0.61165 0.91899 0.5543 0.0
N147 N 0.61892 0.94596 0.66496 0.0
C148 C 0.53194 0.92579 0.382 0.0
H149 H 0.50688 0.8803 0.39789 0.0
H150 H 0.56948 0.91755 0.31288 0.0
H151 H 0.49828 0.96062 0.3461 0.0
C152 C 0.83356 0.96414 0.3733 0.0
N153 N 0.80431 0.91671 0.43392 0.0
N154 N 0.74535 0.93071 0.44763 0.0
C155 C 0.73688 0.98909 0.40028 0.0
C156 C 0.79241 1.01167 0.35174 0.0
C157 C 0.90145 0.96751 0.34492 0.0
H158 H 0.92707 0.96622 0.43432 0.0
H159 H 0.91433 0.92712 0.28524 0.0
H160 H 0.91415 1.01148 0.29381 0.0
O161 O 0.82456 0.80947 0.65125 0.0
O162 O 0.72217 0.821 0.66198 0.0
H163 H 0.68613 0.07623 0.37749 0.0
H164 H 0.64104 1.00497 0.36281 0.0
C165 C 0.67959 0.02769 0.41505 0.0
H166 H 0.66785 0.03183 0.51529 0.0
H167 H 0.6557 0.93612 0.72535 0.0
O168 O 0.92237 0.84049 0.45706 0.0
C169 C 0.7738 0.80132 0.70868 0.0
Co170 Co 0.18587 0.84713 0.5107 0.0
Co171 Co 0.15535 0.70062 0.5052 0.0
C172 C 0.24978 0.75474 0.33704 0.0
O173 O 0.23956 0.80675 0.39109 0.0
O174 O 0.22044 0.7032 0.36714 0.0
C175 C 0.20439 0.95317 0.3644 0.0
O176 O 0.20672 0.91416 0.26926 0.0
C177 C 0.08567 0.56634 0.50531 0.0
C178 C 0.99617 0.60033 0.57781 0.0
C179 C 0.0232 0.54711 0.52949 0.0
N180 N 0.09354 0.62858 0.53485 0.0
N181 N 0.03949 0.64699 0.5812 0.0
C182 C 0.13584 0.52741 0.44879 0.0
H183 H 0.17907 0.53295 0.50487 0.0
H184 H 0.14619 0.54535 0.35335 0.0
H185 H 0.12203 0.4768 0.44342 0.0
C186 C 0.05616 0.85166 0.44691 0.0
N187 N 0.1065 0.81978 0.48158 0.0
N188 N 0.10078 0.76113 0.44487 0.0
C189 C 0.04899 0.75485 0.37542 0.0
C190 C 0.01772 0.81115 0.37882 0.0
C191 C 0.04386 0.91817 0.48532 0.0
H192 H 0.08415 0.93943 0.53519 0.0
H193 H 0.03254 0.94655 0.40156 0.0
H194 H 1.00367 0.91876 0.55034 0.0
O195 O 0.21441 0.83555 0.67421 0.0
O196 O 0.20057 0.73098 0.66934 0.0
H197 H 0.01483 0.70805 0.21112 0.0
H198 H 0.06758 0.66163 0.30362 0.0
C199 C 0.02918 0.69601 0.30786 0.0
H200 H 0.98804 0.67476 0.35529 0.0
H201 H 0.03115 0.69283 0.61222 0.0
O202 O 0.19417 0.93374 0.47428 0.0
C203 C 0.22066 0.78208 0.72328 0.0
Co204 Co 0.1811 0.19155 0.47994 0.0
Co205 Co 0.32691 0.16251 0.50403 0.0
C206 C 0.2719 0.26201 0.32304 0.0
O207 O 0.21818 0.25198 0.36877 0.0
O208 O 0.32059 0.23093 0.35975 0.0
C209 C 0.06459 0.21348 0.36626 0.0
O210 O 0.09531 0.24382 0.27809 0.0
C211 C 0.45578 0.08383 0.50299 0.0
C212 C 0.43958 0.03951 0.68526 0.0
C213 C 0.47881 0.03572 0.58277 0.0
N214 N 0.40386 0.11099 0.55434 0.0
N215 N 0.39655 0.08396 0.66495 0.0
C216 C 0.48363 0.10426 0.38209 0.0
H217 H 0.50849 0.14987 0.39794 0.0
H218 H 0.44612 0.11231 0.31285 0.0
H219 H 0.51746 0.06956 0.34635 0.0
C220 C 0.18194 0.06579 0.37368 0.0
N221 N 0.21122 0.11327 0.43409 0.0
N222 N 0.2702 0.09927 0.44775 0.0
C223 C 0.27868 0.04086 0.40056 0.0
C224 C 0.22311 0.01827 0.35236 0.0
C225 C 0.11405 0.06236 0.34542 0.0
H226 H 0.08845 0.06364 0.43487 0.0
H227 H 0.10113 0.10272 0.28573 0.0
H228 H 0.10138 0.01837 0.29435 0.0
O229 O 0.19096 0.22055 0.65136 0.0
O230 O 0.29335 0.209 0.66203 0.0
H231 H 0.32945 0.95374 0.37761 0.0
H232 H 0.37453 0.02501 0.36296 0.0
C233 C 0.33598 1.00227 0.41522 0.0
H234 H 0.34772 0.99809 0.51544 0.0
H235 H 0.35974 0.09375 0.7253 0.0
O236 O 0.09314 0.18948 0.45725 0.0
C237 C 0.24172 0.22869 0.70876 0.0
Co238 Co 0.82958 0.18268 0.5106 0.0
Co239 Co 0.8601 0.3292 0.5051 0.0
C240 C 0.76566 0.27508 0.33702 0.0
O241 O 0.77587 0.22307 0.39107 0.0
O242 O 0.79501 0.32662 0.36707 0.0
C243 C 0.81118 0.07674 0.36409 0.0
O244 O 0.80904 0.11582 0.26904 0.0
C245 C 0.92972 0.46348 0.50526 0.0
C246 C 0.01919 0.42956 0.57798 0.0
C247 C 0.99215 0.48277 0.52969 0.0
N248 N 0.92186 0.40125 0.53483 0.0
N249 N 0.97589 0.38288 0.58129 0.0
C250 C 0.8796 0.50236 0.44849 0.0
H251 H 0.83627 0.49674 0.50429 0.0
H252 H 0.86944 0.48445 0.35296 0.0
H253 H 0.89334 0.553 0.4433 0.0
C254 C 0.95932 0.17819 0.44678 0.0
N255 N 0.90896 0.21005 0.48139 0.0
N256 N 0.91469 0.26871 0.44473 0.0
C257 C 0.96653 0.27501 0.37538 0.0
C258 C 0.9978 0.21872 0.3788 0.0
C259 C 0.97161 0.11168 0.48519 0.0
H260 H 0.93128 0.0904 0.53495 0.0
H261 H 0.983 0.0833 0.40145 0.0
H262 H 0.01174 0.1111 0.55032 0.0
O263 O 0.80106 0.19424 0.67415 0.0
O264 O 0.81488 0.29881 0.66923 0.0
H265 H 1.0008 0.32185 0.2112 0.0
H266 H 0.94798 0.36825 0.30363 0.0
C267 C 0.98638 0.33387 0.30792 0.0
H268 H 0.02749 0.35512 0.35545 0.0
H269 H 0.98424 0.33703 0.61229 0.0
O270 O 0.82126 0.09609 0.47408 0.0
C271 C 0.7948 0.24772 0.72321 0.0
loop_
_geom_bond_atom_site_label_1
_geom_bond_atom_site_label_2
_geom_bond_distance
_geom_bond_site_symmetry_2
_ccdc_geom_bond_type
Co0 O3 1.970 1_554 S
Co0 N17 1.989 . S
Co0 O25 1.967 . S
Co0 O32 1.920 . S
Co1 O4 1.966 1_554 S
Co1 N10 2.022 . S
Co1 N18 1.993 . S
Co1 O26 1.941 . S
C2 O3 1.258 . S
C2 O4 1.263 . S
O3 Co0 1.970 1_556 S
O3 C2 1.258 . S
O4 Co1 1.966 1_556 S
O4 C2 1.263 . S
C5 O6 1.235 . S
C5 O32 1.289 1_556 S
O6 C5 1.235 . S
C7 C9 1.400 . S
C7 N10 1.351 1_556 S
C7 C12 1.501 . S
C8 C9 1.387 1_554 S
C8 N11 1.341 . S
C9 C7 1.400 . S
C9 C8 1.387 1_556 S
N10 Co1 2.022 . S
N10 C7 1.351 1_554 S
N10 N11 1.365 . S
N11 C8 1.341 . S
N11 N10 1.365 . S
N11 H31 0.862 . S
C12 C7 1.501 . S
C12 H13 0.961 . S
C12 H14 0.961 . S
C12 H15 0.960 . S
H13 C12 0.961 . S
H14 C12 0.961 . S
H15 C12 0.960 . S
C16 N17 1.342 . S
C16 C20 1.401 . S
C16 C21 1.499 . S
N17 Co0 1.989 . S
N17 C16 1.342 . S
N17 N18 1.388 . S
N18 Co1 1.993 . S
N18 N17 1.388 . S
N18 C19 1.346 . S
C19 N18 1.346 . S
C19 C20 1.396 . S
C19 C29 1.510 . S
C20 C16 1.401 . S
C20 C19 1.396 . S
C21 C16 1.499 . S
C21 H22 0.959 . S
C21 H23 0.960 1_554 S
C21 H24 0.961 . S
H22 C21 0.959 . S
H23 C21 0.960 1_556 S
H24 C21 0.961 . S
O25 Co0 1.967 . S
O25 C33 1.258 . S
O26 Co1 1.941 . S
O26 C33 1.266 . S
H27 C29 0.959 . S
H28 C29 0.961 1_556 S
C29 C19 1.510 . S
C29 H27 0.959 . S
C29 H28 0.961 1_554 S
C29 H30 0.960 . S
H30 C29 0.960 . S
H31 N11 0.862 . S
O32 Co0 1.920 . S
O32 C5 1.289 1_554 S
C33 O25 1.258 . S
C33 O26 1.266 . S
Co34 O37 1.970 1_554 S
Co34 N51 1.989 . S
Co34 O59 1.967 . S
Co34 O66 1.920 . S
Co35 O38 1.966 1_554 S
Co35 N44 2.022 . S
Co35 N52 1.993 . S
Co35 O60 1.941 . S
C36 O37 1.258 . S
C36 O38 1.263 . S
O37 Co34 1.970 1_556 S
O37 C36 1.258 . S
O38 Co35 1.966 1_556 S
O38 C36 1.263 . S
C39 O40 1.235 . S
C39 O66 1.289 1_556 S
O40 C39 1.235 . S
C41 C43 1.400 . S
C41 N44 1.351 1_556 S
C41 C46 1.501 . S
C42 C43 1.387 1_554 S
C42 N45 1.341 . S
C43 C41 1.400 . S
C43 C42 1.387 1_556 S
N44 Co35 2.022 . S
N44 C41 1.351 1_554 S
N44 N45 1.365 . S
N45 C42 1.341 . S
N45 N44 1.365 . S
N45 H65 0.862 . S
C46 C41 1.501 . S
C46 H47 0.961 . S
C46 H48 0.961 . S
C46 H49 0.960 . S
H47 C46 0.961 . S
H48 C46 0.961 . S
H49 C46 0.960 . S
C50 N51 1.342 . S
C50 C54 1.401 . S
C50 C55 1.499 . S
N51 Co34 1.989 . S
N51 C50 1.342 . S
N51 N52 1.388 . S
N52 Co35 1.993 . S
N52 N51 1.388 . S
N52 C53 1.346 . S
C53 N52 1.346 . S
C53 C54 1.396 . S
C53 C63 1.510 . S
C54 C50 1.401 . S
C54 C53 1.396 . S
C55 C50 1.499 . S
C55 H56 0.959 . S
C55 H57 0.960 1_554 S
C55 H58 0.961 . S
H56 C55 0.959 . S
H57 C55 0.960 1_556 S
H58 C55 0.961 . S
O59 Co34 1.967 . S
O59 C67 1.258 . S
O60 Co35 1.941 . S
O60 C67 1.266 . S
H61 C63 0.959 . S
H62 C63 0.961 1_556 S
C63 C53 1.510 . S
C63 H61 0.959 . S
C63 H62 0.961 1_554 S
C63 H64 0.960 . S
H64 C63 0.960 . S
H65 N45 0.862 . S
O66 Co34 1.920 . S
O66 C39 1.289 1_554 S
C67 O59 1.258 . S
C67 O60 1.266 . S
Co68 O71 1.970 1_554 S
Co68 N85 1.989 . S
Co68 O93 1.967 . S
Co68 O100 1.920 . S
Co69 O72 1.966 1_554 S
Co69 N78 2.022 . S
Co69 N86 1.993 . S
Co69 O94 1.941 . S
C70 O71 1.258 . S
C70 O72 1.263 . S
O71 Co68 1.970 1_556 S
O71 C70 1.258 . S
O72 Co69 1.966 1_556 S
O72 C70 1.263 . S
C73 O74 1.235 . S
C73 O100 1.289 1_556 S
O74 C73 1.235 . S
C75 C77 1.400 . S
C75 N78 1.351 1_556 S
C75 C80 1.501 . S
C76 C77 1.387 1_554 S
C76 N79 1.341 . S
C77 C75 1.400 . S
C77 C76 1.387 1_556 S
N78 Co69 2.022 . S
N78 C75 1.351 1_554 S
N78 N79 1.365 . S
N79 C76 1.341 . S
N79 N78 1.365 . S
N79 H99 0.862 . S
C80 C75 1.501 . S
C80 H81 0.961 . S
C80 H82 0.961 . S
C80 H83 0.960 . S
H81 C80 0.961 . S
H82 C80 0.961 . S
H83 C80 0.960 . S
C84 N85 1.342 . S
C84 C88 1.401 . S
C84 C89 1.499 . S
N85 Co68 1.989 . S
N85 C84 1.342 . S
N85 N86 1.388 . S
N86 Co69 1.993 . S
N86 N85 1.388 . S
N86 C87 1.346 . S
C87 N86 1.346 . S
C87 C88 1.396 . S
C87 C97 1.510 . S
C88 C84 1.401 . S
C88 C87 1.396 . S
C89 C84 1.499 . S
C89 H90 0.959 . S
C89 H91 0.960 1_554 S
C89 H92 0.961 . S
H90 C89 0.959 . S
H91 C89 0.960 1_556 S
H92 C89 0.961 . S
O93 Co68 1.967 . S
O93 C101 1.258 . S
O94 Co69 1.941 . S
O94 C101 1.266 . S
H95 C97 0.959 . S
H96 C97 0.961 1_556 S
C97 C87 1.510 . S
C97 H95 0.959 . S
C97 H96 0.961 1_554 S
C97 H98 0.960 . S
H98 C97 0.960 . S
H99 N79 0.862 . S
O100 Co68 1.920 . S
O100 C73 1.289 1_554 S
C101 O93 1.258 . S
C101 O94 1.266 . S
Co102 O105 1.970 1_554 S
Co102 N119 1.989 . S
Co102 O127 1.967 . S
Co102 O134 1.920 . S
Co103 O106 1.966 1_554 S
Co103 N112 2.022 . S
Co103 N120 1.993 . S
Co103 O128 1.941 . S
C104 O105 1.258 . S
C104 O106 1.263 . S
O105 Co102 1.970 1_556 S
O105 C104 1.258 . S
O106 Co103 1.966 1_556 S
O106 C104 1.263 . S
C107 O108 1.235 . S
C107 O134 1.289 1_556 S
O108 C107 1.235 . S
C109 C111 1.400 . S
C109 N112 1.351 1_556 S
C109 C114 1.501 . S
C110 C111 1.387 1_554 S
C110 N113 1.341 . S
C111 C109 1.400 . S
C111 C110 1.387 1_556 S
N112 Co103 2.022 . S
N112 C109 1.351 1_554 S
N112 N113 1.365 . S
N113 C110 1.341 . S
N113 N112 1.365 . S
N113 H133 0.862 . S
C114 C109 1.501 . S
C114 H115 0.961 . S
C114 H116 0.961 . S
C114 H117 0.960 . S
H115 C114 0.961 . S
H116 C114 0.961 . S
H117 C114 0.960 . S
C118 N119 1.342 . S
C118 C122 1.401 . S
C118 C123 1.499 . S
N119 Co102 1.989 . S
N119 C118 1.342 . S
N119 N120 1.388 . S
N120 Co103 1.993 . S
N120 N119 1.388 . S
N120 C121 1.346 . S
C121 N120 1.346 . S
C121 C122 1.396 . S
C121 C131 1.510 . S
C122 C118 1.401 . S
C122 C121 1.396 . S
C123 C118 1.499 . S
C123 H124 0.959 . S
C123 H125 0.960 1_554 S
C123 H126 0.961 . S
H124 C123 0.959 . S
H125 C123 0.960 1_556 S
H126 C123 0.961 . S
O127 Co102 1.967 . S
O127 C135 1.258 . S
O128 Co103 1.941 . S
O128 C135 1.266 . S
H129 C131 0.959 . S
H130 C131 0.961 1_556 S
C131 C121 1.510 . S
C131 H129 0.959 . S
C131 H130 0.961 1_554 S
C131 H132 0.960 . S
H132 C131 0.960 . S
H133 N113 0.862 . S
O134 Co102 1.920 . S
O134 C107 1.289 1_554 S
C135 O127 1.258 . S
C135 O128 1.266 . S
Co136 O139 1.970 . S
Co136 N153 1.989 . S
Co136 O161 1.967 . S
Co136 O168 1.920 . S
Co137 O140 1.966 . S
Co137 N146 2.022 . S
Co137 N154 1.993 . S
Co137 O162 1.941 . S
C138 O139 1.258 . S
C138 O140 1.263 . S
O139 Co136 1.970 . S
O139 C138 1.258 . S
O140 Co137 1.966 . S
O140 C138 1.263 . S
C141 O142 1.235 . S
C141 O168 1.289 . S
O142 C141 1.235 . S
C143 C145 1.400 . S
C143 N146 1.351 . S
C143 C148 1.501 . S
C144 C145 1.387 . S
C144 N147 1.341 . S
C145 C143 1.400 . S
C145 C144 1.387 . S
N146 Co137 2.022 . S
N146 C143 1.351 . S
N146 N147 1.365 . S
N147 C144 1.341 . S
N147 N146 1.365 . S
N147 H167 0.862 . S
C148 C143 1.501 . S
C148 H149 0.961 . S
C148 H150 0.961 . S
C148 H151 0.960 . S
H149 C148 0.961 . S
H150 C148 0.961 . S
H151 C148 0.960 . S
C152 N153 1.342 . S
C152 C156 1.401 1_565 S
C152 C157 1.499 . S
N153 Co136 1.989 . S
N153 C152 1.342 . S
N153 N154 1.388 . S
N154 Co137 1.993 . S
N154 N153 1.388 . S
N154 C155 1.346 . S
C155 N154 1.346 . S
C155 C156 1.396 1_565 S
C155 C165 1.510 1_565 S
C156 C152 1.401 1_545 S
C156 C155 1.396 1_545 S
C157 C152 1.499 . S
C157 H158 0.959 . S
C157 H159 0.960 . S
C157 H160 0.961 . S
H158 C157 0.959 . S
H159 C157 0.960 . S
H160 C157 0.961 . S
O161 Co136 1.967 . S
O161 C169 1.258 . S
O162 Co137 1.941 . S
O162 C169 1.266 . S
H163 C165 0.959 . S
H164 C165 0.961 . S
C165 C155 1.510 1_545 S
C165 H163 0.959 . S
C165 H164 0.961 . S
C165 H166 0.965 . S
H166 C165 0.965 . S
H167 N147 0.862 . S
O168 Co136 1.920 . S
O168 C141 1.289 . S
C169 O161 1.258 . S
C169 O162 1.266 . S
Co170 O173 1.970 . S
Co170 N187 1.989 . S
Co170 O195 1.967 . S
Co170 O202 1.920 . S
Co171 O174 1.966 . S
Co171 N180 2.022 . S
Co171 N188 1.993 . S
Co171 O196 1.941 . S
C172 O173 1.258 . S
C172 O174 1.263 . S
O173 Co170 1.970 . S
O173 C172 1.258 . S
O174 Co171 1.966 . S
O174 C172 1.263 . S
C175 O176 1.235 . S
C175 O202 1.289 . S
O176 C175 1.235 . S
C177 C179 1.400 . S
C177 N180 1.351 . S
C177 C182 1.501 . S
C178 C179 1.387 . S
C178 N181 1.341 . S
C179 C177 1.400 . S
C179 C178 1.387 . S
N180 Co171 2.022 . S
N180 C177 1.351 . S
N180 N181 1.365 . S
N181 C178 1.341 . S
N181 N180 1.365 . S
N181 H201 0.862 . S
C182 C177 1.501 . S
C182 H183 0.961 . S
C182 H184 0.961 . S
C182 H185 0.960 . S
H183 C182 0.961 . S
H184 C182 0.961 . S
H185 C182 0.960 . S
C186 N187 1.342 . S
C186 C190 1.401 1_455 S
C186 C191 1.499 . S
N187 Co170 1.989 . S
N187 C186 1.342 . S
N187 N188 1.388 . S
N188 Co171 1.993 . S
N188 N187 1.388 . S
N188 C189 1.346 . S
C189 N188 1.346 . S
C189 C190 1.396 1_455 S
C189 C199 1.510 1_455 S
C190 C186 1.401 1_655 S
C190 C189 1.396 1_655 S
C191 C186 1.499 . S
C191 H192 0.959 . S
C191 H193 0.960 . S
C191 H194 0.961 . S
H192 C191 0.959 . S
H193 C191 0.960 . S
H194 C191 0.961 . S
O195 Co170 1.967 . S
O195 C203 1.258 . S
O196 Co171 1.941 . S
O196 C203 1.266 . S
H197 C199 0.959 . S
H198 C199 0.961 . S
C199 C189 1.510 1_655 S
C199 H197 0.959 . S
C199 H198 0.961 . S
C199 H200 0.965 . S
H200 C199 0.965 . S
H201 N181 0.862 . S
O202 Co170 1.920 . S
O202 C175 1.289 . S
C203 O195 1.258 . S
C203 O196 1.266 . S
Co204 O207 1.970 . S
Co204 N221 1.989 . S
Co204 O229 1.967 . S
Co204 O236 1.920 . S
Co205 O208 1.966 . S
Co205 N214 2.022 . S
Co205 N222 1.993 . S
Co205 O230 1.941 . S
C206 O207 1.258 . S
C206 O208 1.263 . S
O207 Co204 1.970 . S
O207 C206 1.258 . S
O208 Co205 1.966 . S
O208 C206 1.263 . S
C209 O210 1.235 . S
C209 O236 1.289 . S
O210 C209 1.235 . S
C211 C213 1.400 . S
C211 N214 1.351 . S
C211 C216 1.501 . S
C212 C213 1.387 . S
C212 N215 1.341 . S
C213 C211 1.400 . S
C213 C212 1.387 . S
N214 Co205 2.022 . S
N214 C211 1.351 . S
N214 N215 1.365 . S
N215 C212 1.341 . S
N215 N214 1.365 . S
N215 H235 0.862 . S
C216 C211 1.501 . S
C216 H217 0.961 . S
C216 H218 0.961 . S
C216 H219 0.960 . S
H217 C216 0.961 . S
H218 C216 0.961 . S
H219 C216 0.960 . S
C220 N221 1.342 . S
C220 C224 1.401 1_545 S
C220 C225 1.499 . S
N221 Co204 1.989 . S
N221 C220 1.342 . S
N221 N222 1.388 . S
N222 Co205 1.993 . S
N222 N221 1.388 . S
N222 C223 1.346 . S
C223 N222 1.346 . S
C223 C224 1.396 1_545 S
C223 C233 1.510 1_545 S
C224 C220 1.401 1_565 S
C224 C223 1.396 1_565 S
C225 C220 1.499 . S
C225 H226 0.959 . S
C225 H227 0.960 . S
C225 H228 0.961 . S
H226 C225 0.959 . S
H227 C225 0.960 . S
H228 C225 0.961 . S
O229 Co204 1.967 . S
O229 C237 1.258 . S
O230 Co205 1.941 . S
O230 C237 1.266 . S
H231 C233 0.959 . S
H232 C233 0.961 . S
C233 C223 1.510 1_565 S
C233 H231 0.959 . S
C233 H232 0.961 . S
C233 H234 0.965 . S
H234 C233 0.965 . S
H235 N215 0.862 . S
O236 Co204 1.920 . S
O236 C209 1.289 . S
C237 O229 1.258 . S
C237 O230 1.266 . S
Co238 O241 1.970 . S
Co238 N255 1.989 . S
Co238 O263 1.967 . S
Co238 O270 1.920 . S
Co239 O242 1.966 . S
Co239 N248 2.022 . S
Co239 N256 1.993 . S
Co239 O264 1.941 . S
C240 O241 1.258 . S
C240 O242 1.263 . S
O241 Co238 1.970 . S
O241 C240 1.258 . S
O242 Co239 1.966 . S
O242 C240 1.263 . S
C243 O244 1.235 . S
C243 O270 1.289 . S
O244 C243 1.235 . S
C245 C247 1.400 . S
C245 N248 1.351 . S
C245 C250 1.501 . S
C246 C247 1.387 . S
C246 N249 1.341 . S
C247 C245 1.400 . S
C247 C246 1.387 . S
N248 Co239 2.022 . S
N248 C245 1.351 . S
N248 N249 1.365 . S
N249 C246 1.341 . S
N249 N248 1.365 . S
N249 H269 0.862 . S
C250 C245 1.501 . S
C250 H251 0.961 . S
C250 H252 0.961 . S
C250 H253 0.960 . S
H251 C250 0.961 . S
H252 C250 0.961 . S
H253 C250 0.960 . S
C254 N255 1.342 . S
C254 C258 1.401 1_655 S
C254 C259 1.499 . S
N255 Co238 1.989 . S
N255 C254 1.342 . S
N255 N256 1.388 . S
N256 Co239 1.993 . S
N256 N255 1.388 . S
N256 C257 1.346 . S
C257 N256 1.346 . S
C257 C258 1.396 1_655 S
C257 C267 1.510 1_655 S
C258 C254 1.401 1_455 S
C258 C257 1.396 1_455 S
C259 C254 1.499 . S
C259 H260 0.959 . S
C259 H261 0.960 . S
C259 H262 0.961 . S
H260 C259 0.959 . S
H261 C259 0.960 . S
H262 C259 0.961 . S
O263 Co238 1.967 . S
O263 C271 1.258 . S
O264 Co239 1.941 . S
O264 C271 1.266 . S
H265 C267 0.959 . S
H266 C267 0.961 . S
C267 C257 1.510 1_455 S
C267 H265 0.959 . S
C267 H266 0.961 . S
C267 H268 0.965 . S
H268 C267 0.965 . S
H269 N249 0.862 . S
O270 Co238 1.920 . S
O270 C243 1.289 . S
C271 O263 1.258 . S
C271 O264 1.266 . S
C54 C5 1.413 1_554 S
C39 C88 1.413 1_556 S
C73 C122 1.413 1_556 S
C20 C107 1.413 1_554 S
C190 C141 1.413 . S
C224 C175 1.413 . S
C209 C258 1.413 . S
C243 C156 1.413 . S
C206 C33 1.746 . S
C67 C240 1.746 . S
C101 C138 1.746 . S
C135 C172 1.746 . S
C169 C70 1.747 . S
C203 C104 1.747 . S
C237 C2 1.747 . S
C36 C271 1.747 . S
C77 C9 2.197 1_655 S
C43 C111 2.197 1_545 S
C213 C145 2.197 1_545 S
C179 C247 2.197 1_455 S
