# Generated by pormake.
# Topology smq, (6)-cn, num edge types: 1
# Building blocks:
#     Node 0, Type 0, BuildingBlock: MAKGUD_clean_sbu_1, # of connection points: 6
#     Node 1, Type 0, BuildingBlock: MAKGUD_clean_sbu_1, # of connection points: 6
#     Node 2, Type 0, BuildingBlock: MAKGUD_clean_sbu_1, # of connection points: 6
#     Node 3, Type 0, BuildingBlock: MAKGUD_clean_sbu_1, # of connection points: 6
#     Node 4, Type 0, BuildingBlock: MAKGUD_clean_sbu_1, # of connection points: 6
#     Node 5, Type 0, BuildingBlock: MAKGUD_clean_sbu_1, # of connection points: 6
#     Node 6, Type 0, BuildingBlock: MAKGUD_clean_sbu_1, # of connection points: 6
#     Node 7, Type 0, BuildingBlock: MAKGUD_clean_sbu_1, # of connection points: 6
#     Node 8, Type 0, BuildingBlock: MAKGUD_clean_sbu_1, # of connection points: 6
#     Node 9, Type 0, BuildingBlock: MAKGUD_clean_sbu_1, # of connection points: 6
#     Node 10, Type 0, BuildingBlock: MAKGUD_clean_sbu_1, # of connection points: 6
#     Node 11, Type 0, BuildingBlock: MAKGUD_clean_sbu_1, # of connection points: 6
#     Node 12, Type 0, BuildingBlock: MAKGUD_clean_sbu_1, # of connection points: 6
#     Node 13, Type 0, BuildingBlock: MAKGUD_clean_sbu_1, # of connection points: 6
#     Node 14, Type 0, BuildingBlock: MAKGUD_clean_sbu_1, # of connection points: 6
#     Node 15, Type 0, BuildingBlock: MAKGUD_clean_sbu_1, # of connection points: 6
#     Node 16, Type 0, BuildingBlock: MAKGUD_clean_sbu_1, # of connection points: 6
#     Node 17, Type 0, BuildingBlock: MAKGUD_clean_sbu_1, # of connection points: 6
#     Node 18, Type 0, BuildingBlock: MAKGUD_clean_sbu_1, # of connection points: 6
#     Node 19, Type 0, BuildingBlock: MAKGUD_clean_sbu_1, # of connection points: 6
#     Node 20, Type 0, BuildingBlock: MAKGUD_clean_sbu_1, # of connection points: 6
#     Node 21, Type 0, BuildingBlock: MAKGUD_clean_sbu_1, # of connection points: 6
#     Node 22, Type 0, BuildingBlock: MAKGUD_clean_sbu_1, # of connection points: 6
#     Node 23, Type 0, BuildingBlock: MAKGUD_clean_sbu_1, # of connection points: 6
#     Edge 24, Type (0, 0), BuildingBlock: UVAHIK_clean_linker_0, # of connection points: 2
#     Edge 25, Type (0, 0), BuildingBlock: UVAHIK_clean_linker_0, # of connection points: 2
#     Edge 26, Type (0, 0), BuildingBlock: UVAHIK_clean_linker_0, # of connection points: 2
#     Edge 27, Type (0, 0), BuildingBlock: UVAHIK_clean_linker_0, # of connection points: 2
#     Edge 28, Type (0, 0), BuildingBlock: UVAHIK_clean_linker_0, # of connection points: 2
#     Edge 29, Type (0, 0), BuildingBlock: UVAHIK_clean_linker_0, # of connection points: 2
#     Edge 30, Type (0, 0), BuildingBlock: UVAHIK_clean_linker_0, # of connection points: 2
#     Edge 31, Type (0, 0), BuildingBlock: UVAHIK_clean_linker_0, # of connection points: 2
#     Edge 32, Type (0, 0), BuildingBlock: UVAHIK_clean_linker_0, # of connection points: 2
#     Edge 33, Type (0, 0), BuildingBlock: UVAHIK_clean_linker_0, # of connection points: 2
#     Edge 34, Type (0, 0), BuildingBlock: UVAHIK_clean_linker_0, # of connection points: 2
#     Edge 35, Type (0, 0), BuildingBlock: UVAHIK_clean_linker_0, # of connection points: 2
#     Edge 36, Type (0, 0), BuildingBlock: UVAHIK_clean_linker_0, # of connection points: 2
#     Edge 37, Type (0, 0), BuildingBlock: UVAHIK_clean_linker_0, # of connection points: 2
#     Edge 38, Type (0, 0), BuildingBlock: UVAHIK_clean_linker_0, # of connection points: 2
#     Edge 39, Type (0, 0), BuildingBlock: UVAHIK_clean_linker_0, # of connection points: 2
#     Edge 40, Type (0, 0), BuildingBlock: UVAHIK_clean_linker_0, # of connection points: 2
#     Edge 41, Type (0, 0), BuildingBlock: UVAHIK_clean_linker_0, # of connection points: 2
#     Edge 42, Type (0, 0), BuildingBlock: UVAHIK_clean_linker_0, # of connection points: 2
#     Edge 43, Type (0, 0), BuildingBlock: UVAHIK_clean_linker_0, # of connection points: 2
#     Edge 44, Type (0, 0), BuildingBlock: UVAHIK_clean_linker_0, # of connection points: 2
#     Edge 45, Type (0, 0), BuildingBlock: UVAHIK_clean_linker_0, # of connection points: 2
#     Edge 46, Type (0, 0), BuildingBlock: UVAHIK_clean_linker_0, # of connection points: 2
#     Edge 47, Type (0, 0), BuildingBlock: UVAHIK_clean_linker_0, # of connection points: 2
#     Edge 48, Type (0, 0), BuildingBlock: UVAHIK_clean_linker_0, # of connection points: 2
#     Edge 49, Type (0, 0), BuildingBlock: UVAHIK_clean_linker_0, # of connection points: 2
#     Edge 50, Type (0, 0), BuildingBlock: UVAHIK_clean_linker_0, # of connection points: 2
#     Edge 51, Type (0, 0), BuildingBlock: UVAHIK_clean_linker_0, # of connection points: 2
#     Edge 52, Type (0, 0), BuildingBlock: UVAHIK_clean_linker_0, # of connection points: 2
#     Edge 53, Type (0, 0), BuildingBlock: UVAHIK_clean_linker_0, # of connection points: 2
#     Edge 54, Type (0, 0), BuildingBlock: UVAHIK_clean_linker_0, # of connection points: 2
#     Edge 55, Type (0, 0), BuildingBlock: UVAHIK_clean_linker_0, # of connection points: 2
#     Edge 56, Type (0, 0), BuildingBlock: UVAHIK_clean_linker_0, # of connection points: 2
#     Edge 57, Type (0, 0), BuildingBlock: UVAHIK_clean_linker_0, # of connection points: 2
#     Edge 58, Type (0, 0), BuildingBlock: UVAHIK_clean_linker_0, # of connection points: 2
#     Edge 59, Type (0, 0), BuildingBlock: UVAHIK_clean_linker_0, # of connection points: 2
#     Edge 60, Type (0, 0), BuildingBlock: UVAHIK_clean_linker_0, # of connection points: 2
#     Edge 61, Type (0, 0), BuildingBlock: UVAHIK_clean_linker_0, # of connection points: 2
#     Edge 62, Type (0, 0), BuildingBlock: UVAHIK_clean_linker_0, # of connection points: 2
#     Edge 63, Type (0, 0), BuildingBlock: UVAHIK_clean_linker_0, # of connection points: 2
#     Edge 64, Type (0, 0), BuildingBlock: UVAHIK_clean_linker_0, # of connection points: 2
#     Edge 65, Type (0, 0), BuildingBlock: UVAHIK_clean_linker_0, # of connection points: 2
#     Edge 66, Type (0, 0), BuildingBlock: UVAHIK_clean_linker_0, # of connection points: 2
#     Edge 67, Type (0, 0), BuildingBlock: UVAHIK_clean_linker_0, # of connection points: 2
#     Edge 68, Type (0, 0), BuildingBlock: UVAHIK_clean_linker_0, # of connection points: 2
#     Edge 69, Type (0, 0), BuildingBlock: UVAHIK_clean_linker_0, # of connection points: 2
#     Edge 70, Type (0, 0), BuildingBlock: UVAHIK_clean_linker_0, # of connection points: 2
#     Edge 71, Type (0, 0), BuildingBlock: UVAHIK_clean_linker_0, # of connection points: 2
#     Edge 72, Type (0, 0), BuildingBlock: UVAHIK_clean_linker_0, # of connection points: 2
#     Edge 73, Type (0, 0), BuildingBlock: UVAHIK_clean_linker_0, # of connection points: 2
#     Edge 74, Type (0, 0), BuildingBlock: UVAHIK_clean_linker_0, # of connection points: 2
#     Edge 75, Type (0, 0), BuildingBlock: UVAHIK_clean_linker_0, # of connection points: 2
#     Edge 76, Type (0, 0), BuildingBlock: UVAHIK_clean_linker_0, # of connection points: 2
#     Edge 77, Type (0, 0), BuildingBlock: UVAHIK_clean_linker_0, # of connection points: 2
#     Edge 78, Type (0, 0), BuildingBlock: UVAHIK_clean_linker_0, # of connection points: 2
#     Edge 79, Type (0, 0), BuildingBlock: UVAHIK_clean_linker_0, # of connection points: 2
#     Edge 80, Type (0, 0), BuildingBlock: UVAHIK_clean_linker_0, # of connection points: 2
#     Edge 81, Type (0, 0), BuildingBlock: UVAHIK_clean_linker_0, # of connection points: 2
#     Edge 82, Type (0, 0), BuildingBlock: UVAHIK_clean_linker_0, # of connection points: 2
#     Edge 83, Type (0, 0), BuildingBlock: UVAHIK_clean_linker_0, # of connection points: 2
#     Edge 84, Type (0, 0), BuildingBlock: UVAHIK_clean_linker_0, # of connection points: 2
#     Edge 85, Type (0, 0), BuildingBlock: UVAHIK_clean_linker_0, # of connection points: 2
#     Edge 86, Type (0, 0), BuildingBlock: UVAHIK_clean_linker_0, # of connection points: 2
#     Edge 87, Type (0, 0), BuildingBlock: UVAHIK_clean_linker_0, # of connection points: 2
#     Edge 88, Type (0, 0), BuildingBlock: UVAHIK_clean_linker_0, # of connection points: 2
#     Edge 89, Type (0, 0), BuildingBlock: UVAHIK_clean_linker_0, # of connection points: 2
#     Edge 90, Type (0, 0), BuildingBlock: UVAHIK_clean_linker_0, # of connection points: 2
#     Edge 91, Type (0, 0), BuildingBlock: UVAHIK_clean_linker_0, # of connection points: 2
#     Edge 92, Type (0, 0), BuildingBlock: UVAHIK_clean_linker_0, # of connection points: 2
#     Edge 93, Type (0, 0), BuildingBlock: UVAHIK_clean_linker_0, # of connection points: 2
#     Edge 94, Type (0, 0), BuildingBlock: UVAHIK_clean_linker_0, # of connection points: 2
#     Edge 95, Type (0, 0), BuildingBlock: UVAHIK_clean_linker_0, # of connection points: 2
# Relax obj value: 0.207
# Max RMSD: 0.218
# Mean RMSD: 0.218
data_MOF--net-smq--node1-MAKGUD_clean_sbu_1--edge1-UVAHIK_clean_linker_0
_symmetry_space_group_name_H-M    P1
_symmetry_Int_Tables_number       1
_symmetry_cell_setting            triclinic
loop_
_symmetry_equiv_pos_as_xyz
'x, y, z'
_cell_length_a     59.817767
_cell_length_b     59.832813
_cell_length_c     59.880979
_cell_angle_alpha  89.92096
_cell_angle_beta   90.032017
_cell_angle_gamma 90.004671
loop_
_atom_site_label
_atom_site_type_symbol
_atom_site_fract_x
_atom_site_fract_y
_atom_site_fract_z
_atom_type_partial_charge
O0 O 1.01402 0.30035 0.26431 0.0
Tb1 Tb 1.02679 0.29887 0.29802 0.0
C2 C 1.0141 0.28571 0.34591 0.0
O3 O 0.06341 0.26613 0.28733 0.0
Tb4 Tb 0.05568 0.26124 0.32307 0.0
C5 C 0.08658 0.27919 0.34876 0.0
O6 O 0.06138 0.30331 0.28922 0.0
O7 O 0.07101 0.22813 0.31804 0.0
C8 C 0.09188 0.22904 0.31058 0.0
O9 O 0.10061 0.24895 0.30743 0.0
O10 O 1.01822 0.30312 0.33292 0.0
O11 O 1.02356 0.26591 0.34162 0.0
O12 O 1.01219 0.26576 0.29837 0.0
C13 C 0.0703 0.28571 0.28006 0.0
C14 C 1.00422 0.31961 0.26619 0.0
O15 O 0.07592 0.29005 0.33312 0.0
O16 O 0.07961 0.2587 0.34998 0.0
C17 C 0.99037 0.26556 0.30099 0.0
O18 O 0.97982 0.28483 0.3012 0.0
O19 O 1.00666 0.32734 0.28645 0.0
O20 O 0.31285 0.51454 0.76683 0.0
Tb21 Tb 0.30831 0.52886 0.79955 0.0
C22 C 0.31604 0.52046 0.8496 0.0
O23 O 0.33722 0.5703 0.7913 0.0
Tb24 Tb 0.33589 0.56454 0.82769 0.0
C25 C 0.3041 0.59009 0.84463 0.0
O26 O 0.3011 0.56187 0.78704 0.0
O27 O 0.3663 0.58535 0.82895 0.0
C28 C 0.36392 0.60587 0.82087 0.0
O29 O 0.34403 0.61155 0.81343 0.0
O30 O 0.30025 0.52131 0.83412 0.0
O31 O 0.33448 0.53294 0.84749 0.0
O32 O 0.34227 0.51759 0.80503 0.0
C33 C 0.31843 0.57318 0.78024 0.0
C34 C 0.29432 0.50328 0.76653 0.0
O35 O 0.30087 0.5751 0.82928 0.0
O36 O 0.32495 0.59033 0.85068 0.0
C37 C 0.34364 0.49629 0.8103 0.0
O38 O 0.32513 0.48444 0.81027 0.0
O39 O 0.28359 0.50571 0.78539 0.0
O40 O 0.09103 0.79934 0.2648 0.0
Tb41 Tb 0.07651 0.80338 0.29759 0.0
C42 C 0.08799 0.81773 0.34544 0.0
O43 O 1.04063 0.83803 0.28509 0.0
Tb44 Tb 0.04724 0.8425 0.32109 0.0
C45 C 1.01519 0.82422 0.34524 0.0
O46 O 1.04202 0.80077 0.28747 0.0
O47 O 1.03319 0.87628 0.31714 0.0
C48 C 1.01307 0.87715 0.30782 0.0
O49 O 1.00366 0.85829 0.30172 0.0
O50 O 0.084 0.80002 0.33285 0.0
O51 O 0.07884 0.83753 0.34045 0.0
O52 O 0.0934 0.83543 0.29746 0.0
C53 C 1.03389 0.81847 0.27766 0.0
C54 C 0.09797 0.77898 0.2677 0.0
O55 O 1.0265 0.81364 0.32994 0.0
O56 O 1.02234 0.8446 0.34714 0.0
C57 C 0.11515 0.83437 0.30054 0.0
O58 O 0.12452 0.81451 0.30127 0.0
O59 O 0.09347 0.77227 0.28799 0.0
O60 O 0.78761 0.58579 0.76533 0.0
Tb61 Tb 0.79007 0.57161 0.79845 0.0
C62 C 0.78115 0.58219 0.84766 0.0
O63 O 0.75916 0.53307 0.7891 0.0
Tb64 Tb 0.7556 0.54038 0.82513 0.0
C65 C 0.77314 0.50795 0.84928 0.0
O66 O 0.79621 0.5375 0.78903 0.0
O67 O 0.72165 0.5267 0.82152 0.0
C68 C 0.72071 0.50629 0.81293 0.0
O69 O 0.73957 0.49648 0.80748 0.0
O70 O 0.7973 0.58003 0.83281 0.0
O71 O 0.76159 0.57173 0.84475 0.0
O72 O 0.75588 0.58322 0.8014 0.0
C73 C 0.77873 0.52754 0.78073 0.0
C74 C 0.80681 0.59588 0.76554 0.0
O75 O 0.78313 0.51734 0.83233 0.0
O76 O 0.75383 0.51721 0.85272 0.0
C77 C 0.75365 0.60454 0.8061 0.0
O78 O 0.77169 0.61689 0.80815 0.0
O79 O 0.81672 0.59279 0.78475 0.0
O80 O 1.01568 0.80499 0.83387 0.0
Tb81 Tb 1.02974 0.80511 0.80063 0.0
C82 C 1.01746 0.81688 0.7522 0.0
O83 O 0.06843 0.83804 0.80872 0.0
Tb84 Tb 0.0606 0.83987 0.77278 0.0
C85 C 0.08754 0.81593 0.74756 0.0
O86 O 0.06414 0.80089 0.81062 0.0
O87 O 0.07928 0.87144 0.77507 0.0
C88 C 0.10053 0.86858 0.78063 0.0
O89 O 0.10754 0.84789 0.78305 0.0
O90 O 1.02096 0.7998 0.76581 0.0
O91 O 1.02759 0.83644 0.75588 0.0
O92 O 1.01533 0.83826 0.79894 0.0
C93 C 0.07398 0.81889 0.81801 0.0
C94 C 1.00633 0.78547 0.83255 0.0
O95 O 0.07955 0.80919 0.76667 0.0
O96 O 0.08042 0.8359 0.74286 0.0
C97 C 0.99357 0.83837 0.79583 0.0
O98 O 0.98303 0.81909 0.79598 0.0
O99 O 1.00971 0.77683 0.81279 0.0
O100 O 0.79503 0.5199 0.33641 0.0
Tb101 Tb 0.7923 0.52933 0.30165 0.0
C102 C 0.779 0.51558 0.25411 0.0
O103 O 0.76 0.56649 0.31118 0.0
Tb104 Tb 0.75333 0.5573 0.27609 0.0
C105 C 0.76647 0.58773 0.24712 0.0
O106 O 0.7971 0.56438 0.30819 0.0
O107 O 0.72028 0.57196 0.28337 0.0
C108 C 0.72131 0.59325 0.28955 0.0
O109 O 0.74117 0.60262 0.29015 0.0
O110 O 0.79646 0.51984 0.26699 0.0
O111 O 0.75907 0.52478 0.25848 0.0
O112 O 0.75939 0.51431 0.30192 0.0
C113 C 0.77977 0.57373 0.31747 0.0
C114 C 0.81331 0.5084 0.33444 0.0
O115 O 0.77902 0.58001 0.26327 0.0
O116 O 0.74708 0.57798 0.24725 0.0
C117 C 0.75972 0.49239 0.30056 0.0
O118 O 0.77921 0.48232 0.30162 0.0
O119 O 0.81992 0.50825 0.31363 0.0
O120 O 0.08157 0.29677 0.83668 0.0
Tb121 Tb 0.0726 0.2961 0.80173 0.0
C122 C 0.08671 0.2847 0.75385 0.0
O123 O 1.03281 0.26477 0.80853 0.0
Tb124 Tb 1.04357 0.26007 0.77358 0.0
C125 C 1.01647 0.27793 0.7438 0.0
O126 O 1.03756 0.3018 0.80786 0.0
O127 O 1.02733 0.22725 0.77713 0.0
C128 C 1.00548 0.22861 0.78059 0.0
O129 O 0.99672 0.24871 0.78186 0.0
O130 O 0.0829 0.30171 0.76742 0.0
O131 O 0.07694 0.26493 0.75756 0.0
O132 O 0.08716 0.26297 0.80094 0.0
C133 C 1.02699 0.28458 0.81603 0.0
C134 C 0.09306 0.31516 0.83588 0.0
O135 O 1.02277 0.28797 0.76212 0.0
O136 O 1.02539 0.2582 0.74251 0.0
C137 C 0.10894 0.26324 0.79807 0.0
O138 O 0.11915 0.28269 0.79823 0.0
O139 O 0.09352 0.32295 0.81547 0.0
O140 O 0.3098 0.58691 0.33367 0.0
Tb141 Tb 0.31 0.57308 0.30038 0.0
C142 C 0.32202 0.5829 0.25156 0.0
O143 O 0.34232 0.53429 0.31083 0.0
Tb144 Tb 0.34598 0.54121 0.27479 0.0
C145 C 0.32556 0.5115 0.24953 0.0
O146 O 0.30518 0.53884 0.31066 0.0
O147 O 0.37832 0.52406 0.27879 0.0
C148 C 0.37631 0.50307 0.28567 0.0
O149 O 0.35593 0.49546 0.28872 0.0
O150 O 0.30478 0.57983 0.26508 0.0
O151 O 0.34168 0.57327 0.2561 0.0
O152 O 0.34249 0.58883 0.29779 0.0
C153 C 0.32268 0.52905 0.31923 0.0
C154 C 0.29067 0.59703 0.332 0.0
O155 O 0.31683 0.52031 0.26744 0.0
O156 O 0.34537 0.51963 0.24596 0.0
C157 C 0.34113 0.6102 0.29278 0.0
O158 O 0.3212 0.61944 0.29232 0.0
O159 O 0.2822 0.59403 0.31207 0.0
O160 O 0.26283 1.02107 0.30592 0.0
Tb161 Tb 0.29657 1.03304 0.30102 0.0
C162 C 0.34413 1.02099 0.28563 0.0
O163 O 0.28251 0.06592 0.26617 0.0
Tb164 Tb 0.3184 0.06015 0.26025 0.0
C165 C 0.34259 0.09335 0.27614 0.0
O166 O 0.28638 0.06756 0.30322 0.0
O167 O 0.3133 0.07287 0.22608 0.0
C168 C 0.30278 0.09236 0.22452 0.0
O169 O 0.29588 0.1019 0.24301 0.0
O170 O 0.33213 1.02601 0.3035 0.0
O171 O 0.33836 1.02905 0.2656 0.0
O172 O 0.29436 1.01601 0.26929 0.0
C173 C 0.276 0.07446 0.28532 0.0
C174 C 0.26653 1.0104 0.32441 0.0
O175 O 0.32915 0.0812 0.28825 0.0
O176 O 0.34268 0.08648 0.25563 0.0
C177 C 0.29844 0.99448 0.27074 0.0
O178 O 0.30315 0.98615 0.29052 0.0
O179 O 0.28758 1.01223 0.33003 0.0
O180 O 0.57715 0.76335 0.80361 0.0
Tb181 Tb 0.57017 0.79835 0.79759 0.0
C182 C 0.58625 0.84461 0.78299 0.0
O183 O 0.53216 0.7899 0.76595 0.0
Tb184 Tb 0.54457 0.8235 0.75691 0.0
C185 C 0.51655 0.85633 0.76525 0.0
O186 O 0.53479 0.79431 0.8029 0.0
O187 O 0.53115 0.81451 0.72388 0.0
C188 C 0.50941 0.81006 0.72422 0.0
O189 O 0.49899 0.81192 0.74345 0.0
O190 O 0.58072 0.8328 0.8008 0.0
O191 O 0.57791 0.83933 0.76297 0.0
O192 O 0.58462 0.79531 0.76458 0.0
C193 C 0.52454 0.78518 0.78601 0.0
C194 C 0.58986 0.7663 0.82092 0.0
O195 O 0.52135 0.84045 0.77951 0.0
O196 O 0.52762 0.85363 0.74681 0.0
C197 C 0.60659 0.79594 0.76434 0.0
O198 O 0.61711 0.79613 0.78361 0.0
O199 O 0.5918 0.78761 0.82523 0.0
O200 O 0.84046 0.0799 0.29678 0.0
Tb201 Tb 0.80622 0.06864 0.29457 0.0
C202 C 0.75768 0.07931 0.28232 0.0
O203 O 0.81757 1.03167 0.26227 0.0
Tb204 Tb 0.78191 1.03913 0.25642 0.0
C205 C 0.7566 1.0058 0.27023 0.0
O206 O 0.81491 1.03402 0.29934 0.0
O207 O 0.78766 1.02771 0.22199 0.0
C208 C 0.79705 1.0077 0.22018 0.0
O209 O 0.80218 0.99688 0.23858 0.0
O210 O 0.771 0.07552 0.29956 0.0
O211 O 0.76222 0.07034 0.26238 0.0
O212 O 0.80486 0.08452 0.26207 0.0
C213 C 0.82446 1.02498 0.28202 0.0
C214 C 0.83817 0.09106 0.3152 0.0
O215 O 0.77063 1.01654 0.28302 0.0
O216 O 0.75657 1.01418 0.25026 0.0
C217 C 0.80002 0.10593 0.26316 0.0
O218 O 0.79875 0.11521 0.283 0.0
O219 O 0.81747 0.09003 0.32217 0.0
O220 O 0.51973 0.33894 0.79825 0.0
Tb221 Tb 0.52786 0.3038 0.79717 0.0
C222 C 0.51392 0.25601 0.78522 0.0
O223 O 0.56614 0.31176 0.76537 0.0
Tb224 Tb 0.55604 0.27685 0.75911 0.0
C225 C 0.58588 0.2472 0.77217 0.0
O226 O 0.56306 0.30908 0.80233 0.0
O227 O 0.57024 0.28385 0.72588 0.0
C228 C 0.59168 0.28953 0.72658 0.0
O229 O 0.60144 0.2897 0.74625 0.0
O230 O 0.51799 0.26936 0.80234 0.0
O231 O 0.52325 0.25988 0.76527 0.0
O232 O 0.51193 0.30312 0.76468 0.0
C233 C 0.57297 0.31813 0.78522 0.0
C234 C 0.50875 0.33828 0.81694 0.0
O235 O 0.57863 0.26356 0.78468 0.0
O236 O 0.57606 0.24755 0.75283 0.0
C237 C 0.49013 0.30057 0.76588 0.0
O238 O 0.48079 0.30126 0.78572 0.0
O239 O 0.50798 0.3178 0.82463 0.0
O240 O 0.26202 0.07924 0.80865 0.0
Tb241 Tb 0.29664 0.06872 0.81037 0.0
C242 C 0.34392 0.08361 0.82333 0.0
O243 O 0.29099 1.0278 0.84118 0.0
Tb244 Tb 0.32614 1.03844 0.84457 0.0
C245 C 0.35421 1.01628 0.81893 0.0
O246 O 0.2903 1.03384 0.80428 0.0
O247 O 0.32581 1.01809 0.87531 0.0
C248 C 0.32397 0.99625 0.87198 0.0
O249 O 0.32292 0.98927 0.85121 0.0
O250 O 0.33084 0.07981 0.80594 0.0
O251 O 0.34048 0.07279 0.84256 0.0
O252 O 0.29667 0.08191 0.84405 0.0
C253 C 0.28277 1.02272 0.82144 0.0
C254 C 0.26371 0.09031 0.79006 0.0
O255 O 0.33444 1.02287 0.81258 0.0
O256 O 0.35783 1.02179 0.83959 0.0
C257 C 0.29396 0.10368 0.84535 0.0
O258 O 0.28944 0.11472 0.82692 0.0
O259 O 0.2843 0.08956 0.78279 0.0
O260 O 0.58573 0.84817 0.34212 0.0
Tb261 Tb 0.55858 0.82425 0.34201 0.0
C262 C 0.57071 0.7798 0.31961 0.0
O263 O 0.52154 0.83581 0.30048 0.0
Tb264 Tb 0.52884 0.80053 0.30501 0.0
C265 C 0.50517 0.76935 0.2846 0.0
O266 O 0.52758 0.84465 0.3375 0.0
O267 O 0.51358 0.80194 0.33777 0.0
C268 C 0.49193 0.80576 0.3375 0.0
O269 O 0.48182 0.80659 0.31802 0.0
O270 O 0.5636 0.78783 0.33877 0.0
O271 O 0.56292 0.78925 0.30159 0.0
O272 O 0.57349 0.82113 0.3755 0.0
C273 C 0.51801 0.8491 0.31779 0.0
C274 C 0.59068 0.84611 0.32116 0.0
O275 O 0.50924 0.7891 0.27613 0.0
O276 O 0.5139 0.76771 0.30438 0.0
C277 C 0.59305 0.8107 0.37626 0.0
O278 O 0.60153 0.80323 0.35747 0.0
O279 O 0.57736 0.83188 0.3115 0.0
O280 O 0.84036 1.01862 0.80192 0.0
Tb281 Tb 0.80592 1.02903 0.80479 0.0
C282 C 0.7577 1.01802 0.81753 0.0
O283 O 0.81716 0.06653 0.83722 0.0
Tb284 Tb 0.78154 0.05872 0.84294 0.0
C285 C 0.75587 0.0906 0.82652 0.0
O286 O 0.81389 0.06379 0.80023 0.0
O287 O 0.78668 0.07185 0.87689 0.0
C288 C 0.79546 0.0922 0.87788 0.0
O289 O 0.80032 0.10238 0.85906 0.0
O290 O 0.77072 1.02206 0.80014 0.0
O291 O 0.76244 1.027 0.83745 0.0
O292 O 0.80492 1.01235 0.83689 0.0
C293 C 0.82382 0.07292 0.8173 0.0
C294 C 0.83804 1.00781 0.78328 0.0
O295 O 0.7709 0.07985 0.81498 0.0
O296 O 0.75514 0.08307 0.84683 0.0
C297 C 0.80041 0.9909 0.83524 0.0
O298 O 0.79951 0.98211 0.81516 0.0
O299 O 0.81721 1.00843 0.77663 0.0
O300 O 0.58453 0.33449 0.30006 0.0
Tb301 Tb 0.57345 0.30022 0.30221 0.0
C302 C 0.58537 0.25201 0.31512 0.0
O303 O 0.53744 0.3111 0.33563 0.0
Tb304 Tb 0.54431 0.27513 0.33983 0.0
C305 C 0.51355 0.24978 0.32103 0.0
O306 O 0.53871 0.30909 0.29848 0.0
O307 O 0.52807 0.27903 0.3726 0.0
C308 C 0.50704 0.28596 0.37119 0.0
O309 O 0.49929 0.29062 0.35117 0.0
O310 O 0.58123 0.26506 0.29773 0.0
O311 O 0.57627 0.25653 0.335 0.0
O312 O 0.58974 0.29934 0.3345 0.0
C313 C 0.53026 0.31846 0.31621 0.0
C314 C 0.59491 0.33254 0.28115 0.0
O315 O 0.52394 0.26598 0.31078 0.0
O316 O 0.52068 0.24787 0.34139 0.0
C317 C 0.61131 0.29533 0.33327 0.0
O318 O 0.62055 0.29468 0.31337 0.0
O319 O 0.59378 0.31193 0.27395 0.0
O320 O 0.29176 0.26389 1.01857 0.0
Tb321 Tb 0.29309 0.29762 1.03124 0.0
C322 C 0.28203 0.34627 1.01928 0.0
O323 O 0.26043 0.28742 0.06816 0.0
Tb324 Tb 0.2558 0.32325 0.0604 0.0
C325 C 0.27126 0.34846 0.09301 0.0
O326 O 0.29763 0.28904 0.06585 0.0
O327 O 0.22156 0.31874 0.07308 0.0
C328 C 0.22024 0.31014 0.09348 0.0
O329 O 0.23892 0.30504 0.10382 0.0
O330 O 0.29887 0.33227 1.02239 0.0
O331 O 0.26221 0.34256 1.02895 0.0
O332 O 0.25989 0.29965 1.017 0.0
C333 C 0.28001 0.27999 0.07491 0.0
C334 C 0.31113 0.26411 1.00882 0.0
O335 O 0.28228 0.33187 0.08415 0.0
O336 O 0.25211 0.35097 0.08313 0.0
C337 C 0.25972 0.30291 0.99529 0.0
O338 O 0.27898 0.30286 0.98471 0.0
O339 O 0.32057 0.28369 1.01123 0.0
O340 O 0.25265 0.82 0.09637 0.0
Tb341 Tb 0.2655 0.7968 0.07154 0.0
C342 C 0.28199 0.74844 0.07454 0.0
O343 O 0.28209 0.79074 1.01897 0.0
Tb344 Tb 0.25918 0.76383 1.029 0.0
C345 C 0.25433 0.73382 0.99703 0.0
O346 O 0.26387 0.81578 1.04061 0.0
O347 O 0.22854 0.78236 1.02086 0.0
C348 C 0.22807 0.79137 1.00063 0.0
O349 O 0.24635 0.79057 0.98853 0.0
O350 O 0.28879 0.76923 0.07702 0.0
O351 O 0.26659 0.74393 0.05934 0.0
O352 O 0.23673 0.77715 0.08159 0.0
C353 C 0.27685 0.81164 1.02349 0.0
C354 C 0.27201 0.82781 0.10237 0.0
O355 O 0.27247 0.74543 1.00045 0.0
O356 O 0.23943 0.73866 1.01197 0.0
C357 C 0.23883 0.76709 0.10103 0.0
O358 O 0.25725 0.77029 0.11256 0.0
O359 O 0.28783 0.81789 0.09125 0.0
O360 O 0.7627 0.7913 0.57812 0.0
Tb361 Tb 0.7975 0.79209 0.56837 0.0
C362 C 0.84642 0.7823 0.57989 0.0
O363 O 0.78941 0.76267 0.52833 0.0
Tb364 Tb 0.8245 0.75623 0.53792 0.0
C365 C 0.85216 0.76776 0.50567 0.0
O366 O 0.79085 0.79952 0.53384 0.0
O367 O 0.81797 0.72189 0.52649 0.0
C368 C 0.81043 0.72025 0.50569 0.0
O369 O 0.80726 0.73871 0.49425 0.0
O370 O 0.83194 0.79879 0.57726 0.0
O371 O 0.84331 0.76266 0.56969 0.0
O372 O 0.80023 0.75845 0.5814 0.0
C373 C 0.78241 0.78276 0.52284 0.0
C374 C 0.7634 0.80875 0.59098 0.0
O375 O 0.83699 0.78104 0.51404 0.0
O376 O 0.85194 0.74862 0.51586 0.0
C377 C 0.8045 0.75802 0.60293 0.0
O378 O 0.80472 0.77708 0.61381 0.0
O379 O 0.78363 0.81702 0.59141 0.0
O380 O 0.80948 0.26365 0.08392 0.0
Tb381 Tb 0.80852 0.29721 0.07063 0.0
C382 C 0.81828 0.34634 0.08105 0.0
O383 O 0.84158 0.28788 1.03296 0.0
Tb384 Tb 0.84478 0.32399 1.0399 0.0
C385 C 0.82694 0.34835 1.00781 0.0
O386 O 0.80436 0.28786 1.03617 0.0
O387 O 0.87857 0.32059 1.02564 0.0
C388 C 0.87918 0.3122 1.00513 0.0
O389 O 0.86016 0.30675 0.99561 0.0
O390 O 0.80173 0.33205 0.07779 0.0
O391 O 0.83823 0.34297 0.0715 0.0
O392 O 0.84085 0.3009 0.08647 0.0
C393 C 0.82218 0.27948 1.02689 0.0
C394 C 0.79017 0.26437 0.09379 0.0
O395 O 0.81727 0.33096 1.01677 0.0
O396 O 0.8461 0.35207 1.01729 0.0
C397 C 0.83933 0.30542 0.1079 0.0
O398 O 0.81942 0.30487 0.11716 0.0
O399 O 0.78096 0.28401 0.09096 0.0
O400 O 0.25619 0.34725 0.5135 0.0
Tb401 Tb 0.28127 0.34275 0.53907 0.0
C402 C 0.32329 0.31635 0.52524 0.0
O403 O 0.26969 0.30092 0.57701 0.0
Tb404 Tb 0.30477 0.30436 0.56874 0.0
C405 C 0.33624 0.28403 0.59227 0.0
O406 O 0.26151 0.33816 0.57056 0.0
O407 O 0.30471 0.33752 0.58298 0.0
C408 C 0.30128 0.3376 0.60465 0.0
O409 O 0.30022 0.31825 0.61503 0.0
O410 O 0.31691 0.33628 0.53194 0.0
O411 O 0.31329 0.29923 0.53425 0.0
O412 O 0.28692 0.37661 0.52552 0.0
C413 C 0.25687 0.3186 0.58045 0.0
C414 C 0.25607 0.32667 0.50679 0.0
O415 O 0.31579 0.27659 0.59013 0.0
O416 O 0.33856 0.30269 0.58144 0.0
C417 C 0.29643 0.37744 0.50548 0.0
O418 O 0.30186 0.35849 0.49586 0.0
O419 O 0.2699 0.31461 0.51857 0.0
O420 O 0.80874 0.83509 1.01413 0.0
Tb421 Tb 0.80908 0.80188 1.02825 0.0
C422 C 0.82033 0.75276 1.0192 0.0
O423 O 0.84228 0.81348 0.06507 0.0
Tb424 Tb 0.84609 0.77725 0.05932 0.0
C425 C 0.82717 0.75465 0.09208 0.0
O426 O 0.80506 0.81239 0.06236 0.0
O427 O 0.88009 0.78097 0.07305 0.0
C428 C 0.88131 0.79088 0.09284 0.0
O429 O 0.86262 0.79751 0.10223 0.0
O430 O 0.80339 0.7666 1.0224 0.0
O431 O 0.84028 0.7569 1.02849 0.0
O432 O 0.84132 0.79886 1.01214 0.0
C433 C 0.82276 0.82157 0.07111 0.0
C434 C 0.7894 0.83345 1.00442 0.0
O435 O 0.81686 0.76955 0.07996 0.0
O436 O 0.84765 0.75226 0.08536 0.0
C437 C 0.83976 0.79346 0.99092 0.0
O438 O 0.81973 0.79261 0.98191 0.0
O439 O 0.78093 0.81355 1.00773 0.0
O440 O 0.75885 0.30402 0.51809 0.0
Tb441 Tb 0.79272 0.30755 0.53024 0.0
C442 C 0.83994 0.32167 0.51609 0.0
O443 O 0.78174 0.34185 0.56521 0.0
Tb444 Tb 0.81714 0.34773 0.55661 0.0
C445 C 0.84624 0.33369 0.58653 0.0
O446 O 0.78474 0.30465 0.56521 0.0
O447 O 0.81159 0.38141 0.57021 0.0
C448 C 0.80382 0.38185 0.59096 0.0
O449 O 0.80013 0.36271 0.60106 0.0
O450 O 0.8277 0.30403 0.52138 0.0
O451 O 0.83477 0.3418 0.52426 0.0
O452 O 0.79169 0.33999 0.51418 0.0
C453 C 0.77522 0.32248 0.57332 0.0
C454 C 0.76163 0.28476 0.50853 0.0
O455 O 0.82949 0.32169 0.57929 0.0
O456 O 0.84636 0.35315 0.57694 0.0
C457 C 0.79354 0.33935 0.49231 0.0
O458 O 0.79358 0.31968 0.48257 0.0
O459 O 0.78231 0.27812 0.51094 0.0
O460 O 0.25502 0.74647 0.58054 0.0
Tb461 Tb 0.28187 0.75454 0.55804 0.0
C462 C 0.32432 0.77938 0.57309 0.0
O463 O 0.27068 0.7994 0.52329 0.0
Tb464 Tb 0.30591 0.79502 0.53067 0.0
C465 C 0.33774 0.81731 0.50967 0.0
O466 O 0.26255 0.76178 0.52684 0.0
O467 O 0.30526 0.76353 0.51287 0.0
C468 C 0.30109 0.76584 0.49142 0.0
O469 O 0.30013 0.7862 0.48321 0.0
O470 O 0.31765 0.76023 0.56473 0.0
O471 O 0.31445 0.7973 0.56559 0.0
O472 O 0.2886 0.72034 0.56989 0.0
C473 C 0.25781 0.78204 0.51861 0.0
C474 C 0.25543 0.7651 0.59158 0.0
O475 O 0.31702 0.82413 0.51118 0.0
O476 O 0.34012 0.79815 0.51958 0.0
C477 C 0.29762 0.71923 0.59013 0.0
O478 O 0.30202 0.73806 0.60049 0.0
O479 O 0.27049 0.77861 0.58326 0.0
C480 C 0.09527 0.26955 0.25001 0.0
C481 C 0.08432 0.28804 0.25952 0.0
C482 C 0.10803 0.27192 0.23041 0.0
C483 C 0.13547 0.31536 0.19403 0.0
H484 H 0.13873 0.26662 0.15162 0.0
C485 C 0.18409 0.32405 0.11013 0.0
C486 C 0.19904 0.30646 0.10586 0.0
C487 C 0.16762 0.32188 0.12684 0.0
C488 C 0.13804 0.28042 0.16329 0.0
H489 H 0.07817 0.32354 0.25554 0.0
H490 H 0.0997 0.32754 0.22137 0.0
H491 H 0.11581 0.2627 0.18507 0.0
H492 H 0.20788 0.2726 0.11503 0.0
H493 H 0.17894 0.26852 0.14335 0.0
H494 H 0.15768 0.33306 0.17211 0.0
C495 C 0.09902 0.31125 0.22921 0.0
C496 C 0.12497 0.27811 0.18265 0.0
C497 C 0.08648 0.30892 0.24887 0.0
C498 C 0.19635 0.28631 0.11768 0.0
C499 C 0.17976 0.284 0.13401 0.0
C500 C 0.14837 0.31773 0.17457 0.0
C501 C 0.11007 0.29282 0.2196 0.0
C502 C 0.12363 0.29546 0.19852 0.0
C503 C 0.16558 0.30196 0.13937 0.0
C504 C 0.15006 0.30021 0.15901 0.0
H505 H 0.09407 0.25324 0.25778 0.0
H506 H 0.11651 0.25733 0.22392 0.0
H507 H 0.13532 0.32903 0.20585 0.0
H508 H 0.18608 0.33994 0.10167 0.0
H509 H 0.15689 0.33601 0.13039 0.0
C510 C 0.33506 0.59968 0.7516 0.0
C511 C 0.31703 0.58665 0.75922 0.0
C512 C 0.33339 0.61202 0.73161 0.0
C513 C 0.29121 0.63487 0.69108 0.0
H514 H 0.34272 0.64179 0.6525 0.0
C515 C 0.28474 0.68249 0.60643 0.0
C516 C 0.30178 0.69821 0.60271 0.0
C517 C 0.28692 0.66634 0.62348 0.0
C518 C 0.32815 0.64012 0.66309 0.0
H519 H 0.28311 0.57638 0.75148 0.0
H520 H 0.28036 0.59736 0.71685 0.0
H521 H 0.34593 0.61981 0.6867 0.0
H522 H 0.33477 0.70872 0.61321 0.0
H523 H 0.33883 0.68054 0.64223 0.0
H524 H 0.27348 0.65531 0.66753 0.0
C525 C 0.2957 0.59852 0.72638 0.0
C526 C 0.33003 0.62755 0.68286 0.0
C527 C 0.29734 0.58631 0.74631 0.0
C528 C 0.32149 0.69659 0.61543 0.0
C529 C 0.32379 0.6804 0.63217 0.0
C530 C 0.28931 0.64737 0.67129 0.0
C531 C 0.31365 0.61165 0.71866 0.0
C532 C 0.31163 0.62485 0.6973 0.0
C533 C 0.30629 0.66546 0.63699 0.0
C534 C 0.3078 0.65037 0.65706 0.0
H535 H 0.35045 0.60043 0.76111 0.0
H536 H 0.34752 0.62211 0.72651 0.0
H537 H 0.2767 0.63358 0.7018 0.0
H538 H 0.26916 0.68365 0.59727 0.0
H539 H 0.27316 0.65499 0.62652 0.0
C540 C 0.91735 0.77697 0.1101 0.0
C541 C 0.90239 0.7945 0.10554 0.0
C542 C 0.93398 0.77944 0.12664 0.0
C543 C 0.96425 0.82169 0.16153 0.0
H544 H 0.96778 0.77414 0.20533 0.0
C545 C 1.00917 0.83443 0.24711 0.0
C546 C 1.0199 0.81602 0.25707 0.0
C547 C 0.99608 0.83174 0.22773 0.0
C548 C 0.96742 0.78752 0.19315 0.0
H549 H 0.89373 0.82857 0.11405 0.0
H550 H 0.9229 0.83312 0.14206 0.0
H551 H 0.94473 0.76933 0.17216 0.0
H552 H 1.02548 0.78034 0.25399 0.0
H553 H 1.0035 0.77578 0.22021 0.0
H554 H 0.98699 0.83989 0.18235 0.0
C555 C 0.92195 0.81745 0.13309 0.0
C556 C 0.9541 0.7847 0.17401 0.0
C557 C 0.9052 0.81484 0.11696 0.0
C558 C 1.01733 0.79492 0.24699 0.0
C559 C 1.0045 0.79227 0.22756 0.0
C560 C 0.97776 0.82444 0.18056 0.0
C561 C 0.9362 0.79961 0.13869 0.0
C562 C 0.9521 0.80183 0.15802 0.0
C563 C 0.99351 0.81057 0.21758 0.0
C564 C 0.97944 0.80749 0.19686 0.0
H565 H 0.91532 0.76096 0.10193 0.0
H566 H 0.94475 0.76538 0.13039 0.0
H567 H 0.96333 0.8352 0.14951 0.0
H568 H 1.01072 0.85092 0.25438 0.0
H569 H 0.98772 0.84627 0.22093 0.0
C570 C 0.80144 0.51293 0.74847 0.0
C571 C 0.7809 0.51394 0.75989 0.0
C572 C 0.80361 0.5008 0.72857 0.0
C573 C 0.77005 0.47377 0.68286 0.0
H574 H 0.82624 0.44423 0.66989 0.0
C575 C 0.77968 0.40388 0.61651 0.0
C576 C 0.79946 0.40257 0.6039 0.0
C577 C 0.77708 0.42004 0.6332 0.0
C578 C 0.81054 0.45266 0.67303 0.0
H579 H 0.74653 0.50261 0.75919 0.0
H580 H 0.75041 0.48083 0.72491 0.0
H581 H 0.82232 0.46585 0.70408 0.0
H582 H 0.83195 0.41751 0.59869 0.0
H583 H 0.82752 0.44594 0.62805 0.0
H584 H 0.75813 0.45982 0.65206 0.0
C585 C 0.76482 0.4899 0.73101 0.0
C586 C 0.80823 0.46513 0.69275 0.0
C587 C 0.76259 0.50227 0.75087 0.0
C588 C 0.81633 0.41843 0.60778 0.0
C589 C 0.81389 0.43447 0.62484 0.0
C590 C 0.77231 0.4611 0.66324 0.0
C591 C 0.78538 0.48899 0.71945 0.0
C592 C 0.7879 0.47584 0.69812 0.0
C593 C 0.7944 0.43515 0.63813 0.0
C594 C 0.79255 0.45024 0.65808 0.0
H595 H 0.81591 0.52183 0.75474 0.0
H596 H 0.81962 0.50103 0.72015 0.0
H597 H 0.75427 0.48205 0.68595 0.0
H598 H 0.76655 0.39162 0.61417 0.0
H599 H 0.76195 0.41982 0.64313 0.0
C600 C 0.08919 0.7983 0.85148 0.0
C601 C 0.08858 0.81778 0.83827 0.0
C602 C 0.10248 0.79717 0.87078 0.0
C603 C 0.15245 0.82204 0.8974 0.0
H604 H 0.1298 0.7942 0.95135 0.0
C605 C 0.20788 0.8182 0.9761 0.0
C606 C 0.20729 0.7987 0.98917 0.0
C607 C 0.19147 0.82239 0.95991 0.0
C608 C 0.13658 0.80182 0.93641 0.0
H609 H 0.10178 0.85136 0.8351 0.0
H610 H 0.12528 0.84928 0.86859 0.0
H611 H 0.10571 0.7975 0.91857 0.0
H612 H 0.1887 0.76843 0.99576 0.0
H613 H 0.16019 0.77535 0.96726 0.0
H614 H 0.18349 0.82571 0.91467 0.0
C615 C 0.11535 0.83485 0.86403 0.0
C616 C 0.12267 0.80377 0.91755 0.0
C617 C 0.1018 0.83609 0.84485 0.0
C618 C 0.18925 0.78393 0.9864 0.0
C619 C 0.17297 0.78789 0.96985 0.0
C620 C 0.16642 0.81988 0.91612 0.0
C621 C 0.11582 0.81539 0.87735 0.0
C622 C 0.13041 0.81387 0.89774 0.0
C623 C 0.17424 0.80685 0.95577 0.0
C624 C 0.15879 0.80973 0.93602 0.0
H625 H 0.07922 0.78386 0.84703 0.0
H626 H 0.10257 0.78182 0.88038 0.0
H627 H 0.15916 0.82959 0.88238 0.0
H628 H 0.22175 0.82976 0.97766 0.0
H629 H 0.19284 0.83752 0.95008 0.0
C630 C 0.76399 0.59785 0.34831 0.0
C631 C 0.78256 0.58797 0.33781 0.0
C632 C 0.76658 0.61051 0.36792 0.0
C633 C 0.80585 0.62049 0.41554 0.0
H634 H 0.77151 0.67481 0.42313 0.0
C635 C 0.82399 0.6858 0.4861 0.0
C636 C 0.80614 0.69887 0.49394 0.0
C637 C 0.82066 0.67014 0.46885 0.0
C638 C 0.781 0.65948 0.42162 0.0
H639 H 0.81853 0.58392 0.33987 0.0
H640 H 0.82304 0.60594 0.37384 0.0
H641 H 0.76664 0.65256 0.38956 0.0
H642 H 0.77076 0.70526 0.49044 0.0
H643 H 0.76461 0.6773 0.46151 0.0
H644 H 0.82024 0.62746 0.44764 0.0
C645 C 0.80639 0.60375 0.36709 0.0
C646 C 0.77821 0.64669 0.40218 0.0
C647 C 0.80381 0.59123 0.34742 0.0
C648 C 0.78474 0.69508 0.48507 0.0
C649 C 0.78134 0.67933 0.46809 0.0
C650 C 0.80856 0.63325 0.43508 0.0
C651 C 0.78782 0.61356 0.37772 0.0
C652 C 0.79062 0.62701 0.39876 0.0
C653 C 0.79938 0.66723 0.45901 0.0
C654 C 0.79618 0.653 0.43847 0.0
H655 H 0.74737 0.59571 0.34146 0.0
H656 H 0.75183 0.61758 0.37563 0.0
H657 H 0.81552 0.6053 0.41373 0.0
H658 H 0.84081 0.6889 0.49206 0.0
H659 H 0.83507 0.66137 0.46233 0.0
C660 C 1.00108 0.26889 0.8456 0.0
C661 C 1.0124 0.28724 0.83619 0.0
C662 C 0.98809 0.27139 0.86502 0.0
C663 C 0.9792 0.30903 0.91417 0.0
H664 H 0.9228 0.27763 0.91894 0.0
C665 C 0.91382 0.32615 0.98541 0.0
C666 C 0.89993 0.30838 0.992 0.0
C667 C 0.92933 0.32337 0.96786 0.0
C668 C 0.93868 0.28627 0.91821 0.0
H669 H 1.01869 0.32273 0.84006 0.0
H670 H 0.9961 0.32707 0.87366 0.0
H671 H 0.94555 0.27311 0.88566 0.0
H672 H 0.89217 0.27358 0.98612 0.0
H673 H 0.91969 0.26835 0.95671 0.0
H674 H 0.97227 0.32219 0.94681 0.0
C675 C 0.9974 0.31064 0.86621 0.0
C676 C 0.95177 0.28369 0.89894 0.0
C677 C 1.01025 0.30817 0.84673 0.0
C678 C 0.90279 0.28754 0.98159 0.0
C679 C 0.91835 0.28468 0.96437 0.0
C680 C 0.96612 0.31154 0.93356 0.0
C681 C 0.98612 0.2923 0.87573 0.0
C682 C 0.97226 0.295 0.89655 0.0
C683 C 0.9313 0.30273 0.95655 0.0
C684 C 0.94564 0.30014 0.93596 0.0
H685 H 1.00235 0.25251 0.83802 0.0
H686 H 0.97988 0.25678 0.87187 0.0
H687 H 0.99497 0.31785 0.91316 0.0
H688 H 0.91159 0.34256 0.99269 0.0
H689 H 0.93883 0.33776 0.96238 0.0
C690 C 0.33839 0.50249 0.34833 0.0
C691 C 0.32032 0.51487 0.33973 0.0
C692 C 0.33593 0.48945 0.36777 0.0
C693 C 0.29211 0.46401 0.40527 0.0
H694 H 0.3421 0.4565 0.44575 0.0
C695 C 0.28349 0.41416 0.48883 0.0
C696 C 0.30046 0.39834 0.49255 0.0
C697 C 0.28593 0.43062 0.47208 0.0
C698 C 0.32794 0.45835 0.43462 0.0
H699 H 0.28549 0.52324 0.34521 0.0
H700 H 0.28137 0.5012 0.37908 0.0
H701 H 0.34631 0.47984 0.41261 0.0
H702 H 0.33355 0.38795 0.48227 0.0
H703 H 0.33807 0.41673 0.45386 0.0
H704 H 0.27378 0.44252 0.42742 0.0
C705 C 0.29737 0.50099 0.37065 0.0
C706 C 0.3304 0.47169 0.41542 0.0
C707 C 0.29978 0.51384 0.35116 0.0
C708 C 0.32028 0.40009 0.48003 0.0
C709 C 0.32286 0.41663 0.46366 0.0
C710 C 0.28961 0.45082 0.42457 0.0
C711 C 0.31536 0.4885 0.37934 0.0
C712 C 0.3126 0.4746 0.40024 0.0
C713 C 0.30552 0.43178 0.45893 0.0
C714 C 0.30756 0.44757 0.43944 0.0
H715 H 0.35443 0.50275 0.33995 0.0
H716 H 0.35016 0.47986 0.37354 0.0
H717 H 0.27804 0.46538 0.39399 0.0
H718 H 0.26784 0.41298 0.49784 0.0
H719 H 0.27226 0.44209 0.46905 0.0
C720 C 0.2492 0.09821 0.30756 0.0
C721 C 0.25531 0.08836 0.28713 0.0
C722 C 0.22958 0.11099 0.30941 0.0
C723 C 0.1871 0.14132 0.27458 0.0
H724 H 0.1551 0.14488 0.33076 0.0
C725 C 0.12506 0.21237 0.2919 0.0
C726 C 0.10632 0.20925 0.30578 0.0
C727 C 0.14085 0.19549 0.28884 0.0
C728 C 0.16358 0.14388 0.31482 0.0
H729 H 0.24527 0.08416 0.25263 0.0
H730 H 0.21091 0.10575 0.2559 0.0
H731 H 0.1869 0.1196 0.32716 0.0
H732 H 0.08927 0.1853 0.32686 0.0
H733 H 0.11693 0.15526 0.32121 0.0
H734 H 0.16352 0.16507 0.26202 0.0
C735 C 0.22146 0.10415 0.2705 0.0
C736 C 0.18216 0.12958 0.31283 0.0
C737 C 0.24121 0.09158 0.26861 0.0
C738 C 0.10342 0.18825 0.31597 0.0
C739 C 0.11944 0.17114 0.3129 0.0
C740 C 0.16846 0.15539 0.2765 0.0
C741 C 0.2153 0.11418 0.29093 0.0
C742 C 0.19452 0.12836 0.29278 0.0
C743 C 0.13855 0.17463 0.29941 0.0
C744 C 0.15667 0.15735 0.29679 0.0
H745 H 0.25968 0.09619 0.32218 0.0
H746 H 0.22588 0.11869 0.32533 0.0
H747 H 0.19605 0.14119 0.25888 0.0
H748 H 0.12793 0.22825 0.28366 0.0
H749 H 0.15535 0.19921 0.27868 0.0
C750 C 0.49907 0.7548 0.7715 0.0
C751 C 0.50856 0.76628 0.78968 0.0
C752 C 0.4848 0.73645 0.77494 0.0
C753 C 0.46727 0.69418 0.81795 0.0
H754 H 0.4161 0.68709 0.77895 0.0
C755 C 0.40503 0.61762 0.82262 0.0
C756 C 0.3823 0.62281 0.81935 0.0
C757 C 0.4217 0.63408 0.81935 0.0
C758 C 0.43024 0.68879 0.79012 0.0
H759 H 0.51017 0.76735 0.82584 0.0
H760 H 0.48512 0.73571 0.83182 0.0
H761 H 0.44188 0.71784 0.7728 0.0
H762 H 0.35948 0.64982 0.811 0.0
H763 H 0.38794 0.6779 0.8057 0.0
H764 H 0.45507 0.66532 0.83563 0.0
C765 C 0.48897 0.7406 0.81484 0.0
C766 C 0.44527 0.70638 0.78639 0.0
C767 C 0.50323 0.75896 0.8114 0.0
C768 C 0.37674 0.64492 0.81341 0.0
C769 C 0.39319 0.66116 0.81018 0.0
C770 C 0.45218 0.67648 0.82167 0.0
C771 C 0.47953 0.72899 0.79667 0.0
C772 C 0.46394 0.70956 0.80035 0.0
C773 C 0.41597 0.65602 0.81268 0.0
C774 C 0.43324 0.67371 0.80799 0.0
H775 H 0.50281 0.75985 0.75453 0.0
H776 H 0.47816 0.7279 0.76046 0.0
H777 H 0.48158 0.69578 0.82891 0.0
H778 H 0.40996 0.60081 0.82719 0.0
H779 H 0.43907 0.62946 0.82147 0.0
C780 C 0.98824 0.90077 0.28433 0.0
C781 C 0.99999 0.898 0.30449 0.0
C782 C 0.97167 0.91714 0.28211 0.0
C783 C 0.93027 0.94763 0.31558 0.0
H784 H 0.92068 0.98119 0.26099 0.0
C785 C 0.85515 1.00872 0.30596 0.0
C786 C 0.84511 1.01115 0.28482 0.0
C787 C 0.87494 0.99639 0.30864 0.0
C788 C 0.92283 0.97175 0.27627 0.0
H789 H 1.00372 0.91055 0.33813 0.0
H790 H 0.97449 0.93932 0.33438 0.0
H791 H 0.95426 0.95849 0.26519 0.0
H792 H 0.84815 1.00217 0.24993 0.0
H793 H 0.88212 0.98009 0.25463 0.0
H794 H 0.89857 0.96017 0.32643 0.0
C795 C 0.97833 0.92884 0.32016 0.0
C796 C 0.94227 0.95881 0.27874 0.0
C797 C 0.99531 0.91261 0.32224 0.0
C798 C 0.85537 1.00072 0.26646 0.0
C799 C 0.87507 0.98818 0.26917 0.0
C800 C 0.91071 0.9604 0.31304 0.0
C801 C 0.96597 0.93101 0.30017 0.0
C802 C 0.94622 0.94641 0.29836 0.0
C803 C 0.8853 0.98587 0.29031 0.0
C804 C 0.90653 0.97257 0.29326 0.0
H805 H 0.99123 0.88952 0.27047 0.0
H806 H 0.96245 0.91807 0.26656 0.0
H807 H 0.93251 0.93805 0.33077 0.0
H808 H 0.84789 1.01664 0.3205 0.0
H809 H 0.8823 0.99548 0.32514 0.0
C810 C 0.69717 0.48192 0.78901 0.0
C811 C 0.69975 0.49349 0.80927 0.0
C812 C 0.68084 0.46534 0.78656 0.0
C813 C 0.65003 0.42375 0.81976 0.0
H814 H 0.61774 0.41372 0.76453 0.0
C815 C 0.58899 0.34873 0.80934 0.0
C816 C 0.58715 0.33849 0.78826 0.0
C817 C 0.60137 0.36846 0.81215 0.0
C818 C 0.62683 0.41601 0.77999 0.0
H819 H 0.68691 0.49693 0.84283 0.0
H820 H 0.65817 0.46775 0.83866 0.0
H821 H 0.64013 0.44747 0.76901 0.0
H822 H 0.59736 0.34097 0.75366 0.0
H823 H 0.61949 0.37492 0.7586 0.0
H824 H 0.63737 0.39206 0.83055 0.0
C825 C 0.66877 0.4717 0.82454 0.0
C826 C 0.6396 0.43554 0.78262 0.0
C827 C 0.68498 0.48866 0.82687 0.0
C828 C 0.59832 0.3484 0.77011 0.0
C829 C 0.61089 0.36806 0.77295 0.0
C830 C 0.63741 0.40413 0.81707 0.0
C831 C 0.66683 0.45947 0.80448 0.0
C832 C 0.65154 0.43964 0.80247 0.0
C833 C 0.61252 0.37854 0.79401 0.0
C834 C 0.62571 0.3998 0.79707 0.0
H835 H 0.70856 0.485 0.77528 0.0
H836 H 0.68011 0.45623 0.77096 0.0
H837 H 0.65928 0.42609 0.83513 0.0
H838 H 0.5805 0.34173 0.82371 0.0
H839 H 0.60179 0.37602 0.82855 0.0
C840 C 0.25445 1.00326 0.79723 0.0
C841 C 0.26289 1.00787 0.8187 0.0
C842 C 0.23525 0.99016 0.79435 0.0
C843 C 0.19951 0.94819 0.82333 0.0
H844 H 0.15903 0.96 0.77405 0.0
C845 C 0.13848 0.88132 0.79231 0.0
C846 C 0.11672 0.88705 0.78531 0.0
C847 C 0.1543 0.89766 0.79739 0.0
C848 C 0.16996 0.9566 0.78807 0.0
H849 H 0.25753 1.0021 0.85401 0.0
H850 H 0.22387 0.97943 0.84906 0.0
H851 H 0.19016 0.98544 0.7813 0.0
H852 H 0.09478 0.9149 0.77806 0.0
H853 H 0.12277 0.94386 0.78696 0.0
H854 H 0.17927 0.91952 0.83025 0.0
C855 C 0.23229 0.98575 0.83434 0.0
C856 C 0.18807 0.97105 0.79207 0.0
C857 C 0.25161 0.99883 0.83723 0.0
C858 C 0.11133 0.90986 0.78338 0.0
C859 C 0.12741 0.92643 0.78844 0.0
C860 C 0.18144 0.93382 0.81936 0.0
C861 C 0.22375 0.98124 0.81283 0.0
C862 C 0.2034 0.96684 0.80953 0.0
C863 C 0.14909 0.92047 0.79573 0.0
C864 C 0.16666 0.93749 0.80137 0.0
H865 H 0.2627 1.00982 0.78252 0.0
H866 H 0.22963 0.98676 0.7775 0.0
H867 H 0.21085 0.94418 0.83684 0.0
H868 H 0.14351 0.86401 0.79398 0.0
H869 H 0.17086 0.89228 0.80237 0.0
C870 C 0.58855 0.74551 0.33693 0.0
C871 C 0.58433 0.75888 0.31805 0.0
C872 C 0.60074 0.72548 0.33507 0.0
C873 C 0.62281 0.68421 0.29253 0.0
H874 H 0.66081 0.66607 0.34164 0.0
C875 C 0.68023 0.60479 0.28696 0.0
C876 C 0.70178 0.60745 0.29598 0.0
C877 C 0.66347 0.62099 0.29099 0.0
C878 C 0.65043 0.67086 0.32762 0.0
H879 H 0.5901 0.76166 0.28243 0.0
H880 H 0.61188 0.72751 0.2793 0.0
H881 H 0.63773 0.69912 0.34535 0.0
H882 H 0.72214 0.62869 0.31715 0.0
H883 H 0.69371 0.65641 0.32379 0.0
H884 H 0.63658 0.65651 0.2744 0.0
C885 C 0.60524 0.73192 0.29552 0.0
C886 C 0.6368 0.68982 0.32989 0.0
C887 C 0.59286 0.75177 0.29734 0.0
C888 C 0.70579 0.62603 0.30981 0.0
C889 C 0.68926 0.64199 0.31383 0.0
C890 C 0.63665 0.66533 0.29017 0.0
C891 C 0.60935 0.71829 0.31431 0.0
C892 C 0.62296 0.6971 0.31228 0.0
C893 C 0.66787 0.64006 0.30428 0.0
C894 C 0.65104 0.65856 0.30754 0.0
H895 H 0.58218 0.75036 0.35314 0.0
H896 H 0.60312 0.7155 0.34997 0.0
H897 H 0.6121 0.68876 0.27868 0.0
H898 H 0.67659 0.59079 0.27611 0.0
H899 H 0.64717 0.61869 0.28348 0.0
C900 C 0.85339 0.08909 0.79226 0.0
C901 C 0.84425 0.08688 0.81379 0.0
C902 C 0.87256 0.102 0.78852 0.0
C903 C 0.92094 0.13018 0.8168 0.0
H904 H 0.922 0.1646 0.76195 0.0
C905 C 0.99645 0.18799 0.79029 0.0
C906 C 0.98997 0.20912 0.78222 0.0
C907 C 0.98031 0.17105 0.79378 0.0
C908 C 0.92206 0.15515 0.77739 0.0
H909 H 0.84852 0.09647 0.8484 0.0
H910 H 0.88174 0.11957 0.84182 0.0
H911 H 0.8906 0.14018 0.76964 0.0
H912 H 0.96155 0.22863 0.77088 0.0
H913 H 0.93406 0.1997 0.77675 0.0
H914 H 0.95222 0.14609 0.82476 0.0
C915 C 0.87424 0.11095 0.82781 0.0
C916 C 0.90405 0.14086 0.78173 0.0
C917 C 0.85504 0.09783 0.83159 0.0
C918 C 0.96726 0.21262 0.77715 0.0
C919 C 0.95138 0.19587 0.7804 0.0
C920 C 0.93906 0.14459 0.81243 0.0
C921 C 0.88321 0.11338 0.80614 0.0
C922 C 0.90302 0.12823 0.80157 0.0
C923 C 0.95749 0.17486 0.7889 0.0
C924 C 0.9397 0.15756 0.79278 0.0
H925 H 0.8458 0.08072 0.77814 0.0
H926 H 0.8791 0.10292 0.77169 0.0
H927 H 0.92098 0.12058 0.83213 0.0
H928 H 1.01375 0.18478 0.79454 0.0
H929 H 0.98566 0.15503 0.80027 0.0
C930 C 0.50845 0.34614 0.29306 0.0
C931 C 0.51611 0.33895 0.31412 0.0
C932 C 0.49558 0.36564 0.29085 0.0
C933 C 0.46037 0.40533 0.32398 0.0
H934 H 0.46333 0.44103 0.26995 0.0
C935 C 0.39075 0.46739 0.30168 0.0
C936 C 0.39536 0.48754 0.29037 0.0
C937 C 0.40734 0.45143 0.30539 0.0
C938 C 0.46246 0.43148 0.28529 0.0
H939 H 0.51623 0.34695 0.34937 0.0
H940 H 0.4943 0.38113 0.34556 0.0
H941 H 0.48869 0.40941 0.27484 0.0
H942 H 0.42158 0.50665 0.27438 0.0
H943 H 0.45104 0.47856 0.28109 0.0
H944 H 0.43454 0.42756 0.33467 0.0
C945 C 0.49781 0.3715 0.33068 0.0
C946 C 0.47683 0.41303 0.28799 0.0
C947 C 0.51054 0.35187 0.33291 0.0
C948 C 0.41742 0.49139 0.28319 0.0
C949 C 0.43424 0.47518 0.2869 0.0
C950 C 0.44617 0.42379 0.32135 0.0
C951 C 0.49004 0.37873 0.3096 0.0
C952 C 0.47576 0.39938 0.30722 0.0
C953 C 0.42937 0.4549 0.29807 0.0
C954 C 0.44658 0.4369 0.30177 0.0
H955 H 0.51231 0.33661 0.27819 0.0
H956 H 0.48965 0.3702 0.27437 0.0
H957 H 0.45872 0.39534 0.33897 0.0
H958 H 0.37405 0.46366 0.30758 0.0
H959 H 0.40261 0.436 0.31359 0.0
C960 C 0.26368 0.24946 0.09928 0.0
C961 C 0.28231 0.2594 0.08894 0.0
C962 C 0.26602 0.22982 0.11203 0.0
C963 C 0.30925 0.1941 0.14069 0.0
H964 H 0.26124 0.15064 0.14211 0.0
C965 C 0.31782 0.10992 0.18921 0.0
C966 C 0.29974 0.10509 0.2034 0.0
C967 C 0.31595 0.12679 0.17283 0.0
C968 C 0.27483 0.16261 0.14195 0.0
H969 H 0.31805 0.25615 0.08387 0.0
H970 H 0.32204 0.22191 0.1054 0.0
H971 H 0.25744 0.18418 0.11924 0.0
H972 H 0.26536 0.11343 0.21092 0.0
H973 H 0.26185 0.14203 0.18216 0.0
H974 H 0.32662 0.17238 0.16339 0.0
C975 C 0.30563 0.22944 0.10424 0.0
C976 C 0.27259 0.18202 0.1289 0.0
C977 C 0.30331 0.24914 0.09169 0.0
C978 C 0.27948 0.11653 0.20001 0.0
C979 C 0.27749 0.13301 0.18351 0.0
C980 C 0.31156 0.17459 0.15358 0.0
C981 C 0.28705 0.21939 0.11467 0.0
C982 C 0.28966 0.19826 0.12821 0.0
C983 C 0.29587 0.13892 0.1701 0.0
C984 C 0.29428 0.15865 0.15462 0.0
H985 H 0.24725 0.25689 0.0976 0.0
H986 H 0.25131 0.22297 0.12002 0.0
H987 H 0.32269 0.2062 0.14103 0.0
H988 H 0.33378 0.10176 0.19173 0.0
H989 H 0.33041 0.13075 0.1627 0.0
C990 C 0.29434 0.82721 0.98798 0.0
C991 C 0.28364 0.83066 1.00861 0.0
C992 C 0.2998 0.84542 0.97404 0.0
C993 C 0.30743 0.90782 0.97412 0.0
H994 H 0.29907 0.90185 0.9103 0.0
C995 C 0.314 0.98368 0.91154 0.0
C996 C 0.32255 0.97909 0.89015 0.0
C997 C 0.31013 0.96616 0.92695 0.0
C998 C 0.30185 0.90384 0.92806 0.0
H999 H 0.2706 0.85628 1.03068 0.0
H1000 H 0.27994 0.88762 1.00659 0.0
H1001 H 0.29131 0.87023 0.93463 0.0
H1002 H 0.33495 0.95255 0.86884 0.0
H1003 H 0.32892 0.92266 0.89543 0.0
H1004 H 0.31798 0.94152 0.96745 0.0
C1005 C 0.28437 0.87095 1.00114 0.0
C1006 C 0.29736 0.88556 0.94208 0.0
C1007 C 0.27884 0.85283 1.01496 0.0
C1008 C 0.32805 0.95679 0.88501 0.0
C1009 C 0.32437 0.93948 0.90029 0.0
C1010 C 0.31199 0.92614 0.96005 0.0
C1011 C 0.29485 0.86762 0.98038 0.0
C1012 C 0.30011 0.88717 0.96536 0.0
C1013 C 0.31481 0.94367 0.92132 0.0
C1014 C 0.3094 0.92444 0.93673 0.0
H1015 H 0.29831 0.81044 0.98248 0.0
H1016 H 0.30807 0.84208 0.95832 0.0
H1017 H 0.31001 0.90977 0.99191 0.0
H1018 H 0.30944 1.0006 0.91603 0.0
H1019 H 0.30273 0.97016 0.94294 0.0
C1020 C 0.61814 0.78725 0.39961 0.0
C1021 C 0.60655 0.80751 0.39687 0.0
C1022 C 0.63489 0.78497 0.41578 0.0
C1023 C 0.67668 0.81828 0.4462 0.0
H1024 H 0.68663 0.76303 0.4786 0.0
C1025 C 0.75186 0.80724 0.5071 0.0
C1026 C 0.76208 0.7861 0.50868 0.0
C1027 C 0.73212 0.81027 0.49477 0.0
C1028 C 0.68435 0.7785 0.46948 0.0
H1029 H 0.6032 0.84124 0.40934 0.0
H1030 H 0.6327 0.83736 0.43782 0.0
H1031 H 0.65279 0.76765 0.4564 0.0
H1032 H 0.75952 0.7516 0.49803 0.0
H1033 H 0.72551 0.75692 0.47609 0.0
H1034 H 0.70848 0.82896 0.45874 0.0
C1035 C 0.62866 0.82313 0.42741 0.0
C1036 C 0.66478 0.78121 0.45682 0.0
C1037 C 0.61154 0.8253 0.41134 0.0
C1038 C 0.75213 0.76811 0.49728 0.0
C1039 C 0.73243 0.77117 0.48482 0.0
C1040 C 0.69635 0.81553 0.45876 0.0
C1041 C 0.64088 0.80303 0.42953 0.0
C1042 C 0.66072 0.80105 0.44479 0.0
C1043 C 0.72198 0.79228 0.48348 0.0
C1044 C 0.70064 0.7955 0.47046 0.0
H1045 H 0.61488 0.77332 0.38852 0.0
H1046 H 0.64397 0.76933 0.41664 0.0
H1047 H 0.67436 0.83366 0.43691 0.0
H1048 H 0.7589 0.8215 0.51572 0.0
H1049 H 0.72458 0.82672 0.49452 0.0
C1050 C 0.79958 0.24819 1.01008 0.0
C1051 C 0.82037 0.25891 1.01283 0.0
C1052 C 0.79764 0.22861 0.99736 0.0
C1053 C 0.82561 0.19627 0.95253 0.0
H1054 H 0.78691 0.1481 0.97218 0.0
C1055 C 0.82076 0.11478 0.90173 0.0
C1056 C 0.79977 0.10463 0.89889 0.0
C1057 C 0.82399 0.13153 0.91771 0.0
C1058 C 0.79763 0.16143 0.96626 0.0
H1059 H 0.85546 0.25721 1.00412 0.0
H1060 H 0.8521 0.22314 0.98174 0.0
H1061 H 0.79116 0.18147 0.99527 0.0
H1062 H 0.76573 0.10386 0.91094 0.0
H1063 H 0.77115 0.1334 0.93881 0.0
H1064 H 0.83172 0.1767 0.92333 0.0
C1065 C 0.83721 0.22996 0.98943 0.0
C1066 C 0.8001 0.18063 0.97957 0.0
C1067 C 0.83918 0.2495 1.00234 0.0
C1068 C 0.78225 0.11094 0.91315 0.0
C1069 C 0.78539 0.12804 0.92904 0.0
C1070 C 0.82304 0.17718 0.93917 0.0
C1071 C 0.8164 0.21916 0.98681 0.0
C1072 C 0.81412 0.19837 0.9729 0.0
C1073 C 0.80616 0.13914 0.93105 0.0
C1074 C 0.80904 0.15936 0.94579 0.0
H1075 H 0.78467 0.25487 1.01786 0.0
H1076 H 0.78129 0.22105 0.99553 0.0
H1077 H 0.83623 0.20966 0.94656 0.0
H1078 H 0.83451 0.11044 0.89079 0.0
H1079 H 0.84041 0.13903 0.91905 0.0
C1080 C 0.35149 0.29117 0.50691 0.0
C1081 C 0.3437 0.31293 0.51125 0.0
C1082 C 0.37076 0.2876 0.49412 0.0
C1083 C 0.42203 0.3153 0.47139 0.0
H1084 H 0.42021 0.26612 0.42938 0.0
C1085 C 0.49736 0.29008 0.4126 0.0
C1086 C 0.49094 0.2868 0.39023 0.0
C1087 C 0.48099 0.29254 0.42946 0.0
C1088 C 0.4211 0.27991 0.44105 0.0
H1089 H 0.35039 0.34806 0.50547 0.0
H1090 H 0.3839 0.34182 0.48277 0.0
H1091 H 0.38852 0.27273 0.45383 0.0
H1092 H 0.46222 0.28297 0.36833 0.0
H1093 H 0.43438 0.28687 0.39717 0.0
H1094 H 0.45454 0.32275 0.45784 0.0
C1095 C 0.37521 0.32748 0.48959 0.0
C1096 C 0.40291 0.28362 0.45527 0.0
C1097 C 0.35586 0.33107 0.50247 0.0
C1098 C 0.46795 0.2855 0.3853 0.0
C1099 C 0.45183 0.28762 0.40195 0.0
C1100 C 0.44037 0.3115 0.45713 0.0
C1101 C 0.38289 0.30565 0.48511 0.0
C1102 C 0.40292 0.3015 0.47052 0.0
C1103 C 0.45797 0.29129 0.42427 0.0
C1104 C 0.43997 0.29396 0.44149 0.0
H1105 H 0.34273 0.27675 0.51349 0.0
H1106 H 0.37623 0.27056 0.49143 0.0
H1107 H 0.42283 0.32908 0.48306 0.0
H1108 H 0.51489 0.29131 0.41695 0.0
H1109 H 0.4863 0.2953 0.44652 0.0
C1110 C 0.83908 0.85229 0.0952 0.0
C1111 C 0.82056 0.84247 0.08457 0.0
C1112 C 0.83667 0.87205 0.1077 0.0
C1113 C 0.79305 0.90793 0.13524 0.0
H1114 H 0.84115 0.95122 0.13785 0.0
C1115 C 0.78332 0.99143 0.1839 0.0
C1116 C 0.80094 0.99593 0.19874 0.0
C1117 C 0.78571 0.97495 0.16728 0.0
C1118 C 0.82753 0.9393 0.13733 0.0
H1119 H 0.78499 0.84615 0.07855 0.0
H1120 H 0.78092 0.88056 0.09958 0.0
H1121 H 0.84538 0.91772 0.11505 0.0
H1122 H 0.83508 0.98748 0.20722 0.0
H1123 H 0.83953 0.95953 0.17801 0.0
H1124 H 0.77523 0.92959 0.15752 0.0
C1125 C 0.79726 0.87284 0.0989 0.0
C1126 C 0.83002 0.91993 0.12433 0.0
C1127 C 0.79964 0.85304 0.08664 0.0
C1128 C 0.82134 0.98465 0.19576 0.0
C1129 C 0.82386 0.96854 0.17902 0.0
C1130 C 0.7905 0.92738 0.14807 0.0
C1131 C 0.81569 0.88268 0.10976 0.0
C1132 C 0.8129 0.90376 0.12322 0.0
C1133 C 0.80587 0.96287 0.165 0.0
C1134 C 0.80779 0.94326 0.14951 0.0
H1135 H 0.85544 0.84464 0.09401 0.0
H1136 H 0.85126 0.87879 0.116 0.0
H1137 H 0.77957 0.89585 0.13528 0.0
H1138 H 0.76725 0.99946 0.18614 0.0
H1139 H 0.77155 0.97115 0.15667 0.0
C1140 C 0.6025 0.28731 0.68538 0.0
C1141 C 0.60554 0.29615 0.70692 0.0
C1142 C 0.61841 0.2915 0.66842 0.0
C1143 C 0.66772 0.32854 0.65472 0.0
H1144 H 0.68589 0.27968 0.61652 0.0
C1145 C 0.74099 0.33897 0.59173 0.0
C1146 C 0.75477 0.3204 0.58753 0.0
C1147 C 0.72124 0.33672 0.60424 0.0
C1148 C 0.68124 0.29351 0.62719 0.0
H1149 H 0.62713 0.31715 0.72709 0.0
H1150 H 0.65435 0.32414 0.69825 0.0
H1151 H 0.65392 0.27501 0.64135 0.0
H1152 H 0.7586 0.28491 0.59366 0.0
H1153 H 0.72484 0.28111 0.61604 0.0
H1154 H 0.69559 0.34666 0.64164 0.0
C1155 C 0.63985 0.31418 0.694 0.0
C1156 C 0.66254 0.29092 0.64122 0.0
C1157 C 0.62419 0.30997 0.71074 0.0
C1158 C 0.74838 0.29959 0.59644 0.0
C1159 C 0.72877 0.29736 0.60914 0.0
C1160 C 0.68648 0.33105 0.6409 0.0
C1161 C 0.63753 0.3048 0.67261 0.0
C1162 C 0.65572 0.30827 0.65556 0.0
C1163 C 0.71474 0.31586 0.6132 0.0
C1164 C 0.69382 0.31349 0.62709 0.0
H1165 H 0.58843 0.27647 0.68191 0.0
H1166 H 0.61587 0.28412 0.65212 0.0
H1167 H 0.66287 0.34253 0.6651 0.0
H1168 H 0.74528 0.35526 0.58507 0.0
H1169 H 0.71091 0.35138 0.60656 0.0
C1170 C 0.35196 0.80182 0.5957 0.0
C1171 C 0.34512 0.78115 0.58681 0.0
C1172 C 0.3718 0.80365 0.60812 0.0
C1173 C 0.41384 0.76908 0.63934 0.0
H1174 H 0.44748 0.82446 0.63946 0.0
C1175 C 0.47713 0.78917 0.70865 0.0
C1176 C 0.49586 0.80281 0.70462 0.0
C1177 C 0.46135 0.785 0.692 0.0
C1178 C 0.43856 0.80872 0.63941 0.0
H1179 H 0.35409 0.74618 0.58405 0.0
H1180 H 0.38883 0.7494 0.60506 0.0
H1181 H 0.41515 0.8205 0.61496 0.0
H1182 H 0.51304 0.82218 0.67939 0.0
H1183 H 0.48543 0.81457 0.64976 0.0
H1184 H 0.43748 0.75707 0.66332 0.0
C1185 C 0.37868 0.76423 0.60294 0.0
C1186 C 0.41966 0.80656 0.62557 0.0
C1187 C 0.35871 0.76236 0.5907 0.0
C1188 C 0.49893 0.81142 0.68298 0.0
C1189 C 0.48291 0.80728 0.66612 0.0
C1190 C 0.43279 0.77117 0.65298 0.0
C1191 C 0.38559 0.78491 0.61192 0.0
C1192 C 0.4067 0.78683 0.6256 0.0
C1193 C 0.46363 0.79428 0.67054 0.0
C1194 C 0.4452 0.7912 0.65367 0.0
H1195 H 0.3419 0.81665 0.59315 0.0
H1196 H 0.37609 0.8198 0.61504 0.0
H1197 H 0.40443 0.75365 0.64015 0.0
H1198 H 0.47418 0.78226 0.72513 0.0
H1199 H 0.44675 0.77525 0.69641 0.0
C1200 C 0.8808 0.79182 0.98245 0.0
C1201 C 0.85889 0.78467 0.97825 0.0
C1202 C 0.89832 0.78451 0.96878 0.0
C1203 C 0.90666 0.76403 0.91152 0.0
H1204 H 0.96824 0.75766 0.93061 0.0
C1205 C 0.97701 0.75922 0.84695 0.0
C1206 C 0.99313 0.77577 0.85082 0.0
C1207 C 0.96232 0.75297 0.86408 0.0
C1208 C 0.95107 0.75919 0.92507 0.0
H1209 H 0.83827 0.76274 0.95803 0.0
H1210 H 0.86872 0.7496 0.93475 0.0
H1211 H 0.93868 0.76106 0.95859 0.0
H1212 H 1.00791 0.79749 0.87573 0.0
H1213 H 0.98251 0.78671 0.90539 0.0
H1214 H 0.91901 0.7631 0.87809 0.0
C1215 C 0.8724 0.76148 0.94788 0.0
C1216 C 0.93419 0.76128 0.94106 0.0
C1217 C 0.85495 0.76904 0.96123 0.0
C1218 C 0.99546 0.78479 0.8723 0.0
C1219 C 0.98104 0.77843 0.88938 0.0
C1220 C 0.92349 0.76189 0.89558 0.0
C1221 C 0.89417 0.76967 0.95098 0.0
C1222 C 0.91187 0.76438 0.93443 0.0
C1223 C 0.96384 0.76302 0.88529 0.0
C1224 C 0.94594 0.76018 0.90216 0.0
H1225 H 0.88421 0.80374 0.99562 0.0
H1226 H 0.91489 0.79126 0.97154 0.0
H1227 H 0.88971 0.76671 0.90576 0.0
H1228 H 0.97499 0.75201 0.83049 0.0
H1229 H 0.94928 0.74093 0.86053 0.0
C1230 C 0.80008 0.38073 0.48889 0.0
C1231 C 0.79951 0.35938 0.47918 0.0
C1232 C 0.8069 0.39926 0.47628 0.0
C1233 C 0.83812 0.41486 0.42528 0.0
H1234 H 0.79804 0.46563 0.42304 0.0
C1235 C 0.83083 0.4737 0.34953 0.0
C1236 C 0.82264 0.49534 0.35298 0.0
C1237 C 0.83393 0.45933 0.36774 0.0
C1238 C 0.80983 0.45192 0.42379 0.0
H1239 H 0.80585 0.34067 0.44876 0.0
H1240 H 0.81759 0.37278 0.427 0.0
H1241 H 0.7917 0.43632 0.45037 0.0
H1242 H 0.81353 0.51995 0.37783 0.0
H1243 H 0.82003 0.49539 0.40963 0.0
H1244 H 0.85595 0.43018 0.3983 0.0
C1245 C 0.81299 0.37526 0.44432 0.0
C1246 C 0.8061 0.43507 0.43947 0.0
C1247 C 0.80598 0.35689 0.45676 0.0
C1248 C 0.81968 0.50318 0.37483 0.0
C1249 C 0.8232 0.48904 0.393 0.0
C1250 C 0.84199 0.43182 0.40968 0.0
C1251 C 0.81354 0.39662 0.4539 0.0
C1252 C 0.81979 0.41607 0.43991 0.0
C1253 C 0.82917 0.46658 0.38963 0.0
C1254 C 0.8275 0.45026 0.40832 0.0
H1255 H 0.79535 0.38311 0.50618 0.0
H1256 H 0.80716 0.4156 0.48404 0.0
H1257 H 0.84913 0.40048 0.4255 0.0
H1258 H 0.83303 0.46731 0.33275 0.0
H1259 H 0.83844 0.44212 0.36447 0.0
C1260 C 0.0969 0.31903 0.87674 0.0
C1261 C 0.10497 0.32409 0.85534 0.0
C1262 C 0.10993 0.32323 0.89555 0.0
C1263 C 0.16338 0.34858 0.91534 0.0
H1264 H 0.16454 0.296 0.95335 0.0
C1265 C 0.24124 0.31897 0.96177 0.0
C1266 C 0.2393 0.30962 0.98322 0.0
C1267 C 0.22232 0.32541 0.94988 0.0
C1268 C 0.16411 0.31104 0.94327 0.0
H1269 H 0.13216 0.33882 0.83665 0.0
H1270 H 0.15554 0.34549 0.86951 0.0
H1271 H 0.13554 0.29977 0.92527 0.0
H1272 H 0.21606 0.30028 1.00936 0.0
H1273 H 0.18261 0.31115 0.98817 0.0
H1274 H 0.19288 0.35909 0.93272 0.0
C1275 C 0.13893 0.33873 0.87191 0.0
C1276 C 0.14745 0.31327 0.92713 0.0
C1277 C 0.12562 0.33488 0.85305 0.0
C1278 C 0.218 0.30726 0.99277 0.0
C1279 C 0.19892 0.31351 0.9807 0.0
C1280 C 0.18015 0.34627 0.93144 0.0
C1281 C 0.13155 0.33212 0.89329 0.0
C1282 C 0.14723 0.33176 0.91255 0.0
C1283 C 0.20095 0.32254 0.95907 0.0
C1284 C 0.18104 0.32714 0.9451 0.0
H1285 H 0.08083 0.31093 0.87888 0.0
H1286 H 0.10348 0.31852 0.91178 0.0
H1287 H 0.16346 0.3632 0.90466 0.0
H1288 H 0.25744 0.32126 0.95401 0.0
H1289 H 0.22441 0.33196 0.93314 0.0
C1290 C 0.2666 0.62851 0.34556 0.0
C1291 C 0.28151 0.61098 0.34998 0.0
C1292 C 0.26143 0.64395 0.36236 0.0
C1293 C 0.26725 0.65545 0.42332 0.0
H1294 H 0.27998 0.71579 0.40351 0.0
C1295 C 0.29968 0.72489 0.48225 0.0
C1296 C 0.29354 0.74701 0.47749 0.0
C1297 C 0.29304 0.70756 0.46798 0.0
C1298 C 0.2759 0.69915 0.40938 0.0
H1299 H 0.30129 0.5946 0.37555 0.0
H1300 H 0.29232 0.62127 0.40468 0.0
H1301 H 0.27533 0.68636 0.37611 0.0
H1302 H 0.27422 0.76822 0.45525 0.0
H1303 H 0.26228 0.73817 0.4309 0.0
H1304 H 0.26856 0.66823 0.45671 0.0
C1305 C 0.28453 0.62329 0.38846 0.0
C1306 C 0.27315 0.68227 0.3936 0.0
C1307 C 0.28984 0.60811 0.3717 0.0
C1308 C 0.27976 0.75138 0.45899 0.0
C1309 C 0.27289 0.73414 0.44501 0.0
C1310 C 0.26992 0.6724 0.43916 0.0
C1311 C 0.27092 0.64182 0.38381 0.0
C1312 C 0.26939 0.66013 0.40039 0.0
C1313 C 0.2799 0.7121 0.44895 0.0
C1314 C 0.2748 0.69436 0.43237 0.0
H1315 H 0.25998 0.63101 0.3289 0.0
H1316 H 0.25075 0.65801 0.35838 0.0
H1317 H 0.26416 0.63854 0.42903 0.0
H1318 H 0.31013 0.7211 0.49654 0.0
H1319 H 0.29887 0.69077 0.47142 0.0
C1320 C 0.8803 0.30948 0.11611 0.0
C1321 C 0.85802 0.31523 0.12051 0.0
C1322 C 0.89745 0.31775 0.12975 0.0
C1323 C 0.90475 0.33811 0.18718 0.0
H1324 H 0.96581 0.34841 0.16818 0.0
C1325 C 0.97423 0.34528 0.25214 0.0
C1326 C 0.99121 0.3297 0.24797 0.0
C1327 C 0.9595 0.35139 0.23498 0.0
C1328 C 0.94877 0.34578 0.1737 0.0
H1329 H 0.83627 0.33573 0.14101 0.0
H1330 H 0.86602 0.35057 0.16418 0.0
H1331 H 0.93646 0.34352 0.14016 0.0
H1332 H 1.00756 0.30981 0.22254 0.0
H1333 H 0.98206 0.32029 0.19285 0.0
H1334 H 0.91705 0.33936 0.22061 0.0
C1335 C 0.87033 0.33902 0.15094 0.0
C1336 C 0.93201 0.34285 0.15767 0.0
C1337 C 0.85328 0.33049 0.13766 0.0
C1338 C 0.99442 0.32172 0.22619 0.0
C1339 C 0.97993 0.32793 0.2091 0.0
C1340 C 0.92144 0.34108 0.20314 0.0
C1341 C 0.89253 0.33218 0.14768 0.0
C1342 C 0.90993 0.33834 0.16426 0.0
C1343 C 0.96178 0.34214 0.21347 0.0
C1344 C 0.94375 0.34421 0.19661 0.0
H1345 H 0.88433 0.29789 0.10283 0.0
H1346 H 0.91438 0.31205 0.12685 0.0
H1347 H 0.888 0.33435 0.19291 0.0
H1348 H 0.97153 0.35168 0.26883 0.0
H1349 H 0.94576 0.36254 0.23876 0.0
C1350 C 0.29376 0.4984 0.72572 0.0
C1351 C 0.28676 0.49097 0.7468 0.0
C1352 C 0.28961 0.48565 0.70678 0.0
C1353 C 0.26043 0.43505 0.68539 0.0
H1354 H 0.31403 0.42995 0.64926 0.0
C1355 C 0.28483 0.35632 0.6377 0.0
C1356 C 0.29534 0.35812 0.6168 0.0
C1357 C 0.27932 0.37535 0.6498 0.0
C1358 C 0.29873 0.43153 0.65879 0.0
H1359 H 0.26885 0.46523 0.76477 0.0
H1360 H 0.26239 0.44208 0.73162 0.0
H1361 H 0.31205 0.45828 0.67807 0.0
H1362 H 0.30755 0.38119 0.5917 0.0
H1363 H 0.29834 0.41482 0.61331 0.0
H1364 H 0.24777 0.40727 0.66671 0.0
C1365 C 0.27062 0.45807 0.7296 0.0
C1366 C 0.29754 0.4478 0.67537 0.0
C1367 C 0.27439 0.47119 0.7486 0.0
C1368 C 0.29966 0.37938 0.60788 0.0
C1369 C 0.29436 0.39854 0.62019 0.0
C1370 C 0.26169 0.41865 0.66885 0.0
C1371 C 0.27887 0.46487 0.7086 0.0
C1372 C 0.2786 0.44942 0.68922 0.0
C1373 C 0.28433 0.39664 0.64136 0.0
C1374 C 0.28111 0.41638 0.65582 0.0
H1375 H 0.30299 0.51389 0.72393 0.0
H1376 H 0.29561 0.49169 0.69081 0.0
H1377 H 0.24548 0.43611 0.69552 0.0
H1378 H 0.28096 0.34015 0.64489 0.0
H1379 H 0.27192 0.37333 0.66618 0.0
C1380 C 0.22625 0.73662 0.12606 0.0
C1381 C 0.22075 0.75394 0.1112 0.0
C1382 C 0.21006 0.72761 0.14018 0.0
C1383 C 0.14959 0.73092 0.15601 0.0
H1384 H 0.17425 0.73509 0.2158 0.0
C1385 C 0.10511 0.77282 0.22759 0.0
C1386 C 0.10804 0.76567 0.24971 0.0
C1387 C 0.11565 0.76175 0.21013 0.0
C1388 C 0.16705 0.73316 0.19931 0.0
H1389 H 0.19385 0.77402 0.09778 0.0
H1390 H 0.16556 0.75893 0.12297 0.0
H1391 H 0.19922 0.73243 0.18411 0.0
H1392 H 0.12341 0.74078 0.27103 0.0
H1393 H 0.14269 0.72156 0.24021 0.0
H1394 H 0.11738 0.73342 0.17141 0.0
C1395 C 0.18223 0.75189 0.12353 0.0
C1396 C 0.1814 0.73163 0.18102 0.0
C1397 C 0.19842 0.76066 0.10912 0.0
C1398 C 0.12102 0.74662 0.25406 0.0
C1399 C 0.13196 0.73566 0.23649 0.0
C1400 C 0.13523 0.73252 0.17434 0.0
C1401 C 0.18815 0.73609 0.14001 0.0
C1402 C 0.17287 0.73164 0.15908 0.0
C1403 C 0.12962 0.74339 0.21438 0.0
C1404 C 0.14389 0.73485 0.19606 0.0
H1405 H 0.24338 0.73091 0.12765 0.0
H1406 H 0.21505 0.71504 0.15222 0.0
H1407 H 0.14248 0.73044 0.13938 0.0
H1408 H 0.095 0.78736 0.22376 0.0
H1409 H 0.1138 0.76841 0.19339 0.0
C1410 C 0.80435 0.60694 0.72583 0.0
C1411 C 0.81547 0.60859 0.7464 0.0
C1412 C 0.81089 0.62007 0.7078 0.0
C1413 C 0.83456 0.67448 0.69727 0.0
H1414 H 0.82917 0.65628 0.63532 0.0
C1415 C 0.83092 0.74057 0.62939 0.0
C1416 C 0.81336 0.73804 0.61406 0.0
C1417 C 0.83789 0.72263 0.64243 0.0
C1418 C 0.83075 0.66161 0.65253 0.0
H1419 H 0.8428 0.62432 0.76412 0.0
H1420 H 0.8542 0.64779 0.73241 0.0
H1421 H 0.83024 0.62795 0.66477 0.0
H1422 H 0.79025 0.71467 0.59907 0.0
H1423 H 0.80166 0.68321 0.62278 0.0
H1424 H 0.83381 0.70804 0.68543 0.0
C1425 C 0.8404 0.63627 0.73033 0.0
C1426 C 0.83147 0.64541 0.66936 0.0
C1427 C 0.83392 0.6229 0.74842 0.0
C1428 C 0.80375 0.71693 0.61091 0.0
C1429 C 0.81043 0.69896 0.62439 0.0
C1430 C 0.83378 0.69063 0.68052 0.0
C1431 C 0.82863 0.63526 0.70997 0.0
C1432 C 0.83267 0.65175 0.69195 0.0
C1433 C 0.82706 0.70188 0.64084 0.0
C1434 C 0.83122 0.68443 0.65799 0.0
H1435 H 0.79015 0.59589 0.72379 0.0
H1436 H 0.80125 0.61913 0.69251 0.0
H1437 H 0.83513 0.67993 0.71451 0.0
H1438 H 0.83894 0.75664 0.63172 0.0
H1439 H 0.85118 0.72529 0.65443 0.0
C1440 C 0.87835 1.00324 0.77605 0.0
C1441 C 0.85648 0.99538 0.77303 0.0
C1442 C 0.89657 0.98957 0.7713 0.0
C1443 C 0.91353 0.93399 0.7487 0.0
H1444 H 0.95407 0.93514 0.79932 0.0
C1445 C 0.9595 0.85679 0.78081 0.0
C1446 C 0.98144 0.85872 0.78899 0.0
C1447 C 0.9477 0.87561 0.77391 0.0
C1448 C 0.94327 0.93486 0.78479 0.0
H1449 H 0.83622 0.96788 0.76125 0.0
H1450 H 0.8681 0.94341 0.75366 0.0
H1451 H 0.92673 0.96471 0.79485 0.0
H1452 H 1.00846 0.88185 0.79587 0.0
H1453 H 0.98748 0.91512 0.78415 0.0
H1454 H 0.92949 0.90331 0.73947 0.0
C1455 C 0.8713 0.96033 0.7592 0.0
C1456 C 0.92756 0.95187 0.78215 0.0
C1457 C 0.85301 0.97427 0.76356 0.0
C1458 C 0.9915 0.87991 0.78982 0.0
C1459 C 0.97954 0.89889 0.78308 0.0
C1460 C 0.92923 0.91689 0.75141 0.0
C1461 C 0.89324 0.96752 0.76398 0.0
C1462 C 0.91208 0.95133 0.76443 0.0
C1463 C 0.95748 0.89688 0.77513 0.0
C1464 C 0.94379 0.91683 0.76987 0.0
H1465 H 0.88136 1.01963 0.78314 0.0
H1466 H 0.91323 0.99587 0.77456 0.0
H1467 H 0.90211 0.93327 0.73468 0.0
H1468 H 0.9513 0.84068 0.77973 0.0
H1469 H 0.93062 0.87355 0.76826 0.0
C1470 C 0.62891 0.34819 0.26282 0.0
C1471 C 0.60722 0.35115 0.27105 0.0
C1472 C 0.64261 0.36681 0.25912 0.0
C1473 C 0.6481 0.42354 0.28201 0.0
H1474 H 0.69979 0.42584 0.24313 0.0
C1475 C 0.71853 0.48926 0.29262 0.0
C1476 C 0.73983 0.47945 0.29383 0.0
C1477 C 0.70017 0.47671 0.28527 0.0
C1478 C 0.68531 0.42549 0.25398 0.0
H1479 H 0.58178 0.37539 0.27959 0.0
H1480 H 0.60512 0.40785 0.27199 0.0
H1481 H 0.67075 0.39791 0.23645 0.0
H1482 H 0.75866 0.44897 0.28789 0.0
H1483 H 0.72688 0.42735 0.27522 0.0
H1484 H 0.663 0.45064 0.29992 0.0
C1485 C 0.61205 0.39136 0.26926 0.0
C1486 C 0.66874 0.40946 0.25021 0.0
C1487 C 0.59861 0.37281 0.27341 0.0
C1488 C 0.74246 0.45704 0.28733 0.0
C1489 C 0.72429 0.44468 0.27976 0.0
C1490 C 0.66456 0.43963 0.28565 0.0
C1491 C 0.63459 0.38859 0.26331 0.0
C1492 C 0.65028 0.40783 0.26462 0.0
C1493 C 0.70296 0.45432 0.27867 0.0
C1494 C 0.68368 0.44026 0.27215 0.0
H1495 H 0.63588 0.33157 0.2611 0.0
H1496 H 0.65992 0.36401 0.25465 0.0
H1497 H 0.63435 0.42262 0.29373 0.0
H1498 H 0.71605 0.50655 0.29736 0.0
H1499 H 0.68383 0.4845 0.28462 0.0
C1500 C 0.22381 0.10129 0.7896 0.0
C1501 C 0.24543 0.10393 0.78088 0.0
C1502 C 0.20699 0.11648 0.78425 0.0
C1503 C 0.20242 0.17534 0.77124 0.0
H1504 H 0.13887 0.1626 0.76857 0.0
C1505 C 0.13941 0.24647 0.77576 0.0
C1506 C 0.12129 0.24345 0.79035 0.0
C1507 C 0.15242 0.22839 0.76918 0.0
C1508 C 0.15656 0.1664 0.76938 0.0
H1509 H 0.26614 0.12337 0.75848 0.0
H1510 H 0.23658 0.15017 0.74904 0.0
H1511 H 0.16587 0.13208 0.76499 0.0
H1512 H 0.10168 0.21911 0.80854 0.0
H1513 H 0.12519 0.18725 0.79781 0.0
H1514 H 0.19339 0.20933 0.77666 0.0
C1515 C 0.23273 0.13642 0.76018 0.0
C1516 C 0.172 0.14897 0.7672 0.0
C1517 C 0.2496 0.12108 0.76547 0.0
C1518 C 0.11572 0.22181 0.79744 0.0
C1519 C 0.12907 0.20362 0.79113 0.0
C1520 C 0.18706 0.19268 0.77349 0.0
C1521 C 0.21148 0.13469 0.77015 0.0
C1522 C 0.19509 0.15323 0.76856 0.0
C1523 C 0.14791 0.20685 0.77735 0.0
C1524 C 0.16394 0.18841 0.77297 0.0
H1525 H 0.22015 0.08809 0.80144 0.0
H1526 H 0.19091 0.11476 0.79239 0.0
H1527 H 0.22005 0.17916 0.77286 0.0
H1528 H 0.14368 0.26293 0.7695 0.0
H1529 H 0.16635 0.23139 0.75803 0.0
C1530 C 0.38215 0.61873 0.29038 0.0
C1531 C 0.36014 0.62265 0.28339 0.0
C1532 C 0.3995 0.63238 0.28255 0.0
C1533 C 0.40698 0.68946 0.26116 0.0
H1534 H 0.46879 0.67116 0.25491 0.0
C1535 C 0.47642 0.7551 0.25761 0.0
C1536 C 0.49237 0.75113 0.27431 0.0
C1537 C 0.46209 0.73784 0.25086 0.0
C1538 C 0.45155 0.67649 0.25639 0.0
H1539 H 0.33916 0.64222 0.26116 0.0
H1540 H 0.3693 0.66544 0.24714 0.0
H1541 H 0.4396 0.64278 0.2585 0.0
H1542 H 0.50729 0.72595 0.2957 0.0
H1543 H 0.48253 0.69613 0.28408 0.0
H1544 H 0.41889 0.72307 0.26013 0.0
C1545 C 0.37321 0.65258 0.25928 0.0
C1546 C 0.43488 0.66025 0.25858 0.0
C1547 C 0.35593 0.63927 0.26735 0.0
C1548 C 0.49494 0.72947 0.28292 0.0
C1549 C 0.4809 0.71229 0.27606 0.0
C1550 C 0.4236 0.70563 0.25896 0.0
C1551 C 0.39506 0.64986 0.26736 0.0
C1552 C 0.41249 0.6666 0.26171 0.0
C1553 C 0.46381 0.71643 0.26054 0.0
C1554 C 0.44614 0.69935 0.25735 0.0
H1555 H 0.38577 0.60585 0.3026 0.0
H1556 H 0.41616 0.62992 0.28921 0.0
H1557 H 0.38996 0.695 0.26383 0.0
H1558 H 0.47424 0.7717 0.25071 0.0
H1559 H 0.44912 0.74145 0.23875 0.0
C1560 C 0.8522 0.12562 0.33384 0.0
C1561 C 0.85633 0.10448 0.32471 0.0
C1562 C 0.86997 0.14041 0.3375 0.0
C1563 C 0.92563 0.15073 0.31359 0.0
H1564 H 0.92634 0.19987 0.35566 0.0
C1565 C 0.98848 0.22393 0.30638 0.0
C1566 C 0.97816 0.245 0.30705 0.0
C1567 C 0.97659 0.20478 0.31273 0.0
C1568 C 0.9264 0.18615 0.34388 0.0
H1569 H 0.88197 0.08113 0.31443 0.0
H1570 H 0.913 0.1064 0.32181 0.0
H1571 H 0.89991 0.16916 0.36096 0.0
H1572 H 0.94751 0.2626 0.31537 0.0
H1573 H 0.92696 0.22941 0.32623 0.0
H1574 H 0.95163 0.168 0.29617 0.0
C1575 C 0.89617 0.11205 0.32532 0.0
C1576 C 0.91124 0.16862 0.34688 0.0
C1577 C 0.87844 0.09752 0.32128 0.0
C1578 C 0.95594 0.2466 0.31449 0.0
C1579 C 0.94421 0.2276 0.32101 0.0
C1580 C 0.94084 0.16816 0.3107 0.0
C1581 C 0.89208 0.13407 0.33234 0.0
C1582 C 0.91026 0.151 0.33141 0.0
C1583 C 0.95433 0.20648 0.32011 0.0
C1584 C 0.94093 0.18635 0.32542 0.0
H1585 H 0.83522 0.13133 0.33645 0.0
H1586 H 0.86617 0.15728 0.34281 0.0
H1587 H 0.92514 0.13769 0.30108 0.0
H1588 H 1.00565 0.22223 0.30089 0.0
H1589 H 0.98478 0.18866 0.3119 0.0
C1590 C 0.47794 0.35632 0.83866 0.0
C1591 C 0.49783 0.35807 0.82646 0.0
C1592 C 0.46545 0.37554 0.84341 0.0
C1593 C 0.45626 0.43058 0.81813 0.0
H1594 H 0.41504 0.43813 0.86742 0.0
C1595 C 0.38552 0.49547 0.81365 0.0
C1596 C 0.36457 0.48589 0.81809 0.0
C1597 C 0.40512 0.4842 0.8198 0.0
C1598 C 0.42659 0.43632 0.85362 0.0
H1599 H 0.52161 0.38102 0.81163 0.0
H1600 H 0.50036 0.4145 0.82058 0.0
H1601 H 0.44411 0.40949 0.86966 0.0
H1602 H 0.34759 0.45792 0.83381 0.0
H1603 H 0.38145 0.43836 0.84421 0.0
H1604 H 0.43821 0.4566 0.80163 0.0
C1605 C 0.49387 0.39843 0.82582 0.0
C1606 C 0.44317 0.4199 0.85488 0.0
C1607 C 0.50608 0.37928 0.82079 0.0
C1608 C 0.36351 0.46557 0.82982 0.0
C1609 C 0.38296 0.45448 0.8361 0.0
C1610 C 0.43974 0.44697 0.81689 0.0
C1611 C 0.47291 0.39673 0.83623 0.0
C1612 C 0.45774 0.41638 0.83684 0.0
C1613 C 0.40399 0.46336 0.83073 0.0
C1614 C 0.42424 0.4495 0.83427 0.0
H1615 H 0.47128 0.34008 0.84313 0.0
H1616 H 0.44931 0.37361 0.85135 0.0
H1617 H 0.46696 0.42816 0.80375 0.0
H1618 H 0.38677 0.51122 0.80481 0.0
H1619 H 0.42114 0.4915 0.81557 0.0
C1620 C 0.22717 1.00184 0.33298 0.0
C1621 C 0.24971 0.99556 0.33431 0.0
C1622 C 0.21031 0.98601 0.33573 0.0
C1623 C 0.1985 0.9263 0.34953 0.0
H1624 H 0.15574 0.93239 0.30112 0.0
C1625 C 0.15111 0.85168 0.31242 0.0
C1626 C 0.12849 0.85427 0.30654 0.0
C1627 C 0.16374 0.86993 0.31944 0.0
C1628 C 0.16724 0.9306 0.31498 0.0
H1629 H 0.27251 0.96835 0.3411 0.0
H1630 H 0.24304 0.9403 0.34538 0.0
H1631 H 0.18171 0.96257 0.30882 0.0
H1632 H 0.10137 0.8781 0.30348 0.0
H1633 H 0.12369 0.91028 0.31551 0.0
H1634 H 0.18445 0.8938 0.35495 0.0
C1635 C 0.23827 0.95755 0.34268 0.0
C1636 C 0.18215 0.94795 0.31949 0.0
C1637 C 0.25519 0.97358 0.34031 0.0
C1638 C 0.1188 0.87562 0.30772 0.0
C1639 C 0.13155 0.894 0.31465 0.0
C1640 C 0.1836 0.90887 0.34494 0.0
C1641 C 0.21568 0.96342 0.33933 0.0
C1642 C 0.19823 0.9459 0.33658 0.0
C1643 C 0.15414 0.89129 0.32069 0.0
C1644 C 0.16812 0.91067 0.32732 0.0
H1645 H 0.2226 1.01877 0.32839 0.0
H1646 H 0.19309 0.99124 0.3337 0.0
H1647 H 0.21045 0.92427 0.36297 0.0
H1648 H 0.15912 0.83546 0.31178 0.0
H1649 H 0.18119 0.86735 0.32356 0.0
C1650 C 0.62545 0.75116 0.8362 0.0
C1651 C 0.60285 0.7481 0.83095 0.0
C1652 C 0.63922 0.7326 0.83976 0.0
C1653 C 0.64083 0.67296 0.82344 0.0
H1654 H 0.69754 0.67511 0.85453 0.0
C1655 C 0.71582 0.61913 0.79712 0.0
C1656 C 0.73217 0.61392 0.81299 0.0
C1657 C 0.69737 0.63214 0.80317 0.0
C1658 C 0.68158 0.67388 0.84608 0.0
H1659 H 0.57621 0.72389 0.82751 0.0
H1660 H 0.59977 0.69161 0.83526 0.0
H1661 H 0.67013 0.70422 0.86098 0.0
H1662 H 0.74189 0.61685 0.84765 0.0
H1663 H 0.70913 0.63833 0.85865 0.0
H1664 H 0.65205 0.64237 0.80893 0.0
C1665 C 0.60729 0.70806 0.83555 0.0
C1666 C 0.66596 0.69087 0.84954 0.0
C1667 C 0.5937 0.72654 0.83141 0.0
C1668 C 0.72932 0.62066 0.8352 0.0
C1669 C 0.7107 0.63322 0.84139 0.0
C1670 C 0.65628 0.65578 0.8203 0.0
C1671 C 0.63046 0.71074 0.83857 0.0
C1672 C 0.64564 0.69101 0.83775 0.0
C1673 C 0.69489 0.63986 0.8253 0.0
C1674 C 0.67715 0.65635 0.83103 0.0
H1675 H 0.63285 0.76768 0.83566 0.0
H1676 H 0.65697 0.73544 0.84185 0.0
H1677 H 0.62553 0.67251 0.81378 0.0
H1678 H 0.71799 0.61431 0.77982 0.0
H1679 H 0.68579 0.63713 0.7902 0.0
C1680 C 0.77725 0.96005 0.8503 0.0
C1681 C 0.79211 0.97777 0.85433 0.0
C1682 C 0.76984 0.94658 0.86775 0.0
C1683 C 0.76778 0.94083 0.92949 0.0
H1684 H 0.77115 0.87759 0.91568 0.0
C1685 C 0.78845 0.87319 0.99331 0.0
C1686 C 0.77991 0.8515 0.99073 0.0
C1687 C 0.78273 0.89002 0.97832 0.0
C1688 C 0.76951 0.89515 0.91975 0.0
H1689 H 0.80998 0.99613 0.87981 0.0
H1690 H 0.79775 0.97185 0.91051 0.0
H1691 H 0.77574 0.90484 0.88607 0.0
H1692 H 0.75756 0.83059 0.9715 0.0
H1693 H 0.74758 0.8602 0.94481 0.0
H1694 H 0.76264 0.9309 0.9635 0.0
C1695 C 0.79152 0.96863 0.89384 0.0
C1696 C 0.77224 0.91085 0.90275 0.0
C1697 C 0.7987 0.98241 0.87631 0.0
C1698 C 0.76436 0.84721 0.97375 0.0
C1699 C 0.75876 0.8641 0.95849 0.0
C1700 C 0.76511 0.92508 0.94656 0.0
C1701 C 0.77738 0.95025 0.88963 0.0
C1702 C 0.77196 0.93387 0.90749 0.0
C1703 C 0.76847 0.88549 0.96026 0.0
C1704 C 0.76657 0.90207 0.94194 0.0
H1705 H 0.77134 0.95648 0.83357 0.0
H1706 H 0.75848 0.93299 0.86399 0.0
H1707 H 0.76707 0.95844 0.93361 0.0
H1708 H 0.80037 0.87694 1.00642 0.0
H1709 H 0.7907 0.90618 0.98005 0.0
C1710 C 0.76516 0.24912 0.12374 0.0
C1711 C 0.78147 0.24577 0.10728 0.0
C1712 C 0.75995 0.23186 0.13871 0.0
C1713 C 0.76859 0.17115 0.1503 0.0
H1714 H 0.77509 0.19106 0.2115 0.0
C1715 C 0.79991 0.11421 0.22203 0.0
C1716 C 0.79201 0.11856 0.24362 0.0
C1717 C 0.79326 0.12785 0.20416 0.0
C1718 C 0.77274 0.18512 0.19458 0.0
H1719 H 0.80384 0.22157 0.09227 0.0
H1720 H 0.79486 0.19169 0.11818 0.0
H1721 H 0.77113 0.21846 0.18193 0.0
H1722 H 0.76946 0.13902 0.26328 0.0
H1723 H 0.75747 0.16222 0.23225 0.0
H1724 H 0.77101 0.13773 0.16302 0.0
C1725 C 0.78599 0.2074 0.11969 0.0
C1726 C 0.7704 0.20091 0.1776 0.0
C1727 C 0.7913 0.22461 0.10496 0.0
C1728 C 0.77634 0.13572 0.24687 0.0
C1729 C 0.76945 0.14903 0.22909 0.0
C1730 C 0.77087 0.1553 0.16735 0.0
C1731 C 0.77083 0.21103 0.13719 0.0
C1732 C 0.7689 0.19414 0.15523 0.0
C1733 C 0.77835 0.14576 0.20765 0.0
C1734 C 0.7735 0.16215 0.18963 0.0
H1735 H 0.75734 0.26531 0.12578 0.0
H1736 H 0.74805 0.23505 0.15195 0.0
H1737 H 0.76725 0.16545 0.1332 0.0
H1738 H 0.81187 0.10093 0.21913 0.0
H1739 H 0.80053 0.12494 0.18787 0.0
C1740 C 0.45769 0.27962 0.75094 0.0
C1741 C 0.47685 0.29255 0.74678 0.0
C1742 C 0.4443 0.27227 0.73344 0.0
C1743 C 0.44107 0.26603 0.6718 0.0
H1744 H 0.37759 0.27346 0.68271 0.0
C1745 C 0.37589 0.28236 0.60376 0.0
C1746 C 0.35386 0.27488 0.60674 0.0
C1747 C 0.39222 0.27771 0.61968 0.0
C1748 C 0.3952 0.27072 0.67949 0.0
H1749 H 0.49765 0.30709 0.72103 0.0
H1750 H 0.47355 0.29502 0.69013 0.0
H1751 H 0.40392 0.27956 0.71283 0.0
H1752 H 0.33182 0.25528 0.62769 0.0
H1753 H 0.36052 0.24714 0.65588 0.0
H1754 H 0.43213 0.25822 0.63802 0.0
C1755 C 0.46914 0.29023 0.707 0.0
C1756 C 0.41037 0.2743 0.69679 0.0
C1757 C 0.48284 0.29732 0.72464 0.0
C1758 C 0.34872 0.26123 0.62509 0.0
C1759 C 0.36509 0.25671 0.64121 0.0
C1760 C 0.42583 0.26253 0.65441 0.0
C1761 C 0.44947 0.27797 0.71129 0.0
C1762 C 0.43352 0.27238 0.69309 0.0
C1763 C 0.38679 0.26561 0.63903 0.0
C1764 C 0.40275 0.26529 0.658 0.0
H1765 H 0.45299 0.27509 0.76783 0.0
H1766 H 0.42968 0.26232 0.73733 0.0
H1767 H 0.45876 0.26405 0.66849 0.0
H1768 H 0.38027 0.29283 0.58965 0.0
H1769 H 0.40866 0.28498 0.61756 0.0
C1770 C 0.25691 0.85423 0.13048 0.0
C1771 C 0.27523 0.84607 0.11838 0.0
C1772 C 0.25967 0.87182 0.14545 0.0
C1773 C 0.29566 0.91912 0.16002 0.0
H1774 H 0.27077 0.9107 0.21923 0.0
C1775 C 0.29104 0.98717 0.23007 0.0
C1776 C 0.2978 0.97954 0.25122 0.0
C1777 C 0.28915 0.97213 0.21225 0.0
C1778 C 0.27779 0.91327 0.20275 0.0
H1779 H 0.31067 0.84993 0.11197 0.0
H1780 H 0.31554 0.88087 0.13832 0.0
H1781 H 0.26562 0.88184 0.19107 0.0
H1782 H 0.30907 0.95056 0.27003 0.0
H1783 H 0.30567 0.92461 0.23918 0.0
H1784 H 0.30801 0.95061 0.17201 0.0
C1785 C 0.29906 0.87368 0.13612 0.0
C1786 C 0.27471 0.89685 0.18662 0.0
C1787 C 0.29633 0.85591 0.12125 0.0
C1788 C 0.30348 0.95693 0.25404 0.0
C1789 C 0.30152 0.94202 0.23639 0.0
C1790 C 0.29857 0.93573 0.17618 0.0
C1791 C 0.28077 0.88166 0.14845 0.0
C1792 C 0.28374 0.89953 0.16517 0.0
C1793 C 0.2939 0.94935 0.2155 0.0
C1794 C 0.28987 0.93276 0.19775 0.0
H1795 H 0.24044 0.84697 0.12844 0.0
H1796 H 0.24527 0.87779 0.15465 0.0
H1797 H 0.30264 0.92159 0.14351 0.0
H1798 H 0.28671 1.00455 0.22743 0.0
H1799 H 0.28325 0.97811 0.19622 0.0
C1800 C 0.72262 0.81006 0.59767 0.0
C1801 C 0.74425 0.81597 0.60451 0.0
C1802 C 0.70447 0.81301 0.61194 0.0
C1803 C 0.68701 0.8371 0.66674 0.0
H1804 H 0.64864 0.7848 0.66826 0.0
C1805 C 0.64161 0.80749 0.74526 0.0
C1806 C 0.61926 0.80041 0.74366 0.0
C1807 C 0.65375 0.81285 0.72618 0.0
C1808 C 0.6589 0.79972 0.66777 0.0
H1809 H 0.76394 0.83071 0.63097 0.0
H1810 H 0.73233 0.83519 0.65645 0.0
H1811 H 0.6759 0.78887 0.63844 0.0
H1812 H 0.59205 0.79346 0.72079 0.0
H1813 H 0.61374 0.80225 0.68703 0.0
H1814 H 0.6707 0.84714 0.69695 0.0
C1815 C 0.72919 0.82874 0.63986 0.0
C1816 C 0.67454 0.80214 0.65065 0.0
C1817 C 0.74734 0.82614 0.62534 0.0
C1818 C 0.60929 0.79874 0.72248 0.0
C1819 C 0.62164 0.80381 0.70324 0.0
C1820 C 0.6715 0.83455 0.68399 0.0
C1821 C 0.70764 0.8215 0.63358 0.0
C1822 C 0.68916 0.8206 0.65018 0.0
C1823 C 0.64395 0.81105 0.70499 0.0
C1824 C 0.6577 0.81556 0.68495 0.0
H1825 H 0.71982 0.8024 0.58152 0.0
H1826 H 0.68806 0.80784 0.60629 0.0
H1827 H 0.69767 0.85173 0.66667 0.0
H1828 H 0.64978 0.80914 0.76132 0.0
H1829 H 0.67102 0.81802 0.728 0.0
C1830 C 0.33752 0.24685 0.9811 0.0
C1831 C 0.31985 0.24484 0.99635 0.0
C1832 C 0.34311 0.2288 0.96726 0.0
C1833 C 0.33011 0.16824 0.95665 0.0
H1834 H 0.33098 0.18685 0.89468 0.0
C1835 C 0.31386 0.10751 0.88213 0.0
C1836 C 0.29972 0.11641 0.86561 0.0
C1837 C 0.3221 0.12124 0.89921 0.0
C1838 C 0.33081 0.18135 0.91193 0.0
H1839 H 0.29535 0.22214 1.01045 0.0
H1840 H 0.30465 0.19118 0.98637 0.0
H1841 H 0.33715 0.21435 0.92379 0.0
H1842 H 0.28205 0.14613 0.85471 0.0
H1843 H 0.29572 0.16969 0.88462 0.0
H1844 H 0.32191 0.13553 0.94467 0.0
C1845 C 0.3145 0.2063 0.98499 0.0
C1846 C 0.33473 0.19708 0.92864 0.0
C1847 C 0.30893 0.22422 0.99865 0.0
C1848 C 0.29311 0.13885 0.86707 0.0
C1849 C 0.3012 0.15244 0.88407 0.0
C1850 C 0.32597 0.15252 0.9399 0.0
C1851 C 0.33116 0.20853 0.96862 0.0
C1852 C 0.33332 0.19094 0.95124 0.0
C1853 C 0.31625 0.14401 0.89999 0.0
C1854 C 0.32518 0.15919 0.91743 0.0
H1855 H 0.34626 0.26259 0.97915 0.0
H1856 H 0.3562 0.23098 0.95495 0.0
H1857 H 0.32944 0.16286 0.97391 0.0
H1858 H 0.3193 0.09026 0.88133 0.0
H1859 H 0.33356 0.11424 0.91136 0.0
C1860 C 0.37792 0.82443 0.50398 0.0
C1861 C 0.35584 0.82767 0.4968 0.0
C1862 C 0.39574 0.82888 0.48969 0.0
C1863 C 0.41127 0.85105 0.43348 0.0
H1864 H 0.45169 0.8003 0.43413 0.0
C1865 C 0.45749 0.82002 0.35586 0.0
C1866 C 0.47948 0.81199 0.35784 0.0
C1867 C 0.44545 0.82641 0.37468 0.0
C1868 C 0.44091 0.81485 0.43397 0.0
H1869 H 0.33485 0.8395 0.46987 0.0
H1870 H 0.36601 0.84662 0.44435 0.0
H1871 H 0.42485 0.80485 0.46411 0.0
H1872 H 0.5063 0.80478 0.3811 0.0
H1873 H 0.48496 0.81565 0.41433 0.0
H1874 H 0.42679 0.86029 0.40258 0.0
C1875 C 0.36969 0.84114 0.4612 0.0
C1876 C 0.42548 0.81753 0.45121 0.0
C1877 C 0.35181 0.83708 0.47575 0.0
C1878 C 0.48932 0.81072 0.3791 0.0
C1879 C 0.47714 0.81698 0.39807 0.0
C1880 C 0.42668 0.84829 0.41615 0.0
C1881 C 0.39179 0.8361 0.4677 0.0
C1882 C 0.41012 0.83537 0.45094 0.0
C1883 C 0.45505 0.82484 0.39601 0.0
C1884 C 0.44125 0.82983 0.41594 0.0
H1885 H 0.38136 0.81733 0.52028 0.0
H1886 H 0.41255 0.82545 0.49547 0.0
H1887 H 0.39992 0.86514 0.43293 0.0
H1888 H 0.44944 0.82138 0.3397 0.0
H1889 H 0.42836 0.83201 0.37256 0.0
C1890 C 0.64301 0.2738 0.34912 0.0
C1891 C 0.62424 0.28743 0.3527 0.0
C1892 C 0.65598 0.26651 0.36699 0.0
C1893 C 0.65832 0.26192 0.42883 0.0
H1894 H 0.72204 0.26833 0.4187 0.0
C1895 C 0.72211 0.28151 0.49697 0.0
C1896 C 0.7443 0.27431 0.49464 0.0
C1897 C 0.70607 0.27572 0.48115 0.0
C1898 C 0.70436 0.26584 0.42173 0.0
H1899 H 0.60364 0.3033 0.37779 0.0
H1900 H 0.62698 0.2913 0.40928 0.0
H1901 H 0.69629 0.27349 0.38791 0.0
H1902 H 0.76691 0.25395 0.47513 0.0
H1903 H 0.73872 0.24375 0.44715 0.0
H1904 H 0.66659 0.25533 0.46304 0.0
C1905 C 0.63142 0.28593 0.3926 0.0
C1906 C 0.68952 0.2689 0.40404 0.0
C1907 C 0.61817 0.29299 0.37462 0.0
C1908 C 0.74988 0.25971 0.47721 0.0
C1909 C 0.73379 0.25402 0.46119 0.0
C1910 C 0.67322 0.25892 0.44659 0.0
C1911 C 0.65073 0.27294 0.3889 0.0
C1912 C 0.6663 0.26746 0.40745 0.0
C1913 C 0.71195 0.26272 0.46256 0.0
C1914 C 0.69638 0.2614 0.44332 0.0
H1915 H 0.64775 0.26869 0.33243 0.0
H1916 H 0.67034 0.25604 0.36358 0.0
H1917 H 0.64055 0.26032 0.43191 0.0
H1918 H 0.71739 0.29269 0.51038 0.0
H1919 H 0.6895 0.28286 0.48264 0.0
C1920 C 0.2312 0.2995 0.48746 0.0
C1921 C 0.24353 0.31936 0.48725 0.0
C1922 C 0.21649 0.29484 0.46993 0.0
C1923 C 0.18594 0.32477 0.42489 0.0
H1924 H 0.16922 0.26465 0.40793 0.0
C1925 C 0.10662 0.30591 0.37349 0.0
C1926 C 0.1067 0.28676 0.36014 0.0
C1927 C 0.12511 0.31067 0.38697 0.0
C1928 C 0.17394 0.28161 0.41208 0.0
H1929 H 0.25197 0.34902 0.46833 0.0
H1930 H 0.22765 0.34023 0.43705 0.0
H1931 H 0.19948 0.27013 0.43421 0.0
H1932 H 0.12606 0.25843 0.34877 0.0
H1933 H 0.15887 0.26748 0.37092 0.0
H1934 H 0.16112 0.33627 0.40198 0.0
C1935 C 0.22816 0.32878 0.45106 0.0
C1936 C 0.19108 0.28472 0.42754 0.0
C1937 C 0.24227 0.33372 0.46882 0.0
C1938 C 0.12574 0.27321 0.35922 0.0
C1939 C 0.14438 0.27827 0.37211 0.0
C1940 C 0.16914 0.32167 0.40907 0.0
C1941 C 0.21442 0.30975 0.45177 0.0
C1942 C 0.19713 0.30632 0.43433 0.0
C1943 C 0.14403 0.29657 0.38678 0.0
C1944 C 0.16275 0.30005 0.40265 0.0
H1945 H 0.23195 0.28834 0.5017 0.0
H1946 H 0.20604 0.28012 0.47118 0.0
H1947 H 0.18977 0.34168 0.43002 0.0
H1948 H 0.09189 0.3164 0.37444 0.0
H1949 H 0.12412 0.32478 0.39821 0.0
C1950 C 0.22962 0.708 0.97585 0.0
C1951 C 0.24974 0.72003 0.97735 0.0
C1952 C 0.22451 0.69596 0.95656 0.0
C1953 C 0.24011 0.69014 0.89727 0.0
H1954 H 0.23452 0.62637 0.9074 0.0
C1955 C 0.29499 0.62746 0.8589 0.0
C1956 C 0.28757 0.60633 0.85225 0.0
C1957 C 0.27999 0.64291 0.86743 0.0
C1958 C 0.23513 0.64416 0.90405 0.0
H1959 H 0.28012 0.72936 0.96005 0.0
H1960 H 0.27136 0.70818 0.9264 0.0
H1961 H 0.22737 0.65224 0.93795 0.0
H1962 H 0.25878 0.58474 0.84828 0.0
H1963 H 0.23231 0.61171 0.86474 0.0
H1964 H 0.25011 0.68187 0.86402 0.0
C1965 C 0.25939 0.70825 0.93996 0.0
C1966 C 0.23117 0.65898 0.92158 0.0
C1967 C 0.26459 0.72006 0.95931 0.0
C1968 C 0.26474 0.60103 0.85346 0.0
C1969 C 0.24968 0.61639 0.86266 0.0
C1970 C 0.24402 0.67534 0.87977 0.0
C1971 C 0.23931 0.69611 0.93841 0.0
C1972 C 0.23535 0.6819 0.9187 0.0
C1973 C 0.25732 0.63736 0.86991 0.0
C1974 C 0.24333 0.65221 0.88361 0.0
H1975 H 0.21782 0.70791 0.98957 0.0
H1976 H 0.20905 0.68656 0.9558 0.0
H1977 H 0.24292 0.70783 0.89459 0.0
H1978 H 0.31252 0.63194 0.85785 0.0
H1979 H 0.28641 0.65878 0.87334 0.0
C1980 C 0.99067 0.79275 0.35775 0.0
C1981 C 0.99581 0.81562 0.35742 0.0
C1982 C 0.97234 0.7851 0.37006 0.0
C1983 C 0.94518 0.77611 0.41262 0.0
H1984 H 0.88833 0.80739 0.41276 0.0
C1985 C 0.87705 0.75414 0.47582 0.0
C1986 C 0.86607 0.77214 0.48604 0.0
C1987 C 0.89039 0.75759 0.45715 0.0
C1988 C 0.90415 0.79859 0.41297 0.0
H1989 H 0.98565 0.84852 0.36872 0.0
H1990 H 0.95374 0.83522 0.38998 0.0
H1991 H 0.91612 0.81608 0.38414 0.0
H1992 H 0.85986 0.80774 0.48473 0.0
H1993 H 0.88408 0.8141 0.45234 0.0
H1994 H 0.93391 0.75947 0.44203 0.0
C1995 C 0.9637 0.8232 0.38083 0.0
C1996 C 0.91993 0.80342 0.39653 0.0
C1997 C 0.9821 0.83076 0.36888 0.0
C1998 C 0.8683 0.79367 0.47712 0.0
C1999 C 0.88196 0.7972 0.4585 0.0
C2000 C 0.92951 0.77142 0.42916 0.0
C2001 C 0.9588 0.80032 0.38175 0.0
C2002 C 0.94074 0.79256 0.39654 0.0
C2003 C 0.8933 0.77918 0.44847 0.0
C2004 C 0.90901 0.78293 0.42977 0.0
H2005 H 1.00102 0.78084 0.3489 0.0
H2006 H 0.96882 0.76734 0.37061 0.0
H2007 H 0.96125 0.76778 0.41316 0.0
H2008 H 0.87527 0.73727 0.48218 0.0
H2009 H 0.89849 0.74331 0.44955 0.0
C2010 C 0.76858 0.48103 0.88005 0.0
C2011 C 0.78035 0.48771 0.86097 0.0
C2012 C 0.7733 0.46074 0.89025 0.0
C2013 C 0.81745 0.41989 0.89777 0.0
H2014 H 0.76932 0.38905 0.92846 0.0
C2015 C 0.83095 0.3798 0.9816 0.0
C2016 C 0.81965 0.36023 0.98772 0.0
C2017 C 0.82631 0.39019 0.9614 0.0
C2018 C 0.78295 0.39702 0.9196 0.0
H2019 H 0.80632 0.47872 0.83744 0.0
H2020 H 0.8148 0.44283 0.85551 0.0
H2021 H 0.76056 0.41663 0.89987 0.0
H2022 H 0.79455 0.33608 0.97787 0.0
H2023 H 0.78622 0.35449 0.94212 0.0
H2024 H 0.83984 0.40052 0.91774 0.0
C2025 C 0.80192 0.45341 0.86255 0.0
C2026 C 0.77795 0.41301 0.90342 0.0
C2027 C 0.79722 0.47393 0.85233 0.0
C2028 C 0.80328 0.35133 0.9735 0.0
C2029 C 0.79867 0.36175 0.95307 0.0
C2030 C 0.82246 0.40369 0.91373 0.0
C2031 C 0.78979 0.44655 0.88149 0.0
C2032 C 0.79513 0.42558 0.89343 0.0
C2033 C 0.81039 0.38114 0.94674 0.0
C2034 C 0.80524 0.39317 0.92579 0.0
H2035 H 0.75552 0.49143 0.88704 0.0
H2036 H 0.76417 0.45634 0.90524 0.0
H2037 H 0.83106 0.42915 0.89023 0.0
H2038 H 0.8436 0.38701 0.99236 0.0
H2039 H 0.83508 0.40552 0.95741 0.0
C2040 C 0.23895 0.78985 0.62114 0.0
C2041 C 0.2419 0.76864 0.61166 0.0
C2042 C 0.22447 0.79251 0.63934 0.0
C2043 C 0.1743 0.76653 0.66116 0.0
H2044 H 0.18326 0.80351 0.71355 0.0
C2045 C 0.10459 0.80798 0.71107 0.0
C2046 C 0.10436 0.80446 0.73418 0.0
C2047 C 0.12233 0.80021 0.69829 0.0
C2048 C 0.18078 0.79287 0.69914 0.0
H2049 H 0.23369 0.7334 0.61457 0.0
H2050 H 0.20877 0.73805 0.64614 0.0
H2051 H 0.21431 0.7977 0.68728 0.0
H2052 H 0.12199 0.79004 0.76232 0.0
H2053 H 0.15378 0.77683 0.73975 0.0
H2054 H 0.14062 0.76243 0.67243 0.0
C2055 C 0.21709 0.75265 0.63937 0.0
C2056 C 0.19835 0.78977 0.68407 0.0
C2057 C 0.23131 0.75005 0.62127 0.0
C2058 C 0.12181 0.79257 0.74441 0.0
C2059 C 0.13995 0.78526 0.73163 0.0
C2060 C 0.15676 0.76984 0.676 0.0
C2061 C 0.213 0.77394 0.64815 0.0
C2062 C 0.19514 0.77672 0.66487 0.0
C2063 C 0.14035 0.78928 0.70854 0.0
C2064 C 0.1598 0.78322 0.69491 0.0
H2065 H 0.24715 0.80435 0.61406 0.0
H2066 H 0.22148 0.80912 0.64585 0.0
H2067 H 0.17132 0.75659 0.64635 0.0
H2068 H 0.0913 0.81726 0.70296 0.0
H2069 H 0.12243 0.80355 0.68049 0.0
C2070 C 0.75441 0.6159 0.21952 0.0
C2071 C 0.77156 0.60684 0.2327 0.0
C2072 C 0.75824 0.63478 0.20656 0.0
C2073 C 0.7971 0.68212 0.19898 0.0
H2074 H 0.77228 0.68274 0.13909 0.0
C2075 C 0.83265 0.73229 0.12623 0.0
C2076 C 0.81791 0.74266 0.11124 0.0
C2077 C 0.82446 0.71948 0.14376 0.0
C2078 C 0.77889 0.68303 0.15594 0.0
H2079 H 0.80614 0.61016 0.24283 0.0
H2080 H 0.81327 0.64294 0.2193 0.0
H2081 H 0.76386 0.65172 0.16396 0.0
H2082 H 0.78318 0.74872 0.10304 0.0
H2083 H 0.76862 0.72549 0.13368 0.0
H2084 H 0.81307 0.71298 0.19031 0.0
C2085 C 0.79667 0.63571 0.21944 0.0
C2086 C 0.77415 0.66525 0.17018 0.0
C2087 C 0.79272 0.61687 0.23268 0.0
C2088 C 0.79478 0.74073 0.11443 0.0
C2089 C 0.78652 0.72754 0.13186 0.0
C2090 C 0.802 0.69983 0.18462 0.0
C2091 C 0.77942 0.64484 0.20625 0.0
C2092 C 0.7835 0.66442 0.19172 0.0
C2093 C 0.80136 0.71659 0.14644 0.0
C2094 C 0.79325 0.70017 0.16287 0.0
H2095 H 0.73782 0.60863 0.21947 0.0
H2096 H 0.7445 0.64161 0.19694 0.0
H2097 H 0.80417 0.68217 0.21563 0.0
H2098 H 0.8506 0.73374 0.12418 0.0
H2099 H 0.83623 0.71097 0.15459 0.0
C2100 C 0.88183 0.3407 0.60598 0.0
C2101 C 0.86304 0.327 0.60303 0.0
C2102 C 0.89806 0.33518 0.62159 0.0
C2103 C 0.90831 0.3062 0.67333 0.0
H2104 H 0.97005 0.30659 0.65339 0.0
C2105 C 0.98469 0.30286 0.73313 0.0
C2106 C 1.0001 0.2861 0.72759 0.0
C2107 C 0.96757 0.30837 0.71819 0.0
C2108 C 0.95289 0.30645 0.65916 0.0
H2109 H 0.84612 0.29696 0.6141 0.0
H2110 H 0.87482 0.28726 0.64201 0.0
H2111 H 0.94013 0.31346 0.62657 0.0
H2112 H 1.01038 0.26242 0.7022 0.0
H2113 H 0.9809 0.27236 0.67604 0.0
H2114 H 0.92125 0.29922 0.70603 0.0
C2115 C 0.87683 0.30224 0.63204 0.0
C2116 C 0.93583 0.31037 0.64388 0.0
C2117 C 0.86058 0.30768 0.61609 0.0
C2118 C 0.99868 0.27546 0.70679 0.0
C2119 C 0.98187 0.28114 0.69183 0.0
C2120 C 0.92546 0.30247 0.68874 0.0
C2121 C 0.89574 0.31593 0.63471 0.0
C2122 C 0.91344 0.31032 0.65084 0.0
C2123 C 0.96602 0.29742 0.69749 0.0
C2124 C 0.94786 0.30254 0.68171 0.0
H2125 H 0.88409 0.35574 0.59613 0.0
H2126 H 0.91239 0.34608 0.62354 0.0
H2127 H 0.89112 0.30628 0.67903 0.0
H2128 H 0.98544 0.31111 0.7492 0.0
H2129 H 0.95555 0.3211 0.72277 0.0
C2130 C 0.30094 0.47792 0.24645 0.0
C2131 C 0.31678 0.49244 0.23705 0.0
C2132 C 0.29572 0.45782 0.23571 0.0
C2133 C 0.31888 0.41936 0.19317 0.0
H2134 H 0.25727 0.40222 0.18306 0.0
C2135 C 0.29517 0.35386 0.12682 0.0
C2136 C 0.27756 0.36091 0.11306 0.0
C2137 C 0.29956 0.36509 0.14682 0.0
C2138 C 0.27459 0.40672 0.18587 0.0
H2139 H 0.33873 0.49827 0.20887 0.0
H2140 H 0.32913 0.46386 0.18984 0.0
H2141 H 0.26569 0.43226 0.2092 0.0
H2142 H 0.25083 0.38505 0.109 0.0
H2143 H 0.25892 0.40505 0.14316 0.0
H2144 H 0.32771 0.39524 0.16849 0.0
C2145 C 0.32131 0.46736 0.20577 0.0
C2146 C 0.2794 0.42374 0.20102 0.0
C2147 C 0.32656 0.48722 0.21648 0.0
C2148 C 0.26452 0.37929 0.11937 0.0
C2149 C 0.26894 0.39053 0.13915 0.0
C2150 C 0.31407 0.40254 0.17786 0.0
C2151 C 0.30631 0.45217 0.21552 0.0
C2152 C 0.30151 0.43097 0.20388 0.0
C2153 C 0.2864 0.38352 0.15318 0.0
C2154 C 0.29179 0.39688 0.17322 0.0
H2155 H 0.29337 0.48162 0.26245 0.0
H2156 H 0.28396 0.44645 0.24347 0.0
H2157 H 0.33616 0.42422 0.19559 0.0
H2158 H 0.30525 0.33951 0.12233 0.0
H2159 H 0.31314 0.35933 0.15732 0.0
C2160 C 0.36734 0.1131 0.30309 0.0
C2161 C 0.35478 0.11315 0.28339 0.0
C2162 C 0.38196 0.13078 0.30753 0.0
C2163 C 0.41206 0.17557 0.27692 0.0
H2164 H 0.42994 0.19277 0.3366 0.0
C2165 C 0.49264 0.22553 0.29448 0.0
C2166 C 0.49304 0.23904 0.3135 0.0
C2167 C 0.47377 0.21249 0.28995 0.0
C2168 C 0.42489 0.18855 0.31976 0.0
H2169 H 0.34578 0.13196 0.25382 0.0
H2170 H 0.36996 0.16348 0.26225 0.0
H2171 H 0.39932 0.16675 0.33177 0.0
H2172 H 0.47418 0.25107 0.34186 0.0
H2173 H 0.44077 0.22971 0.33322 0.0
H2174 H 0.437 0.19809 0.26488 0.0
C2175 C 0.36968 0.1495 0.27373 0.0
C2176 C 0.40754 0.17326 0.31703 0.0
C2177 C 0.35565 0.1316 0.26901 0.0
C2178 C 0.47411 0.24057 0.32714 0.0
C2179 C 0.45512 0.22811 0.32233 0.0
C2180 C 0.4291 0.19121 0.27964 0.0
C2181 C 0.38371 0.14892 0.29255 0.0
C2182 C 0.40109 0.16635 0.29558 0.0
C2183 C 0.45499 0.21325 0.30418 0.0
C2184 C 0.43593 0.19769 0.30109 0.0
H2185 H 0.3669 0.09884 0.31426 0.0
H2186 H 0.39262 0.12963 0.3221 0.0
H2187 H 0.40791 0.17036 0.26011 0.0
H2188 H 0.50728 0.22409 0.28394 0.0
H2189 H 0.47437 0.20109 0.27595 0.0
C2190 C 0.39268 1.0039 0.81149 0.0
C2191 C 0.37002 1.00334 0.80565 0.0
C2192 C 0.40772 0.9895 0.80129 0.0
C2193 C 0.40991 0.93395 0.78049 0.0
H2194 H 0.47033 0.95049 0.7637 0.0
C2195 C 0.48481 0.87362 0.78611 0.0
C2196 C 0.4996 0.87375 0.76798 0.0
C2197 C 0.46779 0.88957 0.78734 0.0
C2198 C 0.45345 0.94562 0.76808 0.0
H2199 H 0.34514 0.98827 0.78414 0.0
H2200 H 0.37165 0.96227 0.76651 0.0
H2201 H 0.4422 0.97954 0.76892 0.0
H2202 H 0.50853 0.89045 0.73704 0.0
H2203 H 0.47902 0.91826 0.73929 0.0
H2204 H 0.42139 0.90004 0.7804 0.0
C2205 C 0.37769 0.97411 0.77879 0.0
C2206 C 0.43742 0.9622 0.77105 0.0
C2207 C 0.36264 0.98893 0.78875 0.0
C2208 C 0.49737 0.89008 0.75128 0.0
C2209 C 0.48051 0.90599 0.75254 0.0
C2210 C 0.42601 0.91733 0.77767 0.0
C2211 C 0.40025 0.97406 0.78535 0.0
C2212 C 0.4157 0.95653 0.77779 0.0
C2213 C 0.46553 0.90585 0.77051 0.0
C2214 C 0.44802 0.9231 0.77193 0.0
H2215 H 0.39867 1.015 0.82447 0.0
H2216 H 0.42498 0.9896 0.8068 0.0
H2217 H 0.3933 0.92924 0.78595 0.0
H2218 H 0.4862 0.86107 0.7991 0.0
H2219 H 0.45656 0.88933 0.80153 0.0
C2220 C 0.73442 0.98301 0.29721 0.0
C2221 C 0.74404 0.9857 0.2761 0.0
C2222 C 0.72026 0.96485 0.3013 0.0
C2223 C 0.68581 0.92366 0.27008 0.0
H2224 H 0.67773 0.8984 0.32906 0.0
C2225 C 0.6084 0.87178 0.29385 0.0
C2226 C 0.61042 0.85632 0.31124 0.0
C2227 C 0.6268 0.88481 0.28774 0.0
C2228 C 0.68003 0.90486 0.31233 0.0
H2229 H 0.74819 0.97116 0.24326 0.0
H2230 H 0.72482 0.93885 0.25073 0.0
H2231 H 0.70704 0.92563 0.32294 0.0
H2232 H 0.6329 0.84077 0.3349 0.0
H2233 H 0.66547 0.86225 0.32327 0.0
H2234 H 0.65944 0.90223 0.25924 0.0
C2235 C 0.727 0.95112 0.26383 0.0
C2236 C 0.69663 0.92087 0.30894 0.0
C2237 C 0.74054 0.96951 0.25959 0.0
C2238 C 0.63117 0.85279 0.32144 0.0
C2239 C 0.64967 0.86529 0.31496 0.0
C2240 C 0.66955 0.90731 0.27335 0.0
C2241 C 0.71607 0.94891 0.28447 0.0
C2242 C 0.69949 0.93075 0.28786 0.0
C2243 C 0.64752 0.88213 0.29871 0.0
C2244 C 0.66618 0.89797 0.2946 0.0
H2245 H 0.73694 0.99544 0.3101 0.0
H2246 H 0.71197 0.96385 0.31734 0.0
H2247 H 0.6872 0.93112 0.25366 0.0
H2248 H 0.59233 0.87482 0.28605 0.0
H2249 H 0.62439 0.89775 0.27534 0.0
C2250 C 0.73159 0.12293 0.83444 0.0
C2251 C 0.74215 0.10924 0.81864 0.0
C2252 C 0.7175 0.14007 0.82757 0.0
C2253 C 0.67893 0.15339 0.78393 0.0
H2254 H 0.67883 0.21258 0.81037 0.0
C2255 C 0.61434 0.23164 0.79856 0.0
C2256 C 0.60445 0.23211 0.77735 0.0
C2257 C 0.63264 0.21768 0.80261 0.0
C2258 C 0.67852 0.19604 0.80304 0.0
H2259 H 0.74701 0.10288 0.78339 0.0
H2260 H 0.72157 0.13281 0.77121 0.0
H2261 H 0.70966 0.18694 0.81823 0.0
H2262 H 0.6059 0.21887 0.74366 0.0
H2263 H 0.63798 0.19514 0.7505 0.0
H2264 H 0.64743 0.16187 0.76957 0.0
C2265 C 0.72445 0.13027 0.78889 0.0
C2266 C 0.69624 0.18151 0.80736 0.0
C2267 C 0.73892 0.11326 0.7958 0.0
C2268 C 0.61308 0.21861 0.76028 0.0
C2269 C 0.63142 0.20493 0.76421 0.0
C2270 C 0.66112 0.16779 0.77981 0.0
C2271 C 0.7135 0.14363 0.80478 0.0
C2272 C 0.69643 0.16001 0.79801 0.0
C2273 C 0.64138 0.20421 0.78542 0.0
C2274 C 0.66062 0.1892 0.78948 0.0
H2275 H 0.73399 0.12021 0.85218 0.0
H2276 H 0.70904 0.14997 0.84012 0.0
H2277 H 0.67854 0.13672 0.77689 0.0
H2278 H 0.60795 0.242 0.81193 0.0
H2279 H 0.63979 0.21726 0.81922 0.0
C2280 C 0.88427 0.77214 0.59717 0.0
C2281 C 0.86473 0.78533 0.59702 0.0
C2282 C 0.90125 0.77563 0.61329 0.0
C2283 C 0.91082 0.79786 0.6705 0.0
H2284 H 0.9732 0.80332 0.65382 0.0
C2285 C 0.98331 0.79786 0.73604 0.0
C2286 C 1.00016 0.81424 0.73402 0.0
C2287 C 0.96712 0.79477 0.71926 0.0
C2288 C 0.95586 0.8019 0.6588 0.0
H2289 H 0.84784 0.81221 0.61448 0.0
H2290 H 0.87679 0.81769 0.64262 0.0
H2291 H 0.94478 0.7962 0.625 0.0
H2292 H 1.01293 0.84014 0.71221 0.0
H2293 H 0.98503 0.83425 0.6825 0.0
H2294 H 0.92183 0.80308 0.70428 0.0
C2295 C 0.87925 0.80487 0.6301 0.0
C2296 C 0.93954 0.79761 0.64225 0.0
C2297 C 0.86261 0.80177 0.61377 0.0
C2298 C 1.00027 0.8274 0.71447 0.0
C2299 C 0.98431 0.82392 0.69735 0.0
C2300 C 0.92715 0.80162 0.68706 0.0
C2301 C 0.89894 0.79199 0.63013 0.0
C2302 C 0.91669 0.79567 0.6478 0.0
C2303 C 0.96738 0.80758 0.69951 0.0
C2304 C 0.94996 0.80384 0.68153 0.0
H2305 H 0.88658 0.7593 0.58466 0.0
H2306 H 0.91606 0.76524 0.6128 0.0
H2307 H 0.8935 0.7964 0.67555 0.0
H2308 H 0.98246 0.78742 0.75081 0.0
H2309 H 0.95452 0.78197 0.72161 0.0
C2310 C 0.79812 0.36204 0.11474 0.0
C2311 C 0.81488 0.36446 0.09832 0.0
C2312 C 0.79456 0.37847 0.13117 0.0
C2313 C 0.8007 0.43868 0.14394 0.0
H2314 H 0.79466 0.42035 0.20578 0.0
C2315 C 0.76875 0.49823 0.21634 0.0
C2316 C 0.78184 0.4983 0.23594 0.0
C2317 C 0.77267 0.48245 0.19915 0.0
C2318 C 0.79625 0.42584 0.18861 0.0
H2319 H 0.84098 0.38665 0.08666 0.0
H2320 H 0.8342 0.4158 0.11492 0.0
H2321 H 0.8023 0.3924 0.17694 0.0
H2322 H 0.80894 0.48104 0.25275 0.0
H2323 H 0.8151 0.4534 0.22347 0.0
H2324 H 0.79413 0.47213 0.15566 0.0
C2325 C 0.82394 0.40089 0.1151 0.0
C2326 C 0.80059 0.40973 0.17199 0.0
C2327 C 0.82791 0.3841 0.0989 0.0
C2328 C 0.79854 0.48175 0.23795 0.0
C2329 C 0.80205 0.46573 0.22111 0.0
C2330 C 0.79583 0.45477 0.16054 0.0
C2331 C 0.80726 0.39828 0.13161 0.0
C2332 C 0.80301 0.41583 0.14936 0.0
C2333 C 0.78936 0.46585 0.20129 0.0
C2334 C 0.79365 0.44865 0.18321 0.0
H2335 H 0.78779 0.34719 0.11514 0.0
H2336 H 0.78153 0.37577 0.14343 0.0
H2337 H 0.80228 0.4441 0.12675 0.0
H2338 H 0.75579 0.51066 0.21408 0.0
H2339 H 0.76242 0.48306 0.18425 0.0
C2340 C 0.12058 0.30429 0.73763 0.0
C2341 C 0.10403 0.28759 0.73572 0.0
C2342 C 0.1367 0.30762 0.72081 0.0
C2343 C 0.14804 0.30029 0.66032 0.0
H2344 H 0.21031 0.30716 0.67695 0.0
C2345 C 0.21932 0.32975 0.59791 0.0
C2346 C 0.23883 0.31653 0.59799 0.0
C2347 C 0.2024 0.32661 0.6142 0.0
C2348 C 0.193 0.30534 0.67194 0.0
H2349 H 0.09177 0.26135 0.71408 0.0
H2350 H 0.11952 0.26764 0.68434 0.0
H2351 H 0.18213 0.30034 0.70581 0.0
H2352 H 0.25582 0.29007 0.61607 0.0
H2353 H 0.22706 0.28524 0.64448 0.0
H2354 H 0.15899 0.30572 0.62642 0.0
C2355 C 0.12006 0.27805 0.69911 0.0
C2356 C 0.17676 0.30148 0.68857 0.0
C2357 C 0.10418 0.27434 0.71626 0.0
C2358 C 0.24106 0.30052 0.61518 0.0
C2359 C 0.22453 0.29779 0.63167 0.0
C2360 C 0.16426 0.30467 0.64369 0.0
C2361 C 0.13667 0.29473 0.70114 0.0
C2362 C 0.15399 0.29873 0.68309 0.0
C2363 C 0.20479 0.3106 0.63143 0.0
C2364 C 0.18708 0.3071 0.64919 0.0
H2365 H 0.12122 0.31481 0.75232 0.0
H2366 H 0.14905 0.32067 0.72307 0.0
H2367 H 0.13073 0.29845 0.65537 0.0
H2368 H 0.21691 0.34224 0.58502 0.0
H2369 H 0.18755 0.33692 0.61347 0.0
C2370 C 0.33521 0.60134 0.2152 0.0
C2371 C 0.31956 0.59964 0.23274 0.0
C2372 C 0.33233 0.61706 0.19771 0.0
C2373 C 0.30349 0.67096 0.18373 0.0
H2374 H 0.31275 0.65425 0.12192 0.0
C2375 C 0.30032 0.73672 0.11116 0.0
C2376 C 0.28868 0.73088 0.0915 0.0
C2377 C 0.30493 0.72075 0.12792 0.0
C2378 C 0.31004 0.65926 0.13908 0.0
H2379 H 0.28878 0.61395 0.24546 0.0
H2380 H 0.2841 0.64123 0.2156 0.0
H2381 H 0.31944 0.62686 0.15172 0.0
H2382 H 0.27322 0.70302 0.07433 0.0
H2383 H 0.28173 0.67519 0.10317 0.0
H2384 H 0.29417 0.70333 0.1712 0.0
C2385 C 0.29855 0.63035 0.21514 0.0
C2386 C 0.31408 0.64353 0.15626 0.0
C2387 C 0.3012 0.61445 0.23232 0.0
C2388 C 0.2823 0.7083 0.08906 0.0
C2389 C 0.28724 0.69224 0.10568 0.0
C2390 C 0.29983 0.68677 0.16661 0.0
C2391 C 0.31397 0.63194 0.19743 0.0
C2392 C 0.31069 0.64902 0.17893 0.0
C2393 C 0.29842 0.6982 0.12557 0.0
C2394 C 0.30286 0.68122 0.14392 0.0
H2395 H 0.3496 0.59038 0.21485 0.0
H2396 H 0.34471 0.61777 0.18454 0.0
H2397 H 0.30081 0.67603 0.20088 0.0
H2398 H 0.3055 0.75384 0.1139 0.0
H2399 H 0.31375 0.72612 0.14277 0.0
C2400 C 0.85962 0.29886 0.48641 0.0
C2401 C 0.85842 0.31863 0.49916 0.0
C2402 C 0.87667 0.29542 0.4706 0.0
C2403 C 0.92273 0.32522 0.43865 0.0
H2404 H 0.9402 0.26459 0.42427 0.0
C2405 C 0.98278 0.30748 0.36413 0.0
C2406 C 0.99682 0.28853 0.36412 0.0
C2407 C 0.96657 0.31079 0.3808 0.0
C2408 C 0.93589 0.28171 0.42811 0.0
H2409 H 0.87477 0.35037 0.50483 0.0
H2410 H 0.90495 0.3442 0.47795 0.0
H2411 H 0.91224 0.27118 0.45281 0.0
H2412 H 1.0043 0.25808 0.38216 0.0
H2413 H 0.97663 0.26412 0.41171 0.0
H2414 H 0.94716 0.33581 0.41478 0.0
C2415 C 0.89233 0.33137 0.47973 0.0
C2416 C 0.91932 0.28556 0.44443 0.0
C2417 C 0.87499 0.33494 0.4954 0.0
C2418 C 0.9939 0.27288 0.38148 0.0
C2419 C 0.97778 0.27636 0.39845 0.0
C2420 C 0.9395 0.32139 0.42254 0.0
C2421 C 0.8936 0.31147 0.46697 0.0
C2422 C 0.91213 0.30741 0.44993 0.0
C2423 C 0.96377 0.29547 0.39853 0.0
C2424 C 0.94631 0.29953 0.41665 0.0
H2425 H 0.84712 0.28592 0.48843 0.0
H2426 H 0.87626 0.28014 0.46099 0.0
H2427 H 0.91788 0.34233 0.44191 0.0
H2428 H 0.98409 0.31985 0.35098 0.0
H2429 H 0.95599 0.32539 0.37945 0.0
C2430 C 0.30257 0.36391 0.98671 0.0
C2431 C 0.28514 0.36498 1.00255 0.0
C2432 C 0.30584 0.38097 0.97083 0.0
C2433 C 0.29565 0.44112 0.95874 0.0
H2434 H 0.30698 0.42436 0.89726 0.0
C2435 C 0.32501 0.50474 0.8885 0.0
C2436 C 0.31355 0.50327 0.86796 0.0
C2437 C 0.32173 0.48855 0.9055 0.0
C2438 C 0.30387 0.42943 0.91434 0.0
H2439 H 0.25754 0.38548 1.0138 0.0
H2440 H 0.26364 0.41564 0.98642 0.0
H2441 H 0.30034 0.39541 0.92535 0.0
H2442 H 0.29001 0.4829 0.84939 0.0
H2443 H 0.28491 0.45479 0.87837 0.0
H2444 H 0.29954 0.47522 0.94763 0.0
C2445 C 0.27472 0.40134 0.98629 0.0
C2446 C 0.30015 0.41274 0.93055 0.0
C2447 C 0.27114 0.38394 1.00197 0.0
C2448 C 0.29909 0.48488 0.86491 0.0
C2449 C 0.29622 0.46855 0.88159 0.0
C2450 C 0.29986 0.45786 0.94255 0.0
C2451 C 0.29208 0.40007 0.97033 0.0
C2452 C 0.29584 0.41823 0.95304 0.0
C2453 C 0.30734 0.47008 0.90226 0.0
C2454 C 0.30388 0.45231 0.92 0.0
H2455 H 0.31371 0.34964 0.98637 0.0
H2456 H 0.31946 0.37931 0.95904 0.0
H2457 H 0.29258 0.44612 0.97584 0.0
H2458 H 0.33627 0.51857 0.89157 0.0
H2459 H 0.33074 0.49031 0.92108 0.0
C2460 C 0.22069 0.77127 0.50018 0.0
C2461 C 0.23967 0.78521 0.50134 0.0
C2462 C 0.20378 0.77501 0.48403 0.0
C2463 C 0.19411 0.79938 0.42787 0.0
H2464 H 0.13146 0.80321 0.44402 0.0
C2465 C 0.12201 0.79892 0.36198 0.0
C2466 C 0.10514 0.81532 0.36378 0.0
C2467 C 0.13809 0.79589 0.37888 0.0
C2468 C 0.14888 0.80226 0.43921 0.0
H2469 H 0.25571 0.81368 0.48562 0.0
H2470 H 0.22694 0.81956 0.45731 0.0
H2471 H 0.15974 0.79565 0.47294 0.0
H2472 H 0.09226 0.84134 0.38528 0.0
H2473 H 0.11996 0.83549 0.41528 0.0
H2474 H 0.18332 0.8054 0.39412 0.0
C2475 C 0.22483 0.806 0.46912 0.0
C2476 C 0.16511 0.79772 0.45579 0.0
C2477 C 0.24135 0.80265 0.48554 0.0
C2478 C 0.10493 0.82859 0.38321 0.0
C2479 C 0.12077 0.82514 0.40048 0.0
C2480 C 0.17788 0.80336 0.41125 0.0
C2481 C 0.20566 0.79238 0.46813 0.0
C2482 C 0.18803 0.79634 0.45042 0.0
C2483 C 0.13769 0.80877 0.39853 0.0
C2484 C 0.15498 0.80499 0.41661 0.0
H2485 H 0.21874 0.75767 0.51197 0.0
H2486 H 0.18937 0.76406 0.48375 0.0
H2487 H 0.21151 0.7984 0.42298 0.0
H2488 H 0.12295 0.78842 0.3473 0.0
H2489 H 0.1507 0.78309 0.37669 0.0
C2490 C 0.77232 0.59833 0.88633 0.0
C2491 C 0.78456 0.59894 0.86622 0.0
C2492 C 0.77635 0.6141 0.90352 0.0
C2493 C 0.79811 0.67156 0.91319 0.0
H2494 H 0.80679 0.65385 0.9749 0.0
C2495 C 0.7999 0.73588 0.9863 0.0
C2496 C 0.81717 0.73427 1.00231 0.0
C2497 C 0.79648 0.71914 0.97019 0.0
C2498 C 0.80448 0.6591 0.95774 0.0
H2499 H 0.81035 0.61736 0.84858 0.0
H2500 H 0.81675 0.64483 0.87788 0.0
H2501 H 0.79876 0.62538 0.94636 0.0
H2502 H 0.84433 0.71317 1.01357 0.0
H2503 H 0.83784 0.68344 0.98581 0.0
H2504 H 0.80333 0.70524 0.9245 0.0
C2505 C 0.80426 0.63202 0.88062 0.0
C2506 C 0.79966 0.64276 0.94137 0.0
C2507 C 0.80062 0.61606 0.86377 0.0
C2508 C 0.83086 0.71509 1.00164 0.0
C2509 C 0.82706 0.69797 0.98574 0.0
C2510 C 0.80241 0.68789 0.92958 0.0
C2511 C 0.79232 0.63132 0.90087 0.0
C2512 C 0.79653 0.6487 0.91876 0.0
C2513 C 0.80986 0.6998 0.96964 0.0
C2514 C 0.80578 0.68199 0.95215 0.0
H2515 H 0.75982 0.5855 0.88892 0.0
H2516 H 0.76668 0.61304 0.91876 0.0
H2517 H 0.79575 0.67691 0.89607 0.0
H2518 H 0.78904 0.75036 0.98597 0.0
H2519 H 0.78302 0.72123 0.95826 0.0
C2520 C 0.61682 0.86365 0.80521 0.0
C2521 C 0.60358 0.86278 0.78574 0.0
C2522 C 0.63281 0.88059 0.80849 0.0
C2523 C 0.66408 0.92713 0.77865 0.0
H2524 H 0.67999 0.9436 0.83916 0.0
C2525 C 0.7389 0.98719 0.79556 0.0
C2526 C 0.73936 1.00087 0.81472 0.0
C2527 C 0.72219 0.97096 0.79239 0.0
C2528 C 0.67572 0.93958 0.82207 0.0
H2529 H 0.59718 0.87959 0.75437 0.0
H2530 H 0.62436 0.90957 0.76029 0.0
H2531 H 0.6513 0.91571 0.8328 0.0
H2532 H 0.72211 1.00766 0.84573 0.0
H2533 H 0.69247 0.98001 0.83994 0.0
H2534 H 0.68764 0.95182 0.76791 0.0
C2535 C 0.62287 0.89678 0.77298 0.0
C2536 C 0.6593 0.92303 0.81835 0.0
C2537 C 0.60703 0.87953 0.76955 0.0
C2538 C 0.72242 0.99757 0.83073 0.0
C2539 C 0.7054 0.98145 0.8274 0.0
C2540 C 0.68026 0.94388 0.78237 0.0
C2541 C 0.6361 0.89774 0.7926 0.0
C2542 C 0.65326 0.91621 0.79655 0.0
C2543 C 0.70487 0.9678 0.80807 0.0
C2544 C 0.68669 0.95033 0.80417 0.0
H2545 H 0.61503 0.851 0.81804 0.0
H2546 H 0.6428 0.87994 0.82354 0.0
H2547 H 0.66039 0.92257 0.76157 0.0
H2548 H 0.75174 0.98876 0.78292 0.0
H2549 H 0.72321 0.96065 0.7776 0.0
C2550 C 0.61611 0.2329 0.29323 0.0
C2551 C 0.60237 0.23355 0.31235 0.0
C2552 C 0.63217 0.21599 0.29018 0.0
C2553 C 0.66285 0.16934 0.32038 0.0
H2554 H 0.68006 0.1533 0.26014 0.0
C2555 C 0.73827 0.10964 0.30449 0.0
C2556 C 0.73909 0.09616 0.28521 0.0
C2557 C 0.72141 0.12575 0.30754 0.0
C2558 C 0.67542 0.1572 0.27715 0.0
H2559 H 0.59522 0.21641 0.34338 0.0
H2560 H 0.62252 0.18648 0.33782 0.0
H2561 H 0.65115 0.18105 0.26603 0.0
H2562 H 0.72229 0.08952 0.2539 0.0
H2563 H 0.69242 0.1169 0.25946 0.0
H2564 H 0.6863 0.14469 0.33149 0.0
C2565 C 0.62132 0.1994 0.32523 0.0
C2566 C 0.65888 0.17366 0.28061 0.0
C2567 C 0.60539 0.21659 0.32842 0.0
C2568 C 0.72232 0.09946 0.269 0.0
C2569 C 0.70518 0.11544 0.27219 0.0
C2570 C 0.67918 0.15268 0.31692 0.0
C2571 C 0.63507 0.19869 0.30597 0.0
C2572 C 0.65236 0.18031 0.30231 0.0
C2573 C 0.70432 0.12896 0.29159 0.0
C2574 C 0.68605 0.14636 0.29522 0.0
H2575 H 0.61471 0.24574 0.28054 0.0
H2576 H 0.64255 0.21683 0.27542 0.0
H2577 H 0.65878 0.1738 0.3374 0.0
H2578 H 0.75095 0.10804 0.31731 0.0
H2579 H 0.72213 0.13594 0.32243 0.0
C2580 C 0.38149 0.10135 0.83356 0.0
C2581 C 0.36152 0.10151 0.82104 0.0
C2582 C 0.39832 0.11759 0.82984 0.0
C2583 C 0.40736 0.17515 0.80782 0.0
H2584 H 0.46934 0.15798 0.7998 0.0
C2585 C 0.48018 0.24015 0.80514 0.0
C2586 C 0.49651 0.23801 0.78828 0.0
C2587 C 0.46397 0.22349 0.80873 0.0
C2588 C 0.4521 0.16309 0.80193 0.0
H2589 H 0.34364 0.11958 0.79519 0.0
H2590 H 0.37232 0.14795 0.78935 0.0
H2591 H 0.44101 0.12933 0.80794 0.0
H2592 H 0.50827 0.21619 0.76199 0.0
H2593 H 0.48031 0.18669 0.76872 0.0
H2594 H 0.4184 0.20889 0.80222 0.0
C2595 C 0.37523 0.13516 0.80183 0.0
C2596 C 0.43585 0.14664 0.80682 0.0
C2597 C 0.35874 0.11873 0.80516 0.0
C2598 C 0.49603 0.21851 0.7751 0.0
C2599 C 0.48004 0.20151 0.77906 0.0
C2600 C 0.42364 0.1916 0.80343 0.0
C2601 C 0.39543 0.13481 0.81391 0.0
C2602 C 0.41315 0.15238 0.8097 0.0
C2603 C 0.46368 0.20377 0.79593 0.0
C2604 C 0.4463 0.18589 0.80028 0.0
H2605 H 0.38434 0.08837 0.84586 0.0
H2606 H 0.41354 0.11679 0.8396 0.0
H2607 H 0.39016 0.18033 0.80998 0.0
H2608 H 0.47977 0.2549 0.81559 0.0
H2609 H 0.45182 0.22591 0.82191 0.0
C2610 C 0.48712 0.86837 0.29612 0.0
C2611 C 0.50116 0.86778 0.31506 0.0
C2612 C 0.47106 0.8853 0.29313 0.0
C2613 C 0.44086 0.93231 0.32326 0.0
H2614 H 0.4221 0.94727 0.26315 0.0
C2615 C 0.3646 0.9914 0.30802 0.0
C2616 C 0.36295 1.00429 0.28834 0.0
C2617 C 0.38173 0.97554 0.31104 0.0
C2618 C 0.42716 0.9437 0.28013 0.0
H2619 H 0.50882 0.88514 0.34579 0.0
H2620 H 0.48149 0.91513 0.34031 0.0
H2621 H 0.45131 0.91982 0.2689 0.0
H2622 H 0.37866 1.01019 0.25634 0.0
H2623 H 0.40899 0.98326 0.2618 0.0
H2624 H 0.41752 0.95701 0.33445 0.0
C2625 C 0.48249 0.90212 0.32783 0.0
C2626 C 0.44389 0.92739 0.28352 0.0
C2627 C 0.49844 0.88489 0.33097 0.0
C2628 C 0.37922 1.00067 0.27173 0.0
C2629 C 0.39665 0.98494 0.27488 0.0
C2630 C 0.42433 0.94883 0.31986 0.0
C2631 C 0.4684 0.90273 0.30877 0.0
C2632 C 0.45098 0.92107 0.30518 0.0
C2633 C 0.39831 0.97197 0.29465 0.0
C2634 C 0.41686 0.95476 0.29822 0.0
H2635 H 0.48826 0.85544 0.28354 0.0
H2636 H 0.46044 0.88435 0.27853 0.0
H2637 H 0.44535 0.92815 0.34027 0.0
H2638 H 0.35235 0.99328 0.32119 0.0
H2639 H 0.38159 0.96579 0.32626 0.0
loop_
_geom_bond_atom_site_label_1
_geom_bond_atom_site_label_2
_geom_bond_distance
_geom_bond_site_symmetry_2
_ccdc_geom_bond_type
O0 Tb1 2.506 . S
O0 C14 1.265 . S
Tb1 O0 2.506 . S
Tb1 O6 2.312 1_655 S
Tb1 O10 2.271 . S
Tb1 O12 2.338 . S
Tb1 O19 2.441 . S
C2 O10 1.252 . S
C2 O11 1.253 . S
O3 Tb4 2.271 . S
O3 C13 1.252 . S
Tb4 O3 2.271 . S
Tb4 O7 2.338 . S
Tb4 O11 2.312 1_455 S
Tb4 O15 2.441 . S
Tb4 O16 2.506 . S
C5 O15 1.244 . S
C5 O16 1.265 . S
O6 Tb1 2.312 1_455 S
O6 C13 1.253 . S
O7 Tb4 2.338 . S
O7 C8 1.258 . S
C8 O7 1.258 . S
C8 O9 1.251 . S
O9 C8 1.251 . S
O10 Tb1 2.271 . S
O10 C2 1.252 . S
O11 C2 1.253 . S
O11 Tb4 2.312 1_655 S
O12 Tb1 2.338 . S
O12 C17 1.258 . S
C13 O3 1.252 . S
C13 O6 1.253 . S
C14 O0 1.265 . S
C14 O19 1.244 . S
O15 Tb4 2.441 . S
O15 C5 1.244 . S
O16 Tb4 2.506 . S
O16 C5 1.265 . S
C17 O12 1.258 . S
C17 O18 1.251 . S
O18 C17 1.251 . S
O19 Tb1 2.441 . S
O19 C14 1.244 . S
O20 Tb21 2.506 . S
O20 C34 1.265 . S
Tb21 O20 2.506 . S
Tb21 O26 2.312 . S
Tb21 O30 2.271 . S
Tb21 O32 2.338 . S
Tb21 O39 2.441 . S
C22 O30 1.252 . S
C22 O31 1.253 . S
O23 Tb24 2.271 . S
O23 C33 1.252 . S
Tb24 O23 2.271 . S
Tb24 O27 2.338 . S
Tb24 O31 2.312 . S
Tb24 O35 2.441 . S
Tb24 O36 2.506 . S
C25 O35 1.244 . S
C25 O36 1.265 . S
O26 Tb21 2.312 . S
O26 C33 1.253 . S
O27 Tb24 2.338 . S
O27 C28 1.258 . S
C28 O27 1.258 . S
C28 O29 1.251 . S
O29 C28 1.251 . S
O30 Tb21 2.271 . S
O30 C22 1.252 . S
O31 C22 1.253 . S
O31 Tb24 2.312 . S
O32 Tb21 2.338 . S
O32 C37 1.258 . S
C33 O23 1.252 . S
C33 O26 1.253 . S
C34 O20 1.265 . S
C34 O39 1.244 . S
O35 Tb24 2.441 . S
O35 C25 1.244 . S
O36 Tb24 2.506 . S
O36 C25 1.265 . S
C37 O32 1.258 . S
C37 O38 1.251 . S
O38 C37 1.251 . S
O39 Tb21 2.441 . S
O39 C34 1.244 . S
O40 Tb41 2.506 . S
O40 C54 1.265 . S
Tb41 O40 2.506 . S
Tb41 O46 2.312 1_455 S
Tb41 O50 2.271 . S
Tb41 O52 2.338 . S
Tb41 O59 2.441 . S
C42 O50 1.252 . S
C42 O51 1.253 . S
O43 Tb44 2.271 . S
O43 C53 1.252 . S
Tb44 O43 2.271 . S
Tb44 O47 2.338 . S
Tb44 O51 2.312 1_655 S
Tb44 O55 2.441 . S
Tb44 O56 2.506 . S
C45 O55 1.244 . S
C45 O56 1.265 . S
O46 Tb41 2.312 1_655 S
O46 C53 1.253 . S
O47 Tb44 2.338 . S
O47 C48 1.258 . S
C48 O47 1.258 . S
C48 O49 1.251 . S
O49 C48 1.251 . S
O50 Tb41 2.271 . S
O50 C42 1.252 . S
O51 C42 1.253 . S
O51 Tb44 2.312 1_455 S
O52 Tb41 2.338 . S
O52 C57 1.258 . S
C53 O43 1.252 . S
C53 O46 1.253 . S
C54 O40 1.265 . S
C54 O59 1.244 . S
O55 Tb44 2.441 . S
O55 C45 1.244 . S
O56 Tb44 2.506 . S
O56 C45 1.265 . S
C57 O52 1.258 . S
C57 O58 1.251 . S
O58 C57 1.251 . S
O59 Tb41 2.441 . S
O59 C54 1.244 . S
O60 Tb61 2.506 . S
O60 C74 1.265 . S
Tb61 O60 2.506 . S
Tb61 O66 2.312 . S
Tb61 O70 2.271 . S
Tb61 O72 2.338 . S
Tb61 O79 2.441 . S
C62 O70 1.252 . S
C62 O71 1.253 . S
O63 Tb64 2.271 . S
O63 C73 1.252 . S
Tb64 O63 2.271 . S
Tb64 O67 2.338 . S
Tb64 O71 2.312 . S
Tb64 O75 2.441 . S
Tb64 O76 2.506 . S
C65 O75 1.244 . S
C65 O76 1.265 . S
O66 Tb61 2.312 . S
O66 C73 1.253 . S
O67 Tb64 2.338 . S
O67 C68 1.258 . S
C68 O67 1.258 . S
C68 O69 1.251 . S
O69 C68 1.251 . S
O70 Tb61 2.271 . S
O70 C62 1.252 . S
O71 C62 1.253 . S
O71 Tb64 2.312 . S
O72 Tb61 2.338 . S
O72 C77 1.258 . S
C73 O63 1.252 . S
C73 O66 1.253 . S
C74 O60 1.265 . S
C74 O79 1.244 . S
O75 Tb64 2.441 . S
O75 C65 1.244 . S
O76 Tb64 2.506 . S
O76 C65 1.265 . S
C77 O72 1.258 . S
C77 O78 1.251 . S
O78 C77 1.251 . S
O79 Tb61 2.441 . S
O79 C74 1.244 . S
O80 Tb81 2.506 . S
O80 C94 1.265 . S
Tb81 O80 2.506 . S
Tb81 O86 2.312 1_655 S
Tb81 O90 2.271 . S
Tb81 O92 2.338 . S
Tb81 O99 2.441 . S
C82 O90 1.252 . S
C82 O91 1.253 . S
O83 Tb84 2.271 . S
O83 C93 1.252 . S
Tb84 O83 2.271 . S
Tb84 O87 2.338 . S
Tb84 O91 2.312 1_455 S
Tb84 O95 2.441 . S
Tb84 O96 2.506 . S
C85 O95 1.244 . S
C85 O96 1.265 . S
O86 Tb81 2.312 1_455 S
O86 C93 1.253 . S
O87 Tb84 2.338 . S
O87 C88 1.258 . S
C88 O87 1.258 . S
C88 O89 1.251 . S
O89 C88 1.251 . S
O90 Tb81 2.271 . S
O90 C82 1.252 . S
O91 C82 1.253 . S
O91 Tb84 2.312 1_655 S
O92 Tb81 2.338 . S
O92 C97 1.258 . S
C93 O83 1.252 . S
C93 O86 1.253 . S
C94 O80 1.265 . S
C94 O99 1.244 . S
O95 Tb84 2.441 . S
O95 C85 1.244 . S
O96 Tb84 2.506 . S
O96 C85 1.265 . S
C97 O92 1.258 . S
C97 O98 1.251 . S
O98 C97 1.251 . S
O99 Tb81 2.441 . S
O99 C94 1.244 . S
O100 Tb101 2.506 . S
O100 C114 1.265 . S
Tb101 O100 2.506 . S
Tb101 O106 2.312 . S
Tb101 O110 2.271 . S
Tb101 O112 2.338 . S
Tb101 O119 2.441 . S
C102 O110 1.252 . S
C102 O111 1.253 . S
O103 Tb104 2.271 . S
O103 C113 1.252 . S
Tb104 O103 2.271 . S
Tb104 O107 2.338 . S
Tb104 O111 2.312 . S
Tb104 O115 2.441 . S
Tb104 O116 2.506 . S
C105 O115 1.244 . S
C105 O116 1.265 . S
O106 Tb101 2.312 . S
O106 C113 1.253 . S
O107 Tb104 2.338 . S
O107 C108 1.258 . S
C108 O107 1.258 . S
C108 O109 1.251 . S
O109 C108 1.251 . S
O110 Tb101 2.271 . S
O110 C102 1.252 . S
O111 C102 1.253 . S
O111 Tb104 2.312 . S
O112 Tb101 2.338 . S
O112 C117 1.258 . S
C113 O103 1.252 . S
C113 O106 1.253 . S
C114 O100 1.265 . S
C114 O119 1.244 . S
O115 Tb104 2.441 . S
O115 C105 1.244 . S
O116 Tb104 2.506 . S
O116 C105 1.265 . S
C117 O112 1.258 . S
C117 O118 1.251 . S
O118 C117 1.251 . S
O119 Tb101 2.441 . S
O119 C114 1.244 . S
O120 Tb121 2.506 . S
O120 C134 1.265 . S
Tb121 O120 2.506 . S
Tb121 O126 2.312 1_455 S
Tb121 O130 2.271 . S
Tb121 O132 2.338 . S
Tb121 O139 2.441 . S
C122 O130 1.252 . S
C122 O131 1.253 . S
O123 Tb124 2.271 . S
O123 C133 1.252 . S
Tb124 O123 2.271 . S
Tb124 O127 2.338 . S
Tb124 O131 2.312 1_655 S
Tb124 O135 2.441 . S
Tb124 O136 2.506 . S
C125 O135 1.244 . S
C125 O136 1.265 . S
O126 Tb121 2.312 1_655 S
O126 C133 1.253 . S
O127 Tb124 2.338 . S
O127 C128 1.258 . S
C128 O127 1.258 . S
C128 O129 1.251 . S
O129 C128 1.251 . S
O130 Tb121 2.271 . S
O130 C122 1.252 . S
O131 C122 1.253 . S
O131 Tb124 2.312 1_455 S
O132 Tb121 2.338 . S
O132 C137 1.258 . S
C133 O123 1.252 . S
C133 O126 1.253 . S
C134 O120 1.265 . S
C134 O139 1.244 . S
O135 Tb124 2.441 . S
O135 C125 1.244 . S
O136 Tb124 2.506 . S
O136 C125 1.265 . S
C137 O132 1.258 . S
C137 O138 1.251 . S
O138 C137 1.251 . S
O139 Tb121 2.441 . S
O139 C134 1.244 . S
O140 Tb141 2.506 . S
O140 C154 1.265 . S
Tb141 O140 2.506 . S
Tb141 O146 2.312 . S
Tb141 O150 2.271 . S
Tb141 O152 2.338 . S
Tb141 O159 2.441 . S
C142 O150 1.252 . S
C142 O151 1.253 . S
O143 Tb144 2.271 . S
O143 C153 1.252 . S
Tb144 O143 2.271 . S
Tb144 O147 2.338 . S
Tb144 O151 2.312 . S
Tb144 O155 2.441 . S
Tb144 O156 2.506 . S
C145 O155 1.244 . S
C145 O156 1.265 . S
O146 Tb141 2.312 . S
O146 C153 1.253 . S
O147 Tb144 2.338 . S
O147 C148 1.258 . S
C148 O147 1.258 . S
C148 O149 1.251 . S
O149 C148 1.251 . S
O150 Tb141 2.271 . S
O150 C142 1.252 . S
O151 C142 1.253 . S
O151 Tb144 2.312 . S
O152 Tb141 2.338 . S
O152 C157 1.258 . S
C153 O143 1.252 . S
C153 O146 1.253 . S
C154 O140 1.265 . S
C154 O159 1.244 . S
O155 Tb144 2.441 . S
O155 C145 1.244 . S
O156 Tb144 2.506 . S
O156 C145 1.265 . S
C157 O152 1.258 . S
C157 O158 1.251 . S
O158 C157 1.251 . S
O159 Tb141 2.441 . S
O159 C154 1.244 . S
O160 Tb161 2.506 . S
O160 C174 1.265 . S
Tb161 O160 2.506 . S
Tb161 O166 2.312 1_565 S
Tb161 O170 2.271 . S
Tb161 O172 2.338 . S
Tb161 O179 2.441 . S
C162 O170 1.252 . S
C162 O171 1.253 . S
O163 Tb164 2.271 . S
O163 C173 1.252 . S
Tb164 O163 2.271 . S
Tb164 O167 2.338 . S
Tb164 O171 2.312 1_545 S
Tb164 O175 2.441 . S
Tb164 O176 2.506 . S
C165 O175 1.244 . S
C165 O176 1.265 . S
O166 Tb161 2.312 1_545 S
O166 C173 1.253 . S
O167 Tb164 2.338 . S
O167 C168 1.258 . S
C168 O167 1.258 . S
C168 O169 1.251 . S
O169 C168 1.251 . S
O170 Tb161 2.271 . S
O170 C162 1.252 . S
O171 C162 1.253 . S
O171 Tb164 2.312 1_565 S
O172 Tb161 2.338 . S
O172 C177 1.258 . S
C173 O163 1.252 . S
C173 O166 1.253 . S
C174 O160 1.265 . S
C174 O179 1.244 . S
O175 Tb164 2.441 . S
O175 C165 1.244 . S
O176 Tb164 2.506 . S
O176 C165 1.265 . S
C177 O172 1.258 . S
C177 O178 1.251 . S
O178 C177 1.251 . S
O179 Tb161 2.441 . S
O179 C174 1.244 . S
O180 Tb181 2.506 . S
O180 C194 1.265 . S
Tb181 O180 2.506 . S
Tb181 O186 2.312 . S
Tb181 O190 2.271 . S
Tb181 O192 2.338 . S
Tb181 O199 2.441 . S
C182 O190 1.252 . S
C182 O191 1.253 . S
O183 Tb184 2.271 . S
O183 C193 1.252 . S
Tb184 O183 2.271 . S
Tb184 O187 2.338 . S
Tb184 O191 2.312 . S
Tb184 O195 2.441 . S
Tb184 O196 2.506 . S
C185 O195 1.244 . S
C185 O196 1.265 . S
O186 Tb181 2.312 . S
O186 C193 1.253 . S
O187 Tb184 2.338 . S
O187 C188 1.258 . S
C188 O187 1.258 . S
C188 O189 1.251 . S
O189 C188 1.251 . S
O190 Tb181 2.271 . S
O190 C182 1.252 . S
O191 C182 1.253 . S
O191 Tb184 2.312 . S
O192 Tb181 2.338 . S
O192 C197 1.258 . S
C193 O183 1.252 . S
C193 O186 1.253 . S
C194 O180 1.265 . S
C194 O199 1.244 . S
O195 Tb184 2.441 . S
O195 C185 1.244 . S
O196 Tb184 2.506 . S
O196 C185 1.265 . S
C197 O192 1.258 . S
C197 O198 1.251 . S
O198 C197 1.251 . S
O199 Tb181 2.441 . S
O199 C194 1.244 . S
O200 Tb201 2.506 . S
O200 C214 1.265 . S
Tb201 O200 2.506 . S
Tb201 O206 2.312 1_545 S
Tb201 O210 2.271 . S
Tb201 O212 2.338 . S
Tb201 O219 2.441 . S
C202 O210 1.252 . S
C202 O211 1.253 . S
O203 Tb204 2.271 . S
O203 C213 1.252 . S
Tb204 O203 2.271 . S
Tb204 O207 2.338 . S
Tb204 O211 2.312 1_565 S
Tb204 O215 2.441 . S
Tb204 O216 2.506 . S
C205 O215 1.244 . S
C205 O216 1.265 . S
O206 Tb201 2.312 1_565 S
O206 C213 1.253 . S
O207 Tb204 2.338 . S
O207 C208 1.258 . S
C208 O207 1.258 . S
C208 O209 1.251 . S
O209 C208 1.251 . S
O210 Tb201 2.271 . S
O210 C202 1.252 . S
O211 C202 1.253 . S
O211 Tb204 2.312 1_545 S
O212 Tb201 2.338 . S
O212 C217 1.258 . S
C213 O203 1.252 . S
C213 O206 1.253 . S
C214 O200 1.265 . S
C214 O219 1.244 . S
O215 Tb204 2.441 . S
O215 C205 1.244 . S
O216 Tb204 2.506 . S
O216 C205 1.265 . S
C217 O212 1.258 . S
C217 O218 1.251 . S
O218 C217 1.251 . S
O219 Tb201 2.441 . S
O219 C214 1.244 . S
O220 Tb221 2.506 . S
O220 C234 1.265 . S
Tb221 O220 2.506 . S
Tb221 O226 2.312 . S
Tb221 O230 2.271 . S
Tb221 O232 2.338 . S
Tb221 O239 2.441 . S
C222 O230 1.252 . S
C222 O231 1.253 . S
O223 Tb224 2.271 . S
O223 C233 1.252 . S
Tb224 O223 2.271 . S
Tb224 O227 2.338 . S
Tb224 O231 2.312 . S
Tb224 O235 2.441 . S
Tb224 O236 2.506 . S
C225 O235 1.244 . S
C225 O236 1.265 . S
O226 Tb221 2.312 . S
O226 C233 1.253 . S
O227 Tb224 2.338 . S
O227 C228 1.258 . S
C228 O227 1.258 . S
C228 O229 1.251 . S
O229 C228 1.251 . S
O230 Tb221 2.271 . S
O230 C222 1.252 . S
O231 C222 1.253 . S
O231 Tb224 2.312 . S
O232 Tb221 2.338 . S
O232 C237 1.258 . S
C233 O223 1.252 . S
C233 O226 1.253 . S
C234 O220 1.265 . S
C234 O239 1.244 . S
O235 Tb224 2.441 . S
O235 C225 1.244 . S
O236 Tb224 2.506 . S
O236 C225 1.265 . S
C237 O232 1.258 . S
C237 O238 1.251 . S
O238 C237 1.251 . S
O239 Tb221 2.441 . S
O239 C234 1.244 . S
O240 Tb241 2.506 . S
O240 C254 1.265 . S
Tb241 O240 2.506 . S
Tb241 O246 2.312 1_545 S
Tb241 O250 2.271 . S
Tb241 O252 2.338 . S
Tb241 O259 2.441 . S
C242 O250 1.252 . S
C242 O251 1.253 . S
O243 Tb244 2.271 . S
O243 C253 1.252 . S
Tb244 O243 2.271 . S
Tb244 O247 2.338 . S
Tb244 O251 2.312 1_565 S
Tb244 O255 2.441 . S
Tb244 O256 2.506 . S
C245 O255 1.244 . S
C245 O256 1.265 . S
O246 Tb241 2.312 1_565 S
O246 C253 1.253 . S
O247 Tb244 2.338 . S
O247 C248 1.258 . S
C248 O247 1.258 . S
C248 O249 1.251 . S
O249 C248 1.251 . S
O250 Tb241 2.271 . S
O250 C242 1.252 . S
O251 C242 1.253 . S
O251 Tb244 2.312 1_545 S
O252 Tb241 2.338 . S
O252 C257 1.258 . S
C253 O243 1.252 . S
C253 O246 1.253 . S
C254 O240 1.265 . S
C254 O259 1.244 . S
O255 Tb244 2.441 . S
O255 C245 1.244 . S
O256 Tb244 2.506 . S
O256 C245 1.265 . S
C257 O252 1.258 . S
C257 O258 1.251 . S
O258 C257 1.251 . S
O259 Tb241 2.441 . S
O259 C254 1.244 . S
O260 Tb261 2.506 . S
O260 C274 1.265 . S
Tb261 O260 2.506 . S
Tb261 O266 2.312 . S
Tb261 O270 2.271 . S
Tb261 O272 2.338 . S
Tb261 O279 2.441 . S
C262 O270 1.252 . S
C262 O271 1.253 . S
O263 Tb264 2.271 . S
O263 C273 1.252 . S
Tb264 O263 2.271 . S
Tb264 O267 2.338 . S
Tb264 O271 2.312 . S
Tb264 O275 2.441 . S
Tb264 O276 2.506 . S
C265 O275 1.244 . S
C265 O276 1.265 . S
O266 Tb261 2.312 . S
O266 C273 1.253 . S
O267 Tb264 2.338 . S
O267 C268 1.258 . S
C268 O267 1.258 . S
C268 O269 1.251 . S
O269 C268 1.251 . S
O270 Tb261 2.271 . S
O270 C262 1.252 . S
O271 C262 1.253 . S
O271 Tb264 2.312 . S
O272 Tb261 2.338 . S
O272 C277 1.258 . S
C273 O263 1.252 . S
C273 O266 1.253 . S
C274 O260 1.265 . S
C274 O279 1.244 . S
O275 Tb264 2.441 . S
O275 C265 1.244 . S
O276 Tb264 2.506 . S
O276 C265 1.265 . S
C277 O272 1.258 . S
C277 O278 1.251 . S
O278 C277 1.251 . S
O279 Tb261 2.441 . S
O279 C274 1.244 . S
O280 Tb281 2.506 . S
O280 C294 1.265 . S
Tb281 O280 2.506 . S
Tb281 O286 2.312 1_565 S
Tb281 O290 2.271 . S
Tb281 O292 2.338 . S
Tb281 O299 2.441 . S
C282 O290 1.252 . S
C282 O291 1.253 . S
O283 Tb284 2.271 . S
O283 C293 1.252 . S
Tb284 O283 2.271 . S
Tb284 O287 2.338 . S
Tb284 O291 2.312 1_545 S
Tb284 O295 2.441 . S
Tb284 O296 2.506 . S
C285 O295 1.244 . S
C285 O296 1.265 . S
O286 Tb281 2.312 1_545 S
O286 C293 1.253 . S
O287 Tb284 2.338 . S
O287 C288 1.258 . S
C288 O287 1.258 . S
C288 O289 1.251 . S
O289 C288 1.251 . S
O290 Tb281 2.271 . S
O290 C282 1.252 . S
O291 C282 1.253 . S
O291 Tb284 2.312 1_565 S
O292 Tb281 2.338 . S
O292 C297 1.258 . S
C293 O283 1.252 . S
C293 O286 1.253 . S
C294 O280 1.265 . S
C294 O299 1.244 . S
O295 Tb284 2.441 . S
O295 C285 1.244 . S
O296 Tb284 2.506 . S
O296 C285 1.265 . S
C297 O292 1.258 . S
C297 O298 1.251 . S
O298 C297 1.251 . S
O299 Tb281 2.441 . S
O299 C294 1.244 . S
O300 Tb301 2.506 . S
O300 C314 1.265 . S
Tb301 O300 2.506 . S
Tb301 O306 2.312 . S
Tb301 O310 2.271 . S
Tb301 O312 2.338 . S
Tb301 O319 2.441 . S
C302 O310 1.252 . S
C302 O311 1.253 . S
O303 Tb304 2.271 . S
O303 C313 1.252 . S
Tb304 O303 2.271 . S
Tb304 O307 2.338 . S
Tb304 O311 2.312 . S
Tb304 O315 2.441 . S
Tb304 O316 2.506 . S
C305 O315 1.244 . S
C305 O316 1.265 . S
O306 Tb301 2.312 . S
O306 C313 1.253 . S
O307 Tb304 2.338 . S
O307 C308 1.258 . S
C308 O307 1.258 . S
C308 O309 1.251 . S
O309 C308 1.251 . S
O310 Tb301 2.271 . S
O310 C302 1.252 . S
O311 C302 1.253 . S
O311 Tb304 2.312 . S
O312 Tb301 2.338 . S
O312 C317 1.258 . S
C313 O303 1.252 . S
C313 O306 1.253 . S
C314 O300 1.265 . S
C314 O319 1.244 . S
O315 Tb304 2.441 . S
O315 C305 1.244 . S
O316 Tb304 2.506 . S
O316 C305 1.265 . S
C317 O312 1.258 . S
C317 O318 1.251 . S
O318 C317 1.251 . S
O319 Tb301 2.441 . S
O319 C314 1.244 . S
O320 Tb321 2.506 . S
O320 C334 1.265 . S
Tb321 O320 2.506 . S
Tb321 O326 2.312 1_556 S
Tb321 O330 2.271 . S
Tb321 O332 2.338 . S
Tb321 O339 2.441 . S
C322 O330 1.252 . S
C322 O331 1.253 . S
O323 Tb324 2.271 . S
O323 C333 1.252 . S
Tb324 O323 2.271 . S
Tb324 O327 2.338 . S
Tb324 O331 2.312 1_554 S
Tb324 O335 2.441 . S
Tb324 O336 2.506 . S
C325 O335 1.244 . S
C325 O336 1.265 . S
O326 Tb321 2.312 1_554 S
O326 C333 1.253 . S
O327 Tb324 2.338 . S
O327 C328 1.258 . S
C328 O327 1.258 . S
C328 O329 1.251 . S
O329 C328 1.251 . S
O330 Tb321 2.271 . S
O330 C322 1.252 . S
O331 C322 1.253 . S
O331 Tb324 2.312 1_556 S
O332 Tb321 2.338 . S
O332 C337 1.258 . S
C333 O323 1.252 . S
C333 O326 1.253 . S
C334 O320 1.265 . S
C334 O339 1.244 . S
O335 Tb324 2.441 . S
O335 C325 1.244 . S
O336 Tb324 2.506 . S
O336 C325 1.265 . S
C337 O332 1.258 . S
C337 O338 1.251 . S
O338 C337 1.251 . S
O339 Tb321 2.441 . S
O339 C334 1.244 . S
O340 Tb341 2.506 . S
O340 C354 1.265 . S
Tb341 O340 2.506 . S
Tb341 O346 2.312 1_554 S
Tb341 O350 2.271 . S
Tb341 O352 2.338 . S
Tb341 O359 2.441 . S
C342 O350 1.252 . S
C342 O351 1.253 . S
O343 Tb344 2.271 . S
O343 C353 1.252 . S
Tb344 O343 2.271 . S
Tb344 O347 2.338 . S
Tb344 O351 2.312 1_556 S
Tb344 O355 2.441 . S
Tb344 O356 2.506 . S
C345 O355 1.244 . S
C345 O356 1.265 . S
O346 Tb341 2.312 1_556 S
O346 C353 1.253 . S
O347 Tb344 2.338 . S
O347 C348 1.258 . S
C348 O347 1.258 . S
C348 O349 1.251 . S
O349 C348 1.251 . S
O350 Tb341 2.271 . S
O350 C342 1.252 . S
O351 C342 1.253 . S
O351 Tb344 2.312 1_554 S
O352 Tb341 2.338 . S
O352 C357 1.258 . S
C353 O343 1.252 . S
C353 O346 1.253 . S
C354 O340 1.265 . S
C354 O359 1.244 . S
O355 Tb344 2.441 . S
O355 C345 1.244 . S
O356 Tb344 2.506 . S
O356 C345 1.265 . S
C357 O352 1.258 . S
C357 O358 1.251 . S
O358 C357 1.251 . S
O359 Tb341 2.441 . S
O359 C354 1.244 . S
O360 Tb361 2.506 . S
O360 C374 1.265 . S
Tb361 O360 2.506 . S
Tb361 O366 2.312 . S
Tb361 O370 2.271 . S
Tb361 O372 2.338 . S
Tb361 O379 2.441 . S
C362 O370 1.252 . S
C362 O371 1.253 . S
O363 Tb364 2.271 . S
O363 C373 1.252 . S
Tb364 O363 2.271 . S
Tb364 O367 2.338 . S
Tb364 O371 2.312 . S
Tb364 O375 2.441 . S
Tb364 O376 2.506 . S
C365 O375 1.244 . S
C365 O376 1.265 . S
O366 Tb361 2.312 . S
O366 C373 1.253 . S
O367 Tb364 2.338 . S
O367 C368 1.258 . S
C368 O367 1.258 . S
C368 O369 1.251 . S
O369 C368 1.251 . S
O370 Tb361 2.271 . S
O370 C362 1.252 . S
O371 C362 1.253 . S
O371 Tb364 2.312 . S
O372 Tb361 2.338 . S
O372 C377 1.258 . S
C373 O363 1.252 . S
C373 O366 1.253 . S
C374 O360 1.265 . S
C374 O379 1.244 . S
O375 Tb364 2.441 . S
O375 C365 1.244 . S
O376 Tb364 2.506 . S
O376 C365 1.265 . S
C377 O372 1.258 . S
C377 O378 1.251 . S
O378 C377 1.251 . S
O379 Tb361 2.441 . S
O379 C374 1.244 . S
O380 Tb381 2.506 . S
O380 C394 1.265 . S
Tb381 O380 2.506 . S
Tb381 O386 2.312 1_554 S
Tb381 O390 2.271 . S
Tb381 O392 2.338 . S
Tb381 O399 2.441 . S
C382 O390 1.252 . S
C382 O391 1.253 . S
O383 Tb384 2.271 . S
O383 C393 1.252 . S
Tb384 O383 2.271 . S
Tb384 O387 2.338 . S
Tb384 O391 2.312 1_556 S
Tb384 O395 2.441 . S
Tb384 O396 2.506 . S
C385 O395 1.244 . S
C385 O396 1.265 . S
O386 Tb381 2.312 1_556 S
O386 C393 1.253 . S
O387 Tb384 2.338 . S
O387 C388 1.258 . S
C388 O387 1.258 . S
C388 O389 1.251 . S
O389 C388 1.251 . S
O390 Tb381 2.271 . S
O390 C382 1.252 . S
O391 C382 1.253 . S
O391 Tb384 2.312 1_554 S
O392 Tb381 2.338 . S
O392 C397 1.258 . S
C393 O383 1.252 . S
C393 O386 1.253 . S
C394 O380 1.265 . S
C394 O399 1.244 . S
O395 Tb384 2.441 . S
O395 C385 1.244 . S
O396 Tb384 2.506 . S
O396 C385 1.265 . S
C397 O392 1.258 . S
C397 O398 1.251 . S
O398 C397 1.251 . S
O399 Tb381 2.441 . S
O399 C394 1.244 . S
O400 Tb401 2.506 . S
O400 C414 1.265 . S
Tb401 O400 2.506 . S
Tb401 O406 2.312 . S
Tb401 O410 2.271 . S
Tb401 O412 2.338 . S
Tb401 O419 2.441 . S
C402 O410 1.252 . S
C402 O411 1.253 . S
O403 Tb404 2.271 . S
O403 C413 1.252 . S
Tb404 O403 2.271 . S
Tb404 O407 2.338 . S
Tb404 O411 2.312 . S
Tb404 O415 2.441 . S
Tb404 O416 2.506 . S
C405 O415 1.244 . S
C405 O416 1.265 . S
O406 Tb401 2.312 . S
O406 C413 1.253 . S
O407 Tb404 2.338 . S
O407 C408 1.258 . S
C408 O407 1.258 . S
C408 O409 1.251 . S
O409 C408 1.251 . S
O410 Tb401 2.271 . S
O410 C402 1.252 . S
O411 C402 1.253 . S
O411 Tb404 2.312 . S
O412 Tb401 2.338 . S
O412 C417 1.258 . S
C413 O403 1.252 . S
C413 O406 1.253 . S
C414 O400 1.265 . S
C414 O419 1.244 . S
O415 Tb404 2.441 . S
O415 C405 1.244 . S
O416 Tb404 2.506 . S
O416 C405 1.265 . S
C417 O412 1.258 . S
C417 O418 1.251 . S
O418 C417 1.251 . S
O419 Tb401 2.441 . S
O419 C414 1.244 . S
O420 Tb421 2.506 . S
O420 C434 1.265 . S
Tb421 O420 2.506 . S
Tb421 O426 2.312 1_556 S
Tb421 O430 2.271 . S
Tb421 O432 2.338 . S
Tb421 O439 2.441 . S
C422 O430 1.252 . S
C422 O431 1.253 . S
O423 Tb424 2.271 . S
O423 C433 1.252 . S
Tb424 O423 2.271 . S
Tb424 O427 2.338 . S
Tb424 O431 2.312 1_554 S
Tb424 O435 2.441 . S
Tb424 O436 2.506 . S
C425 O435 1.244 . S
C425 O436 1.265 . S
O426 Tb421 2.312 1_554 S
O426 C433 1.253 . S
O427 Tb424 2.338 . S
O427 C428 1.258 . S
C428 O427 1.258 . S
C428 O429 1.251 . S
O429 C428 1.251 . S
O430 Tb421 2.271 . S
O430 C422 1.252 . S
O431 C422 1.253 . S
O431 Tb424 2.312 1_556 S
O432 Tb421 2.338 . S
O432 C437 1.258 . S
C433 O423 1.252 . S
C433 O426 1.253 . S
C434 O420 1.265 . S
C434 O439 1.244 . S
O435 Tb424 2.441 . S
O435 C425 1.244 . S
O436 Tb424 2.506 . S
O436 C425 1.265 . S
C437 O432 1.258 . S
C437 O438 1.251 . S
O438 C437 1.251 . S
O439 Tb421 2.441 . S
O439 C434 1.244 . S
O440 Tb441 2.506 . S
O440 C454 1.265 . S
Tb441 O440 2.506 . S
Tb441 O446 2.312 . S
Tb441 O450 2.271 . S
Tb441 O452 2.338 . S
Tb441 O459 2.441 . S
C442 O450 1.252 . S
C442 O451 1.253 . S
O443 Tb444 2.271 . S
O443 C453 1.252 . S
Tb444 O443 2.271 . S
Tb444 O447 2.338 . S
Tb444 O451 2.312 . S
Tb444 O455 2.441 . S
Tb444 O456 2.506 . S
C445 O455 1.244 . S
C445 O456 1.265 . S
O446 Tb441 2.312 . S
O446 C453 1.253 . S
O447 Tb444 2.338 . S
O447 C448 1.258 . S
C448 O447 1.258 . S
C448 O449 1.251 . S
O449 C448 1.251 . S
O450 Tb441 2.271 . S
O450 C442 1.252 . S
O451 C442 1.253 . S
O451 Tb444 2.312 . S
O452 Tb441 2.338 . S
O452 C457 1.258 . S
C453 O443 1.252 . S
C453 O446 1.253 . S
C454 O440 1.265 . S
C454 O459 1.244 . S
O455 Tb444 2.441 . S
O455 C445 1.244 . S
O456 Tb444 2.506 . S
O456 C445 1.265 . S
C457 O452 1.258 . S
C457 O458 1.251 . S
O458 C457 1.251 . S
O459 Tb441 2.441 . S
O459 C454 1.244 . S
O460 Tb461 2.506 . S
O460 C474 1.265 . S
Tb461 O460 2.506 . S
Tb461 O466 2.312 . S
Tb461 O470 2.271 . S
Tb461 O472 2.338 . S
Tb461 O479 2.441 . S
C462 O470 1.252 . S
C462 O471 1.253 . S
O463 Tb464 2.271 . S
O463 C473 1.252 . S
Tb464 O463 2.271 . S
Tb464 O467 2.338 . S
Tb464 O471 2.312 . S
Tb464 O475 2.441 . S
Tb464 O476 2.506 . S
C465 O475 1.244 . S
C465 O476 1.265 . S
O466 Tb461 2.312 . S
O466 C473 1.253 . S
O467 Tb464 2.338 . S
O467 C468 1.258 . S
C468 O467 1.258 . S
C468 O469 1.251 . S
O469 C468 1.251 . S
O470 Tb461 2.271 . S
O470 C462 1.252 . S
O471 C462 1.253 . S
O471 Tb464 2.312 . S
O472 Tb461 2.338 . S
O472 C477 1.258 . S
C473 O463 1.252 . S
C473 O466 1.253 . S
C474 O460 1.265 . S
C474 O479 1.244 . S
O475 Tb464 2.441 . S
O475 C465 1.244 . S
O476 Tb464 2.506 . S
O476 C465 1.265 . S
C477 O472 1.258 . S
C477 O478 1.251 . S
O478 C477 1.251 . S
O479 Tb461 2.441 . S
O479 C474 1.244 . S
C480 C481 1.349 . S
C480 C482 1.327 . S
C480 H505 0.950 . S
C481 C480 1.349 . S
C481 C497 1.349 . S
C482 C480 1.327 . S
C482 C501 1.429 . S
C482 H506 0.950 . S
C483 C500 1.574 . S
C483 C502 1.368 . S
C483 H507 0.949 . S
H484 C488 0.949 . S
C485 C486 1.349 . S
C485 C487 1.327 . S
C485 H508 0.950 . S
C486 C485 1.349 . S
C486 C498 1.349 . S
C487 C485 1.327 . S
C487 C503 1.429 . S
C487 H509 0.950 . S
C488 H484 0.949 . S
C488 C496 1.574 . S
C488 C504 1.368 . S
H489 C497 0.950 . S
H490 C495 0.950 . S
H491 C496 0.949 . S
H492 C498 0.950 . S
H493 C499 0.950 . S
H494 C500 0.949 . S
C495 H490 0.950 . S
C495 C497 1.327 . S
C495 C501 1.429 . S
C496 C488 1.574 . S
C496 H491 0.949 . S
C496 C502 1.368 . S
C497 C481 1.349 . S
C497 H489 0.950 . S
C497 C495 1.327 . S
C498 C486 1.349 . S
C498 H492 0.950 . S
C498 C499 1.327 . S
C499 H493 0.950 . S
C499 C498 1.327 . S
C499 C503 1.429 . S
C500 C483 1.574 . S
C500 H494 0.949 . S
C500 C504 1.368 . S
C501 C482 1.429 . S
C501 C495 1.429 . S
C501 C502 1.523 . S
C502 C483 1.368 . S
C502 C496 1.368 . S
C502 C501 1.523 . S
C503 C487 1.429 . S
C503 C499 1.429 . S
C503 C504 1.523 . S
C504 C488 1.368 . S
C504 C500 1.368 . S
C504 C503 1.523 . S
H505 C480 0.950 . S
H506 C482 0.950 . S
H507 C483 0.949 . S
H508 C485 0.950 . S
H509 C487 0.950 . S
C510 C511 1.349 . S
C510 C512 1.327 . S
C510 H535 0.950 . S
C511 C510 1.349 . S
C511 C527 1.349 . S
C512 C510 1.327 . S
C512 C531 1.429 . S
C512 H536 0.950 . S
C513 C530 1.574 . S
C513 C532 1.368 . S
C513 H537 0.949 . S
H514 C518 0.949 . S
C515 C516 1.349 . S
C515 C517 1.327 . S
C515 H538 0.950 . S
C516 C515 1.349 . S
C516 C528 1.349 . S
C517 C515 1.327 . S
C517 C533 1.429 . S
C517 H539 0.950 . S
C518 H514 0.949 . S
C518 C526 1.574 . S
C518 C534 1.368 . S
H519 C527 0.950 . S
H520 C525 0.950 . S
H521 C526 0.949 . S
H522 C528 0.950 . S
H523 C529 0.950 . S
H524 C530 0.949 . S
C525 H520 0.950 . S
C525 C527 1.327 . S
C525 C531 1.429 . S
C526 C518 1.574 . S
C526 H521 0.949 . S
C526 C532 1.368 . S
C527 C511 1.349 . S
C527 H519 0.950 . S
C527 C525 1.327 . S
C528 C516 1.349 . S
C528 H522 0.950 . S
C528 C529 1.327 . S
C529 H523 0.950 . S
C529 C528 1.327 . S
C529 C533 1.429 . S
C530 C513 1.574 . S
C530 H524 0.949 . S
C530 C534 1.368 . S
C531 C512 1.429 . S
C531 C525 1.429 . S
C531 C532 1.523 . S
C532 C513 1.368 . S
C532 C526 1.368 . S
C532 C531 1.523 . S
C533 C517 1.429 . S
C533 C529 1.429 . S
C533 C534 1.523 . S
C534 C518 1.368 . S
C534 C530 1.368 . S
C534 C533 1.523 . S
H535 C510 0.950 . S
H536 C512 0.950 . S
H537 C513 0.949 . S
H538 C515 0.950 . S
H539 C517 0.950 . S
C540 C541 1.349 . S
C540 C542 1.327 . S
C540 H565 0.950 . S
C541 C540 1.349 . S
C541 C557 1.349 . S
C542 C540 1.327 . S
C542 C561 1.429 . S
C542 H566 0.950 . S
C543 C560 1.574 . S
C543 C562 1.368 . S
C543 H567 0.949 . S
H544 C548 0.949 . S
C545 C546 1.349 . S
C545 C547 1.327 . S
C545 H568 0.950 . S
C546 C545 1.349 . S
C546 C558 1.349 . S
C547 C545 1.327 . S
C547 C563 1.429 . S
C547 H569 0.950 . S
C548 H544 0.949 . S
C548 C556 1.574 . S
C548 C564 1.368 . S
H549 C557 0.950 . S
H550 C555 0.950 . S
H551 C556 0.949 . S
H552 C558 0.950 . S
H553 C559 0.950 . S
H554 C560 0.949 . S
C555 H550 0.950 . S
C555 C557 1.327 . S
C555 C561 1.429 . S
C556 C548 1.574 . S
C556 H551 0.949 . S
C556 C562 1.368 . S
C557 C541 1.349 . S
C557 H549 0.950 . S
C557 C555 1.327 . S
C558 C546 1.349 . S
C558 H552 0.950 . S
C558 C559 1.327 . S
C559 H553 0.950 . S
C559 C558 1.327 . S
C559 C563 1.429 . S
C560 C543 1.574 . S
C560 H554 0.949 . S
C560 C564 1.368 . S
C561 C542 1.429 . S
C561 C555 1.429 . S
C561 C562 1.523 . S
C562 C543 1.368 . S
C562 C556 1.368 . S
C562 C561 1.523 . S
C563 C547 1.429 . S
C563 C559 1.429 . S
C563 C564 1.523 . S
C564 C548 1.368 . S
C564 C560 1.368 . S
C564 C563 1.523 . S
H565 C540 0.950 . S
H566 C542 0.950 . S
H567 C543 0.949 . S
H568 C545 0.950 . S
H569 C547 0.950 . S
C570 C571 1.349 . S
C570 C572 1.327 . S
C570 H595 0.950 . S
C571 C570 1.349 . S
C571 C587 1.349 . S
C572 C570 1.327 . S
C572 C591 1.429 . S
C572 H596 0.950 . S
C573 C590 1.574 . S
C573 C592 1.368 . S
C573 H597 0.949 . S
H574 C578 0.949 . S
C575 C576 1.349 . S
C575 C577 1.327 . S
C575 H598 0.950 . S
C576 C575 1.349 . S
C576 C588 1.349 . S
C577 C575 1.327 . S
C577 C593 1.429 . S
C577 H599 0.950 . S
C578 H574 0.949 . S
C578 C586 1.574 . S
C578 C594 1.368 . S
H579 C587 0.950 . S
H580 C585 0.950 . S
H581 C586 0.949 . S
H582 C588 0.950 . S
H583 C589 0.950 . S
H584 C590 0.949 . S
C585 H580 0.950 . S
C585 C587 1.327 . S
C585 C591 1.429 . S
C586 C578 1.574 . S
C586 H581 0.949 . S
C586 C592 1.368 . S
C587 C571 1.349 . S
C587 H579 0.950 . S
C587 C585 1.327 . S
C588 C576 1.349 . S
C588 H582 0.950 . S
C588 C589 1.327 . S
C589 H583 0.950 . S
C589 C588 1.327 . S
C589 C593 1.429 . S
C590 C573 1.574 . S
C590 H584 0.949 . S
C590 C594 1.368 . S
C591 C572 1.429 . S
C591 C585 1.429 . S
C591 C592 1.523 . S
C592 C573 1.368 . S
C592 C586 1.368 . S
C592 C591 1.523 . S
C593 C577 1.429 . S
C593 C589 1.429 . S
C593 C594 1.523 . S
C594 C578 1.368 . S
C594 C590 1.368 . S
C594 C593 1.523 . S
H595 C570 0.950 . S
H596 C572 0.950 . S
H597 C573 0.949 . S
H598 C575 0.950 . S
H599 C577 0.950 . S
C600 C601 1.349 . S
C600 C602 1.327 . S
C600 H625 0.950 . S
C601 C600 1.349 . S
C601 C617 1.349 . S
C602 C600 1.327 . S
C602 C621 1.429 . S
C602 H626 0.950 . S
C603 C620 1.574 . S
C603 C622 1.368 . S
C603 H627 0.949 . S
H604 C608 0.949 . S
C605 C606 1.349 . S
C605 C607 1.327 . S
C605 H628 0.950 . S
C606 C605 1.349 . S
C606 C618 1.349 . S
C607 C605 1.327 . S
C607 C623 1.429 . S
C607 H629 0.950 . S
C608 H604 0.949 . S
C608 C616 1.574 . S
C608 C624 1.368 . S
H609 C617 0.950 . S
H610 C615 0.950 . S
H611 C616 0.949 . S
H612 C618 0.950 . S
H613 C619 0.950 . S
H614 C620 0.949 . S
C615 H610 0.950 . S
C615 C617 1.327 . S
C615 C621 1.429 . S
C616 C608 1.574 . S
C616 H611 0.949 . S
C616 C622 1.368 . S
C617 C601 1.349 . S
C617 H609 0.950 . S
C617 C615 1.327 . S
C618 C606 1.349 . S
C618 H612 0.950 . S
C618 C619 1.327 . S
C619 H613 0.950 . S
C619 C618 1.327 . S
C619 C623 1.429 . S
C620 C603 1.574 . S
C620 H614 0.949 . S
C620 C624 1.368 . S
C621 C602 1.429 . S
C621 C615 1.429 . S
C621 C622 1.523 . S
C622 C603 1.368 . S
C622 C616 1.368 . S
C622 C621 1.523 . S
C623 C607 1.429 . S
C623 C619 1.429 . S
C623 C624 1.523 . S
C624 C608 1.368 . S
C624 C620 1.368 . S
C624 C623 1.523 . S
H625 C600 0.950 . S
H626 C602 0.950 . S
H627 C603 0.949 . S
H628 C605 0.950 . S
H629 C607 0.950 . S
C630 C631 1.349 . S
C630 C632 1.327 . S
C630 H655 0.950 . S
C631 C630 1.349 . S
C631 C647 1.349 . S
C632 C630 1.327 . S
C632 C651 1.429 . S
C632 H656 0.950 . S
C633 C650 1.574 . S
C633 C652 1.368 . S
C633 H657 0.949 . S
H634 C638 0.949 . S
C635 C636 1.349 . S
C635 C637 1.327 . S
C635 H658 0.950 . S
C636 C635 1.349 . S
C636 C648 1.349 . S
C637 C635 1.327 . S
C637 C653 1.429 . S
C637 H659 0.950 . S
C638 H634 0.949 . S
C638 C646 1.574 . S
C638 C654 1.368 . S
H639 C647 0.950 . S
H640 C645 0.950 . S
H641 C646 0.949 . S
H642 C648 0.950 . S
H643 C649 0.950 . S
H644 C650 0.949 . S
C645 H640 0.950 . S
C645 C647 1.327 . S
C645 C651 1.429 . S
C646 C638 1.574 . S
C646 H641 0.949 . S
C646 C652 1.368 . S
C647 C631 1.349 . S
C647 H639 0.950 . S
C647 C645 1.327 . S
C648 C636 1.349 . S
C648 H642 0.950 . S
C648 C649 1.327 . S
C649 H643 0.950 . S
C649 C648 1.327 . S
C649 C653 1.429 . S
C650 C633 1.574 . S
C650 H644 0.949 . S
C650 C654 1.368 . S
C651 C632 1.429 . S
C651 C645 1.429 . S
C651 C652 1.523 . S
C652 C633 1.368 . S
C652 C646 1.368 . S
C652 C651 1.523 . S
C653 C637 1.429 . S
C653 C649 1.429 . S
C653 C654 1.523 . S
C654 C638 1.368 . S
C654 C650 1.368 . S
C654 C653 1.523 . S
H655 C630 0.950 . S
H656 C632 0.950 . S
H657 C633 0.949 . S
H658 C635 0.950 . S
H659 C637 0.950 . S
C660 C661 1.349 . S
C660 C662 1.327 . S
C660 H685 0.950 . S
C661 C660 1.349 . S
C661 C677 1.349 . S
C662 C660 1.327 . S
C662 C681 1.429 . S
C662 H686 0.950 . S
C663 C680 1.574 . S
C663 C682 1.368 . S
C663 H687 0.949 . S
H664 C668 0.949 . S
C665 C666 1.349 . S
C665 C667 1.327 . S
C665 H688 0.950 . S
C666 C665 1.349 . S
C666 C678 1.349 . S
C667 C665 1.327 . S
C667 C683 1.429 . S
C667 H689 0.950 . S
C668 H664 0.949 . S
C668 C676 1.574 . S
C668 C684 1.368 . S
H669 C677 0.950 . S
H670 C675 0.950 . S
H671 C676 0.949 . S
H672 C678 0.950 . S
H673 C679 0.950 . S
H674 C680 0.949 . S
C675 H670 0.950 . S
C675 C677 1.327 . S
C675 C681 1.429 . S
C676 C668 1.574 . S
C676 H671 0.949 . S
C676 C682 1.368 . S
C677 C661 1.349 . S
C677 H669 0.950 . S
C677 C675 1.327 . S
C678 C666 1.349 . S
C678 H672 0.950 . S
C678 C679 1.327 . S
C679 H673 0.950 . S
C679 C678 1.327 . S
C679 C683 1.429 . S
C680 C663 1.574 . S
C680 H674 0.949 . S
C680 C684 1.368 . S
C681 C662 1.429 . S
C681 C675 1.429 . S
C681 C682 1.523 . S
C682 C663 1.368 . S
C682 C676 1.368 . S
C682 C681 1.523 . S
C683 C667 1.429 . S
C683 C679 1.429 . S
C683 C684 1.523 . S
C684 C668 1.368 . S
C684 C680 1.368 . S
C684 C683 1.523 . S
H685 C660 0.950 . S
H686 C662 0.950 . S
H687 C663 0.949 . S
H688 C665 0.950 . S
H689 C667 0.950 . S
C690 C691 1.349 . S
C690 C692 1.327 . S
C690 H715 0.950 . S
C691 C690 1.349 . S
C691 C707 1.349 . S
C692 C690 1.327 . S
C692 C711 1.429 . S
C692 H716 0.950 . S
C693 C710 1.574 . S
C693 C712 1.368 . S
C693 H717 0.949 . S
H694 C698 0.949 . S
C695 C696 1.349 . S
C695 C697 1.327 . S
C695 H718 0.950 . S
C696 C695 1.349 . S
C696 C708 1.349 . S
C697 C695 1.327 . S
C697 C713 1.429 . S
C697 H719 0.950 . S
C698 H694 0.949 . S
C698 C706 1.574 . S
C698 C714 1.368 . S
H699 C707 0.950 . S
H700 C705 0.950 . S
H701 C706 0.949 . S
H702 C708 0.950 . S
H703 C709 0.950 . S
H704 C710 0.949 . S
C705 H700 0.950 . S
C705 C707 1.327 . S
C705 C711 1.429 . S
C706 C698 1.574 . S
C706 H701 0.949 . S
C706 C712 1.368 . S
C707 C691 1.349 . S
C707 H699 0.950 . S
C707 C705 1.327 . S
C708 C696 1.349 . S
C708 H702 0.950 . S
C708 C709 1.327 . S
C709 H703 0.950 . S
C709 C708 1.327 . S
C709 C713 1.429 . S
C710 C693 1.574 . S
C710 H704 0.949 . S
C710 C714 1.368 . S
C711 C692 1.429 . S
C711 C705 1.429 . S
C711 C712 1.523 . S
C712 C693 1.368 . S
C712 C706 1.368 . S
C712 C711 1.523 . S
C713 C697 1.429 . S
C713 C709 1.429 . S
C713 C714 1.523 . S
C714 C698 1.368 . S
C714 C710 1.368 . S
C714 C713 1.523 . S
H715 C690 0.950 . S
H716 C692 0.950 . S
H717 C693 0.949 . S
H718 C695 0.950 . S
H719 C697 0.950 . S
C720 C721 1.349 . S
C720 C722 1.327 . S
C720 H745 0.950 . S
C721 C720 1.349 . S
C721 C737 1.349 . S
C722 C720 1.327 . S
C722 C741 1.429 . S
C722 H746 0.950 . S
C723 C740 1.574 . S
C723 C742 1.368 . S
C723 H747 0.949 . S
H724 C728 0.949 . S
C725 C726 1.349 . S
C725 C727 1.327 . S
C725 H748 0.950 . S
C726 C725 1.349 . S
C726 C738 1.349 . S
C727 C725 1.327 . S
C727 C743 1.429 . S
C727 H749 0.950 . S
C728 H724 0.949 . S
C728 C736 1.574 . S
C728 C744 1.368 . S
H729 C737 0.950 . S
H730 C735 0.950 . S
H731 C736 0.949 . S
H732 C738 0.950 . S
H733 C739 0.950 . S
H734 C740 0.949 . S
C735 H730 0.950 . S
C735 C737 1.327 . S
C735 C741 1.429 . S
C736 C728 1.574 . S
C736 H731 0.949 . S
C736 C742 1.368 . S
C737 C721 1.349 . S
C737 H729 0.950 . S
C737 C735 1.327 . S
C738 C726 1.349 . S
C738 H732 0.950 . S
C738 C739 1.327 . S
C739 H733 0.950 . S
C739 C738 1.327 . S
C739 C743 1.429 . S
C740 C723 1.574 . S
C740 H734 0.949 . S
C740 C744 1.368 . S
C741 C722 1.429 . S
C741 C735 1.429 . S
C741 C742 1.523 . S
C742 C723 1.368 . S
C742 C736 1.368 . S
C742 C741 1.523 . S
C743 C727 1.429 . S
C743 C739 1.429 . S
C743 C744 1.523 . S
C744 C728 1.368 . S
C744 C740 1.368 . S
C744 C743 1.523 . S
H745 C720 0.950 . S
H746 C722 0.950 . S
H747 C723 0.949 . S
H748 C725 0.950 . S
H749 C727 0.950 . S
C750 C751 1.349 . S
C750 C752 1.327 . S
C750 H775 0.950 . S
C751 C750 1.349 . S
C751 C767 1.349 . S
C752 C750 1.327 . S
C752 C771 1.429 . S
C752 H776 0.950 . S
C753 C770 1.574 . S
C753 C772 1.368 . S
C753 H777 0.949 . S
H754 C758 0.949 . S
C755 C756 1.349 . S
C755 C757 1.327 . S
C755 H778 0.950 . S
C756 C755 1.349 . S
C756 C768 1.349 . S
C757 C755 1.327 . S
C757 C773 1.429 . S
C757 H779 0.950 . S
C758 H754 0.949 . S
C758 C766 1.574 . S
C758 C774 1.368 . S
H759 C767 0.950 . S
H760 C765 0.950 . S
H761 C766 0.949 . S
H762 C768 0.950 . S
H763 C769 0.950 . S
H764 C770 0.949 . S
C765 H760 0.950 . S
C765 C767 1.327 . S
C765 C771 1.429 . S
C766 C758 1.574 . S
C766 H761 0.949 . S
C766 C772 1.368 . S
C767 C751 1.349 . S
C767 H759 0.950 . S
C767 C765 1.327 . S
C768 C756 1.349 . S
C768 H762 0.950 . S
C768 C769 1.327 . S
C769 H763 0.950 . S
C769 C768 1.327 . S
C769 C773 1.429 . S
C770 C753 1.574 . S
C770 H764 0.949 . S
C770 C774 1.368 . S
C771 C752 1.429 . S
C771 C765 1.429 . S
C771 C772 1.523 . S
C772 C753 1.368 . S
C772 C766 1.368 . S
C772 C771 1.523 . S
C773 C757 1.429 . S
C773 C769 1.429 . S
C773 C774 1.523 . S
C774 C758 1.368 . S
C774 C770 1.368 . S
C774 C773 1.523 . S
H775 C750 0.950 . S
H776 C752 0.950 . S
H777 C753 0.949 . S
H778 C755 0.950 . S
H779 C757 0.950 . S
C780 C781 1.349 . S
C780 C782 1.327 . S
C780 H805 0.950 . S
C781 C780 1.349 . S
C781 C797 1.349 . S
C782 C780 1.327 . S
C782 C801 1.429 . S
C782 H806 0.950 . S
C783 C800 1.574 . S
C783 C802 1.368 . S
C783 H807 0.949 . S
H784 C788 0.949 . S
C785 C786 1.349 . S
C785 C787 1.327 . S
C785 H808 0.950 . S
C786 C785 1.349 . S
C786 C798 1.349 . S
C787 C785 1.327 . S
C787 C803 1.429 . S
C787 H809 0.950 . S
C788 H784 0.949 . S
C788 C796 1.574 . S
C788 C804 1.368 . S
H789 C797 0.950 . S
H790 C795 0.950 . S
H791 C796 0.949 . S
H792 C798 0.950 . S
H793 C799 0.950 . S
H794 C800 0.949 . S
C795 H790 0.950 . S
C795 C797 1.327 . S
C795 C801 1.429 . S
C796 C788 1.574 . S
C796 H791 0.949 . S
C796 C802 1.368 . S
C797 C781 1.349 . S
C797 H789 0.950 . S
C797 C795 1.327 . S
C798 C786 1.349 . S
C798 H792 0.950 . S
C798 C799 1.327 . S
C799 H793 0.950 . S
C799 C798 1.327 . S
C799 C803 1.429 . S
C800 C783 1.574 . S
C800 H794 0.949 . S
C800 C804 1.368 . S
C801 C782 1.429 . S
C801 C795 1.429 . S
C801 C802 1.523 . S
C802 C783 1.368 . S
C802 C796 1.368 . S
C802 C801 1.523 . S
C803 C787 1.429 . S
C803 C799 1.429 . S
C803 C804 1.523 . S
C804 C788 1.368 . S
C804 C800 1.368 . S
C804 C803 1.523 . S
H805 C780 0.950 . S
H806 C782 0.950 . S
H807 C783 0.949 . S
H808 C785 0.950 . S
H809 C787 0.950 . S
C810 C811 1.349 . S
C810 C812 1.327 . S
C810 H835 0.950 . S
C811 C810 1.349 . S
C811 C827 1.349 . S
C812 C810 1.327 . S
C812 C831 1.429 . S
C812 H836 0.950 . S
C813 C830 1.574 . S
C813 C832 1.368 . S
C813 H837 0.949 . S
H814 C818 0.949 . S
C815 C816 1.349 . S
C815 C817 1.327 . S
C815 H838 0.950 . S
C816 C815 1.349 . S
C816 C828 1.349 . S
C817 C815 1.327 . S
C817 C833 1.429 . S
C817 H839 0.950 . S
C818 H814 0.949 . S
C818 C826 1.574 . S
C818 C834 1.368 . S
H819 C827 0.950 . S
H820 C825 0.950 . S
H821 C826 0.949 . S
H822 C828 0.950 . S
H823 C829 0.950 . S
H824 C830 0.949 . S
C825 H820 0.950 . S
C825 C827 1.327 . S
C825 C831 1.429 . S
C826 C818 1.574 . S
C826 H821 0.949 . S
C826 C832 1.368 . S
C827 C811 1.349 . S
C827 H819 0.950 . S
C827 C825 1.327 . S
C828 C816 1.349 . S
C828 H822 0.950 . S
C828 C829 1.327 . S
C829 H823 0.950 . S
C829 C828 1.327 . S
C829 C833 1.429 . S
C830 C813 1.574 . S
C830 H824 0.949 . S
C830 C834 1.368 . S
C831 C812 1.429 . S
C831 C825 1.429 . S
C831 C832 1.523 . S
C832 C813 1.368 . S
C832 C826 1.368 . S
C832 C831 1.523 . S
C833 C817 1.429 . S
C833 C829 1.429 . S
C833 C834 1.523 . S
C834 C818 1.368 . S
C834 C830 1.368 . S
C834 C833 1.523 . S
H835 C810 0.950 . S
H836 C812 0.950 . S
H837 C813 0.949 . S
H838 C815 0.950 . S
H839 C817 0.950 . S
C840 C841 1.349 . S
C840 C842 1.327 . S
C840 H865 0.950 . S
C841 C840 1.349 . S
C841 C857 1.349 . S
C842 C840 1.327 . S
C842 C861 1.429 . S
C842 H866 0.950 . S
C843 C860 1.574 . S
C843 C862 1.368 . S
C843 H867 0.949 . S
H844 C848 0.949 . S
C845 C846 1.349 . S
C845 C847 1.327 . S
C845 H868 0.950 . S
C846 C845 1.349 . S
C846 C858 1.349 . S
C847 C845 1.327 . S
C847 C863 1.429 . S
C847 H869 0.950 . S
C848 H844 0.949 . S
C848 C856 1.574 . S
C848 C864 1.368 . S
H849 C857 0.950 . S
H850 C855 0.950 . S
H851 C856 0.949 . S
H852 C858 0.950 . S
H853 C859 0.950 . S
H854 C860 0.949 . S
C855 H850 0.950 . S
C855 C857 1.327 . S
C855 C861 1.429 . S
C856 C848 1.574 . S
C856 H851 0.949 . S
C856 C862 1.368 . S
C857 C841 1.349 . S
C857 H849 0.950 . S
C857 C855 1.327 . S
C858 C846 1.349 . S
C858 H852 0.950 . S
C858 C859 1.327 . S
C859 H853 0.950 . S
C859 C858 1.327 . S
C859 C863 1.429 . S
C860 C843 1.574 . S
C860 H854 0.949 . S
C860 C864 1.368 . S
C861 C842 1.429 . S
C861 C855 1.429 . S
C861 C862 1.523 . S
C862 C843 1.368 . S
C862 C856 1.368 . S
C862 C861 1.523 . S
C863 C847 1.429 . S
C863 C859 1.429 . S
C863 C864 1.523 . S
C864 C848 1.368 . S
C864 C860 1.368 . S
C864 C863 1.523 . S
H865 C840 0.950 . S
H866 C842 0.950 . S
H867 C843 0.949 . S
H868 C845 0.950 . S
H869 C847 0.950 . S
C870 C871 1.349 . S
C870 C872 1.327 . S
C870 H895 0.950 . S
C871 C870 1.349 . S
C871 C887 1.349 . S
C872 C870 1.327 . S
C872 C891 1.429 . S
C872 H896 0.950 . S
C873 C890 1.574 . S
C873 C892 1.368 . S
C873 H897 0.949 . S
H874 C878 0.949 . S
C875 C876 1.349 . S
C875 C877 1.327 . S
C875 H898 0.950 . S
C876 C875 1.349 . S
C876 C888 1.349 . S
C877 C875 1.327 . S
C877 C893 1.429 . S
C877 H899 0.950 . S
C878 H874 0.949 . S
C878 C886 1.574 . S
C878 C894 1.368 . S
H879 C887 0.950 . S
H880 C885 0.950 . S
H881 C886 0.949 . S
H882 C888 0.950 . S
H883 C889 0.950 . S
H884 C890 0.949 . S
C885 H880 0.950 . S
C885 C887 1.327 . S
C885 C891 1.429 . S
C886 C878 1.574 . S
C886 H881 0.949 . S
C886 C892 1.368 . S
C887 C871 1.349 . S
C887 H879 0.950 . S
C887 C885 1.327 . S
C888 C876 1.349 . S
C888 H882 0.950 . S
C888 C889 1.327 . S
C889 H883 0.950 . S
C889 C888 1.327 . S
C889 C893 1.429 . S
C890 C873 1.574 . S
C890 H884 0.949 . S
C890 C894 1.368 . S
C891 C872 1.429 . S
C891 C885 1.429 . S
C891 C892 1.523 . S
C892 C873 1.368 . S
C892 C886 1.368 . S
C892 C891 1.523 . S
C893 C877 1.429 . S
C893 C889 1.429 . S
C893 C894 1.523 . S
C894 C878 1.368 . S
C894 C890 1.368 . S
C894 C893 1.523 . S
H895 C870 0.950 . S
H896 C872 0.950 . S
H897 C873 0.949 . S
H898 C875 0.950 . S
H899 C877 0.950 . S
C900 C901 1.349 . S
C900 C902 1.327 . S
C900 H925 0.950 . S
C901 C900 1.349 . S
C901 C917 1.349 . S
C902 C900 1.327 . S
C902 C921 1.429 . S
C902 H926 0.950 . S
C903 C920 1.574 . S
C903 C922 1.368 . S
C903 H927 0.949 . S
H904 C908 0.949 . S
C905 C906 1.349 . S
C905 C907 1.327 . S
C905 H928 0.950 . S
C906 C905 1.349 . S
C906 C918 1.349 . S
C907 C905 1.327 . S
C907 C923 1.429 . S
C907 H929 0.950 . S
C908 H904 0.949 . S
C908 C916 1.574 . S
C908 C924 1.368 . S
H909 C917 0.950 . S
H910 C915 0.950 . S
H911 C916 0.949 . S
H912 C918 0.950 . S
H913 C919 0.950 . S
H914 C920 0.949 . S
C915 H910 0.950 . S
C915 C917 1.327 . S
C915 C921 1.429 . S
C916 C908 1.574 . S
C916 H911 0.949 . S
C916 C922 1.368 . S
C917 C901 1.349 . S
C917 H909 0.950 . S
C917 C915 1.327 . S
C918 C906 1.349 . S
C918 H912 0.950 . S
C918 C919 1.327 . S
C919 H913 0.950 . S
C919 C918 1.327 . S
C919 C923 1.429 . S
C920 C903 1.574 . S
C920 H914 0.949 . S
C920 C924 1.368 . S
C921 C902 1.429 . S
C921 C915 1.429 . S
C921 C922 1.523 . S
C922 C903 1.368 . S
C922 C916 1.368 . S
C922 C921 1.523 . S
C923 C907 1.429 . S
C923 C919 1.429 . S
C923 C924 1.523 . S
C924 C908 1.368 . S
C924 C920 1.368 . S
C924 C923 1.523 . S
H925 C900 0.950 . S
H926 C902 0.950 . S
H927 C903 0.949 . S
H928 C905 0.950 . S
H929 C907 0.950 . S
C930 C931 1.349 . S
C930 C932 1.327 . S
C930 H955 0.950 . S
C931 C930 1.349 . S
C931 C947 1.349 . S
C932 C930 1.327 . S
C932 C951 1.429 . S
C932 H956 0.950 . S
C933 C950 1.574 . S
C933 C952 1.368 . S
C933 H957 0.949 . S
H934 C938 0.949 . S
C935 C936 1.349 . S
C935 C937 1.327 . S
C935 H958 0.950 . S
C936 C935 1.349 . S
C936 C948 1.349 . S
C937 C935 1.327 . S
C937 C953 1.429 . S
C937 H959 0.950 . S
C938 H934 0.949 . S
C938 C946 1.574 . S
C938 C954 1.368 . S
H939 C947 0.950 . S
H940 C945 0.950 . S
H941 C946 0.949 . S
H942 C948 0.950 . S
H943 C949 0.950 . S
H944 C950 0.949 . S
C945 H940 0.950 . S
C945 C947 1.327 . S
C945 C951 1.429 . S
C946 C938 1.574 . S
C946 H941 0.949 . S
C946 C952 1.368 . S
C947 C931 1.349 . S
C947 H939 0.950 . S
C947 C945 1.327 . S
C948 C936 1.349 . S
C948 H942 0.950 . S
C948 C949 1.327 . S
C949 H943 0.950 . S
C949 C948 1.327 . S
C949 C953 1.429 . S
C950 C933 1.574 . S
C950 H944 0.949 . S
C950 C954 1.368 . S
C951 C932 1.429 . S
C951 C945 1.429 . S
C951 C952 1.523 . S
C952 C933 1.368 . S
C952 C946 1.368 . S
C952 C951 1.523 . S
C953 C937 1.429 . S
C953 C949 1.429 . S
C953 C954 1.523 . S
C954 C938 1.368 . S
C954 C950 1.368 . S
C954 C953 1.523 . S
H955 C930 0.950 . S
H956 C932 0.950 . S
H957 C933 0.949 . S
H958 C935 0.950 . S
H959 C937 0.950 . S
C960 C961 1.349 . S
C960 C962 1.327 . S
C960 H985 0.950 . S
C961 C960 1.349 . S
C961 C977 1.349 . S
C962 C960 1.327 . S
C962 C981 1.429 . S
C962 H986 0.950 . S
C963 C980 1.574 . S
C963 C982 1.368 . S
C963 H987 0.949 . S
H964 C968 0.949 . S
C965 C966 1.349 . S
C965 C967 1.327 . S
C965 H988 0.950 . S
C966 C965 1.349 . S
C966 C978 1.349 . S
C967 C965 1.327 . S
C967 C983 1.429 . S
C967 H989 0.950 . S
C968 H964 0.949 . S
C968 C976 1.574 . S
C968 C984 1.368 . S
H969 C977 0.950 . S
H970 C975 0.950 . S
H971 C976 0.949 . S
H972 C978 0.950 . S
H973 C979 0.950 . S
H974 C980 0.949 . S
C975 H970 0.950 . S
C975 C977 1.327 . S
C975 C981 1.429 . S
C976 C968 1.574 . S
C976 H971 0.949 . S
C976 C982 1.368 . S
C977 C961 1.349 . S
C977 H969 0.950 . S
C977 C975 1.327 . S
C978 C966 1.349 . S
C978 H972 0.950 . S
C978 C979 1.327 . S
C979 H973 0.950 . S
C979 C978 1.327 . S
C979 C983 1.429 . S
C980 C963 1.574 . S
C980 H974 0.949 . S
C980 C984 1.368 . S
C981 C962 1.429 . S
C981 C975 1.429 . S
C981 C982 1.523 . S
C982 C963 1.368 . S
C982 C976 1.368 . S
C982 C981 1.523 . S
C983 C967 1.429 . S
C983 C979 1.429 . S
C983 C984 1.523 . S
C984 C968 1.368 . S
C984 C980 1.368 . S
C984 C983 1.523 . S
H985 C960 0.950 . S
H986 C962 0.950 . S
H987 C963 0.949 . S
H988 C965 0.950 . S
H989 C967 0.950 . S
C990 C991 1.349 . S
C990 C992 1.327 . S
C990 H1015 0.950 . S
C991 C990 1.349 . S
C991 C1007 1.349 . S
C992 C990 1.327 . S
C992 C1011 1.429 . S
C992 H1016 0.950 . S
C993 C1010 1.574 . S
C993 C1012 1.368 . S
C993 H1017 0.949 . S
H994 C998 0.949 . S
C995 C996 1.349 . S
C995 C997 1.327 . S
C995 H1018 0.950 . S
C996 C995 1.349 . S
C996 C1008 1.349 . S
C997 C995 1.327 . S
C997 C1013 1.429 . S
C997 H1019 0.950 . S
C998 H994 0.949 . S
C998 C1006 1.574 . S
C998 C1014 1.368 . S
H999 C1007 0.950 . S
H1000 C1005 0.950 . S
H1001 C1006 0.949 . S
H1002 C1008 0.950 . S
H1003 C1009 0.950 . S
H1004 C1010 0.949 . S
C1005 H1000 0.950 . S
C1005 C1007 1.327 . S
C1005 C1011 1.429 . S
C1006 C998 1.574 . S
C1006 H1001 0.949 . S
C1006 C1012 1.368 . S
C1007 C991 1.349 . S
C1007 H999 0.950 . S
C1007 C1005 1.327 . S
C1008 C996 1.349 . S
C1008 H1002 0.950 . S
C1008 C1009 1.327 . S
C1009 H1003 0.950 . S
C1009 C1008 1.327 . S
C1009 C1013 1.429 . S
C1010 C993 1.574 . S
C1010 H1004 0.949 . S
C1010 C1014 1.368 . S
C1011 C992 1.429 . S
C1011 C1005 1.429 . S
C1011 C1012 1.523 . S
C1012 C993 1.368 . S
C1012 C1006 1.368 . S
C1012 C1011 1.523 . S
C1013 C997 1.429 . S
C1013 C1009 1.429 . S
C1013 C1014 1.523 . S
C1014 C998 1.368 . S
C1014 C1010 1.368 . S
C1014 C1013 1.523 . S
H1015 C990 0.950 . S
H1016 C992 0.950 . S
H1017 C993 0.949 . S
H1018 C995 0.950 . S
H1019 C997 0.950 . S
C1020 C1021 1.349 . S
C1020 C1022 1.327 . S
C1020 H1045 0.950 . S
C1021 C1020 1.349 . S
C1021 C1037 1.349 . S
C1022 C1020 1.327 . S
C1022 C1041 1.429 . S
C1022 H1046 0.950 . S
C1023 C1040 1.574 . S
C1023 C1042 1.368 . S
C1023 H1047 0.949 . S
H1024 C1028 0.949 . S
C1025 C1026 1.349 . S
C1025 C1027 1.327 . S
C1025 H1048 0.950 . S
C1026 C1025 1.349 . S
C1026 C1038 1.349 . S
C1027 C1025 1.327 . S
C1027 C1043 1.429 . S
C1027 H1049 0.950 . S
C1028 H1024 0.949 . S
C1028 C1036 1.574 . S
C1028 C1044 1.368 . S
H1029 C1037 0.950 . S
H1030 C1035 0.950 . S
H1031 C1036 0.949 . S
H1032 C1038 0.950 . S
H1033 C1039 0.950 . S
H1034 C1040 0.949 . S
C1035 H1030 0.950 . S
C1035 C1037 1.327 . S
C1035 C1041 1.429 . S
C1036 C1028 1.574 . S
C1036 H1031 0.949 . S
C1036 C1042 1.368 . S
C1037 C1021 1.349 . S
C1037 H1029 0.950 . S
C1037 C1035 1.327 . S
C1038 C1026 1.349 . S
C1038 H1032 0.950 . S
C1038 C1039 1.327 . S
C1039 H1033 0.950 . S
C1039 C1038 1.327 . S
C1039 C1043 1.429 . S
C1040 C1023 1.574 . S
C1040 H1034 0.949 . S
C1040 C1044 1.368 . S
C1041 C1022 1.429 . S
C1041 C1035 1.429 . S
C1041 C1042 1.523 . S
C1042 C1023 1.368 . S
C1042 C1036 1.368 . S
C1042 C1041 1.523 . S
C1043 C1027 1.429 . S
C1043 C1039 1.429 . S
C1043 C1044 1.523 . S
C1044 C1028 1.368 . S
C1044 C1040 1.368 . S
C1044 C1043 1.523 . S
H1045 C1020 0.950 . S
H1046 C1022 0.950 . S
H1047 C1023 0.949 . S
H1048 C1025 0.950 . S
H1049 C1027 0.950 . S
C1050 C1051 1.349 . S
C1050 C1052 1.327 . S
C1050 H1075 0.950 . S
C1051 C1050 1.349 . S
C1051 C1067 1.349 . S
C1052 C1050 1.327 . S
C1052 C1071 1.429 . S
C1052 H1076 0.950 . S
C1053 C1070 1.574 . S
C1053 C1072 1.368 . S
C1053 H1077 0.949 . S
H1054 C1058 0.949 . S
C1055 C1056 1.349 . S
C1055 C1057 1.327 . S
C1055 H1078 0.950 . S
C1056 C1055 1.349 . S
C1056 C1068 1.349 . S
C1057 C1055 1.327 . S
C1057 C1073 1.429 . S
C1057 H1079 0.950 . S
C1058 H1054 0.949 . S
C1058 C1066 1.574 . S
C1058 C1074 1.368 . S
H1059 C1067 0.950 . S
H1060 C1065 0.950 . S
H1061 C1066 0.949 . S
H1062 C1068 0.950 . S
H1063 C1069 0.950 . S
H1064 C1070 0.949 . S
C1065 H1060 0.950 . S
C1065 C1067 1.327 . S
C1065 C1071 1.429 . S
C1066 C1058 1.574 . S
C1066 H1061 0.949 . S
C1066 C1072 1.368 . S
C1067 C1051 1.349 . S
C1067 H1059 0.950 . S
C1067 C1065 1.327 . S
C1068 C1056 1.349 . S
C1068 H1062 0.950 . S
C1068 C1069 1.327 . S
C1069 H1063 0.950 . S
C1069 C1068 1.327 . S
C1069 C1073 1.429 . S
C1070 C1053 1.574 . S
C1070 H1064 0.949 . S
C1070 C1074 1.368 . S
C1071 C1052 1.429 . S
C1071 C1065 1.429 . S
C1071 C1072 1.523 . S
C1072 C1053 1.368 . S
C1072 C1066 1.368 . S
C1072 C1071 1.523 . S
C1073 C1057 1.429 . S
C1073 C1069 1.429 . S
C1073 C1074 1.523 . S
C1074 C1058 1.368 . S
C1074 C1070 1.368 . S
C1074 C1073 1.523 . S
H1075 C1050 0.950 . S
H1076 C1052 0.950 . S
H1077 C1053 0.949 . S
H1078 C1055 0.950 . S
H1079 C1057 0.950 . S
C1080 C1081 1.349 . S
C1080 C1082 1.327 . S
C1080 H1105 0.950 . S
C1081 C1080 1.349 . S
C1081 C1097 1.349 . S
C1082 C1080 1.327 . S
C1082 C1101 1.429 . S
C1082 H1106 0.950 . S
C1083 C1100 1.574 . S
C1083 C1102 1.368 . S
C1083 H1107 0.949 . S
H1084 C1088 0.949 . S
C1085 C1086 1.349 . S
C1085 C1087 1.327 . S
C1085 H1108 0.950 . S
C1086 C1085 1.349 . S
C1086 C1098 1.349 . S
C1087 C1085 1.327 . S
C1087 C1103 1.429 . S
C1087 H1109 0.950 . S
C1088 H1084 0.949 . S
C1088 C1096 1.574 . S
C1088 C1104 1.368 . S
H1089 C1097 0.950 . S
H1090 C1095 0.950 . S
H1091 C1096 0.949 . S
H1092 C1098 0.950 . S
H1093 C1099 0.950 . S
H1094 C1100 0.949 . S
C1095 H1090 0.950 . S
C1095 C1097 1.327 . S
C1095 C1101 1.429 . S
C1096 C1088 1.574 . S
C1096 H1091 0.949 . S
C1096 C1102 1.368 . S
C1097 C1081 1.349 . S
C1097 H1089 0.950 . S
C1097 C1095 1.327 . S
C1098 C1086 1.349 . S
C1098 H1092 0.950 . S
C1098 C1099 1.327 . S
C1099 H1093 0.950 . S
C1099 C1098 1.327 . S
C1099 C1103 1.429 . S
C1100 C1083 1.574 . S
C1100 H1094 0.949 . S
C1100 C1104 1.368 . S
C1101 C1082 1.429 . S
C1101 C1095 1.429 . S
C1101 C1102 1.523 . S
C1102 C1083 1.368 . S
C1102 C1096 1.368 . S
C1102 C1101 1.523 . S
C1103 C1087 1.429 . S
C1103 C1099 1.429 . S
C1103 C1104 1.523 . S
C1104 C1088 1.368 . S
C1104 C1100 1.368 . S
C1104 C1103 1.523 . S
H1105 C1080 0.950 . S
H1106 C1082 0.950 . S
H1107 C1083 0.949 . S
H1108 C1085 0.950 . S
H1109 C1087 0.950 . S
C1110 C1111 1.349 . S
C1110 C1112 1.327 . S
C1110 H1135 0.950 . S
C1111 C1110 1.349 . S
C1111 C1127 1.349 . S
C1112 C1110 1.327 . S
C1112 C1131 1.429 . S
C1112 H1136 0.950 . S
C1113 C1130 1.574 . S
C1113 C1132 1.368 . S
C1113 H1137 0.949 . S
H1114 C1118 0.949 . S
C1115 C1116 1.349 . S
C1115 C1117 1.327 . S
C1115 H1138 0.950 . S
C1116 C1115 1.349 . S
C1116 C1128 1.349 . S
C1117 C1115 1.327 . S
C1117 C1133 1.429 . S
C1117 H1139 0.950 . S
C1118 H1114 0.949 . S
C1118 C1126 1.574 . S
C1118 C1134 1.368 . S
H1119 C1127 0.950 . S
H1120 C1125 0.950 . S
H1121 C1126 0.949 . S
H1122 C1128 0.950 . S
H1123 C1129 0.950 . S
H1124 C1130 0.949 . S
C1125 H1120 0.950 . S
C1125 C1127 1.327 . S
C1125 C1131 1.429 . S
C1126 C1118 1.574 . S
C1126 H1121 0.949 . S
C1126 C1132 1.368 . S
C1127 C1111 1.349 . S
C1127 H1119 0.950 . S
C1127 C1125 1.327 . S
C1128 C1116 1.349 . S
C1128 H1122 0.950 . S
C1128 C1129 1.327 . S
C1129 H1123 0.950 . S
C1129 C1128 1.327 . S
C1129 C1133 1.429 . S
C1130 C1113 1.574 . S
C1130 H1124 0.949 . S
C1130 C1134 1.368 . S
C1131 C1112 1.429 . S
C1131 C1125 1.429 . S
C1131 C1132 1.523 . S
C1132 C1113 1.368 . S
C1132 C1126 1.368 . S
C1132 C1131 1.523 . S
C1133 C1117 1.429 . S
C1133 C1129 1.429 . S
C1133 C1134 1.523 . S
C1134 C1118 1.368 . S
C1134 C1130 1.368 . S
C1134 C1133 1.523 . S
H1135 C1110 0.950 . S
H1136 C1112 0.950 . S
H1137 C1113 0.949 . S
H1138 C1115 0.950 . S
H1139 C1117 0.950 . S
C1140 C1141 1.349 . S
C1140 C1142 1.327 . S
C1140 H1165 0.950 . S
C1141 C1140 1.349 . S
C1141 C1157 1.349 . S
C1142 C1140 1.327 . S
C1142 C1161 1.429 . S
C1142 H1166 0.950 . S
C1143 C1160 1.574 . S
C1143 C1162 1.368 . S
C1143 H1167 0.949 . S
H1144 C1148 0.949 . S
C1145 C1146 1.349 . S
C1145 C1147 1.327 . S
C1145 H1168 0.950 . S
C1146 C1145 1.349 . S
C1146 C1158 1.349 . S
C1147 C1145 1.327 . S
C1147 C1163 1.429 . S
C1147 H1169 0.950 . S
C1148 H1144 0.949 . S
C1148 C1156 1.574 . S
C1148 C1164 1.368 . S
H1149 C1157 0.950 . S
H1150 C1155 0.950 . S
H1151 C1156 0.949 . S
H1152 C1158 0.950 . S
H1153 C1159 0.950 . S
H1154 C1160 0.949 . S
C1155 H1150 0.950 . S
C1155 C1157 1.327 . S
C1155 C1161 1.429 . S
C1156 C1148 1.574 . S
C1156 H1151 0.949 . S
C1156 C1162 1.368 . S
C1157 C1141 1.349 . S
C1157 H1149 0.950 . S
C1157 C1155 1.327 . S
C1158 C1146 1.349 . S
C1158 H1152 0.950 . S
C1158 C1159 1.327 . S
C1159 H1153 0.950 . S
C1159 C1158 1.327 . S
C1159 C1163 1.429 . S
C1160 C1143 1.574 . S
C1160 H1154 0.949 . S
C1160 C1164 1.368 . S
C1161 C1142 1.429 . S
C1161 C1155 1.429 . S
C1161 C1162 1.523 . S
C1162 C1143 1.368 . S
C1162 C1156 1.368 . S
C1162 C1161 1.523 . S
C1163 C1147 1.429 . S
C1163 C1159 1.429 . S
C1163 C1164 1.523 . S
C1164 C1148 1.368 . S
C1164 C1160 1.368 . S
C1164 C1163 1.523 . S
H1165 C1140 0.950 . S
H1166 C1142 0.950 . S
H1167 C1143 0.949 . S
H1168 C1145 0.950 . S
H1169 C1147 0.950 . S
C1170 C1171 1.349 . S
C1170 C1172 1.327 . S
C1170 H1195 0.950 . S
C1171 C1170 1.349 . S
C1171 C1187 1.349 . S
C1172 C1170 1.327 . S
C1172 C1191 1.429 . S
C1172 H1196 0.950 . S
C1173 C1190 1.574 . S
C1173 C1192 1.368 . S
C1173 H1197 0.949 . S
H1174 C1178 0.949 . S
C1175 C1176 1.349 . S
C1175 C1177 1.327 . S
C1175 H1198 0.950 . S
C1176 C1175 1.349 . S
C1176 C1188 1.349 . S
C1177 C1175 1.327 . S
C1177 C1193 1.429 . S
C1177 H1199 0.950 . S
C1178 H1174 0.949 . S
C1178 C1186 1.574 . S
C1178 C1194 1.368 . S
H1179 C1187 0.950 . S
H1180 C1185 0.950 . S
H1181 C1186 0.949 . S
H1182 C1188 0.950 . S
H1183 C1189 0.950 . S
H1184 C1190 0.949 . S
C1185 H1180 0.950 . S
C1185 C1187 1.327 . S
C1185 C1191 1.429 . S
C1186 C1178 1.574 . S
C1186 H1181 0.949 . S
C1186 C1192 1.368 . S
C1187 C1171 1.349 . S
C1187 H1179 0.950 . S
C1187 C1185 1.327 . S
C1188 C1176 1.349 . S
C1188 H1182 0.950 . S
C1188 C1189 1.327 . S
C1189 H1183 0.950 . S
C1189 C1188 1.327 . S
C1189 C1193 1.429 . S
C1190 C1173 1.574 . S
C1190 H1184 0.949 . S
C1190 C1194 1.368 . S
C1191 C1172 1.429 . S
C1191 C1185 1.429 . S
C1191 C1192 1.523 . S
C1192 C1173 1.368 . S
C1192 C1186 1.368 . S
C1192 C1191 1.523 . S
C1193 C1177 1.429 . S
C1193 C1189 1.429 . S
C1193 C1194 1.523 . S
C1194 C1178 1.368 . S
C1194 C1190 1.368 . S
C1194 C1193 1.523 . S
H1195 C1170 0.950 . S
H1196 C1172 0.950 . S
H1197 C1173 0.949 . S
H1198 C1175 0.950 . S
H1199 C1177 0.950 . S
C1200 C1201 1.349 . S
C1200 C1202 1.327 . S
C1200 H1225 0.950 . S
C1201 C1200 1.349 . S
C1201 C1217 1.349 . S
C1202 C1200 1.327 . S
C1202 C1221 1.429 . S
C1202 H1226 0.950 . S
C1203 C1220 1.574 . S
C1203 C1222 1.368 . S
C1203 H1227 0.949 . S
H1204 C1208 0.949 . S
C1205 C1206 1.349 . S
C1205 C1207 1.327 . S
C1205 H1228 0.950 . S
C1206 C1205 1.349 . S
C1206 C1218 1.349 . S
C1207 C1205 1.327 . S
C1207 C1223 1.429 . S
C1207 H1229 0.950 . S
C1208 H1204 0.949 . S
C1208 C1216 1.574 . S
C1208 C1224 1.368 . S
H1209 C1217 0.950 . S
H1210 C1215 0.950 . S
H1211 C1216 0.949 . S
H1212 C1218 0.950 . S
H1213 C1219 0.950 . S
H1214 C1220 0.949 . S
C1215 H1210 0.950 . S
C1215 C1217 1.327 . S
C1215 C1221 1.429 . S
C1216 C1208 1.574 . S
C1216 H1211 0.949 . S
C1216 C1222 1.368 . S
C1217 C1201 1.349 . S
C1217 H1209 0.950 . S
C1217 C1215 1.327 . S
C1218 C1206 1.349 . S
C1218 H1212 0.950 . S
C1218 C1219 1.327 . S
C1219 H1213 0.950 . S
C1219 C1218 1.327 . S
C1219 C1223 1.429 . S
C1220 C1203 1.574 . S
C1220 H1214 0.949 . S
C1220 C1224 1.368 . S
C1221 C1202 1.429 . S
C1221 C1215 1.429 . S
C1221 C1222 1.523 . S
C1222 C1203 1.368 . S
C1222 C1216 1.368 . S
C1222 C1221 1.523 . S
C1223 C1207 1.429 . S
C1223 C1219 1.429 . S
C1223 C1224 1.523 . S
C1224 C1208 1.368 . S
C1224 C1220 1.368 . S
C1224 C1223 1.523 . S
H1225 C1200 0.950 . S
H1226 C1202 0.950 . S
H1227 C1203 0.949 . S
H1228 C1205 0.950 . S
H1229 C1207 0.950 . S
C1230 C1231 1.349 . S
C1230 C1232 1.327 . S
C1230 H1255 0.950 . S
C1231 C1230 1.349 . S
C1231 C1247 1.349 . S
C1232 C1230 1.327 . S
C1232 C1251 1.429 . S
C1232 H1256 0.950 . S
C1233 C1250 1.574 . S
C1233 C1252 1.368 . S
C1233 H1257 0.949 . S
H1234 C1238 0.949 . S
C1235 C1236 1.349 . S
C1235 C1237 1.327 . S
C1235 H1258 0.950 . S
C1236 C1235 1.349 . S
C1236 C1248 1.349 . S
C1237 C1235 1.327 . S
C1237 C1253 1.429 . S
C1237 H1259 0.950 . S
C1238 H1234 0.949 . S
C1238 C1246 1.574 . S
C1238 C1254 1.368 . S
H1239 C1247 0.950 . S
H1240 C1245 0.950 . S
H1241 C1246 0.949 . S
H1242 C1248 0.950 . S
H1243 C1249 0.950 . S
H1244 C1250 0.949 . S
C1245 H1240 0.950 . S
C1245 C1247 1.327 . S
C1245 C1251 1.429 . S
C1246 C1238 1.574 . S
C1246 H1241 0.949 . S
C1246 C1252 1.368 . S
C1247 C1231 1.349 . S
C1247 H1239 0.950 . S
C1247 C1245 1.327 . S
C1248 C1236 1.349 . S
C1248 H1242 0.950 . S
C1248 C1249 1.327 . S
C1249 H1243 0.950 . S
C1249 C1248 1.327 . S
C1249 C1253 1.429 . S
C1250 C1233 1.574 . S
C1250 H1244 0.949 . S
C1250 C1254 1.368 . S
C1251 C1232 1.429 . S
C1251 C1245 1.429 . S
C1251 C1252 1.523 . S
C1252 C1233 1.368 . S
C1252 C1246 1.368 . S
C1252 C1251 1.523 . S
C1253 C1237 1.429 . S
C1253 C1249 1.429 . S
C1253 C1254 1.523 . S
C1254 C1238 1.368 . S
C1254 C1250 1.368 . S
C1254 C1253 1.523 . S
H1255 C1230 0.950 . S
H1256 C1232 0.950 . S
H1257 C1233 0.949 . S
H1258 C1235 0.950 . S
H1259 C1237 0.950 . S
C1260 C1261 1.349 . S
C1260 C1262 1.327 . S
C1260 H1285 0.950 . S
C1261 C1260 1.349 . S
C1261 C1277 1.349 . S
C1262 C1260 1.327 . S
C1262 C1281 1.429 . S
C1262 H1286 0.950 . S
C1263 C1280 1.574 . S
C1263 C1282 1.368 . S
C1263 H1287 0.949 . S
H1264 C1268 0.949 . S
C1265 C1266 1.349 . S
C1265 C1267 1.327 . S
C1265 H1288 0.950 . S
C1266 C1265 1.349 . S
C1266 C1278 1.349 . S
C1267 C1265 1.327 . S
C1267 C1283 1.429 . S
C1267 H1289 0.950 . S
C1268 H1264 0.949 . S
C1268 C1276 1.574 . S
C1268 C1284 1.368 . S
H1269 C1277 0.950 . S
H1270 C1275 0.950 . S
H1271 C1276 0.949 . S
H1272 C1278 0.950 . S
H1273 C1279 0.950 . S
H1274 C1280 0.949 . S
C1275 H1270 0.950 . S
C1275 C1277 1.327 . S
C1275 C1281 1.429 . S
C1276 C1268 1.574 . S
C1276 H1271 0.949 . S
C1276 C1282 1.368 . S
C1277 C1261 1.349 . S
C1277 H1269 0.950 . S
C1277 C1275 1.327 . S
C1278 C1266 1.349 . S
C1278 H1272 0.950 . S
C1278 C1279 1.327 . S
C1279 H1273 0.950 . S
C1279 C1278 1.327 . S
C1279 C1283 1.429 . S
C1280 C1263 1.574 . S
C1280 H1274 0.949 . S
C1280 C1284 1.368 . S
C1281 C1262 1.429 . S
C1281 C1275 1.429 . S
C1281 C1282 1.523 . S
C1282 C1263 1.368 . S
C1282 C1276 1.368 . S
C1282 C1281 1.523 . S
C1283 C1267 1.429 . S
C1283 C1279 1.429 . S
C1283 C1284 1.523 . S
C1284 C1268 1.368 . S
C1284 C1280 1.368 . S
C1284 C1283 1.523 . S
H1285 C1260 0.950 . S
H1286 C1262 0.950 . S
H1287 C1263 0.949 . S
H1288 C1265 0.950 . S
H1289 C1267 0.950 . S
C1290 C1291 1.349 . S
C1290 C1292 1.327 . S
C1290 H1315 0.950 . S
C1291 C1290 1.349 . S
C1291 C1307 1.349 . S
C1292 C1290 1.327 . S
C1292 C1311 1.429 . S
C1292 H1316 0.950 . S
C1293 C1310 1.574 . S
C1293 C1312 1.368 . S
C1293 H1317 0.949 . S
H1294 C1298 0.949 . S
C1295 C1296 1.349 . S
C1295 C1297 1.327 . S
C1295 H1318 0.950 . S
C1296 C1295 1.349 . S
C1296 C1308 1.349 . S
C1297 C1295 1.327 . S
C1297 C1313 1.429 . S
C1297 H1319 0.950 . S
C1298 H1294 0.949 . S
C1298 C1306 1.574 . S
C1298 C1314 1.368 . S
H1299 C1307 0.950 . S
H1300 C1305 0.950 . S
H1301 C1306 0.949 . S
H1302 C1308 0.950 . S
H1303 C1309 0.950 . S
H1304 C1310 0.949 . S
C1305 H1300 0.950 . S
C1305 C1307 1.327 . S
C1305 C1311 1.429 . S
C1306 C1298 1.574 . S
C1306 H1301 0.949 . S
C1306 C1312 1.368 . S
C1307 C1291 1.349 . S
C1307 H1299 0.950 . S
C1307 C1305 1.327 . S
C1308 C1296 1.349 . S
C1308 H1302 0.950 . S
C1308 C1309 1.327 . S
C1309 H1303 0.950 . S
C1309 C1308 1.327 . S
C1309 C1313 1.429 . S
C1310 C1293 1.574 . S
C1310 H1304 0.949 . S
C1310 C1314 1.368 . S
C1311 C1292 1.429 . S
C1311 C1305 1.429 . S
C1311 C1312 1.523 . S
C1312 C1293 1.368 . S
C1312 C1306 1.368 . S
C1312 C1311 1.523 . S
C1313 C1297 1.429 . S
C1313 C1309 1.429 . S
C1313 C1314 1.523 . S
C1314 C1298 1.368 . S
C1314 C1310 1.368 . S
C1314 C1313 1.523 . S
H1315 C1290 0.950 . S
H1316 C1292 0.950 . S
H1317 C1293 0.949 . S
H1318 C1295 0.950 . S
H1319 C1297 0.950 . S
C1320 C1321 1.349 . S
C1320 C1322 1.327 . S
C1320 H1345 0.950 . S
C1321 C1320 1.349 . S
C1321 C1337 1.349 . S
C1322 C1320 1.327 . S
C1322 C1341 1.429 . S
C1322 H1346 0.950 . S
C1323 C1340 1.574 . S
C1323 C1342 1.368 . S
C1323 H1347 0.949 . S
H1324 C1328 0.949 . S
C1325 C1326 1.349 . S
C1325 C1327 1.327 . S
C1325 H1348 0.950 . S
C1326 C1325 1.349 . S
C1326 C1338 1.349 . S
C1327 C1325 1.327 . S
C1327 C1343 1.429 . S
C1327 H1349 0.950 . S
C1328 H1324 0.949 . S
C1328 C1336 1.574 . S
C1328 C1344 1.368 . S
H1329 C1337 0.950 . S
H1330 C1335 0.950 . S
H1331 C1336 0.949 . S
H1332 C1338 0.950 . S
H1333 C1339 0.950 . S
H1334 C1340 0.949 . S
C1335 H1330 0.950 . S
C1335 C1337 1.327 . S
C1335 C1341 1.429 . S
C1336 C1328 1.574 . S
C1336 H1331 0.949 . S
C1336 C1342 1.368 . S
C1337 C1321 1.349 . S
C1337 H1329 0.950 . S
C1337 C1335 1.327 . S
C1338 C1326 1.349 . S
C1338 H1332 0.950 . S
C1338 C1339 1.327 . S
C1339 H1333 0.950 . S
C1339 C1338 1.327 . S
C1339 C1343 1.429 . S
C1340 C1323 1.574 . S
C1340 H1334 0.949 . S
C1340 C1344 1.368 . S
C1341 C1322 1.429 . S
C1341 C1335 1.429 . S
C1341 C1342 1.523 . S
C1342 C1323 1.368 . S
C1342 C1336 1.368 . S
C1342 C1341 1.523 . S
C1343 C1327 1.429 . S
C1343 C1339 1.429 . S
C1343 C1344 1.523 . S
C1344 C1328 1.368 . S
C1344 C1340 1.368 . S
C1344 C1343 1.523 . S
H1345 C1320 0.950 . S
H1346 C1322 0.950 . S
H1347 C1323 0.949 . S
H1348 C1325 0.950 . S
H1349 C1327 0.950 . S
C1350 C1351 1.349 . S
C1350 C1352 1.327 . S
C1350 H1375 0.950 . S
C1351 C1350 1.349 . S
C1351 C1367 1.349 . S
C1352 C1350 1.327 . S
C1352 C1371 1.429 . S
C1352 H1376 0.950 . S
C1353 C1370 1.574 . S
C1353 C1372 1.368 . S
C1353 H1377 0.949 . S
H1354 C1358 0.949 . S
C1355 C1356 1.349 . S
C1355 C1357 1.327 . S
C1355 H1378 0.950 . S
C1356 C1355 1.349 . S
C1356 C1368 1.349 . S
C1357 C1355 1.327 . S
C1357 C1373 1.429 . S
C1357 H1379 0.950 . S
C1358 H1354 0.949 . S
C1358 C1366 1.574 . S
C1358 C1374 1.368 . S
H1359 C1367 0.950 . S
H1360 C1365 0.950 . S
H1361 C1366 0.949 . S
H1362 C1368 0.950 . S
H1363 C1369 0.950 . S
H1364 C1370 0.949 . S
C1365 H1360 0.950 . S
C1365 C1367 1.327 . S
C1365 C1371 1.429 . S
C1366 C1358 1.574 . S
C1366 H1361 0.949 . S
C1366 C1372 1.368 . S
C1367 C1351 1.349 . S
C1367 H1359 0.950 . S
C1367 C1365 1.327 . S
C1368 C1356 1.349 . S
C1368 H1362 0.950 . S
C1368 C1369 1.327 . S
C1369 H1363 0.950 . S
C1369 C1368 1.327 . S
C1369 C1373 1.429 . S
C1370 C1353 1.574 . S
C1370 H1364 0.949 . S
C1370 C1374 1.368 . S
C1371 C1352 1.429 . S
C1371 C1365 1.429 . S
C1371 C1372 1.523 . S
C1372 C1353 1.368 . S
C1372 C1366 1.368 . S
C1372 C1371 1.523 . S
C1373 C1357 1.429 . S
C1373 C1369 1.429 . S
C1373 C1374 1.523 . S
C1374 C1358 1.368 . S
C1374 C1370 1.368 . S
C1374 C1373 1.523 . S
H1375 C1350 0.950 . S
H1376 C1352 0.950 . S
H1377 C1353 0.949 . S
H1378 C1355 0.950 . S
H1379 C1357 0.950 . S
C1380 C1381 1.349 . S
C1380 C1382 1.327 . S
C1380 H1405 0.950 . S
C1381 C1380 1.349 . S
C1381 C1397 1.349 . S
C1382 C1380 1.327 . S
C1382 C1401 1.429 . S
C1382 H1406 0.950 . S
C1383 C1400 1.574 . S
C1383 C1402 1.368 . S
C1383 H1407 0.949 . S
H1384 C1388 0.949 . S
C1385 C1386 1.349 . S
C1385 C1387 1.327 . S
C1385 H1408 0.950 . S
C1386 C1385 1.349 . S
C1386 C1398 1.349 . S
C1387 C1385 1.327 . S
C1387 C1403 1.429 . S
C1387 H1409 0.950 . S
C1388 H1384 0.949 . S
C1388 C1396 1.574 . S
C1388 C1404 1.368 . S
H1389 C1397 0.950 . S
H1390 C1395 0.950 . S
H1391 C1396 0.949 . S
H1392 C1398 0.950 . S
H1393 C1399 0.950 . S
H1394 C1400 0.949 . S
C1395 H1390 0.950 . S
C1395 C1397 1.327 . S
C1395 C1401 1.429 . S
C1396 C1388 1.574 . S
C1396 H1391 0.949 . S
C1396 C1402 1.368 . S
C1397 C1381 1.349 . S
C1397 H1389 0.950 . S
C1397 C1395 1.327 . S
C1398 C1386 1.349 . S
C1398 H1392 0.950 . S
C1398 C1399 1.327 . S
C1399 H1393 0.950 . S
C1399 C1398 1.327 . S
C1399 C1403 1.429 . S
C1400 C1383 1.574 . S
C1400 H1394 0.949 . S
C1400 C1404 1.368 . S
C1401 C1382 1.429 . S
C1401 C1395 1.429 . S
C1401 C1402 1.523 . S
C1402 C1383 1.368 . S
C1402 C1396 1.368 . S
C1402 C1401 1.523 . S
C1403 C1387 1.429 . S
C1403 C1399 1.429 . S
C1403 C1404 1.523 . S
C1404 C1388 1.368 . S
C1404 C1400 1.368 . S
C1404 C1403 1.523 . S
H1405 C1380 0.950 . S
H1406 C1382 0.950 . S
H1407 C1383 0.949 . S
H1408 C1385 0.950 . S
H1409 C1387 0.950 . S
C1410 C1411 1.349 . S
C1410 C1412 1.327 . S
C1410 H1435 0.950 . S
C1411 C1410 1.349 . S
C1411 C1427 1.349 . S
C1412 C1410 1.327 . S
C1412 C1431 1.429 . S
C1412 H1436 0.950 . S
C1413 C1430 1.574 . S
C1413 C1432 1.368 . S
C1413 H1437 0.949 . S
H1414 C1418 0.949 . S
C1415 C1416 1.349 . S
C1415 C1417 1.327 . S
C1415 H1438 0.950 . S
C1416 C1415 1.349 . S
C1416 C1428 1.349 . S
C1417 C1415 1.327 . S
C1417 C1433 1.429 . S
C1417 H1439 0.950 . S
C1418 H1414 0.949 . S
C1418 C1426 1.574 . S
C1418 C1434 1.368 . S
H1419 C1427 0.950 . S
H1420 C1425 0.950 . S
H1421 C1426 0.949 . S
H1422 C1428 0.950 . S
H1423 C1429 0.950 . S
H1424 C1430 0.949 . S
C1425 H1420 0.950 . S
C1425 C1427 1.327 . S
C1425 C1431 1.429 . S
C1426 C1418 1.574 . S
C1426 H1421 0.949 . S
C1426 C1432 1.368 . S
C1427 C1411 1.349 . S
C1427 H1419 0.950 . S
C1427 C1425 1.327 . S
C1428 C1416 1.349 . S
C1428 H1422 0.950 . S
C1428 C1429 1.327 . S
C1429 H1423 0.950 . S
C1429 C1428 1.327 . S
C1429 C1433 1.429 . S
C1430 C1413 1.574 . S
C1430 H1424 0.949 . S
C1430 C1434 1.368 . S
C1431 C1412 1.429 . S
C1431 C1425 1.429 . S
C1431 C1432 1.523 . S
C1432 C1413 1.368 . S
C1432 C1426 1.368 . S
C1432 C1431 1.523 . S
C1433 C1417 1.429 . S
C1433 C1429 1.429 . S
C1433 C1434 1.523 . S
C1434 C1418 1.368 . S
C1434 C1430 1.368 . S
C1434 C1433 1.523 . S
H1435 C1410 0.950 . S
H1436 C1412 0.950 . S
H1437 C1413 0.949 . S
H1438 C1415 0.950 . S
H1439 C1417 0.950 . S
C1440 C1441 1.349 . S
C1440 C1442 1.327 . S
C1440 H1465 0.950 . S
C1441 C1440 1.349 . S
C1441 C1457 1.349 . S
C1442 C1440 1.327 . S
C1442 C1461 1.429 . S
C1442 H1466 0.950 . S
C1443 C1460 1.574 . S
C1443 C1462 1.368 . S
C1443 H1467 0.949 . S
H1444 C1448 0.949 . S
C1445 C1446 1.349 . S
C1445 C1447 1.327 . S
C1445 H1468 0.950 . S
C1446 C1445 1.349 . S
C1446 C1458 1.349 . S
C1447 C1445 1.327 . S
C1447 C1463 1.429 . S
C1447 H1469 0.950 . S
C1448 H1444 0.949 . S
C1448 C1456 1.574 . S
C1448 C1464 1.368 . S
H1449 C1457 0.950 . S
H1450 C1455 0.950 . S
H1451 C1456 0.949 . S
H1452 C1458 0.950 . S
H1453 C1459 0.950 . S
H1454 C1460 0.949 . S
C1455 H1450 0.950 . S
C1455 C1457 1.327 . S
C1455 C1461 1.429 . S
C1456 C1448 1.574 . S
C1456 H1451 0.949 . S
C1456 C1462 1.368 . S
C1457 C1441 1.349 . S
C1457 H1449 0.950 . S
C1457 C1455 1.327 . S
C1458 C1446 1.349 . S
C1458 H1452 0.950 . S
C1458 C1459 1.327 . S
C1459 H1453 0.950 . S
C1459 C1458 1.327 . S
C1459 C1463 1.429 . S
C1460 C1443 1.574 . S
C1460 H1454 0.949 . S
C1460 C1464 1.368 . S
C1461 C1442 1.429 . S
C1461 C1455 1.429 . S
C1461 C1462 1.523 . S
C1462 C1443 1.368 . S
C1462 C1456 1.368 . S
C1462 C1461 1.523 . S
C1463 C1447 1.429 . S
C1463 C1459 1.429 . S
C1463 C1464 1.523 . S
C1464 C1448 1.368 . S
C1464 C1460 1.368 . S
C1464 C1463 1.523 . S
H1465 C1440 0.950 . S
H1466 C1442 0.950 . S
H1467 C1443 0.949 . S
H1468 C1445 0.950 . S
H1469 C1447 0.950 . S
C1470 C1471 1.349 . S
C1470 C1472 1.327 . S
C1470 H1495 0.950 . S
C1471 C1470 1.349 . S
C1471 C1487 1.349 . S
C1472 C1470 1.327 . S
C1472 C1491 1.429 . S
C1472 H1496 0.950 . S
C1473 C1490 1.574 . S
C1473 C1492 1.368 . S
C1473 H1497 0.949 . S
H1474 C1478 0.949 . S
C1475 C1476 1.349 . S
C1475 C1477 1.327 . S
C1475 H1498 0.950 . S
C1476 C1475 1.349 . S
C1476 C1488 1.349 . S
C1477 C1475 1.327 . S
C1477 C1493 1.429 . S
C1477 H1499 0.950 . S
C1478 H1474 0.949 . S
C1478 C1486 1.574 . S
C1478 C1494 1.368 . S
H1479 C1487 0.950 . S
H1480 C1485 0.950 . S
H1481 C1486 0.949 . S
H1482 C1488 0.950 . S
H1483 C1489 0.950 . S
H1484 C1490 0.949 . S
C1485 H1480 0.950 . S
C1485 C1487 1.327 . S
C1485 C1491 1.429 . S
C1486 C1478 1.574 . S
C1486 H1481 0.949 . S
C1486 C1492 1.368 . S
C1487 C1471 1.349 . S
C1487 H1479 0.950 . S
C1487 C1485 1.327 . S
C1488 C1476 1.349 . S
C1488 H1482 0.950 . S
C1488 C1489 1.327 . S
C1489 H1483 0.950 . S
C1489 C1488 1.327 . S
C1489 C1493 1.429 . S
C1490 C1473 1.574 . S
C1490 H1484 0.949 . S
C1490 C1494 1.368 . S
C1491 C1472 1.429 . S
C1491 C1485 1.429 . S
C1491 C1492 1.523 . S
C1492 C1473 1.368 . S
C1492 C1486 1.368 . S
C1492 C1491 1.523 . S
C1493 C1477 1.429 . S
C1493 C1489 1.429 . S
C1493 C1494 1.523 . S
C1494 C1478 1.368 . S
C1494 C1490 1.368 . S
C1494 C1493 1.523 . S
H1495 C1470 0.950 . S
H1496 C1472 0.950 . S
H1497 C1473 0.949 . S
H1498 C1475 0.950 . S
H1499 C1477 0.950 . S
C1500 C1501 1.349 . S
C1500 C1502 1.327 . S
C1500 H1525 0.950 . S
C1501 C1500 1.349 . S
C1501 C1517 1.349 . S
C1502 C1500 1.327 . S
C1502 C1521 1.429 . S
C1502 H1526 0.950 . S
C1503 C1520 1.574 . S
C1503 C1522 1.368 . S
C1503 H1527 0.949 . S
H1504 C1508 0.949 . S
C1505 C1506 1.349 . S
C1505 C1507 1.327 . S
C1505 H1528 0.950 . S
C1506 C1505 1.349 . S
C1506 C1518 1.349 . S
C1507 C1505 1.327 . S
C1507 C1523 1.429 . S
C1507 H1529 0.950 . S
C1508 H1504 0.949 . S
C1508 C1516 1.574 . S
C1508 C1524 1.368 . S
H1509 C1517 0.950 . S
H1510 C1515 0.950 . S
H1511 C1516 0.949 . S
H1512 C1518 0.950 . S
H1513 C1519 0.950 . S
H1514 C1520 0.949 . S
C1515 H1510 0.950 . S
C1515 C1517 1.327 . S
C1515 C1521 1.429 . S
C1516 C1508 1.574 . S
C1516 H1511 0.949 . S
C1516 C1522 1.368 . S
C1517 C1501 1.349 . S
C1517 H1509 0.950 . S
C1517 C1515 1.327 . S
C1518 C1506 1.349 . S
C1518 H1512 0.950 . S
C1518 C1519 1.327 . S
C1519 H1513 0.950 . S
C1519 C1518 1.327 . S
C1519 C1523 1.429 . S
C1520 C1503 1.574 . S
C1520 H1514 0.949 . S
C1520 C1524 1.368 . S
C1521 C1502 1.429 . S
C1521 C1515 1.429 . S
C1521 C1522 1.523 . S
C1522 C1503 1.368 . S
C1522 C1516 1.368 . S
C1522 C1521 1.523 . S
C1523 C1507 1.429 . S
C1523 C1519 1.429 . S
C1523 C1524 1.523 . S
C1524 C1508 1.368 . S
C1524 C1520 1.368 . S
C1524 C1523 1.523 . S
H1525 C1500 0.950 . S
H1526 C1502 0.950 . S
H1527 C1503 0.949 . S
H1528 C1505 0.950 . S
H1529 C1507 0.950 . S
C1530 C1531 1.349 . S
C1530 C1532 1.327 . S
C1530 H1555 0.950 . S
C1531 C1530 1.349 . S
C1531 C1547 1.349 . S
C1532 C1530 1.327 . S
C1532 C1551 1.429 . S
C1532 H1556 0.950 . S
C1533 C1550 1.574 . S
C1533 C1552 1.368 . S
C1533 H1557 0.949 . S
H1534 C1538 0.949 . S
C1535 C1536 1.349 . S
C1535 C1537 1.327 . S
C1535 H1558 0.950 . S
C1536 C1535 1.349 . S
C1536 C1548 1.349 . S
C1537 C1535 1.327 . S
C1537 C1553 1.429 . S
C1537 H1559 0.950 . S
C1538 H1534 0.949 . S
C1538 C1546 1.574 . S
C1538 C1554 1.368 . S
H1539 C1547 0.950 . S
H1540 C1545 0.950 . S
H1541 C1546 0.949 . S
H1542 C1548 0.950 . S
H1543 C1549 0.950 . S
H1544 C1550 0.949 . S
C1545 H1540 0.950 . S
C1545 C1547 1.327 . S
C1545 C1551 1.429 . S
C1546 C1538 1.574 . S
C1546 H1541 0.949 . S
C1546 C1552 1.368 . S
C1547 C1531 1.349 . S
C1547 H1539 0.950 . S
C1547 C1545 1.327 . S
C1548 C1536 1.349 . S
C1548 H1542 0.950 . S
C1548 C1549 1.327 . S
C1549 H1543 0.950 . S
C1549 C1548 1.327 . S
C1549 C1553 1.429 . S
C1550 C1533 1.574 . S
C1550 H1544 0.949 . S
C1550 C1554 1.368 . S
C1551 C1532 1.429 . S
C1551 C1545 1.429 . S
C1551 C1552 1.523 . S
C1552 C1533 1.368 . S
C1552 C1546 1.368 . S
C1552 C1551 1.523 . S
C1553 C1537 1.429 . S
C1553 C1549 1.429 . S
C1553 C1554 1.523 . S
C1554 C1538 1.368 . S
C1554 C1550 1.368 . S
C1554 C1553 1.523 . S
H1555 C1530 0.950 . S
H1556 C1532 0.950 . S
H1557 C1533 0.949 . S
H1558 C1535 0.950 . S
H1559 C1537 0.950 . S
C1560 C1561 1.349 . S
C1560 C1562 1.327 . S
C1560 H1585 0.950 . S
C1561 C1560 1.349 . S
C1561 C1577 1.349 . S
C1562 C1560 1.327 . S
C1562 C1581 1.429 . S
C1562 H1586 0.950 . S
C1563 C1580 1.574 . S
C1563 C1582 1.368 . S
C1563 H1587 0.949 . S
H1564 C1568 0.949 . S
C1565 C1566 1.349 . S
C1565 C1567 1.327 . S
C1565 H1588 0.950 . S
C1566 C1565 1.349 . S
C1566 C1578 1.349 . S
C1567 C1565 1.327 . S
C1567 C1583 1.429 . S
C1567 H1589 0.950 . S
C1568 H1564 0.949 . S
C1568 C1576 1.574 . S
C1568 C1584 1.368 . S
H1569 C1577 0.950 . S
H1570 C1575 0.950 . S
H1571 C1576 0.949 . S
H1572 C1578 0.950 . S
H1573 C1579 0.950 . S
H1574 C1580 0.949 . S
C1575 H1570 0.950 . S
C1575 C1577 1.327 . S
C1575 C1581 1.429 . S
C1576 C1568 1.574 . S
C1576 H1571 0.949 . S
C1576 C1582 1.368 . S
C1577 C1561 1.349 . S
C1577 H1569 0.950 . S
C1577 C1575 1.327 . S
C1578 C1566 1.349 . S
C1578 H1572 0.950 . S
C1578 C1579 1.327 . S
C1579 H1573 0.950 . S
C1579 C1578 1.327 . S
C1579 C1583 1.429 . S
C1580 C1563 1.574 . S
C1580 H1574 0.949 . S
C1580 C1584 1.368 . S
C1581 C1562 1.429 . S
C1581 C1575 1.429 . S
C1581 C1582 1.523 . S
C1582 C1563 1.368 . S
C1582 C1576 1.368 . S
C1582 C1581 1.523 . S
C1583 C1567 1.429 . S
C1583 C1579 1.429 . S
C1583 C1584 1.523 . S
C1584 C1568 1.368 . S
C1584 C1580 1.368 . S
C1584 C1583 1.523 . S
H1585 C1560 0.950 . S
H1586 C1562 0.950 . S
H1587 C1563 0.949 . S
H1588 C1565 0.950 . S
H1589 C1567 0.950 . S
C1590 C1591 1.349 . S
C1590 C1592 1.327 . S
C1590 H1615 0.950 . S
C1591 C1590 1.349 . S
C1591 C1607 1.349 . S
C1592 C1590 1.327 . S
C1592 C1611 1.429 . S
C1592 H1616 0.950 . S
C1593 C1610 1.574 . S
C1593 C1612 1.368 . S
C1593 H1617 0.949 . S
H1594 C1598 0.949 . S
C1595 C1596 1.349 . S
C1595 C1597 1.327 . S
C1595 H1618 0.950 . S
C1596 C1595 1.349 . S
C1596 C1608 1.349 . S
C1597 C1595 1.327 . S
C1597 C1613 1.429 . S
C1597 H1619 0.950 . S
C1598 H1594 0.949 . S
C1598 C1606 1.574 . S
C1598 C1614 1.368 . S
H1599 C1607 0.950 . S
H1600 C1605 0.950 . S
H1601 C1606 0.949 . S
H1602 C1608 0.950 . S
H1603 C1609 0.950 . S
H1604 C1610 0.949 . S
C1605 H1600 0.950 . S
C1605 C1607 1.327 . S
C1605 C1611 1.429 . S
C1606 C1598 1.574 . S
C1606 H1601 0.949 . S
C1606 C1612 1.368 . S
C1607 C1591 1.349 . S
C1607 H1599 0.950 . S
C1607 C1605 1.327 . S
C1608 C1596 1.349 . S
C1608 H1602 0.950 . S
C1608 C1609 1.327 . S
C1609 H1603 0.950 . S
C1609 C1608 1.327 . S
C1609 C1613 1.429 . S
C1610 C1593 1.574 . S
C1610 H1604 0.949 . S
C1610 C1614 1.368 . S
C1611 C1592 1.429 . S
C1611 C1605 1.429 . S
C1611 C1612 1.523 . S
C1612 C1593 1.368 . S
C1612 C1606 1.368 . S
C1612 C1611 1.523 . S
C1613 C1597 1.429 . S
C1613 C1609 1.429 . S
C1613 C1614 1.523 . S
C1614 C1598 1.368 . S
C1614 C1610 1.368 . S
C1614 C1613 1.523 . S
H1615 C1590 0.950 . S
H1616 C1592 0.950 . S
H1617 C1593 0.949 . S
H1618 C1595 0.950 . S
H1619 C1597 0.950 . S
C1620 C1621 1.349 . S
C1620 C1622 1.327 . S
C1620 H1645 0.950 . S
C1621 C1620 1.349 . S
C1621 C1637 1.349 . S
C1622 C1620 1.327 . S
C1622 C1641 1.429 . S
C1622 H1646 0.950 . S
C1623 C1640 1.574 . S
C1623 C1642 1.368 . S
C1623 H1647 0.949 . S
H1624 C1628 0.949 . S
C1625 C1626 1.349 . S
C1625 C1627 1.327 . S
C1625 H1648 0.950 . S
C1626 C1625 1.349 . S
C1626 C1638 1.349 . S
C1627 C1625 1.327 . S
C1627 C1643 1.429 . S
C1627 H1649 0.950 . S
C1628 H1624 0.949 . S
C1628 C1636 1.574 . S
C1628 C1644 1.368 . S
H1629 C1637 0.950 . S
H1630 C1635 0.950 . S
H1631 C1636 0.949 . S
H1632 C1638 0.950 . S
H1633 C1639 0.950 . S
H1634 C1640 0.949 . S
C1635 H1630 0.950 . S
C1635 C1637 1.327 . S
C1635 C1641 1.429 . S
C1636 C1628 1.574 . S
C1636 H1631 0.949 . S
C1636 C1642 1.368 . S
C1637 C1621 1.349 . S
C1637 H1629 0.950 . S
C1637 C1635 1.327 . S
C1638 C1626 1.349 . S
C1638 H1632 0.950 . S
C1638 C1639 1.327 . S
C1639 H1633 0.950 . S
C1639 C1638 1.327 . S
C1639 C1643 1.429 . S
C1640 C1623 1.574 . S
C1640 H1634 0.949 . S
C1640 C1644 1.368 . S
C1641 C1622 1.429 . S
C1641 C1635 1.429 . S
C1641 C1642 1.523 . S
C1642 C1623 1.368 . S
C1642 C1636 1.368 . S
C1642 C1641 1.523 . S
C1643 C1627 1.429 . S
C1643 C1639 1.429 . S
C1643 C1644 1.523 . S
C1644 C1628 1.368 . S
C1644 C1640 1.368 . S
C1644 C1643 1.523 . S
H1645 C1620 0.950 . S
H1646 C1622 0.950 . S
H1647 C1623 0.949 . S
H1648 C1625 0.950 . S
H1649 C1627 0.950 . S
C1650 C1651 1.349 . S
C1650 C1652 1.327 . S
C1650 H1675 0.950 . S
C1651 C1650 1.349 . S
C1651 C1667 1.349 . S
C1652 C1650 1.327 . S
C1652 C1671 1.429 . S
C1652 H1676 0.950 . S
C1653 C1670 1.574 . S
C1653 C1672 1.368 . S
C1653 H1677 0.949 . S
H1654 C1658 0.949 . S
C1655 C1656 1.349 . S
C1655 C1657 1.327 . S
C1655 H1678 0.950 . S
C1656 C1655 1.349 . S
C1656 C1668 1.349 . S
C1657 C1655 1.327 . S
C1657 C1673 1.429 . S
C1657 H1679 0.950 . S
C1658 H1654 0.949 . S
C1658 C1666 1.574 . S
C1658 C1674 1.368 . S
H1659 C1667 0.950 . S
H1660 C1665 0.950 . S
H1661 C1666 0.949 . S
H1662 C1668 0.950 . S
H1663 C1669 0.950 . S
H1664 C1670 0.949 . S
C1665 H1660 0.950 . S
C1665 C1667 1.327 . S
C1665 C1671 1.429 . S
C1666 C1658 1.574 . S
C1666 H1661 0.949 . S
C1666 C1672 1.368 . S
C1667 C1651 1.349 . S
C1667 H1659 0.950 . S
C1667 C1665 1.327 . S
C1668 C1656 1.349 . S
C1668 H1662 0.950 . S
C1668 C1669 1.327 . S
C1669 H1663 0.950 . S
C1669 C1668 1.327 . S
C1669 C1673 1.429 . S
C1670 C1653 1.574 . S
C1670 H1664 0.949 . S
C1670 C1674 1.368 . S
C1671 C1652 1.429 . S
C1671 C1665 1.429 . S
C1671 C1672 1.523 . S
C1672 C1653 1.368 . S
C1672 C1666 1.368 . S
C1672 C1671 1.523 . S
C1673 C1657 1.429 . S
C1673 C1669 1.429 . S
C1673 C1674 1.523 . S
C1674 C1658 1.368 . S
C1674 C1670 1.368 . S
C1674 C1673 1.523 . S
H1675 C1650 0.950 . S
H1676 C1652 0.950 . S
H1677 C1653 0.949 . S
H1678 C1655 0.950 . S
H1679 C1657 0.950 . S
C1680 C1681 1.349 . S
C1680 C1682 1.327 . S
C1680 H1705 0.950 . S
C1681 C1680 1.349 . S
C1681 C1697 1.349 . S
C1682 C1680 1.327 . S
C1682 C1701 1.429 . S
C1682 H1706 0.950 . S
C1683 C1700 1.574 . S
C1683 C1702 1.368 . S
C1683 H1707 0.949 . S
H1684 C1688 0.949 . S
C1685 C1686 1.349 . S
C1685 C1687 1.327 . S
C1685 H1708 0.950 . S
C1686 C1685 1.349 . S
C1686 C1698 1.349 . S
C1687 C1685 1.327 . S
C1687 C1703 1.429 . S
C1687 H1709 0.950 . S
C1688 H1684 0.949 . S
C1688 C1696 1.574 . S
C1688 C1704 1.368 . S
H1689 C1697 0.950 . S
H1690 C1695 0.950 . S
H1691 C1696 0.949 . S
H1692 C1698 0.950 . S
H1693 C1699 0.950 . S
H1694 C1700 0.949 . S
C1695 H1690 0.950 . S
C1695 C1697 1.327 . S
C1695 C1701 1.429 . S
C1696 C1688 1.574 . S
C1696 H1691 0.949 . S
C1696 C1702 1.368 . S
C1697 C1681 1.349 . S
C1697 H1689 0.950 . S
C1697 C1695 1.327 . S
C1698 C1686 1.349 . S
C1698 H1692 0.950 . S
C1698 C1699 1.327 . S
C1699 H1693 0.950 . S
C1699 C1698 1.327 . S
C1699 C1703 1.429 . S
C1700 C1683 1.574 . S
C1700 H1694 0.949 . S
C1700 C1704 1.368 . S
C1701 C1682 1.429 . S
C1701 C1695 1.429 . S
C1701 C1702 1.523 . S
C1702 C1683 1.368 . S
C1702 C1696 1.368 . S
C1702 C1701 1.523 . S
C1703 C1687 1.429 . S
C1703 C1699 1.429 . S
C1703 C1704 1.523 . S
C1704 C1688 1.368 . S
C1704 C1700 1.368 . S
C1704 C1703 1.523 . S
H1705 C1680 0.950 . S
H1706 C1682 0.950 . S
H1707 C1683 0.949 . S
H1708 C1685 0.950 . S
H1709 C1687 0.950 . S
C1710 C1711 1.349 . S
C1710 C1712 1.327 . S
C1710 H1735 0.950 . S
C1711 C1710 1.349 . S
C1711 C1727 1.349 . S
C1712 C1710 1.327 . S
C1712 C1731 1.429 . S
C1712 H1736 0.950 . S
C1713 C1730 1.574 . S
C1713 C1732 1.368 . S
C1713 H1737 0.949 . S
H1714 C1718 0.949 . S
C1715 C1716 1.349 . S
C1715 C1717 1.327 . S
C1715 H1738 0.950 . S
C1716 C1715 1.349 . S
C1716 C1728 1.349 . S
C1717 C1715 1.327 . S
C1717 C1733 1.429 . S
C1717 H1739 0.950 . S
C1718 H1714 0.949 . S
C1718 C1726 1.574 . S
C1718 C1734 1.368 . S
H1719 C1727 0.950 . S
H1720 C1725 0.950 . S
H1721 C1726 0.949 . S
H1722 C1728 0.950 . S
H1723 C1729 0.950 . S
H1724 C1730 0.949 . S
C1725 H1720 0.950 . S
C1725 C1727 1.327 . S
C1725 C1731 1.429 . S
C1726 C1718 1.574 . S
C1726 H1721 0.949 . S
C1726 C1732 1.368 . S
C1727 C1711 1.349 . S
C1727 H1719 0.950 . S
C1727 C1725 1.327 . S
C1728 C1716 1.349 . S
C1728 H1722 0.950 . S
C1728 C1729 1.327 . S
C1729 H1723 0.950 . S
C1729 C1728 1.327 . S
C1729 C1733 1.429 . S
C1730 C1713 1.574 . S
C1730 H1724 0.949 . S
C1730 C1734 1.368 . S
C1731 C1712 1.429 . S
C1731 C1725 1.429 . S
C1731 C1732 1.523 . S
C1732 C1713 1.368 . S
C1732 C1726 1.368 . S
C1732 C1731 1.523 . S
C1733 C1717 1.429 . S
C1733 C1729 1.429 . S
C1733 C1734 1.523 . S
C1734 C1718 1.368 . S
C1734 C1730 1.368 . S
C1734 C1733 1.523 . S
H1735 C1710 0.950 . S
H1736 C1712 0.950 . S
H1737 C1713 0.949 . S
H1738 C1715 0.950 . S
H1739 C1717 0.950 . S
C1740 C1741 1.349 . S
C1740 C1742 1.327 . S
C1740 H1765 0.950 . S
C1741 C1740 1.349 . S
C1741 C1757 1.349 . S
C1742 C1740 1.327 . S
C1742 C1761 1.429 . S
C1742 H1766 0.950 . S
C1743 C1760 1.574 . S
C1743 C1762 1.368 . S
C1743 H1767 0.949 . S
H1744 C1748 0.949 . S
C1745 C1746 1.349 . S
C1745 C1747 1.327 . S
C1745 H1768 0.950 . S
C1746 C1745 1.349 . S
C1746 C1758 1.349 . S
C1747 C1745 1.327 . S
C1747 C1763 1.429 . S
C1747 H1769 0.950 . S
C1748 H1744 0.949 . S
C1748 C1756 1.574 . S
C1748 C1764 1.368 . S
H1749 C1757 0.950 . S
H1750 C1755 0.950 . S
H1751 C1756 0.949 . S
H1752 C1758 0.950 . S
H1753 C1759 0.950 . S
H1754 C1760 0.949 . S
C1755 H1750 0.950 . S
C1755 C1757 1.327 . S
C1755 C1761 1.429 . S
C1756 C1748 1.574 . S
C1756 H1751 0.949 . S
C1756 C1762 1.368 . S
C1757 C1741 1.349 . S
C1757 H1749 0.950 . S
C1757 C1755 1.327 . S
C1758 C1746 1.349 . S
C1758 H1752 0.950 . S
C1758 C1759 1.327 . S
C1759 H1753 0.950 . S
C1759 C1758 1.327 . S
C1759 C1763 1.429 . S
C1760 C1743 1.574 . S
C1760 H1754 0.949 . S
C1760 C1764 1.368 . S
C1761 C1742 1.429 . S
C1761 C1755 1.429 . S
C1761 C1762 1.523 . S
C1762 C1743 1.368 . S
C1762 C1756 1.368 . S
C1762 C1761 1.523 . S
C1763 C1747 1.429 . S
C1763 C1759 1.429 . S
C1763 C1764 1.523 . S
C1764 C1748 1.368 . S
C1764 C1760 1.368 . S
C1764 C1763 1.523 . S
H1765 C1740 0.950 . S
H1766 C1742 0.950 . S
H1767 C1743 0.949 . S
H1768 C1745 0.950 . S
H1769 C1747 0.950 . S
C1770 C1771 1.349 . S
C1770 C1772 1.327 . S
C1770 H1795 0.950 . S
C1771 C1770 1.349 . S
C1771 C1787 1.349 . S
C1772 C1770 1.327 . S
C1772 C1791 1.429 . S
C1772 H1796 0.950 . S
C1773 C1790 1.574 . S
C1773 C1792 1.368 . S
C1773 H1797 0.949 . S
H1774 C1778 0.949 . S
C1775 C1776 1.349 . S
C1775 C1777 1.327 . S
C1775 H1798 0.950 . S
C1776 C1775 1.349 . S
C1776 C1788 1.349 . S
C1777 C1775 1.327 . S
C1777 C1793 1.429 . S
C1777 H1799 0.950 . S
C1778 H1774 0.949 . S
C1778 C1786 1.574 . S
C1778 C1794 1.368 . S
H1779 C1787 0.950 . S
H1780 C1785 0.950 . S
H1781 C1786 0.949 . S
H1782 C1788 0.950 . S
H1783 C1789 0.950 . S
H1784 C1790 0.949 . S
C1785 H1780 0.950 . S
C1785 C1787 1.327 . S
C1785 C1791 1.429 . S
C1786 C1778 1.574 . S
C1786 H1781 0.949 . S
C1786 C1792 1.368 . S
C1787 C1771 1.349 . S
C1787 H1779 0.950 . S
C1787 C1785 1.327 . S
C1788 C1776 1.349 . S
C1788 H1782 0.950 . S
C1788 C1789 1.327 . S
C1789 H1783 0.950 . S
C1789 C1788 1.327 . S
C1789 C1793 1.429 . S
C1790 C1773 1.574 . S
C1790 H1784 0.949 . S
C1790 C1794 1.368 . S
C1791 C1772 1.429 . S
C1791 C1785 1.429 . S
C1791 C1792 1.523 . S
C1792 C1773 1.368 . S
C1792 C1786 1.368 . S
C1792 C1791 1.523 . S
C1793 C1777 1.429 . S
C1793 C1789 1.429 . S
C1793 C1794 1.523 . S
C1794 C1778 1.368 . S
C1794 C1790 1.368 . S
C1794 C1793 1.523 . S
H1795 C1770 0.950 . S
H1796 C1772 0.950 . S
H1797 C1773 0.949 . S
H1798 C1775 0.950 . S
H1799 C1777 0.950 . S
C1800 C1801 1.349 . S
C1800 C1802 1.327 . S
C1800 H1825 0.950 . S
C1801 C1800 1.349 . S
C1801 C1817 1.349 . S
C1802 C1800 1.327 . S
C1802 C1821 1.429 . S
C1802 H1826 0.950 . S
C1803 C1820 1.574 . S
C1803 C1822 1.368 . S
C1803 H1827 0.949 . S
H1804 C1808 0.949 . S
C1805 C1806 1.349 . S
C1805 C1807 1.327 . S
C1805 H1828 0.950 . S
C1806 C1805 1.349 . S
C1806 C1818 1.349 . S
C1807 C1805 1.327 . S
C1807 C1823 1.429 . S
C1807 H1829 0.950 . S
C1808 H1804 0.949 . S
C1808 C1816 1.574 . S
C1808 C1824 1.368 . S
H1809 C1817 0.950 . S
H1810 C1815 0.950 . S
H1811 C1816 0.949 . S
H1812 C1818 0.950 . S
H1813 C1819 0.950 . S
H1814 C1820 0.949 . S
C1815 H1810 0.950 . S
C1815 C1817 1.327 . S
C1815 C1821 1.429 . S
C1816 C1808 1.574 . S
C1816 H1811 0.949 . S
C1816 C1822 1.368 . S
C1817 C1801 1.349 . S
C1817 H1809 0.950 . S
C1817 C1815 1.327 . S
C1818 C1806 1.349 . S
C1818 H1812 0.950 . S
C1818 C1819 1.327 . S
C1819 H1813 0.950 . S
C1819 C1818 1.327 . S
C1819 C1823 1.429 . S
C1820 C1803 1.574 . S
C1820 H1814 0.949 . S
C1820 C1824 1.368 . S
C1821 C1802 1.429 . S
C1821 C1815 1.429 . S
C1821 C1822 1.523 . S
C1822 C1803 1.368 . S
C1822 C1816 1.368 . S
C1822 C1821 1.523 . S
C1823 C1807 1.429 . S
C1823 C1819 1.429 . S
C1823 C1824 1.523 . S
C1824 C1808 1.368 . S
C1824 C1820 1.368 . S
C1824 C1823 1.523 . S
H1825 C1800 0.950 . S
H1826 C1802 0.950 . S
H1827 C1803 0.949 . S
H1828 C1805 0.950 . S
H1829 C1807 0.950 . S
C1830 C1831 1.349 . S
C1830 C1832 1.327 . S
C1830 H1855 0.950 . S
C1831 C1830 1.349 . S
C1831 C1847 1.349 . S
C1832 C1830 1.327 . S
C1832 C1851 1.429 . S
C1832 H1856 0.950 . S
C1833 C1850 1.574 . S
C1833 C1852 1.368 . S
C1833 H1857 0.949 . S
H1834 C1838 0.949 . S
C1835 C1836 1.349 . S
C1835 C1837 1.327 . S
C1835 H1858 0.950 . S
C1836 C1835 1.349 . S
C1836 C1848 1.349 . S
C1837 C1835 1.327 . S
C1837 C1853 1.429 . S
C1837 H1859 0.950 . S
C1838 H1834 0.949 . S
C1838 C1846 1.574 . S
C1838 C1854 1.368 . S
H1839 C1847 0.950 . S
H1840 C1845 0.950 . S
H1841 C1846 0.949 . S
H1842 C1848 0.950 . S
H1843 C1849 0.950 . S
H1844 C1850 0.949 . S
C1845 H1840 0.950 . S
C1845 C1847 1.327 . S
C1845 C1851 1.429 . S
C1846 C1838 1.574 . S
C1846 H1841 0.949 . S
C1846 C1852 1.368 . S
C1847 C1831 1.349 . S
C1847 H1839 0.950 . S
C1847 C1845 1.327 . S
C1848 C1836 1.349 . S
C1848 H1842 0.950 . S
C1848 C1849 1.327 . S
C1849 H1843 0.950 . S
C1849 C1848 1.327 . S
C1849 C1853 1.429 . S
C1850 C1833 1.574 . S
C1850 H1844 0.949 . S
C1850 C1854 1.368 . S
C1851 C1832 1.429 . S
C1851 C1845 1.429 . S
C1851 C1852 1.523 . S
C1852 C1833 1.368 . S
C1852 C1846 1.368 . S
C1852 C1851 1.523 . S
C1853 C1837 1.429 . S
C1853 C1849 1.429 . S
C1853 C1854 1.523 . S
C1854 C1838 1.368 . S
C1854 C1850 1.368 . S
C1854 C1853 1.523 . S
H1855 C1830 0.950 . S
H1856 C1832 0.950 . S
H1857 C1833 0.949 . S
H1858 C1835 0.950 . S
H1859 C1837 0.950 . S
C1860 C1861 1.349 . S
C1860 C1862 1.327 . S
C1860 H1885 0.950 . S
C1861 C1860 1.349 . S
C1861 C1877 1.349 . S
C1862 C1860 1.327 . S
C1862 C1881 1.429 . S
C1862 H1886 0.950 . S
C1863 C1880 1.574 . S
C1863 C1882 1.368 . S
C1863 H1887 0.949 . S
H1864 C1868 0.949 . S
C1865 C1866 1.349 . S
C1865 C1867 1.327 . S
C1865 H1888 0.950 . S
C1866 C1865 1.349 . S
C1866 C1878 1.349 . S
C1867 C1865 1.327 . S
C1867 C1883 1.429 . S
C1867 H1889 0.950 . S
C1868 H1864 0.949 . S
C1868 C1876 1.574 . S
C1868 C1884 1.368 . S
H1869 C1877 0.950 . S
H1870 C1875 0.950 . S
H1871 C1876 0.949 . S
H1872 C1878 0.950 . S
H1873 C1879 0.950 . S
H1874 C1880 0.949 . S
C1875 H1870 0.950 . S
C1875 C1877 1.327 . S
C1875 C1881 1.429 . S
C1876 C1868 1.574 . S
C1876 H1871 0.949 . S
C1876 C1882 1.368 . S
C1877 C1861 1.349 . S
C1877 H1869 0.950 . S
C1877 C1875 1.327 . S
C1878 C1866 1.349 . S
C1878 H1872 0.950 . S
C1878 C1879 1.327 . S
C1879 H1873 0.950 . S
C1879 C1878 1.327 . S
C1879 C1883 1.429 . S
C1880 C1863 1.574 . S
C1880 H1874 0.949 . S
C1880 C1884 1.368 . S
C1881 C1862 1.429 . S
C1881 C1875 1.429 . S
C1881 C1882 1.523 . S
C1882 C1863 1.368 . S
C1882 C1876 1.368 . S
C1882 C1881 1.523 . S
C1883 C1867 1.429 . S
C1883 C1879 1.429 . S
C1883 C1884 1.523 . S
C1884 C1868 1.368 . S
C1884 C1880 1.368 . S
C1884 C1883 1.523 . S
H1885 C1860 0.950 . S
H1886 C1862 0.950 . S
H1887 C1863 0.949 . S
H1888 C1865 0.950 . S
H1889 C1867 0.950 . S
C1890 C1891 1.349 . S
C1890 C1892 1.327 . S
C1890 H1915 0.950 . S
C1891 C1890 1.349 . S
C1891 C1907 1.349 . S
C1892 C1890 1.327 . S
C1892 C1911 1.429 . S
C1892 H1916 0.950 . S
C1893 C1910 1.574 . S
C1893 C1912 1.368 . S
C1893 H1917 0.949 . S
H1894 C1898 0.949 . S
C1895 C1896 1.349 . S
C1895 C1897 1.327 . S
C1895 H1918 0.950 . S
C1896 C1895 1.349 . S
C1896 C1908 1.349 . S
C1897 C1895 1.327 . S
C1897 C1913 1.429 . S
C1897 H1919 0.950 . S
C1898 H1894 0.949 . S
C1898 C1906 1.574 . S
C1898 C1914 1.368 . S
H1899 C1907 0.950 . S
H1900 C1905 0.950 . S
H1901 C1906 0.949 . S
H1902 C1908 0.950 . S
H1903 C1909 0.950 . S
H1904 C1910 0.949 . S
C1905 H1900 0.950 . S
C1905 C1907 1.327 . S
C1905 C1911 1.429 . S
C1906 C1898 1.574 . S
C1906 H1901 0.949 . S
C1906 C1912 1.368 . S
C1907 C1891 1.349 . S
C1907 H1899 0.950 . S
C1907 C1905 1.327 . S
C1908 C1896 1.349 . S
C1908 H1902 0.950 . S
C1908 C1909 1.327 . S
C1909 H1903 0.950 . S
C1909 C1908 1.327 . S
C1909 C1913 1.429 . S
C1910 C1893 1.574 . S
C1910 H1904 0.949 . S
C1910 C1914 1.368 . S
C1911 C1892 1.429 . S
C1911 C1905 1.429 . S
C1911 C1912 1.523 . S
C1912 C1893 1.368 . S
C1912 C1906 1.368 . S
C1912 C1911 1.523 . S
C1913 C1897 1.429 . S
C1913 C1909 1.429 . S
C1913 C1914 1.523 . S
C1914 C1898 1.368 . S
C1914 C1910 1.368 . S
C1914 C1913 1.523 . S
H1915 C1890 0.950 . S
H1916 C1892 0.950 . S
H1917 C1893 0.949 . S
H1918 C1895 0.950 . S
H1919 C1897 0.950 . S
C1920 C1921 1.349 . S
C1920 C1922 1.327 . S
C1920 H1945 0.950 . S
C1921 C1920 1.349 . S
C1921 C1937 1.349 . S
C1922 C1920 1.327 . S
C1922 C1941 1.429 . S
C1922 H1946 0.950 . S
C1923 C1940 1.574 . S
C1923 C1942 1.368 . S
C1923 H1947 0.949 . S
H1924 C1928 0.949 . S
C1925 C1926 1.349 . S
C1925 C1927 1.327 . S
C1925 H1948 0.950 . S
C1926 C1925 1.349 . S
C1926 C1938 1.349 . S
C1927 C1925 1.327 . S
C1927 C1943 1.429 . S
C1927 H1949 0.950 . S
C1928 H1924 0.949 . S
C1928 C1936 1.574 . S
C1928 C1944 1.368 . S
H1929 C1937 0.950 . S
H1930 C1935 0.950 . S
H1931 C1936 0.949 . S
H1932 C1938 0.950 . S
H1933 C1939 0.950 . S
H1934 C1940 0.949 . S
C1935 H1930 0.950 . S
C1935 C1937 1.327 . S
C1935 C1941 1.429 . S
C1936 C1928 1.574 . S
C1936 H1931 0.949 . S
C1936 C1942 1.368 . S
C1937 C1921 1.349 . S
C1937 H1929 0.950 . S
C1937 C1935 1.327 . S
C1938 C1926 1.349 . S
C1938 H1932 0.950 . S
C1938 C1939 1.327 . S
C1939 H1933 0.950 . S
C1939 C1938 1.327 . S
C1939 C1943 1.429 . S
C1940 C1923 1.574 . S
C1940 H1934 0.949 . S
C1940 C1944 1.368 . S
C1941 C1922 1.429 . S
C1941 C1935 1.429 . S
C1941 C1942 1.523 . S
C1942 C1923 1.368 . S
C1942 C1936 1.368 . S
C1942 C1941 1.523 . S
C1943 C1927 1.429 . S
C1943 C1939 1.429 . S
C1943 C1944 1.523 . S
C1944 C1928 1.368 . S
C1944 C1940 1.368 . S
C1944 C1943 1.523 . S
H1945 C1920 0.950 . S
H1946 C1922 0.950 . S
H1947 C1923 0.949 . S
H1948 C1925 0.950 . S
H1949 C1927 0.950 . S
C1950 C1951 1.349 . S
C1950 C1952 1.327 . S
C1950 H1975 0.950 . S
C1951 C1950 1.349 . S
C1951 C1967 1.349 . S
C1952 C1950 1.327 . S
C1952 C1971 1.429 . S
C1952 H1976 0.950 . S
C1953 C1970 1.574 . S
C1953 C1972 1.368 . S
C1953 H1977 0.949 . S
H1954 C1958 0.949 . S
C1955 C1956 1.349 . S
C1955 C1957 1.327 . S
C1955 H1978 0.950 . S
C1956 C1955 1.349 . S
C1956 C1968 1.349 . S
C1957 C1955 1.327 . S
C1957 C1973 1.429 . S
C1957 H1979 0.950 . S
C1958 H1954 0.949 . S
C1958 C1966 1.574 . S
C1958 C1974 1.368 . S
H1959 C1967 0.950 . S
H1960 C1965 0.950 . S
H1961 C1966 0.949 . S
H1962 C1968 0.950 . S
H1963 C1969 0.950 . S
H1964 C1970 0.949 . S
C1965 H1960 0.950 . S
C1965 C1967 1.327 . S
C1965 C1971 1.429 . S
C1966 C1958 1.574 . S
C1966 H1961 0.949 . S
C1966 C1972 1.368 . S
C1967 C1951 1.349 . S
C1967 H1959 0.950 . S
C1967 C1965 1.327 . S
C1968 C1956 1.349 . S
C1968 H1962 0.950 . S
C1968 C1969 1.327 . S
C1969 H1963 0.950 . S
C1969 C1968 1.327 . S
C1969 C1973 1.429 . S
C1970 C1953 1.574 . S
C1970 H1964 0.949 . S
C1970 C1974 1.368 . S
C1971 C1952 1.429 . S
C1971 C1965 1.429 . S
C1971 C1972 1.523 . S
C1972 C1953 1.368 . S
C1972 C1966 1.368 . S
C1972 C1971 1.523 . S
C1973 C1957 1.429 . S
C1973 C1969 1.429 . S
C1973 C1974 1.523 . S
C1974 C1958 1.368 . S
C1974 C1970 1.368 . S
C1974 C1973 1.523 . S
H1975 C1950 0.950 . S
H1976 C1952 0.950 . S
H1977 C1953 0.949 . S
H1978 C1955 0.950 . S
H1979 C1957 0.950 . S
C1980 C1981 1.349 . S
C1980 C1982 1.327 . S
C1980 H2005 0.950 . S
C1981 C1980 1.349 . S
C1981 C1997 1.349 . S
C1982 C1980 1.327 . S
C1982 C2001 1.429 . S
C1982 H2006 0.950 . S
C1983 C2000 1.574 . S
C1983 C2002 1.368 . S
C1983 H2007 0.949 . S
H1984 C1988 0.949 . S
C1985 C1986 1.349 . S
C1985 C1987 1.327 . S
C1985 H2008 0.950 . S
C1986 C1985 1.349 . S
C1986 C1998 1.349 . S
C1987 C1985 1.327 . S
C1987 C2003 1.429 . S
C1987 H2009 0.950 . S
C1988 H1984 0.949 . S
C1988 C1996 1.574 . S
C1988 C2004 1.368 . S
H1989 C1997 0.950 . S
H1990 C1995 0.950 . S
H1991 C1996 0.949 . S
H1992 C1998 0.950 . S
H1993 C1999 0.950 . S
H1994 C2000 0.949 . S
C1995 H1990 0.950 . S
C1995 C1997 1.327 . S
C1995 C2001 1.429 . S
C1996 C1988 1.574 . S
C1996 H1991 0.949 . S
C1996 C2002 1.368 . S
C1997 C1981 1.349 . S
C1997 H1989 0.950 . S
C1997 C1995 1.327 . S
C1998 C1986 1.349 . S
C1998 H1992 0.950 . S
C1998 C1999 1.327 . S
C1999 H1993 0.950 . S
C1999 C1998 1.327 . S
C1999 C2003 1.429 . S
C2000 C1983 1.574 . S
C2000 H1994 0.949 . S
C2000 C2004 1.368 . S
C2001 C1982 1.429 . S
C2001 C1995 1.429 . S
C2001 C2002 1.523 . S
C2002 C1983 1.368 . S
C2002 C1996 1.368 . S
C2002 C2001 1.523 . S
C2003 C1987 1.429 . S
C2003 C1999 1.429 . S
C2003 C2004 1.523 . S
C2004 C1988 1.368 . S
C2004 C2000 1.368 . S
C2004 C2003 1.523 . S
H2005 C1980 0.950 . S
H2006 C1982 0.950 . S
H2007 C1983 0.949 . S
H2008 C1985 0.950 . S
H2009 C1987 0.950 . S
C2010 C2011 1.349 . S
C2010 C2012 1.327 . S
C2010 H2035 0.950 . S
C2011 C2010 1.349 . S
C2011 C2027 1.349 . S
C2012 C2010 1.327 . S
C2012 C2031 1.429 . S
C2012 H2036 0.950 . S
C2013 C2030 1.574 . S
C2013 C2032 1.368 . S
C2013 H2037 0.949 . S
H2014 C2018 0.949 . S
C2015 C2016 1.349 . S
C2015 C2017 1.327 . S
C2015 H2038 0.950 . S
C2016 C2015 1.349 . S
C2016 C2028 1.349 . S
C2017 C2015 1.327 . S
C2017 C2033 1.429 . S
C2017 H2039 0.950 . S
C2018 H2014 0.949 . S
C2018 C2026 1.574 . S
C2018 C2034 1.368 . S
H2019 C2027 0.950 . S
H2020 C2025 0.950 . S
H2021 C2026 0.949 . S
H2022 C2028 0.950 . S
H2023 C2029 0.950 . S
H2024 C2030 0.949 . S
C2025 H2020 0.950 . S
C2025 C2027 1.327 . S
C2025 C2031 1.429 . S
C2026 C2018 1.574 . S
C2026 H2021 0.949 . S
C2026 C2032 1.368 . S
C2027 C2011 1.349 . S
C2027 H2019 0.950 . S
C2027 C2025 1.327 . S
C2028 C2016 1.349 . S
C2028 H2022 0.950 . S
C2028 C2029 1.327 . S
C2029 H2023 0.950 . S
C2029 C2028 1.327 . S
C2029 C2033 1.429 . S
C2030 C2013 1.574 . S
C2030 H2024 0.949 . S
C2030 C2034 1.368 . S
C2031 C2012 1.429 . S
C2031 C2025 1.429 . S
C2031 C2032 1.523 . S
C2032 C2013 1.368 . S
C2032 C2026 1.368 . S
C2032 C2031 1.523 . S
C2033 C2017 1.429 . S
C2033 C2029 1.429 . S
C2033 C2034 1.523 . S
C2034 C2018 1.368 . S
C2034 C2030 1.368 . S
C2034 C2033 1.523 . S
H2035 C2010 0.950 . S
H2036 C2012 0.950 . S
H2037 C2013 0.949 . S
H2038 C2015 0.950 . S
H2039 C2017 0.950 . S
C2040 C2041 1.349 . S
C2040 C2042 1.327 . S
C2040 H2065 0.950 . S
C2041 C2040 1.349 . S
C2041 C2057 1.349 . S
C2042 C2040 1.327 . S
C2042 C2061 1.429 . S
C2042 H2066 0.950 . S
C2043 C2060 1.574 . S
C2043 C2062 1.368 . S
C2043 H2067 0.949 . S
H2044 C2048 0.949 . S
C2045 C2046 1.349 . S
C2045 C2047 1.327 . S
C2045 H2068 0.950 . S
C2046 C2045 1.349 . S
C2046 C2058 1.349 . S
C2047 C2045 1.327 . S
C2047 C2063 1.429 . S
C2047 H2069 0.950 . S
C2048 H2044 0.949 . S
C2048 C2056 1.574 . S
C2048 C2064 1.368 . S
H2049 C2057 0.950 . S
H2050 C2055 0.950 . S
H2051 C2056 0.949 . S
H2052 C2058 0.950 . S
H2053 C2059 0.950 . S
H2054 C2060 0.949 . S
C2055 H2050 0.950 . S
C2055 C2057 1.327 . S
C2055 C2061 1.429 . S
C2056 C2048 1.574 . S
C2056 H2051 0.949 . S
C2056 C2062 1.368 . S
C2057 C2041 1.349 . S
C2057 H2049 0.950 . S
C2057 C2055 1.327 . S
C2058 C2046 1.349 . S
C2058 H2052 0.950 . S
C2058 C2059 1.327 . S
C2059 H2053 0.950 . S
C2059 C2058 1.327 . S
C2059 C2063 1.429 . S
C2060 C2043 1.574 . S
C2060 H2054 0.949 . S
C2060 C2064 1.368 . S
C2061 C2042 1.429 . S
C2061 C2055 1.429 . S
C2061 C2062 1.523 . S
C2062 C2043 1.368 . S
C2062 C2056 1.368 . S
C2062 C2061 1.523 . S
C2063 C2047 1.429 . S
C2063 C2059 1.429 . S
C2063 C2064 1.523 . S
C2064 C2048 1.368 . S
C2064 C2060 1.368 . S
C2064 C2063 1.523 . S
H2065 C2040 0.950 . S
H2066 C2042 0.950 . S
H2067 C2043 0.949 . S
H2068 C2045 0.950 . S
H2069 C2047 0.950 . S
C2070 C2071 1.349 . S
C2070 C2072 1.327 . S
C2070 H2095 0.950 . S
C2071 C2070 1.349 . S
C2071 C2087 1.349 . S
C2072 C2070 1.327 . S
C2072 C2091 1.429 . S
C2072 H2096 0.950 . S
C2073 C2090 1.574 . S
C2073 C2092 1.368 . S
C2073 H2097 0.949 . S
H2074 C2078 0.949 . S
C2075 C2076 1.349 . S
C2075 C2077 1.327 . S
C2075 H2098 0.950 . S
C2076 C2075 1.349 . S
C2076 C2088 1.349 . S
C2077 C2075 1.327 . S
C2077 C2093 1.429 . S
C2077 H2099 0.950 . S
C2078 H2074 0.949 . S
C2078 C2086 1.574 . S
C2078 C2094 1.368 . S
H2079 C2087 0.950 . S
H2080 C2085 0.950 . S
H2081 C2086 0.949 . S
H2082 C2088 0.950 . S
H2083 C2089 0.950 . S
H2084 C2090 0.949 . S
C2085 H2080 0.950 . S
C2085 C2087 1.327 . S
C2085 C2091 1.429 . S
C2086 C2078 1.574 . S
C2086 H2081 0.949 . S
C2086 C2092 1.368 . S
C2087 C2071 1.349 . S
C2087 H2079 0.950 . S
C2087 C2085 1.327 . S
C2088 C2076 1.349 . S
C2088 H2082 0.950 . S
C2088 C2089 1.327 . S
C2089 H2083 0.950 . S
C2089 C2088 1.327 . S
C2089 C2093 1.429 . S
C2090 C2073 1.574 . S
C2090 H2084 0.949 . S
C2090 C2094 1.368 . S
C2091 C2072 1.429 . S
C2091 C2085 1.429 . S
C2091 C2092 1.523 . S
C2092 C2073 1.368 . S
C2092 C2086 1.368 . S
C2092 C2091 1.523 . S
C2093 C2077 1.429 . S
C2093 C2089 1.429 . S
C2093 C2094 1.523 . S
C2094 C2078 1.368 . S
C2094 C2090 1.368 . S
C2094 C2093 1.523 . S
H2095 C2070 0.950 . S
H2096 C2072 0.950 . S
H2097 C2073 0.949 . S
H2098 C2075 0.950 . S
H2099 C2077 0.950 . S
C2100 C2101 1.349 . S
C2100 C2102 1.327 . S
C2100 H2125 0.950 . S
C2101 C2100 1.349 . S
C2101 C2117 1.349 . S
C2102 C2100 1.327 . S
C2102 C2121 1.429 . S
C2102 H2126 0.950 . S
C2103 C2120 1.574 . S
C2103 C2122 1.368 . S
C2103 H2127 0.949 . S
H2104 C2108 0.949 . S
C2105 C2106 1.349 . S
C2105 C2107 1.327 . S
C2105 H2128 0.950 . S
C2106 C2105 1.349 . S
C2106 C2118 1.349 . S
C2107 C2105 1.327 . S
C2107 C2123 1.429 . S
C2107 H2129 0.950 . S
C2108 H2104 0.949 . S
C2108 C2116 1.574 . S
C2108 C2124 1.368 . S
H2109 C2117 0.950 . S
H2110 C2115 0.950 . S
H2111 C2116 0.949 . S
H2112 C2118 0.950 . S
H2113 C2119 0.950 . S
H2114 C2120 0.949 . S
C2115 H2110 0.950 . S
C2115 C2117 1.327 . S
C2115 C2121 1.429 . S
C2116 C2108 1.574 . S
C2116 H2111 0.949 . S
C2116 C2122 1.368 . S
C2117 C2101 1.349 . S
C2117 H2109 0.950 . S
C2117 C2115 1.327 . S
C2118 C2106 1.349 . S
C2118 H2112 0.950 . S
C2118 C2119 1.327 . S
C2119 H2113 0.950 . S
C2119 C2118 1.327 . S
C2119 C2123 1.429 . S
C2120 C2103 1.574 . S
C2120 H2114 0.949 . S
C2120 C2124 1.368 . S
C2121 C2102 1.429 . S
C2121 C2115 1.429 . S
C2121 C2122 1.523 . S
C2122 C2103 1.368 . S
C2122 C2116 1.368 . S
C2122 C2121 1.523 . S
C2123 C2107 1.429 . S
C2123 C2119 1.429 . S
C2123 C2124 1.523 . S
C2124 C2108 1.368 . S
C2124 C2120 1.368 . S
C2124 C2123 1.523 . S
H2125 C2100 0.950 . S
H2126 C2102 0.950 . S
H2127 C2103 0.949 . S
H2128 C2105 0.950 . S
H2129 C2107 0.950 . S
C2130 C2131 1.349 . S
C2130 C2132 1.327 . S
C2130 H2155 0.950 . S
C2131 C2130 1.349 . S
C2131 C2147 1.349 . S
C2132 C2130 1.327 . S
C2132 C2151 1.429 . S
C2132 H2156 0.950 . S
C2133 C2150 1.574 . S
C2133 C2152 1.368 . S
C2133 H2157 0.949 . S
H2134 C2138 0.949 . S
C2135 C2136 1.349 . S
C2135 C2137 1.327 . S
C2135 H2158 0.950 . S
C2136 C2135 1.349 . S
C2136 C2148 1.349 . S
C2137 C2135 1.327 . S
C2137 C2153 1.429 . S
C2137 H2159 0.950 . S
C2138 H2134 0.949 . S
C2138 C2146 1.574 . S
C2138 C2154 1.368 . S
H2139 C2147 0.950 . S
H2140 C2145 0.950 . S
H2141 C2146 0.949 . S
H2142 C2148 0.950 . S
H2143 C2149 0.950 . S
H2144 C2150 0.949 . S
C2145 H2140 0.950 . S
C2145 C2147 1.327 . S
C2145 C2151 1.429 . S
C2146 C2138 1.574 . S
C2146 H2141 0.949 . S
C2146 C2152 1.368 . S
C2147 C2131 1.349 . S
C2147 H2139 0.950 . S
C2147 C2145 1.327 . S
C2148 C2136 1.349 . S
C2148 H2142 0.950 . S
C2148 C2149 1.327 . S
C2149 H2143 0.950 . S
C2149 C2148 1.327 . S
C2149 C2153 1.429 . S
C2150 C2133 1.574 . S
C2150 H2144 0.949 . S
C2150 C2154 1.368 . S
C2151 C2132 1.429 . S
C2151 C2145 1.429 . S
C2151 C2152 1.523 . S
C2152 C2133 1.368 . S
C2152 C2146 1.368 . S
C2152 C2151 1.523 . S
C2153 C2137 1.429 . S
C2153 C2149 1.429 . S
C2153 C2154 1.523 . S
C2154 C2138 1.368 . S
C2154 C2150 1.368 . S
C2154 C2153 1.523 . S
H2155 C2130 0.950 . S
H2156 C2132 0.950 . S
H2157 C2133 0.949 . S
H2158 C2135 0.950 . S
H2159 C2137 0.950 . S
C2160 C2161 1.349 . S
C2160 C2162 1.327 . S
C2160 H2185 0.950 . S
C2161 C2160 1.349 . S
C2161 C2177 1.349 . S
C2162 C2160 1.327 . S
C2162 C2181 1.429 . S
C2162 H2186 0.950 . S
C2163 C2180 1.574 . S
C2163 C2182 1.368 . S
C2163 H2187 0.949 . S
H2164 C2168 0.949 . S
C2165 C2166 1.349 . S
C2165 C2167 1.327 . S
C2165 H2188 0.950 . S
C2166 C2165 1.349 . S
C2166 C2178 1.349 . S
C2167 C2165 1.327 . S
C2167 C2183 1.429 . S
C2167 H2189 0.950 . S
C2168 H2164 0.949 . S
C2168 C2176 1.574 . S
C2168 C2184 1.368 . S
H2169 C2177 0.950 . S
H2170 C2175 0.950 . S
H2171 C2176 0.949 . S
H2172 C2178 0.950 . S
H2173 C2179 0.950 . S
H2174 C2180 0.949 . S
C2175 H2170 0.950 . S
C2175 C2177 1.327 . S
C2175 C2181 1.429 . S
C2176 C2168 1.574 . S
C2176 H2171 0.949 . S
C2176 C2182 1.368 . S
C2177 C2161 1.349 . S
C2177 H2169 0.950 . S
C2177 C2175 1.327 . S
C2178 C2166 1.349 . S
C2178 H2172 0.950 . S
C2178 C2179 1.327 . S
C2179 H2173 0.950 . S
C2179 C2178 1.327 . S
C2179 C2183 1.429 . S
C2180 C2163 1.574 . S
C2180 H2174 0.949 . S
C2180 C2184 1.368 . S
C2181 C2162 1.429 . S
C2181 C2175 1.429 . S
C2181 C2182 1.523 . S
C2182 C2163 1.368 . S
C2182 C2176 1.368 . S
C2182 C2181 1.523 . S
C2183 C2167 1.429 . S
C2183 C2179 1.429 . S
C2183 C2184 1.523 . S
C2184 C2168 1.368 . S
C2184 C2180 1.368 . S
C2184 C2183 1.523 . S
H2185 C2160 0.950 . S
H2186 C2162 0.950 . S
H2187 C2163 0.949 . S
H2188 C2165 0.950 . S
H2189 C2167 0.950 . S
C2190 C2191 1.349 . S
C2190 C2192 1.327 . S
C2190 H2215 0.950 . S
C2191 C2190 1.349 . S
C2191 C2207 1.349 . S
C2192 C2190 1.327 . S
C2192 C2211 1.429 . S
C2192 H2216 0.950 . S
C2193 C2210 1.574 . S
C2193 C2212 1.368 . S
C2193 H2217 0.949 . S
H2194 C2198 0.949 . S
C2195 C2196 1.349 . S
C2195 C2197 1.327 . S
C2195 H2218 0.950 . S
C2196 C2195 1.349 . S
C2196 C2208 1.349 . S
C2197 C2195 1.327 . S
C2197 C2213 1.429 . S
C2197 H2219 0.950 . S
C2198 H2194 0.949 . S
C2198 C2206 1.574 . S
C2198 C2214 1.368 . S
H2199 C2207 0.950 . S
H2200 C2205 0.950 . S
H2201 C2206 0.949 . S
H2202 C2208 0.950 . S
H2203 C2209 0.950 . S
H2204 C2210 0.949 . S
C2205 H2200 0.950 . S
C2205 C2207 1.327 . S
C2205 C2211 1.429 . S
C2206 C2198 1.574 . S
C2206 H2201 0.949 . S
C2206 C2212 1.368 . S
C2207 C2191 1.349 . S
C2207 H2199 0.950 . S
C2207 C2205 1.327 . S
C2208 C2196 1.349 . S
C2208 H2202 0.950 . S
C2208 C2209 1.327 . S
C2209 H2203 0.950 . S
C2209 C2208 1.327 . S
C2209 C2213 1.429 . S
C2210 C2193 1.574 . S
C2210 H2204 0.949 . S
C2210 C2214 1.368 . S
C2211 C2192 1.429 . S
C2211 C2205 1.429 . S
C2211 C2212 1.523 . S
C2212 C2193 1.368 . S
C2212 C2206 1.368 . S
C2212 C2211 1.523 . S
C2213 C2197 1.429 . S
C2213 C2209 1.429 . S
C2213 C2214 1.523 . S
C2214 C2198 1.368 . S
C2214 C2210 1.368 . S
C2214 C2213 1.523 . S
H2215 C2190 0.950 . S
H2216 C2192 0.950 . S
H2217 C2193 0.949 . S
H2218 C2195 0.950 . S
H2219 C2197 0.950 . S
C2220 C2221 1.349 . S
C2220 C2222 1.327 . S
C2220 H2245 0.950 . S
C2221 C2220 1.349 . S
C2221 C2237 1.349 . S
C2222 C2220 1.327 . S
C2222 C2241 1.429 . S
C2222 H2246 0.950 . S
C2223 C2240 1.574 . S
C2223 C2242 1.368 . S
C2223 H2247 0.949 . S
H2224 C2228 0.949 . S
C2225 C2226 1.349 . S
C2225 C2227 1.327 . S
C2225 H2248 0.950 . S
C2226 C2225 1.349 . S
C2226 C2238 1.349 . S
C2227 C2225 1.327 . S
C2227 C2243 1.429 . S
C2227 H2249 0.950 . S
C2228 H2224 0.949 . S
C2228 C2236 1.574 . S
C2228 C2244 1.368 . S
H2229 C2237 0.950 . S
H2230 C2235 0.950 . S
H2231 C2236 0.949 . S
H2232 C2238 0.950 . S
H2233 C2239 0.950 . S
H2234 C2240 0.949 . S
C2235 H2230 0.950 . S
C2235 C2237 1.327 . S
C2235 C2241 1.429 . S
C2236 C2228 1.574 . S
C2236 H2231 0.949 . S
C2236 C2242 1.368 . S
C2237 C2221 1.349 . S
C2237 H2229 0.950 . S
C2237 C2235 1.327 . S
C2238 C2226 1.349 . S
C2238 H2232 0.950 . S
C2238 C2239 1.327 . S
C2239 H2233 0.950 . S
C2239 C2238 1.327 . S
C2239 C2243 1.429 . S
C2240 C2223 1.574 . S
C2240 H2234 0.949 . S
C2240 C2244 1.368 . S
C2241 C2222 1.429 . S
C2241 C2235 1.429 . S
C2241 C2242 1.523 . S
C2242 C2223 1.368 . S
C2242 C2236 1.368 . S
C2242 C2241 1.523 . S
C2243 C2227 1.429 . S
C2243 C2239 1.429 . S
C2243 C2244 1.523 . S
C2244 C2228 1.368 . S
C2244 C2240 1.368 . S
C2244 C2243 1.523 . S
H2245 C2220 0.950 . S
H2246 C2222 0.950 . S
H2247 C2223 0.949 . S
H2248 C2225 0.950 . S
H2249 C2227 0.950 . S
C2250 C2251 1.349 . S
C2250 C2252 1.327 . S
C2250 H2275 0.950 . S
C2251 C2250 1.349 . S
C2251 C2267 1.349 . S
C2252 C2250 1.327 . S
C2252 C2271 1.429 . S
C2252 H2276 0.950 . S
C2253 C2270 1.574 . S
C2253 C2272 1.368 . S
C2253 H2277 0.949 . S
H2254 C2258 0.949 . S
C2255 C2256 1.349 . S
C2255 C2257 1.327 . S
C2255 H2278 0.950 . S
C2256 C2255 1.349 . S
C2256 C2268 1.349 . S
C2257 C2255 1.327 . S
C2257 C2273 1.429 . S
C2257 H2279 0.950 . S
C2258 H2254 0.949 . S
C2258 C2266 1.574 . S
C2258 C2274 1.368 . S
H2259 C2267 0.950 . S
H2260 C2265 0.950 . S
H2261 C2266 0.949 . S
H2262 C2268 0.950 . S
H2263 C2269 0.950 . S
H2264 C2270 0.949 . S
C2265 H2260 0.950 . S
C2265 C2267 1.327 . S
C2265 C2271 1.429 . S
C2266 C2258 1.574 . S
C2266 H2261 0.949 . S
C2266 C2272 1.368 . S
C2267 C2251 1.349 . S
C2267 H2259 0.950 . S
C2267 C2265 1.327 . S
C2268 C2256 1.349 . S
C2268 H2262 0.950 . S
C2268 C2269 1.327 . S
C2269 H2263 0.950 . S
C2269 C2268 1.327 . S
C2269 C2273 1.429 . S
C2270 C2253 1.574 . S
C2270 H2264 0.949 . S
C2270 C2274 1.368 . S
C2271 C2252 1.429 . S
C2271 C2265 1.429 . S
C2271 C2272 1.523 . S
C2272 C2253 1.368 . S
C2272 C2266 1.368 . S
C2272 C2271 1.523 . S
C2273 C2257 1.429 . S
C2273 C2269 1.429 . S
C2273 C2274 1.523 . S
C2274 C2258 1.368 . S
C2274 C2270 1.368 . S
C2274 C2273 1.523 . S
H2275 C2250 0.950 . S
H2276 C2252 0.950 . S
H2277 C2253 0.949 . S
H2278 C2255 0.950 . S
H2279 C2257 0.950 . S
C2280 C2281 1.349 . S
C2280 C2282 1.327 . S
C2280 H2305 0.950 . S
C2281 C2280 1.349 . S
C2281 C2297 1.349 . S
C2282 C2280 1.327 . S
C2282 C2301 1.429 . S
C2282 H2306 0.950 . S
C2283 C2300 1.574 . S
C2283 C2302 1.368 . S
C2283 H2307 0.949 . S
H2284 C2288 0.949 . S
C2285 C2286 1.349 . S
C2285 C2287 1.327 . S
C2285 H2308 0.950 . S
C2286 C2285 1.349 . S
C2286 C2298 1.349 . S
C2287 C2285 1.327 . S
C2287 C2303 1.429 . S
C2287 H2309 0.950 . S
C2288 H2284 0.949 . S
C2288 C2296 1.574 . S
C2288 C2304 1.368 . S
H2289 C2297 0.950 . S
H2290 C2295 0.950 . S
H2291 C2296 0.949 . S
H2292 C2298 0.950 . S
H2293 C2299 0.950 . S
H2294 C2300 0.949 . S
C2295 H2290 0.950 . S
C2295 C2297 1.327 . S
C2295 C2301 1.429 . S
C2296 C2288 1.574 . S
C2296 H2291 0.949 . S
C2296 C2302 1.368 . S
C2297 C2281 1.349 . S
C2297 H2289 0.950 . S
C2297 C2295 1.327 . S
C2298 C2286 1.349 . S
C2298 H2292 0.950 . S
C2298 C2299 1.327 . S
C2299 H2293 0.950 . S
C2299 C2298 1.327 . S
C2299 C2303 1.429 . S
C2300 C2283 1.574 . S
C2300 H2294 0.949 . S
C2300 C2304 1.368 . S
C2301 C2282 1.429 . S
C2301 C2295 1.429 . S
C2301 C2302 1.523 . S
C2302 C2283 1.368 . S
C2302 C2296 1.368 . S
C2302 C2301 1.523 . S
C2303 C2287 1.429 . S
C2303 C2299 1.429 . S
C2303 C2304 1.523 . S
C2304 C2288 1.368 . S
C2304 C2300 1.368 . S
C2304 C2303 1.523 . S
H2305 C2280 0.950 . S
H2306 C2282 0.950 . S
H2307 C2283 0.949 . S
H2308 C2285 0.950 . S
H2309 C2287 0.950 . S
C2310 C2311 1.349 . S
C2310 C2312 1.327 . S
C2310 H2335 0.950 . S
C2311 C2310 1.349 . S
C2311 C2327 1.349 . S
C2312 C2310 1.327 . S
C2312 C2331 1.429 . S
C2312 H2336 0.950 . S
C2313 C2330 1.574 . S
C2313 C2332 1.368 . S
C2313 H2337 0.949 . S
H2314 C2318 0.949 . S
C2315 C2316 1.349 . S
C2315 C2317 1.327 . S
C2315 H2338 0.950 . S
C2316 C2315 1.349 . S
C2316 C2328 1.349 . S
C2317 C2315 1.327 . S
C2317 C2333 1.429 . S
C2317 H2339 0.950 . S
C2318 H2314 0.949 . S
C2318 C2326 1.574 . S
C2318 C2334 1.368 . S
H2319 C2327 0.950 . S
H2320 C2325 0.950 . S
H2321 C2326 0.949 . S
H2322 C2328 0.950 . S
H2323 C2329 0.950 . S
H2324 C2330 0.949 . S
C2325 H2320 0.950 . S
C2325 C2327 1.327 . S
C2325 C2331 1.429 . S
C2326 C2318 1.574 . S
C2326 H2321 0.949 . S
C2326 C2332 1.368 . S
C2327 C2311 1.349 . S
C2327 H2319 0.950 . S
C2327 C2325 1.327 . S
C2328 C2316 1.349 . S
C2328 H2322 0.950 . S
C2328 C2329 1.327 . S
C2329 H2323 0.950 . S
C2329 C2328 1.327 . S
C2329 C2333 1.429 . S
C2330 C2313 1.574 . S
C2330 H2324 0.949 . S
C2330 C2334 1.368 . S
C2331 C2312 1.429 . S
C2331 C2325 1.429 . S
C2331 C2332 1.523 . S
C2332 C2313 1.368 . S
C2332 C2326 1.368 . S
C2332 C2331 1.523 . S
C2333 C2317 1.429 . S
C2333 C2329 1.429 . S
C2333 C2334 1.523 . S
C2334 C2318 1.368 . S
C2334 C2330 1.368 . S
C2334 C2333 1.523 . S
H2335 C2310 0.950 . S
H2336 C2312 0.950 . S
H2337 C2313 0.949 . S
H2338 C2315 0.950 . S
H2339 C2317 0.950 . S
C2340 C2341 1.349 . S
C2340 C2342 1.327 . S
C2340 H2365 0.950 . S
C2341 C2340 1.349 . S
C2341 C2357 1.349 . S
C2342 C2340 1.327 . S
C2342 C2361 1.429 . S
C2342 H2366 0.950 . S
C2343 C2360 1.574 . S
C2343 C2362 1.368 . S
C2343 H2367 0.949 . S
H2344 C2348 0.949 . S
C2345 C2346 1.349 . S
C2345 C2347 1.327 . S
C2345 H2368 0.950 . S
C2346 C2345 1.349 . S
C2346 C2358 1.349 . S
C2347 C2345 1.327 . S
C2347 C2363 1.429 . S
C2347 H2369 0.950 . S
C2348 H2344 0.949 . S
C2348 C2356 1.574 . S
C2348 C2364 1.368 . S
H2349 C2357 0.950 . S
H2350 C2355 0.950 . S
H2351 C2356 0.949 . S
H2352 C2358 0.950 . S
H2353 C2359 0.950 . S
H2354 C2360 0.949 . S
C2355 H2350 0.950 . S
C2355 C2357 1.327 . S
C2355 C2361 1.429 . S
C2356 C2348 1.574 . S
C2356 H2351 0.949 . S
C2356 C2362 1.368 . S
C2357 C2341 1.349 . S
C2357 H2349 0.950 . S
C2357 C2355 1.327 . S
C2358 C2346 1.349 . S
C2358 H2352 0.950 . S
C2358 C2359 1.327 . S
C2359 H2353 0.950 . S
C2359 C2358 1.327 . S
C2359 C2363 1.429 . S
C2360 C2343 1.574 . S
C2360 H2354 0.949 . S
C2360 C2364 1.368 . S
C2361 C2342 1.429 . S
C2361 C2355 1.429 . S
C2361 C2362 1.523 . S
C2362 C2343 1.368 . S
C2362 C2356 1.368 . S
C2362 C2361 1.523 . S
C2363 C2347 1.429 . S
C2363 C2359 1.429 . S
C2363 C2364 1.523 . S
C2364 C2348 1.368 . S
C2364 C2360 1.368 . S
C2364 C2363 1.523 . S
H2365 C2340 0.950 . S
H2366 C2342 0.950 . S
H2367 C2343 0.949 . S
H2368 C2345 0.950 . S
H2369 C2347 0.950 . S
C2370 C2371 1.349 . S
C2370 C2372 1.327 . S
C2370 H2395 0.950 . S
C2371 C2370 1.349 . S
C2371 C2387 1.349 . S
C2372 C2370 1.327 . S
C2372 C2391 1.429 . S
C2372 H2396 0.950 . S
C2373 C2390 1.574 . S
C2373 C2392 1.368 . S
C2373 H2397 0.949 . S
H2374 C2378 0.949 . S
C2375 C2376 1.349 . S
C2375 C2377 1.327 . S
C2375 H2398 0.950 . S
C2376 C2375 1.349 . S
C2376 C2388 1.349 . S
C2377 C2375 1.327 . S
C2377 C2393 1.429 . S
C2377 H2399 0.950 . S
C2378 H2374 0.949 . S
C2378 C2386 1.574 . S
C2378 C2394 1.368 . S
H2379 C2387 0.950 . S
H2380 C2385 0.950 . S
H2381 C2386 0.949 . S
H2382 C2388 0.950 . S
H2383 C2389 0.950 . S
H2384 C2390 0.949 . S
C2385 H2380 0.950 . S
C2385 C2387 1.327 . S
C2385 C2391 1.429 . S
C2386 C2378 1.574 . S
C2386 H2381 0.949 . S
C2386 C2392 1.368 . S
C2387 C2371 1.349 . S
C2387 H2379 0.950 . S
C2387 C2385 1.327 . S
C2388 C2376 1.349 . S
C2388 H2382 0.950 . S
C2388 C2389 1.327 . S
C2389 H2383 0.950 . S
C2389 C2388 1.327 . S
C2389 C2393 1.429 . S
C2390 C2373 1.574 . S
C2390 H2384 0.949 . S
C2390 C2394 1.368 . S
C2391 C2372 1.429 . S
C2391 C2385 1.429 . S
C2391 C2392 1.523 . S
C2392 C2373 1.368 . S
C2392 C2386 1.368 . S
C2392 C2391 1.523 . S
C2393 C2377 1.429 . S
C2393 C2389 1.429 . S
C2393 C2394 1.523 . S
C2394 C2378 1.368 . S
C2394 C2390 1.368 . S
C2394 C2393 1.523 . S
H2395 C2370 0.950 . S
H2396 C2372 0.950 . S
H2397 C2373 0.949 . S
H2398 C2375 0.950 . S
H2399 C2377 0.950 . S
C2400 C2401 1.349 . S
C2400 C2402 1.327 . S
C2400 H2425 0.950 . S
C2401 C2400 1.349 . S
C2401 C2417 1.349 . S
C2402 C2400 1.327 . S
C2402 C2421 1.429 . S
C2402 H2426 0.950 . S
C2403 C2420 1.574 . S
C2403 C2422 1.368 . S
C2403 H2427 0.949 . S
H2404 C2408 0.949 . S
C2405 C2406 1.349 . S
C2405 C2407 1.327 . S
C2405 H2428 0.950 . S
C2406 C2405 1.349 . S
C2406 C2418 1.349 . S
C2407 C2405 1.327 . S
C2407 C2423 1.429 . S
C2407 H2429 0.950 . S
C2408 H2404 0.949 . S
C2408 C2416 1.574 . S
C2408 C2424 1.368 . S
H2409 C2417 0.950 . S
H2410 C2415 0.950 . S
H2411 C2416 0.949 . S
H2412 C2418 0.950 . S
H2413 C2419 0.950 . S
H2414 C2420 0.949 . S
C2415 H2410 0.950 . S
C2415 C2417 1.327 . S
C2415 C2421 1.429 . S
C2416 C2408 1.574 . S
C2416 H2411 0.949 . S
C2416 C2422 1.368 . S
C2417 C2401 1.349 . S
C2417 H2409 0.950 . S
C2417 C2415 1.327 . S
C2418 C2406 1.349 . S
C2418 H2412 0.950 . S
C2418 C2419 1.327 . S
C2419 H2413 0.950 . S
C2419 C2418 1.327 . S
C2419 C2423 1.429 . S
C2420 C2403 1.574 . S
C2420 H2414 0.949 . S
C2420 C2424 1.368 . S
C2421 C2402 1.429 . S
C2421 C2415 1.429 . S
C2421 C2422 1.523 . S
C2422 C2403 1.368 . S
C2422 C2416 1.368 . S
C2422 C2421 1.523 . S
C2423 C2407 1.429 . S
C2423 C2419 1.429 . S
C2423 C2424 1.523 . S
C2424 C2408 1.368 . S
C2424 C2420 1.368 . S
C2424 C2423 1.523 . S
H2425 C2400 0.950 . S
H2426 C2402 0.950 . S
H2427 C2403 0.949 . S
H2428 C2405 0.950 . S
H2429 C2407 0.950 . S
C2430 C2431 1.349 . S
C2430 C2432 1.327 . S
C2430 H2455 0.950 . S
C2431 C2430 1.349 . S
C2431 C2447 1.349 . S
C2432 C2430 1.327 . S
C2432 C2451 1.429 . S
C2432 H2456 0.950 . S
C2433 C2450 1.574 . S
C2433 C2452 1.368 . S
C2433 H2457 0.949 . S
H2434 C2438 0.949 . S
C2435 C2436 1.349 . S
C2435 C2437 1.327 . S
C2435 H2458 0.950 . S
C2436 C2435 1.349 . S
C2436 C2448 1.349 . S
C2437 C2435 1.327 . S
C2437 C2453 1.429 . S
C2437 H2459 0.950 . S
C2438 H2434 0.949 . S
C2438 C2446 1.574 . S
C2438 C2454 1.368 . S
H2439 C2447 0.950 . S
H2440 C2445 0.950 . S
H2441 C2446 0.949 . S
H2442 C2448 0.950 . S
H2443 C2449 0.950 . S
H2444 C2450 0.949 . S
C2445 H2440 0.950 . S
C2445 C2447 1.327 . S
C2445 C2451 1.429 . S
C2446 C2438 1.574 . S
C2446 H2441 0.949 . S
C2446 C2452 1.368 . S
C2447 C2431 1.349 . S
C2447 H2439 0.950 . S
C2447 C2445 1.327 . S
C2448 C2436 1.349 . S
C2448 H2442 0.950 . S
C2448 C2449 1.327 . S
C2449 H2443 0.950 . S
C2449 C2448 1.327 . S
C2449 C2453 1.429 . S
C2450 C2433 1.574 . S
C2450 H2444 0.949 . S
C2450 C2454 1.368 . S
C2451 C2432 1.429 . S
C2451 C2445 1.429 . S
C2451 C2452 1.523 . S
C2452 C2433 1.368 . S
C2452 C2446 1.368 . S
C2452 C2451 1.523 . S
C2453 C2437 1.429 . S
C2453 C2449 1.429 . S
C2453 C2454 1.523 . S
C2454 C2438 1.368 . S
C2454 C2450 1.368 . S
C2454 C2453 1.523 . S
H2455 C2430 0.950 . S
H2456 C2432 0.950 . S
H2457 C2433 0.949 . S
H2458 C2435 0.950 . S
H2459 C2437 0.950 . S
C2460 C2461 1.349 . S
C2460 C2462 1.327 . S
C2460 H2485 0.950 . S
C2461 C2460 1.349 . S
C2461 C2477 1.349 . S
C2462 C2460 1.327 . S
C2462 C2481 1.429 . S
C2462 H2486 0.950 . S
C2463 C2480 1.574 . S
C2463 C2482 1.368 . S
C2463 H2487 0.949 . S
H2464 C2468 0.949 . S
C2465 C2466 1.349 . S
C2465 C2467 1.327 . S
C2465 H2488 0.950 . S
C2466 C2465 1.349 . S
C2466 C2478 1.349 . S
C2467 C2465 1.327 . S
C2467 C2483 1.429 . S
C2467 H2489 0.950 . S
C2468 H2464 0.949 . S
C2468 C2476 1.574 . S
C2468 C2484 1.368 . S
H2469 C2477 0.950 . S
H2470 C2475 0.950 . S
H2471 C2476 0.949 . S
H2472 C2478 0.950 . S
H2473 C2479 0.950 . S
H2474 C2480 0.949 . S
C2475 H2470 0.950 . S
C2475 C2477 1.327 . S
C2475 C2481 1.429 . S
C2476 C2468 1.574 . S
C2476 H2471 0.949 . S
C2476 C2482 1.368 . S
C2477 C2461 1.349 . S
C2477 H2469 0.950 . S
C2477 C2475 1.327 . S
C2478 C2466 1.349 . S
C2478 H2472 0.950 . S
C2478 C2479 1.327 . S
C2479 H2473 0.950 . S
C2479 C2478 1.327 . S
C2479 C2483 1.429 . S
C2480 C2463 1.574 . S
C2480 H2474 0.949 . S
C2480 C2484 1.368 . S
C2481 C2462 1.429 . S
C2481 C2475 1.429 . S
C2481 C2482 1.523 . S
C2482 C2463 1.368 . S
C2482 C2476 1.368 . S
C2482 C2481 1.523 . S
C2483 C2467 1.429 . S
C2483 C2479 1.429 . S
C2483 C2484 1.523 . S
C2484 C2468 1.368 . S
C2484 C2480 1.368 . S
C2484 C2483 1.523 . S
H2485 C2460 0.950 . S
H2486 C2462 0.950 . S
H2487 C2463 0.949 . S
H2488 C2465 0.950 . S
H2489 C2467 0.950 . S
C2490 C2491 1.349 . S
C2490 C2492 1.327 . S
C2490 H2515 0.950 . S
C2491 C2490 1.349 . S
C2491 C2507 1.349 . S
C2492 C2490 1.327 . S
C2492 C2511 1.429 . S
C2492 H2516 0.950 . S
C2493 C2510 1.574 . S
C2493 C2512 1.368 . S
C2493 H2517 0.949 . S
H2494 C2498 0.949 . S
C2495 C2496 1.349 . S
C2495 C2497 1.327 . S
C2495 H2518 0.950 . S
C2496 C2495 1.349 . S
C2496 C2508 1.349 . S
C2497 C2495 1.327 . S
C2497 C2513 1.429 . S
C2497 H2519 0.950 . S
C2498 H2494 0.949 . S
C2498 C2506 1.574 . S
C2498 C2514 1.368 . S
H2499 C2507 0.950 . S
H2500 C2505 0.950 . S
H2501 C2506 0.949 . S
H2502 C2508 0.950 . S
H2503 C2509 0.950 . S
H2504 C2510 0.949 . S
C2505 H2500 0.950 . S
C2505 C2507 1.327 . S
C2505 C2511 1.429 . S
C2506 C2498 1.574 . S
C2506 H2501 0.949 . S
C2506 C2512 1.368 . S
C2507 C2491 1.349 . S
C2507 H2499 0.950 . S
C2507 C2505 1.327 . S
C2508 C2496 1.349 . S
C2508 H2502 0.950 . S
C2508 C2509 1.327 . S
C2509 H2503 0.950 . S
C2509 C2508 1.327 . S
C2509 C2513 1.429 . S
C2510 C2493 1.574 . S
C2510 H2504 0.949 . S
C2510 C2514 1.368 . S
C2511 C2492 1.429 . S
C2511 C2505 1.429 . S
C2511 C2512 1.523 . S
C2512 C2493 1.368 . S
C2512 C2506 1.368 . S
C2512 C2511 1.523 . S
C2513 C2497 1.429 . S
C2513 C2509 1.429 . S
C2513 C2514 1.523 . S
C2514 C2498 1.368 . S
C2514 C2510 1.368 . S
C2514 C2513 1.523 . S
H2515 C2490 0.950 . S
H2516 C2492 0.950 . S
H2517 C2493 0.949 . S
H2518 C2495 0.950 . S
H2519 C2497 0.950 . S
C2520 C2521 1.349 . S
C2520 C2522 1.327 . S
C2520 H2545 0.950 . S
C2521 C2520 1.349 . S
C2521 C2537 1.349 . S
C2522 C2520 1.327 . S
C2522 C2541 1.429 . S
C2522 H2546 0.950 . S
C2523 C2540 1.574 . S
C2523 C2542 1.368 . S
C2523 H2547 0.949 . S
H2524 C2528 0.949 . S
C2525 C2526 1.349 . S
C2525 C2527 1.327 . S
C2525 H2548 0.950 . S
C2526 C2525 1.349 . S
C2526 C2538 1.349 . S
C2527 C2525 1.327 . S
C2527 C2543 1.429 . S
C2527 H2549 0.950 . S
C2528 H2524 0.949 . S
C2528 C2536 1.574 . S
C2528 C2544 1.368 . S
H2529 C2537 0.950 . S
H2530 C2535 0.950 . S
H2531 C2536 0.949 . S
H2532 C2538 0.950 . S
H2533 C2539 0.950 . S
H2534 C2540 0.949 . S
C2535 H2530 0.950 . S
C2535 C2537 1.327 . S
C2535 C2541 1.429 . S
C2536 C2528 1.574 . S
C2536 H2531 0.949 . S
C2536 C2542 1.368 . S
C2537 C2521 1.349 . S
C2537 H2529 0.950 . S
C2537 C2535 1.327 . S
C2538 C2526 1.349 . S
C2538 H2532 0.950 . S
C2538 C2539 1.327 . S
C2539 H2533 0.950 . S
C2539 C2538 1.327 . S
C2539 C2543 1.429 . S
C2540 C2523 1.574 . S
C2540 H2534 0.949 . S
C2540 C2544 1.368 . S
C2541 C2522 1.429 . S
C2541 C2535 1.429 . S
C2541 C2542 1.523 . S
C2542 C2523 1.368 . S
C2542 C2536 1.368 . S
C2542 C2541 1.523 . S
C2543 C2527 1.429 . S
C2543 C2539 1.429 . S
C2543 C2544 1.523 . S
C2544 C2528 1.368 . S
C2544 C2540 1.368 . S
C2544 C2543 1.523 . S
H2545 C2520 0.950 . S
H2546 C2522 0.950 . S
H2547 C2523 0.949 . S
H2548 C2525 0.950 . S
H2549 C2527 0.950 . S
C2550 C2551 1.349 . S
C2550 C2552 1.327 . S
C2550 H2575 0.950 . S
C2551 C2550 1.349 . S
C2551 C2567 1.349 . S
C2552 C2550 1.327 . S
C2552 C2571 1.429 . S
C2552 H2576 0.950 . S
C2553 C2570 1.574 . S
C2553 C2572 1.368 . S
C2553 H2577 0.949 . S
H2554 C2558 0.949 . S
C2555 C2556 1.349 . S
C2555 C2557 1.327 . S
C2555 H2578 0.950 . S
C2556 C2555 1.349 . S
C2556 C2568 1.349 . S
C2557 C2555 1.327 . S
C2557 C2573 1.429 . S
C2557 H2579 0.950 . S
C2558 H2554 0.949 . S
C2558 C2566 1.574 . S
C2558 C2574 1.368 . S
H2559 C2567 0.950 . S
H2560 C2565 0.950 . S
H2561 C2566 0.949 . S
H2562 C2568 0.950 . S
H2563 C2569 0.950 . S
H2564 C2570 0.949 . S
C2565 H2560 0.950 . S
C2565 C2567 1.327 . S
C2565 C2571 1.429 . S
C2566 C2558 1.574 . S
C2566 H2561 0.949 . S
C2566 C2572 1.368 . S
C2567 C2551 1.349 . S
C2567 H2559 0.950 . S
C2567 C2565 1.327 . S
C2568 C2556 1.349 . S
C2568 H2562 0.950 . S
C2568 C2569 1.327 . S
C2569 H2563 0.950 . S
C2569 C2568 1.327 . S
C2569 C2573 1.429 . S
C2570 C2553 1.574 . S
C2570 H2564 0.949 . S
C2570 C2574 1.368 . S
C2571 C2552 1.429 . S
C2571 C2565 1.429 . S
C2571 C2572 1.523 . S
C2572 C2553 1.368 . S
C2572 C2566 1.368 . S
C2572 C2571 1.523 . S
C2573 C2557 1.429 . S
C2573 C2569 1.429 . S
C2573 C2574 1.523 . S
C2574 C2558 1.368 . S
C2574 C2570 1.368 . S
C2574 C2573 1.523 . S
H2575 C2550 0.950 . S
H2576 C2552 0.950 . S
H2577 C2553 0.949 . S
H2578 C2555 0.950 . S
H2579 C2557 0.950 . S
C2580 C2581 1.349 . S
C2580 C2582 1.327 . S
C2580 H2605 0.950 . S
C2581 C2580 1.349 . S
C2581 C2597 1.349 . S
C2582 C2580 1.327 . S
C2582 C2601 1.429 . S
C2582 H2606 0.950 . S
C2583 C2600 1.574 . S
C2583 C2602 1.368 . S
C2583 H2607 0.949 . S
H2584 C2588 0.949 . S
C2585 C2586 1.349 . S
C2585 C2587 1.327 . S
C2585 H2608 0.950 . S
C2586 C2585 1.349 . S
C2586 C2598 1.349 . S
C2587 C2585 1.327 . S
C2587 C2603 1.429 . S
C2587 H2609 0.950 . S
C2588 H2584 0.949 . S
C2588 C2596 1.574 . S
C2588 C2604 1.368 . S
H2589 C2597 0.950 . S
H2590 C2595 0.950 . S
H2591 C2596 0.949 . S
H2592 C2598 0.950 . S
H2593 C2599 0.950 . S
H2594 C2600 0.949 . S
C2595 H2590 0.950 . S
C2595 C2597 1.327 . S
C2595 C2601 1.429 . S
C2596 C2588 1.574 . S
C2596 H2591 0.949 . S
C2596 C2602 1.368 . S
C2597 C2581 1.349 . S
C2597 H2589 0.950 . S
C2597 C2595 1.327 . S
C2598 C2586 1.349 . S
C2598 H2592 0.950 . S
C2598 C2599 1.327 . S
C2599 H2593 0.950 . S
C2599 C2598 1.327 . S
C2599 C2603 1.429 . S
C2600 C2583 1.574 . S
C2600 H2594 0.949 . S
C2600 C2604 1.368 . S
C2601 C2582 1.429 . S
C2601 C2595 1.429 . S
C2601 C2602 1.523 . S
C2602 C2583 1.368 . S
C2602 C2596 1.368 . S
C2602 C2601 1.523 . S
C2603 C2587 1.429 . S
C2603 C2599 1.429 . S
C2603 C2604 1.523 . S
C2604 C2588 1.368 . S
C2604 C2600 1.368 . S
C2604 C2603 1.523 . S
H2605 C2580 0.950 . S
H2606 C2582 0.950 . S
H2607 C2583 0.949 . S
H2608 C2585 0.950 . S
H2609 C2587 0.950 . S
C2610 C2611 1.349 . S
C2610 C2612 1.327 . S
C2610 H2635 0.950 . S
C2611 C2610 1.349 . S
C2611 C2627 1.349 . S
C2612 C2610 1.327 . S
C2612 C2631 1.429 . S
C2612 H2636 0.950 . S
C2613 C2630 1.574 . S
C2613 C2632 1.368 . S
C2613 H2637 0.949 . S
H2614 C2618 0.949 . S
C2615 C2616 1.349 . S
C2615 C2617 1.327 . S
C2615 H2638 0.950 . S
C2616 C2615 1.349 . S
C2616 C2628 1.349 . S
C2617 C2615 1.327 . S
C2617 C2633 1.429 . S
C2617 H2639 0.950 . S
C2618 H2614 0.949 . S
C2618 C2626 1.574 . S
C2618 C2634 1.368 . S
H2619 C2627 0.950 . S
H2620 C2625 0.950 . S
H2621 C2626 0.949 . S
H2622 C2628 0.950 . S
H2623 C2629 0.950 . S
H2624 C2630 0.949 . S
C2625 H2620 0.950 . S
C2625 C2627 1.327 . S
C2625 C2631 1.429 . S
C2626 C2618 1.574 . S
C2626 H2621 0.949 . S
C2626 C2632 1.368 . S
C2627 C2611 1.349 . S
C2627 H2619 0.950 . S
C2627 C2625 1.327 . S
C2628 C2616 1.349 . S
C2628 H2622 0.950 . S
C2628 C2629 1.327 . S
C2629 H2623 0.950 . S
C2629 C2628 1.327 . S
C2629 C2633 1.429 . S
C2630 C2613 1.574 . S
C2630 H2624 0.949 . S
C2630 C2634 1.368 . S
C2631 C2612 1.429 . S
C2631 C2625 1.429 . S
C2631 C2632 1.523 . S
C2632 C2613 1.368 . S
C2632 C2626 1.368 . S
C2632 C2631 1.523 . S
C2633 C2617 1.429 . S
C2633 C2629 1.429 . S
C2633 C2634 1.523 . S
C2634 C2618 1.368 . S
C2634 C2630 1.368 . S
C2634 C2633 1.523 . S
H2635 C2610 0.950 . S
H2636 C2612 0.950 . S
H2637 C2613 0.949 . S
H2638 C2615 0.950 . S
H2639 C2617 0.950 . S
C481 C13 2.930 . S
C486 C328 2.775 . S
C511 C33 2.930 . S
C516 C477 2.775 . S
C541 C428 2.775 . S
C546 C53 2.930 . S
C571 C73 2.930 . S
C576 C448 2.775 . S
C601 C93 2.930 . S
C606 C348 2.775 . S
C631 C113 2.930 . S
C636 C368 2.775 . S
C661 C133 2.930 . S
C666 C388 2.775 . S
C691 C153 2.930 . S
C696 C417 2.775 . S
C721 C173 2.930 . S
C726 C8 2.775 . S
C751 C193 2.930 . S
C756 C28 2.775 . S
C781 C48 2.775 . S
C786 C213 2.930 . S
C811 C68 2.775 . S
C816 C233 2.930 . S
C841 C253 2.930 . S
C846 C88 2.775 . S
C871 C262 2.930 . S
C876 C108 2.775 . S
C901 C293 2.930 . S
C906 C128 2.775 . S
C931 C313 2.930 . S
C936 C148 2.775 . S
C961 C333 2.930 . S
C966 C168 2.775 . S
C991 C353 2.930 . S
C996 C248 2.775 . S
C1021 C277 2.775 . S
C1026 C373 2.930 . S
C1051 C393 2.930 . S
C1056 C288 2.775 . S
C1081 C402 2.930 . S
C1086 C308 2.775 . S
C1111 C433 2.930 . S
C1116 C208 2.775 . S
C1141 C228 2.775 . S
C1146 C453 2.930 . S
C1171 C462 2.930 . S
C1176 C188 2.775 . S
C1201 C437 1.565 . S
C1206 C94 1.576 . S
C1231 C457 1.565 . S
C1236 C114 1.576 . S
C1261 C134 1.576 . S
C1266 C337 1.566 . S
C1291 C154 1.576 . S
C1296 C468 1.566 . S
C1321 C397 1.566 . S
C1326 C14 1.576 . S
C1351 C34 1.576 . S
C1356 C408 1.566 . S
C1381 C357 1.565 . S
C1386 C54 1.576 . S
C1411 C74 1.576 . S
C1416 C377 1.565 . S
C1441 C294 1.576 . S
C1446 C97 1.565 . S
C1471 C314 1.576 . S
C1476 C117 1.566 . S
C1501 C254 1.576 . S
C1506 C137 1.565 . S
C1531 C157 1.566 . S
C1536 C265 1.576 . S
C1561 C214 1.576 . S
C1566 C17 1.566 . S
C1591 C234 1.576 . S
C1596 C37 1.565 . S
C1621 C174 1.576 . S
C1626 C57 1.566 . S
C1651 C194 1.576 . S
C1656 C77 1.565 . S
C1681 C297 1.565 . S
C1686 C434 1.576 . S
C1711 C394 1.576 . S
C1716 C217 1.565 . S
C1741 C237 1.566 . S
C1746 C405 1.576 . S
C1771 C354 1.576 . S
C1776 C177 1.566 . S
C1801 C374 1.576 . S
C1806 C197 1.565 . S
C1831 C334 1.576 . S
C1836 C257 1.566 . S
C1861 C465 1.576 . S
C1866 C268 1.565 . S
C1891 C317 1.566 . S
C1896 C454 1.576 . S
C1921 C414 0.612 . S
C1926 C5 0.612 . S
C1951 C345 0.612 . S
C1956 C25 0.612 . S
C1981 C45 0.612 . S
C1986 C365 0.612 . S
C2011 C65 0.612 . S
C2016 C385 0.612 . S
C2041 C474 0.612 . S
C2046 C85 0.612 . S
C2071 C105 0.612 . S
C2076 C425 0.612 . S
C2101 C445 0.612 . S
C2106 C125 0.612 . S
C2131 C145 0.612 . S
C2136 C325 0.612 . S
C2161 C165 0.612 . S
C2166 C305 0.612 . S
C2191 C245 0.612 . S
C2196 C185 0.612 . S
C2221 C205 0.612 . S
C2226 C274 0.612 . S
C2251 C285 0.612 . S
C2256 C225 0.612 . S
C2281 C362 3.317 . S
C2286 C82 3.317 . S
C2311 C382 3.317 . S
C2316 C102 3.317 . S
C2341 C122 3.316 . S
C2346 C413 3.316 . S
C2371 C142 3.316 . S
C2376 C342 3.316 . S
C2401 C442 3.316 . S
C2406 C2 3.316 . S
C2431 C322 3.316 . S
C2436 C22 3.316 . S
C2461 C473 3.317 . S
C2466 C42 3.317 . S
C2491 C62 3.317 . S
C2496 C422 3.317 . S
C2521 C182 3.317 . S
C2526 C282 3.317 . S
C2551 C302 3.316 . S
C2556 C202 3.316 . S
C2581 C242 3.317 . S
C2586 C222 3.317 . S
C2611 C273 3.316 . S
C2616 C162 3.316 . S
