# Generated by pormake.
# Topology snz, (6)-cn, num edge types: 1
# Building blocks:
#     Node 0, Type 0, BuildingBlock: VOLQOD_clean_sbu_1, # of connection points: 6
#     Node 1, Type 0, BuildingBlock: VOLQOD_clean_sbu_1, # of connection points: 6
#     Node 2, Type 0, BuildingBlock: VOLQOD_clean_sbu_1, # of connection points: 6
#     Node 3, Type 0, BuildingBlock: VOLQOD_clean_sbu_1, # of connection points: 6
#     Node 4, Type 0, BuildingBlock: VOLQOD_clean_sbu_1, # of connection points: 6
#     Node 5, Type 0, BuildingBlock: VOLQOD_clean_sbu_1, # of connection points: 6
#     Node 6, Type 0, BuildingBlock: VOLQOD_clean_sbu_1, # of connection points: 6
#     Node 7, Type 0, BuildingBlock: VOLQOD_clean_sbu_1, # of connection points: 6
#     Node 8, Type 0, BuildingBlock: VOLQOD_clean_sbu_1, # of connection points: 6
#     Edge 9, Type (0, 0), BuildingBlock: ZUJKAS_clean_linker_0, # of connection points: 2
#     Edge 10, Type (0, 0), BuildingBlock: ZUJKAS_clean_linker_0, # of connection points: 2
#     Edge 11, Type (0, 0), BuildingBlock: ZUJKAS_clean_linker_0, # of connection points: 2
#     Edge 12, Type (0, 0), BuildingBlock: ZUJKAS_clean_linker_0, # of connection points: 2
#     Edge 13, Type (0, 0), BuildingBlock: ZUJKAS_clean_linker_0, # of connection points: 2
#     Edge 14, Type (0, 0), BuildingBlock: ZUJKAS_clean_linker_0, # of connection points: 2
#     Edge 15, Type (0, 0), BuildingBlock: ZUJKAS_clean_linker_0, # of connection points: 2
#     Edge 16, Type (0, 0), BuildingBlock: ZUJKAS_clean_linker_0, # of connection points: 2
#     Edge 17, Type (0, 0), BuildingBlock: ZUJKAS_clean_linker_0, # of connection points: 2
#     Edge 18, Type (0, 0), BuildingBlock: ZUJKAS_clean_linker_0, # of connection points: 2
#     Edge 19, Type (0, 0), BuildingBlock: ZUJKAS_clean_linker_0, # of connection points: 2
#     Edge 20, Type (0, 0), BuildingBlock: ZUJKAS_clean_linker_0, # of connection points: 2
#     Edge 21, Type (0, 0), BuildingBlock: ZUJKAS_clean_linker_0, # of connection points: 2
#     Edge 22, Type (0, 0), BuildingBlock: ZUJKAS_clean_linker_0, # of connection points: 2
#     Edge 23, Type (0, 0), BuildingBlock: ZUJKAS_clean_linker_0, # of connection points: 2
#     Edge 24, Type (0, 0), BuildingBlock: ZUJKAS_clean_linker_0, # of connection points: 2
#     Edge 25, Type (0, 0), BuildingBlock: ZUJKAS_clean_linker_0, # of connection points: 2
#     Edge 26, Type (0, 0), BuildingBlock: ZUJKAS_clean_linker_0, # of connection points: 2
#     Edge 27, Type (0, 0), BuildingBlock: ZUJKAS_clean_linker_0, # of connection points: 2
#     Edge 28, Type (0, 0), BuildingBlock: ZUJKAS_clean_linker_0, # of connection points: 2
#     Edge 29, Type (0, 0), BuildingBlock: ZUJKAS_clean_linker_0, # of connection points: 2
#     Edge 30, Type (0, 0), BuildingBlock: ZUJKAS_clean_linker_0, # of connection points: 2
#     Edge 31, Type (0, 0), BuildingBlock: ZUJKAS_clean_linker_0, # of connection points: 2
#     Edge 32, Type (0, 0), BuildingBlock: ZUJKAS_clean_linker_0, # of connection points: 2
#     Edge 33, Type (0, 0), BuildingBlock: ZUJKAS_clean_linker_0, # of connection points: 2
#     Edge 34, Type (0, 0), BuildingBlock: ZUJKAS_clean_linker_0, # of connection points: 2
#     Edge 35, Type (0, 0), BuildingBlock: ZUJKAS_clean_linker_0, # of connection points: 2
# Relax obj value: 0.409
# Max RMSD: 0.302
# Mean RMSD: 0.293
data_MOF--net-snz--node1-VOLQOD_clean_sbu_1--edge1-ZUJKAS_clean_linker_0
_symmetry_space_group_name_H-M    P1
_symmetry_Int_Tables_number       1
_symmetry_cell_setting            triclinic
loop_
_symmetry_equiv_pos_as_xyz
'x, y, z'
_cell_length_a     66.82875
_cell_length_b     66.83071
_cell_length_c     19.686646
_cell_angle_alpha  90.054185
_cell_angle_beta   89.942845
_cell_angle_gamma 120.01058
loop_
_atom_site_label
_atom_site_type_symbol
_atom_site_fract_x
_atom_site_fract_y
_atom_site_fract_z
_atom_type_partial_charge
O0 O 0.07927 0.53231 -0.00831 0.0
Zn1 Zn 0.07345 0.55551 0.94284 0.0
O2 O 0.04244 0.5495 0.95907 0.0
Zn3 Zn 0.02293 0.53585 0.88235 0.0
Zn4 Zn 0.02903 0.5297 0.03605 0.0
Zn5 Zn 0.04574 0.57931 0.97556 0.0
O6 O 0.00389 0.55108 0.86557 0.0
O7 O 0.02023 0.5822 0.9315 0.0
O8 O 0.07868 0.55631 0.84182 0.0
O9 O 0.04278 0.54047 0.80107 0.0
O10 O 0.00055 0.50243 0.89998 0.0
O11 O -0.00141 0.50143 0.01281 0.0
O12 O 0.02767 0.54765 0.1159 0.0
O13 O 0.09558 0.58688 0.9808 0.0
O14 O 0.04515 0.5836 0.07603 0.0
O15 O 0.07698 0.60458 0.94612 0.0
C16 C 0.06852 0.51939 0.04213 0.0
C17 C 0.00479 0.56931 0.88886 0.0
C18 C 0.99115 0.49189 0.95509 0.0
C19 C 0.0645 0.54934 0.79226 0.0
C20 C 0.03672 0.56937 0.12507 0.0
C21 C 0.09507 0.60539 0.96994 0.0
O22 O 0.04983 0.51772 0.06428 0.0
O23 O 0.50155 0.55593 0.1517 0.0
Zn24 Zn 0.48123 0.52193 0.14277 0.0
O25 O 0.49604 0.50537 0.17741 0.0
Zn26 Zn 0.49606 0.48422 0.11034 0.0
Zn27 Zn 0.52797 0.5277 0.20121 0.0
Zn28 Zn 0.47849 0.48704 0.25454 0.0
O29 O 0.47781 0.45115 0.13827 0.0
O30 O 0.46167 0.45294 0.23466 0.0
O31 O 0.47347 0.51517 0.04485 0.0
O32 O 0.48132 0.48701 0.02631 0.0
O33 O 0.52808 0.49201 0.08334 0.0
O34 O 0.5503 0.52441 0.14001 0.0
O35 O 0.53441 0.52245 0.29673 0.0
O36 O 0.45221 0.51348 0.19285 0.0
O37 O 0.50039 0.49325 0.3304 0.0
O38 O 0.45317 0.49358 0.28159 0.0
C39 C 0.52204 0.56891 0.17287 0.0
C40 C 0.46396 0.44129 0.18738 0.0
C41 C 0.54791 0.50904 0.09729 0.0
C42 C 0.47369 0.50003 0.00631 0.0
C43 C 0.52174 0.50748 0.34065 0.0
C44 C 0.44376 0.50311 0.24865 0.0
O45 O 0.53433 0.56052 0.19405 0.0
O46 O 0.43895 0.98992 0.04253 0.0
Zn47 Zn 0.46622 0.00245 0.97908 0.0
O48 O 0.48639 0.03553 -0.00492 0.0
Zn49 Zn 0.48931 0.05288 0.9144 0.0
Zn50 Zn 0.47477 0.04699 0.06654 0.0
Zn51 Zn 0.51643 0.04072 0.02131 0.0
O52 O 0.52262 0.07342 0.88943 0.0
O53 O 0.54165 0.06816 0.97346 0.0
O54 O 0.45569 -0.00371 0.88154 0.0
O55 O 0.47276 0.03172 0.83779 0.0
O56 O 0.47706 0.07427 0.92731 0.0
O57 O 0.4724 0.07493 0.03869 0.0
O58 O 0.49404 0.0541 0.14987 0.0
O59 O 0.48324 0.98484 -0.00764 0.0
O60 O 0.52006 0.04414 0.12223 0.0
O61 O 0.5196 0.01331 -0.00056 0.0
C62 C 0.4324 -0.00037 0.08595 0.0
C63 C 0.54143 0.07856 0.91954 0.0
C64 C 0.47259 0.08261 0.97937 0.0
C65 C 0.4601 0.00993 0.83151 0.0
C66 C 0.51019 0.05021 0.16626 0.0
C67 C 0.50482 0.99191 -0.00568 0.0
O68 O 0.44393 0.02131 0.09708 0.0
O69 O 0.72534 0.91862 0.27309 0.0
Zn70 Zn 0.70809 0.88669 0.23172 0.0
O71 O 0.67493 0.87382 0.242 0.0
Zn72 Zn 0.66295 0.84981 0.30863 0.0
Zn73 Zn 0.67015 0.89855 0.2707 0.0
Zn74 Zn 0.6582 0.86041 0.15982 0.0
O75 O 0.63374 0.82169 0.27925 0.0
O76 O 0.63837 0.82595 0.16757 0.0
O77 O 0.71846 0.86568 0.2743 0.0
O78 O 0.6855 0.83896 0.32101 0.0
O79 O 0.65992 0.86219 0.3979 0.0
O80 O 0.66484 0.89661 0.37097 0.0
O81 O 0.644 0.89825 0.22047 0.0
O82 O 0.71564 0.89014 0.13184 0.0
O83 O 0.63668 0.87256 0.13872 0.0
O84 O 0.6809 0.86892 0.08441 0.0
C85 C 0.71954 0.93413 0.27297 0.0
C86 C 0.62833 0.81351 0.21936 0.0
C87 C 0.66164 0.88137 0.41498 0.0
C88 C 0.70668 0.84677 0.30655 0.0
C89 C 0.63268 0.8872 0.1681 0.0
C90 C 0.70281 0.88124 0.07994 0.0
O91 O 0.69893 0.92915 0.25941 0.0
O92 O 0.10794 0.85685 0.44048 0.0
Zn93 Zn 0.14093 0.87308 0.40883 0.0
O94 O 0.1546 0.85351 0.42185 0.0
Zn95 Zn 0.1786 0.86629 0.49 0.0
Zn96 Zn 0.13063 0.82311 0.44992 0.0
Zn97 Zn 0.16822 0.85113 0.33886 0.0
O98 O 0.20878 0.86952 0.45833 0.0
O99 O 0.20227 0.86473 0.34739 0.0
O100 O 0.15961 0.90369 0.45697 0.0
O101 O 0.18562 0.89825 0.51135 0.0
O102 O 0.16748 0.84868 0.57676 0.0
O103 O 0.13279 0.81957 0.54997 0.0
O104 O 0.13248 0.79782 0.39892 0.0
O105 O 0.13945 0.87917 0.30939 0.0
O106 O 0.15591 0.81812 0.31426 0.0
O107 O 0.16129 0.86633 0.26316 0.0
C108 C 0.09323 0.83532 0.4429 0.0
C109 C 0.21581 0.8699 0.39794 0.0
C110 C 0.14842 0.83103 0.59363 0.0
C111 C 0.1771 0.91093 0.49597 0.0
C112 C 0.14284 0.79894 0.34346 0.0
C113 C 0.14919 0.87609 0.25813 0.0
O114 O 0.0994 0.82014 0.43826 0.0
O115 O 0.13325 0.26304 0.30663 0.0
Zn116 Zn 0.12361 0.28712 0.29577 0.0
O117 O 0.14961 0.31788 0.31136 0.0
Zn118 Zn 0.14455 0.33345 0.38621 0.0
Zn119 Zn 0.17517 0.31425 0.33576 0.0
Zn120 Zn 0.1579 0.33737 0.23359 0.0
O121 O 0.1423 0.36129 0.35654 0.0
O122 O 0.1488 0.36126 0.24601 0.0
O123 O 0.09844 0.27968 0.36527 0.0
O124 O 0.11494 0.31115 0.4303 0.0
O125 O 0.16788 0.34091 0.46016 0.0
O126 O 0.17557 0.31308 0.43673 0.0
O127 O 0.20452 0.34083 0.30245 0.0
O128 O 0.11313 0.28456 0.1984 0.0
O129 O 0.19257 0.35534 0.22094 0.0
O130 O 0.14035 0.31806 0.15423 0.0
C131 C 0.15305 0.26473 0.30227 0.0
C132 C 0.14384 0.36956 0.29722 0.0
C133 C 0.17372 0.32635 0.47943 0.0
C134 C 0.09845 0.29088 0.41784 0.0
C135 C 0.20878 0.35546 0.25537 0.0
C136 C 0.12247 0.29809 0.14797 0.0
O137 O 0.17147 0.28435 0.30293 0.0
O138 O 0.36891 0.26462 0.7317 0.0
Zn139 Zn 0.36992 0.24013 0.67576 0.0
O140 O 0.34019 0.21233 0.68346 0.0
Zn141 Zn 0.34269 0.19107 0.74205 0.0
Zn142 Zn 0.31792 0.21958 0.72181 0.0
Zn143 Zn 0.32996 0.19763 0.59762 0.0
O144 O 0.32248 0.15842 0.71113 0.0
O145 O 0.32244 0.16454 0.60029 0.0
O146 O 0.39535 0.23497 0.71264 0.0
O147 O 0.37528 0.19798 0.74344 0.0
O148 O 0.33546 0.19634 0.8363 0.0
O149 O 0.31208 0.21049 0.81975 0.0
O150 O 0.28867 0.2059 0.66666 0.0
O151 O 0.3767 0.24967 0.57716 0.0
O152 O 0.30002 0.19591 0.57261 0.0
O153 O 0.35325 0.21602 0.5266 0.0
C154 C 0.35249 0.26832 0.74681 0.0
C155 C 0.31773 0.15086 0.65045 0.0
C156 C 0.32273 0.20396 0.85935 0.0
C157 C 0.39438 0.21655 0.7343 0.0
C158 C 0.28497 0.19824 0.60594 0.0
C159 C 0.36962 0.23695 0.5243 0.0
O160 O 0.33161 0.25384 0.73159 0.0
O161 O 0.78453 0.20643 0.7213 0.0
Zn162 Zn 0.8185 0.21987 0.70599 0.0
O163 O 0.8284 0.19758 0.72671 0.0
Zn164 Zn 0.84996 0.20855 0.80215 0.0
Zn165 Zn 0.80128 0.16791 0.74828 0.0
Zn166 Zn 0.844 0.19393 0.6496 0.0
O167 O 0.87999 0.20954 0.78129 0.0
O168 O 0.87663 0.20336 0.67009 0.0
O169 O 0.83587 0.24879 0.7616 0.0
O170 O 0.85771 0.24071 0.82818 0.0
O171 O 0.8351 0.18885 0.88302 0.0
O172 O 0.80022 0.16183 0.84852 0.0
O173 O 0.8003 0.14162 0.69446 0.0
O174 O 0.82287 0.22801 0.60721 0.0
O175 O 0.82944 0.16081 0.62288 0.0
O176 O 0.84231 0.21128 0.56964 0.0
C177 C 0.76825 0.18553 0.72448 0.0
C178 C 0.88825 0.20788 0.72467 0.0
C179 C 0.81525 0.17154 0.8951 0.0
C180 C 0.85085 0.25443 0.80854 0.0
C181 C 0.81277 0.14194 0.64498 0.0
C182 C 0.8329 0.22353 0.55964 0.0
O183 O 0.77237 0.16894 0.72943 0.0
O184 O 0.81808 0.62331 0.69804 0.0
Zn185 Zn 0.7949 0.63094 0.65761 0.0
O186 O 0.8051 0.66371 0.66835 0.0
Zn187 Zn 0.77965 0.6666 0.70338 0.0
Zn188 Zn 0.83105 0.67787 0.73005 0.0
Zn189 Zn 0.81449 0.67958 0.583 0.0
O190 O 0.77509 0.69006 0.65217 0.0
O191 O 0.79568 0.69437 0.55912 0.0
O192 O 0.76341 0.61113 0.69909 0.0
O193 O 0.75036 0.63587 0.70241 0.0
O194 O 0.78454 0.67442 0.80185 0.0
O195 O 0.82026 0.68161 0.82123 0.0
O196 O 0.85709 0.70788 0.69431 0.0
O197 O 0.79205 0.62272 0.55861 0.0
O198 O 0.84712 0.70556 0.5858 0.0
O199 O 0.81067 0.65743 0.50997 0.0
C200 C 0.83706 0.63578 0.7293 0.0
C201 C 0.78188 0.69843 0.59301 0.0
C202 C 0.80119 0.67928 0.84231 0.0
C203 C 0.74703 0.61542 0.70799 0.0
C204 C 0.86141 0.71568 0.63383 0.0
C205 C 0.80061 0.63549 0.50658 0.0
O206 O 0.84398 0.65685 0.74321 0.0
H207 H 0.04509 0.52376 0.67923 0.0
H208 H 0.05337 0.53761 0.56213 0.0
H209 H 0.11057 0.60232 0.63068 0.0
H210 H 0.10273 0.58825 0.7483 0.0
H211 H 0.07032 0.60214 0.55892 0.0
H212 H 0.1077 0.55642 0.41912 0.0
H213 H 0.08518 0.53858 0.47801 0.0
H214 H 0.1118 0.56221 0.50939 0.0
C215 C 0.05999 0.54056 0.669 0.0
C216 C 0.07328 0.55495 0.72242 0.0
C217 C 0.06472 0.54845 0.60226 0.0
C218 C 0.08258 0.57093 0.58817 0.0
C219 C 0.09687 0.58484 0.64085 0.0
H220 H 0.07299 0.61027 0.16814 0.0
H221 H 0.08859 0.61867 0.28374 0.0
C222 C 0.09244 0.57674 0.70773 0.0
C223 C 0.08339 0.58066 0.52052 0.0
H224 H 0.08502 0.56844 0.35349 0.0
C225 C 0.07431 0.59551 0.51373 0.0
C226 C 0.08861 0.57191 0.46214 0.0
C227 C 0.09907 0.55654 0.46727 0.0
C228 C 0.06817 0.59996 0.44975 0.0
C229 C 0.07141 0.58941 0.39211 0.0
C230 C 0.08252 0.5764 0.3983 0.0
C231 C 0.05991 0.58807 0.32734 0.0
C232 C 0.0566 0.6143 0.44431 0.0
C233 C 0.03821 0.56866 0.31498 0.0
C234 C 0.02934 0.56367 0.24926 0.0
C235 C 0.04205 0.57814 0.19519 0.0
C236 C 0.06272 0.59886 0.20896 0.0
C237 C 0.07175 0.60367 0.27478 0.0
H238 H 0.05804 0.62376 0.49216 0.0
H239 H 0.06435 0.62692 0.4021 0.0
H240 H 0.03801 0.60283 0.43245 0.0
H241 H 0.02893 0.55647 0.35534 0.0
H242 H 0.01338 0.54766 0.24004 0.0
H243 H 0.48143 0.53716 0.93061 0.0
H244 H 0.48984 0.54096 0.80895 0.0
H245 H 0.46638 0.46806 0.79693 0.0
H246 H 0.45812 0.46414 0.9183 0.0
H247 H 0.52432 0.52759 0.77784 0.0
H248 H 0.44653 0.48371 0.61348 0.0
H249 H 0.44602 0.4949 0.69674 0.0
H250 H 0.44554 0.46789 0.68839 0.0
C251 C 0.47695 0.52174 0.90133 0.0
C252 C 0.46961 0.50044 0.93353 0.0
C253 C 0.48187 0.52399 0.83207 0.0
C254 C 0.47891 0.50483 0.79482 0.0
C255 C 0.46862 0.48297 0.82515 0.0
H256 H 0.5146 0.47185 0.4214 0.0
H257 H 0.51215 0.47286 0.54485 0.0
C258 C 0.46396 0.48076 0.89438 0.0
C259 C 0.49092 0.5082 0.72998 0.0
H260 H 0.4821 0.49038 0.56578 0.0
C261 C 0.5152 0.51978 0.73097 0.0
C262 C 0.4788 0.49766 0.66998 0.0
C263 C 0.45277 0.48548 0.66663 0.0
C264 C 0.52776 0.52042 0.67327 0.0
C265 C 0.51558 0.50939 0.6137 0.0
C266 C 0.49132 0.49839 0.61237 0.0
C267 C 0.52722 0.50998 0.54992 0.0
C268 C 0.55375 0.53225 0.67676 0.0
C269 C 0.5387 0.53077 0.51359 0.0
C270 C 0.54051 0.53024 0.44317 0.0
C271 C 0.53036 0.50889 0.40948 0.0
C272 C 0.52233 0.48845 0.44685 0.0
C273 C 0.52093 0.48902 0.51718 0.0
H274 H 0.56005 0.53502 0.73005 0.0
H275 H 0.56019 0.52198 0.64968 0.0
H276 H 0.56127 0.54936 0.65161 0.0
H277 H 0.5435 0.54708 0.53812 0.0
H278 H 0.54676 0.54619 0.41496 0.0
H279 H 0.45993 0.97198 0.78033 0.0
H280 H 0.46481 0.96607 0.65978 0.0
H281 H 0.45306 0.02198 0.6069 0.0
H282 H 0.44834 0.02802 0.72658 0.0
H283 H 0.43734 0.984 0.50686 0.0
H284 H 0.52865 0.02151 0.59471 0.0
H285 H 0.50653 0.99508 0.63231 0.0
H286 H 0.5069 0.02167 0.64865 0.0
C287 C 0.45728 0.98222 0.74262 0.0
C288 C 0.45414 0.00069 0.7623 0.0
C289 C 0.46023 0.97893 0.67399 0.0
C290 C 0.45977 0.99393 0.62508 0.0
C291 C 0.45357 0.01032 0.64417 0.0
H292 H 0.49912 0.06829 0.27407 0.0
H293 H 0.48917 0.05111 0.38714 0.0
C294 C 0.45089 0.01377 0.71245 0.0
C295 C 0.46997 -0.00385 0.55726 0.0
H296 H 0.52263 0.02495 0.47935 0.0
C297 C 0.45592 0.99226 0.50038 0.0
C298 C 0.49426 0.00701 0.54936 0.0
C299 C 0.5101 0.0117 0.60927 0.0
C300 C 0.46567 0.00052 0.43635 0.0
C301 C 0.49 0.01328 0.42989 0.0
C302 C 0.504 0.01537 0.48526 0.0
C303 C 0.50088 0.02674 0.36815 0.0
C304 C 0.44993 -0.00327 0.37682 0.0
C305 C 0.51251 0.01992 0.32286 0.0
C306 C 0.51853 0.02994 0.25838 0.0
C307 C 0.51271 0.04666 0.23883 0.0
C308 C 0.50358 0.05528 0.28751 0.0
C309 C 0.4977 0.04536 0.3518 0.0
H310 H 0.43237 0.98169 0.38529 0.0
H311 H 0.44822 0.01228 0.36984 0.0
H312 H 0.45713 0.9939 0.32925 0.0
H313 H 0.51537 0.00577 0.33542 0.0
H314 H 0.52557 0.02294 0.22196 0.0
H315 H 0.68086 0.9249 0.46859 0.0
H316 H 0.69845 0.9365 0.5812 0.0
H317 H 0.66978 0.8649 0.63638 0.0
H318 H 0.65222 0.85305 0.52427 0.0
H319 H 0.67988 0.92176 0.72425 0.0
H320 H 0.74334 0.89658 0.64027 0.0
H321 H 0.72643 0.90289 0.58156 0.0
H322 H 0.71391 0.87512 0.62229 0.0
C323 C 0.67762 0.91158 0.50542 0.0
C324 C 0.66549 0.88802 0.48721 0.0
C325 C 0.68786 0.91829 0.56943 0.0
C326 C 0.68593 0.90153 0.61563 0.0
C327 C 0.67182 0.87803 0.60029 0.0
H328 H 0.69096 0.85345 0.97021 0.0
H329 H 0.69739 0.86622 0.85224 0.0
C330 C 0.66167 0.8713 0.5365 0.0
C331 C 0.6997 0.90808 0.67828 0.0
H332 H 0.73761 0.89679 0.76162 0.0
C333 C 0.69311 0.91712 0.7323 0.0
C334 C 0.71722 0.90236 0.68757 0.0
C335 C 0.72585 0.89392 0.62961 0.0
C336 C 0.70171 0.91805 0.7978 0.0
C337 C 0.71728 0.9098 0.8085 0.0
C338 C 0.72569 0.9031 0.75301 0.0
C339 C 0.71983 0.90235 0.87658 0.0
C340 C 0.69231 0.92555 0.85618 0.0
C341 C 0.73162 0.91834 0.92853 0.0
C342 C 0.72818 0.91097 -0.00385 0.0
C343 C 0.7127 0.88768 0.0117 0.0
C344 C 0.7029 0.87148 0.95914 0.0
C345 C 0.70659 0.87876 0.89192 0.0
H346 H 0.68008 0.93119 0.83903 0.0
H347 H 0.68324 0.91109 0.89272 0.0
H348 H 0.70677 0.94011 0.88359 0.0
H349 H 0.74195 0.9366 0.91721 0.0
H350 H 0.73579 0.92375 0.03617 0.0
H351 H 0.1778 0.84681 0.70161 0.0
H352 H 0.16774 0.85317 0.81564 0.0
H353 H 0.09542 0.81562 0.76339 0.0
H354 H 0.10521 0.80882 0.64938 0.0
H355 H 0.14188 0.87859 0.81951 0.0
H356 H 0.09949 0.79547 0.96316 0.0
H357 H 0.11946 0.80037 0.8947 0.0
H358 H 0.0913 0.79599 0.87626 0.0
C359 C 0.15971 0.83912 0.71513 0.0
C360 C 0.14234 0.82763 0.66629 0.0
C361 C 0.15401 0.84288 0.78008 0.0
C362 C 0.1309 0.83515 0.7971 0.0
C363 C 0.11334 0.82165 0.75095 0.0
H364 H 0.10708 0.86552 0.20908 0.0
H365 H 0.0962 0.8596 0.08862 0.0
C366 C 0.11901 0.8177 0.68594 0.0
C367 C 0.12584 0.84393 0.85947 0.0
H368 H 0.10813 0.82925 0.02296 0.0
C369 C 0.13407 0.86777 0.86378 0.0
C370 C 0.11512 0.82963 0.91611 0.0
C371 C 0.10581 0.80392 0.913 0.0
C372 C 0.13367 0.87801 0.92538 0.0
C373 C 0.12503 0.86402 0.98372 0.0
C374 C 0.11473 0.8399 0.97785 0.0
C375 C 0.13131 0.87402 0.05236 0.0
C376 C 0.14376 0.90383 0.92852 0.0
C377 C 0.15468 0.88502 0.07112 0.0
C378 C 0.16084 0.88805 0.13938 0.0
C379 C 0.14372 0.88038 0.18962 0.0
C380 C 0.12056 0.87179 0.1709 0.0
C381 C 0.11433 0.86832 0.10233 0.0
H382 H 0.14185 0.91069 0.87906 0.0
H383 H 0.1354 0.90873 0.96891 0.0
H384 H 0.16251 0.91215 0.93989 0.0
H385 H 0.168 0.88916 0.03336 0.0
H386 H 0.17877 0.8946 0.15293 0.0
H387 H 0.16881 0.34969 0.58607 0.0
H388 H 0.15367 0.33372 0.69812 0.0
H389 H 0.15661 0.27239 0.64823 0.0
H390 H 0.1722 0.28833 0.53651 0.0
H391 H 0.11058 0.29092 0.70874 0.0
H392 H 0.18278 0.28831 0.8427 0.0
H393 H 0.18776 0.30671 0.77009 0.0
H394 H 0.1754 0.27614 0.75871 0.0
C395 C 0.16697 0.33315 0.59961 0.0
C396 C 0.17148 0.3202 0.55208 0.0
C397 C 0.15813 0.32396 0.66339 0.0
C398 C 0.15378 0.3018 0.68075 0.0
C399 C 0.15995 0.28957 0.63568 0.0
H400 H 0.10952 0.25577 0.09465 0.0
H401 H 0.10803 0.24704 0.97297 0.0
C402 C 0.16895 0.2988 0.57193 0.0
C403 C 0.1412 0.29107 0.74399 0.0
H404 H 0.14898 0.27753 0.90461 0.0
C405 C 0.11878 0.28759 0.75138 0.0
C406 C 0.15176 0.28618 0.79855 0.0
C407 C 0.17579 0.28958 0.79272 0.0
C408 C 0.10737 0.28117 0.81401 0.0
C409 C 0.1188 0.27838 0.87025 0.0
C410 C 0.14027 0.27967 0.86113 0.0
C411 C 0.1119 0.27971 0.94043 0.0
C412 C 0.08375 0.27871 0.82047 0.0
C413 C 0.11362 0.30053 0.96189 0.0
C414 C 0.11491 0.30568 0.03075 0.0
C415 C 0.11418 0.28993 0.07903 0.0
C416 C 0.10992 0.26806 0.05803 0.0
C417 C 0.10908 0.26307 0.98877 0.0
H418 H 0.07411 0.27293 0.77176 0.0
H419 H 0.07346 0.26625 0.86108 0.0
H420 H 0.08571 0.29577 0.8334 0.0
H421 H 0.11628 0.31378 0.92544 0.0
H422 H 0.11819 0.32264 0.04606 0.0
H423 H 0.37902 0.27922 0.47772 0.0
H424 H 0.3799 0.28943 0.35738 0.0
H425 H 0.37894 0.22668 0.29947 0.0
H426 H 0.37792 0.21645 0.41863 0.0
H427 H 0.40455 0.26663 0.20778 0.0
H428 H 0.3147 0.24586 0.27187 0.0
H429 H 0.33882 0.26882 0.31623 0.0
H430 H 0.33135 0.23938 0.33069 0.0
C431 C 0.38005 0.2682 0.43916 0.0
C432 C 0.37806 0.24691 0.45683 0.0
C433 C 0.38043 0.27397 0.37066 0.0
C434 C 0.37905 0.25856 0.31996 0.0
C435 C 0.37995 0.23875 0.338 0.0
H436 H 0.33854 0.1887 0.96325 0.0
H437 H 0.35341 0.20814 0.07187 0.0
C438 C 0.37931 0.23288 0.40599 0.0
C439 C 0.37206 0.25996 0.24999 0.0
H440 H 0.32232 0.24097 0.15922 0.0
C441 C 0.38679 0.26176 0.19673 0.0
C442 C 0.34891 0.25383 0.2358 0.0
C443 C 0.33239 0.25177 0.29138 0.0
C444 C 0.37839 0.25562 0.13035 0.0
C445 C 0.35459 0.2468 0.11793 0.0
C446 C 0.34046 0.24735 0.16954 0.0
C447 C 0.34359 0.23408 0.05495 0.0
C448 C 0.39482 0.25763 0.07469 0.0
C449 C 0.33158 0.24121 0.01223 0.0
C450 C 0.32256 0.22977 0.95074 0.0
C451 C 0.32556 0.21114 0.93119 0.0
C452 C 0.33604 0.20302 0.97672 0.0
C453 C 0.34488 0.21435 0.03822 0.0
H454 H 0.41271 0.27163 0.08591 0.0
H455 H 0.39503 0.24117 0.07091 0.0
H456 H 0.38945 0.26115 0.02482 0.0
H457 H 0.3301 0.25619 0.02501 0.0
H458 H 0.31473 0.23659 0.91659 0.0
H459 H 0.86187 0.23178 0.45335 0.0
H460 H 0.85073 0.22648 0.33394 0.0
H461 H 0.78463 0.21882 0.38713 0.0
H462 H 0.79586 0.22458 0.507 0.0
H463 H 0.7842 0.17892 0.32764 0.0
H464 H 0.836 0.25803 0.17531 0.0
H465 H 0.85285 0.25359 0.23817 0.0
H466 H 0.83009 0.25882 0.26468 0.0
C467 C 0.8454 0.23004 0.43924 0.0
C468 C 0.82964 0.22837 0.48911 0.0
C469 C 0.83907 0.22709 0.37108 0.0
C470 C 0.81686 0.22224 0.3521 0.0
C471 C 0.80189 0.22272 0.40108 0.0
H472 H 0.77322 0.15962 0.94848 0.0
H473 H 0.76709 0.16818 0.06508 0.0
C474 C 0.80839 0.2261 0.46935 0.0
C475 C 0.8082 0.21213 0.28468 0.0
H476 H 0.82396 0.22153 0.11839 0.0
C477 C 0.79225 0.18831 0.28133 0.0
C478 C 0.8188 0.22449 0.2249 0.0
C479 C 0.83523 0.25021 0.22572 0.0
C480 C 0.78833 0.17613 0.2202 0.0
C481 C 0.80058 0.18822 0.16184 0.0
C482 C 0.81489 0.21233 0.16397 0.0
C483 C 0.80102 0.17628 0.09967 0.0
C484 C 0.77263 0.15028 0.21916 0.0
C485 C 0.82156 0.17666 0.08248 0.0
C486 C 0.82516 0.17194 0.0162 0.0
C487 C 0.80821 0.16675 0.96656 0.0
C488 C 0.7865 0.16343 0.98603 0.0
C489 C 0.783 0.16845 0.05241 0.0
H490 H 0.76434 0.14343 0.26923 0.0
H491 H 0.75893 0.14557 0.18042 0.0
H492 H 0.78267 0.14181 0.20453 0.0
H493 H 0.83558 0.1826 0.11878 0.0
H494 H 0.842 0.17454 0.00233 0.0
H495 H 0.83097 0.6483 0.40322 0.0
H496 H 0.82062 0.64208 0.28334 0.0
H497 H 0.74962 0.59468 0.33679 0.0
H498 H 0.76007 0.60066 0.45764 0.0
H499 H 0.79292 0.60385 0.18486 0.0
H500 H 0.75397 0.65685 0.26846 0.0
H501 H 0.77333 0.65291 0.32325 0.0
H502 H 0.74478 0.62925 0.30759 0.0
C503 C 0.8134 0.6357 0.38923 0.0
C504 C 0.79622 0.62519 0.43891 0.0
C505 C 0.80749 0.63211 0.32091 0.0
C506 C 0.78431 0.61828 0.30181 0.0
C507 C 0.76757 0.60549 0.35106 0.0
H508 H 0.75913 0.66119 0.905 0.0
H509 H 0.74994 0.64342 0.01747 0.0
C510 C 0.77357 0.60884 0.41979 0.0
C511 C 0.77775 0.62191 0.23372 0.0
H512 H 0.76425 0.65896 0.15412 0.0
C513 C 0.78592 0.61526 0.17759 0.0
C514 C 0.76863 0.63684 0.22485 0.0
C515 C 0.75967 0.64451 0.28399 0.0
C516 C 0.78694 0.62466 0.11338 0.0
C517 C 0.78008 0.64143 0.10614 0.0
C518 C 0.76984 0.64638 0.16066 0.0
C519 C 0.78555 0.65549 0.04423 0.0
C520 C 0.79644 0.61748 0.05457 0.0
C521 C 0.80868 0.66964 0.02506 0.0
C522 C 0.81406 0.67991 0.96116 0.0
C523 C 0.79631 0.67613 0.91573 0.0
C524 C 0.77323 0.66427 0.93856 0.0
C525 C 0.76788 0.65391 0.00252 0.0
H526 H 0.79418 0.60001 0.06281 0.0
H527 H 0.7879 0.61743 0.00616 0.0
H528 H 0.81522 0.62989 0.04957 0.0
H529 H 0.82254 0.67161 0.05798 0.0
H530 H 0.83201 0.68923 0.9455 0.0
H531 H 0.1222 0.38533 0.38279 0.0
H532 H 0.11135 0.41462 0.35705 0.0
H533 H 0.14408 0.42608 0.16094 0.0
H534 H 0.15498 0.39711 0.18584 0.0
H535 H 0.15235 0.46779 0.23771 0.0
H536 H 0.05981 0.39971 0.20966 0.0
H537 H 0.07449 0.40013 0.28674 0.0
H538 H 0.08282 0.39297 0.20781 0.0
C539 C 0.12733 0.39433 0.33461 0.0
C540 C 0.13919 0.38872 0.28603 0.0
C541 C 0.12108 0.41097 0.31997 0.0
C542 C 0.12677 0.42226 0.2569 0.0
C543 C 0.13953 0.41748 0.20983 0.0
H544 H 0.10387 0.51248 0.0012 0.0
H545 H 0.11879 0.49045 0.06035 0.0
C546 C 0.14562 0.40082 0.22409 0.0
C547 C 0.11822 0.43792 0.23703 0.0
H548 H 0.06983 0.43757 0.18079 0.0
C549 C 0.13427 0.46133 0.22605 0.0
C550 C 0.09465 0.42931 0.22189 0.0
C551 C 0.07685 0.40415 0.23164 0.0
C552 C 0.12739 0.47637 0.19909 0.0
C553 C 0.10395 0.46753 0.18111 0.0
C554 C 0.08781 0.44427 0.19431 0.0
C555 C 0.09579 0.4818 0.14666 0.0
C556 C 0.14525 0.50153 0.19016 0.0
C557 C 0.07753 0.48372 0.17466 0.0
C558 C 0.06873 0.49591 0.1405 0.0
C559 C 0.07802 0.50647 0.07756 0.0
C560 C 0.09642 0.50464 0.04971 0.0
C561 C 0.1051 0.49225 0.08376 0.0
H562 H 0.1601 0.50682 0.22518 0.0
H563 H 0.152 0.5044 0.13742 0.0
H564 H 0.13771 0.51281 0.19922 0.0
H565 H 0.07001 0.47568 0.22293 0.0
H566 H 0.05463 0.49707 0.16367 0.0
H567 H 0.5019 0.5925 0.12155 0.0
H568 H 0.51725 0.63416 0.12162 0.0
H569 H 0.57851 0.64423 0.2249 0.0
H570 H 0.56349 0.6025 0.22415 0.0
H571 H 0.52889 0.66357 0.23079 0.0
H572 H 0.60465 0.68844 0.06393 0.0
H573 H 0.5813 0.65899 0.07163 0.0
H574 H 0.60352 0.67123 0.13538 0.0
C575 C 0.51871 0.60354 0.14407 0.0
C576 C 0.53154 0.59418 0.17266 0.0
C577 C 0.52742 0.62734 0.14404 0.0
C578 C 0.54911 0.64222 0.1724 0.0
C579 C 0.56192 0.633 0.20148 0.0
H580 H 0.60828 0.78055 0.31797 0.0
H581 H 0.58601 0.73883 0.30215 0.0
C582 C 0.55326 0.60917 0.20132 0.0
C583 C 0.55803 0.66738 0.1732 0.0
H584 H 0.60383 0.71894 0.12456 0.0
C585 C 0.54518 0.67571 0.20709 0.0
C586 C 0.57903 0.68306 0.14108 0.0
C587 C 0.59283 0.675 0.10034 0.0
C588 C 0.55322 0.69947 0.21184 0.0
C589 C 0.57485 0.7152 0.18298 0.0
C590 C 0.5873 0.70682 0.14703 0.0
C591 C 0.58562 0.74043 0.19238 0.0
C592 C 0.5385 0.70748 0.24764 0.0
C593 C 0.59276 0.75516 0.13585 0.0
C594 C 0.60573 0.77906 0.14464 0.0
C595 C 0.61186 0.7886 0.2102 0.0
C596 C 0.6038 0.7738 0.26679 0.0
C597 C 0.59093 0.74992 0.2579 0.0
H598 H 0.51996 0.69389 0.2472 0.0
H599 H 0.54405 0.71139 0.30145 0.0
H600 H 0.54032 0.72336 0.22383 0.0
H601 H 0.58888 0.74812 0.08485 0.0
H602 H 0.61161 0.78998 0.09999 0.0
H603 H 0.4218 0.01081 0.20867 0.0
H604 H 0.38886 0.98662 0.2815 0.0
H605 H 0.36372 0.93203 0.13227 0.0
H606 H 0.3971 0.95586 0.06003 0.0
H607 H 0.34468 0.97045 0.25562 0.0
H608 H 0.35807 0.89643 0.30247 0.0
H609 H 0.38024 0.92328 0.26636 0.0
H610 H 0.35775 0.90182 0.2134 0.0
C611 C 0.40927 0.99364 0.19131 0.0
C612 C 0.41195 0.98525 0.12843 0.0
C613 C 0.39055 0.97979 0.23324 0.0
C614 C 0.37409 0.95736 0.21296 0.0
C615 C 0.3766 0.94901 0.14989 0.0
H616 H 0.23481 0.86315 0.28423 0.0
H617 H 0.27559 0.88329 0.25276 0.0
C618 C 0.39551 0.96275 0.10828 0.0
C619 C 0.35334 0.94343 0.25516 0.0
H620 H 0.31948 0.88971 0.32283 0.0
C621 C 0.33942 0.95297 0.27158 0.0
C622 C 0.34659 0.92067 0.27623 0.0
C623 C 0.3616 0.91005 0.26432 0.0
C624 C 0.31829 0.93993 0.30514 0.0
C625 C 0.31099 0.91681 0.32291 0.0
C626 C 0.32525 0.90749 0.30903 0.0
C627 C 0.2874 0.90148 0.34826 0.0
C628 C 0.30331 0.95054 0.31825 0.0
C629 C 0.2808 0.90445 0.41344 0.0
C630 C 0.25745 0.8929 0.43177 0.0
C631 C 0.24051 0.87847 0.38473 0.0
C632 C 0.24745 0.87437 0.32126 0.0
C633 C 0.27073 0.88574 0.30329 0.0
H634 H 0.31057 0.968 0.29536 0.0
H635 H 0.2857 0.93927 0.29745 0.0
H636 H 0.30161 0.95207 0.37383 0.0
H637 H 0.29356 0.91656 0.4487 0.0
H638 H 0.25261 0.89637 0.48104 0.0
H639 H 0.47853 0.1159 0.07222 0.0
H640 H 0.47698 0.15128 0.04964 0.0
H641 H 0.45756 0.12952 0.84201 0.0
H642 H 0.45956 0.09475 0.86352 0.0
H643 H 0.49365 0.17528 0.85406 0.0
H644 H 0.41929 0.1571 0.02297 0.0
H645 H 0.44386 0.15695 0.0596 0.0
H646 H 0.4258 0.1348 0.00041 0.0
C647 C 0.47364 0.11859 0.02209 0.0
C648 C 0.46916 0.10258 0.96961 0.0
C649 C 0.47283 0.1388 0.00925 0.0
C650 C 0.46722 0.14301 0.9441 0.0
C651 C 0.46218 0.12672 0.89244 0.0
H652 H 0.41034 0.18939 0.68665 0.0
H653 H 0.43755 0.18088 0.7444 0.0
C654 C 0.4632 0.10678 0.90494 0.0
C655 C 0.46624 0.1641 0.92782 0.0
H656 H 0.43031 0.1863 0.94213 0.0
C657 C 0.48022 0.17815 0.8746 0.0
C658 C 0.44897 0.16802 0.95539 0.0
C659 C 0.4335 0.15344 0.01258 0.0
C660 C 0.47578 0.19439 0.84359 0.0
C661 C 0.45698 0.19658 0.86656 0.0
C662 C 0.44472 0.18447 0.92466 0.0
C663 C 0.44632 0.20665 0.82298 0.0
C664 C 0.49014 0.20788 0.7834 0.0
C665 C 0.44288 0.2245 0.84678 0.0
C666 C 0.42765 0.22969 0.81279 0.0
C667 C 0.41537 0.21665 0.75591 0.0
C668 C 0.41996 0.19986 0.7298 0.0
C669 C 0.43551 0.19505 0.76273 0.0
H670 H 0.5078 0.21022 0.78597 0.0
H671 H 0.48184 0.19822 0.73613 0.0
H672 H 0.49148 0.2251 0.78032 0.0
H673 H 0.45081 0.23336 0.89379 0.0
H674 H 0.42391 0.24238 0.8344 0.0
H675 H 0.87978 0.27092 0.91808 0.0
H676 H 0.89906 0.31018 0.96356 0.0
H677 H 0.8649 0.32983 0.81419 0.0
H678 H 0.84519 0.29054 0.76911 0.0
H679 H 0.92896 0.34745 0.89074 0.0
H680 H 0.85794 0.36012 0.98454 0.0
H681 H 0.85406 0.33186 0.9668 0.0
H682 H 0.85334 0.34951 0.89891 0.0
C683 C 0.87609 0.28349 0.89547 0.0
C684 C 0.86105 0.27764 0.83963 0.0
C685 C 0.88706 0.30589 0.92174 0.0
C686 C 0.88317 0.32282 0.89284 0.0
C687 C 0.8677 0.31689 0.83834 0.0
H688 H 0.97065 0.46643 0.84144 0.0
H689 H 0.94287 0.42515 0.83503 0.0
C690 C 0.85662 0.29446 0.81221 0.0
C691 C 0.89733 0.34722 0.91407 0.0
H692 H 0.89439 0.39475 0.96281 0.0
C693 C 0.9214 0.35767 0.90764 0.0
C694 C 0.88743 0.36049 0.93641 0.0
C695 C 0.86178 0.34986 0.94776 0.0
C696 C 0.93579 0.3813 0.91991 0.0
C697 C 0.9258 0.39478 0.93845 0.0
C698 C 0.90186 0.38426 0.94791 0.0
C699 C 0.94012 0.42006 0.94377 0.0
C700 C 0.96157 0.3919 0.91118 0.0
C701 C 0.9472 0.43078 0.0073 0.0
C702 C 0.96319 0.45442 0.01133 0.0
C703 C 0.97226 0.46758 0.95175 0.0
C704 C 0.96417 0.45683 0.88832 0.0
C705 C 0.94826 0.43327 0.88444 0.0
H706 H 0.96685 0.37858 0.90806 0.0
H707 H 0.96702 0.40221 0.86366 0.0
H708 H 0.97088 0.40375 0.95405 0.0
H709 H 0.94104 0.42071 0.05352 0.0
H710 H 0.969 0.46218 0.06096 0.0
H711 H 0.73439 0.57086 0.74268 0.0
H712 H 0.69816 0.54221 0.79612 0.0
H713 H 0.67232 0.58968 0.78221 0.0
H714 H 0.70805 0.61812 0.72807 0.0
H715 H 0.68316 0.54869 0.91729 0.0
H716 H 0.61637 0.53003 0.72393 0.0
H717 H 0.64671 0.54351 0.70288 0.0
H718 H 0.63468 0.56059 0.73434 0.0
C719 C 0.72077 0.57499 0.74955 0.0
C720 C 0.72417 0.59684 0.73137 0.0
C721 C 0.7001 0.55859 0.78011 0.0
C722 C 0.68244 0.56369 0.79229 0.0
C723 C 0.68547 0.58513 0.77178 0.0
H724 H 0.59266 0.54401 0.10917 0.0
H725 H 0.62509 0.55166 0.03584 0.0
C726 C 0.70605 0.60149 0.74134 0.0
C727 C 0.66203 0.54809 0.8337 0.0
H728 H 0.60374 0.52575 0.84187 0.0
C729 C 0.66572 0.54314 0.90029 0.0
C730 C 0.63925 0.54048 0.81124 0.0
C731 C 0.63401 0.54372 0.73889 0.0
C732 C 0.64741 0.53249 0.94666 0.0
C733 C 0.62499 0.52709 0.92608 0.0
C734 C 0.62101 0.53024 0.85796 0.0
C735 C 0.60604 0.52063 0.97551 0.0
C736 C 0.65239 0.52783 0.0178 0.0
C737 C 0.5845 0.50068 0.96577 0.0
C738 C 0.5658 0.49634 0.00734 0.0
C739 C 0.56829 0.51201 0.05901 0.0
C740 C 0.59012 0.53155 0.07005 0.0
C741 C 0.60877 0.53586 0.02847 0.0
H742 H 0.6674 0.52496 0.0185 0.0
H743 H 0.65678 0.54307 0.05024 0.0
H744 H 0.63721 0.51251 0.04026 0.0
H745 H 0.58202 0.48881 0.92484 0.0
H746 H 0.54922 0.48112 -0.00259 0.0
H747 H 0.87662 0.65634 0.80461 0.0
H748 H 0.9025 0.64149 0.8299 0.0
H749 H 0.85737 0.5785 0.72243 0.0
H750 H 0.83127 0.59327 0.69618 0.0
H751 H 0.89243 0.59949 0.89883 0.0
H752 H 0.92193 0.60325 0.63203 0.0
H753 H 0.90744 0.61851 0.65966 0.0
H754 H 0.89123 0.58785 0.64641 0.0
C755 C 0.87208 0.63929 0.78637 0.0
C756 C 0.85192 0.62605 0.74792 0.0
C757 C 0.8869 0.63084 0.80102 0.0
C758 C 0.88196 0.60907 0.77726 0.0
C759 C 0.86161 0.59551 0.7403 0.0
H760 H 0.96703 0.54407 0.80777 0.0
H761 H 0.93617 0.55233 0.78089 0.0
C762 C 0.84668 0.60393 0.72571 0.0
C763 C 0.8984 0.60088 0.79103 0.0
H764 H 0.93801 0.59015 0.7151 0.0
C765 C 0.90232 0.5973 0.85872 0.0
C766 C 0.91116 0.59802 0.73842 0.0
C767 C 0.90794 0.60223 0.66499 0.0
C768 C 0.91889 0.59111 0.87538 0.0
C769 C 0.93219 0.58895 0.82296 0.0
C770 C 0.92783 0.59193 0.7551 0.0
C771 C 0.95116 0.58429 0.83781 0.0
C772 C 0.92195 0.58685 0.94891 0.0
C773 C 0.97007 0.59984 0.87728 0.0
C774 C 0.98771 0.59519 0.89285 0.0
C775 C 0.98686 0.57497 0.8687 0.0
C776 C 0.96821 0.55977 0.82736 0.0
C777 C 0.95054 0.56443 0.81197 0.0
H778 H 0.90636 0.58269 0.9795 0.0
H779 H 0.92565 0.57246 0.954 0.0
H780 H 0.93672 0.60268 0.97057 0.0
H781 H 0.97113 0.61556 0.8963 0.0
H782 H 0.00189 0.60736 0.92435 0.0
H783 H 0.41932 0.41795 0.23127 0.0
H784 H 0.38928 0.38028 0.18916 0.0
H785 H 0.44128 0.37124 0.08649 0.0
H786 H 0.47118 0.40885 0.12738 0.0
H787 H 0.38507 0.37747 0.04847 0.0
H788 H 0.39385 0.30529 0.14625 0.0
H789 H 0.40606 0.33267 0.18996 0.0
H790 H 0.42176 0.32844 0.12211 0.0
C791 C 0.42442 0.40744 0.20226 0.0
C792 C 0.44751 0.41635 0.18181 0.0
C793 C 0.40723 0.38596 0.17818 0.0
C794 C 0.41307 0.37298 0.1349 0.0
C795 C 0.43642 0.3808 0.12069 0.0
H796 H 0.39428 0.3048 0.78246 0.0
H797 H 0.40276 0.32832 0.88485 0.0
C798 C 0.45351 0.40237 0.14371 0.0
C799 C 0.39533 0.3544 0.09224 0.0
H800 H 0.38233 0.30224 0.02529 0.0
C801 C 0.38369 0.36062 0.04484 0.0
C802 C 0.39351 0.33247 0.08779 0.0
C803 C 0.40433 0.3243 0.13988 0.0
C804 C 0.37249 0.34653 0.98868 0.0
C805 C 0.37293 0.32581 0.98045 0.0
C806 C 0.38243 0.31843 0.03144 0.0
C807 C 0.36701 0.3135 0.91506 0.0
C808 C 0.36209 0.35475 0.93531 0.0
C809 C 0.34402 0.29821 0.89718 0.0
C810 C 0.33906 0.28491 0.83815 0.0
C811 C 0.3571 0.28659 0.79689 0.0
C812 C 0.38002 0.30308 0.81307 0.0
C813 C 0.38491 0.31638 0.87177 0.0
H814 H 0.36241 0.37093 0.95054 0.0
H815 H 0.37178 0.35789 0.88695 0.0
H816 H 0.34392 0.34119 0.92552 0.0
H817 H 0.33004 0.29586 0.93023 0.0
H818 H 0.32122 0.27222 0.82753 0.0
H819 H 0.75211 0.21593 0.71206 0.0
H820 H 0.71197 0.20717 0.72217 0.0
H821 H 0.68983 0.13499 0.74944 0.0
H822 H 0.72951 0.14337 0.73817 0.0
H823 H 0.66077 0.14298 0.66454 0.0
H824 H 0.68014 0.19167 0.90872 0.0
H825 H 0.69603 0.20692 0.83423 0.0
H826 H 0.70047 0.18478 0.87027 0.0
C827 C 0.73865 0.19816 0.71958 0.0
C828 C 0.74403 0.18037 0.72519 0.0
C829 C 0.71577 0.19323 0.72541 0.0
C830 C 0.69806 0.1705 0.73733 0.0
C831 C 0.7033 0.15266 0.74013 0.0
H832 H 0.58488 0.09108 0.96263 0.0
H833 H 0.62137 0.11875 0.9102 0.0
C834 C 0.72603 0.15751 0.73403 0.0
C835 C 0.6742 0.16495 0.7523 0.0
H836 H 0.64141 0.16622 0.88315 0.0
C837 C 0.65639 0.14848 0.71137 0.0
C838 C 0.66874 0.17231 0.81341 0.0
C839 C 0.68726 0.18981 0.85961 0.0
C840 C 0.63333 0.1375 0.73306 0.0
C841 C 0.62809 0.1436 0.7967 0.0
C842 C 0.64563 0.16163 0.83448 0.0
C843 C 0.60576 0.1287 0.83054 0.0
C844 C 0.61513 0.11808 0.69072 0.0
C845 C 0.58493 0.12544 0.80364 0.0
C846 C 0.56392 0.10939 0.8332 0.0
C847 C 0.56353 0.09654 0.89037 0.0
C848 C 0.58453 0.10059 0.91854 0.0
C849 C 0.60542 0.11648 0.88881 0.0
H850 H 0.62265 0.11381 0.64649 0.0
H851 H 0.60535 0.10228 0.72209 0.0
H852 H 0.60271 0.12314 0.67134 0.0
H853 H 0.58491 0.13499 0.75924 0.0
H854 H 0.54803 0.10683 0.81072 0.0
H855 H 0.47904 0.94443 -0.00829 0.0
H856 H 0.49339 0.91719 0.00149 0.0
H857 H 0.56342 0.97425 0.0071 0.0
H858 H 0.54947 0.00139 -0.0039 0.0
H859 H 0.55821 0.93717 0.92794 0.0
H860 H 0.51812 0.90919 0.18421 0.0
H861 H 0.49932 0.90558 0.11424 0.0
H862 H 0.5202 0.93412 0.14207 0.0
C863 C 0.4975 0.95114 -0.00572 0.0
C864 C 0.51309 0.97511 -0.00595 0.0
C865 C 0.50564 0.93555 4e-05 0.0
C866 C 0.52943 0.94376 0.00594 0.0
C867 C 0.54499 0.96757 0.00262 0.0
H868 H 0.62139 0.91887 0.21323 0.0
H869 H 0.59262 0.92723 0.16677 0.0
C870 C 0.53694 0.98309 -0.0033 0.0
C871 C 0.53854 0.92812 0.02068 0.0
H872 H 0.5447 0.89807 0.15107 0.0
C873 C 0.55492 0.92812 0.976 0.0
C874 C 0.53418 0.91647 0.08361 0.0
C875 C 0.51712 0.91634 0.1342 0.0
C876 C 0.56828 0.91818 -0.00539 0.0
C877 C 0.56479 0.90766 0.05911 0.0
C878 C 0.54725 0.90618 0.10167 0.0
C879 C 0.58132 0.90134 0.0876 0.0
C880 C 0.58715 0.92053 0.9474 0.0
C881 C 0.58435 0.88384 0.05869 0.0
C882 C 0.60098 0.87909 0.08493 0.0
C883 C 0.61469 0.89168 0.14074 0.0
C884 C 0.6112 0.90886 0.1702 0.0
C885 C 0.5947 0.91362 0.14386 0.0
H886 H 0.58959 0.93197 0.90347 0.0
H887 H 0.60379 0.92759 0.9751 0.0
H888 H 0.58266 0.90325 0.92752 0.0
H889 H 0.57395 0.87397 0.0158 0.0
H890 H 0.60313 0.86563 0.06137 0.0
H891 H 0.14476 0.79091 0.20958 0.0
H892 H 0.1436 0.75729 0.15716 0.0
H893 H 0.13656 0.72663 0.35505 0.0
H894 H 0.13652 0.75992 0.4076 0.0
H895 H 0.1724 0.74131 0.16935 0.0
H896 H 0.0851 0.6739 0.25676 0.0
H897 H 0.09531 0.70432 0.26673 0.0
H898 H 0.10493 0.68981 0.32372 0.0
C899 C 0.14267 0.77686 0.24183 0.0
C900 C 0.14053 0.77785 0.3125 0.0
C901 C 0.14214 0.75773 0.21191 0.0
C902 C 0.13983 0.73936 0.25209 0.0
C903 C 0.13781 0.74034 0.3229 0.0
H904 H 0.12023 0.60991 0.08326 0.0
H905 H 0.13825 0.64385 0.15716 0.0
C906 C 0.13782 0.75934 0.35286 0.0
C907 C 0.1397 0.71944 0.21869 0.0
H908 H 0.10563 0.66175 0.18789 0.0
C909 C 0.1579 0.72386 0.17398 0.0
C910 C 0.12085 0.69664 0.22517 0.0
C911 C 0.10034 0.69083 0.27019 0.0
C912 C 0.15712 0.70635 0.13288 0.0
C913 C 0.13787 0.68392 0.13745 0.0
C914 C 0.12043 0.67909 0.18514 0.0
C915 C 0.1335 0.66596 0.08691 0.0
C916 C 0.17637 0.71203 0.08301 0.0
C917 C 0.12574 0.6676 0.02212 0.0
C918 C 0.11512 0.64819 0.98024 0.0
C919 C 0.11235 0.62701 0.00252 0.0
C920 C 0.12232 0.62609 0.06451 0.0
C921 C 0.13256 0.64541 0.10693 0.0
H922 H 0.19218 0.72861 0.09563 0.0
H923 H 0.1807 0.69801 0.08177 0.0
H924 H 0.1706 0.71354 0.03137 0.0
H925 H 0.12611 0.68331 0.00635 0.0
H926 H 0.10755 0.64931 0.93276 0.0
H927 H 0.4197 0.5226 0.19567 0.0
H928 H 0.37812 0.50725 0.20468 0.0
H929 H 0.37352 0.4576 0.35283 0.0
H930 H 0.41501 0.473 0.34504 0.0
H931 H 0.35089 0.46348 0.16303 0.0
H932 H 0.32539 0.47195 0.42332 0.0
H933 H 0.35455 0.48969 0.39218 0.0
H934 H 0.34511 0.46113 0.42473 0.0
C935 C 0.40998 0.50895 0.23202 0.0
C936 C 0.42058 0.49869 0.26868 0.0
C937 C 0.38621 0.50025 0.23713 0.0
C938 C 0.37273 0.48128 0.27928 0.0
C939 C 0.38362 0.47251 0.32083 0.0
H940 H 0.2477 0.3589 0.31078 0.0
H941 H 0.28642 0.39258 0.31111 0.0
C942 C 0.4074 0.48126 0.31598 0.0
C943 C 0.3474 0.46777 0.27018 0.0
H944 H 0.29706 0.43841 0.35892 0.0
C945 C 0.33897 0.4585 0.20545 0.0
C946 C 0.33193 0.46131 0.32552 0.0
C947 C 0.33972 0.47176 0.39515 0.0
C948 C 0.31582 0.44151 0.19576 0.0
C949 C 0.30078 0.43384 0.25218 0.0
C950 C 0.30879 0.44423 0.31592 0.0
C951 C 0.27747 0.41339 0.24787 0.0
C952 C 0.30797 0.43073 0.12644 0.0
C953 C 0.25983 0.41386 0.21071 0.0
C954 C 0.23761 0.39451 0.20993 0.0
C955 C 0.23278 0.37454 0.24677 0.0
C956 C 0.25079 0.374 0.282 0.0
C957 C 0.2729 0.39326 0.28262 0.0
H958 H 0.32254 0.43679 0.08988 0.0
H959 H 0.29928 0.4116 0.13013 0.0
H960 H 0.29526 0.43521 0.10588 0.0
H961 H 0.26309 0.42934 0.18386 0.0
H962 H 0.22408 0.39554 0.18275 0.0
H963 H 0.76888 0.72575 0.66064 0.0
H964 H 0.75849 0.75292 0.61143 0.0
H965 H 0.76697 0.73263 0.41001 0.0
H966 H 0.77852 0.70636 0.45904 0.0
H967 H 0.78564 0.77755 0.41591 0.0
H968 H 0.69827 0.73811 0.53021 0.0
H969 H 0.7205 0.74719 0.59316 0.0
H970 H 0.71567 0.72449 0.53451 0.0
C971 C 0.76834 0.72699 0.60588 0.0
C972 C 0.77433 0.71385 0.5636 0.0
C973 C 0.76232 0.74244 0.5778 0.0
C974 C 0.76149 0.74449 0.50698 0.0
C975 C 0.76745 0.73133 0.46478 0.0
H976 H 0.68638 0.80031 0.30619 0.0
H977 H 0.70175 0.77669 0.35057 0.0
C978 C 0.77396 0.71626 0.49281 0.0
C979 C 0.75468 0.76049 0.47658 0.0
H980 H 0.71194 0.77421 0.47539 0.0
C981 C 0.76946 0.77676 0.4286 0.0
C982 C 0.73347 0.75929 0.49267 0.0
C983 C 0.71597 0.74118 0.5399 0.0
C984 C 0.76354 0.79174 0.39587 0.0
C985 C 0.74264 0.79097 0.4135 0.0
C986 C 0.72803 0.77489 0.46209 0.0
C987 C 0.73477 0.80573 0.38021 0.0
C988 C 0.77936 0.80762 0.34126 0.0
C989 C 0.74842 0.82997 0.38052 0.0
C990 C 0.73982 0.84355 0.35335 0.0
C991 C 0.71723 0.83302 0.32751 0.0
C992 C 0.70381 0.80883 0.32625 0.0
C993 C 0.71256 0.79533 0.35172 0.0
H994 H 0.79069 0.80135 0.32033 0.0
H995 H 0.76938 0.80932 0.29885 0.0
H996 H 0.79066 0.825 0.36331 0.0
H997 H 0.76537 0.83843 0.40368 0.0
H998 H 0.75035 0.8622 0.35549 0.0
H999 H 0.29951 0.11614 0.74474 0.0
H1000 H 0.27536 0.07468 0.72341 0.0
H1001 H 0.28232 0.08721 0.50755 0.0
H1002 H 0.30653 0.12862 0.528 0.0
H1003 H 0.23264 0.05376 0.64679 0.0
H1004 H 0.29876 0.03557 0.53834 0.0
H1005 H 0.30624 0.06106 0.58827 0.0
H1006 H 0.29781 0.05962 0.50099 0.0
C1007 C 0.29617 0.11008 0.6927 0.0
C1008 C 0.30495 0.12569 0.63805 0.0
C1009 C 0.28231 0.08642 0.6807 0.0
C1010 C 0.27723 0.07801 0.61401 0.0
C1011 C 0.28631 0.09343 0.55937 0.0
H1012 H 0.17009 0.94642 0.45728 0.0
H1013 H 0.19313 0.98712 0.49053 0.0
C1014 C 0.30009 0.11708 0.57123 0.0
C1015 C 0.26169 0.05318 0.60135 0.0
H1016 H 0.25964 0.00575 0.52988 0.0
C1017 C 0.2385 0.04317 0.62154 0.0
C1018 C 0.26954 0.03956 0.56874 0.0
C1019 C 0.29449 0.04938 0.54825 0.0
C1020 C 0.22277 0.01977 0.60898 0.0
C1021 C 0.23052 0.00629 0.57496 0.0
C1022 C 0.25378 0.01627 0.55561 0.0
C1023 C 0.215 0.9816 0.55997 0.0
C1024 C 0.19811 0.00958 0.63279 0.0
C1025 C 0.21966 0.96518 0.5884 0.0
C1026 C 0.20669 0.94207 0.56941 0.0
C1027 C 0.18886 0.93495 0.52126 0.0
C1028 C 0.18366 0.95134 0.49461 0.0
C1029 C 0.19674 0.97456 0.51367 0.0
H1030 H 0.19618 0.02084 0.67068 0.0
H1031 H 0.18692 0.0075 0.58863 0.0
H1032 H 0.19184 0.99226 0.65564 0.0
H1033 H 0.23371 0.97035 0.62423 0.0
H1034 H 0.21107 0.92989 0.59131 0.0
H1035 H 0.90595 0.19323 0.62527 0.0
H1036 H 0.94602 0.20357 0.60915 0.0
H1037 H 0.96439 0.24132 0.79819 0.0
H1038 H 0.9239 0.23103 0.81476 0.0
H1039 H 0.9884 0.26738 0.6877 0.0
H1040 H 0.99172 0.18664 0.68794 0.0
H1041 H 0.96802 0.18348 0.63733 0.0
H1042 H 0.96842 0.18883 0.72721 0.0
C1043 C 0.91839 0.20336 0.66419 0.0
C1044 C 0.91188 0.21158 0.72086 0.0
C1045 C 0.94126 0.20898 0.65537 0.0
C1046 C 0.95809 0.22288 0.70303 0.0
C1047 C 0.95153 0.23029 0.76137 0.0
H1048 H 0.1006 0.30176 0.55171 0.0
H1049 H 0.06967 0.28456 0.63584 0.0
C1050 C 0.92848 0.22447 0.77061 0.0
C1051 C 0.98265 0.2327 0.68471 0.0
H1052 H 0.01932 0.21723 0.6125 0.0
C1053 C -0.00443 0.25658 0.67323 0.0
C1054 C 0.99185 0.21851 0.66599 0.0
C1055 C 0.97932 0.19296 0.68098 0.0
C1056 C 0.01643 0.26635 0.63722 0.0
C1057 C 0.02469 0.25181 0.61351 0.0
C1058 C 0.01275 0.22824 0.63005 0.0
C1059 C 0.04421 0.26036 0.56546 0.0
C1060 C 0.02843 0.29179 0.62021 0.0
C1061 C 0.04032 0.25174 0.49875 0.0
C1062 C 0.05802 0.26136 0.45056 0.0
C1063 C 0.07976 0.27988 0.46841 0.0
C1064 C 0.08381 0.28787 0.53599 0.0
C1065 C 0.06623 0.27805 0.58425 0.0
H1066 H 0.01755 0.2996 0.63204 0.0
H1067 H 0.04458 0.30107 0.65029 0.0
H1068 H 0.03313 0.29463 0.56554 0.0
H1069 H 0.02339 0.23802 0.48348 0.0
H1070 H 0.05452 0.25474 0.39909 0.0
H1071 H 0.2431 0.18458 0.66513 0.0
H1072 H 0.20776 0.1784 0.60907 0.0
H1073 H 0.24301 0.19478 0.41568 0.0
H1074 H 0.27768 0.19956 0.47077 0.0
H1075 H 0.2035 0.20977 0.55393 0.0
H1076 H 0.18255 0.14547 0.3526 0.0
H1077 H 0.20257 0.14941 0.41981 0.0
H1078 H 0.21237 0.16693 0.34393 0.0
C1079 C 0.24305 0.18634 0.61044 0.0
C1080 C 0.26311 0.19267 0.57226 0.0
C1081 C 0.22284 0.18267 0.57839 0.0
C1082 C 0.22248 0.18569 0.50782 0.0
C1083 C 0.24241 0.19143 0.46964 0.0
H1084 H 0.18919 0.25952 0.26269 0.0
H1085 H 0.19827 0.23089 0.30679 0.0
C1086 C 0.2624 0.19453 0.50139 0.0
C1087 C 0.20303 0.18691 0.47577 0.0
H1088 H 0.17384 0.17672 0.32575 0.0
C1089 C 0.19634 0.2018 0.50526 0.0
C1090 C 0.19347 0.17644 0.41236 0.0
C1091 C 0.19798 0.15848 0.38098 0.0
C1092 C 0.18229 0.2083 0.47025 0.0
C1093 C 0.17479 0.19972 0.40391 0.0
C1094 C 0.17981 0.18337 0.37648 0.0
C1095 C 0.16572 0.21103 0.35937 0.0
C1096 C 0.17721 0.22588 0.50205 0.0
C1097 C 0.14379 0.20833 0.37085 0.0
C1098 C 0.1385 0.22467 0.34543 0.0
C1099 C 0.15525 0.24395 0.30916 0.0
C1100 C 0.1761 0.245 0.29124 0.0
C1101 C 0.18125 0.22857 0.31601 0.0
H1102 H 0.18519 0.23153 0.55307 0.0
H1103 H 0.18373 0.24133 0.46888 0.0
H1104 H 0.15825 0.21835 0.50736 0.0
H1105 H 0.13165 0.19487 0.40438 0.0
H1106 H 0.12226 0.2234 0.35989 0.0
H1107 H 0.71412 0.9719 0.26921 0.0
H1108 H 0.73736 0.00854 0.3274 0.0
H1109 H 0.78508 0.98661 0.3916 0.0
H1110 H 0.7616 0.94949 0.33416 0.0
H1111 H 0.76898 0.00132 0.49732 0.0
H1112 H 0.79915 0.06566 0.2901 0.0
H1113 H 0.76857 0.04623 0.28561 0.0
H1114 H 0.78811 0.03527 0.27466 0.0
C1115 C 0.72981 0.97498 0.29443 0.0
C1116 C 0.73593 0.9577 0.29735 0.0
C1117 C 0.74318 -0.00396 0.32732 0.0
C1118 C 0.76305 0.00037 0.36323 0.0
C1119 C 0.76984 0.98361 0.36379 0.0
H1120 H 0.84045 0.13545 0.55671 0.0
H1121 H 0.83126 0.10055 0.4932 0.0
C1122 C 0.75646 0.96246 0.33073 0.0
C1123 C 0.77507 0.02131 0.40593 0.0
H1124 H 0.79746 0.07965 0.40193 0.0
C1125 C 0.77563 0.01852 0.47645 0.0
C1126 C 0.78394 0.04371 0.37855 0.0
C1127 C 0.78514 0.04793 0.30299 0.0
C1128 C 0.78372 0.03746 0.52066 0.0
C1129 C 0.79098 0.05964 0.49352 0.0
C1130 C 0.79157 0.06257 0.42278 0.0
C1131 C 0.79726 0.07996 0.53726 0.0
C1132 C 0.78422 0.03349 0.59591 0.0
C1133 C 0.78122 0.0799 0.58357 0.0
C1134 C 0.78647 0.09982 0.62045 0.0
C1135 C 0.80771 0.12022 0.61071 0.0
C1136 C 0.82386 0.12006 0.56513 0.0
C1137 C 0.81868 0.10012 0.52882 0.0
H1138 H 0.78541 0.01777 0.60615 0.0
H1139 H 0.79901 0.0485 0.62089 0.0
H1140 H 0.76799 0.03091 0.61932 0.0
H1141 H 0.76436 0.06468 0.58965 0.0
H1142 H 0.77362 0.09945 0.65481 0.0
H1143 H 0.90168 0.73223 0.7048 0.0
H1144 H 0.94019 0.76128 0.66696 0.0
H1145 H 0.91081 0.77409 0.4885 0.0
H1146 H 0.8723 0.74439 0.52486 0.0
H1147 H 0.94261 0.76477 0.45368 0.0
H1148 H 0.9787 0.82992 0.65754 0.0
H1149 H 0.96781 0.80163 0.69268 0.0
H1150 H 0.94822 0.80909 0.65218 0.0
C1151 C 0.90338 0.74164 0.65836 0.0
C1152 C 0.88405 0.7359 0.61743 0.0
C1153 C 0.9254 0.75841 0.63702 0.0
C1154 C 0.92839 0.7701 0.57524 0.0
C1155 C 0.90891 0.76534 0.5364 0.0
H1156 H 0.07314 0.86228 0.45489 0.0
H1157 H 0.03247 0.84943 0.47805 0.0
C1158 C 0.88693 0.74833 0.55715 0.0
C1159 C 0.95186 0.78452 0.5467 0.0
H1160 H 0.00683 0.82545 0.58937 0.0
C1161 C 0.95653 0.77842 0.48277 0.0
C1162 C 0.97001 0.80261 0.58385 0.0
C1163 C 0.96584 0.81134 0.65001 0.0
C1164 C 0.97908 0.78875 0.45728 0.0
C1165 C -0.00252 0.80514 0.4976 0.0
C1166 C 0.99269 0.81253 0.55912 0.0
C1167 C 0.0218 0.81307 0.47992 0.0
C1168 C 0.98302 0.78154 0.38817 0.0
C1169 C 0.02921 0.79687 0.47381 0.0
C1170 C 0.05231 0.8041 0.46047 0.0
C1171 C 0.06855 0.82772 0.45371 0.0
C1172 C 0.06107 0.84396 0.45966 0.0
C1173 C 0.03787 0.83667 0.47292 0.0
H1174 H 0.96757 0.77558 0.35524 0.0
H1175 H -0.00187 0.79594 0.36227 0.0
H1176 H 0.9863 0.76692 0.39406 0.0
H1177 H 0.01717 0.77862 0.48073 0.0
H1178 H 0.05748 0.79113 0.45666 0.0
loop_
_geom_bond_atom_site_label_1
_geom_bond_atom_site_label_2
_geom_bond_distance
_geom_bond_site_symmetry_2
_ccdc_geom_bond_type
O0 Zn1 1.957 . S
O0 C16 1.213 1_556 S
Zn1 O0 1.957 . S
Zn1 O2 1.949 1_556 S
Zn1 O8 1.919 . S
Zn1 O13 1.924 1_556 S
O2 Zn1 1.949 1_554 S
O2 Zn3 1.923 1_454 S
O2 Zn4 1.950 . S
O2 Zn5 1.945 . S
Zn3 O2 1.923 1_656 S
Zn3 O6 1.933 . S
Zn3 O9 1.934 1_655 S
Zn3 O10 1.965 . S
Zn4 O2 1.950 . S
Zn4 O11 1.938 1_455 S
Zn4 O12 1.906 1_455 S
Zn4 O22 1.953 . S
Zn5 O2 1.945 . S
Zn5 O7 1.932 1_455 S
Zn5 O14 1.977 . S
Zn5 O15 1.910 . S
O6 Zn3 1.933 . S
O6 C17 1.226 . S
O7 Zn5 1.932 1_655 S
O7 C17 1.307 1_554 S
O8 Zn1 1.919 . S
O8 C19 1.253 . S
O9 Zn3 1.934 1_455 S
O9 C19 1.295 . S
O10 Zn3 1.965 . S
O10 C18 1.303 . S
O11 Zn4 1.938 1_655 S
O11 C18 1.247 1_554 S
O12 Zn4 1.906 1_655 S
O12 C20 1.304 . S
O13 Zn1 1.924 1_554 S
O13 C21 1.311 . S
O14 Zn5 1.977 . S
O14 C20 1.272 1_455 S
O15 Zn5 1.910 . S
O15 C21 1.231 . S
C16 O0 1.213 1_554 S
C16 O22 1.298 . S
C17 O6 1.226 . S
C17 O7 1.307 1_556 S
C18 O10 1.303 . S
C18 O11 1.247 1_556 S
C19 O8 1.253 . S
C19 O9 1.295 . S
C20 O12 1.304 . S
C20 O14 1.272 1_655 S
C21 O13 1.311 . S
C21 O15 1.231 . S
O22 Zn4 1.953 . S
O22 C16 1.298 . S
O23 Zn24 1.958 . S
O23 C39 1.213 1_556 S
Zn24 O23 1.958 . S
Zn24 O25 1.949 1_556 S
Zn24 O31 1.919 . S
Zn24 O36 1.924 1_556 S
O25 Zn24 1.949 1_554 S
O25 Zn26 1.923 1_554 S
O25 Zn27 1.950 . S
O25 Zn28 1.945 . S
Zn26 O25 1.923 1_556 S
Zn26 O29 1.933 . S
Zn26 O32 1.941 . S
Zn26 O33 1.965 . S
Zn27 O25 1.950 . S
Zn27 O34 1.938 . S
Zn27 O35 1.906 . S
Zn27 O45 1.953 . S
Zn28 O25 1.945 . S
Zn28 O30 1.932 . S
Zn28 O37 1.977 . S
Zn28 O38 1.910 . S
O29 Zn26 1.933 . S
O29 C40 1.226 . S
O30 Zn28 1.932 . S
O30 C40 1.307 1_554 S
O31 Zn24 1.919 . S
O31 C42 1.253 . S
O32 Zn26 1.941 . S
O32 C42 1.283 . S
O33 Zn26 1.965 . S
O33 C41 1.303 . S
O34 Zn27 1.938 . S
O34 C41 1.247 1_554 S
O35 Zn27 1.906 . S
O35 C43 1.304 . S
O36 Zn24 1.924 1_554 S
O36 C44 1.311 . S
O37 Zn28 1.977 . S
O37 C43 1.272 . S
O38 Zn28 1.910 . S
O38 C44 1.231 . S
C39 O23 1.213 1_554 S
C39 O45 1.298 . S
C40 O29 1.226 . S
C40 O30 1.307 1_556 S
C41 O33 1.303 . S
C41 O34 1.247 1_556 S
C42 O31 1.253 . S
C42 O32 1.283 . S
C43 O35 1.304 . S
C43 O37 1.272 . S
C44 O36 1.311 . S
C44 O38 1.231 . S
O45 Zn27 1.953 . S
O45 C39 1.298 . S
O46 Zn47 1.958 . S
O46 C62 1.213 1_556 S
Zn47 O46 1.958 . S
Zn47 O48 1.949 1_566 S
Zn47 O54 1.919 . S
Zn47 O59 1.924 1_556 S
O48 Zn47 1.949 1_544 S
O48 Zn49 1.923 1_554 S
O48 Zn50 1.950 . S
O48 Zn51 1.945 . S
Zn49 O48 1.923 1_556 S
Zn49 O52 1.933 . S
Zn49 O55 1.941 . S
Zn49 O56 1.965 . S
Zn50 O48 1.950 . S
Zn50 O57 1.938 . S
Zn50 O58 1.906 . S
Zn50 O68 1.953 1_545 S
Zn51 O48 1.945 . S
Zn51 O53 1.932 . S
Zn51 O60 1.977 . S
Zn51 O61 1.910 1_545 S
O52 Zn49 1.933 . S
O52 C63 1.226 . S
O53 Zn51 1.932 . S
O53 C63 1.307 1_554 S
O54 Zn47 1.919 . S
O54 C65 1.253 1_565 S
O55 Zn49 1.941 . S
O55 C65 1.283 . S
O56 Zn49 1.965 . S
O56 C64 1.303 . S
O57 Zn50 1.938 . S
O57 C64 1.247 1_554 S
O58 Zn50 1.906 . S
O58 C66 1.304 . S
O59 Zn47 1.924 1_554 S
O59 C67 1.311 . S
O60 Zn51 1.977 . S
O60 C66 1.272 . S
O61 Zn51 1.910 1_565 S
O61 C67 1.231 . S
C62 O46 1.213 1_554 S
C62 O68 1.298 . S
C63 O52 1.226 . S
C63 O53 1.307 1_556 S
C64 O56 1.303 . S
C64 O57 1.247 1_556 S
C65 O54 1.253 1_545 S
C65 O55 1.283 . S
C66 O58 1.304 . S
C66 O60 1.272 . S
C67 O59 1.311 . S
C67 O61 1.231 . S
O68 Zn50 1.953 1_565 S
O68 C62 1.298 . S
O69 Zn70 1.953 . S
O69 C85 1.225 . S
Zn70 O69 1.953 . S
Zn70 O71 1.949 . S
Zn70 O77 1.919 . S
Zn70 O82 1.924 . S
O71 Zn70 1.949 . S
O71 Zn72 1.923 . S
O71 Zn73 1.950 . S
O71 Zn74 1.945 . S
Zn72 O71 1.923 . S
Zn72 O75 1.933 . S
Zn72 O78 1.941 . S
Zn72 O79 1.965 . S
Zn73 O71 1.950 . S
Zn73 O80 1.938 . S
Zn73 O81 1.906 . S
Zn73 O91 1.953 . S
Zn74 O71 1.945 . S
Zn74 O76 1.932 . S
Zn74 O83 1.977 . S
Zn74 O84 1.910 . S
O75 Zn72 1.933 . S
O75 C86 1.226 . S
O76 Zn74 1.932 . S
O76 C86 1.307 . S
O77 Zn70 1.919 . S
O77 C88 1.253 . S
O78 Zn72 1.941 . S
O78 C88 1.283 . S
O79 Zn72 1.965 . S
O79 C87 1.303 . S
O80 Zn73 1.938 . S
O80 C87 1.247 . S
O81 Zn73 1.906 . S
O81 C89 1.304 . S
O82 Zn70 1.924 . S
O82 C90 1.311 . S
O83 Zn74 1.977 . S
O83 C89 1.272 . S
O84 Zn74 1.910 . S
O84 C90 1.231 . S
C85 O69 1.225 . S
C85 O91 1.298 . S
C86 O75 1.226 . S
C86 O76 1.307 . S
C87 O79 1.303 . S
C87 O80 1.247 . S
C88 O77 1.253 . S
C88 O78 1.283 . S
C89 O81 1.304 . S
C89 O83 1.272 . S
C90 O82 1.311 . S
C90 O84 1.231 . S
O91 Zn73 1.953 . S
O91 C85 1.298 . S
O92 Zn93 1.953 . S
O92 C108 1.225 . S
Zn93 O92 1.953 . S
Zn93 O94 1.949 . S
Zn93 O100 1.919 . S
Zn93 O105 1.924 . S
O94 Zn93 1.949 . S
O94 Zn95 1.923 . S
O94 Zn96 1.950 . S
O94 Zn97 1.945 . S
Zn95 O94 1.923 . S
Zn95 O98 1.933 . S
Zn95 O101 1.941 . S
Zn95 O102 1.965 . S
Zn96 O94 1.950 . S
Zn96 O103 1.938 . S
Zn96 O104 1.906 . S
Zn96 O114 1.953 . S
Zn97 O94 1.945 . S
Zn97 O99 1.932 . S
Zn97 O106 1.977 . S
Zn97 O107 1.910 . S
O98 Zn95 1.933 . S
O98 C109 1.226 . S
O99 Zn97 1.932 . S
O99 C109 1.307 . S
O100 Zn93 1.919 . S
O100 C111 1.253 . S
O101 Zn95 1.941 . S
O101 C111 1.283 . S
O102 Zn95 1.965 . S
O102 C110 1.303 . S
O103 Zn96 1.938 . S
O103 C110 1.247 . S
O104 Zn96 1.906 . S
O104 C112 1.304 . S
O105 Zn93 1.924 . S
O105 C113 1.311 . S
O106 Zn97 1.977 . S
O106 C112 1.272 . S
O107 Zn97 1.910 . S
O107 C113 1.231 . S
C108 O92 1.225 . S
C108 O114 1.298 . S
C109 O98 1.226 . S
C109 O99 1.307 . S
C110 O102 1.303 . S
C110 O103 1.247 . S
C111 O100 1.253 . S
C111 O101 1.283 . S
C112 O104 1.304 . S
C112 O106 1.272 . S
C113 O105 1.311 . S
C113 O107 1.231 . S
O114 Zn96 1.953 . S
O114 C108 1.298 . S
O115 Zn116 1.953 . S
O115 C131 1.225 . S
Zn116 O115 1.953 . S
Zn116 O117 1.949 . S
Zn116 O123 1.919 . S
Zn116 O128 1.924 . S
O117 Zn116 1.949 . S
O117 Zn118 1.923 . S
O117 Zn119 1.950 . S
O117 Zn120 1.945 . S
Zn118 O117 1.923 . S
Zn118 O121 1.933 . S
Zn118 O124 1.941 . S
Zn118 O125 1.965 . S
Zn119 O117 1.950 . S
Zn119 O126 1.938 . S
Zn119 O127 1.906 . S
Zn119 O137 1.953 . S
Zn120 O117 1.945 . S
Zn120 O122 1.932 . S
Zn120 O129 1.977 . S
Zn120 O130 1.910 . S
O121 Zn118 1.933 . S
O121 C132 1.226 . S
O122 Zn120 1.932 . S
O122 C132 1.307 . S
O123 Zn116 1.919 . S
O123 C134 1.253 . S
O124 Zn118 1.941 . S
O124 C134 1.283 . S
O125 Zn118 1.965 . S
O125 C133 1.303 . S
O126 Zn119 1.938 . S
O126 C133 1.247 . S
O127 Zn119 1.906 . S
O127 C135 1.304 . S
O128 Zn116 1.924 . S
O128 C136 1.311 . S
O129 Zn120 1.977 . S
O129 C135 1.272 . S
O130 Zn120 1.910 . S
O130 C136 1.231 . S
C131 O115 1.225 . S
C131 O137 1.298 . S
C132 O121 1.226 . S
C132 O122 1.307 . S
C133 O125 1.303 . S
C133 O126 1.247 . S
C134 O123 1.253 . S
C134 O124 1.283 . S
C135 O127 1.304 . S
C135 O129 1.272 . S
C136 O128 1.311 . S
C136 O130 1.231 . S
O137 Zn119 1.953 . S
O137 C131 1.298 . S
O138 Zn139 1.953 . S
O138 C154 1.225 . S
Zn139 O138 1.953 . S
Zn139 O140 1.949 . S
Zn139 O146 1.919 . S
Zn139 O151 1.924 . S
O140 Zn139 1.949 . S
O140 Zn141 1.923 . S
O140 Zn142 1.950 . S
O140 Zn143 1.945 . S
Zn141 O140 1.923 . S
Zn141 O144 1.933 . S
Zn141 O147 1.941 . S
Zn141 O148 1.965 . S
Zn142 O140 1.950 . S
Zn142 O149 1.938 . S
Zn142 O150 1.906 . S
Zn142 O160 1.953 . S
Zn143 O140 1.945 . S
Zn143 O145 1.932 . S
Zn143 O152 1.977 . S
Zn143 O153 1.910 . S
O144 Zn141 1.933 . S
O144 C155 1.226 . S
O145 Zn143 1.932 . S
O145 C155 1.307 . S
O146 Zn139 1.919 . S
O146 C157 1.253 . S
O147 Zn141 1.941 . S
O147 C157 1.283 . S
O148 Zn141 1.965 . S
O148 C156 1.303 . S
O149 Zn142 1.938 . S
O149 C156 1.247 . S
O150 Zn142 1.906 . S
O150 C158 1.304 . S
O151 Zn139 1.924 . S
O151 C159 1.311 . S
O152 Zn143 1.977 . S
O152 C158 1.272 . S
O153 Zn143 1.910 . S
O153 C159 1.231 . S
C154 O138 1.225 . S
C154 O160 1.298 . S
C155 O144 1.226 . S
C155 O145 1.307 . S
C156 O148 1.303 . S
C156 O149 1.247 . S
C157 O146 1.253 . S
C157 O147 1.283 . S
C158 O150 1.304 . S
C158 O152 1.272 . S
C159 O151 1.311 . S
C159 O153 1.231 . S
O160 Zn142 1.953 . S
O160 C154 1.298 . S
O161 Zn162 1.953 . S
O161 C177 1.225 . S
Zn162 O161 1.953 . S
Zn162 O163 1.949 . S
Zn162 O169 1.919 . S
Zn162 O174 1.924 . S
O163 Zn162 1.949 . S
O163 Zn164 1.923 . S
O163 Zn165 1.950 . S
O163 Zn166 1.945 . S
Zn164 O163 1.923 . S
Zn164 O167 1.933 . S
Zn164 O170 1.941 . S
Zn164 O171 1.965 . S
Zn165 O163 1.950 . S
Zn165 O172 1.938 . S
Zn165 O173 1.906 . S
Zn165 O183 1.953 . S
Zn166 O163 1.945 . S
Zn166 O168 1.932 . S
Zn166 O175 1.977 . S
Zn166 O176 1.910 . S
O167 Zn164 1.933 . S
O167 C178 1.226 . S
O168 Zn166 1.932 . S
O168 C178 1.307 . S
O169 Zn162 1.919 . S
O169 C180 1.253 . S
O170 Zn164 1.941 . S
O170 C180 1.283 . S
O171 Zn164 1.965 . S
O171 C179 1.303 . S
O172 Zn165 1.938 . S
O172 C179 1.247 . S
O173 Zn165 1.906 . S
O173 C181 1.304 . S
O174 Zn162 1.924 . S
O174 C182 1.311 . S
O175 Zn166 1.977 . S
O175 C181 1.272 . S
O176 Zn166 1.910 . S
O176 C182 1.231 . S
C177 O161 1.225 . S
C177 O183 1.298 . S
C178 O167 1.226 . S
C178 O168 1.307 . S
C179 O171 1.303 . S
C179 O172 1.247 . S
C180 O169 1.253 . S
C180 O170 1.283 . S
C181 O173 1.304 . S
C181 O175 1.272 . S
C182 O174 1.311 . S
C182 O176 1.231 . S
O183 Zn165 1.953 . S
O183 C177 1.298 . S
O184 Zn185 1.953 . S
O184 C200 1.225 . S
Zn185 O184 1.953 . S
Zn185 O186 1.949 . S
Zn185 O192 1.919 . S
Zn185 O197 1.924 . S
O186 Zn185 1.949 . S
O186 Zn187 1.923 . S
O186 Zn188 1.950 . S
O186 Zn189 1.945 . S
Zn187 O186 1.923 . S
Zn187 O190 1.933 . S
Zn187 O193 1.941 . S
Zn187 O194 1.965 . S
Zn188 O186 1.950 . S
Zn188 O195 1.938 . S
Zn188 O196 1.906 . S
Zn188 O206 1.953 . S
Zn189 O186 1.945 . S
Zn189 O191 1.932 . S
Zn189 O198 1.977 . S
Zn189 O199 1.910 . S
O190 Zn187 1.933 . S
O190 C201 1.226 . S
O191 Zn189 1.932 . S
O191 C201 1.307 . S
O192 Zn185 1.919 . S
O192 C203 1.253 . S
O193 Zn187 1.941 . S
O193 C203 1.283 . S
O194 Zn187 1.965 . S
O194 C202 1.303 . S
O195 Zn188 1.938 . S
O195 C202 1.247 . S
O196 Zn188 1.906 . S
O196 C204 1.304 . S
O197 Zn185 1.924 . S
O197 C205 1.311 . S
O198 Zn189 1.977 . S
O198 C204 1.272 . S
O199 Zn189 1.910 . S
O199 C205 1.231 . S
C200 O184 1.225 . S
C200 O206 1.298 . S
C201 O190 1.226 . S
C201 O191 1.307 . S
C202 O194 1.303 . S
C202 O195 1.247 . S
C203 O192 1.253 . S
C203 O193 1.283 . S
C204 O196 1.304 . S
C204 O198 1.272 . S
C205 O197 1.311 . S
C205 O199 1.231 . S
O206 Zn188 1.953 . S
O206 C200 1.298 . S
H207 C215 0.929 1_655 S
H208 C217 0.930 1_655 S
H209 C219 0.930 . S
H210 C222 0.929 . S
H211 C225 0.930 . S
H212 C227 0.960 . S
H213 C227 0.960 . S
H214 C227 0.960 . S
C215 H207 0.929 1_455 S
C215 C216 1.377 . S
C215 C217 1.384 . S
C216 C215 1.377 . S
C216 C222 1.390 . S
C217 H208 0.930 1_455 S
C217 C215 1.384 . S
C217 C218 1.372 . S
C218 C217 1.372 . S
C218 C219 1.400 . S
C218 C223 1.490 . S
C219 H209 0.930 . S
C219 C218 1.400 . S
C219 C222 1.386 . S
H220 C236 0.930 1_455 S
H221 C237 0.931 1_455 S
C222 H210 0.929 . S
C222 C216 1.390 . S
C222 C219 1.386 . S
C223 C218 1.490 . S
C223 C225 1.395 1_455 S
C223 C226 1.403 . S
H224 C230 0.930 . S
C225 H211 0.930 . S
C225 C223 1.395 1_655 S
C225 C228 1.403 . S
C226 C223 1.403 . S
C226 C227 1.524 . S
C226 C230 1.400 . S
C227 H212 0.960 . S
C227 H213 0.960 . S
C227 H214 0.960 . S
C227 C226 1.524 . S
C228 C225 1.403 . S
C228 C229 1.392 . S
C228 C232 1.495 . S
C229 C228 1.392 . S
C229 C230 1.385 1_655 S
C229 C231 1.478 . S
C230 H224 0.930 . S
C230 C226 1.400 . S
C230 C229 1.385 1_455 S
C231 C229 1.478 . S
C231 C233 1.381 . S
C231 C237 1.383 . S
C232 C228 1.495 . S
C232 H238 0.959 . S
C232 H239 0.961 . S
C232 H240 0.960 . S
C233 C231 1.381 . S
C233 C234 1.394 . S
C233 H241 0.930 . S
C234 C233 1.394 . S
C234 C235 1.383 . S
C234 H242 0.929 . S
C235 C234 1.383 . S
C235 C236 1.377 . S
C236 H220 0.930 1_655 S
C236 C235 1.377 . S
C236 C237 1.379 . S
C237 H221 0.931 1_655 S
C237 C231 1.383 . S
C237 C236 1.379 . S
H238 C232 0.959 . S
H239 C232 0.961 . S
H240 C232 0.960 . S
H241 C233 0.930 . S
H242 C234 0.929 . S
H243 C251 0.929 . S
H244 C253 0.930 . S
H245 C255 0.930 . S
H246 C258 0.929 . S
H247 C261 0.930 . S
H248 C263 0.960 . S
H249 C263 0.960 . S
H250 C263 0.960 . S
C251 H243 0.929 . S
C251 C252 1.377 . S
C251 C253 1.384 . S
C252 C251 1.377 . S
C252 C258 1.390 . S
C253 H244 0.930 . S
C253 C251 1.384 . S
C253 C254 1.372 . S
C254 C253 1.372 . S
C254 C255 1.400 . S
C254 C259 1.490 . S
C255 H245 0.930 . S
C255 C254 1.400 . S
C255 C258 1.386 . S
H256 C272 0.930 . S
H257 C273 0.931 . S
C258 H246 0.929 . S
C258 C252 1.390 . S
C258 C255 1.386 . S
C259 C254 1.490 . S
C259 C261 1.395 . S
C259 C262 1.403 . S
H260 C266 0.930 . S
C261 H247 0.930 . S
C261 C259 1.395 . S
C261 C264 1.403 . S
C262 C259 1.403 . S
C262 C263 1.524 . S
C262 C266 1.400 . S
C263 H248 0.960 . S
C263 H249 0.960 . S
C263 H250 0.960 . S
C263 C262 1.524 . S
C264 C261 1.403 . S
C264 C265 1.392 . S
C264 C268 1.495 . S
C265 C264 1.392 . S
C265 C266 1.385 . S
C265 C267 1.478 . S
C266 H260 0.930 . S
C266 C262 1.400 . S
C266 C265 1.385 . S
C267 C265 1.478 . S
C267 C269 1.381 . S
C267 C273 1.383 . S
C268 C264 1.495 . S
C268 H274 0.959 . S
C268 H275 0.961 . S
C268 H276 0.960 . S
C269 C267 1.381 . S
C269 C270 1.394 . S
C269 H277 0.930 . S
C270 C269 1.394 . S
C270 C271 1.383 . S
C270 H278 0.929 . S
C271 C270 1.383 . S
C271 C272 1.377 . S
C272 H256 0.930 . S
C272 C271 1.377 . S
C272 C273 1.379 . S
C273 H257 0.931 . S
C273 C267 1.383 . S
C273 C272 1.379 . S
H274 C268 0.959 . S
H275 C268 0.961 . S
H276 C268 0.960 . S
H277 C269 0.930 . S
H278 C270 0.929 . S
H279 C287 0.929 . S
H280 C289 0.926 1_565 S
H281 C291 0.930 . S
H282 C294 0.929 . S
H283 C297 0.930 1_565 S
H284 C299 0.960 . S
H285 C299 0.960 . S
H286 C299 0.960 . S
C287 H279 0.929 . S
C287 C288 1.377 1_565 S
C287 C289 1.383 1_565 S
C288 C287 1.377 1_545 S
C288 C294 1.390 . S
C289 H280 0.926 1_545 S
C289 C287 1.383 1_545 S
C289 C290 1.377 . S
C290 C289 1.377 . S
C290 C291 1.400 . S
C290 C295 1.490 . S
C291 H281 0.930 . S
C291 C290 1.400 . S
C291 C294 1.386 . S
H292 C308 0.930 . S
H293 C309 0.931 . S
C294 H282 0.929 . S
C294 C288 1.390 . S
C294 C291 1.386 . S
C295 C290 1.490 . S
C295 C297 1.395 . S
C295 C298 1.403 . S
H296 C302 0.930 . S
C297 H283 0.930 1_545 S
C297 C295 1.395 . S
C297 C300 1.403 . S
C298 C295 1.403 . S
C298 C299 1.524 . S
C298 C302 1.400 . S
C299 H284 0.960 . S
C299 H285 0.960 . S
C299 H286 0.960 . S
C299 C298 1.524 . S
C300 C297 1.403 . S
C300 C301 1.392 . S
C300 C304 1.495 1_545 S
C301 C300 1.392 . S
C301 C302 1.385 . S
C301 C303 1.478 . S
C302 H296 0.930 . S
C302 C298 1.400 . S
C302 C301 1.385 . S
C303 C301 1.478 . S
C303 C305 1.381 . S
C303 C309 1.383 . S
C304 C300 1.495 1_565 S
C304 H310 0.959 . S
C304 H311 0.970 . S
C304 H312 0.960 . S
C305 C303 1.381 . S
C305 C306 1.394 . S
C305 H313 0.930 . S
C306 C305 1.394 . S
C306 C307 1.383 . S
C306 H314 0.929 . S
C307 C306 1.383 . S
C307 C308 1.377 . S
C308 H292 0.930 . S
C308 C307 1.377 . S
C308 C309 1.379 . S
C309 H293 0.931 . S
C309 C303 1.383 . S
C309 C308 1.379 . S
H310 C304 0.959 . S
H311 C304 0.970 . S
H312 C304 0.960 . S
H313 C305 0.930 . S
H314 C306 0.929 . S
H315 C323 0.929 . S
H316 C325 0.930 . S
H317 C327 0.930 . S
H318 C330 0.929 . S
H319 C333 0.930 . S
H320 C335 0.960 . S
H321 C335 0.960 . S
H322 C335 0.960 . S
C323 H315 0.929 . S
C323 C324 1.377 . S
C323 C325 1.384 . S
C324 C323 1.377 . S
C324 C330 1.390 . S
C325 H316 0.930 . S
C325 C323 1.384 . S
C325 C326 1.372 . S
C326 C325 1.372 . S
C326 C327 1.400 . S
C326 C331 1.490 . S
C327 H317 0.930 . S
C327 C326 1.400 . S
C327 C330 1.386 . S
H328 C344 0.930 . S
H329 C345 0.931 . S
C330 H318 0.929 . S
C330 C324 1.390 . S
C330 C327 1.386 . S
C331 C326 1.490 . S
C331 C333 1.395 . S
C331 C334 1.403 . S
H332 C338 0.930 . S
C333 H319 0.930 . S
C333 C331 1.395 . S
C333 C336 1.403 . S
C334 C331 1.403 . S
C334 C335 1.524 . S
C334 C338 1.400 . S
C335 H320 0.960 . S
C335 H321 0.960 . S
C335 H322 0.960 . S
C335 C334 1.524 . S
C336 C333 1.403 . S
C336 C337 1.392 . S
C336 C340 1.495 . S
C337 C336 1.392 . S
C337 C338 1.385 . S
C337 C339 1.478 1_556 S
C338 H332 0.930 . S
C338 C334 1.400 . S
C338 C337 1.385 . S
C339 C337 1.478 1_554 S
C339 C341 1.381 . S
C339 C345 1.383 . S
C340 C336 1.495 . S
C340 H346 0.959 . S
C340 H347 0.961 . S
C340 H348 0.960 1_556 S
C341 C339 1.381 . S
C341 C342 1.394 . S
C341 H349 0.930 . S
C342 C341 1.394 . S
C342 C343 1.383 . S
C342 H350 0.929 . S
C343 C342 1.383 . S
C343 C344 1.377 . S
C344 H328 0.930 . S
C344 C343 1.377 . S
C344 C345 1.379 . S
C345 H329 0.931 . S
C345 C339 1.383 . S
C345 C344 1.379 . S
H346 C340 0.959 . S
H347 C340 0.961 . S
H348 C340 0.960 1_554 S
H349 C341 0.930 . S
H350 C342 0.929 . S
H351 C359 0.929 . S
H352 C361 0.930 . S
H353 C363 0.930 . S
H354 C366 0.929 . S
H355 C369 0.930 . S
H356 C371 0.960 . S
H357 C371 0.960 . S
H358 C371 0.960 . S
C359 H351 0.929 . S
C359 C360 1.377 . S
C359 C361 1.384 . S
C360 C359 1.377 . S
C360 C366 1.390 . S
C361 H352 0.930 . S
C361 C359 1.384 . S
C361 C362 1.372 . S
C362 C361 1.372 . S
C362 C363 1.400 . S
C362 C367 1.490 . S
C363 H353 0.930 . S
C363 C362 1.400 . S
C363 C366 1.386 . S
H364 C380 0.930 . S
H365 C381 0.931 . S
C366 H354 0.929 . S
C366 C360 1.390 . S
C366 C363 1.386 . S
C367 C362 1.490 . S
C367 C369 1.395 . S
C367 C370 1.403 . S
H368 C374 0.930 . S
C369 H355 0.930 . S
C369 C367 1.395 . S
C369 C372 1.403 . S
C370 C367 1.403 . S
C370 C371 1.524 . S
C370 C374 1.400 . S
C371 H356 0.960 . S
C371 H357 0.960 . S
C371 H358 0.960 . S
C371 C370 1.524 . S
C372 C369 1.403 . S
C372 C373 1.392 . S
C372 C376 1.495 . S
C373 C372 1.392 . S
C373 C374 1.385 . S
C373 C375 1.478 1_556 S
C374 H368 0.930 . S
C374 C370 1.400 . S
C374 C373 1.385 . S
C375 C373 1.478 1_554 S
C375 C377 1.381 . S
C375 C381 1.383 . S
C376 C372 1.495 . S
C376 H382 0.959 . S
C376 H383 0.961 . S
C376 H384 0.960 . S
C377 C375 1.381 . S
C377 C378 1.394 . S
C377 H385 0.930 . S
C378 C377 1.394 . S
C378 C379 1.383 . S
C378 H386 0.929 . S
C379 C378 1.383 . S
C379 C380 1.377 . S
C380 H364 0.930 . S
C380 C379 1.377 . S
C380 C381 1.379 . S
C381 H365 0.931 . S
C381 C375 1.383 . S
C381 C380 1.379 . S
H382 C376 0.959 . S
H383 C376 0.961 . S
H384 C376 0.960 . S
H385 C377 0.930 . S
H386 C378 0.929 . S
H387 C395 0.929 . S
H388 C397 0.930 . S
H389 C399 0.930 . S
H390 C402 0.929 . S
H391 C405 0.930 . S
H392 C407 0.960 . S
H393 C407 0.960 . S
H394 C407 0.960 . S
C395 H387 0.929 . S
C395 C396 1.377 . S
C395 C397 1.384 . S
C396 C395 1.377 . S
C396 C402 1.390 . S
C397 H388 0.930 . S
C397 C395 1.384 . S
C397 C398 1.372 . S
C398 C397 1.372 . S
C398 C399 1.400 . S
C398 C403 1.490 . S
C399 H389 0.930 . S
C399 C398 1.400 . S
C399 C402 1.386 . S
H400 C416 0.930 . S
H401 C417 0.931 . S
C402 H390 0.929 . S
C402 C396 1.390 . S
C402 C399 1.386 . S
C403 C398 1.490 . S
C403 C405 1.395 . S
C403 C406 1.403 . S
H404 C410 0.930 . S
C405 H391 0.930 . S
C405 C403 1.395 . S
C405 C408 1.403 . S
C406 C403 1.403 . S
C406 C407 1.524 . S
C406 C410 1.400 . S
C407 H392 0.960 . S
C407 H393 0.960 . S
C407 H394 0.960 . S
C407 C406 1.524 . S
C408 C405 1.403 . S
C408 C409 1.392 . S
C408 C412 1.495 . S
C409 C408 1.392 . S
C409 C410 1.385 . S
C409 C411 1.478 1_556 S
C410 H404 0.930 . S
C410 C406 1.400 . S
C410 C409 1.385 . S
C411 C409 1.478 1_554 S
C411 C413 1.381 . S
C411 C417 1.383 . S
C412 C408 1.495 . S
C412 H418 0.959 . S
C412 H419 0.961 . S
C412 H420 0.960 . S
C413 C411 1.381 . S
C413 C414 1.394 . S
C413 H421 0.930 . S
C414 C413 1.394 . S
C414 C415 1.383 . S
C414 H422 0.929 . S
C415 C414 1.383 . S
C415 C416 1.377 . S
C416 H400 0.930 . S
C416 C415 1.377 . S
C416 C417 1.379 . S
C417 H401 0.931 . S
C417 C411 1.383 . S
C417 C416 1.379 . S
H418 C412 0.959 . S
H419 C412 0.961 . S
H420 C412 0.960 . S
H421 C413 0.930 . S
H422 C414 0.929 . S
H423 C431 0.929 . S
H424 C433 0.930 . S
H425 C435 0.930 . S
H426 C438 0.929 . S
H427 C441 0.930 . S
H428 C443 0.960 . S
H429 C443 0.960 . S
H430 C443 0.960 . S
C431 H423 0.929 . S
C431 C432 1.377 . S
C431 C433 1.384 . S
C432 C431 1.377 . S
C432 C438 1.390 . S
C433 H424 0.930 . S
C433 C431 1.384 . S
C433 C434 1.372 . S
C434 C433 1.372 . S
C434 C435 1.400 . S
C434 C439 1.490 . S
C435 H425 0.930 . S
C435 C434 1.400 . S
C435 C438 1.386 . S
H436 C452 0.930 . S
H437 C453 0.931 . S
C438 H426 0.929 . S
C438 C432 1.390 . S
C438 C435 1.386 . S
C439 C434 1.490 . S
C439 C441 1.395 . S
C439 C442 1.403 . S
H440 C446 0.930 . S
C441 H427 0.930 . S
C441 C439 1.395 . S
C441 C444 1.403 . S
C442 C439 1.403 . S
C442 C443 1.524 . S
C442 C446 1.400 . S
C443 H428 0.960 . S
C443 H429 0.960 . S
C443 H430 0.960 . S
C443 C442 1.524 . S
C444 C441 1.403 . S
C444 C445 1.392 . S
C444 C448 1.495 . S
C445 C444 1.392 . S
C445 C446 1.385 . S
C445 C447 1.478 . S
C446 H440 0.930 . S
C446 C442 1.400 . S
C446 C445 1.385 . S
C447 C445 1.478 . S
C447 C449 1.381 . S
C447 C453 1.383 . S
C448 C444 1.495 . S
C448 H454 0.959 . S
C448 H455 0.961 . S
C448 H456 0.960 . S
C449 C447 1.381 . S
C449 C450 1.394 1_554 S
C449 H457 0.930 . S
C450 C449 1.394 1_556 S
C450 C451 1.383 . S
C450 H458 0.929 . S
C451 C450 1.383 . S
C451 C452 1.377 . S
C452 H436 0.930 . S
C452 C451 1.377 . S
C452 C453 1.379 1_556 S
C453 H437 0.931 . S
C453 C447 1.383 . S
C453 C452 1.379 1_554 S
H454 C448 0.959 . S
H455 C448 0.961 . S
H456 C448 0.960 . S
H457 C449 0.930 . S
H458 C450 0.929 . S
H459 C467 0.929 . S
H460 C469 0.930 . S
H461 C471 0.930 . S
H462 C474 0.929 . S
H463 C477 0.930 . S
H464 C479 0.960 . S
H465 C479 0.960 . S
H466 C479 0.960 . S
C467 H459 0.929 . S
C467 C468 1.377 . S
C467 C469 1.384 . S
C468 C467 1.377 . S
C468 C474 1.390 . S
C469 H460 0.930 . S
C469 C467 1.384 . S
C469 C470 1.372 . S
C470 C469 1.372 . S
C470 C471 1.400 . S
C470 C475 1.490 . S
C471 H461 0.930 . S
C471 C470 1.400 . S
C471 C474 1.386 . S
H472 C488 0.930 . S
H473 C489 0.931 . S
C474 H462 0.929 . S
C474 C468 1.390 . S
C474 C471 1.386 . S
C475 C470 1.490 . S
C475 C477 1.395 . S
C475 C478 1.403 . S
H476 C482 0.930 . S
C477 H463 0.930 . S
C477 C475 1.395 . S
C477 C480 1.403 . S
C478 C475 1.403 . S
C478 C479 1.524 . S
C478 C482 1.400 . S
C479 H464 0.960 . S
C479 H465 0.960 . S
C479 H466 0.960 . S
C479 C478 1.524 . S
C480 C477 1.403 . S
C480 C481 1.392 . S
C480 C484 1.495 . S
C481 C480 1.392 . S
C481 C482 1.385 . S
C481 C483 1.478 . S
C482 H476 0.930 . S
C482 C478 1.400 . S
C482 C481 1.385 . S
C483 C481 1.478 . S
C483 C485 1.381 . S
C483 C489 1.383 . S
C484 C480 1.495 . S
C484 H490 0.959 . S
C484 H491 0.961 . S
C484 H492 0.960 . S
C485 C483 1.381 . S
C485 C486 1.394 1_554 S
C485 H493 0.930 . S
C486 C485 1.394 1_556 S
C486 C487 1.383 . S
C486 H494 0.929 . S
C487 C486 1.383 . S
C487 C488 1.377 . S
C488 H472 0.930 . S
C488 C487 1.377 . S
C488 C489 1.379 1_556 S
C489 H473 0.931 . S
C489 C483 1.383 . S
C489 C488 1.379 1_554 S
H490 C484 0.959 . S
H491 C484 0.961 . S
H492 C484 0.960 . S
H493 C485 0.930 . S
H494 C486 0.929 . S
H495 C503 0.929 . S
H496 C505 0.930 . S
H497 C507 0.930 . S
H498 C510 0.929 . S
H499 C513 0.930 . S
H500 C515 0.960 . S
H501 C515 0.960 . S
H502 C515 0.960 . S
C503 H495 0.929 . S
C503 C504 1.377 . S
C503 C505 1.384 . S
C504 C503 1.377 . S
C504 C510 1.390 . S
C505 H496 0.930 . S
C505 C503 1.384 . S
C505 C506 1.372 . S
C506 C505 1.372 . S
C506 C507 1.400 . S
C506 C511 1.490 . S
C507 H497 0.930 . S
C507 C506 1.400 . S
C507 C510 1.386 . S
H508 C524 0.930 . S
H509 C525 0.931 . S
C510 H498 0.929 . S
C510 C504 1.390 . S
C510 C507 1.386 . S
C511 C506 1.490 . S
C511 C513 1.395 . S
C511 C514 1.403 . S
H512 C518 0.930 . S
C513 H499 0.930 . S
C513 C511 1.395 . S
C513 C516 1.403 . S
C514 C511 1.403 . S
C514 C515 1.524 . S
C514 C518 1.400 . S
C515 H500 0.960 . S
C515 H501 0.960 . S
C515 H502 0.960 . S
C515 C514 1.524 . S
C516 C513 1.403 . S
C516 C517 1.392 . S
C516 C520 1.495 . S
C517 C516 1.392 . S
C517 C518 1.385 . S
C517 C519 1.478 . S
C518 H512 0.930 . S
C518 C514 1.400 . S
C518 C517 1.385 . S
C519 C517 1.478 . S
C519 C521 1.381 . S
C519 C525 1.383 . S
C520 C516 1.495 . S
C520 H526 0.959 . S
C520 H527 0.961 . S
C520 H528 0.960 . S
C521 C519 1.381 . S
C521 C522 1.394 1_554 S
C521 H529 0.930 . S
C522 C521 1.394 1_556 S
C522 C523 1.383 . S
C522 H530 0.929 . S
C523 C522 1.383 . S
C523 C524 1.377 . S
C524 H508 0.930 . S
C524 C523 1.377 . S
C524 C525 1.379 1_556 S
C525 H509 0.931 . S
C525 C519 1.383 . S
C525 C524 1.379 1_554 S
H526 C520 0.959 . S
H527 C520 0.961 . S
H528 C520 0.960 . S
H529 C521 0.930 . S
H530 C522 0.929 . S
H531 C539 0.929 . S
H532 C541 0.930 . S
H533 C543 0.930 . S
H534 C546 0.929 . S
H535 C549 0.930 . S
H536 C551 0.960 . S
H537 C551 0.960 . S
H538 C551 0.960 . S
C539 H531 0.929 . S
C539 C540 1.377 . S
C539 C541 1.384 . S
C540 C539 1.377 . S
C540 C546 1.390 . S
C541 H532 0.930 . S
C541 C539 1.384 . S
C541 C542 1.372 . S
C542 C541 1.372 . S
C542 C543 1.400 . S
C542 C547 1.490 . S
C543 H533 0.930 . S
C543 C542 1.400 . S
C543 C546 1.386 . S
H544 C560 0.930 . S
H545 C561 0.931 . S
C546 H534 0.929 . S
C546 C540 1.390 . S
C546 C543 1.386 . S
C547 C542 1.490 . S
C547 C549 1.395 . S
C547 C550 1.403 . S
H548 C554 0.930 . S
C549 H535 0.930 . S
C549 C547 1.395 . S
C549 C552 1.403 . S
C550 C547 1.403 . S
C550 C551 1.524 . S
C550 C554 1.400 . S
C551 H536 0.960 . S
C551 H537 0.960 . S
C551 H538 0.960 . S
C551 C550 1.524 . S
C552 C549 1.403 . S
C552 C553 1.392 . S
C552 C556 1.495 . S
C553 C552 1.392 . S
C553 C554 1.385 . S
C553 C555 1.478 . S
C554 H548 0.930 . S
C554 C550 1.400 . S
C554 C553 1.385 . S
C555 C553 1.478 . S
C555 C557 1.381 . S
C555 C561 1.383 . S
C556 C552 1.495 . S
C556 H562 0.959 . S
C556 H563 0.961 . S
C556 H564 0.960 . S
C557 C555 1.381 . S
C557 C558 1.394 . S
C557 H565 0.930 . S
C558 C557 1.394 . S
C558 C559 1.383 . S
C558 H566 0.929 . S
C559 C558 1.383 . S
C559 C560 1.377 . S
C560 H544 0.930 . S
C560 C559 1.377 . S
C560 C561 1.379 . S
C561 H545 0.931 . S
C561 C555 1.383 . S
C561 C560 1.379 . S
H562 C556 0.959 . S
H563 C556 0.961 . S
H564 C556 0.960 . S
H565 C557 0.930 . S
H566 C558 0.929 . S
H567 C575 0.929 . S
H568 C577 0.930 . S
H569 C579 0.930 . S
H570 C582 0.929 . S
H571 C585 0.930 . S
H572 C587 0.960 . S
H573 C587 0.960 . S
H574 C587 0.960 . S
C575 H567 0.929 . S
C575 C576 1.377 . S
C575 C577 1.384 . S
C576 C575 1.377 . S
C576 C582 1.390 . S
C577 H568 0.930 . S
C577 C575 1.384 . S
C577 C578 1.372 . S
C578 C577 1.372 . S
C578 C579 1.400 . S
C578 C583 1.490 . S
C579 H569 0.930 . S
C579 C578 1.400 . S
C579 C582 1.386 . S
H580 C596 0.930 . S
H581 C597 0.931 . S
C582 H570 0.929 . S
C582 C576 1.390 . S
C582 C579 1.386 . S
C583 C578 1.490 . S
C583 C585 1.395 . S
C583 C586 1.403 . S
H584 C590 0.930 . S
C585 H571 0.930 . S
C585 C583 1.395 . S
C585 C588 1.403 . S
C586 C583 1.403 . S
C586 C587 1.524 . S
C586 C590 1.400 . S
C587 H572 0.960 . S
C587 H573 0.960 . S
C587 H574 0.960 . S
C587 C586 1.524 . S
C588 C585 1.403 . S
C588 C589 1.392 . S
C588 C592 1.495 . S
C589 C588 1.392 . S
C589 C590 1.385 . S
C589 C591 1.478 . S
C590 H584 0.930 . S
C590 C586 1.400 . S
C590 C589 1.385 . S
C591 C589 1.478 . S
C591 C593 1.381 . S
C591 C597 1.383 . S
C592 C588 1.495 . S
C592 H598 0.959 . S
C592 H599 0.961 . S
C592 H600 0.960 . S
C593 C591 1.381 . S
C593 C594 1.394 . S
C593 H601 0.930 . S
C594 C593 1.394 . S
C594 C595 1.383 . S
C594 H602 0.929 . S
C595 C594 1.383 . S
C595 C596 1.377 . S
C596 H580 0.930 . S
C596 C595 1.377 . S
C596 C597 1.379 . S
C597 H581 0.931 . S
C597 C591 1.383 . S
C597 C596 1.379 . S
H598 C592 0.959 . S
H599 C592 0.961 . S
H600 C592 0.960 . S
H601 C593 0.930 . S
H602 C594 0.929 . S
H603 C611 0.929 . S
H604 C613 0.930 . S
H605 C615 0.930 . S
H606 C618 0.929 . S
H607 C621 0.930 . S
H608 C623 0.960 . S
H609 C623 0.960 . S
H610 C623 0.960 . S
C611 H603 0.929 . S
C611 C612 1.377 . S
C611 C613 1.384 . S
C612 C611 1.377 . S
C612 C618 1.390 . S
C613 H604 0.930 . S
C613 C611 1.384 . S
C613 C614 1.372 . S
C614 C613 1.372 . S
C614 C615 1.400 . S
C614 C619 1.490 . S
C615 H605 0.930 . S
C615 C614 1.400 . S
C615 C618 1.386 . S
H616 C632 0.930 . S
H617 C633 0.931 . S
C618 H606 0.929 . S
C618 C612 1.390 . S
C618 C615 1.386 . S
C619 C614 1.490 . S
C619 C621 1.395 . S
C619 C622 1.403 . S
H620 C626 0.930 . S
C621 H607 0.930 . S
C621 C619 1.395 . S
C621 C624 1.403 . S
C622 C619 1.403 . S
C622 C623 1.524 . S
C622 C626 1.400 . S
C623 H608 0.960 . S
C623 H609 0.960 . S
C623 H610 0.960 . S
C623 C622 1.524 . S
C624 C621 1.403 . S
C624 C625 1.392 . S
C624 C628 1.495 . S
C625 C624 1.392 . S
C625 C626 1.385 . S
C625 C627 1.478 . S
C626 H620 0.930 . S
C626 C622 1.400 . S
C626 C625 1.385 . S
C627 C625 1.478 . S
C627 C629 1.381 . S
C627 C633 1.383 . S
C628 C624 1.495 . S
C628 H634 0.959 . S
C628 H635 0.961 . S
C628 H636 0.960 . S
C629 C627 1.381 . S
C629 C630 1.394 . S
C629 H637 0.930 . S
C630 C629 1.394 . S
C630 C631 1.383 . S
C630 H638 0.929 . S
C631 C630 1.383 . S
C631 C632 1.377 . S
C632 H616 0.930 . S
C632 C631 1.377 . S
C632 C633 1.379 . S
C633 H617 0.931 . S
C633 C627 1.383 . S
C633 C632 1.379 . S
H634 C628 0.959 . S
H635 C628 0.961 . S
H636 C628 0.960 . S
H637 C629 0.930 . S
H638 C630 0.929 . S
H639 C647 0.929 1_554 S
H640 C649 0.930 . S
H641 C651 0.930 . S
H642 C654 0.929 . S
H643 C657 0.930 . S
H644 C659 0.960 . S
H645 C659 0.960 1_554 S
H646 C659 0.960 . S
C647 H639 0.929 1_556 S
C647 C648 1.377 . S
C647 C649 1.384 . S
C648 C647 1.377 . S
C648 C654 1.390 . S
C649 H640 0.930 . S
C649 C647 1.384 . S
C649 C650 1.372 . S
C650 C649 1.372 . S
C650 C651 1.400 . S
C650 C655 1.490 . S
C651 H641 0.930 . S
C651 C650 1.400 . S
C651 C654 1.386 . S
H652 C668 0.930 . S
H653 C669 0.931 . S
C654 H642 0.929 . S
C654 C648 1.390 . S
C654 C651 1.386 . S
C655 C650 1.490 . S
C655 C657 1.395 . S
C655 C658 1.403 . S
H656 C662 0.930 . S
C657 H643 0.930 . S
C657 C655 1.395 . S
C657 C660 1.403 . S
C658 C655 1.403 . S
C658 C659 1.524 . S
C658 C662 1.400 . S
C659 H644 0.960 . S
C659 H645 0.960 1_556 S
C659 H646 0.960 . S
C659 C658 1.524 . S
C660 C657 1.403 . S
C660 C661 1.392 . S
C660 C664 1.495 . S
C661 C660 1.392 . S
C661 C662 1.385 . S
C661 C663 1.478 . S
C662 H656 0.930 . S
C662 C658 1.400 . S
C662 C661 1.385 . S
C663 C661 1.478 . S
C663 C665 1.381 . S
C663 C669 1.383 . S
C664 C660 1.495 . S
C664 H670 0.959 . S
C664 H671 0.961 . S
C664 H672 0.960 . S
C665 C663 1.381 . S
C665 C666 1.394 . S
C665 H673 0.930 . S
C666 C665 1.394 . S
C666 C667 1.383 . S
C666 H674 0.929 . S
C667 C666 1.383 . S
C667 C668 1.377 . S
C668 H652 0.930 . S
C668 C667 1.377 . S
C668 C669 1.379 . S
C669 H653 0.931 . S
C669 C663 1.383 . S
C669 C668 1.379 . S
H670 C664 0.959 . S
H671 C664 0.961 . S
H672 C664 0.960 . S
H673 C665 0.930 . S
H674 C666 0.929 . S
H675 C683 0.929 . S
H676 C685 0.930 . S
H677 C687 0.930 . S
H678 C690 0.929 . S
H679 C693 0.930 . S
H680 C695 0.960 . S
H681 C695 0.960 . S
H682 C695 0.960 . S
C683 H675 0.929 . S
C683 C684 1.377 . S
C683 C685 1.384 . S
C684 C683 1.377 . S
C684 C690 1.390 . S
C685 H676 0.930 . S
C685 C683 1.384 . S
C685 C686 1.372 . S
C686 C685 1.372 . S
C686 C687 1.400 . S
C686 C691 1.490 . S
C687 H677 0.930 . S
C687 C686 1.400 . S
C687 C690 1.386 . S
H688 C704 0.930 . S
H689 C705 0.931 . S
C690 H678 0.929 . S
C690 C684 1.390 . S
C690 C687 1.386 . S
C691 C686 1.490 . S
C691 C693 1.395 . S
C691 C694 1.403 . S
H692 C698 0.930 . S
C693 H679 0.930 . S
C693 C691 1.395 . S
C693 C696 1.403 . S
C694 C691 1.403 . S
C694 C695 1.524 . S
C694 C698 1.400 . S
C695 H680 0.960 . S
C695 H681 0.960 . S
C695 H682 0.960 . S
C695 C694 1.524 . S
C696 C693 1.403 . S
C696 C697 1.392 . S
C696 C700 1.495 . S
C697 C696 1.392 . S
C697 C698 1.385 . S
C697 C699 1.478 . S
C698 H692 0.930 . S
C698 C694 1.400 . S
C698 C697 1.385 . S
C699 C697 1.478 . S
C699 C701 1.381 . S
C699 C705 1.383 . S
C700 C696 1.495 . S
C700 H706 0.959 . S
C700 H707 0.961 . S
C700 H708 0.960 . S
C701 C699 1.381 . S
C701 C702 1.394 1_556 S
C701 H709 0.930 1_556 S
C702 C701 1.394 1_554 S
C702 C703 1.383 1_554 S
C702 H710 0.929 . S
C703 C702 1.383 1_556 S
C703 C704 1.377 . S
C704 H688 0.930 . S
C704 C703 1.377 . S
C704 C705 1.379 . S
C705 H689 0.931 . S
C705 C699 1.383 . S
C705 C704 1.379 . S
H706 C700 0.959 . S
H707 C700 0.961 . S
H708 C700 0.960 . S
H709 C701 0.930 1_554 S
H710 C702 0.929 . S
H711 C719 0.929 . S
H712 C721 0.930 . S
H713 C723 0.930 . S
H714 C726 0.929 . S
H715 C729 0.930 . S
H716 C731 0.960 . S
H717 C731 0.960 . S
H718 C731 0.960 . S
C719 H711 0.929 . S
C719 C720 1.377 . S
C719 C721 1.384 . S
C720 C719 1.377 . S
C720 C726 1.390 . S
C721 H712 0.930 . S
C721 C719 1.384 . S
C721 C722 1.372 . S
C722 C721 1.372 . S
C722 C723 1.400 . S
C722 C727 1.490 . S
C723 H713 0.930 . S
C723 C722 1.400 . S
C723 C726 1.386 . S
H724 C740 0.919 1_554 S
H725 C741 0.931 . S
C726 H714 0.929 . S
C726 C720 1.390 . S
C726 C723 1.386 . S
C727 C722 1.490 . S
C727 C729 1.395 . S
C727 C730 1.403 . S
H728 C734 0.930 . S
C729 H715 0.930 . S
C729 C727 1.395 . S
C729 C732 1.403 . S
C730 C727 1.403 . S
C730 C731 1.524 . S
C730 C734 1.400 . S
C731 H716 0.960 . S
C731 H717 0.960 . S
C731 H718 0.960 . S
C731 C730 1.524 . S
C732 C729 1.403 . S
C732 C733 1.392 . S
C732 C736 1.495 . S
C733 C732 1.392 . S
C733 C734 1.385 . S
C733 C735 1.478 . S
C734 H728 0.930 . S
C734 C730 1.400 . S
C734 C733 1.385 . S
C735 C733 1.478 . S
C735 C737 1.381 . S
C735 C741 1.383 . S
C736 C732 1.495 . S
C736 H742 0.959 . S
C736 H743 0.961 1_556 S
C736 H744 0.960 . S
C737 C735 1.381 . S
C737 C738 1.394 . S
C737 H745 0.930 . S
C738 C737 1.394 . S
C738 C739 1.383 . S
C738 H746 0.929 . S
C739 C738 1.383 . S
C739 C740 1.382 . S
C740 H724 0.919 1_556 S
C740 C739 1.382 . S
C740 C741 1.385 . S
C741 H725 0.931 . S
C741 C735 1.383 . S
C741 C740 1.385 . S
H742 C736 0.959 . S
H743 C736 0.961 1_554 S
H744 C736 0.960 . S
H745 C737 0.930 . S
H746 C738 0.929 . S
H747 C755 0.929 . S
H748 C757 0.930 . S
H749 C759 0.930 . S
H750 C762 0.929 . S
H751 C765 0.930 . S
H752 C767 0.960 . S
H753 C767 0.960 . S
H754 C767 0.960 . S
C755 H747 0.929 . S
C755 C756 1.377 . S
C755 C757 1.384 . S
C756 C755 1.377 . S
C756 C762 1.390 . S
C757 H748 0.930 . S
C757 C755 1.384 . S
C757 C758 1.372 . S
C758 C757 1.372 . S
C758 C759 1.400 . S
C758 C763 1.490 . S
C759 H749 0.930 . S
C759 C758 1.400 . S
C759 C762 1.386 . S
H760 C776 0.930 . S
H761 C777 0.931 . S
C762 H750 0.929 . S
C762 C756 1.390 . S
C762 C759 1.386 . S
C763 C758 1.490 . S
C763 C765 1.395 . S
C763 C766 1.403 . S
H764 C770 0.930 . S
C765 H751 0.930 . S
C765 C763 1.395 . S
C765 C768 1.403 . S
C766 C763 1.403 . S
C766 C767 1.524 . S
C766 C770 1.400 . S
C767 H752 0.960 . S
C767 H753 0.960 . S
C767 H754 0.960 . S
C767 C766 1.524 . S
C768 C765 1.403 . S
C768 C769 1.392 . S
C768 C772 1.495 1_556 S
C769 C768 1.392 . S
C769 C770 1.385 . S
C769 C771 1.478 . S
C770 H764 0.930 . S
C770 C766 1.400 . S
C770 C769 1.385 . S
C771 C769 1.478 . S
C771 C773 1.381 . S
C771 C777 1.383 . S
C772 C768 1.495 1_554 S
C772 H778 0.959 . S
C772 H779 0.961 1_554 S
C772 H780 0.960 . S
C773 C771 1.381 . S
C773 C774 1.394 1_556 S
C773 H781 0.930 1_556 S
C774 C773 1.394 1_554 S
C774 C775 1.383 1_554 S
C774 H782 0.929 . S
C775 C774 1.383 1_556 S
C775 C776 1.377 . S
C776 H760 0.930 . S
C776 C775 1.377 . S
C776 C777 1.379 . S
C777 H761 0.931 . S
C777 C771 1.383 . S
C777 C776 1.379 . S
H778 C772 0.959 . S
H779 C772 0.961 1_556 S
H780 C772 0.960 . S
H781 C773 0.930 1_554 S
H782 C774 0.929 . S
H783 C791 0.929 . S
H784 C793 0.930 . S
H785 C795 0.930 . S
H786 C798 0.929 1_554 S
H787 C801 0.930 . S
H788 C803 0.960 . S
H789 C803 0.960 . S
H790 C803 0.960 . S
C791 H783 0.929 . S
C791 C792 1.377 . S
C791 C793 1.384 . S
C792 C791 1.377 . S
C792 C798 1.390 . S
C793 H784 0.930 . S
C793 C791 1.384 . S
C793 C794 1.372 . S
C794 C793 1.372 . S
C794 C795 1.400 . S
C794 C799 1.490 . S
C795 H785 0.930 . S
C795 C794 1.400 . S
C795 C798 1.386 . S
H796 C812 0.930 . S
H797 C813 0.931 . S
C798 H786 0.929 1_556 S
C798 C792 1.390 . S
C798 C795 1.386 . S
C799 C794 1.490 . S
C799 C801 1.395 . S
C799 C802 1.403 . S
H800 C806 0.930 . S
C801 H787 0.930 . S
C801 C799 1.395 . S
C801 C804 1.403 . S
C802 C799 1.403 . S
C802 C803 1.524 1_556 S
C802 C806 1.400 . S
C803 H788 0.960 . S
C803 H789 0.960 . S
C803 H790 0.960 . S
C803 C802 1.524 1_554 S
C804 C801 1.403 . S
C804 C805 1.392 . S
C804 C808 1.495 . S
C805 C804 1.392 . S
C805 C806 1.385 . S
C805 C807 1.478 . S
C806 H800 0.930 . S
C806 C802 1.400 . S
C806 C805 1.385 . S
C807 C805 1.478 . S
C807 C809 1.381 . S
C807 C813 1.383 . S
C808 C804 1.495 . S
C808 H814 0.959 . S
C808 H815 0.961 . S
C808 H816 0.960 . S
C809 C807 1.381 . S
C809 C810 1.394 . S
C809 H817 0.930 . S
C810 C809 1.394 . S
C810 C811 1.383 . S
C810 H818 0.929 . S
C811 C810 1.383 . S
C811 C812 1.377 . S
C812 H796 0.930 . S
C812 C811 1.377 . S
C812 C813 1.379 . S
C813 H797 0.931 . S
C813 C807 1.383 . S
C813 C812 1.379 . S
H814 C808 0.959 . S
H815 C808 0.961 . S
H816 C808 0.960 . S
H817 C809 0.930 . S
H818 C810 0.929 . S
H819 C827 0.929 . S
H820 C829 0.930 . S
H821 C831 0.930 . S
H822 C834 0.929 . S
H823 C837 0.930 . S
H824 C839 0.960 1_554 S
H825 C839 0.960 . S
H826 C839 0.960 . S
C827 H819 0.929 . S
C827 C828 1.377 . S
C827 C829 1.384 . S
C828 C827 1.377 . S
C828 C834 1.390 . S
C829 H820 0.930 . S
C829 C827 1.384 . S
C829 C830 1.372 . S
C830 C829 1.372 . S
C830 C831 1.400 . S
C830 C835 1.490 . S
C831 H821 0.930 . S
C831 C830 1.400 . S
C831 C834 1.386 . S
H832 C848 0.930 1_554 S
H833 C849 0.931 . S
C834 H822 0.929 . S
C834 C828 1.390 . S
C834 C831 1.386 . S
C835 C830 1.490 . S
C835 C837 1.395 . S
C835 C838 1.403 . S
H836 C842 0.930 . S
C837 H823 0.930 . S
C837 C835 1.395 . S
C837 C840 1.403 . S
C838 C835 1.403 . S
C838 C839 1.524 . S
C838 C842 1.400 . S
C839 H824 0.960 1_556 S
C839 H825 0.960 . S
C839 H826 0.960 . S
C839 C838 1.524 . S
C840 C837 1.403 . S
C840 C841 1.392 . S
C840 C844 1.495 . S
C841 C840 1.392 . S
C841 C842 1.385 . S
C841 C843 1.478 . S
C842 H836 0.930 . S
C842 C838 1.400 . S
C842 C841 1.385 . S
C843 C841 1.478 . S
C843 C845 1.381 . S
C843 C849 1.383 . S
C844 C840 1.495 . S
C844 H850 0.959 . S
C844 H851 0.961 . S
C844 H852 0.960 . S
C845 C843 1.381 . S
C845 C846 1.394 . S
C845 H853 0.930 . S
C846 C845 1.394 . S
C846 C847 1.383 . S
C846 H854 0.929 . S
C847 C846 1.383 . S
C847 C848 1.377 . S
C848 H832 0.930 1_556 S
C848 C847 1.377 . S
C848 C849 1.379 . S
C849 H833 0.931 . S
C849 C843 1.383 . S
C849 C848 1.379 . S
H850 C844 0.959 . S
H851 C844 0.961 . S
H852 C844 0.960 . S
H853 C845 0.930 . S
H854 C846 0.929 . S
H855 C863 0.929 . S
H856 C865 0.930 . S
H857 C867 0.930 . S
H858 C870 0.929 . S
H859 C873 0.930 . S
H860 C875 0.960 . S
H861 C875 0.960 . S
H862 C875 0.960 . S
C863 H855 0.929 . S
C863 C864 1.377 . S
C863 C865 1.384 . S
C864 C863 1.377 . S
C864 C870 1.390 . S
C865 H856 0.930 . S
C865 C863 1.384 . S
C865 C866 1.372 . S
C866 C865 1.372 . S
C866 C867 1.400 . S
C866 C871 1.490 . S
C867 H857 0.930 . S
C867 C866 1.400 . S
C867 C870 1.386 . S
H868 C884 0.930 . S
H869 C885 0.931 . S
C870 H858 0.929 . S
C870 C864 1.390 . S
C870 C867 1.386 . S
C871 C866 1.490 . S
C871 C873 1.395 . S
C871 C874 1.403 . S
H872 C878 0.930 . S
C873 H859 0.930 . S
C873 C871 1.395 . S
C873 C876 1.403 . S
C874 C871 1.403 . S
C874 C875 1.524 . S
C874 C878 1.400 . S
C875 H860 0.960 . S
C875 H861 0.960 . S
C875 H862 0.960 . S
C875 C874 1.524 . S
C876 C873 1.403 . S
C876 C877 1.392 . S
C876 C880 1.495 . S
C877 C876 1.392 . S
C877 C878 1.385 . S
C877 C879 1.478 . S
C878 H872 0.930 . S
C878 C874 1.400 . S
C878 C877 1.385 . S
C879 C877 1.478 . S
C879 C881 1.381 . S
C879 C885 1.383 . S
C880 C876 1.495 . S
C880 H886 0.959 . S
C880 H887 0.961 . S
C880 H888 0.960 . S
C881 C879 1.381 . S
C881 C882 1.394 . S
C881 H889 0.930 . S
C882 C881 1.394 . S
C882 C883 1.383 . S
C882 H890 0.929 . S
C883 C882 1.383 . S
C883 C884 1.377 . S
C884 H868 0.930 . S
C884 C883 1.377 . S
C884 C885 1.379 . S
C885 H869 0.931 . S
C885 C879 1.383 . S
C885 C884 1.379 . S
H886 C880 0.959 . S
H887 C880 0.961 . S
H888 C880 0.960 . S
H889 C881 0.930 . S
H890 C882 0.929 . S
H891 C899 0.929 . S
H892 C901 0.930 . S
H893 C903 0.930 . S
H894 C906 0.929 . S
H895 C909 0.930 . S
H896 C911 0.960 . S
H897 C911 0.960 . S
H898 C911 0.960 . S
C899 H891 0.929 . S
C899 C900 1.377 . S
C899 C901 1.384 . S
C900 C899 1.377 . S
C900 C906 1.390 . S
C901 H892 0.930 . S
C901 C899 1.384 . S
C901 C902 1.372 . S
C902 C901 1.372 . S
C902 C903 1.400 . S
C902 C907 1.490 . S
C903 H893 0.930 . S
C903 C902 1.400 . S
C903 C906 1.386 . S
H904 C920 0.930 . S
H905 C921 0.931 . S
C906 H894 0.929 . S
C906 C900 1.390 . S
C906 C903 1.386 . S
C907 C902 1.490 . S
C907 C909 1.395 . S
C907 C910 1.403 . S
H908 C914 0.930 . S
C909 H895 0.930 . S
C909 C907 1.395 . S
C909 C912 1.403 . S
C910 C907 1.403 . S
C910 C911 1.524 . S
C910 C914 1.400 . S
C911 H896 0.960 . S
C911 H897 0.960 . S
C911 H898 0.960 . S
C911 C910 1.524 . S
C912 C909 1.403 . S
C912 C913 1.392 . S
C912 C916 1.495 . S
C913 C912 1.392 . S
C913 C914 1.385 . S
C913 C915 1.478 . S
C914 H908 0.930 . S
C914 C910 1.400 . S
C914 C913 1.385 . S
C915 C913 1.478 . S
C915 C917 1.381 . S
C915 C921 1.383 . S
C916 C912 1.495 . S
C916 H922 0.959 . S
C916 H923 0.961 . S
C916 H924 0.960 . S
C917 C915 1.381 . S
C917 C918 1.394 . S
C917 H925 0.930 . S
C918 C917 1.394 . S
C918 C919 1.383 . S
C918 H926 0.929 1_554 S
C919 C918 1.383 . S
C919 C920 1.377 . S
C920 H904 0.930 . S
C920 C919 1.377 . S
C920 C921 1.379 . S
C921 H905 0.931 . S
C921 C915 1.383 . S
C921 C920 1.379 . S
H922 C916 0.959 . S
H923 C916 0.961 . S
H924 C916 0.960 . S
H925 C917 0.930 . S
H926 C918 0.929 1_556 S
H927 C935 0.929 1_556 S
H928 C937 0.930 . S
H929 C939 0.930 . S
H930 C942 0.929 . S
H931 C945 0.930 . S
H932 C947 0.960 . S
H933 C947 0.960 . S
H934 C947 0.960 . S
C935 H927 0.929 1_554 S
C935 C936 1.377 . S
C935 C937 1.384 . S
C936 C935 1.377 . S
C936 C942 1.390 . S
C937 H928 0.930 . S
C937 C935 1.384 . S
C937 C938 1.372 . S
C938 C937 1.372 . S
C938 C939 1.400 . S
C938 C943 1.490 . S
C939 H929 0.930 . S
C939 C938 1.400 . S
C939 C942 1.386 . S
H940 C956 0.930 . S
H941 C957 0.931 . S
C942 H930 0.929 . S
C942 C936 1.390 . S
C942 C939 1.386 . S
C943 C938 1.490 . S
C943 C945 1.395 . S
C943 C946 1.403 . S
H944 C950 0.930 . S
C945 H931 0.930 . S
C945 C943 1.395 . S
C945 C948 1.403 . S
C946 C943 1.403 . S
C946 C947 1.524 . S
C946 C950 1.400 . S
C947 H932 0.960 . S
C947 H933 0.960 . S
C947 H934 0.960 . S
C947 C946 1.524 . S
C948 C945 1.403 . S
C948 C949 1.392 . S
C948 C952 1.495 . S
C949 C948 1.392 . S
C949 C950 1.385 . S
C949 C951 1.478 . S
C950 H944 0.930 . S
C950 C946 1.400 . S
C950 C949 1.385 . S
C951 C949 1.478 . S
C951 C953 1.381 . S
C951 C957 1.383 . S
C952 C948 1.495 . S
C952 H958 0.959 . S
C952 H959 0.961 . S
C952 H960 0.960 . S
C953 C951 1.381 . S
C953 C954 1.394 . S
C953 H961 0.930 . S
C954 C953 1.394 . S
C954 C955 1.383 . S
C954 H962 0.929 . S
C955 C954 1.383 . S
C955 C956 1.377 . S
C956 H940 0.930 . S
C956 C955 1.377 . S
C956 C957 1.379 . S
C957 H941 0.931 . S
C957 C951 1.383 . S
C957 C956 1.379 . S
H958 C952 0.959 . S
H959 C952 0.961 . S
H960 C952 0.960 . S
H961 C953 0.930 . S
H962 C954 0.929 . S
H963 C971 0.929 . S
H964 C973 0.930 . S
H965 C975 0.930 . S
H966 C978 0.929 . S
H967 C981 0.930 . S
H968 C983 0.960 . S
H969 C983 0.960 . S
H970 C983 0.960 . S
C971 H963 0.929 . S
C971 C972 1.377 . S
C971 C973 1.384 . S
C972 C971 1.377 . S
C972 C978 1.390 . S
C973 H964 0.930 . S
C973 C971 1.384 . S
C973 C974 1.372 . S
C974 C973 1.372 . S
C974 C975 1.400 . S
C974 C979 1.490 . S
C975 H965 0.930 . S
C975 C974 1.400 . S
C975 C978 1.386 . S
H976 C992 0.930 . S
H977 C993 0.931 . S
C978 H966 0.929 . S
C978 C972 1.390 . S
C978 C975 1.386 . S
C979 C974 1.490 . S
C979 C981 1.395 . S
C979 C982 1.403 . S
H980 C986 0.930 . S
C981 H967 0.930 . S
C981 C979 1.395 . S
C981 C984 1.403 . S
C982 C979 1.403 . S
C982 C983 1.524 . S
C982 C986 1.400 . S
C983 H968 0.960 . S
C983 H969 0.960 . S
C983 H970 0.960 . S
C983 C982 1.524 . S
C984 C981 1.403 . S
C984 C985 1.392 . S
C984 C988 1.495 . S
C985 C984 1.392 . S
C985 C986 1.385 . S
C985 C987 1.478 . S
C986 H980 0.930 . S
C986 C982 1.400 . S
C986 C985 1.385 . S
C987 C985 1.478 . S
C987 C989 1.381 . S
C987 C993 1.383 . S
C988 C984 1.495 . S
C988 H994 0.959 . S
C988 H995 0.961 . S
C988 H996 0.960 . S
C989 C987 1.381 . S
C989 C990 1.394 . S
C989 H997 0.930 . S
C990 C989 1.394 . S
C990 C991 1.383 . S
C990 H998 0.929 . S
C991 C990 1.383 . S
C991 C992 1.377 . S
C992 H976 0.930 . S
C992 C991 1.377 . S
C992 C993 1.379 . S
C993 H977 0.931 . S
C993 C987 1.383 . S
C993 C992 1.379 . S
H994 C988 0.959 . S
H995 C988 0.961 . S
H996 C988 0.960 . S
H997 C989 0.930 . S
H998 C990 0.929 . S
H999 C1007 0.929 . S
H1000 C1009 0.930 . S
H1001 C1011 0.930 . S
H1002 C1014 0.929 . S
H1003 C1017 0.930 . S
H1004 C1019 0.960 . S
H1005 C1019 0.960 . S
H1006 C1019 0.960 . S
C1007 H999 0.929 . S
C1007 C1008 1.377 . S
C1007 C1009 1.384 . S
C1008 C1007 1.377 . S
C1008 C1014 1.390 . S
C1009 H1000 0.930 . S
C1009 C1007 1.384 . S
C1009 C1010 1.372 . S
C1010 C1009 1.372 . S
C1010 C1011 1.400 . S
C1010 C1015 1.490 . S
C1011 H1001 0.930 . S
C1011 C1010 1.400 . S
C1011 C1014 1.386 . S
H1012 C1028 0.930 . S
H1013 C1029 0.931 . S
C1014 H1002 0.929 . S
C1014 C1008 1.390 . S
C1014 C1011 1.386 . S
C1015 C1010 1.490 . S
C1015 C1017 1.395 . S
C1015 C1018 1.403 . S
H1016 C1022 0.930 . S
C1017 H1003 0.930 . S
C1017 C1015 1.395 . S
C1017 C1020 1.403 . S
C1018 C1015 1.403 . S
C1018 C1019 1.524 . S
C1018 C1022 1.400 . S
C1019 H1004 0.960 . S
C1019 H1005 0.960 . S
C1019 H1006 0.960 . S
C1019 C1018 1.524 . S
C1020 C1017 1.403 . S
C1020 C1021 1.392 . S
C1020 C1024 1.495 . S
C1021 C1020 1.392 . S
C1021 C1022 1.385 . S
C1021 C1023 1.478 1_545 S
C1022 H1016 0.930 . S
C1022 C1018 1.400 . S
C1022 C1021 1.385 . S
C1023 C1021 1.478 1_565 S
C1023 C1025 1.381 . S
C1023 C1029 1.383 . S
C1024 C1020 1.495 . S
C1024 H1030 0.959 . S
C1024 H1031 0.961 . S
C1024 H1032 0.960 1_545 S
C1025 C1023 1.381 . S
C1025 C1026 1.394 . S
C1025 H1033 0.930 . S
C1026 C1025 1.394 . S
C1026 C1027 1.383 . S
C1026 H1034 0.929 . S
C1027 C1026 1.383 . S
C1027 C1028 1.377 . S
C1028 H1012 0.930 . S
C1028 C1027 1.377 . S
C1028 C1029 1.379 . S
C1029 H1013 0.931 . S
C1029 C1023 1.383 . S
C1029 C1028 1.379 . S
H1030 C1024 0.959 . S
H1031 C1024 0.961 . S
H1032 C1024 0.960 1_565 S
H1033 C1025 0.930 . S
H1034 C1026 0.929 . S
H1035 C1043 0.929 . S
H1036 C1045 0.930 . S
H1037 C1047 0.930 . S
H1038 C1050 0.929 . S
H1039 C1053 0.930 . S
H1040 C1055 0.960 . S
H1041 C1055 0.960 . S
H1042 C1055 0.960 . S
C1043 H1035 0.929 . S
C1043 C1044 1.377 . S
C1043 C1045 1.384 . S
C1044 C1043 1.377 . S
C1044 C1050 1.390 . S
C1045 H1036 0.930 . S
C1045 C1043 1.384 . S
C1045 C1046 1.372 . S
C1046 C1045 1.372 . S
C1046 C1047 1.400 . S
C1046 C1051 1.490 . S
C1047 H1037 0.930 . S
C1047 C1046 1.400 . S
C1047 C1050 1.386 . S
H1048 C1064 0.930 . S
H1049 C1065 0.931 . S
C1050 H1038 0.929 . S
C1050 C1044 1.390 . S
C1050 C1047 1.386 . S
C1051 C1046 1.490 . S
C1051 C1053 1.395 . S
C1051 C1054 1.403 . S
H1052 C1058 0.930 . S
C1053 H1039 0.930 . S
C1053 C1051 1.395 . S
C1053 C1056 1.403 1_655 S
C1054 C1051 1.403 . S
C1054 C1055 1.524 . S
C1054 C1058 1.400 1_655 S
C1055 H1040 0.960 . S
C1055 H1041 0.960 . S
C1055 H1042 0.960 . S
C1055 C1054 1.524 . S
C1056 C1053 1.403 1_455 S
C1056 C1057 1.392 . S
C1056 C1060 1.495 . S
C1057 C1056 1.392 . S
C1057 C1058 1.385 . S
C1057 C1059 1.478 . S
C1058 H1052 0.930 . S
C1058 C1054 1.400 1_455 S
C1058 C1057 1.385 . S
C1059 C1057 1.478 . S
C1059 C1061 1.381 . S
C1059 C1065 1.383 . S
C1060 C1056 1.495 . S
C1060 H1066 0.959 . S
C1060 H1067 0.961 . S
C1060 H1068 0.960 . S
C1061 C1059 1.381 . S
C1061 C1062 1.394 . S
C1061 H1069 0.930 . S
C1062 C1061 1.394 . S
C1062 C1063 1.383 . S
C1062 H1070 0.929 . S
C1063 C1062 1.383 . S
C1063 C1064 1.377 . S
C1064 H1048 0.930 . S
C1064 C1063 1.377 . S
C1064 C1065 1.379 . S
C1065 H1049 0.931 . S
C1065 C1059 1.383 . S
C1065 C1064 1.379 . S
H1066 C1060 0.959 . S
H1067 C1060 0.961 . S
H1068 C1060 0.960 . S
H1069 C1061 0.930 . S
H1070 C1062 0.929 . S
H1071 C1079 0.929 . S
H1072 C1081 0.930 . S
H1073 C1083 0.930 . S
H1074 C1086 0.929 . S
H1075 C1089 0.930 . S
H1076 C1091 0.960 . S
H1077 C1091 0.960 . S
H1078 C1091 0.960 . S
C1079 H1071 0.929 . S
C1079 C1080 1.377 . S
C1079 C1081 1.384 . S
C1080 C1079 1.377 . S
C1080 C1086 1.390 . S
C1081 H1072 0.930 . S
C1081 C1079 1.384 . S
C1081 C1082 1.372 . S
C1082 C1081 1.372 . S
C1082 C1083 1.400 . S
C1082 C1087 1.490 . S
C1083 H1073 0.930 . S
C1083 C1082 1.400 . S
C1083 C1086 1.386 . S
H1084 C1100 0.930 . S
H1085 C1101 0.931 . S
C1086 H1074 0.929 . S
C1086 C1080 1.390 . S
C1086 C1083 1.386 . S
C1087 C1082 1.490 . S
C1087 C1089 1.395 . S
C1087 C1090 1.403 . S
H1088 C1094 0.930 . S
C1089 H1075 0.930 . S
C1089 C1087 1.395 . S
C1089 C1092 1.403 . S
C1090 C1087 1.403 . S
C1090 C1091 1.524 . S
C1090 C1094 1.400 . S
C1091 H1076 0.960 . S
C1091 H1077 0.960 . S
C1091 H1078 0.960 . S
C1091 C1090 1.524 . S
C1092 C1089 1.403 . S
C1092 C1093 1.392 . S
C1092 C1096 1.495 . S
C1093 C1092 1.392 . S
C1093 C1094 1.385 . S
C1093 C1095 1.478 . S
C1094 H1088 0.930 . S
C1094 C1090 1.400 . S
C1094 C1093 1.385 . S
C1095 C1093 1.478 . S
C1095 C1097 1.381 . S
C1095 C1101 1.383 . S
C1096 C1092 1.495 . S
C1096 H1102 0.959 . S
C1096 H1103 0.961 . S
C1096 H1104 0.960 . S
C1097 C1095 1.381 . S
C1097 C1098 1.394 . S
C1097 H1105 0.930 . S
C1098 C1097 1.394 . S
C1098 C1099 1.383 . S
C1098 H1106 0.929 . S
C1099 C1098 1.383 . S
C1099 C1100 1.377 . S
C1100 H1084 0.930 . S
C1100 C1099 1.377 . S
C1100 C1101 1.379 . S
C1101 H1085 0.931 . S
C1101 C1095 1.383 . S
C1101 C1100 1.379 . S
H1102 C1096 0.959 . S
H1103 C1096 0.961 . S
H1104 C1096 0.960 . S
H1105 C1097 0.930 . S
H1106 C1098 0.929 . S
H1107 C1115 0.929 . S
H1108 C1117 0.930 . S
H1109 C1119 0.930 . S
H1110 C1122 0.929 . S
H1111 C1125 0.930 . S
H1112 C1127 0.960 . S
H1113 C1127 0.960 . S
H1114 C1127 0.960 . S
C1115 H1107 0.929 . S
C1115 C1116 1.377 . S
C1115 C1117 1.384 . S
C1116 C1115 1.377 . S
C1116 C1122 1.390 . S
C1117 H1108 0.930 . S
C1117 C1115 1.384 . S
C1117 C1118 1.372 . S
C1118 C1117 1.372 . S
C1118 C1119 1.400 . S
C1118 C1123 1.490 1_565 S
C1119 H1109 0.930 . S
C1119 C1118 1.400 . S
C1119 C1122 1.386 . S
H1120 C1136 0.930 . S
H1121 C1137 0.931 . S
C1122 H1110 0.929 . S
C1122 C1116 1.390 . S
C1122 C1119 1.386 . S
C1123 C1118 1.490 1_545 S
C1123 C1125 1.395 . S
C1123 C1126 1.403 . S
H1124 C1130 0.930 . S
C1125 H1111 0.930 . S
C1125 C1123 1.395 . S
C1125 C1128 1.403 . S
C1126 C1123 1.403 . S
C1126 C1127 1.524 . S
C1126 C1130 1.400 . S
C1127 H1112 0.960 . S
C1127 H1113 0.960 . S
C1127 H1114 0.960 . S
C1127 C1126 1.524 . S
C1128 C1125 1.403 . S
C1128 C1129 1.392 . S
C1128 C1132 1.495 . S
C1129 C1128 1.392 . S
C1129 C1130 1.385 . S
C1129 C1131 1.478 . S
C1130 H1124 0.930 . S
C1130 C1126 1.400 . S
C1130 C1129 1.385 . S
C1131 C1129 1.478 . S
C1131 C1133 1.381 . S
C1131 C1137 1.383 . S
C1132 C1128 1.495 . S
C1132 H1138 0.959 . S
C1132 H1139 0.961 . S
C1132 H1140 0.960 . S
C1133 C1131 1.381 . S
C1133 C1134 1.394 . S
C1133 H1141 0.930 . S
C1134 C1133 1.394 . S
C1134 C1135 1.383 . S
C1134 H1142 0.929 . S
C1135 C1134 1.383 . S
C1135 C1136 1.377 . S
C1136 H1120 0.930 . S
C1136 C1135 1.377 . S
C1136 C1137 1.379 . S
C1137 H1121 0.931 . S
C1137 C1131 1.383 . S
C1137 C1136 1.379 . S
H1138 C1132 0.959 . S
H1139 C1132 0.961 . S
H1140 C1132 0.960 . S
H1141 C1133 0.930 . S
H1142 C1134 0.929 . S
H1143 C1151 0.929 . S
H1144 C1153 0.930 . S
H1145 C1155 0.930 . S
H1146 C1158 0.929 . S
H1147 C1161 0.930 . S
H1148 C1163 0.960 1_455 S
H1149 C1163 0.960 . S
H1150 C1163 0.960 . S
C1151 H1143 0.929 . S
C1151 C1152 1.377 . S
C1151 C1153 1.384 . S
C1152 C1151 1.377 . S
C1152 C1158 1.390 . S
C1153 H1144 0.930 . S
C1153 C1151 1.384 . S
C1153 C1154 1.372 . S
C1154 C1153 1.372 . S
C1154 C1155 1.400 . S
C1154 C1159 1.490 . S
C1155 H1145 0.930 . S
C1155 C1154 1.400 . S
C1155 C1158 1.386 . S
H1156 C1172 0.930 . S
H1157 C1173 0.931 . S
C1158 H1146 0.929 . S
C1158 C1152 1.390 . S
C1158 C1155 1.386 . S
C1159 C1154 1.490 . S
C1159 C1161 1.395 . S
C1159 C1162 1.403 . S
H1160 C1166 0.930 . S
C1161 H1147 0.930 . S
C1161 C1159 1.395 . S
C1161 C1164 1.417 . S
C1162 C1159 1.403 . S
C1162 C1163 1.524 . S
C1162 C1166 1.400 1_655 S
C1163 H1148 0.960 1_655 S
C1163 H1149 0.960 . S
C1163 H1150 0.960 . S
C1163 C1162 1.524 . S
C1164 C1161 1.417 . S
C1164 C1165 1.387 1_655 S
C1164 C1168 1.488 1_655 S
C1165 C1164 1.387 1_455 S
C1165 C1166 1.385 . S
C1165 C1167 1.478 . S
C1166 H1160 0.930 . S
C1166 C1162 1.400 1_455 S
C1166 C1165 1.385 . S
C1167 C1165 1.478 . S
C1167 C1169 1.381 . S
C1167 C1173 1.383 . S
C1168 C1164 1.488 1_455 S
C1168 H1174 0.959 1_455 S
C1168 H1175 0.961 . S
C1168 H1176 0.960 . S
C1169 C1167 1.381 . S
C1169 C1170 1.394 . S
C1169 H1177 0.930 . S
C1170 C1169 1.394 . S
C1170 C1171 1.383 . S
C1170 H1178 0.929 . S
C1171 C1170 1.383 . S
C1171 C1172 1.377 . S
C1172 H1156 0.930 . S
C1172 C1171 1.377 . S
C1172 C1173 1.379 . S
C1173 H1157 0.931 . S
C1173 C1167 1.383 . S
C1173 C1172 1.379 . S
H1174 C1168 0.959 1_655 S
H1175 C1168 0.961 . S
H1176 C1168 0.960 . S
H1177 C1169 0.930 . S
H1178 C1170 0.929 . S
C216 C19 0.778 . S
C235 C20 0.847 . S
C252 C42 0.791 . S
C271 C43 0.770 . S
C288 C65 0.793 . S
C307 C66 0.709 . S
C324 C87 0.824 . S
C343 C90 0.739 . S
C360 C110 0.823 . S
C379 C113 0.806 . S
C396 C133 0.824 . S
C415 C136 0.768 . S
C432 C159 0.768 . S
C451 C156 0.794 . S
C468 C182 0.768 . S
C487 C179 0.795 . S
C504 C205 0.777 . S
C523 C202 0.799 . S
C540 C132 1.383 . S
C559 C16 1.369 . S
C576 C39 1.376 . S
C595 C86 1.392 . S
C612 C62 1.371 . S
C631 C109 1.372 . S
C648 C64 1.098 . S
C667 C157 1.094 . S
C684 C180 1.078 . S
C703 C18 1.115 . S
C720 C203 1.090 . S
C739 C41 1.080 . S
C756 C200 0.827 . S
C775 C17 0.851 . S
C792 C40 0.835 . S
C811 C154 0.850 . S
C828 C177 0.837 . S
C847 C63 0.819 . S
C864 C67 1.034 . S
C883 C89 1.020 . S
C900 C112 1.022 . S
C919 C21 1.059 . S
C936 C44 1.035 . S
C955 C135 0.986 . S
C972 C201 1.219 . S
C991 C88 1.204 . S
C1008 C155 1.216 . S
C1027 C111 1.176 . S
C1044 C178 1.214 . S
C1063 C134 1.195 . S
C1080 C158 0.893 . S
C1099 C131 0.901 . S
C1116 C85 0.920 . S
C1135 C181 0.877 . S
C1152 C204 0.889 . S
C1171 C108 0.919 . S
