# Generated by pormake.
# Topology unr, (4)-cn, num edge types: 1
# Building blocks:
#     Node 0, Type 0, BuildingBlock: KUFVIS_clean_sbu_0, # of connection points: 4
#     Node 1, Type 0, BuildingBlock: KUFVIS_clean_sbu_0, # of connection points: 4
#     Node 2, Type 0, BuildingBlock: KUFVIS_clean_sbu_0, # of connection points: 4
#     Node 3, Type 0, BuildingBlock: KUFVIS_clean_sbu_0, # of connection points: 4
#     Node 4, Type 0, BuildingBlock: KUFVIS_clean_sbu_0, # of connection points: 4
#     Node 5, Type 0, BuildingBlock: KUFVIS_clean_sbu_0, # of connection points: 4
#     Node 6, Type 0, BuildingBlock: KUFVIS_clean_sbu_0, # of connection points: 4
#     Node 7, Type 0, BuildingBlock: KUFVIS_clean_sbu_0, # of connection points: 4
#     Node 8, Type 0, BuildingBlock: KUFVIS_clean_sbu_0, # of connection points: 4
#     Node 9, Type 0, BuildingBlock: KUFVIS_clean_sbu_0, # of connection points: 4
#     Node 10, Type 0, BuildingBlock: KUFVIS_clean_sbu_0, # of connection points: 4
#     Node 11, Type 0, BuildingBlock: KUFVIS_clean_sbu_0, # of connection points: 4
#     Node 12, Type 0, BuildingBlock: KUFVIS_clean_sbu_0, # of connection points: 4
#     Node 13, Type 0, BuildingBlock: KUFVIS_clean_sbu_0, # of connection points: 4
#     Node 14, Type 0, BuildingBlock: KUFVIS_clean_sbu_0, # of connection points: 4
#     Node 15, Type 0, BuildingBlock: KUFVIS_clean_sbu_0, # of connection points: 4
#     Node 16, Type 0, BuildingBlock: KUFVIS_clean_sbu_0, # of connection points: 4
#     Node 17, Type 0, BuildingBlock: KUFVIS_clean_sbu_0, # of connection points: 4
#     Node 18, Type 0, BuildingBlock: KUFVIS_clean_sbu_0, # of connection points: 4
#     Node 19, Type 0, BuildingBlock: KUFVIS_clean_sbu_0, # of connection points: 4
#     Node 20, Type 0, BuildingBlock: KUFVIS_clean_sbu_0, # of connection points: 4
#     Node 21, Type 0, BuildingBlock: KUFVIS_clean_sbu_0, # of connection points: 4
#     Node 22, Type 0, BuildingBlock: KUFVIS_clean_sbu_0, # of connection points: 4
#     Node 23, Type 0, BuildingBlock: KUFVIS_clean_sbu_0, # of connection points: 4
#     Node 24, Type 0, BuildingBlock: KUFVIS_clean_sbu_0, # of connection points: 4
#     Node 25, Type 0, BuildingBlock: KUFVIS_clean_sbu_0, # of connection points: 4
#     Node 26, Type 0, BuildingBlock: KUFVIS_clean_sbu_0, # of connection points: 4
#     Node 27, Type 0, BuildingBlock: KUFVIS_clean_sbu_0, # of connection points: 4
#     Node 28, Type 0, BuildingBlock: KUFVIS_clean_sbu_0, # of connection points: 4
#     Node 29, Type 0, BuildingBlock: KUFVIS_clean_sbu_0, # of connection points: 4
#     Node 30, Type 0, BuildingBlock: KUFVIS_clean_sbu_0, # of connection points: 4
#     Node 31, Type 0, BuildingBlock: KUFVIS_clean_sbu_0, # of connection points: 4
#     Node 32, Type 0, BuildingBlock: KUFVIS_clean_sbu_0, # of connection points: 4
#     Node 33, Type 0, BuildingBlock: KUFVIS_clean_sbu_0, # of connection points: 4
#     Node 34, Type 0, BuildingBlock: KUFVIS_clean_sbu_0, # of connection points: 4
#     Node 35, Type 0, BuildingBlock: KUFVIS_clean_sbu_0, # of connection points: 4
#     Edge 36, Type (0, 0), BuildingBlock: CIFDUS_clean_linker_0, # of connection points: 2
#     Edge 37, Type (0, 0), BuildingBlock: CIFDUS_clean_linker_0, # of connection points: 2
#     Edge 38, Type (0, 0), BuildingBlock: CIFDUS_clean_linker_0, # of connection points: 2
#     Edge 39, Type (0, 0), BuildingBlock: CIFDUS_clean_linker_0, # of connection points: 2
#     Edge 40, Type (0, 0), BuildingBlock: CIFDUS_clean_linker_0, # of connection points: 2
#     Edge 41, Type (0, 0), BuildingBlock: CIFDUS_clean_linker_0, # of connection points: 2
#     Edge 42, Type (0, 0), BuildingBlock: CIFDUS_clean_linker_0, # of connection points: 2
#     Edge 43, Type (0, 0), BuildingBlock: CIFDUS_clean_linker_0, # of connection points: 2
#     Edge 44, Type (0, 0), BuildingBlock: CIFDUS_clean_linker_0, # of connection points: 2
#     Edge 45, Type (0, 0), BuildingBlock: CIFDUS_clean_linker_0, # of connection points: 2
#     Edge 46, Type (0, 0), BuildingBlock: CIFDUS_clean_linker_0, # of connection points: 2
#     Edge 47, Type (0, 0), BuildingBlock: CIFDUS_clean_linker_0, # of connection points: 2
#     Edge 48, Type (0, 0), BuildingBlock: CIFDUS_clean_linker_0, # of connection points: 2
#     Edge 49, Type (0, 0), BuildingBlock: CIFDUS_clean_linker_0, # of connection points: 2
#     Edge 50, Type (0, 0), BuildingBlock: CIFDUS_clean_linker_0, # of connection points: 2
#     Edge 51, Type (0, 0), BuildingBlock: CIFDUS_clean_linker_0, # of connection points: 2
#     Edge 52, Type (0, 0), BuildingBlock: CIFDUS_clean_linker_0, # of connection points: 2
#     Edge 53, Type (0, 0), BuildingBlock: CIFDUS_clean_linker_0, # of connection points: 2
#     Edge 54, Type (0, 0), BuildingBlock: CIFDUS_clean_linker_0, # of connection points: 2
#     Edge 55, Type (0, 0), BuildingBlock: CIFDUS_clean_linker_0, # of connection points: 2
#     Edge 56, Type (0, 0), BuildingBlock: CIFDUS_clean_linker_0, # of connection points: 2
#     Edge 57, Type (0, 0), BuildingBlock: CIFDUS_clean_linker_0, # of connection points: 2
#     Edge 58, Type (0, 0), BuildingBlock: CIFDUS_clean_linker_0, # of connection points: 2
#     Edge 59, Type (0, 0), BuildingBlock: CIFDUS_clean_linker_0, # of connection points: 2
#     Edge 60, Type (0, 0), BuildingBlock: CIFDUS_clean_linker_0, # of connection points: 2
#     Edge 61, Type (0, 0), BuildingBlock: CIFDUS_clean_linker_0, # of connection points: 2
#     Edge 62, Type (0, 0), BuildingBlock: CIFDUS_clean_linker_0, # of connection points: 2
#     Edge 63, Type (0, 0), BuildingBlock: CIFDUS_clean_linker_0, # of connection points: 2
#     Edge 64, Type (0, 0), BuildingBlock: CIFDUS_clean_linker_0, # of connection points: 2
#     Edge 65, Type (0, 0), BuildingBlock: CIFDUS_clean_linker_0, # of connection points: 2
#     Edge 66, Type (0, 0), BuildingBlock: CIFDUS_clean_linker_0, # of connection points: 2
#     Edge 67, Type (0, 0), BuildingBlock: CIFDUS_clean_linker_0, # of connection points: 2
#     Edge 68, Type (0, 0), BuildingBlock: CIFDUS_clean_linker_0, # of connection points: 2
#     Edge 69, Type (0, 0), BuildingBlock: CIFDUS_clean_linker_0, # of connection points: 2
#     Edge 70, Type (0, 0), BuildingBlock: CIFDUS_clean_linker_0, # of connection points: 2
#     Edge 71, Type (0, 0), BuildingBlock: CIFDUS_clean_linker_0, # of connection points: 2
#     Edge 72, Type (0, 0), BuildingBlock: CIFDUS_clean_linker_0, # of connection points: 2
#     Edge 73, Type (0, 0), BuildingBlock: CIFDUS_clean_linker_0, # of connection points: 2
#     Edge 74, Type (0, 0), BuildingBlock: CIFDUS_clean_linker_0, # of connection points: 2
#     Edge 75, Type (0, 0), BuildingBlock: CIFDUS_clean_linker_0, # of connection points: 2
#     Edge 76, Type (0, 0), BuildingBlock: CIFDUS_clean_linker_0, # of connection points: 2
#     Edge 77, Type (0, 0), BuildingBlock: CIFDUS_clean_linker_0, # of connection points: 2
#     Edge 78, Type (0, 0), BuildingBlock: CIFDUS_clean_linker_0, # of connection points: 2
#     Edge 79, Type (0, 0), BuildingBlock: CIFDUS_clean_linker_0, # of connection points: 2
#     Edge 80, Type (0, 0), BuildingBlock: CIFDUS_clean_linker_0, # of connection points: 2
#     Edge 81, Type (0, 0), BuildingBlock: CIFDUS_clean_linker_0, # of connection points: 2
#     Edge 82, Type (0, 0), BuildingBlock: CIFDUS_clean_linker_0, # of connection points: 2
#     Edge 83, Type (0, 0), BuildingBlock: CIFDUS_clean_linker_0, # of connection points: 2
#     Edge 84, Type (0, 0), BuildingBlock: CIFDUS_clean_linker_0, # of connection points: 2
#     Edge 85, Type (0, 0), BuildingBlock: CIFDUS_clean_linker_0, # of connection points: 2
#     Edge 86, Type (0, 0), BuildingBlock: CIFDUS_clean_linker_0, # of connection points: 2
#     Edge 87, Type (0, 0), BuildingBlock: CIFDUS_clean_linker_0, # of connection points: 2
#     Edge 88, Type (0, 0), BuildingBlock: CIFDUS_clean_linker_0, # of connection points: 2
#     Edge 89, Type (0, 0), BuildingBlock: CIFDUS_clean_linker_0, # of connection points: 2
#     Edge 90, Type (0, 0), BuildingBlock: CIFDUS_clean_linker_0, # of connection points: 2
#     Edge 91, Type (0, 0), BuildingBlock: CIFDUS_clean_linker_0, # of connection points: 2
#     Edge 92, Type (0, 0), BuildingBlock: CIFDUS_clean_linker_0, # of connection points: 2
#     Edge 93, Type (0, 0), BuildingBlock: CIFDUS_clean_linker_0, # of connection points: 2
#     Edge 94, Type (0, 0), BuildingBlock: CIFDUS_clean_linker_0, # of connection points: 2
#     Edge 95, Type (0, 0), BuildingBlock: CIFDUS_clean_linker_0, # of connection points: 2
#     Edge 96, Type (0, 0), BuildingBlock: CIFDUS_clean_linker_0, # of connection points: 2
#     Edge 97, Type (0, 0), BuildingBlock: CIFDUS_clean_linker_0, # of connection points: 2
#     Edge 98, Type (0, 0), BuildingBlock: CIFDUS_clean_linker_0, # of connection points: 2
#     Edge 99, Type (0, 0), BuildingBlock: CIFDUS_clean_linker_0, # of connection points: 2
#     Edge 100, Type (0, 0), BuildingBlock: CIFDUS_clean_linker_0, # of connection points: 2
#     Edge 101, Type (0, 0), BuildingBlock: CIFDUS_clean_linker_0, # of connection points: 2
#     Edge 102, Type (0, 0), BuildingBlock: CIFDUS_clean_linker_0, # of connection points: 2
#     Edge 103, Type (0, 0), BuildingBlock: CIFDUS_clean_linker_0, # of connection points: 2
#     Edge 104, Type (0, 0), BuildingBlock: CIFDUS_clean_linker_0, # of connection points: 2
#     Edge 105, Type (0, 0), BuildingBlock: CIFDUS_clean_linker_0, # of connection points: 2
#     Edge 106, Type (0, 0), BuildingBlock: CIFDUS_clean_linker_0, # of connection points: 2
#     Edge 107, Type (0, 0), BuildingBlock: CIFDUS_clean_linker_0, # of connection points: 2
# Relax obj value: 0.384
# Max RMSD: 0.198
# Mean RMSD: 0.193
data_MOF--net-unr--node1-KUFVIS_clean_sbu_0--edge1-CIFDUS_clean_linker_0
_symmetry_space_group_name_H-M    P1
_symmetry_Int_Tables_number       1
_symmetry_cell_setting            triclinic
loop_
_symmetry_equiv_pos_as_xyz
'x, y, z'
_cell_length_a     42.559911
_cell_length_b     42.590614
_cell_length_c     93.509909
_cell_angle_alpha  90.153977
_cell_angle_beta   89.919533
_cell_angle_gamma 120.01506
loop_
_atom_site_label
_atom_site_type_symbol
_atom_site_fract_x
_atom_site_fract_y
_atom_site_fract_z
_atom_type_partial_charge
Mn0 Mn 0.16215 0.07428 0.17959 0.0
Mn1 Mn 0.19591 0.02475 0.19305 0.0
C2 C 0.13358 0.01305 0.17412 0.0
C3 C 0.12685 0.10101 0.18368 0.0
C4 C 0.23272 0.08363 0.17089 0.0
O5 O 0.19583 0.10368 0.19588 0.0
O6 O 0.19941 0.05972 0.20804 0.0
C7 C 0.15313 0.9825 0.21807 0.0
N8 N 0.16409 0.98342 0.20431 0.0
C9 C 0.13487 0.91819 0.20347 0.0
C10 C 0.12248 0.91659 0.21745 0.0
C11 C 0.1321 0.94884 0.22483 0.0
C12 C 0.15654 0.95247 0.19736 0.0
H13 H 0.1607 0.00728 0.22383 0.0
C14 C 0.20113 0.09075 0.20738 0.0
O15 O 0.15311 0.11453 0.17441 0.0
O16 O 0.12068 0.07169 0.19026 0.0
N17 N 0.19138 0.99 0.17879 0.0
C18 C 0.20558 -0.00428 0.16532 0.0
C19 C 0.19823 0.96608 0.15653 0.0
C20 C 0.1764 0.93068 0.16162 0.0
C21 C 0.16215 0.92528 0.17548 0.0
C22 C 0.17036 0.95593 0.18377 0.0
H23 H 0.22235 0.02253 0.16118 0.0
O24 O 0.12803 0.03491 0.16622 0.0
O25 O 0.15554 0.0281 0.18478 0.0
O26 O 0.20529 0.08559 0.16686 0.0
O27 O 0.2322 0.06568 0.18184 0.0
C28 C 0.13991 0.8906 0.18134 0.0
C29 C 0.12644 0.88705 0.19536 0.0
H30 H 0.10591 0.89076 0.2227 0.0
H31 H 0.12357 0.94742 0.23575 0.0
H32 H 0.20939 0.97054 0.14583 0.0
H33 H 0.17074 0.90786 0.15479 0.0
H34 H 0.13308 0.86646 0.17516 0.0
H35 H 0.10949 0.86024 0.19979 0.0
Mn36 Mn 0.90766 0.10136 0.20903 0.0
Mn37 Mn 0.95715 0.17416 0.22963 0.0
C38 C 0.96972 0.13387 0.20623 0.0
C39 C 0.88103 0.03997 0.20506 0.0
C40 C 0.9113 0.17311 0.20479 0.0
O41 O 0.87357 0.09518 0.22519 0.0
O42 O 0.91067 0.14118 0.23977 0.0
C43 C 0.97269 0.13949 0.25381 0.0
N44 N 0.9848 0.16419 0.24301 0.0
C45 C 0.04697 0.18295 0.24837 0.0
C46 C 0.03514 0.15795 0.2596 0.0
C47 C -0.00212 0.13604 0.26232 0.0
C48 C 0.02062 0.18524 0.24026 0.0
H49 H 0.94405 0.12227 0.25582 0.0
C50 C 0.88026 0.11251 0.23697 0.0
O51 O 0.86908 0.05883 0.19855 0.0
O52 O 0.90684 0.05655 0.21435 0.0
N53 N 0.00276 0.20687 0.22093 0.0
C54 C 0.00944 0.22724 0.20889 0.0
C55 C 0.04538 0.24942 0.20429 0.0
C56 C 0.07404 0.25044 0.2121 0.0
C57 C 0.06649 0.22921 0.22444 0.0
C58 C 0.03015 0.2078 0.22856 0.0
H59 H 0.98755 0.22643 0.20279 0.0
O60 O 0.94898 0.11384 0.1959 0.0
O61 O 0.95304 0.13439 0.21782 0.0
O62 O 0.90154 0.14117 0.20067 0.0
O63 O 0.93054 0.18765 0.21592 0.0
C64 C 0.09355 0.22801 0.23268 0.0
C65 C 0.0838 0.20497 0.24467 0.0
H66 H 0.05445 0.15496 0.266 0.0
H67 H 0.98857 0.11629 0.27083 0.0
H68 H 0.05096 0.2656 0.19472 0.0
H69 H 0.10171 0.26741 0.20847 0.0
H70 H 0.1219 0.24439 0.2298 0.0
H71 H 0.10483 0.2041 0.25087 0.0
Mn72 Mn 0.89193 0.81588 0.1802 0.0
Mn73 Mn 0.83931 0.80543 0.20866 0.0
C74 C 0.87013 0.85521 0.18387 0.0
C75 C 0.95058 0.84093 0.17186 0.0
C76 C 0.81341 0.75741 0.18237 0.0
O77 O 0.90089 0.78324 0.19342 0.0
O78 O 0.87187 0.78603 0.21312 0.0
C79 C 0.89717 0.85566 0.22843 0.0
N80 N 0.86529 0.84533 0.2215 0.0
C81 C 0.86299 0.89698 0.23068 0.0
C82 C 0.89591 0.90826 0.23781 0.0
C83 C 0.91295 0.88739 0.23675 0.0
C84 C 0.84861 0.86518 0.22248 0.0
H85 H 0.91083 0.84017 0.22745 0.0
C86 C 0.89425 0.77878 0.20681 0.0
O87 O 0.92452 0.81352 0.16512 0.0
O88 O 0.94211 0.85349 0.1829 0.0
N89 N 0.80805 0.82512 0.20561 0.0
C90 C 0.7788 0.81298 0.19678 0.0
C91 C 0.75902 0.83126 0.19643 0.0
C92 C 0.7695 0.86182 0.20515 0.0
C93 C 0.79966 0.87381 0.21417 0.0
C94 C 0.81805 0.85422 0.21421 0.0
H95 H 0.77057 0.78955 0.19003 0.0
O96 O 0.88123 0.85241 0.17125 0.0
O97 O 0.87169 0.83438 0.19349 0.0
O98 O 0.84216 0.77501 0.17493 0.0
O99 O 0.8105 0.76432 0.19549 0.0
C100 C 0.81286 0.90511 0.22276 0.0
C101 C 0.84464 0.91683 0.23093 0.0
H102 H 0.9084 0.93296 0.2441 0.0
H103 H 0.93837 0.89593 0.24222 0.0
H104 H 0.73584 0.82192 0.1894 0.0
H105 H 0.75446 0.87613 0.2047 0.0
H106 H 0.79936 0.92095 0.22286 0.0
H107 H 0.85518 0.9416 0.23712 0.0
Mn108 Mn 0.12387 0.13857 0.30736 0.0
Mn109 Mn 0.0493 0.12112 0.28863 0.0
C110 C 0.06956 0.11976 0.31902 0.0
C111 C 0.16147 0.11727 0.3152 0.0
C112 C 0.10729 0.19636 0.29624 0.0
O113 O 0.13824 0.13479 0.2871 0.0
O114 O 0.08848 0.12637 0.27558 0.0
C115 C 0.03179 0.04856 0.27825 0.0
N116 N 0.02203 0.06996 0.28563 0.0
C117 C 0.96105 0.02054 0.28857 0.0
C118 C 0.97033 -0.00186 0.28078 0.0
C119 C 0.00597 0.01206 0.27579 0.0
C120 C 0.98817 0.05652 0.29093 0.0
H121 H 0.0589 0.05938 0.27405 0.0
C122 C 0.12061 0.13125 0.27569 0.0
O123 O 0.17428 0.1519 0.31352 0.0
O124 O 0.12711 0.0961 0.31305 0.0
N125 N 0.00848 0.11496 0.29947 0.0
C126 C 0.00304 0.14109 0.30541 0.0
C127 C 0.96861 0.13182 0.31071 0.0
C128 C 0.9399 0.09598 0.30952 0.0
C129 C 0.94584 0.0697 0.30303 0.0
C130 C 0.98089 0.08041 0.29816 0.0
H131 H 0.0248 0.16878 0.30609 0.0
O132 O 0.09994 0.1367 0.32601 0.0
O133 O 0.07216 0.11419 0.30551 0.0
O134 O 0.12871 0.1875 0.30227 0.0
O135 O 0.07576 0.17377 0.29155 0.0
C136 C 0.91807 0.03367 0.30072 0.0
C137 C 0.92572 0.00901 0.29361 0.0
H138 H 0.95027 0.97046 0.27828 0.0
H139 H 0.01328 -0.0051 0.26977 0.0
H140 H 0.96414 0.15231 0.31561 0.0
H141 H 0.91343 0.08902 0.3136 0.0
H142 H 0.89054 0.02491 0.30405 0.0
H143 H 0.90405 0.9815 0.29181 0.0
Mn144 Mn 0.81469 0.96137 0.32973 0.0
Mn145 Mn 0.76932 0.90981 0.3015 0.0
C146 C 0.81224 0.90619 0.32615 0.0
C147 C 0.87047 0.00563 0.33827 0.0
C148 C 0.73338 0.92041 0.3277 0.0
O149 O 0.81051 -0.00313 0.31645 0.0
O150 O 0.78573 0.96127 0.29703 0.0
C151 C 0.82716 0.93532 0.27959 0.0
N152 N 0.80181 0.90802 0.28783 0.0
C153 C 0.81813 0.86564 0.27826 0.0
C154 C 0.84454 0.89332 0.26978 0.0
C155 C 0.84905 0.92829 0.2704 0.0
C156 C 0.79692 0.87414 0.28713 0.0
H157 H 0.83108 0.96237 0.2802 0.0
C158 C 0.79997 0.99207 0.30343 0.0
O159 O 0.84103 0.00021 0.3447 0.0
O160 O 0.86688 0.98666 0.32699 0.0
N161 N 0.75345 0.8597 0.30487 0.0
C162 C 0.7282 0.83649 0.31433 0.0
C163 C 0.72124 0.80069 0.31532 0.0
C164 C 0.74031 0.78908 0.30655 0.0
C165 C 0.76601 0.81337 0.29682 0.0
C166 C 0.77153 0.84864 0.29622 0.0
H167 H 0.71352 0.84522 0.32109 0.0
O168 O 0.81793 0.92047 0.33883 0.0
O169 O 0.80581 0.92389 0.31639 0.0
O170 O 0.76152 0.93859 0.33539 0.0
O171 O 0.73388 0.90956 0.31501 0.0
C172 C 0.78679 0.80412 0.28785 0.0
C173 C 0.81286 0.83026 0.27858 0.0
H174 H 0.86208 0.88807 0.26308 0.0
H175 H 0.86976 0.94991 0.26402 0.0
H176 H 0.70132 0.78213 0.32286 0.0
H177 H 0.73508 0.76152 0.30742 0.0
H178 H 0.78319 0.77709 0.2881 0.0
H179 H 0.82902 0.82299 0.27186 0.0
Mn180 Mn 0.0301 0.87845 0.30204 0.0
Mn181 Mn 0.09927 0.90096 0.27931 0.0
C182 C 0.08457 0.93043 0.3068 0.0
C183 C 0.97619 0.87893 0.3054 0.0
C184 C 0.07645 0.84319 0.30232 0.0
O185 O 0.00743 0.84502 0.28524 0.0
O186 O 0.05254 0.86833 0.26922 0.0
C187 C 0.08364 0.94675 0.26021 0.0
N188 N 0.1078 0.94138 0.26781 0.0
C189 C 0.15735 -0.00052 0.26086 0.0
C190 C 0.13317 0.00555 0.25276 0.0
C191 C 0.09604 0.97931 0.25262 0.0
C192 C 0.14324 0.96706 0.26854 0.0
H193 H 0.05517 0.92643 0.26008 0.0
C194 C 0.01962 0.84618 0.27275 0.0
O195 O 0.98142 0.85481 0.31179 0.0
O196 O 0.00247 0.90276 0.29764 0.0
N197 N 0.14659 0.93217 0.28693 0.0
C198 C 0.16391 0.92628 0.29794 0.0
C199 C 0.20033 0.95182 0.30082 0.0
C200 C 0.21862 0.98297 0.29229 0.0
C201 C 0.20014 0.98853 0.28106 0.0
C202 C 0.16393 0.96203 0.27864 0.0
H203 H 0.15001 0.90238 0.30452 0.0
O204 O 0.05929 0.91588 0.31642 0.0
O205 O 0.07605 0.91527 0.29414 0.0
O206 O 0.05232 0.84794 0.30849 0.0
O207 O 0.09325 0.85994 0.29098 0.0
C208 C 0.21586 0.01981 0.27246 0.0
C209 C 0.19449 0.02516 0.26231 0.0
H210 H 0.14266 0.03056 0.24686 0.0
H211 H 0.07713 0.98399 0.24655 0.0
H212 H 0.21431 0.94749 0.30959 0.0
H213 H 0.24663 0.00275 0.29461 0.0
H214 H 0.244 0.04052 0.27389 0.0
H215 H 0.20661 0.0497 0.25607 0.0
Mn216 Mn 0.84174 0.85066 0.81869 0.0
Mn217 Mn 0.89899 0.86852 0.79137 0.0
C218 C 0.88527 0.90991 0.8147 0.0
C219 C 0.78649 0.84101 0.82672 0.0
C220 C 0.9044 0.83583 0.81946 0.0
O221 O 0.81711 0.80469 0.80665 0.0
O222 O 0.85207 0.8241 0.78696 0.0
C223 C 0.86281 0.88352 0.76754 0.0
N224 N 0.89217 0.89435 0.77619 0.0
C225 C 0.92643 0.94973 0.763 0.0
C226 C 0.89656 0.93925 0.75403 0.0
C227 C 0.86463 0.90594 0.75624 0.0
C228 C 0.92323 0.92602 0.77393 0.0
H229 H 0.83833 0.85782 0.76914 0.0
C230 C 0.82297 0.80154 0.79352 0.0
O231 O 0.80412 0.82828 0.83368 0.0
O232 O 0.80055 0.85849 0.81498 0.0
N233 N 0.94427 0.91189 0.79437 0.0
C234 C 0.96736 0.92116 0.80563 0.0
C235 C -0.00027 0.9543 0.80557 0.0
C236 C 0.00784 0.9783 0.79409 0.0
C237 C 0.98287 0.969 0.78288 0.0
C238 C 0.95094 0.93528 0.78354 0.0
H239 H 0.96119 0.90336 0.81458 0.0
O240 O 0.86928 0.89971 0.827 0.0
O241 O 0.87462 0.8849 0.80482 0.0
O242 O 0.88038 0.83944 0.82622 0.0
O243 O 0.91026 0.84229 0.80611 0.0
C244 C 0.98744 0.9925 0.77149 0.0
C245 C 0.95915 0.98291 0.76158 0.0
H246 H 0.89833 0.95654 0.74533 0.0
H247 H 0.84163 0.89726 0.74921 0.0
H248 H 0.01785 0.96102 0.81451 0.0
H249 H 0.03252 0.00427 0.79429 0.0
H250 H 0.01202 0.01845 0.77049 0.0
H251 H 0.96248 0.00165 0.75311 0.0
Mn252 Mn 0.16709 0.93559 0.82071 0.0
Mn253 Mn 0.11559 0.91547 0.79103 0.0
C254 C 0.10541 0.89336 0.82211 0.0
C255 C 0.20564 0.92747 0.83524 0.0
C256 C 0.13417 0.98008 0.80938 0.0
O257 O 0.20602 0.95908 0.8054 0.0
O258 O 0.16759 0.94785 0.78731 0.0
C259 C 0.14625 0.87213 0.77896 0.0
N260 N 0.11683 0.87505 0.78267 0.0
C261 C 0.076 0.81485 0.77404 0.0
C262 C 0.10582 0.81131 0.77003 0.0
C263 C 0.14112 0.84004 0.77256 0.0
C264 C 0.08283 0.84734 0.78055 0.0
H265 H 0.17346 0.89407 0.78086 0.0
C266 C 0.19955 0.96237 0.79242 0.0
O267 O 0.20492 0.95754 0.83584 0.0
O268 O 0.1846 0.90283 0.82614 0.0
N269 N 0.06414 0.88424 0.79174 0.0
C270 C 0.03832 0.89295 0.79518 0.0
C271 C 0.00161 0.8674 0.79278 0.0
C272 C 0.99178 0.83366 0.78667 0.0
C273 C 0.01877 0.826 0.78253 0.0
C274 C 0.05495 0.85252 0.78502 0.0
H275 H 0.04579 0.91913 0.79971 0.0
O276 O 0.12428 0.90912 0.8334 0.0
O277 O 0.12357 0.90102 0.81007 0.0
O278 O 0.15549 0.97587 0.81767 0.0
O279 O 0.11422 0.95736 0.79969 0.0
C280 C 0.01114 0.79312 0.77597 0.0
C281 C 0.03976 0.78745 0.77181 0.0
H282 H 0.10194 0.78667 0.76501 0.0
H283 H 0.16432 0.83751 0.76955 0.0
H284 H 0.98064 0.87315 0.79569 0.0
H285 H 0.9634 0.81371 0.78536 0.0
H286 H 0.98336 0.77208 0.77403 0.0
H287 H 0.03362 0.76206 0.76678 0.0
Mn288 Mn 0.06898 0.17826 0.8146 0.0
Mn289 Mn 0.09379 0.15385 0.78418 0.0
C290 C 0.09178 0.1398 0.81612 0.0
C291 C 0.08222 0.22041 0.83229 0.0
C292 C 0.01693 0.11477 0.79525 0.0
O293 O 0.06724 0.21261 0.8002 0.0
O294 O 0.08202 0.19261 0.78072 0.0
C295 C 0.1626 0.22412 0.78337 0.0
N296 N 0.1448 0.1872 0.78294 0.0
C297 C 0.2011 0.18695 0.78134 0.0
C298 C 0.22003 0.22496 0.78166 0.0
C299 C 0.20068 0.24362 0.78275 0.0
C300 C 0.1632 0.16902 0.78233 0.0
H301 H 0.14788 0.23858 0.78424 0.0
C302 C 0.07281 0.21349 0.78688 0.0
O303 O 0.04867 0.1974 0.82908 0.0
O304 O 0.10751 0.2186 0.82522 0.0
N305 N 0.1067 0.11682 0.78436 0.0
C306 C 0.08413 0.08046 0.7827 0.0
C307 C 0.09878 0.05802 0.77967 0.0
C308 C 0.13647 0.07315 0.77836 0.0
C309 C 0.15915 0.11069 0.77982 0.0
C310 C 0.14289 0.13178 0.78236 0.0
H311 H 0.05512 0.06887 0.78341 0.0
O312 O 0.07491 0.14405 0.82681 0.0
O313 O 0.09776 0.1608 0.80505 0.0
O314 O 0.02306 0.13627 0.80584 0.0
O315 O 0.04115 0.11823 0.78616 0.0
C316 C 0.1972 0.12808 0.77863 0.0
C317 C 0.21824 0.16617 0.77967 0.0
H318 H 0.24936 0.24009 0.78095 0.0
H319 H 0.21507 0.27295 0.78302 0.0
H320 H 0.08116 0.02917 0.77818 0.0
H321 H 0.14768 0.05573 0.77613 0.0
H322 H 0.21055 0.11243 0.77692 0.0
H323 H 0.24748 0.17925 0.77874 0.0
Mn324 Mn 0.83287 0.81267 0.69618 0.0
Mn325 Mn 0.86448 0.86487 0.72563 0.0
C326 C 0.89394 0.85413 0.69776 0.0
C327 C 0.81708 0.75872 0.68484 0.0
C328 C 0.82966 0.8823 0.70112 0.0
O329 O 0.7911 0.786 0.7101 0.0
O330 O 0.81414 0.82461 0.72849 0.0
C331 C 0.86544 0.80837 0.74367 0.0
N332 N 0.88273 0.84259 0.73829 0.0
C333 C 0.93548 0.85862 0.75261 0.0
C334 C 0.91787 0.82374 0.75851 0.0
C335 C 0.88276 0.79838 0.75394 0.0
C336 C 0.91682 0.8668 0.74232 0.0
H337 H 0.8388 0.78887 0.74007 0.0
C338 C 0.78889 0.7958 0.7227 0.0
O339 O 0.80349 0.77856 0.68067 0.0
O340 O 0.83932 0.77023 0.69556 0.0
N341 N 0.91309 0.90486 0.72542 0.0
C342 C 0.92708 0.93661 0.71808 0.0
C343 C 0.96228 0.96472 0.72125 0.0
C344 C 0.98245 0.95987 0.73203 0.0
C345 C 0.96779 0.92694 0.73928 0.0
C346 C 0.93271 0.89994 0.73565 0.0
H347 H 0.91184 0.93994 0.7096 0.0
O348 O 0.87874 0.84108 0.68552 0.0
O349 O 0.87309 0.84163 0.70905 0.0
O350 O 0.82146 0.85412 0.69358 0.0
O351 O 0.84662 0.8895 0.71303 0.0
C352 C 0.98684 0.91985 0.74992 0.0
C353 C 0.97079 0.88555 0.75649 0.0
H354 H 0.93112 0.81595 0.76641 0.0
H355 H 0.86908 0.77124 0.75832 0.0
H356 H 0.9739 0.98976 0.71528 0.0
H357 H 0.0094 0.98107 0.73469 0.0
H358 H 0.01404 0.94041 0.75297 0.0
H359 H 0.98591 0.88017 0.76444 0.0
Mn360 Mn 0.16204 0.06893 0.70281 0.0
Mn361 Mn 0.12499 0.07158 0.73423 0.0
C362 C 0.12664 0.09552 0.7035 0.0
C363 C 0.21257 0.09352 0.6886 0.0
C364 C 0.09447 0.00467 0.71521 0.0
O365 O 0.18779 0.05414 0.7172 0.0
O366 O 0.16723 0.06471 0.73766 0.0
C367 C 0.18753 0.14272 0.7419 0.0
N368 N 0.15098 0.12032 0.74105 0.0
C369 C 0.13992 0.16843 0.74782 0.0
C370 C 0.17746 0.19211 0.7487 0.0
C371 C 0.20138 0.1792 0.74572 0.0
C372 C 0.12782 0.13269 0.74357 0.0
H373 H 0.20591 0.13294 0.73935 0.0
C374 C 0.18797 0.05644 0.73073 0.0
O375 O 0.18786 0.05956 0.68733 0.0
O376 O 0.20776 0.11309 0.69803 0.0
N377 N 0.08382 0.07832 0.73368 0.0
C378 C 0.04929 0.05454 0.72952 0.0
C379 C 0.02134 0.06199 0.73266 0.0
C380 C 0.02948 0.09449 0.73957 0.0
C381 C 0.06558 0.11948 0.74307 0.0
C382 C 0.09187 0.10959 0.7404 0.0
H383 H 0.04362 0.03081 0.72344 0.0
O384 O 0.13473 0.08661 0.69135 0.0
O385 O 0.14115 0.09028 0.71485 0.0
O386 O 0.11645 0.01959 0.70482 0.0
O387 O 0.09608 0.02067 0.72707 0.0
C388 C 0.0768 0.15442 0.74847 0.0
C389 C 0.11409 0.17922 0.75047 0.0
H390 H 0.18823 0.22029 0.7516 0.0
H391 H 0.2304 0.19734 0.74635 0.0
H392 H -0.00626 0.0433 0.72944 0.0
H393 H 0.00806 0.10066 0.74157 0.0
H394 H 0.05718 0.16304 0.7505 0.0
H395 H 0.1227 0.20661 0.75392 0.0
Mn396 Mn 0.89819 0.13622 0.70897 0.0
Mn397 Mn 0.89393 0.0821 0.73608 0.0
C398 C 0.86022 0.07436 0.70662 0.0
C399 C 0.88123 0.1744 0.69892 0.0
C400 C 0.95302 0.11126 0.71359 0.0
O401 O 0.92438 0.17226 0.72487 0.0
O402 O 0.91702 0.13333 0.74234 0.0
C403 C 0.84167 0.09178 0.75384 0.0
N404 N 0.85146 0.06953 0.74713 0.0
C405 C 0.79948 0.01643 0.75655 0.0
C406 C 0.78896 0.03875 0.76366 0.0
C407 C 0.81005 0.07659 0.76222 0.0
C408 C 0.83102 0.03314 0.74823 0.0
H409 H 0.85791 0.12086 0.75282 0.0
C410 C 0.92788 0.16529 0.73772 0.0
O411 O 0.91212 0.17689 0.69581 0.0
O412 O 0.8605 0.15016 0.7082 0.0
N413 N 0.8726 0.03143 0.73254 0.0
C414 C 0.88694 0.01384 0.72526 0.0
C415 C 0.86875 0.97593 0.7254 0.0
C416 C 0.83715 0.95641 0.73358 0.0
C417 C 0.82376 0.9751 0.74149 0.0
C418 C 0.84259 0.01298 0.74071 0.0
H419 H 0.91174 0.02857 0.71925 0.0
O420 O 0.86957 0.09559 0.69563 0.0
O421 O 0.87132 0.09021 0.71911 0.0
O422 O 0.94166 0.12893 0.70641 0.0
O423 O 0.93776 0.09315 0.72489 0.0
C424 C 0.79217 0.95762 0.74993 0.0
C425 C 0.77994 0.97828 0.75742 0.0
H426 H 0.76473 0.02713 0.77021 0.0
H427 H 0.80207 0.094 0.76763 0.0
H428 H 0.87889 0.96176 0.71913 0.0
H429 H 0.823 0.92708 0.73347 0.0
H430 H 0.77699 0.92831 0.75067 0.0
H431 H 0.75551 0.96457 0.76382 0.0
Mn432 Mn 0.85197 0.47882 0.51204 0.0
Mn433 Mn 0.86616 0.42171 0.53179 0.0
C434 C 0.83332 0.42087 0.50327 0.0
C435 C 0.81076 0.49935 0.50961 0.0
C436 C 0.92493 0.48403 0.51477 0.0
O437 O 0.86519 0.50272 0.53156 0.0
O438 O 0.86337 0.45758 0.54455 0.0
C439 C 0.79433 0.38617 0.54592 0.0
N440 N 0.82004 0.38359 0.53815 0.0
C441 C 0.78134 0.31911 0.53547 0.0
C442 C 0.75445 0.32106 0.54345 0.0
C443 C 0.76099 0.35475 0.5487 0.0
C444 C 0.81375 0.35143 0.53282 0.0
H445 H 0.79906 0.41208 0.54981 0.0
C446 C 0.86513 0.48836 0.54346 0.0
O447 O 0.84376 0.51924 0.50484 0.0
O448 O 0.80242 0.46838 0.51497 0.0
N449 N 0.86883 0.38487 0.52095 0.0
C450 C 0.89636 0.38794 0.51252 0.0
C451 C 0.89424 0.35668 0.50652 0.0
C452 C 0.86411 0.32249 0.50943 0.0
C453 C 0.83635 0.31989 0.51833 0.0
C454 C 0.84005 0.352 0.52405 0.0
H455 H 0.92001 0.41392 0.51054 0.0
O456 O 0.83629 0.44627 0.49479 0.0
O457 O 0.84169 0.43116 0.51643 0.0
O458 O 0.90482 0.49387 0.50822 0.0
O459 O 0.91392 0.46002 0.52467 0.0
C460 C 0.8048 0.28677 0.5215 0.0
C461 C 0.77703 0.28644 0.52986 0.0
H462 H 0.72874 0.29686 0.54565 0.0
H463 H 0.74035 0.35649 0.55485 0.0
H464 H 0.9159 0.35893 0.49974 0.0
H465 H 0.86246 0.29846 0.50472 0.0
H466 H 0.80115 0.26151 0.5172 0.0
H467 H 0.75239 0.26095 0.53184 0.0
Mn468 Mn 0.55179 0.40276 0.51906 0.0
Mn469 Mn 0.58025 0.47097 0.54265 0.0
C470 C 0.61135 0.44992 0.51816 0.0
C471 C 0.54443 0.34571 0.51492 0.0
C472 C 0.53311 0.46222 0.51698 0.0
O473 O 0.51269 0.38266 0.53428 0.0
O474 O 0.53732 0.42723 0.55071 0.0
C475 C 0.60513 0.43876 0.56442 0.0
N476 N 0.61195 0.46758 0.55606 0.0
C477 C 0.675 0.49885 0.56256 0.0
C478 C 0.66859 0.46962 0.57133 0.0
C479 C 0.63354 0.4393 0.57212 0.0
C480 C 0.64565 0.49673 0.55499 0.0
H481 H 0.57857 0.41482 0.56471 0.0
C482 C 0.51291 0.39549 0.54663 0.0
O483 O 0.52556 0.35647 0.50759 0.0
O484 O 0.56627 0.36773 0.52446 0.0
N485 N 0.62217 0.51435 0.53619 0.0
C486 C 0.62543 0.5359 0.52488 0.0
C487 C 0.65938 0.56604 0.5217 0.0
C488 C 0.68975 0.57339 0.53001 0.0
C489 C 0.68584 0.55059 0.54148 0.0
C490 C 0.65107 0.52162 0.54446 0.0
H491 H 0.60246 0.52984 0.51819 0.0
O492 O 0.59677 0.42927 0.50709 0.0
O493 O 0.59015 0.44213 0.5292 0.0
O494 O 0.53239 0.43447 0.51138 0.0
O495 O 0.54869 0.47649 0.52884 0.0
C496 C 0.71542 0.55427 0.54953 0.0
C497 C 0.70997 0.52817 0.55994 0.0
H498 H 0.69081 0.4694 0.57684 0.0
H499 H 0.62854 0.41564 0.57809 0.0
H500 H 0.66226 0.5832 0.5127 0.0
H501 H 0.7161 0.59609 0.52728 0.0
H502 H 0.74269 0.57605 0.54734 0.0
H503 H 0.73304 0.52967 0.5653 0.0
Mn504 Mn 0.6326 0.16878 0.50842 0.0
Mn505 Mn 0.57057 0.13833 0.53462 0.0
C506 C 0.58965 0.18694 0.5095 0.0
C507 C 0.68831 0.2161 0.5013 0.0
C508 C 0.56815 0.09309 0.50907 0.0
O509 O 0.65423 0.14993 0.52298 0.0
O510 O 0.61448 0.13697 0.54114 0.0
C511 C 0.60904 0.19626 0.55618 0.0
N512 N 0.58012 0.17745 0.54732 0.0
C513 C 0.55702 0.21745 0.55272 0.0
C514 C 0.58647 0.23714 0.56194 0.0
C515 C 0.61239 0.22627 0.56379 0.0
C516 C 0.55429 0.18689 0.54587 0.0
H517 H 0.62964 0.1887 0.55731 0.0
C518 C 0.64421 0.1409 0.53591 0.0
O519 O 0.67478 0.18506 0.49468 0.0
O520 O 0.67108 0.21779 0.51233 0.0
N521 N 0.52806 0.14014 0.52917 0.0
C522 C 0.5026 0.11995 0.51914 0.0
C523 C 0.47457 0.12721 0.51613 0.0
C524 C 0.47334 0.15563 0.52324 0.0
C525 C 0.49998 0.17628 0.53341 0.0
C526 C 0.5266 0.16698 0.53633 0.0
H527 H 0.50388 0.0988 0.51332 0.0
O528 O 0.60581 0.18876 0.49754 0.0
O529 O 0.59844 0.17316 0.52002 0.0
O530 O 0.59558 0.1176 0.50232 0.0
O531 O 0.55849 0.09758 0.52153 0.0
C532 C 0.50224 0.20689 0.54017 0.0
C533 C 0.53108 0.22781 0.5496 0.0
H534 H 0.58964 0.26085 0.56754 0.0
H535 H 0.63527 0.24141 0.57085 0.0
H536 H 0.45435 0.11138 0.50815 0.0
H537 H 0.45225 0.16181 0.5206 0.0
H538 H 0.48261 0.21528 0.53783 0.0
H539 H 0.53349 0.25232 0.55414 0.0
Mn540 Mn 0.77111 0.51683 0.6393 0.0
Mn541 Mn 0.70719 0.52074 0.61991 0.0
C542 C 0.71196 0.4884 0.64764 0.0
C543 C 0.80272 0.48594 0.64115 0.0
C544 C 0.76221 0.58298 0.63813 0.0
O545 O 0.79525 0.53593 0.62021 0.0
O546 O 0.74823 0.52926 0.60706 0.0
C547 C 0.68731 0.45161 0.60553 0.0
N548 N 0.67686 0.47305 0.61246 0.0
C549 C 0.61537 0.4237 0.61432 0.0
C550 C 0.62521 0.4015 0.60673 0.0
C551 C 0.66152 0.41533 0.60258 0.0
C552 C 0.64253 0.45934 0.61731 0.0
H553 H 0.71533 0.462 0.60255 0.0
C554 C 0.78122 0.53671 0.60834 0.0
O555 O 0.81691 0.51873 0.64627 0.0
O556 O 0.77066 0.47151 0.6357 0.0
N557 N 0.66537 0.51256 0.63061 0.0
C558 C 0.6619 0.53521 0.63997 0.0
C559 C 0.62778 0.52481 0.64594 0.0
C560 C 0.59759 0.4913 0.64222 0.0
C561 C 0.60176 0.4685 0.63251 0.0
C562 C 0.63628 0.48066 0.62667 0.0
H563 H 0.68495 0.56108 0.64283 0.0
O564 O 0.73825 0.49442 0.65627 0.0
O565 O 0.72195 0.49905 0.63463 0.0
O566 O 0.77694 0.56608 0.64377 0.0
O567 O 0.73756 0.56961 0.62842 0.0
C568 C 0.57333 0.4337 0.62878 0.0
C569 C 0.58024 0.41112 0.61982 0.0
H570 H 0.60537 0.37351 0.60441 0.0
H571 H 0.66955 0.39809 0.59706 0.0
H572 H 0.62478 0.54254 0.65344 0.0
H573 H 0.57144 0.48313 0.64702 0.0
H574 H 0.5464 0.42349 0.63317 0.0
H575 H 0.55861 0.38377 0.61759 0.0
Mn576 Mn 0.47135 0.25193 0.63945 0.0
Mn577 Mn 0.41873 0.18877 0.61539 0.0
C578 C 0.4712 0.1975 0.63825 0.0
C579 C 0.52818 0.30184 0.64386 0.0
C580 C 0.39021 0.20409 0.64276 0.0
O581 O 0.45983 0.28062 0.62543 0.0
O582 O 0.42705 0.23731 0.60922 0.0
C583 C 0.47297 0.21671 0.59221 0.0
N584 N 0.44979 0.18859 0.60066 0.0
C585 C 0.47356 0.15135 0.59196 0.0
C586 C 0.49735 0.17979 0.58307 0.0
C587 C 0.49742 0.21279 0.5834 0.0
C588 C 0.45029 0.15709 0.60079 0.0
H589 H 0.47393 0.24249 0.59262 0.0
C590 C 0.44286 0.27034 0.6136 0.0
O591 O 0.50044 0.29642 0.65161 0.0
O592 O 0.52238 0.27876 0.63381 0.0
N593 N 0.40995 0.14108 0.6198 0.0
C594 C 0.38653 0.11692 0.62948 0.0
C595 C 0.38434 0.08312 0.63109 0.0
C596 C 0.40578 0.07418 0.62248 0.0
C597 C 0.42851 0.09881 0.61211 0.0
C598 C 0.42912 0.1319 0.6109 0.0
H599 H 0.3691 0.1231 0.63565 0.0
O600 O 0.48047 0.21647 0.64997 0.0
O601 O 0.4602 0.21041 0.62812 0.0
O602 O 0.42035 0.22927 0.64763 0.0
O603 O 0.38637 0.18729 0.63092 0.0
C604 C 0.45078 0.09195 0.60299 0.0
C605 C 0.47351 0.11833 0.59299 0.0
H606 H 0.5166 0.17697 0.57641 0.0
H607 H 0.51706 0.23571 0.57732 0.0
H608 H 0.36601 0.06394 0.63889 0.0
H609 H 0.40424 0.04819 0.6238 0.0
H610 H 0.45104 0.0667 0.60373 0.0
H611 H 0.49126 0.11319 0.5863 0.0
Mn612 Mn 0.716 0.23323 0.6301 0.0
Mn613 Mn 0.80165 0.27417 0.61724 0.0
C614 C 0.75378 0.29362 0.63491 0.0
C615 C 0.65499 0.21117 0.62562 0.0
C616 C 0.77711 0.22815 0.64408 0.0
O617 O 0.71579 0.1967 0.61644 0.0
O618 O 0.77038 0.22881 0.60612 0.0
C619 C 0.78885 0.29352 0.58834 0.0
N620 N 0.80674 0.3036 0.60106 0.0
C621 C 0.84461 0.36485 0.59287 0.0
C622 C 0.82689 0.35499 0.57961 0.0
C623 C 0.7989 0.31915 0.57736 0.0
C624 C 0.83376 0.33797 0.60336 0.0
H625 H 0.76721 0.26607 0.58655 0.0
C626 C 0.73893 0.20044 0.60705 0.0
O627 O 0.6654 0.19768 0.63577 0.0
O628 O 0.68007 0.23754 0.61819 0.0
N629 N 0.83546 0.31866 0.62646 0.0
C630 C 0.84787 0.3244 0.64018 0.0
C631 C 0.87483 0.35925 0.64443 0.0
C632 C 0.8891 0.38775 0.63449 0.0
C633 C 0.87609 0.3812 0.6204 0.0
C634 C 0.84918 0.3459 0.61679 0.0
H635 H 0.83681 0.30274 0.6479 0.0
O636 O 0.72376 0.27484 0.64194 0.0
O637 O 0.75951 0.2773 0.62419 0.0
O638 O 0.74451 0.22168 0.64438 0.0
O639 O 0.79956 0.24552 0.63405 0.0
C640 C 0.88802 0.40852 0.60992 0.0
C641 C 0.8723 0.40035 0.59616 0.0
H642 H 0.83442 0.37473 0.57111 0.0
H643 H 0.78518 0.31114 0.56719 0.0
H644 H 0.88453 0.36415 0.65535 0.0
H645 H 0.9097 0.41465 0.63784 0.0
H646 H 0.90877 0.43607 0.61241 0.0
H647 H 0.88128 0.42171 0.58826 0.0
Mn648 Mn 0.47618 0.16997 0.12398 0.0
Mn649 Mn 0.53516 0.22146 0.09849 0.0
C650 C 0.50128 0.23194 0.12511 0.0
C651 C 0.41823 0.1366 0.13253 0.0
C652 C 0.55563 0.18952 0.12335 0.0
O653 O 0.46631 0.13305 0.10826 0.0
O654 O 0.50446 0.17067 0.09153 0.0
C655 C 0.47971 0.21871 0.0788 0.0
N656 N 0.51185 0.23835 0.08576 0.0
C657 C 0.51766 0.29435 0.07742 0.0
C658 C 0.48404 0.27454 0.07052 0.0
C659 C 0.46526 0.23658 0.07102 0.0
C660 C 0.5305 0.27494 0.08514 0.0
H661 H 0.46474 0.18974 0.07957 0.0
C662 C 0.47958 0.13936 0.09572 0.0
O663 O 0.44395 0.13124 0.13713 0.0
O664 O 0.42592 0.16016 0.12242 0.0
N665 N 0.56591 0.2715 0.10324 0.0
C666 C 0.59064 0.28648 0.11396 0.0
C667 C 0.61147 0.32436 0.11514 0.0
C668 C 0.60677 0.34648 0.10532 0.0
C669 C 0.57971 0.33048 0.09488 0.0
C670 C 0.56003 0.29253 0.09407 0.0
H671 H 0.59338 0.26958 0.12185 0.0
O672 O 0.48795 0.21228 0.13646 0.0
O673 O 0.49945 0.21473 0.1133 0.0
O674 O 0.52459 0.17409 0.12931 0.0
O675 O 0.56229 0.2066 0.1115 0.0
C676 C 0.5692 0.35062 0.08621 0.0
C677 C 0.53767 0.33255 0.07775 0.0
H678 H 0.47166 0.28807 0.06522 0.0
H679 H 0.43928 0.22117 0.06574 0.0
H680 H 0.62995 0.33647 0.12396 0.0
H681 H 0.62227 0.37567 0.10652 0.0
H682 H 0.58366 0.37997 0.08673 0.0
H683 H 0.52837 0.34838 0.072 0.0
Mn684 Mn 0.81712 0.31929 0.15384 0.0
Mn685 Mn 0.78583 0.32736 0.12187 0.0
C686 C 0.75718 0.27894 0.14776 0.0
C687 C 0.84707 0.29728 0.16708 0.0
C688 C 0.79574 0.37587 0.14737 0.0
O689 O 0.86399 0.35188 0.14286 0.0
O690 O 0.83906 0.35051 0.12156 0.0
C691 C 0.80609 0.27986 0.10607 0.0
N692 N 0.78106 0.28965 0.10942 0.0
C693 C 0.73566 0.24086 0.09537 0.0
C694 C 0.76127 0.23094 0.09138 0.0
C695 C 0.79671 0.25055 0.09679 0.0
C696 C 0.74689 0.27091 0.10434 0.0
H697 H 0.83269 0.29382 0.11071 0.0
C698 C 0.86642 0.3592 0.1296 0.0
O699 O 0.84566 0.32556 0.17142 0.0
O700 O 0.83126 0.2823 0.15511 0.0
N701 N 0.73454 0.30568 0.12008 0.0
C702 C 0.71165 0.31408 0.12703 0.0
C703 C 0.67492 0.29631 0.1232 0.0
C704 C 0.66219 0.27039 0.11217 0.0
C705 C 0.68595 0.26112 0.10559 0.0
C706 C 0.72242 0.28013 0.1097 0.0
H707 H 0.72122 0.33348 0.13568 0.0
O708 O 0.76748 0.28364 0.16101 0.0
O709 O 0.7824 0.29757 0.1384 0.0
O710 O 0.80582 0.36019 0.15631 0.0
O711 O 0.789 0.36674 0.13421 0.0
C712 C 0.67425 0.23156 0.09614 0.0
C713 C 0.69897 0.22082 0.09144 0.0
H714 H 0.7538 0.20782 0.08446 0.0
H715 H 0.81651 0.24267 0.09403 0.0
H716 H 0.65637 0.30163 0.12915 0.0
H717 H 0.63376 0.256 0.10941 0.0
H718 H 0.64592 0.21554 0.09316 0.0
H719 H 0.68942 0.1962 0.08537 0.0
Mn720 Mn 0.66811 0.51806 0.14227 0.0
Mn721 Mn 0.69128 0.48289 0.11476 0.0
C722 C 0.70946 0.49862 0.14621 0.0
C723 C 0.67721 0.5696 0.15368 0.0
C724 C 0.62009 0.44226 0.13119 0.0
O725 O 0.64865 0.53162 0.12472 0.0
O726 O 0.67648 0.51712 0.10769 0.0
C727 C 0.75693 0.55068 0.10586 0.0
N728 N 0.74047 0.51485 0.10924 0.0
C729 C 0.79626 0.51423 0.10615 0.0
C730 C 0.81371 0.55101 0.10242 0.0
C731 C 0.79394 0.56932 0.10228 0.0
C732 C 0.75931 0.4971 0.10956 0.0
H733 H 0.74204 0.56502 0.10612 0.0
C734 C 0.65924 0.5328 0.11189 0.0
O735 O 0.64659 0.53956 0.15522 0.0
O736 O 0.702 0.56935 0.1457 0.0
N737 N 0.70723 0.44957 0.11961 0.0
C738 C 0.68798 0.41589 0.12542 0.0
C739 C 0.70386 0.394 0.12635 0.0
C740 C 0.73892 0.40651 0.12097 0.0
C741 C 0.75854 0.44151 0.11536 0.0
C742 C 0.74129 0.46209 0.11462 0.0
H743 H 0.66085 0.40586 0.12938 0.0
O744 O 0.6935 0.50432 0.15688 0.0
O745 O 0.70183 0.50585 0.13362 0.0
O746 O 0.62769 0.46564 0.14106 0.0
O747 O 0.64021 0.44736 0.12022 0.0
C748 C 0.79521 0.45751 0.11127 0.0
C749 C 0.81433 0.49418 0.10708 0.0
H750 H 0.84232 0.56553 0.09977 0.0
H751 H 0.80727 0.59781 0.09956 0.0
H752 H 0.68936 0.36783 0.13141 0.0
H753 H 0.75111 0.38964 0.12166 0.0
H754 H 0.80943 0.44242 0.11198 0.0
H755 H 0.84309 0.50687 0.10489 0.0
Mn756 Mn 0.52388 0.16697 -0.00018 0.0
Mn757 Mn 0.55107 0.20224 0.03264 0.0
C758 C 0.58527 0.20344 0.0043 0.0
C759 C 0.50784 0.11958 0.98421 0.0
C760 C 0.52662 0.2367 0.01029 0.0
O761 O 0.4779 0.13613 0.01159 0.0
O762 O 0.49909 0.16528 0.03232 0.0
C763 C 0.54369 0.13298 0.0424 0.0
N764 N 0.56251 0.16984 0.04236 0.0
C765 C 0.61137 0.17082 0.0555 0.0
C766 C 0.59143 0.13292 0.05649 0.0
C767 C 0.55754 0.11385 0.04975 0.0
C768 C 0.59581 0.18831 0.04822 0.0
H769 H 0.51913 0.11846 0.03638 0.0
C770 C 0.47372 0.14119 0.02466 0.0
O771 O 0.4969 0.14274 0.98202 0.0
O772 O 0.5272 0.12385 -0.00452 0.0
N773 N 0.60048 0.23786 0.03603 0.0
C774 C 0.61868 0.27301 0.03187 0.0
C775 C 0.65362 0.29608 0.03724 0.0
C776 C 0.66948 0.28291 0.04689 0.0
C777 C 0.65056 0.24626 0.05072 0.0
C778 C 0.61549 0.22475 0.04528 0.0
H779 H 0.6069 0.28257 0.02405 0.0
O780 O 0.57283 0.19775 0.99136 0.0
O781 O 0.56148 0.18661 0.01439 0.0
O782 O 0.5171 0.21155 0.00094 0.0
O783 O 0.54058 0.2368 0.02246 0.0
C784 C 0.6661 0.22961 0.0588 0.0
C785 C 0.64689 0.19167 0.0607 0.0
H786 H 0.60247 0.11815 0.06194 0.0
H787 H 0.54259 0.08452 0.0499 0.0
H788 H 0.66884 0.32351 0.03355 0.0
H789 H 0.69684 0.30068 0.0507 0.0
H790 H 0.69366 0.24536 0.06271 0.0
H791 H 0.65999 0.17829 0.06557 0.0
Mn792 Mn 0.85941 0.388 0.02865 0.0
Mn793 Mn 0.80676 0.39114 0.05489 0.0
C794 C 0.8336 0.42422 0.02566 0.0
C795 C 0.9159 0.4063 0.01934 0.0
C796 C 0.78257 0.32804 0.03405 0.0
O797 O 0.87142 0.36612 0.04574 0.0
O798 O 0.84325 0.37998 0.06289 0.0
C799 C 0.86396 0.45703 0.0692 0.0
N800 N 0.82958 0.4375 0.06405 0.0
C801 C 0.81705 0.48507 0.0701 0.0
C802 C 0.8522 0.50544 0.07568 0.0
C803 C 0.87577 0.49135 0.07524 0.0
C804 C 0.80694 0.4511 0.06416 0.0
H805 H 0.88244 0.44691 0.06828 0.0
C806 C 0.86538 0.36967 0.0588 0.0
O807 O 0.88831 0.37489 0.01621 0.0
O808 O 0.9106 0.42736 0.02787 0.0
N809 N 0.77053 0.40276 0.04918 0.0
C810 C 0.74154 0.38431 0.04035 0.0
C811 C 0.71635 0.39622 0.03877 0.0
C812 C 0.7203 0.42596 0.04669 0.0
C813 C 0.75063 0.44494 0.05551 0.0
C814 C 0.77511 0.43211 0.05658 0.0
H815 H 0.73798 0.3611 0.0344 0.0
O816 O 0.84559 0.41456 0.01472 0.0
O817 O 0.83788 0.41323 0.03807 0.0
O818 O 0.81025 0.34299 0.02601 0.0
O819 O 0.77956 0.34222 0.04569 0.0
C820 C 0.75887 0.47758 0.06244 0.0
C821 C 0.79239 0.49798 0.06949 0.0
H822 H 0.86163 0.53224 0.08008 0.0
H823 H 0.90314 0.50714 0.07932 0.0
H824 H 0.69436 0.38313 0.03123 0.0
H825 H 0.70089 0.4351 0.04535 0.0
H826 H 0.74056 0.48826 0.0617 0.0
H827 H 0.79944 0.52417 0.07395 0.0
Mn828 Mn 0.63813 0.50821 0.00683 0.0
Mn829 Mn 0.61975 0.45342 0.03515 0.0
C830 C 0.6035 0.44565 0.00318 0.0
C831 C 0.62453 0.54588 0.99439 0.0
C832 C 0.69149 0.48784 0.01894 0.0
O833 O 0.65393 0.54343 0.0238 0.0
O834 O 0.63208 0.50229 0.04128 0.0
C835 C 0.55241 0.45356 0.04308 0.0
N836 N 0.57025 0.43505 0.04045 0.0
C837 C 0.51602 0.37794 0.04437 0.0
C838 C 0.49719 0.39634 0.04744 0.0
C839 C 0.51547 0.43437 0.04674 0.0
C840 C 0.55279 0.39857 0.04083 0.0
H841 H 0.56616 0.48268 0.04218 0.0
C842 C 0.64546 0.5346 0.03678 0.0
O843 O 0.65681 0.54996 0.99356 0.0
O844 O 0.60036 0.51994 0.00223 0.0
N845 N 0.60637 0.4043 0.03184 0.0
C846 C 0.62789 0.39078 0.02772 0.0
C847 C 0.61429 0.3534 0.02829 0.0
C848 C 0.57906 0.33028 0.03347 0.0
C849 C 0.55726 0.34479 0.03749 0.0
C850 C 0.57242 0.38236 0.03682 0.0
H851 H 0.65513 0.40837 0.02394 0.0
O852 O 0.61772 0.46778 0.99254 0.0
O853 O 0.60786 0.46105 0.01568 0.0
O854 O 0.68254 0.5025 0.0091 0.0
O855 O 0.67121 0.47087 0.02966 0.0
C856 C 0.52056 0.32339 0.04144 0.0
C857 C 0.49962 0.33994 0.0444 0.0
H858 H 0.46865 0.38155 0.0502 0.0
H859 H 0.50107 0.44881 0.0489 0.0
H860 H 0.63095 0.34279 0.02444 0.0
H861 H 0.56848 0.30138 0.03393 0.0
H862 H 0.50781 0.29411 0.04161 0.0
H863 H 0.47097 0.32327 0.0467 0.0
Mn864 Mn 0.50404 0.75359 0.84093 0.0
Mn865 Mn 0.54126 0.71814 0.86207 0.0
C866 C 0.49717 0.69771 0.83492 0.0
C867 C 0.45086 0.7561 0.83876 0.0
C868 C 0.58418 0.78134 0.84178 0.0
O869 O 0.51502 0.78269 0.85909 0.0
O870 O 0.53277 0.75271 0.87369 0.0
C871 C 0.48036 0.67705 0.88186 0.0
N872 N 0.50447 0.67759 0.87214 0.0
C873 C 0.47691 0.61273 0.87282 0.0
C874 C 0.4517 0.61156 0.88278 0.0
C875 C 0.4534 0.64379 0.88729 0.0
C876 C 0.50322 0.64674 0.86774 0.0
H877 H 0.48102 0.70168 0.88515 0.0
C878 C 0.52382 0.77687 0.87136 0.0
O879 O 0.48059 0.78112 0.83276 0.0
O880 O 0.45269 0.73052 0.84522 0.0
N881 N 0.54957 0.6837 0.85207 0.0
C882 C 0.57325 0.68945 0.84122 0.0
C883 C 0.57408 0.65977 0.83506 0.0
C884 C 0.5504 0.62453 0.84004 0.0
C885 C 0.52619 0.61929 0.85119 0.0
C886 C 0.52704 0.64995 0.85707 0.0
H887 H 0.59118 0.71645 0.83725 0.0
O888 O 0.4936 0.71762 0.8253 0.0
O889 O 0.50646 0.71274 0.84751 0.0
O890 O 0.55788 0.78203 0.83544 0.0
O891 O 0.58013 0.75925 0.85181 0.0
C892 C 0.50061 0.58479 0.85644 0.0
C893 C 0.4759 0.58151 0.86721 0.0
H894 H 0.43009 0.58615 0.88669 0.0
H895 H 0.43339 0.64297 0.8946 0.0
H896 H 0.59271 0.66401 0.82641 0.0
H897 H 0.5508 0.60166 0.83513 0.0
H898 H 0.49926 0.56056 0.85207 0.0
H899 H 0.45584 0.55481 0.87092 0.0
Mn900 Mn 0.19145 0.69634 0.85572 0.0
Mn901 Mn 0.24039 0.73183 0.88578 0.0
C902 C 0.25301 0.71951 0.85554 0.0
C903 C 0.16065 0.64752 0.84032 0.0
C904 C 0.21938 0.77366 0.8661 0.0
O905 O 0.15221 0.67658 0.87085 0.0
O906 O 0.18734 0.70472 0.88998 0.0
C907 C 0.22202 0.66415 0.90136 0.0
N908 N 0.24697 0.69495 0.89457 0.0
C909 C 0.29474 0.68215 0.8999 0.0
C910 C 0.26942 0.64997 0.90667 0.0
C911 C 0.23294 0.64107 0.90749 0.0
C912 C 0.28233 0.70428 0.89411 0.0
H913 H 0.19394 0.65707 0.90206 0.0
C914 C 0.1564 0.68363 0.8842 0.0
O915 O 0.15623 0.67552 0.83934 0.0
O916 O 0.18023 0.64716 0.85079 0.0
N917 N 0.29194 0.75742 0.88316 0.0
C918 C 0.31363 0.79124 0.87771 0.0
C919 C 0.35125 0.80511 0.87686 0.0
C920 C 0.36621 0.78424 0.88173 0.0
C921 C 0.34348 0.7499 0.88761 0.0
C922 C 0.30618 0.7375 0.8882 0.0
H923 H 0.30229 0.80738 0.8739 0.0
O924 O 0.23573 0.71643 0.84379 0.0
O925 O 0.2336 0.70805 0.86718 0.0
O926 O 0.19924 0.74727 0.85782 0.0
O927 O 0.23604 0.77132 0.877 0.0
C928 C 0.35638 0.72752 0.89293 0.0
C929 C 0.33199 0.69363 0.89903 0.0
H930 H 0.27774 0.63208 0.91139 0.0
H931 H 0.21324 0.61641 0.91279 0.0
H932 H 0.36866 0.83174 0.87239 0.0
H933 H 0.39517 0.79486 0.88094 0.0
H934 H 0.38504 0.73625 0.8925 0.0
H935 H 0.3422 0.67679 0.90321 0.0
Mn936 Mn 0.24606 0.49343 0.84019 0.0
Mn937 Mn 0.18652 0.48656 0.8655 0.0
C938 C 0.19827 0.50168 0.83331 0.0
C939 C 0.30493 0.53129 0.83234 0.0
C940 C 0.18554 0.42194 0.85187 0.0
O941 O 0.26977 0.4923 0.8586 0.0
O942 O 0.23131 0.49287 0.87465 0.0
C943 C 0.23187 0.56347 0.87354 0.0
N944 N 0.19894 0.53513 0.86976 0.0
C945 C 0.17183 0.57278 0.87003 0.0
C946 C 0.20543 0.60248 0.87388 0.0
C947 C 0.23564 0.59781 0.87558 0.0
C948 C 0.17012 0.5396 0.86759 0.0
H949 H 0.25515 0.55994 0.87475 0.0
C950 C 0.26019 0.49251 0.87137 0.0
O951 O 0.28965 0.49636 0.83055 0.0
O952 O 0.28451 0.54367 0.83693 0.0
N953 N 0.14054 0.47976 0.85966 0.0
C954 C 0.10983 0.44786 0.85664 0.0
C955 C 0.07654 0.44706 0.85539 0.0
C956 C 0.0749 0.47879 0.85779 0.0
C957 C 0.1065 0.51089 0.86161 0.0
C958 C 0.1388 0.50991 0.86277 0.0
H959 H 0.11074 0.42322 0.85522 0.0
O960 O 0.21743 0.49629 0.82384 0.0
O961 O 0.20892 0.50334 0.84652 0.0
O962 O 0.21136 0.43944 0.84292 0.0
O963 O 0.17331 0.43631 0.86071 0.0
C964 C 0.10722 0.54377 0.86444 0.0
C965 C 0.14005 0.57482 0.86842 0.0
H966 H 0.20837 0.62901 0.87538 0.0
H967 H 0.26181 0.62056 0.8784 0.0
H968 H 0.05214 0.42197 0.85273 0.0
H969 H 0.04921 0.4781 0.8568 0.0
H970 H 0.0828 0.54555 0.86348 0.0
H971 H 0.1406 0.60008 0.87034 0.0
Mn972 Mn 0.43607 0.84962 0.96142 0.0
Mn973 Mn 0.38557 0.86787 0.9393 0.0
C974 C 0.37725 0.83406 0.96787 0.0
C975 C 0.44959 0.80511 0.968 0.0
C976 C 0.4504 0.92533 0.9558 0.0
O977 O 0.46108 0.85655 0.94228 0.0
O978 O 0.42138 0.86136 0.92774 0.0
C979 C 0.34745 0.79646 0.92509 0.0
N980 N 0.34601 0.82297 0.93271 0.0
C981 C 0.28164 0.78515 0.9363 0.0
C982 C 0.28246 0.75756 0.92841 0.0
C983 C 0.31567 0.76309 0.92307 0.0
C984 C 0.31439 0.81767 0.9383 0.0
H985 H 0.37295 0.80006 0.9212 0.0
C986 C 0.44952 0.85822 0.92987 0.0
O987 O 0.47213 0.83886 0.97126 0.0
O988 O 0.42114 0.79859 0.96087 0.0
N989 N 0.34964 0.87323 0.94966 0.0
C990 C 0.35436 0.90025 0.95878 0.0
C991 C 0.32417 0.89812 0.9658 0.0
C992 C 0.28951 0.86803 0.96351 0.0
C993 C 0.28534 0.84038 0.95418 0.0
C994 C 0.3163 0.8444 0.94722 0.0
H995 H 0.38099 0.92309 0.96081 0.0
O996 O 0.40092 0.83924 0.97768 0.0
O997 O 0.391 0.84252 0.95518 0.0
O998 O 0.45698 0.90398 0.96314 0.0
O999 O 0.42535 0.91474 0.94633 0.0
C1000 C 0.25185 0.80849 0.95186 0.0
C1001 C 0.25004 0.7808 0.94299 0.0
H1002 H 0.2581 0.73151 0.92691 0.0
H1003 H 0.31718 0.74121 0.91799 0.0
H1004 H 0.32766 0.91942 0.97308 0.0
H1005 H 0.26638 0.86619 0.96914 0.0
H1006 H 0.22748 0.80459 0.95714 0.0
H1007 H 0.22436 0.75592 0.94165 0.0
Mn1008 Mn 0.17488 0.5687 0.969 0.0
Mn1009 Mn 0.12153 0.49487 0.94922 0.0
C1010 C 0.18914 0.52336 0.96731 0.0
C1011 C 0.22206 0.62811 0.96853 0.0
C1012 C 0.10302 0.50762 0.9793 0.0
O1013 O 0.14435 0.58353 0.95774 0.0
O1014 O 0.11315 0.53539 0.94341 0.0
C1015 C 0.15403 0.52186 0.9207 0.0
N1016 N 0.14396 0.49671 0.93129 0.0
C1017 C 0.16358 0.46183 0.91754 0.0
C1018 C 0.17359 0.48704 0.90638 0.0
C1019 C 0.16898 0.51729 0.90802 0.0
C1020 C 0.14831 0.46753 0.92985 0.0
H1021 H 0.15075 0.54527 0.92192 0.0
C1022 C 0.12227 0.56756 0.94756 0.0
O1023 O 0.19857 0.61697 0.97893 0.0
O1024 O 0.21826 0.6046 0.9589 0.0
N1025 N 0.12722 0.45398 0.95329 0.0
C1026 C 0.11965 0.43439 0.96558 0.0
C1027 C 0.12517 0.40455 0.96611 0.0
C1028 C 0.1383 0.39512 0.95401 0.0
C1029 C 0.14593 0.41571 0.94149 0.0
C1030 C 0.13964 0.445 0.94155 0.0
H1031 H 0.1098 0.44169 0.97493 0.0
O1032 O 0.20224 0.54715 0.97754 0.0
O1033 O 0.16871 0.52766 0.95801 0.0
O1034 O 0.13173 0.53774 0.98181 0.0
O1035 O 0.09662 0.49027 0.96749 0.0
C1036 C 0.16038 0.4089 0.92906 0.0
C1037 C 0.16912 0.43188 0.91709 0.0
H1038 H 0.18531 0.48374 0.89662 0.0
H1039 H 0.17706 0.53714 0.89957 0.0
H1040 H 0.11943 0.38891 0.97585 0.0
H1041 H 0.1428 0.37227 0.95451 0.0
H1042 H 0.16545 0.38638 0.92869 0.0
H1043 H 0.18072 0.42666 0.90769 0.0
Mn1044 Mn 0.41764 0.55717 0.95688 0.0
Mn1045 Mn 0.4675 0.62214 0.93302 0.0
C1046 C 0.44177 0.61757 0.96315 0.0
C1047 C 0.35845 0.51734 0.96416 0.0
C1048 C 0.49543 0.58036 0.94956 0.0
O1049 O 0.40759 0.5298 0.93818 0.0
O1050 O 0.43486 0.5763 0.92275 0.0
C1051 C 0.4056 0.62719 0.92135 0.0
N1052 N 0.43947 0.64364 0.92718 0.0
C1053 C 0.44139 0.70104 0.9282 0.0
C1054 C 0.40708 0.685 0.92176 0.0
C1055 C 0.38898 0.64783 0.91843 0.0
C1056 C 0.45659 0.67909 0.93086 0.0
H1057 H 0.39141 0.59853 0.91894 0.0
C1058 C 0.41465 0.54255 0.92555 0.0
O1059 O 0.38421 0.5105 0.96732 0.0
O1060 O 0.36743 0.54688 0.9573 0.0
N1061 N 0.49979 0.66834 0.94143 0.0
C1062 C 0.53139 0.679 0.94863 0.0
C1063 C 0.55251 0.71528 0.95303 0.0
C1064 C 0.541 0.74022 0.94996 0.0
C1065 C 0.50845 0.72865 0.94251 0.0
C1066 C 0.48887 0.69232 0.93817 0.0
H1067 H 0.54053 0.66006 0.95094 0.0
O1068 O 0.43035 0.59282 0.97297 0.0
O1069 O 0.43813 0.60548 0.95019 0.0
O1070 O 0.46773 0.56261 0.95762 0.0
O1071 O 0.49769 0.60153 0.93942 0.0
C1072 C 0.49413 0.75148 0.9396 0.0
C1073 C 0.46053 0.73765 0.93252 0.0
H1074 H 0.39412 0.70083 0.91962 0.0
H1075 H 0.36219 0.63504 0.9137 0.0
H1076 H 0.57756 0.72398 0.9588 0.0
H1077 H 0.55711 0.76805 0.95355 0.0
H1078 H 0.50833 0.77952 0.94308 0.0
H1079 H 0.44942 0.75527 0.93064 0.0
Mn1080 Mn 0.13522 0.52416 0.45687 0.0
Mn1081 Mn 0.17688 0.57942 0.42927 0.0
C1082 C 0.16795 0.58605 0.46116 0.0
C1083 C 0.08068 0.49233 0.4685 0.0
C1084 C 0.20844 0.5394 0.44538 0.0
O1085 O 0.11597 0.4898 0.4398 0.0
O1086 O 0.13993 0.53068 0.42227 0.0
C1087 C 0.10979 0.58093 0.42438 0.0
N1088 N 0.14671 0.59919 0.42482 0.0
C1089 C 0.14917 0.65658 0.42307 0.0
C1090 C 0.11115 0.63829 0.42236 0.0
C1091 C 0.09136 0.60034 0.42317 0.0
C1092 C 0.16601 0.63583 0.42497 0.0
H1093 H 0.09457 0.55175 0.42529 0.0
C1094 C 0.11987 0.49827 0.42666 0.0
O1095 O 0.10528 0.48299 0.47011 0.0
O1096 O 0.08762 0.51902 0.46011 0.0
N1097 N 0.21367 0.62848 0.43292 0.0
C1098 C 0.24877 0.64027 0.43663 0.0
C1099 C 0.27546 0.67721 0.4363 0.0
C1100 C 0.26827 0.70459 0.43234 0.0
C1101 C 0.22733 0.69121 0.42825 0.0
C1102 C 0.20216 0.65132 0.42851 0.0
H1103 H 0.25678 0.62104 0.43987 0.0
O1104 O 0.1568 0.56335 0.47165 0.0
O1105 O 0.15736 0.57168 0.44851 0.0
O1106 O 0.18347 0.52494 0.45491 0.0
O1107 O 0.20856 0.55933 0.43499 0.0
C1108 C 0.20772 0.71223 0.4242 0.0
C1109 C 0.17011 0.69447 0.42237 0.0
H1110 H 0.0968 0.65317 0.42124 0.0
H1111 H 0.06202 0.58611 0.42278 0.0
H1112 H 0.30279 0.68497 0.43916 0.0
H1113 H 0.24922 0.70328 0.43002 0.0
H1114 H 0.22322 0.74152 0.42362 0.0
H1115 H 0.15723 0.71052 0.4205 0.0
Mn1116 Mn 0.4756 0.63447 0.46314 0.0
Mn1117 Mn 0.43902 0.6428 0.4325 0.0
C1118 C 0.41364 0.60987 0.46179 0.0
C1119 C 0.49537 0.60308 0.47677 0.0
C1120 C 0.47337 0.70279 0.45472 0.0
O1121 O 0.51704 0.64839 0.44913 0.0
O1122 O 0.48972 0.65389 0.42965 0.0
C1123 C 0.43813 0.5806 0.41782 0.0
N1124 N 0.42101 0.59913 0.42159 0.0
C1125 C 0.3675 0.55752 0.40851 0.0
C1126 C 0.3846 0.53802 0.40449 0.0
C1127 C 0.4201 0.54962 0.40916 0.0
C1128 C 0.38675 0.58792 0.4173 0.0
H1129 H 0.46501 0.58907 0.42162 0.0
C1130 C 0.51694 0.65519 0.43595 0.0
O1131 O 0.5072 0.63727 0.47919 0.0
O1132 O 0.473 0.58777 0.46625 0.0
N1133 N 0.38975 0.6321 0.43273 0.0
C1134 C 0.37437 0.64827 0.44023 0.0
C1135 C 0.33811 0.63827 0.43754 0.0
C1136 C 0.31848 0.61279 0.42681 0.0
C1137 C 0.3345 0.59561 0.41956 0.0
C1138 C 0.37043 0.60602 0.42294 0.0
H1139 H 0.38927 0.66717 0.44869 0.0
O1140 O 0.43013 0.61709 0.47401 0.0
O1141 O 0.43383 0.61642 0.4504 0.0
O1142 O 0.48333 0.68629 0.46338 0.0
O1143 O 0.45623 0.68882 0.44308 0.0
C1144 C 0.31542 0.56678 0.40987 0.0
C1145 C 0.33168 0.54726 0.40458 0.0
H1146 H 0.37035 0.51351 0.39821 0.0
H1147 H 0.43338 0.53452 0.40622 0.0
H1148 H 0.32497 0.64912 0.44409 0.0
H1149 H 0.2905 0.60502 0.42477 0.0
H1150 H 0.28757 0.55815 0.40705 0.0
H1151 H 0.31609 0.52389 0.39778 0.0
Mn1152 Mn 0.36893 0.86806 0.46367 0.0
Mn1153 Mn 0.36184 0.8169 0.43519 0.0
C1154 C 0.39983 0.83601 0.46415 0.0
C1155 C 0.40006 0.92461 0.47388 0.0
C1156 C 0.30475 0.79247 0.45858 0.0
O1157 O 0.34472 0.88443 0.44902 0.0
O1158 O 0.34544 0.85138 0.43051 0.0
C1159 C 0.41758 0.87582 0.41731 0.0
N1160 N 0.40433 0.84288 0.4237 0.0
C1161 C 0.45226 0.83526 0.41382 0.0
C1162 C 0.46628 0.86894 0.40701 0.0
C1163 C 0.44889 0.88935 0.40879 0.0
C1164 C 0.42084 0.82311 0.42207 0.0
H1165 H 0.40437 0.89165 0.41868 0.0
C1166 C 0.33912 0.87507 0.43597 0.0
O1167 O 0.36753 0.90145 0.47833 0.0
O1168 O 0.41277 0.91536 0.46313 0.0
N1169 N 0.37678 0.78224 0.43764 0.0
C1170 C 0.36084 0.75157 0.44563 0.0
C1171 C 0.37652 0.72965 0.44609 0.0
C1172 C 0.40743 0.73878 0.43785 0.0
C1173 C 0.42222 0.76935 0.42901 0.0
C1174 C 0.40603 0.79082 0.42937 0.0
H1175 H 0.33744 0.7449 0.45214 0.0
O1176 O 0.39444 0.84942 0.47566 0.0
O1177 O 0.38854 0.8435 0.45228 0.0
O1178 O 0.32058 0.82053 0.46663 0.0
O1179 O 0.31763 0.78863 0.44675 0.0
C1180 C 0.45375 0.7808 0.42067 0.0
C1181 C 0.4686 0.8136 0.41299 0.0
H1182 H 0.49054 0.87953 0.40051 0.0
H1183 H 0.45963 0.91546 0.40365 0.0
H1184 H 0.36584 0.70693 0.45335 0.0
H1185 H 0.42114 0.72372 0.4393 0.0
H1186 H 0.46759 0.76534 0.42044 0.0
H1187 H 0.49306 0.82232 0.40677 0.0
Mn1188 Mn 0.18318 0.43021 0.33577 0.0
Mn1189 Mn 0.23339 0.45528 0.36525 0.0
C1190 C 0.24616 0.46078 0.33271 0.0
C1191 C 0.14946 0.38213 0.32102 0.0
C1192 C 0.19452 0.49322 0.35266 0.0
O1193 O 0.14709 0.40964 0.35263 0.0
O1194 O 0.18685 0.40982 0.36778 0.0
C1195 C 0.24628 0.39321 0.36772 0.0
N1196 N 0.25947 0.42966 0.36711 0.0
C1197 C 0.32091 0.44186 0.36927 0.0
C1198 C 0.30798 0.40449 0.37002 0.0
C1199 C 0.27049 0.38006 0.36919 0.0
C1200 C 0.29548 0.45331 0.36766 0.0
H1201 H 0.21751 0.37425 0.36705 0.0
C1202 C 0.15528 0.40438 0.36515 0.0
O1203 O 0.14233 0.40842 0.32178 0.0
O1204 O 0.17411 0.383 0.32938 0.0
N1205 N 0.27986 0.49795 0.36438 0.0
C1206 C 0.28722 0.53273 0.36577 0.0
C1207 C 0.32284 0.56022 0.36824 0.0
C1208 C 0.35111 0.55232 0.36873 0.0
C1209 C 0.34279 0.51616 0.36792 0.0
C1210 C 0.30625 0.4895 0.36642 0.0
H1211 H 0.26582 0.53928 0.36597 0.0
O1212 O 0.22476 0.45431 0.32192 0.0
O1213 O 0.22981 0.44655 0.34472 0.0
O1214 O 0.18728 0.47795 0.34045 0.0
O1215 O 0.20789 0.4843 0.36323 0.0
C1216 C 0.36897 0.50537 0.36938 0.0
C1217 C 0.35804 0.4682 0.36997 0.0
H1218 H 0.32656 0.39426 0.3712 0.0
H1219 H 0.26029 0.35116 0.3697 0.0
H1220 H 0.32774 0.58689 0.37055 0.0
H1221 H 0.37866 0.57383 0.37068 0.0
H1222 H 0.39747 0.52544 0.37039 0.0
H1223 H 0.37836 0.46018 0.3712 0.0
Mn1224 Mn 0.49702 0.69699 0.34319 0.0
Mn1225 Mn 0.43412 0.64302 0.36653 0.0
C1226 C 0.45315 0.71089 0.34977 0.0
C1227 C 0.55424 0.74587 0.34065 0.0
C1228 C 0.43634 0.62185 0.33572 0.0
O1229 O 0.5186 0.66847 0.35218 0.0
O1230 O 0.47936 0.64181 0.37027 0.0
C1231 C 0.46609 0.67912 0.39367 0.0
N1232 N 0.4379 0.66591 0.38428 0.0
C1233 C 0.40225 0.67976 0.40009 0.0
C1234 C 0.43065 0.69256 0.40999 0.0
C1235 C 0.46287 0.69293 0.40675 0.0
C1236 C 0.40681 0.66604 0.38719 0.0
H1237 H 0.49085 0.67914 0.3912 0.0
C1238 C 0.50985 0.65193 0.36412 0.0
O1239 O 0.53988 0.72237 0.33031 0.0
O1240 O 0.53559 0.74101 0.35213 0.0
N1241 N 0.39022 0.64419 0.36403 0.0
C1242 C 0.37083 0.63785 0.35172 0.0
C1243 C 0.33935 0.64055 0.35103 0.0
C1244 C 0.32559 0.65004 0.36282 0.0
C1245 C 0.34863 0.65856 0.37714 0.0
C1246 C 0.38158 0.65498 0.37629 0.0
H1247 H 0.37977 0.63106 0.34209 0.0
O1248 O 0.47132 0.72375 0.33802 0.0
O1249 O 0.46127 0.69005 0.35718 0.0
O1250 O 0.46081 0.65279 0.33112 0.0
O1251 O 0.42693 0.61573 0.34879 0.0
C1252 C 0.34414 0.67144 0.39206 0.0
C1253 C 0.37065 0.68136 0.40266 0.0
H1254 H 0.42813 0.70243 0.42013 0.0
H1255 H 0.48505 0.70378 0.41432 0.0
H1256 H 0.32545 0.63526 0.3409 0.0
H1257 H 0.33339 0.65535 0.37105 0.0
H1258 H 0.32086 0.67451 0.39422 0.0
H1259 H 0.36697 0.69166 0.41275 0.0
Mn1260 Mn 0.22189 0.74402 0.35165 0.0
Mn1261 Mn 0.22326 0.70084 0.38159 0.0
C1262 C 0.2065 0.684 0.3501 0.0
C1263 C 0.19193 0.76509 0.33764 0.0
C1264 C 0.29026 0.74637 0.36363 0.0
O1265 O 0.22842 0.78021 0.3672 0.0
O1266 O 0.22429 0.74661 0.38618 0.0
C1267 C 0.14817 0.68397 0.38703 0.0
N1268 N 0.17327 0.67302 0.3868 0.0
C1269 C 0.12678 0.61053 0.38926 0.0
C1270 C 0.10046 0.62114 0.38955 0.0
C1271 C 0.11123 0.65806 0.38844 0.0
C1272 C 0.163 0.63751 0.38736 0.0
H1273 H 0.1562 0.71218 0.3857 0.0
C1274 C 0.22665 0.77493 0.38058 0.0
O1275 O 0.22699 0.77969 0.33704 0.0
O1276 O 0.17435 0.73842 0.34645 0.0
N1277 N 0.22206 0.65542 0.38041 0.0
C1278 C 0.25069 0.64965 0.37912 0.0
C1279 C 0.24552 0.61479 0.38156 0.0
C1280 C 0.21108 0.58628 0.38527 0.0
C1281 C 0.18227 0.59304 0.38681 0.0
C1282 C 0.18943 0.62859 0.38493 0.0
H1283 H 0.27736 0.67164 0.37648 0.0
O1284 O 0.21303 0.70337 0.33867 0.0
O1285 O 0.2061 0.6995 0.36207 0.0
O1286 O 0.27423 0.7556 0.35436 0.0
O1287 O 0.27483 0.728 0.37498 0.0
C1288 C 0.1465 0.56571 0.38973 0.0
C1289 C 0.11846 0.5742 0.39044 0.0
H1290 H 0.07197 0.60121 0.39073 0.0
H1291 H 0.0911 0.66649 0.3886 0.0
H1292 H 0.26788 0.6097 0.38061 0.0
H1293 H 0.20699 0.55928 0.38679 0.0
H1294 H 0.14023 0.53794 0.39076 0.0
H1295 H 0.09073 0.55272 0.39203 0.0
H1296 H 0.09223 0.09693 0.20832 0.0
H1297 H 0.11251 0.14354 0.16612 0.0
H1298 H 0.06965 0.1651 0.17054 0.0
H1299 H 0.01986 0.1622 0.18521 0.0
H1300 H 0.0005 0.1153 0.22733 0.0
H1301 H 0.05111 0.10435 0.22454 0.0
C1302 C 0.08777 0.11243 0.2002 0.0
C1303 C 0.10485 0.11811 0.18684 0.0
C1304 C 0.06372 0.1252 0.20292 0.0
C1305 C 0.09931 0.13857 0.17645 0.0
C1306 C 0.07487 0.15091 0.17898 0.0
C1307 C 0.02778 0.15092 0.19395 0.0
C1308 C 0.00692 0.14006 0.20652 0.0
C1309 C 0.05606 0.14334 0.19202 0.0
C1310 C 0.01685 0.12491 0.21773 0.0
C1311 C 0.04531 0.11788 0.21601 0.0
H1312 H 0.91604 0.00471 0.21147 0.0
H1313 H 0.82299 0.9928 0.18839 0.0
H1314 H 0.81106 0.93368 0.17919 0.0
H1315 H 0.82905 0.88626 0.17734 0.0
H1316 H 0.92405 0.9023 0.20013 0.0
H1317 H 0.93427 0.96 0.20938 0.0
C1318 C 0.89289 0.98917 0.20453 0.0
C1319 C 0.87029 0.00284 0.20067 0.0
C1320 C 0.88719 0.95647 0.19895 0.0
C1321 C 0.84065 0.98254 0.19154 0.0
C1322 C 0.83405 0.94901 0.1862 0.0
C1323 C 0.8519 0.90269 0.18428 0.0
C1324 C 0.87539 0.89021 0.18837 0.0
C1325 C 0.85749 0.93591 0.1897 0.0
C1326 C 0.90536 0.91148 0.19714 0.0
C1327 C 0.91122 0.94435 0.20242 0.0
H1328 H 0.09756 0.96662 0.15188 0.0
H1329 H 0.10246 0.9759 0.19778 0.0
H1330 H 0.05485 0.91375 0.20024 0.0
H1331 H 0.00435 0.86225 0.18991 0.0
H1332 H 0.98193 0.86104 0.14501 0.0
H1333 H 0.04361 0.91256 0.14113 0.0
C1334 C 0.08862 0.95437 0.16233 0.0
C1335 C 0.10592 0.97451 0.1747 0.0
C1336 C 0.05759 0.91975 0.16367 0.0
C1337 C 0.09237 0.95965 0.18819 0.0
C1338 C 0.06439 0.92432 0.18959 0.0
C1339 C 0.01345 0.87259 0.17918 0.0
C1340 C 0.98893 0.8586 0.16782 0.0
C1341 C 0.04616 0.90462 0.17745 0.0
C1342 C 0.00066 0.87159 0.15392 0.0
C1343 C 0.03556 0.90152 0.1518 0.0
H1344 H 0.17498 0.07863 0.33554 0.0
H1345 H 0.19787 0.11523 0.29217 0.0
H1346 H 0.16986 0.05288 0.28367 0.0
H1347 H 0.12166 0.9895 0.2897 0.0
H1348 H 0.11664 0.95152 0.33264 0.0
H1349 H 0.15473 0.01394 0.34081 0.0
C1350 C 0.17682 0.07324 0.32431 0.0
C1351 C 0.1841 0.10041 0.31421 0.0
C1352 C 0.1628 0.03723 0.31966 0.0
C1353 C 0.18929 0.09376 0.29996 0.0
C1354 C 0.17276 0.05799 0.29506 0.0
C1355 C 0.13218 0.99396 0.30043 0.0
C1356 C 0.11719 0.96547 0.31032 0.0
C1357 C 0.15688 0.02941 0.30489 0.0
C1358 C 0.12794 0.97297 0.32475 0.0
C1359 C 0.14985 0.00864 0.32945 0.0
H1360 H 0.92343 0.99104 0.33901 0.0
H1361 H 0.90027 0.07688 0.34724 0.0
H1362 H 0.96524 0.12196 0.345 0.0
H1363 H 0.02523 0.13654 0.33457 0.0
H1364 H 0.04094 0.04855 0.32096 0.0
H1365 H 0.98255 0.00459 0.33105 0.0
C1366 C 0.93285 0.01964 0.34075 0.0
C1367 C 0.9075 0.03092 0.34307 0.0
C1368 C 0.96887 0.04496 0.33788 0.0
C1369 C 0.91958 0.06773 0.34552 0.0
C1370 C 0.95658 0.09342 0.34395 0.0
C1371 C 0.01577 0.10773 0.33406 0.0
C1372 C 0.03643 0.09535 0.32678 0.0
C1373 C 0.98097 0.08242 0.33912 0.0
C1374 C 0.02476 0.05826 0.32628 0.0
C1375 C 0.99157 0.03323 0.33209 0.0
H1376 H 0.85716 0.92215 0.30422 0.0
H1377 H 0.81675 0.85267 0.34097 0.0
H1378 H 0.86321 0.83497 0.33744 0.0
H1379 H 0.92002 0.84552 0.32494 0.0
H1380 H 0.95508 0.91381 0.28742 0.0
H1381 H 0.90371 0.92318 0.28962 0.0
C1382 C 0.8565 0.90108 0.31087 0.0
C1383 C 0.8323 0.88737 0.32236 0.0
C1384 C 0.88273 0.89114 0.30872 0.0
C1385 C 0.83445 0.86276 0.33174 0.0
C1386 C 0.86119 0.85293 0.32978 0.0
C1387 C 0.91607 0.86209 0.31718 0.0
C1388 C 0.94198 0.87979 0.30629 0.0
C1389 C 0.88629 0.86791 0.31849 0.0
C1390 C 0.93626 0.90073 0.29616 0.0
C1391 C 0.90694 0.90622 0.29736 0.0
H1392 H 0.93797 0.79633 0.81402 0.0
H1393 H 0.9393 0.87684 0.84244 0.0
H1394 H 0.00387 0.90149 0.84671 0.0
H1395 H 0.06159 0.90884 0.83758 0.0
H1396 H 0.06064 0.82448 0.81185 0.0
H1397 H -0.00615 0.79105 0.81208 0.0
C1398 C 0.95192 0.81787 0.8218 0.0
C1399 C 0.93415 0.8355 0.82754 0.0
C1400 C 0.98919 0.83171 0.82441 0.0
C1401 C 0.95235 0.86295 0.8378 0.0
C1402 C 0.98957 0.87758 0.84004 0.0
C1403 C 0.04671 0.88301 0.83207 0.0
C1404 C 0.06558 0.87055 0.82358 0.0
C1405 C 0.00861 0.86379 0.83253 0.0
C1406 C 0.04634 0.83584 0.81747 0.0
C1407 C 0.00827 0.81655 0.81781 0.0
H1408 H 0.15386 0.13646 0.81249 0.0
H1409 H 0.0406 0.07291 0.82289 0.0
H1410 H 0.04393 0.01807 0.82299 0.0
H1411 H 0.07733 0.98638 0.81674 0.0
H1412 H 0.19093 0.04847 0.80707 0.0
H1413 H 0.18971 0.1052 0.80975 0.0
C1414 C 0.12987 0.11029 0.81432 0.0
C1415 C 0.09614 0.10792 0.81628 0.0
C1416 C 0.13204 0.07844 0.81417 0.0
C1417 C 0.06594 0.07468 0.82004 0.0
C1418 C 0.06791 0.04324 0.82018 0.0
C1419 C 0.1013 0.01242 0.81494 0.0
C1420 C 0.13349 0.01373 0.81109 0.0
C1421 C 0.10028 0.0445 0.8165 0.0
C1422 C 0.16556 0.04728 0.80968 0.0
C1423 C 0.1649 0.07956 0.81127 0.0
H1424 H 0.89079 0.95185 0.79146 0.0
H1425 H 0.93249 0.95569 0.83383 0.0
H1426 H 0.96954 0.02133 0.83238 0.0
H1427 H 0.99175 0.07681 0.81896 0.0
H1428 H 0.96809 0.07257 0.77403 0.0
H1429 H 0.9195 0.00878 0.7767 0.0
C1430 C 0.90927 0.96698 0.80006 0.0
C1431 C 0.91026 0.94885 0.81247 0.0
C1432 C 0.93249 0.00471 0.7988 0.0
C1433 C 0.93205 0.96901 0.82403 0.0
C1434 C 0.95303 0.0065 0.82326 0.0
C1435 C 0.97682 0.06173 0.8096 0.0
C1436 C 0.98386 0.07902 0.79631 0.0
C1437 C 0.95375 0.02444 0.81066 0.0
C1438 C 0.96313 0.05965 0.7844 0.0
C1439 C 0.93599 0.02312 0.78588 0.0
H1440 H 0.88104 0.04051 0.68812 0.0
H1441 H 0.79649 0.02085 0.71818 0.0
H1442 H 0.77074 0.95505 0.7153 0.0
H1443 H 0.78337 0.90554 0.70927 0.0
H1444 H 0.87015 0.9268 0.68011 0.0
H1445 H 0.88411 0.98948 0.67749 0.0
C1446 C 0.85671 0.02169 0.69391 0.0
C1447 C 0.84187 0.03501 0.70405 0.0
C1448 C 0.84279 0.98428 0.6924 0.0
C1449 C 0.80938 0.01083 0.71093 0.0
C1450 C 0.79448 0.97333 0.70913 0.0
C1451 C 0.80393 0.92346 0.70175 0.0
C1452 C 0.8259 0.91192 0.69493 0.0
C1453 C 0.81245 0.95985 0.70064 0.0
C1454 C 0.85283 0.93522 0.68535 0.0
C1455 C 0.86113 0.9712 0.68402 0.0
H1456 H 0.04853 0.99116 0.69379 0.0
H1457 H 0.06718 0.94081 0.73014 0.0
H1458 H 0.00821 0.88557 0.7262 0.0
H1459 H 0.94717 0.85644 0.71484 0.0
H1460 H 0.92769 0.91138 0.68031 0.0
H1461 H 0.99083 0.96006 0.68107 0.0
C1462 C 0.03982 0.9678 0.7007 0.0
C1463 C 0.06171 0.96976 0.71224 0.0
C1464 C 0.00535 0.93742 0.69888 0.0
C1465 C 0.05041 0.93969 0.72123 0.0
C1466 C 0.01682 0.90825 0.71896 0.0
C1467 C 0.95699 0.87918 0.70754 0.0
C1468 C 0.93272 0.88151 0.69803 0.0
C1469 C -0.00674 0.90758 0.70828 0.0
C1470 C 0.94582 0.90985 0.68805 0.0
C1471 C 0.98186 0.9376 0.68845 0.0
H1472 H 0.02481 0.1587 0.71647 0.0
H1473 H 0.94742 0.05647 0.69754 0.0
H1474 H -0.00372 0.04516 0.69059 0.0
H1475 H 0.05947 0.06027 0.69316 0.0
H1476 H 0.13682 0.16007 0.71355 0.0
H1477 H 0.09021 0.17768 0.7161 0.0
C1478 C 0.01905 0.13448 0.71052 0.0
C1479 C 0.983 0.10805 0.70767 0.0
C1480 C 0.04724 0.12795 0.70681 0.0
C1481 C 0.97522 0.07669 0.7 0.0
C1482 C 0.00306 0.07034 0.69599 0.0
C1483 C 0.06601 0.08603 0.698 0.0
C1484 C 0.10052 0.1082 0.70382 0.0
C1485 C 0.03892 0.09508 0.69985 0.0
C1486 C 0.10965 0.14207 0.70961 0.0
C1487 C 0.08315 0.15215 0.71096 0.0
H1488 H 0.6643 0.49476 0.49927 0.0
H1489 H 0.64633 0.43974 0.53959 0.0
H1490 H 0.7108 0.46294 0.54236 0.0
H1491 H 0.77014 0.49041 0.53203 0.0
H1492 H 0.78746 0.52945 0.48871 0.0
H1493 H 0.72668 0.52339 0.4885 0.0
C1494 C 0.67495 0.48893 0.5088 0.0
C1495 C 0.65101 0.46798 0.51982 0.0
C1496 C 0.71216 0.49986 0.50971 0.0
C1497 C 0.66453 0.45831 0.53162 0.0
C1498 C 0.70137 0.47102 0.53307 0.0
C1499 C 0.76098 0.49857 0.52264 0.0
C1500 C 0.78293 0.51018 0.5104 0.0
C1501 C 0.72521 0.49113 0.52208 0.0
C1502 C 0.77107 0.5208 0.49832 0.0
C1503 C 0.73605 0.51656 0.49813 0.0
H1504 H 0.58595 0.32482 0.52828 0.0
H1505 H 0.50245 0.28947 0.49606 0.0
H1506 H 0.50736 0.23489 0.49181 0.0
H1507 H 0.53863 0.19923 0.49674 0.0
H1508 H 0.62474 0.24056 0.52802 0.0
H1509 H 0.6162 0.29167 0.53289 0.0
C1510 C 0.56856 0.30533 0.5203 0.0
C1511 C 0.54396 0.31126 0.51245 0.0
C1512 C 0.57235 0.2753 0.51768 0.0
C1513 C 0.52168 0.28547 0.50223 0.0
C1514 C 0.52461 0.25444 0.49977 0.0
C1515 C 0.555 0.21934 0.50471 0.0
C1516 C 0.58124 0.21563 0.51247 0.0
C1517 C 0.55028 0.24932 0.50734 0.0
C1518 C 0.60345 0.2423 0.52237 0.0
C1519 C 0.59881 0.27166 0.52507 0.0
H1520 H 0.68723 0.2768 0.50187 0.0
H1521 H 0.75442 0.23295 0.48846 0.0
H1522 H 0.80607 0.29521 0.48531 0.0
H1523 H 0.83384 0.36201 0.49085 0.0
H1524 H 0.76512 0.39945 0.50903 0.0
H1525 H 0.71241 0.33982 0.50629 0.0
C1526 C 0.7132 0.28071 0.4982 0.0
C1527 C 0.71755 0.25068 0.49576 0.0
C1528 C 0.74265 0.31556 0.49769 0.0
C1529 C 0.75069 0.25592 0.49048 0.0
C1530 C 0.78016 0.29142 0.48886 0.0
C1531 C 0.80721 0.35672 0.49414 0.0
C1532 C 0.80315 0.3845 0.50046 0.0
C1533 C 0.7769 0.32144 0.4932 0.0
C1534 C 0.76872 0.37813 0.50441 0.0
C1535 C 0.73859 0.34414 0.50279 0.0
H1536 H 0.81083 0.44585 0.66163 0.0
H1537 H 0.83228 0.4766 0.61742 0.0
H1538 H 0.81933 0.41622 0.61088 0.0
H1539 H 0.78535 0.35149 0.61725 0.0
H1540 H 0.77099 0.32086 0.66162 0.0
H1541 H 0.79681 0.38432 0.66874 0.0
C1542 C 0.81532 0.44005 0.65076 0.0
C1543 C 0.82153 0.46525 0.63995 0.0
C1544 C 0.80745 0.40484 0.64707 0.0
C1545 C 0.82727 0.45753 0.62589 0.0
C1546 C 0.81901 0.42262 0.62209 0.0
C1547 C 0.79016 0.35893 0.62845 0.0
C1548 C 0.77721 0.33184 0.63887 0.0
C1549 C 0.80654 0.39548 0.63248 0.0
C1550 C 0.78122 0.34156 0.65341 0.0
C1551 C 0.79608 0.37778 0.6575 0.0
H1552 H 0.55078 0.36507 0.65921 0.0
H1553 H 0.58889 0.3079 0.6325 0.0
H1554 H 0.64911 0.36033 0.63208 0.0
H1555 H 0.68976 0.42355 0.63727 0.0
H1556 H 0.65601 0.48279 0.6645 0.0
H1557 H 0.5953 0.42848 0.66689 0.0
C1558 C 0.57248 0.36406 0.65353 0.0
C1559 C 0.56515 0.33284 0.6457 0.0
C1560 C 0.60763 0.39467 0.6533 0.0
C1561 C 0.59354 0.33175 0.63842 0.0
C1562 C 0.62813 0.36169 0.63818 0.0
C1563 C 0.66905 0.42441 0.64379 0.0
C1564 C 0.6763 0.45687 0.65029 0.0
C1565 C 0.63515 0.39346 0.64522 0.0
C1566 C 0.65021 0.4579 0.65913 0.0
C1567 C 0.61575 0.42693 0.66051 0.0
H1568 H 0.59723 0.16645 0.64235 0.0
H1569 H 0.62624 0.22928 0.60343 0.0
H1570 H 0.5659 0.22197 0.60214 0.0
H1571 H 0.51252 0.21135 0.61519 0.0
H1572 H 0.48203 0.15009 0.65429 0.0
H1573 H 0.5358 0.14319 0.65251 0.0
C1574 C 0.58997 0.17769 0.6334 0.0
C1575 C 0.61643 0.19936 0.62326 0.0
C1576 C 0.5553 0.17402 0.63288 0.0
C1577 C 0.60661 0.2133 0.61158 0.0
C1578 C 0.57209 0.20909 0.61081 0.0
C1579 C 0.51587 0.19404 0.62274 0.0
C1580 C 0.49275 0.18033 0.63461 0.0
C1581 C 0.54706 0.19124 0.62181 0.0
C1582 C 0.49917 0.16029 0.64491 0.0
C1583 C 0.53013 0.15678 0.64397 0.0
H1584 H 0.69589 0.27112 0.15951 0.0
H1585 H 0.73461 0.22333 0.12865 0.0
H1586 H 0.67239 0.18352 0.12011 0.0
H1587 H 0.61005 0.17449 0.11755 0.0
H1588 H 0.57196 0.22201 0.14893 0.0
H1589 H 0.63074 0.25044 0.16088 0.0
C1590 C 0.69051 0.25168 0.15101 0.0
C1591 C 0.71962 0.25165 0.14398 0.0
C1592 C 0.65492 0.22959 0.14601 0.0
C1593 C 0.71252 0.22519 0.13355 0.0
C1594 C 0.67699 0.20229 0.12876 0.0
C1595 C 0.61433 0.18989 0.12732 0.0
C1596 C 0.58703 0.19656 0.13229 0.0
C1597 C 0.64834 0.20613 0.13422 0.0
C1598 C 0.59268 0.21653 0.14495 0.0
C1599 C 0.62637 0.23302 0.15174 0.0
H1600 H 0.82336 0.44767 0.14184 0.0
H1601 H 0.73915 0.35686 0.16476 0.0
H1602 H 0.70638 0.38971 0.16839 0.0
H1603 H 0.69643 0.43933 0.16094 0.0
H1604 H 0.78023 0.53047 0.13814 0.0
H1605 H 0.81968 0.50382 0.13935 0.0
C1606 C 0.79861 0.43586 0.14811 0.0
C1607 C 0.78335 0.40002 0.15296 0.0
C1608 C 0.77987 0.45493 0.15012 0.0
C1609 C 0.75125 0.38458 0.16102 0.0
C1610 C 0.73241 0.40322 0.16299 0.0
C1611 C 0.72355 0.45343 0.15642 0.0
C1612 C 0.73493 0.48548 0.1487 0.0
C1613 C 0.74554 0.43759 0.15693 0.0
C1614 C 0.7705 0.50466 0.14345 0.0
C1615 C 0.79304 0.48957 0.14424 0.0
H1616 H 0.54332 0.27847 0.14544 0.0
H1617 H 0.48298 0.27119 0.1075 0.0
H1618 H 0.50974 0.33739 0.1073 0.0
H1619 H 0.56079 0.39734 0.11507 0.0
H1620 H 0.61773 0.40349 0.154 0.0
H1621 H 0.58256 0.33773 0.15654 0.0
C1622 C 0.53595 0.2915 0.13719 0.0
C1623 C 0.51368 0.27085 0.12584 0.0
C1624 C 0.55144 0.32927 0.13718 0.0
C1625 C 0.50232 0.2873 0.11572 0.0
C1626 C 0.51725 0.32496 0.11571 0.0
C1627 C 0.56441 0.38423 0.12434 0.0
C1628 C 0.59189 0.40482 0.13425 0.0
C1629 C 0.54365 0.34637 0.12587 0.0
C1630 C 0.59654 0.38791 0.14628 0.0
C1631 C 0.57667 0.35035 0.14769 0.0
H1632 H 0.53583 0.38788 0.00955 0.0
H1633 H 0.63724 0.41601 0.98922 0.0
H1634 H 0.61983 0.35221 0.98745 0.0
H1635 H 0.58014 0.28965 -0.00457 0.0
H1636 H 0.47788 0.25987 0.01539 0.0
H1637 H 0.48949 0.32222 0.01248 0.0
C1638 C 0.55387 0.37981 0.0047 0.0
C1639 C 0.58917 0.4065 0.00069 0.0
C1640 C 0.54299 0.34268 0.0033 0.0
C1641 C 0.61125 0.3959 0.99344 0.0
C1642 C 0.601 0.3594 0.99218 0.0
C1643 C 0.5601 0.29674 -0.00115 0.0
C1644 C 0.5286 0.27075 0.00582 0.0
C1645 C 0.56773 0.33272 -0.00227 0.0
C1646 C 0.5025 0.27977 0.0101 0.0
C1647 C 0.50926 0.31541 0.00849 0.0
H1648 H 0.74402 0.33176 0.01249 0.0
H1649 H 0.74849 0.25612 0.04168 0.0
H1650 H 0.68963 0.20763 0.03269 0.0
H1651 H 0.63176 0.19086 0.02011 0.0
H1652 H 0.62656 0.26931 0.99272 0.0
H1653 H 0.69011 0.31305 -0.00228 0.0
C1654 C 0.73203 0.30455 0.01683 0.0
C1655 C 0.7497 0.29742 0.02793 0.0
C1656 C 0.69754 0.27782 0.01229 0.0
C1657 C 0.73474 0.26213 0.0333 0.0
C1658 C 0.70121 0.23457 0.02817 0.0
C1659 C 0.64478 0.21754 0.01526 0.0
C1660 C 0.62433 0.2278 0.00669 0.0
C1661 C 0.68136 0.2427 0.01832 0.0
C1662 C 0.64164 0.26153 -0.00022 0.0
C1663 C 0.67795 0.28643 0.00259 0.0
H1664 H 0.78249 0.41396 0.00658 0.0
H1665 H 0.85054 0.48726 0.03942 0.0
H1666 H 0.81583 0.51915 0.03877 0.0
H1667 H 0.75738 0.51629 0.03249 0.0
H1668 H 0.69293 0.44539 -0.00163 0.0
H1669 H 0.73406 0.42155 -0.00391 0.0
C1670 C 0.78988 0.43722 0.01345 0.0
C1671 C 0.81707 0.44696 0.02372 0.0
C1672 C 0.76977 0.45502 0.01305 0.0
C1673 C 0.82797 0.47814 0.03206 0.0
C1674 C 0.80838 0.49646 0.03161 0.0
C1675 C 0.75318 0.4965 0.0243 0.0
C1676 C 0.72177 0.48167 0.01584 0.0
C1677 C 0.77768 0.48357 0.0228 0.0
C1678 C 0.7166 0.45644 0.00513 0.0
C1679 C 0.74014 0.44287 0.00382 0.0
H1680 H 0.31201 0.7742 0.84246 0.0
H1681 H 0.2731 0.67322 0.86487 0.0
H1682 H 0.33073 0.67538 0.86091 0.0
H1683 H 0.39042 0.70485 0.85099 0.0
H1684 H 0.43346 0.80727 0.82898 0.0
H1685 H 0.37528 0.8057 0.83269 0.0
C1686 C 0.3167 0.75315 0.84661 0.0
C1687 C 0.28927 0.72418 0.85443 0.0
C1688 C 0.35004 0.75468 0.8442 0.0
C1689 C 0.29459 0.69626 0.85936 0.0
C1690 C 0.32726 0.69735 0.85694 0.0
C1691 C 0.38751 0.7271 0.84692 0.0
C1692 C 0.41627 0.75616 0.83964 0.0
C1693 C 0.35496 0.72633 0.84937 0.0
C1694 C 0.41159 0.78448 0.8345 0.0
C1695 C 0.37849 0.78363 0.83671 0.0
H1696 H 0.1079 0.57721 0.83454 0.0
H1697 H 0.20862 0.66619 0.81929 0.0
H1698 H 0.23172 0.62529 0.81457 0.0
H1699 H 0.22866 0.56826 0.82232 0.0
H1700 H 0.12454 0.47549 0.83089 0.0
H1701 H 0.09604 0.51366 0.83003 0.0
C1702 C 0.13374 0.58723 0.82914 0.0
C1703 C 0.15747 0.6248 0.82803 0.0
C1704 C 0.14657 0.56329 0.82602 0.0
C1705 C 0.19028 0.63732 0.82057 0.0
C1706 C 0.20396 0.61408 0.8182 0.0
C1707 C 0.19959 0.55629 0.82379 0.0
C1708 C 0.17902 0.52051 0.82868 0.0
C1709 C 0.18334 0.57764 0.82216 0.0
C1710 C 0.14119 0.50425 0.8291 0.0
C1711 C 0.12495 0.52582 0.82821 0.0
H1712 H 0.36374 0.55483 0.81392 0.0
H1713 H 0.33292 0.55864 0.8576 0.0
H1714 H 0.39389 0.60592 0.86322 0.0
H1715 H 0.44981 0.65488 0.85441 0.0
H1716 H 0.48486 0.6546 0.81133 0.0
H1717 H 0.42818 0.5977 0.80656 0.0
C1718 C 0.37095 0.56537 0.82471 0.0
C1719 C 0.34395 0.55365 0.83531 0.0
C1720 C 0.4065 0.59355 0.82789 0.0
C1721 C 0.35332 0.56741 0.84928 0.0
C1722 C 0.38819 0.59456 0.85252 0.0
C1723 C 0.44685 0.64099 0.84438 0.0
C1724 C 0.47231 0.65828 0.83349 0.0
C1725 C 0.4144 0.60896 0.84177 0.0
C1726 C 0.46599 0.64131 0.82003 0.0
C1727 C 0.43337 0.60902 0.81726 0.0
H1728 H 0.49171 0.68321 0.97495 0.0
H1729 H 0.38331 0.62178 0.95782 0.0
H1730 H 0.37448 0.67349 0.96073 0.0
H1731 H 0.39878 0.73616 0.96553 0.0
H1732 H 0.51032 0.80382 0.97852 0.0
H1733 H 0.51667 0.74944 0.98042 0.0
C1734 C 0.46633 0.68153 0.97195 0.0
C1735 C 0.43838 0.64941 0.96589 0.0
C1736 C 0.46205 0.71219 0.97301 0.0
C1737 C 0.40525 0.6467 0.96224 0.0
C1738 C 0.40016 0.6761 0.96394 0.0
C1739 C 0.42474 0.73945 0.96878 0.0
C1740 C 0.45433 0.77405 0.97157 0.0
C1741 C 0.42868 0.70907 0.96888 0.0
C1742 C 0.48723 0.7774 0.97621 0.0
C1743 C 0.49083 0.74638 0.9772 0.0
H1744 H 0.23493 0.68843 0.98425 0.0
H1745 H 0.27552 0.65263 0.94904 0.0
H1746 H 0.32409 0.71381 0.94521 0.0
H1747 H 0.35644 0.77589 0.95205 0.0
H1748 H 0.32159 0.81578 0.98745 0.0
H1749 H 0.26872 0.75446 0.99094 0.0
C1750 C 0.25448 0.69421 0.97578 0.0
C1751 C 0.2516 0.6659 0.967 0.0
C1752 C 0.28288 0.73002 0.97353 0.0
C1753 C 0.27698 0.67371 0.956 0.0
C1754 C 0.30481 0.70878 0.95372 0.0
C1755 C 0.3368 0.77168 0.96029 0.0
C1756 C 0.34209 0.80044 0.96917 0.0
C1757 C 0.30796 0.7369 0.9624 0.0
C1758 C 0.31738 0.79405 0.98026 0.0
C1759 C 0.28749 0.75904 0.98229 0.0
H1760 H 0.21513 0.49452 0.9865 0.0
H1761 H 0.21071 0.51319 0.94155 0.0
H1762 H 0.25402 0.494 0.93651 0.0
H1763 H 0.30541 0.49084 0.94526 0.0
H1764 H 0.32552 0.49439 0.99039 0.0
H1765 H 0.26468 0.48499 -0.0047 0.0
C1766 C 0.22274 0.4928 0.97557 0.0
C1767 C 0.20764 0.50271 0.96424 0.0
C1768 C 0.25175 0.48658 0.97297 0.0
C1769 C 0.21901 0.50232 0.95023 0.0
C1770 C 0.24496 0.49247 0.94742 0.0
C1771 C 0.29577 0.48776 0.95614 0.0
C1772 C 0.31979 0.4935 0.9674 0.0
C1773 C 0.26304 0.48683 0.95875 0.0
C1774 C 0.30731 0.48974 0.98153 0.0
C1775 C 0.27282 0.4852 0.9843 0.0
H1776 H 0.25306 0.57488 0.4666 0.0
H1777 H 0.23993 0.50609 0.43071 0.0
H1778 H 0.30168 0.51632 0.43449 0.0
H1779 H 0.36283 0.55418 0.44542 0.0
H1780 H 0.37607 0.6295 0.47897 0.0
H1781 H 0.31126 0.60823 0.47863 0.0
C1782 C 0.26371 0.56197 0.45971 0.0
C1783 C 0.24258 0.54016 0.44839 0.0
C1784 C 0.29961 0.57011 0.4613 0.0
C1785 C 0.25613 0.52315 0.43948 0.0
C1786 C 0.29134 0.52913 0.44162 0.0
C1787 C 0.3513 0.56584 0.45256 0.0
C1788 C 0.37412 0.59445 0.46173 0.0
C1789 C 0.314 0.55418 0.45201 0.0
C1790 C 0.35898 0.60815 0.47154 0.0
C1791 C 0.32199 0.596 0.47138 0.0
H1792 H 0.4348 0.71172 0.47527 0.0
H1793 H 0.51582 0.77001 0.44319 0.0
H1794 H 0.50469 0.82111 0.4451 0.0
H1795 H 0.46093 0.84166 0.45149 0.0
H1796 H 0.37607 0.77932 0.48181 0.0
H1797 H 0.39894 0.73745 0.48491 0.0
C1798 C 0.45099 0.73629 0.46915 0.0
C1799 C 0.47612 0.73734 0.45916 0.0
C1800 C 0.44253 0.76425 0.46957 0.0
C1801 C 0.49654 0.76887 0.45104 0.0
C1802 C 0.48986 0.7979 0.45204 0.0
C1803 C 0.44763 0.81887 0.45874 0.0
C1804 C 0.41552 0.81209 0.46572 0.0
C1805 C 0.46099 0.79466 0.46045 0.0
C1806 C 0.39981 0.78394 0.47581 0.0
C1807 C 0.4131 0.76022 0.47772 0.0
H1808 H 0.30258 0.73845 0.47355 0.0
H1809 H 0.2344 0.77366 0.45367 0.0
H1810 H 0.18261 0.71153 0.45457 0.0
H1811 H 0.1612 0.64557 0.45618 0.0
H1812 H 0.23177 0.61118 0.47441 0.0
H1813 H 0.27868 0.67408 0.47847 0.0
C1814 C 0.27604 0.73254 0.46981 0.0
C1815 C 0.27195 0.76019 0.46362 0.0
C1816 C 0.24749 0.69661 0.46935 0.0
C1817 C 0.23776 0.75262 0.45869 0.0
C1818 C 0.20842 0.71706 0.45899 0.0
C1819 C 0.18695 0.65212 0.46099 0.0
C1820 C 0.19441 0.62427 0.46407 0.0
C1821 C 0.21367 0.68853 0.46341 0.0
C1822 C 0.22667 0.63254 0.47115 0.0
C1823 C 0.2532 0.66841 0.47367 0.0
H1824 H 0.15249 0.61522 0.35579 0.0
H1825 H 0.2627 0.67826 0.34091 0.0
H1826 H 0.26784 0.62387 0.33968 0.0
H1827 H 0.24407 0.56016 0.34553 0.0
H1828 H 0.13428 0.49572 0.36053 0.0
H1829 H 0.12586 0.54871 0.35921 0.0
C1830 C 0.17767 0.61681 0.35247 0.0
C1831 C 0.20787 0.65055 0.34918 0.0
C1832 C 0.18084 0.58552 0.35216 0.0
C1833 C 0.23978 0.65255 0.3441 0.0
C1834 C 0.24286 0.62163 0.34348 0.0
C1835 C 0.21868 0.55813 0.34888 0.0
C1836 C 0.19043 0.52508 0.35384 0.0
C1837 C 0.21422 0.58839 0.34809 0.0
C1838 C 0.15681 0.52166 0.35731 0.0
C1839 C 0.15191 0.55171 0.35636 0.0
H1840 H 0.28049 0.52635 0.32013 0.0
H1841 H 0.29951 0.44517 0.33876 0.0
H1842 H 0.36537 0.48678 0.33756 0.0
H1843 H 0.41543 0.55053 0.33591 0.0
H1844 H 0.39661 0.62939 0.31483 0.0
H1845 H 0.33273 0.58395 0.31163 0.0
C1846 C 0.29918 0.51786 0.3239 0.0
C1847 C 0.28564 0.48427 0.33084 0.0
C1848 C 0.33679 0.54134 0.32257 0.0
C1849 C 0.30971 0.4723 0.33465 0.0
C1850 C 0.34721 0.49575 0.33365 0.0
C1851 C 0.39784 0.55714 0.32981 0.0
C1852 C 0.41042 0.59349 0.32596 0.0
C1853 C 0.36095 0.53103 0.32832 0.0
C1854 C 0.38757 0.60164 0.31792 0.0
C1855 C 0.35073 0.57587 0.31646 0.0
H1856 H 0.34691 0.75276 0.38028 0.0
H1857 H 0.31153 0.74597 0.33651 0.0
H1858 H 0.35943 0.73541 0.32836 0.0
H1859 H 0.40654 0.72052 0.33377 0.0
H1860 H 0.4495 0.73601 0.3764 0.0
H1861 H 0.40467 0.75224 0.38484 0.0
C1862 C 0.35038 0.75001 0.36895 0.0
C1863 C 0.32516 0.74961 0.35909 0.0
C1864 C 0.37904 0.74502 0.36413 0.0
C1865 C 0.33035 0.74639 0.3444 0.0
C1866 C 0.35767 0.74004 0.33967 0.0
C1867 C 0.40605 0.7275 0.34491 0.0
C1868 C 0.42884 0.724 0.35476 0.0
C1869 C 0.38126 0.73797 0.34947 0.0
C1870 C 0.42991 0.7356 0.36892 0.0
C1871 C 0.40472 0.74542 0.37367 0.0
H1872 H 0.17711 0.12002 0.2706 0.0
H1873 H 0.1023 0.14514 0.24954 0.0
H1874 H 0.12779 0.14356 0.22643 0.0
H1875 H 0.16422 0.12563 0.21217 0.0
H1876 H 0.23372 0.09295 0.23296 0.0
H1877 H 0.21898 0.10909 0.25629 0.0
C1878 C 0.16668 0.12553 0.26099 0.0
C1879 C 0.13771 0.13241 0.26182 0.0
C1880 C 0.18039 0.12299 0.24767 0.0
C1881 C 0.12435 0.13939 0.24921 0.0
C1882 C 0.13881 0.13835 0.23597 0.0
C1883 C 0.1767 0.12254 0.22176 0.0
C1884 C 0.19982 0.10788 0.22089 0.0
C1885 C 0.16587 0.12884 0.23506 0.0
C1886 C 0.21565 0.10396 0.23341 0.0
C1887 C 0.20681 0.11258 0.24671 0.0
H1888 H 0.89 0.12731 0.26562 0.0
H1889 H 0.81026 0.05728 0.23462 0.0
H1890 H 0.77365 0.01622 0.25357 0.0
H1891 H 0.77123 0.99396 0.27781 0.0
H1892 H 0.85105 0.0626 0.3089 0.0
H1893 H 0.88034 0.11063 0.2911 0.0
C1894 C 0.86413 0.10364 0.26303 0.0
C1895 C 0.85357 0.09481 0.24865 0.0
C1896 C 0.84352 0.07949 0.27397 0.0
C1897 C 0.81957 0.06434 0.24556 0.0
C1898 C 0.79859 0.0407 0.25639 0.0
C1899 C 0.79447 0.01979 0.28081 0.0
C1900 C 0.80984 0.02426 0.29448 0.0
C1901 C 0.81139 0.04696 0.27048 0.0
C1902 C 0.83927 0.05821 0.29833 0.0
C1903 C 0.85611 0.08564 0.28813 0.0
H1904 H 0.03107 0.84092 0.24409 0.0
H1905 H 0.9485 0.79588 0.2769 0.0
H1906 H 0.90258 0.76218 0.25902 0.0
H1907 H 0.8841 0.75424 0.23404 0.0
H1908 H 0.96522 0.80037 0.20092 0.0
H1909 H 0.01323 0.82316 0.21887 0.0
C1910 C 0.00315 0.82328 0.24735 0.0
C1911 C -0.00669 0.8219 0.26183 0.0
C1912 C 0.97642 0.80385 0.23694 0.0
C1913 C 0.95699 0.79829 0.26584 0.0
C1914 C 0.93054 0.77875 0.25561 0.0
C1915 C 0.91231 0.76802 0.23071 0.0
C1916 C 0.92095 0.77638 0.21621 0.0
C1917 C 0.93969 0.78247 0.24111 0.0
C1918 C 0.95766 0.79377 0.21204 0.0
C1919 C 0.98523 0.80742 0.22234 0.0
H1920 H 0.74452 0.80288 0.74194 0.0
H1921 H 0.777 0.72783 0.72704 0.0
H1922 H 0.78503 0.71415 0.75156 0.0
H1923 H 0.80731 0.7449 0.77525 0.0
H1924 H 0.7686 0.81501 0.79052 0.0
H1925 H 0.73836 0.80935 0.76785 0.0
C1926 C 0.75066 0.78149 0.74408 0.0
C1927 C 0.76318 0.76865 0.73286 0.0
C1928 C 0.75597 0.77443 0.75826 0.0
C1929 C 0.76885 0.7394 0.73561 0.0
C1930 C 0.77435 0.73216 0.74971 0.0
C1931 C 0.79021 0.75686 0.77395 0.0
C1932 C 0.79105 0.78122 0.78429 0.0
C1933 C 0.77198 0.75281 0.76092 0.0
C1934 C 0.76858 0.79639 0.7826 0.0
C1935 C 0.75151 0.79348 0.76955 0.0
H1936 H 0.21985 0.9546 0.76592 0.0
H1937 H 0.23862 0.03392 0.79833 0.0
H1938 H 0.24325 0.07682 0.78009 0.0
H1939 H 0.22164 0.08252 0.75621 0.0
H1940 H 0.20108 0.00202 0.72392 0.0
H1941 H 0.2178 0.96898 0.74065 0.0
C1942 C 0.22743 0.98217 0.76887 0.0
C1943 C 0.22746 0.99075 0.78339 0.0
C1944 C 0.22799 0.00583 0.75833 0.0
C1945 C 0.23789 0.02657 0.78719 0.0
C1946 C 0.23958 0.05081 0.77675 0.0
C1947 C 0.22208 0.05843 0.75274 0.0
C1948 C 0.20911 0.04403 0.73906 0.0
C1949 C 0.23139 0.03936 0.76247 0.0
C1950 C 0.21055 0.01333 0.73448 0.0
C1951 C 0.21995 0.99432 0.74407 0.0
H1952 H -0.00258 0.21486 0.7333 0.0
H1953 H 0.9108 0.17948 0.76399 0.0
H1954 H 0.95474 0.20719 0.78335 0.0
H1955 H 0.01459 0.22098 0.79158 0.0
H1956 H 0.09954 0.24552 0.761 0.0
H1957 H 0.06048 0.24412 0.74162 0.0
C1958 C 0.98839 0.2151 0.74415 0.0
C1959 C 0.95126 0.19499 0.74737 0.0
C1960 C 0.01381 0.22837 0.7553 0.0
C1961 C 0.93943 0.1948 0.76139 0.0
C1962 C 0.96458 0.21027 0.77245 0.0
C1963 C 0.02518 0.22794 0.78078 0.0
C1964 C 0.05921 0.23189 0.77756 0.0
C1965 C 0.00157 0.22418 0.76963 0.0
C1966 C 0.07291 0.24134 0.76359 0.0
C1967 C 0.05044 0.24018 0.75251 0.0
H1968 H 0.83302 0.52918 0.54647 0.0
H1969 H 0.88865 0.48459 0.57012 0.0
H1970 H 0.87293 0.50273 0.59259 0.0
H1971 H 0.83662 0.52352 0.60537 0.0
H1972 H 0.77535 0.56182 0.58216 0.0
H1973 H 0.80102 0.55524 0.55951 0.0
C1974 C 0.84248 0.52428 0.55653 0.0
C1975 C 0.86188 0.50549 0.55667 0.0
C1976 C 0.83194 0.5333 0.56942 0.0
C1977 C 0.87358 0.49889 0.56977 0.0
C1978 C 0.86453 0.50917 0.58261 0.0
C1979 C 0.82889 0.5304 0.59537 0.0
C1980 C 0.80259 0.54112 0.59526 0.0
C1981 C 0.84259 0.5251 0.58255 0.0
C1982 C 0.79417 0.55173 0.58231 0.0
C1983 C 0.809 0.54817 0.56945 0.0
H1984 H 0.5107 0.40789 0.57514 0.0
H1985 H 0.45692 0.32613 0.5425 0.0
H1986 H 0.42469 0.28059 0.56082 0.0
H1987 H 0.42031 0.26212 0.58585 0.0
H1988 H 0.4765 0.34356 0.6184 0.0
H1989 H 0.49856 0.39091 0.60036 0.0
C1990 C 0.49129 0.38033 0.57198 0.0
C1991 C 0.48696 0.37042 0.55743 0.0
C1992 C 0.4735 0.35397 0.58258 0.0
C1993 C 0.46131 0.33455 0.5536 0.0
C1994 C 0.44289 0.30837 0.56409 0.0
C1995 C 0.43655 0.29027 0.58909 0.0
C1996 C 0.4473 0.29901 0.60345 0.0
C1997 C 0.45006 0.31745 0.5786 0.0
C1998 C 0.4681 0.3358 0.60741 0.0
C1999 C 0.48095 0.36302 0.59708 0.0
H2000 H 0.63175 0.10484 0.56101 0.0
H2001 H 0.71774 0.18223 0.53395 0.0
H2002 H 0.75975 0.20234 0.55404 0.0
H2003 H 0.76685 0.20838 0.58013 0.0
H2004 H 0.67975 0.13243 0.60722 0.0
H2005 H 0.64412 0.10047 0.58629 0.0
C2006 C 0.66003 0.12513 0.55941 0.0
C2007 C 0.67136 0.14263 0.54616 0.0
C2008 C 0.68384 0.13724 0.5711 0.0
C2009 C 0.70822 0.16846 0.54411 0.0
C2010 C 0.73225 0.18027 0.55564 0.0
C2011 C 0.74065 0.18408 0.58148 0.0
C2012 C 0.72532 0.17381 0.59519 0.0
C2013 C 0.71967 0.16648 0.56936 0.0
C2014 C 0.69174 0.14163 0.59675 0.0
C2015 C 0.67118 0.1234 0.58477 0.0
H2016 H 0.46093 0.07738 0.03572 0.0
H2017 H 0.41489 0.14669 0.03293 0.0
H2018 H 0.39941 0.13747 0.0583 0.0
H2019 H 0.42144 0.13114 0.08174 0.0
H2020 H 0.49491 0.0895 0.08384 0.0
H2021 H 0.47839 0.06608 0.05935 0.0
C2022 C 0.44684 0.08983 0.0407 0.0
C2023 C 0.44157 0.11486 0.03277 0.0
C2024 C 0.44507 0.09058 0.05569 0.0
C2025 C 0.42032 0.12812 0.03888 0.0
C2026 C 0.41253 0.12377 0.05354 0.0
C2027 C 0.43333 0.11638 0.07685 0.0
C2028 C 0.4599 0.1127 0.08435 0.0
C2029 C 0.42836 0.10848 0.06219 0.0
C2030 C 0.47446 0.09269 0.07821 0.0
C2031 C 0.46539 0.07986 0.06414 0.0
H2032 H 0.91416 0.42264 0.07551 0.0
H2033 H 0.86569 0.30822 0.06742 0.0
H2034 H 0.8839 0.2997 0.09135 0.0
H2035 H 0.89285 0.32133 0.11626 0.0
H2036 H 0.9172 0.43025 0.12482 0.0
H2037 H 0.93271 0.44612 0.09974 0.0
C2038 C 0.90796 0.39595 0.07895 0.0
C2039 C 0.88739 0.3659 0.07006 0.0
C2040 C 0.91463 0.39082 0.09313 0.0
C2041 C 0.88116 0.33166 0.07422 0.0
C2042 C 0.89126 0.32683 0.08794 0.0
C2043 C 0.90289 0.34888 0.1126 0.0
C2044 C 0.90116 0.37385 0.122 0.0
C2045 C 0.90499 0.35566 0.09784 0.0
C2046 C 0.91694 0.41011 0.11765 0.0
C2047 C 0.92466 0.41883 0.10318 0.0
H2048 H 0.70658 0.58445 0.0943 0.0
H2049 H 0.59263 0.5213 0.10401 0.0
H2050 H 0.57778 0.53013 0.07961 0.0
H2051 H 0.59767 0.53767 0.05462 0.0
H2052 H 0.71154 0.59009 0.04466 0.0
H2053 H 0.72648 0.60566 0.06986 0.0
C2054 C 0.67855 0.57397 0.0912 0.0
C2055 C 0.65066 0.55152 0.1007 0.0
C2056 C 0.67046 0.57703 0.07694 0.0
C2057 C 0.61444 0.53853 0.0968 0.0
C2058 C 0.60604 0.54321 0.08279 0.0
C2059 C 0.62572 0.55411 0.05792 0.0
C2060 C 0.65352 0.56184 0.04798 0.0
C2061 C 0.63382 0.55975 0.07255 0.0
C2062 C 0.68976 0.58374 0.05217 0.0
C2063 C 0.69822 0.5919 0.06665 0.0
H2064 H 0.49826 0.83435 0.92979 0.0
H2065 H 0.43951 0.8673 0.90165 0.0
H2066 H 0.46103 0.84853 0.88098 0.0
H2067 H 0.49057 0.81697 0.87116 0.0
H2068 H 0.54679 0.78078 0.89912 0.0
H2069 H 0.53314 0.80791 0.91954 0.0
C2070 C 0.49064 0.83809 0.91913 0.0
C2071 C 0.46708 0.8521 0.91732 0.0
C2072 C 0.50231 0.82633 0.90727 0.0
C2073 C 0.45742 0.85647 0.9034 0.0
C2074 C 0.46961 0.84561 0.89156 0.0
C2075 C 0.50024 0.81521 0.88169 0.0
C2076 C 0.51952 0.79658 0.88359 0.0
C2077 C 0.49112 0.82954 0.89342 0.0
C2078 C 0.53166 0.79465 0.89735 0.0
C2079 C 0.52359 0.8099 0.90905 0.0
H2080 H 0.08794 0.55166 0.9215 0.0
H2081 H 0.13399 0.63508 0.95398 0.0
H2082 H 0.13899 0.67999 0.93686 0.0
H2083 H 0.14656 0.69754 0.91168 0.0
H2084 H 0.09932 0.61518 0.87908 0.0
H2085 H 0.07732 0.56791 0.89728 0.0
C2086 C 0.09779 0.57935 0.92498 0.0
C2087 C 0.1122 0.59022 0.93883 0.0
C2088 C 0.101 0.60544 0.915 0.0
C2089 C 0.1239 0.62608 0.94324 0.0
C2090 C 0.12681 0.65195 0.93345 0.0
C2091 C 0.12998 0.66929 0.90859 0.0
C2092 C 0.1269 0.65967 0.89407 0.0
C2093 C 0.11792 0.64235 0.9191 0.0
C2094 C 0.10391 0.62319 0.89021 0.0
C2095 C 0.09144 0.59607 0.90063 0.0
H2096 H 0.32905 0.50402 0.86911 0.0
H2097 H 0.2429 0.47767 0.89955 0.0
H2098 H 0.28218 0.4798 0.91888 0.0
H2099 H 0.34345 0.50103 0.92752 0.0
H2100 H 0.43169 0.53498 0.89789 0.0
H2101 H 0.38901 0.51709 0.87774 0.0
C2102 C 0.31882 0.49884 0.87998 0.0
C2103 C 0.28342 0.49188 0.88293 0.0
C2104 C 0.34196 0.5016 0.89116 0.0
C2105 C 0.27032 0.48416 0.89702 0.0
C2106 C 0.29269 0.48531 0.90809 0.0
C2107 C 0.35303 0.50323 0.91667 0.0
C2108 C 0.39036 0.51979 0.91409 0.0
C2109 C 0.3289 0.49556 0.90535 0.0
C2110 C 0.40289 0.52262 0.90003 0.0
C2111 C 0.3786 0.51284 0.88857 0.0
H2112 H 0.12688 0.43863 0.42602 0.0
H2113 H 0.08316 0.49453 0.40234 0.0
H2114 H 0.08242 0.46241 0.38048 0.0
H2115 H 0.10808 0.4299 0.36746 0.0
H2116 H 0.15407 0.37603 0.39128 0.0
H2117 H 0.13872 0.39444 0.41371 0.0
C2118 C 0.11565 0.44249 0.41621 0.0
C2119 C 0.10599 0.46954 0.41562 0.0
C2120 C 0.11623 0.42455 0.40363 0.0
C2121 C 0.09152 0.47438 0.40288 0.0
C2122 C 0.09124 0.4561 0.39039 0.0
C2123 C 0.11331 0.42086 0.37754 0.0
C2124 C 0.1329 0.40228 0.37768 0.0
C2125 C 0.10566 0.43282 0.39047 0.0
C2126 C 0.1394 0.39073 0.39088 0.0
C2127 C 0.13094 0.40156 0.40374 0.0
H2128 H 0.51687 0.6023 0.3804 0.0
H2129 H 0.56774 0.71607 0.37052 0.0
H2130 H 0.58778 0.73161 0.39509 0.0
H2131 H 0.56785 0.71054 0.41986 0.0
H2132 H 0.52512 0.59793 0.42983 0.0
H2133 H 0.52635 0.58405 0.40461 0.0
C2134 C 0.53466 0.63042 0.38337 0.0
C2135 C 0.53948 0.65798 0.37387 0.0
C2136 C 0.54665 0.6393 0.39759 0.0
C2137 C 0.56315 0.69433 0.37772 0.0
C2138 C 0.57419 0.70334 0.3919 0.0
C2139 C 0.56161 0.68351 0.41666 0.0
C2140 C 0.54415 0.65483 0.42638 0.0
C2141 C 0.56286 0.67586 0.40213 0.0
C2142 C 0.53746 0.62024 0.42232 0.0
C2143 C 0.53748 0.61211 0.40782 0.0
H2144 H 0.26809 0.84986 0.43769 0.0
H2145 H 0.36281 0.9203 0.41307 0.0
H2146 H 0.32779 0.89957 0.39099 0.0
H2147 H 0.27847 0.84554 0.37932 0.0
H2148 H 0.18796 0.76826 0.40448 0.0
H2149 H 0.21211 0.80694 0.42554 0.0
C2150 C 0.2803 0.86242 0.42754 0.0
C2151 C 0.31799 0.88554 0.42685 0.0
C2152 C 0.2608 0.84747 0.41487 0.0
C2153 C 0.33378 0.90202 0.41377 0.0
C2154 C 0.3139 0.88942 0.4011 0.0
C2155 C 0.26318 0.83827 0.38923 0.0
C2156 C 0.23204 0.80397 0.39054 0.0
C2157 C 0.27852 0.85962 0.40151 0.0
C2158 C 0.21233 0.79446 0.40339 0.0
C2159 C 0.22627 0.81649 0.41545 0.0
H2160 H 0.28967 0.07424 0.17531 0.0
H2161 H 0.24928 0.12467 0.14625 0.0
H2162 H 0.3028 0.14365 0.13099 0.0
H2163 H 0.36102 0.14576 0.12632 0.0
H2164 H 0.39768 0.09208 0.15546 0.0
H2165 H 0.3442 0.07329 0.1702 0.0
C2166 C 0.29228 0.08953 0.16569 0.0
C2167 C 0.26558 0.09826 0.16197 0.0
C2168 C 0.32197 0.09908 0.1569 0.0
C2169 C 0.26963 0.11786 0.14939 0.0
C2170 C 0.3 0.12843 0.14064 0.0
C2171 C 0.35697 0.12951 0.13579 0.0
C2172 C 0.38323 0.12042 0.13987 0.0
C2173 C 0.32623 0.11898 0.1443 0.0
C2174 C 0.37779 0.09935 0.15211 0.0
C2175 C 0.34742 0.08885 0.1606 0.0
H2176 H 0.91666 0.23825 0.21102 0.0
H2177 H 0.88099 0.15506 0.17841 0.0
H2178 H 0.86041 0.18783 0.16368 0.0
H2179 H 0.85008 0.23789 0.16035 0.0
H2180 H 0.88293 0.32102 0.19268 0.0
H2181 H 0.90767 0.29054 0.20719 0.0
C2182 C 0.90452 0.22743 0.20067 0.0
C2183 C 0.90006 0.19413 0.19591 0.0
C2184 C 0.89234 0.24628 0.1922 0.0
C2185 C 0.8844 0.18045 0.18244 0.0
C2186 C 0.87269 0.19918 0.17395 0.0
C2187 C 0.86281 0.24957 0.17054 0.0
C2188 C 0.8645 0.28138 0.17553 0.0
C2189 C 0.87617 0.23179 0.1788 0.0
C2190 C 0.88122 0.29631 0.18869 0.0
C2191 C 0.89525 0.27891 0.19697 0.0
H2192 H 0.75641 0.69839 0.19461 0.0
H2193 H 0.79908 0.75088 0.15402 0.0
H2194 H 0.75192 0.69854 0.14144 0.0
H2195 H 0.70724 0.63449 0.14184 0.0
H2196 H 0.66761 0.57893 0.18191 0.0
H2197 H 0.70366 0.63617 0.19494 0.0
C2198 C 0.75489 0.69851 0.18304 0.0
C2199 C 0.78176 0.72779 0.17521 0.0
C2200 C 0.72817 0.66787 0.17582 0.0
C2201 C 0.77931 0.72806 0.16024 0.0
C2202 C 0.75223 0.69831 0.15303 0.0
C2203 C 0.70557 0.63534 0.15341 0.0
C2204 C 0.68556 0.60309 0.16101 0.0
C2205 C 0.72773 0.66755 0.16069 0.0
C2206 C 0.68297 0.60385 0.17594 0.0
C2207 C 0.70401 0.63638 0.18335 0.0
H2208 H 0.18578 0.36241 0.30403 0.0
H2209 H 0.07734 0.33696 0.31511 0.0
H2210 H 0.05301 0.27615 0.30465 0.0
H2211 H 0.06516 0.22717 0.29823 0.0
H2212 H 0.17549 0.25158 0.29159 0.0
H2213 H 0.19695 0.31619 0.29425 0.0
C2214 C 0.15668 0.34381 0.30368 0.0
C2215 C 0.13322 0.35321 0.31045 0.0
C2216 C 0.14362 0.3086 0.29878 0.0
C2217 C 0.09565 0.32977 0.30991 0.0
C2218 C 0.08195 0.295 0.30415 0.0
C2219 C 0.09378 0.24671 0.29713 0.0
C2220 C 0.11899 0.23491 0.29521 0.0
C2221 C 0.10601 0.28347 0.2995 0.0
C2222 C 0.1559 0.2603 0.2935 0.0
C2223 C 0.16808 0.2971 0.29495 0.0
H2224 H 0.57239 0.80943 0.32848 0.0
H2225 H 0.61471 0.75261 0.35248 0.0
H2226 H 0.67338 0.80842 0.35482 0.0
H2227 H 0.71366 0.87128 0.34798 0.0
H2228 H 0.6742 0.92571 0.32096 0.0
H2229 H 0.61236 0.87411 0.32277 0.0
C2230 C 0.59483 0.80946 0.33399 0.0
C2231 C 0.5903 0.77731 0.33988 0.0
C2232 C 0.62819 0.84153 0.33529 0.0
C2233 C 0.61852 0.77723 0.34752 0.0
C2234 C 0.65166 0.80911 0.34905 0.0
C2235 C 0.69109 0.87242 0.34311 0.0
C2236 C 0.69793 0.90195 0.33448 0.0
C2237 C 0.65684 0.84131 0.34289 0.0
C2238 C 0.66905 0.90321 0.32784 0.0
C2239 C 0.63404 0.87338 0.32855 0.0
H2240 H 0.13561 0.83888 0.29516 0.0
H2241 H 0.04691 0.79746 0.32537 0.0
H2242 H 0.07392 0.76711 0.3385 0.0
H2243 H 0.12535 0.75671 0.34233 0.0
H2244 H 0.21604 0.80362 0.31311 0.0
H2245 H 0.18556 0.828 0.29865 0.0
C2246 C 0.12176 0.82294 0.30453 0.0
C2247 C 0.0893 0.82062 0.30931 0.0
C2248 C 0.13807 0.807 0.31227 0.0
C2249 C 0.07196 0.79978 0.32148 0.0
C2250 C 0.08747 0.78258 0.32901 0.0
C2251 C 0.13821 0.77203 0.33272 0.0
C2252 C 0.17282 0.77852 0.32875 0.0
C2253 C 0.12094 0.78672 0.32467 0.0
C2254 C 0.18948 0.79858 0.31639 0.0
C2255 C 0.17205 0.81238 0.30811 0.0
H2256 H 0.73328 0.84168 0.81114 0.0
H2257 H 0.76307 0.83024 0.85412 0.0
H2258 H 0.70445 0.81918 0.86295 0.0
H2259 H 0.64321 0.80572 0.85808 0.0
H2260 H 0.60932 0.80851 0.81487 0.0
H2261 H 0.67184 0.83198 0.80649 0.0
C2262 C 0.72694 0.83712 0.82245 0.0
C2263 C 0.75198 0.83623 0.832 0.0
C2264 C 0.69277 0.82966 0.82736 0.0
C2265 C 0.74379 0.83037 0.8466 0.0
C2266 C 0.71048 0.82432 0.85165 0.0
C2267 C 0.64958 0.81197 0.84683 0.0
C2268 C 0.62179 0.80479 0.83703 0.0
C2269 C 0.68454 0.8229 0.84206 0.0
C2270 C 0.63038 0.81381 0.82258 0.0
C2271 C 0.66594 0.82668 0.81779 0.0
H2272 H 0.21198 0.82715 0.87889 0.0
H2273 H 0.25361 0.8006 0.84154 0.0
H2274 H 0.2663 0.8571 0.83013 0.0
H2275 H 0.25136 0.90483 0.82855 0.0
H2276 H 0.20217 0.9278 0.86423 0.0
H2277 H 0.20826 0.88354 0.87891 0.0
C2278 C 0.2244 0.83436 0.86838 0.0
C2279 C 0.23073 0.80977 0.86073 0.0
C2280 C 0.23044 0.86635 0.86169 0.0
C2281 C 0.24749 0.81905 0.84728 0.0
C2282 C 0.25502 0.85135 0.84084 0.0
C2283 C 0.24376 0.90133 0.83977 0.0
C2284 C 0.22594 0.91861 0.84535 0.0
C2285 C 0.24469 0.87406 0.84761 0.0
C2286 C 0.21609 0.9145 0.85983 0.0
C2287 C 0.21883 0.88865 0.86809 0.0
H2288 H 0.11464 0.37048 0.8537 0.0
H2289 H 0.22296 0.38654 0.85173 0.0
H2290 H 0.19848 0.32128 0.84969 0.0
H2291 H 0.14744 0.26247 0.84389 0.0
H2292 H 0.03938 0.24711 0.84202 0.0
H2293 H 0.06215 0.30894 0.85087 0.0
C2294 C 0.13269 0.35948 0.85306 0.0
C2295 C 0.17032 0.38282 0.85247 0.0
C2296 C 0.11841 0.32218 0.85126 0.0
C2297 C 0.19379 0.3687 0.85179 0.0
C2298 C 0.17986 0.33155 0.85073 0.0
C2299 C 0.12873 0.2724 0.84573 0.0
C2300 C 0.09217 0.25104 0.84194 0.0
C2301 C 0.14233 0.30836 0.84976 0.0
C2302 C 0.06784 0.2635 0.84473 0.0
C2303 C 0.08092 0.29892 0.84961 0.0
H2304 H 0.79848 0.61188 0.66262 0.0
H2305 H 0.74655 0.63366 0.62744 0.0
H2306 H 0.7584 0.69025 0.63893 0.0
H2307 H 0.78259 0.73275 0.65936 0.0
H2308 H 0.833 0.70856 0.69444 0.0
H2309 H 0.82215 0.65325 0.68258 0.0
C2310 C 0.79005 0.62909 0.65732 0.0
C2311 C 0.77185 0.61866 0.64416 0.0
C2312 C 0.79629 0.66093 0.66405 0.0
C2313 C 0.76072 0.64116 0.63758 0.0
C2314 C 0.76735 0.67341 0.64416 0.0
C2315 C 0.79101 0.71523 0.66439 0.0
C2316 C 0.80862 0.72469 0.67771 0.0
C2317 C 0.78483 0.68337 0.65748 0.0
C2318 C 0.81955 0.70193 0.68414 0.0
C2319 C 0.81343 0.67032 0.67738 0.0
H2320 H 0.35643 0.13964 0.65545 0.0
H2321 H 0.35503 0.23952 0.65148 0.0
H2322 H 0.29937 0.21406 0.666 0.0
H2323 H 0.25008 0.16192 0.67876 0.0
H2324 H 0.24876 0.05999 0.67974 0.0
H2325 H 0.30611 0.08701 0.66662 0.0
C2326 C 0.34315 0.15526 0.65724 0.0
C2327 C 0.3585 0.19058 0.65199 0.0
C2328 C 0.31082 0.13996 0.66491 0.0
C2329 C 0.34299 0.21194 0.65536 0.0
C2330 C 0.31128 0.19736 0.66355 0.0
C2331 C 0.26244 0.14576 0.67602 0.0
C2332 C 0.24565 0.10921 0.68009 0.0
C2333 C 0.29475 0.1612 0.66819 0.0
C2334 C 0.26135 0.08814 0.67651 0.0
C2335 C 0.29409 0.10358 0.66914 0.0
H2336 H 0.84704 0.25249 0.65087 0.0
H2337 H 0.73743 0.17921 0.66495 0.0
H2338 H 0.7608 0.1601 0.68496 0.0
H2339 H 0.81217 0.16036 0.69688 0.0
H2340 H 0.92129 0.23325 0.68226 0.0
H2341 H 0.89808 0.25766 0.66424 0.0
C2342 C 0.82813 0.23249 0.65833 0.0
C2343 C 0.79058 0.21686 0.65632 0.0
C2344 C 0.84163 0.22198 0.66977 0.0
C2345 C 0.76652 0.19134 0.66621 0.0
C2346 C 0.77982 0.18053 0.67766 0.0
C2347 C 0.83088 0.18217 0.68996 0.0
C2348 C 0.86822 0.19468 0.69067 0.0
C2349 C 0.81731 0.19522 0.67936 0.0
C2350 C 0.89232 0.22298 0.68173 0.0
C2351 C 0.87911 0.23675 0.67139 0.0
H2352 H 0.07531 0.50363 0.49631 0.0
H2353 H 0.01307 0.45219 0.45843 0.0
H2354 H 0.95934 0.44935 0.46918 0.0
H2355 H 0.93209 0.46657 0.48838 0.0
H2356 H 0.99224 0.51513 0.52696 0.0
H2357 H 0.04589 0.51594 0.5167 0.0
C2358 C 0.04946 0.49036 0.49075 0.0
C2359 C 0.04747 0.47724 0.47682 0.0
C2360 C 0.01926 0.49029 0.49678 0.0
C2361 C 0.01453 0.46137 0.46936 0.0
C2362 C 0.9842 0.46057 0.47535 0.0
C2363 C 0.95732 0.47816 0.49436 0.0
C2364 C 0.95914 0.49219 0.50809 0.0
C2365 C 0.98675 0.47623 0.4888 0.0
C2366 C 0.99104 0.50541 0.51615 0.0
C2367 C 0.02128 0.50519 0.5104 0.0
H2368 H 0.54417 0.52926 0.52245 0.0
H2369 H 0.49097 0.43957 0.49283 0.0
H2370 H 0.47445 0.47586 0.47776 0.0
H2371 H 0.47802 0.5337 0.47253 0.0
H2372 H 0.53423 0.62412 0.50156 0.0
H2373 H 0.54769 0.58667 0.51731 0.0
C2374 C 0.52872 0.51736 0.51276 0.0
C2375 C 0.51898 0.4818 0.50871 0.0
C2376 C 0.52052 0.53862 0.50397 0.0
C2377 C 0.4989 0.46694 0.49614 0.0
C2378 C 0.48963 0.4877 0.4875 0.0
C2379 C 0.49325 0.54526 0.4823 0.0
C2380 C 0.50521 0.58154 0.48593 0.0
C2381 C 0.5009 0.52373 0.49121 0.0
C2382 C 0.52495 0.59625 0.49856 0.0
C2383 C 0.53244 0.57485 0.50757 0.0
H2384 H 0.50255 0.03979 0.51836 0.0
H2385 H 0.57513 0.07285 0.48201 0.0
H2386 H 0.52719 0.02569 0.4675 0.0
H2387 H 0.46478 0.97739 0.46491 0.0
H2388 H 0.39172 0.94391 0.501 0.0
H2389 H 0.43968 0.99129 0.51572 0.0
C2390 C 0.50816 0.03659 0.5073 0.0
C2391 C 0.54236 0.06012 0.50125 0.0
C2392 C 0.48016 0.01049 0.49888 0.0
C2393 C 0.54908 0.0552 0.48694 0.0
C2394 C 0.52158 0.02858 0.47858 0.0
C2395 C 0.45912 0.98064 0.47597 0.0
C2396 C 0.42489 0.95729 0.48191 0.0
C2397 C 0.48693 0.00671 0.48439 0.0
C2398 C 0.41783 0.96191 0.49618 0.0
C2399 C 0.44535 0.98851 0.50463 0.0
H2400 H 0.53848 0.07799 0.98387 0.0
H2401 H 0.45507 0.09159 0.96356 0.0
H2402 H 0.43304 0.03372 0.951 0.0
H2403 H 0.43286 0.97634 0.94858 0.0
H2404 H 0.51377 0.96166 0.97066 0.0
H2405 H 0.54192 0.02359 0.97967 0.0
C2406 C 0.51567 0.0685 0.97658 0.0
C2407 C 0.49786 0.08842 0.97481 0.0
C2408 C 0.5027 0.03509 0.96983 0.0
C2409 C 0.46894 0.07638 0.96513 0.0
C2410 C 0.45631 0.04332 0.95803 0.0
C2411 C 0.45695 0.9868 0.9552 0.0
C2412 C 0.47076 0.96422 0.95922 0.0
C2413 C 0.47225 0.02194 0.96072 0.0
C2414 C 0.50224 0.97832 0.96765 0.0
C2415 C 0.51834 0.01368 0.9728 0.0
H2416 H 0.97753 0.47102 0.02279 0.0
H2417 H 0.93386 0.3673 0.00154 0.0
H2418 H 0.9905 0.38863 0.98855 0.0
H2419 H 0.04916 0.43832 0.98133 0.0
H2420 H 0.09281 0.54301 0.00173 0.0
H2421 H 0.03951 0.51935 0.01724 0.0
C2422 C 0.98061 0.453 0.01544 0.0
C2423 C 0.95147 0.41795 0.01291 0.0
C2424 C 0.01306 0.46556 0.00786 0.0
C2425 C 0.95582 0.39463 0.00351 0.0
C2426 C 0.98816 0.40675 -0.00392 0.0
C2427 C 0.04724 0.45593 0.98926 0.0
C2428 C 0.07441 0.49247 0.99022 0.0
C2429 C 0.01645 0.44245 -0.00213 0.0
C2430 C 0.07201 0.51477 0.00075 0.0
C2431 C 0.0415 0.50134 0.00955 0.0
H2432 H 0.5305 0.60777 0.9737 0.0
H2433 H 0.53357 0.55486 0.93487 0.0
H2434 H 0.58297 0.54723 0.94465 0.0
H2435 H 0.61596 0.54546 0.96606 0.0
H2436 H 0.60772 0.59377 0.00537 0.0
H2437 H 0.57055 0.6149 0.99354 0.0
C2438 C 0.54264 0.59521 0.96734 0.0
C2439 C 0.52852 0.58106 0.95386 0.0
C2440 C 0.57009 0.59047 0.97312 0.0
C2441 C 0.54424 0.56542 0.9454 0.0
C2442 C 0.57227 0.56109 0.95099 0.0
C2443 C 0.60719 0.56197 0.97176 0.0
C2444 C 0.61428 0.56847 0.9864 0.0
C2445 C 0.58424 0.57211 0.96508 0.0
C2446 C 0.6025 0.58902 0.994 0.0
C2447 C 0.58102 0.60065 0.9873 0.0
loop_
_geom_bond_atom_site_label_1
_geom_bond_atom_site_label_2
_geom_bond_distance
_geom_bond_site_symmetry_2
_ccdc_geom_bond_type
Mn0 O5 2.095 . S
Mn0 O15 2.162 . S
Mn0 O16 2.297 . S
Mn0 O24 2.385 . S
Mn0 O25 2.209 . S
Mn0 O26 2.094 . S
Mn1 O6 2.121 . S
Mn1 N8 2.257 . S
Mn1 N17 2.282 . S
Mn1 O25 2.215 . S
Mn1 O27 2.117 . S
C2 O24 1.234 . S
C2 O25 1.283 . S
C3 O15 1.281 . S
C3 O16 1.236 . S
C4 O26 1.240 . S
C4 O27 1.264 . S
O5 Mn0 2.095 . S
O5 C14 1.250 . S
O6 Mn1 2.121 . S
O6 C14 1.258 . S
C7 N8 1.326 . S
C7 C11 1.460 . S
C7 H13 0.929 . S
N8 Mn1 2.257 . S
N8 C7 1.326 . S
N8 C12 1.362 . S
C9 C10 1.258 . S
C9 C12 1.431 . S
C9 C29 1.449 1_545 S
C10 C9 1.258 . S
C10 C11 1.477 . S
C10 H30 0.931 1_545 S
C11 C7 1.460 . S
C11 C10 1.477 . S
C11 H31 0.930 . S
C12 N8 1.362 . S
C12 C9 1.431 . S
C12 C22 1.476 . S
H13 C7 0.929 . S
C14 O5 1.250 . S
C14 O6 1.258 . S
O15 Mn0 2.162 . S
O15 C3 1.281 . S
O16 Mn0 2.297 . S
O16 C3 1.236 . S
N17 Mn1 2.282 . S
N17 C18 1.328 . S
N17 C22 1.318 . S
C18 N17 1.328 . S
C18 C19 1.457 . S
C18 H23 0.929 . S
C19 C18 1.457 . S
C19 C20 1.291 . S
C19 H32 0.931 . S
C20 C19 1.291 . S
C20 C21 1.373 . S
C20 H33 0.926 . S
C21 C20 1.373 . S
C21 C22 1.396 . S
C21 C28 1.403 1_545 S
C22 C12 1.476 . S
C22 N17 1.318 . S
C22 C21 1.396 . S
H23 C18 0.929 . S
O24 Mn0 2.385 . S
O24 C2 1.234 . S
O25 Mn0 2.209 . S
O25 Mn1 2.215 . S
O25 C2 1.283 . S
O26 Mn0 2.094 . S
O26 C4 1.240 . S
O27 Mn1 2.117 . S
O27 C4 1.264 . S
C28 C21 1.403 1_565 S
C28 C29 1.399 . S
C28 H34 0.929 . S
C29 C9 1.449 1_565 S
C29 C28 1.399 . S
C29 H35 0.930 . S
H30 C10 0.931 1_565 S
H31 C11 0.930 . S
H32 C19 0.931 . S
H33 C20 0.926 . S
H34 C28 0.929 . S
H35 C29 0.930 . S
Mn36 O41 2.094 . S
Mn36 O51 2.162 1_545 S
Mn36 O52 2.297 1_545 S
Mn36 O60 2.385 . S
Mn36 O61 2.209 . S
Mn36 O62 2.094 . S
Mn37 O42 2.121 . S
Mn37 N44 2.257 . S
Mn37 N53 2.282 . S
Mn37 O61 2.215 . S
Mn37 O63 2.117 . S
C38 O60 1.234 . S
C38 O61 1.283 . S
C39 O51 1.281 . S
C39 O52 1.236 . S
C40 O62 1.240 . S
C40 O63 1.264 . S
O41 Mn36 2.094 . S
O41 C50 1.252 . S
O42 Mn37 2.121 . S
O42 C50 1.258 . S
C43 N44 1.326 . S
C43 C47 1.460 . S
C43 H49 0.929 . S
N44 Mn37 2.257 . S
N44 C43 1.326 . S
N44 C48 1.362 . S
C45 C46 1.258 . S
C45 C48 1.431 . S
C45 C65 1.449 1_655 S
C46 C45 1.258 . S
C46 C47 1.477 . S
C46 H66 0.931 1_655 S
C47 C43 1.460 . S
C47 C46 1.477 . S
C47 H67 0.930 . S
C48 N44 1.362 . S
C48 C45 1.431 . S
C48 C58 1.476 . S
H49 C43 0.929 . S
C50 O41 1.252 . S
C50 O42 1.258 . S
O51 Mn36 2.162 1_565 S
O51 C39 1.281 . S
O52 Mn36 2.297 1_565 S
O52 C39 1.236 . S
N53 Mn37 2.282 . S
N53 C54 1.328 . S
N53 C58 1.318 . S
C54 N53 1.328 . S
C54 C55 1.457 . S
C54 H59 0.929 . S
C55 C54 1.457 . S
C55 C56 1.291 . S
C55 H68 0.931 . S
C56 C55 1.291 . S
C56 C57 1.373 . S
C56 H69 0.940 . S
C57 C56 1.373 . S
C57 C58 1.396 . S
C57 C64 1.403 1_655 S
C58 C48 1.476 . S
C58 N53 1.318 . S
C58 C57 1.396 . S
H59 C54 0.929 . S
O60 Mn36 2.385 . S
O60 C38 1.234 . S
O61 Mn36 2.209 . S
O61 Mn37 2.215 . S
O61 C38 1.283 . S
O62 Mn36 2.094 . S
O62 C40 1.240 . S
O63 Mn37 2.117 . S
O63 C40 1.264 . S
C64 C57 1.403 1_455 S
C64 C65 1.399 . S
C64 H70 0.929 . S
C65 C45 1.449 1_455 S
C65 C64 1.399 . S
C65 H71 0.930 . S
H66 C46 0.931 1_455 S
H67 C47 0.930 . S
H68 C55 0.931 . S
H69 C56 0.940 . S
H70 C64 0.929 . S
H71 C65 0.930 . S
Mn72 O77 2.095 . S
Mn72 O87 2.162 1_655 S
Mn72 O88 2.297 1_655 S
Mn72 O96 2.385 . S
Mn72 O97 2.209 . S
Mn72 O98 2.094 . S
Mn73 O78 2.121 . S
Mn73 N80 2.257 . S
Mn73 N89 2.282 . S
Mn73 O97 2.215 . S
Mn73 O99 2.117 . S
C74 O96 1.234 . S
C74 O97 1.283 . S
C75 O87 1.281 . S
C75 O88 1.236 . S
C76 O98 1.240 . S
C76 O99 1.264 . S
O77 Mn72 2.095 . S
O77 C86 1.250 . S
O78 Mn73 2.121 . S
O78 C86 1.258 . S
C79 N80 1.326 . S
C79 C83 1.460 . S
C79 H85 0.929 . S
N80 Mn73 2.257 . S
N80 C79 1.326 . S
N80 C84 1.362 . S
C81 C82 1.258 . S
C81 C84 1.431 . S
C81 C101 1.449 . S
C82 C81 1.258 . S
C82 C83 1.477 . S
C82 H102 0.931 . S
C83 C79 1.460 . S
C83 C82 1.477 . S
C83 H103 0.930 . S
C84 N80 1.362 . S
C84 C81 1.431 . S
C84 C94 1.476 . S
H85 C79 0.929 . S
C86 O77 1.250 . S
C86 O78 1.258 . S
O87 Mn72 2.162 1_455 S
O87 C75 1.281 . S
O88 Mn72 2.297 1_455 S
O88 C75 1.236 . S
N89 Mn73 2.282 . S
N89 C90 1.328 . S
N89 C94 1.318 . S
C90 N89 1.328 . S
C90 C91 1.457 . S
C90 H95 0.929 . S
C91 C90 1.457 . S
C91 C92 1.291 . S
C91 H104 0.931 . S
C92 C91 1.291 . S
C92 C93 1.373 . S
C92 H105 0.929 . S
C93 C92 1.373 . S
C93 C94 1.396 . S
C93 C100 1.403 . S
C94 C84 1.476 . S
C94 N89 1.318 . S
C94 C93 1.396 . S
H95 C90 0.929 . S
O96 Mn72 2.385 . S
O96 C74 1.234 . S
O97 Mn72 2.209 . S
O97 Mn73 2.215 . S
O97 C74 1.283 . S
O98 Mn72 2.094 . S
O98 C76 1.240 . S
O99 Mn73 2.117 . S
O99 C76 1.264 . S
C100 C93 1.403 . S
C100 C101 1.399 . S
C100 H106 0.929 . S
C101 C81 1.449 . S
C101 C100 1.399 . S
C101 H107 0.930 . S
H102 C82 0.931 . S
H103 C83 0.930 . S
H104 C91 0.931 . S
H105 C92 0.929 . S
H106 C100 0.929 . S
H107 C101 0.930 . S
Mn108 O113 2.095 . S
Mn108 O123 2.162 . S
Mn108 O124 2.297 . S
Mn108 O132 2.385 . S
Mn108 O133 2.209 . S
Mn108 O134 2.094 . S
Mn109 O114 2.121 . S
Mn109 N116 2.257 . S
Mn109 N125 2.282 . S
Mn109 O133 2.215 . S
Mn109 O135 2.117 . S
C110 O132 1.234 . S
C110 O133 1.283 . S
C111 O123 1.281 . S
C111 O124 1.236 . S
C112 O134 1.240 . S
C112 O135 1.264 . S
O113 Mn108 2.095 . S
O113 C122 1.250 . S
O114 Mn109 2.121 . S
O114 C122 1.258 . S
C115 N116 1.326 . S
C115 C119 1.460 . S
C115 H121 0.929 . S
N116 Mn109 2.257 . S
N116 C115 1.326 . S
N116 C120 1.362 . S
C117 C118 1.258 . S
C117 C120 1.431 . S
C117 C137 1.449 1_455 S
C118 C117 1.258 . S
C118 C119 1.477 . S
C118 H138 0.931 1_455 S
C119 C115 1.460 . S
C119 C118 1.477 . S
C119 H139 0.930 . S
C120 N116 1.362 . S
C120 C117 1.431 . S
C120 C130 1.476 . S
H121 C115 0.929 . S
C122 O113 1.250 . S
C122 O114 1.258 . S
O123 Mn108 2.162 . S
O123 C111 1.281 . S
O124 Mn108 2.297 . S
O124 C111 1.236 . S
N125 Mn109 2.282 . S
N125 C126 1.328 . S
N125 C130 1.318 . S
C126 N125 1.328 . S
C126 C127 1.457 . S
C126 H131 0.929 . S
C127 C126 1.457 . S
C127 C128 1.291 . S
C127 H140 0.931 . S
C128 C127 1.291 . S
C128 C129 1.373 . S
C128 H141 0.932 1_455 S
C129 C128 1.373 . S
C129 C130 1.396 . S
C129 C136 1.403 1_455 S
C130 C120 1.476 . S
C130 N125 1.318 . S
C130 C129 1.396 . S
H131 C126 0.929 . S
O132 Mn108 2.385 . S
O132 C110 1.234 . S
O133 Mn108 2.209 . S
O133 Mn109 2.215 . S
O133 C110 1.283 . S
O134 Mn108 2.094 . S
O134 C112 1.240 . S
O135 Mn109 2.117 . S
O135 C112 1.264 . S
C136 C129 1.403 1_655 S
C136 C137 1.399 . S
C136 H142 0.929 . S
C137 C117 1.449 1_655 S
C137 C136 1.399 . S
C137 H143 0.930 . S
H138 C118 0.931 1_655 S
H139 C119 0.930 . S
H140 C127 0.931 . S
H141 C128 0.932 1_655 S
H142 C136 0.929 . S
H143 C137 0.930 . S
Mn144 O149 2.095 . S
Mn144 O159 2.162 1_565 S
Mn144 O160 2.297 1_565 S
Mn144 O168 2.385 . S
Mn144 O169 2.209 . S
Mn144 O170 2.094 . S
Mn145 O150 2.121 . S
Mn145 N152 2.257 . S
Mn145 N161 2.282 . S
Mn145 O169 2.215 . S
Mn145 O171 2.117 . S
C146 O168 1.234 . S
C146 O169 1.283 . S
C147 O159 1.281 . S
C147 O160 1.236 . S
C148 O170 1.240 . S
C148 O171 1.264 . S
O149 Mn144 2.095 . S
O149 C158 1.250 . S
O150 Mn145 2.121 . S
O150 C158 1.258 . S
C151 N152 1.326 . S
C151 C155 1.460 . S
C151 H157 0.929 . S
N152 Mn145 2.257 . S
N152 C151 1.326 . S
N152 C156 1.362 . S
C153 C154 1.258 . S
C153 C156 1.431 . S
C153 C173 1.449 . S
C154 C153 1.258 . S
C154 C155 1.477 . S
C154 H174 0.931 . S
C155 C151 1.460 . S
C155 C154 1.477 . S
C155 H175 0.930 . S
C156 N152 1.362 . S
C156 C153 1.431 . S
C156 C166 1.476 . S
H157 C151 0.929 . S
C158 O149 1.250 . S
C158 O150 1.258 . S
O159 Mn144 2.162 1_545 S
O159 C147 1.281 . S
O160 Mn144 2.297 1_545 S
O160 C147 1.236 . S
N161 Mn145 2.282 . S
N161 C162 1.328 . S
N161 C166 1.318 . S
C162 N161 1.328 . S
C162 C163 1.457 . S
C162 H167 0.929 . S
C163 C162 1.457 . S
C163 C164 1.291 . S
C163 H176 0.931 . S
C164 C163 1.291 . S
C164 C165 1.373 . S
C164 H177 0.929 . S
C165 C164 1.373 . S
C165 C166 1.396 . S
C165 C172 1.403 . S
C166 C156 1.476 . S
C166 N161 1.318 . S
C166 C165 1.396 . S
H167 C162 0.929 . S
O168 Mn144 2.385 . S
O168 C146 1.234 . S
O169 Mn144 2.209 . S
O169 Mn145 2.215 . S
O169 C146 1.283 . S
O170 Mn144 2.094 . S
O170 C148 1.240 . S
O171 Mn145 2.117 . S
O171 C148 1.264 . S
C172 C165 1.403 . S
C172 C173 1.399 . S
C172 H178 0.929 . S
C173 C153 1.449 . S
C173 C172 1.399 . S
C173 H179 0.930 . S
H174 C154 0.931 . S
H175 C155 0.930 . S
H176 C163 0.931 . S
H177 C164 0.929 . S
H178 C172 0.929 . S
H179 C173 0.930 . S
Mn180 O185 2.094 . S
Mn180 O195 2.162 1_455 S
Mn180 O196 2.297 1_455 S
Mn180 O204 2.385 . S
Mn180 O205 2.209 . S
Mn180 O206 2.094 . S
Mn181 O186 2.121 . S
Mn181 N188 2.257 . S
Mn181 N197 2.282 . S
Mn181 O205 2.215 . S
Mn181 O207 2.117 . S
C182 O204 1.234 . S
C182 O205 1.283 . S
C183 O195 1.281 . S
C183 O196 1.236 . S
C184 O206 1.240 . S
C184 O207 1.264 . S
O185 Mn180 2.094 . S
O185 C194 1.252 . S
O186 Mn181 2.121 . S
O186 C194 1.258 . S
C187 N188 1.326 . S
C187 C191 1.460 . S
C187 H193 0.929 . S
N188 Mn181 2.257 . S
N188 C187 1.326 . S
N188 C192 1.362 . S
C189 C190 1.258 . S
C189 C192 1.431 . S
C189 C209 1.449 1_565 S
C190 C189 1.258 . S
C190 C191 1.477 . S
C190 H210 0.931 1_565 S
C191 C187 1.460 . S
C191 C190 1.477 . S
C191 H211 0.930 . S
C192 N188 1.362 . S
C192 C189 1.431 . S
C192 C202 1.476 . S
H193 C187 0.929 . S
C194 O185 1.252 . S
C194 O186 1.258 . S
O195 Mn180 2.162 1_655 S
O195 C183 1.281 . S
O196 Mn180 2.297 1_655 S
O196 C183 1.236 . S
N197 Mn181 2.282 . S
N197 C198 1.328 . S
N197 C202 1.318 . S
C198 N197 1.328 . S
C198 C199 1.457 . S
C198 H203 0.929 . S
C199 C198 1.457 . S
C199 C200 1.291 . S
C199 H212 0.931 . S
C200 C199 1.291 . S
C200 C201 1.373 . S
C200 H213 0.940 . S
C201 C200 1.373 . S
C201 C202 1.396 . S
C201 C208 1.403 1_565 S
C202 C192 1.476 . S
C202 N197 1.318 . S
C202 C201 1.396 . S
H203 C198 0.929 . S
O204 Mn180 2.385 . S
O204 C182 1.234 . S
O205 Mn180 2.209 . S
O205 Mn181 2.215 . S
O205 C182 1.283 . S
O206 Mn180 2.094 . S
O206 C184 1.240 . S
O207 Mn181 2.117 . S
O207 C184 1.264 . S
C208 C201 1.403 1_545 S
C208 C209 1.399 . S
C208 H214 0.929 . S
C209 C189 1.449 1_545 S
C209 C208 1.399 . S
C209 H215 0.930 . S
H210 C190 0.931 1_545 S
H211 C191 0.930 . S
H212 C199 0.931 . S
H213 C200 0.940 . S
H214 C208 0.929 . S
H215 C209 0.930 . S
Mn216 O221 2.095 . S
Mn216 O231 2.162 . S
Mn216 O232 2.297 . S
Mn216 O240 2.385 . S
Mn216 O241 2.209 . S
Mn216 O242 2.094 . S
Mn217 O222 2.121 . S
Mn217 N224 2.257 . S
Mn217 N233 2.282 . S
Mn217 O241 2.215 . S
Mn217 O243 2.117 . S
C218 O240 1.234 . S
C218 O241 1.283 . S
C219 O231 1.281 . S
C219 O232 1.236 . S
C220 O242 1.240 . S
C220 O243 1.264 . S
O221 Mn216 2.095 . S
O221 C230 1.250 . S
O222 Mn217 2.121 . S
O222 C230 1.258 . S
C223 N224 1.326 . S
C223 C227 1.460 . S
C223 H229 0.929 . S
N224 Mn217 2.257 . S
N224 C223 1.326 . S
N224 C228 1.362 . S
C225 C226 1.258 . S
C225 C228 1.431 1_545 S
C225 C245 1.449 . S
C226 C225 1.258 . S
C226 C227 1.477 1_545 S
C226 H246 0.931 . S
C227 C223 1.460 . S
C227 C226 1.477 1_565 S
C227 H247 0.930 . S
C228 N224 1.362 . S
C228 C225 1.431 1_565 S
C228 C238 1.476 . S
H229 C223 0.929 . S
C230 O221 1.250 . S
C230 O222 1.258 . S
O231 Mn216 2.162 . S
O231 C219 1.281 . S
O232 Mn216 2.297 . S
O232 C219 1.236 . S
N233 Mn217 2.282 . S
N233 C234 1.328 . S
N233 C238 1.318 . S
C234 N233 1.328 . S
C234 C235 1.457 . S
C234 H239 0.929 . S
C235 C234 1.457 . S
C235 C236 1.291 1_565 S
C235 H248 0.931 . S
C236 C235 1.291 1_545 S
C236 C237 1.373 . S
C236 H249 0.929 1_655 S
C237 C236 1.373 . S
C237 C238 1.396 1_545 S
C237 C244 1.403 . S
C238 C228 1.476 . S
C238 N233 1.318 . S
C238 C237 1.396 1_565 S
H239 C234 0.929 . S
O240 Mn216 2.385 . S
O240 C218 1.234 . S
O241 Mn216 2.209 . S
O241 Mn217 2.215 . S
O241 C218 1.283 . S
O242 Mn216 2.094 . S
O242 C220 1.240 . S
O243 Mn217 2.117 . S
O243 C220 1.264 . S
C244 C237 1.403 . S
C244 C245 1.399 . S
C244 H250 0.929 1_655 S
C245 C225 1.449 . S
C245 C244 1.399 . S
C245 H251 0.930 . S
H246 C226 0.931 . S
H247 C227 0.930 . S
H248 C235 0.931 . S
H249 C236 0.929 1_455 S
H250 C244 0.929 1_455 S
H251 C245 0.930 . S
Mn252 O257 2.095 1_565 S
Mn252 O267 2.162 . S
Mn252 O268 2.297 . S
Mn252 O276 2.385 . S
Mn252 O277 2.209 . S
Mn252 O278 2.094 1_565 S
Mn253 O258 2.121 1_545 S
Mn253 N260 2.257 1_545 S
Mn253 N269 2.282 1_545 S
Mn253 O277 2.215 1_545 S
Mn253 O279 2.117 . S
C254 O276 1.234 . S
C254 O277 1.283 . S
C255 O267 1.281 . S
C255 O268 1.236 . S
C256 O278 1.240 . S
C256 O279 1.264 . S
O257 Mn252 2.095 1_545 S
O257 C266 1.250 . S
O258 Mn253 2.121 1_565 S
O258 C266 1.258 1_565 S
C259 N260 1.326 . S
C259 C263 1.460 . S
C259 H265 0.929 . S
N260 Mn253 2.257 1_565 S
N260 C259 1.326 . S
N260 C264 1.362 . S
C261 C262 1.258 . S
C261 C264 1.431 1_655 S
C261 C281 1.449 . S
C262 C261 1.258 . S
C262 C263 1.477 1_655 S
C262 H282 0.931 . S
C263 C259 1.460 . S
C263 C262 1.477 1_455 S
C263 H283 0.930 . S
C264 N260 1.362 . S
C264 C261 1.431 1_455 S
C264 C274 1.476 . S
H265 C259 0.929 . S
C266 O257 1.250 . S
C266 O258 1.258 1_545 S
O267 Mn252 2.162 . S
O267 C255 1.281 . S
O268 Mn252 2.297 . S
O268 C255 1.236 . S
N269 Mn253 2.282 1_565 S
N269 C270 1.328 1_565 S
N269 C274 1.318 . S
C270 N269 1.328 1_545 S
C270 C271 1.457 . S
C270 H275 0.929 . S
C271 C270 1.457 . S
C271 C272 1.291 1_445 S
C271 H284 0.931 . S
C272 C271 1.291 1_665 S
C272 C273 1.373 . S
C272 H285 0.929 . S
C273 C272 1.373 . S
C273 C274 1.396 1_655 S
C273 C280 1.403 . S
C274 C264 1.476 . S
C274 N269 1.318 . S
C274 C273 1.396 1_455 S
H275 C270 0.929 . S
O276 Mn252 2.385 . S
O276 C254 1.234 . S
O277 Mn252 2.209 . S
O277 Mn253 2.215 1_565 S
O277 C254 1.283 . S
O278 Mn252 2.094 1_545 S
O278 C256 1.240 . S
O279 Mn253 2.117 . S
O279 C256 1.264 . S
C280 C273 1.403 . S
C280 C281 1.399 . S
C280 H286 0.929 . S
C281 C261 1.449 . S
C281 C280 1.399 . S
C281 H287 0.930 . S
H282 C262 0.931 . S
H283 C263 0.930 . S
H284 C271 0.931 . S
H285 C272 0.929 . S
H286 C280 0.929 . S
H287 C281 0.930 . S
Mn288 O293 2.095 1_455 S
Mn288 O303 2.162 . S
Mn288 O304 2.297 . S
Mn288 O312 2.385 . S
Mn288 O313 2.209 . S
Mn288 O314 2.094 1_455 S
Mn289 O294 2.128 1_655 S
Mn289 N296 2.257 1_655 S
Mn289 N305 2.282 1_655 S
Mn289 O313 2.215 1_655 S
Mn289 O315 2.117 . S
C290 O312 1.234 . S
C290 O313 1.283 . S
C291 O303 1.281 . S
C291 O304 1.236 . S
C292 O314 1.240 . S
C292 O315 1.264 . S
O293 Mn288 2.095 1_655 S
O293 C302 1.250 . S
O294 Mn289 2.128 1_455 S
O294 C302 1.246 1_455 S
C295 N296 1.326 . S
C295 C299 1.460 . S
C295 H301 0.929 . S
N296 Mn289 2.257 1_455 S
N296 C295 1.326 . S
N296 C300 1.362 . S
C297 C298 1.258 . S
C297 C300 1.431 . S
C297 C317 1.449 . S
C298 C297 1.258 . S
C298 C299 1.477 . S
C298 H318 0.931 . S
C299 C295 1.460 . S
C299 C298 1.477 . S
C299 H319 0.930 . S
C300 N296 1.362 . S
C300 C297 1.431 . S
C300 C310 1.476 . S
H301 C295 0.929 . S
C302 O293 1.250 . S
C302 O294 1.246 1_655 S
O303 Mn288 2.162 . S
O303 C291 1.281 . S
O304 Mn288 2.297 . S
O304 C291 1.236 . S
N305 Mn289 2.282 1_455 S
N305 C306 1.328 1_455 S
N305 C310 1.318 . S
C306 N305 1.328 1_655 S
C306 C307 1.457 . S
C306 H311 0.929 . S
C307 C306 1.457 . S
C307 C308 1.291 1_655 S
C307 H320 0.931 . S
C308 C307 1.291 1_455 S
C308 C309 1.373 . S
C308 H321 0.929 1_545 S
C309 C308 1.373 . S
C309 C310 1.396 . S
C309 C316 1.403 . S
C310 C300 1.476 . S
C310 N305 1.318 . S
C310 C309 1.396 . S
H311 C306 0.929 . S
O312 Mn288 2.385 . S
O312 C290 1.234 . S
O313 Mn288 2.209 . S
O313 Mn289 2.215 1_455 S
O313 C290 1.283 . S
O314 Mn288 2.094 1_655 S
O314 C292 1.240 . S
O315 Mn289 2.117 . S
O315 C292 1.264 . S
C316 C309 1.403 . S
C316 C317 1.399 . S
C316 H322 0.929 1_545 S
C317 C297 1.449 . S
C317 C316 1.399 . S
C317 H323 0.930 . S
H318 C298 0.931 . S
H319 C299 0.930 . S
H320 C307 0.931 . S
H321 C308 0.929 1_565 S
H322 C316 0.929 1_565 S
H323 C317 0.930 . S
Mn324 O329 2.095 . S
Mn324 O339 2.162 . S
Mn324 O340 2.297 . S
Mn324 O348 2.385 . S
Mn324 O349 2.209 . S
Mn324 O350 2.094 . S
Mn325 O330 2.121 . S
Mn325 N332 2.257 . S
Mn325 N341 2.282 . S
Mn325 O349 2.215 . S
Mn325 O351 2.117 . S
C326 O348 1.234 . S
C326 O349 1.283 . S
C327 O339 1.281 . S
C327 O340 1.236 . S
C328 O350 1.240 . S
C328 O351 1.264 . S
O329 Mn324 2.095 . S
O329 C338 1.250 . S
O330 Mn325 2.121 . S
O330 C338 1.258 . S
C331 N332 1.326 . S
C331 C335 1.460 . S
C331 H337 0.929 . S
N332 Mn325 2.257 . S
N332 C331 1.326 . S
N332 C336 1.362 . S
C333 C334 1.258 . S
C333 C336 1.431 1_455 S
C333 C353 1.449 . S
C334 C333 1.258 . S
C334 C335 1.477 1_455 S
C334 H354 0.931 . S
C335 C331 1.460 . S
C335 C334 1.477 1_655 S
C335 H355 0.930 . S
C336 N332 1.362 . S
C336 C333 1.431 1_655 S
C336 C346 1.476 . S
H337 C331 0.929 . S
C338 O329 1.250 . S
C338 O330 1.258 . S
O339 Mn324 2.162 . S
O339 C327 1.281 . S
O340 Mn324 2.297 . S
O340 C327 1.236 . S
N341 Mn325 2.282 . S
N341 C342 1.328 . S
N341 C346 1.318 . S
C342 N341 1.328 . S
C342 C343 1.457 . S
C342 H347 0.929 . S
C343 C342 1.457 . S
C343 C344 1.291 1_655 S
C343 H356 0.931 . S
C344 C343 1.291 1_455 S
C344 C345 1.373 . S
C344 H357 0.929 1_565 S
C345 C344 1.373 . S
C345 C346 1.396 1_455 S
C345 C352 1.403 . S
C346 C336 1.476 . S
C346 N341 1.318 . S
C346 C345 1.396 1_655 S
H347 C342 0.929 . S
O348 Mn324 2.385 . S
O348 C326 1.234 . S
O349 Mn324 2.209 . S
O349 Mn325 2.215 . S
O349 C326 1.283 . S
O350 Mn324 2.094 . S
O350 C328 1.240 . S
O351 Mn325 2.117 . S
O351 C328 1.264 . S
C352 C345 1.403 . S
C352 C353 1.399 . S
C352 H358 0.929 1_565 S
C353 C333 1.449 . S
C353 C352 1.399 . S
C353 H359 0.930 . S
H354 C334 0.931 . S
H355 C335 0.930 . S
H356 C343 0.931 . S
H357 C344 0.929 1_545 S
H358 C352 0.929 1_545 S
H359 C353 0.930 . S
Mn360 O365 2.095 1_545 S
Mn360 O375 2.162 . S
Mn360 O376 2.297 . S
Mn360 O384 2.385 . S
Mn360 O385 2.209 . S
Mn360 O386 2.094 1_545 S
Mn361 O366 2.130 1_565 S
Mn361 N368 2.257 1_565 S
Mn361 N377 2.282 1_565 S
Mn361 O385 2.215 1_565 S
Mn361 O387 2.117 . S
C362 O384 1.234 . S
C362 O385 1.283 . S
C363 O375 1.281 . S
C363 O376 1.236 . S
C364 O386 1.240 . S
C364 O387 1.264 . S
O365 Mn360 2.095 1_565 S
O365 C374 1.250 . S
O366 Mn361 2.130 1_545 S
O366 C374 1.244 1_545 S
C367 N368 1.326 . S
C367 C371 1.460 . S
C367 H373 0.929 . S
N368 Mn361 2.257 1_545 S
N368 C367 1.326 . S
N368 C372 1.362 . S
C369 C370 1.258 . S
C369 C372 1.431 . S
C369 C389 1.449 . S
C370 C369 1.258 . S
C370 C371 1.477 . S
C370 H390 0.931 . S
C371 C367 1.460 . S
C371 C370 1.477 . S
C371 H391 0.930 . S
C372 N368 1.362 . S
C372 C369 1.431 . S
C372 C382 1.476 . S
H373 C367 0.929 . S
C374 O365 1.250 . S
C374 O366 1.244 1_565 S
O375 Mn360 2.162 . S
O375 C363 1.281 . S
O376 Mn360 2.297 . S
O376 C363 1.236 . S
N377 Mn361 2.282 1_545 S
N377 C378 1.328 1_545 S
N377 C382 1.318 . S
C378 N377 1.328 1_565 S
C378 C379 1.457 . S
C378 H383 0.929 . S
C379 C378 1.457 . S
C379 C380 1.291 1_565 S
C379 H392 0.931 . S
C380 C379 1.291 1_545 S
C380 C381 1.373 . S
C380 H393 0.929 1_455 S
C381 C380 1.373 . S
C381 C382 1.396 . S
C381 C388 1.403 . S
C382 C372 1.476 . S
C382 N377 1.318 . S
C382 C381 1.396 . S
H383 C378 0.929 . S
O384 Mn360 2.385 . S
O384 C362 1.234 . S
O385 Mn360 2.209 . S
O385 Mn361 2.215 1_545 S
O385 C362 1.283 . S
O386 Mn360 2.094 1_565 S
O386 C364 1.240 . S
O387 Mn361 2.117 . S
O387 C364 1.264 . S
C388 C381 1.403 . S
C388 C389 1.399 . S
C388 H394 0.929 1_455 S
C389 C369 1.449 . S
C389 C388 1.399 . S
C389 H395 0.930 . S
H390 C370 0.931 . S
H391 C371 0.930 . S
H392 C379 0.931 . S
H393 C380 0.929 1_655 S
H394 C388 0.929 1_655 S
H395 C389 0.930 . S
Mn396 O401 2.095 1_655 S
Mn396 O411 2.162 . S
Mn396 O412 2.297 . S
Mn396 O420 2.385 . S
Mn396 O421 2.209 . S
Mn396 O422 2.094 1_655 S
Mn397 O402 2.121 1_455 S
Mn397 N404 2.257 1_455 S
Mn397 N413 2.282 1_455 S
Mn397 O421 2.215 1_455 S
Mn397 O423 2.117 . S
C398 O420 1.234 . S
C398 O421 1.283 . S
C399 O411 1.281 . S
C399 O412 1.236 . S
C400 O422 1.240 . S
C400 O423 1.264 . S
O401 Mn396 2.095 1_455 S
O401 C410 1.250 . S
O402 Mn397 2.121 1_655 S
O402 C410 1.258 1_655 S
C403 N404 1.326 . S
C403 C407 1.460 . S
C403 H409 0.929 . S
N404 Mn397 2.257 1_655 S
N404 C403 1.326 . S
N404 C408 1.362 . S
C405 C406 1.258 . S
C405 C408 1.431 1_565 S
C405 C425 1.449 . S
C406 C405 1.258 . S
C406 C407 1.477 1_565 S
C406 H426 0.931 . S
C407 C403 1.460 . S
C407 C406 1.477 1_545 S
C407 H427 0.930 . S
C408 N404 1.362 . S
C408 C405 1.431 1_545 S
C408 C418 1.476 . S
H409 C403 0.929 . S
C410 O401 1.250 . S
C410 O402 1.258 1_455 S
O411 Mn396 2.162 . S
O411 C399 1.281 . S
O412 Mn396 2.297 . S
O412 C399 1.236 . S
N413 Mn397 2.282 1_655 S
N413 C414 1.328 1_655 S
N413 C418 1.318 . S
C414 N413 1.328 1_455 S
C414 C415 1.457 . S
C414 H419 0.929 . S
C415 C414 1.457 . S
C415 C416 1.291 1_445 S
C415 H428 0.931 . S
C416 C415 1.291 1_665 S
C416 C417 1.373 . S
C416 H429 0.929 . S
C417 C416 1.373 . S
C417 C418 1.396 1_565 S
C417 C424 1.403 . S
C418 C408 1.476 . S
C418 N413 1.318 . S
C418 C417 1.396 1_545 S
H419 C414 0.929 . S
O420 Mn396 2.385 . S
O420 C398 1.234 . S
O421 Mn396 2.209 . S
O421 Mn397 2.215 1_655 S
O421 C398 1.283 . S
O422 Mn396 2.094 1_455 S
O422 C400 1.240 . S
O423 Mn397 2.117 . S
O423 C400 1.264 . S
C424 C417 1.403 . S
C424 C425 1.399 . S
C424 H430 0.929 . S
C425 C405 1.449 . S
C425 C424 1.399 . S
C425 H431 0.930 . S
H426 C406 0.931 . S
H427 C407 0.930 . S
H428 C415 0.931 . S
H429 C416 0.929 . S
H430 C424 0.929 . S
H431 C425 0.930 . S
Mn432 O437 2.095 . S
Mn432 O447 2.162 . S
Mn432 O448 2.297 . S
Mn432 O456 2.385 . S
Mn432 O457 2.209 . S
Mn432 O458 2.094 . S
Mn433 O438 2.121 . S
Mn433 N440 2.257 . S
Mn433 N449 2.282 . S
Mn433 O457 2.215 . S
Mn433 O459 2.117 . S
C434 O456 1.234 . S
C434 O457 1.283 . S
C435 O447 1.281 . S
C435 O448 1.236 . S
C436 O458 1.240 . S
C436 O459 1.264 . S
O437 Mn432 2.095 . S
O437 C446 1.250 . S
O438 Mn433 2.121 . S
O438 C446 1.258 . S
C439 N440 1.326 . S
C439 C443 1.460 . S
C439 H445 0.929 . S
N440 Mn433 2.257 . S
N440 C439 1.326 . S
N440 C444 1.362 . S
C441 C442 1.258 . S
C441 C444 1.431 . S
C441 C461 1.449 . S
C442 C441 1.258 . S
C442 C443 1.477 . S
C442 H462 0.931 . S
C443 C439 1.460 . S
C443 C442 1.477 . S
C443 H463 0.930 . S
C444 N440 1.362 . S
C444 C441 1.431 . S
C444 C454 1.476 . S
H445 C439 0.929 . S
C446 O437 1.250 . S
C446 O438 1.258 . S
O447 Mn432 2.162 . S
O447 C435 1.281 . S
O448 Mn432 2.297 . S
O448 C435 1.236 . S
N449 Mn433 2.282 . S
N449 C450 1.328 . S
N449 C454 1.318 . S
C450 N449 1.328 . S
C450 C451 1.457 . S
C450 H455 0.929 . S
C451 C450 1.457 . S
C451 C452 1.291 . S
C451 H464 0.931 . S
C452 C451 1.291 . S
C452 C453 1.373 . S
C452 H465 0.929 . S
C453 C452 1.373 . S
C453 C454 1.396 . S
C453 C460 1.403 . S
C454 C444 1.476 . S
C454 N449 1.318 . S
C454 C453 1.396 . S
H455 C450 0.929 . S
O456 Mn432 2.385 . S
O456 C434 1.234 . S
O457 Mn432 2.209 . S
O457 Mn433 2.215 . S
O457 C434 1.283 . S
O458 Mn432 2.094 . S
O458 C436 1.240 . S
O459 Mn433 2.117 . S
O459 C436 1.264 . S
C460 C453 1.403 . S
C460 C461 1.399 . S
C460 H466 0.929 . S
C461 C441 1.449 . S
C461 C460 1.399 . S
C461 H467 0.930 . S
H462 C442 0.931 . S
H463 C443 0.930 . S
H464 C451 0.931 . S
H465 C452 0.929 . S
H466 C460 0.929 . S
H467 C461 0.930 . S
Mn468 O473 2.095 . S
Mn468 O483 2.162 . S
Mn468 O484 2.297 . S
Mn468 O492 2.385 . S
Mn468 O493 2.209 . S
Mn468 O494 2.094 . S
Mn469 O474 2.121 . S
Mn469 N476 2.257 . S
Mn469 N485 2.282 . S
Mn469 O493 2.215 . S
Mn469 O495 2.117 . S
C470 O492 1.234 . S
C470 O493 1.283 . S
C471 O483 1.281 . S
C471 O484 1.236 . S
C472 O494 1.240 . S
C472 O495 1.264 . S
O473 Mn468 2.095 . S
O473 C482 1.250 . S
O474 Mn469 2.121 . S
O474 C482 1.258 . S
C475 N476 1.326 . S
C475 C479 1.460 . S
C475 H481 0.929 . S
N476 Mn469 2.257 . S
N476 C475 1.326 . S
N476 C480 1.362 . S
C477 C478 1.258 . S
C477 C480 1.431 . S
C477 C497 1.449 . S
C478 C477 1.258 . S
C478 C479 1.477 . S
C478 H498 0.931 . S
C479 C475 1.460 . S
C479 C478 1.477 . S
C479 H499 0.930 . S
C480 N476 1.362 . S
C480 C477 1.431 . S
C480 C490 1.476 . S
H481 C475 0.929 . S
C482 O473 1.250 . S
C482 O474 1.258 . S
O483 Mn468 2.162 . S
O483 C471 1.281 . S
O484 Mn468 2.297 . S
O484 C471 1.236 . S
N485 Mn469 2.282 . S
N485 C486 1.328 . S
N485 C490 1.318 . S
C486 N485 1.328 . S
C486 C487 1.457 . S
C486 H491 0.929 . S
C487 C486 1.457 . S
C487 C488 1.291 . S
C487 H500 0.931 . S
C488 C487 1.291 . S
C488 C489 1.373 . S
C488 H501 0.929 . S
C489 C488 1.373 . S
C489 C490 1.396 . S
C489 C496 1.403 . S
C490 C480 1.476 . S
C490 N485 1.318 . S
C490 C489 1.396 . S
H491 C486 0.929 . S
O492 Mn468 2.385 . S
O492 C470 1.234 . S
O493 Mn468 2.209 . S
O493 Mn469 2.215 . S
O493 C470 1.283 . S
O494 Mn468 2.094 . S
O494 C472 1.240 . S
O495 Mn469 2.117 . S
O495 C472 1.264 . S
C496 C489 1.403 . S
C496 C497 1.399 . S
C496 H502 0.929 . S
C497 C477 1.449 . S
C497 C496 1.399 . S
C497 H503 0.930 . S
H498 C478 0.931 . S
H499 C479 0.930 . S
H500 C487 0.931 . S
H501 C488 0.929 . S
H502 C496 0.929 . S
H503 C497 0.930 . S
Mn504 O509 2.095 . S
Mn504 O519 2.162 . S
Mn504 O520 2.297 . S
Mn504 O528 2.385 . S
Mn504 O529 2.209 . S
Mn504 O530 2.094 . S
Mn505 O510 2.121 . S
Mn505 N512 2.257 . S
Mn505 N521 2.282 . S
Mn505 O529 2.215 . S
Mn505 O531 2.117 . S
C506 O528 1.234 . S
C506 O529 1.283 . S
C507 O519 1.281 . S
C507 O520 1.236 . S
C508 O530 1.240 . S
C508 O531 1.264 . S
O509 Mn504 2.095 . S
O509 C518 1.250 . S
O510 Mn505 2.121 . S
O510 C518 1.258 . S
C511 N512 1.326 . S
C511 C515 1.460 . S
C511 H517 0.929 . S
N512 Mn505 2.257 . S
N512 C511 1.326 . S
N512 C516 1.362 . S
C513 C514 1.258 . S
C513 C516 1.431 . S
C513 C533 1.449 . S
C514 C513 1.258 . S
C514 C515 1.477 . S
C514 H534 0.931 . S
C515 C511 1.460 . S
C515 C514 1.477 . S
C515 H535 0.930 . S
C516 N512 1.362 . S
C516 C513 1.431 . S
C516 C526 1.476 . S
H517 C511 0.929 . S
C518 O509 1.250 . S
C518 O510 1.258 . S
O519 Mn504 2.162 . S
O519 C507 1.281 . S
O520 Mn504 2.297 . S
O520 C507 1.236 . S
N521 Mn505 2.282 . S
N521 C522 1.328 . S
N521 C526 1.318 . S
C522 N521 1.328 . S
C522 C523 1.457 . S
C522 H527 0.929 . S
C523 C522 1.457 . S
C523 C524 1.291 . S
C523 H536 0.931 . S
C524 C523 1.291 . S
C524 C525 1.373 . S
C524 H537 0.929 . S
C525 C524 1.373 . S
C525 C526 1.396 . S
C525 C532 1.403 . S
C526 C516 1.476 . S
C526 N521 1.318 . S
C526 C525 1.396 . S
H527 C522 0.929 . S
O528 Mn504 2.385 . S
O528 C506 1.234 . S
O529 Mn504 2.209 . S
O529 Mn505 2.215 . S
O529 C506 1.283 . S
O530 Mn504 2.094 . S
O530 C508 1.240 . S
O531 Mn505 2.117 . S
O531 C508 1.264 . S
C532 C525 1.403 . S
C532 C533 1.399 . S
C532 H538 0.929 . S
C533 C513 1.449 . S
C533 C532 1.399 . S
C533 H539 0.930 . S
H534 C514 0.931 . S
H535 C515 0.930 . S
H536 C523 0.931 . S
H537 C524 0.929 . S
H538 C532 0.929 . S
H539 C533 0.930 . S
Mn540 O545 2.095 . S
Mn540 O555 2.162 . S
Mn540 O556 2.297 . S
Mn540 O564 2.385 . S
Mn540 O565 2.209 . S
Mn540 O566 2.094 . S
Mn541 O546 2.121 . S
Mn541 N548 2.257 . S
Mn541 N557 2.282 . S
Mn541 O565 2.215 . S
Mn541 O567 2.117 . S
C542 O564 1.234 . S
C542 O565 1.283 . S
C543 O555 1.281 . S
C543 O556 1.236 . S
C544 O566 1.240 . S
C544 O567 1.264 . S
O545 Mn540 2.095 . S
O545 C554 1.250 . S
O546 Mn541 2.121 . S
O546 C554 1.258 . S
C547 N548 1.326 . S
C547 C551 1.460 . S
C547 H553 0.929 . S
N548 Mn541 2.257 . S
N548 C547 1.326 . S
N548 C552 1.362 . S
C549 C550 1.258 . S
C549 C552 1.431 . S
C549 C569 1.449 . S
C550 C549 1.258 . S
C550 C551 1.477 . S
C550 H570 0.931 . S
C551 C547 1.460 . S
C551 C550 1.477 . S
C551 H571 0.930 . S
C552 N548 1.362 . S
C552 C549 1.431 . S
C552 C562 1.476 . S
H553 C547 0.929 . S
C554 O545 1.250 . S
C554 O546 1.258 . S
O555 Mn540 2.162 . S
O555 C543 1.281 . S
O556 Mn540 2.297 . S
O556 C543 1.236 . S
N557 Mn541 2.282 . S
N557 C558 1.328 . S
N557 C562 1.318 . S
C558 N557 1.328 . S
C558 C559 1.457 . S
C558 H563 0.929 . S
C559 C558 1.457 . S
C559 C560 1.291 . S
C559 H572 0.931 . S
C560 C559 1.291 . S
C560 C561 1.373 . S
C560 H573 0.929 . S
C561 C560 1.373 . S
C561 C562 1.396 . S
C561 C568 1.403 . S
C562 C552 1.476 . S
C562 N557 1.318 . S
C562 C561 1.396 . S
H563 C558 0.929 . S
O564 Mn540 2.385 . S
O564 C542 1.234 . S
O565 Mn540 2.209 . S
O565 Mn541 2.215 . S
O565 C542 1.283 . S
O566 Mn540 2.094 . S
O566 C544 1.240 . S
O567 Mn541 2.117 . S
O567 C544 1.264 . S
C568 C561 1.403 . S
C568 C569 1.399 . S
C568 H574 0.929 . S
C569 C549 1.449 . S
C569 C568 1.399 . S
C569 H575 0.930 . S
H570 C550 0.931 . S
H571 C551 0.930 . S
H572 C559 0.931 . S
H573 C560 0.929 . S
H574 C568 0.929 . S
H575 C569 0.930 . S
Mn576 O581 2.095 . S
Mn576 O591 2.162 . S
Mn576 O592 2.297 . S
Mn576 O600 2.385 . S
Mn576 O601 2.209 . S
Mn576 O602 2.094 . S
Mn577 O582 2.121 . S
Mn577 N584 2.257 . S
Mn577 N593 2.282 . S
Mn577 O601 2.215 . S
Mn577 O603 2.117 . S
C578 O600 1.234 . S
C578 O601 1.283 . S
C579 O591 1.281 . S
C579 O592 1.236 . S
C580 O602 1.240 . S
C580 O603 1.264 . S
O581 Mn576 2.095 . S
O581 C590 1.250 . S
O582 Mn577 2.121 . S
O582 C590 1.258 . S
C583 N584 1.326 . S
C583 C587 1.460 . S
C583 H589 0.929 . S
N584 Mn577 2.257 . S
N584 C583 1.326 . S
N584 C588 1.362 . S
C585 C586 1.258 . S
C585 C588 1.431 . S
C585 C605 1.449 . S
C586 C585 1.258 . S
C586 C587 1.477 . S
C586 H606 0.931 . S
C587 C583 1.460 . S
C587 C586 1.477 . S
C587 H607 0.930 . S
C588 N584 1.362 . S
C588 C585 1.431 . S
C588 C598 1.476 . S
H589 C583 0.929 . S
C590 O581 1.250 . S
C590 O582 1.258 . S
O591 Mn576 2.162 . S
O591 C579 1.281 . S
O592 Mn576 2.297 . S
O592 C579 1.236 . S
N593 Mn577 2.282 . S
N593 C594 1.328 . S
N593 C598 1.318 . S
C594 N593 1.328 . S
C594 C595 1.457 . S
C594 H599 0.929 . S
C595 C594 1.457 . S
C595 C596 1.291 . S
C595 H608 0.931 . S
C596 C595 1.291 . S
C596 C597 1.373 . S
C596 H609 0.929 . S
C597 C596 1.373 . S
C597 C598 1.396 . S
C597 C604 1.403 . S
C598 C588 1.476 . S
C598 N593 1.318 . S
C598 C597 1.396 . S
H599 C594 0.929 . S
O600 Mn576 2.385 . S
O600 C578 1.234 . S
O601 Mn576 2.209 . S
O601 Mn577 2.215 . S
O601 C578 1.283 . S
O602 Mn576 2.094 . S
O602 C580 1.240 . S
O603 Mn577 2.117 . S
O603 C580 1.264 . S
C604 C597 1.403 . S
C604 C605 1.399 . S
C604 H610 0.929 . S
C605 C585 1.449 . S
C605 C604 1.399 . S
C605 H611 0.930 . S
H606 C586 0.931 . S
H607 C587 0.930 . S
H608 C595 0.931 . S
H609 C596 0.929 . S
H610 C604 0.929 . S
H611 C605 0.930 . S
Mn612 O617 2.095 . S
Mn612 O627 2.162 . S
Mn612 O628 2.297 . S
Mn612 O636 2.385 . S
Mn612 O637 2.209 . S
Mn612 O638 2.094 . S
Mn613 O618 2.121 . S
Mn613 N620 2.257 . S
Mn613 N629 2.282 . S
Mn613 O637 2.215 . S
Mn613 O639 2.117 . S
C614 O636 1.234 . S
C614 O637 1.283 . S
C615 O627 1.281 . S
C615 O628 1.236 . S
C616 O638 1.240 . S
C616 O639 1.264 . S
O617 Mn612 2.095 . S
O617 C626 1.250 . S
O618 Mn613 2.121 . S
O618 C626 1.258 . S
C619 N620 1.326 . S
C619 C623 1.460 . S
C619 H625 0.929 . S
N620 Mn613 2.257 . S
N620 C619 1.326 . S
N620 C624 1.362 . S
C621 C622 1.258 . S
C621 C624 1.431 . S
C621 C641 1.449 . S
C622 C621 1.258 . S
C622 C623 1.477 . S
C622 H642 0.931 . S
C623 C619 1.460 . S
C623 C622 1.477 . S
C623 H643 0.930 . S
C624 N620 1.362 . S
C624 C621 1.431 . S
C624 C634 1.476 . S
H625 C619 0.929 . S
C626 O617 1.250 . S
C626 O618 1.258 . S
O627 Mn612 2.162 . S
O627 C615 1.281 . S
O628 Mn612 2.297 . S
O628 C615 1.236 . S
N629 Mn613 2.282 . S
N629 C630 1.328 . S
N629 C634 1.318 . S
C630 N629 1.328 . S
C630 C631 1.457 . S
C630 H635 0.929 . S
C631 C630 1.457 . S
C631 C632 1.291 . S
C631 H644 0.931 . S
C632 C631 1.291 . S
C632 C633 1.373 . S
C632 H645 0.929 . S
C633 C632 1.373 . S
C633 C634 1.396 . S
C633 C640 1.403 . S
C634 C624 1.476 . S
C634 N629 1.318 . S
C634 C633 1.396 . S
H635 C630 0.929 . S
O636 Mn612 2.385 . S
O636 C614 1.234 . S
O637 Mn612 2.209 . S
O637 Mn613 2.215 . S
O637 C614 1.283 . S
O638 Mn612 2.094 . S
O638 C616 1.240 . S
O639 Mn613 2.117 . S
O639 C616 1.264 . S
C640 C633 1.403 . S
C640 C641 1.399 . S
C640 H646 0.929 . S
C641 C621 1.449 . S
C641 C640 1.399 . S
C641 H647 0.930 . S
H642 C622 0.931 . S
H643 C623 0.930 . S
H644 C631 0.931 . S
H645 C632 0.929 . S
H646 C640 0.929 . S
H647 C641 0.930 . S
Mn648 O653 2.095 . S
Mn648 O663 2.162 . S
Mn648 O664 2.297 . S
Mn648 O672 2.385 . S
Mn648 O673 2.209 . S
Mn648 O674 2.094 . S
Mn649 O654 2.121 . S
Mn649 N656 2.257 . S
Mn649 N665 2.282 . S
Mn649 O673 2.215 . S
Mn649 O675 2.117 . S
C650 O672 1.234 . S
C650 O673 1.283 . S
C651 O663 1.281 . S
C651 O664 1.236 . S
C652 O674 1.240 . S
C652 O675 1.264 . S
O653 Mn648 2.095 . S
O653 C662 1.250 . S
O654 Mn649 2.121 . S
O654 C662 1.258 . S
C655 N656 1.326 . S
C655 C659 1.460 . S
C655 H661 0.929 . S
N656 Mn649 2.257 . S
N656 C655 1.326 . S
N656 C660 1.362 . S
C657 C658 1.258 . S
C657 C660 1.431 . S
C657 C677 1.449 . S
C658 C657 1.258 . S
C658 C659 1.477 . S
C658 H678 0.931 . S
C659 C655 1.460 . S
C659 C658 1.477 . S
C659 H679 0.930 . S
C660 N656 1.362 . S
C660 C657 1.431 . S
C660 C670 1.476 . S
H661 C655 0.929 . S
C662 O653 1.250 . S
C662 O654 1.258 . S
O663 Mn648 2.162 . S
O663 C651 1.281 . S
O664 Mn648 2.297 . S
O664 C651 1.236 . S
N665 Mn649 2.282 . S
N665 C666 1.328 . S
N665 C670 1.318 . S
C666 N665 1.328 . S
C666 C667 1.457 . S
C666 H671 0.929 . S
C667 C666 1.457 . S
C667 C668 1.291 . S
C667 H680 0.931 . S
C668 C667 1.291 . S
C668 C669 1.373 . S
C668 H681 0.929 . S
C669 C668 1.373 . S
C669 C670 1.396 . S
C669 C676 1.403 . S
C670 C660 1.476 . S
C670 N665 1.318 . S
C670 C669 1.396 . S
H671 C666 0.929 . S
O672 Mn648 2.385 . S
O672 C650 1.234 . S
O673 Mn648 2.209 . S
O673 Mn649 2.215 . S
O673 C650 1.283 . S
O674 Mn648 2.094 . S
O674 C652 1.240 . S
O675 Mn649 2.117 . S
O675 C652 1.264 . S
C676 C669 1.403 . S
C676 C677 1.399 . S
C676 H682 0.929 . S
C677 C657 1.449 . S
C677 C676 1.399 . S
C677 H683 0.930 . S
H678 C658 0.931 . S
H679 C659 0.930 . S
H680 C667 0.931 . S
H681 C668 0.929 . S
H682 C676 0.929 . S
H683 C677 0.930 . S
Mn684 O689 2.095 . S
Mn684 O699 2.162 . S
Mn684 O700 2.297 . S
Mn684 O708 2.385 . S
Mn684 O709 2.209 . S
Mn684 O710 2.094 . S
Mn685 O690 2.121 . S
Mn685 N692 2.257 . S
Mn685 N701 2.282 . S
Mn685 O709 2.215 . S
Mn685 O711 2.117 . S
C686 O708 1.234 . S
C686 O709 1.283 . S
C687 O699 1.281 . S
C687 O700 1.236 . S
C688 O710 1.240 . S
C688 O711 1.264 . S
O689 Mn684 2.095 . S
O689 C698 1.250 . S
O690 Mn685 2.121 . S
O690 C698 1.258 . S
C691 N692 1.326 . S
C691 C695 1.460 . S
C691 H697 0.929 . S
N692 Mn685 2.257 . S
N692 C691 1.326 . S
N692 C696 1.362 . S
C693 C694 1.258 . S
C693 C696 1.431 . S
C693 C713 1.449 . S
C694 C693 1.258 . S
C694 C695 1.477 . S
C694 H714 0.931 . S
C695 C691 1.460 . S
C695 C694 1.477 . S
C695 H715 0.930 . S
C696 N692 1.362 . S
C696 C693 1.431 . S
C696 C706 1.476 . S
H697 C691 0.929 . S
C698 O689 1.250 . S
C698 O690 1.258 . S
O699 Mn684 2.162 . S
O699 C687 1.281 . S
O700 Mn684 2.297 . S
O700 C687 1.236 . S
N701 Mn685 2.282 . S
N701 C702 1.328 . S
N701 C706 1.318 . S
C702 N701 1.328 . S
C702 C703 1.457 . S
C702 H707 0.929 . S
C703 C702 1.457 . S
C703 C704 1.291 . S
C703 H716 0.931 . S
C704 C703 1.291 . S
C704 C705 1.373 . S
C704 H717 0.929 . S
C705 C704 1.373 . S
C705 C706 1.396 . S
C705 C712 1.403 . S
C706 C696 1.476 . S
C706 N701 1.318 . S
C706 C705 1.396 . S
H707 C702 0.929 . S
O708 Mn684 2.385 . S
O708 C686 1.234 . S
O709 Mn684 2.209 . S
O709 Mn685 2.215 . S
O709 C686 1.283 . S
O710 Mn684 2.094 . S
O710 C688 1.240 . S
O711 Mn685 2.117 . S
O711 C688 1.264 . S
C712 C705 1.403 . S
C712 C713 1.399 . S
C712 H718 0.929 . S
C713 C693 1.449 . S
C713 C712 1.399 . S
C713 H719 0.930 . S
H714 C694 0.931 . S
H715 C695 0.930 . S
H716 C703 0.931 . S
H717 C704 0.929 . S
H718 C712 0.929 . S
H719 C713 0.930 . S
Mn720 O725 2.095 . S
Mn720 O735 2.162 . S
Mn720 O736 2.297 . S
Mn720 O744 2.385 . S
Mn720 O745 2.209 . S
Mn720 O746 2.094 . S
Mn721 O726 2.121 . S
Mn721 N728 2.257 . S
Mn721 N737 2.282 . S
Mn721 O745 2.215 . S
Mn721 O747 2.117 . S
C722 O744 1.234 . S
C722 O745 1.283 . S
C723 O735 1.281 . S
C723 O736 1.236 . S
C724 O746 1.240 . S
C724 O747 1.264 . S
O725 Mn720 2.095 . S
O725 C734 1.250 . S
O726 Mn721 2.121 . S
O726 C734 1.258 . S
C727 N728 1.326 . S
C727 C731 1.460 . S
C727 H733 0.929 . S
N728 Mn721 2.257 . S
N728 C727 1.326 . S
N728 C732 1.362 . S
C729 C730 1.258 . S
C729 C732 1.431 . S
C729 C749 1.449 . S
C730 C729 1.258 . S
C730 C731 1.477 . S
C730 H750 0.931 . S
C731 C727 1.460 . S
C731 C730 1.477 . S
C731 H751 0.930 . S
C732 N728 1.362 . S
C732 C729 1.431 . S
C732 C742 1.476 . S
H733 C727 0.929 . S
C734 O725 1.250 . S
C734 O726 1.258 . S
O735 Mn720 2.162 . S
O735 C723 1.281 . S
O736 Mn720 2.297 . S
O736 C723 1.236 . S
N737 Mn721 2.282 . S
N737 C738 1.328 . S
N737 C742 1.318 . S
C738 N737 1.328 . S
C738 C739 1.457 . S
C738 H743 0.929 . S
C739 C738 1.457 . S
C739 C740 1.291 . S
C739 H752 0.931 . S
C740 C739 1.291 . S
C740 C741 1.373 . S
C740 H753 0.929 . S
C741 C740 1.373 . S
C741 C742 1.396 . S
C741 C748 1.403 . S
C742 C732 1.476 . S
C742 N737 1.318 . S
C742 C741 1.396 . S
H743 C738 0.929 . S
O744 Mn720 2.385 . S
O744 C722 1.234 . S
O745 Mn720 2.209 . S
O745 Mn721 2.215 . S
O745 C722 1.283 . S
O746 Mn720 2.094 . S
O746 C724 1.240 . S
O747 Mn721 2.117 . S
O747 C724 1.264 . S
C748 C741 1.403 . S
C748 C749 1.399 . S
C748 H754 0.929 . S
C749 C729 1.449 . S
C749 C748 1.399 . S
C749 H755 0.930 . S
H750 C730 0.931 . S
H751 C731 0.930 . S
H752 C739 0.931 . S
H753 C740 0.929 . S
H754 C748 0.929 . S
H755 C749 0.930 . S
Mn756 O761 2.095 . S
Mn756 O771 2.162 1_554 S
Mn756 O772 2.297 . S
Mn756 O780 2.385 1_554 S
Mn756 O781 2.209 . S
Mn756 O782 2.063 1_554 S
Mn757 O762 2.121 . S
Mn757 N764 2.257 . S
Mn757 N773 2.282 . S
Mn757 O781 2.215 . S
Mn757 O783 2.117 . S
C758 O780 1.234 1_554 S
C758 O781 1.283 . S
C759 O771 1.259 1_554 S
C759 O772 1.276 . S
C760 O782 1.211 1_554 S
C760 O783 1.264 . S
O761 Mn756 2.095 . S
O761 C770 1.250 . S
O762 Mn757 2.121 . S
O762 C770 1.258 . S
C763 N764 1.326 . S
C763 C767 1.460 . S
C763 H769 0.929 . S
N764 Mn757 2.257 . S
N764 C763 1.326 . S
N764 C768 1.362 . S
C765 C766 1.258 . S
C765 C768 1.431 . S
C765 C785 1.449 . S
C766 C765 1.258 . S
C766 C767 1.477 . S
C766 H786 0.931 . S
C767 C763 1.460 . S
C767 C766 1.477 . S
C767 H787 0.930 . S
C768 N764 1.362 . S
C768 C765 1.431 . S
C768 C778 1.476 . S
H769 C763 0.929 . S
C770 O761 1.250 . S
C770 O762 1.258 . S
O771 Mn756 2.162 1_556 S
O771 C759 1.259 1_556 S
O772 Mn756 2.297 . S
O772 C759 1.276 . S
N773 Mn757 2.282 . S
N773 C774 1.328 . S
N773 C778 1.318 . S
C774 N773 1.328 . S
C774 C775 1.426 1_554 S
C774 H779 0.955 . S
C775 C774 1.426 1_556 S
C775 C776 1.255 1_556 S
C775 H788 1.003 . S
C776 C775 1.255 1_554 S
C776 C777 1.373 . S
C776 H789 0.929 . S
C777 C776 1.373 . S
C777 C778 1.396 . S
C777 C784 1.403 . S
C778 C768 1.476 . S
C778 N773 1.318 . S
C778 C777 1.396 . S
H779 C774 0.955 . S
O780 Mn756 2.385 1_556 S
O780 C758 1.234 1_556 S
O781 Mn756 2.209 . S
O781 Mn757 2.215 . S
O781 C758 1.283 . S
O782 Mn756 2.063 1_556 S
O782 C760 1.211 1_556 S
O783 Mn757 2.117 . S
O783 C760 1.264 . S
C784 C777 1.403 . S
C784 C785 1.399 . S
C784 H790 0.929 . S
C785 C765 1.449 . S
C785 C784 1.399 . S
C785 H791 0.930 . S
H786 C766 0.931 . S
H787 C767 0.930 . S
H788 C775 1.003 . S
H789 C776 0.929 . S
H790 C784 0.929 . S
H791 C785 0.930 . S
Mn792 O797 2.095 . S
Mn792 O807 2.162 1_554 S
Mn792 O808 2.297 . S
Mn792 O816 2.385 1_554 S
Mn792 O817 2.209 . S
Mn792 O818 2.063 1_554 S
Mn793 O798 2.121 . S
Mn793 N800 2.257 . S
Mn793 N809 2.282 . S
Mn793 O817 2.215 . S
Mn793 O819 2.117 . S
C794 O816 1.234 1_554 S
C794 O817 1.283 . S
C795 O807 1.259 1_554 S
C795 O808 1.276 . S
C796 O818 1.211 1_554 S
C796 O819 1.264 . S
O797 Mn792 2.095 . S
O797 C806 1.250 . S
O798 Mn793 2.121 . S
O798 C806 1.258 . S
C799 N800 1.326 . S
C799 C803 1.460 . S
C799 H805 0.929 . S
N800 Mn793 2.257 . S
N800 C799 1.326 . S
N800 C804 1.362 . S
C801 C802 1.258 . S
C801 C804 1.431 . S
C801 C821 1.449 . S
C802 C801 1.258 . S
C802 C803 1.477 . S
C802 H822 0.931 . S
C803 C799 1.460 . S
C803 C802 1.477 . S
C803 H823 0.930 . S
C804 N800 1.362 . S
C804 C801 1.431 . S
C804 C814 1.476 . S
H805 C799 0.929 . S
C806 O797 1.250 . S
C806 O798 1.258 . S
O807 Mn792 2.162 1_556 S
O807 C795 1.259 1_556 S
O808 Mn792 2.297 . S
O808 C795 1.276 . S
N809 Mn793 2.282 . S
N809 C810 1.328 . S
N809 C814 1.318 . S
C810 N809 1.328 . S
C810 C811 1.426 1_554 S
C810 H815 0.955 . S
C811 C810 1.426 1_556 S
C811 C812 1.255 1_556 S
C811 H824 1.003 . S
C812 C811 1.255 1_554 S
C812 C813 1.373 . S
C812 H825 0.929 . S
C813 C812 1.373 . S
C813 C814 1.396 . S
C813 C820 1.403 . S
C814 C804 1.476 . S
C814 N809 1.318 . S
C814 C813 1.396 . S
H815 C810 0.955 . S
O816 Mn792 2.385 1_556 S
O816 C794 1.234 1_556 S
O817 Mn792 2.209 . S
O817 Mn793 2.215 . S
O817 C794 1.283 . S
O818 Mn792 2.063 1_556 S
O818 C796 1.211 1_556 S
O819 Mn793 2.117 . S
O819 C796 1.264 . S
C820 C813 1.403 . S
C820 C821 1.399 . S
C820 H826 0.929 . S
C821 C801 1.449 . S
C821 C820 1.399 . S
C821 H827 0.930 . S
H822 C802 0.931 . S
H823 C803 0.930 . S
H824 C811 1.003 . S
H825 C812 0.929 . S
H826 C820 0.929 . S
H827 C821 0.930 . S
Mn828 O833 2.095 . S
Mn828 O843 2.162 1_554 S
Mn828 O844 2.297 . S
Mn828 O852 2.385 1_554 S
Mn828 O853 2.209 . S
Mn828 O854 2.094 1_554 S
Mn829 O834 2.121 . S
Mn829 N836 2.257 . S
Mn829 N845 2.282 . S
Mn829 O853 2.215 . S
Mn829 O855 2.117 . S
C830 O852 1.234 1_554 S
C830 O853 1.283 . S
C831 O843 1.260 1_554 S
C831 O844 1.275 . S
C832 O854 1.240 1_554 S
C832 O855 1.264 . S
O833 Mn828 2.095 . S
O833 C842 1.250 . S
O834 Mn829 2.121 . S
O834 C842 1.258 . S
C835 N836 1.326 . S
C835 C839 1.460 . S
C835 H841 0.929 . S
N836 Mn829 2.257 . S
N836 C835 1.326 . S
N836 C840 1.362 . S
C837 C838 1.258 . S
C837 C840 1.431 . S
C837 C857 1.449 . S
C838 C837 1.258 . S
C838 C839 1.477 . S
C838 H858 0.931 . S
C839 C835 1.460 . S
C839 C838 1.477 . S
C839 H859 0.930 . S
C840 N836 1.362 . S
C840 C837 1.431 . S
C840 C850 1.476 . S
H841 C835 0.929 . S
C842 O833 1.250 . S
C842 O834 1.258 . S
O843 Mn828 2.162 1_556 S
O843 C831 1.260 1_556 S
O844 Mn828 2.297 . S
O844 C831 1.275 . S
N845 Mn829 2.282 . S
N845 C846 1.328 . S
N845 C850 1.318 . S
C846 N845 1.328 . S
C846 C847 1.426 1_554 S
C846 H851 0.954 . S
C847 C846 1.426 1_556 S
C847 C848 1.254 1_556 S
C847 H860 1.003 . S
C848 C847 1.254 1_554 S
C848 C849 1.373 . S
C848 H861 0.929 . S
C849 C848 1.373 . S
C849 C850 1.396 . S
C849 C856 1.403 . S
C850 C840 1.476 . S
C850 N845 1.318 . S
C850 C849 1.396 . S
H851 C846 0.954 . S
O852 Mn828 2.385 1_556 S
O852 C830 1.234 1_556 S
O853 Mn828 2.209 . S
O853 Mn829 2.215 . S
O853 C830 1.283 . S
O854 Mn828 2.094 1_556 S
O854 C832 1.240 1_556 S
O855 Mn829 2.117 . S
O855 C832 1.264 . S
C856 C849 1.403 . S
C856 C857 1.399 . S
C856 H862 0.929 . S
C857 C837 1.449 . S
C857 C856 1.399 . S
C857 H863 0.930 . S
H858 C838 0.931 . S
H859 C839 0.930 . S
H860 C847 1.003 . S
H861 C848 0.929 . S
H862 C856 0.929 . S
H863 C857 0.930 . S
Mn864 O869 2.095 . S
Mn864 O879 2.162 . S
Mn864 O880 2.297 . S
Mn864 O888 2.385 . S
Mn864 O889 2.209 . S
Mn864 O890 2.094 . S
Mn865 O870 2.121 . S
Mn865 N872 2.257 . S
Mn865 N881 2.282 . S
Mn865 O889 2.215 . S
Mn865 O891 2.117 . S
C866 O888 1.234 . S
C866 O889 1.283 . S
C867 O879 1.281 . S
C867 O880 1.236 . S
C868 O890 1.240 . S
C868 O891 1.264 . S
O869 Mn864 2.095 . S
O869 C878 1.250 . S
O870 Mn865 2.121 . S
O870 C878 1.258 . S
C871 N872 1.326 . S
C871 C875 1.460 . S
C871 H877 0.929 . S
N872 Mn865 2.257 . S
N872 C871 1.326 . S
N872 C876 1.362 . S
C873 C874 1.258 . S
C873 C876 1.431 . S
C873 C893 1.449 . S
C874 C873 1.258 . S
C874 C875 1.477 . S
C874 H894 0.931 . S
C875 C871 1.460 . S
C875 C874 1.477 . S
C875 H895 0.930 . S
C876 N872 1.362 . S
C876 C873 1.431 . S
C876 C886 1.476 . S
H877 C871 0.929 . S
C878 O869 1.250 . S
C878 O870 1.258 . S
O879 Mn864 2.162 . S
O879 C867 1.281 . S
O880 Mn864 2.297 . S
O880 C867 1.236 . S
N881 Mn865 2.282 . S
N881 C882 1.328 . S
N881 C886 1.318 . S
C882 N881 1.328 . S
C882 C883 1.457 . S
C882 H887 0.929 . S
C883 C882 1.457 . S
C883 C884 1.291 . S
C883 H896 0.931 . S
C884 C883 1.291 . S
C884 C885 1.373 . S
C884 H897 0.929 . S
C885 C884 1.373 . S
C885 C886 1.396 . S
C885 C892 1.403 . S
C886 C876 1.476 . S
C886 N881 1.318 . S
C886 C885 1.396 . S
H887 C882 0.929 . S
O888 Mn864 2.385 . S
O888 C866 1.234 . S
O889 Mn864 2.209 . S
O889 Mn865 2.215 . S
O889 C866 1.283 . S
O890 Mn864 2.094 . S
O890 C868 1.240 . S
O891 Mn865 2.117 . S
O891 C868 1.264 . S
C892 C885 1.403 . S
C892 C893 1.399 . S
C892 H898 0.929 . S
C893 C873 1.449 . S
C893 C892 1.399 . S
C893 H899 0.930 . S
H894 C874 0.931 . S
H895 C875 0.930 . S
H896 C883 0.931 . S
H897 C884 0.929 . S
H898 C892 0.929 . S
H899 C893 0.930 . S
Mn900 O905 2.095 . S
Mn900 O915 2.162 . S
Mn900 O916 2.297 . S
Mn900 O924 2.385 . S
Mn900 O925 2.209 . S
Mn900 O926 2.094 . S
Mn901 O906 2.121 . S
Mn901 N908 2.257 . S
Mn901 N917 2.282 . S
Mn901 O925 2.215 . S
Mn901 O927 2.117 . S
C902 O924 1.234 . S
C902 O925 1.283 . S
C903 O915 1.281 . S
C903 O916 1.236 . S
C904 O926 1.240 . S
C904 O927 1.264 . S
O905 Mn900 2.095 . S
O905 C914 1.250 . S
O906 Mn901 2.121 . S
O906 C914 1.258 . S
C907 N908 1.326 . S
C907 C911 1.460 . S
C907 H913 0.929 . S
N908 Mn901 2.257 . S
N908 C907 1.326 . S
N908 C912 1.362 . S
C909 C910 1.258 . S
C909 C912 1.431 . S
C909 C929 1.449 . S
C910 C909 1.258 . S
C910 C911 1.477 . S
C910 H930 0.931 . S
C911 C907 1.460 . S
C911 C910 1.477 . S
C911 H931 0.930 . S
C912 N908 1.362 . S
C912 C909 1.431 . S
C912 C922 1.476 . S
H913 C907 0.929 . S
C914 O905 1.250 . S
C914 O906 1.258 . S
O915 Mn900 2.162 . S
O915 C903 1.281 . S
O916 Mn900 2.297 . S
O916 C903 1.236 . S
N917 Mn901 2.282 . S
N917 C918 1.328 . S
N917 C922 1.318 . S
C918 N917 1.328 . S
C918 C919 1.457 . S
C918 H923 0.929 . S
C919 C918 1.457 . S
C919 C920 1.291 . S
C919 H932 0.931 . S
C920 C919 1.291 . S
C920 C921 1.373 . S
C920 H933 0.929 . S
C921 C920 1.373 . S
C921 C922 1.396 . S
C921 C928 1.403 . S
C922 C912 1.476 . S
C922 N917 1.318 . S
C922 C921 1.396 . S
H923 C918 0.929 . S
O924 Mn900 2.385 . S
O924 C902 1.234 . S
O925 Mn900 2.209 . S
O925 Mn901 2.215 . S
O925 C902 1.283 . S
O926 Mn900 2.094 . S
O926 C904 1.240 . S
O927 Mn901 2.117 . S
O927 C904 1.264 . S
C928 C921 1.403 . S
C928 C929 1.399 . S
C928 H934 0.929 . S
C929 C909 1.449 . S
C929 C928 1.399 . S
C929 H935 0.930 . S
H930 C910 0.931 . S
H931 C911 0.930 . S
H932 C919 0.931 . S
H933 C920 0.929 . S
H934 C928 0.929 . S
H935 C929 0.930 . S
Mn936 O941 2.095 . S
Mn936 O951 2.162 . S
Mn936 O952 2.297 . S
Mn936 O960 2.385 . S
Mn936 O961 2.209 . S
Mn936 O962 2.094 . S
Mn937 O942 2.121 . S
Mn937 N944 2.257 . S
Mn937 N953 2.282 . S
Mn937 O961 2.215 . S
Mn937 O963 2.117 . S
C938 O960 1.234 . S
C938 O961 1.283 . S
C939 O951 1.281 . S
C939 O952 1.236 . S
C940 O962 1.240 . S
C940 O963 1.264 . S
O941 Mn936 2.095 . S
O941 C950 1.250 . S
O942 Mn937 2.121 . S
O942 C950 1.258 . S
C943 N944 1.326 . S
C943 C947 1.460 . S
C943 H949 0.929 . S
N944 Mn937 2.257 . S
N944 C943 1.326 . S
N944 C948 1.362 . S
C945 C946 1.258 . S
C945 C948 1.431 . S
C945 C965 1.449 . S
C946 C945 1.258 . S
C946 C947 1.477 . S
C946 H966 0.931 . S
C947 C943 1.460 . S
C947 C946 1.477 . S
C947 H967 0.930 . S
C948 N944 1.362 . S
C948 C945 1.431 . S
C948 C958 1.476 . S
H949 C943 0.929 . S
C950 O941 1.250 . S
C950 O942 1.258 . S
O951 Mn936 2.162 . S
O951 C939 1.281 . S
O952 Mn936 2.297 . S
O952 C939 1.236 . S
N953 Mn937 2.282 . S
N953 C954 1.328 . S
N953 C958 1.318 . S
C954 N953 1.328 . S
C954 C955 1.457 . S
C954 H959 0.929 . S
C955 C954 1.457 . S
C955 C956 1.291 . S
C955 H968 0.931 . S
C956 C955 1.291 . S
C956 C957 1.373 . S
C956 H969 0.929 . S
C957 C956 1.373 . S
C957 C958 1.396 . S
C957 C964 1.403 . S
C958 C948 1.476 . S
C958 N953 1.318 . S
C958 C957 1.396 . S
H959 C954 0.929 . S
O960 Mn936 2.385 . S
O960 C938 1.234 . S
O961 Mn936 2.209 . S
O961 Mn937 2.215 . S
O961 C938 1.283 . S
O962 Mn936 2.094 . S
O962 C940 1.240 . S
O963 Mn937 2.117 . S
O963 C940 1.264 . S
C964 C957 1.403 . S
C964 C965 1.399 . S
C964 H970 0.929 . S
C965 C945 1.449 . S
C965 C964 1.399 . S
C965 H971 0.930 . S
H966 C946 0.931 . S
H967 C947 0.930 . S
H968 C955 0.931 . S
H969 C956 0.929 . S
H970 C964 0.929 . S
H971 C965 0.930 . S
Mn972 O977 2.095 . S
Mn972 O987 2.162 1_556 S
Mn972 O988 2.297 . S
Mn972 O996 2.385 1_556 S
Mn972 O997 2.209 . S
Mn972 O998 2.094 1_556 S
Mn973 O978 2.121 . S
Mn973 N980 2.257 . S
Mn973 N989 2.282 . S
Mn973 O997 2.215 . S
Mn973 O999 2.117 . S
C974 O996 1.234 1_556 S
C974 O997 1.283 . S
C975 O987 1.281 1_556 S
C975 O988 1.236 . S
C976 O998 1.240 1_556 S
C976 O999 1.264 . S
O977 Mn972 2.095 . S
O977 C986 1.250 . S
O978 Mn973 2.121 . S
O978 C986 1.258 . S
C979 N980 1.326 . S
C979 C983 1.460 . S
C979 H985 0.929 . S
N980 Mn973 2.257 . S
N980 C979 1.326 . S
N980 C984 1.362 . S
C981 C982 1.258 . S
C981 C984 1.431 . S
C981 C1001 1.449 . S
C982 C981 1.258 . S
C982 C983 1.477 . S
C982 H1002 0.931 . S
C983 C979 1.460 . S
C983 C982 1.477 . S
C983 H1003 0.930 . S
C984 N980 1.362 . S
C984 C981 1.431 . S
C984 C994 1.476 . S
H985 C979 0.929 . S
C986 O977 1.250 . S
C986 O978 1.258 . S
O987 Mn972 2.162 1_554 S
O987 C975 1.281 1_554 S
O988 Mn972 2.297 . S
O988 C975 1.236 . S
N989 Mn973 2.282 . S
N989 C990 1.328 . S
N989 C994 1.318 . S
C990 N989 1.328 . S
C990 C991 1.457 1_556 S
C990 H995 0.929 1_556 S
C991 C990 1.457 1_554 S
C991 C992 1.291 1_554 S
C991 H1004 0.931 . S
C992 C991 1.291 1_556 S
C992 C993 1.373 . S
C992 H1005 0.929 1_556 S
C993 C992 1.373 . S
C993 C994 1.396 . S
C993 C1000 1.403 . S
C994 C984 1.476 . S
C994 N989 1.318 . S
C994 C993 1.396 . S
H995 C990 0.929 1_554 S
O996 Mn972 2.385 1_554 S
O996 C974 1.234 1_554 S
O997 Mn972 2.209 . S
O997 Mn973 2.215 . S
O997 C974 1.283 . S
O998 Mn972 2.094 1_554 S
O998 C976 1.240 1_554 S
O999 Mn973 2.117 . S
O999 C976 1.264 . S
C1000 C993 1.403 . S
C1000 C1001 1.399 . S
C1000 H1006 0.929 . S
C1001 C981 1.449 . S
C1001 C1000 1.399 . S
C1001 H1007 0.930 . S
H1002 C982 0.931 . S
H1003 C983 0.930 . S
H1004 C991 0.931 . S
H1005 C992 0.929 1_554 S
H1006 C1000 0.929 . S
H1007 C1001 0.930 . S
Mn1008 O1013 2.095 . S
Mn1008 O1023 2.162 1_556 S
Mn1008 O1024 2.297 . S
Mn1008 O1032 2.385 1_556 S
Mn1008 O1033 2.209 . S
Mn1008 O1034 2.094 1_556 S
Mn1009 O1014 2.121 . S
Mn1009 N1016 2.257 . S
Mn1009 N1025 2.282 . S
Mn1009 O1033 2.215 . S
Mn1009 O1035 2.117 . S
C1010 O1032 1.234 1_556 S
C1010 O1033 1.283 . S
C1011 O1023 1.281 1_556 S
C1011 O1024 1.236 . S
C1012 O1034 1.240 1_556 S
C1012 O1035 1.264 . S
O1013 Mn1008 2.095 . S
O1013 C1022 1.250 . S
O1014 Mn1009 2.121 . S
O1014 C1022 1.258 . S
C1015 N1016 1.326 . S
C1015 C1019 1.460 . S
C1015 H1021 0.929 . S
N1016 Mn1009 2.257 . S
N1016 C1015 1.326 . S
N1016 C1020 1.362 . S
C1017 C1018 1.258 . S
C1017 C1020 1.431 . S
C1017 C1037 1.449 . S
C1018 C1017 1.258 . S
C1018 C1019 1.477 . S
C1018 H1038 0.931 . S
C1019 C1015 1.460 . S
C1019 C1018 1.477 . S
C1019 H1039 0.930 . S
C1020 N1016 1.362 . S
C1020 C1017 1.431 . S
C1020 C1030 1.476 . S
H1021 C1015 0.929 . S
C1022 O1013 1.250 . S
C1022 O1014 1.258 . S
O1023 Mn1008 2.162 1_554 S
O1023 C1011 1.281 1_554 S
O1024 Mn1008 2.297 . S
O1024 C1011 1.236 . S
N1025 Mn1009 2.282 . S
N1025 C1026 1.328 . S
N1025 C1030 1.318 . S
C1026 N1025 1.328 . S
C1026 C1027 1.457 1_556 S
C1026 H1031 0.929 1_556 S
C1027 C1026 1.457 1_554 S
C1027 C1028 1.291 1_554 S
C1027 H1040 0.931 . S
C1028 C1027 1.291 1_556 S
C1028 C1029 1.373 . S
C1028 H1041 0.929 1_556 S
C1029 C1028 1.373 . S
C1029 C1030 1.396 . S
C1029 C1036 1.403 . S
C1030 C1020 1.476 . S
C1030 N1025 1.318 . S
C1030 C1029 1.396 . S
H1031 C1026 0.929 1_554 S
O1032 Mn1008 2.385 1_554 S
O1032 C1010 1.234 1_554 S
O1033 Mn1008 2.209 . S
O1033 Mn1009 2.215 . S
O1033 C1010 1.283 . S
O1034 Mn1008 2.094 1_554 S
O1034 C1012 1.240 1_554 S
O1035 Mn1009 2.117 . S
O1035 C1012 1.264 . S
C1036 C1029 1.403 . S
C1036 C1037 1.399 . S
C1036 H1042 0.929 . S
C1037 C1017 1.449 . S
C1037 C1036 1.399 . S
C1037 H1043 0.930 . S
H1038 C1018 0.931 . S
H1039 C1019 0.930 . S
H1040 C1027 0.931 . S
H1041 C1028 0.929 1_554 S
H1042 C1036 0.929 . S
H1043 C1037 0.930 . S
Mn1044 O1049 2.095 . S
Mn1044 O1059 2.162 1_556 S
Mn1044 O1060 2.297 . S
Mn1044 O1068 2.385 1_556 S
Mn1044 O1069 2.209 . S
Mn1044 O1070 2.094 1_556 S
Mn1045 O1050 2.121 . S
Mn1045 N1052 2.257 . S
Mn1045 N1061 2.282 . S
Mn1045 O1069 2.215 . S
Mn1045 O1071 2.117 . S
C1046 O1068 1.234 1_556 S
C1046 O1069 1.283 . S
C1047 O1059 1.281 1_556 S
C1047 O1060 1.236 . S
C1048 O1070 1.240 1_556 S
C1048 O1071 1.264 . S
O1049 Mn1044 2.095 . S
O1049 C1058 1.250 . S
O1050 Mn1045 2.121 . S
O1050 C1058 1.258 . S
C1051 N1052 1.326 . S
C1051 C1055 1.460 . S
C1051 H1057 0.929 . S
N1052 Mn1045 2.257 . S
N1052 C1051 1.326 . S
N1052 C1056 1.362 . S
C1053 C1054 1.258 . S
C1053 C1056 1.431 . S
C1053 C1073 1.449 . S
C1054 C1053 1.258 . S
C1054 C1055 1.477 . S
C1054 H1074 0.931 . S
C1055 C1051 1.460 . S
C1055 C1054 1.477 . S
C1055 H1075 0.930 . S
C1056 N1052 1.362 . S
C1056 C1053 1.431 . S
C1056 C1066 1.476 . S
H1057 C1051 0.929 . S
C1058 O1049 1.250 . S
C1058 O1050 1.258 . S
O1059 Mn1044 2.162 1_554 S
O1059 C1047 1.281 1_554 S
O1060 Mn1044 2.297 . S
O1060 C1047 1.236 . S
N1061 Mn1045 2.282 . S
N1061 C1062 1.328 . S
N1061 C1066 1.318 . S
C1062 N1061 1.328 . S
C1062 C1063 1.457 1_556 S
C1062 H1067 0.929 1_556 S
C1063 C1062 1.457 1_554 S
C1063 C1064 1.291 1_554 S
C1063 H1076 0.931 . S
C1064 C1063 1.291 1_556 S
C1064 C1065 1.373 . S
C1064 H1077 0.929 1_556 S
C1065 C1064 1.373 . S
C1065 C1066 1.396 . S
C1065 C1072 1.403 . S
C1066 C1056 1.476 . S
C1066 N1061 1.318 . S
C1066 C1065 1.396 . S
H1067 C1062 0.929 1_554 S
O1068 Mn1044 2.385 1_554 S
O1068 C1046 1.234 1_554 S
O1069 Mn1044 2.209 . S
O1069 Mn1045 2.215 . S
O1069 C1046 1.283 . S
O1070 Mn1044 2.094 1_554 S
O1070 C1048 1.240 1_554 S
O1071 Mn1045 2.117 . S
O1071 C1048 1.264 . S
C1072 C1065 1.403 . S
C1072 C1073 1.399 . S
C1072 H1078 0.929 . S
C1073 C1053 1.449 . S
C1073 C1072 1.399 . S
C1073 H1079 0.930 . S
H1074 C1054 0.931 . S
H1075 C1055 0.930 . S
H1076 C1063 0.931 . S
H1077 C1064 0.929 1_554 S
H1078 C1072 0.929 . S
H1079 C1073 0.930 . S
Mn1080 O1085 2.095 . S
Mn1080 O1095 2.162 . S
Mn1080 O1096 2.297 . S
Mn1080 O1104 2.385 . S
Mn1080 O1105 2.209 . S
Mn1080 O1106 2.094 . S
Mn1081 O1086 2.121 . S
Mn1081 N1088 2.257 . S
Mn1081 N1097 2.282 . S
Mn1081 O1105 2.215 . S
Mn1081 O1107 2.117 . S
C1082 O1104 1.234 . S
C1082 O1105 1.283 . S
C1083 O1095 1.281 . S
C1083 O1096 1.236 . S
C1084 O1106 1.240 . S
C1084 O1107 1.264 . S
O1085 Mn1080 2.095 . S
O1085 C1094 1.250 . S
O1086 Mn1081 2.121 . S
O1086 C1094 1.258 . S
C1087 N1088 1.326 . S
C1087 C1091 1.460 . S
C1087 H1093 0.929 . S
N1088 Mn1081 2.257 . S
N1088 C1087 1.326 . S
N1088 C1092 1.362 . S
C1089 C1090 1.258 . S
C1089 C1092 1.431 . S
C1089 C1109 1.449 . S
C1090 C1089 1.258 . S
C1090 C1091 1.477 . S
C1090 H1110 0.931 . S
C1091 C1087 1.460 . S
C1091 C1090 1.477 . S
C1091 H1111 0.930 . S
C1092 N1088 1.362 . S
C1092 C1089 1.431 . S
C1092 C1102 1.476 . S
H1093 C1087 0.929 . S
C1094 O1085 1.250 . S
C1094 O1086 1.258 . S
O1095 Mn1080 2.162 . S
O1095 C1083 1.281 . S
O1096 Mn1080 2.297 . S
O1096 C1083 1.236 . S
N1097 Mn1081 2.282 . S
N1097 C1098 1.328 . S
N1097 C1102 1.318 . S
C1098 N1097 1.328 . S
C1098 C1099 1.457 . S
C1098 H1103 0.929 . S
C1099 C1098 1.457 . S
C1099 C1100 1.291 . S
C1099 H1112 0.931 . S
C1100 C1099 1.291 . S
C1100 C1101 1.373 . S
C1100 H1113 0.929 . S
C1101 C1100 1.373 . S
C1101 C1102 1.396 . S
C1101 C1108 1.403 . S
C1102 C1092 1.476 . S
C1102 N1097 1.318 . S
C1102 C1101 1.396 . S
H1103 C1098 0.929 . S
O1104 Mn1080 2.385 . S
O1104 C1082 1.234 . S
O1105 Mn1080 2.209 . S
O1105 Mn1081 2.215 . S
O1105 C1082 1.283 . S
O1106 Mn1080 2.094 . S
O1106 C1084 1.240 . S
O1107 Mn1081 2.117 . S
O1107 C1084 1.264 . S
C1108 C1101 1.403 . S
C1108 C1109 1.399 . S
C1108 H1114 0.929 . S
C1109 C1089 1.449 . S
C1109 C1108 1.399 . S
C1109 H1115 0.930 . S
H1110 C1090 0.931 . S
H1111 C1091 0.930 . S
H1112 C1099 0.931 . S
H1113 C1100 0.929 . S
H1114 C1108 0.929 . S
H1115 C1109 0.930 . S
Mn1116 O1121 2.095 . S
Mn1116 O1131 2.162 . S
Mn1116 O1132 2.297 . S
Mn1116 O1140 2.385 . S
Mn1116 O1141 2.209 . S
Mn1116 O1142 2.094 . S
Mn1117 O1122 2.121 . S
Mn1117 N1124 2.257 . S
Mn1117 N1133 2.282 . S
Mn1117 O1141 2.215 . S
Mn1117 O1143 2.117 . S
C1118 O1140 1.234 . S
C1118 O1141 1.283 . S
C1119 O1131 1.281 . S
C1119 O1132 1.236 . S
C1120 O1142 1.240 . S
C1120 O1143 1.264 . S
O1121 Mn1116 2.095 . S
O1121 C1130 1.250 . S
O1122 Mn1117 2.121 . S
O1122 C1130 1.258 . S
C1123 N1124 1.326 . S
C1123 C1127 1.460 . S
C1123 H1129 0.929 . S
N1124 Mn1117 2.257 . S
N1124 C1123 1.326 . S
N1124 C1128 1.362 . S
C1125 C1126 1.258 . S
C1125 C1128 1.431 . S
C1125 C1145 1.449 . S
C1126 C1125 1.258 . S
C1126 C1127 1.477 . S
C1126 H1146 0.931 . S
C1127 C1123 1.460 . S
C1127 C1126 1.477 . S
C1127 H1147 0.930 . S
C1128 N1124 1.362 . S
C1128 C1125 1.431 . S
C1128 C1138 1.476 . S
H1129 C1123 0.929 . S
C1130 O1121 1.250 . S
C1130 O1122 1.258 . S
O1131 Mn1116 2.162 . S
O1131 C1119 1.281 . S
O1132 Mn1116 2.297 . S
O1132 C1119 1.236 . S
N1133 Mn1117 2.282 . S
N1133 C1134 1.328 . S
N1133 C1138 1.318 . S
C1134 N1133 1.328 . S
C1134 C1135 1.457 . S
C1134 H1139 0.929 . S
C1135 C1134 1.457 . S
C1135 C1136 1.291 . S
C1135 H1148 0.931 . S
C1136 C1135 1.291 . S
C1136 C1137 1.373 . S
C1136 H1149 0.929 . S
C1137 C1136 1.373 . S
C1137 C1138 1.396 . S
C1137 C1144 1.403 . S
C1138 C1128 1.476 . S
C1138 N1133 1.318 . S
C1138 C1137 1.396 . S
H1139 C1134 0.929 . S
O1140 Mn1116 2.385 . S
O1140 C1118 1.234 . S
O1141 Mn1116 2.209 . S
O1141 Mn1117 2.215 . S
O1141 C1118 1.283 . S
O1142 Mn1116 2.094 . S
O1142 C1120 1.240 . S
O1143 Mn1117 2.117 . S
O1143 C1120 1.264 . S
C1144 C1137 1.403 . S
C1144 C1145 1.399 . S
C1144 H1150 0.929 . S
C1145 C1125 1.449 . S
C1145 C1144 1.399 . S
C1145 H1151 0.930 . S
H1146 C1126 0.931 . S
H1147 C1127 0.930 . S
H1148 C1135 0.931 . S
H1149 C1136 0.929 . S
H1150 C1144 0.929 . S
H1151 C1145 0.930 . S
Mn1152 O1157 2.095 . S
Mn1152 O1167 2.162 . S
Mn1152 O1168 2.297 . S
Mn1152 O1176 2.385 . S
Mn1152 O1177 2.209 . S
Mn1152 O1178 2.094 . S
Mn1153 O1158 2.121 . S
Mn1153 N1160 2.257 . S
Mn1153 N1169 2.282 . S
Mn1153 O1177 2.215 . S
Mn1153 O1179 2.117 . S
C1154 O1176 1.234 . S
C1154 O1177 1.283 . S
C1155 O1167 1.281 . S
C1155 O1168 1.236 . S
C1156 O1178 1.240 . S
C1156 O1179 1.264 . S
O1157 Mn1152 2.095 . S
O1157 C1166 1.250 . S
O1158 Mn1153 2.121 . S
O1158 C1166 1.258 . S
C1159 N1160 1.326 . S
C1159 C1163 1.460 . S
C1159 H1165 0.929 . S
N1160 Mn1153 2.257 . S
N1160 C1159 1.326 . S
N1160 C1164 1.362 . S
C1161 C1162 1.258 . S
C1161 C1164 1.431 . S
C1161 C1181 1.449 . S
C1162 C1161 1.258 . S
C1162 C1163 1.477 . S
C1162 H1182 0.931 . S
C1163 C1159 1.460 . S
C1163 C1162 1.477 . S
C1163 H1183 0.930 . S
C1164 N1160 1.362 . S
C1164 C1161 1.431 . S
C1164 C1174 1.476 . S
H1165 C1159 0.929 . S
C1166 O1157 1.250 . S
C1166 O1158 1.258 . S
O1167 Mn1152 2.162 . S
O1167 C1155 1.281 . S
O1168 Mn1152 2.297 . S
O1168 C1155 1.236 . S
N1169 Mn1153 2.282 . S
N1169 C1170 1.328 . S
N1169 C1174 1.318 . S
C1170 N1169 1.328 . S
C1170 C1171 1.457 . S
C1170 H1175 0.929 . S
C1171 C1170 1.457 . S
C1171 C1172 1.291 . S
C1171 H1184 0.931 . S
C1172 C1171 1.291 . S
C1172 C1173 1.373 . S
C1172 H1185 0.929 . S
C1173 C1172 1.373 . S
C1173 C1174 1.396 . S
C1173 C1180 1.403 . S
C1174 C1164 1.476 . S
C1174 N1169 1.318 . S
C1174 C1173 1.396 . S
H1175 C1170 0.929 . S
O1176 Mn1152 2.385 . S
O1176 C1154 1.234 . S
O1177 Mn1152 2.209 . S
O1177 Mn1153 2.215 . S
O1177 C1154 1.283 . S
O1178 Mn1152 2.094 . S
O1178 C1156 1.240 . S
O1179 Mn1153 2.117 . S
O1179 C1156 1.264 . S
C1180 C1173 1.403 . S
C1180 C1181 1.399 . S
C1180 H1186 0.929 . S
C1181 C1161 1.449 . S
C1181 C1180 1.399 . S
C1181 H1187 0.930 . S
H1182 C1162 0.931 . S
H1183 C1163 0.930 . S
H1184 C1171 0.931 . S
H1185 C1172 0.929 . S
H1186 C1180 0.929 . S
H1187 C1181 0.930 . S
Mn1188 O1193 2.095 . S
Mn1188 O1203 2.162 . S
Mn1188 O1204 2.297 . S
Mn1188 O1212 2.385 . S
Mn1188 O1213 2.209 . S
Mn1188 O1214 2.094 . S
Mn1189 O1194 2.121 . S
Mn1189 N1196 2.257 . S
Mn1189 N1205 2.282 . S
Mn1189 O1213 2.215 . S
Mn1189 O1215 2.117 . S
C1190 O1212 1.234 . S
C1190 O1213 1.283 . S
C1191 O1203 1.281 . S
C1191 O1204 1.236 . S
C1192 O1214 1.240 . S
C1192 O1215 1.264 . S
O1193 Mn1188 2.095 . S
O1193 C1202 1.250 . S
O1194 Mn1189 2.121 . S
O1194 C1202 1.258 . S
C1195 N1196 1.326 . S
C1195 C1199 1.460 . S
C1195 H1201 0.929 . S
N1196 Mn1189 2.257 . S
N1196 C1195 1.326 . S
N1196 C1200 1.362 . S
C1197 C1198 1.258 . S
C1197 C1200 1.431 . S
C1197 C1217 1.449 . S
C1198 C1197 1.258 . S
C1198 C1199 1.477 . S
C1198 H1218 0.931 . S
C1199 C1195 1.460 . S
C1199 C1198 1.477 . S
C1199 H1219 0.930 . S
C1200 N1196 1.362 . S
C1200 C1197 1.431 . S
C1200 C1210 1.476 . S
H1201 C1195 0.929 . S
C1202 O1193 1.250 . S
C1202 O1194 1.258 . S
O1203 Mn1188 2.162 . S
O1203 C1191 1.281 . S
O1204 Mn1188 2.297 . S
O1204 C1191 1.236 . S
N1205 Mn1189 2.282 . S
N1205 C1206 1.328 . S
N1205 C1210 1.318 . S
C1206 N1205 1.328 . S
C1206 C1207 1.457 . S
C1206 H1211 0.929 . S
C1207 C1206 1.457 . S
C1207 C1208 1.291 . S
C1207 H1220 0.931 . S
C1208 C1207 1.291 . S
C1208 C1209 1.373 . S
C1208 H1221 0.929 . S
C1209 C1208 1.373 . S
C1209 C1210 1.396 . S
C1209 C1216 1.403 . S
C1210 C1200 1.476 . S
C1210 N1205 1.318 . S
C1210 C1209 1.396 . S
H1211 C1206 0.929 . S
O1212 Mn1188 2.385 . S
O1212 C1190 1.234 . S
O1213 Mn1188 2.209 . S
O1213 Mn1189 2.215 . S
O1213 C1190 1.283 . S
O1214 Mn1188 2.094 . S
O1214 C1192 1.240 . S
O1215 Mn1189 2.117 . S
O1215 C1192 1.264 . S
C1216 C1209 1.403 . S
C1216 C1217 1.399 . S
C1216 H1222 0.929 . S
C1217 C1197 1.449 . S
C1217 C1216 1.399 . S
C1217 H1223 0.930 . S
H1218 C1198 0.931 . S
H1219 C1199 0.930 . S
H1220 C1207 0.931 . S
H1221 C1208 0.929 . S
H1222 C1216 0.929 . S
H1223 C1217 0.930 . S
Mn1224 O1229 2.095 . S
Mn1224 O1239 2.162 . S
Mn1224 O1240 2.297 . S
Mn1224 O1248 2.385 . S
Mn1224 O1249 2.209 . S
Mn1224 O1250 2.094 . S
Mn1225 O1230 2.121 . S
Mn1225 N1232 2.257 . S
Mn1225 N1241 2.282 . S
Mn1225 O1249 2.215 . S
Mn1225 O1251 2.117 . S
C1226 O1248 1.234 . S
C1226 O1249 1.283 . S
C1227 O1239 1.281 . S
C1227 O1240 1.236 . S
C1228 O1250 1.240 . S
C1228 O1251 1.264 . S
O1229 Mn1224 2.095 . S
O1229 C1238 1.250 . S
O1230 Mn1225 2.121 . S
O1230 C1238 1.258 . S
C1231 N1232 1.326 . S
C1231 C1235 1.460 . S
C1231 H1237 0.929 . S
N1232 Mn1225 2.257 . S
N1232 C1231 1.326 . S
N1232 C1236 1.362 . S
C1233 C1234 1.258 . S
C1233 C1236 1.431 . S
C1233 C1253 1.449 . S
C1234 C1233 1.258 . S
C1234 C1235 1.477 . S
C1234 H1254 0.931 . S
C1235 C1231 1.460 . S
C1235 C1234 1.477 . S
C1235 H1255 0.930 . S
C1236 N1232 1.362 . S
C1236 C1233 1.431 . S
C1236 C1246 1.476 . S
H1237 C1231 0.929 . S
C1238 O1229 1.250 . S
C1238 O1230 1.258 . S
O1239 Mn1224 2.162 . S
O1239 C1227 1.281 . S
O1240 Mn1224 2.297 . S
O1240 C1227 1.236 . S
N1241 Mn1225 2.282 . S
N1241 C1242 1.328 . S
N1241 C1246 1.318 . S
C1242 N1241 1.328 . S
C1242 C1243 1.457 . S
C1242 H1247 0.929 . S
C1243 C1242 1.457 . S
C1243 C1244 1.291 . S
C1243 H1256 0.931 . S
C1244 C1243 1.291 . S
C1244 C1245 1.373 . S
C1244 H1257 0.929 . S
C1245 C1244 1.373 . S
C1245 C1246 1.396 . S
C1245 C1252 1.403 . S
C1246 C1236 1.476 . S
C1246 N1241 1.318 . S
C1246 C1245 1.396 . S
H1247 C1242 0.929 . S
O1248 Mn1224 2.385 . S
O1248 C1226 1.234 . S
O1249 Mn1224 2.209 . S
O1249 Mn1225 2.215 . S
O1249 C1226 1.283 . S
O1250 Mn1224 2.094 . S
O1250 C1228 1.240 . S
O1251 Mn1225 2.117 . S
O1251 C1228 1.264 . S
C1252 C1245 1.403 . S
C1252 C1253 1.399 . S
C1252 H1258 0.929 . S
C1253 C1233 1.449 . S
C1253 C1252 1.399 . S
C1253 H1259 0.930 . S
H1254 C1234 0.931 . S
H1255 C1235 0.930 . S
H1256 C1243 0.931 . S
H1257 C1244 0.929 . S
H1258 C1252 0.929 . S
H1259 C1253 0.930 . S
Mn1260 O1265 2.095 . S
Mn1260 O1275 2.162 . S
Mn1260 O1276 2.297 . S
Mn1260 O1284 2.385 . S
Mn1260 O1285 2.209 . S
Mn1260 O1286 2.094 . S
Mn1261 O1266 2.121 . S
Mn1261 N1268 2.257 . S
Mn1261 N1277 2.282 . S
Mn1261 O1285 2.215 . S
Mn1261 O1287 2.117 . S
C1262 O1284 1.234 . S
C1262 O1285 1.283 . S
C1263 O1275 1.281 . S
C1263 O1276 1.236 . S
C1264 O1286 1.240 . S
C1264 O1287 1.264 . S
O1265 Mn1260 2.095 . S
O1265 C1274 1.250 . S
O1266 Mn1261 2.121 . S
O1266 C1274 1.258 . S
C1267 N1268 1.326 . S
C1267 C1271 1.460 . S
C1267 H1273 0.929 . S
N1268 Mn1261 2.257 . S
N1268 C1267 1.326 . S
N1268 C1272 1.362 . S
C1269 C1270 1.258 . S
C1269 C1272 1.431 . S
C1269 C1289 1.449 . S
C1270 C1269 1.258 . S
C1270 C1271 1.477 . S
C1270 H1290 0.931 . S
C1271 C1267 1.460 . S
C1271 C1270 1.477 . S
C1271 H1291 0.930 . S
C1272 N1268 1.362 . S
C1272 C1269 1.431 . S
C1272 C1282 1.476 . S
H1273 C1267 0.929 . S
C1274 O1265 1.250 . S
C1274 O1266 1.258 . S
O1275 Mn1260 2.162 . S
O1275 C1263 1.281 . S
O1276 Mn1260 2.297 . S
O1276 C1263 1.236 . S
N1277 Mn1261 2.282 . S
N1277 C1278 1.328 . S
N1277 C1282 1.318 . S
C1278 N1277 1.328 . S
C1278 C1279 1.457 . S
C1278 H1283 0.929 . S
C1279 C1278 1.457 . S
C1279 C1280 1.291 . S
C1279 H1292 0.931 . S
C1280 C1279 1.291 . S
C1280 C1281 1.373 . S
C1280 H1293 0.929 . S
C1281 C1280 1.373 . S
C1281 C1282 1.396 . S
C1281 C1288 1.403 . S
C1282 C1272 1.476 . S
C1282 N1277 1.318 . S
C1282 C1281 1.396 . S
H1283 C1278 0.929 . S
O1284 Mn1260 2.385 . S
O1284 C1262 1.234 . S
O1285 Mn1260 2.209 . S
O1285 Mn1261 2.215 . S
O1285 C1262 1.283 . S
O1286 Mn1260 2.094 . S
O1286 C1264 1.240 . S
O1287 Mn1261 2.117 . S
O1287 C1264 1.264 . S
C1288 C1281 1.403 . S
C1288 C1289 1.399 . S
C1288 H1294 0.929 . S
C1289 C1269 1.449 . S
C1289 C1288 1.399 . S
C1289 H1295 0.930 . S
H1290 C1270 0.931 . S
H1291 C1271 0.930 . S
H1292 C1279 0.931 . S
H1293 C1280 0.929 . S
H1294 C1288 0.929 . S
H1295 C1289 0.930 . S
H1296 C1302 0.930 . S
H1297 C1305 0.930 . S
H1298 C1306 0.930 . S
H1299 C1307 0.930 . S
H1300 C1310 0.930 . S
H1301 C1311 0.930 1_455 S
C1302 H1296 0.930 . S
C1302 C1303 1.355 . S
C1302 C1304 1.415 . S
C1303 C1302 1.355 . S
C1303 C1305 1.419 . S
C1304 C1302 1.415 . S
C1304 C1309 1.425 . S
C1304 C1311 1.409 1_455 S
C1305 H1297 0.930 . S
C1305 C1303 1.419 . S
C1305 C1306 1.362 . S
C1306 H1298 0.930 . S
C1306 C1305 1.362 . S
C1306 C1309 1.409 . S
C1307 H1299 0.930 . S
C1307 C1308 1.355 . S
C1307 C1309 1.415 1_655 S
C1308 C1307 1.355 . S
C1308 C1310 1.419 . S
C1309 C1304 1.425 . S
C1309 C1306 1.409 . S
C1309 C1307 1.415 1_455 S
C1310 H1300 0.930 . S
C1310 C1308 1.419 . S
C1310 C1311 1.362 . S
C1311 H1301 0.930 1_655 S
C1311 C1304 1.409 1_655 S
C1311 C1310 1.362 . S
H1312 C1318 0.930 . S
H1313 C1321 0.930 . S
H1314 C1322 0.930 . S
H1315 C1323 0.930 . S
H1316 C1326 0.930 . S
H1317 C1327 0.930 . S
C1318 H1312 0.930 . S
C1318 C1319 1.355 . S
C1318 C1320 1.415 . S
C1319 C1318 1.355 . S
C1319 C1321 1.419 . S
C1320 C1318 1.415 . S
C1320 C1325 1.425 . S
C1320 C1327 1.409 . S
C1321 H1313 0.930 . S
C1321 C1319 1.419 . S
C1321 C1322 1.362 . S
C1322 H1314 0.930 . S
C1322 C1321 1.362 . S
C1322 C1325 1.409 . S
C1323 H1315 0.930 . S
C1323 C1324 1.355 . S
C1323 C1325 1.415 . S
C1324 C1323 1.355 . S
C1324 C1326 1.419 . S
C1325 C1320 1.425 . S
C1325 C1322 1.409 . S
C1325 C1323 1.415 . S
C1326 H1316 0.930 . S
C1326 C1324 1.419 . S
C1326 C1327 1.362 . S
C1327 H1317 0.930 . S
C1327 C1320 1.409 . S
C1327 C1326 1.362 . S
H1328 C1334 0.930 . S
H1329 C1337 0.930 . S
H1330 C1338 0.930 1_565 S
H1331 C1339 0.930 . S
H1332 C1342 0.930 . S
H1333 C1343 0.930 . S
C1334 H1328 0.930 . S
C1334 C1335 1.355 . S
C1334 C1336 1.415 1_545 S
C1335 C1334 1.355 . S
C1335 C1337 1.419 . S
C1336 C1334 1.415 1_565 S
C1336 C1341 1.425 . S
C1336 C1343 1.409 . S
C1337 H1329 0.930 . S
C1337 C1335 1.419 . S
C1337 C1338 1.362 . S
C1338 H1330 0.930 1_545 S
C1338 C1337 1.362 . S
C1338 C1341 1.409 1_545 S
C1339 H1331 0.930 . S
C1339 C1340 1.355 . S
C1339 C1341 1.415 . S
C1340 C1339 1.355 . S
C1340 C1342 1.419 . S
C1341 C1336 1.425 . S
C1341 C1338 1.409 1_565 S
C1341 C1339 1.415 . S
C1342 H1332 0.930 . S
C1342 C1340 1.419 . S
C1342 C1343 1.362 . S
C1343 H1333 0.930 . S
C1343 C1336 1.409 . S
C1343 C1342 1.362 . S
H1344 C1350 0.930 . S
H1345 C1353 0.930 . S
H1346 C1354 0.930 . S
H1347 C1355 0.930 . S
H1348 C1358 0.930 . S
H1349 C1359 0.930 . S
C1350 H1344 0.930 . S
C1350 C1351 1.355 . S
C1350 C1352 1.415 . S
C1351 C1350 1.355 . S
C1351 C1353 1.419 . S
C1352 C1350 1.415 . S
C1352 C1357 1.425 . S
C1352 C1359 1.409 1_545 S
C1353 H1345 0.930 . S
C1353 C1351 1.419 . S
C1353 C1354 1.362 . S
C1354 H1346 0.930 . S
C1354 C1353 1.362 . S
C1354 C1357 1.409 . S
C1355 H1347 0.930 . S
C1355 C1356 1.355 . S
C1355 C1357 1.415 1_565 S
C1356 C1355 1.355 . S
C1356 C1358 1.419 . S
C1357 C1352 1.425 . S
C1357 C1354 1.409 . S
C1357 C1355 1.415 1_545 S
C1358 H1348 0.930 . S
C1358 C1356 1.419 . S
C1358 C1359 1.362 . S
C1359 H1349 0.930 . S
C1359 C1352 1.409 1_565 S
C1359 C1358 1.362 . S
H1360 C1366 0.930 . S
H1361 C1369 0.930 . S
H1362 C1370 0.930 . S
H1363 C1371 0.930 . S
H1364 C1374 0.930 . S
H1365 C1375 0.931 1_655 S
C1366 H1360 0.930 . S
C1366 C1367 1.355 . S
C1366 C1368 1.415 . S
C1367 C1366 1.355 . S
C1367 C1369 1.419 . S
C1368 C1366 1.415 . S
C1368 C1373 1.425 . S
C1368 C1375 1.398 1_655 S
C1369 H1361 0.930 . S
C1369 C1367 1.419 . S
C1369 C1370 1.362 . S
C1370 H1362 0.930 . S
C1370 C1369 1.362 . S
C1370 C1373 1.409 . S
C1371 H1363 0.930 . S
C1371 C1372 1.355 . S
C1371 C1373 1.415 1_455 S
C1372 C1371 1.355 . S
C1372 C1374 1.419 . S
C1373 C1368 1.425 . S
C1373 C1370 1.409 . S
C1373 C1371 1.415 1_655 S
C1374 H1364 0.930 . S
C1374 C1372 1.419 . S
C1374 C1375 1.372 . S
C1375 H1365 0.931 1_455 S
C1375 C1368 1.398 1_455 S
C1375 C1374 1.372 . S
H1376 C1382 0.930 . S
H1377 C1385 0.930 . S
H1378 C1386 0.930 . S
H1379 C1387 0.930 . S
H1380 C1390 0.930 . S
H1381 C1391 0.930 . S
C1382 H1376 0.930 . S
C1382 C1383 1.355 . S
C1382 C1384 1.415 . S
C1383 C1382 1.355 . S
C1383 C1385 1.419 . S
C1384 C1382 1.415 . S
C1384 C1389 1.425 . S
C1384 C1391 1.409 . S
C1385 H1377 0.930 . S
C1385 C1383 1.419 . S
C1385 C1386 1.362 . S
C1386 H1378 0.930 . S
C1386 C1385 1.362 . S
C1386 C1389 1.409 . S
C1387 H1379 0.930 . S
C1387 C1388 1.355 . S
C1387 C1389 1.415 . S
C1388 C1387 1.355 . S
C1388 C1390 1.419 . S
C1389 C1384 1.425 . S
C1389 C1386 1.409 . S
C1389 C1387 1.415 . S
C1390 H1380 0.930 . S
C1390 C1388 1.419 . S
C1390 C1391 1.362 . S
C1391 H1381 0.930 . S
C1391 C1384 1.409 . S
C1391 C1390 1.362 . S
H1392 C1398 0.930 . S
H1393 C1401 0.930 . S
H1394 C1402 0.930 . S
H1395 C1403 0.930 . S
H1396 C1406 0.930 . S
H1397 C1407 0.925 1_655 S
C1398 H1392 0.930 . S
C1398 C1399 1.355 . S
C1398 C1400 1.415 . S
C1399 C1398 1.355 . S
C1399 C1401 1.419 . S
C1400 C1398 1.415 . S
C1400 C1405 1.425 . S
C1400 C1407 1.405 1_655 S
C1401 H1393 0.930 . S
C1401 C1399 1.419 . S
C1401 C1402 1.362 . S
C1402 H1394 0.930 . S
C1402 C1401 1.362 . S
C1402 C1405 1.409 . S
C1403 H1395 0.930 . S
C1403 C1404 1.355 . S
C1403 C1405 1.415 1_455 S
C1404 C1403 1.355 . S
C1404 C1406 1.419 . S
C1405 C1400 1.425 . S
C1405 C1402 1.409 . S
C1405 C1403 1.415 1_655 S
C1406 H1396 0.930 . S
C1406 C1404 1.419 . S
C1406 C1407 1.372 . S
C1407 H1397 0.925 1_455 S
C1407 C1400 1.405 1_455 S
C1407 C1406 1.372 . S
H1408 C1414 0.930 . S
H1409 C1417 0.930 . S
H1410 C1418 0.930 . S
H1411 C1419 0.930 . S
H1412 C1422 0.930 . S
H1413 C1423 0.930 . S
C1414 H1408 0.930 . S
C1414 C1415 1.355 . S
C1414 C1416 1.415 . S
C1415 C1414 1.355 . S
C1415 C1417 1.419 . S
C1416 C1414 1.415 . S
C1416 C1421 1.425 . S
C1416 C1423 1.409 . S
C1417 H1409 0.930 . S
C1417 C1415 1.419 . S
C1417 C1418 1.362 . S
C1418 H1410 0.930 . S
C1418 C1417 1.362 . S
C1418 C1421 1.409 . S
C1419 H1411 0.930 . S
C1419 C1420 1.355 . S
C1419 C1421 1.415 . S
C1420 C1419 1.355 . S
C1420 C1422 1.419 . S
C1421 C1416 1.425 . S
C1421 C1418 1.409 . S
C1421 C1419 1.415 . S
C1422 H1412 0.930 . S
C1422 C1420 1.419 . S
C1422 C1423 1.362 . S
C1423 H1413 0.930 . S
C1423 C1416 1.409 . S
C1423 C1422 1.362 . S
H1424 C1430 0.930 . S
H1425 C1433 0.930 . S
H1426 C1434 0.930 . S
H1427 C1435 0.930 . S
H1428 C1438 0.930 . S
H1429 C1439 0.930 . S
C1430 H1424 0.930 . S
C1430 C1431 1.355 . S
C1430 C1432 1.415 1_565 S
C1431 C1430 1.355 . S
C1431 C1433 1.419 . S
C1432 C1430 1.415 1_545 S
C1432 C1437 1.425 . S
C1432 C1439 1.409 . S
C1433 H1425 0.930 . S
C1433 C1431 1.419 . S
C1433 C1434 1.362 . S
C1434 H1426 0.930 . S
C1434 C1433 1.362 . S
C1434 C1437 1.409 1_565 S
C1435 H1427 0.930 . S
C1435 C1436 1.355 . S
C1435 C1437 1.415 . S
C1436 C1435 1.355 . S
C1436 C1438 1.419 . S
C1437 C1432 1.425 . S
C1437 C1434 1.409 1_545 S
C1437 C1435 1.415 . S
C1438 H1428 0.930 . S
C1438 C1436 1.419 . S
C1438 C1439 1.362 . S
C1439 H1429 0.930 . S
C1439 C1432 1.409 . S
C1439 C1438 1.362 . S
H1440 C1446 0.930 . S
H1441 C1449 0.930 . S
H1442 C1450 0.930 . S
H1443 C1451 0.930 . S
H1444 C1454 0.930 . S
H1445 C1455 0.930 . S
C1446 H1440 0.930 . S
C1446 C1447 1.355 . S
C1446 C1448 1.415 1_545 S
C1447 C1446 1.355 . S
C1447 C1449 1.419 . S
C1448 C1446 1.415 1_565 S
C1448 C1453 1.425 . S
C1448 C1455 1.409 . S
C1449 H1441 0.930 . S
C1449 C1447 1.419 . S
C1449 C1450 1.362 . S
C1450 H1442 0.930 . S
C1450 C1449 1.362 . S
C1450 C1453 1.409 1_545 S
C1451 H1443 0.930 . S
C1451 C1452 1.355 . S
C1451 C1453 1.415 . S
C1452 C1451 1.355 . S
C1452 C1454 1.419 . S
C1453 C1448 1.425 . S
C1453 C1450 1.409 1_565 S
C1453 C1451 1.415 . S
C1454 H1444 0.930 . S
C1454 C1452 1.419 . S
C1454 C1455 1.362 . S
C1455 H1445 0.930 . S
C1455 C1448 1.409 . S
C1455 C1454 1.362 . S
H1456 C1462 0.930 . S
H1457 C1465 0.930 . S
H1458 C1466 0.930 . S
H1459 C1467 0.930 . S
H1460 C1470 0.930 . S
H1461 C1471 0.933 1_455 S
C1462 H1456 0.930 . S
C1462 C1463 1.355 . S
C1462 C1464 1.415 . S
C1463 C1462 1.355 . S
C1463 C1465 1.419 . S
C1464 C1462 1.415 . S
C1464 C1469 1.425 . S
C1464 C1471 1.380 1_455 S
C1465 H1457 0.930 . S
C1465 C1463 1.419 . S
C1465 C1466 1.362 . S
C1466 H1458 0.930 . S
C1466 C1465 1.362 . S
C1466 C1469 1.409 . S
C1467 H1459 0.930 . S
C1467 C1468 1.355 . S
C1467 C1469 1.415 1_655 S
C1468 C1467 1.355 . S
C1468 C1470 1.419 . S
C1469 C1464 1.425 . S
C1469 C1466 1.409 . S
C1469 C1467 1.415 1_455 S
C1470 H1460 0.930 . S
C1470 C1468 1.419 . S
C1470 C1471 1.389 . S
C1471 H1461 0.933 1_655 S
C1471 C1464 1.380 1_655 S
C1471 C1470 1.389 . S
H1472 C1478 0.930 . S
H1473 C1481 0.930 . S
H1474 C1482 0.930 . S
H1475 C1483 0.930 . S
H1476 C1486 0.930 . S
H1477 C1487 0.930 . S
C1478 H1472 0.930 . S
C1478 C1479 1.355 . S
C1478 C1480 1.415 . S
C1479 C1478 1.355 . S
C1479 C1481 1.419 . S
C1480 C1478 1.415 . S
C1480 C1485 1.425 . S
C1480 C1487 1.409 . S
C1481 H1473 0.930 . S
C1481 C1479 1.419 . S
C1481 C1482 1.362 . S
C1482 H1474 0.930 . S
C1482 C1481 1.362 . S
C1482 C1485 1.409 . S
C1483 H1475 0.930 . S
C1483 C1484 1.355 . S
C1483 C1485 1.415 . S
C1484 C1483 1.355 . S
C1484 C1486 1.419 . S
C1485 C1480 1.425 . S
C1485 C1482 1.409 . S
C1485 C1483 1.415 . S
C1486 H1476 0.930 . S
C1486 C1484 1.419 . S
C1486 C1487 1.362 . S
C1487 H1477 0.930 . S
C1487 C1480 1.409 . S
C1487 C1486 1.362 . S
H1488 C1494 0.930 . S
H1489 C1497 0.930 . S
H1490 C1498 0.930 . S
H1491 C1499 0.930 . S
H1492 C1502 0.930 . S
H1493 C1503 0.930 . S
C1494 H1488 0.930 . S
C1494 C1495 1.355 . S
C1494 C1496 1.415 . S
C1495 C1494 1.355 . S
C1495 C1497 1.419 . S
C1496 C1494 1.415 . S
C1496 C1501 1.425 . S
C1496 C1503 1.409 . S
C1497 H1489 0.930 . S
C1497 C1495 1.419 . S
C1497 C1498 1.362 . S
C1498 H1490 0.930 . S
C1498 C1497 1.362 . S
C1498 C1501 1.409 . S
C1499 H1491 0.930 . S
C1499 C1500 1.355 . S
C1499 C1501 1.415 . S
C1500 C1499 1.355 . S
C1500 C1502 1.419 . S
C1501 C1496 1.425 . S
C1501 C1498 1.409 . S
C1501 C1499 1.415 . S
C1502 H1492 0.930 . S
C1502 C1500 1.419 . S
C1502 C1503 1.362 . S
C1503 H1493 0.930 . S
C1503 C1496 1.409 . S
C1503 C1502 1.362 . S
H1504 C1510 0.930 . S
H1505 C1513 0.930 . S
H1506 C1514 0.930 . S
H1507 C1515 0.930 . S
H1508 C1518 0.930 . S
H1509 C1519 0.930 . S
C1510 H1504 0.930 . S
C1510 C1511 1.355 . S
C1510 C1512 1.415 . S
C1511 C1510 1.355 . S
C1511 C1513 1.419 . S
C1512 C1510 1.415 . S
C1512 C1517 1.425 . S
C1512 C1519 1.409 . S
C1513 H1505 0.930 . S
C1513 C1511 1.419 . S
C1513 C1514 1.362 . S
C1514 H1506 0.930 . S
C1514 C1513 1.362 . S
C1514 C1517 1.409 . S
C1515 H1507 0.930 . S
C1515 C1516 1.355 . S
C1515 C1517 1.415 . S
C1516 C1515 1.355 . S
C1516 C1518 1.419 . S
C1517 C1512 1.425 . S
C1517 C1514 1.409 . S
C1517 C1515 1.415 . S
C1518 H1508 0.930 . S
C1518 C1516 1.419 . S
C1518 C1519 1.362 . S
C1519 H1509 0.930 . S
C1519 C1512 1.409 . S
C1519 C1518 1.362 . S
H1520 C1526 0.930 . S
H1521 C1529 0.930 . S
H1522 C1530 0.930 . S
H1523 C1531 0.930 . S
H1524 C1534 0.930 . S
H1525 C1535 0.930 . S
C1526 H1520 0.930 . S
C1526 C1527 1.355 . S
C1526 C1528 1.415 . S
C1527 C1526 1.355 . S
C1527 C1529 1.419 . S
C1528 C1526 1.415 . S
C1528 C1533 1.425 . S
C1528 C1535 1.409 . S
C1529 H1521 0.930 . S
C1529 C1527 1.419 . S
C1529 C1530 1.362 . S
C1530 H1522 0.930 . S
C1530 C1529 1.362 . S
C1530 C1533 1.409 . S
C1531 H1523 0.930 . S
C1531 C1532 1.355 . S
C1531 C1533 1.415 . S
C1532 C1531 1.355 . S
C1532 C1534 1.419 . S
C1533 C1528 1.425 . S
C1533 C1530 1.409 . S
C1533 C1531 1.415 . S
C1534 H1524 0.930 . S
C1534 C1532 1.419 . S
C1534 C1535 1.362 . S
C1535 H1525 0.930 . S
C1535 C1528 1.409 . S
C1535 C1534 1.362 . S
H1536 C1542 0.930 . S
H1537 C1545 0.930 . S
H1538 C1546 0.930 . S
H1539 C1547 0.930 . S
H1540 C1550 0.930 . S
H1541 C1551 0.930 . S
C1542 H1536 0.930 . S
C1542 C1543 1.355 . S
C1542 C1544 1.415 . S
C1543 C1542 1.355 . S
C1543 C1545 1.419 . S
C1544 C1542 1.415 . S
C1544 C1549 1.425 . S
C1544 C1551 1.409 . S
C1545 H1537 0.930 . S
C1545 C1543 1.419 . S
C1545 C1546 1.362 . S
C1546 H1538 0.930 . S
C1546 C1545 1.362 . S
C1546 C1549 1.409 . S
C1547 H1539 0.930 . S
C1547 C1548 1.355 . S
C1547 C1549 1.415 . S
C1548 C1547 1.355 . S
C1548 C1550 1.419 . S
C1549 C1544 1.425 . S
C1549 C1546 1.409 . S
C1549 C1547 1.415 . S
C1550 H1540 0.930 . S
C1550 C1548 1.419 . S
C1550 C1551 1.362 . S
C1551 H1541 0.930 . S
C1551 C1544 1.409 . S
C1551 C1550 1.362 . S
H1552 C1558 0.930 . S
H1553 C1561 0.930 . S
H1554 C1562 0.930 . S
H1555 C1563 0.930 . S
H1556 C1566 0.930 . S
H1557 C1567 0.930 . S
C1558 H1552 0.930 . S
C1558 C1559 1.355 . S
C1558 C1560 1.415 . S
C1559 C1558 1.355 . S
C1559 C1561 1.419 . S
C1560 C1558 1.415 . S
C1560 C1565 1.425 . S
C1560 C1567 1.409 . S
C1561 H1553 0.930 . S
C1561 C1559 1.419 . S
C1561 C1562 1.362 . S
C1562 H1554 0.930 . S
C1562 C1561 1.362 . S
C1562 C1565 1.409 . S
C1563 H1555 0.930 . S
C1563 C1564 1.355 . S
C1563 C1565 1.415 . S
C1564 C1563 1.355 . S
C1564 C1566 1.419 . S
C1565 C1560 1.425 . S
C1565 C1562 1.409 . S
C1565 C1563 1.415 . S
C1566 H1556 0.930 . S
C1566 C1564 1.419 . S
C1566 C1567 1.362 . S
C1567 H1557 0.930 . S
C1567 C1560 1.409 . S
C1567 C1566 1.362 . S
H1568 C1574 0.930 . S
H1569 C1577 0.930 . S
H1570 C1578 0.930 . S
H1571 C1579 0.930 . S
H1572 C1582 0.930 . S
H1573 C1583 0.930 . S
C1574 H1568 0.930 . S
C1574 C1575 1.355 . S
C1574 C1576 1.415 . S
C1575 C1574 1.355 . S
C1575 C1577 1.419 . S
C1576 C1574 1.415 . S
C1576 C1581 1.425 . S
C1576 C1583 1.409 . S
C1577 H1569 0.930 . S
C1577 C1575 1.419 . S
C1577 C1578 1.362 . S
C1578 H1570 0.930 . S
C1578 C1577 1.362 . S
C1578 C1581 1.409 . S
C1579 H1571 0.930 . S
C1579 C1580 1.355 . S
C1579 C1581 1.415 . S
C1580 C1579 1.355 . S
C1580 C1582 1.419 . S
C1581 C1576 1.425 . S
C1581 C1578 1.409 . S
C1581 C1579 1.415 . S
C1582 H1572 0.930 . S
C1582 C1580 1.419 . S
C1582 C1583 1.362 . S
C1583 H1573 0.930 . S
C1583 C1576 1.409 . S
C1583 C1582 1.362 . S
H1584 C1590 0.930 . S
H1585 C1593 0.930 . S
H1586 C1594 0.930 . S
H1587 C1595 0.930 . S
H1588 C1598 0.930 . S
H1589 C1599 0.930 . S
C1590 H1584 0.930 . S
C1590 C1591 1.355 . S
C1590 C1592 1.415 . S
C1591 C1590 1.355 . S
C1591 C1593 1.419 . S
C1592 C1590 1.415 . S
C1592 C1597 1.425 . S
C1592 C1599 1.409 . S
C1593 H1585 0.930 . S
C1593 C1591 1.419 . S
C1593 C1594 1.362 . S
C1594 H1586 0.930 . S
C1594 C1593 1.362 . S
C1594 C1597 1.409 . S
C1595 H1587 0.930 . S
C1595 C1596 1.355 . S
C1595 C1597 1.415 . S
C1596 C1595 1.355 . S
C1596 C1598 1.419 . S
C1597 C1592 1.425 . S
C1597 C1594 1.409 . S
C1597 C1595 1.415 . S
C1598 H1588 0.930 . S
C1598 C1596 1.419 . S
C1598 C1599 1.362 . S
C1599 H1589 0.930 . S
C1599 C1592 1.409 . S
C1599 C1598 1.362 . S
H1600 C1606 0.930 . S
H1601 C1609 0.930 . S
H1602 C1610 0.930 . S
H1603 C1611 0.930 . S
H1604 C1614 0.930 . S
H1605 C1615 0.930 . S
C1606 H1600 0.930 . S
C1606 C1607 1.355 . S
C1606 C1608 1.415 . S
C1607 C1606 1.355 . S
C1607 C1609 1.419 . S
C1608 C1606 1.415 . S
C1608 C1613 1.425 . S
C1608 C1615 1.409 . S
C1609 H1601 0.930 . S
C1609 C1607 1.419 . S
C1609 C1610 1.362 . S
C1610 H1602 0.930 . S
C1610 C1609 1.362 . S
C1610 C1613 1.409 . S
C1611 H1603 0.930 . S
C1611 C1612 1.355 . S
C1611 C1613 1.415 . S
C1612 C1611 1.355 . S
C1612 C1614 1.419 . S
C1613 C1608 1.425 . S
C1613 C1610 1.409 . S
C1613 C1611 1.415 . S
C1614 H1604 0.930 . S
C1614 C1612 1.419 . S
C1614 C1615 1.362 . S
C1615 H1605 0.930 . S
C1615 C1608 1.409 . S
C1615 C1614 1.362 . S
H1616 C1622 0.930 . S
H1617 C1625 0.930 . S
H1618 C1626 0.930 . S
H1619 C1627 0.930 . S
H1620 C1630 0.930 . S
H1621 C1631 0.930 . S
C1622 H1616 0.930 . S
C1622 C1623 1.355 . S
C1622 C1624 1.415 . S
C1623 C1622 1.355 . S
C1623 C1625 1.419 . S
C1624 C1622 1.415 . S
C1624 C1629 1.425 . S
C1624 C1631 1.409 . S
C1625 H1617 0.930 . S
C1625 C1623 1.419 . S
C1625 C1626 1.362 . S
C1626 H1618 0.930 . S
C1626 C1625 1.362 . S
C1626 C1629 1.409 . S
C1627 H1619 0.930 . S
C1627 C1628 1.355 . S
C1627 C1629 1.415 . S
C1628 C1627 1.355 . S
C1628 C1630 1.419 . S
C1629 C1624 1.425 . S
C1629 C1626 1.409 . S
C1629 C1627 1.415 . S
C1630 H1620 0.930 . S
C1630 C1628 1.419 . S
C1630 C1631 1.362 . S
C1631 H1621 0.930 . S
C1631 C1624 1.409 . S
C1631 C1630 1.362 . S
H1632 C1638 0.930 . S
H1633 C1641 0.930 . S
H1634 C1642 0.930 . S
H1635 C1643 0.930 . S
H1636 C1646 0.930 . S
H1637 C1647 0.930 . S
C1638 H1632 0.930 . S
C1638 C1639 1.355 . S
C1638 C1640 1.415 . S
C1639 C1638 1.355 . S
C1639 C1641 1.419 1_554 S
C1640 C1638 1.415 . S
C1640 C1645 1.425 1_554 S
C1640 C1647 1.409 . S
C1641 H1633 0.930 . S
C1641 C1639 1.419 1_556 S
C1641 C1642 1.362 . S
C1642 H1634 0.930 . S
C1642 C1641 1.362 . S
C1642 C1645 1.409 . S
C1643 H1635 0.930 . S
C1643 C1644 1.355 1_556 S
C1643 C1645 1.415 . S
C1644 C1643 1.355 1_554 S
C1644 C1646 1.419 . S
C1645 C1640 1.425 1_556 S
C1645 C1642 1.409 . S
C1645 C1643 1.415 . S
C1646 H1636 0.930 . S
C1646 C1644 1.419 . S
C1646 C1647 1.362 . S
C1647 H1637 0.930 . S
C1647 C1640 1.409 . S
C1647 C1646 1.362 . S
H1648 C1654 0.930 . S
H1649 C1657 0.930 . S
H1650 C1658 0.930 . S
H1651 C1659 0.930 . S
H1652 C1662 0.930 . S
H1653 C1663 0.930 . S
C1654 H1648 0.930 . S
C1654 C1655 1.355 1_556 S
C1654 C1656 1.415 . S
C1655 C1654 1.355 1_554 S
C1655 C1657 1.419 . S
C1656 C1654 1.415 . S
C1656 C1661 1.425 1_556 S
C1656 C1663 1.409 . S
C1657 H1649 0.930 . S
C1657 C1655 1.419 . S
C1657 C1658 1.362 . S
C1658 H1650 0.930 . S
C1658 C1657 1.362 . S
C1658 C1661 1.409 . S
C1659 H1651 0.930 . S
C1659 C1660 1.355 . S
C1659 C1661 1.415 . S
C1660 C1659 1.355 . S
C1660 C1662 1.419 1_554 S
C1661 C1656 1.425 1_554 S
C1661 C1658 1.409 . S
C1661 C1659 1.415 . S
C1662 H1652 0.930 . S
C1662 C1660 1.419 1_556 S
C1662 C1663 1.362 . S
C1663 H1653 0.930 . S
C1663 C1656 1.409 . S
C1663 C1662 1.362 . S
H1664 C1670 0.929 1_556 S
H1665 C1673 0.930 . S
H1666 C1674 0.930 . S
H1667 C1675 0.930 . S
H1668 C1678 0.947 . S
H1669 C1679 0.937 . S
C1670 H1664 0.929 1_554 S
C1670 C1671 1.355 . S
C1670 C1672 1.415 . S
C1671 C1670 1.355 . S
C1671 C1673 1.419 . S
C1672 C1670 1.415 . S
C1672 C1677 1.425 . S
C1672 C1679 1.403 1_554 S
C1673 H1665 0.930 . S
C1673 C1671 1.419 . S
C1673 C1674 1.362 . S
C1674 H1666 0.930 . S
C1674 C1673 1.362 . S
C1674 C1677 1.409 . S
C1675 H1667 0.930 . S
C1675 C1676 1.355 . S
C1675 C1677 1.415 . S
C1676 C1675 1.355 . S
C1676 C1678 1.408 1_554 S
C1677 C1672 1.425 . S
C1677 C1674 1.409 . S
C1677 C1675 1.415 . S
C1678 H1668 0.947 . S
C1678 C1676 1.408 1_556 S
C1678 C1679 1.362 . S
C1679 H1669 0.937 . S
C1679 C1672 1.403 1_556 S
C1679 C1678 1.362 . S
H1680 C1686 0.930 . S
H1681 C1689 0.930 . S
H1682 C1690 0.930 . S
H1683 C1691 0.930 . S
H1684 C1694 0.930 . S
H1685 C1695 0.930 . S
C1686 H1680 0.930 . S
C1686 C1687 1.355 . S
C1686 C1688 1.415 . S
C1687 C1686 1.355 . S
C1687 C1689 1.419 . S
C1688 C1686 1.415 . S
C1688 C1693 1.425 . S
C1688 C1695 1.409 . S
C1689 H1681 0.930 . S
C1689 C1687 1.419 . S
C1689 C1690 1.362 . S
C1690 H1682 0.930 . S
C1690 C1689 1.362 . S
C1690 C1693 1.409 . S
C1691 H1683 0.930 . S
C1691 C1692 1.355 . S
C1691 C1693 1.415 . S
C1692 C1691 1.355 . S
C1692 C1694 1.419 . S
C1693 C1688 1.425 . S
C1693 C1690 1.409 . S
C1693 C1691 1.415 . S
C1694 H1684 0.930 . S
C1694 C1692 1.419 . S
C1694 C1695 1.362 . S
C1695 H1685 0.930 . S
C1695 C1688 1.409 . S
C1695 C1694 1.362 . S
H1696 C1702 0.930 . S
H1697 C1705 0.930 . S
H1698 C1706 0.930 . S
H1699 C1707 0.930 . S
H1700 C1710 0.930 . S
H1701 C1711 0.930 . S
C1702 H1696 0.930 . S
C1702 C1703 1.355 . S
C1702 C1704 1.415 . S
C1703 C1702 1.355 . S
C1703 C1705 1.419 . S
C1704 C1702 1.415 . S
C1704 C1709 1.425 . S
C1704 C1711 1.409 . S
C1705 H1697 0.930 . S
C1705 C1703 1.419 . S
C1705 C1706 1.362 . S
C1706 H1698 0.930 . S
C1706 C1705 1.362 . S
C1706 C1709 1.409 . S
C1707 H1699 0.930 . S
C1707 C1708 1.355 . S
C1707 C1709 1.415 . S
C1708 C1707 1.355 . S
C1708 C1710 1.419 . S
C1709 C1704 1.425 . S
C1709 C1706 1.409 . S
C1709 C1707 1.415 . S
C1710 H1700 0.930 . S
C1710 C1708 1.419 . S
C1710 C1711 1.362 . S
C1711 H1701 0.930 . S
C1711 C1704 1.409 . S
C1711 C1710 1.362 . S
H1712 C1718 0.930 . S
H1713 C1721 0.930 . S
H1714 C1722 0.930 . S
H1715 C1723 0.930 . S
H1716 C1726 0.930 . S
H1717 C1727 0.930 . S
C1718 H1712 0.930 . S
C1718 C1719 1.355 . S
C1718 C1720 1.415 . S
C1719 C1718 1.355 . S
C1719 C1721 1.419 . S
C1720 C1718 1.415 . S
C1720 C1725 1.425 . S
C1720 C1727 1.409 . S
C1721 H1713 0.930 . S
C1721 C1719 1.419 . S
C1721 C1722 1.362 . S
C1722 H1714 0.930 . S
C1722 C1721 1.362 . S
C1722 C1725 1.409 . S
C1723 H1715 0.930 . S
C1723 C1724 1.355 . S
C1723 C1725 1.415 . S
C1724 C1723 1.355 . S
C1724 C1726 1.419 . S
C1725 C1720 1.425 . S
C1725 C1722 1.409 . S
C1725 C1723 1.415 . S
C1726 H1716 0.930 . S
C1726 C1724 1.419 . S
C1726 C1727 1.362 . S
C1727 H1717 0.930 . S
C1727 C1720 1.409 . S
C1727 C1726 1.362 . S
H1728 C1734 0.930 . S
H1729 C1737 0.928 1_554 S
H1730 C1738 0.930 . S
H1731 C1739 0.928 . S
H1732 C1742 0.930 . S
H1733 C1743 0.930 . S
C1734 H1728 0.930 . S
C1734 C1735 1.355 . S
C1734 C1736 1.415 . S
C1735 C1734 1.355 . S
C1735 C1737 1.422 . S
C1736 C1734 1.415 . S
C1736 C1741 1.425 . S
C1736 C1743 1.409 . S
C1737 H1729 0.928 1_556 S
C1737 C1735 1.422 . S
C1737 C1738 1.361 1_556 S
C1738 H1730 0.930 . S
C1738 C1737 1.361 1_554 S
C1738 C1741 1.409 1_554 S
C1739 H1731 0.928 . S
C1739 C1740 1.355 1_554 S
C1739 C1741 1.415 1_554 S
C1740 C1739 1.355 1_556 S
C1740 C1742 1.419 . S
C1741 C1736 1.425 . S
C1741 C1738 1.409 1_556 S
C1741 C1739 1.415 1_556 S
C1742 H1732 0.930 . S
C1742 C1740 1.419 . S
C1742 C1743 1.362 . S
C1743 H1733 0.930 . S
C1743 C1736 1.409 . S
C1743 C1742 1.362 . S
H1744 C1750 0.928 1_554 S
H1745 C1753 0.930 . S
H1746 C1754 0.930 . S
H1747 C1755 0.930 . S
H1748 C1758 0.930 . S
H1749 C1759 0.921 1_554 S
C1750 H1744 0.928 1_556 S
C1750 C1751 1.355 . S
C1750 C1752 1.415 . S
C1751 C1750 1.355 . S
C1751 C1753 1.419 . S
C1752 C1750 1.415 . S
C1752 C1757 1.425 . S
C1752 C1759 1.416 . S
C1753 H1745 0.930 . S
C1753 C1751 1.419 . S
C1753 C1754 1.362 . S
C1754 H1746 0.930 . S
C1754 C1753 1.362 . S
C1754 C1757 1.409 . S
C1755 H1747 0.930 . S
C1755 C1756 1.355 . S
C1755 C1757 1.415 . S
C1756 C1755 1.355 . S
C1756 C1758 1.419 . S
C1757 C1752 1.425 . S
C1757 C1754 1.409 . S
C1757 C1755 1.415 . S
C1758 H1748 0.930 . S
C1758 C1756 1.419 . S
C1758 C1759 1.369 . S
C1759 H1749 0.921 1_556 S
C1759 C1752 1.416 . S
C1759 C1758 1.369 . S
H1760 C1766 0.930 1_554 S
H1761 C1769 0.930 . S
H1762 C1770 0.930 . S
H1763 C1771 0.930 . S
H1764 C1774 0.930 . S
H1765 C1775 0.930 . S
C1766 H1760 0.930 1_556 S
C1766 C1767 1.355 . S
C1766 C1768 1.415 . S
C1767 C1766 1.355 . S
C1767 C1769 1.419 . S
C1768 C1766 1.415 . S
C1768 C1773 1.425 . S
C1768 C1775 1.409 1_556 S
C1769 H1761 0.930 . S
C1769 C1767 1.419 . S
C1769 C1770 1.362 . S
C1770 H1762 0.930 . S
C1770 C1769 1.362 . S
C1770 C1773 1.409 . S
C1771 H1763 0.930 . S
C1771 C1772 1.355 . S
C1771 C1773 1.415 . S
C1772 C1771 1.355 . S
C1772 C1774 1.419 1_556 S
C1773 C1768 1.425 . S
C1773 C1770 1.409 . S
C1773 C1771 1.415 . S
C1774 H1764 0.930 . S
C1774 C1772 1.419 1_554 S
C1774 C1775 1.362 . S
C1775 H1765 0.930 . S
C1775 C1768 1.409 1_554 S
C1775 C1774 1.362 . S
H1776 C1782 0.930 . S
H1777 C1785 0.930 . S
H1778 C1786 0.930 . S
H1779 C1787 0.930 . S
H1780 C1790 0.930 . S
H1781 C1791 0.930 . S
C1782 H1776 0.930 . S
C1782 C1783 1.355 . S
C1782 C1784 1.415 . S
C1783 C1782 1.355 . S
C1783 C1785 1.419 . S
C1784 C1782 1.415 . S
C1784 C1789 1.425 . S
C1784 C1791 1.409 . S
C1785 H1777 0.930 . S
C1785 C1783 1.419 . S
C1785 C1786 1.362 . S
C1786 H1778 0.930 . S
C1786 C1785 1.362 . S
C1786 C1789 1.409 . S
C1787 H1779 0.930 . S
C1787 C1788 1.355 . S
C1787 C1789 1.415 . S
C1788 C1787 1.355 . S
C1788 C1790 1.419 . S
C1789 C1784 1.425 . S
C1789 C1786 1.409 . S
C1789 C1787 1.415 . S
C1790 H1780 0.930 . S
C1790 C1788 1.419 . S
C1790 C1791 1.362 . S
C1791 H1781 0.930 . S
C1791 C1784 1.409 . S
C1791 C1790 1.362 . S
H1792 C1798 0.930 . S
H1793 C1801 0.930 . S
H1794 C1802 0.930 . S
H1795 C1803 0.930 . S
H1796 C1806 0.930 . S
H1797 C1807 0.930 . S
C1798 H1792 0.930 . S
C1798 C1799 1.355 . S
C1798 C1800 1.415 . S
C1799 C1798 1.355 . S
C1799 C1801 1.419 . S
C1800 C1798 1.415 . S
C1800 C1805 1.425 . S
C1800 C1807 1.409 . S
C1801 H1793 0.930 . S
C1801 C1799 1.419 . S
C1801 C1802 1.362 . S
C1802 H1794 0.930 . S
C1802 C1801 1.362 . S
C1802 C1805 1.409 . S
C1803 H1795 0.930 . S
C1803 C1804 1.355 . S
C1803 C1805 1.415 . S
C1804 C1803 1.355 . S
C1804 C1806 1.419 . S
C1805 C1800 1.425 . S
C1805 C1802 1.409 . S
C1805 C1803 1.415 . S
C1806 H1796 0.930 . S
C1806 C1804 1.419 . S
C1806 C1807 1.362 . S
C1807 H1797 0.930 . S
C1807 C1800 1.409 . S
C1807 C1806 1.362 . S
H1808 C1814 0.930 . S
H1809 C1817 0.930 . S
H1810 C1818 0.930 . S
H1811 C1819 0.930 . S
H1812 C1822 0.930 . S
H1813 C1823 0.930 . S
C1814 H1808 0.930 . S
C1814 C1815 1.355 . S
C1814 C1816 1.415 . S
C1815 C1814 1.355 . S
C1815 C1817 1.419 . S
C1816 C1814 1.415 . S
C1816 C1821 1.425 . S
C1816 C1823 1.409 . S
C1817 H1809 0.930 . S
C1817 C1815 1.419 . S
C1817 C1818 1.362 . S
C1818 H1810 0.930 . S
C1818 C1817 1.362 . S
C1818 C1821 1.409 . S
C1819 H1811 0.930 . S
C1819 C1820 1.355 . S
C1819 C1821 1.415 . S
C1820 C1819 1.355 . S
C1820 C1822 1.419 . S
C1821 C1816 1.425 . S
C1821 C1818 1.409 . S
C1821 C1819 1.415 . S
C1822 H1812 0.930 . S
C1822 C1820 1.419 . S
C1822 C1823 1.362 . S
C1823 H1813 0.930 . S
C1823 C1816 1.409 . S
C1823 C1822 1.362 . S
H1824 C1830 0.930 . S
H1825 C1833 0.930 . S
H1826 C1834 0.930 . S
H1827 C1835 0.930 . S
H1828 C1838 0.930 . S
H1829 C1839 0.930 . S
C1830 H1824 0.930 . S
C1830 C1831 1.355 . S
C1830 C1832 1.415 . S
C1831 C1830 1.355 . S
C1831 C1833 1.419 . S
C1832 C1830 1.415 . S
C1832 C1837 1.425 . S
C1832 C1839 1.409 . S
C1833 H1825 0.930 . S
C1833 C1831 1.419 . S
C1833 C1834 1.362 . S
C1834 H1826 0.930 . S
C1834 C1833 1.362 . S
C1834 C1837 1.409 . S
C1835 H1827 0.930 . S
C1835 C1836 1.355 . S
C1835 C1837 1.415 . S
C1836 C1835 1.355 . S
C1836 C1838 1.419 . S
C1837 C1832 1.425 . S
C1837 C1834 1.409 . S
C1837 C1835 1.415 . S
C1838 H1828 0.930 . S
C1838 C1836 1.419 . S
C1838 C1839 1.362 . S
C1839 H1829 0.930 . S
C1839 C1832 1.409 . S
C1839 C1838 1.362 . S
H1840 C1846 0.930 . S
H1841 C1849 0.930 . S
H1842 C1850 0.930 . S
H1843 C1851 0.930 . S
H1844 C1854 0.930 . S
H1845 C1855 0.930 . S
C1846 H1840 0.930 . S
C1846 C1847 1.355 . S
C1846 C1848 1.415 . S
C1847 C1846 1.355 . S
C1847 C1849 1.419 . S
C1848 C1846 1.415 . S
C1848 C1853 1.425 . S
C1848 C1855 1.409 . S
C1849 H1841 0.930 . S
C1849 C1847 1.419 . S
C1849 C1850 1.362 . S
C1850 H1842 0.930 . S
C1850 C1849 1.362 . S
C1850 C1853 1.409 . S
C1851 H1843 0.930 . S
C1851 C1852 1.355 . S
C1851 C1853 1.415 . S
C1852 C1851 1.355 . S
C1852 C1854 1.419 . S
C1853 C1848 1.425 . S
C1853 C1850 1.409 . S
C1853 C1851 1.415 . S
C1854 H1844 0.930 . S
C1854 C1852 1.419 . S
C1854 C1855 1.362 . S
C1855 H1845 0.930 . S
C1855 C1848 1.409 . S
C1855 C1854 1.362 . S
H1856 C1862 0.930 . S
H1857 C1865 0.930 . S
H1858 C1866 0.930 . S
H1859 C1867 0.930 . S
H1860 C1870 0.930 . S
H1861 C1871 0.930 . S
C1862 H1856 0.930 . S
C1862 C1863 1.355 . S
C1862 C1864 1.415 . S
C1863 C1862 1.355 . S
C1863 C1865 1.419 . S
C1864 C1862 1.415 . S
C1864 C1869 1.425 . S
C1864 C1871 1.409 . S
C1865 H1857 0.930 . S
C1865 C1863 1.419 . S
C1865 C1866 1.362 . S
C1866 H1858 0.930 . S
C1866 C1865 1.362 . S
C1866 C1869 1.409 . S
C1867 H1859 0.930 . S
C1867 C1868 1.355 . S
C1867 C1869 1.415 . S
C1868 C1867 1.355 . S
C1868 C1870 1.419 . S
C1869 C1864 1.425 . S
C1869 C1866 1.409 . S
C1869 C1867 1.415 . S
C1870 H1860 0.930 . S
C1870 C1868 1.419 . S
C1870 C1871 1.362 . S
C1871 H1861 0.930 . S
C1871 C1864 1.409 . S
C1871 C1870 1.362 . S
H1872 C1878 0.930 . S
H1873 C1881 0.930 . S
H1874 C1882 0.930 . S
H1875 C1883 0.930 . S
H1876 C1886 0.930 . S
H1877 C1887 0.930 . S
C1878 H1872 0.930 . S
C1878 C1879 1.355 . S
C1878 C1880 1.415 . S
C1879 C1878 1.355 . S
C1879 C1881 1.419 . S
C1880 C1878 1.415 . S
C1880 C1885 1.425 . S
C1880 C1887 1.409 . S
C1881 H1873 0.930 . S
C1881 C1879 1.419 . S
C1881 C1882 1.362 . S
C1882 H1874 0.930 . S
C1882 C1881 1.362 . S
C1882 C1885 1.409 . S
C1883 H1875 0.930 . S
C1883 C1884 1.355 . S
C1883 C1885 1.415 . S
C1884 C1883 1.355 . S
C1884 C1886 1.419 . S
C1885 C1880 1.425 . S
C1885 C1882 1.409 . S
C1885 C1883 1.415 . S
C1886 H1876 0.930 . S
C1886 C1884 1.419 . S
C1886 C1887 1.362 . S
C1887 H1877 0.930 . S
C1887 C1880 1.409 . S
C1887 C1886 1.362 . S
H1888 C1894 0.930 . S
H1889 C1897 0.930 . S
H1890 C1898 0.930 . S
H1891 C1899 0.930 . S
H1892 C1902 0.930 . S
H1893 C1903 0.930 . S
C1894 H1888 0.930 . S
C1894 C1895 1.355 1_545 S
C1894 C1896 1.415 . S
C1895 C1894 1.355 1_565 S
C1895 C1897 1.419 . S
C1896 C1894 1.415 . S
C1896 C1901 1.425 1_545 S
C1896 C1903 1.409 . S
C1897 H1889 0.930 . S
C1897 C1895 1.419 . S
C1897 C1898 1.362 . S
C1898 H1890 0.930 . S
C1898 C1897 1.362 . S
C1898 C1901 1.409 . S
C1899 H1891 0.930 . S
C1899 C1900 1.355 1_565 S
C1899 C1901 1.415 . S
C1900 C1899 1.355 1_545 S
C1900 C1902 1.419 . S
C1901 C1896 1.425 1_565 S
C1901 C1898 1.409 . S
C1901 C1899 1.415 . S
C1902 H1892 0.930 . S
C1902 C1900 1.419 . S
C1902 C1903 1.362 . S
C1903 H1893 0.930 . S
C1903 C1896 1.409 . S
C1903 C1902 1.362 . S
H1904 C1910 0.930 . S
H1905 C1913 0.930 . S
H1906 C1914 0.930 . S
H1907 C1915 0.930 . S
H1908 C1918 0.930 . S
H1909 C1919 0.930 . S
C1910 H1904 0.930 . S
C1910 C1911 1.355 1_455 S
C1910 C1912 1.415 . S
C1911 C1910 1.355 1_655 S
C1911 C1913 1.419 . S
C1912 C1910 1.415 . S
C1912 C1917 1.425 1_455 S
C1912 C1919 1.409 . S
C1913 H1905 0.930 . S
C1913 C1911 1.419 . S
C1913 C1914 1.362 . S
C1914 H1906 0.930 . S
C1914 C1913 1.362 . S
C1914 C1917 1.409 . S
C1915 H1907 0.930 . S
C1915 C1916 1.355 1_655 S
C1915 C1917 1.415 . S
C1916 C1915 1.355 1_455 S
C1916 C1918 1.419 . S
C1917 C1912 1.425 1_655 S
C1917 C1914 1.409 . S
C1917 C1915 1.415 . S
C1918 H1908 0.930 . S
C1918 C1916 1.419 . S
C1918 C1919 1.362 . S
C1919 H1909 0.930 . S
C1919 C1912 1.409 . S
C1919 C1918 1.362 . S
H1920 C1926 0.930 . S
H1921 C1929 0.930 . S
H1922 C1930 0.930 . S
H1923 C1931 0.930 . S
H1924 C1934 0.930 . S
H1925 C1935 0.930 . S
C1926 H1920 0.930 . S
C1926 C1927 1.355 . S
C1926 C1928 1.415 . S
C1927 C1926 1.355 . S
C1927 C1929 1.419 . S
C1928 C1926 1.415 . S
C1928 C1933 1.425 . S
C1928 C1935 1.409 . S
C1929 H1921 0.930 . S
C1929 C1927 1.419 . S
C1929 C1930 1.362 . S
C1930 H1922 0.930 . S
C1930 C1929 1.362 . S
C1930 C1933 1.409 . S
C1931 H1923 0.930 . S
C1931 C1932 1.355 . S
C1931 C1933 1.415 . S
C1932 C1931 1.355 . S
C1932 C1934 1.419 . S
C1933 C1928 1.425 . S
C1933 C1930 1.409 . S
C1933 C1931 1.415 . S
C1934 H1924 0.930 . S
C1934 C1932 1.419 . S
C1934 C1935 1.362 . S
C1935 H1925 0.930 . S
C1935 C1928 1.409 . S
C1935 C1934 1.362 . S
H1936 C1942 0.930 . S
H1937 C1945 0.930 . S
H1938 C1946 0.930 . S
H1939 C1947 0.930 . S
H1940 C1950 0.930 . S
H1941 C1951 0.930 . S
C1942 H1936 0.930 . S
C1942 C1943 1.355 1_565 S
C1942 C1944 1.415 . S
C1943 C1942 1.355 1_545 S
C1943 C1945 1.419 . S
C1944 C1942 1.415 . S
C1944 C1949 1.425 1_565 S
C1944 C1951 1.409 . S
C1945 H1937 0.930 . S
C1945 C1943 1.419 . S
C1945 C1946 1.362 . S
C1946 H1938 0.930 . S
C1946 C1945 1.362 . S
C1946 C1949 1.409 . S
C1947 H1939 0.930 . S
C1947 C1948 1.355 1_545 S
C1947 C1949 1.415 . S
C1948 C1947 1.355 1_565 S
C1948 C1950 1.419 . S
C1949 C1944 1.425 1_545 S
C1949 C1946 1.409 . S
C1949 C1947 1.415 . S
C1950 H1940 0.930 . S
C1950 C1948 1.419 . S
C1950 C1951 1.362 . S
C1951 H1941 0.930 . S
C1951 C1944 1.409 . S
C1951 C1950 1.362 . S
H1952 C1958 0.930 . S
H1953 C1961 0.930 . S
H1954 C1962 0.930 . S
H1955 C1963 0.930 . S
H1956 C1966 0.930 . S
H1957 C1967 0.930 . S
C1958 H1952 0.930 . S
C1958 C1959 1.355 1_455 S
C1958 C1960 1.415 . S
C1959 C1958 1.355 1_655 S
C1959 C1961 1.419 . S
C1960 C1958 1.415 . S
C1960 C1965 1.425 1_455 S
C1960 C1967 1.409 . S
C1961 H1953 0.930 . S
C1961 C1959 1.419 . S
C1961 C1962 1.362 . S
C1962 H1954 0.930 . S
C1962 C1961 1.362 . S
C1962 C1965 1.409 . S
C1963 H1955 0.930 . S
C1963 C1964 1.355 1_655 S
C1963 C1965 1.415 . S
C1964 C1963 1.355 1_455 S
C1964 C1966 1.419 . S
C1965 C1960 1.425 1_655 S
C1965 C1962 1.409 . S
C1965 C1963 1.415 . S
C1966 H1956 0.930 . S
C1966 C1964 1.419 . S
C1966 C1967 1.362 . S
C1967 H1957 0.930 . S
C1967 C1960 1.409 . S
C1967 C1966 1.362 . S
H1968 C1974 0.930 . S
H1969 C1977 0.930 . S
H1970 C1978 0.930 . S
H1971 C1979 0.930 . S
H1972 C1982 0.930 . S
H1973 C1983 0.930 . S
C1974 H1968 0.930 . S
C1974 C1975 1.355 . S
C1974 C1976 1.415 . S
C1975 C1974 1.355 . S
C1975 C1977 1.419 . S
C1976 C1974 1.415 . S
C1976 C1981 1.425 . S
C1976 C1983 1.409 . S
C1977 H1969 0.930 . S
C1977 C1975 1.419 . S
C1977 C1978 1.362 . S
C1978 H1970 0.930 . S
C1978 C1977 1.362 . S
C1978 C1981 1.409 . S
C1979 H1971 0.930 . S
C1979 C1980 1.355 . S
C1979 C1981 1.415 . S
C1980 C1979 1.355 . S
C1980 C1982 1.419 . S
C1981 C1976 1.425 . S
C1981 C1978 1.409 . S
C1981 C1979 1.415 . S
C1982 H1972 0.930 . S
C1982 C1980 1.419 . S
C1982 C1983 1.362 . S
C1983 H1973 0.930 . S
C1983 C1976 1.409 . S
C1983 C1982 1.362 . S
H1984 C1990 0.930 . S
H1985 C1993 0.930 . S
H1986 C1994 0.930 . S
H1987 C1995 0.930 . S
H1988 C1998 0.930 . S
H1989 C1999 0.930 . S
C1990 H1984 0.930 . S
C1990 C1991 1.355 . S
C1990 C1992 1.415 . S
C1991 C1990 1.355 . S
C1991 C1993 1.419 . S
C1992 C1990 1.415 . S
C1992 C1997 1.425 . S
C1992 C1999 1.409 . S
C1993 H1985 0.930 . S
C1993 C1991 1.419 . S
C1993 C1994 1.362 . S
C1994 H1986 0.930 . S
C1994 C1993 1.362 . S
C1994 C1997 1.409 . S
C1995 H1987 0.930 . S
C1995 C1996 1.355 . S
C1995 C1997 1.415 . S
C1996 C1995 1.355 . S
C1996 C1998 1.419 . S
C1997 C1992 1.425 . S
C1997 C1994 1.409 . S
C1997 C1995 1.415 . S
C1998 H1988 0.930 . S
C1998 C1996 1.419 . S
C1998 C1999 1.362 . S
C1999 H1989 0.930 . S
C1999 C1992 1.409 . S
C1999 C1998 1.362 . S
H2000 C2006 0.930 . S
H2001 C2009 0.930 . S
H2002 C2010 0.930 . S
H2003 C2011 0.930 . S
H2004 C2014 0.930 . S
H2005 C2015 0.930 . S
C2006 H2000 0.930 . S
C2006 C2007 1.355 . S
C2006 C2008 1.415 . S
C2007 C2006 1.355 . S
C2007 C2009 1.419 . S
C2008 C2006 1.415 . S
C2008 C2013 1.425 . S
C2008 C2015 1.409 . S
C2009 H2001 0.930 . S
C2009 C2007 1.419 . S
C2009 C2010 1.362 . S
C2010 H2002 0.930 . S
C2010 C2009 1.362 . S
C2010 C2013 1.409 . S
C2011 H2003 0.930 . S
C2011 C2012 1.355 . S
C2011 C2013 1.415 . S
C2012 C2011 1.355 . S
C2012 C2014 1.419 . S
C2013 C2008 1.425 . S
C2013 C2010 1.409 . S
C2013 C2011 1.415 . S
C2014 H2004 0.930 . S
C2014 C2012 1.419 . S
C2014 C2015 1.362 . S
C2015 H2005 0.930 . S
C2015 C2008 1.409 . S
C2015 C2014 1.362 . S
H2016 C2022 0.930 . S
H2017 C2025 0.930 . S
H2018 C2026 0.930 . S
H2019 C2027 0.930 . S
H2020 C2030 0.930 . S
H2021 C2031 0.930 . S
C2022 H2016 0.930 . S
C2022 C2023 1.355 . S
C2022 C2024 1.415 . S
C2023 C2022 1.355 . S
C2023 C2025 1.419 . S
C2024 C2022 1.415 . S
C2024 C2029 1.425 . S
C2024 C2031 1.409 . S
C2025 H2017 0.930 . S
C2025 C2023 1.419 . S
C2025 C2026 1.362 . S
C2026 H2018 0.930 . S
C2026 C2025 1.362 . S
C2026 C2029 1.409 . S
C2027 H2019 0.930 . S
C2027 C2028 1.355 . S
C2027 C2029 1.415 . S
C2028 C2027 1.355 . S
C2028 C2030 1.419 . S
C2029 C2024 1.425 . S
C2029 C2026 1.409 . S
C2029 C2027 1.415 . S
C2030 H2020 0.930 . S
C2030 C2028 1.419 . S
C2030 C2031 1.362 . S
C2031 H2021 0.930 . S
C2031 C2024 1.409 . S
C2031 C2030 1.362 . S
H2032 C2038 0.930 . S
H2033 C2041 0.930 . S
H2034 C2042 0.930 . S
H2035 C2043 0.930 . S
H2036 C2046 0.930 . S
H2037 C2047 0.930 . S
C2038 H2032 0.930 . S
C2038 C2039 1.355 . S
C2038 C2040 1.415 . S
C2039 C2038 1.355 . S
C2039 C2041 1.419 . S
C2040 C2038 1.415 . S
C2040 C2045 1.425 . S
C2040 C2047 1.409 . S
C2041 H2033 0.930 . S
C2041 C2039 1.419 . S
C2041 C2042 1.362 . S
C2042 H2034 0.930 . S
C2042 C2041 1.362 . S
C2042 C2045 1.409 . S
C2043 H2035 0.930 . S
C2043 C2044 1.355 . S
C2043 C2045 1.415 . S
C2044 C2043 1.355 . S
C2044 C2046 1.419 . S
C2045 C2040 1.425 . S
C2045 C2042 1.409 . S
C2045 C2043 1.415 . S
C2046 H2036 0.930 . S
C2046 C2044 1.419 . S
C2046 C2047 1.362 . S
C2047 H2037 0.930 . S
C2047 C2040 1.409 . S
C2047 C2046 1.362 . S
H2048 C2054 0.930 . S
H2049 C2057 0.930 . S
H2050 C2058 0.930 . S
H2051 C2059 0.930 . S
H2052 C2062 0.930 . S
H2053 C2063 0.930 . S
C2054 H2048 0.930 . S
C2054 C2055 1.355 . S
C2054 C2056 1.415 . S
C2055 C2054 1.355 . S
C2055 C2057 1.419 . S
C2056 C2054 1.415 . S
C2056 C2061 1.425 . S
C2056 C2063 1.409 . S
C2057 H2049 0.930 . S
C2057 C2055 1.419 . S
C2057 C2058 1.362 . S
C2058 H2050 0.930 . S
C2058 C2057 1.362 . S
C2058 C2061 1.409 . S
C2059 H2051 0.930 . S
C2059 C2060 1.355 . S
C2059 C2061 1.415 . S
C2060 C2059 1.355 . S
C2060 C2062 1.419 . S
C2061 C2056 1.425 . S
C2061 C2058 1.409 . S
C2061 C2059 1.415 . S
C2062 H2052 0.930 . S
C2062 C2060 1.419 . S
C2062 C2063 1.362 . S
C2063 H2053 0.930 . S
C2063 C2056 1.409 . S
C2063 C2062 1.362 . S
H2064 C2070 0.930 . S
H2065 C2073 0.930 . S
H2066 C2074 0.930 . S
H2067 C2075 0.930 . S
H2068 C2078 0.930 . S
H2069 C2079 0.930 . S
C2070 H2064 0.930 . S
C2070 C2071 1.355 . S
C2070 C2072 1.415 . S
C2071 C2070 1.355 . S
C2071 C2073 1.419 . S
C2072 C2070 1.415 . S
C2072 C2077 1.425 . S
C2072 C2079 1.409 . S
C2073 H2065 0.930 . S
C2073 C2071 1.419 . S
C2073 C2074 1.362 . S
C2074 H2066 0.930 . S
C2074 C2073 1.362 . S
C2074 C2077 1.409 . S
C2075 H2067 0.930 . S
C2075 C2076 1.355 . S
C2075 C2077 1.415 . S
C2076 C2075 1.355 . S
C2076 C2078 1.419 . S
C2077 C2072 1.425 . S
C2077 C2074 1.409 . S
C2077 C2075 1.415 . S
C2078 H2068 0.930 . S
C2078 C2076 1.419 . S
C2078 C2079 1.362 . S
C2079 H2069 0.930 . S
C2079 C2072 1.409 . S
C2079 C2078 1.362 . S
H2080 C2086 0.930 . S
H2081 C2089 0.930 . S
H2082 C2090 0.930 . S
H2083 C2091 0.930 . S
H2084 C2094 0.930 . S
H2085 C2095 0.930 . S
C2086 H2080 0.930 . S
C2086 C2087 1.355 . S
C2086 C2088 1.415 . S
C2087 C2086 1.355 . S
C2087 C2089 1.419 . S
C2088 C2086 1.415 . S
C2088 C2093 1.425 . S
C2088 C2095 1.409 . S
C2089 H2081 0.930 . S
C2089 C2087 1.419 . S
C2089 C2090 1.362 . S
C2090 H2082 0.930 . S
C2090 C2089 1.362 . S
C2090 C2093 1.409 . S
C2091 H2083 0.930 . S
C2091 C2092 1.355 . S
C2091 C2093 1.415 . S
C2092 C2091 1.355 . S
C2092 C2094 1.419 . S
C2093 C2088 1.425 . S
C2093 C2090 1.409 . S
C2093 C2091 1.415 . S
C2094 H2084 0.930 . S
C2094 C2092 1.419 . S
C2094 C2095 1.362 . S
C2095 H2085 0.930 . S
C2095 C2088 1.409 . S
C2095 C2094 1.362 . S
H2096 C2102 0.930 . S
H2097 C2105 0.930 . S
H2098 C2106 0.930 . S
H2099 C2107 0.930 . S
H2100 C2110 0.930 . S
H2101 C2111 0.930 . S
C2102 H2096 0.930 . S
C2102 C2103 1.355 . S
C2102 C2104 1.415 . S
C2103 C2102 1.355 . S
C2103 C2105 1.419 . S
C2104 C2102 1.415 . S
C2104 C2109 1.425 . S
C2104 C2111 1.409 . S
C2105 H2097 0.930 . S
C2105 C2103 1.419 . S
C2105 C2106 1.362 . S
C2106 H2098 0.930 . S
C2106 C2105 1.362 . S
C2106 C2109 1.409 . S
C2107 H2099 0.930 . S
C2107 C2108 1.355 . S
C2107 C2109 1.415 . S
C2108 C2107 1.355 . S
C2108 C2110 1.419 . S
C2109 C2104 1.425 . S
C2109 C2106 1.409 . S
C2109 C2107 1.415 . S
C2110 H2100 0.930 . S
C2110 C2108 1.419 . S
C2110 C2111 1.362 . S
C2111 H2101 0.930 . S
C2111 C2104 1.409 . S
C2111 C2110 1.362 . S
H2112 C2118 0.930 . S
H2113 C2121 0.930 . S
H2114 C2122 0.930 . S
H2115 C2123 0.930 . S
H2116 C2126 0.930 . S
H2117 C2127 0.930 . S
C2118 H2112 0.930 . S
C2118 C2119 1.355 . S
C2118 C2120 1.415 . S
C2119 C2118 1.355 . S
C2119 C2121 1.419 . S
C2120 C2118 1.415 . S
C2120 C2125 1.425 . S
C2120 C2127 1.409 . S
C2121 H2113 0.930 . S
C2121 C2119 1.419 . S
C2121 C2122 1.362 . S
C2122 H2114 0.930 . S
C2122 C2121 1.362 . S
C2122 C2125 1.409 . S
C2123 H2115 0.930 . S
C2123 C2124 1.355 . S
C2123 C2125 1.415 . S
C2124 C2123 1.355 . S
C2124 C2126 1.419 . S
C2125 C2120 1.425 . S
C2125 C2122 1.409 . S
C2125 C2123 1.415 . S
C2126 H2116 0.930 . S
C2126 C2124 1.419 . S
C2126 C2127 1.362 . S
C2127 H2117 0.930 . S
C2127 C2120 1.409 . S
C2127 C2126 1.362 . S
H2128 C2134 0.930 . S
H2129 C2137 0.930 . S
H2130 C2138 0.930 . S
H2131 C2139 0.930 . S
H2132 C2142 0.930 . S
H2133 C2143 0.930 . S
C2134 H2128 0.930 . S
C2134 C2135 1.355 . S
C2134 C2136 1.415 . S
C2135 C2134 1.355 . S
C2135 C2137 1.419 . S
C2136 C2134 1.415 . S
C2136 C2141 1.425 . S
C2136 C2143 1.409 . S
C2137 H2129 0.930 . S
C2137 C2135 1.419 . S
C2137 C2138 1.362 . S
C2138 H2130 0.930 . S
C2138 C2137 1.362 . S
C2138 C2141 1.409 . S
C2139 H2131 0.930 . S
C2139 C2140 1.355 . S
C2139 C2141 1.415 . S
C2140 C2139 1.355 . S
C2140 C2142 1.419 . S
C2141 C2136 1.425 . S
C2141 C2138 1.409 . S
C2141 C2139 1.415 . S
C2142 H2132 0.930 . S
C2142 C2140 1.419 . S
C2142 C2143 1.362 . S
C2143 H2133 0.930 . S
C2143 C2136 1.409 . S
C2143 C2142 1.362 . S
H2144 C2150 0.930 . S
H2145 C2153 0.930 . S
H2146 C2154 0.930 . S
H2147 C2155 0.930 . S
H2148 C2158 0.930 . S
H2149 C2159 0.930 . S
C2150 H2144 0.930 . S
C2150 C2151 1.355 . S
C2150 C2152 1.415 . S
C2151 C2150 1.355 . S
C2151 C2153 1.419 . S
C2152 C2150 1.415 . S
C2152 C2157 1.425 . S
C2152 C2159 1.409 . S
C2153 H2145 0.930 . S
C2153 C2151 1.419 . S
C2153 C2154 1.362 . S
C2154 H2146 0.930 . S
C2154 C2153 1.362 . S
C2154 C2157 1.409 . S
C2155 H2147 0.930 . S
C2155 C2156 1.355 . S
C2155 C2157 1.415 . S
C2156 C2155 1.355 . S
C2156 C2158 1.419 . S
C2157 C2152 1.425 . S
C2157 C2154 1.409 . S
C2157 C2155 1.415 . S
C2158 H2148 0.930 . S
C2158 C2156 1.419 . S
C2158 C2159 1.362 . S
C2159 H2149 0.930 . S
C2159 C2152 1.409 . S
C2159 C2158 1.362 . S
H2160 C2166 0.930 . S
H2161 C2169 0.930 . S
H2162 C2170 0.930 . S
H2163 C2171 0.930 . S
H2164 C2174 0.930 . S
H2165 C2175 0.930 . S
C2166 H2160 0.930 . S
C2166 C2167 1.355 . S
C2166 C2168 1.415 . S
C2167 C2166 1.355 . S
C2167 C2169 1.419 . S
C2168 C2166 1.415 . S
C2168 C2173 1.425 . S
C2168 C2175 1.409 . S
C2169 H2161 0.930 . S
C2169 C2167 1.419 . S
C2169 C2170 1.362 . S
C2170 H2162 0.930 . S
C2170 C2169 1.362 . S
C2170 C2173 1.409 . S
C2171 H2163 0.930 . S
C2171 C2172 1.355 . S
C2171 C2173 1.415 . S
C2172 C2171 1.355 . S
C2172 C2174 1.419 . S
C2173 C2168 1.425 . S
C2173 C2170 1.409 . S
C2173 C2171 1.415 . S
C2174 H2164 0.930 . S
C2174 C2172 1.419 . S
C2174 C2175 1.362 . S
C2175 H2165 0.930 . S
C2175 C2168 1.409 . S
C2175 C2174 1.362 . S
H2176 C2182 0.930 . S
H2177 C2185 0.930 . S
H2178 C2186 0.930 . S
H2179 C2187 0.930 . S
H2180 C2190 0.930 . S
H2181 C2191 0.930 . S
C2182 H2176 0.930 . S
C2182 C2183 1.355 . S
C2182 C2184 1.415 . S
C2183 C2182 1.355 . S
C2183 C2185 1.419 . S
C2184 C2182 1.415 . S
C2184 C2189 1.425 . S
C2184 C2191 1.409 . S
C2185 H2177 0.930 . S
C2185 C2183 1.419 . S
C2185 C2186 1.362 . S
C2186 H2178 0.930 . S
C2186 C2185 1.362 . S
C2186 C2189 1.409 . S
C2187 H2179 0.930 . S
C2187 C2188 1.355 . S
C2187 C2189 1.415 . S
C2188 C2187 1.355 . S
C2188 C2190 1.419 . S
C2189 C2184 1.425 . S
C2189 C2186 1.409 . S
C2189 C2187 1.415 . S
C2190 H2180 0.930 . S
C2190 C2188 1.419 . S
C2190 C2191 1.362 . S
C2191 H2181 0.930 . S
C2191 C2184 1.409 . S
C2191 C2190 1.362 . S
H2192 C2198 0.930 . S
H2193 C2201 0.930 . S
H2194 C2202 0.930 . S
H2195 C2203 0.930 . S
H2196 C2206 0.930 . S
H2197 C2207 0.930 . S
C2198 H2192 0.930 . S
C2198 C2199 1.355 . S
C2198 C2200 1.415 . S
C2199 C2198 1.355 . S
C2199 C2201 1.419 . S
C2200 C2198 1.415 . S
C2200 C2205 1.425 . S
C2200 C2207 1.409 . S
C2201 H2193 0.930 . S
C2201 C2199 1.419 . S
C2201 C2202 1.362 . S
C2202 H2194 0.930 . S
C2202 C2201 1.362 . S
C2202 C2205 1.409 . S
C2203 H2195 0.930 . S
C2203 C2204 1.355 . S
C2203 C2205 1.415 . S
C2204 C2203 1.355 . S
C2204 C2206 1.419 . S
C2205 C2200 1.425 . S
C2205 C2202 1.409 . S
C2205 C2203 1.415 . S
C2206 H2196 0.930 . S
C2206 C2204 1.419 . S
C2206 C2207 1.362 . S
C2207 H2197 0.930 . S
C2207 C2200 1.409 . S
C2207 C2206 1.362 . S
H2208 C2214 0.930 . S
H2209 C2217 0.930 . S
H2210 C2218 0.930 . S
H2211 C2219 0.930 . S
H2212 C2222 0.930 . S
H2213 C2223 0.930 . S
C2214 H2208 0.930 . S
C2214 C2215 1.355 . S
C2214 C2216 1.415 . S
C2215 C2214 1.355 . S
C2215 C2217 1.419 . S
C2216 C2214 1.415 . S
C2216 C2221 1.425 . S
C2216 C2223 1.409 . S
C2217 H2209 0.930 . S
C2217 C2215 1.419 . S
C2217 C2218 1.362 . S
C2218 H2210 0.930 . S
C2218 C2217 1.362 . S
C2218 C2221 1.409 . S
C2219 H2211 0.930 . S
C2219 C2220 1.355 . S
C2219 C2221 1.415 . S
C2220 C2219 1.355 . S
C2220 C2222 1.419 . S
C2221 C2216 1.425 . S
C2221 C2218 1.409 . S
C2221 C2219 1.415 . S
C2222 H2212 0.930 . S
C2222 C2220 1.419 . S
C2222 C2223 1.362 . S
C2223 H2213 0.930 . S
C2223 C2216 1.409 . S
C2223 C2222 1.362 . S
H2224 C2230 0.930 . S
H2225 C2233 0.930 . S
H2226 C2234 0.930 . S
H2227 C2235 0.930 . S
H2228 C2238 0.930 . S
H2229 C2239 0.930 . S
C2230 H2224 0.930 . S
C2230 C2231 1.355 . S
C2230 C2232 1.415 . S
C2231 C2230 1.355 . S
C2231 C2233 1.419 . S
C2232 C2230 1.415 . S
C2232 C2237 1.425 . S
C2232 C2239 1.409 . S
C2233 H2225 0.930 . S
C2233 C2231 1.419 . S
C2233 C2234 1.362 . S
C2234 H2226 0.930 . S
C2234 C2233 1.362 . S
C2234 C2237 1.409 . S
C2235 H2227 0.930 . S
C2235 C2236 1.355 . S
C2235 C2237 1.415 . S
C2236 C2235 1.355 . S
C2236 C2238 1.419 . S
C2237 C2232 1.425 . S
C2237 C2234 1.409 . S
C2237 C2235 1.415 . S
C2238 H2228 0.930 . S
C2238 C2236 1.419 . S
C2238 C2239 1.362 . S
C2239 H2229 0.930 . S
C2239 C2232 1.409 . S
C2239 C2238 1.362 . S
H2240 C2246 0.930 . S
H2241 C2249 0.930 . S
H2242 C2250 0.930 . S
H2243 C2251 0.930 . S
H2244 C2254 0.930 . S
H2245 C2255 0.930 . S
C2246 H2240 0.930 . S
C2246 C2247 1.355 . S
C2246 C2248 1.415 . S
C2247 C2246 1.355 . S
C2247 C2249 1.419 . S
C2248 C2246 1.415 . S
C2248 C2253 1.425 . S
C2248 C2255 1.409 . S
C2249 H2241 0.930 . S
C2249 C2247 1.419 . S
C2249 C2250 1.362 . S
C2250 H2242 0.930 . S
C2250 C2249 1.362 . S
C2250 C2253 1.409 . S
C2251 H2243 0.930 . S
C2251 C2252 1.355 . S
C2251 C2253 1.415 . S
C2252 C2251 1.355 . S
C2252 C2254 1.419 . S
C2253 C2248 1.425 . S
C2253 C2250 1.409 . S
C2253 C2251 1.415 . S
C2254 H2244 0.930 . S
C2254 C2252 1.419 . S
C2254 C2255 1.362 . S
C2255 H2245 0.930 . S
C2255 C2248 1.409 . S
C2255 C2254 1.362 . S
H2256 C2262 0.930 . S
H2257 C2265 0.930 . S
H2258 C2266 0.930 . S
H2259 C2267 0.930 . S
H2260 C2270 0.930 . S
H2261 C2271 0.930 . S
C2262 H2256 0.930 . S
C2262 C2263 1.355 . S
C2262 C2264 1.415 . S
C2263 C2262 1.355 . S
C2263 C2265 1.419 . S
C2264 C2262 1.415 . S
C2264 C2269 1.425 . S
C2264 C2271 1.409 . S
C2265 H2257 0.930 . S
C2265 C2263 1.419 . S
C2265 C2266 1.362 . S
C2266 H2258 0.930 . S
C2266 C2265 1.362 . S
C2266 C2269 1.409 . S
C2267 H2259 0.930 . S
C2267 C2268 1.355 . S
C2267 C2269 1.415 . S
C2268 C2267 1.355 . S
C2268 C2270 1.419 . S
C2269 C2264 1.425 . S
C2269 C2266 1.409 . S
C2269 C2267 1.415 . S
C2270 H2260 0.930 . S
C2270 C2268 1.419 . S
C2270 C2271 1.362 . S
C2271 H2261 0.930 . S
C2271 C2264 1.409 . S
C2271 C2270 1.362 . S
H2272 C2278 0.930 . S
H2273 C2281 0.930 . S
H2274 C2282 0.930 . S
H2275 C2283 0.930 . S
H2276 C2286 0.930 . S
H2277 C2287 0.930 . S
C2278 H2272 0.930 . S
C2278 C2279 1.355 . S
C2278 C2280 1.415 . S
C2279 C2278 1.355 . S
C2279 C2281 1.419 . S
C2280 C2278 1.415 . S
C2280 C2285 1.425 . S
C2280 C2287 1.409 . S
C2281 H2273 0.930 . S
C2281 C2279 1.419 . S
C2281 C2282 1.362 . S
C2282 H2274 0.930 . S
C2282 C2281 1.362 . S
C2282 C2285 1.409 . S
C2283 H2275 0.930 . S
C2283 C2284 1.355 . S
C2283 C2285 1.415 . S
C2284 C2283 1.355 . S
C2284 C2286 1.419 . S
C2285 C2280 1.425 . S
C2285 C2282 1.409 . S
C2285 C2283 1.415 . S
C2286 H2276 0.930 . S
C2286 C2284 1.419 . S
C2286 C2287 1.362 . S
C2287 H2277 0.930 . S
C2287 C2280 1.409 . S
C2287 C2286 1.362 . S
H2288 C2294 0.930 . S
H2289 C2297 0.930 . S
H2290 C2298 0.930 . S
H2291 C2299 0.930 . S
H2292 C2302 0.930 . S
H2293 C2303 0.930 . S
C2294 H2288 0.930 . S
C2294 C2295 1.355 . S
C2294 C2296 1.415 . S
C2295 C2294 1.355 . S
C2295 C2297 1.419 . S
C2296 C2294 1.415 . S
C2296 C2301 1.425 . S
C2296 C2303 1.409 . S
C2297 H2289 0.930 . S
C2297 C2295 1.419 . S
C2297 C2298 1.362 . S
C2298 H2290 0.930 . S
C2298 C2297 1.362 . S
C2298 C2301 1.409 . S
C2299 H2291 0.930 . S
C2299 C2300 1.355 . S
C2299 C2301 1.415 . S
C2300 C2299 1.355 . S
C2300 C2302 1.419 . S
C2301 C2296 1.425 . S
C2301 C2298 1.409 . S
C2301 C2299 1.415 . S
C2302 H2292 0.930 . S
C2302 C2300 1.419 . S
C2302 C2303 1.362 . S
C2303 H2293 0.930 . S
C2303 C2296 1.409 . S
C2303 C2302 1.362 . S
H2304 C2310 0.930 . S
H2305 C2313 0.930 . S
H2306 C2314 0.930 . S
H2307 C2315 0.930 . S
H2308 C2318 0.930 . S
H2309 C2319 0.930 . S
C2310 H2304 0.930 . S
C2310 C2311 1.355 . S
C2310 C2312 1.415 . S
C2311 C2310 1.355 . S
C2311 C2313 1.419 . S
C2312 C2310 1.415 . S
C2312 C2317 1.425 . S
C2312 C2319 1.409 . S
C2313 H2305 0.930 . S
C2313 C2311 1.419 . S
C2313 C2314 1.362 . S
C2314 H2306 0.930 . S
C2314 C2313 1.362 . S
C2314 C2317 1.409 . S
C2315 H2307 0.930 . S
C2315 C2316 1.355 . S
C2315 C2317 1.415 . S
C2316 C2315 1.355 . S
C2316 C2318 1.419 . S
C2317 C2312 1.425 . S
C2317 C2314 1.409 . S
C2317 C2315 1.415 . S
C2318 H2308 0.930 . S
C2318 C2316 1.419 . S
C2318 C2319 1.362 . S
C2319 H2309 0.930 . S
C2319 C2312 1.409 . S
C2319 C2318 1.362 . S
H2320 C2326 0.930 . S
H2321 C2329 0.930 . S
H2322 C2330 0.930 . S
H2323 C2331 0.930 . S
H2324 C2334 0.930 . S
H2325 C2335 0.930 . S
C2326 H2320 0.930 . S
C2326 C2327 1.355 . S
C2326 C2328 1.415 . S
C2327 C2326 1.355 . S
C2327 C2329 1.419 . S
C2328 C2326 1.415 . S
C2328 C2333 1.425 . S
C2328 C2335 1.409 . S
C2329 H2321 0.930 . S
C2329 C2327 1.419 . S
C2329 C2330 1.362 . S
C2330 H2322 0.930 . S
C2330 C2329 1.362 . S
C2330 C2333 1.409 . S
C2331 H2323 0.930 . S
C2331 C2332 1.355 . S
C2331 C2333 1.415 . S
C2332 C2331 1.355 . S
C2332 C2334 1.419 . S
C2333 C2328 1.425 . S
C2333 C2330 1.409 . S
C2333 C2331 1.415 . S
C2334 H2324 0.930 . S
C2334 C2332 1.419 . S
C2334 C2335 1.362 . S
C2335 H2325 0.930 . S
C2335 C2328 1.409 . S
C2335 C2334 1.362 . S
H2336 C2342 0.930 . S
H2337 C2345 0.930 . S
H2338 C2346 0.930 . S
H2339 C2347 0.930 . S
H2340 C2350 0.930 . S
H2341 C2351 0.930 . S
C2342 H2336 0.930 . S
C2342 C2343 1.355 . S
C2342 C2344 1.415 . S
C2343 C2342 1.355 . S
C2343 C2345 1.419 . S
C2344 C2342 1.415 . S
C2344 C2349 1.425 . S
C2344 C2351 1.409 . S
C2345 H2337 0.930 . S
C2345 C2343 1.419 . S
C2345 C2346 1.362 . S
C2346 H2338 0.930 . S
C2346 C2345 1.362 . S
C2346 C2349 1.409 . S
C2347 H2339 0.930 . S
C2347 C2348 1.355 . S
C2347 C2349 1.415 . S
C2348 C2347 1.355 . S
C2348 C2350 1.419 . S
C2349 C2344 1.425 . S
C2349 C2346 1.409 . S
C2349 C2347 1.415 . S
C2350 H2340 0.930 . S
C2350 C2348 1.419 . S
C2350 C2351 1.362 . S
C2351 H2341 0.930 . S
C2351 C2344 1.409 . S
C2351 C2350 1.362 . S
H2352 C2358 0.930 . S
H2353 C2361 0.930 . S
H2354 C2362 0.930 . S
H2355 C2363 0.930 . S
H2356 C2366 0.930 . S
H2357 C2367 0.930 . S
C2358 H2352 0.930 . S
C2358 C2359 1.355 . S
C2358 C2360 1.440 . S
C2359 C2358 1.355 . S
C2359 C2361 1.419 . S
C2360 C2358 1.440 . S
C2360 C2365 1.418 1_455 S
C2360 C2367 1.389 1_455 S
C2361 H2353 0.930 . S
C2361 C2359 1.419 . S
C2361 C2362 1.362 . S
C2362 H2354 0.930 . S
C2362 C2361 1.362 . S
C2362 C2365 1.403 1_455 S
C2363 H2355 0.930 . S
C2363 C2364 1.355 . S
C2363 C2365 1.422 . S
C2364 C2363 1.355 . S
C2364 C2366 1.419 . S
C2365 C2360 1.418 1_655 S
C2365 C2362 1.403 1_655 S
C2365 C2363 1.422 . S
C2366 H2356 0.930 . S
C2366 C2364 1.419 . S
C2366 C2367 1.362 . S
C2367 H2357 0.930 . S
C2367 C2360 1.389 1_655 S
C2367 C2366 1.362 . S
H2368 C2374 0.930 . S
H2369 C2377 0.930 . S
H2370 C2378 0.930 . S
H2371 C2379 0.930 . S
H2372 C2382 0.930 . S
H2373 C2383 0.930 . S
C2374 H2368 0.930 . S
C2374 C2375 1.355 . S
C2374 C2376 1.415 . S
C2375 C2374 1.355 . S
C2375 C2377 1.419 . S
C2376 C2374 1.415 . S
C2376 C2381 1.425 . S
C2376 C2383 1.409 . S
C2377 H2369 0.930 . S
C2377 C2375 1.419 . S
C2377 C2378 1.362 . S
C2378 H2370 0.930 . S
C2378 C2377 1.362 . S
C2378 C2381 1.409 . S
C2379 H2371 0.930 . S
C2379 C2380 1.355 . S
C2379 C2381 1.415 . S
C2380 C2379 1.355 . S
C2380 C2382 1.419 . S
C2381 C2376 1.425 . S
C2381 C2378 1.409 . S
C2381 C2379 1.415 . S
C2382 H2372 0.930 . S
C2382 C2380 1.419 . S
C2382 C2383 1.362 . S
C2383 H2373 0.930 . S
C2383 C2376 1.409 . S
C2383 C2382 1.362 . S
H2384 C2390 0.930 . S
H2385 C2393 0.930 . S
H2386 C2394 0.930 . S
H2387 C2395 0.930 . S
H2388 C2398 0.930 . S
H2389 C2399 0.930 . S
C2390 H2384 0.930 . S
C2390 C2391 1.355 . S
C2390 C2392 1.415 1_545 S
C2391 C2390 1.355 . S
C2391 C2393 1.419 . S
C2392 C2390 1.415 1_565 S
C2392 C2397 1.425 1_565 S
C2392 C2399 1.409 . S
C2393 H2385 0.930 . S
C2393 C2391 1.419 . S
C2393 C2394 1.362 . S
C2394 H2386 0.930 . S
C2394 C2393 1.362 . S
C2394 C2397 1.409 . S
C2395 H2387 0.930 . S
C2395 C2396 1.355 . S
C2395 C2397 1.415 1_565 S
C2396 C2395 1.355 . S
C2396 C2398 1.419 . S
C2397 C2392 1.425 1_545 S
C2397 C2394 1.409 . S
C2397 C2395 1.415 1_545 S
C2398 H2388 0.930 . S
C2398 C2396 1.419 . S
C2398 C2399 1.362 . S
C2399 H2389 0.930 . S
C2399 C2392 1.409 . S
C2399 C2398 1.362 . S
H2400 C2406 0.930 . S
H2401 C2409 0.930 . S
H2402 C2410 0.930 . S
H2403 C2411 0.930 . S
H2404 C2414 0.930 . S
H2405 C2415 0.930 . S
C2406 H2400 0.930 . S
C2406 C2407 1.355 1_554 S
C2406 C2408 1.415 . S
C2407 C2406 1.355 1_556 S
C2407 C2409 1.419 . S
C2408 C2406 1.415 . S
C2408 C2413 1.425 1_544 S
C2408 C2415 1.409 1_545 S
C2409 H2401 0.930 . S
C2409 C2407 1.419 . S
C2409 C2410 1.362 . S
C2410 H2402 0.930 . S
C2410 C2409 1.362 . S
C2410 C2413 1.409 1_545 S
C2411 H2403 0.930 . S
C2411 C2412 1.355 1_556 S
C2411 C2413 1.415 . S
C2412 C2411 1.355 1_554 S
C2412 C2414 1.419 . S
C2413 C2408 1.425 1_566 S
C2413 C2410 1.409 1_565 S
C2413 C2411 1.415 . S
C2414 H2404 0.930 . S
C2414 C2412 1.419 . S
C2414 C2415 1.362 . S
C2415 H2405 0.930 . S
C2415 C2408 1.409 1_565 S
C2415 C2414 1.362 . S
H2416 C2422 0.930 . S
H2417 C2425 0.930 . S
H2418 C2426 0.930 . S
H2419 C2427 0.930 . S
H2420 C2430 0.930 . S
H2421 C2431 0.930 . S
C2422 H2416 0.930 . S
C2422 C2423 1.355 . S
C2422 C2424 1.415 . S
C2423 C2422 1.355 . S
C2423 C2425 1.419 1_556 S
C2424 C2422 1.415 . S
C2424 C2429 1.425 1_656 S
C2424 C2431 1.409 . S
C2425 H2417 0.930 . S
C2425 C2423 1.419 1_554 S
C2425 C2426 1.362 1_655 S
C2426 H2418 0.930 . S
C2426 C2425 1.362 1_455 S
C2426 C2429 1.409 . S
C2427 H2419 0.930 . S
C2427 C2428 1.355 . S
C2427 C2429 1.415 . S
C2428 C2427 1.355 . S
C2428 C2430 1.419 1_554 S
C2429 C2424 1.425 1_454 S
C2429 C2426 1.409 . S
C2429 C2427 1.415 . S
C2430 H2420 0.930 . S
C2430 C2428 1.419 1_556 S
C2430 C2431 1.362 1_455 S
C2431 H2421 0.930 . S
C2431 C2424 1.409 . S
C2431 C2430 1.362 1_655 S
H2432 C2438 0.930 . S
H2433 C2441 0.930 . S
H2434 C2442 0.930 . S
H2435 C2443 0.930 . S
H2436 C2446 0.930 . S
H2437 C2447 0.930 . S
C2438 H2432 0.930 . S
C2438 C2439 1.349 1_554 S
C2438 C2440 1.415 . S
C2439 C2438 1.349 1_556 S
C2439 C2441 1.427 . S
C2440 C2438 1.415 . S
C2440 C2445 1.425 1_554 S
C2440 C2447 1.409 . S
C2441 H2433 0.930 . S
C2441 C2439 1.427 . S
C2441 C2442 1.362 . S
C2442 H2434 0.930 . S
C2442 C2441 1.362 . S
C2442 C2445 1.409 . S
C2443 H2435 0.930 . S
C2443 C2444 1.376 . S
C2443 C2445 1.415 . S
C2444 C2443 1.376 . S
C2444 C2446 1.391 1_556 S
C2445 C2440 1.425 1_556 S
C2445 C2442 1.409 . S
C2445 C2443 1.415 . S
C2446 H2436 0.930 . S
C2446 C2444 1.391 1_554 S
C2446 C2447 1.362 . S
C2447 H2437 0.930 . S
C2447 C2440 1.409 . S
C2447 C2446 1.362 . S
C1303 C3 1.259 . S
C1308 C38 1.386 . S
C1319 C39 1.328 . S
C1324 C74 1.390 . S
C1335 C2 1.389 . S
C1340 C75 1.302 . S
C1351 C111 1.226 . S
C1356 C182 1.376 . S
C1367 C147 1.324 . S
C1372 C110 1.386 . S
C1383 C146 1.380 . S
C1388 C183 1.218 . S
C1399 C220 1.239 . S
C1404 C254 1.366 . S
C1415 C290 1.358 . S
C1420 C256 1.095 . S
C1431 C218 1.358 . S
C1436 C292 1.096 . S
C1447 C398 1.361 . S
C1452 C328 1.095 . S
C1463 C364 1.207 . S
C1468 C326 1.356 . S
C1479 C400 1.110 . S
C1484 C362 1.363 . S
C1495 C470 1.390 . S
C1500 C435 1.328 . S
C1511 C471 1.221 . S
C1516 C506 1.380 . S
C1527 C507 1.324 . S
C1532 C434 1.390 . S
C1543 C543 1.214 . S
C1548 C614 1.376 . S
C1559 C579 1.213 . S
C1564 C542 1.378 . S
C1575 C615 1.224 . S
C1580 C578 1.375 . S
C1591 C686 1.364 . S
C1596 C652 1.247 . S
C1607 C688 1.108 . S
C1612 C722 1.363 . S
C1623 C650 1.363 . S
C1628 C724 1.107 . S
C1639 C830 1.357 . S
C1644 C760 1.205 . S
C1655 C796 1.099 . S
C1660 C758 1.357 . S
C1671 C794 1.361 . S
C1676 C832 1.098 . S
C1687 C902 1.390 . S
C1692 C867 1.305 . S
C1703 C903 1.212 . S
C1708 C938 1.378 . S
C1719 C939 1.233 . S
C1724 C866 1.375 . S
C1735 C1046 1.382 . S
C1740 C975 1.297 . S
C1751 C1011 1.211 . S
C1756 C974 1.377 . S
C1767 C1010 1.386 . S
C1772 C1047 1.322 . S
C1783 C1084 1.131 . S
C1788 C1118 1.356 . S
C1799 C1120 1.224 . S
C1804 C1154 1.358 . S
C1815 C1156 1.109 . S
C1820 C1082 1.356 . S
C1831 C1262 1.361 . S
C1836 C1192 1.243 . S
C1847 C1190 1.359 . S
C1852 C1228 1.093 . S
C1863 C1264 1.237 . S
C1868 C1226 1.365 . S
C1879 C122 1.540 . S
C1884 C14 1.549 . S
C1895 C50 1.623 1_565 S
C1900 C158 1.620 1_545 S
C1911 C194 1.612 1_655 S
C1916 C86 1.623 1_455 S
C1927 C338 1.607 . S
C1932 C230 1.537 . S
C1943 C266 1.533 . S
C1948 C374 1.602 . S
C1959 C410 1.538 1_655 S
C1964 C302 1.606 1_455 S
C1975 C446 1.557 . S
C1980 C554 1.542 . S
C1991 C482 1.620 . S
C1996 C590 1.605 . S
C2007 C518 1.615 . S
C2012 C626 1.623 . S
C2023 C770 1.534 . S
C2028 C662 1.602 . S
C2039 C806 1.577 . S
C2044 C698 1.556 . S
C2055 C734 1.604 . S
C2060 C842 1.532 . S
C2071 C986 1.543 . S
C2076 C878 1.539 . S
C2087 C1022 1.608 . S
C2092 C914 1.621 . S
C2103 C950 1.545 . S
C2108 C1058 1.561 . S
C2119 C1094 1.558 . S
C2124 C1202 1.589 . S
C2135 C1238 1.529 . S
C2140 C1130 1.612 . S
C2151 C1166 1.542 . S
C2156 C1274 1.602 . S
C2167 C4 1.665 . S
C2172 C651 1.753 . S
C2183 C40 1.668 . S
C2188 C687 1.752 . S
C2199 C76 1.662 . S
C2204 C723 1.751 . S
C2215 C1191 1.705 . S
C2220 C112 1.607 . S
C2231 C1227 1.754 . S
C2236 C148 1.670 . S
C2247 C184 1.603 . S
C2252 C1263 1.708 . S
C2263 C219 1.692 . S
C2268 C868 1.582 . S
C2279 C904 1.673 . S
C2284 C255 1.758 . S
C2295 C940 1.670 . S
C2300 C291 1.754 . S
C2311 C544 1.635 . S
C2316 C327 1.726 . S
C2327 C580 1.580 . S
C2332 C363 1.690 . S
C2343 C616 1.645 . S
C2348 C399 1.739 . S
C2359 C1083 1.697 . S
C2364 C436 1.595 . S
C2375 C472 1.599 . S
C2380 C1119 1.705 . S
C2391 C508 1.580 . S
C2396 C1155 1.690 . S
C2407 C759 1.711 1_556 S
C2412 C976 1.620 1_554 S
C2423 C795 1.743 1_556 S
C2428 C1012 1.666 1_554 S
C2439 C1048 1.626 . S
C2444 C831 1.713 1_556 S
