# Generated by pormake.
# Topology sne, (6)-cn, num edge types: 1
# Building blocks:
#     Node 0, Type 0, BuildingBlock: OJICUG_clean_sbu_0, # of connection points: 6
#     Node 1, Type 0, BuildingBlock: OJICUG_clean_sbu_0, # of connection points: 6
#     Node 2, Type 0, BuildingBlock: OJICUG_clean_sbu_0, # of connection points: 6
#     Node 3, Type 0, BuildingBlock: OJICUG_clean_sbu_0, # of connection points: 6
#     Node 4, Type 0, BuildingBlock: OJICUG_clean_sbu_0, # of connection points: 6
#     Node 5, Type 0, BuildingBlock: OJICUG_clean_sbu_0, # of connection points: 6
#     Node 6, Type 0, BuildingBlock: OJICUG_clean_sbu_0, # of connection points: 6
#     Node 7, Type 0, BuildingBlock: OJICUG_clean_sbu_0, # of connection points: 6
#     Edge 8, Type (0, 0), BuildingBlock: EZIPEK_clean_linker_0, # of connection points: 2
#     Edge 9, Type (0, 0), BuildingBlock: EZIPEK_clean_linker_0, # of connection points: 2
#     Edge 10, Type (0, 0), BuildingBlock: EZIPEK_clean_linker_0, # of connection points: 2
#     Edge 11, Type (0, 0), BuildingBlock: EZIPEK_clean_linker_0, # of connection points: 2
#     Edge 12, Type (0, 0), BuildingBlock: EZIPEK_clean_linker_0, # of connection points: 2
#     Edge 13, Type (0, 0), BuildingBlock: EZIPEK_clean_linker_0, # of connection points: 2
#     Edge 14, Type (0, 0), BuildingBlock: EZIPEK_clean_linker_0, # of connection points: 2
#     Edge 15, Type (0, 0), BuildingBlock: EZIPEK_clean_linker_0, # of connection points: 2
#     Edge 16, Type (0, 0), BuildingBlock: EZIPEK_clean_linker_0, # of connection points: 2
#     Edge 17, Type (0, 0), BuildingBlock: EZIPEK_clean_linker_0, # of connection points: 2
#     Edge 18, Type (0, 0), BuildingBlock: EZIPEK_clean_linker_0, # of connection points: 2
#     Edge 19, Type (0, 0), BuildingBlock: EZIPEK_clean_linker_0, # of connection points: 2
#     Edge 20, Type (0, 0), BuildingBlock: EZIPEK_clean_linker_0, # of connection points: 2
#     Edge 21, Type (0, 0), BuildingBlock: EZIPEK_clean_linker_0, # of connection points: 2
#     Edge 22, Type (0, 0), BuildingBlock: EZIPEK_clean_linker_0, # of connection points: 2
#     Edge 23, Type (0, 0), BuildingBlock: EZIPEK_clean_linker_0, # of connection points: 2
#     Edge 24, Type (0, 0), BuildingBlock: EZIPEK_clean_linker_0, # of connection points: 2
#     Edge 25, Type (0, 0), BuildingBlock: EZIPEK_clean_linker_0, # of connection points: 2
#     Edge 26, Type (0, 0), BuildingBlock: EZIPEK_clean_linker_0, # of connection points: 2
#     Edge 27, Type (0, 0), BuildingBlock: EZIPEK_clean_linker_0, # of connection points: 2
#     Edge 28, Type (0, 0), BuildingBlock: EZIPEK_clean_linker_0, # of connection points: 2
#     Edge 29, Type (0, 0), BuildingBlock: EZIPEK_clean_linker_0, # of connection points: 2
#     Edge 30, Type (0, 0), BuildingBlock: EZIPEK_clean_linker_0, # of connection points: 2
#     Edge 31, Type (0, 0), BuildingBlock: EZIPEK_clean_linker_0, # of connection points: 2
# Relax obj value: 0.189
# Max RMSD: 0.224
# Mean RMSD: 0.224
data_MOF--net-sne--node1-OJICUG_clean_sbu_0--edge1-EZIPEK_clean_linker_0
_symmetry_space_group_name_H-M    P1
_symmetry_Int_Tables_number       1
_symmetry_cell_setting            triclinic
loop_
_symmetry_equiv_pos_as_xyz
'x, y, z'
_cell_length_a     26.448618
_cell_length_b     26.392479
_cell_length_c     21.653914
_cell_angle_alpha  90.203375
_cell_angle_beta   90.403415
_cell_angle_gamma 89.495606
loop_
_atom_site_label
_atom_site_type_symbol
_atom_site_fract_x
_atom_site_fract_y
_atom_site_fract_z
_atom_type_partial_charge
Sc0 Sc 0.30825 0.10289 0.39232 0.0
Sc1 Sc 0.19235 0.09979 0.31269 0.0
Sc2 Sc 0.24265 0.21428 0.3636 0.0
O3 O 0.24698 0.13858 0.35677 0.0
C4 C 0.28813 0.18213 0.49457 0.0
C5 C 0.22223 0.02437 0.41932 0.0
C6 C 0.1316 0.18057 0.39398 0.0
C7 C 0.29367 0.04505 0.26671 0.0
C8 C 0.35541 0.19413 0.32843 0.0
C9 C 0.19542 0.19793 0.22966 0.0
O10 O 0.29456 0.13555 0.48174 0.0
O11 O 0.18702 0.04553 0.38793 0.0
O12 O 0.16951 0.2084 0.40754 0.0
O13 O 0.32351 0.06724 0.30435 0.0
O14 O 0.31473 0.21833 0.31611 0.0
O15 O 0.19403 0.14974 0.2328 0.0
O16 O 0.3585 0.1627 0.37198 0.0
O17 O 0.24593 0.05099 0.26816 0.0
O18 O 0.20634 0.22551 0.27578 0.0
O19 O 0.26749 0.03885 0.41955 0.0
O20 O 0.27744 0.21541 0.45413 0.0
O21 O 0.1335 0.14456 0.35477 0.0
Sc22 Sc 0.11853 0.81021 0.65663 0.0
Sc23 Sc 0.09486 0.69755 0.5734 0.0
Sc24 Sc 0.21965 0.73537 0.60245 0.0
O25 O 0.14413 0.7477 0.61101 0.0
C26 C 0.20922 0.85343 0.57663 0.0
C27 C 0.03808 0.80165 0.54694 0.0
C28 C 0.17967 0.6971 0.47119 0.0
C29 C 0.04008 0.72774 0.69902 0.0
C30 C 0.21561 0.78174 0.73867 0.0
C31 C 0.18015 0.62398 0.62776 0.0
O32 O 0.17001 0.85797 0.60969 0.0
O33 O 0.04668 0.75508 0.5372 0.0
O34 O 0.2138 0.70961 0.50938 0.0
O35 O 0.06233 0.76977 0.70546 0.0
O36 O 0.23808 0.76022 0.6941 0.0
O37 O 0.13667 0.63395 0.60605 0.0
O38 O 0.17069 0.79927 0.73396 0.0
O39 O 0.05025 0.69583 0.6565 0.0
O40 O 0.21307 0.65844 0.63571 0.0
O41 O 0.06235 0.82816 0.58626 0.0
O42 O 0.23056 0.81079 0.5669 0.0
O43 O 0.13321 0.69439 0.48525 0.0
Sc44 Sc 0.74499 0.77506 0.38686 0.0
Sc45 Sc 0.78445 0.89052 0.32675 0.0
Sc46 Sc 0.66904 0.88233 0.39996 0.0
O47 O 0.73332 0.84909 0.37179 0.0
C48 C 0.6281 0.78334 0.34479 0.0
C49 C 0.78775 0.78539 0.25341 0.0
C50 C 0.68955 0.93903 0.27137 0.0
C51 C 0.85336 0.82633 0.4138 0.0
C52 C 0.69064 0.80218 0.50802 0.0
C53 C 0.74334 0.96472 0.43392 0.0
O54 O 0.6656 0.75709 0.36522 0.0
O55 O 0.80393 0.83018 0.26214 0.0
O56 O 0.66743 0.93597 0.32334 0.0
O57 O 0.8245 0.78765 0.4116 0.0
O58 O 0.66164 0.83467 0.48207 0.0
O59 O 0.7693 0.95668 0.38521 0.0
O60 O 0.72861 0.7826 0.48179 0.0
O61 O 0.84242 0.86858 0.38941 0.0
O62 O 0.71005 0.93477 0.45359 0.0
O63 O 0.76189 0.76161 0.29258 0.0
O64 O 0.62686 0.8313 0.3459 0.0
O65 O 0.72975 0.91434 0.261 0.0
Sc66 Sc 0.87055 0.18699 0.63356 0.0
Sc67 Sc 0.88092 0.30203 0.56041 0.0
Sc68 Sc 0.76351 0.26163 0.61292 0.0
O69 O 0.83795 0.25095 0.60277 0.0
C70 C 0.77757 0.14671 0.56635 0.0
C71 C 0.93954 0.21172 0.51644 0.0
C72 C 0.77999 0.30376 0.47937 0.0
C73 C 0.94592 0.26361 0.67835 0.0
C74 C 0.78367 0.20351 0.73307 0.0
C75 C 0.81113 0.37069 0.64157 0.0
O76 O 0.82536 0.14602 0.57141 0.0
O77 O 0.91029 0.24666 0.49853 0.0
O78 O 0.75396 0.28006 0.5184 0.0
O79 O 0.91545 0.22945 0.69449 0.0
O80 O 0.76713 0.24363 0.70817 0.0
O81 O 0.85369 0.36061 0.61806 0.0
O82 O 0.81633 0.17476 0.7076 0.0
O83 O 0.94164 0.28907 0.62829 0.0
O84 O 0.77332 0.34087 0.63975 0.0
O85 O 0.93244 0.18885 0.56727 0.0
O86 O 0.74923 0.18236 0.58743 0.0
O87 O 0.82506 0.31837 0.48935 0.0
Sc88 Sc 0.23275 0.26548 0.87118 0.0
Sc89 Sc 0.27865 0.37696 0.80901 0.0
Sc90 Sc 0.16612 0.3786 0.88931 0.0
O91 O 0.22673 0.33994 0.85785 0.0
C92 C 0.11862 0.2844 0.82834 0.0
C93 C 0.27498 0.27281 0.73538 0.0
C94 C 0.19151 0.43779 0.76462 0.0
C95 C 0.34492 0.30861 0.89385 0.0
C96 C 0.18012 0.29372 -0.00647 0.0
C97 C 0.24876 0.45142 0.9239 0.0
O98 O 0.15352 0.25452 0.84766 0.0
O99 O 0.29096 0.31773 0.74168 0.0
O100 O 0.16987 0.43697 0.81701 0.0
O101 O 0.31098 0.27466 0.89807 0.0
O102 O 0.15402 0.32937 0.9693 0.0
O103 O 0.27187 0.44194 0.87328 0.0
O104 O 0.2162 0.272 0.96606 0.0
O105 O 0.33892 0.34891 0.8632 0.0
O106 O 0.21306 0.42466 0.94428 0.0
O107 O 0.25033 0.24999 0.77661 0.0
O108 O 0.11994 0.33235 0.83355 0.0
O109 O 0.22117 0.40298 0.74843 0.0
Sc110 Sc 0.3739 0.668 0.15272 0.0
Sc111 Sc 0.39683 0.78412 0.08378 0.0
Sc112 Sc 0.27248 0.74596 0.10624 0.0
O113 O 0.34746 0.73323 0.1152 0.0
C114 C 0.28831 0.62967 0.06685 0.0
C115 C 0.45571 0.68913 0.04642 0.0
C116 C 0.3103 0.78711 0.97864 0.0
C117 C 0.448 0.74116 0.212 0.0
C118 C 0.27451 0.69162 0.2335 0.0
C119 C 0.31669 0.85534 0.14508 0.0
O120 O 0.33378 0.62664 0.08525 0.0
O121 O 0.43421 0.72946 0.02928 0.0
O122 O 0.2784 0.76385 0.01094 0.0
O123 O 0.41608 0.70667 0.22116 0.0
O124 O 0.25958 0.72795 0.19979 0.0
O125 O 0.36219 0.84358 0.13381 0.0
O126 O 0.31188 0.66295 0.21945 0.0
O127 O 0.44732 0.76962 0.16394 0.0
O128 O 0.27943 0.82586 0.13431 0.0
O129 O 0.44167 0.66447 0.09382 0.0
O130 O 0.25916 0.66744 0.07824 0.0
O131 O 0.35308 0.8015 -0.00032 0.0
Sc132 Sc 0.81579 0.60925 0.91286 0.0
Sc133 Sc 0.70367 0.60552 0.82351 0.0
Sc134 Sc 0.74806 0.72135 0.8804 0.0
O135 O 0.7558 0.64517 0.87239 0.0
C136 C 0.79433 0.69463 0.01228 0.0
C137 C 0.72899 0.53165 0.93743 0.0
C138 C 0.63591 0.68263 0.9019 0.0
C139 C 0.80406 0.54922 0.78444 0.0
C140 C 0.86438 0.70455 0.8494 0.0
C141 C 0.70631 0.70696 0.7439 0.0
O142 O 0.81003 0.65048 -0.0012 0.0
O143 O 0.7012 0.5458 0.89219 0.0
O144 O 0.6719 0.71311 0.91368 0.0
O145 O 0.82881 0.56184 0.83258 0.0
O146 O 0.82387 0.731 0.84519 0.0
O147 O 0.70142 0.65912 0.74722 0.0
O148 O 0.86741 0.66196 0.87594 0.0
O149 O 0.75914 0.56401 0.77404 0.0
O150 O 0.71971 0.73352 0.78962 0.0
O151 O 0.76991 0.55297 0.95262 0.0
O152 O 0.77344 0.72388 0.97359 0.0
O153 O 0.64252 0.64278 0.86982 0.0
Sc154 Sc 0.59702 0.29409 0.14828 0.0
Sc155 Sc 0.60138 0.18049 0.06181 0.0
Sc156 Sc 0.71243 0.23772 0.10873 0.0
O157 O 0.63648 0.23742 0.10654 0.0
C158 C 0.6833 0.35154 0.07771 0.0
C159 C 0.53043 0.27366 0.02868 0.0
C160 C 0.69392 0.19456 0.97368 0.0
C161 C 0.5312 0.19768 0.1795 0.0
C162 C 0.68743 0.28414 0.24074 0.0
C163 C 0.68697 0.12408 0.13758 0.0
O164 O 0.64715 0.35153 0.11582 0.0
O165 O 0.54843 0.22971 0.02064 0.0
O166 O 0.72264 0.20481 0.01893 0.0
O167 O 0.54385 0.24359 0.18538 0.0
O168 O 0.71763 0.2713 0.19834 0.0
O169 O 0.65102 0.12433 0.09867 0.0
O170 O 0.64005 0.28805 0.2326 0.0
O171 O 0.55098 0.16785 0.13969 0.0
O172 O 0.71281 0.16321 0.15163 0.0
O173 O 0.54649 0.30431 0.06988 0.0
O174 O 0.70968 0.31186 0.06613 0.0
O175 O 0.64653 0.18931 0.9796 0.0
C176 C 0.28639 -0.00441 0.16846 0.0
C177 C 0.31249 0.00417 0.22516 0.0
C178 C 0.33578 0.915 0.23069 0.0
C179 C 0.30916 0.90544 0.17483 0.0
N180 N 0.26505 0.93729 0.08513 0.0
N181 N 0.38054 0.97643 0.29226 0.0
C182 C 0.28612 0.94603 0.14192 0.0
C183 C 0.34307 0.96535 0.25076 0.0
N184 N 0.26167 0.03522 0.14078 0.0
N185 N 0.3532 0.87559 0.26563 0.0
H186 H 0.39153 0.01332 0.30228 0.0
H187 H 0.40596 0.94933 0.30908 0.0
H188 H 0.34891 0.83807 0.25192 0.0
H189 H 0.367 0.88013 0.31049 0.0
H190 H 0.23699 0.03156 0.10345 0.0
H191 H 0.26588 0.07247 0.15636 0.0
H192 H 0.25214 0.96567 0.05563 0.0
H193 H 0.26193 0.90107 0.06632 0.0
C194 C -0.00093 0.72654 0.80275 0.0
C195 C -0.00472 0.71977 0.73778 0.0
C196 C 0.90483 0.70394 0.74671 0.0
C197 C 0.90755 0.71661 0.81029 0.0
N198 N 0.95522 0.74577 0.89827 0.0
N199 N 0.94167 0.71435 0.64644 0.0
C200 C 0.95415 0.72989 0.83814 0.0
C201 C 0.94741 0.71193 0.7092 0.0
N202 N 0.04556 0.72767 0.8307 0.0
N203 N 0.86256 0.68165 0.72248 0.0
H204 H 0.97107 0.7217 0.61618 0.0
H205 H 0.90638 0.71471 0.62469 0.0
H206 H 0.83034 0.67405 0.74822 0.0
H207 H 0.86119 0.6666 0.67795 0.0
H208 H 0.05074 0.7279 0.87841 0.0
H209 H 0.0792 0.72339 0.80627 0.0
H210 H 0.9873 0.76042 0.91973 0.0
H211 H 0.92264 0.74837 0.92511 0.0
C212 C 0.70519 0.98578 0.1724 0.0
C213 C 0.67711 0.98138 0.22777 0.0
C214 C 0.65643 0.07175 0.224 0.0
C215 C 0.69066 0.07737 0.17422 0.0
N216 N 0.74885 0.04098 0.10136 0.0
N217 N 0.60541 0.01397 0.28338 0.0
C218 C 0.71525 0.03461 0.14829 0.0
C219 C 0.64658 0.02263 0.24729 0.0
N220 N 0.71859 0.94294 0.14069 0.0
N221 N 0.63329 0.11351 0.2489 0.0
H222 H 0.59314 0.97742 0.29307 0.0
H223 H 0.57938 0.0419 0.29591 0.0
H224 H 0.63816 0.14996 0.23164 0.0
H225 H 0.61238 0.11264 0.28944 0.0
H226 H 0.73583 0.94316 0.09763 0.0
H227 H 0.7064 0.90713 0.15415 0.0
H228 H 0.77173 0.01196 0.08418 0.0
H229 H 0.75693 0.07655 0.08312 0.0
C230 C 0.02608 0.28421 0.81981 0.0
C231 C 0.07287 0.26439 0.79901 0.0
C232 C 0.03664 0.2449 0.69834 0.0
C233 C 0.99095 0.2688 0.71723 0.0
N234 N 0.9416 0.31361 0.79316 0.0
N235 N 0.11793 0.20974 0.7287 0.0
C236 C 0.9852 0.28853 0.77766 0.0
C237 C 0.07676 0.23954 0.74141 0.0
N238 N 0.02138 0.29817 0.88039 0.0
N239 N 0.04226 0.22901 0.63864 0.0
H240 H 0.14746 0.20392 0.7599 0.0
H241 H 0.12069 0.18646 0.68996 0.0
H242 H 0.01394 0.23287 0.60556 0.0
H243 H 0.0762 0.21606 0.62017 0.0
H244 H 0.98769 0.30989 0.90062 0.0
H245 H 0.05109 0.29379 0.91198 0.0
H246 H 0.93593 0.33239 0.83487 0.0
H247 H 0.91181 0.3188 0.76196 0.0
C248 C 0.25219 0.59023 0.97071 0.0
C249 C 0.26964 0.58528 0.03246 0.0
C250 C 0.27866 0.49356 0.01971 0.0
C251 C 0.25985 0.49802 0.95867 0.0
N252 N 0.21939 0.54847 0.87932 0.0
N253 N 0.28567 0.53204 0.12083 0.0
C254 C 0.24379 0.54579 0.93506 0.0
C255 C 0.2786 0.53675 0.05849 0.0
N256 N 0.24551 0.63719 0.94536 0.0
N257 N 0.29794 0.44829 0.04001 0.0
H258 H 0.28437 0.56305 0.1508 0.0
H259 H 0.28752 0.4973 0.14343 0.0
H260 H 0.29874 0.41573 0.01256 0.0
H261 H 0.3171 0.44403 0.08187 0.0
H262 H 0.23619 0.6433 0.89934 0.0
H263 H 0.25146 0.67081 0.96939 0.0
H264 H 0.20114 0.58081 0.86275 0.0
H265 H 0.21427 0.51712 0.85096 0.0
C266 C 0.58138 0.72242 0.98434 0.0
C267 C 0.5858 0.68938 0.93305 0.0
C268 C 0.50495 0.64987 0.96091 0.0
C269 C 0.50451 0.67878 0.01587 0.0
N270 N 0.54711 0.73575 0.08548 0.0
N271 N 0.53972 0.63937 0.85834 0.0
C272 C 0.5446 0.71247 0.02938 0.0
C273 C 0.54431 0.65743 0.91733 0.0
N274 N 0.60777 0.76671 -0.01341 0.0
N275 N 0.46767 0.61523 0.95081 0.0
H276 H 0.56316 0.65136 0.82282 0.0
H277 H 0.50907 0.61852 0.84237 0.0
H278 H 0.43868 0.60952 0.98247 0.0
H279 H 0.46778 0.58934 0.91445 0.0
H280 H 0.6034 0.79365 0.02147 0.0
H281 H 0.6268 0.78096 0.94854 0.0
H282 H 0.57826 0.75637 0.10071 0.0
H283 H 0.52017 0.72954 0.11889 0.0
C284 C 0.65516 0.43572 0.02948 0.0
C285 C 0.69438 0.3998 0.04478 0.0
C286 C 0.75273 0.44731 0.98088 0.0
C287 C 0.71574 0.48593 0.97242 0.0
N288 N 0.63601 0.52286 0.00289 0.0
N289 N 0.78481 0.38471 0.05174 0.0
C290 C 0.66825 0.48208 0.00112 0.0
C291 C 0.74452 0.4094 0.02539 0.0
N292 N 0.60522 0.42543 0.03835 0.0
N293 N 0.79524 0.44591 0.94549 0.0
H294 H 0.78134 0.36096 0.08981 0.0
H295 H 0.82217 0.39352 0.04143 0.0
H296 H 0.80166 0.47184 0.9103 0.0
H297 H 0.82093 0.4157 0.94663 0.0
H298 H 0.57622 0.44888 0.02196 0.0
H299 H 0.59161 0.39147 0.05492 0.0
H300 H 0.60324 0.5235 0.02937 0.0
H301 H 0.64449 0.55778 0.98327 0.0
C302 C 0.44818 0.24494 0.98483 0.0
C303 C 0.48331 0.28468 -0.00557 0.0
C304 C 0.42341 0.34293 0.9471 0.0
C305 C 0.3936 0.30107 0.92656 0.0
N306 N 0.39294 0.21011 0.90803 0.0
N307 N 0.5095 0.36849 0.96534 0.0
C308 C 0.41055 0.25125 0.93969 0.0
C309 C 0.47267 0.33302 0.96981 0.0
N310 N 0.44886 0.2022 0.02012 0.0
N311 N 0.40478 0.39134 0.94874 0.0
H312 H 0.54722 0.35964 0.97463 0.0
H313 H 0.50338 0.40347 0.94414 0.0
H314 H 0.36703 0.40061 0.94056 0.0
H315 H 0.4256 0.42133 0.96702 0.0
H316 H 0.4215 0.17415 0.01549 0.0
H317 H 0.47192 0.19836 0.05901 0.0
H318 H 0.40717 0.17366 0.91584 0.0
H319 H 0.37026 0.21318 0.86862 0.0
C320 C 0.83842 0.46229 0.76906 0.0
C321 C 0.82324 0.50892 0.74263 0.0
C322 C 0.8043 0.46495 0.6452 0.0
C323 C 0.80859 0.41815 0.67691 0.0
N324 N 0.82408 0.37222 0.77136 0.0
N325 N 0.79874 0.55673 0.65281 0.0
C326 C 0.82386 0.41683 0.73963 0.0
C327 C 0.80891 0.51084 0.67932 0.0
N328 N 0.86859 0.46121 0.82041 0.0
N329 N 0.79615 0.4653 0.58279 0.0
H330 H 0.80592 0.59074 0.67589 0.0
H331 H 0.78237 0.5612 0.60931 0.0
H332 H 0.79003 0.43228 0.55727 0.0
H333 H 0.79771 0.49779 0.5558 0.0
H334 H 0.88344 0.42773 0.83874 0.0
H335 H 0.88451 0.49376 0.83931 0.0
H336 H 0.83026 0.37031 0.8189 0.0
H337 H 0.81352 0.33795 0.75115 0.0
C338 C 0.44466 0.16124 0.19779 0.0
C339 C 0.49024 0.18167 0.22163 0.0
C340 C 0.4463 0.21225 0.31403 0.0
C341 C 0.3999 0.1962 0.28794 0.0
N342 N 0.35336 0.15436 0.20633 0.0
N343 N 0.53787 0.20916 0.31026 0.0
C344 C 0.39862 0.17026 0.23014 0.0
C345 C 0.49194 0.20154 0.28255 0.0
N346 N 0.44591 0.13091 0.14655 0.0
N347 N 0.44627 0.23968 0.36777 0.0
H348 H 0.57177 0.20037 0.28813 0.0
H349 H 0.54251 0.21928 0.35643 0.0
H350 H 0.41312 0.24911 0.39121 0.0
H351 H 0.47822 0.25685 0.38639 0.0
H352 H 0.41485 0.112 0.1284 0.0
H353 H 0.47938 0.11998 0.12521 0.0
H354 H 0.34843 0.14037 0.16177 0.0
H355 H 0.31936 0.15739 0.23009 0.0
C356 C 0.14976 0.53493 0.6466 0.0
C357 C 0.18954 0.57089 0.65025 0.0
C358 C 0.23612 0.51216 0.7176 0.0
C359 C 0.19069 0.48408 0.72625 0.0
N360 N 0.10321 0.47007 0.69957 0.0
N361 N 0.27709 0.58607 0.67646 0.0
C362 C 0.147 0.49619 0.69138 0.0
C363 C 0.23474 0.55727 0.68201 0.0
N364 N 0.11762 0.53456 0.59694 0.0
N365 N 0.28122 0.49484 0.74092 0.0
H366 H 0.28358 0.60872 0.63806 0.0
H367 H 0.30668 0.58571 0.70847 0.0
H368 H 0.28506 0.46248 0.76743 0.0
H369 H 0.31615 0.51018 0.73012 0.0
H370 H 0.09017 0.50693 0.59029 0.0
H371 H 0.12388 0.55655 0.55782 0.0
H372 H 0.06906 0.48111 0.67911 0.0
H373 H 0.10016 0.43988 0.73025 0.0
C374 C 0.58123 0.72443 0.27279 0.0
C375 C 0.58106 0.7592 0.32271 0.0
C376 C 0.49023 0.77476 0.30788 0.0
C377 C 0.49156 0.74309 0.25525 0.0
N378 N 0.53052 0.66918 0.20899 0.0
N379 N 0.53282 0.80181 0.40176 0.0
C380 C 0.53456 0.71179 0.24449 0.0
C381 C 0.53446 0.77923 0.3449 0.0
N382 N 0.62557 0.70574 0.24972 0.0
N383 N 0.44688 0.80041 0.32227 0.0
H384 H 0.56458 0.80388 0.43051 0.0
H385 H 0.49954 0.81383 0.42283 0.0
H386 H 0.41287 0.79361 0.29931 0.0
H387 H 0.44495 0.82891 0.35557 0.0
H388 H 0.62742 0.68527 0.20852 0.0
H389 H 0.66079 0.71337 0.26918 0.0
H390 H 0.55984 0.64286 0.2041 0.0
H391 H 0.49627 0.65769 0.1898 0.0
C392 C 0.73244 0.10309 0.48001 0.0
C393 C 0.75575 0.10088 0.53897 0.0
C394 C 0.77178 0.01011 0.52781 0.0
C395 C 0.74953 0.01214 0.46833 0.0
N396 N 0.7004 0.05682 0.3912 0.0
N397 N 0.784 0.05183 0.62634 0.0
C398 C 0.7271 0.05757 0.44546 0.0
C399 C 0.77074 0.05397 0.56527 0.0
N400 N 0.71737 0.14879 0.45635 0.0
N401 N 0.79592 0.96687 0.5472 0.0
H402 H 0.78365 0.08379 0.65476 0.0
H403 H 0.79068 0.01815 0.65005 0.0
H404 H 0.79818 0.93416 0.52017 0.0
H405 H 0.81733 0.96457 0.58763 0.0
H406 H 0.70365 0.15393 0.41173 0.0
H407 H 0.71945 0.18254 0.48127 0.0
H408 H 0.67871 0.087 0.37478 0.0
H409 H 0.69763 0.02456 0.36369 0.0
C410 C 0.05593 0.14711 0.45033 0.0
C411 C 0.08264 0.18903 0.42568 0.0
C412 C 0.01787 0.24622 0.46625 0.0
C413 C 0.98779 0.20386 0.48304 0.0
N414 N 0.97437 0.11365 0.47799 0.0
N415 N 0.08125 0.27734 0.39662 0.0
C416 C 0.00567 0.15415 0.47118 0.0
C417 C 0.06138 0.2383 0.42959 0.0
N418 N 0.07913 0.101 0.45657 0.0
N419 N 0.0071 0.29376 0.488 0.0
H420 H 0.11179 0.27288 0.36685 0.0
H421 H 0.06376 0.31281 0.39359 0.0
H422 H 0.9778 0.30179 0.51835 0.0
H423 H 0.03118 0.32435 0.48169 0.0
H424 H 0.06292 0.07079 0.4799 0.0
H425 H 0.11664 0.09464 0.44467 0.0
H426 H 0.9843 0.07704 0.46418 0.0
H427 H 0.93664 0.11744 0.49111 0.0
C428 C 0.24629 0.89543 0.4826 0.0
C429 C 0.22465 0.89955 0.54201 0.0
C430 C 0.20007 0.98771 0.52068 0.0
C431 C 0.21326 0.97992 0.458 0.0
N432 N 0.24676 0.92643 0.37745 0.0
N433 N 0.20334 0.9556 0.62567 0.0
C434 C 0.23549 0.93357 0.43844 0.0
C435 C 0.20771 0.94765 0.5635 0.0
N436 N 0.28139 0.85857 0.47051 0.0
N437 N 0.18095 0.0336 0.53907 0.0
H438 H 0.21457 0.9282 0.65773 0.0
H439 H 0.19406 0.99019 0.64593 0.0
H440 H 0.17807 0.06456 0.50952 0.0
H441 H 0.16571 0.04067 0.58243 0.0
H442 H 0.30242 0.85745 0.43008 0.0
H443 H 0.29587 0.83463 0.50454 0.0
H444 H 0.26026 0.89233 0.35951 0.0
H445 H 0.23859 0.95355 0.34375 0.0
C446 C -0.00582 0.82355 0.44932 0.0
C447 C -0.00654 0.82278 0.51461 0.0
C448 C 0.90102 0.83056 0.51359 0.0
C449 C 0.90148 0.82381 0.44857 0.0
N450 N 0.94721 0.81507 0.35318 0.0
N451 N 0.94754 0.82705 0.6104 0.0
C452 C 0.9478 0.82124 0.4159 0.0
C453 C 0.94728 0.82776 0.54724 0.0
N454 N 0.0396 0.82679 0.41987 0.0
N455 N 0.85636 0.84056 0.54288 0.0
H456 H 0.98065 0.82733 0.63673 0.0
H457 H 0.91518 0.82377 0.6371 0.0
H458 H 0.82151 0.84079 0.52006 0.0
H459 H 0.85388 0.85199 0.58879 0.0
H460 H 0.04347 0.83127 0.37244 0.0
H461 H 0.07378 0.82933 0.44408 0.0
H462 H 0.97924 0.80777 0.32689 0.0
H463 H 0.91386 0.81453 0.32728 0.0
C464 C 0.13918 0.23976 0.07398 0.0
C465 C 0.17312 0.27895 0.05856 0.0
C466 C 0.22279 0.26178 0.15127 0.0
C467 C 0.18746 0.22438 0.16957 0.0
N468 N 0.10538 0.1865 0.15469 0.0
N469 N 0.2377 0.33688 0.09052 0.0
C470 C 0.14352 0.21587 0.13283 0.0
C471 C 0.21136 0.29342 0.10046 0.0
N472 N 0.10409 0.22422 0.03161 0.0
N473 N 0.26912 0.2646 0.1792 0.0
H474 H 0.22954 0.36076 0.05336 0.0
H475 H 0.26338 0.3517 0.12238 0.0
H476 H 0.28107 0.23903 0.21268 0.0
H477 H 0.2979 0.28799 0.16372 0.0
H478 H 0.08219 0.19195 0.03717 0.0
H479 H 0.09895 0.24239 -0.01072 0.0
H480 H 0.07062 0.18288 0.13226 0.0
H481 H 0.10666 0.16945 0.19804 0.0
C482 C 0.27143 0.83466 0.88944 0.0
C483 C 0.29779 0.79153 0.91191 0.0
C484 C 0.27025 0.74222 0.82183 0.0
C485 C 0.24376 0.78552 0.79863 0.0
N486 N 0.23163 0.8764 0.80193 0.0
N487 N 0.33452 0.70955 0.89241 0.0
C488 C 0.24787 0.83285 0.83003 0.0
C489 C 0.30154 0.74719 0.87521 0.0
N490 N 0.26823 0.87705 0.92552 0.0
N491 N 0.26319 0.6957 0.79511 0.0
H492 H 0.35752 0.71243 0.93162 0.0
H493 H 0.34267 0.67796 0.86523 0.0
H494 H 0.23614 0.68895 0.76091 0.0
H495 H 0.28047 0.66245 0.81039 0.0
H496 H 0.24415 0.9075 0.9159 0.0
H497 H 0.28874 0.88065 0.96658 0.0
H498 H 0.23798 0.91242 0.82 0.0
H499 H 0.21616 0.8771 0.75755 0.0
C500 C 0.83848 0.74446 0.16857 0.0
C501 C 0.79152 0.76249 0.19148 0.0
C502 C 0.74725 0.72456 0.10383 0.0
C503 C 0.79444 0.71205 0.07695 0.0
N504 N 0.88557 0.71509 0.07937 0.0
N505 N 0.70245 0.77911 0.17491 0.0
C506 C 0.84039 0.72309 0.10819 0.0
C507 C 0.7462 0.75516 0.15742 0.0
N508 N 0.88074 0.74646 0.20505 0.0
N509 N 0.70344 0.70616 0.0788 0.0
H510 H 0.70019 0.80298 0.21332 0.0
H511 H 0.66963 0.7792 0.14801 0.0
H512 H 0.70286 0.68228 0.04028 0.0
H513 H 0.66835 0.71014 0.09992 0.0
H514 H 0.91498 0.72931 0.19336 0.0
H515 H 0.88035 0.76195 0.24938 0.0
H516 H 0.91997 0.72763 0.09711 0.0
H517 H 0.88833 0.69891 0.03548 0.0
C518 C 0.72941 0.1566 0.80861 0.0
C519 C 0.76689 0.19334 0.79651 0.0
C520 C 0.75089 0.23334 0.89554 0.0
C521 C 0.71722 0.19383 0.91139 0.0
N522 N 0.68282 0.11153 0.88698 0.0
N523 N 0.82353 0.25682 0.83567 0.0
C524 C 0.70886 0.15339 0.86913 0.0
C525 C 0.78126 0.22814 0.84271 0.0
N526 N 0.71197 0.12634 0.76201 0.0
N527 N 0.75085 0.27785 0.92777 0.0
H528 H 0.84697 0.25322 0.79729 0.0
H529 H 0.83784 0.2799 0.87073 0.0
H530 H 0.72394 0.28585 0.96119 0.0
H531 H 0.77216 0.30913 0.91502 0.0
H532 H 0.68096 0.10262 0.76672 0.0
H533 H 0.72618 0.12797 0.7173 0.0
H534 H 0.67973 0.07915 0.8596 0.0
H535 H 0.66842 0.10727 0.93134 0.0
C536 C 0.65064 0.74688 0.58757 0.0
C537 C 0.68308 0.78743 0.5728 0.0
C538 C 0.73153 0.77336 0.66706 0.0
C539 C 0.69775 0.73411 0.68446 0.0
N540 N 0.61636 0.69462 0.66863 0.0
N541 N 0.74248 0.84971 0.60728 0.0
C542 C 0.65453 0.72405 0.64694 0.0
C543 C 0.71921 0.80435 0.61598 0.0
N544 N 0.61738 0.72913 0.5443 0.0
N545 N 0.77723 0.77898 0.69602 0.0
H546 H 0.73364 0.87307 0.56984 0.0
H547 H 0.76609 0.86617 0.64033 0.0
H548 H 0.79034 0.75491 0.73058 0.0
H549 H 0.80477 0.80388 0.68064 0.0
H550 H 0.59693 0.69592 0.54989 0.0
H551 H 0.61253 0.74633 0.50133 0.0
H552 H 0.58225 0.68986 0.64505 0.0
H553 H 0.6164 0.67941 0.71298 0.0
C554 C 0.76801 0.25789 0.38125 0.0
C555 C 0.7607 0.303 0.41579 0.0
C556 C 0.70621 0.33764 0.33429 0.0
C557 C 0.70931 0.29034 0.303 0.0
N558 N 0.73514 0.20236 0.30204 0.0
N559 N 0.71951 0.38381 0.43017 0.0
C560 C 0.73819 0.24963 0.32788 0.0
C561 C 0.72883 0.34243 0.39376 0.0
N562 N 0.80326 0.22276 0.39984 0.0
N563 N 0.68363 0.37834 0.30622 0.0
H564 H 0.73726 0.38916 0.47286 0.0
H565 H 0.6922 0.41119 0.41979 0.0
H566 H 0.66687 0.37631 0.26255 0.0
H567 H 0.68488 0.41501 0.32402 0.0
H568 H 0.81426 0.19183 0.373 0.0
H569 H 0.82466 0.22652 0.44016 0.0
H570 H 0.75242 0.17016 0.32044 0.0
H571 H 0.71101 0.19412 0.26528 0.0
C572 C 0.2357 0.24243 0.63765 0.0
C573 C 0.27971 0.24795 0.67463 0.0
C574 C 0.33075 0.20712 0.59417 0.0
C575 C 0.28589 0.19852 0.55962 0.0
N576 N 0.19492 0.19565 0.5554 0.0
N577 N 0.36792 0.22966 0.6934 0.0
C578 C 0.23809 0.21235 0.58362 0.0
C579 C 0.32703 0.2285 0.6545 0.0
N580 N 0.1922 0.26791 0.65251 0.0
N581 N 0.37669 0.19644 0.56854 0.0
H582 H 0.36645 0.24575 0.73746 0.0
H583 H 0.40216 0.21162 0.68385 0.0
H584 H 0.3804 0.1795 0.52517 0.0
H585 H 0.41097 0.20697 0.58851 0.0
H586 H 0.16081 0.26972 0.62321 0.0
H587 H 0.18893 0.291 0.69152 0.0
H588 H 0.15902 0.20101 0.57387 0.0
H589 H 0.19553 0.17157 0.5171 0.0
C590 C 0.22515 0.64541 0.31624 0.0
C591 C 0.2513 0.68892 0.29557 0.0
C592 C 0.21569 0.7385 0.38031 0.0
C593 C 0.19561 0.69407 0.40612 0.0
N594 N 0.18454 0.60363 0.40252 0.0
N595 N 0.28234 0.77247 0.31833 0.0
C596 C 0.20104 0.64688 0.37511 0.0
C597 C 0.24952 0.73427 0.33061 0.0
N598 N 0.22194 0.60363 0.27916 0.0
N599 N 0.20214 0.78493 0.40318 0.0
H600 H 0.31093 0.76851 0.28575 0.0
H601 H 0.28519 0.8049 0.3455 0.0
H602 H 0.17684 0.78944 0.43963 0.0
H603 H 0.21148 0.81857 0.3812 0.0
H604 H 0.1993 0.57267 0.28917 0.0
H605 H 0.23912 0.60162 0.23605 0.0
H606 H 0.19223 0.56749 0.38533 0.0
H607 H 0.16548 0.60398 0.44456 0.0
loop_
_geom_bond_atom_site_label_1
_geom_bond_atom_site_label_2
_geom_bond_distance
_geom_bond_site_symmetry_2
_ccdc_geom_bond_type
Sc0 O3 2.025 . S
Sc0 O10 2.105 . S
Sc0 O13 2.105 . S
Sc0 O16 2.105 . S
Sc0 O19 2.105 . S
Sc1 O3 2.025 . S
Sc1 O11 2.105 . S
Sc1 O15 2.105 . S
Sc1 O17 2.105 . S
Sc1 O21 2.105 . S
Sc2 O3 2.025 . S
Sc2 O12 2.105 . S
Sc2 O14 2.105 . S
Sc2 O18 2.105 . S
Sc2 O20 2.105 . S
O3 Sc0 2.025 . S
O3 Sc1 2.025 . S
O3 Sc2 2.025 . S
C4 O10 1.268 . S
C4 O20 1.268 . S
C5 O11 1.268 . S
C5 O19 1.268 . S
C6 O12 1.268 . S
C6 O21 1.268 . S
C7 O13 1.268 . S
C7 O17 1.268 . S
C8 O14 1.268 . S
C8 O16 1.268 . S
C9 O15 1.268 . S
C9 O18 1.268 . S
O10 Sc0 2.105 . S
O10 C4 1.268 . S
O11 Sc1 2.105 . S
O11 C5 1.268 . S
O12 Sc2 2.105 . S
O12 C6 1.268 . S
O13 Sc0 2.105 . S
O13 C7 1.268 . S
O14 Sc2 2.105 . S
O14 C8 1.268 . S
O15 Sc1 2.105 . S
O15 C9 1.268 . S
O16 Sc0 2.105 . S
O16 C8 1.268 . S
O17 Sc1 2.105 . S
O17 C7 1.268 . S
O18 Sc2 2.105 . S
O18 C9 1.268 . S
O19 Sc0 2.105 . S
O19 C5 1.268 . S
O20 Sc2 2.105 . S
O20 C4 1.268 . S
O21 Sc1 2.105 . S
O21 C6 1.268 . S
Sc22 O25 2.025 . S
Sc22 O32 2.105 . S
Sc22 O35 2.105 . S
Sc22 O38 2.105 . S
Sc22 O41 2.105 . S
Sc23 O25 2.025 . S
Sc23 O33 2.105 . S
Sc23 O37 2.105 . S
Sc23 O39 2.105 . S
Sc23 O43 2.105 . S
Sc24 O25 2.025 . S
Sc24 O34 2.105 . S
Sc24 O36 2.105 . S
Sc24 O40 2.105 . S
Sc24 O42 2.105 . S
O25 Sc22 2.025 . S
O25 Sc23 2.025 . S
O25 Sc24 2.025 . S
C26 O32 1.268 . S
C26 O42 1.268 . S
C27 O33 1.268 . S
C27 O41 1.268 . S
C28 O34 1.268 . S
C28 O43 1.268 . S
C29 O35 1.268 . S
C29 O39 1.268 . S
C30 O36 1.268 . S
C30 O38 1.268 . S
C31 O37 1.268 . S
C31 O40 1.268 . S
O32 Sc22 2.105 . S
O32 C26 1.268 . S
O33 Sc23 2.105 . S
O33 C27 1.268 . S
O34 Sc24 2.105 . S
O34 C28 1.268 . S
O35 Sc22 2.105 . S
O35 C29 1.268 . S
O36 Sc24 2.105 . S
O36 C30 1.268 . S
O37 Sc23 2.105 . S
O37 C31 1.268 . S
O38 Sc22 2.105 . S
O38 C30 1.268 . S
O39 Sc23 2.105 . S
O39 C29 1.268 . S
O40 Sc24 2.105 . S
O40 C31 1.268 . S
O41 Sc22 2.105 . S
O41 C27 1.268 . S
O42 Sc24 2.105 . S
O42 C26 1.268 . S
O43 Sc23 2.105 . S
O43 C28 1.268 . S
Sc44 O47 2.025 . S
Sc44 O54 2.105 . S
Sc44 O57 2.105 . S
Sc44 O60 2.105 . S
Sc44 O63 2.105 . S
Sc45 O47 2.025 . S
Sc45 O55 2.105 . S
Sc45 O59 2.105 . S
Sc45 O61 2.105 . S
Sc45 O65 2.105 . S
Sc46 O47 2.025 . S
Sc46 O56 2.105 . S
Sc46 O58 2.105 . S
Sc46 O62 2.105 . S
Sc46 O64 2.105 . S
O47 Sc44 2.025 . S
O47 Sc45 2.025 . S
O47 Sc46 2.025 . S
C48 O54 1.268 . S
C48 O64 1.268 . S
C49 O55 1.268 . S
C49 O63 1.268 . S
C50 O56 1.268 . S
C50 O65 1.268 . S
C51 O57 1.268 . S
C51 O61 1.268 . S
C52 O58 1.268 . S
C52 O60 1.268 . S
C53 O59 1.268 . S
C53 O62 1.268 . S
O54 Sc44 2.105 . S
O54 C48 1.268 . S
O55 Sc45 2.105 . S
O55 C49 1.268 . S
O56 Sc46 2.105 . S
O56 C50 1.268 . S
O57 Sc44 2.105 . S
O57 C51 1.268 . S
O58 Sc46 2.105 . S
O58 C52 1.268 . S
O59 Sc45 2.105 . S
O59 C53 1.268 . S
O60 Sc44 2.105 . S
O60 C52 1.268 . S
O61 Sc45 2.105 . S
O61 C51 1.268 . S
O62 Sc46 2.105 . S
O62 C53 1.268 . S
O63 Sc44 2.105 . S
O63 C49 1.268 . S
O64 Sc46 2.105 . S
O64 C48 1.268 . S
O65 Sc45 2.105 . S
O65 C50 1.268 . S
Sc66 O69 2.025 . S
Sc66 O76 2.105 . S
Sc66 O79 2.105 . S
Sc66 O82 2.105 . S
Sc66 O85 2.105 . S
Sc67 O69 2.025 . S
Sc67 O77 2.105 . S
Sc67 O81 2.105 . S
Sc67 O83 2.105 . S
Sc67 O87 2.105 . S
Sc68 O69 2.025 . S
Sc68 O78 2.105 . S
Sc68 O80 2.105 . S
Sc68 O84 2.105 . S
Sc68 O86 2.105 . S
O69 Sc66 2.025 . S
O69 Sc67 2.025 . S
O69 Sc68 2.025 . S
C70 O76 1.268 . S
C70 O86 1.268 . S
C71 O77 1.268 . S
C71 O85 1.268 . S
C72 O78 1.268 . S
C72 O87 1.268 . S
C73 O79 1.268 . S
C73 O83 1.268 . S
C74 O80 1.268 . S
C74 O82 1.268 . S
C75 O81 1.268 . S
C75 O84 1.268 . S
O76 Sc66 2.105 . S
O76 C70 1.268 . S
O77 Sc67 2.105 . S
O77 C71 1.268 . S
O78 Sc68 2.105 . S
O78 C72 1.268 . S
O79 Sc66 2.105 . S
O79 C73 1.268 . S
O80 Sc68 2.105 . S
O80 C74 1.268 . S
O81 Sc67 2.105 . S
O81 C75 1.268 . S
O82 Sc66 2.105 . S
O82 C74 1.268 . S
O83 Sc67 2.105 . S
O83 C73 1.268 . S
O84 Sc68 2.105 . S
O84 C75 1.268 . S
O85 Sc66 2.105 . S
O85 C71 1.268 . S
O86 Sc68 2.105 . S
O86 C70 1.268 . S
O87 Sc67 2.105 . S
O87 C72 1.268 . S
Sc88 O91 2.025 . S
Sc88 O98 2.105 . S
Sc88 O101 2.105 . S
Sc88 O104 2.105 . S
Sc88 O107 2.105 . S
Sc89 O91 2.025 . S
Sc89 O99 2.105 . S
Sc89 O103 2.105 . S
Sc89 O105 2.105 . S
Sc89 O109 2.105 . S
Sc90 O91 2.025 . S
Sc90 O100 2.105 . S
Sc90 O102 2.105 . S
Sc90 O106 2.105 . S
Sc90 O108 2.105 . S
O91 Sc88 2.025 . S
O91 Sc89 2.025 . S
O91 Sc90 2.025 . S
C92 O98 1.268 . S
C92 O108 1.268 . S
C93 O99 1.268 . S
C93 O107 1.268 . S
C94 O100 1.268 . S
C94 O109 1.268 . S
C95 O101 1.268 . S
C95 O105 1.268 . S
C96 O102 1.268 1_554 S
C96 O104 1.268 1_554 S
C97 O103 1.268 . S
C97 O106 1.268 . S
O98 Sc88 2.105 . S
O98 C92 1.268 . S
O99 Sc89 2.105 . S
O99 C93 1.268 . S
O100 Sc90 2.105 . S
O100 C94 1.268 . S
O101 Sc88 2.105 . S
O101 C95 1.268 . S
O102 Sc90 2.105 . S
O102 C96 1.268 1_556 S
O103 Sc89 2.105 . S
O103 C97 1.268 . S
O104 Sc88 2.105 . S
O104 C96 1.268 1_556 S
O105 Sc89 2.105 . S
O105 C95 1.268 . S
O106 Sc90 2.105 . S
O106 C97 1.268 . S
O107 Sc88 2.105 . S
O107 C93 1.268 . S
O108 Sc90 2.105 . S
O108 C92 1.268 . S
O109 Sc89 2.105 . S
O109 C94 1.268 . S
Sc110 O113 2.025 . S
Sc110 O120 2.105 . S
Sc110 O123 2.105 . S
Sc110 O126 2.105 . S
Sc110 O129 2.105 . S
Sc111 O113 2.025 . S
Sc111 O121 2.105 . S
Sc111 O125 2.105 . S
Sc111 O127 2.105 . S
Sc111 O131 2.105 . S
Sc112 O113 2.025 . S
Sc112 O122 2.105 . S
Sc112 O124 2.105 . S
Sc112 O128 2.105 . S
Sc112 O130 2.105 . S
O113 Sc110 2.025 . S
O113 Sc111 2.025 . S
O113 Sc112 2.025 . S
C114 O120 1.268 . S
C114 O130 1.268 . S
C115 O121 1.268 . S
C115 O129 1.268 . S
C116 O122 1.268 1_556 S
C116 O131 1.268 1_556 S
C117 O123 1.268 . S
C117 O127 1.268 . S
C118 O124 1.268 . S
C118 O126 1.268 . S
C119 O125 1.268 . S
C119 O128 1.268 . S
O120 Sc110 2.105 . S
O120 C114 1.268 . S
O121 Sc111 2.105 . S
O121 C115 1.268 . S
O122 Sc112 2.105 . S
O122 C116 1.268 1_554 S
O123 Sc110 2.105 . S
O123 C117 1.268 . S
O124 Sc112 2.105 . S
O124 C118 1.268 . S
O125 Sc111 2.105 . S
O125 C119 1.268 . S
O126 Sc110 2.105 . S
O126 C118 1.268 . S
O127 Sc111 2.105 . S
O127 C117 1.268 . S
O128 Sc112 2.105 . S
O128 C119 1.268 . S
O129 Sc110 2.105 . S
O129 C115 1.268 . S
O130 Sc112 2.105 . S
O130 C114 1.268 . S
O131 Sc111 2.105 . S
O131 C116 1.268 1_554 S
Sc132 O135 2.025 . S
Sc132 O142 2.105 . S
Sc132 O145 2.105 . S
Sc132 O148 2.105 . S
Sc132 O151 2.105 . S
Sc133 O135 2.025 . S
Sc133 O143 2.105 . S
Sc133 O147 2.105 . S
Sc133 O149 2.105 . S
Sc133 O153 2.105 . S
Sc134 O135 2.025 . S
Sc134 O144 2.105 . S
Sc134 O146 2.105 . S
Sc134 O150 2.105 . S
Sc134 O152 2.105 . S
O135 Sc132 2.025 . S
O135 Sc133 2.025 . S
O135 Sc134 2.025 . S
C136 O142 1.268 1_554 S
C136 O152 1.268 1_554 S
C137 O143 1.268 . S
C137 O151 1.268 . S
C138 O144 1.268 . S
C138 O153 1.268 . S
C139 O145 1.268 . S
C139 O149 1.268 . S
C140 O146 1.268 . S
C140 O148 1.268 . S
C141 O147 1.268 . S
C141 O150 1.268 . S
O142 Sc132 2.105 . S
O142 C136 1.268 1_556 S
O143 Sc133 2.105 . S
O143 C137 1.268 . S
O144 Sc134 2.105 . S
O144 C138 1.268 . S
O145 Sc132 2.105 . S
O145 C139 1.268 . S
O146 Sc134 2.105 . S
O146 C140 1.268 . S
O147 Sc133 2.105 . S
O147 C141 1.268 . S
O148 Sc132 2.105 . S
O148 C140 1.268 . S
O149 Sc133 2.105 . S
O149 C139 1.268 . S
O150 Sc134 2.105 . S
O150 C141 1.268 . S
O151 Sc132 2.105 . S
O151 C137 1.268 . S
O152 Sc134 2.105 . S
O152 C136 1.268 1_556 S
O153 Sc133 2.105 . S
O153 C138 1.268 . S
Sc154 O157 2.025 . S
Sc154 O164 2.105 . S
Sc154 O167 2.105 . S
Sc154 O170 2.105 . S
Sc154 O173 2.105 . S
Sc155 O157 2.025 . S
Sc155 O165 2.105 . S
Sc155 O169 2.105 . S
Sc155 O171 2.105 . S
Sc155 O175 2.105 . S
Sc156 O157 2.025 . S
Sc156 O166 2.105 . S
Sc156 O168 2.105 . S
Sc156 O172 2.105 . S
Sc156 O174 2.105 . S
O157 Sc154 2.025 . S
O157 Sc155 2.025 . S
O157 Sc156 2.025 . S
C158 O164 1.268 . S
C158 O174 1.268 . S
C159 O165 1.268 . S
C159 O173 1.268 . S
C160 O166 1.268 1_556 S
C160 O175 1.268 1_556 S
C161 O167 1.268 . S
C161 O171 1.268 . S
C162 O168 1.268 . S
C162 O170 1.268 . S
C163 O169 1.268 . S
C163 O172 1.268 . S
O164 Sc154 2.105 . S
O164 C158 1.268 . S
O165 Sc155 2.105 . S
O165 C159 1.268 . S
O166 Sc156 2.105 . S
O166 C160 1.268 1_554 S
O167 Sc154 2.105 . S
O167 C161 1.268 . S
O168 Sc156 2.105 . S
O168 C162 1.268 . S
O169 Sc155 2.105 . S
O169 C163 1.268 . S
O170 Sc154 2.105 . S
O170 C162 1.268 . S
O171 Sc155 2.105 . S
O171 C161 1.268 . S
O172 Sc156 2.105 . S
O172 C163 1.268 . S
O173 Sc154 2.105 . S
O173 C159 1.268 . S
O174 Sc156 2.105 . S
O174 C158 1.268 . S
O175 Sc155 2.105 . S
O175 C160 1.268 1_554 S
C176 C177 1.363 1_565 S
C176 C182 1.379 . S
C176 N184 1.356 1_565 S
C177 C176 1.363 1_545 S
C177 C183 1.363 1_545 S
C178 C179 1.363 . S
C178 C183 1.379 . S
C178 N185 1.356 . S
C179 C178 1.363 . S
C179 C182 1.363 . S
N180 C182 1.356 . S
N180 H192 0.984 . S
N180 H193 0.985 . S
N181 C183 1.356 . S
N181 H186 0.984 1_565 S
N181 H187 0.985 . S
C182 C176 1.379 . S
C182 C179 1.363 . S
C182 N180 1.356 . S
C183 C177 1.363 1_565 S
C183 C178 1.379 . S
C183 N181 1.356 . S
N184 C176 1.356 1_545 S
N184 H190 0.984 . S
N184 H191 0.984 . S
N185 C178 1.356 . S
N185 H188 0.984 . S
N185 H189 0.985 . S
H186 N181 0.984 1_545 S
H187 N181 0.985 . S
H188 N185 0.984 . S
H189 N185 0.985 . S
H190 N184 0.984 . S
H191 N184 0.984 . S
H192 N180 0.984 . S
H193 N180 0.985 . S
C194 C195 1.363 1_655 S
C194 C200 1.379 . S
C194 N202 1.356 1_655 S
C195 C194 1.363 1_455 S
C195 C201 1.363 1_455 S
C196 C197 1.363 . S
C196 C201 1.379 . S
C196 N203 1.356 . S
C197 C196 1.363 . S
C197 C200 1.363 . S
N198 C200 1.356 . S
N198 H210 0.984 . S
N198 H211 0.985 . S
N199 C201 1.356 . S
N199 H204 0.984 1_655 S
N199 H205 0.985 . S
C200 C194 1.379 . S
C200 C197 1.363 . S
C200 N198 1.356 . S
C201 C195 1.363 1_655 S
C201 C196 1.379 . S
C201 N199 1.356 . S
N202 C194 1.356 1_455 S
N202 H208 0.984 . S
N202 H209 0.984 . S
N203 C196 1.356 . S
N203 H206 0.984 . S
N203 H207 0.985 . S
H204 N199 0.984 1_455 S
H205 N199 0.985 . S
H206 N203 0.984 . S
H207 N203 0.985 . S
H208 N202 0.984 . S
H209 N202 0.984 . S
H210 N198 0.984 . S
H211 N198 0.985 . S
C212 C213 1.363 1_545 S
C212 C218 1.379 . S
C212 N220 1.356 1_545 S
C213 C212 1.363 1_565 S
C213 C219 1.363 1_565 S
C214 C215 1.363 . S
C214 C219 1.379 . S
C214 N221 1.356 . S
C215 C214 1.363 . S
C215 C218 1.363 . S
N216 C218 1.356 . S
N216 H228 0.984 . S
N216 H229 0.985 . S
N217 C219 1.356 . S
N217 H222 0.984 1_545 S
N217 H223 0.985 . S
C218 C212 1.379 . S
C218 C215 1.363 . S
C218 N216 1.356 . S
C219 C213 1.363 1_545 S
C219 C214 1.379 . S
C219 N217 1.356 . S
N220 C212 1.356 1_565 S
N220 H226 0.984 . S
N220 H227 0.984 . S
N221 C214 1.356 . S
N221 H224 0.984 . S
N221 H225 0.985 . S
H222 N217 0.984 1_565 S
H223 N217 0.985 . S
H224 N221 0.984 . S
H225 N221 0.985 . S
H226 N220 0.984 . S
H227 N220 0.984 . S
H228 N216 0.984 . S
H229 N216 0.985 . S
C230 C231 1.363 . S
C230 C236 1.379 . S
C230 N238 1.356 . S
C231 C230 1.363 . S
C231 C237 1.363 . S
C232 C233 1.363 1_455 S
C232 C237 1.379 . S
C232 N239 1.356 . S
C233 C232 1.363 1_655 S
C233 C236 1.363 1_655 S
N234 C236 1.356 1_655 S
N234 H246 0.984 . S
N234 H247 0.985 . S
N235 C237 1.356 . S
N235 H240 0.984 . S
N235 H241 0.985 . S
C236 C230 1.379 . S
C236 C233 1.363 1_455 S
C236 N234 1.356 1_455 S
C237 C231 1.363 . S
C237 C232 1.379 . S
C237 N235 1.356 . S
N238 C230 1.356 . S
N238 H244 0.984 . S
N238 H245 0.984 . S
N239 C232 1.356 . S
N239 H242 0.984 1_455 S
N239 H243 0.985 . S
H240 N235 0.984 . S
H241 N235 0.985 . S
H242 N239 0.984 1_655 S
H243 N239 0.985 . S
H244 N238 0.984 . S
H245 N238 0.984 . S
H246 N234 0.984 . S
H247 N234 0.985 . S
C248 C249 1.363 . S
C248 C254 1.379 1_554 S
C248 N256 1.356 1_554 S
C249 C248 1.363 . S
C249 C255 1.363 . S
C250 C251 1.363 1_554 S
C250 C255 1.379 . S
C250 N257 1.356 . S
C251 C250 1.363 1_556 S
C251 C254 1.363 . S
N252 C254 1.356 . S
N252 H264 0.984 . S
N252 H265 0.985 . S
N253 C255 1.356 . S
N253 H258 0.984 . S
N253 H259 0.985 . S
C254 C248 1.379 1_556 S
C254 C251 1.363 . S
C254 N252 1.356 . S
C255 C249 1.363 . S
C255 C250 1.379 . S
C255 N253 1.356 . S
N256 C248 1.356 1_556 S
N256 H262 0.984 . S
N256 H263 0.984 1_556 S
N257 C250 1.356 . S
N257 H260 0.984 . S
N257 H261 0.985 . S
H258 N253 0.984 . S
H259 N253 0.985 . S
H260 N257 0.984 . S
H261 N257 0.985 . S
H262 N256 0.984 . S
H263 N256 0.984 1_554 S
H264 N252 0.984 . S
H265 N252 0.985 . S
C266 C267 1.363 . S
C266 C272 1.379 1_556 S
C266 N274 1.356 . S
C267 C266 1.363 . S
C267 C273 1.363 . S
C268 C269 1.363 1_556 S
C268 C273 1.379 . S
C268 N275 1.356 . S
C269 C268 1.363 1_554 S
C269 C272 1.363 . S
N270 C272 1.356 . S
N270 H282 0.984 . S
N270 H283 0.985 . S
N271 C273 1.356 . S
N271 H276 0.984 . S
N271 H277 0.985 . S
C272 C266 1.379 1_554 S
C272 C269 1.363 . S
C272 N270 1.356 . S
C273 C267 1.363 . S
C273 C268 1.379 . S
C273 N271 1.356 . S
N274 C266 1.356 . S
N274 H280 0.984 . S
N274 H281 0.984 . S
N275 C268 1.356 . S
N275 H278 0.984 . S
N275 H279 0.985 . S
H276 N271 0.984 . S
H277 N271 0.985 . S
H278 N275 0.984 . S
H279 N275 0.985 . S
H280 N274 0.984 . S
H281 N274 0.984 . S
H282 N270 0.984 . S
H283 N270 0.985 . S
C284 C285 1.363 . S
C284 C290 1.379 . S
C284 N292 1.356 . S
C285 C284 1.363 . S
C285 C291 1.363 . S
C286 C287 1.363 1_554 S
C286 C291 1.379 . S
C286 N293 1.356 1_554 S
C287 C286 1.363 1_556 S
C287 C290 1.363 1_556 S
N288 C290 1.356 1_556 S
N288 H300 0.984 . S
N288 H301 0.985 . S
N289 C291 1.356 . S
N289 H294 0.984 . S
N289 H295 0.985 . S
C290 C284 1.379 . S
C290 C287 1.363 1_554 S
C290 N288 1.356 1_554 S
C291 C285 1.363 . S
C291 C286 1.379 . S
C291 N289 1.356 . S
N292 C284 1.356 . S
N292 H298 0.984 . S
N292 H299 0.984 . S
N293 C286 1.356 1_556 S
N293 H296 0.984 . S
N293 H297 0.985 . S
H294 N289 0.984 . S
H295 N289 0.985 . S
H296 N293 0.984 . S
H297 N293 0.985 . S
H298 N292 0.984 . S
H299 N292 0.984 . S
H300 N288 0.984 . S
H301 N288 0.985 . S
C302 C303 1.363 1_556 S
C302 C308 1.379 . S
C302 N310 1.356 1_556 S
C303 C302 1.363 1_554 S
C303 C309 1.363 1_554 S
C304 C305 1.363 . S
C304 C309 1.379 . S
C304 N311 1.356 . S
C305 C304 1.363 . S
C305 C308 1.363 . S
N306 C308 1.356 . S
N306 H318 0.984 . S
N306 H319 0.985 . S
N307 C309 1.356 . S
N307 H312 0.984 1_556 S
N307 H313 0.985 . S
C308 C302 1.379 . S
C308 C305 1.363 . S
C308 N306 1.356 . S
C309 C303 1.363 1_556 S
C309 C304 1.379 . S
C309 N307 1.356 . S
N310 C302 1.356 1_554 S
N310 H316 0.984 . S
N310 H317 0.984 . S
N311 C304 1.356 . S
N311 H314 0.984 . S
N311 H315 0.985 . S
H312 N307 0.984 1_554 S
H313 N307 0.985 . S
H314 N311 0.984 . S
H315 N311 0.985 . S
H316 N310 0.984 . S
H317 N310 0.984 . S
H318 N306 0.984 . S
H319 N306 0.985 . S
C320 C321 1.363 . S
C320 C326 1.379 . S
C320 N328 1.356 . S
C321 C320 1.363 . S
C321 C327 1.363 . S
C322 C323 1.363 . S
C322 C327 1.379 . S
C322 N329 1.356 . S
C323 C322 1.363 . S
C323 C326 1.363 . S
N324 C326 1.356 . S
N324 H336 0.984 . S
N324 H337 0.985 . S
N325 C327 1.356 . S
N325 H330 0.984 . S
N325 H331 0.985 . S
C326 C320 1.379 . S
C326 C323 1.363 . S
C326 N324 1.356 . S
C327 C321 1.363 . S
C327 C322 1.379 . S
C327 N325 1.356 . S
N328 C320 1.356 . S
N328 H334 0.984 . S
N328 H335 0.984 . S
N329 C322 1.356 . S
N329 H332 0.984 . S
N329 H333 0.985 . S
H330 N325 0.984 . S
H331 N325 0.985 . S
H332 N329 0.984 . S
H333 N329 0.985 . S
H334 N328 0.984 . S
H335 N328 0.984 . S
H336 N324 0.984 . S
H337 N324 0.985 . S
C338 C339 1.363 . S
C338 C344 1.379 . S
C338 N346 1.356 . S
C339 C338 1.363 . S
C339 C345 1.363 . S
C340 C341 1.363 . S
C340 C345 1.379 . S
C340 N347 1.356 . S
C341 C340 1.363 . S
C341 C344 1.363 . S
N342 C344 1.356 . S
N342 H354 0.984 . S
N342 H355 0.985 . S
N343 C345 1.356 . S
N343 H348 0.984 . S
N343 H349 0.985 . S
C344 C338 1.379 . S
C344 C341 1.363 . S
C344 N342 1.356 . S
C345 C339 1.363 . S
C345 C340 1.379 . S
C345 N343 1.356 . S
N346 C338 1.356 . S
N346 H352 0.984 . S
N346 H353 0.984 . S
N347 C340 1.356 . S
N347 H350 0.984 . S
N347 H351 0.985 . S
H348 N343 0.984 . S
H349 N343 0.985 . S
H350 N347 0.984 . S
H351 N347 0.985 . S
H352 N346 0.984 . S
H353 N346 0.984 . S
H354 N342 0.984 . S
H355 N342 0.985 . S
C356 C357 1.363 . S
C356 C362 1.379 . S
C356 N364 1.356 . S
C357 C356 1.363 . S
C357 C363 1.363 . S
C358 C359 1.363 . S
C358 C363 1.379 . S
C358 N365 1.356 . S
C359 C358 1.363 . S
C359 C362 1.363 . S
N360 C362 1.356 . S
N360 H372 0.984 . S
N360 H373 0.985 . S
N361 C363 1.356 . S
N361 H366 0.984 . S
N361 H367 0.985 . S
C362 C356 1.379 . S
C362 C359 1.363 . S
C362 N360 1.356 . S
C363 C357 1.363 . S
C363 C358 1.379 . S
C363 N361 1.356 . S
N364 C356 1.356 . S
N364 H370 0.984 . S
N364 H371 0.984 . S
N365 C358 1.356 . S
N365 H368 0.984 . S
N365 H369 0.985 . S
H366 N361 0.984 . S
H367 N361 0.985 . S
H368 N365 0.984 . S
H369 N365 0.985 . S
H370 N364 0.984 . S
H371 N364 0.984 . S
H372 N360 0.984 . S
H373 N360 0.985 . S
C374 C375 1.363 . S
C374 C380 1.379 . S
C374 N382 1.356 . S
C375 C374 1.363 . S
C375 C381 1.363 . S
C376 C377 1.363 . S
C376 C381 1.379 . S
C376 N383 1.356 . S
C377 C376 1.363 . S
C377 C380 1.363 . S
N378 C380 1.356 . S
N378 H390 0.984 . S
N378 H391 0.985 . S
N379 C381 1.356 . S
N379 H384 0.984 . S
N379 H385 0.985 . S
C380 C374 1.379 . S
C380 C377 1.363 . S
C380 N378 1.356 . S
C381 C375 1.363 . S
C381 C376 1.379 . S
C381 N379 1.356 . S
N382 C374 1.356 . S
N382 H388 0.984 . S
N382 H389 0.984 . S
N383 C376 1.356 . S
N383 H386 0.984 . S
N383 H387 0.985 . S
H384 N379 0.984 . S
H385 N379 0.985 . S
H386 N383 0.984 . S
H387 N383 0.985 . S
H388 N382 0.984 . S
H389 N382 0.984 . S
H390 N378 0.984 . S
H391 N378 0.985 . S
C392 C393 1.363 . S
C392 C398 1.379 . S
C392 N400 1.356 . S
C393 C392 1.363 . S
C393 C399 1.363 . S
C394 C395 1.363 1_545 S
C394 C399 1.379 . S
C394 N401 1.356 1_545 S
C395 C394 1.363 1_565 S
C395 C398 1.363 1_565 S
N396 C398 1.356 . S
N396 H408 0.984 . S
N396 H409 0.985 1_545 S
N397 C399 1.356 . S
N397 H402 0.984 . S
N397 H403 0.985 . S
C398 C392 1.379 . S
C398 C395 1.363 1_545 S
C398 N396 1.356 . S
C399 C393 1.363 . S
C399 C394 1.379 . S
C399 N397 1.356 . S
N400 C392 1.356 . S
N400 H406 0.984 . S
N400 H407 0.984 . S
N401 C394 1.356 1_565 S
N401 H404 0.984 . S
N401 H405 0.985 . S
H402 N397 0.984 . S
H403 N397 0.985 . S
H404 N401 0.984 . S
H405 N401 0.985 . S
H406 N400 0.984 . S
H407 N400 0.984 . S
H408 N396 0.984 . S
H409 N396 0.985 1_565 S
C410 C411 1.363 . S
C410 C416 1.379 . S
C410 N418 1.356 . S
C411 C410 1.363 . S
C411 C417 1.363 . S
C412 C413 1.363 1_455 S
C412 C417 1.379 . S
C412 N419 1.356 . S
C413 C412 1.363 1_655 S
C413 C416 1.363 1_655 S
N414 C416 1.356 1_655 S
N414 H426 0.984 . S
N414 H427 0.985 . S
N415 C417 1.356 . S
N415 H420 0.984 . S
N415 H421 0.985 . S
C416 C410 1.379 . S
C416 C413 1.363 1_455 S
C416 N414 1.356 1_455 S
C417 C411 1.363 . S
C417 C412 1.379 . S
C417 N415 1.356 . S
N418 C410 1.356 . S
N418 H424 0.984 . S
N418 H425 0.984 . S
N419 C412 1.356 . S
N419 H422 0.984 1_455 S
N419 H423 0.985 . S
H420 N415 0.984 . S
H421 N415 0.985 . S
H422 N419 0.984 1_655 S
H423 N419 0.985 . S
H424 N418 0.984 . S
H425 N418 0.984 . S
H426 N414 0.984 . S
H427 N414 0.985 . S
C428 C429 1.363 . S
C428 C434 1.379 . S
C428 N436 1.356 . S
C429 C428 1.363 . S
C429 C435 1.363 . S
C430 C431 1.363 1_565 S
C430 C435 1.379 . S
C430 N437 1.356 1_565 S
C431 C430 1.363 1_545 S
C431 C434 1.363 1_545 S
N432 C434 1.356 . S
N432 H444 0.984 . S
N432 H445 0.985 1_565 S
N433 C435 1.356 . S
N433 H438 0.984 . S
N433 H439 0.985 . S
C434 C428 1.379 . S
C434 C431 1.363 1_565 S
C434 N432 1.356 . S
C435 C429 1.363 . S
C435 C430 1.379 . S
C435 N433 1.356 . S
N436 C428 1.356 . S
N436 H442 0.984 . S
N436 H443 0.984 . S
N437 C430 1.356 1_545 S
N437 H440 0.984 . S
N437 H441 0.985 . S
H438 N433 0.984 . S
H439 N433 0.985 . S
H440 N437 0.984 . S
H441 N437 0.985 . S
H442 N436 0.984 . S
H443 N436 0.984 . S
H444 N432 0.984 . S
H445 N432 0.985 1_545 S
C446 C447 1.363 1_655 S
C446 C452 1.379 . S
C446 N454 1.356 1_655 S
C447 C446 1.363 1_455 S
C447 C453 1.363 1_455 S
C448 C449 1.363 . S
C448 C453 1.379 . S
C448 N455 1.356 . S
C449 C448 1.363 . S
C449 C452 1.363 . S
N450 C452 1.356 . S
N450 H462 0.984 . S
N450 H463 0.985 . S
N451 C453 1.356 . S
N451 H456 0.984 1_655 S
N451 H457 0.985 . S
C452 C446 1.379 . S
C452 C449 1.363 . S
C452 N450 1.356 . S
C453 C447 1.363 1_655 S
C453 C448 1.379 . S
C453 N451 1.356 . S
N454 C446 1.356 1_455 S
N454 H460 0.984 . S
N454 H461 0.984 . S
N455 C448 1.356 . S
N455 H458 0.984 . S
N455 H459 0.985 . S
H456 N451 0.984 1_455 S
H457 N451 0.985 . S
H458 N455 0.984 . S
H459 N455 0.985 . S
H460 N454 0.984 . S
H461 N454 0.984 . S
H462 N450 0.984 . S
H463 N450 0.985 . S
C464 C465 1.363 . S
C464 C470 1.379 . S
C464 N472 1.356 . S
C465 C464 1.363 . S
C465 C471 1.363 . S
C466 C467 1.363 . S
C466 C471 1.379 . S
C466 N473 1.356 . S
C467 C466 1.363 . S
C467 C470 1.363 . S
N468 C470 1.356 . S
N468 H480 0.984 . S
N468 H481 0.985 . S
N469 C471 1.356 . S
N469 H474 0.984 . S
N469 H475 0.985 . S
C470 C464 1.379 . S
C470 C467 1.363 . S
C470 N468 1.356 . S
C471 C465 1.363 . S
C471 C466 1.379 . S
C471 N469 1.356 . S
N472 C464 1.356 . S
N472 H478 0.984 1_554 S
N472 H479 0.984 1_554 S
N473 C466 1.356 . S
N473 H476 0.984 . S
N473 H477 0.985 . S
H474 N469 0.984 . S
H475 N469 0.985 . S
H476 N473 0.984 . S
H477 N473 0.985 . S
H478 N472 0.984 1_556 S
H479 N472 0.984 1_556 S
H480 N468 0.984 . S
H481 N468 0.985 . S
C482 C483 1.363 . S
C482 C488 1.379 . S
C482 N490 1.356 . S
C483 C482 1.363 . S
C483 C489 1.363 . S
C484 C485 1.363 . S
C484 C489 1.379 . S
C484 N491 1.356 . S
C485 C484 1.363 . S
C485 C488 1.363 . S
N486 C488 1.356 . S
N486 H498 0.984 . S
N486 H499 0.985 . S
N487 C489 1.356 . S
N487 H492 0.984 . S
N487 H493 0.985 . S
C488 C482 1.379 . S
C488 C485 1.363 . S
C488 N486 1.356 . S
C489 C483 1.363 . S
C489 C484 1.379 . S
C489 N487 1.356 . S
N490 C482 1.356 . S
N490 H496 0.984 . S
N490 H497 0.984 1_556 S
N491 C484 1.356 . S
N491 H494 0.984 . S
N491 H495 0.985 . S
H492 N487 0.984 . S
H493 N487 0.985 . S
H494 N491 0.984 . S
H495 N491 0.985 . S
H496 N490 0.984 . S
H497 N490 0.984 1_554 S
H498 N486 0.984 . S
H499 N486 0.985 . S
C500 C501 1.363 . S
C500 C506 1.379 . S
C500 N508 1.356 . S
C501 C500 1.363 . S
C501 C507 1.363 . S
C502 C503 1.363 . S
C502 C507 1.379 . S
C502 N509 1.356 . S
C503 C502 1.363 . S
C503 C506 1.363 . S
N504 C506 1.356 . S
N504 H516 0.984 . S
N504 H517 0.985 . S
N505 C507 1.356 . S
N505 H510 0.984 . S
N505 H511 0.985 . S
C506 C500 1.379 . S
C506 C503 1.363 . S
C506 N504 1.356 . S
C507 C501 1.363 . S
C507 C502 1.379 . S
C507 N505 1.356 . S
N508 C500 1.356 . S
N508 H514 0.984 . S
N508 H515 0.984 . S
N509 C502 1.356 . S
N509 H512 0.976 1_554 S
N509 H513 0.985 . S
H510 N505 0.984 . S
H511 N505 0.985 . S
H512 N509 0.976 1_556 S
H513 N509 0.985 . S
H514 N508 0.984 . S
H515 N508 0.984 . S
H516 N504 0.984 . S
H517 N504 0.985 . S
C518 C519 1.363 . S
C518 C524 1.379 . S
C518 N526 1.356 . S
C519 C518 1.363 . S
C519 C525 1.363 . S
C520 C521 1.363 . S
C520 C525 1.379 . S
C520 N527 1.356 . S
C521 C520 1.363 . S
C521 C524 1.363 . S
N522 C524 1.356 . S
N522 H534 0.984 . S
N522 H535 0.985 . S
N523 C525 1.356 . S
N523 H528 0.984 . S
N523 H529 0.985 . S
C524 C518 1.379 . S
C524 C521 1.363 . S
C524 N522 1.356 . S
C525 C519 1.363 . S
C525 C520 1.379 . S
C525 N523 1.356 . S
N526 C518 1.356 . S
N526 H532 0.984 . S
N526 H533 0.984 . S
N527 C520 1.356 . S
N527 H530 0.984 1_556 S
N527 H531 0.985 . S
H528 N523 0.984 . S
H529 N523 0.985 . S
H530 N527 0.984 1_554 S
H531 N527 0.985 . S
H532 N526 0.984 . S
H533 N526 0.984 . S
H534 N522 0.984 . S
H535 N522 0.985 . S
C536 C537 1.363 . S
C536 C542 1.379 . S
C536 N544 1.356 . S
C537 C536 1.363 . S
C537 C543 1.363 . S
C538 C539 1.363 . S
C538 C543 1.379 . S
C538 N545 1.356 . S
C539 C538 1.363 . S
C539 C542 1.363 . S
N540 C542 1.356 . S
N540 H552 0.984 . S
N540 H553 0.985 . S
N541 C543 1.356 . S
N541 H546 0.984 . S
N541 H547 0.985 . S
C542 C536 1.379 . S
C542 C539 1.363 . S
C542 N540 1.356 . S
C543 C537 1.363 . S
C543 C538 1.379 . S
C543 N541 1.356 . S
N544 C536 1.356 . S
N544 H550 0.984 . S
N544 H551 0.984 . S
N545 C538 1.356 . S
N545 H548 0.984 . S
N545 H549 0.985 . S
H546 N541 0.984 . S
H547 N541 0.985 . S
H548 N545 0.984 . S
H549 N545 0.985 . S
H550 N544 0.984 . S
H551 N544 0.984 . S
H552 N540 0.984 . S
H553 N540 0.985 . S
C554 C555 1.363 . S
C554 C560 1.379 . S
C554 N562 1.356 . S
C555 C554 1.363 . S
C555 C561 1.363 . S
C556 C557 1.363 . S
C556 C561 1.379 . S
C556 N563 1.356 . S
C557 C556 1.363 . S
C557 C560 1.363 . S
N558 C560 1.356 . S
N558 H570 0.984 . S
N558 H571 0.985 . S
N559 C561 1.356 . S
N559 H564 0.984 . S
N559 H565 0.985 . S
C560 C554 1.379 . S
C560 C557 1.363 . S
C560 N558 1.356 . S
C561 C555 1.363 . S
C561 C556 1.379 . S
C561 N559 1.356 . S
N562 C554 1.356 . S
N562 H568 0.984 . S
N562 H569 0.984 . S
N563 C556 1.356 . S
N563 H566 0.984 . S
N563 H567 0.985 . S
H564 N559 0.984 . S
H565 N559 0.985 . S
H566 N563 0.984 . S
H567 N563 0.985 . S
H568 N562 0.984 . S
H569 N562 0.984 . S
H570 N558 0.984 . S
H571 N558 0.985 . S
C572 C573 1.363 . S
C572 C578 1.379 . S
C572 N580 1.356 . S
C573 C572 1.363 . S
C573 C579 1.363 . S
C574 C575 1.363 . S
C574 C579 1.379 . S
C574 N581 1.356 . S
C575 C574 1.363 . S
C575 C578 1.363 . S
N576 C578 1.356 . S
N576 H588 0.984 . S
N576 H589 0.985 . S
N577 C579 1.356 . S
N577 H582 0.984 . S
N577 H583 0.985 . S
C578 C572 1.379 . S
C578 C575 1.363 . S
C578 N576 1.356 . S
C579 C573 1.363 . S
C579 C574 1.379 . S
C579 N577 1.356 . S
N580 C572 1.356 . S
N580 H586 0.984 . S
N580 H587 0.984 . S
N581 C574 1.356 . S
N581 H584 0.984 . S
N581 H585 0.985 . S
H582 N577 0.984 . S
H583 N577 0.985 . S
H584 N581 0.984 . S
H585 N581 0.985 . S
H586 N580 0.984 . S
H587 N580 0.984 . S
H588 N576 0.984 . S
H589 N576 0.985 . S
C590 C591 1.363 . S
C590 C596 1.379 . S
C590 N598 1.356 . S
C591 C590 1.363 . S
C591 C597 1.363 . S
C592 C593 1.363 . S
C592 C597 1.379 . S
C592 N599 1.356 . S
C593 C592 1.363 . S
C593 C596 1.363 . S
N594 C596 1.356 . S
N594 H606 0.984 . S
N594 H607 0.985 . S
N595 C597 1.356 . S
N595 H600 0.984 . S
N595 H601 0.985 . S
C596 C590 1.379 . S
C596 C593 1.363 . S
C596 N594 1.356 . S
C597 C591 1.363 . S
C597 C592 1.379 . S
C597 N595 1.356 . S
N598 C590 1.356 . S
N598 H604 0.984 . S
N598 H605 0.984 . S
N599 C592 1.356 . S
N599 H602 0.984 . S
N599 H603 0.985 . S
H600 N595 0.984 . S
H601 N595 0.985 . S
H602 N599 0.984 . S
H603 N599 0.985 . S
H604 N598 0.984 . S
H605 N598 0.984 . S
H606 N594 0.984 . S
H607 N594 0.985 . S
C177 C7 1.263 . S
C179 C119 1.315 . S
C195 C29 1.263 . S
C197 C140 1.315 . S
C213 C50 1.263 . S
C215 C163 1.315 . S
C231 C92 1.315 . S
C233 C73 1.263 . S
C249 C114 1.315 . S
C251 C97 1.263 . S
C267 C138 1.315 . S
C269 C115 1.263 . S
C285 C158 1.315 . S
C287 C137 1.263 . S
C303 C159 1.263 . S
C305 C95 1.315 . S
C321 C139 1.263 . S
C323 C75 1.315 . S
C339 C161 1.263 . S
C341 C8 1.315 . S
C357 C31 1.315 . S
C359 C94 1.263 . S
C375 C48 1.315 . S
C377 C117 1.263 . S
C393 C70 1.315 . S
C395 C53 1.263 . S
C411 C6 1.315 . S
C413 C71 1.263 . S
C429 C26 1.315 . S
C431 C5 1.263 . S
C447 C27 1.263 . S
C449 C51 1.315 . S
C465 C96 1.493 . S
C467 C9 1.493 . S
C483 C116 1.493 . S
C485 C30 1.493 . S
C501 C49 1.493 . S
C503 C136 1.493 . S
C519 C74 1.493 . S
C521 C160 1.493 . S
C537 C52 1.493 . S
C539 C141 1.493 . S
C555 C72 1.493 . S
C557 C162 1.493 . S
C573 C93 1.493 . S
C575 C4 1.493 . S
C591 C118 1.493 . S
C593 C28 1.493 . S
