# Generated by pormake.
# Topology bcs, (6)-cn, num edge types: 1
# Building blocks:
#     Node 0, Type 0, BuildingBlock: MIFKUJ_clean_sbu_0, # of connection points: 6
#     Node 1, Type 0, BuildingBlock: MIFKUJ_clean_sbu_0, # of connection points: 6
#     Node 2, Type 0, BuildingBlock: MIFKUJ_clean_sbu_0, # of connection points: 6
#     Node 3, Type 0, BuildingBlock: MIFKUJ_clean_sbu_0, # of connection points: 6
#     Node 4, Type 0, BuildingBlock: MIFKUJ_clean_sbu_0, # of connection points: 6
#     Node 5, Type 0, BuildingBlock: MIFKUJ_clean_sbu_0, # of connection points: 6
#     Node 6, Type 0, BuildingBlock: MIFKUJ_clean_sbu_0, # of connection points: 6
#     Node 7, Type 0, BuildingBlock: MIFKUJ_clean_sbu_0, # of connection points: 6
#     Node 8, Type 0, BuildingBlock: MIFKUJ_clean_sbu_0, # of connection points: 6
#     Node 9, Type 0, BuildingBlock: MIFKUJ_clean_sbu_0, # of connection points: 6
#     Node 10, Type 0, BuildingBlock: MIFKUJ_clean_sbu_0, # of connection points: 6
#     Node 11, Type 0, BuildingBlock: MIFKUJ_clean_sbu_0, # of connection points: 6
#     Node 12, Type 0, BuildingBlock: MIFKUJ_clean_sbu_0, # of connection points: 6
#     Node 13, Type 0, BuildingBlock: MIFKUJ_clean_sbu_0, # of connection points: 6
#     Node 14, Type 0, BuildingBlock: MIFKUJ_clean_sbu_0, # of connection points: 6
#     Node 15, Type 0, BuildingBlock: MIFKUJ_clean_sbu_0, # of connection points: 6
#     Edge 16, Type (0, 0), None
#     Edge 17, Type (0, 0), None
#     Edge 18, Type (0, 0), None
#     Edge 19, Type (0, 0), None
#     Edge 20, Type (0, 0), None
#     Edge 21, Type (0, 0), None
#     Edge 22, Type (0, 0), None
#     Edge 23, Type (0, 0), None
#     Edge 24, Type (0, 0), None
#     Edge 25, Type (0, 0), None
#     Edge 26, Type (0, 0), None
#     Edge 27, Type (0, 0), None
#     Edge 28, Type (0, 0), None
#     Edge 29, Type (0, 0), None
#     Edge 30, Type (0, 0), None
#     Edge 31, Type (0, 0), None
#     Edge 32, Type (0, 0), None
#     Edge 33, Type (0, 0), None
#     Edge 34, Type (0, 0), None
#     Edge 35, Type (0, 0), None
#     Edge 36, Type (0, 0), None
#     Edge 37, Type (0, 0), None
#     Edge 38, Type (0, 0), None
#     Edge 39, Type (0, 0), None
#     Edge 40, Type (0, 0), None
#     Edge 41, Type (0, 0), None
#     Edge 42, Type (0, 0), None
#     Edge 43, Type (0, 0), None
#     Edge 44, Type (0, 0), None
#     Edge 45, Type (0, 0), None
#     Edge 46, Type (0, 0), None
#     Edge 47, Type (0, 0), None
#     Edge 48, Type (0, 0), None
#     Edge 49, Type (0, 0), None
#     Edge 50, Type (0, 0), None
#     Edge 51, Type (0, 0), None
#     Edge 52, Type (0, 0), None
#     Edge 53, Type (0, 0), None
#     Edge 54, Type (0, 0), None
#     Edge 55, Type (0, 0), None
#     Edge 56, Type (0, 0), None
#     Edge 57, Type (0, 0), None
#     Edge 58, Type (0, 0), None
#     Edge 59, Type (0, 0), None
#     Edge 60, Type (0, 0), None
#     Edge 61, Type (0, 0), None
#     Edge 62, Type (0, 0), None
#     Edge 63, Type (0, 0), None
# Relax obj value: 0.116
# Max RMSD: 0.267
# Mean RMSD: 0.134
data_MOF--net-bcs--node1-MIFKUJ_clean_sbu_0--edge1-none
_symmetry_space_group_name_H-M    P1
_symmetry_Int_Tables_number       1
_symmetry_cell_setting            triclinic
loop_
_symmetry_equiv_pos_as_xyz
'x, y, z'
_cell_length_a     19.510276
_cell_length_b     20.378568
_cell_length_c     18.366342
_cell_angle_alpha  99.926461
_cell_angle_beta   103.39803
_cell_angle_gamma 112.81362
loop_
_atom_site_label
_atom_site_type_symbol
_atom_site_fract_x
_atom_site_fract_y
_atom_site_fract_z
_atom_type_partial_charge
Zn0 Zn 0.89815 0.03011 0.95635 0.0
Zn1 Zn 0.07225 0.95362 0.00542 0.0
C2 C 0.85375 0.1106 0.05699 0.0
O3 O 0.78804 0.07313 -0.00241 0.0
C4 C 0.11983 0.87462 0.9067 0.0
O5 O 0.18489 0.91271 0.96675 0.0
O6 O 0.83299 0.05337 0.86585 0.0
O7 O 0.00911 0.04815 0.95945 0.0
O8 O 0.12493 0.05241 0.97669 0.0
C9 C 0.85908 0.12305 0.87346 0.0
O10 O 0.9265 0.16803 0.9284 0.0
O11 O 0.91479 0.10389 0.05325 0.0
C12 C 0.11159 0.86216 0.08961 0.0
O13 O 0.04376 0.81716 0.03529 0.0
O14 O 0.13799 0.93172 0.09653 0.0
O15 O 0.96027 0.93363 0.00282 0.0
O16 O 0.84486 0.93134 -0.0154 0.0
O17 O 0.05788 0.88009 0.9093 0.0
C18 C 0.07569 0.07628 0.94983 0.0
C19 C 0.89316 0.90653 0.01178 0.0
Zn20 Zn 0.2766 0.78984 0.20053 0.0
Zn21 Zn 0.21429 0.71676 0.30935 0.0
C22 C 0.16534 0.82953 0.11542 0.0
O23 O 0.1679 0.77933 0.06217 0.0
C24 C 0.30957 0.64354 0.3641 0.0
O25 O 0.2906 0.65869 0.42665 0.0
O26 O 0.33437 0.81709 0.12997 0.0
O27 O 0.35727 0.829 0.30679 0.0
O28 O 0.26493 0.82599 0.35567 0.0
C29 C 0.37173 0.88628 0.14315 0.0
O30 O 0.3841 0.93164 0.21021 0.0
O31 O 0.20649 0.84511 0.18658 0.0
C32 C 0.11646 0.6085 0.35702 0.0
O33 O 0.09586 0.571 0.28355 0.0
O34 O 0.16255 0.67733 0.38109 0.0
O35 O 0.12814 0.67873 0.20799 0.0
O36 O 0.21381 0.6818 0.14869 0.0
O37 O 0.29079 0.66863 0.30732 0.0
C38 C 0.3347 0.85903 0.35613 0.0
C39 C 0.14371 0.65563 0.14859 0.0
Zn40 Zn 0.53046 0.92404 0.44229 0.0
Zn41 Zn 0.43768 0.05844 0.52661 0.0
C42 C 0.52399 0.80345 0.5048 0.0
O43 O 0.57535 0.8054 0.46905 0.0
C44 C 0.4354 0.17447 0.46113 0.0
O45 O 0.37955 0.16568 0.49232 0.0
O46 O 0.58485 0.90118 0.3666 0.0
O47 O 0.45529 0.96766 0.40985 0.0
O48 O 0.35373 0.97119 0.43834 0.0
C49 C 0.5604 0.83712 0.31993 0.0
O50 O 0.49004 0.78531 0.30995 0.0
O51 O 0.4904 0.84528 0.49631 0.0
C52 C 0.40744 0.14482 0.64777 0.0
O53 O 0.47662 0.19691 0.65486 0.0
O54 O 0.38363 0.07982 0.60342 0.0
O55 O 0.51414 0.01588 0.55735 0.0
O56 O 0.61543 0.01107 0.52969 0.0
O57 O 0.47543 0.13862 0.47373 0.0
C58 C 0.38236 0.93652 0.40035 0.0
C59 C 0.58699 0.04679 0.56645 0.0
Zn60 Zn 0.15016 0.23487 0.8275 0.0
Zn61 Zn 0.28517 0.28125 0.66399 0.0
C62 C 0.09145 0.13176 0.90562 0.0
O63 O 0.03128 0.13885 0.86496 0.0
C64 C 0.36642 0.37106 0.59102 0.0
O65 O 0.41533 0.37588 0.65657 0.0
O66 O 0.09037 0.2882 0.86664 0.0
O67 O 0.24793 0.30475 0.81056 0.0
O68 O 0.34057 0.36353 0.76509 0.0
C69 C 0.10938 0.35623 0.89835 0.0
O70 O 0.17912 0.40834 0.90716 0.0
O71 O 0.15903 0.16904 0.9003 0.0
C72 C 0.34852 0.16681 0.6658 0.0
O73 O 0.28063 0.11663 0.66431 0.0
O74 O 0.3574 0.23178 0.66537 0.0
O75 O 0.17644 0.20923 0.66381 0.0
O76 O 0.08463 0.16441 0.71818 0.0
O77 O 0.29316 0.32929 0.57449 0.0
C78 C 0.31539 0.35671 0.8222 0.0
C79 C 0.10806 0.16214 0.65871 0.0
Zn80 Zn 0.00822 0.03521 0.42111 0.0
Zn81 Zn 0.96119 0.94259 0.54222 0.0
C82 C 0.85817 0.02766 0.35249 0.0
O83 O 0.86115 0.98475 0.29228 0.0
C84 C 0.11368 0.95301 0.61088 0.0
O85 O 0.11209 -0.00243 0.67071 0.0
O86 O 0.0516 0.09143 0.34678 0.0
O87 O 0.08491 0.09046 0.53095 0.0
O88 O -0.00727 0.05178 0.58562 0.0
C89 C 0.11014 0.09511 0.32519 0.0
O90 O 0.14915 0.05911 0.35074 0.0
O91 O 0.91207 0.05065 0.41797 0.0
C92 C 0.84748 0.87355 0.61994 0.0
O93 O 0.80301 0.89496 0.57445 0.0
O94 O 0.9161 0.88819 0.6167 0.0
O95 O 0.88432 0.88752 0.43274 0.0
O96 O 0.97548 0.92578 0.37677 0.0
O97 O 0.05769 0.92721 0.54646 0.0
C98 C 0.05848 0.10027 0.58698 0.0
C99 C 0.90948 0.87791 0.37574 0.0
Zn100 Zn 0.32618 0.70944 0.72498 0.0
Zn101 Zn 0.20801 0.83708 0.72943 0.0
C102 C 0.36049 0.65738 0.85664 0.0
O103 O 0.40352 0.72844 0.89422 0.0
C104 C 0.16281 0.91443 0.6252 0.0
O105 O 0.14935 0.85597 0.57033 0.0
O106 O 0.36039 0.67145 0.63923 0.0
O107 O 0.21357 0.69316 0.67257 0.0
O108 O 0.12592 0.73625 0.65218 0.0
C109 C 0.41202 0.6474 0.64583 0.0
O110 O 0.45724 0.656 0.71534 0.0
O111 O 0.31633 0.63764 0.78652 0.0
C112 C 0.12413 0.84037 0.83285 0.0
O113 O 0.06644 0.82011 0.76737 0.0
O114 O 0.19044 0.84614 0.83061 0.0
O115 O 0.31096 0.83719 0.74785 0.0
O116 O 0.40587 0.81444 0.79977 0.0
O117 O 0.19795 0.92235 0.69577 0.0
C118 C 0.14333 0.68208 0.6395 0.0
C119 C 0.3727 0.85662 0.80481 0.0
Zn120 Zn 0.41982 0.03015 0.00391 0.0
Zn121 Zn 0.55729 0.95093 0.95888 0.0
C122 C 0.37649 0.91381 0.07657 0.0
O123 O 0.32776 0.87108 0.00654 0.0
C124 C 0.59935 0.06667 0.88531 0.0
O125 O 0.64747 0.11017 0.95526 0.0
O126 O 0.38746 0.11218 0.03445 0.0
O127 O 0.53412 0.07055 0.01929 0.0
O128 O 0.61474 0.02803 0.07027 0.0
C129 C 0.34621 0.10215 0.07983 0.0
O130 O 0.31683 0.03716 0.09259 0.0
O131 O 0.41746 0.98216 0.08799 0.0
C132 C 0.62919 0.87633 0.88397 0.0
O133 O 0.661 0.94133 0.87176 0.0
O134 O 0.588 0.86779 0.92939 0.0
O135 O 0.44243 0.91008 0.94239 0.0
O136 O 0.36227 0.95361 0.8926 0.0
O137 O 0.56023 -0.00197 0.87411 0.0
C138 C 0.58354 0.07222 0.07962 0.0
C139 C 0.39307 0.90919 0.88247 0.0
Zn140 Zn 0.15986 0.28408 0.24567 0.0
Zn141 Zn 0.32149 0.23052 0.27861 0.0
C142 C 0.16743 0.349 0.40123 0.0
O143 O 0.1141 0.28182 0.39249 0.0
C144 C 0.34244 0.16461 0.12901 0.0
O145 O 0.35975 0.2276 0.11156 0.0
O146 O 0.0806 0.31357 0.1889 0.0
O147 O 0.23323 0.30317 0.17919 0.0
O148 O 0.35278 0.3305 0.25394 0.0
C149 C 0.11666 0.38208 0.19398 0.0
O150 O 0.19197 0.41927 0.23468 0.0
O151 O 0.20557 0.3586 0.35313 0.0
C152 C 0.43262 0.20471 0.39431 0.0
O153 O 0.44933 0.17579 0.33524 0.0
O154 O 0.3901 0.23848 0.38354 0.0
O155 O 0.21485 0.17426 0.28948 0.0
O156 O 0.10373 0.18274 0.2568 0.0
O157 O 0.32776 0.15821 0.19227 0.0
C158 C 0.30777 0.33823 0.19733 0.0
C159 C 0.14321 0.15111 0.28552 0.0
Zn160 Zn 0.50872 0.55888 0.90367 0.0
Zn161 Zn 0.45257 0.41928 0.0568 0.0
C162 C 0.3867 0.60434 0.87987 0.0
O163 O 0.34173 0.53291 0.84557 0.0
C164 C 0.5747 0.37441 0.08356 0.0
O165 O 0.61863 0.44569 0.11962 0.0
O166 O 0.54665 0.56955 0.80722 0.0
O167 O 0.59907 0.60512 0.00337 0.0
O168 O 0.53581 0.51692 0.05117 0.0
C169 C 0.62065 0.60185 0.81894 0.0
O170 O 0.66941 0.61342 0.88772 0.0
O171 O 0.46007 0.62772 0.91122 0.0
C172 C 0.33991 0.37346 0.1405 0.0
O173 O 0.29074 0.36051 0.07145 0.0
O174 O 0.41386 0.4072 0.15246 0.0
O175 O 0.36211 0.37321 0.95683 0.0
O176 O 0.42757 0.46279 0.91253 0.0
O177 O 0.50166 0.35069 0.04962 0.0
C178 C 0.59303 0.57942 0.06096 0.0
C179 C 0.36931 0.40054 0.90052 0.0
Zn180 Zn 0.76717 0.14843 0.23511 0.0
Zn181 Zn 0.64153 0.26937 0.23609 0.0
C182 C 0.81134 0.06842 0.33838 0.0
O183 O 0.82341 0.12511 0.39472 0.0
C184 C 0.60124 0.32117 0.10582 0.0
O185 O 0.55726 0.25006 0.06905 0.0
O186 O 0.78555 0.14152 0.13441 0.0
O187 O 0.66249 0.14422 0.21512 0.0
O188 O 0.56584 0.16379 0.16103 0.0
C189 C 0.85104 0.14544 0.13145 0.0
O190 O 0.90845 0.16353 0.19648 0.0
O191 O 0.77945 0.06361 0.26795 0.0
C192 C 0.55195 0.32698 0.31367 0.0
O193 O 0.50815 0.31963 0.24395 0.0
O194 O 0.60395 0.30338 0.32072 0.0
O195 O 0.75531 0.28967 0.29102 0.0
O196 O 0.84575 0.24989 0.31319 0.0
O197 O 0.64831 0.34124 0.17469 0.0
C198 C 0.60123 0.12354 0.15712 0.0
C199 C 0.82599 0.30257 0.32527 0.0
Zn200 Zn 0.92089 0.52443 0.48203 0.0
Zn201 Zn 0.04489 0.46047 0.48347 0.0
C202 C 0.85803 0.41548 0.55072 0.0
O203 O 0.80106 0.38944 0.48349 0.0
C204 C 0.10703 0.56925 0.41459 0.0
O205 O 0.16438 0.59454 0.48143 0.0
O206 O 0.85501 0.58181 0.48581 0.0
O207 O 0.03133 0.60853 0.52567 0.0
O208 O 0.0884 0.54858 0.58563 0.0
C209 C 0.80478 0.57066 0.52169 0.0
O210 O 0.78076 0.51021 0.54373 0.0
O211 O 0.91637 0.47793 0.56738 0.0
C212 C 0.15892 0.41296 0.44102 0.0
O213 O 0.18049 0.47191 0.41619 0.0
O214 O 0.11052 0.40289 0.47898 0.0
O215 O 0.93495 0.37657 0.44131 0.0
O216 O 0.87815 0.43591 0.37993 0.0
O217 O 0.04833 0.50707 0.39803 0.0
C218 C 0.08354 0.60913 0.58266 0.0
C219 C 0.88352 0.37563 0.38335 0.0
Zn220 Zn 0.68039 0.69912 0.29867 0.0
Zn221 Zn 0.81384 0.74769 0.1333 0.0
C222 C 0.59797 0.60647 0.36927 0.0
O223 O 0.54921 0.60332 0.30457 0.0
C224 C 0.87576 0.85107 0.056 0.0
O225 O 0.9349 0.84238 0.09635 0.0
O226 O 0.60896 0.74927 0.29951 0.0
O227 O 0.78949 0.77096 0.29907 0.0
O228 O 0.87987 0.81603 0.24306 0.0
C229 C 0.61906 0.81498 0.30146 0.0
O230 O 0.6877 0.86526 0.30476 0.0
O231 O 0.67133 0.64827 0.38621 0.0
C232 C 0.8553 0.62667 0.0632 0.0
O233 O 0.786 0.57391 0.05457 0.0
O234 O 0.87333 0.6945 0.09428 0.0
O235 O 0.71509 0.6767 0.14841 0.0
O236 O 0.62424 0.61867 0.19658 0.0
O237 O 0.80782 0.81515 0.0614 0.0
C238 C 0.85797 0.81739 0.30346 0.0
C239 C 0.64787 0.62505 0.13848 0.0
Zn240 Zn 0.75487 0.26597 0.6554 0.0
Zn241 Zn 0.69286 0.19422 0.76264 0.0
C242 C 0.65541 0.33376 0.59786 0.0
O243 O 0.67261 0.31589 0.53478 0.0
C244 C 0.80517 0.15547 0.8474 0.0
O245 O 0.80195 0.20518 0.90064 0.0
O246 O 0.80615 0.30649 0.58384 0.0
O247 O 0.84083 0.30539 0.75701 0.0
O248 O 0.75429 0.30219 0.81522 0.0
C249 C 0.84934 0.37595 0.60809 0.0
O250 O 0.86754 0.41294 0.68123 0.0
O251 O 0.6772 0.31244 0.65677 0.0
C252 C 0.60125 0.09474 0.81882 0.0
O253 O 0.59092 0.05079 0.75171 0.0
O254 O 0.6348 0.16427 0.83215 0.0
O255 O 0.61221 0.15609 0.65679 0.0
O256 O 0.7049 0.1567 0.60968 0.0
O257 O 0.76425 0.14001 0.77614 0.0
C258 C 0.82445 0.32925 0.81549 0.0
C259 C 0.63472 0.12472 0.60852 0.0
Zn260 Zn 0.63978 0.743 0.67855 0.0
Zn261 Zn 0.8012 0.69795 0.71753 0.0
C262 C 0.62813 0.81204 0.83274 0.0
O263 O 0.60517 0.74783 0.8479 0.0
C264 C 0.79722 0.6345 0.56326 0.0
O265 O 0.85235 0.70158 0.57484 0.0
O266 O 0.56353 0.73407 0.57827 0.0
O267 O 0.74045 0.79931 0.65581 0.0
O268 O 0.85455 0.79943 0.70593 0.0
C269 C 0.52683 0.77351 0.57181 0.0
O270 O 0.5191 0.80805 0.63441 0.0
O271 O 0.64204 0.81782 0.76906 0.0
C272 C 0.84832 0.60194 0.7685 0.0
O273 O 0.77335 0.56327 0.72699 0.0
O274 O 0.88263 0.67084 0.77443 0.0
O275 O 0.72798 0.67621 0.78354 0.0
O276 O 0.60905 0.64312 0.70391 0.0
O277 O 0.75728 0.62394 0.60977 0.0
C278 C 0.81329 0.82312 0.66454 0.0
C279 C 0.65366 0.63806 0.76298 0.0
Zn280 Zn 0.41322 0.51212 0.45127 0.0
Zn281 Zn 0.55051 0.46288 0.50735 0.0
C282 C 0.40188 0.5912 0.57784 0.0
O283 O 0.32983 0.54237 0.53501 0.0
C284 C 0.56162 0.3829 0.38161 0.0
O285 O 0.63354 0.43215 0.42432 0.0
O286 O 0.33548 0.54557 0.39329 0.0
O287 O 0.48916 0.52171 0.39133 0.0
O288 O 0.60341 0.56132 0.48312 0.0
C289 C 0.35429 0.59975 0.36372 0.0
O290 O 0.42423 0.62909 0.35627 0.0
O291 O 0.45916 0.58954 0.55693 0.0
C292 C 0.61036 0.3772 0.59708 0.0
O293 O 0.54059 0.34812 0.60495 0.0
O294 O 0.62864 0.43046 0.56623 0.0
O295 O 0.47497 0.45404 0.56735 0.0
O296 O 0.36053 0.41363 0.4755 0.0
O297 O 0.50416 0.38445 0.40219 0.0
C298 C 0.56322 0.56195 0.4181 0.0
C299 C 0.40092 0.41385 0.54092 0.0
Zn300 Zn -0.00596 0.44294 0.02676 0.0
Zn301 Zn 0.97298 0.54286 0.93622 0.0
C302 C 0.05571 0.37353 0.93372 0.0
O303 O -0.00711 0.31838 0.93502 0.0
C304 C 0.90973 0.61036 0.02844 0.0
O305 O 0.97217 0.66609 0.02731 0.0
O306 O 0.00996 0.38415 0.1009 0.0
O307 O 0.02708 0.54501 0.09431 0.0
O308 O 0.08238 0.59462 0.01326 0.0
C309 C 0.08101 0.41785 0.14607 0.0
O310 O 0.12712 0.48315 0.14204 0.0
O311 O 0.07126 0.43982 0.96862 0.0
C312 C 0.88508 0.56702 0.81663 0.0
O313 O 0.83984 0.50137 0.82057 0.0
O314 O 0.95605 0.60154 0.86201 0.0
O315 O 0.94035 0.4407 0.86907 0.0
O316 O 0.88467 0.39187 0.95032 0.0
O317 O 0.8952 0.54439 -0.00617 0.0
C318 C 0.08181 0.59617 0.08242 0.0
C319 C 0.88555 0.38975 0.88119 0.0
loop_
_geom_bond_atom_site_label_1
_geom_bond_atom_site_label_2
_geom_bond_distance
_geom_bond_site_symmetry_2
_ccdc_geom_bond_type
Zn0 O6 1.969 . S
Zn0 O7 1.965 1_655 S
Zn0 O11 2.024 1_556 S
Zn0 O16 1.969 1_546 S
Zn1 O8 1.969 1_564 S
Zn1 O14 1.969 . S
Zn1 O15 1.965 1_455 S
Zn1 O17 2.024 1_554 S
C2 O3 1.229 . S
C2 O11 1.058 . S
O3 C2 1.229 . S
C4 O5 1.229 . S
C4 O17 1.058 . S
O5 C4 1.229 . S
O6 Zn0 1.969 . S
O6 C9 1.267 . S
O7 Zn0 1.965 1_455 S
O7 C18 1.260 . S
O8 Zn1 1.969 1_546 S
O8 C18 1.258 . S
C9 O6 1.267 . S
C9 O10 1.228 . S
O10 C9 1.228 . S
O11 Zn0 2.024 1_554 S
O11 C2 1.058 . S
C12 O13 1.228 . S
C12 O14 1.267 . S
O13 C12 1.228 . S
O14 Zn1 1.969 . S
O14 C12 1.267 . S
O15 Zn1 1.965 1_655 S
O15 C19 1.260 . S
O16 Zn0 1.969 1_564 S
O16 C19 1.258 . S
O17 Zn1 2.024 1_556 S
O17 C4 1.058 . S
C18 O7 1.260 . S
C18 O8 1.258 . S
C19 O15 1.260 . S
C19 O16 1.258 . S
Zn20 O26 1.969 . S
Zn20 O27 1.965 . S
Zn20 O31 2.024 . S
Zn20 O36 1.969 . S
Zn21 O28 1.969 . S
Zn21 O34 1.969 . S
Zn21 O35 1.965 . S
Zn21 O37 2.024 . S
C22 O23 1.229 . S
C22 O31 1.058 . S
O23 C22 1.229 . S
C24 O25 1.229 . S
C24 O37 1.058 . S
O25 C24 1.229 . S
O26 Zn20 1.969 . S
O26 C29 1.267 . S
O27 Zn20 1.965 . S
O27 C38 1.260 . S
O28 Zn21 1.969 . S
O28 C38 1.258 . S
C29 O26 1.267 . S
C29 O30 1.228 . S
O30 C29 1.228 . S
O31 Zn20 2.024 . S
O31 C22 1.058 . S
C32 O33 1.228 . S
C32 O34 1.267 . S
O33 C32 1.228 . S
O34 Zn21 1.969 . S
O34 C32 1.267 . S
O35 Zn21 1.965 . S
O35 C39 1.260 . S
O36 Zn20 1.969 . S
O36 C39 1.258 . S
O37 Zn21 2.024 . S
O37 C24 1.058 . S
C38 O27 1.260 . S
C38 O28 1.258 . S
C39 O35 1.260 . S
C39 O36 1.258 . S
Zn40 O46 1.969 . S
Zn40 O47 1.965 . S
Zn40 O51 2.024 . S
Zn40 O56 1.969 1_565 S
Zn41 O48 1.969 1_545 S
Zn41 O54 1.969 . S
Zn41 O55 1.965 . S
Zn41 O57 2.024 . S
C42 O43 1.229 . S
C42 O51 1.058 . S
O43 C42 1.229 . S
C44 O45 1.229 . S
C44 O57 1.058 . S
O45 C44 1.229 . S
O46 Zn40 1.969 . S
O46 C49 1.267 . S
O47 Zn40 1.965 . S
O47 C58 1.260 . S
O48 Zn41 1.969 1_565 S
O48 C58 1.258 . S
C49 O46 1.267 . S
C49 O50 1.228 . S
O50 C49 1.228 . S
O51 Zn40 2.024 . S
O51 C42 1.058 . S
C52 O53 1.228 . S
C52 O54 1.267 . S
O53 C52 1.228 . S
O54 Zn41 1.969 . S
O54 C52 1.267 . S
O55 Zn41 1.965 . S
O55 C59 1.260 . S
O56 Zn40 1.969 1_545 S
O56 C59 1.258 . S
O57 Zn41 2.024 . S
O57 C44 1.058 . S
C58 O47 1.260 . S
C58 O48 1.258 . S
C59 O55 1.260 . S
C59 O56 1.258 . S
Zn60 O66 1.969 . S
Zn60 O67 1.965 . S
Zn60 O71 2.024 . S
Zn60 O76 1.969 . S
Zn61 O68 1.969 . S
Zn61 O74 1.969 . S
Zn61 O75 1.965 . S
Zn61 O77 2.024 . S
C62 O63 1.229 . S
C62 O71 1.058 . S
O63 C62 1.229 . S
C64 O65 1.229 . S
C64 O77 1.058 . S
O65 C64 1.229 . S
O66 Zn60 1.969 . S
O66 C69 1.267 . S
O67 Zn60 1.965 . S
O67 C78 1.260 . S
O68 Zn61 1.969 . S
O68 C78 1.258 . S
C69 O66 1.267 . S
C69 O70 1.228 . S
O70 C69 1.228 . S
O71 Zn60 2.024 . S
O71 C62 1.058 . S
C72 O73 1.228 . S
C72 O74 1.267 . S
O73 C72 1.228 . S
O74 Zn61 1.969 . S
O74 C72 1.267 . S
O75 Zn61 1.965 . S
O75 C79 1.260 . S
O76 Zn60 1.969 . S
O76 C79 1.258 . S
O77 Zn61 2.024 . S
O77 C64 1.058 . S
C78 O67 1.260 . S
C78 O68 1.258 . S
C79 O75 1.260 . S
C79 O76 1.258 . S
Zn80 O86 1.969 . S
Zn80 O87 1.965 . S
Zn80 O91 2.024 1_455 S
Zn80 O96 1.969 1_445 S
Zn81 O88 1.969 1_665 S
Zn81 O94 1.969 . S
Zn81 O95 1.965 . S
Zn81 O97 2.024 1_655 S
C82 O83 1.229 . S
C82 O91 1.058 . S
O83 C82 1.229 . S
C84 O85 1.229 . S
C84 O97 1.058 . S
O85 C84 1.229 . S
O86 Zn80 1.969 . S
O86 C89 1.267 . S
O87 Zn80 1.965 . S
O87 C98 1.260 . S
O88 Zn81 1.969 1_445 S
O88 C98 1.258 . S
C89 O86 1.267 . S
C89 O90 1.228 . S
O90 C89 1.228 . S
O91 Zn80 2.024 1_655 S
O91 C82 1.058 . S
C92 O93 1.228 . S
C92 O94 1.267 . S
O93 C92 1.228 . S
O94 Zn81 1.969 . S
O94 C92 1.267 . S
O95 Zn81 1.965 . S
O95 C99 1.260 . S
O96 Zn80 1.969 1_665 S
O96 C99 1.258 . S
O97 Zn81 2.024 1_455 S
O97 C84 1.058 . S
C98 O87 1.260 . S
C98 O88 1.258 . S
C99 O95 1.260 . S
C99 O96 1.258 . S
Zn100 O106 1.969 . S
Zn100 O107 1.965 . S
Zn100 O111 2.024 . S
Zn100 O116 1.969 . S
Zn101 O108 1.969 . S
Zn101 O114 1.969 . S
Zn101 O115 1.965 . S
Zn101 O117 2.024 . S
C102 O103 1.229 . S
C102 O111 1.058 . S
O103 C102 1.229 . S
C104 O105 1.229 . S
C104 O117 1.058 . S
O105 C104 1.229 . S
O106 Zn100 1.969 . S
O106 C109 1.267 . S
O107 Zn100 1.965 . S
O107 C118 1.260 . S
O108 Zn101 1.969 . S
O108 C118 1.258 . S
C109 O106 1.267 . S
C109 O110 1.228 . S
O110 C109 1.228 . S
O111 Zn100 2.024 . S
O111 C102 1.058 . S
C112 O113 1.228 . S
C112 O114 1.267 . S
O113 C112 1.228 . S
O114 Zn101 1.969 . S
O114 C112 1.267 . S
O115 Zn101 1.965 . S
O115 C119 1.260 . S
O116 Zn100 1.969 . S
O116 C119 1.258 . S
O117 Zn101 2.024 . S
O117 C104 1.058 . S
C118 O107 1.260 . S
C118 O108 1.258 . S
C119 O115 1.260 . S
C119 O116 1.258 . S
Zn120 O126 1.969 1_565 S
Zn120 O127 1.965 1_565 S
Zn120 O131 2.024 . S
Zn120 O136 1.969 1_554 S
Zn121 O128 1.969 1_556 S
Zn121 O134 1.969 1_545 S
Zn121 O135 1.965 1_545 S
Zn121 O137 2.024 . S
C122 O123 1.229 . S
C122 O131 1.058 . S
O123 C122 1.229 . S
C124 O125 1.229 . S
C124 O137 1.058 . S
O125 C124 1.229 . S
O126 Zn120 1.969 1_545 S
O126 C129 1.267 . S
O127 Zn120 1.965 1_545 S
O127 C138 1.260 . S
O128 Zn121 1.969 1_554 S
O128 C138 1.258 . S
C129 O126 1.267 . S
C129 O130 1.228 . S
O130 C129 1.228 . S
O131 Zn120 2.024 . S
O131 C122 1.058 . S
C132 O133 1.228 . S
C132 O134 1.267 . S
O133 C132 1.228 . S
O134 Zn121 1.969 1_565 S
O134 C132 1.267 . S
O135 Zn121 1.965 1_565 S
O135 C139 1.260 . S
O136 Zn120 1.969 1_556 S
O136 C139 1.258 . S
O137 Zn121 2.024 . S
O137 C124 1.058 . S
C138 O127 1.260 . S
C138 O128 1.258 . S
C139 O135 1.260 . S
C139 O136 1.258 . S
Zn140 O146 1.969 . S
Zn140 O147 1.965 . S
Zn140 O151 2.024 . S
Zn140 O156 1.969 . S
Zn141 O148 1.969 . S
Zn141 O154 1.969 . S
Zn141 O155 1.965 . S
Zn141 O157 2.024 . S
C142 O143 1.229 . S
C142 O151 1.058 . S
O143 C142 1.229 . S
C144 O145 1.229 . S
C144 O157 1.058 . S
O145 C144 1.229 . S
O146 Zn140 1.969 . S
O146 C149 1.267 . S
O147 Zn140 1.965 . S
O147 C158 1.260 . S
O148 Zn141 1.969 . S
O148 C158 1.258 . S
C149 O146 1.267 . S
C149 O150 1.228 . S
O150 C149 1.228 . S
O151 Zn140 2.024 . S
O151 C142 1.058 . S
C152 O153 1.228 . S
C152 O154 1.267 . S
O153 C152 1.228 . S
O154 Zn141 1.969 . S
O154 C152 1.267 . S
O155 Zn141 1.965 . S
O155 C159 1.260 . S
O156 Zn140 1.969 . S
O156 C159 1.258 . S
O157 Zn141 2.024 . S
O157 C144 1.058 . S
C158 O147 1.260 . S
C158 O148 1.258 . S
C159 O155 1.260 . S
C159 O156 1.258 . S
Zn160 O166 1.969 . S
Zn160 O167 1.965 1_556 S
Zn160 O171 2.024 . S
Zn160 O176 1.969 . S
Zn161 O168 1.969 . S
Zn161 O174 1.969 . S
Zn161 O175 1.965 1_554 S
Zn161 O177 2.024 . S
C162 O163 1.229 . S
C162 O171 1.058 . S
O163 C162 1.229 . S
C164 O165 1.229 . S
C164 O177 1.058 . S
O165 C164 1.229 . S
O166 Zn160 1.969 . S
O166 C169 1.267 . S
O167 Zn160 1.965 1_554 S
O167 C178 1.260 . S
O168 Zn161 1.969 . S
O168 C178 1.258 . S
C169 O166 1.267 . S
C169 O170 1.228 . S
O170 C169 1.228 . S
O171 Zn160 2.024 . S
O171 C162 1.058 . S
C172 O173 1.228 . S
C172 O174 1.267 . S
O173 C172 1.228 . S
O174 Zn161 1.969 . S
O174 C172 1.267 . S
O175 Zn161 1.965 1_556 S
O175 C179 1.260 . S
O176 Zn160 1.969 . S
O176 C179 1.258 . S
O177 Zn161 2.024 . S
O177 C164 1.058 . S
C178 O167 1.260 . S
C178 O168 1.258 . S
C179 O175 1.260 . S
C179 O176 1.258 . S
Zn180 O186 1.969 . S
Zn180 O187 1.965 . S
Zn180 O191 2.024 . S
Zn180 O196 1.969 . S
Zn181 O188 1.969 . S
Zn181 O194 1.969 . S
Zn181 O195 1.965 . S
Zn181 O197 2.024 . S
C182 O183 1.229 . S
C182 O191 1.058 . S
O183 C182 1.229 . S
C184 O185 1.229 . S
C184 O197 1.058 . S
O185 C184 1.229 . S
O186 Zn180 1.969 . S
O186 C189 1.267 . S
O187 Zn180 1.965 . S
O187 C198 1.260 . S
O188 Zn181 1.969 . S
O188 C198 1.258 . S
C189 O186 1.267 . S
C189 O190 1.228 . S
O190 C189 1.228 . S
O191 Zn180 2.024 . S
O191 C182 1.058 . S
C192 O193 1.228 . S
C192 O194 1.267 . S
O193 C192 1.228 . S
O194 Zn181 1.969 . S
O194 C192 1.267 . S
O195 Zn181 1.965 . S
O195 C199 1.260 . S
O196 Zn180 1.969 . S
O196 C199 1.258 . S
O197 Zn181 2.024 . S
O197 C184 1.058 . S
C198 O187 1.260 . S
C198 O188 1.258 . S
C199 O195 1.260 . S
C199 O196 1.258 . S
Zn200 O206 1.969 . S
Zn200 O207 1.965 1_655 S
Zn200 O211 2.024 . S
Zn200 O216 1.969 . S
Zn201 O208 1.969 . S
Zn201 O214 1.969 . S
Zn201 O215 1.965 1_455 S
Zn201 O217 2.024 . S
C202 O203 1.229 . S
C202 O211 1.058 . S
O203 C202 1.229 . S
C204 O205 1.229 . S
C204 O217 1.058 . S
O205 C204 1.229 . S
O206 Zn200 1.969 . S
O206 C209 1.267 . S
O207 Zn200 1.965 1_455 S
O207 C218 1.260 . S
O208 Zn201 1.969 . S
O208 C218 1.258 . S
C209 O206 1.267 . S
C209 O210 1.228 . S
O210 C209 1.228 . S
O211 Zn200 2.024 . S
O211 C202 1.058 . S
C212 O213 1.228 . S
C212 O214 1.267 . S
O213 C212 1.228 . S
O214 Zn201 1.969 . S
O214 C212 1.267 . S
O215 Zn201 1.965 1_655 S
O215 C219 1.260 . S
O216 Zn200 1.969 . S
O216 C219 1.258 . S
O217 Zn201 2.024 . S
O217 C204 1.058 . S
C218 O207 1.260 . S
C218 O208 1.258 . S
C219 O215 1.260 . S
C219 O216 1.258 . S
Zn220 O226 1.969 . S
Zn220 O227 1.965 . S
Zn220 O231 2.024 . S
Zn220 O236 1.969 . S
Zn221 O228 1.969 . S
Zn221 O234 1.969 . S
Zn221 O235 1.965 . S
Zn221 O237 2.024 . S
C222 O223 1.229 . S
C222 O231 1.058 . S
O223 C222 1.229 . S
C224 O225 1.229 . S
C224 O237 1.058 . S
O225 C224 1.229 . S
O226 Zn220 1.969 . S
O226 C229 1.267 . S
O227 Zn220 1.965 . S
O227 C238 1.260 . S
O228 Zn221 1.969 . S
O228 C238 1.258 . S
C229 O226 1.267 . S
C229 O230 1.228 . S
O230 C229 1.228 . S
O231 Zn220 2.024 . S
O231 C222 1.058 . S
C232 O233 1.228 . S
C232 O234 1.267 . S
O233 C232 1.228 . S
O234 Zn221 1.969 . S
O234 C232 1.267 . S
O235 Zn221 1.965 . S
O235 C239 1.260 . S
O236 Zn220 1.969 . S
O236 C239 1.258 . S
O237 Zn221 2.024 . S
O237 C224 1.058 . S
C238 O227 1.260 . S
C238 O228 1.258 . S
C239 O235 1.260 . S
C239 O236 1.258 . S
Zn240 O246 1.969 . S
Zn240 O247 1.965 . S
Zn240 O251 2.024 . S
Zn240 O256 1.969 . S
Zn241 O248 1.969 . S
Zn241 O254 1.969 . S
Zn241 O255 1.965 . S
Zn241 O257 2.024 . S
C242 O243 1.229 . S
C242 O251 1.058 . S
O243 C242 1.229 . S
C244 O245 1.229 . S
C244 O257 1.058 . S
O245 C244 1.229 . S
O246 Zn240 1.969 . S
O246 C249 1.267 . S
O247 Zn240 1.965 . S
O247 C258 1.260 . S
O248 Zn241 1.969 . S
O248 C258 1.258 . S
C249 O246 1.267 . S
C249 O250 1.228 . S
O250 C249 1.228 . S
O251 Zn240 2.024 . S
O251 C242 1.058 . S
C252 O253 1.228 . S
C252 O254 1.267 . S
O253 C252 1.228 . S
O254 Zn241 1.969 . S
O254 C252 1.267 . S
O255 Zn241 1.965 . S
O255 C259 1.260 . S
O256 Zn240 1.969 . S
O256 C259 1.258 . S
O257 Zn241 2.024 . S
O257 C244 1.058 . S
C258 O247 1.260 . S
C258 O248 1.258 . S
C259 O255 1.260 . S
C259 O256 1.258 . S
Zn260 O266 1.969 . S
Zn260 O267 1.965 . S
Zn260 O271 2.024 . S
Zn260 O276 1.969 . S
Zn261 O268 1.969 . S
Zn261 O274 1.969 . S
Zn261 O275 1.965 . S
Zn261 O277 2.024 . S
C262 O263 1.229 . S
C262 O271 1.058 . S
O263 C262 1.229 . S
C264 O265 1.229 . S
C264 O277 1.058 . S
O265 C264 1.229 . S
O266 Zn260 1.969 . S
O266 C269 1.267 . S
O267 Zn260 1.965 . S
O267 C278 1.260 . S
O268 Zn261 1.969 . S
O268 C278 1.258 . S
C269 O266 1.267 . S
C269 O270 1.228 . S
O270 C269 1.228 . S
O271 Zn260 2.024 . S
O271 C262 1.058 . S
C272 O273 1.228 . S
C272 O274 1.267 . S
O273 C272 1.228 . S
O274 Zn261 1.969 . S
O274 C272 1.267 . S
O275 Zn261 1.965 . S
O275 C279 1.260 . S
O276 Zn260 1.969 . S
O276 C279 1.258 . S
O277 Zn261 2.024 . S
O277 C264 1.058 . S
C278 O267 1.260 . S
C278 O268 1.258 . S
C279 O275 1.260 . S
C279 O276 1.258 . S
Zn280 O286 1.969 . S
Zn280 O287 1.965 . S
Zn280 O291 2.024 . S
Zn280 O296 1.969 . S
Zn281 O288 1.969 . S
Zn281 O294 1.969 . S
Zn281 O295 1.965 . S
Zn281 O297 2.024 . S
C282 O283 1.229 . S
C282 O291 1.058 . S
O283 C282 1.229 . S
C284 O285 1.229 . S
C284 O297 1.058 . S
O285 C284 1.229 . S
O286 Zn280 1.969 . S
O286 C289 1.267 . S
O287 Zn280 1.965 . S
O287 C298 1.260 . S
O288 Zn281 1.969 . S
O288 C298 1.258 . S
C289 O286 1.267 . S
C289 O290 1.228 . S
O290 C289 1.228 . S
O291 Zn280 2.024 . S
O291 C282 1.058 . S
C292 O293 1.228 . S
C292 O294 1.267 . S
O293 C292 1.228 . S
O294 Zn281 1.969 . S
O294 C292 1.267 . S
O295 Zn281 1.965 . S
O295 C299 1.260 . S
O296 Zn280 1.969 . S
O296 C299 1.258 . S
O297 Zn281 2.024 . S
O297 C284 1.058 . S
C298 O287 1.260 . S
C298 O288 1.258 . S
C299 O295 1.260 . S
C299 O296 1.258 . S
Zn300 O306 1.969 . S
Zn300 O307 1.965 . S
Zn300 O311 2.024 1_554 S
Zn300 O316 1.969 1_454 S
Zn301 O308 1.969 1_656 S
Zn301 O314 1.969 . S
Zn301 O315 1.965 . S
Zn301 O317 2.024 1_556 S
C302 O303 1.229 . S
C302 O311 1.058 . S
O303 C302 1.229 . S
C304 O305 1.229 . S
C304 O317 1.058 . S
O305 C304 1.229 . S
O306 Zn300 1.969 . S
O306 C309 1.267 . S
O307 Zn300 1.965 . S
O307 C318 1.260 . S
O308 Zn301 1.969 1_454 S
O308 C318 1.258 . S
C309 O306 1.267 . S
C309 O310 1.228 . S
O310 C309 1.228 . S
O311 Zn300 2.024 1_556 S
O311 C302 1.058 . S
C312 O313 1.228 . S
C312 O314 1.267 . S
O313 C312 1.228 . S
O314 Zn301 1.969 . S
O314 C312 1.267 . S
O315 Zn301 1.965 . S
O315 C319 1.260 . S
O316 Zn300 1.969 1_656 S
O316 C319 1.258 . S
O317 Zn301 2.024 1_554 S
O317 C304 1.058 . S
C318 O307 1.260 . S
C318 O308 1.258 . S
C319 O315 1.260 . S
C319 O316 1.258 . S
C62 C18 2.294 . S
C12 C22 1.241 . S
C58 C38 1.406 . S
C72 C52 1.119 . S
C84 C104 1.533 . S
C119 C139 1.382 . S
C129 C144 1.193 . S
C89 C159 1.730 . S
C189 C2 1.270 . S
C204 C32 0.488 . S
C42 C269 1.215 . S
C179 C78 1.238 . S
C238 C99 1.472 . S
C282 C109 1.352 . S
C124 C252 0.635 . S
C309 C149 1.030 . S
C169 C279 1.813 . S
C184 C164 1.524 . S
C219 C199 1.381 . S
C298 C222 2.323 . S
C258 C319 1.316 . S
C224 C19 2.292 . S
C244 C9 1.242 . S
C259 C59 1.406 . S
C49 C229 1.119 . S
C182 C82 1.534 . S
C198 C138 1.381 . S
C262 C132 1.195 . S
C92 C278 1.730 . S
C112 C4 1.271 . S
C202 C249 0.487 . S
C44 C152 1.215 . S
C178 C239 1.237 . S
C79 C98 1.472 . S
C192 C284 1.352 . S
C122 C29 0.637 . S
C312 C272 1.031 . S
C172 C158 1.810 . S
C162 C102 1.525 . S
C218 C118 1.381 . S
C64 C299 2.322 . S
C39 C318 1.315 . S
C242 C292 1.095 . S
C232 C304 1.246 . S
C209 C264 1.324 . S
C289 C24 1.095 . S
C69 C302 1.247 . S
C142 C212 1.323 . S
