# Generated by pormake.
# Topology sof, (5)-cn, num edge types: 1
# Building blocks:
#     Node 0, Type 0, BuildingBlock: BEQFEK_clean_sbu_0, # of connection points: 5
#     Node 1, Type 0, BuildingBlock: BEQFEK_clean_sbu_0, # of connection points: 5
#     Node 2, Type 0, BuildingBlock: BEQFEK_clean_sbu_0, # of connection points: 5
#     Node 3, Type 0, BuildingBlock: BEQFEK_clean_sbu_0, # of connection points: 5
#     Node 4, Type 0, BuildingBlock: BEQFEK_clean_sbu_0, # of connection points: 5
#     Node 5, Type 0, BuildingBlock: BEQFEK_clean_sbu_0, # of connection points: 5
#     Node 6, Type 0, BuildingBlock: BEQFEK_clean_sbu_0, # of connection points: 5
#     Node 7, Type 0, BuildingBlock: BEQFEK_clean_sbu_0, # of connection points: 5
#     Edge 8, Type (0, 0), BuildingBlock: OJICUG_clean_linker_0, # of connection points: 2
#     Edge 9, Type (0, 0), BuildingBlock: OJICUG_clean_linker_0, # of connection points: 2
#     Edge 10, Type (0, 0), BuildingBlock: OJICUG_clean_linker_0, # of connection points: 2
#     Edge 11, Type (0, 0), BuildingBlock: OJICUG_clean_linker_0, # of connection points: 2
#     Edge 12, Type (0, 0), BuildingBlock: OJICUG_clean_linker_0, # of connection points: 2
#     Edge 13, Type (0, 0), BuildingBlock: OJICUG_clean_linker_0, # of connection points: 2
#     Edge 14, Type (0, 0), BuildingBlock: OJICUG_clean_linker_0, # of connection points: 2
#     Edge 15, Type (0, 0), BuildingBlock: OJICUG_clean_linker_0, # of connection points: 2
#     Edge 16, Type (0, 0), BuildingBlock: OJICUG_clean_linker_0, # of connection points: 2
#     Edge 17, Type (0, 0), BuildingBlock: OJICUG_clean_linker_0, # of connection points: 2
#     Edge 18, Type (0, 0), BuildingBlock: OJICUG_clean_linker_0, # of connection points: 2
#     Edge 19, Type (0, 0), BuildingBlock: OJICUG_clean_linker_0, # of connection points: 2
#     Edge 20, Type (0, 0), BuildingBlock: OJICUG_clean_linker_0, # of connection points: 2
#     Edge 21, Type (0, 0), BuildingBlock: OJICUG_clean_linker_0, # of connection points: 2
#     Edge 22, Type (0, 0), BuildingBlock: OJICUG_clean_linker_0, # of connection points: 2
#     Edge 23, Type (0, 0), BuildingBlock: OJICUG_clean_linker_0, # of connection points: 2
#     Edge 24, Type (0, 0), BuildingBlock: OJICUG_clean_linker_0, # of connection points: 2
#     Edge 25, Type (0, 0), BuildingBlock: OJICUG_clean_linker_0, # of connection points: 2
#     Edge 26, Type (0, 0), BuildingBlock: OJICUG_clean_linker_0, # of connection points: 2
#     Edge 27, Type (0, 0), BuildingBlock: OJICUG_clean_linker_0, # of connection points: 2
# Relax obj value: 0.178
# Max RMSD: 0.184
# Mean RMSD: 0.184
data_MOF--net-sof--node1-BEQFEK_clean_sbu_0--edge1-OJICUG_clean_linker_0
_symmetry_space_group_name_H-M    P1
_symmetry_Int_Tables_number       1
_symmetry_cell_setting            triclinic
loop_
_symmetry_equiv_pos_as_xyz
'x, y, z'
_cell_length_a     43.425954
_cell_length_b     14.835765
_cell_length_c     32.565546
_cell_angle_alpha  89.988766
_cell_angle_beta   90.016981
_cell_angle_gamma 89.961013
loop_
_atom_site_label
_atom_site_type_symbol
_atom_site_fract_x
_atom_site_fract_y
_atom_site_fract_z
_atom_type_partial_charge
Co0 Co 0.13752 0.17517 0.08211 0.0
Co1 Co 0.13129 0.98698 0.12423 0.0
C2 C 0.19 0.05068 0.08092 0.0
O3 O 0.17912 0.12612 0.06905 0.0
O4 O 0.17383 0.99608 0.10197 0.0
C5 C 0.15265 0.35399 0.07386 0.0
O6 O 0.17873 0.32102 0.08779 0.0
C7 C 0.13451 0.79554 0.11093 0.0
C8 C 0.11355 0.73538 0.1662 0.0
C9 C 0.12701 0.71422 0.12882 0.0
N10 N 0.12611 0.86233 0.13638 0.0
N11 N 0.11363 0.82613 0.16954 0.0
C12 C 0.14646 0.80954 0.0683 0.0
H13 H 0.14289 0.88011 0.05814 0.0
H14 H 0.13471 0.76299 0.0467 0.0
H15 H 0.17135 0.79346 0.06751 0.0
C16 C 0.08146 0.11038 0.03874 0.0
N17 N 0.10505 0.09868 0.06509 0.0
N18 N 0.10156 0.02144 0.08436 0.0
C19 C 0.07536 0.98198 0.07134 0.0
C20 C 0.06178 0.03681 0.04191 0.0
C21 C 0.0767 0.19421 0.01401 0.0
H22 H 0.07164 0.25103 0.03513 0.0
H23 H 0.09824 0.21088 0.99732 0.0
H24 H 0.0574 0.18704 0.99195 0.0
O25 O 0.13462 0.19415 0.14169 0.0
O26 O 0.12792 0.06474 0.17439 0.0
H27 H 0.06494 0.89152 0.12074 0.0
H28 H 0.03974 0.87967 0.07684 0.0
C29 C 0.06369 0.8932 0.08675 0.0
H30 H 0.07844 0.83856 0.07447 0.0
H31 H 0.10494 0.86321 0.19418 0.0
O32 O 0.13161 0.29972 0.06282 0.0
C33 C 0.13052 0.15048 0.17476 0.0
Co34 Co 0.36997 0.83007 0.0822 0.0
Co35 Co 0.37749 0.01689 0.12423 0.0
C36 C 0.31825 0.95555 0.08137 0.0
O37 O 0.32884 0.88041 0.06884 0.0
O38 O 0.33464 0.00847 0.10291 0.0
C39 C 0.37655 0.63632 0.04072 0.0
O40 O 0.37878 0.64624 0.00075 0.0
C41 C 0.38012 0.20457 0.10348 0.0
C42 C 0.39129 0.2736 0.1616 0.0
C43 C 0.38557 0.2889 0.1202 0.0
N44 N 0.38302 0.14243 0.13326 0.0
N45 N 0.38969 0.18387 0.16804 0.0
C46 C 0.37093 0.18296 0.06017 0.0
H47 H 0.36144 0.11412 0.05769 0.0
H48 H 0.39142 0.18591 0.03995 0.0
H49 H 0.35378 0.23264 0.04887 0.0
C50 C 0.42682 0.89169 0.03862 0.0
N51 N 0.4031 0.90403 0.06475 0.0
N52 N 0.40743 0.97947 0.08515 0.0
C53 C 0.43457 0.01594 0.07376 0.0
C54 C 0.44756 0.96223 0.04352 0.0
C55 C 0.43069 0.81017 0.01218 0.0
H56 H 0.43242 0.7496 0.03202 0.0
H57 H 0.41005 0.80244 0.99243 0.0
H58 H 0.45159 0.8146 0.99272 0.0
O59 O 0.37322 0.8127 0.14215 0.0
O60 O 0.38089 0.9417 0.17496 0.0
H61 H 0.4415 0.10496 0.12506 0.0
H62 H 0.4736 0.09988 0.09016 0.0
C63 C 0.44818 0.09937 0.09233 0.0
H64 H 0.43964 0.1593 0.07553 0.0
H65 H 0.39297 0.15115 0.19608 0.0
O66 O 0.37378 0.70468 0.06376 0.0
C67 C 0.37784 0.85605 0.17525 0.0
Co68 Co 0.13931 0.33029 0.41917 0.0
Co69 Co 0.13196 0.51727 0.37721 0.0
C70 C 0.19117 0.45519 0.41999 0.0
O71 O 0.18051 0.38013 0.43249 0.0
O72 O 0.17481 0.50841 0.39851 0.0
C73 C 0.13261 0.13659 0.46071 0.0
O74 O 0.13032 0.14642 0.50067 0.0
C75 C 0.12938 0.70495 0.39791 0.0
C76 C 0.11816 0.774 0.33978 0.0
C77 C 0.12388 0.78928 0.38119 0.0
N78 N 0.12649 0.64283 0.36814 0.0
N79 N 0.11979 0.68428 0.33336 0.0
C80 C 0.13857 0.68331 0.44122 0.0
H81 H 0.14816 0.61455 0.44369 0.0
H82 H 0.11805 0.68603 0.46141 0.0
H83 H 0.15563 0.73311 0.45257 0.0
C84 C 0.08248 0.39247 0.46273 0.0
N85 N 0.10624 0.4046 0.43665 0.0
N86 N 0.10198 0.48012 0.41625 0.0
C87 C 0.07485 0.51682 0.42758 0.0
C88 C 0.06179 0.4632 0.45779 0.0
C89 C 0.07852 0.31095 0.48916 0.0
H90 H 0.07673 0.25044 0.4693 0.0
H91 H 0.09916 0.30293 0.50891 0.0
H92 H 0.05762 0.31564 0.50861 0.0
O93 O 0.13606 0.31293 0.35921 0.0
O94 O 0.12853 0.44219 0.32649 0.0
H95 H 0.06799 0.60581 0.37623 0.0
H96 H 0.03586 0.601 0.41108 0.0
C97 C 0.06128 0.60032 0.40896 0.0
H98 H 0.06983 0.66022 0.42574 0.0
H99 H 0.1165 0.65156 0.30533 0.0
O100 O 0.13543 0.205 0.43771 0.0
C101 C 0.13149 0.35651 0.32614 0.0
Co102 Co 0.37208 0.67272 0.41908 0.0
Co103 Co 0.37814 0.48485 0.37651 0.0
C104 C 0.3195 0.54891 0.42012 0.0
O105 O 0.33044 0.62415 0.43211 0.0
O106 O 0.33563 0.49436 0.39894 0.0
C107 C 0.35712 0.85179 0.42763 0.0
O108 O 0.33092 0.81913 0.41402 0.0
C109 C 0.375 0.2935 0.39011 0.0
C110 C 0.39555 0.23285 0.33467 0.0
C111 C 0.38239 0.21199 0.37228 0.0
N112 N 0.38318 0.36007 0.36441 0.0
N113 N 0.39542 0.32357 0.33116 0.0
C114 C 0.3633 0.30793 0.43283 0.0
H115 H 0.36704 0.37851 0.44285 0.0
H116 H 0.3751 0.26129 0.45439 0.0
H117 H 0.33839 0.29239 0.43388 0.0
C118 C 0.42784 0.60593 0.46274 0.0
N119 N 0.40441 0.59545 0.43603 0.0
N120 N 0.40795 0.51875 0.41631 0.0
C121 C 0.43408 0.47873 0.42926 0.0
C122 C 0.44748 0.53231 0.45923 0.0
C123 C 0.43243 0.68838 0.4884 0.0
H124 H 0.43926 0.74514 0.46817 0.0
H125 H 0.41038 0.70709 0.50338 0.0
H126 H 0.45056 0.67812 0.51197 0.0
O127 O 0.37494 0.69194 0.35947 0.0
O128 O 0.38148 0.56284 0.32645 0.0
H129 H 0.4441 0.38957 0.37921 0.0
H130 H 0.47027 0.37879 0.42214 0.0
C131 C 0.44601 0.39085 0.41315 0.0
H132 H 0.43192 0.3352 0.42583 0.0
H133 H 0.40392 0.36043 0.30633 0.0
O134 O 0.3782 0.79725 0.43838 0.0
C135 C 0.37895 0.64861 0.32629 0.0
Co136 Co 0.87138 0.83162 0.91805 0.0
Co137 Co 0.87747 0.01967 0.87568 0.0
C138 C 0.81879 0.95596 0.91899 0.0
O139 O 0.82981 0.88078 0.93099 0.0
O140 O 0.83485 0.01057 0.89779 0.0
C141 C 0.85618 0.6528 0.92629 0.0
O142 O 0.83013 0.68589 0.91236 0.0
C143 C 0.87401 0.21113 0.88886 0.0
C144 C 0.89529 0.27138 0.83381 0.0
C145 C 0.88162 0.29251 0.87107 0.0
N146 N 0.88258 0.14437 0.86347 0.0
N147 N 0.89523 0.18063 0.83044 0.0
C148 C 0.86185 0.197 0.93137 0.0
H149 H 0.8658 0.12673 0.94173 0.0
H150 H 0.87312 0.24442 0.95303 0.0
H151 H 0.83685 0.21158 0.93178 0.0
C152 C 0.92733 0.89692 0.96142 0.0
N153 N 0.90375 0.90838 0.93505 0.0
N154 N 0.90716 0.98559 0.91573 0.0
C155 C 0.93332 0.0253 0.92876 0.0
C156 C 0.94694 0.97066 0.95824 0.0
C157 C 0.93216 0.81316 0.98617 0.0
H158 H 0.93722 0.75632 0.96507 0.0
H159 H 0.91065 0.79643 0.00291 0.0
H160 H 0.95148 0.82045 0.0082 0.0
O161 O 0.87448 0.8124 0.85855 0.0
O162 O 0.8811 0.94153 0.8256 0.0
H163 H 0.94381 0.11548 0.87929 0.0
H164 H 0.96883 0.12795 0.92335 0.0
C165 C 0.94493 0.11409 0.9133 0.0
H166 H 0.93006 0.16866 0.92538 0.0
H167 H 0.90408 0.14359 0.80589 0.0
O168 O 0.87724 0.70699 0.93738 0.0
C169 C 0.87864 0.85573 0.82542 0.0
Co170 Co 0.63731 0.16888 0.91889 0.0
Co171 Co 0.63123 0.98096 0.87637 0.0
C172 C 0.68991 0.0447 0.91979 0.0
O173 O 0.67891 0.11992 0.93175 0.0
O174 O 0.67384 0.99002 0.89863 0.0
C175 C 0.65236 0.34785 0.92733 0.0
O176 O 0.67849 0.315 0.91354 0.0
C177 C 0.63446 0.7896 0.88981 0.0
C178 C 0.61342 0.72914 0.83466 0.0
C179 C 0.6269 0.70815 0.87207 0.0
N180 N 0.62608 0.85625 0.86424 0.0
N181 N 0.61355 0.81987 0.83116 0.0
C182 C 0.64654 0.80396 0.93236 0.0
H183 H 0.6425 0.87422 0.94264 0.0
H184 H 0.63529 0.75648 0.95402 0.0
H185 H 0.67156 0.78968 0.93285 0.0
C186 C 0.58164 0.10264 0.96261 0.0
N187 N 0.60505 0.09184 0.93592 0.0
N188 N 0.60151 0.01502 0.91631 0.0
C189 C 0.57539 0.97518 0.92935 0.0
C190 C 0.56201 0.02907 0.95924 0.0
C191 C 0.57704 0.18541 0.98808 0.0
H192 H 0.57036 0.24207 0.96767 0.0
H193 H 0.59905 0.20395 0.00319 0.0
H194 H 0.55881 0.17565 0.01152 0.0
O195 O 0.63431 0.18817 0.85935 0.0
O196 O 0.62778 0.05913 0.82629 0.0
H197 H 0.56506 0.88607 0.87942 0.0
H198 H 0.53928 0.87496 0.92273 0.0
C199 C 0.56344 0.88724 0.91339 0.0
H200 H 0.57773 0.83168 0.92581 0.0
H201 H 0.60484 0.85681 0.80647 0.0
O202 O 0.63131 0.29346 0.93823 0.0
C203 C 0.63027 0.14492 0.82616 0.0
Co204 Co 0.87181 0.67097 0.58202 0.0
Co205 Co 0.8781 0.48315 0.62468 0.0
C206 C 0.81927 0.54695 0.58138 0.0
O207 O 0.83013 0.6222 0.56927 0.0
O208 O 0.8355 0.49252 0.60251 0.0
C209 C 0.85682 0.85009 0.5737 0.0
O210 O 0.83071 0.81739 0.58757 0.0
C211 C 0.87496 0.29176 0.61112 0.0
C212 C 0.89566 0.23108 0.66648 0.0
C213 C 0.88239 0.21023 0.62893 0.0
N214 N 0.88322 0.35833 0.63677 0.0
N215 N 0.89555 0.3218 0.66998 0.0
C216 C 0.86315 0.3062 0.56844 0.0
H217 H 0.8668 0.37682 0.55843 0.0
H218 H 0.87492 0.25968 0.54683 0.0
H219 H 0.83824 0.29047 0.56747 0.0
C220 C 0.92751 0.60445 0.53823 0.0
N221 N 0.90411 0.59377 0.56495 0.0
N222 N 0.90773 0.5171 0.58467 0.0
C223 C 0.93389 0.47726 0.5717 0.0
C224 C 0.94722 0.53097 0.54173 0.0
C225 C 0.93206 0.68709 0.51267 0.0
H226 H 0.9389 0.74372 0.53297 0.0
H227 H 0.91 0.70586 0.49773 0.0
H228 H 0.95017 0.67704 0.48908 0.0
O229 O 0.87494 0.69025 0.64156 0.0
O230 O 0.88165 0.56132 0.67469 0.0
H231 H 0.94415 0.38845 0.62182 0.0
H232 H 0.97015 0.37746 0.57873 0.0
C233 C 0.94593 0.38952 0.58786 0.0
H234 H 0.9318 0.33375 0.57537 0.0
H235 H 0.90412 0.35864 0.69477 0.0
O236 O 0.87783 0.79557 0.56269 0.0
C237 C 0.87912 0.6471 0.67477 0.0
Co238 Co 0.63904 0.32789 0.58228 0.0
Co239 Co 0.63182 0.51469 0.62461 0.0
C240 C 0.69097 0.45257 0.58173 0.0
O241 O 0.68029 0.37763 0.56911 0.0
O242 O 0.67464 0.50565 0.60329 0.0
C243 C 0.63205 0.13403 0.54067 0.0
O244 O 0.62951 0.1435 0.50071 0.0
C245 C 0.62933 0.70253 0.60395 0.0
C246 C 0.61823 0.77162 0.66208 0.0
C247 C 0.62388 0.7869 0.62066 0.0
N248 N 0.62647 0.64039 0.63374 0.0
N249 N 0.61985 0.68189 0.66853 0.0
C250 C 0.63844 0.68088 0.56062 0.0
H251 H 0.64811 0.61223 0.55816 0.0
H252 H 0.61787 0.68332 0.5405 0.0
H253 H 0.65541 0.73083 0.54917 0.0
C254 C 0.58232 0.3911 0.5387 0.0
N255 N 0.60604 0.40271 0.56491 0.0
N256 N 0.60181 0.47799 0.58548 0.0
C257 C 0.57473 0.51503 0.57414 0.0
C258 C 0.56168 0.46193 0.54373 0.0
C259 C 0.57837 0.31001 0.51201 0.0
H260 H 0.57631 0.24929 0.5317 0.0
H261 H 0.59912 0.30181 0.49252 0.0
H262 H 0.55761 0.31535 0.4923 0.0
O263 O 0.63575 0.31009 0.6422 0.0
O264 O 0.62834 0.43902 0.67522 0.0
H265 H 0.56801 0.60373 0.62563 0.0
H266 H 0.53577 0.59896 0.59095 0.0
C267 C 0.5612 0.59839 0.59293 0.0
H268 H 0.56965 0.65841 0.57614 0.0
H269 H 0.61659 0.64919 0.69656 0.0
O270 O 0.63502 0.20271 0.56348 0.0
C271 C 0.63123 0.35329 0.67537 0.0
C272 C 0.24539 0.09479 0.07294 0.0
C273 C 0.22269 0.02747 0.0735 0.0
H274 H 0.29368 0.12449 0.07537 0.0
C275 C 0.23185 0.93658 0.07179 0.0
H276 H 0.23904 0.16534 0.07447 0.0
C277 C 0.26303 0.91315 0.07145 0.0
C278 C 0.28571 0.9802 0.07391 0.0
H279 H 0.21491 0.88331 0.07216 0.0
H280 H 0.26931 0.84247 0.07177 0.0
C281 C 0.27663 0.07133 0.07367 0.0
C282 C 0.26417 0.59346 0.4285 0.0
C283 C 0.28681 0.52591 0.42757 0.0
H284 H 0.21589 0.62373 0.42645 0.0
C285 C 0.27758 0.43509 0.429 0.0
H286 H 0.27057 0.66397 0.42719 0.0
C287 C 0.24637 0.412 0.42946 0.0
C288 C 0.22375 0.47934 0.42738 0.0
H289 H 0.29448 0.38162 0.42833 0.0
H290 H 0.24003 0.3414 0.42892 0.0
C291 C 0.2329 0.57036 0.42787 0.0
C292 C 0.76376 0.91022 0.92871 0.0
C293 C 0.78604 0.97851 0.92646 0.0
H294 H 0.71577 0.87792 0.92786 0.0
C295 C 0.77634 0.06904 0.92682 0.0
H296 H 0.77049 0.83989 0.92823 0.0
C297 C 0.745 0.09088 0.92767 0.0
C298 C 0.72271 0.0225 0.92698 0.0
H299 H 0.79293 0.12312 0.92505 0.0
H300 H 0.73826 0.16115 0.92629 0.0
C301 C 0.73241 0.93204 0.92839 0.0
C302 C 0.73264 0.56787 0.57373 0.0
C303 C 0.72354 0.47681 0.57435 0.0
H304 H 0.77024 0.6617 0.57424 0.0
C305 C 0.74621 0.40958 0.57237 0.0
H306 H 0.71559 0.62116 0.57507 0.0
C307 C 0.7774 0.43284 0.57279 0.0
C308 C 0.78658 0.52372 0.57406 0.0
H309 H 0.7399 0.33895 0.57301 0.0
H310 H 0.79433 0.37946 0.57354 0.0
C311 C 0.76389 0.59114 0.57305 0.0
C312 C 0.03155 0.01427 0.9775 0.0
C313 C 0.03229 0.02155 0.02042 0.0
H314 H 1.00371 0.9905 0.92413 0.0
C315 C 0.0049 0.0113 0.04284 0.0
H316 H 0.05249 0.02132 0.95971 0.0
C317 C 0.97715 0.99343 0.02263 0.0
C318 C 0.97641 0.98613 0.97972 0.0
H319 H 0.005 0.01719 0.076 0.0
H320 H 0.95622 0.98634 0.04042 0.0
C321 C 1.00381 0.99641 0.95729 0.0
C322 C 0.50482 0.98083 0.04382 0.0
C323 C 0.47701 0.97698 0.02188 0.0
H324 H 0.55371 0.00187 0.04092 0.0
C325 C 0.47729 0.99022 0.97924 0.0
H326 H 0.50514 0.96943 0.07668 0.0
C327 C 0.50496 0.0082 0.95889 0.0
C328 C 0.5327 0.01305 0.98092 0.0
H329 H 0.45606 0.98772 0.9618 0.0
H330 H 0.50474 0.01855 0.92596 0.0
C331 C 0.53247 -0.00065 0.02351 0.0
C332 C 0.00452 0.48205 0.45733 0.0
C333 C 0.03231 0.47822 0.47935 0.0
H334 H 0.95563 0.50329 0.46009 0.0
C335 C 0.03198 0.49183 0.52196 0.0
H336 H 0.00425 0.47042 0.4245 0.0
C337 C 0.00428 0.51013 0.54221 0.0
C338 C 0.97657 0.5149 0.52011 0.0
H339 H 0.05319 0.48937 0.53944 0.0
H340 H 0.00447 0.52075 0.57512 0.0
C341 C 0.97685 0.50085 0.47755 0.0
C342 C 0.47687 0.50107 0.52352 0.0
C343 C 0.47674 0.5157 0.481 0.0
H344 H 0.50403 0.46947 0.57667 0.0
C345 C 0.50452 0.51081 0.45906 0.0
H346 H 0.45559 0.50357 0.54085 0.0
C347 C 0.53212 0.49183 0.47945 0.0
C348 C 0.53229 0.47762 0.52202 0.0
H349 H 0.50482 0.52183 0.42618 0.0
H350 H 0.55338 0.48931 0.46209 0.0
C351 C 0.50444 0.48157 0.54387 0.0
C352 C 0.12933 0.34798 0.24903 0.0
C353 C 0.12982 0.30447 0.28724 0.0
H354 H 0.12916 0.33372 0.18377 0.0
C355 C 0.12937 0.20934 0.28821 0.0
H356 H 0.12959 0.42087 0.2471 0.0
C357 C 0.12903 0.15899 0.2519 0.0
C358 C 0.12927 0.20249 0.21368 0.0
H359 H 0.12949 0.17331 0.31714 0.0
H360 H 0.12907 0.08609 0.25382 0.0
C361 C 0.12914 0.29765 0.21271 0.0
C362 C 0.38035 0.6579 0.24917 0.0
C363 C 0.38015 0.70103 0.28746 0.0
H364 H 0.37984 0.67281 0.18397 0.0
C365 C 0.38027 0.79619 0.2886 0.0
H366 H 0.38032 0.58502 0.24711 0.0
C367 C 0.38004 0.84687 0.25237 0.0
C368 C 0.37953 0.80371 0.21408 0.0
H369 H 0.38028 0.83198 0.3176 0.0
H370 H 0.37978 0.91975 0.25441 0.0
C371 C 0.37998 0.70858 0.21295 0.0
C372 C 0.88061 0.70798 0.78799 0.0
C373 C 0.88027 0.80313 0.78667 0.0
H374 H 0.8807 0.58413 0.75405 0.0
C375 C 0.88071 0.84597 0.7483 0.0
H376 H 0.88045 0.6724 0.81705 0.0
C377 C 0.88077 0.79496 0.71217 0.0
C378 C 0.88054 0.69981 0.71349 0.0
H379 H 0.88052 0.91882 0.74612 0.0
H380 H 0.88073 0.83051 0.6831 0.0
C381 C 0.88083 0.65699 0.75186 0.0
C382 C 0.6287 0.15464 0.74903 0.0
C383 C 0.62899 0.19753 0.78738 0.0
H384 H 0.6291 0.16998 0.68385 0.0
C385 C 0.6289 0.29269 0.78864 0.0
H386 H 0.6287 0.08178 0.74689 0.0
C387 C 0.62909 0.34361 0.75247 0.0
C388 C 0.62953 0.30069 0.71413 0.0
H389 H 0.62896 0.32832 0.81768 0.0
H390 H 0.62939 0.41646 0.75462 0.0
C391 C 0.62903 0.20557 0.71287 0.0
C392 C 0.16264 0.60022 0.09892 0.0
C393 C 0.13292 0.62364 0.11207 0.0
H394 H 0.19217 0.49582 0.07614 0.0
C395 C 0.10915 0.56006 0.10938 0.0
H396 H 0.1814 0.64804 0.10118 0.0
C397 C 0.11512 0.47372 0.09406 0.0
C398 C 0.14515 0.44914 0.08226 0.0
H399 H 0.08605 0.57707 0.11928 0.0
H400 H 0.09657 0.42497 0.09336 0.0
C401 C 0.16878 0.5134 0.08453 0.0
C402 C 0.37207 0.4522 0.12083 0.0
C403 C 0.38389 0.3777 0.09956 0.0
H404 H 0.35997 0.59162 0.11867 0.0
C405 C 0.39378 0.38911 0.05872 0.0
H406 H 0.36442 0.44571 0.15236 0.0
C407 C 0.39084 0.4725 0.03908 0.0
C408 C 0.37861 0.54661 0.06025 0.0
H409 H 0.40441 0.33446 0.04203 0.0
H410 H 0.39873 0.47936 0.00769 0.0
C411 C 0.36943 0.53567 0.10141 0.0
C412 C 0.11843 0.97276 0.4623 0.0
C413 C 0.13059 0.04693 0.44115 0.0
H414 H 0.10498 0.83466 0.45934 0.0
C415 C 0.13978 0.03609 0.39999 0.0
H416 H 0.11053 0.97954 0.4937 0.0
C417 C 0.13722 0.95264 0.38056 0.0
C418 C 0.12548 0.87806 0.40183 0.0
H419 H 0.1492 0.0921 0.38274 0.0
H420 H 0.14488 0.94622 0.34903 0.0
C421 C 0.11556 0.88938 0.44266 0.0
C422 C 0.341 0.01146 0.41742 0.0
C423 C 0.36461 0.94695 0.41919 0.0
H424 H 0.32827 0.14624 0.40105 0.0
C425 C 0.39452 0.97131 0.40685 0.0
H426 H 0.31769 0.99405 0.42623 0.0
C427 C 0.40037 0.05766 0.39145 0.0
C428 C 0.37662 0.12149 0.38923 0.0
H429 H 0.41305 0.92237 0.40716 0.0
H430 H 0.42337 0.07446 0.3811 0.0
C431 C 0.34703 0.09828 0.40296 0.0
C432 C 0.84 0.4934 0.91564 0.0
C433 C 0.86365 0.55763 0.91781 0.0
H434 H 0.8273 0.35879 0.89903 0.0
C435 C 0.89363 0.53302 0.90582 0.0
H436 H 0.81664 0.51102 0.92416 0.0
C437 C 0.89953 0.44668 0.89044 0.0
C438 C 0.87575 0.3831 0.88787 0.0
H439 H 0.91219 0.58175 0.90643 0.0
H440 H 0.9226 0.42967 0.88041 0.0
C441 C 0.84607 0.40657 0.9012 0.0
C442 C 0.60898 0.55391 0.89138 0.0
C443 C 0.63274 0.61761 0.88897 0.0
H444 H 0.59635 0.41872 0.90722 0.0
C445 C 0.66239 0.59424 0.90248 0.0
H446 H 0.58594 0.57083 0.8812 0.0
C447 C 0.66847 0.5074 0.91692 0.0
C448 C 0.64485 0.44303 0.91889 0.0
H449 H 0.68114 0.64211 0.90043 0.0
H450 H 0.69181 0.48987 0.92556 0.0
C451 C 0.61489 0.46755 0.90676 0.0
C452 C 0.84078 0.00977 0.58406 0.0
C453 C 0.86437 0.94522 0.58212 0.0
H454 H 0.82815 0.14456 0.60052 0.0
C455 C 0.89433 0.96952 0.59428 0.0
H456 H 0.81743 0.99241 0.57541 0.0
C457 C 0.90027 0.05585 0.60965 0.0
C458 C 0.87654 0.11973 0.61202 0.0
H459 H 0.91285 0.92055 0.59384 0.0
H460 H 0.92331 0.0726 0.61985 0.0
C461 C 0.84689 0.09657 0.59849 0.0
C462 C 0.63708 0.95045 0.62107 0.0
C463 C 0.62533 0.87567 0.59994 0.0
H464 H 0.64892 0.09003 0.61866 0.0
C465 C 0.61525 0.88678 0.55916 0.0
H466 H 0.64485 0.94421 0.65256 0.0
C467 C 0.61796 0.97011 0.53942 0.0
C468 C 0.63014 0.04448 0.56041 0.0
H469 H 0.60466 0.83191 0.54259 0.0
H470 H 0.60994 0.97667 0.50806 0.0
C471 C 0.63949 0.03388 0.60153 0.0
loop_
_geom_bond_atom_site_label_1
_geom_bond_atom_site_label_2
_geom_bond_distance
_geom_bond_site_symmetry_2
_ccdc_geom_bond_type
Co0 O3 1.970 . S
Co0 N17 1.989 . S
Co0 O25 1.967 . S
Co0 O32 1.920 . S
Co1 O4 1.966 . S
Co1 N10 2.022 . S
Co1 N18 1.993 1_565 S
Co1 O26 1.941 1_565 S
C2 O3 1.258 . S
C2 O4 1.263 1_545 S
O3 Co0 1.970 . S
O3 C2 1.258 . S
O4 Co1 1.966 . S
O4 C2 1.263 1_565 S
C5 O6 1.235 . S
C5 O32 1.289 . S
O6 C5 1.235 . S
C7 C9 1.400 . S
C7 N10 1.351 . S
C7 C12 1.501 . S
C8 C9 1.387 . S
C8 N11 1.341 . S
C9 C7 1.400 . S
C9 C8 1.387 . S
N10 Co1 2.022 . S
N10 C7 1.351 . S
N10 N11 1.365 . S
N11 C8 1.341 . S
N11 N10 1.365 . S
N11 H31 0.862 . S
C12 C7 1.501 . S
C12 H13 0.961 . S
C12 H14 0.961 . S
C12 H15 0.960 . S
H13 C12 0.961 . S
H14 C12 0.961 . S
H15 C12 0.960 . S
C16 N17 1.342 . S
C16 C20 1.401 . S
C16 C21 1.499 . S
N17 Co0 1.989 . S
N17 C16 1.342 . S
N17 N18 1.388 . S
N18 Co1 1.993 1_545 S
N18 N17 1.388 . S
N18 C19 1.346 1_545 S
C19 N18 1.346 1_565 S
C19 C20 1.396 1_565 S
C19 C29 1.510 . S
C20 C16 1.401 . S
C20 C19 1.396 1_545 S
C21 C16 1.499 . S
C21 H22 0.959 . S
C21 H23 0.960 . S
C21 H24 0.961 . S
H22 C21 0.959 . S
H23 C21 0.960 . S
H24 C21 0.961 . S
O25 Co0 1.967 . S
O25 C33 1.258 . S
O26 Co1 1.941 1_545 S
O26 C33 1.266 . S
H27 C29 0.959 . S
H28 C29 0.961 . S
C29 C19 1.510 . S
C29 H27 0.959 . S
C29 H28 0.961 . S
C29 H30 0.960 . S
H30 C29 0.960 . S
H31 N11 0.862 . S
O32 Co0 1.920 . S
O32 C5 1.289 . S
C33 O25 1.258 . S
C33 O26 1.266 . S
Co34 O37 1.970 . S
Co34 N51 1.989 . S
Co34 O59 1.967 . S
Co34 O66 1.920 . S
Co35 O38 1.966 . S
Co35 N44 2.022 . S
Co35 N52 1.993 1_545 S
Co35 O60 1.941 1_545 S
C36 O37 1.258 . S
C36 O38 1.263 1_565 S
O37 Co34 1.970 . S
O37 C36 1.258 . S
O38 Co35 1.966 . S
O38 C36 1.263 1_545 S
C39 O40 1.235 . S
C39 O66 1.289 . S
O40 C39 1.235 . S
C41 C43 1.400 . S
C41 N44 1.351 . S
C41 C46 1.501 . S
C42 C43 1.387 . S
C42 N45 1.341 . S
C43 C41 1.400 . S
C43 C42 1.387 . S
N44 Co35 2.022 . S
N44 C41 1.351 . S
N44 N45 1.365 . S
N45 C42 1.341 . S
N45 N44 1.365 . S
N45 H65 0.862 . S
C46 C41 1.501 . S
C46 H47 0.961 . S
C46 H48 0.961 . S
C46 H49 0.960 . S
H47 C46 0.961 . S
H48 C46 0.961 . S
H49 C46 0.960 . S
C50 N51 1.342 . S
C50 C54 1.401 . S
C50 C55 1.499 . S
N51 Co34 1.989 . S
N51 C50 1.342 . S
N51 N52 1.388 . S
N52 Co35 1.993 1_565 S
N52 N51 1.388 . S
N52 C53 1.346 1_565 S
C53 N52 1.346 1_545 S
C53 C54 1.396 1_545 S
C53 C63 1.510 . S
C54 C50 1.401 . S
C54 C53 1.396 1_565 S
C55 C50 1.499 . S
C55 H56 0.959 . S
C55 H57 0.960 . S
C55 H58 0.961 . S
H56 C55 0.959 . S
H57 C55 0.960 . S
H58 C55 0.961 . S
O59 Co34 1.967 . S
O59 C67 1.258 . S
O60 Co35 1.941 1_565 S
O60 C67 1.266 . S
H61 C63 0.959 . S
H62 C63 0.961 . S
C63 C53 1.510 . S
C63 H61 0.959 . S
C63 H62 0.961 . S
C63 H64 0.960 . S
H64 C63 0.960 . S
H65 N45 0.862 . S
O66 Co34 1.920 . S
O66 C39 1.289 . S
C67 O59 1.258 . S
C67 O60 1.266 . S
Co68 O71 1.970 . S
Co68 N85 1.989 . S
Co68 O93 1.967 . S
Co68 O100 1.920 . S
Co69 O72 1.966 . S
Co69 N78 2.022 . S
Co69 N86 1.993 . S
Co69 O94 1.941 . S
C70 O71 1.258 . S
C70 O72 1.263 . S
O71 Co68 1.970 . S
O71 C70 1.258 . S
O72 Co69 1.966 . S
O72 C70 1.263 . S
C73 O74 1.235 . S
C73 O100 1.289 . S
O74 C73 1.235 . S
C75 C77 1.400 . S
C75 N78 1.351 . S
C75 C80 1.501 . S
C76 C77 1.387 . S
C76 N79 1.341 . S
C77 C75 1.400 . S
C77 C76 1.387 . S
N78 Co69 2.022 . S
N78 C75 1.351 . S
N78 N79 1.365 . S
N79 C76 1.341 . S
N79 N78 1.365 . S
N79 H99 0.862 . S
C80 C75 1.501 . S
C80 H81 0.961 . S
C80 H82 0.961 . S
C80 H83 0.960 . S
H81 C80 0.961 . S
H82 C80 0.961 . S
H83 C80 0.960 . S
C84 N85 1.342 . S
C84 C88 1.401 . S
C84 C89 1.499 . S
N85 Co68 1.989 . S
N85 C84 1.342 . S
N85 N86 1.388 . S
N86 Co69 1.993 . S
N86 N85 1.388 . S
N86 C87 1.346 . S
C87 N86 1.346 . S
C87 C88 1.396 . S
C87 C97 1.510 . S
C88 C84 1.401 . S
C88 C87 1.396 . S
C89 C84 1.499 . S
C89 H90 0.959 . S
C89 H91 0.960 . S
C89 H92 0.961 . S
H90 C89 0.959 . S
H91 C89 0.960 . S
H92 C89 0.961 . S
O93 Co68 1.967 . S
O93 C101 1.258 . S
O94 Co69 1.941 . S
O94 C101 1.266 . S
H95 C97 0.959 . S
H96 C97 0.961 . S
C97 C87 1.510 . S
C97 H95 0.959 . S
C97 H96 0.961 . S
C97 H98 0.960 . S
H98 C97 0.960 . S
H99 N79 0.862 . S
O100 Co68 1.920 . S
O100 C73 1.289 . S
C101 O93 1.258 . S
C101 O94 1.266 . S
Co102 O105 1.970 . S
Co102 N119 1.989 . S
Co102 O127 1.967 . S
Co102 O134 1.920 . S
Co103 O106 1.966 . S
Co103 N112 2.022 . S
Co103 N120 1.993 . S
Co103 O128 1.941 . S
C104 O105 1.258 . S
C104 O106 1.263 . S
O105 Co102 1.970 . S
O105 C104 1.258 . S
O106 Co103 1.966 . S
O106 C104 1.263 . S
C107 O108 1.235 . S
C107 O134 1.289 . S
O108 C107 1.235 . S
C109 C111 1.400 . S
C109 N112 1.351 . S
C109 C114 1.501 . S
C110 C111 1.387 . S
C110 N113 1.341 . S
C111 C109 1.400 . S
C111 C110 1.387 . S
N112 Co103 2.022 . S
N112 C109 1.351 . S
N112 N113 1.365 . S
N113 C110 1.341 . S
N113 N112 1.365 . S
N113 H133 0.862 . S
C114 C109 1.501 . S
C114 H115 0.961 . S
C114 H116 0.961 . S
C114 H117 0.960 . S
H115 C114 0.961 . S
H116 C114 0.961 . S
H117 C114 0.960 . S
C118 N119 1.342 . S
C118 C122 1.401 . S
C118 C123 1.499 . S
N119 Co102 1.989 . S
N119 C118 1.342 . S
N119 N120 1.388 . S
N120 Co103 1.993 . S
N120 N119 1.388 . S
N120 C121 1.346 . S
C121 N120 1.346 . S
C121 C122 1.396 . S
C121 C131 1.510 . S
C122 C118 1.401 . S
C122 C121 1.396 . S
C123 C118 1.499 . S
C123 H124 0.959 . S
C123 H125 0.960 . S
C123 H126 0.961 . S
H124 C123 0.959 . S
H125 C123 0.960 . S
H126 C123 0.961 . S
O127 Co102 1.967 . S
O127 C135 1.258 . S
O128 Co103 1.941 . S
O128 C135 1.266 . S
H129 C131 0.959 . S
H130 C131 0.961 . S
C131 C121 1.510 . S
C131 H129 0.959 . S
C131 H130 0.961 . S
C131 H132 0.960 . S
H132 C131 0.960 . S
H133 N113 0.862 . S
O134 Co102 1.920 . S
O134 C107 1.289 . S
C135 O127 1.258 . S
C135 O128 1.266 . S
Co136 O139 1.970 . S
Co136 N153 1.989 . S
Co136 O161 1.967 . S
Co136 O168 1.920 . S
Co137 O140 1.966 . S
Co137 N146 2.022 . S
Co137 N154 1.993 1_545 S
Co137 O162 1.941 1_545 S
C138 O139 1.258 . S
C138 O140 1.263 1_565 S
O139 Co136 1.970 . S
O139 C138 1.258 . S
O140 Co137 1.966 . S
O140 C138 1.263 1_545 S
C141 O142 1.235 . S
C141 O168 1.289 . S
O142 C141 1.235 . S
C143 C145 1.400 . S
C143 N146 1.351 . S
C143 C148 1.501 . S
C144 C145 1.387 . S
C144 N147 1.341 . S
C145 C143 1.400 . S
C145 C144 1.387 . S
N146 Co137 2.022 . S
N146 C143 1.351 . S
N146 N147 1.365 . S
N147 C144 1.341 . S
N147 N146 1.365 . S
N147 H167 0.862 . S
C148 C143 1.501 . S
C148 H149 0.961 . S
C148 H150 0.961 . S
C148 H151 0.960 . S
H149 C148 0.961 . S
H150 C148 0.961 . S
H151 C148 0.960 . S
C152 N153 1.342 . S
C152 C156 1.401 . S
C152 C157 1.499 . S
N153 Co136 1.989 . S
N153 C152 1.342 . S
N153 N154 1.388 . S
N154 Co137 1.993 1_565 S
N154 N153 1.388 . S
N154 C155 1.346 1_565 S
C155 N154 1.346 1_545 S
C155 C156 1.396 1_545 S
C155 C165 1.510 . S
C156 C152 1.401 . S
C156 C155 1.396 1_565 S
C157 C152 1.499 . S
C157 H158 0.959 . S
C157 H159 0.960 . S
C157 H160 0.961 . S
H158 C157 0.959 . S
H159 C157 0.960 . S
H160 C157 0.961 . S
O161 Co136 1.967 . S
O161 C169 1.258 . S
O162 Co137 1.941 1_565 S
O162 C169 1.266 . S
H163 C165 0.959 . S
H164 C165 0.961 . S
C165 C155 1.510 . S
C165 H163 0.959 . S
C165 H164 0.961 . S
C165 H166 0.960 . S
H166 C165 0.960 . S
H167 N147 0.862 . S
O168 Co136 1.920 . S
O168 C141 1.289 . S
C169 O161 1.258 . S
C169 O162 1.266 . S
Co170 O173 1.970 . S
Co170 N187 1.989 . S
Co170 O195 1.967 . S
Co170 O202 1.920 . S
Co171 O174 1.966 . S
Co171 N180 2.022 . S
Co171 N188 1.993 1_565 S
Co171 O196 1.941 1_565 S
C172 O173 1.258 . S
C172 O174 1.263 1_545 S
O173 Co170 1.970 . S
O173 C172 1.258 . S
O174 Co171 1.966 . S
O174 C172 1.263 1_565 S
C175 O176 1.235 . S
C175 O202 1.289 . S
O176 C175 1.235 . S
C177 C179 1.400 . S
C177 N180 1.351 . S
C177 C182 1.501 . S
C178 C179 1.387 . S
C178 N181 1.341 . S
C179 C177 1.400 . S
C179 C178 1.387 . S
N180 Co171 2.022 . S
N180 C177 1.351 . S
N180 N181 1.365 . S
N181 C178 1.341 . S
N181 N180 1.365 . S
N181 H201 0.862 . S
C182 C177 1.501 . S
C182 H183 0.961 . S
C182 H184 0.961 . S
C182 H185 0.960 . S
H183 C182 0.961 . S
H184 C182 0.961 . S
H185 C182 0.960 . S
C186 N187 1.342 . S
C186 C190 1.401 . S
C186 C191 1.499 . S
N187 Co170 1.989 . S
N187 C186 1.342 . S
N187 N188 1.388 . S
N188 Co171 1.993 1_545 S
N188 N187 1.388 . S
N188 C189 1.346 1_545 S
C189 N188 1.346 1_565 S
C189 C190 1.396 1_565 S
C189 C199 1.510 . S
C190 C186 1.401 . S
C190 C189 1.396 1_545 S
C191 C186 1.499 . S
C191 H192 0.959 . S
C191 H193 0.960 . S
C191 H194 0.961 . S
H192 C191 0.959 . S
H193 C191 0.960 . S
H194 C191 0.961 . S
O195 Co170 1.967 . S
O195 C203 1.258 . S
O196 Co171 1.941 1_545 S
O196 C203 1.266 . S
H197 C199 0.959 . S
H198 C199 0.961 . S
C199 C189 1.510 . S
C199 H197 0.959 . S
C199 H198 0.961 . S
C199 H200 0.960 . S
H200 C199 0.960 . S
H201 N181 0.862 . S
O202 Co170 1.920 . S
O202 C175 1.289 . S
C203 O195 1.258 . S
C203 O196 1.266 . S
Co204 O207 1.970 . S
Co204 N221 1.989 . S
Co204 O229 1.967 . S
Co204 O236 1.920 . S
Co205 O208 1.966 . S
Co205 N214 2.022 . S
Co205 N222 1.993 . S
Co205 O230 1.941 . S
C206 O207 1.258 . S
C206 O208 1.263 . S
O207 Co204 1.970 . S
O207 C206 1.258 . S
O208 Co205 1.966 . S
O208 C206 1.263 . S
C209 O210 1.235 . S
C209 O236 1.289 . S
O210 C209 1.235 . S
C211 C213 1.400 . S
C211 N214 1.351 . S
C211 C216 1.501 . S
C212 C213 1.387 . S
C212 N215 1.341 . S
C213 C211 1.400 . S
C213 C212 1.387 . S
N214 Co205 2.022 . S
N214 C211 1.351 . S
N214 N215 1.365 . S
N215 C212 1.341 . S
N215 N214 1.365 . S
N215 H235 0.862 . S
C216 C211 1.501 . S
C216 H217 0.961 . S
C216 H218 0.961 . S
C216 H219 0.960 . S
H217 C216 0.961 . S
H218 C216 0.961 . S
H219 C216 0.960 . S
C220 N221 1.342 . S
C220 C224 1.401 . S
C220 C225 1.499 . S
N221 Co204 1.989 . S
N221 C220 1.342 . S
N221 N222 1.388 . S
N222 Co205 1.993 . S
N222 N221 1.388 . S
N222 C223 1.346 . S
C223 N222 1.346 . S
C223 C224 1.396 . S
C223 C233 1.510 . S
C224 C220 1.401 . S
C224 C223 1.396 . S
C225 C220 1.499 . S
C225 H226 0.959 . S
C225 H227 0.960 . S
C225 H228 0.961 . S
H226 C225 0.959 . S
H227 C225 0.960 . S
H228 C225 0.961 . S
O229 Co204 1.967 . S
O229 C237 1.258 . S
O230 Co205 1.941 . S
O230 C237 1.266 . S
H231 C233 0.959 . S
H232 C233 0.961 . S
C233 C223 1.510 . S
C233 H231 0.959 . S
C233 H232 0.961 . S
C233 H234 0.960 . S
H234 C233 0.960 . S
H235 N215 0.862 . S
O236 Co204 1.920 . S
O236 C209 1.289 . S
C237 O229 1.258 . S
C237 O230 1.266 . S
Co238 O241 1.970 . S
Co238 N255 1.989 . S
Co238 O263 1.967 . S
Co238 O270 1.920 . S
Co239 O242 1.966 . S
Co239 N248 2.022 . S
Co239 N256 1.993 . S
Co239 O264 1.941 . S
C240 O241 1.258 . S
C240 O242 1.263 . S
O241 Co238 1.970 . S
O241 C240 1.258 . S
O242 Co239 1.966 . S
O242 C240 1.263 . S
C243 O244 1.235 . S
C243 O270 1.289 . S
O244 C243 1.235 . S
C245 C247 1.400 . S
C245 N248 1.351 . S
C245 C250 1.501 . S
C246 C247 1.387 . S
C246 N249 1.341 . S
C247 C245 1.400 . S
C247 C246 1.387 . S
N248 Co239 2.022 . S
N248 C245 1.351 . S
N248 N249 1.365 . S
N249 C246 1.341 . S
N249 N248 1.365 . S
N249 H269 0.862 . S
C250 C245 1.501 . S
C250 H251 0.961 . S
C250 H252 0.961 . S
C250 H253 0.960 . S
H251 C250 0.961 . S
H252 C250 0.961 . S
H253 C250 0.960 . S
C254 N255 1.342 . S
C254 C258 1.401 . S
C254 C259 1.499 . S
N255 Co238 1.989 . S
N255 C254 1.342 . S
N255 N256 1.388 . S
N256 Co239 1.993 . S
N256 N255 1.388 . S
N256 C257 1.346 . S
C257 N256 1.346 . S
C257 C258 1.396 . S
C257 C267 1.510 . S
C258 C254 1.401 . S
C258 C257 1.396 . S
C259 C254 1.499 . S
C259 H260 0.959 . S
C259 H261 0.960 . S
C259 H262 0.961 . S
H260 C259 0.959 . S
H261 C259 0.960 . S
H262 C259 0.961 . S
O263 Co238 1.967 . S
O263 C271 1.258 . S
O264 Co239 1.941 . S
O264 C271 1.266 . S
H265 C267 0.959 . S
H266 C267 0.961 . S
C267 C257 1.510 . S
C267 H265 0.959 . S
C267 H266 0.961 . S
C267 H268 0.960 . S
H268 C267 0.960 . S
H269 N249 0.862 . S
O270 Co238 1.920 . S
O270 C243 1.289 . S
C271 O263 1.258 . S
C271 O264 1.266 . S
C272 C273 1.387 . S
C272 H276 0.950 . S
C272 C281 1.390 1_545 S
C273 C272 1.387 . S
C273 C275 1.387 . S
H274 C281 0.950 . S
C275 C273 1.387 . S
C275 C277 1.390 1_545 S
C275 H279 0.950 . S
H276 C272 0.950 . S
C277 C275 1.390 1_565 S
C277 C278 1.387 . S
C277 H280 0.950 . S
C278 C277 1.387 . S
C278 C281 1.387 . S
H279 C275 0.950 . S
H280 C277 0.950 . S
C281 C272 1.390 1_565 S
C281 H274 0.950 . S
C281 C278 1.387 . S
C282 C283 1.387 . S
C282 H286 0.950 . S
C282 C291 1.390 . S
C283 C282 1.387 . S
C283 C285 1.387 . S
H284 C291 0.950 . S
C285 C283 1.387 . S
C285 C287 1.390 . S
C285 H289 0.950 . S
H286 C282 0.950 . S
C287 C285 1.390 . S
C287 C288 1.387 . S
C287 H290 0.950 . S
C288 C287 1.387 . S
C288 C291 1.387 . S
H289 C285 0.950 . S
H290 C287 0.950 . S
C291 C282 1.390 . S
C291 H284 0.950 . S
C291 C288 1.387 . S
C292 C293 1.387 . S
C292 H296 0.950 . S
C292 C301 1.390 1_565 S
C293 C292 1.387 . S
C293 C295 1.387 . S
H294 C301 0.950 . S
C295 C293 1.387 . S
C295 C297 1.390 1_565 S
C295 H299 0.950 . S
H296 C292 0.950 . S
C297 C295 1.390 1_545 S
C297 C298 1.387 . S
C297 H300 0.950 . S
C298 C297 1.387 . S
C298 C301 1.387 . S
H299 C295 0.950 . S
H300 C297 0.950 . S
C301 C292 1.390 1_545 S
C301 H294 0.950 . S
C301 C298 1.387 . S
C302 C303 1.387 . S
C302 H306 0.950 . S
C302 C311 1.390 . S
C303 C302 1.387 . S
C303 C305 1.387 . S
H304 C311 0.950 . S
C305 C303 1.387 . S
C305 C307 1.390 . S
C305 H309 0.950 . S
H306 C302 0.950 . S
C307 C305 1.390 . S
C307 C308 1.387 . S
C307 H310 0.950 . S
C308 C307 1.387 . S
C308 C311 1.387 . S
H309 C305 0.950 . S
H310 C307 0.950 . S
C311 C302 1.390 . S
C311 H304 0.950 . S
C311 C308 1.387 . S
C312 C313 1.387 1_556 S
C312 H316 0.950 . S
C312 C321 1.390 1_455 S
C313 C312 1.387 1_554 S
C313 C315 1.387 1_545 S
H314 C321 0.950 . S
C315 C313 1.387 1_565 S
C315 C317 1.390 1_455 S
C315 H319 0.950 . S
H316 C312 0.950 . S
C317 C315 1.390 1_655 S
C317 C318 1.387 1_554 S
C317 H320 0.950 . S
C318 C317 1.387 1_556 S
C318 C321 1.387 1_565 S
H319 C315 0.950 . S
H320 C317 0.950 . S
C321 C312 1.390 1_655 S
C321 H314 0.950 . S
C321 C318 1.387 1_545 S
C322 C323 1.387 1_545 S
C322 H326 0.950 . S
C322 C331 1.391 . S
C323 C322 1.387 1_565 S
C323 C325 1.386 1_554 S
H324 C331 0.950 . S
C325 C323 1.386 1_556 S
C325 C327 1.391 . S
C325 H329 0.950 . S
H326 C322 0.950 . S
C327 C325 1.391 . S
C327 C328 1.387 1_565 S
C327 H330 0.950 . S
C328 C327 1.387 1_545 S
C328 C331 1.386 1_556 S
H329 C325 0.950 . S
H330 C327 0.950 . S
C331 C322 1.391 . S
C331 H324 0.950 . S
C331 C328 1.386 1_554 S
C332 C333 1.387 . S
C332 H336 0.950 . S
C332 C341 1.390 1_455 S
C333 C332 1.387 . S
C333 C335 1.387 . S
H334 C341 0.950 . S
C335 C333 1.387 . S
C335 C337 1.390 1_455 S
C335 H339 0.950 . S
H336 C332 0.950 . S
C337 C335 1.390 1_655 S
C337 C338 1.387 . S
C337 H340 0.950 . S
C338 C337 1.387 . S
C338 C341 1.387 . S
H339 C335 0.950 . S
H340 C337 0.950 . S
C341 C332 1.390 1_655 S
C341 H334 0.950 . S
C341 C338 1.387 . S
C342 C343 1.387 . S
C342 H346 0.950 . S
C342 C351 1.390 . S
C343 C342 1.387 . S
C343 C345 1.387 . S
H344 C351 0.950 . S
C345 C343 1.387 . S
C345 C347 1.390 . S
C345 H349 0.950 . S
H346 C342 0.950 . S
C347 C345 1.390 . S
C347 C348 1.387 . S
C347 H350 0.950 . S
C348 C347 1.387 . S
C348 C351 1.387 . S
H349 C345 0.950 . S
H350 C347 0.950 . S
C351 C342 1.390 . S
C351 H344 0.950 . S
C351 C348 1.387 . S
C352 C353 1.387 . S
C352 H356 0.950 . S
C352 C361 1.390 . S
C353 C352 1.387 . S
C353 C355 1.387 . S
H354 C361 0.950 . S
C355 C353 1.387 . S
C355 C357 1.390 . S
C355 H359 0.950 . S
H356 C352 0.950 . S
C357 C355 1.390 . S
C357 C358 1.387 . S
C357 H360 0.950 . S
C358 C357 1.387 . S
C358 C361 1.387 . S
H359 C355 0.950 . S
H360 C357 0.950 . S
C361 C352 1.390 . S
C361 H354 0.950 . S
C361 C358 1.387 . S
C362 C363 1.387 . S
C362 H366 0.950 . S
C362 C371 1.390 . S
C363 C362 1.387 . S
C363 C365 1.387 . S
H364 C371 0.950 . S
C365 C363 1.387 . S
C365 C367 1.390 . S
C365 H369 0.950 . S
H366 C362 0.950 . S
C367 C365 1.390 . S
C367 C368 1.387 . S
C367 H370 0.950 . S
C368 C367 1.387 . S
C368 C371 1.387 . S
H369 C365 0.950 . S
H370 C367 0.950 . S
C371 C362 1.390 . S
C371 H364 0.950 . S
C371 C368 1.387 . S
C372 C373 1.387 . S
C372 H376 0.950 . S
C372 C381 1.390 . S
C373 C372 1.387 . S
C373 C375 1.387 . S
H374 C381 0.950 . S
C375 C373 1.387 . S
C375 C377 1.390 . S
C375 H379 0.950 . S
H376 C372 0.950 . S
C377 C375 1.390 . S
C377 C378 1.387 . S
C377 H380 0.950 . S
C378 C377 1.387 . S
C378 C381 1.387 . S
H379 C375 0.950 . S
H380 C377 0.950 . S
C381 C372 1.390 . S
C381 H374 0.950 . S
C381 C378 1.387 . S
C382 C383 1.387 . S
C382 H386 0.950 . S
C382 C391 1.390 . S
C383 C382 1.387 . S
C383 C385 1.387 . S
H384 C391 0.950 . S
C385 C383 1.387 . S
C385 C387 1.390 . S
C385 H389 0.950 . S
H386 C382 0.950 . S
C387 C385 1.390 . S
C387 C388 1.387 . S
C387 H390 0.950 . S
C388 C387 1.387 . S
C388 C391 1.387 . S
H389 C385 0.950 . S
H390 C387 0.950 . S
C391 C382 1.390 . S
C391 H384 0.950 . S
C391 C388 1.387 . S
C392 C393 1.387 . S
C392 H396 0.950 . S
C392 C401 1.390 . S
C393 C392 1.387 . S
C393 C395 1.387 . S
H394 C401 0.950 . S
C395 C393 1.387 . S
C395 C397 1.390 . S
C395 H399 0.950 . S
H396 C392 0.950 . S
C397 C395 1.390 . S
C397 C398 1.387 . S
C397 H400 0.950 . S
C398 C397 1.387 . S
C398 C401 1.387 . S
H399 C395 0.950 . S
H400 C397 0.950 . S
C401 C392 1.390 . S
C401 H394 0.950 . S
C401 C398 1.387 . S
C402 C403 1.387 . S
C402 H406 0.950 . S
C402 C411 1.390 . S
C403 C402 1.387 . S
C403 C405 1.387 . S
H404 C411 0.950 . S
C405 C403 1.387 . S
C405 C407 1.390 . S
C405 H409 0.950 . S
H406 C402 0.950 . S
C407 C405 1.390 . S
C407 C408 1.387 . S
C407 H410 0.950 . S
C408 C407 1.387 . S
C408 C411 1.387 . S
H409 C405 0.950 . S
H410 C407 0.950 . S
C411 C402 1.390 . S
C411 H404 0.950 . S
C411 C408 1.387 . S
C412 C413 1.387 1_565 S
C412 H416 0.950 1_565 S
C412 C421 1.390 . S
C413 C412 1.387 1_545 S
C413 C415 1.387 . S
H414 C421 0.950 . S
C415 C413 1.387 . S
C415 C417 1.390 1_545 S
C415 H419 0.950 . S
H416 C412 0.950 1_545 S
C417 C415 1.390 1_565 S
C417 C418 1.387 . S
C417 H420 0.950 . S
C418 C417 1.387 . S
C418 C421 1.387 . S
H419 C415 0.950 . S
H420 C417 0.950 . S
C421 C412 1.390 . S
C421 H414 0.950 . S
C421 C418 1.387 . S
C422 C423 1.381 1_545 S
C422 H426 0.948 1_545 S
C422 C431 1.399 . S
C423 C422 1.381 1_565 S
C423 C425 1.387 . S
H424 C431 0.950 . S
C425 C423 1.387 . S
C425 C427 1.390 1_565 S
C425 H429 0.950 . S
H426 C422 0.948 1_565 S
C427 C425 1.390 1_545 S
C427 C428 1.387 . S
C427 H430 0.950 . S
C428 C427 1.387 . S
C428 C431 1.387 . S
H429 C425 0.950 . S
H430 C427 0.950 . S
C431 C422 1.399 . S
C431 H424 0.950 . S
C431 C428 1.387 . S
C432 C433 1.387 . S
C432 H436 0.950 . S
C432 C441 1.390 . S
C433 C432 1.387 . S
C433 C435 1.387 . S
H434 C441 0.950 . S
C435 C433 1.387 . S
C435 C437 1.390 . S
C435 H439 0.950 . S
H436 C432 0.950 . S
C437 C435 1.390 . S
C437 C438 1.387 . S
C437 H440 0.950 . S
C438 C437 1.387 . S
C438 C441 1.387 . S
H439 C435 0.950 . S
H440 C437 0.950 . S
C441 C432 1.390 . S
C441 H434 0.950 . S
C441 C438 1.387 . S
C442 C443 1.387 . S
C442 H446 0.950 . S
C442 C451 1.390 . S
C443 C442 1.387 . S
C443 C445 1.387 . S
H444 C451 0.950 . S
C445 C443 1.387 . S
C445 C447 1.390 . S
C445 H449 0.950 . S
H446 C442 0.950 . S
C447 C445 1.390 . S
C447 C448 1.387 . S
C447 H450 0.950 . S
C448 C447 1.387 . S
C448 C451 1.387 . S
H449 C445 0.950 . S
H450 C447 0.950 . S
C451 C442 1.390 . S
C451 H444 0.950 . S
C451 C448 1.387 . S
C452 C453 1.387 . S
C452 H456 0.950 . S
C452 C461 1.390 1_565 S
C453 C452 1.387 . S
C453 C455 1.387 . S
H454 C461 0.950 . S
C455 C453 1.387 . S
C455 C457 1.390 1_565 S
C455 H459 0.950 . S
H456 C452 0.950 . S
C457 C455 1.390 1_545 S
C457 C458 1.387 . S
C457 H460 0.950 . S
C458 C457 1.387 . S
C458 C461 1.387 . S
H459 C455 0.950 . S
H460 C457 0.950 . S
C461 C452 1.390 1_545 S
C461 H454 0.950 . S
C461 C458 1.387 . S
C462 C463 1.387 . S
C462 H466 0.950 . S
C462 C471 1.390 1_565 S
C463 C462 1.387 . S
C463 C465 1.387 . S
H464 C471 0.950 . S
C465 C463 1.387 . S
C465 C467 1.390 1_565 S
C465 H469 0.950 . S
H466 C462 0.950 . S
C467 C465 1.390 1_545 S
C467 C468 1.387 . S
C467 H470 0.950 . S
C468 C467 1.387 . S
C468 C471 1.387 . S
H469 C465 0.950 . S
H470 C467 0.950 . S
C471 C462 1.390 1_545 S
C471 H464 0.950 . S
C471 C468 1.387 . S
C273 C2 1.596 . S
C278 C36 1.596 . S
C283 C104 1.596 . S
C288 C70 1.596 . S
C293 C138 1.596 . S
C298 C172 1.596 . S
C303 C240 1.594 . S
C308 C206 1.594 . S
C313 C20 1.557 . S
C318 C156 1.557 . S
C323 C54 1.557 . S
C328 C190 1.557 . S
C333 C88 1.556 . S
C338 C224 1.556 . S
C343 C122 1.557 . S
C348 C258 1.557 . S
C353 C101 1.678 . S
C358 C33 1.678 . S
C363 C135 1.681 . S
C368 C67 1.681 . S
C373 C169 1.678 . S
C378 C237 1.678 . S
C383 C203 1.678 . S
C388 C271 1.678 . S
C393 C9 1.402 . S
C398 C5 1.372 . S
C403 C43 1.402 . S
C408 C39 1.372 . S
C413 C73 1.374 . S
C418 C77 1.401 . S
C423 C107 1.372 . S
C428 C111 1.401 . S
C433 C141 1.374 . S
C438 C145 1.402 . S
C443 C179 1.402 . S
C448 C175 1.372 . S
C453 C209 1.374 . S
C458 C213 1.402 . S
C463 C247 1.401 . S
C468 C243 1.374 . S
