# Generated by pormake.
# Topology unj, (4)-cn, num edge types: 1
# Building blocks:
#     Node 0, Type 0, BuildingBlock: TATPOV_clean_sbu_0, # of connection points: 4
#     Node 1, Type 0, BuildingBlock: TATPOV_clean_sbu_0, # of connection points: 4
#     Node 2, Type 0, BuildingBlock: TATPOV_clean_sbu_0, # of connection points: 4
#     Node 3, Type 0, BuildingBlock: TATPOV_clean_sbu_0, # of connection points: 4
#     Node 4, Type 0, BuildingBlock: TATPOV_clean_sbu_0, # of connection points: 4
#     Node 5, Type 0, BuildingBlock: TATPOV_clean_sbu_0, # of connection points: 4
#     Edge 6, Type (0, 0), BuildingBlock: TEMPAE_clean_linker_10, # of connection points: 2
#     Edge 7, Type (0, 0), BuildingBlock: TEMPAE_clean_linker_10, # of connection points: 2
#     Edge 8, Type (0, 0), BuildingBlock: TEMPAE_clean_linker_10, # of connection points: 2
#     Edge 9, Type (0, 0), BuildingBlock: TEMPAE_clean_linker_10, # of connection points: 2
#     Edge 10, Type (0, 0), BuildingBlock: TEMPAE_clean_linker_10, # of connection points: 2
#     Edge 11, Type (0, 0), BuildingBlock: TEMPAE_clean_linker_10, # of connection points: 2
#     Edge 12, Type (0, 0), BuildingBlock: TEMPAE_clean_linker_10, # of connection points: 2
#     Edge 13, Type (0, 0), BuildingBlock: TEMPAE_clean_linker_10, # of connection points: 2
#     Edge 14, Type (0, 0), BuildingBlock: TEMPAE_clean_linker_10, # of connection points: 2
#     Edge 15, Type (0, 0), BuildingBlock: TEMPAE_clean_linker_10, # of connection points: 2
#     Edge 16, Type (0, 0), BuildingBlock: TEMPAE_clean_linker_10, # of connection points: 2
#     Edge 17, Type (0, 0), BuildingBlock: TEMPAE_clean_linker_10, # of connection points: 2
# Relax obj value: 0.021
# Max RMSD: 0.060
# Mean RMSD: 0.060
data_MOF--net-unj--node1-TATPOV_clean_sbu_0--edge1-TEMPAE_clean_linker_10
_symmetry_space_group_name_H-M    P1
_symmetry_Int_Tables_number       1
_symmetry_cell_setting            triclinic
loop_
_symmetry_equiv_pos_as_xyz
'x, y, z'
_cell_length_a     34.55274
_cell_length_b     34.448619
_cell_length_c     35.65505
_cell_angle_alpha  90.159951
_cell_angle_beta   89.906611
_cell_angle_gamma 120.07487
loop_
_atom_site_label
_atom_site_type_symbol
_atom_site_fract_x
_atom_site_fract_y
_atom_site_fract_z
_atom_type_partial_charge
Zn0 Zn 0.41868 0.13044 0.63584 0.0
Zn1 Zn 0.47143 0.18713 0.58215 0.0
O2 O 0.43171 0.2127 0.59723 0.0
O3 O 0.38485 0.16441 0.63834 0.0
O4 O 0.5069 0.22754 0.53961 0.0
O5 O 0.39887 0.07801 0.60113 0.0
O6 O 0.43961 0.12503 0.55666 0.0
C7 C 0.39864 0.20001 0.61938 0.0
C8 C 0.51231 0.18104 0.65627 0.0
O9 O 0.51717 0.19794 0.62363 0.0
O10 O 0.47398 0.15132 0.66755 0.0
C11 C 0.48519 0.22645 0.51046 0.0
O12 O 0.44174 0.19892 0.50964 0.0
C13 C 0.41256 0.08524 0.56756 0.0
Zn14 Zn 0.26669 0.41095 0.81132 0.0
Zn15 Zn 0.27103 0.46428 0.75387 0.0
O16 O 0.2051 0.43101 0.76936 0.0
O17 O 0.19939 0.38286 0.8125 0.0
O18 O 0.27306 0.50058 0.70848 0.0
O19 O 0.29556 0.38435 0.77956 0.0
O20 O 0.29375 0.42399 0.73193 0.0
C21 C 0.18141 0.39953 0.79213 0.0
C22 C 0.31907 0.50617 0.82775 0.0
O23 O 0.31034 0.51079 0.79384 0.0
O24 O 0.30428 0.46729 0.84133 0.0
C25 C 0.2423 0.50978 0.70234 0.0
O26 O 0.21017 0.49794 0.7271 0.0
C27 C 0.30247 0.39495 0.74526 0.0
Zn28 Zn 0.84283 0.28781 0.97707 0.0
Zn29 Zn 0.79327 0.29029 0.92064 0.0
O30 O 0.76199 0.22383 0.93413 0.0
O31 O 0.806 0.22005 0.9767 0.0
O32 O 0.75919 0.28884 0.8746 0.0
O33 O 0.89897 0.31949 0.94668 0.0
O34 O 0.85682 0.31604 0.89915 0.0
C35 C 0.7715 0.20083 0.95615 0.0
C36 C 0.79656 0.33622 0.99485 0.0
O37 O 0.78299 0.32747 0.96095 0.0
O38 O 0.82207 0.32296 0.00778 0.0
C39 C 0.72487 0.29324 0.8732 0.0
O40 O 0.7098 0.30178 0.90417 0.0
C41 C 0.895 0.32643 0.91247 0.0
Zn42 Zn 0.56788 0.85723 0.13541 0.0
Zn43 Zn 0.52115 0.80217 0.07909 0.0
O44 O 0.56232 0.77935 0.0967 0.0
O45 O 0.60607 0.82816 0.13906 0.0
O46 O 0.49175 0.76225 0.03454 0.0
O47 O 0.58631 0.91087 0.10294 0.0
O48 O 0.55224 0.86532 0.05551 0.0
C49 C 0.59462 0.79312 0.1198 0.0
C50 C 0.47319 0.80176 0.15109 0.0
O51 O 0.47104 0.78742 0.11769 0.0
O52 O 0.5104 0.83117 0.16458 0.0
C53 C 0.4534 0.75119 0.02149 0.0
O54 O 0.42912 0.76582 0.03803 0.0
C55 C 0.57591 0.90488 0.06856 0.0
Zn56 Zn 0.70944 0.57289 0.31965 0.0
Zn57 Zn 0.70985 0.524 0.2602 0.0
O58 O 0.77327 0.55141 0.28074 0.0
O59 O 0.77564 0.59574 0.3264 0.0
O60 O 0.71377 0.49402 0.21302 0.0
O61 O 0.68877 0.60647 0.28721 0.0
O62 O 0.69308 0.56892 0.23886 0.0
C63 C 0.79478 0.57979 0.30646 0.0
C64 C 0.64988 0.47674 0.32744 0.0
O65 O 0.66382 0.47455 0.29478 0.0
O66 O 0.66418 0.5144 0.34342 0.0
C67 C 0.68793 0.45395 0.20224 0.0
O68 O 0.65413 0.42657 0.2235 0.0
C69 C 0.6854 0.59867 0.25233 0.0
Zn70 Zn 0.15489 0.71578 0.4689 0.0
Zn71 Zn 0.19674 0.7062 0.41159 0.0
O72 O 0.23045 0.774 0.42253 0.0
O73 O 0.18654 0.78264 0.46215 0.0
O74 O 0.22692 0.7044 0.36387 0.0
O75 O 0.09471 0.67665 0.44572 0.0
O76 O 0.13125 0.67898 0.39442 0.0
C77 C 0.22113 0.79948 0.4417 0.0
C78 C 0.20375 0.67064 0.48718 0.0
O79 O 0.20908 0.67049 0.45178 0.0
O80 O 0.18378 0.68965 0.50114 0.0
C81 C 0.2474 0.68317 0.35696 0.0
O82 O 0.25013 0.65782 0.38307 0.0
C83 C 0.09459 0.66766 0.4113 0.0
C84 C 0.39267 0.05434 0.50229 0.0
C85 C 0.39456 0.04737 0.54084 0.0
C86 C 0.36943 0.01784 0.47774 0.0
C87 C 0.34809 0.97368 0.49223 0.0
C88 C 0.35271 0.96659 0.53067 0.0
C89 C 0.37567 0.00352 0.5545 0.0
C90 C 0.36539 0.02671 0.43692 0.0
C91 C 0.33115 0.91998 0.54719 0.0
C92 C 0.2393 0.87683 0.4588 0.0
C93 C 0.25343 0.84796 0.44473 0.0
C94 C 0.27038 0.92024 0.47074 0.0
C95 C 0.3166 0.93477 0.46897 0.0
C96 C 0.33111 0.90752 0.45117 0.0
C97 C 0.29921 0.8643 0.43904 0.0
C98 C 0.2535 0.94869 0.48873 0.0
C99 C 0.3801 0.92204 0.44835 0.0
H100 H 0.40732 0.08826 0.49161 0.0
H101 H 0.37768 -0.00199 0.58419 0.0
H102 H 0.36891 0.00258 0.4186 0.0
H103 H 0.33177 0.02232 0.43179 0.0
H104 H 0.39086 0.06137 0.42867 0.0
H105 H 0.34131 0.92019 0.57678 0.0
H106 H 0.29422 0.90447 0.54628 0.0
H107 H 0.34012 0.8984 0.53052 0.0
H108 H 0.20388 0.86456 0.46258 0.0
H109 H 0.31032 0.84219 0.42791 0.0
H110 H 0.27302 0.98388 0.47886 0.0
H111 H 0.25774 0.94894 0.5196 0.0
H112 H 0.21755 0.93575 0.48264 0.0
H113 H 0.40034 0.95813 0.44116 0.0
H114 H 0.38623 0.90214 0.42703 0.0
H115 H 0.39195 0.91719 0.47591 0.0
C116 C 0.40617 0.27588 0.62022 0.0
C117 C 0.38004 0.22963 0.62678 0.0
C118 C 0.39306 0.30569 0.63408 0.0
C119 C 0.35249 0.28862 0.65427 0.0
C120 C 0.32411 0.24169 0.65796 0.0
C121 C 0.33846 0.21273 0.6445 0.0
C122 C 0.42443 0.35551 0.62986 0.0
C123 C 0.28004 0.22215 0.6785 0.0
C124 C 0.34426 0.35439 0.73589 0.0
C125 C 0.31878 0.37175 0.72065 0.0
C126 C 0.35689 0.32879 0.71402 0.0
C127 C 0.34279 0.31947 0.67616 0.0
C128 C 0.31794 0.3378 0.66028 0.0
C129 C 0.3066 0.36424 0.68269 0.0
C130 C 0.3843 0.31068 0.73178 0.0
C131 C 0.30174 0.32792 0.62023 0.0
H132 H 0.43837 0.28915 0.60651 0.0
H133 H 0.31789 0.17693 0.64918 0.0
H134 H 0.40591 0.37266 0.62144 0.0
H135 H 0.44053 0.36979 0.65728 0.0
H136 H 0.4511 0.36313 0.60887 0.0
H137 H 0.25907 0.18539 0.674 0.0
H138 H 0.28633 0.22847 0.70903 0.0
H139 H 0.26099 0.23849 0.6693 0.0
H140 H 0.35403 0.36051 0.76516 0.0
H141 H 0.28659 0.37741 0.67096 0.0
H142 H 0.41436 0.3196 0.71451 0.0
H143 H 0.3643 0.27353 0.73309 0.0
H144 H 0.39528 0.32377 0.76065 0.0
H145 H 0.32977 0.33504 0.60098 0.0
H146 H 0.28615 0.3478 0.61118 0.0
H147 H 0.27665 0.29175 0.61732 0.0
C148 C 0.92937 0.3309 0.84976 0.0
C149 C 0.93435 0.34317 0.88774 0.0
C150 C 0.9668 0.34055 0.82764 0.0
C151 C 0.00996 0.36356 0.84389 0.0
C152 C 0.01522 0.37869 0.8815 0.0
C153 C 0.9773 0.36792 0.90306 0.0
C154 C 0.95992 0.3237 0.78771 0.0
C155 C 0.0608 0.40426 0.89963 0.0
C156 C 0.10543 0.34576 0.81657 0.0
C157 C 0.13409 0.38615 0.79833 0.0
C158 C 0.06306 0.33631 0.82884 0.0
C159 C 0.04947 0.36842 0.82329 0.0
C160 C 0.07692 0.40779 0.80253 0.0
C161 C 0.1189 0.41605 0.79003 0.0
C162 C 0.03424 0.29342 0.85014 0.0
C163 C 0.06371 0.4429 0.79617 0.0
H164 H 0.89612 0.3116 0.83789 0.0
H165 H 0.98121 0.37789 0.93232 0.0
H166 H 0.984 0.3502 0.76861 0.0
H167 H 0.96608 0.29509 0.7859 0.0
H168 H 0.92541 0.31225 0.77769 0.0
H169 H 0.0594 0.41733 0.92782 0.0
H170 H 0.07513 0.38193 0.90266 0.0
H171 H 0.08394 0.43288 0.88173 0.0
H172 H 0.11683 0.32228 0.8226 0.0
H173 H 0.14092 0.44738 0.77597 0.0
H174 H -0.00075 0.27684 0.83985 0.0
H175 H 0.03378 0.30126 0.8803 0.0
H176 H 0.04676 0.26945 0.84761 0.0
H177 H 0.0281 0.42718 0.78775 0.0
H178 H 0.08471 0.46747 0.77435 0.0
H179 H 0.0677 0.4614 0.82274 0.0
C180 C 0.60641 0.98634 0.05879 0.0
C181 C 0.59435 0.94422 0.04365 0.0
C182 C 0.63075 0.02542 0.03769 0.0
C183 C 0.6439 0.0223 0.0007 0.0
C184 C 0.62926 0.97967 0.98435 0.0
C185 C 0.6043 0.9409 0.00605 0.0
C186 C 0.64491 0.07022 0.05596 0.0
C187 C 0.64256 0.97508 0.94497 0.0
C188 C 0.69528 0.13337 0.94984 0.0
C189 C 0.7402 0.15228 0.96066 0.0
C190 C 0.66357 0.0894 0.96022 0.0
C191 C 0.67737 0.06393 0.98157 0.0
C192 C 0.7233 0.08154 0.98963 0.0
C193 C 0.75414 0.12563 0.97926 0.0
C194 C 0.61494 0.07171 0.95097 0.0
C195 C 0.7395 0.05511 0.01177 0.0
H196 H 0.59814 0.98889 0.0877 0.0
H197 H 0.59497 0.90831 0.99429 0.0
H198 H 0.68158 0.08831 0.06079 0.0
H199 H 0.63742 0.09134 0.03732 0.0
H200 H 0.62799 0.06658 0.08332 0.0
H201 H 0.62218 0.94027 0.93416 0.0
H202 H 0.63912 -0.00169 0.92561 0.0
H203 H 0.67823 0.9841 0.94476 0.0
H204 H 0.68433 0.15375 0.93525 0.0
H205 H 0.78896 0.13985 0.98713 0.0
H206 H 0.59728 0.07334 0.97642 0.0
H207 H 0.59855 0.0361 0.942 0.0
H208 H 0.61076 0.09162 0.92852 0.0
H209 H 0.72843 0.05243 0.04137 0.0
H210 H 0.77654 0.07115 0.01141 0.0
H211 H 0.72491 0.02055 0.00047 0.0
C212 C 0.64809 0.64329 0.24141 0.0
C213 C 0.67323 0.62486 0.22735 0.0
C214 C 0.63742 0.66966 0.21872 0.0
C215 C 0.65326 0.67871 0.1813 0.0
C216 C 0.67856 0.66006 0.16683 0.0
C217 C 0.68782 0.6328 0.18998 0.0
C218 C 0.60949 0.68815 0.23495 0.0
C219 C 0.69674 0.66985 0.12734 0.0
C220 C 0.58978 0.71857 0.12177 0.0
C221 C 0.61459 0.76498 0.1281 0.0
C222 C 0.60358 0.68995 0.13685 0.0
C223 C 0.64357 0.70841 0.158 0.0
C224 C 0.67086 0.75553 0.16135 0.0
C225 C 0.65575 0.7833 0.14671 0.0
C226 C 0.57328 0.63986 0.13304 0.0
C227 C 0.71437 0.77651 0.18281 0.0
H228 H 0.63649 0.63685 0.27022 0.0
H229 H 0.7076 0.61882 0.17919 0.0
H230 H 0.62925 0.72533 0.23556 0.0
H231 H 0.57977 0.67843 0.21704 0.0
H232 H 0.59792 0.676 0.26391 0.0
H233 H 0.71444 0.65143 0.11992 0.0
H234 H 0.66927 0.66071 0.10695 0.0
H235 H 0.72039 0.70635 0.12424 0.0
H236 H 0.5579 0.70423 0.10738 0.0
H237 H 0.6753 0.81924 0.15122 0.0
H238 H 0.55663 0.62593 0.16032 0.0
H239 H 0.59275 0.6233 0.12569 0.0
H240 H 0.54703 0.63112 0.11143 0.0
H241 H 0.70724 0.77142 0.21332 0.0
H242 H 0.73499 0.81311 0.17748 0.0
H243 H 0.73413 0.76031 0.17522 0.0
C244 C 0.05138 0.65752 0.3525 0.0
C245 C 0.05207 0.64741 0.39046 0.0
C246 C 0.01074 0.64449 0.33416 0.0
C247 C 0.9701 0.6201 0.35418 0.0
C248 C 0.97063 0.6071 0.39172 0.0
C249 C 0.01167 0.62137 0.40954 0.0
C250 C 0.01148 0.65937 0.29426 0.0
C251 C 0.92793 0.58016 0.41373 0.0
C252 C 0.86953 0.63245 0.3336 0.0
C253 C 0.84143 0.5923 0.3147 0.0
C254 C 0.91254 0.64295 0.34477 0.0
C255 C 0.92736 0.61206 0.33758 0.0
C256 C 0.89974 0.57214 0.31738 0.0
C257 C 0.85714 0.56291 0.30583 0.0
C258 C 0.94144 0.68634 0.36559 0.0
C259 C 0.91416 0.53812 0.30973 0.0
H260 H 0.08264 0.67782 0.33776 0.0
H261 H 0.01218 0.6131 0.43879 0.0
H262 H 0.98682 0.63101 0.27684 0.0
H263 H 0.00185 0.68564 0.29385 0.0
H264 H 0.04507 0.67328 0.28125 0.0
H265 H 0.93385 0.56843 0.44098 0.0
H266 H 0.91243 0.60106 0.4194 0.0
H267 H 0.90354 0.55055 0.3973 0.0
H268 H 0.85763 0.65544 0.34013 0.0
H269 H 0.83538 0.53172 0.29134 0.0
H270 H 0.97519 0.70472 0.35273 0.0
H271 H 0.94573 0.67899 0.39507 0.0
H272 H 0.92673 0.70857 0.3657 0.0
H273 H 0.94821 0.55459 0.29741 0.0
H274 H 0.89085 0.51111 0.29045 0.0
H275 H 0.91556 0.52258 0.33654 0.0
C276 C 0.55422 0.28671 0.47944 0.0
C277 C 0.5078 0.25767 0.47893 0.0
C278 C 0.57552 0.31882 0.45118 0.0
C279 C 0.54975 0.32209 0.42182 0.0
C280 C 0.50316 0.29173 0.42033 0.0
C281 C 0.48274 0.25981 0.44888 0.0
C282 C 0.62537 0.35048 0.45362 0.0
C283 C 0.47456 0.29424 0.38952 0.0
C284 C 0.59842 0.43863 0.38108 0.0
C285 C 0.61952 0.43551 0.34849 0.0
C286 C 0.57416 0.40143 0.40434 0.0
C287 C 0.57103 0.36003 0.39493 0.0
C288 C 0.59048 0.35601 0.3612 0.0
C289 C 0.61443 0.39385 0.33824 0.0
C290 C 0.55342 0.407 0.43982 0.0
C291 C 0.58771 0.31233 0.35026 0.0
H292 H 0.57388 0.28505 0.50238 0.0
H293 H 0.44686 0.23735 0.44815 0.0
H294 H 0.64163 0.35098 0.42663 0.0
H295 H 0.63213 0.38507 0.45901 0.0
H296 H 0.64109 0.34111 0.47635 0.0
H297 H 0.43979 0.26544 0.39022 0.0
H298 H 0.47336 0.32569 0.3925 0.0
H299 H 0.4893 0.29514 0.36165 0.0
H300 H 0.60179 0.47059 0.389 0.0
H301 H 0.63068 0.39122 0.31311 0.0
H302 H 0.5701 0.40245 0.46461 0.0
H303 H 0.51751 0.38101 0.44127 0.0
H304 H 0.55636 0.44056 0.44176 0.0
H305 H 0.60739 0.30459 0.37036 0.0
H306 H 0.6008 0.31353 0.32155 0.0
H307 H 0.5526 0.28438 0.35167 0.0
C308 C 0.23747 0.66915 0.54789 0.0
C309 C 0.22048 0.64907 0.513 0.0
C310 C 0.24702 0.64671 0.57578 0.0
C311 C 0.23836 0.6026 0.56888 0.0
C312 C 0.22377 0.58315 0.53285 0.0
C313 C 0.21537 0.60694 0.50505 0.0
C314 C 0.26346 0.66911 0.61348 0.0
C315 C 0.21388 0.53609 0.52454 0.0
C316 C 0.27901 0.55292 0.64371 0.0
C317 C 0.24133 0.53184 0.66709 0.0
C318 C 0.27828 0.57491 0.61078 0.0
C319 C 0.23879 0.57528 0.60092 0.0
C320 C 0.20025 0.55271 0.62378 0.0
C321 C 0.2021 0.53158 0.65667 0.0
C322 C 0.32013 0.59907 0.58732 0.0
C323 C 0.15731 0.55194 0.61411 0.0
H324 H 0.24197 0.70207 0.55383 0.0
H325 H 0.20213 0.59143 0.47804 0.0
H326 H 0.23629 0.65258 0.6345 0.0
H327 H 0.292 0.66557 0.62323 0.0
H328 H 0.27412 0.70535 0.61267 0.0
H329 H 0.20929 0.5284 0.49404 0.0
H330 H 0.24117 0.53092 0.53501 0.0
H331 H 0.18276 0.51181 0.5393 0.0
H332 H 0.3094 0.55312 0.65157 0.0
H333 H 0.17266 0.51487 0.67432 0.0
H334 H 0.33337 0.63576 0.58897 0.0
H335 H 0.31252 0.58922 0.55741 0.0
H336 H 0.34665 0.59207 0.59678 0.0
H337 H 0.1625 0.58639 0.61605 0.0
H338 H 0.12937 0.52985 0.63311 0.0
H339 H 0.14731 0.54021 0.58484 0.0
C340 C 0.71211 0.26761 0.80635 0.0
C341 C 0.69958 0.28372 0.83761 0.0
C342 C 0.68587 0.25368 0.77376 0.0
C343 C 0.64632 0.25625 0.77225 0.0
C344 C 0.63468 0.27461 0.80293 0.0
C345 C 0.66137 0.28797 0.83533 0.0
C346 C 0.69928 0.23411 0.74173 0.0
C347 C 0.59298 0.27835 0.80217 0.0
C348 C 0.58594 0.24272 0.67981 0.0
C349 C 0.55016 0.19862 0.68289 0.0
C350 C 0.61826 0.26183 0.70831 0.0
C351 C 0.61491 0.23592 0.74022 0.0
C352 C 0.58017 0.19066 0.74243 0.0
C353 C 0.54808 0.17268 0.71388 0.0
C354 C 0.65472 0.31028 0.70511 0.0
C355 C 0.57591 0.16162 0.77564 0.0
H356 H 0.74168 0.26434 0.80774 0.0
H357 H 0.65163 0.30068 0.85921 0.0
H358 H 0.67483 0.19772 0.73923 0.0
H359 H 0.69881 0.24995 0.71483 0.0
H360 H 0.73311 0.23847 0.74577 0.0
H361 H 0.59091 0.29722 0.82668 0.0
H362 H 0.59189 0.2953 0.77611 0.0
H363 H 0.563 0.2443 0.8022 0.0
H364 H 0.5875 0.26301 0.65604 0.0
H365 H 0.52065 0.13846 0.71625 0.0
H366 H 0.68796 0.31359 0.70988 0.0
H367 H 0.64997 0.3304 0.72707 0.0
H368 H 0.65482 0.32471 0.67726 0.0
H369 H 0.6078 0.16192 0.78029 0.0
H370 H 0.54872 0.12631 0.77188 0.0
H371 H 0.56888 0.17524 0.80135 0.0
C372 C 0.34991 0.53932 0.89055 0.0
C373 C 0.34354 0.5457 0.85268 0.0
C374 C 0.36923 0.5754 0.91572 0.0
C375 C 0.38299 0.6192 0.90277 0.0
C376 C 0.37796 0.62625 0.86439 0.0
C377 C 0.35812 0.58934 0.83976 0.0
C378 C 0.37398 0.56642 0.95644 0.0
C379 C 0.39278 0.67262 0.84954 0.0
C380 C 0.39058 0.6998 0.97906 0.0
C381 C 0.43594 0.72059 0.98877 0.0
C382 C 0.37317 0.66802 0.94996 0.0
C383 C 0.40193 0.65717 0.9299 0.0
C384 C 0.44812 0.67961 0.93842 0.0
C385 C 0.46453 0.71086 0.96787 0.0
C386 C 0.32364 0.64454 0.94185 0.0
C387 C 0.47995 0.66931 0.91744 0.0
H388 H 0.33887 0.50581 0.9009 0.0
H389 H 0.35337 0.59462 0.81057 0.0
H390 H 0.4095 0.58635 0.96519 0.0
H391 H 0.35461 0.577 0.97436 0.0
H392 H 0.36206 0.53042 0.9619 0.0
H393 H 0.38865 0.67277 0.81866 0.0
H394 H 0.37305 0.68614 0.86306 0.0
H395 H 0.42842 0.69569 0.85663 0.0
H396 H 0.36832 0.70722 0.995 0.0
H397 H 0.49976 0.72717 0.9749 0.0
H398 H 0.30814 0.60856 0.94937 0.0
H399 H 0.31775 0.6462 0.91148 0.0
H400 H 0.30648 0.65931 0.95782 0.0
H401 H 0.47238 0.63478 0.9242 0.0
H402 H 0.51544 0.69299 0.92473 0.0
H403 H 0.47566 0.67069 0.88674 0.0
C404 C 0.79887 0.37107 0.05673 0.0
C405 C 0.78039 0.35888 0.02064 0.0
C406 C 0.78129 0.38786 0.08343 0.0
C407 C 0.74434 0.39291 0.07389 0.0
C408 C 0.72643 0.38229 0.03713 0.0
C409 C 0.74467 0.36531 0.01086 0.0
C410 C 0.80158 0.39902 0.12225 0.0
C411 C 0.68731 0.38771 0.02592 0.0
C412 C 0.67813 0.39214 0.15908 0.0
C413 C 0.69789 0.4381 0.16684 0.0
C414 C 0.69113 0.37688 0.12755 0.0
C415 C 0.72432 0.40839 0.10309 0.0
C416 C 0.74234 0.45483 0.10957 0.0
C417 C 0.7291 0.46913 0.14147 0.0
C418 C 0.67128 0.32705 0.12168 0.0
C419 C 0.7774 0.48949 0.08395 0.0
H420 H 0.82667 0.36657 0.06453 0.0
H421 H 0.73016 0.35591 0.98308 0.0
H422 H 0.8125 0.43441 0.12932 0.0
H423 H 0.77614 0.3776 0.1433 0.0
H424 H 0.83081 0.39399 0.12489 0.0
H425 H 0.67938 0.38108 0.99558 0.0
H426 H 0.65731 0.36418 0.04229 0.0
H427 H 0.69437 0.42216 0.03249 0.0
H428 H 0.65386 0.36798 0.17846 0.0
H429 H 0.74407 0.50476 0.14697 0.0
H430 H 0.69727 0.31776 0.12683 0.0
H431 H 0.65982 0.31777 0.09229 0.0
H432 H 0.64263 0.30705 0.14077 0.0
H433 H 0.80933 0.48956 0.08755 0.0
H434 H 0.78355 0.52379 0.08991 0.0
H435 H 0.76725 0.4812 0.05417 0.0
C436 C 0.26597 0.71578 0.29247 0.0
C437 C 0.27192 0.6913 0.32106 0.0
C438 C 0.29321 0.72933 0.26046 0.0
C439 C 0.3274 0.71837 0.25703 0.0
C440 C 0.3316 0.69109 0.28453 0.0
C441 C 0.30369 0.67776 0.31622 0.0
C442 C 0.28732 0.75797 0.2316 0.0
C443 C 0.3676 0.67858 0.28182 0.0
C444 C 0.39474 0.7416 0.16682 0.0
C445 C 0.43336 0.78223 0.17581 0.0
C446 C 0.35929 0.7206 0.19262 0.0
C447 C 0.36272 0.74084 0.22803 0.0
C448 C 0.40089 0.78266 0.23656 0.0
C449 C 0.4356 0.80278 0.2104 0.0
C450 C 0.31892 0.67618 0.18251 0.0
C451 C 0.40574 0.80564 0.27387 0.0
H452 H 0.24102 0.72585 0.29569 0.0
H453 H 0.3083 0.65857 0.33802 0.0
H454 H 0.31522 0.79309 0.23404 0.0
H455 H 0.28837 0.74621 0.20282 0.0
H456 H 0.25531 0.75781 0.23534 0.0
H457 H 0.3629 0.65274 0.30275 0.0
H458 H 0.36818 0.6658 0.25336 0.0
H459 H 0.40075 0.70886 0.28667 0.0
H460 H 0.39281 0.72546 0.1402 0.0
H461 H 0.46513 0.83436 0.21749 0.0
H462 H 0.28776 0.6772 0.18757 0.0
H463 H 0.31764 0.64945 0.20066 0.0
H464 H 0.31956 0.66689 0.15274 0.0
H465 H 0.37693 0.81085 0.27863 0.0
H466 H 0.43702 0.83867 0.27566 0.0
H467 H 0.4058 0.78408 0.29691 0.0
loop_
_geom_bond_atom_site_label_1
_geom_bond_atom_site_label_2
_geom_bond_distance
_geom_bond_site_symmetry_2
_ccdc_geom_bond_type
Zn0 O3 2.031 . S
Zn0 O5 2.049 . S
Zn0 O10 2.067 . S
Zn1 O2 1.962 . S
Zn1 O4 1.986 . S
Zn1 O6 1.996 . S
Zn1 O9 1.943 . S
O2 Zn1 1.962 . S
O2 C7 1.254 . S
O3 Zn0 2.031 . S
O3 C7 1.269 . S
O4 Zn1 1.986 . S
O4 C11 1.262 . S
O5 Zn0 2.049 . S
O5 C13 1.260 . S
O6 Zn1 1.996 . S
O6 C13 1.257 . S
C7 O2 1.254 . S
C7 O3 1.269 . S
C8 O9 1.249 . S
C8 O10 1.270 . S
O9 Zn1 1.943 . S
O9 C8 1.249 . S
O10 Zn0 2.067 . S
O10 C8 1.270 . S
C11 O4 1.262 . S
C11 O12 1.232 . S
O12 C11 1.232 . S
C13 O5 1.260 . S
C13 O6 1.257 . S
Zn14 O17 2.031 . S
Zn14 O19 2.049 . S
Zn14 O24 2.067 . S
Zn15 O16 1.962 . S
Zn15 O18 1.986 . S
Zn15 O20 1.996 . S
Zn15 O23 1.943 . S
O16 Zn15 1.962 . S
O16 C21 1.254 . S
O17 Zn14 2.031 . S
O17 C21 1.269 . S
O18 Zn15 1.986 . S
O18 C25 1.262 . S
O19 Zn14 2.049 . S
O19 C27 1.260 . S
O20 Zn15 1.996 . S
O20 C27 1.257 . S
C21 O16 1.254 . S
C21 O17 1.269 . S
C22 O23 1.249 . S
C22 O24 1.270 . S
O23 Zn15 1.943 . S
O23 C22 1.249 . S
O24 Zn14 2.067 . S
O24 C22 1.270 . S
C25 O18 1.262 . S
C25 O26 1.232 . S
O26 C25 1.232 . S
C27 O19 1.260 . S
C27 O20 1.257 . S
Zn28 O31 2.031 . S
Zn28 O33 2.049 . S
Zn28 O38 2.067 . S
Zn29 O30 1.962 . S
Zn29 O32 1.986 . S
Zn29 O34 1.996 . S
Zn29 O37 1.943 . S
O30 Zn29 1.962 . S
O30 C35 1.254 . S
O31 Zn28 2.031 . S
O31 C35 1.269 . S
O32 Zn29 1.986 . S
O32 C39 1.262 . S
O33 Zn28 2.049 . S
O33 C41 1.260 . S
O34 Zn29 1.996 . S
O34 C41 1.257 . S
C35 O30 1.254 . S
C35 O31 1.269 . S
C36 O37 1.249 . S
C36 O38 1.270 . S
O37 Zn29 1.943 . S
O37 C36 1.249 . S
O38 Zn28 2.067 . S
O38 C36 1.270 . S
C39 O32 1.262 . S
C39 O40 1.232 . S
O40 C39 1.232 . S
C41 O33 1.260 . S
C41 O34 1.257 . S
Zn42 O45 2.031 . S
Zn42 O47 2.049 . S
Zn42 O52 2.067 . S
Zn43 O44 1.962 . S
Zn43 O46 1.986 . S
Zn43 O48 1.996 . S
Zn43 O51 1.943 . S
O44 Zn43 1.962 . S
O44 C49 1.254 . S
O45 Zn42 2.031 . S
O45 C49 1.269 . S
O46 Zn43 1.986 . S
O46 C53 1.262 . S
O47 Zn42 2.049 . S
O47 C55 1.260 . S
O48 Zn43 1.996 . S
O48 C55 1.257 . S
C49 O44 1.254 . S
C49 O45 1.269 . S
C50 O51 1.249 . S
C50 O52 1.270 . S
O51 Zn43 1.943 . S
O51 C50 1.249 . S
O52 Zn42 2.067 . S
O52 C50 1.270 . S
C53 O46 1.262 . S
C53 O54 1.232 . S
O54 C53 1.232 . S
C55 O47 1.260 . S
C55 O48 1.257 . S
Zn56 O59 2.031 . S
Zn56 O61 2.049 . S
Zn56 O66 2.067 . S
Zn57 O58 1.962 . S
Zn57 O60 1.986 . S
Zn57 O62 1.996 . S
Zn57 O65 1.943 . S
O58 Zn57 1.962 . S
O58 C63 1.254 . S
O59 Zn56 2.031 . S
O59 C63 1.269 . S
O60 Zn57 1.986 . S
O60 C67 1.262 . S
O61 Zn56 2.049 . S
O61 C69 1.260 . S
O62 Zn57 1.996 . S
O62 C69 1.257 . S
C63 O58 1.254 . S
C63 O59 1.269 . S
C64 O65 1.249 . S
C64 O66 1.270 . S
O65 Zn57 1.943 . S
O65 C64 1.249 . S
O66 Zn56 2.067 . S
O66 C64 1.270 . S
C67 O60 1.262 . S
C67 O68 1.232 . S
O68 C67 1.232 . S
C69 O61 1.260 . S
C69 O62 1.257 . S
Zn70 O73 2.031 . S
Zn70 O75 2.049 . S
Zn70 O80 2.067 . S
Zn71 O72 1.962 . S
Zn71 O74 1.986 . S
Zn71 O76 1.996 . S
Zn71 O79 1.943 . S
O72 Zn71 1.962 . S
O72 C77 1.254 . S
O73 Zn70 2.031 . S
O73 C77 1.269 . S
O74 Zn71 1.986 . S
O74 C81 1.262 . S
O75 Zn70 2.049 . S
O75 C83 1.260 . S
O76 Zn71 1.996 . S
O76 C83 1.257 . S
C77 O72 1.254 . S
C77 O73 1.269 . S
C78 O79 1.249 . S
C78 O80 1.270 . S
O79 Zn71 1.943 . S
O79 C78 1.249 . S
O80 Zn70 2.067 . S
O80 C78 1.270 . S
C81 O74 1.262 . S
C81 O82 1.232 . S
O82 C81 1.232 . S
C83 O75 1.260 . S
C83 O76 1.257 . S
C84 C85 1.391 . S
C84 C86 1.394 . S
C84 H100 0.931 . S
C85 C84 1.391 . S
C85 C89 1.376 . S
C86 C84 1.394 . S
C86 C87 1.369 . S
C86 C90 1.531 . S
C87 C86 1.369 . S
C87 C88 1.410 . S
C87 C95 1.503 1_545 S
C88 C87 1.410 . S
C88 C89 1.392 . S
C88 C91 1.511 1_545 S
C89 C85 1.376 . S
C89 C88 1.392 . S
C89 H101 0.929 . S
C90 C86 1.531 . S
C90 H102 0.960 . S
C90 H103 0.962 . S
C90 H104 0.960 . S
C91 C88 1.511 1_565 S
C91 H105 0.961 . S
C91 H106 0.961 . S
C91 H107 0.961 . S
C92 C93 1.370 . S
C92 C94 1.363 . S
C92 H108 0.931 . S
C93 C92 1.370 . S
C93 C97 1.408 . S
C94 C92 1.363 . S
C94 C95 1.370 . S
C94 C98 1.524 . S
C95 C87 1.503 1_565 S
C95 C94 1.370 . S
C95 C96 1.403 . S
C96 C95 1.403 . S
C96 C97 1.404 . S
C96 C99 1.539 . S
C97 C93 1.408 . S
C97 C96 1.404 . S
C97 H109 0.930 . S
C98 C94 1.524 . S
C98 H110 0.956 1_565 S
C98 H111 0.970 . S
C98 H112 0.961 . S
C99 C96 1.539 . S
C99 H113 0.958 . S
C99 H114 0.961 . S
C99 H115 0.960 . S
H100 C84 0.931 . S
H101 C89 0.929 . S
H102 C90 0.960 . S
H103 C90 0.962 . S
H104 C90 0.960 . S
H105 C91 0.961 . S
H106 C91 0.961 . S
H107 C91 0.961 . S
H108 C92 0.931 . S
H109 C97 0.930 . S
H110 C98 0.956 1_545 S
H111 C98 0.970 . S
H112 C98 0.961 . S
H113 C99 0.958 . S
H114 C99 0.961 . S
H115 C99 0.960 . S
C116 C117 1.391 . S
C116 C118 1.394 . S
C116 H132 0.931 . S
C117 C116 1.391 . S
C117 C121 1.376 . S
C118 C116 1.394 . S
C118 C119 1.369 . S
C118 C122 1.531 . S
C119 C118 1.369 . S
C119 C120 1.410 . S
C119 C127 1.503 . S
C120 C119 1.410 . S
C120 C121 1.392 . S
C120 C123 1.511 . S
C121 C117 1.376 . S
C121 C120 1.392 . S
C121 H133 0.929 . S
C122 C118 1.531 . S
C122 H134 0.960 . S
C122 H135 0.962 . S
C122 H136 0.960 . S
C123 C120 1.511 . S
C123 H137 0.961 . S
C123 H138 0.961 . S
C123 H139 0.961 . S
C124 C125 1.370 . S
C124 C126 1.363 . S
C124 H140 0.931 . S
C125 C124 1.370 . S
C125 C129 1.408 . S
C126 C124 1.363 . S
C126 C127 1.370 . S
C126 C130 1.524 . S
C127 C119 1.503 . S
C127 C126 1.370 . S
C127 C128 1.403 . S
C128 C127 1.403 . S
C128 C129 1.404 . S
C128 C131 1.539 . S
C129 C125 1.408 . S
C129 C128 1.404 . S
C129 H141 0.930 . S
C130 C126 1.524 . S
C130 H142 0.956 . S
C130 H143 0.961 . S
C130 H144 0.961 . S
C131 C128 1.539 . S
C131 H145 0.958 . S
C131 H146 0.961 . S
C131 H147 0.960 . S
H132 C116 0.931 . S
H133 C121 0.929 . S
H134 C122 0.960 . S
H135 C122 0.962 . S
H136 C122 0.960 . S
H137 C123 0.961 . S
H138 C123 0.961 . S
H139 C123 0.961 . S
H140 C124 0.931 . S
H141 C129 0.930 . S
H142 C130 0.956 . S
H143 C130 0.961 . S
H144 C130 0.961 . S
H145 C131 0.958 . S
H146 C131 0.961 . S
H147 C131 0.960 . S
C148 C149 1.391 . S
C148 C150 1.394 . S
C148 H164 0.931 . S
C149 C148 1.391 . S
C149 C153 1.376 . S
C150 C148 1.394 . S
C150 C151 1.369 . S
C150 C154 1.531 . S
C151 C150 1.369 . S
C151 C152 1.410 . S
C151 C159 1.503 1_655 S
C152 C151 1.410 . S
C152 C153 1.392 . S
C152 C155 1.511 1_655 S
C153 C149 1.376 . S
C153 C152 1.392 . S
C153 H165 0.929 . S
C154 C150 1.531 . S
C154 H166 0.981 . S
C154 H167 0.962 . S
C154 H168 0.960 . S
C155 C152 1.511 1_455 S
C155 H169 0.961 1_455 S
C155 H170 0.961 . S
C155 H171 0.961 . S
C156 C157 1.370 . S
C156 C158 1.363 . S
C156 H172 0.931 . S
C157 C156 1.370 . S
C157 C161 1.408 . S
C158 C156 1.363 . S
C158 C159 1.370 . S
C158 C162 1.524 1_455 S
C159 C151 1.503 1_455 S
C159 C158 1.370 . S
C159 C160 1.403 . S
C160 C159 1.403 . S
C160 C161 1.404 . S
C160 C163 1.539 . S
C161 C157 1.408 . S
C161 C160 1.404 . S
C161 H173 0.930 . S
C162 C158 1.524 1_655 S
C162 H174 0.956 . S
C162 H175 0.961 . S
C162 H176 0.961 1_655 S
C163 C160 1.539 . S
C163 H177 0.958 . S
C163 H178 0.961 . S
C163 H179 0.960 . S
H164 C148 0.931 . S
H165 C153 0.929 . S
H166 C154 0.981 . S
H167 C154 0.962 . S
H168 C154 0.960 . S
H169 C155 0.961 1_655 S
H170 C155 0.961 . S
H171 C155 0.961 . S
H172 C156 0.931 . S
H173 C161 0.930 . S
H174 C162 0.956 . S
H175 C162 0.961 . S
H176 C162 0.961 1_455 S
H177 C163 0.958 . S
H178 C163 0.961 . S
H179 C163 0.960 . S
C180 C181 1.391 . S
C180 C182 1.394 . S
C180 H196 0.931 . S
C181 C180 1.391 . S
C181 C185 1.376 . S
C182 C180 1.394 . S
C182 C183 1.369 . S
C182 C186 1.531 1_565 S
C183 C182 1.369 . S
C183 C184 1.410 . S
C183 C191 1.503 1_565 S
C184 C183 1.410 . S
C184 C185 1.392 . S
C184 C187 1.511 1_554 S
C185 C181 1.376 . S
C185 C184 1.392 . S
C185 H197 0.929 . S
C186 C182 1.531 1_545 S
C186 H198 0.960 . S
C186 H199 0.962 . S
C186 H200 0.960 1_545 S
C187 C184 1.511 1_556 S
C187 H201 0.961 . S
C187 H202 0.961 . S
C187 H203 0.961 1_556 S
C188 C189 1.370 . S
C188 C190 1.363 . S
C188 H204 0.931 . S
C189 C188 1.370 . S
C189 C193 1.408 1_556 S
C190 C188 1.363 . S
C190 C191 1.370 1_556 S
C190 C194 1.524 1_545 S
C191 C183 1.503 1_545 S
C191 C190 1.370 1_554 S
C191 C192 1.403 . S
C192 C191 1.403 . S
C192 C193 1.404 . S
C192 C195 1.539 . S
C193 C189 1.408 1_554 S
C193 C192 1.404 . S
C193 H205 0.930 . S
C194 C190 1.524 1_565 S
C194 H206 0.956 . S
C194 H207 0.961 . S
C194 H208 0.961 1_565 S
C195 C192 1.539 . S
C195 H209 0.958 . S
C195 H210 0.961 . S
C195 H211 0.960 . S
H196 C180 0.931 . S
H197 C185 0.929 . S
H198 C186 0.960 . S
H199 C186 0.962 . S
H200 C186 0.960 1_565 S
H201 C187 0.961 . S
H202 C187 0.961 . S
H203 C187 0.961 1_554 S
H204 C188 0.931 . S
H205 C193 0.930 . S
H206 C194 0.956 . S
H207 C194 0.961 . S
H208 C194 0.961 1_545 S
H209 C195 0.958 . S
H210 C195 0.961 . S
H211 C195 0.960 . S
C212 C213 1.391 . S
C212 C214 1.394 . S
C212 H228 0.931 . S
C213 C212 1.391 . S
C213 C217 1.376 . S
C214 C212 1.394 . S
C214 C215 1.369 . S
C214 C218 1.531 . S
C215 C214 1.369 . S
C215 C216 1.410 . S
C215 C223 1.503 . S
C216 C215 1.410 . S
C216 C217 1.392 . S
C216 C219 1.511 . S
C217 C213 1.376 . S
C217 C216 1.392 . S
C217 H229 0.929 . S
C218 C214 1.531 . S
C218 H230 0.960 . S
C218 H231 0.962 . S
C218 H232 0.960 . S
C219 C216 1.511 . S
C219 H233 0.961 . S
C219 H234 0.961 . S
C219 H235 0.961 . S
C220 C221 1.370 . S
C220 C222 1.363 . S
C220 H236 0.931 . S
C221 C220 1.370 . S
C221 C225 1.408 . S
C222 C220 1.363 . S
C222 C223 1.370 . S
C222 C226 1.524 . S
C223 C215 1.503 . S
C223 C222 1.370 . S
C223 C224 1.403 . S
C224 C223 1.403 . S
C224 C225 1.404 . S
C224 C227 1.539 . S
C225 C221 1.408 . S
C225 C224 1.404 . S
C225 H237 0.930 . S
C226 C222 1.524 . S
C226 H238 0.956 . S
C226 H239 0.961 . S
C226 H240 0.961 . S
C227 C224 1.539 . S
C227 H241 0.958 . S
C227 H242 0.961 . S
C227 H243 0.960 . S
H228 C212 0.931 . S
H229 C217 0.929 . S
H230 C218 0.960 . S
H231 C218 0.962 . S
H232 C218 0.960 . S
H233 C219 0.961 . S
H234 C219 0.961 . S
H235 C219 0.961 . S
H236 C220 0.931 . S
H237 C225 0.930 . S
H238 C226 0.956 . S
H239 C226 0.961 . S
H240 C226 0.961 . S
H241 C227 0.958 . S
H242 C227 0.961 . S
H243 C227 0.960 . S
C244 C245 1.391 . S
C244 C246 1.394 . S
C244 H260 0.931 . S
C245 C244 1.391 . S
C245 C249 1.376 . S
C246 C244 1.394 . S
C246 C247 1.369 . S
C246 C250 1.531 . S
C247 C246 1.369 . S
C247 C248 1.410 . S
C247 C255 1.503 1_455 S
C248 C247 1.410 . S
C248 C249 1.392 . S
C248 C251 1.511 1_455 S
C249 C245 1.376 . S
C249 C248 1.392 . S
C249 H261 0.929 . S
C250 C246 1.531 . S
C250 H262 0.960 . S
C250 H263 0.962 . S
C250 H264 0.960 . S
C251 C248 1.511 1_655 S
C251 H265 0.961 . S
C251 H266 0.961 . S
C251 H267 0.961 . S
C252 C253 1.370 . S
C252 C254 1.363 . S
C252 H268 0.931 . S
C253 C252 1.370 . S
C253 C257 1.408 . S
C254 C252 1.363 . S
C254 C255 1.370 . S
C254 C258 1.524 . S
C255 C247 1.503 1_655 S
C255 C254 1.370 . S
C255 C256 1.403 . S
C256 C255 1.403 . S
C256 C257 1.404 . S
C256 C259 1.539 . S
C257 C253 1.408 . S
C257 C256 1.404 . S
C257 H269 0.930 . S
C258 C254 1.524 . S
C258 H270 0.956 1_655 S
C258 H271 0.961 . S
C258 H272 0.961 . S
C259 C256 1.539 . S
C259 H273 0.958 . S
C259 H274 0.961 . S
C259 H275 0.960 . S
H260 C244 0.931 . S
H261 C249 0.929 . S
H262 C250 0.960 . S
H263 C250 0.962 . S
H264 C250 0.960 . S
H265 C251 0.961 . S
H266 C251 0.961 . S
H267 C251 0.961 . S
H268 C252 0.931 . S
H269 C257 0.930 . S
H270 C258 0.956 1_455 S
H271 C258 0.961 . S
H272 C258 0.961 . S
H273 C259 0.958 . S
H274 C259 0.961 . S
H275 C259 0.960 . S
C276 C277 1.391 . S
C276 C278 1.394 . S
C276 H292 0.931 . S
C277 C276 1.391 . S
C277 C281 1.376 . S
C278 C276 1.394 . S
C278 C279 1.369 . S
C278 C282 1.531 . S
C279 C278 1.369 . S
C279 C280 1.410 . S
C279 C287 1.503 . S
C280 C279 1.410 . S
C280 C281 1.392 . S
C280 C283 1.511 . S
C281 C277 1.376 . S
C281 C280 1.392 . S
C281 H293 0.929 . S
C282 C278 1.531 . S
C282 H294 0.960 . S
C282 H295 0.962 . S
C282 H296 0.960 . S
C283 C280 1.511 . S
C283 H297 0.961 . S
C283 H298 0.961 . S
C283 H299 0.961 . S
C284 C285 1.370 . S
C284 C286 1.363 . S
C284 H300 0.931 . S
C285 C284 1.370 . S
C285 C289 1.408 . S
C286 C284 1.363 . S
C286 C287 1.370 . S
C286 C290 1.524 . S
C287 C279 1.503 . S
C287 C286 1.370 . S
C287 C288 1.403 . S
C288 C287 1.403 . S
C288 C289 1.404 . S
C288 C291 1.539 . S
C289 C285 1.408 . S
C289 C288 1.404 . S
C289 H301 0.930 . S
C290 C286 1.524 . S
C290 H302 0.956 . S
C290 H303 0.961 . S
C290 H304 0.961 . S
C291 C288 1.539 . S
C291 H305 0.958 . S
C291 H306 0.961 . S
C291 H307 0.960 . S
H292 C276 0.931 . S
H293 C281 0.929 . S
H294 C282 0.960 . S
H295 C282 0.962 . S
H296 C282 0.960 . S
H297 C283 0.961 . S
H298 C283 0.961 . S
H299 C283 0.961 . S
H300 C284 0.931 . S
H301 C289 0.930 . S
H302 C290 0.956 . S
H303 C290 0.961 . S
H304 C290 0.961 . S
H305 C291 0.958 . S
H306 C291 0.961 . S
H307 C291 0.960 . S
C308 C309 1.391 . S
C308 C310 1.394 . S
C308 H324 0.931 . S
C309 C308 1.391 . S
C309 C313 1.376 . S
C310 C308 1.394 . S
C310 C311 1.369 . S
C310 C314 1.531 . S
C311 C310 1.369 . S
C311 C312 1.410 . S
C311 C319 1.503 . S
C312 C311 1.410 . S
C312 C313 1.392 . S
C312 C315 1.511 . S
C313 C309 1.376 . S
C313 C312 1.392 . S
C313 H325 0.929 . S
C314 C310 1.531 . S
C314 H326 0.960 . S
C314 H327 0.962 . S
C314 H328 0.960 . S
C315 C312 1.511 . S
C315 H329 0.961 . S
C315 H330 0.961 . S
C315 H331 0.961 . S
C316 C317 1.370 . S
C316 C318 1.363 . S
C316 H332 0.931 . S
C317 C316 1.370 . S
C317 C321 1.408 . S
C318 C316 1.363 . S
C318 C319 1.370 . S
C318 C322 1.524 . S
C319 C311 1.503 . S
C319 C318 1.370 . S
C319 C320 1.403 . S
C320 C319 1.403 . S
C320 C321 1.404 . S
C320 C323 1.539 . S
C321 C317 1.408 . S
C321 C320 1.404 . S
C321 H333 0.930 . S
C322 C318 1.524 . S
C322 H334 0.956 . S
C322 H335 0.961 . S
C322 H336 0.961 . S
C323 C320 1.539 . S
C323 H337 0.958 . S
C323 H338 0.961 . S
C323 H339 0.960 . S
H324 C308 0.931 . S
H325 C313 0.929 . S
H326 C314 0.960 . S
H327 C314 0.962 . S
H328 C314 0.960 . S
H329 C315 0.961 . S
H330 C315 0.961 . S
H331 C315 0.961 . S
H332 C316 0.931 . S
H333 C321 0.930 . S
H334 C322 0.956 . S
H335 C322 0.961 . S
H336 C322 0.961 . S
H337 C323 0.958 . S
H338 C323 0.961 . S
H339 C323 0.960 . S
C340 C341 1.391 . S
C340 C342 1.394 . S
C340 H356 0.931 . S
C341 C340 1.391 . S
C341 C345 1.376 . S
C342 C340 1.394 . S
C342 C343 1.369 . S
C342 C346 1.531 . S
C343 C342 1.369 . S
C343 C344 1.410 . S
C343 C351 1.503 . S
C344 C343 1.410 . S
C344 C345 1.392 . S
C344 C347 1.511 . S
C345 C341 1.376 . S
C345 C344 1.392 . S
C345 H357 0.929 . S
C346 C342 1.531 . S
C346 H358 0.960 . S
C346 H359 0.962 . S
C346 H360 0.960 . S
C347 C344 1.511 . S
C347 H361 0.961 . S
C347 H362 0.961 . S
C347 H363 0.961 . S
C348 C349 1.370 . S
C348 C350 1.363 . S
C348 H364 0.931 . S
C349 C348 1.370 . S
C349 C353 1.408 . S
C350 C348 1.363 . S
C350 C351 1.370 . S
C350 C354 1.524 . S
C351 C343 1.503 . S
C351 C350 1.370 . S
C351 C352 1.403 . S
C352 C351 1.403 . S
C352 C353 1.404 . S
C352 C355 1.539 . S
C353 C349 1.408 . S
C353 C352 1.404 . S
C353 H365 0.930 . S
C354 C350 1.524 . S
C354 H366 0.956 . S
C354 H367 0.961 . S
C354 H368 0.961 . S
C355 C352 1.539 . S
C355 H369 0.958 . S
C355 H370 0.961 . S
C355 H371 0.960 . S
H356 C340 0.931 . S
H357 C345 0.929 . S
H358 C346 0.960 . S
H359 C346 0.962 . S
H360 C346 0.960 . S
H361 C347 0.961 . S
H362 C347 0.961 . S
H363 C347 0.961 . S
H364 C348 0.931 . S
H365 C353 0.930 . S
H366 C354 0.956 . S
H367 C354 0.961 . S
H368 C354 0.961 . S
H369 C355 0.958 . S
H370 C355 0.961 . S
H371 C355 0.960 . S
C372 C373 1.391 . S
C372 C374 1.394 . S
C372 H388 0.931 . S
C373 C372 1.391 . S
C373 C377 1.376 . S
C374 C372 1.394 . S
C374 C375 1.369 . S
C374 C378 1.531 . S
C375 C374 1.369 . S
C375 C376 1.410 . S
C375 C383 1.503 . S
C376 C375 1.410 . S
C376 C377 1.392 . S
C376 C379 1.511 . S
C377 C373 1.376 . S
C377 C376 1.392 . S
C377 H389 0.929 . S
C378 C374 1.531 . S
C378 H390 0.960 . S
C378 H391 0.962 . S
C378 H392 0.960 . S
C379 C376 1.511 . S
C379 H393 0.961 . S
C379 H394 0.961 . S
C379 H395 0.961 . S
C380 C381 1.370 . S
C380 C382 1.363 . S
C380 H396 0.931 1_556 S
C381 C380 1.370 . S
C381 C385 1.408 . S
C382 C380 1.363 . S
C382 C383 1.370 . S
C382 C386 1.524 . S
C383 C375 1.503 . S
C383 C382 1.370 . S
C383 C384 1.403 . S
C384 C383 1.403 . S
C384 C385 1.404 . S
C384 C387 1.539 . S
C385 C381 1.408 . S
C385 C384 1.404 . S
C385 H397 0.930 . S
C386 C382 1.524 . S
C386 H398 0.956 . S
C386 H399 0.961 . S
C386 H400 0.961 . S
C387 C384 1.539 . S
C387 H401 0.958 . S
C387 H402 0.961 . S
C387 H403 0.960 . S
H388 C372 0.931 . S
H389 C377 0.929 . S
H390 C378 0.960 . S
H391 C378 0.962 . S
H392 C378 0.960 . S
H393 C379 0.961 . S
H394 C379 0.961 . S
H395 C379 0.961 . S
H396 C380 0.931 1_554 S
H397 C385 0.930 . S
H398 C386 0.956 . S
H399 C386 0.961 . S
H400 C386 0.961 . S
H401 C387 0.958 . S
H402 C387 0.961 . S
H403 C387 0.960 . S
C404 C405 1.391 . S
C404 C406 1.394 . S
C404 H420 0.931 . S
C405 C404 1.391 . S
C405 C409 1.376 . S
C406 C404 1.394 . S
C406 C407 1.369 . S
C406 C410 1.531 . S
C407 C406 1.369 . S
C407 C408 1.410 . S
C407 C415 1.503 . S
C408 C407 1.410 . S
C408 C409 1.392 . S
C408 C411 1.511 . S
C409 C405 1.376 . S
C409 C408 1.392 . S
C409 H421 0.929 1_554 S
C410 C406 1.531 . S
C410 H422 0.960 . S
C410 H423 0.962 . S
C410 H424 0.960 . S
C411 C408 1.511 . S
C411 H425 0.961 . S
C411 H426 0.961 . S
C411 H427 0.961 . S
C412 C413 1.370 . S
C412 C414 1.363 . S
C412 H428 0.931 . S
C413 C412 1.370 . S
C413 C417 1.408 . S
C414 C412 1.363 . S
C414 C415 1.370 . S
C414 C418 1.524 . S
C415 C407 1.503 . S
C415 C414 1.370 . S
C415 C416 1.403 . S
C416 C415 1.403 . S
C416 C417 1.404 . S
C416 C419 1.539 . S
C417 C413 1.408 . S
C417 C416 1.404 . S
C417 H429 0.930 . S
C418 C414 1.524 . S
C418 H430 0.956 . S
C418 H431 0.961 . S
C418 H432 0.961 . S
C419 C416 1.539 . S
C419 H433 0.958 . S
C419 H434 0.961 . S
C419 H435 0.960 . S
H420 C404 0.931 . S
H421 C409 0.929 1_556 S
H422 C410 0.960 . S
H423 C410 0.962 . S
H424 C410 0.960 . S
H425 C411 0.961 . S
H426 C411 0.961 . S
H427 C411 0.961 . S
H428 C412 0.931 . S
H429 C417 0.930 . S
H430 C418 0.956 . S
H431 C418 0.961 . S
H432 C418 0.961 . S
H433 C419 0.958 . S
H434 C419 0.961 . S
H435 C419 0.960 . S
C436 C437 1.391 . S
C436 C438 1.394 . S
C436 H452 0.931 . S
C437 C436 1.391 . S
C437 C441 1.376 . S
C438 C436 1.394 . S
C438 C439 1.369 . S
C438 C442 1.531 . S
C439 C438 1.369 . S
C439 C440 1.410 . S
C439 C447 1.503 . S
C440 C439 1.410 . S
C440 C441 1.392 . S
C440 C443 1.511 . S
C441 C437 1.376 . S
C441 C440 1.392 . S
C441 H453 0.929 . S
C442 C438 1.531 . S
C442 H454 0.960 . S
C442 H455 0.962 . S
C442 H456 0.960 . S
C443 C440 1.511 . S
C443 H457 0.961 . S
C443 H458 0.961 . S
C443 H459 0.961 . S
C444 C445 1.370 . S
C444 C446 1.363 . S
C444 H460 0.931 . S
C445 C444 1.370 . S
C445 C449 1.408 . S
C446 C444 1.363 . S
C446 C447 1.370 . S
C446 C450 1.524 . S
C447 C439 1.503 . S
C447 C446 1.370 . S
C447 C448 1.403 . S
C448 C447 1.403 . S
C448 C449 1.404 . S
C448 C451 1.539 . S
C449 C445 1.408 . S
C449 C448 1.404 . S
C449 H461 0.930 . S
C450 C446 1.524 . S
C450 H462 0.956 . S
C450 H463 0.961 . S
C450 H464 0.961 . S
C451 C448 1.539 . S
C451 H465 0.958 . S
C451 H466 0.961 . S
C451 H467 0.960 . S
H452 C436 0.931 . S
H453 C441 0.929 . S
H454 C442 0.960 . S
H455 C442 0.962 . S
H456 C442 0.960 . S
H457 C443 0.961 . S
H458 C443 0.961 . S
H459 C443 0.961 . S
H460 C444 0.931 . S
H461 C449 0.930 . S
H462 C450 0.956 . S
H463 C450 0.961 . S
H464 C450 0.961 . S
H465 C451 0.958 . S
H466 C451 0.961 . S
H467 C451 0.960 . S
C85 C13 1.365 . S
C93 C77 1.426 . S
C117 C7 1.411 . S
C125 C27 1.348 . S
C149 C41 1.339 . S
C157 C21 1.423 . S
C181 C55 1.320 . S
C189 C35 1.420 . S
C213 C69 1.366 . S
C221 C49 1.423 . S
C245 C83 1.369 . S
C253 C63 1.426 . S
C277 C11 1.519 . S
C285 C64 1.493 . S
C309 C78 1.480 . S
C317 C25 1.524 . S
C341 C39 1.515 . S
C349 C8 1.491 . S
C373 C22 1.483 . S
C381 C53 1.527 1_556 S
C405 C36 1.486 1_554 S
C413 C67 1.528 . S
C437 C81 1.515 . S
C445 C50 1.492 . S
