# Generated by pormake.
# Topology why, (6)-cn, num edge types: 1
# Building blocks:
#     Node 0, Type 0, BuildingBlock: HISSIN_clean_sbu_0, # of connection points: 6
#     Node 1, Type 0, BuildingBlock: HISSIN_clean_sbu_0, # of connection points: 6
#     Node 2, Type 0, BuildingBlock: HISSIN_clean_sbu_0, # of connection points: 6
#     Node 3, Type 0, BuildingBlock: HISSIN_clean_sbu_0, # of connection points: 6
#     Node 4, Type 0, BuildingBlock: HISSIN_clean_sbu_0, # of connection points: 6
#     Node 5, Type 0, BuildingBlock: HISSIN_clean_sbu_0, # of connection points: 6
#     Node 6, Type 0, BuildingBlock: HISSIN_clean_sbu_0, # of connection points: 6
#     Node 7, Type 0, BuildingBlock: HISSIN_clean_sbu_0, # of connection points: 6
#     Node 8, Type 0, BuildingBlock: HISSIN_clean_sbu_0, # of connection points: 6
#     Node 9, Type 0, BuildingBlock: HISSIN_clean_sbu_0, # of connection points: 6
#     Node 10, Type 0, BuildingBlock: HISSIN_clean_sbu_0, # of connection points: 6
#     Node 11, Type 0, BuildingBlock: HISSIN_clean_sbu_0, # of connection points: 6
#     Node 12, Type 0, BuildingBlock: HISSIN_clean_sbu_0, # of connection points: 6
#     Node 13, Type 0, BuildingBlock: HISSIN_clean_sbu_0, # of connection points: 6
#     Node 14, Type 0, BuildingBlock: HISSIN_clean_sbu_0, # of connection points: 6
#     Node 15, Type 0, BuildingBlock: HISSIN_clean_sbu_0, # of connection points: 6
#     Edge 16, Type (0, 0), BuildingBlock: EZIPEK_clean_linker_0, # of connection points: 2
#     Edge 17, Type (0, 0), BuildingBlock: EZIPEK_clean_linker_0, # of connection points: 2
#     Edge 18, Type (0, 0), BuildingBlock: EZIPEK_clean_linker_0, # of connection points: 2
#     Edge 19, Type (0, 0), BuildingBlock: EZIPEK_clean_linker_0, # of connection points: 2
#     Edge 20, Type (0, 0), BuildingBlock: EZIPEK_clean_linker_0, # of connection points: 2
#     Edge 21, Type (0, 0), BuildingBlock: EZIPEK_clean_linker_0, # of connection points: 2
#     Edge 22, Type (0, 0), BuildingBlock: EZIPEK_clean_linker_0, # of connection points: 2
#     Edge 23, Type (0, 0), BuildingBlock: EZIPEK_clean_linker_0, # of connection points: 2
#     Edge 24, Type (0, 0), BuildingBlock: EZIPEK_clean_linker_0, # of connection points: 2
#     Edge 25, Type (0, 0), BuildingBlock: EZIPEK_clean_linker_0, # of connection points: 2
#     Edge 26, Type (0, 0), BuildingBlock: EZIPEK_clean_linker_0, # of connection points: 2
#     Edge 27, Type (0, 0), BuildingBlock: EZIPEK_clean_linker_0, # of connection points: 2
#     Edge 28, Type (0, 0), BuildingBlock: EZIPEK_clean_linker_0, # of connection points: 2
#     Edge 29, Type (0, 0), BuildingBlock: EZIPEK_clean_linker_0, # of connection points: 2
#     Edge 30, Type (0, 0), BuildingBlock: EZIPEK_clean_linker_0, # of connection points: 2
#     Edge 31, Type (0, 0), BuildingBlock: EZIPEK_clean_linker_0, # of connection points: 2
#     Edge 32, Type (0, 0), BuildingBlock: EZIPEK_clean_linker_0, # of connection points: 2
#     Edge 33, Type (0, 0), BuildingBlock: EZIPEK_clean_linker_0, # of connection points: 2
#     Edge 34, Type (0, 0), BuildingBlock: EZIPEK_clean_linker_0, # of connection points: 2
#     Edge 35, Type (0, 0), BuildingBlock: EZIPEK_clean_linker_0, # of connection points: 2
#     Edge 36, Type (0, 0), BuildingBlock: EZIPEK_clean_linker_0, # of connection points: 2
#     Edge 37, Type (0, 0), BuildingBlock: EZIPEK_clean_linker_0, # of connection points: 2
#     Edge 38, Type (0, 0), BuildingBlock: EZIPEK_clean_linker_0, # of connection points: 2
#     Edge 39, Type (0, 0), BuildingBlock: EZIPEK_clean_linker_0, # of connection points: 2
#     Edge 40, Type (0, 0), BuildingBlock: EZIPEK_clean_linker_0, # of connection points: 2
#     Edge 41, Type (0, 0), BuildingBlock: EZIPEK_clean_linker_0, # of connection points: 2
#     Edge 42, Type (0, 0), BuildingBlock: EZIPEK_clean_linker_0, # of connection points: 2
#     Edge 43, Type (0, 0), BuildingBlock: EZIPEK_clean_linker_0, # of connection points: 2
#     Edge 44, Type (0, 0), BuildingBlock: EZIPEK_clean_linker_0, # of connection points: 2
#     Edge 45, Type (0, 0), BuildingBlock: EZIPEK_clean_linker_0, # of connection points: 2
#     Edge 46, Type (0, 0), BuildingBlock: EZIPEK_clean_linker_0, # of connection points: 2
#     Edge 47, Type (0, 0), BuildingBlock: EZIPEK_clean_linker_0, # of connection points: 2
#     Edge 48, Type (0, 0), BuildingBlock: EZIPEK_clean_linker_0, # of connection points: 2
#     Edge 49, Type (0, 0), BuildingBlock: EZIPEK_clean_linker_0, # of connection points: 2
#     Edge 50, Type (0, 0), BuildingBlock: EZIPEK_clean_linker_0, # of connection points: 2
#     Edge 51, Type (0, 0), BuildingBlock: EZIPEK_clean_linker_0, # of connection points: 2
#     Edge 52, Type (0, 0), BuildingBlock: EZIPEK_clean_linker_0, # of connection points: 2
#     Edge 53, Type (0, 0), BuildingBlock: EZIPEK_clean_linker_0, # of connection points: 2
#     Edge 54, Type (0, 0), BuildingBlock: EZIPEK_clean_linker_0, # of connection points: 2
#     Edge 55, Type (0, 0), BuildingBlock: EZIPEK_clean_linker_0, # of connection points: 2
#     Edge 56, Type (0, 0), BuildingBlock: EZIPEK_clean_linker_0, # of connection points: 2
#     Edge 57, Type (0, 0), BuildingBlock: EZIPEK_clean_linker_0, # of connection points: 2
#     Edge 58, Type (0, 0), BuildingBlock: EZIPEK_clean_linker_0, # of connection points: 2
#     Edge 59, Type (0, 0), BuildingBlock: EZIPEK_clean_linker_0, # of connection points: 2
#     Edge 60, Type (0, 0), BuildingBlock: EZIPEK_clean_linker_0, # of connection points: 2
#     Edge 61, Type (0, 0), BuildingBlock: EZIPEK_clean_linker_0, # of connection points: 2
#     Edge 62, Type (0, 0), BuildingBlock: EZIPEK_clean_linker_0, # of connection points: 2
#     Edge 63, Type (0, 0), BuildingBlock: EZIPEK_clean_linker_0, # of connection points: 2
# Relax obj value: 0.532
# Max RMSD: 0.259
# Mean RMSD: 0.259
data_MOF--net-why--node1-HISSIN_clean_sbu_0--edge1-EZIPEK_clean_linker_0
_symmetry_space_group_name_H-M    P1
_symmetry_Int_Tables_number       1
_symmetry_cell_setting            triclinic
loop_
_symmetry_equiv_pos_as_xyz
'x, y, z'
_cell_length_a     36.398403
_cell_length_b     36.694529
_cell_length_c     31.974044
_cell_angle_alpha  90.02231
_cell_angle_beta   90.212375
_cell_angle_gamma 89.757674
loop_
_atom_site_label
_atom_site_type_symbol
_atom_site_fract_x
_atom_site_fract_y
_atom_site_fract_z
_atom_type_partial_charge
Eu0 Eu 0.54084 0.23499 0.07488 0.0
Eu1 Eu 0.49275 0.28354 0.12955 0.0
C2 C 0.51112 0.30913 0.03566 0.0
C3 C 0.59975 0.20295 0.98664 0.0
C4 C 0.58877 0.23391 0.96404 0.0
C5 C 0.6444 0.18911 0.93273 0.0
C6 C 0.60462 0.24197 0.92566 0.0
C7 C 0.62783 0.18062 0.97096 0.0
C8 C 0.63261 0.21973 0.90976 0.0
C9 C 0.58155 0.1944 0.02631 0.0
O10 O 0.44865 0.26922 0.07802 0.0
O11 O 0.48215 0.22868 0.04118 0.0
C12 C 0.45004 0.24643 0.04563 0.0
O13 O 0.53614 0.19685 0.13381 0.0
O14 O 0.48759 0.33232 0.16819 0.0
O15 O 0.44156 0.29532 0.16211 0.0
O16 O 0.49747 0.23087 0.173 0.0
C17 C 0.51626 0.19974 0.16842 0.0
O18 O 0.5832 0.28326 0.089 0.0
O19 O 0.54755 0.31864 0.13065 0.0
O20 O 0.48772 0.31083 0.06655 0.0
O21 O 0.59428 0.2112 0.05921 0.0
O22 O 0.54575 0.19493 0.02493 0.0
O23 O 0.53796 0.28551 0.03573 0.0
C24 C 0.42995 0.35814 0.15453 0.0
C25 C 0.42748 0.39121 0.17587 0.0
C26 C 0.39225 0.38323 0.09835 0.0
C27 C 0.40659 0.41972 0.15927 0.0
C28 C 0.41338 0.35483 0.11491 0.0
C29 C 0.38711 0.41556 0.12113 0.0
C30 C 0.4522 0.3282 0.17184 0.0
C31 C 0.5794 0.31447 0.11051 0.0
H32 H 0.56777 0.25182 0.97597 0.0
H33 H 0.66608 0.1717 0.92082 0.0
H34 H 0.5952 0.26568 0.90842 0.0
H35 H 0.63682 0.15673 0.98814 0.0
H36 H 0.44105 0.39474 0.20581 0.0
H37 H 0.37918 0.37922 0.06835 0.0
H38 H 0.40395 0.44411 0.17805 0.0
H39 H 0.41614 0.33002 0.09693 0.0
Eu40 Eu 0.78129 0.77586 0.32338 0.0
Eu41 Eu 0.7337 0.7292 0.3784 0.0
C42 C 0.70609 0.74795 0.28392 0.0
C43 C 0.81658 0.83235 0.23489 0.0
C44 C 0.78655 0.82109 0.21056 0.0
C45 C 0.83066 0.87825 0.18285 0.0
C46 C 0.77872 0.83795 0.17258 0.0
C47 C 0.83871 0.86099 0.22086 0.0
C48 C 0.80052 0.8668 0.15866 0.0
C49 C 0.82369 0.81482 0.27536 0.0
O50 O 0.74685 0.68383 0.32835 0.0
O51 O 0.78692 0.71711 0.29071 0.0
C52 C 0.76927 0.68525 0.2955 0.0
O53 O 0.81893 0.77288 0.38359 0.0
O54 O 0.69721 0.73009 0.43219 0.0
O55 O 0.71039 0.67873 0.4024 0.0
O56 O 0.78909 0.72845 0.41798 0.0
C57 C 0.81843 0.74994 0.41572 0.0
O58 O 0.73193 0.81818 0.33461 0.0
O59 O 0.69937 0.78465 0.38009 0.0
O60 O 0.70252 0.72707 0.31694 0.0
O61 O 0.80561 0.82829 0.30695 0.0
O62 O 0.82311 0.77929 0.275 0.0
O63 O 0.73175 0.7726 0.28201 0.0
C64 C 0.64948 0.68879 0.42317 0.0
C65 C 0.62906 0.67654 0.45712 0.0
C66 C 0.59405 0.69052 0.38031 0.0
C67 C 0.5915 0.67076 0.45258 0.0
C68 C 0.6318 0.6962 0.38489 0.0
C69 C 0.57379 0.67687 0.41392 0.0
C70 C 0.68874 0.69582 0.42825 0.0
C71 C 0.70175 0.81567 0.35841 0.0
H72 H 0.76893 0.79945 0.22112 0.0
H73 H 0.84765 0.90063 0.17243 0.0
H74 H 0.75533 0.82889 0.15432 0.0
H75 H 0.86186 0.87018 0.23941 0.0
H76 H 0.64212 0.67145 0.48708 0.0
H77 H 0.58088 0.69646 0.35065 0.0
H78 H 0.57625 0.66122 0.47938 0.0
H79 H 0.64721 0.70631 0.35862 0.0
Eu80 Eu 0.23808 1.01978 0.5728 0.0
Eu81 Eu 0.28476 0.97128 0.62824 0.0
C82 C 0.26699 0.94437 0.53459 0.0
C83 C 0.18496 1.05668 0.48165 0.0
C84 C 0.20584 1.03515 0.45415 0.0
C85 C 0.1384 1.06421 0.428 0.0
C86 C 0.1929 1.02793 0.41389 0.0
C87 C 0.15144 1.07156 0.46824 0.0
C88 C 0.15879 1.04187 0.40096 0.0
C89 C 0.19605 1.06022 0.52549 0.0
O90 O 0.33043 0.98693 0.57861 0.0
O91 O 0.29502 1.0219 0.53553 0.0
C92 C 0.32757 1.00556 0.54275 0.0
O93 O 0.24415 1.05934 0.63049 0.0
O94 O 0.28858 0.94206 0.68734 0.0
O95 O 0.33547 0.94336 0.64566 0.0
O96 O 0.28227 1.02514 0.67004 0.0
C97 C 0.26389 1.05644 0.66531 0.0
O98 O 0.19499 0.97224 0.58794 0.0
O99 O 0.23035 0.93566 0.62819 0.0
O100 O 0.27448 0.93413 0.57292 0.0
O101 O 0.18362 1.03475 0.54996 0.0
O102 O 0.23065 1.06718 0.53241 0.0
O103 O 0.25508 0.9773 0.52671 0.0
C104 C 0.32219 0.88825 0.67898 0.0
C105 C 0.34137 0.87055 0.71094 0.0
C106 C 0.30584 0.82965 0.64859 0.0
C107 C 0.34305 0.83265 0.71159 0.0
C108 C 0.30406 0.86771 0.64803 0.0
C109 C 0.32585 0.81199 0.6801 0.0
C110 C 0.32055 0.92805 0.67822 0.0
C111 C 0.19814 0.94064 0.60884 0.0
H112 H 0.23162 1.02311 0.46417 0.0
H113 H 1.11201 1.07515 0.41829 0.0
H114 H 0.20888 1.01065 0.39328 0.0
H115 H 0.13489 1.0879 0.48927 0.0
H116 H 0.35508 0.88599 0.73528 0.0
H117 H 0.29202 0.81412 0.62444 0.0
H118 H 0.35799 0.81939 0.73667 0.0
H119 H 0.28867 0.88107 0.62341 0.0
Eu120 Eu 0.99998 0.47969 0.82225 0.0
Eu121 Eu 1.04515 0.52396 0.88292 0.0
C122 C 1.0798 0.51023 0.7928 0.0
C123 C 0.96903 0.43086 0.72591 0.0
C124 C 1.00497 0.42152 0.71396 0.0
C125 C 0.94749 0.41721 0.65583 0.0
C126 C 1.01178 0.40848 0.6738 0.0
C127 C 0.94056 0.42978 0.6963 0.0
C128 C 0.98287 0.40524 0.645 0.0
C129 C 0.96133 0.44238 0.76888 0.0
O130 O 1.03229 0.56995 0.832 0.0
O131 O 0.99852 0.53623 0.78644 0.0
C132 C 1.01465 0.56799 0.79516 0.0
O133 O 0.95653 0.48482 0.87701 0.0
O134 O 1.05683 0.57603 0.91315 0.0
O135 O 1.08162 0.52637 0.93703 0.0
O136 O 0.99127 0.51572 0.92294 0.0
C137 C 0.95917 0.50041 0.91441 0.0
O138 O 1.04768 0.43628 0.83705 0.0
O139 O 1.082 0.46998 0.88202 0.0
O140 O 1.08587 0.52306 0.83042 0.0
O141 O 0.9814 0.42736 0.79815 0.0
O142 O 0.95744 0.47735 0.77412 0.0
O143 O 1.04931 0.49312 0.78319 0.0
C144 C 1.05518 0.56702 0.98581 0.0
C145 C 1.04017 0.53828 1.00921 0.0
C146 C 1.03047 0.60981 0.03614 0.0
C147 C 1.021 0.54521 0.04616 0.0
C148 C 1.04976 0.60281 0.99938 0.0
C149 C 1.01628 0.58104 0.06078 0.0
C150 C 1.07266 0.56014 0.94501 0.0
C151 C 1.07848 0.43905 0.86008 0.0
H152 H 1.02753 0.42311 0.73609 0.0
H153 H 0.92489 0.41446 0.63392 0.0
H154 H 1.03917 0.39916 0.66585 0.0
H155 H 0.91284 0.43757 0.70486 0.0
H156 H 1.04311 0.5103 0.99898 0.0
H157 H 1.02829 0.63798 0.04586 0.0
H158 H 1.01046 0.52227 0.06333 0.0
H159 H 1.06047 0.62546 0.98149 0.0
Eu160 Eu 0.78254 0.97312 0.91442 0.0
Eu161 Eu 0.73678 1.02199 0.97012 0.0
C162 C 0.7631 1.05887 0.8779 0.0
C163 C 0.81825 0.88968 0.86364 0.0
C164 C 0.83052 0.87175 0.82787 0.0
C165 C 0.80531 0.83128 0.89649 0.0
C166 C 0.83074 0.83386 0.82659 0.0
C167 C 0.80505 0.86936 0.89773 0.0
C168 C 0.81906 0.81325 0.86124 0.0
C169 C 0.81751 0.9295 0.86455 0.0
O170 O 0.69309 0.97497 0.95448 0.0
O171 O 0.7278 0.93793 0.91434 0.0
C172 C 0.69577 0.94326 0.9337 0.0
O173 O 0.77186 0.93579 0.96925 0.0
O174 O 0.72985 1.0686 1.01182 0.0
O175 O 0.68243 1.03727 0.99267 0.0
O176 O 0.75359 0.979 1.0158 0.0
C177 C 0.76495 0.94596 1.00764 0.0
O178 O 0.82863 0.98801 0.96423 0.0
O179 O 0.7939 1.02318 1.00753 0.0
O180 O 0.74381 1.06212 0.91293 0.0
O181 O 0.78584 0.94416 0.8551 0.0
O182 O 0.83279 0.94455 0.8972 0.0
O183 O 0.78051 1.02708 0.87282 0.0
C184 C 0.68416 1.05695 0.06201 0.0
C185 C 0.7055 1.03529 0.08913 0.0
C186 C 0.63776 1.06283 0.11577 0.0
C187 C 0.69295 1.02732 0.12928 0.0
C188 C 0.65041 1.07093 0.07566 0.0
C189 C 0.65875 1.0406 0.14254 0.0
C190 C 0.69519 1.06177 0.01832 0.0
C191 C 0.82619 1.00647 1.00024 0.0
H192 H 0.84 0.887 0.801 0.0
H193 H 0.79511 0.81606 0.923 0.0
H194 H 0.84049 0.82059 0.7985 0.0
H195 H 0.7947 0.88287 0.92532 0.0
H196 H 0.73147 1.02392 0.07897 0.0
H197 H 0.61134 1.07334 0.12573 0.0
H198 H 0.70945 1.01022 0.14967 0.0
H199 H 0.63347 1.08733 0.05496 0.0
Eu200 Eu 0.54641 0.52492 0.65891 0.0
Eu201 Eu 0.50092 0.48082 0.71824 0.0
C202 C 0.46055 0.50263 0.62627 0.0
C203 C 0.55202 0.57859 0.56326 0.0
C204 C 0.51443 0.58717 0.56709 0.0
C205 C 0.54834 0.59199 0.48948 0.0
C206 C 0.49406 0.59875 0.53239 0.0
C207 C 0.56859 0.58039 0.52409 0.0
C208 C 0.51099 0.60237 0.49328 0.0
C209 C 0.57276 0.56441 0.59925 0.0
O210 O 0.54882 0.43758 0.70277 0.0
O211 O 0.5844 0.47194 0.66009 0.0
C212 C 0.58019 0.4406 0.68093 0.0
O213 O 0.58794 0.52057 0.71079 0.0
O214 O 0.48145 0.42754 0.73817 0.0
O215 O 0.45918 0.47642 0.76663 0.0
O216 O 0.54968 0.49429 0.75883 0.0
C217 C 0.58109 0.50941 0.7489 0.0
O218 O 0.53184 0.5707 0.70936 0.0
O219 O 0.49913 0.53668 0.75516 0.0
O220 O 0.45652 0.49004 0.66487 0.0
O221 O 0.5636 0.57788 0.63554 0.0
O222 O 0.5764 0.52904 0.60014 0.0
O223 O 0.49383 0.5145 0.61695 0.0
C224 C 0.46921 0.42647 0.81026 0.0
C225 C 0.5055 0.4195 0.82313 0.0
C226 C 0.44706 0.40596 0.87754 0.0
C227 C 0.51241 0.40467 0.8625 0.0
C228 C 0.44011 0.42043 0.83791 0.0
C229 C 0.48316 0.39724 0.8895 0.0
C230 C 0.4618 0.4411 0.76855 0.0
C231 C 0.51469 0.56863 0.74632 0.0
H232 H 0.50073 0.58497 0.59699 0.0
H233 H 0.56266 0.59422 0.46 0.0
H234 H 0.46528 0.605 0.53648 0.0
H235 H 0.59725 0.57304 0.52029 0.0
H236 H 0.52837 0.42475 0.80241 0.0
H237 H 0.42427 0.39997 0.89809 0.0
H238 H 0.54036 0.39784 0.87137 0.0
H239 H 0.41205 0.42625 0.82855 0.0
Eu240 Eu 0.99311 0.28065 0.41036 0.0
Eu241 Eu 1.04092 0.23612 0.46591 0.0
C242 C 1.01664 0.19633 0.37629 0.0
C243 C 0.944 0.28713 0.31102 0.0
C244 C 0.92828 0.25255 0.31666 0.0
C245 C 0.9392 0.27896 0.23607 0.0
C246 C 0.91739 0.23165 0.28232 0.0
C247 C 0.95015 0.29973 0.27047 0.0
C248 C 0.92147 0.24494 0.24134 0.0
C249 C 0.95803 0.30785 0.34711 0.0
O250 O 1.08262 0.28513 0.45436 0.0
O251 O 1.04661 0.31859 0.41085 0.0
C252 C 1.07839 0.31573 0.43201 0.0
O253 O 0.98958 0.3161 0.46791 0.0
O254 O 1.09444 0.21559 0.48632 0.0
O255 O 1.04478 0.19309 0.51262 0.0
O256 O 1.03338 0.28576 0.50624 0.0
C257 C 1.00942 0.3123 0.50208 0.0
O258 O 0.9475 0.26898 0.46068 0.0
O259 O 0.98189 0.22953 0.49834 0.0
O260 O 1.04202 0.19865 0.40594 0.0
O261 O 0.94224 0.30148 0.38296 0.0
O262 O 0.99378 0.30867 0.35018 0.0
O263 O 0.99212 0.22316 0.37637 0.0
C264 C 1.09492 0.20176 0.55767 0.0
C265 C 1.07796 0.22762 0.58363 0.0
C266 C 0.14171 0.19188 0.61055 0.0
C267 C 1.09257 0.23547 0.62288 0.0
C268 C 1.1268 0.18379 0.57131 0.0
C269 C 1.12472 0.21792 0.63633 0.0
C270 C 1.08044 0.19528 0.51558 0.0
C271 C 0.9495 0.2469 0.49372 0.0
H272 H 0.92434 0.24153 0.34773 0.0
H273 H 0.94309 0.29084 0.20546 0.0
H274 H 0.90506 0.20549 0.28828 0.0
H275 H 0.96321 0.32583 0.26536 0.0
H276 H 1.05366 0.24204 0.57332 0.0
H277 H 0.16657 0.17811 0.62073 0.0
H278 H 1.07917 0.25556 0.64251 0.0
H279 H 0.14036 0.16398 0.55146 0.0
Eu280 Eu 0.23255 0.72983 0.15999 0.0
Eu281 Eu 0.28187 0.77447 0.21765 0.0
C282 C 0.31804 0.75041 0.12383 0.0
C283 C 0.15237 0.67771 0.12254 0.0
C284 C 0.13779 0.65027 0.09735 0.0
C285 C 1.10009 0.67279 0.16948 0.0
C286 C 1.1044 0.63442 0.10787 0.0
C287 C 0.13354 0.68879 0.15881 0.0
C288 C 1.08513 0.64583 0.14368 0.0
C289 C 0.18791 0.69371 0.11212 0.0
O290 O 0.23356 0.81797 0.20476 0.0
O291 O 0.19795 0.78487 0.16048 0.0
C292 C 0.20246 0.81564 0.18214 0.0
O293 O 0.20201 0.72746 0.22153 0.0
O294 O 0.30652 0.82662 0.23485 0.0
O295 O 0.32328 0.77735 0.26689 0.0
O296 O 0.23256 0.77099 0.2587 0.0
C297 C 0.20637 0.74704 0.25552 0.0
O298 O 0.2455 0.68363 0.20944 0.0
O299 O 0.28421 0.71586 0.2511 0.0
O300 O 0.32155 0.76845 0.15968 0.0
O301 O 0.18907 0.7292 0.11308 0.0
O302 O 0.21617 0.67874 0.13057 0.0
O303 O 0.28593 0.73385 0.1176 0.0
C304 C 0.31722 0.83045 0.30715 0.0
C305 C 0.28703 0.81954 0.33123 0.0
C306 C 0.33192 0.87611 0.35945 0.0
C307 C 0.27945 0.83649 0.3692 0.0
C308 C 0.33971 0.85879 0.32145 0.0
C309 C 0.30166 0.86504 0.38339 0.0
C310 C 0.32424 0.81287 0.2667 0.0
C311 C 0.26563 0.68476 0.24439 0.0
H312 H 0.15219 0.6411 0.06965 0.0
H313 H 1.08586 0.68161 0.19743 0.0
H314 H 1.09349 0.61322 0.08789 0.0
H315 H 0.14462 0.70987 0.17875 0.0
H316 H 0.26911 0.79811 0.32054 0.0
H317 H 0.34921 0.89825 0.37004 0.0
H318 H 0.25595 0.82774 0.38726 0.0
H319 H 0.36298 0.8677 0.30312 0.0
Eu320 Eu 1.04046 0.73494 0.57394 0.0
Eu321 Eu 0.99296 0.7807 0.6284 0.0
C322 C 1.01645 0.81208 0.53802 0.0
C323 C 1.09183 0.69974 0.48107 0.0
C324 C 1.10753 0.7337 0.47194 0.0
C325 C 1.10299 0.68018 0.40971 0.0
C326 C 1.12142 0.74059 0.43223 0.0
C327 C 1.08911 0.67322 0.44961 0.0
C328 C 1.11962 0.71375 0.40115 0.0
C329 C 1.07605 0.69285 0.5224 0.0
O330 O 0.94593 0.76554 0.58115 0.0
O331 O 0.98271 0.73393 0.53699 0.0
C332 C 0.94936 0.74825 0.54482 0.0
O333 O 1.04039 0.69685 0.63332 0.0
O334 O 0.94277 0.80773 0.64886 0.0
O335 O 0.99011 0.806 0.69013 0.0
O336 O 0.9935 0.7245 0.66553 0.0
C337 C 1.01662 0.6964 0.66458 0.0
O338 O 1.0837 0.78262 0.58824 0.0
O339 O 1.04677 0.81817 0.62857 0.0
O340 O 0.99206 0.81368 0.56825 0.0
O341 O 1.09162 0.70924 0.55406 0.0
O342 O 1.04034 0.69465 0.52386 0.0
O343 O 1.04202 0.78717 0.53864 0.0
C344 C 0.93319 0.79053 0.71841 0.0
C345 C 0.92112 0.75491 0.70972 0.0
C346 C 0.90795 0.78559 0.78779 0.0
C347 C 0.90231 0.73481 0.73983 0.0
C348 C 0.92713 0.80545 0.75789 0.0
C349 C 0.89437 0.75038 0.77878 0.0
C350 C 0.95461 0.81052 0.68724 0.0
C351 C 1.07928 0.814 0.60945 0.0
H352 H 1.10916 0.75486 0.4955 0.0
H353 H 1.10197 0.65907 0.38604 0.0
H354 H 0.13451 0.76649 0.42604 0.0
H355 H 1.07657 0.6471 0.45603 0.0
H356 H 0.92611 0.7426 0.67948 0.0
H357 H 0.9028 0.79842 0.8177 0.0
H358 H 0.89398 0.70732 0.73239 0.0
H359 H 0.93695 0.8325 0.76548 0.0
Eu360 Eu 0.28105 0.27488 0.82244 0.0
Eu361 Eu 0.23308 0.22997 0.88094 0.0
C362 C 0.20269 0.24703 0.78871 0.0
C363 C 0.31714 0.32275 0.72773 0.0
C364 C 0.28456 0.3136 0.70657 0.0
C365 C 0.33673 0.35749 0.66752 0.0
C366 C 0.27751 0.32737 0.66668 0.0
C367 C 0.34367 0.34386 0.70759 0.0
C368 C 0.30314 0.35022 0.64745 0.0
C369 C 0.32209 0.3125 0.77168 0.0
O370 O 0.2477 0.18379 0.83147 0.0
O371 O 0.28234 0.21769 0.78707 0.0
C372 C 0.26594 0.18583 0.79523 0.0
O373 O 0.32147 0.26987 0.88035 0.0
O374 O 0.20461 0.2285 0.9407 0.0
O375 O 0.20524 0.18057 0.90098 0.0
O376 O 0.28831 0.23173 0.92054 0.0
C377 C 0.31943 0.25009 0.9151 0.0
O378 O 0.23319 0.31857 0.83602 0.0
O379 O 0.19832 0.28516 0.88029 0.0
O380 O 0.19422 0.23786 0.82691 0.0
O381 O 0.29873 0.32721 0.79758 0.0
O382 O 0.32691 0.27787 0.7788 0.0
O383 O 0.23499 0.26002 0.7794 0.0
C384 C 0.15008 0.19566 0.93427 0.0
C385 C 0.13233 0.17836 0.9673 0.0
C386 C 1.09087 0.21112 0.90315 0.0
C387 C 1.09411 0.177 0.96799 0.0
C388 C 0.12922 0.21248 0.9025 0.0
C389 C 1.07313 0.19259 0.93547 0.0
C390 C 0.19023 0.19667 0.93308 0.0
C391 C 0.2023 0.31613 0.85873 0.0
H392 H 0.26384 0.29725 0.72161 0.0
H393 H 0.35652 0.37556 0.65324 0.0
H394 H 0.25126 0.32199 0.65188 0.0
H395 H 0.36893 0.35112 0.7235 0.0
H396 H 0.14798 0.16575 0.99234 0.0
H397 H 1.0752 0.22396 0.87829 0.0
H398 H 1.08087 0.16339 0.99384 0.0
H399 H 0.14257 0.22639 0.87707 0.0
Eu400 Eu 0.73978 0.51805 0.07322 0.0
Eu401 Eu 0.78578 0.46969 0.12978 0.0
C402 C 0.76898 0.44367 0.03507 0.0
C403 C 0.68521 0.55249 0.98213 0.0
C404 C 0.70654 0.53143 0.95456 0.0
C405 C 0.63833 0.55867 0.92862 0.0
C406 C 0.69376 0.52392 0.91429 0.0
C407 C 0.65118 0.56628 0.96887 0.0
C408 C 0.65937 0.53712 0.90135 0.0
C409 C 0.69694 0.55738 0.02566 0.0
O410 O 0.83104 0.48397 0.07906 0.0
O411 O 0.79714 0.52136 0.03724 0.0
C412 C 0.82909 0.50381 0.044 0.0
O413 O 0.74702 0.55852 0.13019 0.0
O414 O 0.79011 0.43612 0.18583 0.0
O415 O 0.8383 0.44572 0.14788 0.0
O416 O 0.78249 0.52321 0.17187 0.0
C417 C 0.7657 0.55519 0.16579 0.0
O418 O 0.69827 0.46797 0.08506 0.0
O419 O 0.7307 0.43546 0.13298 0.0
O420 O 0.77493 0.4332 0.07373 0.0
O421 O 0.68481 0.53287 0.0516 0.0
O422 O 0.73167 0.56441 0.03152 0.0
O423 O 0.75848 0.47689 0.02681 0.0
C424 C 0.83013 0.38707 0.17462 0.0
C425 C 0.85035 0.36921 0.20565 0.0
C426 C 0.82344 0.32995 0.13667 0.0
C427 C 0.85736 0.33201 0.20208 0.0
C428 C 0.81626 0.36725 0.14037 0.0
C429 C 0.84451 0.31231 0.16728 0.0
C430 C 0.82381 0.42636 0.17769 0.0
C431 C 0.70029 0.4384 0.10981 0.0
H432 H 0.73275 0.52028 0.96439 0.0
H433 H 0.61176 0.5691 0.91887 0.0
H434 H 0.7103 0.50733 0.89351 0.0
H435 H 0.63428 0.58227 0.9899 0.0
H436 H 0.86095 0.38404 0.23238 0.0
H437 H 0.81309 0.31506 0.10987 0.0
H438 H 0.87323 0.31861 0.22633 0.0
H439 H 0.80022 0.38064 0.11636 0.0
Eu440 Eu 0.49997 0.98068 0.32233 0.0
Eu441 Eu 0.54473 1.02498 0.38305 0.0
C442 C 0.58025 1.01029 0.2936 0.0
C443 C 0.46779 0.93226 0.22578 0.0
C444 C 0.50382 0.92538 0.2122 0.0
C445 C 0.44461 0.91487 0.1575 0.0
C446 C 0.51004 0.91175 0.17215 0.0
C447 C 0.43833 0.92804 0.19786 0.0
C448 C 0.48037 0.90545 0.14508 0.0
C449 C 0.46091 0.94359 0.269 0.0
O450 O 0.53125 1.07154 0.33371 0.0
O451 O 0.49792 1.03793 0.2877 0.0
C452 C 0.5138 1.06978 0.29689 0.0
O453 O 0.45786 0.98272 0.3789 0.0
O454 O 0.56915 1.07505 0.40663 0.0
O455 O 0.5681 1.02685 0.44594 0.0
O456 O 0.48829 1.02243 0.41926 0.0
C457 C 0.45824 1.00279 0.41354 0.0
O458 O 0.54816 0.93772 0.33581 0.0
O459 O 0.58091 0.97037 0.38324 0.0
O460 O 0.58678 1.02101 0.332 0.0
O461 O 0.4818 0.92853 0.29747 0.0
O462 O 0.45687 0.9785 0.27475 0.0
O463 O 0.54898 0.99512 0.28292 0.0
C464 C 0.54969 1.08194 0.47605 0.0
C465 C 0.51433 1.095 0.46603 0.0
C466 C 0.54128 1.10254 0.54707 0.0
C467 C 0.49281 1.11237 0.4962 0.0
C468 C 0.56265 1.08509 0.51695 0.0
C469 C 0.50642 1.11745 0.53688 0.0
C470 C 0.57134 1.06224 0.44464 0.0
C471 C 0.57815 0.93989 0.36021 0.0
H472 H 0.52701 0.92923 0.23308 0.0
H473 H 0.42146 0.90977 0.13695 0.0
H474 H 0.53774 0.90442 0.16298 0.0
H475 H 0.41046 0.93377 0.20774 0.0
H476 H 0.50334 1.09197 0.4347 0.0
H477 H 0.5531 1.10572 0.57796 0.0
H478 H 0.46585 1.12204 0.48732 0.0
H479 H 0.58945 1.07444 0.52551 0.0
Eu480 Eu 0.28496 0.47163 0.41229 0.0
Eu481 Eu 0.23906 0.51882 0.46866 0.0
C482 C 0.26232 0.55655 0.37622 0.0
C483 C 0.31488 0.44083 0.30796 0.0
C484 C 0.28972 0.46633 0.29142 0.0
C485 C 0.33541 0.42687 0.2382 0.0
C486 C 0.28821 0.47285 0.2484 0.0
C487 C 0.3373 0.42076 0.28112 0.0
C488 C 0.31162 0.45358 0.2217 0.0
C489 C 0.31779 0.43566 0.35317 0.0
O490 O 0.19623 0.4704 0.45716 0.0
O491 O 0.22916 0.43779 0.41018 0.0
C492 C 0.19859 0.44061 0.43302 0.0
O493 O 0.29155 0.44015 0.47246 0.0
O494 O 0.18585 0.54086 0.48805 0.0
O495 O 0.23587 0.56077 0.51661 0.0
O496 O 0.24553 0.46862 0.50859 0.0
C497 C 0.27036 0.44277 0.50547 0.0
O498 O 0.33066 0.48309 0.46362 0.0
O499 O 0.29828 0.52463 0.50055 0.0
O500 O 0.24177 0.55834 0.4104 0.0
O501 O 0.33331 0.4623 0.37357 0.0
O502 O 0.28778 0.42454 0.37105 0.0
O503 O 0.28174 0.526 0.3719 0.0
C504 C 0.18483 0.55303 0.5601 0.0
C505 C 0.20217 0.528 0.5869 0.0
C506 C 0.13768 0.56291 0.61227 0.0
C507 C 0.18779 0.52076 0.62626 0.0
C508 C 0.15246 0.57049 0.57292 0.0
C509 C 0.15533 0.53797 0.63906 0.0
C510 C 0.20011 0.55983 0.51848 0.0
C511 C 0.32988 0.50609 0.4961 0.0
H512 H 0.27146 0.48135 0.31177 0.0
H513 H 0.35288 0.41098 0.21784 0.0
H514 H 0.26931 0.49308 0.23609 0.0
H515 H 0.3564 0.40065 0.29333 0.0
H516 H 0.22681 0.514 0.57725 0.0
H517 H 1.11255 0.57641 0.62188 0.0
H518 H 0.20173 0.50149 0.64658 0.0
H519 H 0.13859 0.58971 0.55248 0.0
Eu520 Eu 1.044 1.02273 0.16118 0.0
Eu521 Eu 0.99932 0.97778 0.22073 0.0
C522 C 0.95727 1.00117 0.12982 0.0
C523 C 1.0483 1.07998 0.06862 0.0
C524 C 1.01328 1.09354 0.07899 0.0
C525 C 1.03912 1.1005 0.99764 0.0
C526 C 0.99165 1.1113 0.04908 0.0
C527 C 1.06064 1.08274 0.02754 0.0
C528 C 1.00477 1.1162 1.00826 0.0
C529 C 1.07022 1.0602 0.09989 0.0
O530 O 1.04536 0.93389 0.20364 0.0
O531 O 1.08136 0.96873 0.16258 0.0
C532 C 1.07689 0.93684 0.18249 0.0
O533 O 1.08649 1.01914 0.21173 0.0
O534 O 0.98426 0.92516 0.24701 0.0
O535 O 0.95462 0.97373 0.2657 0.0
O536 O 1.04862 0.99311 0.26027 0.0
C537 C 1.07982 1.00869 0.25005 0.0
O538 O 1.02918 1.06892 0.21071 0.0
O539 O 0.99841 1.034 0.25752 0.0
O540 O 0.95638 0.98159 0.16478 0.0
O541 O 1.06829 1.07289 0.13799 0.0
O542 O 1.06703 1.0248 0.09835 0.0
O543 O 0.98792 1.01976 0.12386 0.0
C544 C 0.96665 0.92938 0.31695 0.0
C545 C 0.9932 0.94762 0.34109 0.0
C546 C 0.95794 0.88617 0.37311 0.0
C547 C 1.00261 0.93468 0.38079 0.0
C548 C 0.94848 0.89916 0.3335 0.0
C549 C 0.98561 0.90336 0.39648 0.0
C550 C 0.96078 0.93932 0.27312 0.0
C551 C 1.01303 1.06635 0.24816 0.0
H552 H 1.00269 1.09069 0.11043 0.0
H553 H 1.05058 1.10343 0.96665 0.0
H554 H 0.96508 1.12161 0.05832 0.0
H555 H 1.08712 1.07161 0.0187 0.0
H556 H 1.0077 0.97087 0.32854 0.0
H557 H 0.94497 0.86167 0.38473 0.0
H558 H 1.02441 0.94783 0.39826 0.0
H559 H 0.92818 0.88468 0.31509 0.0
Eu560 Eu 0.49102 0.78128 0.91024 0.0
Eu561 Eu 0.53924 0.7378 0.96504 0.0
C562 C 0.51566 0.69814 0.87588 0.0
C563 C 0.4351 0.78553 0.81578 0.0
C564 C 0.41804 0.75271 0.82724 0.0
C565 C 0.41901 0.77378 0.74366 0.0
C566 C 0.40071 0.73104 0.79724 0.0
C567 C 0.4363 0.79538 0.7737 0.0
C568 C 0.39978 0.7418 0.75508 0.0
C569 C 0.45483 0.80725 0.8472 0.0
O570 O 0.58086 0.78689 0.95448 0.0
O571 O 0.54446 0.8196 0.91051 0.0
C572 C 0.57625 0.81724 0.93181 0.0
O573 O 0.48678 0.81663 0.96774 0.0
O574 O 0.59165 0.71649 0.98781 0.0
O575 O 0.54088 0.69368 1.01066 0.0
O576 O 0.53247 0.78797 1.00452 0.0
C577 C 0.50741 0.81352 1.00133 0.0
O578 O 0.44506 0.76914 0.95961 0.0
O579 O 0.4804 0.73129 0.99801 0.0
O580 O 0.54283 0.70318 0.90289 0.0
O581 O 0.44137 0.8064 0.88495 0.0
O582 O 0.49048 0.80325 0.84682 0.0
O583 O 0.48872 0.72241 0.87934 0.0
C584 C 0.58895 0.70067 0.05858 0.0
C585 C 0.58127 0.73356 0.07926 0.0
C586 C 0.62452 0.68042 0.11838 0.0
C587 C 0.59564 0.74017 0.11896 0.0
C588 C 0.60995 0.67377 0.07862 0.0
C589 C 0.61803 0.71398 0.13826 0.0
C590 C 0.57636 0.69543 1.01551 0.0
C591 C 0.44763 0.74778 0.99312 0.0
H592 H 0.41793 0.7438 0.85954 0.0
H593 H 0.41925 0.78355 0.71174 0.0
H594 H 0.38754 0.70633 0.80747 0.0
H595 H 0.45022 0.82002 0.76408 0.0
H596 H 0.56536 0.75466 0.06409 0.0
H597 H 0.64223 0.66019 0.13281 0.0
H598 H 0.59092 0.76638 0.13365 0.0
H599 H 0.61609 0.64826 0.06299 0.0
Eu600 Eu 0.7341 0.23155 0.6615 0.0
Eu601 Eu 0.78359 0.27659 0.71795 0.0
C602 C 0.82017 0.25043 0.62519 0.0
C603 C 0.64962 0.19534 0.61223 0.0
C604 C 0.63091 0.18063 0.57811 0.0
C605 C 0.59134 0.20886 0.64617 0.0
C606 C 0.59269 0.17951 0.57824 0.0
C607 C 0.62971 0.20988 0.64605 0.0
C608 C 0.57261 0.19283 0.61264 0.0
C609 C 0.68976 0.19687 0.61189 0.0
O610 O 0.73485 0.31972 0.70484 0.0
O611 O 0.69923 0.2864 0.66111 0.0
C612 C 0.7036 0.31737 0.68246 0.0
O613 O 0.697 0.24147 0.71689 0.0
O614 O 0.80166 0.33046 0.73789 0.0
O615 O 0.8294 0.28241 0.7616 0.0
O616 O 0.73981 0.26196 0.76333 0.0
C617 C 0.70689 0.2499 0.75505 0.0
O618 O 0.7491 0.1859 0.71148 0.0
O619 O 0.78508 0.21982 0.75478 0.0
O620 O 0.82391 0.26877 0.66079 0.0
O621 O 0.70338 0.22873 0.60303 0.0
O622 O 0.70622 0.18146 0.64363 0.0
O623 O 0.78789 0.23405 0.61941 0.0
C624 C 0.81943 0.33104 0.80808 0.0
C625 C 0.79345 0.31453 0.8343 0.0
C626 C 0.8297 0.37764 0.86049 0.0
C627 C 0.78527 0.32979 0.87313 0.0
C628 C 0.83781 0.36241 0.82153 0.0
C629 C 0.803 0.36167 0.88609 0.0
C630 C 0.82474 0.3175 0.76543 0.0
C631 C 0.76797 0.18805 0.74743 0.0
H632 H 0.6458 0.16994 0.55147 0.0
H633 H 0.57644 0.22014 0.67245 0.0
H634 H 0.57875 0.16789 0.55147 0.0
H635 H 0.64379 0.22186 0.6724 0.0
H636 H 0.77887 0.29037 0.82437 0.0
H637 H 0.84347 0.40237 0.87022 0.0
H638 H 0.76461 0.31725 0.89266 0.0
H639 H 0.85767 0.37561 0.80149 0.0
C640 C 0.62011 0.36784 0.14737 0.0
C641 C 0.61087 0.34621 0.11086 0.0
C642 C 0.66249 0.38233 0.07564 0.0
C643 C 0.66885 0.40673 0.11031 0.0
N644 N 0.64783 0.42264 0.17892 0.0
N645 N 0.62132 0.34211 0.03654 0.0
C646 C 0.64584 0.39916 0.14593 0.0
C647 C 0.63174 0.3562 0.07423 0.0
N648 N 0.60581 0.35739 0.18484 0.0
N649 N 0.68747 0.38229 0.04409 0.0
H650 H 0.59904 0.3247 0.03308 0.0
H651 H 0.63213 0.35097 1.00819 0.0
H652 H 0.71068 0.39863 0.0452 0.0
H653 H 0.68758 0.36318 0.01998 0.0
H654 H 0.61383 0.36855 0.21337 0.0
H655 H 0.58878 0.33481 0.18794 0.0
H656 H 0.62949 0.42234 0.20383 0.0
H657 H 0.66606 0.44451 0.17949 0.0
C658 C 0.67754 0.88639 0.35483 0.0
C659 C 0.6698 0.84784 0.36041 0.0
C660 C 0.60197 0.86963 0.36471 0.0
C661 C 0.60995 0.90799 0.36065 0.0
N662 N 0.659 0.95111 0.35363 0.0
N663 N 0.62034 0.80649 0.37817 0.0
C664 C 0.64882 0.91541 0.35623 0.0
C665 C 0.63082 0.8409 0.36735 0.0
N666 N 0.71323 0.89607 0.34833 0.0
N667 N 0.56585 0.8598 0.36568 0.0
H668 H 0.63753 0.78397 0.3777 0.0
H669 H 0.59474 0.80037 0.39069 0.0
H670 H 0.54451 0.87858 0.36872 0.0
H671 H 0.55678 0.83324 0.36091 0.0
H672 H 0.72125 0.92102 0.336 0.0
H673 H 0.73528 0.87886 0.35477 0.0
H674 H 0.68584 0.96028 0.35694 0.0
H675 H 0.64018 0.97226 0.3498 0.0
C676 C 0.15765 0.88738 0.64654 0.0
C677 C 0.16582 0.90938 0.60992 0.0
C678 C 1.12072 0.86614 0.57268 0.0
C679 C 1.11024 0.84622 0.60969 0.0
N680 N 1.11808 0.84387 0.6841 0.0
N681 N 0.14202 0.92256 0.5407 0.0
C682 C 0.12865 0.85888 0.64704 0.0
C683 C 0.14348 0.89942 0.57401 0.0
N684 N 0.1773 0.89392 0.68214 0.0
N685 N 1.10951 0.85308 0.53484 0.0
H686 H 0.15526 0.9475 0.54012 0.0
H687 H 1.12369 0.91935 0.51588 0.0
H688 H 1.09383 0.82967 0.53185 0.0
H689 H 1.11923 0.86303 0.50645 0.0
H690 H 0.17782 0.87629 0.70764 0.0
H691 H 0.19416 0.91654 0.68579 0.0
H692 H 1.12589 0.85398 0.71321 0.0
H693 H 1.09928 0.82255 0.68572 0.0
C694 C 1.10276 0.36878 0.86192 0.0
C695 C 1.11043 0.40737 0.86021 0.0
C696 C 0.1783 0.38663 0.86133 0.0
C697 C 0.17056 0.34805 0.85916 0.0
N698 N 1.12122 0.30568 0.84731 0.0
N699 N 0.15949 0.45006 0.84879 0.0
C700 C 0.13154 0.34038 0.85691 0.0
C701 C 0.14939 0.41513 0.8575 0.0
N702 N 1.06756 0.3585 0.87018 0.0
N703 N 0.2137 0.39677 0.86894 0.0
H704 H 0.14049 0.47101 0.84446 0.0
H705 H 0.18627 0.45741 0.8413 0.0
H706 H 0.23495 0.37793 0.87269 0.0
H707 H 0.22126 0.42345 0.87587 0.0
H708 H 1.06022 0.33173 0.87687 0.0
H709 H 1.04641 0.37728 0.87484 0.0
H710 H 1.09422 0.2984 0.84051 0.0
H711 H 0.14015 0.28508 0.84117 0.0
C712 C 0.65538 0.88999 0.89592 0.0
C713 C 0.66315 0.91222 0.93255 0.0
C714 C 0.61445 0.87192 0.96822 0.0
C715 C 0.60655 0.85005 0.93179 0.0
N716 N 0.62539 0.83738 0.86167 0.0
N717 N 0.63783 0.9277 1.00025 0.0
C718 C 0.62864 0.85935 0.89594 0.0
C719 C 0.6392 0.90386 0.96754 0.0
N720 N 0.67142 0.90013 0.8592 0.0
N721 N 0.59905 0.86153 1.00515 0.0
H722 H 0.65313 0.95138 1.00175 0.0
H723 H 0.61816 0.92648 0.02377 0.0
H724 H 0.58081 0.83989 1.00733 0.0
H725 H 0.60697 0.87192 0.03411 0.0
H726 H 0.66519 0.88882 0.83023 0.0
H727 H 0.68832 0.92283 0.85669 0.0
H728 H 0.64298 0.83804 0.83614 0.0
H729 H 0.60645 0.81614 0.8602 0.0
C730 C 0.60425 0.37028 0.67836 0.0
C731 C 0.61202 0.40882 0.68103 0.0
C732 C 0.67981 0.38791 0.68074 0.0
C733 C 0.67195 0.34934 0.68211 0.0
N734 N 0.62235 0.30694 0.69216 0.0
N735 N 0.66116 0.45111 0.69446 0.0
C736 C 0.63289 0.34174 0.68345 0.0
C737 C 0.65098 0.4164 0.68471 0.0
N738 N 0.56912 0.36023 0.66907 0.0
N739 N 0.71525 0.39809 0.67372 0.0
H740 H 0.64224 0.47205 0.69901 0.0
H741 H 0.68792 0.45818 0.70267 0.0
H742 H 0.73647 0.37928 0.66973 0.0
H743 H 0.72286 0.42486 0.66739 0.0
H744 H 0.56179 0.33357 0.66167 0.0
H745 H 0.54807 0.37912 0.66426 0.0
H746 H 0.59526 0.2997 0.69828 0.0
H747 H 0.64109 0.28613 0.69826 0.0
C748 C 1.12416 0.364 0.39427 0.0
C749 C 1.10933 0.34802 0.43195 0.0
C750 C 0.15416 0.39105 0.47001 0.0
C751 C 0.16703 0.40893 0.43253 0.0
N752 N 0.15773 0.41303 0.35833 0.0
N753 N 1.1085 0.35397 0.50685 0.0
C754 C 0.15014 0.39517 0.39468 0.0
C755 C 1.12422 0.36377 0.46988 0.0
N756 N 1.11466 0.34823 0.35715 0.0
N757 N 0.17191 0.39872 0.5066 0.0
H758 H 1.08748 0.3349 0.50869 0.0
H759 H 1.1137 0.36717 0.53507 0.0
H760 H 0.19303 0.41767 0.50857 0.0
H761 H 0.16818 0.38396 0.53406 0.0
H762 H 1.12699 0.35456 0.32877 0.0
H763 H 1.09662 0.32628 0.3553 0.0
H764 H 0.1439 0.40834 0.33031 0.0
H765 H 0.17571 0.43506 0.3571 0.0
C766 C 0.14831 0.85516 0.21806 0.0
C767 C 0.17075 0.8473 0.18213 0.0
C768 C 0.13136 0.89671 0.14571 0.0
C769 C 1.10843 0.90438 0.18186 0.0
N770 N 1.09147 0.87792 0.24873 0.0
N771 N 0.18451 0.86616 0.11237 0.0
C772 C 1.11613 0.87992 0.21675 0.0
C773 C 0.16201 0.86963 0.14622 0.0
N774 N 0.15844 0.83976 0.25521 0.0
N775 N 1.12179 0.91309 0.10888 0.0
H776 H 0.20584 0.84709 0.11135 0.0
H777 H 0.18427 0.88365 0.08681 0.0
H778 H 1.099 0.93013 0.10592 0.0
H779 H 0.13361 0.90706 0.08015 0.0
H780 H 0.14746 0.84759 0.28391 0.0
H781 H 0.18044 0.82171 0.25788 0.0
H782 H 1.09214 0.85746 0.2713 0.0
H783 H 1.06818 0.89408 0.25112 0.0
C784 C 0.38964 0.2376 0.93801 0.0
C785 C 0.35277 0.2484 0.94884 0.0
C786 C 0.37852 0.25544 0.02323 0.0
C787 C 0.41555 0.24368 1.01264 0.0
N788 N 0.44843 0.21082 0.95851 0.0
N789 N 0.31315 0.26463 1.00571 0.0
C790 C 0.41873 0.23143 0.96959 0.0
C791 C 0.34789 0.25641 0.99261 0.0
N792 N 0.39755 0.23266 0.89671 0.0
N793 N 0.37165 0.26498 0.0637 0.0
H794 H 0.29132 0.26879 0.98507 0.0
H795 H 0.30526 0.26577 0.03692 0.0
H796 H 0.38786 0.25613 0.08858 0.0
H797 H 0.34946 0.28105 0.07284 0.0
H798 H 0.42431 0.23048 0.88547 0.0
H799 H 0.37764 0.2335 0.87325 0.0
H800 H 0.45078 0.19784 0.92968 0.0
H801 H 0.46844 0.20216 0.97942 0.0
C802 C 0.78111 0.62416 0.18869 0.0
C803 C 0.76816 0.58828 0.19938 0.0
C804 C 0.76105 0.61429 0.27343 0.0
C805 C 0.77213 0.65104 0.26249 0.0
N806 N 0.80675 0.6829 0.20922 0.0
N807 N 0.73976 0.55315 0.25344 0.0
C808 C 0.78571 0.65364 0.21985 0.0
C809 C 0.7568 0.58474 0.24228 0.0
N810 N 0.78903 0.63081 0.1477 0.0
N811 N 0.75826 0.60588 0.31489 0.0
H812 H 0.73633 0.53143 0.23277 0.0
H813 H 0.72587 0.54977 0.28157 0.0
H814 H 0.76567 0.62389 0.33857 0.0
H815 H 0.75418 0.57958 0.32606 0.0
H816 H 0.79229 0.65692 0.13555 0.0
H817 H 0.78967 0.6104 0.12505 0.0
H818 H 0.82105 0.68487 0.1812 0.0
H819 H 0.81447 0.70315 0.22999 0.0
C820 C 0.38637 1.0045 0.43417 0.0
C821 C 0.42449 1.00373 0.44669 0.0
C822 C 0.39915 1.00968 0.52123 0.0
C823 C 0.36105 1.00624 0.50908 0.0
N824 N 0.32173 0.99339 0.44987 0.0
N825 N 0.46442 0.99887 0.50672 0.0
C826 C 0.35591 1.00184 0.46438 0.0
C827 C 0.4298 1.00465 0.49153 0.0
N828 N 0.37851 1.00984 0.39286 0.0
N829 N 0.40664 1.0197 0.56146 0.0
H830 H 0.48688 0.99381 0.48746 0.0
H831 H 0.47016 0.99503 0.53835 0.0
H832 H 0.3861 1.02486 0.58331 0.0
H833 H 0.43279 1.02692 0.57178 0.0
H834 H 0.35207 1.01508 0.38172 0.0
H835 H 0.39876 1.01316 0.37026 0.0
H836 H 0.3167 0.98464 0.41938 0.0
H837 H 0.29892 0.99167 0.46907 0.0
C838 C 1.01136 0.66923 0.74296 0.0
C839 C 1.0155 0.66353 0.69847 0.0
C840 C 1.02183 0.59606 0.71761 0.0
C841 C 1.01453 0.60128 0.76167 0.0
N842 N 0.99571 0.64571 0.81262 0.0
N843 N 1.01664 0.61725 0.64516 0.0
C844 C 1.00765 0.63879 0.773 0.0
C845 C 1.01867 0.62572 0.68669 0.0
N846 N 1.01257 0.70417 0.75749 0.0
N847 N 1.03367 0.56262 0.7046 0.0
H848 H 1.01307 0.63686 0.62194 0.0
H849 H 1.01428 0.59067 0.63407 0.0
H850 H 1.03613 0.5404 0.72452 0.0
H851 H 1.04458 0.55786 0.67501 0.0
H852 H 1.01404 0.71078 0.78912 0.0
H853 H 1.01584 0.72658 0.73787 0.0
H854 H 0.98597 0.67104 0.82231 0.0
H855 H 0.99199 0.62517 0.8347 0.0
C856 C 0.85476 1.00221 0.07867 0.0
C857 C 0.85981 1.00649 0.034 0.0
C858 C 0.92856 1.00344 0.05174 0.0
C859 C 0.92342 1.00275 0.09657 0.0
N860 N 0.87776 1.01014 0.15021 0.0
N861 N 0.90548 1.01912 0.98181 0.0
C862 C 0.88538 1.0044 0.10896 0.0
C863 C 0.89791 1.00917 0.02197 0.0
N864 N 0.82052 0.99429 0.09309 0.0
N865 N 0.96294 0.99676 0.03662 0.0
H866 H 0.88497 1.02479 0.9599 0.0
H867 H 0.93175 1.02582 0.97163 0.0
H868 H 0.98535 0.99106 0.05592 0.0
H869 H 0.96841 0.99275 1.005 0.0
H870 H 0.81549 0.98573 0.1236 0.0
H871 H 0.79762 0.99277 0.07381 0.0
H872 H 0.85147 1.01595 0.16118 0.0
H873 H 0.89815 1.01328 0.17285 0.0
C874 C 0.50483 0.66954 0.79888 0.0
C875 C 0.51504 0.66484 0.84236 0.0
C876 C 0.52386 0.59738 0.82336 0.0
C877 C 0.51444 0.60215 0.77962 0.0
N878 N 0.49696 0.6458 0.72722 0.0
N879 N 0.53573 0.62162 0.89386 0.0
C880 C 0.50528 0.63921 0.76822 0.0
C881 C 0.52493 0.62793 0.85352 0.0
N882 N 0.49446 0.70365 0.78633 0.0
N883 N 0.53166 0.56289 0.83689 0.0
H884 H 0.53223 0.64057 0.91776 0.0
H885 H 0.54918 0.59816 0.90392 0.0
H886 H 0.53528 0.54099 0.81678 0.0
H887 H 0.53333 0.55519 0.86812 0.0
H888 H 0.48168 0.70953 0.758 0.0
H889 H 0.49771 0.72663 0.80506 0.0
H890 H 0.49471 0.6716 0.71403 0.0
H891 H 0.49329 0.62504 0.7054 0.0
C892 C 0.84876 0.25903 0.54819 0.0
C893 C 0.85309 0.24795 0.59116 0.0
C894 C 0.91887 0.23071 0.56992 0.0
C895 C 0.91549 0.24403 0.52719 0.0
N896 N 0.8691 0.25746 0.47529 0.0
N897 N 0.89702 0.22777 0.64243 0.0
C898 C 0.87816 0.25483 0.51667 0.0
C899 C 0.88957 0.23533 0.60146 0.0
N900 N 0.81656 0.27578 0.53731 0.0
N901 N 0.9488 0.21004 0.58039 0.0
H902 H 0.87681 0.22709 0.6654 0.0
H903 H 0.92358 0.22482 0.65421 0.0
H904 H 0.96918 0.20257 0.55955 0.0
H905 H 0.95128 0.19591 0.60849 0.0
H906 H 0.81259 0.28942 0.5091 0.0
H907 H 0.79492 0.27923 0.55825 0.0
H908 H 0.84237 0.26131 0.46444 0.0
H909 H 0.88705 0.25022 0.45143 0.0
C910 C 0.23065 0.60585 0.3249 0.0
C911 C 0.26343 0.58935 0.34204 0.0
C912 C 0.29791 0.63626 0.29709 0.0
C913 C 0.26511 0.6513 0.27801 0.0
N914 N 0.19924 0.64406 0.2732 0.0
N915 N 0.32945 0.58969 0.33971 0.0
C916 C 0.23147 0.63411 0.29199 0.0
C917 C 0.29718 0.60496 0.32647 0.0
N918 N 0.19762 0.59477 0.34038 0.0
N919 N 0.33064 0.65209 0.28729 0.0
H920 H 0.33076 0.5701 0.36323 0.0
H921 H 0.35483 0.59495 0.32621 0.0
H922 H 0.33318 0.67168 0.26394 0.0
H923 H 0.35504 0.64725 0.30343 0.0
H924 H 0.17319 0.60919 0.33607 0.0
H925 H 0.19476 0.57218 0.35975 0.0
H926 H 0.17491 0.62949 0.27603 0.0
H927 H 0.19688 0.66562 0.25247 0.0
C928 C 0.88991 0.74969 0.4368 0.0
C929 C 0.85191 0.74818 0.4492 0.0
C930 C 0.87781 0.74115 0.52347 0.0
C931 C 0.91557 0.74689 0.51146 0.0
N932 N 0.95347 0.76487 0.45362 0.0
N933 N 0.81193 0.74875 0.509 0.0
C934 C 0.92016 0.7532 0.46719 0.0
C935 C 0.84678 0.74546 0.49388 0.0
N936 N 0.89793 0.74606 0.39534 0.0
N937 N 0.87114 0.7298 0.56335 0.0
H938 H 0.78917 0.7527 0.48965 0.0
H939 H 0.80604 0.75137 0.54071 0.0
H940 H 0.8921 0.72519 0.58504 0.0
H941 H 0.84546 0.72115 0.57348 0.0
H942 H 0.92461 0.74279 0.38421 0.0
H943 H 0.87783 0.74205 0.37252 0.0
H944 H 0.95817 0.77433 0.4234 0.0
H945 H 0.97519 0.76905 0.47408 0.0
C946 C 0.26942 1.11444 0.77405 0.0
C947 C 0.26643 0.15229 0.76193 0.0
C948 C 0.26678 0.12729 0.68703 0.0
C949 C 0.26546 1.08944 0.69918 0.0
N950 N 0.25836 1.04987 0.75865 0.0
N951 N 0.25345 0.19113 0.70266 0.0
C952 C 0.26495 1.08411 0.74397 0.0
C953 C 0.26279 0.1574 0.71723 0.0
N954 N 0.27835 1.10683 0.81459 0.0
N955 N 0.27386 0.13526 0.64617 0.0
H956 H 0.24936 0.21343 0.72212 0.0
H957 H 0.2457 0.196 0.67175 0.0
H958 H 0.27877 1.11527 0.62371 0.0
H959 H 0.27927 0.16157 0.63568 0.0
H960 H 0.28506 1.08075 0.82504 0.0
H961 H 0.28309 0.12711 0.83676 0.0
H962 H 0.25334 1.04426 0.79004 0.0
H963 H 0.25394 1.02768 0.73896 0.0
C964 C 0.90079 0.50146 0.02242 0.0
C965 C 0.86255 0.50404 1.01036 0.0
C966 C 0.88789 0.50807 0.93569 0.0
C967 C 0.92553 0.50116 0.94754 0.0
N968 N 0.96344 0.48211 1.00538 0.0
N969 N 0.8225 0.50069 0.94988 0.0
C970 C 0.93048 0.49548 0.99186 0.0
C971 C 0.85716 0.50492 0.96541 0.0
N972 N 0.90972 0.50649 0.06347 0.0
N973 N 0.8809 0.51942 0.89581 0.0
H974 H 0.79967 0.49703 0.96869 0.0
H975 H 0.81702 0.49656 0.91822 0.0
H976 H 0.90156 0.52322 0.87379 0.0
H977 H 0.85524 0.52893 0.88608 0.0
H978 H 0.93676 0.50882 0.07395 0.0
H979 H 0.89025 0.51282 0.08617 0.0
H980 H 0.96788 0.47325 0.03596 0.0
H981 H 0.9848 0.47579 0.98498 0.0
C982 C 0.51838 1.09871 0.2196 0.0
C983 C 0.51365 1.10355 0.26412 0.0
C984 C 0.51444 0.1718 0.24686 0.0
C985 C 0.5148 0.16666 0.20205 0.0
N986 N 0.50781 1.1209 0.14848 0.0
N987 N 0.50019 0.14845 0.31686 0.0
C988 C 0.51428 0.12885 0.18955 0.0
C989 C 0.50988 0.14125 0.27652 0.0
N990 N 0.52891 1.06529 0.20518 0.0
N991 N 0.52028 0.20605 0.262 0.0
H992 H 0.49544 0.12796 0.33872 0.0
H993 H 0.49294 0.17437 0.32736 0.0
H994 H 0.52481 0.22837 0.2426 0.0
H995 H 0.5246 0.21158 0.29359 0.0
H996 H 0.53729 1.06077 0.17447 0.0
H997 H 0.53348 1.04309 0.22471 0.0
H998 H 0.50314 1.0945 0.13775 0.0
H999 H 0.50255 0.14084 0.12605 0.0
C1000 C 0.36223 0.52455 0.57114 0.0
C1001 C 0.3643 0.50885 0.52924 0.0
C1002 C 0.42903 0.48845 0.55194 0.0
C1003 C 0.42707 0.50444 0.59294 0.0
N1004 N 0.39221 0.54496 0.63621 0.0
N1005 N 0.40932 0.48862 0.47886 0.0
C1006 C 0.39355 0.52412 0.60082 0.0
C1007 C 0.40041 0.49422 0.51979 0.0
N1008 N 0.33031 0.54067 0.58372 0.0
N1009 N 0.45834 0.46644 0.54332 0.0
H1010 H 0.39239 0.49673 0.45425 0.0
H1011 H 0.43563 0.48146 0.46905 0.0
H1012 H 0.47941 0.46167 0.56486 0.0
H1013 H 0.45986 0.45023 0.51662 0.0
H1014 H 0.32401 0.5455 0.61499 0.0
H1015 H 0.30938 0.54861 0.56366 0.0
H1016 H 0.37183 0.56423 0.64218 0.0
H1017 H 0.41351 0.54558 0.65809 0.0
C1018 C 1.02027 0.12545 0.35551 0.0
C1019 C 1.01518 0.16293 0.34322 0.0
C1020 C 1.00408 0.13687 0.26985 0.0
C1021 C 1.01298 1.09983 0.28132 0.0
N1022 N 1.03582 1.06244 0.33791 0.0
N1023 N 1.00783 0.20256 0.28375 0.0
C1024 C 1.02264 1.09542 0.32499 0.0
C1025 C 1.00844 0.16783 0.299 0.0
N1026 N 1.0209 1.11765 0.39725 0.0
N1027 N 0.98943 0.14277 0.2311 0.0
H1028 H 1.01162 0.22536 0.3027 0.0
H1029 H 1.00719 0.20867 0.25196 0.0
H1030 H 0.98524 1.12183 0.2096 0.0
H1031 H 0.9778 0.16752 0.22206 0.0
H1032 H 1.02002 1.09122 0.40905 0.0
H1033 H 1.01818 0.13756 0.42028 0.0
H1034 H 1.04843 1.05835 0.36683 0.0
H1035 H 1.0374 1.03988 0.31841 0.0
C1036 C 0.3879 0.73683 0.1009 0.0
C1037 C 0.35113 0.74831 0.09008 0.0
C1038 C 0.37617 0.7542 1.01556 0.0
C1039 C 0.41373 0.74469 0.02654 0.0
N1040 N 0.44804 0.71308 0.08081 0.0
N1041 N 0.31414 0.7743 0.03541 0.0
C1042 C 0.41746 0.73251 0.06965 0.0
C1043 C 0.34664 0.75842 0.04684 0.0
N1044 N 0.39533 0.73003 0.14205 0.0
N1045 N 0.36712 0.75554 0.97409 0.0
H1046 H 0.29244 0.77792 0.05622 0.0
H1047 H 0.30997 0.78719 1.00677 0.0
H1048 H 0.38532 0.74816 0.95051 0.0
H1049 H 0.34032 0.75839 0.96309 0.0
H1050 H 0.4219 0.7282 0.15411 0.0
H1051 H 0.37503 0.72872 0.16485 0.0
H1052 H 0.45098 0.69972 0.10933 0.0
H1053 H 0.46866 0.70572 0.06023 0.0
C1054 C 0.76526 0.15998 0.82588 0.0
C1055 C 0.76812 0.15469 0.78111 0.0
C1056 C 0.76416 1.0866 0.79926 0.0
C1057 C 0.76532 1.09192 0.84406 0.0
N1058 N 0.77588 0.13743 0.897 0.0
N1059 N 0.77786 1.10866 0.72858 0.0
C1060 C 0.76823 0.12972 0.85613 0.0
C1061 C 0.76954 1.1167 0.76912 0.0
N1062 N 0.75774 0.19411 0.84049 0.0
N1063 N 0.75605 1.05264 0.78463 0.0
H1064 H 0.78337 0.12867 0.7064 0.0
H1065 H 0.78345 1.08231 0.71819 0.0
H1066 H 0.7509 1.03068 0.80435 0.0
H1067 H 0.75048 1.04722 0.75327 0.0
H1068 H 0.75039 0.19934 0.87139 0.0
H1069 H 0.7549 0.21663 0.82111 0.0
H1070 H 0.7825 0.16348 0.90749 0.0
H1071 H 0.77996 1.11727 0.9195 0.0
C1072 C 0.64409 0.20426 0.83451 0.0
C1073 C 0.64903 0.22843 0.86861 0.0
C1074 C 0.68069 0.27107 0.8226 0.0
C1075 C 0.68183 0.24408 0.79084 0.0
N1076 N 0.66862 0.18187 0.76953 0.0
N1077 N 0.67703 0.28278 0.89684 0.0
C1078 C 0.66431 0.2099 0.79725 0.0
C1079 C 0.6686 0.26141 0.86315 0.0
N1080 N 0.61947 0.17634 0.83725 0.0
N1081 N 0.69059 0.30611 0.81375 0.0
H1082 H 0.66969 0.27609 0.92738 0.0
H1083 H 0.69433 0.30527 0.89497 0.0
H1084 H 0.69797 0.31444 0.78374 0.0
H1085 H 0.6875 0.32754 0.83486 0.0
H1086 H 0.61207 0.16028 0.8117 0.0
H1087 H 0.60366 0.17159 0.86382 0.0
H1088 H 0.66033 0.15531 0.776 0.0
H1089 H 0.683 0.18387 0.74166 0.0
C1090 C 0.75871 0.90708 0.11677 0.0
C1091 C 0.79097 0.88547 0.11905 0.0
C1092 C 0.80658 0.90224 0.04726 0.0
C1093 C 0.77248 0.9213 0.04359 0.0
N1094 N 0.7123 0.93364 0.07205 0.0
N1095 N 0.84114 0.8555 0.0838 0.0
C1096 C 0.74738 0.92116 0.07755 0.0
C1097 C 0.81348 0.88082 0.08343 0.0
N1098 N 0.73952 0.91524 0.15227 0.0
N1099 N 0.83357 0.90626 0.01804 0.0
H1100 H 0.84716 0.83935 0.1098 0.0
H1101 H 0.85575 0.84816 0.0571 0.0
H1102 H 0.83092 0.92202 0.99126 0.0
H1103 H 0.86025 0.89653 0.02239 0.0
H1104 H 0.71808 0.93414 0.15295 0.0
H1105 H 0.7472 0.90582 0.18182 0.0
H1106 H 0.69184 0.93104 0.09455 0.0
H1107 H 0.70266 0.94296 0.04332 0.0
C1108 C 1.11512 0.98785 0.31264 0.0
C1109 C 1.1068 1.01617 0.28395 0.0
C1110 C 0.14133 1.05897 0.32786 0.0
C1111 C 0.14354 1.03212 0.35953 0.0
N1112 N 0.12908 0.97166 0.38424 0.0
N1113 N 1.10936 1.08052 0.26649 0.0
C1114 C 0.12974 0.99659 0.35248 0.0
C1115 C 1.11966 1.05219 0.29171 0.0
N1116 N 1.10989 0.95246 0.30117 0.0
N1117 N 0.16029 1.09085 0.33216 0.0
H1118 H 1.09429 1.07749 0.23911 0.0
H1119 H 1.11357 1.10773 0.27442 0.0
H1120 H 0.1764 1.0967 0.35836 0.0
H1121 H 0.16288 1.10983 0.30814 0.0
H1122 H 1.11828 0.9303 0.31925 0.0
H1123 H 1.10111 0.94563 0.27119 0.0
H1124 H 1.11552 0.94679 0.38197 0.0
H1125 H 0.13941 0.97695 0.41408 0.0
C1126 C 1.00824 0.37504 0.5345 0.0
C1127 C 1.00289 0.3368 0.53834 0.0
C1128 C 0.98079 0.34497 0.61016 0.0
C1129 C 0.98831 0.38265 0.60727 0.0
N1130 N 1.01248 0.43384 0.56953 0.0
N1131 N 0.99077 0.28487 0.58317 0.0
C1132 C 1.0029 0.39785 0.57015 0.0
C1133 C 0.99112 0.32166 0.57706 0.0
N1134 N 1.01887 0.38943 0.49703 0.0
N1135 N 0.9631 0.33128 0.64446 0.0
H1136 H 0.99555 0.26602 0.5598 0.0
H1137 H 0.98852 0.27281 0.61254 0.0
H1138 H 0.95702 0.34659 0.67103 0.0
H1139 H 0.9518 0.30525 0.64541 0.0
H1140 H 1.01934 0.41722 0.49065 0.0
H1141 H 1.02601 0.37345 0.47134 0.0
H1142 H 1.02692 0.44604 0.5453 0.0
H1143 H 1.0077 0.45133 0.5947 0.0
C1144 C 0.63073 0.99571 0.19231 0.0
C1145 C 0.6444 1.03116 0.18442 0.0
C1146 C 0.62066 1.05251 0.2516 0.0
C1147 C 0.60756 1.01674 0.26006 0.0
N1148 N 0.60988 0.95254 0.24421 0.0
N1149 N 0.66154 1.0902 0.21069 0.0
C1150 C 0.6158 0.98775 0.23219 0.0
C1151 C 0.64239 1.05852 0.21552 0.0
N1152 N 0.63033 0.97016 0.16117 0.0
N1153 N 0.61054 1.08135 0.27609 0.0
H1154 H 0.67775 1.09546 0.18454 0.0
H1155 H 0.66424 1.1096 0.23429 0.0
H1156 H 0.59559 1.07888 0.3035 0.0
H1157 H 0.61487 1.10839 0.26756 0.0
H1158 H 0.6168 0.9453 0.16376 0.0
H1159 H 0.64098 0.97486 0.13144 0.0
H1160 H 0.61839 0.93007 0.22678 0.0
H1161 H 0.60001 0.94583 0.27376 0.0
C1162 C 0.48689 0.33702 0.92453 0.0
C1163 C 0.48994 0.37536 0.92745 0.0
C1164 C 0.50611 0.37069 1.00178 0.0
C1165 C 0.50507 0.3321 0.99822 0.0
N1166 N 0.49992 0.27832 0.95456 0.0
N1167 N 0.50578 0.42931 0.96623 0.0
C1168 C 0.49713 0.31523 0.95914 0.0
C1169 C 0.50044 0.39244 0.9654 0.0
N1170 N 0.47322 0.32135 0.88886 0.0
N1171 N 0.51263 0.38646 0.03985 0.0
H1172 H 0.50068 0.44601 0.94043 0.0
H1173 H 0.51718 0.44324 0.99144 0.0
H1174 H 0.51983 0.37155 0.06642 0.0
H1175 H 0.5095 0.41417 0.04578 0.0
H1176 H 0.46514 0.29421 0.887 0.0
H1177 H 0.46723 0.33592 0.86167 0.0
H1178 H 0.50027 0.26524 0.92566 0.0
H1179 H 0.50457 0.26056 0.97919 0.0
C1180 C 0.17165 0.26958 0.72432 0.0
C1181 C 0.17631 0.24128 0.75407 0.0
C1182 C 0.13929 0.20079 0.71014 0.0
C1183 C 0.14069 0.22686 0.67759 0.0
N1184 N 0.16191 0.28484 0.65157 0.0
N1185 N 0.1677 0.17775 0.77296 0.0
C1186 C 0.15766 0.26109 0.68412 0.0
C1187 C 0.16058 0.20637 0.74676 0.0
N1188 N 0.17998 0.3047 0.73485 0.0
N1189 N 1.11722 0.17091 0.70629 0.0
H1190 H 0.18257 0.17989 0.8006 0.0
H1191 H 0.16108 0.15091 0.76557 0.0
H1192 H 1.10115 0.16595 0.67982 0.0
H1193 H 1.11213 0.15302 0.73088 0.0
H1194 H 0.1742 0.32691 0.71561 0.0
H1195 H 0.18895 0.31197 0.76472 0.0
H1196 H 0.17767 0.30841 0.65368 0.0
H1197 H 0.1524 0.2795 0.62139 0.0
C1198 C 0.30845 0.90079 0.49475 0.0
C1199 C 0.27441 0.91992 0.4984 0.0
C1200 C 0.26031 0.9057 0.42513 0.0
C1201 C 0.29238 0.88384 0.42299 0.0
N1202 N 0.34253 0.8537 0.45848 0.0
N1203 N 0.21418 0.93255 0.46959 0.0
C1204 C 0.31503 0.87918 0.45868 0.0
C1205 C 0.24919 0.91989 0.46431 0.0
N1206 N 0.3357 0.90494 0.52387 0.0
N1207 N 0.2411 0.91403 0.38954 0.0
H1208 H 0.20463 0.94201 0.49822 0.0
H1209 H 0.19366 0.93 0.44699 0.0
H1210 H 0.24863 0.90455 0.36001 0.0
H1211 H 0.21983 0.93313 0.38876 0.0
H1212 H 0.36229 0.89502 0.51956 0.0
H1213 H 0.33341 0.9211 0.55038 0.0
H1214 H 0.35724 0.8464 0.48525 0.0
H1215 H 0.34831 0.83739 0.43257 0.0
C1216 C 0.17835 0.71162 0.36248 0.0
C1217 C 0.1403 0.71923 0.3621 0.0
C1218 C 0.14487 0.74313 0.29079 0.0
C1219 C 0.18364 0.73896 0.29276 0.0
N1220 N 0.23779 0.72612 0.33528 0.0
N1221 N 1.08668 0.74205 0.32508 0.0
C1222 C 0.20057 0.72515 0.32988 0.0
C1223 C 1.12339 0.73479 0.3263 0.0
N1224 N 0.19329 0.69071 0.3937 0.0
N1225 N 0.12826 0.75653 0.2556 0.0
H1226 H 1.06876 0.73675 0.34975 0.0
H1227 H 1.06876 0.73675 0.34975 0.0
H1228 H 0.1428 0.76456 0.22914 0.0
H1229 H 1.09983 0.75986 0.25322 0.0
H1230 H 0.21985 0.68006 0.39249 0.0
H1231 H 0.17814 0.68082 0.41885 0.0
H1232 H 0.25073 0.72049 0.36368 0.0
H1233 H 0.25589 0.73615 0.31336 0.0
C1234 C 0.2902 0.35737 0.57002 0.0
C1235 C 0.29203 0.37238 0.61086 0.0
C1236 C 0.28019 0.43301 0.5827 0.0
C1237 C 0.27661 0.41811 0.54177 0.0
N1238 N 0.2733 0.36453 0.49767 0.0
N1239 N 0.27712 0.42228 0.65705 0.0
C1240 C 0.28003 0.37987 0.53585 0.0
C1241 C 0.28328 0.40949 0.61747 0.0
N1242 N 0.29766 0.32156 0.56267 0.0
N1243 N 0.28355 0.46964 0.58852 0.0
H1244 H 0.27886 0.40592 0.68366 0.0
H1245 H 0.26644 0.44816 0.66303 0.0
H1246 H 0.28364 0.4881 0.56406 0.0
H1247 H 0.29025 0.48135 0.61723 0.0
H1248 H 0.30549 0.30306 0.58587 0.0
H1249 H 0.30549 0.30306 0.58587 0.0
H1250 H 0.27587 0.33655 0.49238 0.0
H1251 H 0.26333 0.37934 0.47219 0.0
C1252 C 0.62134 0.55089 0.79228 0.0
C1253 C 0.60824 0.51527 0.78292 0.0
C1254 C 0.63132 0.49311 0.85039 0.0
C1255 C 0.64497 0.52842 0.85919 0.0
N1256 N 0.66207 0.58794 0.83452 0.0
N1257 N 0.61028 0.45082 0.79744 0.0
C1258 C 0.64298 0.55631 0.82873 0.0
C1259 C 0.61636 0.48582 0.81023 0.0
N1260 N 0.61125 0.58011 0.76832 0.0
N1261 N 0.63097 0.46704 0.88094 0.0
H1262 H 0.60024 0.44459 0.76773 0.0
H1263 H 0.61874 0.42804 0.81441 0.0
H1264 H 0.64168 0.47126 0.91083 0.0
H1265 H 0.61745 0.44223 0.87771 0.0
H1266 H 0.61558 0.60701 0.77746 0.0
H1267 H 0.59626 0.57808 0.74076 0.0
H1268 H 0.6648 0.60773 0.8114 0.0
H1269 H 0.67819 0.5928 0.86098 0.0
C1270 C 0.50344 0.8762 0.03361 0.0
C1271 C 0.5009 0.83769 0.03788 0.0
C1272 C 0.48165 0.84473 0.11096 0.0
C1273 C 0.48616 0.88287 0.10738 0.0
N1274 N 0.5048 0.93541 0.068 0.0
N1275 N 0.49418 0.78516 0.08347 0.0
C1276 C 0.49796 0.89882 0.06938 0.0
C1277 C 0.49196 0.82194 0.07731 0.0
N1278 N 0.5116 0.89108 0.99557 0.0
N1279 N 0.46674 0.8301 0.14645 0.0
H1280 H 0.49874 0.76638 0.05991 0.0
H1281 H 0.49413 0.77311 0.11296 0.0
H1282 H 0.46094 0.84518 0.17327 0.0
H1283 H 0.45744 0.80334 0.14835 0.0
H1284 H 0.50973 0.91879 0.98898 0.0
H1285 H 0.51918 0.87553 0.9697 0.0
H1286 H 0.51727 0.94846 0.04295 0.0
H1287 H 0.49979 0.95272 0.09326 0.0
C1288 C 0.14003 0.55741 0.71194 0.0
C1289 C 0.14 0.52998 0.68081 0.0
C1290 C 1.11314 0.48726 0.73042 0.0
C1291 C 1.10644 0.51641 0.75856 0.0
N1292 N 1.11061 0.5813 0.77344 0.0
N1293 N 1.12215 0.46971 0.65835 0.0
C1294 C 1.11953 0.55202 0.74905 0.0
C1295 C 1.1256 0.495 0.68951 0.0
N1296 N 0.1601 0.58843 0.70639 0.0
N1297 N 1.10807 0.45209 0.74306 0.0
H1298 H 0.13026 0.47452 0.6276 0.0
H1299 H 1.1081 0.44525 0.66218 0.0
H1300 H 1.10037 0.44549 0.7735 0.0
H1301 H 1.11545 0.42961 0.72498 0.0
H1302 H 0.1642 0.6076 0.72999 0.0
H1303 H 0.17568 0.59326 0.67965 0.0
H1304 H 1.115 0.60814 0.76412 0.0
H1305 H 1.09653 0.57954 0.8015 0.0
C1306 C 1.02343 0.85439 0.42847 0.0
C1307 C 1.00027 0.8849 0.43408 0.0
C1308 C 1.00069 0.87415 0.50934 0.0
C1309 C 1.01514 0.83854 0.50247 0.0
N1310 N 1.03804 0.79392 0.45141 0.0
N1311 N 0.96609 0.92452 0.4798 0.0
C1312 C 1.02673 0.82853 0.46113 0.0
C1313 C 0.9888 0.89519 0.47456 0.0
N1314 N 1.04175 0.84976 0.39157 0.0
N1315 N 1.00015 0.88866 0.54868 0.0
H1316 H 0.95785 0.94117 0.455 0.0
H1317 H 0.95373 0.93077 0.50829 0.0
H1318 H 1.01218 0.87561 0.57429 0.0
H1319 H 0.99235 0.9155 0.55474 0.0
H1320 H 1.06223 0.83016 0.38741 0.0
H1321 H 1.0394 0.86803 0.36668 0.0
H1322 H 1.04281 0.78532 0.42084 0.0
H1323 H 1.03817 0.77194 0.47173 0.0
C1324 C 0.62311 0.72533 0.21568 0.0
C1325 C 0.63959 0.72411 0.17566 0.0
C1326 C 0.69945 0.73718 0.20635 0.0
C1327 C 0.68282 0.74131 0.24636 0.0
N1328 N 0.62727 0.74817 0.28656 0.0
N1329 N 0.69108 0.73871 0.13145 0.0
C1330 C 0.64413 0.7378 0.25038 0.0
C1331 C 0.677 0.73318 0.17056 0.0
N1332 N 0.58767 0.71407 0.22064 0.0
N1333 N 0.73669 0.73476 0.20231 0.0
H1334 H 0.67562 0.73595 0.10411 0.0
H1335 H 0.71709 0.74961 0.12639 0.0
H1336 H 0.75477 0.73641 0.2273 0.0
H1337 H 0.74958 0.7275 0.17446 0.0
H1338 H 0.57546 0.71074 0.24981 0.0
H1339 H 0.57139 0.70535 0.19566 0.0
H1340 H 0.59886 0.74932 0.2901 0.0
H1341 H 0.64174 0.75939 0.31154 0.0
C1342 C 0.80852 0.39752 0.99696 0.0
C1343 C 0.77561 0.41866 0.99928 0.0
C1344 C 0.76094 0.40244 0.92662 0.0
C1345 C 0.79232 0.37954 0.92567 0.0
N1346 N 0.84121 0.34854 0.96222 0.0
N1347 N 0.71641 0.43431 0.96899 0.0
C1348 C 0.81446 0.37481 0.96169 0.0
C1349 C 0.75056 0.41903 0.96489 0.0
N1350 N 0.83556 0.40098 0.02648 0.0
N1351 N 0.74166 0.40929 0.89065 0.0
H1352 H 0.70697 0.44613 0.99659 0.0
H1353 H 0.69585 0.43192 0.94643 0.0
H1354 H 0.74782 0.39697 0.8621 0.0
H1355 H 0.72139 0.42933 0.88832 0.0
H1356 H 0.8616 0.38945 0.02324 0.0
H1357 H 0.83388 0.41814 0.05221 0.0
H1358 H 0.85545 0.34109 0.98925 0.0
H1359 H 0.84676 0.33184 0.93657 0.0
C1360 C 0.32124 0.42619 0.11266 0.0
C1361 C 0.35661 0.44146 0.1103 0.0
C1362 C 0.33915 0.48663 0.16184 0.0
C1363 C 0.31305 0.461 0.17637 0.0
N1364 N 0.271 0.41275 0.15985 0.0
N1365 N 0.38757 0.49848 0.11075 0.0
C1366 C 0.30045 0.43345 0.14904 0.0
C1367 C 0.36034 0.47709 0.12611 0.0
N1368 N 0.30871 0.40451 0.08124 0.0
N1369 N 0.34591 0.51735 0.18452 0.0
H1370 H 0.40402 0.48923 0.08616 0.0
H1371 H 0.39251 0.52502 0.12069 0.0
H1372 H 0.33016 0.52412 0.21062 0.0
H1373 H 0.36639 0.53599 0.17733 0.0
H1374 H 0.28237 0.39352 0.08077 0.0
H1375 H 0.32379 0.40111 0.05381 0.0
H1376 H 0.26285 0.38975 0.14316 0.0
H1377 H 0.25551 0.41868 0.18647 0.0
C1378 C 0.51061 0.68282 0.43983 0.0
C1379 C 0.53447 0.66701 0.4101 0.0
C1380 C 0.50257 0.60929 0.41761 0.0
C1381 C 0.49239 0.62146 0.45771 0.0
N1382 N 0.46193 0.67202 0.49035 0.0
N1383 N 0.54296 0.62007 0.35836 0.0
C1384 C 0.48739 0.65933 0.46285 0.0
C1385 C 0.5259 0.63215 0.39362 0.0
N1386 N 0.51365 0.71899 0.44874 0.0
N1387 N 0.49422 0.57453 0.40635 0.0
H1388 H 0.5596 0.63709 0.34059 0.0
H1389 H 0.54009 0.59386 0.3464 0.0
H1390 H 0.47883 0.55799 0.42627 0.0
H1391 H 0.50073 0.56311 0.3775 0.0
H1392 H 0.4997 0.73187 0.47301 0.0
H1393 H 0.5311 0.7357 0.4314 0.0
H1394 H 0.45638 0.69959 0.49487 0.0
H1395 H 0.44397 0.65431 0.5054 0.0
C1396 C 0.31501 0.75352 0.71589 0.0
C1397 C 0.33025 0.77197 0.68128 0.0
C1398 C 0.382 0.72976 0.68205 0.0
C1399 C 0.37398 0.72415 0.7246 0.0
N1400 N 0.32272 0.7032 0.76471 0.0
N1401 N 0.37102 0.76954 0.62223 0.0
C1402 C 0.33659 0.7263 0.73559 0.0
C1403 C 0.36071 0.75629 0.66019 0.0
N1404 N 0.282 0.76441 0.73156 0.0
N1405 N 0.41266 0.71396 0.66582 0.0
H1406 H 0.35519 0.7889 0.60639 0.0
H1407 H 0.39464 0.76124 0.60658 0.0
H1408 H 0.42879 0.69649 0.68413 0.0
H1409 H 0.42068 0.71662 0.63476 0.0
H1410 H 0.27122 0.75446 0.75943 0.0
H1411 H 0.26615 0.78426 0.71644 0.0
H1412 H 0.29504 0.7028 0.77292 0.0
H1413 H 0.3387 0.68205 0.77698 0.0
C1414 C 1.04839 0.59117 0.15849 0.0
C1415 C 1.04896 0.62927 0.15196 0.0
C1416 C 0.99191 0.62461 0.11256 0.0
C1417 C 1.00235 0.58835 0.10418 0.0
N1418 N 1.01496 0.53502 0.14516 0.0
N1419 N 1.01414 0.6836 0.1365 0.0
C1420 C 1.02181 0.5706 0.13647 0.0
C1421 C 1.01733 0.64662 0.13501 0.0
N1422 N 1.07509 0.57507 0.18212 0.0
N1423 N 0.9612 0.63822 0.09379 0.0
H1424 H 1.03278 0.69951 0.15324 0.0
H1425 H 0.99325 0.69817 0.12168 0.0
H1426 H 0.94471 0.62142 0.07521 0.0
H1427 H 0.95148 0.66464 0.09834 0.0
H1428 H 1.07828 0.54692 0.18453 0.0
H1429 H 1.09438 0.59068 0.19838 0.0
H1430 H 1.02761 0.52102 0.16967 0.0
H1431 H 0.99368 0.5212 0.13007 0.0
C1432 C 0.80781 0.75585 0.82441 0.0
C1433 C 0.82358 0.77312 0.85954 0.0
C1434 C 0.87871 0.73628 0.85139 0.0
C1435 C 0.86881 0.73283 0.80894 0.0
N1436 N 0.81848 0.71708 0.76377 0.0
N1437 N 0.86641 0.76825 0.91667 0.0
C1438 C 0.83103 0.73433 0.79868 0.0
C1439 C 0.85601 0.75823 0.87736 0.0
N1440 N 0.77245 0.76406 0.81376 0.0
N1441 N 0.9118 0.72277 0.8641 0.0
H1442 H 0.84934 0.78392 0.93568 0.0
H1443 H 0.89104 0.7604 0.93068 0.0
H1444 H 0.92848 0.70837 0.84323 0.0
H1445 H 0.92166 0.72431 0.89463 0.0
H1446 H 0.75948 0.75494 0.78668 0.0
H1447 H 0.75627 0.78048 0.83313 0.0
H1448 H 0.7911 0.71707 0.75434 0.0
H1449 H 0.8355 0.70011 0.74624 0.0
C1450 C 0.88884 0.26476 0.14464 0.0
C1451 C 0.85486 0.27351 0.16386 0.0
C1452 C 0.86363 0.2228 0.21136 0.0
C1453 C 0.90165 0.22736 0.20532 0.0
N1454 N 0.94565 0.22918 0.15031 0.0
N1455 N 0.80464 0.2536 0.20667 0.0
C1456 C 0.91202 0.23894 0.16506 0.0
C1457 C 0.83991 0.24921 0.19351 0.0
N1458 N 0.89998 0.28367 0.11032 0.0
N1459 N 0.85106 0.19415 0.23404 0.0
H1460 H 0.78722 0.27291 0.19291 0.0
H1461 H 0.79349 0.23887 0.2314 0.0
H1462 H 0.86908 0.174 0.24485 0.0
H1463 H 0.82319 0.18883 0.23807 0.0
H1464 H 0.92572 0.28061 0.09668 0.0
H1465 H 0.8827 0.30245 0.0955 0.0
H1466 H 0.95532 0.2363 0.12084 0.0
H1467 H 0.96278 0.21205 0.16782 0.0
C1468 C 1.01785 0.1574 0.9144 0.0
C1469 C 1.03283 0.18764 0.93618 0.0
C1470 C 0.98792 0.17911 0.99113 0.0
C1471 C 0.98656 0.14228 0.97873 0.0
N1472 N 0.97748 1.10439 0.91919 0.0
N1473 N 1.02375 0.23476 0.98717 0.0
C1474 C 0.99223 0.13512 0.93598 0.0
C1475 C 1.01396 0.20176 0.97123 0.0
N1476 N 1.03104 0.1482 0.87598 0.0
N1477 N 0.96551 0.19138 0.02209 0.0
H1478 H 1.0428 0.25124 0.97187 0.0
H1479 H 1.01369 0.24508 1.01525 0.0
H1480 H 0.94527 0.17468 0.03474 0.0
H1481 H 0.96455 0.21848 0.03174 0.0
H1482 H 1.02338 0.12481 0.85979 0.0
H1483 H 1.0496 0.16474 0.86016 0.0
H1484 H 0.98026 1.09686 0.88798 0.0
H1485 H 0.96069 1.08758 0.93724 0.0
C1486 C 0.51306 0.20271 0.57789 0.0
C1487 C 0.53225 0.18794 0.61248 0.0
C1488 C 0.49337 0.13424 0.6096 0.0
C1489 C 0.48784 0.14257 0.56706 0.0
N1490 N 0.46633 0.19218 0.52462 0.0
N1491 N 0.53071 0.14696 0.67123 0.0
C1492 C 0.48831 0.17978 0.55607 0.0
C1493 C 0.51789 0.15671 0.63273 0.0
N1494 N 0.52177 0.23667 0.56398 0.0
N1495 N 0.47954 1.1025 0.62474 0.0
H1496 H 0.54834 0.16372 0.68823 0.0
H1497 H 0.52347 1.123 0.68644 0.0
H1498 H 0.46349 1.08575 0.60562 0.0
H1499 H 0.48235 1.094 0.65564 0.0
H1500 H 0.51157 0.24787 0.53635 0.0
H1501 H 0.54009 0.25311 0.58064 0.0
H1502 H 0.46478 0.21946 0.51581 0.0
H1503 H 0.44693 0.17526 0.51055 0.0
loop_
_geom_bond_atom_site_label_1
_geom_bond_atom_site_label_2
_geom_bond_distance
_geom_bond_site_symmetry_2
_ccdc_geom_bond_type
Eu0 C9 2.828 . S
Eu0 O11 2.392 . S
Eu0 O13 2.418 1_556 S
Eu0 O18 2.373 1_556 S
Eu0 O21 2.488 . S
Eu0 O22 2.471 . S
Eu0 O23 2.349 . S
Eu1 O10 2.373 . S
Eu1 O14 2.488 . S
Eu1 O15 2.471 . S
Eu1 O16 2.349 . S
Eu1 O19 2.392 . S
Eu1 O20 2.418 . S
Eu1 C30 2.828 . S
C2 O20 1.244 1_556 S
C2 O23 1.265 . S
C3 C4 1.379 . S
C3 C7 1.373 . S
C3 C9 1.505 . S
C4 C3 1.379 . S
C4 C6 1.369 . S
C4 H32 0.930 . S
C5 C7 1.383 . S
C5 C8 1.382 . S
C5 H33 0.930 . S
C6 C4 1.369 . S
C6 C8 1.392 . S
C6 H34 0.930 . S
C7 C3 1.373 . S
C7 C5 1.383 . S
C7 H35 0.931 . S
C8 C5 1.382 . S
C8 C6 1.392 . S
C9 Eu0 2.828 . S
C9 C3 1.505 . S
C9 O21 1.249 . S
C9 O22 1.244 . S
O10 Eu1 2.373 . S
O10 C12 1.258 . S
O11 Eu0 2.392 . S
O11 C12 1.242 1_556 S
C12 O10 1.258 . S
C12 O11 1.242 1_554 S
O13 Eu0 2.418 1_554 S
O13 C17 1.244 . S
O14 Eu1 2.488 . S
O14 C30 1.249 . S
O15 Eu1 2.471 . S
O15 C30 1.244 . S
O16 Eu1 2.349 . S
O16 C17 1.265 . S
C17 O13 1.244 . S
C17 O16 1.265 . S
O18 Eu0 2.373 1_554 S
O18 C31 1.258 . S
O19 Eu1 2.392 . S
O19 C31 1.242 . S
O20 Eu1 2.418 . S
O20 C2 1.244 1_554 S
O21 Eu0 2.488 . S
O21 C9 1.249 . S
O22 Eu0 2.471 . S
O22 C9 1.244 . S
O23 Eu0 2.349 . S
O23 C2 1.265 . S
C24 C25 1.379 . S
C24 C28 1.373 . S
C24 C30 1.505 . S
C25 C24 1.379 . S
C25 C27 1.369 . S
C25 H36 0.930 . S
C26 C28 1.383 . S
C26 C29 1.382 . S
C26 H37 0.930 . S
C27 C25 1.369 . S
C27 C29 1.392 . S
C27 H38 0.930 . S
C28 C24 1.373 . S
C28 C26 1.383 . S
C28 H39 0.931 . S
C29 C26 1.382 . S
C29 C27 1.392 . S
C30 Eu1 2.828 . S
C30 O14 1.249 . S
C30 O15 1.244 . S
C30 C24 1.505 . S
C31 O18 1.258 . S
C31 O19 1.242 . S
H32 C4 0.930 . S
H33 C5 0.930 . S
H34 C6 0.930 . S
H35 C7 0.931 . S
H36 C25 0.930 . S
H37 C26 0.930 . S
H38 C27 0.930 . S
H39 C28 0.931 . S
Eu40 C49 2.828 . S
Eu40 O51 2.392 . S
Eu40 O53 2.418 . S
Eu40 O58 2.373 . S
Eu40 O61 2.488 . S
Eu40 O62 2.471 . S
Eu40 O63 2.349 . S
Eu41 O50 2.373 . S
Eu41 O54 2.488 . S
Eu41 O55 2.471 . S
Eu41 O56 2.349 . S
Eu41 O59 2.392 . S
Eu41 O60 2.418 . S
Eu41 C70 2.828 . S
C42 O60 1.244 . S
C42 O63 1.265 . S
C43 C44 1.379 . S
C43 C47 1.373 . S
C43 C49 1.505 . S
C44 C43 1.379 . S
C44 C46 1.369 . S
C44 H72 0.930 . S
C45 C47 1.383 . S
C45 C48 1.382 . S
C45 H73 0.930 . S
C46 C44 1.369 . S
C46 C48 1.392 . S
C46 H74 0.930 . S
C47 C43 1.373 . S
C47 C45 1.383 . S
C47 H75 0.931 . S
C48 C45 1.382 . S
C48 C46 1.392 . S
C49 Eu40 2.828 . S
C49 C43 1.505 . S
C49 O61 1.249 . S
C49 O62 1.244 . S
O50 Eu41 2.373 . S
O50 C52 1.258 . S
O51 Eu40 2.392 . S
O51 C52 1.242 . S
C52 O50 1.258 . S
C52 O51 1.242 . S
O53 Eu40 2.418 . S
O53 C57 1.244 . S
O54 Eu41 2.488 . S
O54 C70 1.249 . S
O55 Eu41 2.471 . S
O55 C70 1.244 . S
O56 Eu41 2.349 . S
O56 C57 1.265 . S
C57 O53 1.244 . S
C57 O56 1.265 . S
O58 Eu40 2.373 . S
O58 C71 1.258 . S
O59 Eu41 2.392 . S
O59 C71 1.242 . S
O60 Eu41 2.418 . S
O60 C42 1.244 . S
O61 Eu40 2.488 . S
O61 C49 1.249 . S
O62 Eu40 2.471 . S
O62 C49 1.244 . S
O63 Eu40 2.349 . S
O63 C42 1.265 . S
C64 C65 1.379 . S
C64 C68 1.373 . S
C64 C70 1.505 . S
C65 C64 1.379 . S
C65 C67 1.369 . S
C65 H76 0.930 . S
C66 C68 1.383 . S
C66 C69 1.382 . S
C66 H77 0.930 . S
C67 C65 1.369 . S
C67 C69 1.392 . S
C67 H78 0.930 . S
C68 C64 1.373 . S
C68 C66 1.383 . S
C68 H79 0.931 . S
C69 C66 1.382 . S
C69 C67 1.392 . S
C70 Eu41 2.828 . S
C70 O54 1.249 . S
C70 O55 1.244 . S
C70 C64 1.505 . S
C71 O58 1.258 . S
C71 O59 1.242 . S
H72 C44 0.930 . S
H73 C45 0.930 . S
H74 C46 0.930 . S
H75 C47 0.931 . S
H76 C65 0.930 . S
H77 C66 0.930 . S
H78 C67 0.930 . S
H79 C68 0.931 . S
Eu80 C89 2.828 . S
Eu80 O91 2.392 . S
Eu80 O93 2.418 . S
Eu80 O98 2.373 . S
Eu80 O101 2.488 . S
Eu80 O102 2.471 . S
Eu80 O103 2.349 . S
Eu81 O90 2.373 . S
Eu81 O94 2.488 . S
Eu81 O95 2.471 . S
Eu81 O96 2.349 . S
Eu81 O99 2.392 . S
Eu81 O100 2.418 . S
Eu81 C110 2.828 . S
C82 O100 1.244 . S
C82 O103 1.265 . S
C83 C84 1.379 . S
C83 C87 1.373 . S
C83 C89 1.505 . S
C84 C83 1.379 . S
C84 C86 1.369 1_455 S
C84 H112 0.930 . S
C85 C87 1.383 1_655 S
C85 C88 1.382 . S
C85 H113 0.930 . S
C86 C84 1.369 1_655 S
C86 C88 1.392 . S
C86 H114 0.930 . S
C87 C83 1.373 . S
C87 C85 1.383 1_455 S
C87 H115 0.931 . S
C88 C85 1.382 . S
C88 C86 1.392 . S
C89 Eu80 2.828 . S
C89 C83 1.505 . S
C89 O101 1.249 . S
C89 O102 1.244 . S
O90 Eu81 2.373 . S
O90 C92 1.258 . S
O91 Eu80 2.392 . S
O91 C92 1.242 . S
C92 O90 1.258 . S
C92 O91 1.242 . S
O93 Eu80 2.418 . S
O93 C97 1.244 . S
O94 Eu81 2.488 . S
O94 C110 1.249 . S
O95 Eu81 2.471 . S
O95 C110 1.244 . S
O96 Eu81 2.349 . S
O96 C97 1.265 . S
C97 O93 1.244 . S
C97 O96 1.265 . S
O98 Eu80 2.373 . S
O98 C111 1.258 . S
O99 Eu81 2.392 . S
O99 C111 1.242 . S
O100 Eu81 2.418 . S
O100 C82 1.244 . S
O101 Eu80 2.488 . S
O101 C89 1.249 . S
O102 Eu80 2.471 . S
O102 C89 1.244 . S
O103 Eu80 2.349 . S
O103 C82 1.265 . S
C104 C105 1.379 . S
C104 C108 1.373 . S
C104 C110 1.505 . S
C105 C104 1.379 . S
C105 C107 1.369 . S
C105 H116 0.930 . S
C106 C108 1.383 . S
C106 C109 1.382 . S
C106 H117 0.930 . S
C107 C105 1.369 . S
C107 C109 1.392 . S
C107 H118 0.930 . S
C108 C104 1.373 . S
C108 C106 1.383 . S
C108 H119 0.931 . S
C109 C106 1.382 . S
C109 C107 1.392 . S
C110 Eu81 2.828 . S
C110 O94 1.249 . S
C110 O95 1.244 . S
C110 C104 1.505 . S
C111 O98 1.258 . S
C111 O99 1.242 . S
H112 C84 0.930 . S
H113 C85 0.930 . S
H114 C86 0.930 . S
H115 C87 0.931 . S
H116 C105 0.930 . S
H117 C106 0.930 . S
H118 C107 0.930 . S
H119 C108 0.931 . S
Eu120 C129 2.828 . S
Eu120 O131 2.392 . S
Eu120 O133 2.418 . S
Eu120 O138 2.373 . S
Eu120 O141 2.488 . S
Eu120 O142 2.471 . S
Eu120 O143 2.349 . S
Eu121 O130 2.373 . S
Eu121 O134 2.488 . S
Eu121 O135 2.471 . S
Eu121 O136 2.349 . S
Eu121 O139 2.392 . S
Eu121 O140 2.418 . S
Eu121 C150 2.828 . S
C122 O140 1.244 . S
C122 O143 1.265 . S
C123 C124 1.379 . S
C123 C127 1.373 . S
C123 C129 1.505 . S
C124 C123 1.379 . S
C124 C126 1.369 . S
C124 H152 0.930 . S
C125 C127 1.383 . S
C125 C128 1.382 . S
C125 H153 0.930 . S
C126 C124 1.369 . S
C126 C128 1.392 . S
C126 H154 0.930 . S
C127 C123 1.373 . S
C127 C125 1.383 . S
C127 H155 0.931 . S
C128 C125 1.382 . S
C128 C126 1.392 . S
C129 Eu120 2.828 . S
C129 C123 1.505 . S
C129 O141 1.249 . S
C129 O142 1.244 . S
O130 Eu121 2.373 . S
O130 C132 1.258 . S
O131 Eu120 2.392 . S
O131 C132 1.242 . S
C132 O130 1.258 . S
C132 O131 1.242 . S
O133 Eu120 2.418 . S
O133 C137 1.244 . S
O134 Eu121 2.488 . S
O134 C150 1.249 . S
O135 Eu121 2.471 . S
O135 C150 1.244 . S
O136 Eu121 2.349 . S
O136 C137 1.265 . S
C137 O133 1.244 . S
C137 O136 1.265 . S
O138 Eu120 2.373 . S
O138 C151 1.258 . S
O139 Eu121 2.392 . S
O139 C151 1.242 . S
O140 Eu121 2.418 . S
O140 C122 1.244 . S
O141 Eu120 2.488 . S
O141 C129 1.249 . S
O142 Eu120 2.471 . S
O142 C129 1.244 . S
O143 Eu120 2.349 . S
O143 C122 1.265 . S
C144 C145 1.379 . S
C144 C148 1.373 . S
C144 C150 1.505 . S
C145 C144 1.379 . S
C145 C147 1.369 . S
C145 H156 0.930 . S
C146 C148 1.383 . S
C146 C149 1.382 . S
C146 H157 0.930 . S
C147 C145 1.369 . S
C147 C149 1.392 . S
C147 H158 0.930 . S
C148 C144 1.373 . S
C148 C146 1.383 . S
C148 H159 0.931 . S
C149 C146 1.382 . S
C149 C147 1.392 . S
C150 Eu121 2.828 . S
C150 O134 1.249 . S
C150 O135 1.244 . S
C150 C144 1.505 . S
C151 O138 1.258 . S
C151 O139 1.242 . S
H152 C124 0.930 . S
H153 C125 0.930 . S
H154 C126 0.930 . S
H155 C127 0.931 . S
H156 C145 0.930 . S
H157 C146 0.930 . S
H158 C147 0.930 . S
H159 C148 0.931 . S
Eu160 C169 2.828 . S
Eu160 O171 2.392 . S
Eu160 O173 2.418 . S
Eu160 O178 2.373 . S
Eu160 O181 2.488 . S
Eu160 O182 2.471 . S
Eu160 O183 2.349 . S
Eu161 O170 2.373 1_554 S
Eu161 O174 2.488 . S
Eu161 O175 2.471 . S
Eu161 O176 2.349 . S
Eu161 O179 2.392 . S
Eu161 O180 2.418 1_554 S
Eu161 C190 2.828 . S
C162 O180 1.244 . S
C162 O183 1.265 . S
C163 C164 1.379 . S
C163 C167 1.373 . S
C163 C169 1.505 . S
C164 C163 1.379 . S
C164 C166 1.369 . S
C164 H192 0.930 . S
C165 C167 1.383 . S
C165 C168 1.382 . S
C165 H193 0.930 . S
C166 C164 1.369 . S
C166 C168 1.392 . S
C166 H194 0.930 . S
C167 C163 1.373 . S
C167 C165 1.383 . S
C167 H195 0.931 . S
C168 C165 1.382 . S
C168 C166 1.392 . S
C169 Eu160 2.828 . S
C169 C163 1.505 . S
C169 O181 1.249 . S
C169 O182 1.244 . S
O170 Eu161 2.373 1_556 S
O170 C172 1.258 . S
O171 Eu160 2.392 . S
O171 C172 1.242 . S
C172 O170 1.258 . S
C172 O171 1.242 . S
O173 Eu160 2.418 . S
O173 C177 1.244 1_556 S
O174 Eu161 2.488 . S
O174 C190 1.249 . S
O175 Eu161 2.471 . S
O175 C190 1.244 . S
O176 Eu161 2.349 . S
O176 C177 1.265 . S
C177 O173 1.244 1_554 S
C177 O176 1.265 . S
O178 Eu160 2.373 . S
O178 C191 1.258 . S
O179 Eu161 2.392 . S
O179 C191 1.242 1_554 S
O180 Eu161 2.418 1_556 S
O180 C162 1.244 . S
O181 Eu160 2.488 . S
O181 C169 1.249 . S
O182 Eu160 2.471 . S
O182 C169 1.244 . S
O183 Eu160 2.349 . S
O183 C162 1.265 . S
C184 C185 1.379 . S
C184 C188 1.373 . S
C184 C190 1.505 . S
C185 C184 1.379 . S
C185 C187 1.369 . S
C185 H196 0.930 . S
C186 C188 1.383 . S
C186 C189 1.382 . S
C186 H197 0.930 . S
C187 C185 1.369 . S
C187 C189 1.392 . S
C187 H198 0.930 . S
C188 C184 1.373 . S
C188 C186 1.383 . S
C188 H199 0.931 . S
C189 C186 1.382 . S
C189 C187 1.392 . S
C190 Eu161 2.828 . S
C190 O174 1.249 . S
C190 O175 1.244 . S
C190 C184 1.505 . S
C191 O178 1.258 . S
C191 O179 1.242 1_556 S
H192 C164 0.930 . S
H193 C165 0.930 . S
H194 C166 0.930 . S
H195 C167 0.931 . S
H196 C185 0.930 . S
H197 C186 0.930 . S
H198 C187 0.930 . S
H199 C188 0.931 . S
Eu200 C209 2.828 . S
Eu200 O211 2.392 . S
Eu200 O213 2.418 . S
Eu200 O218 2.373 . S
Eu200 O221 2.488 . S
Eu200 O222 2.471 . S
Eu200 O223 2.349 . S
Eu201 O210 2.373 . S
Eu201 O214 2.488 . S
Eu201 O215 2.471 . S
Eu201 O216 2.349 . S
Eu201 O219 2.392 . S
Eu201 O220 2.418 . S
Eu201 C230 2.828 . S
C202 O220 1.244 . S
C202 O223 1.265 . S
C203 C204 1.379 . S
C203 C207 1.373 . S
C203 C209 1.505 . S
C204 C203 1.379 . S
C204 C206 1.369 . S
C204 H232 0.930 . S
C205 C207 1.383 . S
C205 C208 1.382 . S
C205 H233 0.930 . S
C206 C204 1.369 . S
C206 C208 1.392 . S
C206 H234 0.930 . S
C207 C203 1.373 . S
C207 C205 1.383 . S
C207 H235 0.931 . S
C208 C205 1.382 . S
C208 C206 1.392 . S
C209 Eu200 2.828 . S
C209 C203 1.505 . S
C209 O221 1.249 . S
C209 O222 1.244 . S
O210 Eu201 2.373 . S
O210 C212 1.258 . S
O211 Eu200 2.392 . S
O211 C212 1.242 . S
C212 O210 1.258 . S
C212 O211 1.242 . S
O213 Eu200 2.418 . S
O213 C217 1.244 . S
O214 Eu201 2.488 . S
O214 C230 1.249 . S
O215 Eu201 2.471 . S
O215 C230 1.244 . S
O216 Eu201 2.349 . S
O216 C217 1.265 . S
C217 O213 1.244 . S
C217 O216 1.265 . S
O218 Eu200 2.373 . S
O218 C231 1.258 . S
O219 Eu201 2.392 . S
O219 C231 1.242 . S
O220 Eu201 2.418 . S
O220 C202 1.244 . S
O221 Eu200 2.488 . S
O221 C209 1.249 . S
O222 Eu200 2.471 . S
O222 C209 1.244 . S
O223 Eu200 2.349 . S
O223 C202 1.265 . S
C224 C225 1.379 . S
C224 C228 1.373 . S
C224 C230 1.505 . S
C225 C224 1.379 . S
C225 C227 1.369 . S
C225 H236 0.930 . S
C226 C228 1.383 . S
C226 C229 1.382 . S
C226 H237 0.930 . S
C227 C225 1.369 . S
C227 C229 1.392 . S
C227 H238 0.930 . S
C228 C224 1.373 . S
C228 C226 1.383 . S
C228 H239 0.931 . S
C229 C226 1.382 . S
C229 C227 1.392 . S
C230 Eu201 2.828 . S
C230 O214 1.249 . S
C230 O215 1.244 . S
C230 C224 1.505 . S
C231 O218 1.258 . S
C231 O219 1.242 . S
H232 C204 0.930 . S
H233 C205 0.930 . S
H234 C206 0.930 . S
H235 C207 0.931 . S
H236 C225 0.930 . S
H237 C226 0.930 . S
H238 C227 0.930 . S
H239 C228 0.931 . S
Eu240 C249 2.828 . S
Eu240 O251 2.392 . S
Eu240 O253 2.418 . S
Eu240 O258 2.373 . S
Eu240 O261 2.488 . S
Eu240 O262 2.471 . S
Eu240 O263 2.349 . S
Eu241 O250 2.373 . S
Eu241 O254 2.488 . S
Eu241 O255 2.471 . S
Eu241 O256 2.349 . S
Eu241 O259 2.392 . S
Eu241 O260 2.418 . S
Eu241 C270 2.828 . S
C242 O260 1.244 . S
C242 O263 1.265 . S
C243 C244 1.379 . S
C243 C247 1.373 . S
C243 C249 1.505 . S
C244 C243 1.379 . S
C244 C246 1.369 . S
C244 H272 0.930 . S
C245 C247 1.383 . S
C245 C248 1.382 . S
C245 H273 0.930 . S
C246 C244 1.369 . S
C246 C248 1.392 . S
C246 H274 0.930 . S
C247 C243 1.373 . S
C247 C245 1.383 . S
C247 H275 0.931 . S
C248 C245 1.382 . S
C248 C246 1.392 . S
C249 Eu240 2.828 . S
C249 C243 1.505 . S
C249 O261 1.249 . S
C249 O262 1.244 . S
O250 Eu241 2.373 . S
O250 C252 1.258 . S
O251 Eu240 2.392 . S
O251 C252 1.242 . S
C252 O250 1.258 . S
C252 O251 1.242 . S
O253 Eu240 2.418 . S
O253 C257 1.244 . S
O254 Eu241 2.488 . S
O254 C270 1.249 . S
O255 Eu241 2.471 . S
O255 C270 1.244 . S
O256 Eu241 2.349 . S
O256 C257 1.265 . S
C257 O253 1.244 . S
C257 O256 1.265 . S
O258 Eu240 2.373 . S
O258 C271 1.258 . S
O259 Eu241 2.392 . S
O259 C271 1.242 . S
O260 Eu241 2.418 . S
O260 C242 1.244 . S
O261 Eu240 2.488 . S
O261 C249 1.249 . S
O262 Eu240 2.471 . S
O262 C249 1.244 . S
O263 Eu240 2.349 . S
O263 C242 1.265 . S
C264 C265 1.379 . S
C264 C268 1.373 . S
C264 C270 1.505 . S
C265 C264 1.379 . S
C265 C267 1.369 1_655 S
C265 H276 0.930 . S
C266 C268 1.383 1_455 S
C266 C269 1.382 . S
C266 H277 0.930 . S
C267 C265 1.369 1_455 S
C267 C269 1.392 . S
C267 H278 0.930 . S
C268 C264 1.373 . S
C268 C266 1.383 1_655 S
C268 H279 0.931 . S
C269 C266 1.382 . S
C269 C267 1.392 . S
C270 Eu241 2.828 . S
C270 O254 1.249 . S
C270 O255 1.244 . S
C270 C264 1.505 . S
C271 O258 1.258 . S
C271 O259 1.242 . S
H272 C244 0.930 . S
H273 C245 0.930 . S
H274 C246 0.930 . S
H275 C247 0.931 . S
H276 C265 0.930 . S
H277 C266 0.930 . S
H278 C267 0.930 . S
H279 C268 0.931 . S
Eu280 C289 2.828 . S
Eu280 O291 2.392 . S
Eu280 O293 2.418 . S
Eu280 O298 2.373 . S
Eu280 O301 2.488 . S
Eu280 O302 2.471 . S
Eu280 O303 2.349 . S
Eu281 O290 2.373 . S
Eu281 O294 2.488 . S
Eu281 O295 2.471 . S
Eu281 O296 2.349 . S
Eu281 O299 2.392 . S
Eu281 O300 2.418 . S
Eu281 C310 2.828 . S
C282 O300 1.244 . S
C282 O303 1.265 . S
C283 C284 1.379 . S
C283 C287 1.373 . S
C283 C289 1.505 . S
C284 C283 1.379 . S
C284 C286 1.369 . S
C284 H312 0.930 . S
C285 C287 1.383 . S
C285 C288 1.382 . S
C285 H313 0.930 . S
C286 C284 1.369 . S
C286 C288 1.392 . S
C286 H314 0.930 . S
C287 C283 1.373 . S
C287 C285 1.383 . S
C287 H315 0.931 . S
C288 C285 1.382 . S
C288 C286 1.392 . S
C289 Eu280 2.828 . S
C289 C283 1.505 . S
C289 O301 1.249 . S
C289 O302 1.244 . S
O290 Eu281 2.373 . S
O290 C292 1.258 . S
O291 Eu280 2.392 . S
O291 C292 1.242 . S
C292 O290 1.258 . S
C292 O291 1.242 . S
O293 Eu280 2.418 . S
O293 C297 1.244 . S
O294 Eu281 2.488 . S
O294 C310 1.249 . S
O295 Eu281 2.471 . S
O295 C310 1.244 . S
O296 Eu281 2.349 . S
O296 C297 1.265 . S
C297 O293 1.244 . S
C297 O296 1.265 . S
O298 Eu280 2.373 . S
O298 C311 1.258 . S
O299 Eu281 2.392 . S
O299 C311 1.242 . S
O300 Eu281 2.418 . S
O300 C282 1.244 . S
O301 Eu280 2.488 . S
O301 C289 1.249 . S
O302 Eu280 2.471 . S
O302 C289 1.244 . S
O303 Eu280 2.349 . S
O303 C282 1.265 . S
C304 C305 1.379 . S
C304 C308 1.373 . S
C304 C310 1.505 . S
C305 C304 1.379 . S
C305 C307 1.369 . S
C305 H316 0.930 . S
C306 C308 1.383 . S
C306 C309 1.382 . S
C306 H317 0.930 . S
C307 C305 1.369 . S
C307 C309 1.392 . S
C307 H318 0.930 . S
C308 C304 1.373 . S
C308 C306 1.383 . S
C308 H319 0.931 . S
C309 C306 1.382 . S
C309 C307 1.392 . S
C310 Eu281 2.828 . S
C310 O294 1.249 . S
C310 O295 1.244 . S
C310 C304 1.505 . S
C311 O298 1.258 . S
C311 O299 1.242 . S
H312 C284 0.930 . S
H313 C285 0.930 . S
H314 C286 0.930 . S
H315 C287 0.931 . S
H316 C305 0.930 . S
H317 C306 0.930 . S
H318 C307 0.930 . S
H319 C308 0.931 . S
Eu320 C329 2.828 . S
Eu320 O331 2.392 . S
Eu320 O333 2.418 . S
Eu320 O338 2.373 . S
Eu320 O341 2.488 . S
Eu320 O342 2.471 . S
Eu320 O343 2.349 . S
Eu321 O330 2.373 . S
Eu321 O334 2.488 . S
Eu321 O335 2.471 . S
Eu321 O336 2.349 . S
Eu321 O339 2.392 . S
Eu321 O340 2.418 . S
Eu321 C350 2.828 . S
C322 O340 1.244 . S
C322 O343 1.265 . S
C323 C324 1.379 . S
C323 C327 1.373 . S
C323 C329 1.505 . S
C324 C323 1.379 . S
C324 C326 1.369 1_655 S
C324 H352 0.930 . S
C325 C327 1.383 1_455 S
C325 C328 1.382 . S
C325 H353 0.930 . S
C326 C324 1.369 1_455 S
C326 C328 1.392 . S
C326 H354 0.930 . S
C327 C323 1.373 . S
C327 C325 1.383 1_655 S
C327 H355 0.931 . S
C328 C325 1.382 . S
C328 C326 1.392 . S
C329 Eu320 2.828 . S
C329 C323 1.505 . S
C329 O341 1.249 . S
C329 O342 1.244 . S
O330 Eu321 2.373 . S
O330 C332 1.258 . S
O331 Eu320 2.392 . S
O331 C332 1.242 . S
C332 O330 1.258 . S
C332 O331 1.242 . S
O333 Eu320 2.418 . S
O333 C337 1.244 . S
O334 Eu321 2.488 . S
O334 C350 1.249 . S
O335 Eu321 2.471 . S
O335 C350 1.244 . S
O336 Eu321 2.349 . S
O336 C337 1.265 . S
C337 O333 1.244 . S
C337 O336 1.265 . S
O338 Eu320 2.373 . S
O338 C351 1.258 . S
O339 Eu321 2.392 . S
O339 C351 1.242 . S
O340 Eu321 2.418 . S
O340 C322 1.244 . S
O341 Eu320 2.488 . S
O341 C329 1.249 . S
O342 Eu320 2.471 . S
O342 C329 1.244 . S
O343 Eu320 2.349 . S
O343 C322 1.265 . S
C344 C345 1.379 . S
C344 C348 1.373 . S
C344 C350 1.505 . S
C345 C344 1.379 . S
C345 C347 1.369 . S
C345 H356 0.930 . S
C346 C348 1.383 . S
C346 C349 1.382 . S
C346 H357 0.930 . S
C347 C345 1.369 . S
C347 C349 1.392 . S
C347 H358 0.930 . S
C348 C344 1.373 . S
C348 C346 1.383 . S
C348 H359 0.931 . S
C349 C346 1.382 . S
C349 C347 1.392 . S
C350 Eu321 2.828 . S
C350 O334 1.249 . S
C350 O335 1.244 . S
C350 C344 1.505 . S
C351 O338 1.258 . S
C351 O339 1.242 . S
H352 C324 0.930 . S
H353 C325 0.930 . S
H354 C326 0.930 . S
H355 C327 0.931 . S
H356 C345 0.930 . S
H357 C346 0.930 . S
H358 C347 0.930 . S
H359 C348 0.931 . S
Eu360 C369 2.828 . S
Eu360 O371 2.392 . S
Eu360 O373 2.418 . S
Eu360 O378 2.373 . S
Eu360 O381 2.488 . S
Eu360 O382 2.471 . S
Eu360 O383 2.349 . S
Eu361 O370 2.373 . S
Eu361 O374 2.488 . S
Eu361 O375 2.471 . S
Eu361 O376 2.349 . S
Eu361 O379 2.392 . S
Eu361 O380 2.418 . S
Eu361 C390 2.828 . S
C362 O380 1.244 . S
C362 O383 1.265 . S
C363 C364 1.379 . S
C363 C367 1.373 . S
C363 C369 1.505 . S
C364 C363 1.379 . S
C364 C366 1.369 . S
C364 H392 0.930 . S
C365 C367 1.383 . S
C365 C368 1.382 . S
C365 H393 0.930 . S
C366 C364 1.369 . S
C366 C368 1.392 . S
C366 H394 0.930 . S
C367 C363 1.373 . S
C367 C365 1.383 . S
C367 H395 0.931 . S
C368 C365 1.382 . S
C368 C366 1.392 . S
C369 Eu360 2.828 . S
C369 C363 1.505 . S
C369 O381 1.249 . S
C369 O382 1.244 . S
O370 Eu361 2.373 . S
O370 C372 1.258 . S
O371 Eu360 2.392 . S
O371 C372 1.242 . S
C372 O370 1.258 . S
C372 O371 1.242 . S
O373 Eu360 2.418 . S
O373 C377 1.244 . S
O374 Eu361 2.488 . S
O374 C390 1.249 . S
O375 Eu361 2.471 . S
O375 C390 1.244 . S
O376 Eu361 2.349 . S
O376 C377 1.265 . S
C377 O373 1.244 . S
C377 O376 1.265 . S
O378 Eu360 2.373 . S
O378 C391 1.258 . S
O379 Eu361 2.392 . S
O379 C391 1.242 . S
O380 Eu361 2.418 . S
O380 C362 1.244 . S
O381 Eu360 2.488 . S
O381 C369 1.249 . S
O382 Eu360 2.471 . S
O382 C369 1.244 . S
O383 Eu360 2.349 . S
O383 C362 1.265 . S
C384 C385 1.379 . S
C384 C388 1.373 . S
C384 C390 1.505 . S
C385 C384 1.379 . S
C385 C387 1.369 . S
C385 H396 0.930 . S
C386 C388 1.402 . S
C386 C389 1.373 1_545 S
C386 H397 0.921 1_545 S
C387 C385 1.369 . S
C387 C389 1.392 1_545 S
C387 H398 0.930 1_545 S
C388 C384 1.373 . S
C388 C386 1.402 . S
C388 H399 0.931 . S
C389 C386 1.373 1_565 S
C389 C387 1.392 1_565 S
C390 Eu361 2.828 . S
C390 O374 1.249 . S
C390 O375 1.244 . S
C390 C384 1.505 . S
C391 O378 1.258 . S
C391 O379 1.242 . S
H392 C364 0.930 . S
H393 C365 0.930 . S
H394 C366 0.930 . S
H395 C367 0.931 . S
H396 C385 0.930 . S
H397 C386 0.921 1_565 S
H398 C387 0.930 1_565 S
H399 C388 0.931 . S
Eu400 C409 2.828 . S
Eu400 O411 2.392 . S
Eu400 O413 2.418 1_556 S
Eu400 O418 2.373 1_556 S
Eu400 O421 2.488 . S
Eu400 O422 2.471 . S
Eu400 O423 2.349 . S
Eu401 O410 2.373 . S
Eu401 O414 2.488 . S
Eu401 O415 2.471 . S
Eu401 O416 2.349 . S
Eu401 O419 2.392 . S
Eu401 O420 2.418 . S
Eu401 C430 2.828 . S
C402 O420 1.244 1_556 S
C402 O423 1.265 . S
C403 C404 1.379 . S
C403 C407 1.373 . S
C403 C409 1.505 . S
C404 C403 1.379 . S
C404 C406 1.369 . S
C404 H432 0.930 . S
C405 C407 1.383 . S
C405 C408 1.382 . S
C405 H433 0.930 . S
C406 C404 1.369 . S
C406 C408 1.392 . S
C406 H434 0.930 . S
C407 C403 1.373 . S
C407 C405 1.383 . S
C407 H435 0.931 . S
C408 C405 1.382 . S
C408 C406 1.392 . S
C409 Eu400 2.828 . S
C409 C403 1.505 . S
C409 O421 1.249 . S
C409 O422 1.244 . S
O410 Eu401 2.373 . S
O410 C412 1.258 . S
O411 Eu400 2.392 . S
O411 C412 1.242 1_556 S
C412 O410 1.258 . S
C412 O411 1.242 1_554 S
O413 Eu400 2.418 1_554 S
O413 C417 1.244 . S
O414 Eu401 2.488 . S
O414 C430 1.249 . S
O415 Eu401 2.471 . S
O415 C430 1.244 . S
O416 Eu401 2.349 . S
O416 C417 1.265 . S
C417 O413 1.244 . S
C417 O416 1.265 . S
O418 Eu400 2.373 1_554 S
O418 C431 1.258 . S
O419 Eu401 2.392 . S
O419 C431 1.242 . S
O420 Eu401 2.418 . S
O420 C402 1.244 1_554 S
O421 Eu400 2.488 . S
O421 C409 1.249 . S
O422 Eu400 2.471 . S
O422 C409 1.244 . S
O423 Eu400 2.349 . S
O423 C402 1.265 . S
C424 C425 1.379 . S
C424 C428 1.373 . S
C424 C430 1.505 . S
C425 C424 1.379 . S
C425 C427 1.369 . S
C425 H436 0.930 . S
C426 C428 1.383 . S
C426 C429 1.382 . S
C426 H437 0.930 . S
C427 C425 1.369 . S
C427 C429 1.392 . S
C427 H438 0.930 . S
C428 C424 1.373 . S
C428 C426 1.383 . S
C428 H439 0.931 . S
C429 C426 1.382 . S
C429 C427 1.392 . S
C430 Eu401 2.828 . S
C430 O414 1.249 . S
C430 O415 1.244 . S
C430 C424 1.505 . S
C431 O418 1.258 . S
C431 O419 1.242 . S
H432 C404 0.930 . S
H433 C405 0.930 . S
H434 C406 0.930 . S
H435 C407 0.931 . S
H436 C425 0.930 . S
H437 C426 0.930 . S
H438 C427 0.930 . S
H439 C428 0.931 . S
Eu440 C449 2.828 . S
Eu440 O451 2.392 . S
Eu440 O453 2.418 . S
Eu440 O458 2.373 . S
Eu440 O461 2.488 . S
Eu440 O462 2.471 . S
Eu440 O463 2.349 . S
Eu441 O450 2.373 . S
Eu441 O454 2.488 . S
Eu441 O455 2.471 . S
Eu441 O456 2.349 . S
Eu441 O459 2.392 . S
Eu441 O460 2.418 . S
Eu441 C470 2.828 . S
C442 O460 1.244 . S
C442 O463 1.265 . S
C443 C444 1.379 . S
C443 C447 1.373 . S
C443 C449 1.505 . S
C444 C443 1.379 . S
C444 C446 1.369 . S
C444 H472 0.930 . S
C445 C447 1.383 . S
C445 C448 1.382 . S
C445 H473 0.930 . S
C446 C444 1.369 . S
C446 C448 1.392 . S
C446 H474 0.930 . S
C447 C443 1.373 . S
C447 C445 1.383 . S
C447 H475 0.931 . S
C448 C445 1.382 . S
C448 C446 1.392 . S
C449 Eu440 2.828 . S
C449 C443 1.505 . S
C449 O461 1.249 . S
C449 O462 1.244 . S
O450 Eu441 2.373 . S
O450 C452 1.258 . S
O451 Eu440 2.392 . S
O451 C452 1.242 . S
C452 O450 1.258 . S
C452 O451 1.242 . S
O453 Eu440 2.418 . S
O453 C457 1.244 . S
O454 Eu441 2.488 . S
O454 C470 1.249 . S
O455 Eu441 2.471 . S
O455 C470 1.244 . S
O456 Eu441 2.349 . S
O456 C457 1.265 . S
C457 O453 1.244 . S
C457 O456 1.265 . S
O458 Eu440 2.373 . S
O458 C471 1.258 . S
O459 Eu441 2.392 . S
O459 C471 1.242 . S
O460 Eu441 2.418 . S
O460 C442 1.244 . S
O461 Eu440 2.488 . S
O461 C449 1.249 . S
O462 Eu440 2.471 . S
O462 C449 1.244 . S
O463 Eu440 2.349 . S
O463 C442 1.265 . S
C464 C465 1.379 . S
C464 C468 1.373 . S
C464 C470 1.505 . S
C465 C464 1.379 . S
C465 C467 1.369 . S
C465 H476 0.930 . S
C466 C468 1.402 . S
C466 C469 1.373 1_565 S
C466 H477 0.921 1_565 S
C467 C465 1.369 . S
C467 C469 1.392 1_565 S
C467 H478 0.930 1_565 S
C468 C464 1.373 . S
C468 C466 1.402 . S
C468 H479 0.931 . S
C469 C466 1.373 1_545 S
C469 C467 1.392 1_545 S
C470 Eu441 2.828 . S
C470 O454 1.249 . S
C470 O455 1.244 . S
C470 C464 1.505 . S
C471 O458 1.258 . S
C471 O459 1.242 . S
H472 C444 0.930 . S
H473 C445 0.930 . S
H474 C446 0.930 . S
H475 C447 0.931 . S
H476 C465 0.930 . S
H477 C466 0.921 1_545 S
H478 C467 0.930 1_545 S
H479 C468 0.931 . S
Eu480 C489 2.828 . S
Eu480 O491 2.392 . S
Eu480 O493 2.418 . S
Eu480 O498 2.373 . S
Eu480 O501 2.488 . S
Eu480 O502 2.471 . S
Eu480 O503 2.349 . S
Eu481 O490 2.373 . S
Eu481 O494 2.488 . S
Eu481 O495 2.471 . S
Eu481 O496 2.349 . S
Eu481 O499 2.392 . S
Eu481 O500 2.418 . S
Eu481 C510 2.828 . S
C482 O500 1.244 . S
C482 O503 1.265 . S
C483 C484 1.379 . S
C483 C487 1.373 . S
C483 C489 1.505 . S
C484 C483 1.379 . S
C484 C486 1.369 . S
C484 H512 0.930 . S
C485 C487 1.383 . S
C485 C488 1.382 . S
C485 H513 0.930 . S
C486 C484 1.369 . S
C486 C488 1.392 . S
C486 H514 0.930 . S
C487 C483 1.373 . S
C487 C485 1.383 . S
C487 H515 0.931 . S
C488 C485 1.382 . S
C488 C486 1.392 . S
C489 Eu480 2.828 . S
C489 C483 1.505 . S
C489 O501 1.249 . S
C489 O502 1.244 . S
O490 Eu481 2.373 . S
O490 C492 1.258 . S
O491 Eu480 2.392 . S
O491 C492 1.242 . S
C492 O490 1.258 . S
C492 O491 1.242 . S
O493 Eu480 2.418 . S
O493 C497 1.244 . S
O494 Eu481 2.488 . S
O494 C510 1.249 . S
O495 Eu481 2.471 . S
O495 C510 1.244 . S
O496 Eu481 2.349 . S
O496 C497 1.265 . S
C497 O493 1.244 . S
C497 O496 1.265 . S
O498 Eu480 2.373 . S
O498 C511 1.258 . S
O499 Eu481 2.392 . S
O499 C511 1.242 . S
O500 Eu481 2.418 . S
O500 C482 1.244 . S
O501 Eu480 2.488 . S
O501 C489 1.249 . S
O502 Eu480 2.471 . S
O502 C489 1.244 . S
O503 Eu480 2.349 . S
O503 C482 1.265 . S
C504 C505 1.379 . S
C504 C508 1.373 . S
C504 C510 1.505 . S
C505 C504 1.379 . S
C505 C507 1.369 1_455 S
C505 H516 0.930 . S
C506 C508 1.383 1_655 S
C506 C509 1.382 . S
C506 H517 0.930 . S
C507 C505 1.369 1_655 S
C507 C509 1.392 . S
C507 H518 0.930 . S
C508 C504 1.373 . S
C508 C506 1.383 1_455 S
C508 H519 0.931 . S
C509 C506 1.382 . S
C509 C507 1.392 . S
C510 Eu481 2.828 . S
C510 O494 1.249 . S
C510 O495 1.244 . S
C510 C504 1.505 . S
C511 O498 1.258 . S
C511 O499 1.242 . S
H512 C484 0.930 . S
H513 C485 0.930 . S
H514 C486 0.930 . S
H515 C487 0.931 . S
H516 C505 0.930 . S
H517 C506 0.930 . S
H518 C507 0.930 . S
H519 C508 0.931 . S
Eu520 C529 2.828 . S
Eu520 O531 2.392 . S
Eu520 O533 2.418 . S
Eu520 O538 2.373 . S
Eu520 O541 2.488 . S
Eu520 O542 2.471 . S
Eu520 O543 2.349 . S
Eu521 O530 2.373 . S
Eu521 O534 2.488 . S
Eu521 O535 2.471 . S
Eu521 O536 2.349 . S
Eu521 O539 2.392 . S
Eu521 O540 2.418 . S
Eu521 C550 2.828 . S
C522 O540 1.244 . S
C522 O543 1.265 . S
C523 C524 1.379 . S
C523 C527 1.373 . S
C523 C529 1.505 . S
C524 C523 1.379 . S
C524 C526 1.369 . S
C524 H552 0.930 . S
C525 C527 1.402 . S
C525 C528 1.373 1_565 S
C525 H553 0.921 1_565 S
C526 C524 1.369 . S
C526 C528 1.392 1_565 S
C526 H554 0.930 1_565 S
C527 C523 1.373 . S
C527 C525 1.402 . S
C527 H555 0.931 . S
C528 C525 1.373 1_545 S
C528 C526 1.392 1_545 S
C529 Eu520 2.828 . S
C529 C523 1.505 . S
C529 O541 1.249 . S
C529 O542 1.244 . S
O530 Eu521 2.373 . S
O530 C532 1.258 . S
O531 Eu520 2.392 . S
O531 C532 1.242 . S
C532 O530 1.258 . S
C532 O531 1.242 . S
O533 Eu520 2.418 . S
O533 C537 1.244 . S
O534 Eu521 2.488 . S
O534 C550 1.249 . S
O535 Eu521 2.471 . S
O535 C550 1.244 . S
O536 Eu521 2.349 . S
O536 C537 1.265 . S
C537 O533 1.244 . S
C537 O536 1.265 . S
O538 Eu520 2.373 . S
O538 C551 1.258 . S
O539 Eu521 2.392 . S
O539 C551 1.242 . S
O540 Eu521 2.418 . S
O540 C522 1.244 . S
O541 Eu520 2.488 . S
O541 C529 1.249 . S
O542 Eu520 2.471 . S
O542 C529 1.244 . S
O543 Eu520 2.349 . S
O543 C522 1.265 . S
C544 C545 1.379 . S
C544 C548 1.373 . S
C544 C550 1.505 . S
C545 C544 1.379 . S
C545 C547 1.369 . S
C545 H556 0.930 . S
C546 C548 1.383 . S
C546 C549 1.382 . S
C546 H557 0.930 . S
C547 C545 1.369 . S
C547 C549 1.392 . S
C547 H558 0.930 . S
C548 C544 1.373 . S
C548 C546 1.383 . S
C548 H559 0.931 . S
C549 C546 1.382 . S
C549 C547 1.392 . S
C550 Eu521 2.828 . S
C550 O534 1.249 . S
C550 O535 1.244 . S
C550 C544 1.505 . S
C551 O538 1.258 . S
C551 O539 1.242 . S
H552 C524 0.930 . S
H553 C525 0.921 1_545 S
H554 C526 0.930 1_545 S
H555 C527 0.931 . S
H556 C545 0.930 . S
H557 C546 0.930 . S
H558 C547 0.930 . S
H559 C548 0.931 . S
Eu560 C569 2.828 . S
Eu560 O571 2.392 . S
Eu560 O573 2.418 . S
Eu560 O578 2.373 . S
Eu560 O581 2.488 . S
Eu560 O582 2.471 . S
Eu560 O583 2.349 . S
Eu561 O570 2.373 1_554 S
Eu561 O574 2.488 . S
Eu561 O575 2.471 . S
Eu561 O576 2.349 . S
Eu561 O579 2.392 . S
Eu561 O580 2.418 1_554 S
Eu561 C590 2.828 . S
C562 O580 1.244 . S
C562 O583 1.265 . S
C563 C564 1.379 . S
C563 C567 1.373 . S
C563 C569 1.505 . S
C564 C563 1.379 . S
C564 C566 1.369 . S
C564 H592 0.930 . S
C565 C567 1.383 . S
C565 C568 1.382 . S
C565 H593 0.930 . S
C566 C564 1.369 . S
C566 C568 1.392 . S
C566 H594 0.930 . S
C567 C563 1.373 . S
C567 C565 1.383 . S
C567 H595 0.931 . S
C568 C565 1.382 . S
C568 C566 1.392 . S
C569 Eu560 2.828 . S
C569 C563 1.505 . S
C569 O581 1.249 . S
C569 O582 1.244 . S
O570 Eu561 2.373 1_556 S
O570 C572 1.258 . S
O571 Eu560 2.392 . S
O571 C572 1.242 . S
C572 O570 1.258 . S
C572 O571 1.242 . S
O573 Eu560 2.418 . S
O573 C577 1.244 1_556 S
O574 Eu561 2.488 . S
O574 C590 1.249 . S
O575 Eu561 2.471 . S
O575 C590 1.244 . S
O576 Eu561 2.349 . S
O576 C577 1.265 . S
C577 O573 1.244 1_554 S
C577 O576 1.265 . S
O578 Eu560 2.373 . S
O578 C591 1.258 . S
O579 Eu561 2.392 . S
O579 C591 1.242 1_554 S
O580 Eu561 2.418 1_556 S
O580 C562 1.244 . S
O581 Eu560 2.488 . S
O581 C569 1.249 . S
O582 Eu560 2.471 . S
O582 C569 1.244 . S
O583 Eu560 2.349 . S
O583 C562 1.265 . S
C584 C585 1.379 . S
C584 C588 1.373 . S
C584 C590 1.505 . S
C585 C584 1.379 . S
C585 C587 1.369 . S
C585 H596 0.930 . S
C586 C588 1.383 . S
C586 C589 1.382 . S
C586 H597 0.930 . S
C587 C585 1.369 . S
C587 C589 1.392 . S
C587 H598 0.930 . S
C588 C584 1.373 . S
C588 C586 1.383 . S
C588 H599 0.931 . S
C589 C586 1.382 . S
C589 C587 1.392 . S
C590 Eu561 2.828 . S
C590 O574 1.249 . S
C590 O575 1.244 . S
C590 C584 1.505 . S
C591 O578 1.258 . S
C591 O579 1.242 1_556 S
H592 C564 0.930 . S
H593 C565 0.930 . S
H594 C566 0.930 . S
H595 C567 0.931 . S
H596 C585 0.930 . S
H597 C586 0.930 . S
H598 C587 0.930 . S
H599 C588 0.931 . S
Eu600 C609 2.828 . S
Eu600 O611 2.392 . S
Eu600 O613 2.418 . S
Eu600 O618 2.373 . S
Eu600 O621 2.488 . S
Eu600 O622 2.471 . S
Eu600 O623 2.349 . S
Eu601 O610 2.373 . S
Eu601 O614 2.488 . S
Eu601 O615 2.471 . S
Eu601 O616 2.349 . S
Eu601 O619 2.392 . S
Eu601 O620 2.418 . S
Eu601 C630 2.828 . S
C602 O620 1.244 . S
C602 O623 1.265 . S
C603 C604 1.379 . S
C603 C607 1.373 . S
C603 C609 1.505 . S
C604 C603 1.379 . S
C604 C606 1.369 . S
C604 H632 0.930 . S
C605 C607 1.402 . S
C605 C608 1.373 1_545 S
C605 H633 0.921 1_545 S
C606 C604 1.369 . S
C606 C608 1.392 1_545 S
C606 H634 0.930 1_545 S
C607 C603 1.373 . S
C607 C605 1.402 . S
C607 H635 0.931 . S
C608 C605 1.373 1_565 S
C608 C606 1.392 1_565 S
C609 Eu600 2.828 . S
C609 C603 1.505 . S
C609 O621 1.249 . S
C609 O622 1.244 . S
O610 Eu601 2.373 . S
O610 C612 1.258 . S
O611 Eu600 2.392 . S
O611 C612 1.242 . S
C612 O610 1.258 . S
C612 O611 1.242 . S
O613 Eu600 2.418 . S
O613 C617 1.244 . S
O614 Eu601 2.488 . S
O614 C630 1.249 . S
O615 Eu601 2.471 . S
O615 C630 1.244 . S
O616 Eu601 2.349 . S
O616 C617 1.265 . S
C617 O613 1.244 . S
C617 O616 1.265 . S
O618 Eu600 2.373 . S
O618 C631 1.258 . S
O619 Eu601 2.392 . S
O619 C631 1.242 . S
O620 Eu601 2.418 . S
O620 C602 1.244 . S
O621 Eu600 2.488 . S
O621 C609 1.249 . S
O622 Eu600 2.471 . S
O622 C609 1.244 . S
O623 Eu600 2.349 . S
O623 C602 1.265 . S
C624 C625 1.379 . S
C624 C628 1.373 . S
C624 C630 1.505 . S
C625 C624 1.379 . S
C625 C627 1.369 . S
C625 H636 0.930 . S
C626 C628 1.383 . S
C626 C629 1.382 . S
C626 H637 0.930 . S
C627 C625 1.369 . S
C627 C629 1.392 . S
C627 H638 0.930 . S
C628 C624 1.373 . S
C628 C626 1.383 . S
C628 H639 0.931 . S
C629 C626 1.382 . S
C629 C627 1.392 . S
C630 Eu601 2.828 . S
C630 O614 1.249 . S
C630 O615 1.244 . S
C630 C624 1.505 . S
C631 O618 1.258 . S
C631 O619 1.242 . S
H632 C604 0.930 . S
H633 C605 0.921 1_565 S
H634 C606 0.930 1_565 S
H635 C607 0.931 . S
H636 C625 0.930 . S
H637 C626 0.930 . S
H638 C627 0.930 . S
H639 C628 0.931 . S
C640 C641 1.363 . S
C640 C646 1.379 . S
C640 N648 1.356 . S
C641 C640 1.363 . S
C641 C647 1.363 . S
C642 C643 1.363 . S
C642 C647 1.379 . S
C642 N649 1.356 1_554 S
C643 C642 1.363 . S
C643 C646 1.363 . S
N644 C646 1.356 . S
N644 H656 0.984 . S
N644 H657 0.985 . S
N645 C647 1.356 1_556 S
N645 H650 0.983 1_556 S
N645 H651 0.985 . S
C646 C640 1.379 . S
C646 C643 1.363 . S
C646 N644 1.356 . S
C647 C641 1.363 . S
C647 C642 1.379 . S
C647 N645 1.356 1_554 S
N648 C640 1.356 . S
N648 H654 0.984 . S
N648 H655 0.984 . S
N649 C642 1.356 1_556 S
N649 H652 0.983 1_556 S
N649 H653 0.985 . S
H650 N645 0.983 1_554 S
H651 N645 0.985 . S
H652 N649 0.983 1_554 S
H653 N649 0.985 . S
H654 N648 0.984 . S
H655 N648 0.984 . S
H656 N644 0.984 . S
H657 N644 0.985 . S
C658 C659 1.363 . S
C658 C664 1.379 . S
C658 N666 1.356 . S
C659 C658 1.363 . S
C659 C665 1.363 . S
C660 C661 1.363 . S
C660 C665 1.379 . S
C660 N667 1.356 . S
C661 C660 1.363 . S
C661 C664 1.363 . S
N662 C664 1.356 . S
N662 H674 0.984 . S
N662 H675 0.985 . S
N663 C665 1.356 . S
N663 H668 0.984 . S
N663 H669 0.985 . S
C664 C658 1.379 . S
C664 C661 1.363 . S
C664 N662 1.356 . S
C665 C659 1.363 . S
C665 C660 1.379 . S
C665 N663 1.356 . S
N666 C658 1.356 . S
N666 H672 0.984 . S
N666 H673 0.984 . S
N667 C660 1.356 . S
N667 H670 0.984 . S
N667 H671 0.985 . S
H668 N663 0.984 . S
H669 N663 0.985 . S
H670 N667 0.984 . S
H671 N667 0.985 . S
H672 N666 0.984 . S
H673 N666 0.984 . S
H674 N662 0.984 . S
H675 N662 0.985 . S
C676 C677 1.363 . S
C676 C682 1.379 . S
C676 N684 1.356 . S
C677 C676 1.363 . S
C677 C683 1.363 1_455 S
C678 C679 1.363 . S
C678 C683 1.379 . S
C678 N685 1.356 . S
C679 C678 1.363 . S
C679 C682 1.363 1_655 S
N680 C682 1.356 . S
N680 H692 0.984 . S
N680 H693 0.985 1_455 S
N681 C683 1.356 . S
N681 H686 0.984 1_655 S
N681 H687 0.985 . S
C682 C676 1.379 . S
C682 C679 1.363 1_455 S
C682 N680 1.356 . S
C683 C677 1.363 1_655 S
C683 C678 1.379 . S
C683 N681 1.356 . S
N684 C676 1.356 . S
N684 H690 0.984 . S
N684 H691 0.984 . S
N685 C678 1.356 . S
N685 H688 0.984 . S
N685 H689 0.985 . S
H686 N681 0.984 1_455 S
H687 N681 0.985 . S
H688 N685 0.984 . S
H689 N685 0.985 . S
H690 N684 0.984 . S
H691 N684 0.984 . S
H692 N680 0.984 . S
H693 N680 0.985 1_655 S
C694 C695 1.363 . S
C694 C700 1.379 1_655 S
C694 N702 1.356 . S
C695 C694 1.363 . S
C695 C701 1.363 . S
C696 C697 1.363 . S
C696 C701 1.379 1_455 S
C696 N703 1.356 . S
C697 C696 1.363 . S
C697 C700 1.363 . S
N698 C700 1.356 . S
N698 H710 0.984 . S
N698 H711 0.985 . S
N699 C701 1.356 . S
N699 H704 0.984 . S
N699 H705 0.985 . S
C700 C694 1.379 1_455 S
C700 C697 1.363 . S
C700 N698 1.356 . S
C701 C695 1.363 . S
C701 C696 1.379 1_655 S
C701 N699 1.356 . S
N702 C694 1.356 . S
N702 H708 0.984 . S
N702 H709 0.984 . S
N703 C696 1.356 . S
N703 H706 0.984 . S
N703 H707 0.985 . S
H704 N699 0.984 . S
H705 N699 0.985 . S
H706 N703 0.984 . S
H707 N703 0.985 . S
H708 N702 0.984 . S
H709 N702 0.984 . S
H710 N698 0.984 . S
H711 N698 0.985 . S
C712 C713 1.363 . S
C712 C718 1.379 . S
C712 N720 1.356 . S
C713 C712 1.363 . S
C713 C719 1.363 . S
C714 C715 1.363 . S
C714 C719 1.379 . S
C714 N721 1.356 1_556 S
C715 C714 1.363 . S
C715 C718 1.363 . S
N716 C718 1.356 . S
N716 H728 0.984 . S
N716 H729 0.985 . S
N717 C719 1.356 1_554 S
N717 H722 0.983 1_554 S
N717 H723 0.985 . S
C718 C712 1.379 . S
C718 C715 1.363 . S
C718 N716 1.356 . S
C719 C713 1.363 . S
C719 C714 1.379 . S
C719 N717 1.356 1_556 S
N720 C712 1.356 . S
N720 H726 0.984 . S
N720 H727 0.984 . S
N721 C714 1.356 1_554 S
N721 H724 0.983 1_554 S
N721 H725 0.985 . S
H722 N717 0.983 1_556 S
H723 N717 0.985 . S
H724 N721 0.983 1_556 S
H725 N721 0.985 . S
H726 N720 0.984 . S
H727 N720 0.984 . S
H728 N716 0.984 . S
H729 N716 0.985 . S
C730 C731 1.363 . S
C730 C736 1.379 . S
C730 N738 1.356 . S
C731 C730 1.363 . S
C731 C737 1.363 . S
C732 C733 1.363 . S
C732 C737 1.379 . S
C732 N739 1.356 . S
C733 C732 1.363 . S
C733 C736 1.363 . S
N734 C736 1.356 . S
N734 H746 0.984 . S
N734 H747 0.985 . S
N735 C737 1.356 . S
N735 H740 0.984 . S
N735 H741 0.985 . S
C736 C730 1.379 . S
C736 C733 1.363 . S
C736 N734 1.356 . S
C737 C731 1.363 . S
C737 C732 1.379 . S
C737 N735 1.356 . S
N738 C730 1.356 . S
N738 H744 0.984 . S
N738 H745 0.984 . S
N739 C732 1.356 . S
N739 H742 0.984 . S
N739 H743 0.985 . S
H740 N735 0.984 . S
H741 N735 0.985 . S
H742 N739 0.984 . S
H743 N739 0.985 . S
H744 N738 0.984 . S
H745 N738 0.984 . S
H746 N734 0.984 . S
H747 N734 0.985 . S
C748 C749 1.363 1_455 S
C748 C754 1.379 . S
C748 N756 1.356 . S
C749 C748 1.363 1_655 S
C749 C755 1.363 . S
C750 C751 1.363 1_655 S
C750 C755 1.379 . S
C750 N757 1.356 . S
C751 C750 1.363 1_455 S
C751 C754 1.363 . S
N752 C754 1.356 . S
N752 H764 0.984 . S
N752 H765 0.985 . S
N753 C755 1.356 . S
N753 H758 0.984 . S
N753 H759 0.985 . S
C754 C748 1.379 . S
C754 C751 1.363 . S
C754 N752 1.356 . S
C755 C749 1.363 . S
C755 C750 1.379 . S
C755 N753 1.356 . S
N756 C748 1.356 . S
N756 H762 0.984 . S
N756 H763 0.984 1_455 S
N757 C750 1.356 . S
N757 H760 0.984 1_655 S
N757 H761 0.985 . S
H758 N753 0.984 . S
H759 N753 0.985 . S
H760 N757 0.984 1_455 S
H761 N757 0.985 . S
H762 N756 0.984 . S
H763 N756 0.984 1_655 S
H764 N752 0.984 . S
H765 N752 0.985 . S
C766 C767 1.363 . S
C766 C772 1.379 1_455 S
C766 N774 1.356 . S
C767 C766 1.363 . S
C767 C773 1.363 . S
C768 C769 1.363 . S
C768 C773 1.379 1_655 S
C768 N775 1.356 . S
C769 C768 1.363 . S
C769 C772 1.363 . S
N770 C772 1.356 . S
N770 H782 0.984 . S
N770 H783 0.985 . S
N771 C773 1.356 . S
N771 H776 0.984 . S
N771 H777 0.985 . S
C772 C766 1.379 1_655 S
C772 C769 1.363 . S
C772 N770 1.356 . S
C773 C767 1.363 . S
C773 C768 1.379 1_455 S
C773 N771 1.356 . S
N774 C766 1.356 . S
N774 H780 0.984 . S
N774 H781 0.984 . S
N775 C768 1.356 . S
N775 H778 0.984 . S
N775 H779 0.985 . S
H776 N771 0.984 . S
H777 N771 0.985 . S
H778 N775 0.984 . S
H779 N775 0.985 . S
H780 N774 0.984 . S
H781 N774 0.984 . S
H782 N770 0.984 . S
H783 N770 0.985 . S
C784 C785 1.363 . S
C784 C790 1.379 . S
C784 N792 1.356 . S
C785 C784 1.363 . S
C785 C791 1.363 . S
C786 C787 1.363 . S
C786 C791 1.379 . S
C786 N793 1.356 . S
C787 C786 1.363 . S
C787 C790 1.363 . S
N788 C790 1.356 . S
N788 H800 0.984 . S
N788 H801 0.985 . S
N789 C791 1.356 . S
N789 H794 0.984 . S
N789 H795 0.985 . S
C790 C784 1.379 . S
C790 C787 1.363 . S
C790 N788 1.356 . S
C791 C785 1.363 . S
C791 C786 1.379 . S
C791 N789 1.356 . S
N792 C784 1.356 . S
N792 H798 0.984 . S
N792 H799 0.984 . S
N793 C786 1.356 . S
N793 H796 0.984 . S
N793 H797 0.985 . S
H794 N789 0.984 . S
H795 N789 0.985 . S
H796 N793 0.984 . S
H797 N793 0.985 . S
H798 N792 0.984 . S
H799 N792 0.984 . S
H800 N788 0.984 . S
H801 N788 0.985 . S
C802 C803 1.363 . S
C802 C808 1.379 . S
C802 N810 1.356 . S
C803 C802 1.363 . S
C803 C809 1.363 . S
C804 C805 1.363 . S
C804 C809 1.379 . S
C804 N811 1.356 . S
C805 C804 1.363 . S
C805 C808 1.363 . S
N806 C808 1.356 . S
N806 H818 0.984 . S
N806 H819 0.985 . S
N807 C809 1.356 . S
N807 H812 0.984 . S
N807 H813 0.985 . S
C808 C802 1.379 . S
C808 C805 1.363 . S
C808 N806 1.356 . S
C809 C803 1.363 . S
C809 C804 1.379 . S
C809 N807 1.356 . S
N810 C802 1.356 . S
N810 H816 0.984 . S
N810 H817 0.984 . S
N811 C804 1.356 . S
N811 H814 0.984 . S
N811 H815 0.985 . S
H812 N807 0.984 . S
H813 N807 0.985 . S
H814 N811 0.984 . S
H815 N811 0.985 . S
H816 N810 0.984 . S
H817 N810 0.984 . S
H818 N806 0.984 . S
H819 N806 0.985 . S
C820 C821 1.363 . S
C820 C826 1.379 . S
C820 N828 1.356 . S
C821 C820 1.363 . S
C821 C827 1.363 . S
C822 C823 1.363 . S
C822 C827 1.379 . S
C822 N829 1.356 . S
C823 C822 1.363 . S
C823 C826 1.363 . S
N824 C826 1.356 . S
N824 H836 0.984 . S
N824 H837 0.985 . S
N825 C827 1.356 . S
N825 H830 0.984 . S
N825 H831 0.985 . S
C826 C820 1.379 . S
C826 C823 1.363 . S
C826 N824 1.356 . S
C827 C821 1.363 . S
C827 C822 1.379 . S
C827 N825 1.356 . S
N828 C820 1.356 . S
N828 H834 0.984 . S
N828 H835 0.984 . S
N829 C822 1.356 . S
N829 H832 0.984 . S
N829 H833 0.985 . S
H830 N825 0.984 . S
H831 N825 0.985 . S
H832 N829 0.984 . S
H833 N829 0.985 . S
H834 N828 0.984 . S
H835 N828 0.984 . S
H836 N824 0.984 . S
H837 N824 0.985 . S
C838 C839 1.363 . S
C838 C844 1.379 . S
C838 N846 1.356 . S
C839 C838 1.363 . S
C839 C845 1.363 . S
C840 C841 1.363 . S
C840 C845 1.379 . S
C840 N847 1.356 . S
C841 C840 1.363 . S
C841 C844 1.363 . S
N842 C844 1.356 . S
N842 H854 0.984 . S
N842 H855 0.985 . S
N843 C845 1.356 . S
N843 H848 0.984 . S
N843 H849 0.985 . S
C844 C838 1.379 . S
C844 C841 1.363 . S
C844 N842 1.356 . S
C845 C839 1.363 . S
C845 C840 1.379 . S
C845 N843 1.356 . S
N846 C838 1.356 . S
N846 H852 0.984 . S
N846 H853 0.984 . S
N847 C840 1.356 . S
N847 H850 0.984 . S
N847 H851 0.985 . S
H848 N843 0.984 . S
H849 N843 0.985 . S
H850 N847 0.984 . S
H851 N847 0.985 . S
H852 N846 0.984 . S
H853 N846 0.984 . S
H854 N842 0.984 . S
H855 N842 0.985 . S
C856 C857 1.363 . S
C856 C862 1.379 . S
C856 N864 1.356 . S
C857 C856 1.363 . S
C857 C863 1.363 . S
C858 C859 1.363 . S
C858 C863 1.379 . S
C858 N865 1.356 . S
C859 C858 1.363 . S
C859 C862 1.363 . S
N860 C862 1.356 . S
N860 H872 0.984 . S
N860 H873 0.985 . S
N861 C863 1.356 . S
N861 H866 0.984 . S
N861 H867 0.985 . S
C862 C856 1.379 . S
C862 C859 1.363 . S
C862 N860 1.356 . S
C863 C857 1.363 . S
C863 C858 1.379 . S
C863 N861 1.356 . S
N864 C856 1.356 . S
N864 H870 0.984 . S
N864 H871 0.984 . S
N865 C858 1.356 . S
N865 H868 0.984 . S
N865 H869 0.985 . S
H866 N861 0.984 . S
H867 N861 0.985 . S
H868 N865 0.984 . S
H869 N865 0.985 . S
H870 N864 0.984 . S
H871 N864 0.984 . S
H872 N860 0.984 . S
H873 N860 0.985 . S
C874 C875 1.363 . S
C874 C880 1.379 . S
C874 N882 1.356 . S
C875 C874 1.363 . S
C875 C881 1.363 . S
C876 C877 1.363 . S
C876 C881 1.379 . S
C876 N883 1.356 . S
C877 C876 1.363 . S
C877 C880 1.363 . S
N878 C880 1.356 . S
N878 H890 0.984 . S
N878 H891 0.985 . S
N879 C881 1.356 . S
N879 H884 0.984 . S
N879 H885 0.985 . S
C880 C874 1.379 . S
C880 C877 1.363 . S
C880 N878 1.356 . S
C881 C875 1.363 . S
C881 C876 1.379 . S
C881 N879 1.356 . S
N882 C874 1.356 . S
N882 H888 0.984 . S
N882 H889 0.984 . S
N883 C876 1.356 . S
N883 H886 0.984 . S
N883 H887 0.985 . S
H884 N879 0.984 . S
H885 N879 0.985 . S
H886 N883 0.984 . S
H887 N883 0.985 . S
H888 N882 0.984 . S
H889 N882 0.984 . S
H890 N878 0.984 . S
H891 N878 0.985 . S
C892 C893 1.363 . S
C892 C898 1.379 . S
C892 N900 1.356 . S
C893 C892 1.363 . S
C893 C899 1.363 . S
C894 C895 1.363 . S
C894 C899 1.379 . S
C894 N901 1.356 . S
C895 C894 1.363 . S
C895 C898 1.363 . S
N896 C898 1.356 . S
N896 H908 0.984 . S
N896 H909 0.985 . S
N897 C899 1.356 . S
N897 H902 0.984 . S
N897 H903 0.985 . S
C898 C892 1.379 . S
C898 C895 1.363 . S
C898 N896 1.356 . S
C899 C893 1.363 . S
C899 C894 1.379 . S
C899 N897 1.356 . S
N900 C892 1.356 . S
N900 H906 0.984 . S
N900 H907 0.984 . S
N901 C894 1.356 . S
N901 H904 0.984 . S
N901 H905 0.985 . S
H902 N897 0.984 . S
H903 N897 0.985 . S
H904 N901 0.984 . S
H905 N901 0.985 . S
H906 N900 0.984 . S
H907 N900 0.984 . S
H908 N896 0.984 . S
H909 N896 0.985 . S
C910 C911 1.363 . S
C910 C916 1.379 . S
C910 N918 1.356 . S
C911 C910 1.363 . S
C911 C917 1.363 . S
C912 C913 1.363 . S
C912 C917 1.379 . S
C912 N919 1.356 . S
C913 C912 1.363 . S
C913 C916 1.363 . S
N914 C916 1.356 . S
N914 H926 0.984 . S
N914 H927 0.985 . S
N915 C917 1.356 . S
N915 H920 0.984 . S
N915 H921 0.985 . S
C916 C910 1.379 . S
C916 C913 1.363 . S
C916 N914 1.356 . S
C917 C911 1.363 . S
C917 C912 1.379 . S
C917 N915 1.356 . S
N918 C910 1.356 . S
N918 H924 0.984 . S
N918 H925 0.984 . S
N919 C912 1.356 . S
N919 H922 0.984 . S
N919 H923 0.985 . S
H920 N915 0.984 . S
H921 N915 0.985 . S
H922 N919 0.984 . S
H923 N919 0.985 . S
H924 N918 0.984 . S
H925 N918 0.984 . S
H926 N914 0.984 . S
H927 N914 0.985 . S
C928 C929 1.363 . S
C928 C934 1.379 . S
C928 N936 1.356 . S
C929 C928 1.363 . S
C929 C935 1.363 . S
C930 C931 1.363 . S
C930 C935 1.379 . S
C930 N937 1.356 . S
C931 C930 1.363 . S
C931 C934 1.363 . S
N932 C934 1.356 . S
N932 H944 0.984 . S
N932 H945 0.985 . S
N933 C935 1.356 . S
N933 H938 0.984 . S
N933 H939 0.985 . S
C934 C928 1.379 . S
C934 C931 1.363 . S
C934 N932 1.356 . S
C935 C929 1.363 . S
C935 C930 1.379 . S
C935 N933 1.356 . S
N936 C928 1.356 . S
N936 H942 0.984 . S
N936 H943 0.984 . S
N937 C930 1.356 . S
N937 H940 0.984 . S
N937 H941 0.985 . S
H938 N933 0.984 . S
H939 N933 0.985 . S
H940 N937 0.984 . S
H941 N937 0.985 . S
H942 N936 0.984 . S
H943 N936 0.984 . S
H944 N932 0.984 . S
H945 N932 0.985 . S
C946 C947 1.363 1_565 S
C946 C952 1.379 . S
C946 N954 1.356 . S
C947 C946 1.363 1_545 S
C947 C953 1.363 . S
C948 C949 1.363 . S
C948 C953 1.379 1_565 S
C948 N955 1.356 . S
C949 C948 1.363 . S
C949 C952 1.363 . S
N950 C952 1.356 . S
N950 H962 0.984 . S
N950 H963 0.985 . S
N951 C953 1.356 . S
N951 H956 0.984 . S
N951 H957 0.985 . S
C952 C946 1.379 . S
C952 C949 1.363 . S
C952 N950 1.356 . S
C953 C947 1.363 . S
C953 C948 1.379 1_545 S
C953 N951 1.356 . S
N954 C946 1.356 . S
N954 H960 0.984 . S
N954 H961 0.984 1_565 S
N955 C948 1.356 . S
N955 H958 0.984 . S
N955 H959 0.985 . S
H956 N951 0.984 . S
H957 N951 0.985 . S
H958 N955 0.984 . S
H959 N955 0.985 . S
H960 N954 0.984 . S
H961 N954 0.984 1_545 S
H962 N950 0.984 . S
H963 N950 0.985 . S
C964 C965 1.363 . S
C964 C970 1.379 . S
C964 N972 1.356 . S
C965 C964 1.363 . S
C965 C971 1.363 . S
C966 C967 1.363 . S
C966 C971 1.379 . S
C966 N973 1.356 . S
C967 C966 1.363 . S
C967 C970 1.363 . S
N968 C970 1.356 . S
N968 H980 0.984 . S
N968 H981 0.985 . S
N969 C971 1.356 . S
N969 H974 0.984 . S
N969 H975 0.985 . S
C970 C964 1.379 . S
C970 C967 1.363 . S
C970 N968 1.356 . S
C971 C965 1.363 . S
C971 C966 1.379 . S
C971 N969 1.356 . S
N972 C964 1.356 . S
N972 H978 0.984 . S
N972 H979 0.984 . S
N973 C966 1.356 . S
N973 H976 0.984 . S
N973 H977 0.985 . S
H974 N969 0.984 . S
H975 N969 0.985 . S
H976 N973 0.984 . S
H977 N973 0.985 . S
H978 N972 0.984 . S
H979 N972 0.984 . S
H980 N968 0.984 . S
H981 N968 0.985 . S
C982 C983 1.363 . S
C982 C988 1.379 1_565 S
C982 N990 1.356 . S
C983 C982 1.363 . S
C983 C989 1.363 1_565 S
C984 C985 1.363 . S
C984 C989 1.379 . S
C984 N991 1.356 . S
C985 C984 1.363 . S
C985 C988 1.363 . S
N986 C988 1.356 . S
N986 H998 0.984 . S
N986 H999 0.985 . S
N987 C989 1.356 . S
N987 H992 0.984 1_545 S
N987 H993 0.985 . S
C988 C982 1.379 1_545 S
C988 C985 1.363 . S
C988 N986 1.356 . S
C989 C983 1.363 1_545 S
C989 C984 1.379 . S
C989 N987 1.356 . S
N990 C982 1.356 . S
N990 H996 0.984 . S
N990 H997 0.984 . S
N991 C984 1.356 . S
N991 H994 0.984 . S
N991 H995 0.985 . S
H992 N987 0.984 1_565 S
H993 N987 0.985 . S
H994 N991 0.984 . S
H995 N991 0.985 . S
H996 N990 0.984 . S
H997 N990 0.984 . S
H998 N986 0.984 . S
H999 N986 0.985 . S
C1000 C1001 1.363 . S
C1000 C1006 1.379 . S
C1000 N1008 1.356 . S
C1001 C1000 1.363 . S
C1001 C1007 1.363 . S
C1002 C1003 1.363 . S
C1002 C1007 1.379 . S
C1002 N1009 1.356 . S
C1003 C1002 1.363 . S
C1003 C1006 1.363 . S
N1004 C1006 1.356 . S
N1004 H1016 0.984 . S
N1004 H1017 0.985 . S
N1005 C1007 1.356 . S
N1005 H1010 0.984 . S
N1005 H1011 0.985 . S
C1006 C1000 1.379 . S
C1006 C1003 1.363 . S
C1006 N1004 1.356 . S
C1007 C1001 1.363 . S
C1007 C1002 1.379 . S
C1007 N1005 1.356 . S
N1008 C1000 1.356 . S
N1008 H1014 0.984 . S
N1008 H1015 0.984 . S
N1009 C1002 1.356 . S
N1009 H1012 0.984 . S
N1009 H1013 0.985 . S
H1010 N1005 0.984 . S
H1011 N1005 0.985 . S
H1012 N1009 0.984 . S
H1013 N1009 0.985 . S
H1014 N1008 0.984 . S
H1015 N1008 0.984 . S
H1016 N1004 0.984 . S
H1017 N1004 0.985 . S
C1018 C1019 1.363 . S
C1018 C1024 1.379 1_545 S
C1018 N1026 1.356 . S
C1019 C1018 1.363 . S
C1019 C1025 1.363 . S
C1020 C1021 1.363 1_545 S
C1020 C1025 1.379 . S
C1020 N1027 1.356 . S
C1021 C1020 1.363 1_565 S
C1021 C1024 1.363 . S
N1022 C1024 1.356 . S
N1022 H1034 0.984 . S
N1022 H1035 0.985 . S
N1023 C1025 1.356 . S
N1023 H1028 0.984 . S
N1023 H1029 0.985 . S
C1024 C1018 1.379 1_565 S
C1024 C1021 1.363 . S
C1024 N1022 1.356 . S
C1025 C1019 1.363 . S
C1025 C1020 1.379 . S
C1025 N1023 1.356 . S
N1026 C1018 1.356 . S
N1026 H1032 0.984 . S
N1026 H1033 0.984 . S
N1027 C1020 1.356 . S
N1027 H1030 0.984 1_545 S
N1027 H1031 0.985 . S
H1028 N1023 0.984 . S
H1029 N1023 0.985 . S
H1030 N1027 0.984 1_565 S
H1031 N1027 0.985 . S
H1032 N1026 0.984 . S
H1033 N1026 0.984 . S
H1034 N1022 0.984 . S
H1035 N1022 0.985 . S
C1036 C1037 1.363 . S
C1036 C1042 1.379 . S
C1036 N1044 1.356 . S
C1037 C1036 1.363 . S
C1037 C1043 1.363 . S
C1038 C1039 1.363 . S
C1038 C1043 1.379 . S
C1038 N1045 1.356 . S
C1039 C1038 1.363 . S
C1039 C1042 1.363 . S
N1040 C1042 1.356 . S
N1040 H1052 0.984 . S
N1040 H1053 0.985 . S
N1041 C1043 1.356 . S
N1041 H1046 0.984 . S
N1041 H1047 0.985 . S
C1042 C1036 1.379 . S
C1042 C1039 1.363 . S
C1042 N1040 1.356 . S
C1043 C1037 1.363 . S
C1043 C1038 1.379 . S
C1043 N1041 1.356 . S
N1044 C1036 1.356 . S
N1044 H1050 0.984 . S
N1044 H1051 0.984 . S
N1045 C1038 1.356 . S
N1045 H1048 0.984 . S
N1045 H1049 0.985 . S
H1046 N1041 0.984 . S
H1047 N1041 0.985 . S
H1048 N1045 0.984 . S
H1049 N1045 0.985 . S
H1050 N1044 0.984 . S
H1051 N1044 0.984 . S
H1052 N1040 0.984 . S
H1053 N1040 0.985 . S
C1054 C1055 1.363 . S
C1054 C1060 1.379 1_545 S
C1054 N1062 1.356 . S
C1055 C1054 1.363 . S
C1055 C1061 1.363 1_545 S
C1056 C1057 1.363 . S
C1056 C1061 1.379 . S
C1056 N1063 1.356 . S
C1057 C1056 1.363 . S
C1057 C1060 1.363 . S
N1058 C1060 1.356 . S
N1058 H1070 0.984 . S
N1058 H1071 0.985 . S
N1059 C1061 1.356 . S
N1059 H1064 0.984 1_565 S
N1059 H1065 0.985 . S
C1060 C1054 1.379 1_565 S
C1060 C1057 1.363 . S
C1060 N1058 1.356 . S
C1061 C1055 1.363 1_565 S
C1061 C1056 1.379 . S
C1061 N1059 1.356 . S
N1062 C1054 1.356 . S
N1062 H1068 0.984 . S
N1062 H1069 0.984 . S
N1063 C1056 1.356 . S
N1063 H1066 0.984 . S
N1063 H1067 0.985 . S
H1064 N1059 0.984 1_545 S
H1065 N1059 0.985 . S
H1066 N1063 0.984 . S
H1067 N1063 0.985 . S
H1068 N1062 0.984 . S
H1069 N1062 0.984 . S
H1070 N1058 0.984 . S
H1071 N1058 0.985 . S
C1072 C1073 1.363 . S
C1072 C1078 1.379 . S
C1072 N1080 1.356 . S
C1073 C1072 1.363 . S
C1073 C1079 1.363 . S
C1074 C1075 1.363 . S
C1074 C1079 1.379 . S
C1074 N1081 1.356 . S
C1075 C1074 1.363 . S
C1075 C1078 1.363 . S
N1076 C1078 1.356 . S
N1076 H1088 0.984 . S
N1076 H1089 0.985 . S
N1077 C1079 1.356 . S
N1077 H1082 0.984 . S
N1077 H1083 0.985 . S
C1078 C1072 1.379 . S
C1078 C1075 1.363 . S
C1078 N1076 1.356 . S
C1079 C1073 1.363 . S
C1079 C1074 1.379 . S
C1079 N1077 1.356 . S
N1080 C1072 1.356 . S
N1080 H1086 0.984 . S
N1080 H1087 0.984 . S
N1081 C1074 1.356 . S
N1081 H1084 0.984 . S
N1081 H1085 0.985 . S
H1082 N1077 0.984 . S
H1083 N1077 0.985 . S
H1084 N1081 0.984 . S
H1085 N1081 0.985 . S
H1086 N1080 0.984 . S
H1087 N1080 0.984 . S
H1088 N1076 0.984 . S
H1089 N1076 0.985 . S
C1090 C1091 1.363 . S
C1090 C1096 1.379 . S
C1090 N1098 1.356 . S
C1091 C1090 1.363 . S
C1091 C1097 1.363 . S
C1092 C1093 1.363 . S
C1092 C1097 1.379 . S
C1092 N1099 1.356 . S
C1093 C1092 1.363 . S
C1093 C1096 1.363 . S
N1094 C1096 1.356 . S
N1094 H1106 0.984 . S
N1094 H1107 0.985 . S
N1095 C1097 1.356 . S
N1095 H1100 0.984 . S
N1095 H1101 0.985 . S
C1096 C1090 1.379 . S
C1096 C1093 1.363 . S
C1096 N1094 1.356 . S
C1097 C1091 1.363 . S
C1097 C1092 1.379 . S
C1097 N1095 1.356 . S
N1098 C1090 1.356 . S
N1098 H1104 0.984 . S
N1098 H1105 0.984 . S
N1099 C1092 1.356 . S
N1099 H1102 0.984 1_554 S
N1099 H1103 0.985 . S
H1100 N1095 0.984 . S
H1101 N1095 0.985 . S
H1102 N1099 0.984 1_556 S
H1103 N1099 0.985 . S
H1104 N1098 0.984 . S
H1105 N1098 0.984 . S
H1106 N1094 0.984 . S
H1107 N1094 0.985 . S
C1108 C1109 1.363 . S
C1108 C1114 1.379 . S
C1108 N1116 1.356 . S
C1109 C1108 1.363 . S
C1109 C1115 1.363 . S
C1110 C1111 1.363 . S
C1110 C1115 1.379 . S
C1110 N1117 1.356 . S
C1111 C1110 1.363 . S
C1111 C1114 1.363 . S
N1112 C1114 1.356 . S
N1112 H1124 0.984 . S
N1112 H1125 0.985 . S
N1113 C1115 1.356 . S
N1113 H1118 0.984 . S
N1113 H1119 0.985 . S
C1114 C1108 1.379 . S
C1114 C1111 1.363 . S
C1114 N1112 1.356 . S
C1115 C1109 1.363 . S
C1115 C1110 1.379 . S
C1115 N1113 1.356 . S
N1116 C1108 1.356 . S
N1116 H1122 0.984 . S
N1116 H1123 0.984 . S
N1117 C1110 1.356 . S
N1117 H1120 0.984 . S
N1117 H1121 1.007 . S
H1118 N1113 0.984 . S
H1119 N1113 0.985 . S
H1120 N1117 0.984 . S
H1121 N1117 1.007 . S
H1122 N1116 0.984 . S
H1123 N1116 0.984 . S
H1124 N1112 0.984 . S
H1125 N1112 0.985 . S
C1126 C1127 1.363 . S
C1126 C1132 1.379 . S
C1126 N1134 1.356 . S
C1127 C1126 1.363 . S
C1127 C1133 1.363 . S
C1128 C1129 1.363 . S
C1128 C1133 1.379 . S
C1128 N1135 1.356 . S
C1129 C1128 1.363 . S
C1129 C1132 1.363 . S
N1130 C1132 1.356 . S
N1130 H1142 0.984 . S
N1130 H1143 0.985 . S
N1131 C1133 1.356 . S
N1131 H1136 0.984 . S
N1131 H1137 0.985 . S
C1132 C1126 1.379 . S
C1132 C1129 1.363 . S
C1132 N1130 1.356 . S
C1133 C1127 1.363 . S
C1133 C1128 1.379 . S
C1133 N1131 1.356 . S
N1134 C1126 1.356 . S
N1134 H1140 0.984 . S
N1134 H1141 0.984 . S
N1135 C1128 1.356 . S
N1135 H1138 0.984 . S
N1135 H1139 0.985 . S
H1136 N1131 0.984 . S
H1137 N1131 0.985 . S
H1138 N1135 0.984 . S
H1139 N1135 0.985 . S
H1140 N1134 0.984 . S
H1141 N1134 0.984 . S
H1142 N1130 0.984 . S
H1143 N1130 0.985 . S
C1144 C1145 1.363 . S
C1144 C1150 1.379 . S
C1144 N1152 1.356 . S
C1145 C1144 1.363 . S
C1145 C1151 1.363 . S
C1146 C1147 1.363 . S
C1146 C1151 1.379 . S
C1146 N1153 1.356 . S
C1147 C1146 1.363 . S
C1147 C1150 1.363 . S
N1148 C1150 1.356 . S
N1148 H1160 0.984 . S
N1148 H1161 0.985 . S
N1149 C1151 1.356 . S
N1149 H1154 0.984 . S
N1149 H1155 0.985 . S
C1150 C1144 1.379 . S
C1150 C1147 1.363 . S
C1150 N1148 1.356 . S
C1151 C1145 1.363 . S
C1151 C1146 1.379 . S
C1151 N1149 1.356 . S
N1152 C1144 1.356 . S
N1152 H1158 0.984 . S
N1152 H1159 0.984 . S
N1153 C1146 1.356 . S
N1153 H1156 0.984 . S
N1153 H1157 0.985 . S
H1154 N1149 0.984 . S
H1155 N1149 0.985 . S
H1156 N1153 0.984 . S
H1157 N1153 0.985 . S
H1158 N1152 0.984 . S
H1159 N1152 0.984 . S
H1160 N1148 0.984 . S
H1161 N1148 0.985 . S
C1162 C1163 1.363 . S
C1162 C1168 1.379 . S
C1162 N1170 1.356 . S
C1163 C1162 1.363 . S
C1163 C1169 1.363 . S
C1164 C1165 1.363 . S
C1164 C1169 1.379 . S
C1164 N1171 1.356 . S
C1165 C1164 1.363 . S
C1165 C1168 1.363 . S
N1166 C1168 1.356 . S
N1166 H1178 0.984 . S
N1166 H1179 0.985 1_556 S
N1167 C1169 1.356 . S
N1167 H1172 0.984 . S
N1167 H1173 0.985 . S
C1168 C1162 1.379 . S
C1168 C1165 1.363 . S
C1168 N1166 1.356 . S
C1169 C1163 1.363 . S
C1169 C1164 1.379 . S
C1169 N1167 1.356 . S
N1170 C1162 1.356 . S
N1170 H1176 0.984 . S
N1170 H1177 0.984 . S
N1171 C1164 1.356 . S
N1171 H1174 0.984 . S
N1171 H1175 0.985 . S
H1172 N1167 0.984 . S
H1173 N1167 0.985 . S
H1174 N1171 0.984 . S
H1175 N1171 0.985 . S
H1176 N1170 0.984 . S
H1177 N1170 0.984 . S
H1178 N1166 0.984 . S
H1179 N1166 0.985 1_554 S
C1180 C1181 1.363 . S
C1180 C1186 1.379 . S
C1180 N1188 1.356 . S
C1181 C1180 1.363 . S
C1181 C1187 1.363 . S
C1182 C1183 1.363 . S
C1182 C1187 1.379 . S
C1182 N1189 1.356 . S
C1183 C1182 1.363 . S
C1183 C1186 1.363 . S
N1184 C1186 1.356 . S
N1184 H1196 0.984 . S
N1184 H1197 0.985 . S
N1185 C1187 1.356 . S
N1185 H1190 0.984 . S
N1185 H1191 0.985 . S
C1186 C1180 1.379 . S
C1186 C1183 1.363 . S
C1186 N1184 1.356 . S
C1187 C1181 1.363 . S
C1187 C1182 1.379 . S
C1187 N1185 1.356 . S
N1188 C1180 1.356 . S
N1188 H1194 0.984 . S
N1188 H1195 0.984 . S
N1189 C1182 1.356 . S
N1189 H1192 0.984 . S
N1189 H1193 0.985 . S
H1190 N1185 0.984 . S
H1191 N1185 0.985 . S
H1192 N1189 0.984 . S
H1193 N1189 0.985 . S
H1194 N1188 0.984 . S
H1195 N1188 0.984 . S
H1196 N1184 0.984 . S
H1197 N1184 0.985 . S
C1198 C1199 1.363 . S
C1198 C1204 1.379 . S
C1198 N1206 1.356 . S
C1199 C1198 1.363 . S
C1199 C1205 1.363 . S
C1200 C1201 1.363 . S
C1200 C1205 1.379 . S
C1200 N1207 1.356 . S
C1201 C1200 1.363 . S
C1201 C1204 1.363 . S
N1202 C1204 1.356 . S
N1202 H1214 0.984 . S
N1202 H1215 0.985 . S
N1203 C1205 1.356 . S
N1203 H1208 0.984 . S
N1203 H1209 0.985 . S
C1204 C1198 1.379 . S
C1204 C1201 1.363 . S
C1204 N1202 1.356 . S
C1205 C1199 1.363 . S
C1205 C1200 1.379 . S
C1205 N1203 1.356 . S
N1206 C1198 1.356 . S
N1206 H1212 0.984 . S
N1206 H1213 0.984 . S
N1207 C1200 1.356 . S
N1207 H1210 0.984 . S
N1207 H1211 0.985 . S
H1208 N1203 0.984 . S
H1209 N1203 0.985 . S
H1210 N1207 0.984 . S
H1211 N1207 0.985 . S
H1212 N1206 0.984 . S
H1213 N1206 0.984 . S
H1214 N1202 0.984 . S
H1215 N1202 0.985 . S
C1216 C1217 1.363 . S
C1216 C1222 1.379 . S
C1216 N1224 1.356 . S
C1217 C1216 1.363 . S
C1217 C1223 1.363 . S
C1218 C1219 1.363 . S
C1218 C1223 1.379 . S
C1218 N1225 1.356 . S
C1219 C1218 1.363 . S
C1219 C1222 1.363 . S
N1220 C1222 1.356 . S
N1220 H1232 0.984 . S
N1220 H1233 0.985 . S
N1221 C1223 1.356 . S
N1221 H1226 0.984 . S
N1221 H1227 0.985 1_455 S
C1222 C1216 1.379 . S
C1222 C1219 1.363 . S
C1222 N1220 1.356 . S
C1223 C1217 1.363 . S
C1223 C1218 1.379 . S
C1223 N1221 1.356 . S
N1224 C1216 1.356 . S
N1224 H1230 0.984 . S
N1224 H1231 0.984 . S
N1225 C1218 1.356 . S
N1225 H1228 0.984 . S
N1225 H1229 0.985 1_455 S
H1226 N1221 0.984 . S
H1227 N1221 0.985 1_655 S
H1228 N1225 0.984 . S
H1229 N1225 0.985 1_655 S
H1230 N1224 0.984 . S
H1231 N1224 0.984 . S
H1232 N1220 0.984 . S
H1233 N1220 0.985 . S
C1234 C1235 1.363 . S
C1234 C1240 1.379 . S
C1234 N1242 1.356 . S
C1235 C1234 1.363 . S
C1235 C1241 1.363 . S
C1236 C1237 1.363 . S
C1236 C1241 1.379 . S
C1236 N1243 1.356 . S
C1237 C1236 1.363 . S
C1237 C1240 1.363 . S
N1238 C1240 1.356 . S
N1238 H1250 0.984 . S
N1238 H1251 0.985 . S
N1239 C1241 1.356 . S
N1239 H1244 0.984 . S
N1239 H1245 0.985 . S
C1240 C1234 1.379 . S
C1240 C1237 1.363 . S
C1240 N1238 1.356 . S
C1241 C1235 1.363 . S
C1241 C1236 1.379 . S
C1241 N1239 1.356 . S
N1242 C1234 1.356 . S
N1242 H1248 0.984 . S
N1242 H1249 0.984 . S
N1243 C1236 1.356 . S
N1243 H1246 0.984 . S
N1243 H1247 0.985 . S
H1244 N1239 0.984 . S
H1245 N1239 0.985 . S
H1246 N1243 0.984 . S
H1247 N1243 0.985 . S
H1248 N1242 0.984 . S
H1249 N1242 0.984 . S
H1250 N1238 0.984 . S
H1251 N1238 0.985 . S
C1252 C1253 1.363 . S
C1252 C1258 1.379 . S
C1252 N1260 1.356 . S
C1253 C1252 1.363 . S
C1253 C1259 1.363 . S
C1254 C1255 1.363 . S
C1254 C1259 1.379 . S
C1254 N1261 1.356 . S
C1255 C1254 1.363 . S
C1255 C1258 1.363 . S
N1256 C1258 1.356 . S
N1256 H1268 0.984 . S
N1256 H1269 0.985 . S
N1257 C1259 1.356 . S
N1257 H1262 0.984 . S
N1257 H1263 0.985 . S
C1258 C1252 1.379 . S
C1258 C1255 1.363 . S
C1258 N1256 1.356 . S
C1259 C1253 1.363 . S
C1259 C1254 1.379 . S
C1259 N1257 1.356 . S
N1260 C1252 1.356 . S
N1260 H1266 0.984 . S
N1260 H1267 0.984 . S
N1261 C1254 1.356 . S
N1261 H1264 0.984 . S
N1261 H1265 0.985 . S
H1262 N1257 0.984 . S
H1263 N1257 0.985 . S
H1264 N1261 0.984 . S
H1265 N1261 0.985 . S
H1266 N1260 0.984 . S
H1267 N1260 0.984 . S
H1268 N1256 0.984 . S
H1269 N1256 0.985 . S
C1270 C1271 1.363 . S
C1270 C1276 1.379 . S
C1270 N1278 1.356 . S
C1271 C1270 1.363 . S
C1271 C1277 1.363 . S
C1272 C1273 1.363 . S
C1272 C1277 1.379 . S
C1272 N1279 1.356 . S
C1273 C1272 1.363 . S
C1273 C1276 1.363 . S
N1274 C1276 1.356 . S
N1274 H1286 0.984 . S
N1274 H1287 0.985 . S
N1275 C1277 1.356 . S
N1275 H1280 0.984 1_554 S
N1275 H1281 0.985 . S
C1276 C1270 1.379 . S
C1276 C1273 1.363 . S
C1276 N1274 1.356 . S
C1277 C1271 1.363 . S
C1277 C1272 1.379 . S
C1277 N1275 1.356 . S
N1278 C1270 1.356 . S
N1278 H1284 0.984 . S
N1278 H1285 0.984 . S
N1279 C1272 1.356 . S
N1279 H1282 0.984 . S
N1279 H1283 0.985 . S
H1280 N1275 0.984 1_556 S
H1281 N1275 0.985 . S
H1282 N1279 0.984 . S
H1283 N1279 0.985 . S
H1284 N1278 0.984 . S
H1285 N1278 0.984 . S
H1286 N1274 0.984 . S
H1287 N1274 0.985 . S
C1288 C1289 1.363 . S
C1288 C1294 1.379 . S
C1288 N1296 1.379 . S
C1289 C1288 1.363 . S
C1289 C1295 1.363 . S
C1290 C1291 1.363 . S
C1290 C1295 1.379 . S
C1290 N1297 1.356 . S
C1291 C1290 1.363 . S
C1291 C1294 1.363 . S
N1292 C1294 1.356 . S
N1292 H1304 0.984 1_655 S
N1292 H1305 0.985 . S
N1293 C1295 1.356 . S
N1293 H1298 0.984 . S
N1293 H1299 0.985 . S
C1294 C1288 1.379 . S
C1294 C1291 1.363 . S
C1294 N1292 1.356 . S
C1295 C1289 1.363 . S
C1295 C1290 1.379 . S
C1295 N1293 1.356 . S
N1296 C1288 1.379 . S
N1296 H1302 0.954 1_655 S
N1296 H1303 0.993 . S
N1297 C1290 1.356 . S
N1297 H1300 0.984 . S
N1297 H1301 0.985 . S
H1298 N1293 0.984 . S
H1299 N1293 0.985 . S
H1300 N1297 0.984 . S
H1301 N1297 0.985 . S
H1302 N1296 0.954 1_455 S
H1303 N1296 0.993 . S
H1304 N1292 0.984 1_455 S
H1305 N1292 0.985 . S
C1306 C1307 1.363 . S
C1306 C1312 1.379 . S
C1306 N1314 1.356 . S
C1307 C1306 1.363 . S
C1307 C1313 1.363 . S
C1308 C1309 1.363 . S
C1308 C1313 1.379 . S
C1308 N1315 1.356 . S
C1309 C1308 1.363 . S
C1309 C1312 1.363 . S
N1310 C1312 1.356 . S
N1310 H1322 0.984 . S
N1310 H1323 0.985 . S
N1311 C1313 1.356 . S
N1311 H1316 0.984 . S
N1311 H1317 0.985 . S
C1312 C1306 1.379 . S
C1312 C1309 1.363 . S
C1312 N1310 1.356 . S
C1313 C1307 1.363 . S
C1313 C1308 1.379 . S
C1313 N1311 1.356 . S
N1314 C1306 1.356 . S
N1314 H1320 0.984 . S
N1314 H1321 0.984 . S
N1315 C1308 1.356 . S
N1315 H1318 0.984 . S
N1315 H1319 0.985 . S
H1316 N1311 0.984 . S
H1317 N1311 0.985 . S
H1318 N1315 0.984 . S
H1319 N1315 0.985 . S
H1320 N1314 0.984 . S
H1321 N1314 0.984 . S
H1322 N1310 0.984 . S
H1323 N1310 0.985 . S
C1324 C1325 1.363 . S
C1324 C1330 1.379 . S
C1324 N1332 1.356 . S
C1325 C1324 1.363 . S
C1325 C1331 1.363 . S
C1326 C1327 1.363 . S
C1326 C1331 1.379 . S
C1326 N1333 1.356 . S
C1327 C1326 1.363 . S
C1327 C1330 1.363 . S
N1328 C1330 1.356 . S
N1328 H1340 0.984 . S
N1328 H1341 0.985 . S
N1329 C1331 1.356 . S
N1329 H1334 0.984 . S
N1329 H1335 0.985 . S
C1330 C1324 1.379 . S
C1330 C1327 1.363 . S
C1330 N1328 1.356 . S
C1331 C1325 1.363 . S
C1331 C1326 1.379 . S
C1331 N1329 1.356 . S
N1332 C1324 1.356 . S
N1332 H1338 0.984 . S
N1332 H1339 0.984 . S
N1333 C1326 1.356 . S
N1333 H1336 0.984 . S
N1333 H1337 0.985 . S
H1334 N1329 0.984 . S
H1335 N1329 0.985 . S
H1336 N1333 0.984 . S
H1337 N1333 0.985 . S
H1338 N1332 0.984 . S
H1339 N1332 0.984 . S
H1340 N1328 0.984 . S
H1341 N1328 0.985 . S
C1342 C1343 1.363 . S
C1342 C1348 1.379 . S
C1342 N1350 1.356 . S
C1343 C1342 1.363 . S
C1343 C1349 1.363 . S
C1344 C1345 1.363 . S
C1344 C1349 1.379 . S
C1344 N1351 1.356 . S
C1345 C1344 1.363 . S
C1345 C1348 1.363 . S
N1346 C1348 1.356 . S
N1346 H1358 0.984 . S
N1346 H1359 0.985 . S
N1347 C1349 1.356 . S
N1347 H1352 0.984 . S
N1347 H1353 0.985 . S
C1348 C1342 1.379 . S
C1348 C1345 1.363 . S
C1348 N1346 1.356 . S
C1349 C1343 1.363 . S
C1349 C1344 1.379 . S
C1349 N1347 1.356 . S
N1350 C1342 1.356 . S
N1350 H1356 0.984 . S
N1350 H1357 0.984 1_556 S
N1351 C1344 1.356 . S
N1351 H1354 0.984 . S
N1351 H1355 0.985 . S
H1352 N1347 0.984 . S
H1353 N1347 0.985 . S
H1354 N1351 0.984 . S
H1355 N1351 0.985 . S
H1356 N1350 0.984 . S
H1357 N1350 0.984 1_554 S
H1358 N1346 0.984 . S
H1359 N1346 0.985 . S
C1360 C1361 1.363 . S
C1360 C1366 1.379 . S
C1360 N1368 1.356 . S
C1361 C1360 1.363 . S
C1361 C1367 1.363 . S
C1362 C1363 1.363 . S
C1362 C1367 1.379 . S
C1362 N1369 1.356 . S
C1363 C1362 1.363 . S
C1363 C1366 1.363 . S
N1364 C1366 1.356 . S
N1364 H1376 0.984 . S
N1364 H1377 0.985 . S
N1365 C1367 1.356 . S
N1365 H1370 0.984 . S
N1365 H1371 0.985 . S
C1366 C1360 1.379 . S
C1366 C1363 1.363 . S
C1366 N1364 1.356 . S
C1367 C1361 1.363 . S
C1367 C1362 1.379 . S
C1367 N1365 1.356 . S
N1368 C1360 1.356 . S
N1368 H1374 0.984 . S
N1368 H1375 0.984 . S
N1369 C1362 1.356 . S
N1369 H1372 0.984 . S
N1369 H1373 0.985 . S
H1370 N1365 0.984 . S
H1371 N1365 0.985 . S
H1372 N1369 0.984 . S
H1373 N1369 0.985 . S
H1374 N1368 0.984 . S
H1375 N1368 0.984 . S
H1376 N1364 0.984 . S
H1377 N1364 0.985 . S
C1378 C1379 1.363 . S
C1378 C1384 1.379 . S
C1378 N1386 1.356 . S
C1379 C1378 1.363 . S
C1379 C1385 1.363 . S
C1380 C1381 1.363 . S
C1380 C1385 1.379 . S
C1380 N1387 1.356 . S
C1381 C1380 1.363 . S
C1381 C1384 1.363 . S
N1382 C1384 1.356 . S
N1382 H1394 0.984 . S
N1382 H1395 0.985 . S
N1383 C1385 1.356 . S
N1383 H1388 0.984 . S
N1383 H1389 0.985 . S
C1384 C1378 1.379 . S
C1384 C1381 1.363 . S
C1384 N1382 1.356 . S
C1385 C1379 1.363 . S
C1385 C1380 1.379 . S
C1385 N1383 1.356 . S
N1386 C1378 1.356 . S
N1386 H1392 0.984 . S
N1386 H1393 0.984 . S
N1387 C1380 1.356 . S
N1387 H1390 0.984 . S
N1387 H1391 0.985 . S
H1388 N1383 0.984 . S
H1389 N1383 0.985 . S
H1390 N1387 0.984 . S
H1391 N1387 0.985 . S
H1392 N1386 0.984 . S
H1393 N1386 0.984 . S
H1394 N1382 0.984 . S
H1395 N1382 0.985 . S
C1396 C1397 1.363 . S
C1396 C1402 1.379 . S
C1396 N1404 1.356 . S
C1397 C1396 1.363 . S
C1397 C1403 1.363 . S
C1398 C1399 1.363 . S
C1398 C1403 1.379 . S
C1398 N1405 1.356 . S
C1399 C1398 1.363 . S
C1399 C1402 1.363 . S
N1400 C1402 1.356 . S
N1400 H1412 0.984 . S
N1400 H1413 0.985 . S
N1401 C1403 1.356 . S
N1401 H1406 0.984 . S
N1401 H1407 0.985 . S
C1402 C1396 1.379 . S
C1402 C1399 1.363 . S
C1402 N1400 1.356 . S
C1403 C1397 1.363 . S
C1403 C1398 1.379 . S
C1403 N1401 1.356 . S
N1404 C1396 1.356 . S
N1404 H1410 0.984 . S
N1404 H1411 0.984 . S
N1405 C1398 1.356 . S
N1405 H1408 0.984 . S
N1405 H1409 0.985 . S
H1406 N1401 0.984 . S
H1407 N1401 0.985 . S
H1408 N1405 0.984 . S
H1409 N1405 0.985 . S
H1410 N1404 0.984 . S
H1411 N1404 0.984 . S
H1412 N1400 0.984 . S
H1413 N1400 0.985 . S
C1414 C1415 1.363 1_556 S
C1414 C1420 1.379 . S
C1414 N1422 1.356 . S
C1415 C1414 1.363 1_554 S
C1415 C1421 1.363 1_455 S
C1416 C1417 1.363 1_554 S
C1416 C1421 1.379 . S
C1416 N1423 1.356 . S
C1417 C1416 1.363 1_556 S
C1417 C1420 1.363 1_655 S
N1418 C1420 1.356 1_655 S
N1418 H1430 0.984 1_655 S
N1418 H1431 0.985 . S
N1419 C1421 1.356 1_455 S
N1419 H1424 0.984 . S
N1419 H1425 0.985 1_455 S
C1420 C1414 1.379 . S
C1420 C1417 1.363 1_455 S
C1420 N1418 1.356 1_455 S
C1421 C1415 1.363 1_655 S
C1421 C1416 1.379 . S
C1421 N1419 1.356 1_655 S
N1422 C1414 1.356 . S
N1422 H1428 0.984 . S
N1422 H1429 0.984 1_556 S
N1423 C1416 1.356 . S
N1423 H1426 0.984 1_554 S
N1423 H1427 0.985 . S
H1424 N1419 0.984 . S
H1425 N1419 0.985 1_655 S
H1426 N1423 0.984 1_556 S
H1427 N1423 0.985 . S
H1428 N1422 0.984 . S
H1429 N1422 0.984 1_554 S
H1430 N1418 0.984 1_455 S
H1431 N1418 0.985 . S
C1432 C1433 1.363 . S
C1432 C1438 1.379 . S
C1432 N1440 1.356 . S
C1433 C1432 1.363 . S
C1433 C1439 1.363 . S
C1434 C1435 1.363 . S
C1434 C1439 1.379 . S
C1434 N1441 1.356 . S
C1435 C1434 1.363 . S
C1435 C1438 1.363 . S
N1436 C1438 1.356 . S
N1436 H1448 0.984 . S
N1436 H1449 0.985 . S
N1437 C1439 1.356 . S
N1437 H1442 0.984 . S
N1437 H1443 0.985 . S
C1438 C1432 1.379 . S
C1438 C1435 1.363 . S
C1438 N1436 1.356 . S
C1439 C1433 1.363 . S
C1439 C1434 1.379 . S
C1439 N1437 1.356 . S
N1440 C1432 1.356 . S
N1440 H1446 0.984 . S
N1440 H1447 0.984 . S
N1441 C1434 1.356 . S
N1441 H1444 0.984 . S
N1441 H1445 0.985 . S
H1442 N1437 0.984 . S
H1443 N1437 0.985 . S
H1444 N1441 0.984 . S
H1445 N1441 0.985 . S
H1446 N1440 0.984 . S
H1447 N1440 0.984 . S
H1448 N1436 0.984 . S
H1449 N1436 0.985 . S
C1450 C1451 1.363 . S
C1450 C1456 1.379 . S
C1450 N1458 1.356 . S
C1451 C1450 1.363 . S
C1451 C1457 1.363 . S
C1452 C1453 1.363 . S
C1452 C1457 1.379 . S
C1452 N1459 1.356 . S
C1453 C1452 1.363 . S
C1453 C1456 1.363 . S
N1454 C1456 1.356 . S
N1454 H1466 0.984 . S
N1454 H1467 0.985 . S
N1455 C1457 1.356 . S
N1455 H1460 0.984 . S
N1455 H1461 0.985 . S
C1456 C1450 1.379 . S
C1456 C1453 1.363 . S
C1456 N1454 1.356 . S
C1457 C1451 1.363 . S
C1457 C1452 1.379 . S
C1457 N1455 1.356 . S
N1458 C1450 1.356 . S
N1458 H1464 0.984 . S
N1458 H1465 0.984 . S
N1459 C1452 1.356 . S
N1459 H1462 0.984 . S
N1459 H1463 0.985 . S
H1460 N1455 0.984 . S
H1461 N1455 0.985 . S
H1462 N1459 0.984 . S
H1463 N1459 0.985 . S
H1464 N1458 0.984 . S
H1465 N1458 0.984 . S
H1466 N1454 0.984 . S
H1467 N1454 0.985 . S
C1468 C1469 1.375 . S
C1468 C1474 1.367 1_456 S
C1468 N1476 1.361 . S
C1469 C1468 1.375 . S
C1469 C1475 1.363 1_565 S
C1470 C1471 1.375 . S
C1470 C1475 1.367 1_654 S
C1470 N1477 1.361 . S
C1471 C1470 1.375 . S
C1471 C1474 1.363 1_545 S
N1472 C1474 1.356 . S
N1472 H1484 0.984 . S
N1472 H1485 0.985 . S
N1473 C1475 1.356 . S
N1473 H1478 0.984 . S
N1473 H1479 0.985 . S
C1474 C1468 1.367 1_654 S
C1474 C1471 1.363 1_565 S
C1474 N1472 1.356 . S
C1475 C1469 1.363 1_545 S
C1475 C1470 1.367 1_456 S
C1475 N1473 1.356 . S
N1476 C1468 1.361 . S
N1476 H1482 0.984 1_455 S
N1476 H1483 0.984 . S
N1477 C1470 1.361 . S
N1477 H1480 0.984 . S
N1477 H1481 0.985 1_655 S
H1478 N1473 0.984 . S
H1479 N1473 0.985 . S
H1480 N1477 0.984 . S
H1481 N1477 0.985 1_455 S
H1482 N1476 0.984 1_655 S
H1483 N1476 0.984 . S
H1484 N1472 0.984 . S
H1485 N1472 0.985 . S
C1486 C1487 1.363 . S
C1486 C1492 1.379 1_565 S
C1486 N1494 1.356 . S
C1487 C1486 1.363 . S
C1487 C1493 1.363 . S
C1488 C1489 1.363 . S
C1488 C1493 1.379 1_545 S
C1488 N1495 1.356 . S
C1489 C1488 1.363 . S
C1489 C1492 1.363 . S
N1490 C1492 1.356 . S
N1490 H1502 0.984 . S
N1490 H1503 0.985 . S
N1491 C1493 1.356 . S
N1491 H1496 0.984 . S
N1491 H1497 0.985 . S
C1492 C1486 1.379 1_545 S
C1492 C1489 1.363 . S
C1492 N1490 1.356 . S
C1493 C1487 1.363 . S
C1493 C1488 1.379 1_565 S
C1493 N1491 1.356 . S
N1494 C1486 1.356 . S
N1494 H1500 0.984 . S
N1494 H1501 0.984 . S
N1495 C1488 1.356 . S
N1495 H1498 0.984 . S
N1495 H1499 0.985 . S
H1496 N1491 0.984 . S
H1497 N1491 0.985 . S
H1498 N1495 0.984 . S
H1499 N1495 0.985 . S
H1500 N1494 0.984 . S
H1501 N1494 0.984 . S
H1502 N1490 0.984 . S
H1503 N1490 0.985 . S
C641 C31 3.348 . S
C643 C431 3.348 . S
C659 C71 3.348 . S
C661 C471 3.348 . S
C677 C111 3.348 . S
C679 C351 3.348 . S
C695 C151 3.348 . S
C697 C391 3.348 . S
C713 C172 3.348 . S
C715 C572 3.348 . S
C731 C212 3.348 . S
C733 C612 3.348 . S
C749 C252 3.348 . S
C751 C492 3.348 . S
C767 C292 3.348 . S
C769 C532 3.348 . S
C785 C377 3.784 . S
C787 C12 3.753 1_556 S
C803 C417 3.785 . S
C805 C52 3.754 . S
C821 C457 3.784 . S
C823 C92 3.753 . S
C839 C337 3.784 . S
C841 C132 3.754 . S
C857 C191 3.753 1_554 S
C859 C522 3.784 . S
C875 C562 3.785 . S
C877 C231 3.754 . S
C893 C602 3.784 . S
C895 C271 3.753 . S
C911 C482 3.784 . S
C913 C311 3.754 . S
C929 C57 3.784 . S
C931 C332 3.753 . S
C947 C372 3.754 . S
C949 C97 3.784 . S
C965 C412 3.753 1_556 S
C967 C137 3.784 . S
C983 C452 3.754 . S
C985 C17 3.785 . S
C1001 C511 3.753 . S
C1003 C202 3.784 . S
C1019 C242 3.784 . S
C1021 C551 3.754 . S
C1037 C282 3.784 . S
C1039 C591 3.753 1_554 S
C1055 C631 3.754 . S
C1057 C162 3.785 . S
C1073 C8 0.695 . S
C1075 C617 0.637 . S
C1091 C48 0.695 . S
C1093 C177 0.637 . S
C1109 C537 0.637 . S
C1111 C88 0.695 . S
C1127 C257 0.637 . S
C1129 C128 0.695 . S
C1145 C189 0.695 . S
C1147 C442 0.637 . S
C1163 C229 0.695 . S
C1165 C2 0.637 . S
C1181 C362 0.637 . S
C1183 C269 0.695 . S
C1199 C82 0.637 . S
C1201 C309 0.695 . S
C1217 C328 0.695 . S
C1219 C297 0.637 . S
C1235 C368 0.695 . S
C1237 C497 0.637 . S
C1253 C217 0.637 . S
C1255 C408 0.695 . S
C1271 C577 0.637 . S
C1273 C448 0.695 . S
C1289 C509 0.695 . S
C1291 C122 0.637 . S
C1307 C549 0.695 . S
C1309 C322 0.637 . S
C1325 C589 0.695 . S
C1327 C42 0.637 . S
C1343 C402 0.637 . S
C1345 C629 0.695 . S
C1361 C29 2.148 . S
C1363 C488 2.148 . S
C1379 C69 2.148 . S
C1381 C208 2.148 . S
C1397 C109 2.148 . S
C1399 C568 2.148 . S
C1415 C288 2.148 . S
C1417 C149 2.148 . S
C1433 C168 2.148 . S
C1435 C349 2.148 . S
C1451 C429 2.148 . S
C1453 C248 2.148 . S
C1469 C389 2.148 . S
C1471 C528 2.148 . S
C1487 C608 2.148 . S
C1489 C469 2.148 . S
