# Generated by pormake.
# Topology tfs, (6)-cn, num edge types: 1
# Building blocks:
#     Node 0, Type 0, BuildingBlock: PAMTUU_clean_sbu_0, # of connection points: 6
#     Node 1, Type 0, BuildingBlock: PAMTUU_clean_sbu_0, # of connection points: 6
#     Node 2, Type 0, BuildingBlock: PAMTUU_clean_sbu_0, # of connection points: 6
#     Node 3, Type 0, BuildingBlock: PAMTUU_clean_sbu_0, # of connection points: 6
#     Node 4, Type 0, BuildingBlock: PAMTUU_clean_sbu_0, # of connection points: 6
#     Node 5, Type 0, BuildingBlock: PAMTUU_clean_sbu_0, # of connection points: 6
#     Edge 6, Type (0, 0), BuildingBlock: XUDNAN_clean_linker_2, # of connection points: 2
#     Edge 7, Type (0, 0), BuildingBlock: XUDNAN_clean_linker_2, # of connection points: 2
#     Edge 8, Type (0, 0), BuildingBlock: XUDNAN_clean_linker_2, # of connection points: 2
#     Edge 9, Type (0, 0), BuildingBlock: XUDNAN_clean_linker_2, # of connection points: 2
#     Edge 10, Type (0, 0), BuildingBlock: XUDNAN_clean_linker_2, # of connection points: 2
#     Edge 11, Type (0, 0), BuildingBlock: XUDNAN_clean_linker_2, # of connection points: 2
#     Edge 12, Type (0, 0), BuildingBlock: XUDNAN_clean_linker_2, # of connection points: 2
#     Edge 13, Type (0, 0), BuildingBlock: XUDNAN_clean_linker_2, # of connection points: 2
#     Edge 14, Type (0, 0), BuildingBlock: XUDNAN_clean_linker_2, # of connection points: 2
#     Edge 15, Type (0, 0), BuildingBlock: XUDNAN_clean_linker_2, # of connection points: 2
#     Edge 16, Type (0, 0), BuildingBlock: XUDNAN_clean_linker_2, # of connection points: 2
#     Edge 17, Type (0, 0), BuildingBlock: XUDNAN_clean_linker_2, # of connection points: 2
#     Edge 18, Type (0, 0), BuildingBlock: XUDNAN_clean_linker_2, # of connection points: 2
#     Edge 19, Type (0, 0), BuildingBlock: XUDNAN_clean_linker_2, # of connection points: 2
#     Edge 20, Type (0, 0), BuildingBlock: XUDNAN_clean_linker_2, # of connection points: 2
#     Edge 21, Type (0, 0), BuildingBlock: XUDNAN_clean_linker_2, # of connection points: 2
#     Edge 22, Type (0, 0), BuildingBlock: XUDNAN_clean_linker_2, # of connection points: 2
#     Edge 23, Type (0, 0), BuildingBlock: XUDNAN_clean_linker_2, # of connection points: 2
# Relax obj value: 0.385
# Max RMSD: 0.386
# Mean RMSD: 0.316
data_MOF--net-tfs--node1-PAMTUU_clean_sbu_0--edge1-XUDNAN_clean_linker_2
_symmetry_space_group_name_H-M    P1
_symmetry_Int_Tables_number       1
_symmetry_cell_setting            triclinic
loop_
_symmetry_equiv_pos_as_xyz
'x, y, z'
_cell_length_a     59.619139
_cell_length_b     51.756679
_cell_length_c     14.217285
_cell_angle_alpha  78.944317
_cell_angle_beta   98.267276
_cell_angle_gamma 135.12051
loop_
_atom_site_label
_atom_site_type_symbol
_atom_site_fract_x
_atom_site_fract_y
_atom_site_fract_z
_atom_type_partial_charge
Tb0 Tb 0.25884 0.56235 0.12618 0.0
Tb1 Tb 0.26763 0.50252 0.20954 0.0
C2 C 0.28124 0.55632 0.33249 0.0
C3 C 0.2547 0.63554 0.05149 0.0
C4 C 0.25356 0.69041 0.02464 0.0
C5 C 0.25702 0.67777 0.11708 0.0
C6 C 0.25739 0.65044 0.13046 0.0
C7 C 0.25363 0.65019 0.95898 0.0
C8 C 0.25308 0.67725 0.94567 0.0
C9 C 0.24656 0.60051 0.0634 0.0
O10 O 0.30885 0.59612 0.10249 0.0
O11 O 0.31511 0.55662 0.17143 0.0
O12 O 0.27759 0.51953 0.05989 0.0
O13 O 0.24412 0.52734 0.02154 0.0
O14 O 0.28914 0.48803 0.30479 0.0
O15 O 0.25458 0.45359 0.19487 0.0
O16 O 0.21676 0.46869 0.19335 0.0
O17 O 0.21561 0.51211 0.19814 0.0
O18 O 0.28485 0.57861 0.25927 0.0
O19 O 0.2666 0.52215 0.32828 0.0
C20 C 0.32624 0.58877 0.12743 0.0
O21 O 0.26122 0.59753 0.01321 0.0
O22 O 0.23914 0.5817 0.14859 0.0
C23 C 0.26342 0.52586 -0.00387 0.0
C24 C 0.2771 0.43214 0.29406 0.0
C25 C 0.28706 0.38481 0.32897 0.0
C26 C 0.25986 0.37403 0.27887 0.0
C27 C 0.25505 0.3974 0.26128 0.0
C28 C 0.30351 0.44235 0.34821 0.0
C29 C 0.30846 0.41899 0.36542 0.0
C30 C 0.27403 0.45871 0.26351 0.0
C31 C 0.20145 0.47782 0.20111 0.0
H32 H 0.25733 0.68719 0.17946 0.0
H33 H 0.25799 0.63958 0.20287 0.0
H34 H 0.25123 0.63907 0.89684 0.0
H35 H 0.25086 0.68675 0.87342 0.0
H36 H 0.24238 0.34762 0.25165 0.0
H37 H 0.23434 0.38853 0.21985 0.0
H38 H 0.32105 0.46904 0.37399 0.0
H39 H 0.32976 0.42845 0.40381 0.0
Tb40 Tb 0.83784 0.16152 0.58814 0.0
Tb41 Tb 0.75985 0.08851 0.62544 0.0
C42 C 0.80789 0.11188 0.78118 0.0
C43 C 0.92455 0.23464 0.51676 0.0
C44 C 0.97998 0.27968 0.40678 0.0
C45 C 0.98136 0.27353 0.50723 0.0
C46 C 0.95392 0.2513 0.56157 0.0
C47 C 0.92266 0.23892 0.4162 0.0
C48 C 0.95017 0.26132 0.3617 0.0
C49 C 0.89727 0.21625 0.57676 0.0
O50 O 0.82771 0.11576 0.5437 0.0
O51 O 0.77258 0.06694 0.55637 0.0
O52 O 0.76468 0.11363 0.47871 0.0
O53 O 0.81737 0.14855 0.44733 0.0
O54 O 0.72464 0.04716 0.72717 0.0
O55 O 0.71189 0.05274 0.58046 0.0
O56 O 0.77366 0.13506 0.67633 0.0
O57 O 0.81583 0.18205 0.57753 0.0
O58 O 0.82635 0.14579 0.73853 0.0
O59 O 0.78792 0.08501 0.72924 0.0
C60 C 0.80044 0.08182 0.53105 0.0
O61 O 0.88384 0.18425 0.62567 0.0
O62 O 0.8765 0.21726 0.53991 0.0
C63 C 0.78807 0.13106 0.41935 0.0
C64 C 0.67919 0.03716 0.69992 0.0
C65 C 0.6365 0.03823 0.75708 0.0
C66 C 0.62619 0.01279 0.69689 0.0
C67 C 0.64736 1.01214 0.66898 0.0
C68 C 0.68959 0.06285 0.75922 0.0
C69 C 0.66841 0.06322 0.78795 0.0
C70 C 0.70163 0.03723 0.66764 0.0
C71 C 0.79232 0.16855 0.63011 0.0
H72 H 1.00392 0.28752 0.54429 0.0
H73 H 0.95588 0.2484 0.63907 0.0
H74 H 0.90019 0.2261 0.37991 0.0
H75 H 0.94827 0.26514 0.28437 0.0
H76 H 0.60167 0.99307 0.6726 0.0
H77 H 0.63894 0.99223 0.62288 0.0
H78 H 0.71415 0.08279 0.78306 0.0
H79 H 0.67714 0.0835 0.83314 0.0
Tb80 Tb 0.60751 0.8861 0.02911 0.0
Tb81 Tb 0.62283 0.83518 0.02861 0.0
C82 C 0.62933 0.88322 0.85576 0.0
C83 C 0.5714 0.92505 0.00372 0.0
C84 C 0.52488 0.92726 0.97476 0.0
C85 C 0.54838 0.94562 0.90599 0.0
C86 C 0.57138 0.94462 0.92053 0.0
C87 C 0.54795 0.90652 0.07291 0.0
C88 C 0.52488 0.90767 0.05852 0.0
C89 C 0.5972 0.92635 0.01716 0.0
O90 O 0.56311 0.83422 0.98179 0.0
O91 O 0.57182 0.79688 0.03788 0.0
O92 O 0.62526 0.84155 0.17508 0.0
O93 O 0.59177 0.84993 0.16405 0.0
O94 O 0.64715 0.82826 0.96092 0.0
O95 O 0.61284 0.78695 0.07226 0.0
O96 O 0.66923 0.89045 0.04862 0.0
O97 O 0.65392 0.91648 0.09655 0.0
O98 O 0.63711 0.90631 0.90935 0.0
O99 O 0.61201 0.8487 0.88945 0.0
C100 C 0.55292 0.80143 0.00461 0.0
O101 O 0.59944 0.91145 0.09832 0.0
O102 O 0.6028 0.91984 0.9441 0.0
C103 C 0.60749 0.8427 0.21466 0.0
C104 C 0.65492 0.79232 0.05658 0.0
C105 C 0.68966 0.77516 0.13799 0.0
C106 C 0.68361 0.78986 0.1917 0.0
C107 C 0.66638 0.79841 0.15125 0.0
C108 C 0.66196 0.77908 0.00179 0.0
C109 C 0.67922 0.77064 0.04194 0.0
C110 C 0.63392 0.7972 0.01515 0.0
C111 C 0.67546 0.91642 0.08607 0.0
H112 H 0.54939 0.9614 0.84141 0.0
H113 H 0.58945 0.95951 0.86682 0.0
H114 H 0.54747 0.89135 0.13806 0.0
H115 H 0.5069 0.89295 0.11248 0.0
H116 H 0.69111 0.79342 0.26603 0.0
H117 H 0.66122 0.80874 0.19464 0.0
H118 H 0.65343 0.7744 0.92844 0.0
H119 H 0.68398 0.76002 -0.00188 0.0
Tb120 Tb 0.74878 0.51217 0.51276 0.0
Tb121 Tb 0.77168 0.47003 0.50396 0.0
C122 C 0.7804 0.50109 0.68164 0.0
C123 C 0.73787 0.5768 0.48395 0.0
C124 C 0.74442 0.63647 0.4105 0.0
C125 C 0.74517 0.62744 0.50988 0.0
C126 C 0.74181 0.5978 0.54615 0.0
C127 C 0.73837 0.58661 0.38447 0.0
C128 C 0.74151 0.61614 0.34811 0.0
C129 C 0.73105 0.54345 0.52495 0.0
O130 O 0.80057 0.55755 0.48855 0.0
O131 O 0.81113 0.52658 0.44209 0.0
O132 O 0.74212 0.46275 0.38231 0.0
O133 O 0.7579 0.51806 0.36572 0.0
O134 O 0.78553 0.44383 0.57476 0.0
O135 O 0.78396 0.45234 0.41948 0.0
O136 O 0.72578 0.4282 0.57594 0.0
O137 O 0.70523 0.45293 0.52108 0.0
O138 O 0.7548 0.49403 0.65501 0.0
O139 O 0.79573 0.50177 0.62299 0.0
C140 C 0.81982 0.55739 0.45274 0.0
O141 O 0.71761 0.51837 0.46862 0.0
O142 O 0.75305 0.54835 0.57985 0.0
C143 C 0.75054 0.4918 0.32759 0.0
C144 C 0.77958 0.40372 0.49332 0.0
C145 C 0.76631 0.33869 0.51904 0.0
C146 C 0.79538 0.37251 0.48 0.0
C147 C 0.80184 0.4046 0.46701 0.0
C148 C 0.74991 0.36996 0.52814 0.0
C149 C 0.74326 0.33757 0.54055 0.0
C150 C 0.78988 0.43904 0.49493 0.0
C151 C 0.70158 0.42503 0.56218 0.0
H152 H 0.747 0.64229 0.55976 0.0
H153 H 0.74136 0.59059 0.62311 0.0
H154 H 0.73556 0.57099 0.33483 0.0
H155 H 0.7412 0.62274 0.27117 0.0
H156 H 0.81399 0.37478 0.4642 0.0
H157 H 0.82497 0.43055 0.44083 0.0
H158 H 0.73247 0.3689 0.54898 0.0
H159 H 0.72046 0.31193 0.5694 0.0
Tb160 Tb 0.26937 0.94196 0.04494 0.0
Tb161 Tb 0.19074 0.87855 0.05868 0.0
C162 C 0.23624 0.91835 0.2355 0.0
C163 C 0.34733 0.97648 0.01755 0.0
C164 C 0.3812 0.9601 0.97881 0.0
C165 C 0.36776 0.94862 0.06936 0.0
C166 C 0.35121 0.95686 0.08864 0.0
C167 C 0.36025 0.98748 0.92673 0.0
C168 C 0.37673 0.97915 0.90733 0.0
C169 C 0.32852 0.98378 0.03596 0.0
O170 O 0.25217 0.88758 0.07804 0.0
O171 O 0.20556 0.85728 -0.00381 0.0
O172 O 0.20217 0.90818 0.91486 0.0
O173 O 0.25284 0.93427 0.89703 0.0
O174 O 0.15096 0.82266 0.10763 0.0
O175 O 0.14502 0.85787 0.03114 0.0
O176 O 0.20494 0.92784 0.08954 0.0
O177 O 0.25469 0.9713 0.02085 0.0
O178 O 0.26067 0.94589 0.18135 0.0
O179 O 0.21209 0.88627 0.20318 0.0
C180 C 0.22854 0.85984 0.03176 0.0
O181 O 0.31133 0.98213 0.96455 0.0
O182 O 0.31287 0.96739 0.11596 0.0
C183 C 0.22727 0.92657 0.86214 0.0
C184 C 0.10072 0.80223 0.12429 0.0
C185 C 0.04091 0.75728 0.21294 0.0
C186 C 0.06813 0.79241 0.24058 0.0
C187 C 0.09773 0.81468 0.19665 0.0
C188 C 0.07381 0.76732 0.09724 0.0
C189 C 0.04439 0.74523 0.14051 0.0
C190 C 0.13074 0.82469 0.07219 0.0
C191 C 0.2309 0.96238 0.06087 0.0
H192 H 0.36962 0.93282 0.12554 0.0
H193 H 0.3412 0.94746 0.1592 0.0
H194 H 0.35749 1.00245 0.87036 0.0
H195 H 0.38677 0.98876 0.83683 0.0
H196 H 0.06666 0.80265 0.29663 0.0
H197 H 0.11815 0.84154 0.21882 0.0
H198 H 0.07542 0.7572 0.04109 0.0
H199 H 0.02418 0.71894 0.11527 0.0
Tb200 Tb 0.40474 0.16963 0.65689 0.0
Tb201 Tb 0.41564 0.11334 0.73214 0.0
C202 C 0.42865 0.15136 0.52522 0.0
C203 C 0.37648 0.21926 0.56907 0.0
C204 C 0.34955 0.2474 0.49101 0.0
C205 C 0.36585 0.24611 0.43238 0.0
C206 C 0.37925 0.23239 0.47094 0.0
C207 C 0.35931 0.2194 0.62694 0.0
C208 C 0.34599 0.23319 0.58851 0.0
C209 C 0.39575 0.21171 0.61499 0.0
O210 O 0.35757 0.11241 0.65767 0.0
O211 O 0.37158 0.08116 0.64889 0.0
O212 O 0.38544 0.10693 0.82046 0.0
O213 O 0.41456 0.16725 0.80804 0.0
O214 O 0.41167 0.07077 0.71729 0.0
O215 O 0.42789 0.09399 0.85123 0.0
O216 O 0.46158 0.16912 0.75388 0.0
O217 O 0.4565 0.20704 0.66268 0.0
O218 O 0.40933 0.1551 0.53298 0.0
O219 O 0.43898 0.1423 0.59789 0.0
C220 C 0.35037 0.08282 0.6416 0.0
O221 O 0.38501 0.18779 0.69214 0.0
O222 O 0.41158 0.21132 0.56164 0.0
C223 C 0.39847 0.13537 0.86093 0.0
C224 C 0.44807 0.07108 0.81181 0.0
C225 C 0.49052 0.06265 0.82807 0.0
C226 C 0.47181 0.05093 0.90619 0.0
C227 C 0.45129 0.0557 0.89849 0.0
C228 C 0.46697 0.08343 0.73392 0.0
C229 C 0.48814 0.07948 0.74218 0.0
C230 C 0.42336 0.0715 0.80295 0.0
C231 C 0.47404 0.20182 0.70982 0.0
H232 H 0.36944 0.25713 0.35721 0.0
H233 H 0.39284 0.23344 0.42447 0.0
H234 H 0.35717 0.21012 0.70313 0.0
H235 H 0.33324 0.23316 0.6357 0.0
H236 H 0.47242 0.03732 0.97308 0.0
H237 H 0.43715 0.0463 0.9598 0.0
H238 H 0.46521 0.09581 0.66641 0.0
H239 H 0.50265 0.08974 0.68116 0.0
H240 H 0.35017 0.29188 0.57568 0.0
H241 H 0.3209 0.24175 0.31564 0.0
H242 H 0.30194 0.27116 0.24744 0.0
H243 H 0.28362 0.28197 0.58204 0.0
H244 H 0.30735 0.32557 0.6261 0.0
H245 H 0.31845 0.30038 0.65497 0.0
H246 H 0.37426 0.35755 0.58427 0.0
H247 H 0.3633 0.38286 0.55481 0.0
H248 H 0.37763 0.37811 0.46272 0.0
H249 H 0.28677 0.30669 0.20606 0.0
H250 H 0.27622 0.34536 0.19425 0.0
H251 H 0.31378 0.37153 0.48277 0.0
C252 C 0.33942 0.28666 0.50482 0.0
C253 C 0.33713 0.26437 0.45117 0.0
C254 C 0.32337 0.25897 0.35797 0.0
C255 C 0.31234 0.27544 0.31872 0.0
C256 C 0.31514 0.29733 0.37328 0.0
C257 C 0.32828 0.30294 0.46441 0.0
C258 C 0.32875 0.32806 0.50744 0.0
C259 C 0.30832 0.30778 0.598 0.0
C260 C 0.36303 0.36376 0.52853 0.0
C261 C 0.31387 0.33575 0.42618 0.0
C262 C 0.30618 0.31768 0.34961 0.0
C263 C 0.29246 0.3207 0.26595 0.0
C264 C 0.28632 0.34261 0.26029 0.0
C265 C 0.29373 0.36137 0.33788 0.0
C266 C 0.30786 0.35782 0.42184 0.0
H267 H 0.16403 0.40858 0.30571 0.0
H268 H 0.1604 0.48242 0.11906 0.0
H269 H 0.10227 0.43632 0.1381 0.0
H270 H 0.08638 0.32064 0.23467 0.0
H271 H 0.07703 0.29713 0.35537 0.0
H272 H 0.11788 0.33378 0.31798 0.0
H273 H 0.1311 0.36821 0.45854 0.0
H274 H 0.09037 0.33171 0.49634 0.0
H275 H 0.10865 0.37868 0.4712 0.0
H276 H 0.04561 0.38462 0.18339 0.0
H277 H 0.9942 0.33252 0.26315 0.0
H278 H 0.03378 0.29227 0.42692 0.0
C279 C 0.1508 0.41457 0.26754 0.0
C280 C 0.16654 0.44883 0.21021 0.0
C281 C 0.1487 0.45628 0.16323 0.0
C282 C 0.11568 0.4302 0.1731 0.0
C283 C 0.10083 0.39689 0.23104 0.0
C284 C 0.11773 0.38902 0.27823 0.0
C285 C 0.0962 0.35257 0.34334 0.0
C286 C 0.09426 0.32436 0.31087 0.0
C287 C 0.10724 0.35814 0.44857 0.0
C288 C 0.06481 0.34168 0.32663 0.0
C289 C 0.06797 0.36732 0.2601 0.0
C290 C 0.0427 0.3641 0.23487 0.0
C291 C 1.0135 0.33424 0.28018 0.0
C292 C 1.00983 0.30812 0.35081 0.0
C293 C 0.03582 0.31174 0.37313 0.0
H294 H 0.76081 1.00824 0.54721 0.0
H295 H 0.83385 0.10942 0.36688 0.0
H296 H 0.81558 0.07382 0.23298 0.0
H297 H 0.75179 0.94046 0.43702 0.0
H298 H 0.70919 0.90741 0.44418 0.0
H299 H 0.73375 0.93802 0.53431 0.0
H300 H 0.70529 0.95903 0.50337 0.0
H301 H 0.68158 0.93268 0.40555 0.0
H302 H 0.70715 0.98167 0.38684 0.0
H303 H 0.78093 0.02883 0.10955 0.0
H304 H 0.73414 0.98075 0.01372 0.0
H305 H 0.68308 0.9108 0.27518 0.0
C306 C 0.77434 0.02256 0.48158 0.0
C307 C 0.79919 0.0613 0.46807 0.0
C308 C 0.81544 0.07954 0.37975 0.0
C309 C 0.80499 0.05948 0.30293 0.0
C310 C 0.77859 0.0213 0.31639 0.0
C311 C 0.7638 1.00308 0.40447 0.0
C312 C 0.73204 0.96418 0.39674 0.0
C313 C 0.73168 0.93585 0.45666 0.0
C314 C 0.70497 0.9591 0.425 0.0
C315 C 0.73091 0.96304 0.29094 0.0
C316 C 0.75799 0.99599 0.24515 0.0
C317 C 0.76005 1.00261 0.14513 0.0
C318 C 0.73352 0.97525 0.09122 0.0
C319 C 0.70558 0.94202 0.13805 0.0
C320 C 0.70466 0.93564 0.23854 0.0
H321 H 0.70552 0.63211 0.27126 0.0
H322 H 0.78228 0.70501 0.46698 0.0
H323 H 0.77861 0.75033 0.41307 0.0
H324 H 0.72698 0.70399 0.07721 0.0
H325 H 0.68606 0.67933 0.04831 0.0
H326 H 0.69657 0.65423 0.09737 0.0
H327 H 0.65637 0.62099 0.23453 0.0
H328 H 0.64585 0.64607 0.18623 0.0
H329 H 0.6595 0.64806 0.30873 0.0
H330 H 0.76425 0.78601 0.34356 0.0
H331 H 0.74061 0.80917 0.26361 0.0
H332 H 0.67294 0.71191 0.11625 0.0
C333 C 0.72209 0.65799 0.30114 0.0
C334 C 0.74436 0.6652 0.37273 0.0
C335 C 0.765 0.69893 0.41213 0.0
C336 C 0.76317 0.72486 0.3817 0.0
C337 C 0.74059 0.7166 0.3119 0.0
C338 C 0.72049 0.68401 0.27197 0.0
C339 C 0.69716 0.68076 0.202 0.0
C340 C 0.702 0.67952 0.10019 0.0
C341 C 0.66269 0.64698 0.23489 0.0
C342 C 0.70705 0.71646 0.20935 0.0
C343 C 0.73221 0.7369 0.27268 0.0
C344 C 0.74467 0.77034 0.29333 0.0
C345 C 0.73098 0.78316 0.24808 0.0
C346 C 0.70507 0.76251 0.18316 0.0
C347 C 0.69316 0.72879 0.16378 0.0
H348 H 0.99393 0.68101 0.25309 0.0
H349 H 1.01452 0.77882 0.27269 0.0
H350 H 0.96099 0.7392 0.33845 0.0
H351 H 0.91288 0.6259 0.17508 0.0
H352 H 0.89918 0.58361 0.24167 0.0
H353 H 0.93954 0.61984 0.20023 0.0
H354 H 0.96019 0.62044 0.37397 0.0
H355 H 0.91987 0.58417 0.41582 0.0
H356 H 0.9476 0.62683 0.46755 0.0
H357 H 0.90322 0.68726 0.3997 0.0
H358 H 0.84849 0.62915 0.45065 0.0
H359 H 0.86622 0.5664 0.38512 0.0
C360 C 0.98731 0.69433 0.27048 0.0
C361 C 1.00887 0.73339 0.25719 0.0
C362 C 0.99894 0.74917 0.28312 0.0
C363 C 0.96835 0.72679 0.32 0.0
C364 C 0.94767 0.68846 0.33086 0.0
C365 C 0.95687 0.67245 0.30684 0.0
C366 C 0.93024 0.63065 0.32385 0.0
C367 C 0.91985 0.61404 0.2296 0.0
C368 C 0.94007 0.61459 0.39982 0.0
C369 C 0.90451 0.62551 0.36092 0.0
C370 C 0.91489 0.65907 0.36481 0.0
C371 C 0.89498 0.66089 0.39691 0.0
C372 C 0.86385 0.62767 0.42578 0.0
C373 C 0.85274 0.59293 0.42226 0.0
C374 C 0.87364 0.59226 0.38902 0.0
H375 H 0.28958 0.0279 0.09146 0.0
H376 H 0.19039 0.95959 0.14602 0.0
H377 H 0.2053 0.98685 0.29445 0.0
H378 H 0.3095 1.00946 0.23824 0.0
H379 H 0.3445 0.04458 0.30424 0.0
H380 H 0.34003 0.05409 0.17874 0.0
H381 H 0.33997 0.10041 0.1646 0.0
H382 H 0.35655 0.10807 0.28417 0.0
H383 H 0.32311 0.10291 0.25238 0.0
H384 H 0.25605 0.02321 0.43013 0.0
H385 H 0.30115 0.04729 0.60331 0.0
H386 H 0.35246 0.0682 0.46062 0.0
C387 C 0.27112 0.0199 0.13265 0.0
C388 C 0.23886 0.99086 0.10937 0.0
C389 C 0.21537 0.98177 0.16299 0.0
C390 C 0.22365 0.99692 0.24803 0.0
C391 C 0.25521 0.02019 0.27927 0.0
C392 C 0.27911 0.03188 0.222 0.0
C393 C 0.31131 0.05107 0.27125 0.0
C394 C 0.32704 0.03892 0.24761 0.0
C395 C 0.33403 0.09304 0.24184 0.0
C396 C 0.30266 0.04095 0.3755 0.0
C397 C 0.26647 0.02649 0.38338 0.0
C398 C 0.25392 0.02412 0.49688 0.0
C399 C 0.28009 0.03831 0.59734 0.0
C400 C 0.31859 0.05413 0.58468 0.0
C401 C 0.32849 0.05481 0.47244 0.0
H402 H 0.26899 0.85203 0.11067 0.0
H403 H 0.18714 0.80377 0.92078 0.0
H404 H 0.18611 0.75711 0.89568 0.0
H405 H 0.30694 0.83779 0.98038 0.0
H406 H 0.32029 0.82643 0.08695 0.0
H407 H 0.31537 0.85693 0.08838 0.0
H408 H 0.27744 0.81444 0.23249 0.0
H409 H 0.28221 0.7838 0.2316 0.0
H410 H 0.24301 0.7662 0.22314 0.0
H411 H 0.19357 0.71563 0.89048 0.0
H412 H 0.20736 0.67988 0.9113 0.0
H413 H 0.28362 0.75302 0.10807 0.0
C414 C 0.25088 0.8317 0.06361 0.0
C415 C 0.22812 0.83171 0.01756 0.0
C416 C 0.20479 0.80445 0.95697 0.0
C417 C 0.20406 0.77782 0.94203 0.0
C418 C 0.22673 0.77857 -0.0116 0.0
C419 C 0.24964 0.80464 0.04837 0.0
C420 C 0.27069 0.79853 0.09131 0.0
C421 C 0.30537 0.8319 0.05986 0.0
C422 C 0.26817 0.79025 0.20115 0.0
C423 C 0.25582 0.76474 0.04665 0.0
C424 C 0.23072 0.75405 -0.01323 0.0
C425 C 0.21323 0.72381 0.93695 0.0
C426 C 0.2214 0.70378 0.94884 0.0
C427 C 0.24676 0.71371 0.01066 0.0
C428 C 0.26412 0.74468 0.06036 0.0
H429 H 0.50764 0.04883 0.68784 0.0
H430 H 0.52443 0.06617 -0.01276 0.0
H431 H 0.55949 0.05618 0.00392 0.0
H432 H 0.51237 0.9821 0.70133 0.0
H433 H 0.53456 1.00351 0.59248 0.0
H434 H 0.50742 1.00701 0.60925 0.0
H435 H 0.55406 0.07854 0.57547 0.0
H436 H 0.58094 0.07436 0.56226 0.0
H437 H 0.58966 0.10199 0.64835 0.0
H438 H 0.59411 0.04642 -0.01168 0.0
H439 H 0.6292 0.04212 0.93757 0.0
H440 H 0.59377 0.03634 0.64573 0.0
C441 C 0.51865 0.05062 0.75705 0.0
C442 C 0.51244 0.05746 0.83682 0.0
C443 C 0.52769 0.0597 0.92565 0.0
C444 C 0.54791 0.0543 0.93586 0.0
C445 C 0.55329 0.04744 0.85614 0.0
C446 C 0.53954 0.04619 0.76801 0.0
C447 C 0.55191 0.04219 0.69154 0.0
C448 C 0.52493 1.00658 0.646 0.0
C449 C 0.57023 0.0763 0.61491 0.0
C450 C 0.57411 0.04044 0.7512 0.0
C451 C 0.57451 0.04351 0.84598 0.0
C452 C 0.59402 0.044 0.9143 0.0
C453 C 0.61398 0.04177 0.88475 0.0
C454 C 0.61422 0.03897 0.7878 0.0
C455 C 0.59376 0.03795 0.72055 0.0
H456 H 0.5012 0.79073 0.02365 0.0
H457 H 0.5277 0.73508 0.97382 0.0
H458 H 0.47185 0.67556 -0.01146 0.0
H459 H 0.4463 0.72438 0.20113 0.0
H460 H 0.4176 0.72695 0.16559 0.0
H461 H 0.4589 0.76648 0.13744 0.0
H462 H 0.44457 0.76911 0.95741 0.0
H463 H 0.40309 0.72984 -0.01494 0.0
H464 H 0.4215 0.72858 0.89837 0.0
H465 H 0.41578 0.62188 0.02986 0.0
H466 H 0.36027 0.57619 0.08264 0.0
H467 H 0.36775 0.66474 0.10288 0.0
C468 C 0.49499 0.76613 0.01281 0.0
C469 C 0.51876 0.7675 -0.00257 0.0
C470 C 0.5099 0.73465 -0.01408 0.0
C471 C 0.47821 0.70068 -0.00609 0.0
C472 C 0.45552 0.69994 0.01287 0.0
C473 C 0.46323 0.7317 0.02084 0.0
C474 C 0.43424 0.72243 0.04777 0.0
C475 C 0.4396 0.73586 0.14368 0.0
C476 C 0.42532 0.73844 0.96734 0.0
C477 C 0.40949 0.68055 0.05679 0.0
C478 C 0.42241 0.66835 0.03581 0.0
C479 C 0.40517 0.631 0.04501 0.0
C480 C 0.37375 0.60528 0.07598 0.0
C481 C 0.35974 0.61692 0.09698 0.0
C482 C 0.3778 0.65509 0.08641 0.0
H483 H 0.78643 0.31743 0.42033 0.0
H484 H 0.73687 0.28652 0.67796 0.0
H485 H 0.73601 0.23761 0.73151 0.0
H486 H 0.74919 0.22502 0.39004 0.0
H487 H 0.78575 0.24223 0.35153 0.0
H488 H 0.77827 0.27106 0.32752 0.0
H489 H 0.83131 0.32172 0.41305 0.0
H490 H 0.83873 0.29288 0.43863 0.0
H491 H 0.83814 0.31053 0.53493 0.0
H492 H 0.74387 0.19475 0.76225 0.0
H493 H 0.75921 0.16094 0.76601 0.0
H494 H 0.8076 0.22405 0.49514 0.0
C495 C 0.77513 0.30025 0.4877 0.0
C496 C 0.76166 0.30591 0.54467 0.0
C497 C 0.74682 0.28239 0.63188 0.0
C498 C 0.74645 0.25469 0.66343 0.0
C499 C 0.76111 0.25095 0.60719 0.0
C500 C 0.77503 0.27298 0.52093 0.0
C501 C 0.79103 0.26512 0.47689 0.0
C502 C 0.7751 0.24995 0.38082 0.0
C503 C 0.82693 0.29961 0.46525 0.0
C504 C 0.78455 0.23575 0.55287 0.0
C505 C 0.76685 0.22753 0.62682 0.0
C506 C 0.75771 0.20095 0.70471 0.0
C507 C 0.76661 0.18201 0.70638 0.0
C508 C 0.78488 0.19023 0.63141 0.0
C509 C 0.79408 0.21762 0.55422 0.0
H510 H 0.41891 0.95655 0.10611 0.0
H511 H 0.38722 0.94744 0.80826 0.0
H512 H 0.42057 0.93843 0.77602 0.0
H513 H 0.49746 1.0023 0.07561 0.0
H514 H 0.49851 0.97603 0.17579 0.0
H515 H 0.47229 0.98207 0.17673 0.0
H516 H 0.42413 0.91143 0.20481 0.0
H517 H 0.4501 0.90491 0.20509 0.0
H518 H 0.41652 0.88301 0.12383 0.0
H519 H 0.4564 0.92925 0.77596 0.0
H520 H 0.49385 0.92245 0.80695 0.0
H521 H 0.50115 0.93578 0.10555 0.0
C522 C 0.41835 0.95201 0.0343 0.0
C523 C 0.40033 0.95301 0.95978 0.0
C524 C 0.4012 0.94771 0.86652 0.0
C525 C 0.41987 0.94217 0.84749 0.0
C526 C 0.43714 0.94128 0.92268 0.0
C527 C 0.43634 0.94571 0.01439 0.0
C528 C 0.45648 0.94255 0.08295 0.0
C529 C 0.48275 0.97784 0.13053 0.0
C530 C 0.43556 0.90845 0.15863 0.0
C531 C 0.46992 0.93738 0.01429 0.0
C532 C 0.45797 0.93607 0.92263 0.0
C533 C 0.46616 0.93056 0.84724 0.0
C534 C 0.48757 0.92691 0.86553 0.0
C535 C 0.50077 0.92901 0.9584 0.0
C536 C 0.49144 0.93392 0.03385 0.0
H537 H 0.64299 0.4021 0.52323 0.0
H538 H 0.68671 0.36587 0.67816 0.0
H539 H 0.63411 0.30674 0.73737 0.0
H540 H 0.5833 0.35968 0.69912 0.0
H541 H 0.55268 0.34624 0.61144 0.0
H542 H 0.59385 0.38628 0.58218 0.0
H543 H 0.58742 0.35884 0.43462 0.0
H544 H 0.5462 0.31883 0.46316 0.0
H545 H 0.57223 0.31333 0.45052 0.0
H546 H 0.57655 0.25109 0.78072 0.0
H547 H 0.51831 0.20197 0.79737 0.0
H548 H 0.51078 0.27283 0.61228 0.0
C549 C 0.64156 0.38179 0.5698 0.0
C550 C 0.66932 0.38899 0.59599 0.0
C551 C 0.66607 0.36131 0.65658 0.0
C552 C 0.63619 0.32754 0.69102 0.0
C553 C 0.60943 0.32141 0.66415 0.0
C554 C 0.61175 0.34763 0.60433 0.0
C555 C 0.57903 0.3335 0.58427 0.0
C556 C 0.57711 0.35789 0.62149 0.0
C557 C 0.57073 0.33097 0.47676 0.0
C558 C 0.55802 0.29533 0.64224 0.0
C559 C 0.57612 0.28906 0.68814 0.0
C560 C 0.56218 0.25576 0.74509 0.0
C561 C 0.52892 0.22795 0.75431 0.0
C562 C 0.50957 0.23323 0.70667 0.0
C563 C 0.52464 0.26774 0.65054 0.0
H564 H 0.24152 0.54289 0.83961 0.0
H565 H 0.3136 0.5419 0.9336 0.0
H566 H 0.33551 0.56738 0.77224 0.0
H567 H 0.22298 0.50922 0.63391 0.0
H568 H 0.21702 0.53671 0.56187 0.0
H569 H 0.2121 0.52763 0.68912 0.0
H570 H 0.25357 0.59807 0.69812 0.0
H571 H 0.25887 0.6073 0.57017 0.0
H572 H 0.29268 0.62769 0.64988 0.0
H573 H 0.3421 0.57852 0.60252 0.0
H574 H 0.33026 0.5708 0.43105 0.0
H575 H 0.25614 0.56763 0.44059 0.0
C576 C 0.26225 0.54871 0.82627 0.0
C577 C 0.27567 0.54022 0.89857 0.0
C578 C 0.30264 0.54785 0.8789 0.0
C579 C 0.31571 0.56301 0.78783 0.0
C580 C 0.30173 0.57065 0.71748 0.0
C581 C 0.27557 0.56378 0.7353 0.0
C582 C 0.26192 0.56869 0.64387 0.0
C583 C 0.22644 0.53346 0.6315 0.0
C584 C 0.26708 0.60246 0.64032 0.0
C585 C 0.28247 0.57559 0.5716 0.0
C586 C 0.30616 0.57816 0.61594 0.0
C587 C 0.32458 0.57802 0.56624 0.0
C588 C 0.31765 0.57342 0.46955 0.0
C589 C 0.29283 0.56939 0.42483 0.0
C590 C 0.27595 0.57204 0.4744 0.0
H591 H 0.82581 0.17747 0.2669 0.0
H592 H 0.73474 0.06735 0.35125 0.0
H593 H 0.73033 0.04893 0.19638 0.0
H594 H 0.80736 0.18297 0.00676 0.0
H595 H 0.84729 0.20803 0.97591 0.0
H596 H 0.84003 0.21297 0.08672 0.0
H597 H 0.86875 0.1945 0.17817 0.0
H598 H 0.8748 0.18779 0.06835 0.0
H599 H 0.85421 0.15066 0.16598 0.0
H600 H 0.73911 0.04123 0.03984 0.0
H601 H 0.75676 0.04706 0.88361 0.0
H602 H 0.84275 0.16213 0.90738 0.0
C603 C 0.80432 0.14999 0.25086 0.0
C604 C 0.78039 0.124 0.31953 0.0
C605 C 0.7529 0.08793 0.29791 0.0
C606 C 0.75042 0.07709 0.2109 0.0
C607 C 0.77546 0.10289 0.14685 0.0
C608 C 0.80151 0.13882 0.1649 0.0
C609 C 0.82603 0.16073 0.0874 0.0
C610 C 0.83042 0.19307 0.03614 0.0
C611 C 0.85781 0.17419 0.12742 0.0
C612 C 0.80993 0.1314 0.02328 0.0
C613 C 0.78084 0.09821 0.0586 0.0
C614 C 0.76173 0.06717 0.01099 0.0
C615 C 0.77207 0.0707 0.92271 0.0
C616 C 0.80094 0.10523 0.88288 0.0
C617 C 0.82052 0.13542 0.9358 0.0
H618 H 0.61096 0.90122 0.69459 0.0
H619 H 0.67345 0.887 0.80863 0.0
H620 H 0.67405 0.87423 0.65128 0.0
H621 H 0.563 0.83062 0.57208 0.0
H622 H 0.55685 0.85048 0.46592 0.0
H623 H 0.56732 0.8685 0.57749 0.0
H624 H 0.61673 0.93427 0.50289 0.0
H625 H 0.60549 0.91722 0.38898 0.0
H626 H 0.6447 0.94105 0.43797 0.0
H627 H 0.65586 0.84637 0.50316 0.0
H628 H 0.63689 0.82771 0.34177 0.0
H629 H 0.58725 0.86188 0.32022 0.0
C630 C 0.6265 0.89803 0.6839 0.0
C631 C 0.64235 0.89522 0.7616 0.0
C632 C 0.66159 0.88964 0.74814 0.0
C633 C 0.66167 0.88184 0.65983 0.0
C634 C 0.6428 0.88054 0.58689 0.0
C635 C 0.62695 0.89044 0.59579 0.0
C636 C 0.60687 0.88445 0.50788 0.0
C637 C 0.57143 0.85688 0.53243 0.0
C638 C 0.6192 0.92144 0.45633 0.0
C639 C 0.61289 0.86815 0.45067 0.0
C640 C 0.63313 0.86548 0.49862 0.0
C641 C 0.64082 0.84939 0.4631 0.0
C642 C 0.62958 0.83846 0.37201 0.0
C643 C 0.61115 0.84409 0.31796 0.0
C644 C 0.60154 0.85756 0.35954 0.0
H645 H 0.73381 0.44348 0.21388 0.0
H646 H 0.7938 0.56006 0.22596 0.0
H647 H 0.81737 0.57551 0.07174 0.0
H648 H 0.79129 0.45409 0.09051 0.0
H649 H 0.7605 0.418 0.01822 0.0
H650 H 0.75169 0.41606 0.13701 0.0
H651 H 0.70623 0.41134 0.06853 0.0
H652 H 0.71442 0.41224 0.95069 0.0
H653 H 0.71476 0.44565 0.97297 0.0
H654 H 0.83051 0.57836 0.91207 0.0
H655 H 0.82535 0.56738 0.74509 0.0
H656 H 0.75671 0.44955 0.83437 0.0
C657 C 0.75204 0.47224 0.18412 0.0
C658 C 0.76195 0.50051 0.23129 0.0
C659 C 0.78561 0.53787 0.19025 0.0
C660 C 0.79959 0.54701 0.10366 0.0
C661 C 0.78963 0.51849 0.05945 0.0
C662 C 0.76603 0.48182 0.09736 0.0
C663 C 0.75661 0.45626 0.02957 0.0
C664 C 0.76557 0.43484 0.07135 0.0
C665 C 0.72092 0.42987 0.00389 0.0
C666 C 0.77725 0.48428 0.9453 0.0
C667 C 0.79707 0.52009 0.96548 0.0
C668 C 0.81579 0.5506 0.89575 0.0
C669 C 0.81289 0.54423 0.80163 0.0
C670 C 0.79127 0.50778 0.77952 0.0
C671 C 0.77418 0.47758 0.85188 0.0
H672 H 0.28105 0.97118 0.35854 0.0
H673 H 0.18006 0.88413 0.30382 0.0
H674 H 0.16948 0.89698 0.43687 0.0
H675 H 0.28014 0.95774 0.57176 0.0
H676 H 0.31083 0.99995 0.61595 0.0
H677 H 0.31083 0.99474 0.49451 0.0
H678 H 0.32874 0.09982 0.41577 0.0
H679 H 0.31555 0.09717 0.51375 0.0
H680 H 0.29307 0.08491 0.4163 0.0
H681 H 0.16714 0.90206 0.58892 0.0
H682 H 0.17347 0.89477 0.76053 0.0
H683 H 0.27599 0.98216 0.73196 0.0
C684 C 0.2571 0.95689 0.37194 0.0
C685 C 0.23149 0.92677 0.32042 0.0
C686 C 0.20009 0.90659 0.34283 0.0
C687 C 0.19388 0.91457 0.41679 0.0
C688 C 0.21923 0.94369 0.4671 0.0
C689 C 0.25096 0.96677 0.44439 0.0
C690 C 0.27562 0.99893 0.51579 0.0
C691 C 0.29576 0.98807 0.55111 0.0
C692 C 0.30634 0.07826 0.45881 0.0
C693 C 0.24849 0.97092 0.59927 0.0
C694 C 0.21773 0.94651 0.56268 0.0
C695 C 0.19082 0.9207 0.61969 0.0
C696 C 0.19467 0.9163 0.71777 0.0
C697 C 0.2252 0.93674 0.75887 0.0
C698 C 0.25242 0.96539 0.7002 0.0
H699 H 0.44331 0.19903 0.36756 0.0
H700 H 0.42636 0.10218 0.47441 0.0
H701 H 0.42465 0.09284 0.30948 0.0
H702 H 0.39347 0.16903 0.19058 0.0
H703 H 0.41679 0.20865 0.10075 0.0
H704 H 0.42585 0.21453 0.22528 0.0
H705 H 0.48376 0.24788 0.19985 0.0
H706 H 0.47501 0.24284 0.07414 0.0
H707 H 0.49114 0.22604 0.14406 0.0
H708 H 0.40783 0.08276 0.14543 0.0
H709 H 0.38975 0.08069 0.97853 0.0
H710 H 0.42249 0.18738 0.97225 0.0
C711 C 0.44064 0.17693 0.35536 0.0
C712 C 0.43484 0.15121 0.43132 0.0
C713 C 0.4311 0.12222 0.41558 0.0
C714 C 0.43019 0.11679 0.32265 0.0
C715 C 0.43417 0.1414 0.2481 0.0
C716 C 0.44064 0.17183 0.26306 0.0
C717 C 0.44078 0.19177 0.17026 0.0
C718 C 0.41784 0.19618 0.17198 0.0
C719 C 0.47469 0.22935 0.14561 0.0
C720 C 0.42931 0.16502 0.10331 0.0
C721 C 0.42626 0.13661 0.14942 0.0
C722 C 0.41164 0.10573 0.10668 0.0
C723 C 0.401 0.10458 0.01252 0.0
C724 C 0.40554 0.13441 0.96268 0.0
C725 C 0.41954 0.16475 0.00871 0.0
loop_
_geom_bond_atom_site_label_1
_geom_bond_atom_site_label_2
_geom_bond_distance
_geom_bond_site_symmetry_2
_ccdc_geom_bond_type
Tb0 C9 2.764 1_554 S
Tb0 O10 2.325 . S
Tb0 O13 2.303 1_554 S
Tb0 O17 2.322 . S
Tb0 O18 2.349 . S
Tb0 O21 2.415 1_554 S
Tb0 O22 2.399 . S
Tb1 O11 2.322 . S
Tb1 O12 2.349 1_554 S
Tb1 O14 2.415 . S
Tb1 O15 2.399 . S
Tb1 O16 2.325 . S
Tb1 O19 2.303 . S
Tb1 C30 2.764 . S
C2 O18 1.261 . S
C2 O19 1.257 . S
C3 C6 1.358 1_556 S
C3 C7 1.332 . S
C3 C9 1.504 . S
C4 C5 1.373 . S
C4 C8 1.308 . S
C5 C4 1.373 . S
C5 C6 1.429 1_556 S
C5 H32 0.932 1_556 S
C6 C3 1.358 1_554 S
C6 C5 1.429 1_554 S
C6 H33 0.930 . S
C7 C3 1.332 . S
C7 C8 1.394 . S
C7 H34 0.932 . S
C8 C4 1.308 . S
C8 C7 1.394 . S
C8 H35 0.929 . S
C9 Tb0 2.764 1_556 S
C9 C3 1.504 . S
C9 O21 1.239 . S
C9 O22 1.263 1_556 S
O10 Tb0 2.325 . S
O10 C20 1.236 . S
O11 Tb1 2.322 . S
O11 C20 1.257 . S
O12 Tb1 2.349 1_556 S
O12 C23 1.261 . S
O13 Tb0 2.303 1_556 S
O13 C23 1.257 . S
O14 Tb1 2.415 . S
O14 C30 1.239 . S
O15 Tb1 2.399 . S
O15 C30 1.263 . S
O16 Tb1 2.325 . S
O16 C31 1.236 . S
O17 Tb0 2.322 . S
O17 C31 1.257 . S
O18 Tb0 2.349 . S
O18 C2 1.261 . S
O19 Tb1 2.303 . S
O19 C2 1.257 . S
C20 O10 1.236 . S
C20 O11 1.257 . S
O21 Tb0 2.415 1_556 S
O21 C9 1.239 . S
O22 Tb0 2.399 . S
O22 C9 1.263 1_554 S
C23 O12 1.261 . S
C23 O13 1.257 . S
C24 C27 1.358 . S
C24 C28 1.332 . S
C24 C30 1.504 . S
C25 C26 1.373 . S
C25 C29 1.308 . S
C26 C25 1.373 . S
C26 C27 1.429 . S
C26 H36 0.932 . S
C27 C24 1.358 . S
C27 C26 1.429 . S
C27 H37 0.930 . S
C28 C24 1.332 . S
C28 C29 1.394 . S
C28 H38 0.932 . S
C29 C25 1.308 . S
C29 C28 1.394 . S
C29 H39 0.929 . S
C30 Tb1 2.764 . S
C30 O14 1.239 . S
C30 O15 1.263 . S
C30 C24 1.504 . S
C31 O16 1.236 . S
C31 O17 1.257 . S
H32 C5 0.932 1_554 S
H33 C6 0.930 . S
H34 C7 0.932 . S
H35 C8 0.929 . S
H36 C26 0.932 . S
H37 C27 0.930 . S
H38 C28 0.932 . S
H39 C29 0.929 . S
Tb40 C49 2.764 . S
Tb40 O50 2.325 . S
Tb40 O53 2.303 . S
Tb40 O57 2.322 . S
Tb40 O58 2.349 . S
Tb40 O61 2.415 . S
Tb40 O62 2.399 . S
Tb41 O51 2.322 . S
Tb41 O52 2.349 . S
Tb41 O54 2.415 . S
Tb41 O55 2.399 . S
Tb41 O56 2.325 . S
Tb41 O59 2.303 . S
Tb41 C70 2.764 . S
C42 O58 1.261 . S
C42 O59 1.257 . S
C43 C46 1.358 . S
C43 C47 1.332 . S
C43 C49 1.504 . S
C44 C45 1.373 . S
C44 C48 1.308 . S
C45 C44 1.373 . S
C45 C46 1.429 . S
C45 H72 0.932 . S
C46 C43 1.358 . S
C46 C45 1.429 . S
C46 H73 0.930 . S
C47 C43 1.332 . S
C47 C48 1.394 . S
C47 H74 0.932 . S
C48 C44 1.308 . S
C48 C47 1.394 . S
C48 H75 0.929 . S
C49 Tb40 2.764 . S
C49 C43 1.504 . S
C49 O61 1.239 . S
C49 O62 1.263 . S
O50 Tb40 2.325 . S
O50 C60 1.236 . S
O51 Tb41 2.322 . S
O51 C60 1.257 . S
O52 Tb41 2.349 . S
O52 C63 1.261 . S
O53 Tb40 2.303 . S
O53 C63 1.257 . S
O54 Tb41 2.415 . S
O54 C70 1.239 . S
O55 Tb41 2.399 . S
O55 C70 1.263 . S
O56 Tb41 2.325 . S
O56 C71 1.236 . S
O57 Tb40 2.322 . S
O57 C71 1.257 . S
O58 Tb40 2.349 . S
O58 C42 1.261 . S
O59 Tb41 2.303 . S
O59 C42 1.257 . S
C60 O50 1.236 . S
C60 O51 1.257 . S
O61 Tb40 2.415 . S
O61 C49 1.239 . S
O62 Tb40 2.399 . S
O62 C49 1.263 . S
C63 O52 1.261 . S
C63 O53 1.257 . S
C64 C67 1.358 . S
C64 C68 1.332 . S
C64 C70 1.504 . S
C65 C66 1.373 . S
C65 C69 1.308 . S
C66 C65 1.373 . S
C66 C67 1.429 . S
C66 H76 0.932 . S
C67 C64 1.358 . S
C67 C66 1.429 . S
C67 H77 0.930 . S
C68 C64 1.332 . S
C68 C69 1.394 . S
C68 H78 0.932 . S
C69 C65 1.308 . S
C69 C68 1.394 . S
C69 H79 0.929 . S
C70 Tb41 2.764 . S
C70 O54 1.239 . S
C70 O55 1.263 . S
C70 C64 1.504 . S
C71 O56 1.236 . S
C71 O57 1.257 . S
H72 C45 0.932 . S
H73 C46 0.930 . S
H74 C47 0.932 . S
H75 C48 0.929 . S
H76 C66 0.932 . S
H77 C67 0.930 . S
H78 C68 0.932 . S
H79 C69 0.929 . S
Tb80 C89 2.764 . S
Tb80 O90 2.325 . S
Tb80 O93 2.303 1_556 S
Tb80 O97 2.322 . S
Tb80 O98 2.349 . S
Tb80 O101 2.415 1_556 S
Tb80 O102 2.399 . S
Tb81 O91 2.322 . S
Tb81 O92 2.349 . S
Tb81 O94 2.415 1_554 S
Tb81 O95 2.399 . S
Tb81 O96 2.325 . S
Tb81 O99 2.303 1_554 S
Tb81 C110 2.764 . S
C82 O98 1.261 . S
C82 O99 1.257 . S
C83 C86 1.358 . S
C83 C87 1.332 1_556 S
C83 C89 1.504 . S
C84 C85 1.373 . S
C84 C88 1.308 . S
C85 C84 1.373 . S
C85 C86 1.429 . S
C85 H112 0.932 . S
C86 C83 1.358 . S
C86 C85 1.429 . S
C86 H113 0.930 . S
C87 C83 1.332 1_554 S
C87 C88 1.394 1_554 S
C87 H114 0.932 . S
C88 C84 1.308 . S
C88 C87 1.394 1_556 S
C88 H115 0.929 1_556 S
C89 Tb80 2.764 . S
C89 C83 1.504 . S
C89 O101 1.239 1_556 S
C89 O102 1.263 . S
O90 Tb80 2.325 . S
O90 C100 1.236 . S
O91 Tb81 2.322 . S
O91 C100 1.257 1_554 S
O92 Tb81 2.349 . S
O92 C103 1.261 . S
O93 Tb80 2.303 1_554 S
O93 C103 1.257 . S
O94 Tb81 2.415 1_556 S
O94 C110 1.239 1_556 S
O95 Tb81 2.399 . S
O95 C110 1.263 . S
O96 Tb81 2.325 . S
O96 C111 1.236 . S
O97 Tb80 2.322 . S
O97 C111 1.257 1_556 S
O98 Tb80 2.349 . S
O98 C82 1.261 . S
O99 Tb81 2.303 1_556 S
O99 C82 1.257 . S
C100 O90 1.236 . S
C100 O91 1.257 1_556 S
O101 Tb80 2.415 1_554 S
O101 C89 1.239 1_554 S
O102 Tb80 2.399 . S
O102 C89 1.263 . S
C103 O92 1.261 . S
C103 O93 1.257 . S
C104 C107 1.358 . S
C104 C108 1.332 . S
C104 C110 1.504 . S
C105 C106 1.373 . S
C105 C109 1.308 . S
C106 C105 1.373 . S
C106 C107 1.429 . S
C106 H116 0.932 . S
C107 C104 1.358 . S
C107 C106 1.429 . S
C107 H117 0.930 . S
C108 C104 1.332 . S
C108 C109 1.394 . S
C108 H118 0.932 1_554 S
C109 C105 1.308 . S
C109 C108 1.394 . S
C109 H119 0.929 1_554 S
C110 Tb81 2.764 . S
C110 O94 1.239 1_554 S
C110 O95 1.263 . S
C110 C104 1.504 . S
C111 O96 1.236 . S
C111 O97 1.257 1_554 S
H112 C85 0.932 . S
H113 C86 0.930 . S
H114 C87 0.932 . S
H115 C88 0.929 1_554 S
H116 C106 0.932 . S
H117 C107 0.930 . S
H118 C108 0.932 1_556 S
H119 C109 0.929 1_556 S
Tb120 C129 2.764 . S
Tb120 O130 2.325 . S
Tb120 O133 2.303 . S
Tb120 O137 2.322 . S
Tb120 O138 2.349 . S
Tb120 O141 2.415 . S
Tb120 O142 2.399 . S
Tb121 O131 2.322 . S
Tb121 O132 2.349 . S
Tb121 O134 2.415 . S
Tb121 O135 2.399 . S
Tb121 O136 2.325 . S
Tb121 O139 2.303 . S
Tb121 C150 2.764 . S
C122 O138 1.261 . S
C122 O139 1.257 . S
C123 C126 1.358 . S
C123 C127 1.332 . S
C123 C129 1.504 . S
C124 C125 1.373 . S
C124 C128 1.308 . S
C125 C124 1.373 . S
C125 C126 1.429 . S
C125 H152 0.932 . S
C126 C123 1.358 . S
C126 C125 1.429 . S
C126 H153 0.930 . S
C127 C123 1.332 . S
C127 C128 1.394 . S
C127 H154 0.932 . S
C128 C124 1.308 . S
C128 C127 1.394 . S
C128 H155 0.929 . S
C129 Tb120 2.764 . S
C129 C123 1.504 . S
C129 O141 1.239 . S
C129 O142 1.263 . S
O130 Tb120 2.325 . S
O130 C140 1.236 . S
O131 Tb121 2.322 . S
O131 C140 1.257 . S
O132 Tb121 2.349 . S
O132 C143 1.261 . S
O133 Tb120 2.303 . S
O133 C143 1.257 . S
O134 Tb121 2.415 . S
O134 C150 1.239 . S
O135 Tb121 2.399 . S
O135 C150 1.263 . S
O136 Tb121 2.325 . S
O136 C151 1.236 . S
O137 Tb120 2.322 . S
O137 C151 1.257 . S
O138 Tb120 2.349 . S
O138 C122 1.261 . S
O139 Tb121 2.303 . S
O139 C122 1.257 . S
C140 O130 1.236 . S
C140 O131 1.257 . S
O141 Tb120 2.415 . S
O141 C129 1.239 . S
O142 Tb120 2.399 . S
O142 C129 1.263 . S
C143 O132 1.261 . S
C143 O133 1.257 . S
C144 C147 1.358 . S
C144 C148 1.332 . S
C144 C150 1.504 . S
C145 C146 1.373 . S
C145 C149 1.308 . S
C146 C145 1.373 . S
C146 C147 1.429 . S
C146 H156 0.932 . S
C147 C144 1.358 . S
C147 C146 1.429 . S
C147 H157 0.930 . S
C148 C144 1.332 . S
C148 C149 1.394 . S
C148 H158 0.932 . S
C149 C145 1.308 . S
C149 C148 1.394 . S
C149 H159 0.929 . S
C150 Tb121 2.764 . S
C150 O134 1.239 . S
C150 O135 1.263 . S
C150 C144 1.504 . S
C151 O136 1.236 . S
C151 O137 1.257 . S
H152 C125 0.932 . S
H153 C126 0.930 . S
H154 C127 0.932 . S
H155 C128 0.929 . S
H156 C146 0.932 . S
H157 C147 0.930 . S
H158 C148 0.932 . S
H159 C149 0.929 . S
Tb160 C169 2.764 . S
Tb160 O170 2.325 . S
Tb160 O173 2.303 1_554 S
Tb160 O177 2.322 . S
Tb160 O178 2.349 . S
Tb160 O181 2.415 1_554 S
Tb160 O182 2.399 . S
Tb161 O171 2.322 . S
Tb161 O172 2.349 1_554 S
Tb161 O174 2.415 . S
Tb161 O175 2.399 1_554 S
Tb161 O176 2.325 . S
Tb161 O179 2.303 . S
Tb161 C190 2.764 . S
C162 O178 1.261 . S
C162 O179 1.257 . S
C163 C166 1.358 1_556 S
C163 C167 1.332 . S
C163 C169 1.504 1_556 S
C164 C165 1.373 1_556 S
C164 C168 1.308 . S
C165 C164 1.373 1_554 S
C165 C166 1.429 . S
C165 H192 0.932 . S
C166 C163 1.358 1_554 S
C166 C165 1.429 . S
C166 H193 0.930 . S
C167 C163 1.332 . S
C167 C168 1.394 . S
C167 H194 0.932 . S
C168 C164 1.308 . S
C168 C167 1.394 . S
C168 H195 0.929 . S
C169 Tb160 2.764 . S
C169 C163 1.504 1_554 S
C169 O181 1.239 1_554 S
C169 O182 1.263 . S
O170 Tb160 2.325 . S
O170 C180 1.236 . S
O171 Tb161 2.322 . S
O171 C180 1.257 . S
O172 Tb161 2.349 1_556 S
O172 C183 1.261 . S
O173 Tb160 2.303 1_556 S
O173 C183 1.257 . S
O174 Tb161 2.415 . S
O174 C190 1.239 . S
O175 Tb161 2.399 1_556 S
O175 C190 1.263 1_556 S
O176 Tb161 2.325 . S
O176 C191 1.236 . S
O177 Tb160 2.322 . S
O177 C191 1.257 . S
O178 Tb160 2.349 . S
O178 C162 1.261 . S
O179 Tb161 2.303 . S
O179 C162 1.257 . S
C180 O170 1.236 . S
C180 O171 1.257 . S
O181 Tb160 2.415 1_556 S
O181 C169 1.239 1_556 S
O182 Tb160 2.399 . S
O182 C169 1.263 . S
C183 O172 1.261 . S
C183 O173 1.257 . S
C184 C187 1.358 . S
C184 C188 1.332 . S
C184 C190 1.504 . S
C185 C186 1.373 . S
C185 C189 1.308 . S
C186 C185 1.373 . S
C186 C187 1.429 . S
C186 H196 0.932 . S
C187 C184 1.358 . S
C187 C186 1.429 . S
C187 H197 0.930 1_554 S
C188 C184 1.332 . S
C188 C189 1.394 . S
C188 H198 0.932 . S
C189 C185 1.308 . S
C189 C188 1.394 . S
C189 H199 0.929 . S
C190 Tb161 2.764 . S
C190 O174 1.239 . S
C190 O175 1.263 1_554 S
C190 C184 1.504 . S
C191 O176 1.236 . S
C191 O177 1.257 . S
H192 C165 0.932 . S
H193 C166 0.930 . S
H194 C167 0.932 . S
H195 C168 0.929 . S
H196 C186 0.932 . S
H197 C187 0.930 1_556 S
H198 C188 0.932 . S
H199 C189 0.929 . S
Tb200 C209 2.764 . S
Tb200 O210 2.325 . S
Tb200 O213 2.303 . S
Tb200 O217 2.322 . S
Tb200 O218 2.349 . S
Tb200 O221 2.415 . S
Tb200 O222 2.399 . S
Tb201 O211 2.322 . S
Tb201 O212 2.349 . S
Tb201 O214 2.415 . S
Tb201 O215 2.399 . S
Tb201 O216 2.325 . S
Tb201 O219 2.303 . S
Tb201 C230 2.764 . S
C202 O218 1.261 . S
C202 O219 1.257 . S
C203 C206 1.358 . S
C203 C207 1.332 . S
C203 C209 1.504 . S
C204 C205 1.373 . S
C204 C208 1.308 . S
C205 C204 1.373 . S
C205 C206 1.429 . S
C205 H232 0.932 . S
C206 C203 1.358 . S
C206 C205 1.429 . S
C206 H233 0.930 . S
C207 C203 1.332 . S
C207 C208 1.394 . S
C207 H234 0.932 . S
C208 C204 1.308 . S
C208 C207 1.394 . S
C208 H235 0.929 . S
C209 Tb200 2.764 . S
C209 C203 1.504 . S
C209 O221 1.239 . S
C209 O222 1.263 . S
O210 Tb200 2.325 . S
O210 C220 1.236 . S
O211 Tb201 2.322 . S
O211 C220 1.257 . S
O212 Tb201 2.349 . S
O212 C223 1.261 . S
O213 Tb200 2.303 . S
O213 C223 1.257 . S
O214 Tb201 2.415 . S
O214 C230 1.239 . S
O215 Tb201 2.399 . S
O215 C230 1.263 . S
O216 Tb201 2.325 . S
O216 C231 1.236 . S
O217 Tb200 2.322 . S
O217 C231 1.257 . S
O218 Tb200 2.349 . S
O218 C202 1.261 . S
O219 Tb201 2.303 . S
O219 C202 1.257 . S
C220 O210 1.236 . S
C220 O211 1.257 . S
O221 Tb200 2.415 . S
O221 C209 1.239 . S
O222 Tb200 2.399 . S
O222 C209 1.263 . S
C223 O212 1.261 . S
C223 O213 1.257 . S
C224 C227 1.358 . S
C224 C228 1.332 . S
C224 C230 1.504 . S
C225 C226 1.373 . S
C225 C229 1.308 . S
C226 C225 1.373 . S
C226 C227 1.429 . S
C226 H236 0.932 . S
C227 C224 1.358 . S
C227 C226 1.429 . S
C227 H237 0.930 . S
C228 C224 1.332 . S
C228 C229 1.394 . S
C228 H238 0.932 . S
C229 C225 1.308 . S
C229 C228 1.394 . S
C229 H239 0.929 . S
C230 Tb201 2.764 . S
C230 O214 1.239 . S
C230 O215 1.263 . S
C230 C224 1.504 . S
C231 O216 1.236 . S
C231 O217 1.257 . S
H232 C205 0.932 . S
H233 C206 0.930 . S
H234 C207 0.932 . S
H235 C208 0.929 . S
H236 C226 0.932 . S
H237 C227 0.930 . S
H238 C228 0.932 . S
H239 C229 0.929 . S
H240 C252 0.930 . S
H241 C254 0.930 . S
H242 C255 0.930 . S
H243 C259 0.959 . S
H244 C259 0.959 . S
H245 C259 0.961 . S
H246 C260 0.960 . S
H247 C260 0.961 . S
H248 C260 0.959 . S
H249 C263 0.929 . S
H250 C264 0.931 . S
H251 C266 0.930 . S
C252 H240 0.930 . S
C252 C253 1.399 . S
C252 C257 1.399 . S
C253 C252 1.399 . S
C253 C254 1.376 . S
C254 H241 0.930 . S
C254 C253 1.376 . S
C254 C255 1.388 . S
C255 H242 0.930 . S
C255 C254 1.388 . S
C255 C256 1.390 . S
C256 C255 1.390 . S
C256 C257 1.394 . S
C256 C262 1.465 . S
C257 C252 1.399 . S
C257 C256 1.394 . S
C257 C258 1.516 . S
C258 C257 1.516 . S
C258 C259 1.502 . S
C258 C260 1.561 . S
C258 C261 1.526 . S
C259 H243 0.959 . S
C259 H244 0.959 . S
C259 H245 0.961 . S
C259 C258 1.502 . S
C260 H246 0.960 . S
C260 H247 0.961 . S
C260 H248 0.959 . S
C260 C258 1.561 . S
C261 C258 1.526 . S
C261 C262 1.396 . S
C261 C266 1.390 . S
C262 C256 1.465 . S
C262 C261 1.396 . S
C262 C263 1.399 . S
C263 H249 0.929 . S
C263 C262 1.399 . S
C263 C264 1.385 . S
C264 H250 0.931 . S
C264 C263 1.385 . S
C264 C265 1.389 . S
C265 C264 1.389 . S
C265 C266 1.387 . S
C266 H251 0.930 . S
C266 C261 1.390 . S
C266 C265 1.387 . S
H267 C279 0.930 . S
H268 C281 0.930 . S
H269 C282 0.930 . S
H270 C286 0.959 . S
H271 C286 0.959 . S
H272 C286 0.961 . S
H273 C287 0.960 . S
H274 C287 0.961 . S
H275 C287 0.959 . S
H276 C290 0.929 . S
H277 C291 0.931 1_655 S
H278 C293 0.930 . S
C279 H267 0.930 . S
C279 C280 1.399 . S
C279 C284 1.399 . S
C280 C279 1.399 . S
C280 C281 1.376 . S
C281 H268 0.930 . S
C281 C280 1.376 . S
C281 C282 1.388 . S
C282 H269 0.930 . S
C282 C281 1.388 . S
C282 C283 1.390 . S
C283 C282 1.390 . S
C283 C284 1.394 . S
C283 C289 1.465 . S
C284 C279 1.399 . S
C284 C283 1.394 . S
C284 C285 1.516 . S
C285 C284 1.516 . S
C285 C286 1.502 . S
C285 C287 1.561 . S
C285 C288 1.526 . S
C286 H270 0.959 . S
C286 H271 0.959 . S
C286 H272 0.961 . S
C286 C285 1.502 . S
C287 H273 0.960 . S
C287 H274 0.961 . S
C287 H275 0.959 . S
C287 C285 1.561 . S
C288 C285 1.526 . S
C288 C289 1.396 . S
C288 C293 1.390 . S
C289 C283 1.465 . S
C289 C288 1.396 . S
C289 C290 1.399 . S
C290 H276 0.929 . S
C290 C289 1.399 . S
C290 C291 1.385 . S
C291 H277 0.931 1_455 S
C291 C290 1.385 . S
C291 C292 1.389 . S
C292 C291 1.389 . S
C292 C293 1.387 . S
C293 H278 0.930 . S
C293 C288 1.390 . S
C293 C292 1.387 . S
H294 C306 0.930 . S
H295 C308 0.930 . S
H296 C309 0.930 . S
H297 C313 0.959 . S
H298 C313 0.959 . S
H299 C313 0.961 . S
H300 C314 0.960 . S
H301 C314 0.961 . S
H302 C314 0.959 . S
H303 C317 0.929 . S
H304 C318 0.931 . S
H305 C320 0.930 . S
C306 H294 0.930 . S
C306 C307 1.399 1_565 S
C306 C311 1.399 . S
C307 C306 1.399 1_545 S
C307 C308 1.376 . S
C308 H295 0.930 . S
C308 C307 1.376 . S
C308 C309 1.388 . S
C309 H296 0.930 . S
C309 C308 1.388 . S
C309 C310 1.390 . S
C310 C309 1.390 . S
C310 C311 1.394 1_545 S
C310 C316 1.465 . S
C311 C306 1.399 . S
C311 C310 1.394 1_565 S
C311 C312 1.516 . S
C312 C311 1.516 . S
C312 C313 1.502 . S
C312 C314 1.561 . S
C312 C315 1.526 . S
C313 H297 0.959 . S
C313 H298 0.959 . S
C313 H299 0.961 . S
C313 C312 1.502 . S
C314 H300 0.960 . S
C314 H301 0.961 . S
C314 H302 0.959 . S
C314 C312 1.561 . S
C315 C312 1.526 . S
C315 C316 1.396 1_565 S
C315 C320 1.390 . S
C316 C310 1.465 . S
C316 C315 1.396 1_545 S
C316 C317 1.399 . S
C317 H303 0.929 . S
C317 C316 1.399 . S
C317 C318 1.385 . S
C318 H304 0.931 . S
C318 C317 1.385 . S
C318 C319 1.389 1_545 S
C319 C318 1.389 1_565 S
C319 C320 1.387 . S
C320 H305 0.930 . S
C320 C315 1.390 . S
C320 C319 1.387 . S
H321 C333 0.930 . S
H322 C335 0.930 . S
H323 C336 0.930 . S
H324 C340 0.959 . S
H325 C340 0.959 . S
H326 C340 0.961 . S
H327 C341 0.960 . S
H328 C341 0.961 . S
H329 C341 0.959 . S
H330 C344 0.929 . S
H331 C345 0.931 . S
H332 C347 0.930 . S
C333 H321 0.930 . S
C333 C334 1.399 . S
C333 C338 1.399 . S
C334 C333 1.399 . S
C334 C335 1.376 . S
C335 H322 0.930 . S
C335 C334 1.376 . S
C335 C336 1.388 . S
C336 H323 0.930 . S
C336 C335 1.388 . S
C336 C337 1.390 . S
C337 C336 1.390 . S
C337 C338 1.394 . S
C337 C343 1.465 . S
C338 C333 1.399 . S
C338 C337 1.394 . S
C338 C339 1.516 . S
C339 C338 1.516 . S
C339 C340 1.502 . S
C339 C341 1.561 . S
C339 C342 1.526 . S
C340 H324 0.959 . S
C340 H325 0.959 . S
C340 H326 0.961 . S
C340 C339 1.502 . S
C341 H327 0.960 . S
C341 H328 0.961 . S
C341 H329 0.959 . S
C341 C339 1.561 . S
C342 C339 1.526 . S
C342 C343 1.396 . S
C342 C347 1.390 . S
C343 C337 1.465 . S
C343 C342 1.396 . S
C343 C344 1.399 . S
C344 H330 0.929 . S
C344 C343 1.399 . S
C344 C345 1.385 . S
C345 H331 0.931 . S
C345 C344 1.385 . S
C345 C346 1.389 . S
C346 C345 1.389 . S
C346 C347 1.387 . S
C347 H332 0.930 . S
C347 C342 1.390 . S
C347 C346 1.387 . S
H348 C360 0.930 . S
H349 C362 0.930 . S
H350 C363 0.930 . S
H351 C367 0.959 . S
H352 C367 0.959 . S
H353 C367 0.961 . S
H354 C368 0.960 . S
H355 C368 0.961 . S
H356 C368 0.959 . S
H357 C371 0.929 . S
H358 C372 0.931 . S
H359 C374 0.930 . S
C360 H348 0.930 . S
C360 C361 1.399 . S
C360 C365 1.399 . S
C361 C360 1.399 . S
C361 C362 1.376 . S
C362 H349 0.930 . S
C362 C361 1.376 . S
C362 C363 1.388 . S
C363 H350 0.930 . S
C363 C362 1.388 . S
C363 C364 1.390 . S
C364 C363 1.390 . S
C364 C365 1.394 . S
C364 C370 1.465 . S
C365 C360 1.399 . S
C365 C364 1.394 . S
C365 C366 1.516 . S
C366 C365 1.516 . S
C366 C367 1.502 . S
C366 C368 1.561 . S
C366 C369 1.526 . S
C367 H351 0.959 . S
C367 H352 0.959 . S
C367 H353 0.961 . S
C367 C366 1.502 . S
C368 H354 0.960 . S
C368 H355 0.961 . S
C368 H356 0.959 . S
C368 C366 1.561 . S
C369 C366 1.526 . S
C369 C370 1.396 . S
C369 C374 1.390 . S
C370 C364 1.465 . S
C370 C369 1.396 . S
C370 C371 1.399 . S
C371 H357 0.929 . S
C371 C370 1.399 . S
C371 C372 1.385 . S
C372 H358 0.931 . S
C372 C371 1.385 . S
C372 C373 1.389 . S
C373 C372 1.389 . S
C373 C374 1.387 . S
C374 H359 0.930 . S
C374 C369 1.390 . S
C374 C373 1.387 . S
H375 C387 0.930 . S
H376 C389 0.930 . S
H377 C390 0.930 . S
H378 C394 0.959 . S
H379 C394 0.959 . S
H380 C394 0.961 . S
H381 C395 0.960 . S
H382 C395 0.961 . S
H383 C395 0.959 . S
H384 C398 0.929 . S
H385 C399 0.931 . S
H386 C401 0.930 . S
C387 H375 0.930 . S
C387 C388 1.399 1_545 S
C387 C392 1.399 . S
C388 C387 1.399 1_565 S
C388 C389 1.376 . S
C389 H376 0.930 . S
C389 C388 1.376 . S
C389 C390 1.388 . S
C390 H377 0.930 . S
C390 C389 1.388 . S
C390 C391 1.390 . S
C391 C390 1.390 . S
C391 C392 1.394 1_565 S
C391 C397 1.465 . S
C392 C387 1.399 . S
C392 C391 1.394 1_545 S
C392 C393 1.516 . S
C393 C392 1.516 . S
C393 C394 1.502 . S
C393 C395 1.561 . S
C393 C396 1.526 . S
C394 H378 0.959 . S
C394 H379 0.959 . S
C394 H380 0.961 . S
C394 C393 1.502 . S
C395 H381 0.960 . S
C395 H382 0.961 . S
C395 H383 0.959 . S
C395 C393 1.561 . S
C396 C393 1.526 . S
C396 C397 1.396 1_545 S
C396 C401 1.390 . S
C397 C391 1.465 . S
C397 C396 1.396 1_565 S
C397 C398 1.399 . S
C398 H384 0.929 . S
C398 C397 1.399 . S
C398 C399 1.385 . S
C399 H385 0.931 . S
C399 C398 1.385 . S
C399 C400 1.389 1_565 S
C400 C399 1.389 1_545 S
C400 C401 1.387 . S
C401 H386 0.930 . S
C401 C396 1.390 . S
C401 C400 1.387 . S
H402 C414 0.930 . S
H403 C416 0.930 . S
H404 C417 0.930 . S
H405 C421 0.959 . S
H406 C421 0.959 . S
H407 C421 0.961 . S
H408 C422 0.960 . S
H409 C422 0.961 . S
H410 C422 0.959 . S
H411 C425 0.929 . S
H412 C426 0.931 . S
H413 C428 0.930 1_554 S
C414 H402 0.930 . S
C414 C415 1.399 1_554 S
C414 C419 1.399 . S
C415 C414 1.399 1_556 S
C415 C416 1.376 . S
C416 H403 0.930 . S
C416 C415 1.376 . S
C416 C417 1.388 . S
C417 H404 0.930 . S
C417 C416 1.388 . S
C417 C418 1.390 . S
C418 C417 1.390 . S
C418 C419 1.394 1_556 S
C418 C424 1.465 . S
C419 C414 1.399 . S
C419 C418 1.394 1_554 S
C419 C420 1.516 . S
C420 C419 1.516 . S
C420 C421 1.502 . S
C420 C422 1.561 . S
C420 C423 1.526 1_554 S
C421 H405 0.959 . S
C421 H406 0.959 . S
C421 H407 0.961 . S
C421 C420 1.502 . S
C422 H408 0.960 . S
C422 H409 0.961 . S
C422 H410 0.959 . S
C422 C420 1.561 . S
C423 C420 1.526 1_556 S
C423 C424 1.396 . S
C423 C428 1.390 . S
C424 C418 1.465 . S
C424 C423 1.396 . S
C424 C425 1.399 . S
C425 H411 0.929 . S
C425 C424 1.399 . S
C425 C426 1.385 . S
C426 H412 0.931 . S
C426 C425 1.385 . S
C426 C427 1.389 . S
C427 C426 1.389 . S
C427 C428 1.387 . S
C428 H413 0.930 1_556 S
C428 C423 1.390 . S
C428 C427 1.387 . S
H429 C441 0.930 . S
H430 C443 0.930 . S
H431 C444 0.930 . S
H432 C448 0.959 . S
H433 C448 0.959 . S
H434 C448 0.961 . S
H435 C449 0.960 . S
H436 C449 0.961 . S
H437 C449 0.959 . S
H438 C452 0.929 . S
H439 C453 0.931 . S
H440 C455 0.930 . S
C441 H429 0.930 . S
C441 C442 1.399 . S
C441 C446 1.399 . S
C442 C441 1.399 . S
C442 C443 1.376 . S
C443 H430 0.930 . S
C443 C442 1.376 . S
C443 C444 1.388 . S
C444 H431 0.930 . S
C444 C443 1.388 . S
C444 C445 1.390 . S
C445 C444 1.390 . S
C445 C446 1.394 . S
C445 C451 1.465 . S
C446 C441 1.399 . S
C446 C445 1.394 . S
C446 C447 1.516 . S
C447 C446 1.516 . S
C447 C448 1.502 . S
C447 C449 1.561 . S
C447 C450 1.526 . S
C448 H432 0.959 . S
C448 H433 0.959 . S
C448 H434 0.961 . S
C448 C447 1.502 . S
C449 H435 0.960 . S
C449 H436 0.961 . S
C449 H437 0.959 . S
C449 C447 1.561 . S
C450 C447 1.526 . S
C450 C451 1.396 . S
C450 C455 1.390 . S
C451 C445 1.465 . S
C451 C450 1.396 . S
C451 C452 1.399 . S
C452 H438 0.929 . S
C452 C451 1.399 . S
C452 C453 1.385 . S
C453 H439 0.931 . S
C453 C452 1.385 . S
C453 C454 1.389 . S
C454 C453 1.389 . S
C454 C455 1.387 . S
C455 H440 0.930 . S
C455 C450 1.390 . S
C455 C454 1.387 . S
H456 C468 0.930 . S
H457 C470 0.930 . S
H458 C471 0.930 . S
H459 C475 0.959 . S
H460 C475 0.959 . S
H461 C475 0.961 . S
H462 C476 0.960 . S
H463 C476 0.961 . S
H464 C476 0.959 . S
H465 C479 0.929 . S
H466 C480 0.931 . S
H467 C482 0.930 . S
C468 H456 0.930 . S
C468 C469 1.399 . S
C468 C473 1.399 . S
C469 C468 1.399 . S
C469 C470 1.376 1_556 S
C470 H457 0.930 . S
C470 C469 1.376 1_554 S
C470 C471 1.388 . S
C471 H458 0.930 . S
C471 C470 1.388 . S
C471 C472 1.390 . S
C472 C471 1.390 . S
C472 C473 1.394 1_554 S
C472 C478 1.465 . S
C473 C468 1.399 . S
C473 C472 1.394 1_556 S
C473 C474 1.516 . S
C474 C473 1.516 . S
C474 C475 1.502 . S
C474 C476 1.561 . S
C474 C477 1.526 . S
C475 H459 0.959 . S
C475 H460 0.959 . S
C475 H461 0.961 . S
C475 C474 1.502 . S
C476 H462 0.960 . S
C476 H463 0.961 . S
C476 H464 0.959 . S
C476 C474 1.561 . S
C477 C474 1.526 . S
C477 C478 1.396 1_556 S
C477 C482 1.390 . S
C478 C472 1.465 . S
C478 C477 1.396 1_554 S
C478 C479 1.399 . S
C479 H465 0.929 . S
C479 C478 1.399 . S
C479 C480 1.385 . S
C480 H466 0.931 . S
C480 C479 1.385 . S
C480 C481 1.389 . S
C481 C480 1.389 . S
C481 C482 1.387 1_554 S
C482 H467 0.930 . S
C482 C477 1.390 . S
C482 C481 1.387 1_556 S
H483 C495 0.930 . S
H484 C497 0.930 . S
H485 C498 0.930 . S
H486 C502 0.959 . S
H487 C502 0.959 . S
H488 C502 0.961 . S
H489 C503 0.960 . S
H490 C503 0.961 . S
H491 C503 0.959 . S
H492 C506 0.929 . S
H493 C507 0.931 . S
H494 C509 0.930 . S
C495 H483 0.930 . S
C495 C496 1.399 . S
C495 C500 1.399 . S
C496 C495 1.399 . S
C496 C497 1.376 . S
C497 H484 0.930 . S
C497 C496 1.376 . S
C497 C498 1.388 . S
C498 H485 0.930 . S
C498 C497 1.388 . S
C498 C499 1.390 . S
C499 C498 1.390 . S
C499 C500 1.394 . S
C499 C505 1.465 . S
C500 C495 1.399 . S
C500 C499 1.394 . S
C500 C501 1.516 . S
C501 C500 1.516 . S
C501 C502 1.502 . S
C501 C503 1.561 . S
C501 C504 1.526 . S
C502 H486 0.959 . S
C502 H487 0.959 . S
C502 H488 0.961 . S
C502 C501 1.502 . S
C503 H489 0.960 . S
C503 H490 0.961 . S
C503 H491 0.959 . S
C503 C501 1.561 . S
C504 C501 1.526 . S
C504 C505 1.396 . S
C504 C509 1.390 . S
C505 C499 1.465 . S
C505 C504 1.396 . S
C505 C506 1.399 . S
C506 H492 0.929 . S
C506 C505 1.399 . S
C506 C507 1.385 . S
C507 H493 0.931 . S
C507 C506 1.385 . S
C507 C508 1.389 . S
C508 C507 1.389 . S
C508 C509 1.387 . S
C509 H494 0.930 . S
C509 C504 1.390 . S
C509 C508 1.387 . S
H510 C522 0.930 1_544 S
H511 C524 0.930 . S
H512 C525 0.930 . S
H513 C529 0.959 1_556 S
H514 C529 0.959 . S
H515 C529 0.961 . S
H516 C530 0.960 . S
H517 C530 0.961 . S
H518 C530 0.959 . S
H519 C533 0.929 . S
H520 C534 0.931 . S
H521 C536 0.930 1_554 S
C522 H510 0.930 1_566 S
C522 C523 1.399 . S
C522 C527 1.399 . S
C523 C522 1.399 . S
C523 C524 1.376 . S
C524 H511 0.930 . S
C524 C523 1.376 . S
C524 C525 1.388 . S
C525 H512 0.930 . S
C525 C524 1.388 . S
C525 C526 1.390 . S
C526 C525 1.390 . S
C526 C527 1.394 . S
C526 C532 1.465 . S
C527 C522 1.399 . S
C527 C526 1.394 . S
C527 C528 1.516 1_556 S
C528 C527 1.516 1_554 S
C528 C529 1.502 1_565 S
C528 C530 1.561 . S
C528 C531 1.526 1_554 S
C529 H513 0.959 1_554 S
C529 H514 0.959 . S
C529 H515 0.961 . S
C529 C528 1.502 1_545 S
C530 H516 0.960 . S
C530 H517 0.961 . S
C530 H518 0.959 . S
C530 C528 1.561 . S
C531 C528 1.526 1_556 S
C531 C532 1.396 . S
C531 C536 1.390 . S
C532 C526 1.465 . S
C532 C531 1.396 . S
C532 C533 1.399 . S
C533 H519 0.929 . S
C533 C532 1.399 . S
C533 C534 1.385 . S
C534 H520 0.931 . S
C534 C533 1.385 . S
C534 C535 1.389 . S
C535 C534 1.389 . S
C535 C536 1.387 . S
C536 H521 0.930 1_556 S
C536 C531 1.390 . S
C536 C535 1.387 . S
H537 C549 0.930 . S
H538 C551 0.930 . S
H539 C552 0.930 . S
H540 C556 0.959 . S
H541 C556 0.959 . S
H542 C556 0.961 . S
H543 C557 0.960 . S
H544 C557 0.961 . S
H545 C557 0.959 . S
H546 C560 0.929 . S
H547 C561 0.931 . S
H548 C563 0.930 . S
C549 H537 0.930 . S
C549 C550 1.399 . S
C549 C554 1.399 . S
C550 C549 1.399 . S
C550 C551 1.376 . S
C551 H538 0.930 . S
C551 C550 1.376 . S
C551 C552 1.388 . S
C552 H539 0.930 . S
C552 C551 1.388 . S
C552 C553 1.390 . S
C553 C552 1.390 . S
C553 C554 1.394 . S
C553 C559 1.465 . S
C554 C549 1.399 . S
C554 C553 1.394 . S
C554 C555 1.516 . S
C555 C554 1.516 . S
C555 C556 1.502 . S
C555 C557 1.561 . S
C555 C558 1.526 . S
C556 H540 0.959 . S
C556 H541 0.959 . S
C556 H542 0.961 . S
C556 C555 1.502 . S
C557 H543 0.960 . S
C557 H544 0.961 . S
C557 H545 0.959 . S
C557 C555 1.561 . S
C558 C555 1.526 . S
C558 C559 1.396 . S
C558 C563 1.390 . S
C559 C553 1.465 . S
C559 C558 1.396 . S
C559 C560 1.399 . S
C560 H546 0.929 . S
C560 C559 1.399 . S
C560 C561 1.385 . S
C561 H547 0.931 . S
C561 C560 1.385 . S
C561 C562 1.389 . S
C562 C561 1.389 . S
C562 C563 1.387 . S
C563 H548 0.930 . S
C563 C558 1.390 . S
C563 C562 1.387 . S
H564 C576 0.930 . S
H565 C578 0.930 . S
H566 C579 0.930 . S
H567 C583 0.959 . S
H568 C583 0.959 . S
H569 C583 0.961 . S
H570 C584 0.960 . S
H571 C584 0.961 . S
H572 C584 0.959 . S
H573 C587 0.929 . S
H574 C588 0.931 . S
H575 C590 0.930 . S
C576 H564 0.930 . S
C576 C577 1.399 . S
C576 C581 1.399 . S
C577 C576 1.399 . S
C577 C578 1.376 . S
C578 H565 0.930 . S
C578 C577 1.376 . S
C578 C579 1.388 . S
C579 H566 0.930 . S
C579 C578 1.388 . S
C579 C580 1.390 . S
C580 C579 1.390 . S
C580 C581 1.394 . S
C580 C586 1.465 . S
C581 C576 1.399 . S
C581 C580 1.394 . S
C581 C582 1.516 . S
C582 C581 1.516 . S
C582 C583 1.502 . S
C582 C584 1.561 . S
C582 C585 1.526 . S
C583 H567 0.959 . S
C583 H568 0.959 . S
C583 H569 0.961 . S
C583 C582 1.502 . S
C584 H570 0.960 . S
C584 H571 0.961 . S
C584 H572 0.959 . S
C584 C582 1.561 . S
C585 C582 1.526 . S
C585 C586 1.396 . S
C585 C590 1.390 . S
C586 C580 1.465 . S
C586 C585 1.396 . S
C586 C587 1.399 . S
C587 H573 0.929 . S
C587 C586 1.399 . S
C587 C588 1.385 . S
C588 H574 0.931 . S
C588 C587 1.385 . S
C588 C589 1.389 . S
C589 C588 1.389 . S
C589 C590 1.387 . S
C590 H575 0.930 . S
C590 C585 1.390 . S
C590 C589 1.387 . S
H591 C603 0.930 . S
H592 C605 0.930 . S
H593 C606 0.930 . S
H594 C610 0.959 . S
H595 C610 0.959 . S
H596 C610 0.961 . S
H597 C611 0.960 . S
H598 C611 0.961 . S
H599 C611 0.959 . S
H600 C614 0.929 . S
H601 C615 0.931 . S
H602 C617 0.930 . S
C603 H591 0.930 . S
C603 C604 1.399 . S
C603 C608 1.399 . S
C604 C603 1.399 . S
C604 C605 1.376 . S
C605 H592 0.930 . S
C605 C604 1.376 . S
C605 C606 1.388 . S
C606 H593 0.930 . S
C606 C605 1.388 . S
C606 C607 1.390 . S
C607 C606 1.390 . S
C607 C608 1.394 . S
C607 C613 1.465 . S
C608 C603 1.399 . S
C608 C607 1.394 . S
C608 C609 1.516 . S
C609 C608 1.516 . S
C609 C610 1.502 . S
C609 C611 1.561 . S
C609 C612 1.526 . S
C610 H594 0.959 . S
C610 H595 0.959 . S
C610 H596 0.961 . S
C610 C609 1.502 . S
C611 H597 0.960 . S
C611 H598 0.961 . S
C611 H599 0.959 . S
C611 C609 1.561 . S
C612 C609 1.526 . S
C612 C613 1.396 . S
C612 C617 1.390 1_554 S
C613 C607 1.465 . S
C613 C612 1.396 . S
C613 C614 1.399 . S
C614 H600 0.929 . S
C614 C613 1.399 . S
C614 C615 1.385 1_554 S
C615 H601 0.931 . S
C615 C614 1.385 1_556 S
C615 C616 1.389 . S
C616 C615 1.389 . S
C616 C617 1.387 . S
C617 H602 0.930 . S
C617 C612 1.390 1_556 S
C617 C616 1.387 . S
H618 C630 0.930 . S
H619 C632 0.930 . S
H620 C633 0.930 . S
H621 C637 0.959 . S
H622 C637 0.959 . S
H623 C637 0.961 . S
H624 C638 0.960 1_545 S
H625 C638 0.977 . S
H626 C638 0.959 . S
H627 C641 0.929 . S
H628 C642 0.931 . S
H629 C644 0.930 . S
C630 H618 0.930 . S
C630 C631 1.399 . S
C630 C635 1.399 . S
C631 C630 1.399 . S
C631 C632 1.376 . S
C632 H619 0.930 . S
C632 C631 1.376 . S
C632 C633 1.388 . S
C633 H620 0.930 . S
C633 C632 1.388 . S
C633 C634 1.390 . S
C634 C633 1.390 . S
C634 C635 1.394 . S
C634 C640 1.465 . S
C635 C630 1.399 . S
C635 C634 1.394 . S
C635 C636 1.516 . S
C636 C635 1.516 . S
C636 C637 1.502 . S
C636 C638 1.561 . S
C636 C639 1.526 . S
C637 H621 0.959 . S
C637 H622 0.959 . S
C637 H623 0.961 . S
C637 C636 1.502 . S
C638 H624 0.960 1_565 S
C638 H625 0.977 . S
C638 H626 0.959 . S
C638 C636 1.561 . S
C639 C636 1.526 . S
C639 C640 1.396 . S
C639 C644 1.390 . S
C640 C634 1.465 . S
C640 C639 1.396 . S
C640 C641 1.399 . S
C641 H627 0.929 . S
C641 C640 1.399 . S
C641 C642 1.385 . S
C642 H628 0.931 . S
C642 C641 1.385 . S
C642 C643 1.389 . S
C643 C642 1.389 . S
C643 C644 1.387 . S
C644 H629 0.930 . S
C644 C639 1.390 . S
C644 C643 1.387 . S
H645 C657 0.930 . S
H646 C659 0.930 . S
H647 C660 0.930 . S
H648 C664 0.959 . S
H649 C664 0.959 . S
H650 C664 0.961 . S
H651 C665 0.960 . S
H652 C665 0.961 . S
H653 C665 0.959 . S
H654 C668 0.929 1_554 S
H655 C669 0.931 . S
H656 C671 0.930 . S
C657 H645 0.930 . S
C657 C658 1.399 . S
C657 C662 1.399 . S
C658 C657 1.399 . S
C658 C659 1.376 . S
C659 H646 0.930 . S
C659 C658 1.376 . S
C659 C660 1.388 . S
C660 H647 0.930 . S
C660 C659 1.388 . S
C660 C661 1.390 . S
C661 C660 1.390 . S
C661 C662 1.394 . S
C661 C667 1.465 . S
C662 C657 1.399 . S
C662 C661 1.394 . S
C662 C663 1.516 . S
C663 C662 1.516 . S
C663 C664 1.502 . S
C663 C665 1.561 . S
C663 C666 1.526 . S
C664 H648 0.959 . S
C664 H649 0.959 . S
C664 H650 0.961 . S
C664 C663 1.502 . S
C665 H651 0.960 . S
C665 H652 0.961 . S
C665 H653 0.959 . S
C665 C663 1.561 . S
C666 C663 1.526 . S
C666 C667 1.396 . S
C666 C671 1.390 1_554 S
C667 C661 1.465 . S
C667 C666 1.396 . S
C667 C668 1.399 1_554 S
C668 H654 0.929 1_556 S
C668 C667 1.399 1_556 S
C668 C669 1.385 . S
C669 H655 0.931 . S
C669 C668 1.385 . S
C669 C670 1.389 . S
C670 C669 1.389 . S
C670 C671 1.387 . S
C671 H656 0.930 . S
C671 C666 1.390 1_556 S
C671 C670 1.387 . S
H672 C684 0.930 . S
H673 C686 0.930 . S
H674 C687 0.930 . S
H675 C691 0.959 . S
H676 C691 0.959 . S
H677 C691 0.961 . S
H678 C692 0.960 . S
H679 C692 0.947 1_545 S
H680 C692 0.959 . S
H681 C695 0.929 . S
H682 C696 0.931 . S
H683 C698 0.930 . S
C684 H672 0.930 . S
C684 C685 1.399 . S
C684 C689 1.399 . S
C685 C684 1.399 . S
C685 C686 1.376 . S
C686 H673 0.930 . S
C686 C685 1.376 . S
C686 C687 1.388 . S
C687 H674 0.930 . S
C687 C686 1.388 . S
C687 C688 1.390 . S
C688 C687 1.390 . S
C688 C689 1.394 . S
C688 C694 1.465 . S
C689 C684 1.399 . S
C689 C688 1.394 . S
C689 C690 1.516 . S
C690 C689 1.516 . S
C690 C691 1.502 . S
C690 C692 1.561 . S
C690 C693 1.526 . S
C691 H675 0.959 . S
C691 H676 0.959 . S
C691 H677 0.961 . S
C691 C690 1.502 . S
C692 H678 0.960 . S
C692 H679 0.947 1_565 S
C692 H680 0.959 . S
C692 C690 1.561 . S
C693 C690 1.526 . S
C693 C694 1.396 . S
C693 C698 1.390 . S
C694 C688 1.465 . S
C694 C693 1.396 . S
C694 C695 1.399 . S
C695 H681 0.929 . S
C695 C694 1.399 . S
C695 C696 1.385 . S
C696 H682 0.931 . S
C696 C695 1.385 . S
C696 C697 1.389 . S
C697 C696 1.389 . S
C697 C698 1.387 . S
C698 H683 0.930 . S
C698 C693 1.390 . S
C698 C697 1.387 . S
H699 C711 0.930 . S
H700 C713 0.930 . S
H701 C714 0.930 . S
H702 C718 0.959 . S
H703 C718 0.959 . S
H704 C718 0.961 . S
H705 C719 0.960 . S
H706 C719 0.961 . S
H707 C719 0.959 . S
H708 C722 0.929 . S
H709 C723 0.931 1_556 S
H710 C725 0.930 1_556 S
C711 H699 0.930 . S
C711 C712 1.399 . S
C711 C716 1.399 . S
C712 C711 1.399 . S
C712 C713 1.376 . S
C713 H700 0.930 . S
C713 C712 1.376 . S
C713 C714 1.388 . S
C714 H701 0.930 . S
C714 C713 1.388 . S
C714 C715 1.390 . S
C715 C714 1.390 . S
C715 C716 1.394 . S
C715 C721 1.465 . S
C716 C711 1.399 . S
C716 C715 1.394 . S
C716 C717 1.516 . S
C717 C716 1.516 . S
C717 C718 1.502 . S
C717 C719 1.561 . S
C717 C720 1.526 . S
C718 H702 0.959 . S
C718 H703 0.959 . S
C718 H704 0.961 . S
C718 C717 1.502 . S
C719 H705 0.960 . S
C719 H706 0.961 . S
C719 H707 0.959 . S
C719 C717 1.561 . S
C720 C717 1.526 . S
C720 C721 1.396 . S
C720 C725 1.390 . S
C721 C715 1.465 . S
C721 C720 1.396 . S
C721 C722 1.399 . S
C722 H708 0.929 . S
C722 C721 1.399 . S
C722 C723 1.385 . S
C723 H709 0.931 1_554 S
C723 C722 1.385 . S
C723 C724 1.389 1_554 S
C724 C723 1.389 1_556 S
C724 C725 1.387 1_556 S
C725 H710 0.930 1_554 S
C725 C720 1.390 . S
C725 C724 1.387 1_554 S
C253 C204 2.474 . S
C265 C25 2.609 . S
C280 C31 3.369 . S
C292 C44 3.037 1_455 S
C307 C60 1.175 . S
C319 C111 1.252 . S
C334 C124 2.610 . S
C346 C105 2.490 . S
C361 C185 3.081 1_655 S
C373 C140 3.354 . S
C388 C191 1.230 . S
C400 C220 1.284 . S
C415 C180 2.189 1_556 S
C427 C4 2.135 . S
C442 C225 1.567 . S
C454 C65 1.545 . S
C469 C100 2.619 . S
C481 C20 2.566 . S
C496 C145 2.132 . S
C508 C71 2.182 . S
C523 C164 1.514 . S
C535 C84 1.557 . S
C550 C151 2.597 . S
C562 C231 2.622 . S
C577 C23 0.858 . S
C589 C2 0.973 . S
C604 C63 0.985 . S
C616 C42 1.060 . S
C631 C82 1.063 . S
C643 C103 0.965 . S
C658 C143 0.978 . S
C670 C122 0.870 . S
C685 C162 1.060 . S
C697 C183 0.975 . S
C712 C202 1.058 . S
C724 C223 0.972 . S
