# Generated by pormake.
# Topology uoc, (4)-cn, num edge types: 1
# Building blocks:
#     Node 0, Type 0, BuildingBlock: NAHDIM_clean_sbu_0, # of connection points: 4
#     Node 1, Type 0, BuildingBlock: NAHDIM_clean_sbu_0, # of connection points: 4
#     Node 2, Type 0, BuildingBlock: NAHDIM_clean_sbu_0, # of connection points: 4
#     Node 3, Type 0, BuildingBlock: NAHDIM_clean_sbu_0, # of connection points: 4
#     Node 4, Type 0, BuildingBlock: NAHDIM_clean_sbu_0, # of connection points: 4
#     Node 5, Type 0, BuildingBlock: NAHDIM_clean_sbu_0, # of connection points: 4
#     Node 6, Type 0, BuildingBlock: NAHDIM_clean_sbu_0, # of connection points: 4
#     Node 7, Type 0, BuildingBlock: NAHDIM_clean_sbu_0, # of connection points: 4
#     Edge 8, Type (0, 0), BuildingBlock: MIFKUJ_clean_linker_0, # of connection points: 2
#     Edge 9, Type (0, 0), BuildingBlock: MIFKUJ_clean_linker_0, # of connection points: 2
#     Edge 10, Type (0, 0), BuildingBlock: MIFKUJ_clean_linker_0, # of connection points: 2
#     Edge 11, Type (0, 0), BuildingBlock: MIFKUJ_clean_linker_0, # of connection points: 2
#     Edge 12, Type (0, 0), BuildingBlock: MIFKUJ_clean_linker_0, # of connection points: 2
#     Edge 13, Type (0, 0), BuildingBlock: MIFKUJ_clean_linker_0, # of connection points: 2
#     Edge 14, Type (0, 0), BuildingBlock: MIFKUJ_clean_linker_0, # of connection points: 2
#     Edge 15, Type (0, 0), BuildingBlock: MIFKUJ_clean_linker_0, # of connection points: 2
#     Edge 16, Type (0, 0), BuildingBlock: MIFKUJ_clean_linker_0, # of connection points: 2
#     Edge 17, Type (0, 0), BuildingBlock: MIFKUJ_clean_linker_0, # of connection points: 2
#     Edge 18, Type (0, 0), BuildingBlock: MIFKUJ_clean_linker_0, # of connection points: 2
#     Edge 19, Type (0, 0), BuildingBlock: MIFKUJ_clean_linker_0, # of connection points: 2
#     Edge 20, Type (0, 0), BuildingBlock: MIFKUJ_clean_linker_0, # of connection points: 2
#     Edge 21, Type (0, 0), BuildingBlock: MIFKUJ_clean_linker_0, # of connection points: 2
#     Edge 22, Type (0, 0), BuildingBlock: MIFKUJ_clean_linker_0, # of connection points: 2
#     Edge 23, Type (0, 0), BuildingBlock: MIFKUJ_clean_linker_0, # of connection points: 2
# Relax obj value: 0.203
# Max RMSD: 0.200
# Mean RMSD: 0.200
data_MOF--net-uoc--node1-NAHDIM_clean_sbu_0--edge1-MIFKUJ_clean_linker_0
_symmetry_space_group_name_H-M    P1
_symmetry_Int_Tables_number       1
_symmetry_cell_setting            triclinic
loop_
_symmetry_equiv_pos_as_xyz
'x, y, z'
_cell_length_a     34.918472
_cell_length_b     34.895681
_cell_length_c     67.251868
_cell_angle_alpha  89.956566
_cell_angle_beta   89.993075
_cell_angle_gamma 93.98306
loop_
_atom_site_label
_atom_site_type_symbol
_atom_site_fract_x
_atom_site_fract_y
_atom_site_fract_z
_atom_type_partial_charge
C0 C 0.09268 0.32737 0.09946 0.0
O1 O 0.10945 0.31818 0.08281 0.0
O2 O 0.16878 0.26351 0.09536 0.0
Zn3 Zn 0.12615 0.25952 0.11537 0.0
O4 O 0.14804 0.2542 0.14268 0.0
C5 C 0.10573 0.18184 0.10386 0.0
O6 O 0.14301 0.18186 0.10125 0.0
O7 O 0.09582 0.30644 0.11477 0.0
C8 C 0.1785 0.23739 0.1461 0.0
O9 O 0.19721 0.22306 0.13121 0.0
C10 C 0.19263 0.29238 0.09309 0.0
O11 O 0.18993 0.32297 0.10423 0.0
O12 O 0.09146 0.21245 0.10966 0.0
C13 C 0.85876 0.61833 0.37161 0.0
O14 O 0.86239 0.65603 0.37236 0.0
O15 O 0.78912 0.6709 0.3963 0.0
Zn16 Zn 0.78009 0.63347 0.37393 0.0
O17 O 0.77456 0.66121 0.34799 0.0
C18 C 0.70396 0.61273 0.38856 0.0
O19 O 0.70631 0.64875 0.39438 0.0
O20 O 0.82536 0.60142 0.37204 0.0
C21 C 0.74258 0.67001 0.34088 0.0
O22 O 0.7108 0.66097 0.35076 0.0
C23 C 0.78172 0.70598 0.39529 0.0
O24 O 0.76831 0.7195 0.37865 0.0
O25 O 0.73229 0.59953 0.37961 0.0
C26 C 0.36777 0.16397 0.64047 0.0
O27 O 0.33393 0.16135 0.6491 0.0
O28 O 0.31337 0.23566 0.605 0.0
Zn29 Zn 0.34478 0.23904 0.62996 0.0
O30 O 0.31048 0.23892 0.65381 0.0
C31 C 0.40032 0.29695 0.61525 0.0
O32 O 0.40442 0.27141 0.6012 0.0
O33 O 0.37877 0.19479 0.63142 0.0
C34 C 0.29559 0.26913 0.65969 0.0
O35 O 0.30187 0.30114 0.64954 0.0
C36 C 0.30158 0.20441 0.59662 0.0
O37 O 0.30915 0.17152 0.60472 0.0
O38 O 0.37693 0.28896 0.62936 0.0
C39 C 0.67192 0.88748 0.87056 0.0
O40 O 0.66736 0.84979 0.8708 0.0
O41 O 0.73663 0.83539 0.90001 0.0
Zn42 Zn 0.74912 0.87008 0.87679 0.0
O43 O 0.75519 0.83935 0.85197 0.0
C44 C 0.82685 0.88778 0.88928 0.0
O45 O 0.82493 0.85073 0.893 0.0
O46 O 0.7054 0.90359 0.87281 0.0
C47 C 0.7792 0.84998 0.83853 0.0
O48 O 0.80154 0.88143 0.84116 0.0
C49 C 0.72868 0.79937 0.89872 0.0
O50 O 0.72892 0.78261 0.88124 0.0
O51 O 0.79748 0.90278 0.8824 0.0
C52 C 0.58636 0.83222 0.62149 0.0
O53 O 0.62287 0.83604 0.61661 0.0
O54 O 0.63042 0.76772 0.59119 0.0
Zn55 Zn 0.60335 0.75548 0.61699 0.0
O56 O 0.64182 0.75357 0.63898 0.0
C57 C 0.58459 0.67783 0.60452 0.0
O58 O 0.61647 0.6843 0.59432 0.0
O59 O 0.56995 0.79864 0.62287 0.0
C60 C 0.63618 0.73132 0.6538 0.0
O61 O 0.60467 0.70849 0.65457 0.0
C62 C 0.66604 0.76394 0.58877 0.0
O63 O 0.68617 0.75071 0.60344 0.0
O64 O 0.57251 0.70461 0.61514 0.0
C65 C 0.34168 0.1096 0.87227 0.0
O66 O 0.34379 0.14625 0.86762 0.0
O67 O 0.2789 0.1603 0.90859 0.0
Zn68 Zn 0.26691 0.12754 0.88459 0.0
O69 O 0.25809 0.15816 0.85992 0.0
C70 C 0.18752 0.11056 0.89171 0.0
O71 O 0.18828 0.14816 0.89045 0.0
O72 O 0.3108 0.09448 0.87974 0.0
C73 C 0.24652 0.19182 0.85863 0.0
O74 O 0.24017 0.21132 0.87486 0.0
C75 C 0.3002 0.1913 0.90955 0.0
O76 O 0.31634 0.20597 0.89336 0.0
O77 O 0.21873 0.09418 0.88996 0.0
C78 C 0.89335 0.67153 0.12143 0.0
O79 O 0.86676 0.67234 0.13521 0.0
O80 O 0.82296 0.73561 0.0897 0.0
Zn81 Zn 0.86401 0.74365 0.11032 0.0
O82 O 0.84069 0.74767 0.13742 0.0
C83 C 0.87805 0.824 0.10466 0.0
O84 O 0.84101 0.82253 0.10832 0.0
O85 O 0.89789 0.69936 0.10927 0.0
C86 C 0.80545 0.7525 0.14052 0.0
O87 O 0.78206 0.75497 0.12535 0.0
C88 C 0.80691 0.7028 0.0855 0.0
O89 O 0.8169 0.67235 0.09518 0.0
O90 O 0.89502 0.79296 0.1045 0.0
C91 C 0.18749 0.39276 0.37052 0.0
O92 O 0.18207 0.35522 0.36903 0.0
O93 O 0.25621 0.34066 0.39904 0.0
Zn94 Zn 0.26382 0.37193 0.37418 0.0
O95 O 0.25973 0.33885 0.34977 0.0
C96 C 0.34396 0.38819 0.3828 0.0
O97 O 0.34085 0.35269 0.38944 0.0
O98 O 0.2214 0.4077 0.37289 0.0
C99 C 0.28491 0.31777 0.34296 0.0
O100 O 0.31777 0.31608 0.35229 0.0
C101 C 0.24479 0.30532 0.39986 0.0
O102 O 0.23776 0.28606 0.38334 0.0
O103 O 0.31469 0.4026 0.37542 0.0
H104 H 0.21582 0.22985 0.07379 0.0
H105 H 0.25721 0.22849 0.04481 0.0
H106 H 0.27596 0.35198 0.0467 0.0
H107 H 0.23398 0.35358 0.07598 0.0
H108 H 0.25239 0.32659 0.01043 0.0
H109 H 0.35244 0.299 0.05364 0.0
H110 H 0.38418 0.26943 0.08196 0.0
H111 H 0.36286 0.15794 0.05563 0.0
H112 H 0.33046 0.18668 0.02731 0.0
H113 H 0.3284 0.2654 0.91697 0.0
H114 H 0.33293 0.29773 0.94944 0.0
H115 H 0.28984 0.19274 0.97805 0.0
H116 H 0.28523 0.16055 0.94602 0.0
H117 H 0.34896 0.23103 -0.00067 0.0
H118 H 0.22924 0.25933 0.96462 0.0
H119 H 0.19441 0.28742 0.93685 0.0
H120 H 0.2531 0.39755 0.94804 0.0
H121 H 0.28858 0.36991 0.97575 0.0
C122 C 0.22918 0.25674 0.06827 0.0
C123 C 0.22142 0.29185 0.07705 0.0
C124 C 0.25321 0.25589 0.0518 0.0
C125 C 0.27011 0.29011 0.04374 0.0
C126 C 0.26346 0.32525 0.05282 0.0
C127 C 0.23953 0.3261 0.06951 0.0
C128 C 0.29037 0.28858 0.02444 0.0
C129 C 0.27458 0.30678 0.00806 0.0
C130 C 0.31928 0.26274 0.02134 0.0
C131 C 0.33901 0.2451 0.03829 0.0
C132 C 0.35435 0.26815 0.05392 0.0
C133 C 0.37247 0.25152 0.06998 0.0
C134 C 0.37555 0.21184 0.07059 0.0
C135 C 0.36053 0.18869 0.05512 0.0
C136 C 0.34236 0.20517 0.03902 0.0
C137 C 0.32039 0.24918 0.93025 0.0
C138 C 0.30604 0.21058 0.92895 0.0
C139 C 0.32305 0.26765 0.94873 0.0
C140 C 0.31169 0.24759 0.9661 0.0
C141 C 0.29899 0.20867 0.96484 0.0
C142 C 0.29602 0.1904 0.94648 0.0
C143 C 0.30908 0.26711 0.98551 0.0
C144 C 0.32824 0.25229 0.00184 0.0
C145 C 0.28325 0.29598 0.9886 0.0
C146 C 0.26187 0.3125 0.97203 0.0
C147 C 0.23488 0.28947 0.96104 0.0
C148 C 0.21501 0.3053 0.94534 0.0
C149 C 0.22164 0.34421 0.94063 0.0
C150 C 0.24808 0.36739 0.95166 0.0
C151 C 0.26807 0.35167 0.96736 0.0
H152 H 0.20622 0.35643 0.92848 0.0
H153 H 0.38958 0.19902 0.08304 0.0
H154 H 0.67908 0.68836 0.31993 0.0
H155 H 0.67747 0.71588 0.28644 0.0
H156 H 0.80123 0.72179 0.28424 0.0
H157 H 0.80317 0.69493 0.31762 0.0
H158 H 0.77253 0.78543 0.26791 0.0
H159 H 0.74733 0.6454 0.26464 0.0
H160 H 0.70963 0.58509 0.273 0.0
H161 H 0.60888 0.62933 0.24754 0.0
H162 H 0.64596 0.69009 0.23924 0.0
H163 H 0.84758 0.75436 0.17458 0.0
H164 H 0.82423 0.75392 0.20865 0.0
H165 H 0.70762 0.75445 0.18749 0.0
H166 H 0.73087 0.75458 0.15307 0.0
H167 H 0.71549 0.69959 0.21535 0.0
H168 H 0.74662 0.83306 0.21074 0.0
H169 H 0.78497 0.89277 0.20218 0.0
H170 H 0.87387 0.86242 0.24214 0.0
H171 H 0.83636 0.80224 0.25073 0.0
C172 C 0.70595 0.69593 0.31238 0.0
C173 C 0.74126 0.68909 0.32132 0.0
C174 C 0.70495 0.71163 0.29327 0.0
C175 C 0.73922 0.72055 0.28284 0.0
C176 C 0.77446 0.71519 0.29207 0.0
C177 C 0.7755 0.69957 0.31111 0.0
C178 C 0.73899 0.73268 0.26177 0.0
C179 C 0.75999 0.76682 0.25637 0.0
C180 C 0.72131 0.70905 0.24683 0.0
C181 C 0.69925 0.67237 0.25155 0.0
C182 C 0.71708 0.64231 0.26094 0.0
C183 C 0.69585 0.60806 0.26565 0.0
C184 C 0.65685 0.60344 0.26086 0.0
C185 C 0.63906 0.63299 0.25128 0.0
C186 C 0.66017 0.66732 0.24656 0.0
C187 C 0.81697 0.75473 0.1771 0.0
C188 C 0.79106 0.7544 0.16112 0.0
C189 C 0.80368 0.7548 0.19662 0.0
C190 C 0.76423 0.75474 0.20059 0.0
C191 C 0.7382 0.7548 0.1847 0.0
C192 C 0.75154 0.75488 0.16508 0.0
C193 C 0.75069 0.75148 0.22141 0.0
C194 C 0.72704 0.71899 0.2268 0.0
C195 C 0.76592 0.7767 0.23634 0.0
C196 C 0.78865 0.81301 0.23134 0.0
C197 C 0.77445 0.83898 0.21762 0.0
C198 C 0.79604 0.87294 0.21277 0.0
C199 C 0.83184 0.88137 0.2216 0.0
C200 C 0.84611 0.85587 0.23532 0.0
C201 C 0.82465 0.82185 0.24022 0.0
H202 H 0.84852 0.90768 0.21782 0.0
H203 H 0.64045 0.57692 0.26454 0.0
H204 H 0.28025 0.26755 0.57678 0.0
H205 H 0.25494 0.27063 0.54322 0.0
H206 H 0.25383 0.14726 0.53834 0.0
H207 H 0.27998 0.14393 0.57208 0.0
H208 H 0.28839 0.18123 0.50718 0.0
H209 H 0.16887 0.19109 0.5388 0.0
H210 H 0.12274 0.21331 0.56325 0.0
H211 H 0.14096 0.32853 0.54107 0.0
H212 H 0.18764 0.30717 0.51667 0.0
H213 H 0.23039 0.22847 0.40787 0.0
H214 H 0.22478 0.1979 0.44074 0.0
H215 H 0.24174 0.30905 0.46865 0.0
H216 H 0.24723 0.33964 0.43616 0.0
H217 H 0.18449 0.26296 0.48677 0.0
H218 H 0.316 0.25363 0.46238 0.0
H219 H 0.3635 0.23207 0.43842 0.0
H220 H 0.32139 0.1148 0.44756 0.0
H221 H 0.27332 0.13579 0.47141 0.0
C222 C 0.27417 0.24094 0.56873 0.0
C223 C 0.28233 0.2055 0.57707 0.0
C224 C 0.25934 0.24273 0.54956 0.0
C225 C 0.25198 0.20912 0.53835 0.0
C226 C 0.25908 0.17351 0.5468 0.0
C227 C 0.27398 0.17168 0.56607 0.0
C228 C 0.24067 0.21221 0.5172 0.0
C229 C 0.2649 0.1981 0.50268 0.0
C230 C 0.21017 0.23438 0.51132 0.0
C231 C 0.18187 0.24747 0.5259 0.0
C232 C 0.16322 0.22121 0.53919 0.0
C233 C 0.13694 0.23366 0.55305 0.0
C234 C 0.12894 0.27231 0.55372 0.0
C235 C 0.14715 0.29859 0.54051 0.0
C236 C 0.17347 0.2863 0.52663 0.0
C237 C 0.23262 0.24636 0.42103 0.0
C238 C 0.23959 0.28644 0.41943 0.0
C239 C 0.22938 0.22886 0.43976 0.0
C240 C 0.23294 0.25126 0.45708 0.0
C241 C 0.23871 0.29129 0.45545 0.0
C242 C 0.24214 0.3087 0.43685 0.0
C243 C 0.23333 0.23356 0.47706 0.0
C244 C 0.20703 0.24492 0.49129 0.0
C245 C 0.26185 0.20882 0.48269 0.0
C246 C 0.29079 0.19629 0.46844 0.0
C247 C 0.3167 0.22328 0.45915 0.0
C248 C 0.34374 0.21117 0.44562 0.0
C249 C 0.34537 0.1721 0.44141 0.0
C250 C 0.32003 0.14506 0.45079 0.0
C251 C 0.29289 0.15704 0.46431 0.0
H252 H 0.36633 0.16277 0.43094 0.0
H253 H 0.1086 0.28189 0.56446 0.0
H254 H 0.73595 0.78483 0.82828 0.0
H255 H 0.7275 0.75726 0.79516 0.0
H256 H 0.81214 0.84157 0.77191 0.0
H257 H 0.82049 0.86972 0.80505 0.0
H258 H 0.74565 0.84175 0.75224 0.0
H259 H 0.82924 0.7465 0.77188 0.0
H260 H 0.8544 0.6971 0.79356 0.0
H261 H 0.74823 0.62813 0.78813 0.0
H262 H 0.72218 0.67735 0.76664 0.0
H263 H 0.70518 0.77297 0.65619 0.0
H264 H 0.74433 0.78527 0.68589 0.0
H265 H 0.66611 0.70972 0.71983 0.0
H266 H 0.62711 0.69669 0.69012 0.0
H267 H 0.74068 0.70484 0.73189 0.0
H268 H 0.65357 0.80374 0.71876 0.0
H269 H 0.62496 0.85317 0.69837 0.0
H270 H 0.73517 0.91504 0.69313 0.0
H271 H 0.7645 0.8657 0.71331 0.0
C272 C 0.75332 0.7971 0.81621 0.0
C273 C 0.77853 0.82978 0.81923 0.0
C274 C 0.74868 0.78109 0.7973 0.0
C275 C 0.76933 0.79727 0.78109 0.0
C276 C 0.79599 0.82864 0.78425 0.0
C277 C 0.80069 0.84468 0.80319 0.0
C278 C 0.75922 0.78463 0.76064 0.0
C279 C 0.7456 0.81197 0.7476 0.0
C280 C 0.75809 0.74559 0.75485 0.0
C281 C 0.77368 0.71578 0.76772 0.0
C282 C 0.81114 0.72093 0.77542 0.0
C283 C 0.82558 0.69293 0.78766 0.0
C284 C 0.80291 0.65952 0.79225 0.0
C285 C 0.76576 0.65402 0.78457 0.0
C286 C 0.75117 0.68194 0.77232 0.0
C287 C 0.69663 0.75845 0.66989 0.0
C288 C 0.66267 0.73439 0.67091 0.0
C289 C 0.71907 0.76548 0.68683 0.0
C290 C 0.7077 0.74891 0.70509 0.0
C291 C 0.6753 0.72283 0.70586 0.0
C292 C 0.65294 0.7156 0.68889 0.0
C293 C 0.72687 0.76194 0.72374 0.0
C294 C 0.74181 0.73472 0.73642 0.0
C295 C 0.72889 0.80107 0.72939 0.0
C296 C 0.7113 0.83082 0.71732 0.0
C297 C 0.67174 0.82774 0.71312 0.0
C298 C 0.65539 0.85575 0.70164 0.0
C299 C 0.67826 0.88715 0.6944 0.0
C300 C 0.71751 0.89066 0.6987 0.0
C301 C 0.73401 0.8627 0.71017 0.0
H302 H 0.66555 0.90881 0.68551 0.0
H303 H 0.81415 0.63788 0.80173 0.0
H304 H 0.21845 0.31244 0.32172 0.0
H305 H 0.20697 0.28258 0.28945 0.0
H306 H 0.32233 0.24555 0.28899 0.0
H307 H 0.33439 0.27613 0.32145 0.0
H308 H 0.30585 0.28017 0.25484 0.0
H309 H 0.24647 0.17898 0.29299 0.0
H310 H 0.20557 0.14829 0.31919 0.0
H311 H 0.10571 0.19101 0.29206 0.0
H312 H 0.14602 0.22246 0.26584 0.0
H313 H 0.24548 0.20872 0.1588 0.0
H314 H 0.26962 0.2067 0.19299 0.0
H315 H 0.16802 0.2577 0.21391 0.0
H316 H 0.14364 0.25955 0.18003 0.0
H317 H 0.18796 0.19909 0.23802 0.0
H318 H 0.25077 0.31216 0.20547 0.0
H319 H 0.29165 0.34436 0.17966 0.0
H320 H 0.38545 0.2782 0.19686 0.0
H321 H 0.34491 0.24529 0.22263 0.0
C322 C 0.24136 0.29764 0.31491 0.0
C323 C 0.27742 0.29682 0.32411 0.0
C324 C 0.23461 0.28025 0.2965 0.0
C325 C 0.26361 0.26134 0.28694 0.0
C326 C 0.29949 0.25979 0.29621 0.0
C327 C 0.3063 0.27724 0.31473 0.0
C328 C 0.2569 0.24639 0.26653 0.0
C329 C 0.28067 0.26151 0.2512 0.0
C330 C 0.22392 0.22227 0.26178 0.0
C331 C 0.19937 0.2032 0.27745 0.0
C332 C 0.21582 0.18203 0.29266 0.0
C333 C 0.19272 0.16447 0.30752 0.0
C334 C 0.15307 0.16772 0.3073 0.0
C335 C 0.13642 0.18848 0.2922 0.0
C336 C 0.15939 0.20612 0.27731 0.0
C337 C 0.2282 0.21926 0.17072 0.0
C338 C 0.19278 0.23457 0.1667 0.0
C339 C 0.24204 0.21808 0.19021 0.0
C340 C 0.22066 0.23222 0.20594 0.0
C341 C 0.18488 0.24651 0.20199 0.0
C342 C 0.17111 0.24777 0.18258 0.0
C343 C 0.23592 0.23432 0.22646 0.0
C344 C 0.21377 0.21672 0.24176 0.0
C345 C 0.27039 0.25608 0.2312 0.0
C346 C 0.2947 0.27594 0.21577 0.0
C347 C 0.28002 0.30429 0.20363 0.0
C348 C 0.30314 0.32269 0.18904 0.0
C349 C 0.34108 0.31323 0.18657 0.0
C350 C 0.35603 0.28543 0.19875 0.0
C351 C 0.333 0.2669 0.21335 0.0
H352 H 0.35894 0.32752 0.17527 0.0
H353 H 0.13524 0.15411 0.31882 0.0
H354 H 0.73566 0.74345 0.57552 0.0
H355 H 0.76184 0.75129 0.542 0.0
H356 H 0.66345 0.81165 0.52446 0.0
H357 H 0.63655 0.80287 0.5578 0.0
H358 H 0.67374 0.75709 0.49953 0.0
H359 H 0.75566 0.85746 0.52749 0.0
H360 H 0.80107 0.88867 0.55152 0.0
H361 H 0.88392 0.80749 0.53742 0.0
H362 H 0.8388 0.77541 0.5135 0.0
H363 H 0.7438 0.77049 0.40231 0.0
H364 H 0.73205 0.79886 0.43481 0.0
H365 H 0.80713 0.72129 0.46229 0.0
H366 H 0.81885 0.69258 0.42993 0.0
H367 H 0.80808 0.79685 0.48064 0.0
H368 H 0.72039 0.68994 0.45896 0.0
H369 H 0.67547 0.6576 0.435 0.0
H370 H 0.60368 0.7525 0.43786 0.0
H371 H 0.64852 0.7856 0.46166 0.0
C372 C 0.71987 0.75888 0.5646 0.0
C373 C 0.68388 0.77219 0.56921 0.0
C374 C 0.73503 0.76364 0.54548 0.0
C375 C 0.71478 0.7824 0.53075 0.0
C376 C 0.67956 0.7971 0.53559 0.0
C377 C 0.6642 0.79197 0.55463 0.0
C378 C 0.72817 0.78274 0.50983 0.0
C379 C 0.70283 0.76683 0.49537 0.0
C380 C 0.76638 0.79463 0.50442 0.0
C381 C 0.7937 0.81387 0.51877 0.0
C382 C 0.78345 0.84607 0.52961 0.0
C383 C 0.80917 0.86395 0.5432 0.0
C384 C 0.84533 0.85003 0.54602 0.0
C385 C 0.85589 0.81824 0.53522 0.0
C386 C 0.83027 0.80023 0.52162 0.0
C387 C 0.75873 0.76027 0.41517 0.0
C388 C 0.78164 0.72884 0.41369 0.0
C389 C 0.75204 0.77656 0.4337 0.0
C390 C 0.76844 0.7618 0.45088 0.0
C391 C 0.7943 0.73303 0.44916 0.0
C392 C 0.80069 0.71647 0.4307 0.0
C393 C 0.75367 0.77114 0.47071 0.0
C394 C 0.77874 0.78835 0.48488 0.0
C395 C 0.7152 0.7605 0.47596 0.0
C396 C 0.688 0.74043 0.46187 0.0
C397 C 0.69518 0.70402 0.45435 0.0
C398 C 0.66973 0.68554 0.44082 0.0
C399 C 0.63682 0.70305 0.43485 0.0
C400 C 0.62923 0.73901 0.44246 0.0
C401 C 0.65464 0.75764 0.45597 0.0
H402 H 0.61714 0.68871 0.42437 0.0
H403 H 0.8652 0.86392 0.55655 0.0
H404 H 0.27157 0.33073 0.6804 0.0
H405 H 0.24563 0.33038 0.71427 0.0
H406 H 0.24802 0.20698 0.71621 0.0
H407 H 0.27344 0.20701 0.6825 0.0
H408 H 0.18477 0.23142 0.73516 0.0
H409 H 0.32372 0.26467 0.73294 0.0
H410 H 0.38082 0.30556 0.7227 0.0
H411 H 0.33462 0.40316 0.7504 0.0
H412 H 0.27702 0.36285 0.7606 0.0
H413 H 0.24269 0.1537 0.82342 0.0
H414 H 0.23343 0.17995 0.79043 0.0
H415 H 0.22503 0.29279 0.81553 0.0
H416 H 0.23435 0.26651 0.84897 0.0
H417 H 0.27606 0.29199 0.78431 0.0
H418 H 0.14643 0.25077 0.79526 0.0
H419 H 0.0914 0.20774 0.8061 0.0
H420 H 0.11982 0.12415 0.7627 0.0
H421 H 0.17539 0.16638 0.75177 0.0
C422 C 0.26587 0.30348 0.68792 0.0
C423 C 0.27507 0.26893 0.6789 0.0
C424 C 0.25108 0.30336 0.70725 0.0
C425 C 0.24532 0.2687 0.71779 0.0
C426 C 0.2522 0.23404 0.70833 0.0
C427 C 0.26701 0.23414 0.68909 0.0
C428 C 0.23625 0.26815 0.73929 0.0
C429 C 0.20448 0.24485 0.74596 0.0
C430 C 0.26129 0.28682 0.75334 0.0
C431 C 0.29592 0.31093 0.74729 0.0
C432 C 0.32565 0.29492 0.73672 0.0
C433 C 0.3581 0.31796 0.73094 0.0
C434 C 0.36128 0.35697 0.73584 0.0
C435 C 0.33207 0.37297 0.74657 0.0
C436 C 0.29952 0.35005 0.75235 0.0
C437 C 0.23862 0.18407 0.82203 0.0
C438 C 0.23942 0.20808 0.8388 0.0
C439 C 0.23294 0.19897 0.80315 0.0
C440 C 0.22794 0.23819 0.80058 0.0
C441 C 0.22846 0.26236 0.81727 0.0
C442 C 0.23382 0.24733 0.8363 0.0
C443 C 0.22562 0.25367 0.78017 0.0
C444 C 0.25532 0.27976 0.77365 0.0
C445 C 0.19872 0.23743 0.76629 0.0
C446 C 0.16519 0.21182 0.7727 0.0
C447 C 0.14111 0.22312 0.78809 0.0
C448 C 0.10979 0.19887 0.79425 0.0
C449 C 0.10212 0.16325 0.78509 0.0
C450 C 0.12577 0.15179 0.76975 0.0
C451 C 0.15715 0.17592 0.76354 0.0
H452 H 0.0778 0.14457 0.78985 0.0
H453 H 0.38643 0.37477 0.73136 0.0
H454 H 0.78211 0.63704 0.06571 0.0
H455 H 0.74727 0.63297 0.03404 0.0
H456 H 0.738 0.75562 0.03508 0.0
H457 H 0.77223 0.75986 0.06659 0.0
H458 H 0.67393 0.71727 0.01854 0.0
H459 H 0.81581 0.71804 0.01354 0.0
H460 H 0.87674 0.68889 0.02072 0.0
H461 H 0.83312 0.58352 0.99342 0.0
H462 H 0.77178 0.61205 0.98625 0.0
H463 H 0.7169 0.82663 0.93591 0.0
H464 H 0.70923 0.79018 0.9666 0.0
H465 H 0.71426 0.68429 0.93391 0.0
H466 H 0.72236 0.72092 0.90284 0.0
H467 H 0.76375 0.68804 0.96432 0.0
H468 H 0.6314 0.70155 0.95808 0.0
H469 H 0.57203 0.73328 0.95091 0.0
H470 H 0.59622 0.81201 -0.00096 0.0
H471 H 0.65603 0.7812 0.00634 0.0
C472 C 0.77179 0.66296 0.0594 0.0
C473 C 0.7805 0.69889 0.0684 0.0
C474 C 0.75188 0.66056 0.04134 0.0
C475 C 0.74048 0.69405 0.03214 0.0
C476 C 0.7465 0.72941 0.04194 0.0
C477 C 0.76641 0.73185 0.05987 0.0
C478 C 0.72762 0.69405 0.0112 0.0
C479 C 0.69318 0.71049 0.00659 0.0
C480 C 0.75216 0.68377 0.99563 0.0
C481 C 0.7892 0.66698 -0.00045 0.0
C482 C 0.81923 0.68862 0.00913 0.0
C483 C 0.8538 0.67223 0.0132 0.0
C484 C 0.85876 0.63434 0.00758 0.0
C485 C 0.82921 0.61284 -0.0022 0.0
C486 C 0.79455 0.6291 0.99372 0.0
C487 C 0.71589 0.79557 0.93514 0.0
C488 C 0.72055 0.77667 0.91696 0.0
C489 C 0.71104 0.77469 0.95271 0.0
C490 C 0.71055 0.73445 0.95252 0.0
C491 C 0.71419 0.71531 0.93434 0.0
C492 C 0.71887 0.73627 0.91664 0.0
C493 C 0.71106 0.71357 0.97168 0.0
C494 C 0.7433 0.69319 0.976 0.0
C495 C 0.68444 0.72029 0.98695 0.0
C496 C 0.6483 0.73896 0.98276 0.0
C497 C 0.62419 0.72575 0.96709 0.0
C498 C 0.59042 0.74358 0.963 0.0
C499 C 0.58035 0.77463 0.97452 0.0
C500 C 0.60402 0.78789 0.99016 0.0
C501 C 0.63782 0.77018 0.99431 0.0
H502 H 0.55421 0.7884 0.97132 0.0
H503 H 0.88552 0.62168 0.01077 0.0
H504 H 0.02779 0.1718 0.10826 0.0
H505 H 0.98761 0.11184 0.10569 0.0
H506 H 0.08728 0.05102 0.09109 0.0
H507 H 0.12764 0.11095 0.09333 0.0
H508 H 0.02647 0.02673 0.06845 0.0
H509 H 0.05207 0.04812 0.13774 0.0
H510 H 0.05455 0.0846 0.16915 0.0
H511 H 0.93228 0.09137 0.16739 0.0
H512 H 0.92914 0.05537 0.13579 0.0
H513 H 0.95394 0.83707 0.09491 0.0
H514 H 0.99057 0.8991 0.09181 0.0
H515 H 0.88847 0.95743 0.10462 0.0
H516 H 0.85164 0.89558 0.10785 0.0
H517 H 0.94922 0.98364 0.12729 0.0
H518 H 0.92442 0.95839 0.05809 0.0
H519 H 0.92378 0.92075 0.02705 0.0
H520 H 0.04655 0.91928 0.02922 0.0
H521 H 0.04791 0.95651 0.06041 0.0
C522 C 0.04116 0.14573 0.10437 0.0
C523 C 0.08097 0.14609 0.10116 0.0
C524 C 0.01816 0.11147 0.10296 0.0
C525 C 0.03456 0.07691 0.09847 0.0
C526 C 0.07407 0.07738 0.09461 0.0
C527 C 0.0971 0.11165 0.09597 0.0
C528 C 0.01076 0.04006 0.0985 0.0
C529 C 0.00985 0.01708 0.08136 0.0
C530 C 0.98865 0.02782 0.11527 0.0
C531 C 0.99043 0.04942 0.13428 0.0
C532 C 0.02575 0.05767 0.14396 0.0
C533 C 0.02727 0.07821 0.16181 0.0
C534 C 0.99361 0.0904 0.17023 0.0
C535 C 0.95834 0.08197 0.16083 0.0
C536 C 0.95667 0.06148 0.14295 0.0
C537 C 0.9392 0.86309 0.09692 0.0
C538 C 0.8999 0.8614 0.10168 0.0
C539 C 0.96014 0.89851 0.09504 0.0
C540 C 0.94215 0.93284 0.09785 0.0
C541 C 0.90285 0.93124 0.10236 0.0
C542 C 0.88186 0.89587 0.10417 0.0
C543 C 0.96475 0.97033 0.0972 0.0
C544 C 0.96558 0.99338 0.1143 0.0
C545 C 0.98699 0.98239 0.08045 0.0
C546 C 0.98622 0.95992 0.06171 0.0
C547 C 0.95126 0.94975 0.05205 0.0
C548 C 0.95077 0.92856 0.0344 0.0
C549 C 0.9851 0.91752 0.02621 0.0
C550 C 0.01999 0.92779 0.0356 0.0
C551 C 0.02063 0.94898 0.05325 0.0
H552 H 0.98468 0.90105 0.01257 0.0
H553 H 0.99485 0.10628 0.18405 0.0
H554 H 0.1118 0.36941 0.36577 0.0
H555 H 0.05718 0.40939 0.36477 0.0
H556 H 0.13364 0.51093 0.37207 0.0
H557 H 0.18852 0.47107 0.37335 0.0
H558 H 0.07242 0.51224 0.39625 0.0
H559 H 0.09376 0.48911 0.32714 0.0
H560 H 0.10328 0.45012 0.29721 0.0
H561 H 0.99196 0.3919 0.30533 0.0
H562 H 0.98198 0.43019 0.33548 0.0
H563 H 0.93405 0.64538 0.37302 0.0
H564 H 0.99072 0.60807 0.37188 0.0
H565 H 0.918 0.50346 0.36679 0.0
H566 H 0.86113 0.54052 0.36779 0.0
H567 H 0.9785 0.50552 0.34077 0.0
H568 H 0.95831 0.5273 0.41047 0.0
H569 H 0.94885 0.5664 0.44036 0.0
H570 H 0.05838 0.62747 0.43091 0.0
H571 H 0.06827 0.58906 0.40078 0.0
C572 C 0.11707 0.40026 0.36711 0.0
C573 C 0.15451 0.41708 0.36961 0.0
C574 C 0.08581 0.42308 0.36644 0.0
C575 C 0.09141 0.46316 0.36812 0.0
C576 C 0.12873 0.48005 0.37071 0.0
C577 C 0.16004 0.45723 0.37139 0.0
C578 C 0.05818 0.48731 0.36766 0.0
C579 C 0.05222 0.51124 0.38397 0.0
C580 C 0.0314 0.48533 0.35183 0.0
C581 C 0.03728 0.46228 0.33368 0.0
C582 C 0.07144 0.46778 0.32264 0.0
C583 C 0.07689 0.44584 0.30562 0.0
C584 C 0.04828 0.41848 0.2994 0.0
C585 C 0.01411 0.41307 0.31018 0.0
C586 C 0.00853 0.43491 0.32722 0.0
C587 C 0.93008 0.61444 0.37162 0.0
C588 C 0.89309 0.59588 0.37058 0.0
C589 C 0.9625 0.59318 0.37103 0.0
C590 C 0.9585 0.55301 0.36944 0.0
C591 C 0.92166 0.53445 0.36804 0.0
C592 C 0.88922 0.55567 0.36869 0.0
C593 C 0.99273 0.53027 0.36938 0.0
C594 C 0.99883 0.50661 0.35299 0.0
C595 C 0.01968 0.53252 0.38511 0.0
C596 C 0.01384 0.55558 0.40325 0.0
C597 C 0.98024 0.54929 0.41467 0.0
C598 C 0.97482 0.57128 0.43167 0.0
C599 C 0.00294 0.59948 0.4375 0.0
C600 C 0.03659 0.60566 0.42636 0.0
C601 C 0.04213 0.58377 0.40932 0.0
H602 H 0.9987 0.61647 0.45067 0.0
H603 H 0.05256 0.40154 0.28622 0.0
H604 H 0.39296 0.35803 0.64001 0.0
H605 H 0.42466 0.42241 0.63727 0.0
H606 H 0.48563 0.38768 0.58525 0.0
H607 H 0.45414 0.32296 0.58791 0.0
H608 H 0.53214 0.43046 0.61149 0.0
H609 H 0.41006 0.43935 0.57952 0.0
H610 H 0.3395 0.43175 0.577 0.0
H611 H 0.32927 0.50683 0.62699 0.0
H612 H 0.39981 0.51445 0.62998 0.0
H613 H 0.59764 0.61733 0.58031 0.0
H614 H 0.56623 0.55261 0.58131 0.0
H615 H 0.49529 0.58574 0.63005 0.0
H616 H 0.52589 0.65087 0.6288 0.0
H617 H 0.45388 0.54312 0.60454 0.0
H618 H 0.57488 0.53337 0.63741 0.0
H619 H 0.64533 0.54062 0.64084 0.0
H620 H 0.65764 0.46708 0.59041 0.0
H621 H 0.58725 0.45979 0.58652 0.0
C622 C 0.41323 0.36396 0.62802 0.0
C623 C 0.4209 0.3354 0.61412 0.0
C624 C 0.4312 0.40083 0.62644 0.0
C625 C 0.4571 0.40989 0.61091 0.0
C626 C 0.46561 0.38124 0.5973 0.0
C627 C 0.44753 0.34433 0.59883 0.0
C628 C 0.47501 0.44942 0.60882 0.0
C629 C 0.51512 0.45509 0.60968 0.0
C630 C 0.45265 0.48153 0.60693 0.0
C631 C 0.41022 0.47718 0.60508 0.0
C632 C 0.39277 0.454 0.59007 0.0
C633 C 0.35277 0.44973 0.58854 0.0
C634 C 0.32991 0.46872 0.60185 0.0
C635 C 0.34701 0.49211 0.6167 0.0
C636 C 0.387 0.49644 0.61831 0.0
C637 C 0.57524 0.6109 0.5912 0.0
C638 C 0.56437 0.63917 0.60454 0.0
C639 C 0.55744 0.57383 0.59181 0.0
C640 C 0.52887 0.56413 0.60598 0.0
C641 C 0.51735 0.59255 0.61902 0.0
C642 C 0.53489 0.62975 0.6183 0.0
C643 C 0.51112 0.52432 0.60732 0.0
C644 C 0.471 0.51856 0.60631 0.0
C645 C 0.53348 0.49214 0.6092 0.0
C646 C 0.57581 0.49635 0.61156 0.0
C647 C 0.59262 0.51897 0.62696 0.0
C648 C 0.63254 0.52305 0.629 0.0
C649 C 0.65595 0.5044 0.61582 0.0
C650 C 0.63948 0.48155 0.6006 0.0
C651 C 0.59957 0.47741 0.59847 0.0
H652 H 0.68685 0.5076 0.61742 0.0
H653 H 0.29895 0.46538 0.60064 0.0
H654 H 0.59616 0.8622 0.86962 0.0
H655 H 0.54072 0.90087 0.8673 0.0
H656 H 0.61621 0.00394 0.86374 0.0
H657 H 0.67187 0.96548 0.86654 0.0
H658 H 0.56097 0.01336 0.88933 0.0
H659 H 0.56661 0.96736 0.82268 0.0
H660 H 0.57001 0.91944 0.79593 0.0
H661 H 0.46229 0.86446 0.81482 0.0
H662 H 0.45848 0.91175 0.84187 0.0
H663 H 0.41498 0.13574 0.86293 0.0
H664 H 0.47138 0.09829 0.86028 0.0
H665 H 0.40124 0.99451 0.8729 0.0
H666 H 0.34458 0.03175 0.87568 0.0
H667 H 0.45438 0.98729 0.84135 0.0
H668 H 0.45149 0.03311 0.90901 0.0
H669 H 0.44858 0.08264 0.93499 0.0
H670 H 0.55272 0.13994 0.91278 0.0
H671 H 0.55595 0.09102 0.88646 0.0
C672 C 0.60101 0.89307 0.86822 0.0
C673 C 0.63841 0.91078 0.86829 0.0
C674 C 0.56926 0.91514 0.86678 0.0
C675 C 0.57431 0.95528 0.86511 0.0
C676 C 0.61165 0.973 0.865 0.0
C677 C 0.64342 0.95097 0.86657 0.0
C678 C 0.5406 0.97887 0.8644 0.0
C679 C 0.53801 0.00804 0.8786 0.0
C680 C 0.51025 0.97147 0.85066 0.0
C681 C 0.51245 0.94291 0.83443 0.0
C682 C 0.5438 0.94486 0.82124 0.0
C683 C 0.54577 0.91785 0.806 0.0
C684 C 0.51644 0.88887 0.8037 0.0
C685 C 0.48502 0.8869 0.81662 0.0
C686 C 0.48292 0.91383 0.8319 0.0
C687 C 0.41146 0.10492 0.86502 0.0
C688 C 0.37537 0.08671 0.86964 0.0
C689 C 0.44372 0.08361 0.86353 0.0
C690 C 0.44042 0.04374 0.86654 0.0
C691 C 0.40428 0.02529 0.87054 0.0
C692 C 0.37203 0.04662 0.87221 0.0
C693 C 0.47494 0.0215 0.86626 0.0
C694 C 0.47757 0.99262 0.85194 0.0
C695 C 0.50551 0.02933 0.87976 0.0
C696 C 0.50373 0.05864 0.89564 0.0
C697 C 0.47359 0.05646 0.90956 0.0
C698 C 0.47192 0.08438 0.92437 0.0
C699 C 0.50039 0.11448 0.9255 0.0
C700 C 0.53066 0.11665 0.91186 0.0
C701 C 0.53243 0.08881 0.89701 0.0
H702 H 0.49904 0.13607 0.93698 0.0
H703 H 0.51801 0.86799 0.79189 0.0
H704 H 0.94689 0.65839 0.09297 0.0
H705 H 0.98219 0.60085 0.08874 0.0
H706 H 0.92625 0.5502 0.14058 0.0
H707 H 0.89109 0.60773 0.14507 0.0
H708 H 0.00316 0.54014 0.14005 0.0
H709 H 0.89603 0.5239 0.09473 0.0
H710 H 0.85492 0.54389 0.06732 0.0
H711 H 0.95132 0.54828 0.02755 0.0
H712 H 0.99316 0.52883 0.05481 0.0
H713 H 0.04371 0.34714 0.12872 0.0
H714 H 0.01081 0.40632 0.13155 0.0
H715 H 0.0619 0.447 0.07634 0.0
H716 H 0.094 0.38715 0.07307 0.0
H717 H 0.98979 0.4641 0.0778 0.0
H718 H 0.09692 0.4794 0.12216 0.0
H719 H 0.13954 0.46151 0.14937 0.0
H720 H 0.04559 0.46116 0.19058 0.0
H721 H 0.00227 0.47854 0.16356 0.0
C722 C 0.94222 0.6351 0.10354 0.0
C723 C 0.91606 0.63756 0.11932 0.0
C724 C 0.9623 0.60219 0.10104 0.0
C725 C 0.95646 0.57113 0.11421 0.0
C726 C 0.93107 0.57385 0.13023 0.0
C727 C 0.91095 0.60672 0.13274 0.0
C728 C 0.97649 0.53555 0.11122 0.0
C729 C -7e-05 0.52323 0.12655 0.0
C730 C 0.97307 0.51422 0.09334 0.0
C731 C 0.9478 0.52526 0.07686 0.0
C732 C 0.90852 0.52936 0.08017 0.0
C733 C 0.88508 0.54057 0.06466 0.0
C734 C 0.90052 0.54745 0.04571 0.0
C735 C 0.93941 0.54299 0.04223 0.0
C736 C 0.96299 0.53184 0.0577 0.0
C737 C 0.04788 0.36863 0.11714 0.0
C738 C 0.07166 0.36261 0.10073 0.0
C739 C 0.02918 0.40254 0.11882 0.0
C740 C 0.03451 0.43147 0.10436 0.0
C741 C 0.0575 0.42515 0.08772 0.0
C742 C 0.07586 0.39097 0.08589 0.0
C743 C 0.01626 0.46836 0.10675 0.0
C744 C 0.99319 0.481 0.0913 0.0
C745 C 0.02024 0.4902 0.12447 0.0
C746 C 0.04628 0.47996 0.14079 0.0
C747 C 0.08529 0.47526 0.137 0.0
C748 C 0.10958 0.46524 0.15239 0.0
C749 C 0.09526 0.46012 0.17168 0.0
C750 C 0.05663 0.4651 0.17563 0.0
C751 C 0.03221 0.47508 0.16028 0.0
H752 H 0.11411 0.45235 0.18358 0.0
H753 H 0.88233 0.55615 0.03373 0.0
H754 H 0.41499 0.36243 0.38909 0.0
H755 H 0.47617 0.40059 0.39127 0.0
H756 H 0.41763 0.50424 0.38244 0.0
H757 H 0.35656 0.46604 0.37942 0.0
H758 H 0.4794 0.50876 0.36163 0.0
H759 H 0.4514 0.47575 0.4293 0.0
H760 H 0.43448 0.43307 0.45766 0.0
H761 H 0.53708 0.37429 0.44857 0.0
H762 H 0.55437 0.41631 0.41996 0.0
H763 H 0.63289 0.63727 0.39601 0.0
H764 H 0.5717 0.59853 0.39648 0.0
H765 H 0.63125 0.49613 0.38642 0.0
H766 H 0.69262 0.53472 0.38551 0.0
H767 H 0.56958 0.4922 0.41753 0.0
H768 H 0.59513 0.5271 0.34876 0.0
H769 H 0.61134 0.57334 0.32179 0.0
H770 H 0.51095 0.63295 0.33517 0.0
H771 H 0.49448 0.58738 0.36245 0.0
C772 C 0.41516 0.39336 0.38763 0.0
C773 C 0.38097 0.41126 0.38415 0.0
C774 C 0.45014 0.41518 0.389 0.0
C775 C 0.45149 0.45541 0.38739 0.0
C776 C 0.41735 0.47328 0.38377 0.0
C777 C 0.38245 0.45141 0.38208 0.0
C778 C 0.48854 0.4788 0.38912 0.0
C779 C 0.49877 0.50543 0.37403 0.0
C780 C 0.51424 0.47422 0.40514 0.0
C781 C 0.50399 0.44895 0.42237 0.0
C782 C 0.47022 0.45354 0.43325 0.0
C783 C 0.46058 0.4295 0.44939 0.0
C784 C 0.48464 0.40092 0.45488 0.0
C785 C 0.51845 0.39641 0.44428 0.0
C786 C 0.5282 0.42035 0.42811 0.0
C787 C 0.63303 0.60646 0.39409 0.0
C788 C 0.66749 0.58901 0.39059 0.0
C789 C 0.59808 0.58445 0.39434 0.0
C790 C 0.59713 0.54462 0.39139 0.0
C791 C 0.63156 0.52687 0.38872 0.0
C792 C 0.66648 0.54895 0.38813 0.0
C793 C 0.56002 0.52177 0.3901 0.0
C794 C 0.54993 0.49537 0.40523 0.0
C795 C 0.53419 0.52694 0.37432 0.0
C796 C 0.54382 0.55409 0.35778 0.0
C797 C 0.57671 0.55028 0.34607 0.0
C798 C 0.5859 0.57632 0.3307 0.0
C799 C 0.56225 0.60613 0.32681 0.0
C800 C 0.52928 0.60988 0.33823 0.0
C801 C 0.51999 0.58394 0.35363 0.0
H802 H 0.56942 0.62627 0.31491 0.0
H803 H 0.47713 0.38234 0.46738 0.0
H804 H 0.44031 0.16078 0.62551 0.0
H805 H 0.47869 0.10494 0.62393 0.0
H806 H 0.38798 0.03599 0.65314 0.0
H807 H 0.3497 0.0919 0.65516 0.0
H808 H 0.45681 0.01974 0.66734 0.0
H809 H 0.3997 0.03188 0.60291 0.0
H810 H 0.38359 0.06526 0.57201 0.0
H811 H 0.50341 0.08425 0.55805 0.0
H812 H 0.52026 0.05145 0.58903 0.0
H813 H 0.51421 0.83556 0.6371 0.0
H814 H 0.47856 0.89288 0.64194 0.0
H815 H 0.57384 0.96361 0.61802 0.0
H816 H 0.60974 0.90667 0.61325 0.0
H817 H 0.50319 0.97877 0.60145 0.0
H818 H 0.55986 0.96464 0.66576 0.0
H819 H 0.5752 0.92988 0.69634 0.0
H820 H 0.45518 0.91319 0.71027 0.0
H821 H 0.43906 0.94727 0.67955 0.0
C822 C 0.42858 0.1338 0.63169 0.0
C823 C 0.39182 0.13071 0.64033 0.0
C824 C 0.45051 0.10187 0.63072 0.0
C825 C 0.43594 0.06616 0.63814 0.0
C826 C 0.39974 0.06326 0.64728 0.0
C827 C 0.37785 0.09523 0.64836 0.0
C828 C 0.45802 0.03162 0.63588 0.0
C829 C 0.46655 0.01051 0.65291 0.0
C830 C 0.4713 0.01997 0.61709 0.0
C831 C 0.46124 0.03955 0.59839 0.0
C832 C 0.42262 0.04343 0.59333 0.0
C833 C 0.41336 0.06221 0.57579 0.0
C834 C 0.44246 0.07696 0.5631 0.0
C835 C 0.4809 0.07286 0.56791 0.0
C836 C 0.49032 0.05416 0.58545 0.0
C837 C 0.52759 0.86333 0.63292 0.0
C838 C 0.56477 0.8666 0.62479 0.0
C839 C 0.50726 0.89602 0.63576 0.0
C840 C 0.52369 0.93241 0.6304 0.0
C841 C 0.56071 0.93574 0.62224 0.0
C842 C 0.58119 0.90318 0.61959 0.0
C843 C 0.50198 0.96702 0.63288 0.0
C844 C 0.49347 0.98808 0.61588 0.0
C845 C 0.48861 0.97845 0.65167 0.0
C846 C 0.49823 0.95817 0.67023 0.0
C847 C 0.5367 0.95326 0.67524 0.0
C848 C 0.54555 0.93373 0.69262 0.0
C849 C 0.51618 0.91926 0.70522 0.0
C850 C 0.4779 0.92437 0.70048 0.0
C851 C 0.46889 0.94381 0.68309 0.0
H852 H 0.52308 0.90416 0.71867 0.0
H853 H 0.43523 0.09148 0.54952 0.0
H854 H 0.89523 0.86476 0.90319 0.0
H855 H 0.95616 0.90334 0.90602 0.0
H856 H 0.90181 0.00272 0.88459 0.0
H857 H 0.84093 0.96432 0.88149 0.0
H858 H 0.96735 0.9942 0.86539 0.0
H859 H 0.92649 0.99522 0.93301 0.0
H860 H 0.90338 0.96816 0.96504 0.0
H861 H 0.00545 0.90714 0.97065 0.0
H862 H 0.02894 0.93336 0.93845 0.0
H863 H 0.11563 0.13557 0.88814 0.0
H864 H 0.05444 0.09729 0.88991 0.0
H865 H 0.11417 0.99583 0.90223 0.0
H866 H 0.17579 0.0339 0.90031 0.0
H867 H 0.04671 0.00528 0.92661 0.0
H868 H 0.08596 0.00477 0.85791 0.0
H869 H 0.10845 0.03474 0.82641 0.0
H870 H 0.00756 0.09823 0.82379 0.0
H871 H 0.9847 0.06901 0.85545 0.0
C872 C 0.89617 0.89489 0.8992 0.0
C873 C 0.86325 0.91145 0.89207 0.0
C874 C 0.93098 0.91694 0.90092 0.0
C875 C 0.93345 0.95596 0.89563 0.0
C876 C 0.90053 0.97265 0.88874 0.0
C877 C 0.86574 0.95066 0.88702 0.0
C878 C 0.97073 0.97897 0.89638 0.0
C879 C 0.9844 0.99702 0.87887 0.0
C880 C 0.99336 0.98198 0.91386 0.0
C881 C 0.97926 0.9659 0.93318 0.0
C882 C 0.94384 0.97571 0.94095 0.0
C883 C 0.93071 0.96059 0.95917 0.0
C884 C 0.95287 0.93584 0.96984 0.0
C885 C 0.98828 0.92624 0.96234 0.0
C886 C 0.00152 0.94124 0.94411 0.0
C887 C 0.11582 0.10518 0.89138 0.0
C888 C 0.15055 0.08769 0.89398 0.0
C889 C 0.08083 0.08337 0.89235 0.0
C890 C 0.07993 0.04378 0.89608 0.0
C891 C 0.1144 0.0264 0.89935 0.0
C892 C 0.14951 0.04813 0.89815 0.0
C893 C 0.04299 0.0204 0.89567 0.0
C894 C 0.0295 0.00231 0.9132 0.0
C895 C 0.0203 0.01757 0.87826 0.0
C896 C 0.03382 0.03499 0.85915 0.0
C897 C 0.06873 0.02537 0.85071 0.0
C898 C 0.08151 0.04217 0.83281 0.0
C899 C 0.05949 0.06844 0.82313 0.0
C900 C 0.0246 0.0779 0.83132 0.0
C901 C 0.0117 0.0612 0.84923 0.0
H902 H 0.06943 0.08136 0.80927 0.0
H903 H 0.9426 0.92417 0.98392 0.0
loop_
_geom_bond_atom_site_label_1
_geom_bond_atom_site_label_2
_geom_bond_distance
_geom_bond_site_symmetry_2
_ccdc_geom_bond_type
C0 O1 1.160 . S
C0 O7 1.185 . S
O1 C0 1.160 . S
O2 Zn3 1.899 . S
O2 C10 1.284 . S
Zn3 O2 1.899 . S
Zn3 O4 2.032 . S
Zn3 O7 2.086 . S
Zn3 O12 1.977 . S
O4 Zn3 2.032 . S
O4 C8 1.278 . S
C5 O6 1.203 . S
C5 O12 1.267 . S
O6 C5 1.203 . S
O7 C0 1.185 . S
O7 Zn3 2.086 . S
C8 O4 1.278 . S
C8 O9 1.211 . S
O9 C8 1.211 . S
C10 O2 1.284 . S
C10 O11 1.273 . S
O11 C10 1.273 . S
O12 Zn3 1.977 . S
O12 C5 1.267 . S
C13 O14 1.160 . S
C13 O20 1.185 . S
O14 C13 1.160 . S
O15 Zn16 1.899 . S
O15 C23 1.284 . S
Zn16 O15 1.899 . S
Zn16 O17 2.032 . S
Zn16 O20 2.086 . S
Zn16 O25 1.977 . S
O17 Zn16 2.032 . S
O17 C21 1.278 . S
C18 O19 1.203 . S
C18 O25 1.267 . S
O19 C18 1.203 . S
O20 C13 1.185 . S
O20 Zn16 2.086 . S
C21 O17 1.278 . S
C21 O22 1.211 . S
O22 C21 1.211 . S
C23 O15 1.284 . S
C23 O24 1.273 . S
O24 C23 1.273 . S
O25 Zn16 1.977 . S
O25 C18 1.267 . S
C26 O27 1.160 . S
C26 O33 1.185 . S
O27 C26 1.160 . S
O28 Zn29 1.899 . S
O28 C36 1.284 . S
Zn29 O28 1.899 . S
Zn29 O30 2.032 . S
Zn29 O33 2.086 . S
Zn29 O38 1.977 . S
O30 Zn29 2.032 . S
O30 C34 1.278 . S
C31 O32 1.203 . S
C31 O38 1.267 . S
O32 C31 1.203 . S
O33 C26 1.185 . S
O33 Zn29 2.086 . S
C34 O30 1.278 . S
C34 O35 1.211 . S
O35 C34 1.211 . S
C36 O28 1.284 . S
C36 O37 1.273 . S
O37 C36 1.273 . S
O38 Zn29 1.977 . S
O38 C31 1.267 . S
C39 O40 1.160 . S
C39 O46 1.185 . S
O40 C39 1.160 . S
O41 Zn42 1.899 . S
O41 C49 1.284 . S
Zn42 O41 1.899 . S
Zn42 O43 2.032 . S
Zn42 O46 2.086 . S
Zn42 O51 1.977 . S
O43 Zn42 2.032 . S
O43 C47 1.278 . S
C44 O45 1.203 . S
C44 O51 1.267 . S
O45 C44 1.203 . S
O46 C39 1.185 . S
O46 Zn42 2.086 . S
C47 O43 1.278 . S
C47 O48 1.211 . S
O48 C47 1.211 . S
C49 O41 1.284 . S
C49 O50 1.273 . S
O50 C49 1.273 . S
O51 Zn42 1.977 . S
O51 C44 1.267 . S
C52 O53 1.160 . S
C52 O59 1.185 . S
O53 C52 1.160 . S
O54 Zn55 1.899 . S
O54 C62 1.284 . S
Zn55 O54 1.899 . S
Zn55 O56 2.032 . S
Zn55 O59 2.086 . S
Zn55 O64 1.977 . S
O56 Zn55 2.032 . S
O56 C60 1.278 . S
C57 O58 1.203 . S
C57 O64 1.267 . S
O58 C57 1.203 . S
O59 C52 1.185 . S
O59 Zn55 2.086 . S
C60 O56 1.278 . S
C60 O61 1.211 . S
O61 C60 1.211 . S
C62 O54 1.284 . S
C62 O63 1.273 . S
O63 C62 1.273 . S
O64 Zn55 1.977 . S
O64 C57 1.267 . S
C65 O66 1.160 . S
C65 O72 1.185 . S
O66 C65 1.160 . S
O67 Zn68 1.899 . S
O67 C75 1.284 . S
Zn68 O67 1.899 . S
Zn68 O69 2.032 . S
Zn68 O72 2.086 . S
Zn68 O77 1.977 . S
O69 Zn68 2.032 . S
O69 C73 1.278 . S
C70 O71 1.203 . S
C70 O77 1.267 . S
O71 C70 1.203 . S
O72 C65 1.185 . S
O72 Zn68 2.086 . S
C73 O69 1.278 . S
C73 O74 1.211 . S
O74 C73 1.211 . S
C75 O67 1.284 . S
C75 O76 1.273 . S
O76 C75 1.273 . S
O77 Zn68 1.977 . S
O77 C70 1.267 . S
C78 O79 1.160 . S
C78 O85 1.185 . S
O79 C78 1.160 . S
O80 Zn81 1.899 . S
O80 C88 1.284 . S
Zn81 O80 1.899 . S
Zn81 O82 2.032 . S
Zn81 O85 2.086 . S
Zn81 O90 1.977 . S
O82 Zn81 2.032 . S
O82 C86 1.278 . S
C83 O84 1.203 . S
C83 O90 1.267 . S
O84 C83 1.203 . S
O85 C78 1.185 . S
O85 Zn81 2.086 . S
C86 O82 1.278 . S
C86 O87 1.211 . S
O87 C86 1.211 . S
C88 O80 1.284 . S
C88 O89 1.273 . S
O89 C88 1.273 . S
O90 Zn81 1.977 . S
O90 C83 1.267 . S
C91 O92 1.160 . S
C91 O98 1.185 . S
O92 C91 1.160 . S
O93 Zn94 1.899 . S
O93 C101 1.284 . S
Zn94 O93 1.899 . S
Zn94 O95 2.032 . S
Zn94 O98 2.086 . S
Zn94 O103 1.977 . S
O95 Zn94 2.032 . S
O95 C99 1.278 . S
C96 O97 1.203 . S
C96 O103 1.267 . S
O97 C96 1.203 . S
O98 C91 1.185 . S
O98 Zn94 2.086 . S
C99 O95 1.278 . S
C99 O100 1.211 . S
O100 C99 1.211 . S
C101 O93 1.284 . S
C101 O102 1.273 . S
O102 C101 1.273 . S
O103 Zn94 1.977 . S
O103 C96 1.267 . S
H104 C122 0.951 . S
H105 C124 0.951 . S
H106 C126 0.950 . S
H107 C127 0.950 . S
H108 C129 0.950 . S
H109 C132 0.950 . S
H110 C133 0.950 . S
H111 C135 0.950 . S
H112 C136 0.950 . S
H113 C137 0.951 . S
H114 C139 0.951 . S
H115 C141 0.950 . S
H116 C142 0.950 . S
H117 C144 0.950 . S
H118 C147 0.950 . S
H119 C148 0.950 . S
H120 C150 0.950 . S
H121 C151 0.950 . S
C122 H104 0.951 . S
C122 C123 1.366 . S
C122 C124 1.388 . S
C123 C122 1.366 . S
C123 C127 1.385 . S
C124 H105 0.951 . S
C124 C122 1.388 . S
C124 C125 1.366 . S
C125 C124 1.366 . S
C125 C126 1.414 . S
C125 C128 1.499 . S
C126 H106 0.950 . S
C126 C125 1.414 . S
C126 C127 1.374 . S
C127 H107 0.950 . S
C127 C123 1.385 . S
C127 C126 1.374 . S
C128 C125 1.499 . S
C128 C129 1.373 . S
C128 C130 1.389 . S
C129 H108 0.950 . S
C129 C128 1.373 . S
C129 C145 1.377 1_554 S
C130 C128 1.389 . S
C130 C131 1.524 . S
C130 C144 1.377 1_554 S
C131 C130 1.524 . S
C131 C132 1.397 . S
C131 C136 1.363 . S
C132 H109 0.950 . S
C132 C131 1.397 . S
C132 C133 1.334 . S
C133 H110 0.950 . S
C133 C132 1.334 . S
C133 C134 1.287 . S
C134 C133 1.287 . S
C134 C135 1.524 . S
C134 H153 0.913 . S
C135 H111 0.950 . S
C135 C134 1.524 . S
C135 C136 1.415 . S
C136 H112 0.950 . S
C136 C131 1.363 . S
C136 C135 1.415 . S
C137 H113 0.951 . S
C137 C138 1.366 . S
C137 C139 1.388 . S
C138 C137 1.366 . S
C138 C142 1.385 . S
C139 H114 0.951 . S
C139 C137 1.388 . S
C139 C140 1.366 . S
C140 C139 1.366 . S
C140 C141 1.414 . S
C140 C143 1.499 . S
C141 H115 0.950 . S
C141 C140 1.414 . S
C141 C142 1.374 . S
C142 H116 0.950 . S
C142 C138 1.385 . S
C142 C141 1.374 . S
C143 C140 1.499 . S
C143 C144 1.373 . S
C143 C145 1.389 . S
C144 H117 0.950 . S
C144 C130 1.377 1_556 S
C144 C143 1.373 . S
C145 C129 1.377 1_556 S
C145 C143 1.389 . S
C145 C146 1.524 . S
C146 C145 1.524 . S
C146 C147 1.397 . S
C146 C151 1.363 . S
C147 H118 0.950 . S
C147 C146 1.397 . S
C147 C148 1.334 . S
C148 H119 0.950 . S
C148 C147 1.334 . S
C148 C149 1.287 . S
C149 C148 1.287 . S
C149 C150 1.524 . S
C149 H152 0.999 . S
C150 H120 0.950 . S
C150 C149 1.524 . S
C150 C151 1.415 . S
C151 H121 0.950 . S
C151 C146 1.363 . S
C151 C150 1.415 . S
H152 C149 0.999 . S
H153 C134 0.913 . S
H154 C172 0.951 . S
H155 C174 0.951 . S
H156 C176 0.950 . S
H157 C177 0.950 . S
H158 C179 0.950 . S
H159 C182 0.950 . S
H160 C183 0.950 . S
H161 C185 0.950 . S
H162 C186 0.950 . S
H163 C187 0.951 . S
H164 C189 0.951 . S
H165 C191 0.950 . S
H166 C192 0.950 . S
H167 C194 0.950 . S
H168 C197 0.950 . S
H169 C198 0.950 . S
H170 C200 0.950 . S
H171 C201 0.950 . S
C172 H154 0.951 . S
C172 C173 1.366 . S
C172 C174 1.388 . S
C173 C172 1.366 . S
C173 C177 1.385 . S
C174 H155 0.951 . S
C174 C172 1.388 . S
C174 C175 1.366 . S
C175 C174 1.366 . S
C175 C176 1.414 . S
C175 C178 1.499 . S
C176 H156 0.950 . S
C176 C175 1.414 . S
C176 C177 1.374 . S
C177 H157 0.950 . S
C177 C173 1.385 . S
C177 C176 1.374 . S
C178 C175 1.499 . S
C178 C179 1.373 . S
C178 C180 1.389 . S
C179 H158 0.950 . S
C179 C178 1.373 . S
C179 C195 1.377 . S
C180 C178 1.389 . S
C180 C181 1.524 . S
C180 C194 1.377 . S
C181 C180 1.524 . S
C181 C182 1.397 . S
C181 C186 1.363 . S
C182 H159 0.950 . S
C182 C181 1.397 . S
C182 C183 1.334 . S
C183 H160 0.950 . S
C183 C182 1.334 . S
C183 C184 1.287 . S
C184 C183 1.287 . S
C184 C185 1.524 . S
C184 H203 0.913 . S
C185 H161 0.950 . S
C185 C184 1.524 . S
C185 C186 1.415 . S
C186 H162 0.950 . S
C186 C181 1.363 . S
C186 C185 1.415 . S
C187 H163 0.951 . S
C187 C188 1.366 . S
C187 C189 1.388 . S
C188 C187 1.366 . S
C188 C192 1.385 . S
C189 H164 0.951 . S
C189 C187 1.388 . S
C189 C190 1.366 . S
C190 C189 1.366 . S
C190 C191 1.414 . S
C190 C193 1.499 . S
C191 H165 0.950 . S
C191 C190 1.414 . S
C191 C192 1.374 . S
C192 H166 0.950 . S
C192 C188 1.385 . S
C192 C191 1.374 . S
C193 C190 1.499 . S
C193 C194 1.373 . S
C193 C195 1.389 . S
C194 H167 0.950 . S
C194 C180 1.377 . S
C194 C193 1.373 . S
C195 C179 1.377 . S
C195 C193 1.389 . S
C195 C196 1.524 . S
C196 C195 1.524 . S
C196 C197 1.397 . S
C196 C201 1.363 . S
C197 H168 0.950 . S
C197 C196 1.397 . S
C197 C198 1.334 . S
C198 H169 0.950 . S
C198 C197 1.334 . S
C198 C199 1.287 . S
C199 C198 1.287 . S
C199 C200 1.524 . S
C199 H202 0.999 . S
C200 H170 0.950 . S
C200 C199 1.524 . S
C200 C201 1.415 . S
C201 H171 0.950 . S
C201 C196 1.363 . S
C201 C200 1.415 . S
H202 C199 0.999 . S
H203 C184 0.913 . S
H204 C222 0.951 . S
H205 C224 0.951 . S
H206 C226 0.950 . S
H207 C227 0.950 . S
H208 C229 0.950 . S
H209 C232 0.950 . S
H210 C233 0.950 . S
H211 C235 0.950 . S
H212 C236 0.950 . S
H213 C237 0.951 . S
H214 C239 0.951 . S
H215 C241 0.950 . S
H216 C242 0.950 . S
H217 C244 0.950 . S
H218 C247 0.950 . S
H219 C248 0.950 . S
H220 C250 0.950 . S
H221 C251 0.950 . S
C222 H204 0.951 . S
C222 C223 1.366 . S
C222 C224 1.388 . S
C223 C222 1.366 . S
C223 C227 1.385 . S
C224 H205 0.951 . S
C224 C222 1.388 . S
C224 C225 1.366 . S
C225 C224 1.366 . S
C225 C226 1.414 . S
C225 C228 1.499 . S
C226 H206 0.950 . S
C226 C225 1.414 . S
C226 C227 1.374 . S
C227 H207 0.950 . S
C227 C223 1.385 . S
C227 C226 1.374 . S
C228 C225 1.499 . S
C228 C229 1.373 . S
C228 C230 1.389 . S
C229 H208 0.950 . S
C229 C228 1.373 . S
C229 C245 1.377 . S
C230 C228 1.389 . S
C230 C231 1.524 . S
C230 C244 1.377 . S
C231 C230 1.524 . S
C231 C232 1.397 . S
C231 C236 1.363 . S
C232 H209 0.950 . S
C232 C231 1.397 . S
C232 C233 1.334 . S
C233 H210 0.950 . S
C233 C232 1.334 . S
C233 C234 1.287 . S
C234 C233 1.287 . S
C234 C235 1.524 . S
C234 H253 0.913 . S
C235 H211 0.950 . S
C235 C234 1.524 . S
C235 C236 1.415 . S
C236 H212 0.950 . S
C236 C231 1.363 . S
C236 C235 1.415 . S
C237 H213 0.951 . S
C237 C238 1.366 . S
C237 C239 1.388 . S
C238 C237 1.366 . S
C238 C242 1.385 . S
C239 H214 0.951 . S
C239 C237 1.388 . S
C239 C240 1.366 . S
C240 C239 1.366 . S
C240 C241 1.414 . S
C240 C243 1.499 . S
C241 H215 0.950 . S
C241 C240 1.414 . S
C241 C242 1.374 . S
C242 H216 0.950 . S
C242 C238 1.385 . S
C242 C241 1.374 . S
C243 C240 1.499 . S
C243 C244 1.373 . S
C243 C245 1.389 . S
C244 H217 0.950 . S
C244 C230 1.377 . S
C244 C243 1.373 . S
C245 C229 1.377 . S
C245 C243 1.389 . S
C245 C246 1.524 . S
C246 C245 1.524 . S
C246 C247 1.397 . S
C246 C251 1.363 . S
C247 H218 0.950 . S
C247 C246 1.397 . S
C247 C248 1.334 . S
C248 H219 0.950 . S
C248 C247 1.334 . S
C248 C249 1.287 . S
C249 C248 1.287 . S
C249 C250 1.524 . S
C249 H252 0.999 . S
C250 H220 0.950 . S
C250 C249 1.524 . S
C250 C251 1.415 . S
C251 H221 0.950 . S
C251 C246 1.363 . S
C251 C250 1.415 . S
H252 C249 0.999 . S
H253 C234 0.913 . S
H254 C272 0.951 . S
H255 C274 0.951 . S
H256 C276 0.950 . S
H257 C277 0.950 . S
H258 C279 0.950 . S
H259 C282 0.950 . S
H260 C283 0.950 . S
H261 C285 0.950 . S
H262 C286 0.950 . S
H263 C287 0.951 . S
H264 C289 0.951 . S
H265 C291 0.950 . S
H266 C292 0.950 . S
H267 C294 0.950 . S
H268 C297 0.950 . S
H269 C298 0.950 . S
H270 C300 0.950 . S
H271 C301 0.950 . S
C272 H254 0.951 . S
C272 C273 1.366 . S
C272 C274 1.388 . S
C273 C272 1.366 . S
C273 C277 1.385 . S
C274 H255 0.951 . S
C274 C272 1.388 . S
C274 C275 1.366 . S
C275 C274 1.366 . S
C275 C276 1.414 . S
C275 C278 1.499 . S
C276 H256 0.950 . S
C276 C275 1.414 . S
C276 C277 1.374 . S
C277 H257 0.950 . S
C277 C273 1.385 . S
C277 C276 1.374 . S
C278 C275 1.499 . S
C278 C279 1.373 . S
C278 C280 1.389 . S
C279 H258 0.950 . S
C279 C278 1.373 . S
C279 C295 1.377 . S
C280 C278 1.389 . S
C280 C281 1.524 . S
C280 C294 1.377 . S
C281 C280 1.524 . S
C281 C282 1.397 . S
C281 C286 1.363 . S
C282 H259 0.950 . S
C282 C281 1.397 . S
C282 C283 1.334 . S
C283 H260 0.950 . S
C283 C282 1.334 . S
C283 C284 1.287 . S
C284 C283 1.287 . S
C284 C285 1.524 . S
C284 H303 0.913 . S
C285 H261 0.950 . S
C285 C284 1.524 . S
C285 C286 1.415 . S
C286 H262 0.950 . S
C286 C281 1.363 . S
C286 C285 1.415 . S
C287 H263 0.951 . S
C287 C288 1.366 . S
C287 C289 1.388 . S
C288 C287 1.366 . S
C288 C292 1.385 . S
C289 H264 0.951 . S
C289 C287 1.388 . S
C289 C290 1.366 . S
C290 C289 1.366 . S
C290 C291 1.414 . S
C290 C293 1.499 . S
C291 H265 0.950 . S
C291 C290 1.414 . S
C291 C292 1.374 . S
C292 H266 0.950 . S
C292 C288 1.385 . S
C292 C291 1.374 . S
C293 C290 1.499 . S
C293 C294 1.373 . S
C293 C295 1.389 . S
C294 H267 0.950 . S
C294 C280 1.377 . S
C294 C293 1.373 . S
C295 C279 1.377 . S
C295 C293 1.389 . S
C295 C296 1.524 . S
C296 C295 1.524 . S
C296 C297 1.397 . S
C296 C301 1.363 . S
C297 H268 0.950 . S
C297 C296 1.397 . S
C297 C298 1.334 . S
C298 H269 0.950 . S
C298 C297 1.334 . S
C298 C299 1.287 . S
C299 C298 1.287 . S
C299 C300 1.524 . S
C299 H302 0.999 . S
C300 H270 0.950 . S
C300 C299 1.524 . S
C300 C301 1.415 . S
C301 H271 0.950 . S
C301 C296 1.363 . S
C301 C300 1.415 . S
H302 C299 0.999 . S
H303 C284 0.913 . S
H304 C322 0.951 . S
H305 C324 0.951 . S
H306 C326 0.950 . S
H307 C327 0.950 . S
H308 C329 0.950 . S
H309 C332 0.950 . S
H310 C333 0.950 . S
H311 C335 0.950 . S
H312 C336 0.950 . S
H313 C337 0.951 . S
H314 C339 0.951 . S
H315 C341 0.950 . S
H316 C342 0.950 . S
H317 C344 0.950 . S
H318 C347 0.950 . S
H319 C348 0.950 . S
H320 C350 0.950 . S
H321 C351 0.950 . S
C322 H304 0.951 . S
C322 C323 1.366 . S
C322 C324 1.388 . S
C323 C322 1.366 . S
C323 C327 1.385 . S
C324 H305 0.951 . S
C324 C322 1.388 . S
C324 C325 1.366 . S
C325 C324 1.366 . S
C325 C326 1.414 . S
C325 C328 1.499 . S
C326 H306 0.950 . S
C326 C325 1.414 . S
C326 C327 1.374 . S
C327 H307 0.950 . S
C327 C323 1.385 . S
C327 C326 1.374 . S
C328 C325 1.499 . S
C328 C329 1.373 . S
C328 C330 1.389 . S
C329 H308 0.950 . S
C329 C328 1.373 . S
C329 C345 1.377 . S
C330 C328 1.389 . S
C330 C331 1.524 . S
C330 C344 1.377 . S
C331 C330 1.524 . S
C331 C332 1.397 . S
C331 C336 1.363 . S
C332 H309 0.950 . S
C332 C331 1.397 . S
C332 C333 1.334 . S
C333 H310 0.950 . S
C333 C332 1.334 . S
C333 C334 1.287 . S
C334 C333 1.287 . S
C334 C335 1.524 . S
C334 H353 0.913 . S
C335 H311 0.950 . S
C335 C334 1.524 . S
C335 C336 1.415 . S
C336 H312 0.950 . S
C336 C331 1.363 . S
C336 C335 1.415 . S
C337 H313 0.951 . S
C337 C338 1.366 . S
C337 C339 1.388 . S
C338 C337 1.366 . S
C338 C342 1.385 . S
C339 H314 0.951 . S
C339 C337 1.388 . S
C339 C340 1.366 . S
C340 C339 1.366 . S
C340 C341 1.414 . S
C340 C343 1.499 . S
C341 H315 0.950 . S
C341 C340 1.414 . S
C341 C342 1.374 . S
C342 H316 0.950 . S
C342 C338 1.385 . S
C342 C341 1.374 . S
C343 C340 1.499 . S
C343 C344 1.373 . S
C343 C345 1.389 . S
C344 H317 0.950 . S
C344 C330 1.377 . S
C344 C343 1.373 . S
C345 C329 1.377 . S
C345 C343 1.389 . S
C345 C346 1.524 . S
C346 C345 1.524 . S
C346 C347 1.397 . S
C346 C351 1.363 . S
C347 H318 0.950 . S
C347 C346 1.397 . S
C347 C348 1.334 . S
C348 H319 0.950 . S
C348 C347 1.334 . S
C348 C349 1.287 . S
C349 C348 1.287 . S
C349 C350 1.524 . S
C349 H352 0.999 . S
C350 H320 0.950 . S
C350 C349 1.524 . S
C350 C351 1.415 . S
C351 H321 0.950 . S
C351 C346 1.363 . S
C351 C350 1.415 . S
H352 C349 0.999 . S
H353 C334 0.913 . S
H354 C372 0.951 . S
H355 C374 0.951 . S
H356 C376 0.950 . S
H357 C377 0.950 . S
H358 C379 0.950 . S
H359 C382 0.950 . S
H360 C383 0.950 . S
H361 C385 0.950 . S
H362 C386 0.950 . S
H363 C387 0.951 . S
H364 C389 0.951 . S
H365 C391 0.950 . S
H366 C392 0.950 . S
H367 C394 0.950 . S
H368 C397 0.950 . S
H369 C398 0.950 . S
H370 C400 0.950 . S
H371 C401 0.950 . S
C372 H354 0.951 . S
C372 C373 1.366 . S
C372 C374 1.388 . S
C373 C372 1.366 . S
C373 C377 1.385 . S
C374 H355 0.951 . S
C374 C372 1.388 . S
C374 C375 1.366 . S
C375 C374 1.366 . S
C375 C376 1.414 . S
C375 C378 1.499 . S
C376 H356 0.950 . S
C376 C375 1.414 . S
C376 C377 1.374 . S
C377 H357 0.950 . S
C377 C373 1.385 . S
C377 C376 1.374 . S
C378 C375 1.499 . S
C378 C379 1.373 . S
C378 C380 1.389 . S
C379 H358 0.950 . S
C379 C378 1.373 . S
C379 C395 1.377 . S
C380 C378 1.389 . S
C380 C381 1.524 . S
C380 C394 1.377 . S
C381 C380 1.524 . S
C381 C382 1.397 . S
C381 C386 1.363 . S
C382 H359 0.950 . S
C382 C381 1.397 . S
C382 C383 1.334 . S
C383 H360 0.950 . S
C383 C382 1.334 . S
C383 C384 1.287 . S
C384 C383 1.287 . S
C384 C385 1.524 . S
C384 H403 0.913 . S
C385 H361 0.950 . S
C385 C384 1.524 . S
C385 C386 1.415 . S
C386 H362 0.950 . S
C386 C381 1.363 . S
C386 C385 1.415 . S
C387 H363 0.951 . S
C387 C388 1.366 . S
C387 C389 1.388 . S
C388 C387 1.366 . S
C388 C392 1.385 . S
C389 H364 0.951 . S
C389 C387 1.388 . S
C389 C390 1.366 . S
C390 C389 1.366 . S
C390 C391 1.414 . S
C390 C393 1.499 . S
C391 H365 0.950 . S
C391 C390 1.414 . S
C391 C392 1.374 . S
C392 H366 0.950 . S
C392 C388 1.385 . S
C392 C391 1.374 . S
C393 C390 1.499 . S
C393 C394 1.373 . S
C393 C395 1.389 . S
C394 H367 0.950 . S
C394 C380 1.377 . S
C394 C393 1.373 . S
C395 C379 1.377 . S
C395 C393 1.389 . S
C395 C396 1.524 . S
C396 C395 1.524 . S
C396 C397 1.397 . S
C396 C401 1.363 . S
C397 H368 0.950 . S
C397 C396 1.397 . S
C397 C398 1.334 . S
C398 H369 0.950 . S
C398 C397 1.334 . S
C398 C399 1.287 . S
C399 C398 1.287 . S
C399 C400 1.524 . S
C399 H402 0.999 . S
C400 H370 0.950 . S
C400 C399 1.524 . S
C400 C401 1.415 . S
C401 H371 0.950 . S
C401 C396 1.363 . S
C401 C400 1.415 . S
H402 C399 0.999 . S
H403 C384 0.913 . S
H404 C422 0.951 . S
H405 C424 0.951 . S
H406 C426 0.950 . S
H407 C427 0.950 . S
H408 C429 0.950 . S
H409 C432 0.950 . S
H410 C433 0.950 . S
H411 C435 0.950 . S
H412 C436 0.950 . S
H413 C437 0.951 . S
H414 C439 0.951 . S
H415 C441 0.950 . S
H416 C442 0.950 . S
H417 C444 0.950 . S
H418 C447 0.950 . S
H419 C448 0.950 . S
H420 C450 0.950 . S
H421 C451 0.950 . S
C422 H404 0.951 . S
C422 C423 1.366 . S
C422 C424 1.388 . S
C423 C422 1.366 . S
C423 C427 1.385 . S
C424 H405 0.951 . S
C424 C422 1.388 . S
C424 C425 1.366 . S
C425 C424 1.366 . S
C425 C426 1.414 . S
C425 C428 1.499 . S
C426 H406 0.950 . S
C426 C425 1.414 . S
C426 C427 1.374 . S
C427 H407 0.950 . S
C427 C423 1.385 . S
C427 C426 1.374 . S
C428 C425 1.499 . S
C428 C429 1.373 . S
C428 C430 1.389 . S
C429 H408 0.950 . S
C429 C428 1.373 . S
C429 C445 1.377 . S
C430 C428 1.389 . S
C430 C431 1.524 . S
C430 C444 1.377 . S
C431 C430 1.524 . S
C431 C432 1.397 . S
C431 C436 1.363 . S
C432 H409 0.950 . S
C432 C431 1.397 . S
C432 C433 1.334 . S
C433 H410 0.950 . S
C433 C432 1.334 . S
C433 C434 1.287 . S
C434 C433 1.287 . S
C434 C435 1.524 . S
C434 H453 0.913 . S
C435 H411 0.950 . S
C435 C434 1.524 . S
C435 C436 1.415 . S
C436 H412 0.950 . S
C436 C431 1.363 . S
C436 C435 1.415 . S
C437 H413 0.951 . S
C437 C438 1.366 . S
C437 C439 1.388 . S
C438 C437 1.366 . S
C438 C442 1.385 . S
C439 H414 0.951 . S
C439 C437 1.388 . S
C439 C440 1.366 . S
C440 C439 1.366 . S
C440 C441 1.414 . S
C440 C443 1.499 . S
C441 H415 0.950 . S
C441 C440 1.414 . S
C441 C442 1.374 . S
C442 H416 0.950 . S
C442 C438 1.385 . S
C442 C441 1.374 . S
C443 C440 1.499 . S
C443 C444 1.373 . S
C443 C445 1.389 . S
C444 H417 0.950 . S
C444 C430 1.377 . S
C444 C443 1.373 . S
C445 C429 1.377 . S
C445 C443 1.389 . S
C445 C446 1.524 . S
C446 C445 1.524 . S
C446 C447 1.397 . S
C446 C451 1.363 . S
C447 H418 0.950 . S
C447 C446 1.397 . S
C447 C448 1.334 . S
C448 H419 0.950 . S
C448 C447 1.334 . S
C448 C449 1.287 . S
C449 C448 1.287 . S
C449 C450 1.524 . S
C449 H452 0.999 . S
C450 H420 0.950 . S
C450 C449 1.524 . S
C450 C451 1.415 . S
C451 H421 0.950 . S
C451 C446 1.363 . S
C451 C450 1.415 . S
H452 C449 0.999 . S
H453 C434 0.913 . S
H454 C472 0.951 . S
H455 C474 0.951 . S
H456 C476 0.950 . S
H457 C477 0.950 . S
H458 C479 0.950 . S
H459 C482 0.950 . S
H460 C483 0.950 . S
H461 C485 0.950 . S
H462 C486 0.950 1_556 S
H463 C487 0.951 . S
H464 C489 0.951 . S
H465 C491 0.950 . S
H466 C492 0.950 . S
H467 C494 0.950 . S
H468 C497 0.950 . S
H469 C498 0.950 . S
H470 C500 0.950 . S
H471 C501 0.950 1_554 S
C472 H454 0.951 . S
C472 C473 1.366 . S
C472 C474 1.388 . S
C473 C472 1.366 . S
C473 C477 1.385 . S
C474 H455 0.951 . S
C474 C472 1.388 . S
C474 C475 1.366 . S
C475 C474 1.366 . S
C475 C476 1.414 . S
C475 C478 1.499 . S
C476 H456 0.950 . S
C476 C475 1.414 . S
C476 C477 1.374 . S
C477 H457 0.950 . S
C477 C473 1.385 . S
C477 C476 1.374 . S
C478 C475 1.499 . S
C478 C479 1.373 . S
C478 C480 1.389 . S
C479 H458 0.950 . S
C479 C478 1.373 . S
C479 C495 1.377 1_554 S
C480 C478 1.389 . S
C480 C481 1.524 . S
C480 C494 1.377 1_554 S
C481 C480 1.524 . S
C481 C482 1.397 . S
C481 C486 1.363 . S
C482 H459 0.950 . S
C482 C481 1.397 . S
C482 C483 1.334 . S
C483 H460 0.950 . S
C483 C482 1.334 . S
C483 C484 1.287 . S
C484 C483 1.287 . S
C484 C485 1.524 . S
C484 H503 0.913 . S
C485 H461 0.950 . S
C485 C484 1.524 . S
C485 C486 1.415 . S
C486 H462 0.950 1_554 S
C486 C481 1.363 . S
C486 C485 1.415 . S
C487 H463 0.951 . S
C487 C488 1.366 . S
C487 C489 1.388 . S
C488 C487 1.366 . S
C488 C492 1.385 . S
C489 H464 0.951 . S
C489 C487 1.388 . S
C489 C490 1.366 . S
C490 C489 1.366 . S
C490 C491 1.414 . S
C490 C493 1.499 . S
C491 H465 0.950 . S
C491 C490 1.414 . S
C491 C492 1.374 . S
C492 H466 0.950 . S
C492 C488 1.385 . S
C492 C491 1.374 . S
C493 C490 1.499 . S
C493 C494 1.373 . S
C493 C495 1.389 . S
C494 H467 0.950 . S
C494 C480 1.377 1_556 S
C494 C493 1.373 . S
C495 C479 1.377 1_556 S
C495 C493 1.389 . S
C495 C496 1.524 . S
C496 C495 1.524 . S
C496 C497 1.397 . S
C496 C501 1.363 . S
C497 H468 0.950 . S
C497 C496 1.397 . S
C497 C498 1.334 . S
C498 H469 0.950 . S
C498 C497 1.334 . S
C498 C499 1.287 . S
C499 C498 1.287 . S
C499 C500 1.524 . S
C499 H502 0.999 . S
C500 H470 0.950 . S
C500 C499 1.524 . S
C500 C501 1.415 . S
C501 H471 0.950 1_556 S
C501 C496 1.363 . S
C501 C500 1.415 . S
H502 C499 0.999 . S
H503 C484 0.913 . S
H504 C522 0.951 . S
H505 C524 0.951 . S
H506 C526 0.950 . S
H507 C527 0.950 . S
H508 C529 0.950 . S
H509 C532 0.950 . S
H510 C533 0.950 . S
H511 C535 0.950 1_655 S
H512 C536 0.950 . S
H513 C537 0.951 . S
H514 C539 0.951 . S
H515 C541 0.950 . S
H516 C542 0.950 . S
H517 C544 0.950 . S
H518 C547 0.950 . S
H519 C548 0.950 . S
H520 C550 0.950 1_455 S
H521 C551 0.950 . S
C522 H504 0.951 . S
C522 C523 1.366 . S
C522 C524 1.388 . S
C523 C522 1.366 . S
C523 C527 1.385 . S
C524 H505 0.951 . S
C524 C522 1.388 . S
C524 C525 1.366 . S
C525 C524 1.366 . S
C525 C526 1.414 . S
C525 C528 1.499 . S
C526 H506 0.950 . S
C526 C525 1.414 . S
C526 C527 1.374 . S
C527 H507 0.950 . S
C527 C523 1.385 . S
C527 C526 1.374 . S
C528 C525 1.499 . S
C528 C529 1.373 . S
C528 C530 1.389 . S
C529 H508 0.950 . S
C529 C528 1.373 . S
C529 C545 1.377 1_445 S
C530 C528 1.389 . S
C530 C531 1.524 . S
C530 C544 1.377 1_445 S
C531 C530 1.524 . S
C531 C532 1.397 . S
C531 C536 1.363 1_455 S
C532 H509 0.950 . S
C532 C531 1.397 . S
C532 C533 1.334 . S
C533 H510 0.950 . S
C533 C532 1.334 . S
C533 C534 1.287 . S
C534 C533 1.287 . S
C534 C535 1.524 . S
C534 H553 0.913 . S
C535 H511 0.950 1_455 S
C535 C534 1.524 . S
C535 C536 1.415 1_455 S
C536 H512 0.950 . S
C536 C531 1.363 1_655 S
C536 C535 1.415 1_655 S
C537 H513 0.951 . S
C537 C538 1.366 . S
C537 C539 1.388 . S
C538 C537 1.366 . S
C538 C542 1.385 . S
C539 H514 0.951 . S
C539 C537 1.388 . S
C539 C540 1.366 . S
C540 C539 1.366 . S
C540 C541 1.414 . S
C540 C543 1.499 . S
C541 H515 0.950 . S
C541 C540 1.414 . S
C541 C542 1.374 . S
C542 H516 0.950 . S
C542 C538 1.385 . S
C542 C541 1.374 . S
C543 C540 1.499 . S
C543 C544 1.373 . S
C543 C545 1.389 . S
C544 H517 0.950 . S
C544 C530 1.377 1_665 S
C544 C543 1.373 . S
C545 C529 1.377 1_665 S
C545 C543 1.389 . S
C545 C546 1.524 . S
C546 C545 1.524 . S
C546 C547 1.397 . S
C546 C551 1.363 1_655 S
C547 H518 0.950 . S
C547 C546 1.397 . S
C547 C548 1.334 . S
C548 H519 0.950 . S
C548 C547 1.334 . S
C548 C549 1.287 . S
C549 C548 1.287 . S
C549 C550 1.524 . S
C549 H552 0.999 . S
C550 H520 0.950 1_655 S
C550 C549 1.524 . S
C550 C551 1.415 1_655 S
C551 H521 0.950 . S
C551 C546 1.363 1_455 S
C551 C550 1.415 1_455 S
H552 C549 0.999 . S
H553 C534 0.913 . S
H554 C572 0.951 . S
H555 C574 0.951 . S
H556 C576 0.950 . S
H557 C577 0.950 . S
H558 C579 0.950 . S
H559 C582 0.950 . S
H560 C583 0.950 . S
H561 C585 0.950 . S
H562 C586 0.950 . S
H563 C587 0.951 . S
H564 C589 0.951 . S
H565 C591 0.950 . S
H566 C592 0.950 . S
H567 C594 0.950 . S
H568 C597 0.950 . S
H569 C598 0.950 . S
H570 C600 0.950 . S
H571 C601 0.950 . S
C572 H554 0.951 . S
C572 C573 1.366 . S
C572 C574 1.388 . S
C573 C572 1.366 . S
C573 C577 1.385 . S
C574 H555 0.951 . S
C574 C572 1.388 . S
C574 C575 1.366 . S
C575 C574 1.366 . S
C575 C576 1.414 . S
C575 C578 1.499 . S
C576 H556 0.950 . S
C576 C575 1.414 . S
C576 C577 1.374 . S
C577 H557 0.950 . S
C577 C573 1.385 . S
C577 C576 1.374 . S
C578 C575 1.499 . S
C578 C579 1.373 . S
C578 C580 1.389 . S
C579 H558 0.950 . S
C579 C578 1.373 . S
C579 C595 1.377 1_455 S
C580 C578 1.389 . S
C580 C581 1.524 . S
C580 C594 1.377 1_455 S
C581 C580 1.524 . S
C581 C582 1.397 . S
C581 C586 1.363 1_455 S
C582 H559 0.950 . S
C582 C581 1.397 . S
C582 C583 1.334 . S
C583 H560 0.950 . S
C583 C582 1.334 . S
C583 C584 1.287 . S
C584 C583 1.287 . S
C584 C585 1.524 1_455 S
C584 H603 0.913 . S
C585 H561 0.950 . S
C585 C584 1.524 1_655 S
C585 C586 1.415 . S
C586 H562 0.950 . S
C586 C581 1.363 1_655 S
C586 C585 1.415 . S
C587 H563 0.951 . S
C587 C588 1.366 . S
C587 C589 1.388 . S
C588 C587 1.366 . S
C588 C592 1.385 . S
C589 H564 0.951 . S
C589 C587 1.388 . S
C589 C590 1.366 . S
C590 C589 1.366 . S
C590 C591 1.414 . S
C590 C593 1.499 . S
C591 H565 0.950 . S
C591 C590 1.414 . S
C591 C592 1.374 . S
C592 H566 0.950 . S
C592 C588 1.385 . S
C592 C591 1.374 . S
C593 C590 1.499 . S
C593 C594 1.373 . S
C593 C595 1.389 . S
C594 H567 0.950 . S
C594 C580 1.377 1_655 S
C594 C593 1.373 . S
C595 C579 1.377 1_655 S
C595 C593 1.389 . S
C595 C596 1.524 . S
C596 C595 1.524 . S
C596 C597 1.397 . S
C596 C601 1.363 1_655 S
C597 H568 0.950 . S
C597 C596 1.397 . S
C597 C598 1.334 . S
C598 H569 0.950 . S
C598 C597 1.334 . S
C598 C599 1.287 . S
C599 C598 1.287 . S
C599 C600 1.524 1_655 S
C599 H602 0.999 . S
C600 H570 0.950 . S
C600 C599 1.524 1_455 S
C600 C601 1.415 . S
C601 H571 0.950 . S
C601 C596 1.363 1_455 S
C601 C600 1.415 . S
H602 C599 0.999 . S
H603 C584 0.913 . S
H604 C622 0.951 . S
H605 C624 0.951 . S
H606 C626 0.950 . S
H607 C627 0.950 . S
H608 C629 0.950 . S
H609 C632 0.950 . S
H610 C633 0.950 . S
H611 C635 0.950 . S
H612 C636 0.950 . S
H613 C637 0.951 . S
H614 C639 0.951 . S
H615 C641 0.950 . S
H616 C642 0.950 . S
H617 C644 0.950 . S
H618 C647 0.950 . S
H619 C648 0.950 . S
H620 C650 0.950 . S
H621 C651 0.950 . S
C622 H604 0.951 . S
C622 C623 1.366 . S
C622 C624 1.388 . S
C623 C622 1.366 . S
C623 C627 1.385 . S
C624 H605 0.951 . S
C624 C622 1.388 . S
C624 C625 1.366 . S
C625 C624 1.366 . S
C625 C626 1.414 . S
C625 C628 1.499 . S
C626 H606 0.950 . S
C626 C625 1.414 . S
C626 C627 1.374 . S
C627 H607 0.950 . S
C627 C623 1.385 . S
C627 C626 1.374 . S
C628 C625 1.499 . S
C628 C629 1.373 . S
C628 C630 1.389 . S
C629 H608 0.950 . S
C629 C628 1.373 . S
C629 C645 1.377 . S
C630 C628 1.389 . S
C630 C631 1.524 . S
C630 C644 1.377 . S
C631 C630 1.524 . S
C631 C632 1.397 . S
C631 C636 1.363 . S
C632 H609 0.950 . S
C632 C631 1.397 . S
C632 C633 1.334 . S
C633 H610 0.950 . S
C633 C632 1.334 . S
C633 C634 1.287 . S
C634 C633 1.287 . S
C634 C635 1.524 . S
C634 H653 0.913 . S
C635 H611 0.950 . S
C635 C634 1.524 . S
C635 C636 1.415 . S
C636 H612 0.950 . S
C636 C631 1.363 . S
C636 C635 1.415 . S
C637 H613 0.951 . S
C637 C638 1.366 . S
C637 C639 1.388 . S
C638 C637 1.366 . S
C638 C642 1.385 . S
C639 H614 0.951 . S
C639 C637 1.388 . S
C639 C640 1.366 . S
C640 C639 1.366 . S
C640 C641 1.414 . S
C640 C643 1.499 . S
C641 H615 0.950 . S
C641 C640 1.414 . S
C641 C642 1.374 . S
C642 H616 0.950 . S
C642 C638 1.385 . S
C642 C641 1.374 . S
C643 C640 1.499 . S
C643 C644 1.373 . S
C643 C645 1.389 . S
C644 H617 0.950 . S
C644 C630 1.377 . S
C644 C643 1.373 . S
C645 C629 1.377 . S
C645 C643 1.389 . S
C645 C646 1.524 . S
C646 C645 1.524 . S
C646 C647 1.397 . S
C646 C651 1.363 . S
C647 H618 0.950 . S
C647 C646 1.397 . S
C647 C648 1.334 . S
C648 H619 0.950 . S
C648 C647 1.334 . S
C648 C649 1.287 . S
C649 C648 1.287 . S
C649 C650 1.524 . S
C649 H652 0.999 . S
C650 H620 0.950 . S
C650 C649 1.524 . S
C650 C651 1.415 . S
C651 H621 0.950 . S
C651 C646 1.363 . S
C651 C650 1.415 . S
H652 C649 0.999 . S
H653 C634 0.913 . S
H654 C672 0.951 . S
H655 C674 0.951 . S
H656 C676 0.950 1_545 S
H657 C677 0.950 . S
H658 C679 0.950 . S
H659 C682 0.950 . S
H660 C683 0.950 . S
H661 C685 0.950 . S
H662 C686 0.950 . S
H663 C687 0.951 . S
H664 C689 0.951 . S
H665 C691 0.950 1_565 S
H666 C692 0.950 . S
H667 C694 0.950 . S
H668 C697 0.950 . S
H669 C698 0.950 . S
H670 C700 0.950 . S
H671 C701 0.950 . S
C672 H654 0.951 . S
C672 C673 1.366 . S
C672 C674 1.388 . S
C673 C672 1.366 . S
C673 C677 1.385 . S
C674 H655 0.951 . S
C674 C672 1.388 . S
C674 C675 1.366 . S
C675 C674 1.366 . S
C675 C676 1.414 . S
C675 C678 1.499 . S
C676 H656 0.950 1_565 S
C676 C675 1.414 . S
C676 C677 1.374 . S
C677 H657 0.950 . S
C677 C673 1.385 . S
C677 C676 1.374 . S
C678 C675 1.499 . S
C678 C679 1.373 1_565 S
C678 C680 1.389 . S
C679 H658 0.950 . S
C679 C678 1.373 1_545 S
C679 C695 1.377 . S
C680 C678 1.389 . S
C680 C681 1.524 . S
C680 C694 1.377 . S
C681 C680 1.524 . S
C681 C682 1.397 . S
C681 C686 1.363 . S
C682 H659 0.950 . S
C682 C681 1.397 . S
C682 C683 1.334 . S
C683 H660 0.950 . S
C683 C682 1.334 . S
C683 C684 1.287 . S
C684 C683 1.287 . S
C684 C685 1.524 . S
C684 H703 0.913 . S
C685 H661 0.950 . S
C685 C684 1.524 . S
C685 C686 1.415 . S
C686 H662 0.950 . S
C686 C681 1.363 . S
C686 C685 1.415 . S
C687 H663 0.951 . S
C687 C688 1.366 . S
C687 C689 1.388 . S
C688 C687 1.366 . S
C688 C692 1.385 . S
C689 H664 0.951 . S
C689 C687 1.388 . S
C689 C690 1.366 . S
C690 C689 1.366 . S
C690 C691 1.414 . S
C690 C693 1.499 . S
C691 H665 0.950 1_545 S
C691 C690 1.414 . S
C691 C692 1.374 . S
C692 H666 0.950 . S
C692 C688 1.385 . S
C692 C691 1.374 . S
C693 C690 1.499 . S
C693 C694 1.373 1_545 S
C693 C695 1.389 . S
C694 H667 0.950 . S
C694 C680 1.377 . S
C694 C693 1.373 1_565 S
C695 C679 1.377 . S
C695 C693 1.389 . S
C695 C696 1.524 . S
C696 C695 1.524 . S
C696 C697 1.397 . S
C696 C701 1.363 . S
C697 H668 0.950 . S
C697 C696 1.397 . S
C697 C698 1.334 . S
C698 H669 0.950 . S
C698 C697 1.334 . S
C698 C699 1.287 . S
C699 C698 1.287 . S
C699 C700 1.524 . S
C699 H702 0.999 . S
C700 H670 0.950 . S
C700 C699 1.524 . S
C700 C701 1.415 . S
C701 H671 0.950 . S
C701 C696 1.363 . S
C701 C700 1.415 . S
H702 C699 0.999 . S
H703 C684 0.913 . S
H704 C722 0.951 . S
H705 C724 0.924 1_455 S
H706 C726 0.950 . S
H707 C727 0.950 . S
H708 C729 0.950 . S
H709 C732 0.950 . S
H710 C733 0.950 . S
H711 C735 0.950 . S
H712 C736 0.950 . S
H713 C737 0.951 . S
H714 C739 0.924 1_655 S
H715 C741 0.950 . S
H716 C742 0.950 . S
H717 C744 0.950 . S
H718 C747 0.950 . S
H719 C748 0.950 . S
H720 C750 0.950 . S
H721 C751 0.950 . S
C722 H704 0.951 . S
C722 C723 1.366 . S
C722 C724 1.388 . S
C723 C722 1.366 . S
C723 C727 1.385 . S
C724 H705 0.924 1_655 S
C724 C722 1.388 . S
C724 C725 1.366 . S
C725 C724 1.366 . S
C725 C726 1.414 . S
C725 C728 1.499 . S
C726 H706 0.950 . S
C726 C725 1.414 . S
C726 C727 1.374 . S
C727 H707 0.950 . S
C727 C723 1.385 . S
C727 C726 1.374 . S
C728 C725 1.499 . S
C728 C729 1.373 . S
C728 C730 1.397 . S
C729 H708 0.950 . S
C729 C728 1.373 . S
C729 C745 1.369 1_655 S
C730 C728 1.397 . S
C730 C731 1.525 . S
C730 C744 1.369 1_655 S
C731 C730 1.525 . S
C731 C732 1.397 . S
C731 C736 1.363 1_655 S
C732 H709 0.950 . S
C732 C731 1.397 . S
C732 C733 1.334 . S
C733 H710 0.950 . S
C733 C732 1.334 . S
C733 C734 1.287 . S
C734 C733 1.287 . S
C734 C735 1.524 1_655 S
C734 H753 0.913 . S
C735 H711 0.950 . S
C735 C734 1.524 1_455 S
C735 C736 1.415 . S
C736 H712 0.950 . S
C736 C731 1.363 1_455 S
C736 C735 1.415 . S
C737 H713 0.951 . S
C737 C738 1.366 . S
C737 C739 1.388 . S
C738 C737 1.366 . S
C738 C742 1.385 . S
C739 H714 0.924 1_455 S
C739 C737 1.388 . S
C739 C740 1.366 . S
C740 C739 1.366 . S
C740 C741 1.414 . S
C740 C743 1.499 . S
C741 H715 0.950 . S
C741 C740 1.414 . S
C741 C742 1.374 . S
C742 H716 0.950 . S
C742 C738 1.385 . S
C742 C741 1.374 . S
C743 C740 1.499 . S
C743 C744 1.373 . S
C743 C745 1.397 . S
C744 H717 0.950 . S
C744 C730 1.369 1_455 S
C744 C743 1.373 . S
C745 C729 1.369 1_455 S
C745 C743 1.397 . S
C745 C746 1.525 . S
C746 C745 1.525 . S
C746 C747 1.397 . S
C746 C751 1.363 1_455 S
C747 H718 0.950 . S
C747 C746 1.397 . S
C747 C748 1.334 . S
C748 H719 0.950 . S
C748 C747 1.334 . S
C748 C749 1.287 . S
C749 C748 1.287 . S
C749 C750 1.524 1_455 S
C749 H752 0.999 . S
C750 H720 0.950 . S
C750 C749 1.524 1_655 S
C750 C751 1.415 . S
C751 H721 0.950 . S
C751 C746 1.363 1_655 S
C751 C750 1.415 . S
H752 C749 0.999 . S
H753 C734 0.913 . S
H754 C772 0.951 . S
H755 C774 0.951 . S
H756 C776 0.950 . S
H757 C777 0.950 . S
H758 C779 0.950 . S
H759 C782 0.950 . S
H760 C783 0.950 . S
H761 C785 0.950 . S
H762 C786 0.950 . S
H763 C787 0.951 . S
H764 C789 0.951 . S
H765 C791 0.950 . S
H766 C792 0.950 . S
H767 C794 0.950 . S
H768 C797 0.950 . S
H769 C798 0.950 . S
H770 C800 0.950 . S
H771 C801 0.950 . S
C772 H754 0.951 . S
C772 C773 1.366 . S
C772 C774 1.388 . S
C773 C772 1.366 . S
C773 C777 1.385 . S
C774 H755 0.951 . S
C774 C772 1.388 . S
C774 C775 1.366 . S
C775 C774 1.366 . S
C775 C776 1.414 . S
C775 C778 1.499 . S
C776 H756 0.950 . S
C776 C775 1.414 . S
C776 C777 1.374 . S
C777 H757 0.950 . S
C777 C773 1.385 . S
C777 C776 1.374 . S
C778 C775 1.499 . S
C778 C779 1.373 . S
C778 C780 1.389 . S
C779 H758 0.950 . S
C779 C778 1.373 . S
C779 C795 1.377 . S
C780 C778 1.389 . S
C780 C781 1.524 . S
C780 C794 1.377 . S
C781 C780 1.524 . S
C781 C782 1.397 . S
C781 C786 1.363 . S
C782 H759 0.950 . S
C782 C781 1.397 . S
C782 C783 1.334 . S
C783 H760 0.950 . S
C783 C782 1.334 . S
C783 C784 1.287 . S
C784 C783 1.287 . S
C784 C785 1.524 . S
C784 H803 0.913 . S
C785 H761 0.950 . S
C785 C784 1.524 . S
C785 C786 1.415 . S
C786 H762 0.950 . S
C786 C781 1.363 . S
C786 C785 1.415 . S
C787 H763 0.951 . S
C787 C788 1.366 . S
C787 C789 1.388 . S
C788 C787 1.366 . S
C788 C792 1.385 . S
C789 H764 0.951 . S
C789 C787 1.388 . S
C789 C790 1.366 . S
C790 C789 1.366 . S
C790 C791 1.414 . S
C790 C793 1.499 . S
C791 H765 0.950 . S
C791 C790 1.414 . S
C791 C792 1.374 . S
C792 H766 0.950 . S
C792 C788 1.385 . S
C792 C791 1.374 . S
C793 C790 1.499 . S
C793 C794 1.373 . S
C793 C795 1.389 . S
C794 H767 0.950 . S
C794 C780 1.377 . S
C794 C793 1.373 . S
C795 C779 1.377 . S
C795 C793 1.389 . S
C795 C796 1.524 . S
C796 C795 1.524 . S
C796 C797 1.397 . S
C796 C801 1.363 . S
C797 H768 0.950 . S
C797 C796 1.397 . S
C797 C798 1.334 . S
C798 H769 0.950 . S
C798 C797 1.334 . S
C798 C799 1.287 . S
C799 C798 1.287 . S
C799 C800 1.524 . S
C799 H802 0.999 . S
C800 H770 0.950 . S
C800 C799 1.524 . S
C800 C801 1.415 . S
C801 H771 0.950 . S
C801 C796 1.363 . S
C801 C800 1.415 . S
H802 C799 0.999 . S
H803 C784 0.913 . S
H804 C822 0.951 . S
H805 C824 0.951 . S
H806 C826 0.950 . S
H807 C827 0.950 . S
H808 C829 0.950 . S
H809 C832 0.950 . S
H810 C833 0.950 . S
H811 C835 0.950 . S
H812 C836 0.950 . S
H813 C837 0.951 . S
H814 C839 0.951 . S
H815 C841 0.950 . S
H816 C842 0.950 . S
H817 C844 0.950 . S
H818 C847 0.950 . S
H819 C848 0.950 . S
H820 C850 0.950 . S
H821 C851 0.950 . S
C822 H804 0.951 . S
C822 C823 1.366 . S
C822 C824 1.388 . S
C823 C822 1.366 . S
C823 C827 1.385 . S
C824 H805 0.951 . S
C824 C822 1.388 . S
C824 C825 1.366 . S
C825 C824 1.366 . S
C825 C826 1.414 . S
C825 C828 1.499 . S
C826 H806 0.950 . S
C826 C825 1.414 . S
C826 C827 1.374 . S
C827 H807 0.950 . S
C827 C823 1.385 . S
C827 C826 1.374 . S
C828 C825 1.499 . S
C828 C829 1.373 . S
C828 C830 1.389 . S
C829 H808 0.950 . S
C829 C828 1.373 . S
C829 C845 1.377 1_545 S
C830 C828 1.389 . S
C830 C831 1.524 . S
C830 C844 1.377 1_545 S
C831 C830 1.524 . S
C831 C832 1.397 . S
C831 C836 1.363 . S
C832 H809 0.950 . S
C832 C831 1.397 . S
C832 C833 1.334 . S
C833 H810 0.950 . S
C833 C832 1.334 . S
C833 C834 1.287 . S
C834 C833 1.287 . S
C834 C835 1.524 . S
C834 H853 0.913 . S
C835 H811 0.950 . S
C835 C834 1.524 . S
C835 C836 1.415 . S
C836 H812 0.950 . S
C836 C831 1.363 . S
C836 C835 1.415 . S
C837 H813 0.951 . S
C837 C838 1.366 . S
C837 C839 1.388 . S
C838 C837 1.366 . S
C838 C842 1.385 . S
C839 H814 0.951 . S
C839 C837 1.388 . S
C839 C840 1.366 . S
C840 C839 1.366 . S
C840 C841 1.414 . S
C840 C843 1.499 . S
C841 H815 0.950 . S
C841 C840 1.414 . S
C841 C842 1.374 . S
C842 H816 0.950 . S
C842 C838 1.385 . S
C842 C841 1.374 . S
C843 C840 1.499 . S
C843 C844 1.373 . S
C843 C845 1.389 . S
C844 H817 0.950 . S
C844 C830 1.377 1_565 S
C844 C843 1.373 . S
C845 C829 1.377 1_565 S
C845 C843 1.389 . S
C845 C846 1.524 . S
C846 C845 1.524 . S
C846 C847 1.397 . S
C846 C851 1.363 . S
C847 H818 0.950 . S
C847 C846 1.397 . S
C847 C848 1.334 . S
C848 H819 0.950 . S
C848 C847 1.334 . S
C848 C849 1.287 . S
C849 C848 1.287 . S
C849 C850 1.524 . S
C849 H852 0.999 . S
C850 H820 0.950 . S
C850 C849 1.524 . S
C850 C851 1.415 . S
C851 H821 0.950 . S
C851 C846 1.363 . S
C851 C850 1.415 . S
H852 C849 0.999 . S
H853 C834 0.913 . S
H854 C872 0.951 . S
H855 C874 0.951 . S
H856 C876 0.950 . S
H857 C877 0.950 . S
H858 C879 0.950 . S
H859 C882 0.950 1_545 S
H860 C883 0.950 . S
H861 C885 0.950 . S
H862 C886 0.950 1_455 S
H863 C887 0.951 . S
H864 C889 0.951 . S
H865 C891 0.950 . S
H866 C892 0.950 . S
H867 C894 0.950 . S
H868 C897 0.950 1_565 S
H869 C898 0.950 . S
H870 C900 0.950 . S
H871 C901 0.950 1_655 S
C872 H854 0.951 . S
C872 C873 1.366 . S
C872 C874 1.388 . S
C873 C872 1.366 . S
C873 C877 1.385 . S
C874 H855 0.951 . S
C874 C872 1.388 . S
C874 C875 1.366 . S
C875 C874 1.366 . S
C875 C876 1.414 . S
C875 C878 1.499 . S
C876 H856 0.950 . S
C876 C875 1.414 . S
C876 C877 1.374 . S
C877 H857 0.950 . S
C877 C873 1.385 . S
C877 C876 1.374 . S
C878 C875 1.499 . S
C878 C879 1.373 . S
C878 C880 1.389 . S
C879 H858 0.950 . S
C879 C878 1.373 . S
C879 C895 1.377 1_665 S
C880 C878 1.389 . S
C880 C881 1.524 . S
C880 C894 1.377 1_665 S
C881 C880 1.524 . S
C881 C882 1.397 . S
C881 C886 1.363 . S
C882 H859 0.950 1_565 S
C882 C881 1.397 . S
C882 C883 1.334 . S
C883 H860 0.950 . S
C883 C882 1.334 . S
C883 C884 1.287 . S
C884 C883 1.287 . S
C884 C885 1.524 . S
C884 H903 0.913 . S
C885 H861 0.950 . S
C885 C884 1.524 . S
C885 C886 1.415 . S
C886 H862 0.950 1_655 S
C886 C881 1.363 . S
C886 C885 1.415 . S
C887 H863 0.951 . S
C887 C888 1.366 . S
C887 C889 1.388 . S
C888 C887 1.366 . S
C888 C892 1.385 . S
C889 H864 0.951 . S
C889 C887 1.388 . S
C889 C890 1.366 . S
C890 C889 1.366 . S
C890 C891 1.414 . S
C890 C893 1.499 . S
C891 H865 0.950 . S
C891 C890 1.414 . S
C891 C892 1.374 . S
C892 H866 0.950 . S
C892 C888 1.385 . S
C892 C891 1.374 . S
C893 C890 1.499 . S
C893 C894 1.373 . S
C893 C895 1.389 . S
C894 H867 0.950 . S
C894 C880 1.377 1_445 S
C894 C893 1.373 . S
C895 C879 1.377 1_445 S
C895 C893 1.389 . S
C895 C896 1.524 . S
C896 C895 1.524 . S
C896 C897 1.397 . S
C896 C901 1.363 . S
C897 H868 0.950 1_545 S
C897 C896 1.397 . S
C897 C898 1.334 . S
C898 H869 0.950 . S
C898 C897 1.334 . S
C898 C899 1.287 . S
C899 C898 1.287 . S
C899 C900 1.524 . S
C899 H902 0.999 . S
C900 H870 0.950 . S
C900 C899 1.524 . S
C900 C901 1.415 . S
C901 H871 0.950 1_455 S
C901 C896 1.363 . S
C901 C900 1.415 . S
H902 C899 0.999 . S
H903 C884 0.913 . S
C123 C10 0.819 . S
C138 C75 0.819 . S
C173 C21 0.824 . S
C188 C86 0.823 . S
C223 C36 0.819 . S
C238 C101 0.820 . S
C273 C47 0.822 . S
C288 C60 0.823 . S
C323 C99 0.821 . S
C338 C8 0.821 . S
C373 C62 0.819 . S
C388 C23 0.820 . S
C423 C34 0.824 . S
C438 C73 0.823 . S
C473 C88 0.820 . S
C488 C49 0.820 . S
C523 C5 1.514 . S
C538 C83 1.514 . S
C573 C91 1.534 . S
C588 C13 1.534 . S
C623 C31 1.515 . S
C638 C57 1.514 . S
C673 C39 1.534 . S
C688 C65 1.534 . S
C723 C78 1.534 . S
C738 C0 1.534 . S
C773 C96 1.514 . S
C788 C18 1.514 . S
C823 C26 1.534 . S
C838 C52 1.534 . S
C873 C44 1.514 . S
C888 C70 1.514 . S
