# Generated by pormake.
# Topology smc, (6)-cn, num edge types: 1
# Building blocks:
#     Node 0, Type 0, BuildingBlock: JUFBIX_clean_sbu_0, # of connection points: 6
#     Node 1, Type 0, BuildingBlock: JUFBIX_clean_sbu_0, # of connection points: 6
#     Node 2, Type 0, BuildingBlock: JUFBIX_clean_sbu_0, # of connection points: 6
#     Node 3, Type 0, BuildingBlock: JUFBIX_clean_sbu_0, # of connection points: 6
#     Node 4, Type 0, BuildingBlock: JUFBIX_clean_sbu_0, # of connection points: 6
#     Node 5, Type 0, BuildingBlock: JUFBIX_clean_sbu_0, # of connection points: 6
#     Node 6, Type 0, BuildingBlock: JUFBIX_clean_sbu_0, # of connection points: 6
#     Node 7, Type 0, BuildingBlock: JUFBIX_clean_sbu_0, # of connection points: 6
#     Node 8, Type 0, BuildingBlock: JUFBIX_clean_sbu_0, # of connection points: 6
#     Edge 9, Type (0, 0), BuildingBlock: UVAHIK_clean_linker_0, # of connection points: 2
#     Edge 10, Type (0, 0), BuildingBlock: UVAHIK_clean_linker_0, # of connection points: 2
#     Edge 11, Type (0, 0), BuildingBlock: UVAHIK_clean_linker_0, # of connection points: 2
#     Edge 12, Type (0, 0), BuildingBlock: UVAHIK_clean_linker_0, # of connection points: 2
#     Edge 13, Type (0, 0), BuildingBlock: UVAHIK_clean_linker_0, # of connection points: 2
#     Edge 14, Type (0, 0), BuildingBlock: UVAHIK_clean_linker_0, # of connection points: 2
#     Edge 15, Type (0, 0), BuildingBlock: UVAHIK_clean_linker_0, # of connection points: 2
#     Edge 16, Type (0, 0), BuildingBlock: UVAHIK_clean_linker_0, # of connection points: 2
#     Edge 17, Type (0, 0), BuildingBlock: UVAHIK_clean_linker_0, # of connection points: 2
#     Edge 18, Type (0, 0), BuildingBlock: UVAHIK_clean_linker_0, # of connection points: 2
#     Edge 19, Type (0, 0), BuildingBlock: UVAHIK_clean_linker_0, # of connection points: 2
#     Edge 20, Type (0, 0), BuildingBlock: UVAHIK_clean_linker_0, # of connection points: 2
#     Edge 21, Type (0, 0), BuildingBlock: UVAHIK_clean_linker_0, # of connection points: 2
#     Edge 22, Type (0, 0), BuildingBlock: UVAHIK_clean_linker_0, # of connection points: 2
#     Edge 23, Type (0, 0), BuildingBlock: UVAHIK_clean_linker_0, # of connection points: 2
#     Edge 24, Type (0, 0), BuildingBlock: UVAHIK_clean_linker_0, # of connection points: 2
#     Edge 25, Type (0, 0), BuildingBlock: UVAHIK_clean_linker_0, # of connection points: 2
#     Edge 26, Type (0, 0), BuildingBlock: UVAHIK_clean_linker_0, # of connection points: 2
#     Edge 27, Type (0, 0), BuildingBlock: UVAHIK_clean_linker_0, # of connection points: 2
#     Edge 28, Type (0, 0), BuildingBlock: UVAHIK_clean_linker_0, # of connection points: 2
#     Edge 29, Type (0, 0), BuildingBlock: UVAHIK_clean_linker_0, # of connection points: 2
#     Edge 30, Type (0, 0), BuildingBlock: UVAHIK_clean_linker_0, # of connection points: 2
#     Edge 31, Type (0, 0), BuildingBlock: UVAHIK_clean_linker_0, # of connection points: 2
#     Edge 32, Type (0, 0), BuildingBlock: UVAHIK_clean_linker_0, # of connection points: 2
#     Edge 33, Type (0, 0), BuildingBlock: UVAHIK_clean_linker_0, # of connection points: 2
#     Edge 34, Type (0, 0), BuildingBlock: UVAHIK_clean_linker_0, # of connection points: 2
#     Edge 35, Type (0, 0), BuildingBlock: UVAHIK_clean_linker_0, # of connection points: 2
# Relax obj value: 0.423
# Max RMSD: 0.307
# Mean RMSD: 0.299
data_MOF--net-smc--node1-JUFBIX_clean_sbu_0--edge1-UVAHIK_clean_linker_0
_symmetry_space_group_name_H-M    P1
_symmetry_Int_Tables_number       1
_symmetry_cell_setting            triclinic
loop_
_symmetry_equiv_pos_as_xyz
'x, y, z'
_cell_length_a     37.392878
_cell_length_b     42.256598
_cell_length_c     53.939325
_cell_angle_alpha  89.726112
_cell_angle_beta   89.732921
_cell_angle_gamma 120.0051
loop_
_atom_site_label
_atom_site_type_symbol
_atom_site_fract_x
_atom_site_fract_y
_atom_site_fract_z
_atom_type_partial_charge
Co0 Co 0.0594 0.4758 1.01018 0.0
C1 C 0.01906 0.4255 0.97284 0.0
Co2 Co 0.01622 0.42059 0.02462 0.0
C3 C 0.09776 0.55388 1.00584 0.0
C4 C 0.12781 0.53289 0.98282 0.0
N5 N 0.09631 0.52255 0.99911 0.0
N6 N 0.12896 0.58327 0.99451 0.0
C7 C 0.14817 0.57031 0.98011 0.0
H8 H 0.07677 0.55524 0.01911 0.0
H9 H 0.13552 0.51442 0.97354 0.0
C10 C 0.0566 0.46784 0.06227 0.0
N11 N 0.97776 0.3737 0.0354 0.0
C12 C 0.93731 0.3557 0.02941 0.0
C13 C 0.98187 0.35163 0.05185 0.0
N14 N 0.91574 0.32358 0.04167 0.0
C15 C 0.94379 0.32073 0.05569 0.0
C16 C 0.09688 0.43415 1.01644 0.0
O17 O 0.07499 0.49066 0.04459 0.0
O18 O 0.02817 0.43579 0.05734 0.0
O19 O 0.06171 0.40955 0.0249 0.0
O20 O 0.10095 0.46393 1.00842 0.0
O21 O 1.00405 0.4046 0.9916 0.0
H22 H 1.01035 0.35811 0.06105 0.0
H23 H 0.92378 0.36626 1.01644 0.0
O24 O 0.04401 0.45946 0.97628 0.0
O25 O 0.01773 0.48849 1.01181 0.0
O26 O 0.97292 0.43358 0.02472 0.0
C27 C 0.98124 0.46572 0.01858 0.0
H28 H 0.17464 0.58671 0.96826 0.0
H29 H 0.93705 0.29866 0.06854 0.0
Co30 Co 0.5926 0.54416 0.04298 0.0
C31 C 0.60823 0.59308 0.08112 0.0
Co32 Co 0.618 0.60042 0.02989 0.0
C33 C 0.53654 0.46869 0.04063 0.0
C34 C 0.57339 0.48072 0.07322 0.0
N35 N 0.56804 0.49617 0.05271 0.0
N36 N 0.52144 0.43663 0.05276 0.0
C37 C 0.54458 0.44392 0.07333 0.0
H38 H 0.52384 0.47256 0.02366 0.0
H39 H 0.59602 0.49539 0.08739 0.0
C40 C 0.60506 0.55412 0.99142 0.0
N41 N 0.64193 0.64864 0.01981 0.0
C42 C 0.62905 0.67246 0.02528 0.0
C43 C 0.67497 0.6673 1.00477 0.0
N44 N 0.65249 0.70523 1.01411 0.0
C45 C 0.6815 0.70208 1.00119 0.0
C46 C 0.67636 0.57794 0.04115 0.0
O47 O 0.59503 0.53041 1.0087 0.0
O48 O 0.61452 0.58644 0.99688 0.0
O49 O 0.67306 0.6044 0.03205 0.0
O50 O 0.64402 0.54936 0.04824 0.0
O51 O 0.622 0.61529 0.06299 0.0
H52 H 0.6927 0.65612 0.99658 0.0
H53 H 0.60207 0.66539 0.0366 0.0
O54 O 0.59163 0.55896 0.07686 0.0
O55 O 0.53993 0.53766 0.03775 0.0
O56 O 0.56218 0.5945 0.0275 0.0
C57 C 0.532 0.56222 0.03123 0.0
H58 H 0.5409 0.42421 0.08745 0.0
H59 H 0.70551 0.72322 0.98977 0.0
Co60 Co 0.42575 0.99412 1.00416 0.0
C61 C 0.41669 0.03693 0.96712 0.0
Co62 Co 0.39777 0.02594 1.0169 0.0
C63 C 0.47635 0.95965 1.00362 0.0
C64 C 0.44653 0.9557 0.96904 0.0
N65 N 0.45062 0.96878 0.99225 0.0
N66 N 0.48873 0.94178 0.98824 0.0
C67 C 0.47002 0.93928 0.9665 0.0
H68 H 0.48613 0.9663 0.02267 0.0
H69 H 0.42744 0.95778 0.95485 0.0
C70 C 0.4057 0.9843 0.05428 0.0
N71 N 0.37091 0.04954 0.02865 0.0
C72 C 0.37106 0.07923 0.01933 0.0
C73 C 0.34234 0.03739 0.04706 0.0
N74 N 0.3437 0.08593 0.03114 0.0
C75 C 0.32586 0.05995 0.04878 0.0
C76 C 0.34177 0.95584 1.00051 0.0
O77 O 0.41784 0.9713 0.03698 0.0
O78 O 0.39774 0.00932 0.04903 0.0
O79 O 0.34469 0.98366 1.01131 0.0
O80 O 0.37433 0.95549 0.99453 0.0
O81 O 0.39793 0.04297 0.98445 0.0
H82 H 0.33308 0.013 0.05806 0.0
H83 H 0.3907 0.09556 1.00411 0.0
O84 O 0.43281 0.0172 0.97178 0.0
O85 O 0.47748 0.03281 1.0138 0.0
O86 O 0.45161 0.06806 0.02273 0.0
C87 C 0.48283 0.06352 0.02085 0.0
H88 H 0.47244 0.92579 0.95009 0.0
H89 H 0.302 0.05703 0.06159 0.0
Co90 Co 0.74921 0.80422 0.3604 0.0
C91 C 0.69677 0.75701 0.32406 0.0
Co92 Co 0.69543 0.75422 0.37539 0.0
C93 C 0.80071 0.88233 0.35494 0.0
C94 C 0.81657 0.85418 0.32809 0.0
N95 N 0.79197 0.84847 0.34792 0.0
N96 N 0.82912 0.90893 0.34003 0.0
C97 C 0.83934 0.89122 0.32317 0.0
H98 H 0.78471 0.8872 0.36989 0.0
H99 H 0.81662 0.83273 0.31725 0.0
C100 C 0.74769 0.79936 0.41186 0.0
N101 N 0.65304 0.71139 0.38834 0.0
C102 C 0.61325 0.69292 0.3813 0.0
C103 C 0.65619 0.69066 0.40634 0.0
N104 N 0.59155 0.66129 0.39403 0.0
C105 C 0.61842 0.65973 0.40982 0.0
C106 C 0.76489 0.74815 0.3652 0.0
O107 O 0.76951 0.81891 0.39367 0.0
O108 O 0.71365 0.77059 0.40772 0.0
O109 O 0.72859 0.73249 0.37413 0.0
O110 O 0.78137 0.78108 0.3575 0.0
O111 O 0.6774 0.73777 0.34289 0.0
H112 H 0.68437 0.69731 0.416 0.0
H113 H 0.6008 0.70192 0.36654 0.0
O114 O 0.72867 0.78829 0.32732 0.0
O115 O 0.71615 0.82638 0.36334 0.0
O116 O 0.66225 0.77593 0.37661 0.0
C117 C 0.6788 0.80939 0.37057 0.0
H118 H 0.86101 0.90399 0.30799 0.0
H119 H 0.6113 0.63776 0.42285 0.0
Co120 Co 0.22013 0.89656 0.34827 0.0
C121 C 0.26434 0.90246 0.30497 0.0
Co122 Co 0.28634 0.91977 0.35413 0.0
C123 C 0.13604 0.8444 0.3566 0.0
C124 C 0.14208 0.88227 0.32809 0.0
N125 N 0.16411 0.87436 0.34416 0.0
N126 N 0.09757 0.83301 0.34879 0.0
C127 C 0.1008 0.8568 0.33104 0.0
H128 H 0.14353 0.83098 0.37113 0.0
H129 H 0.15521 0.90457 0.31481 0.0
C130 C 0.24502 0.91586 0.39748 0.0
N131 N 0.34239 0.94207 0.35888 0.0
C132 C 0.36686 0.92778 0.35458 0.0
C133 C 0.36723 0.97483 0.36932 0.0
N134 N 0.40579 0.94998 0.36225 0.0
C135 C 0.40637 0.97982 0.37135 0.0
C136 C 0.25973 0.97081 0.34373 0.0
O137 O 0.21354 0.90354 0.38346 0.0
O138 O 0.27938 0.92304 0.38812 0.0
O139 O 0.29111 0.96797 0.34935 0.0
O140 O 0.22509 0.94206 0.34147 0.0
O141 O 0.2943 0.91678 0.31995 0.0
H142 H 0.35716 0.99321 0.37605 0.0
H143 H 0.35606 0.90108 0.34662 0.0
O144 O 0.2278 0.8908 0.31326 0.0
O145 O 0.21418 0.85007 0.35496 0.0
O146 O 0.28009 0.87088 0.3591 0.0
C147 C 0.24335 0.84373 0.35885 0.0
H148 H 0.07536 0.85515 0.3205 0.0
H149 H 0.4325 1.00253 0.38015 0.0
Co150 Co 0.10573 0.31947 0.34535 0.0
C151 C 0.09888 0.36091 0.30672 0.0
Co152 Co 0.08433 0.35767 0.35744 0.0
C153 C 0.14286 0.27138 0.34321 0.0
C154 C 0.10252 0.26511 0.31328 0.0
N155 N 0.11868 0.28428 0.33416 0.0
N156 N 0.14245 0.2451 0.32855 0.0
C157 C 0.1168 0.24124 0.30985 0.0
H158 H 0.16049 0.28119 0.36009 0.0
H159 H 0.08112 0.26797 0.30135 0.0
C160 C 0.0885 0.31633 0.3963 0.0
N161 N 0.07332 0.39486 0.36725 0.0
C162 C 0.0965 0.43081 0.36101 0.0
C163 C 0.0444 0.39345 0.38292 0.0
N164 N 0.08364 0.45203 0.37226 0.0
C165 C 0.05056 0.42833 0.38597 0.0
C166 C 0.01964 0.29047 0.34572 0.0
O167 O 0.09903 0.30149 0.3793 0.0
O168 O 0.08287 0.34281 0.39064 0.0
O169 O 0.02622 0.32094 0.35459 0.0
O170 O 0.04988 0.28624 0.34002 0.0
O171 O 0.08526 0.37188 0.32428 0.0
H172 H 0.02107 0.36884 0.39208 0.0
H173 H 0.12274 0.44129 0.3485 0.0
O174 O 0.11129 0.3384 0.31157 0.0
O175 O 0.16165 0.35281 0.35092 0.0
O176 O 0.14179 0.39216 0.36031 0.0
C177 C 0.17057 0.38482 0.35719 0.0
H178 H 0.10796 0.22185 0.29488 0.0
H179 H 0.03277 0.4357 0.39808 0.0
Co180 Co 0.3904 0.14693 0.66877 0.0
C181 C 0.34252 0.09341 0.63414 0.0
Co182 Co 0.3466 0.09367 0.68549 0.0
C183 C 0.43965 0.22494 0.66216 0.0
C184 C 0.44994 0.19552 0.63345 0.0
N185 N 0.42798 0.19088 0.65439 0.0
N186 N 0.46822 0.25072 0.64693 0.0
C187 C 0.47473 0.23225 0.62883 0.0
H188 H 0.42799 0.23063 0.67896 0.0
H189 H 0.44816 0.17355 0.62232 0.0
C190 C 0.3935 0.14466 0.72052 0.0
N191 N 0.30761 0.04946 0.69961 0.0
C192 C 0.26656 0.03259 0.69552 0.0
C193 C 0.31183 0.03105 0.71876 0.0
N194 N 0.24461 0.00501 0.71176 0.0
C195 C 0.27322 0.00374 0.72626 0.0
C196 C 0.42394 0.10193 0.67521 0.0
O197 O 0.41134 0.16546 0.70186 0.0
O198 O 0.36344 0.11282 0.71713 0.0
O199 O 0.38925 0.07946 0.68532 0.0
O200 O 0.42907 0.13158 0.66615 0.0
O201 O 0.32914 0.07371 0.65355 0.0
H202 H 0.3408 0.03847 0.72769 0.0
H203 H 0.25306 0.0416 0.68145 0.0
O204 O 0.3693 0.12714 0.63636 0.0
O205 O 0.35196 0.16325 0.67119 0.0
O206 O 0.30613 0.10969 0.68586 0.0
C207 C 0.31562 0.14185 0.679 0.0
H208 H 0.49578 0.24437 0.61328 0.0
H209 H 0.26681 0.98593 0.74215 0.0
Co210 Co 0.92017 0.20693 0.69258 0.0
C211 C 0.9338 0.25597 0.73088 0.0
Co212 Co 0.94276 0.2629 0.67972 0.0
C213 C 0.86661 0.12974 0.69366 0.0
C214 C 0.90987 0.14735 0.72345 0.0
N215 N 0.8994 0.15947 0.70312 0.0
N216 N 0.85558 0.09959 0.7075 0.0
C217 C 0.88287 0.11046 0.72623 0.0
H218 H 0.84984 0.13063 0.67762 0.0
H219 H 0.93457 0.16448 0.73591 0.0
C220 C 0.93227 0.21715 0.64097 0.0
N221 N 0.96306 0.31047 0.66951 0.0
C222 C 0.94926 0.33277 0.67711 0.0
C223 C 0.99438 0.33076 0.65367 0.0
N224 N 0.97066 0.36634 0.66676 0.0
C225 C 0.9991 0.3652 0.65189 0.0
C226 C 1.00448 0.24534 0.6908 0.0
O227 O 0.92298 0.19318 0.65807 0.0
O228 O 0.94 0.24889 0.64685 0.0
O229 O 0.99925 0.27071 0.68171 0.0
O230 O 0.97319 0.2156 0.69741 0.0
O231 O 0.94618 0.27793 0.71264 0.0
H232 H 1.01263 0.32117 0.64412 0.0
H233 H 0.92356 0.32421 0.68985 0.0
O234 O 0.91897 0.22199 0.7267 0.0
O235 O 0.866 0.19721 0.68787 0.0
O236 O 0.88569 0.25365 0.67771 0.0
C237 C 0.85657 0.22098 0.68169 0.0
H238 H 0.88295 0.09315 0.74106 0.0
H239 H 0.022 0.38766 0.64078 0.0
Co240 Co 0.79054 0.68714 0.70371 0.0
C241 C 0.77865 0.72275 0.66315 0.0
Co242 Co 0.74341 0.70281 0.70959 0.0
C243 C 0.83192 0.64482 0.69978 0.0
C244 C 0.86997 0.70078 0.68872 0.0
N245 N 0.83221 0.67677 0.69784 0.0
N246 N 0.86795 0.64798 0.69199 0.0
C247 C 0.89196 0.68317 0.68509 0.0
H248 H 0.80535 0.61951 0.70595 0.0
H249 H 0.88054 0.72918 0.6845 0.0
C250 C 0.75348 0.66662 0.75004 0.0
N251 N 0.70195 0.71377 0.71509 0.0
C252 C 0.69889 0.74135 0.70473 0.0
C253 C 0.66839 0.69634 0.73003 0.0
N254 N 0.66501 0.74191 0.71257 0.0
C255 C 0.64588 0.71404 0.7288 0.0
C256 C 0.71395 0.6334 0.68974 0.0
O257 O 0.77907 0.66355 0.73598 0.0
O258 O 0.73661 0.68434 0.74217 0.0
O259 O 0.70287 0.65518 0.69839 0.0
O260 O 0.75193 0.64289 0.68953 0.0
O261 O 0.75015 0.72093 0.67692 0.0
H262 H 0.66094 0.67255 0.74128 0.0
H263 H 0.72184 0.76154 0.69226 0.0
O264 O 0.80126 0.71052 0.67141 0.0
O265 O 0.82903 0.73117 0.71801 0.0
O266 O 0.78497 0.7509 0.72077 0.0
C267 C 0.82137 0.75621 0.72363 0.0
H268 H 0.92314 0.69527 0.67781 0.0
H269 H 0.61804 0.70731 0.73913 0.0
C270 C 0.46005 0.51394 0.02171 0.0
C271 C 0.48768 0.55087 0.02723 0.0
C272 C 0.41768 0.50054 0.01989 0.0
C273 C 0.33359 0.51628 0.04005 0.0
H274 H 0.27227 0.44497 0.98933 0.0
C275 C 0.15354 0.43341 0.04043 0.0
C276 C 0.1351 0.43187 1.01749 0.0
C277 C 0.19608 0.4455 0.04179 0.0
C278 C 0.28876 0.46487 1.00361 0.0
H279 H 0.49185 0.60285 0.0348 0.0
H280 H 0.41678 0.5792 0.03166 0.0
H281 H 0.34729 0.47463 0.98994 0.0
H282 H 0.1464 0.44058 0.97802 0.0
H283 H 0.21957 0.46007 0.98014 0.0
H284 H 0.27476 0.50663 0.05353 0.0
C285 C 0.42851 0.56068 0.02883 0.0
C286 C 0.33195 0.48182 1.00405 0.0
C287 C 0.47153 0.57436 0.0304 0.0
C288 C 0.15944 0.44037 0.99588 0.0
C289 C 0.20162 0.45196 0.99717 0.0
C290 C 0.2902 0.49911 0.0397 0.0
C291 C 0.40102 0.52346 0.02361 0.0
C292 C 0.35508 0.50767 0.02232 0.0
C293 C 0.22098 0.45602 0.02019 0.0
C294 C 0.26712 0.47309 0.02146 0.0
H295 H 0.47115 0.49491 0.01904 0.0
H296 H 0.39777 0.47174 1.01618 0.0
H297 H 0.35023 0.53575 0.05453 0.0
H298 H 0.13589 0.42812 0.05745 0.0
H299 H 0.20973 0.44783 0.05983 0.0
C300 C 0.54097 0.92605 0.9752 0.0
C301 C 0.51482 0.9267 0.99368 0.0
C302 C 0.56263 0.90758 0.97916 0.0
C303 C 0.59382 0.86249 0.02694 0.0
H304 H 0.59041 0.80368 0.97103 0.0
C305 C 0.62384 0.74065 0.03381 0.0
C306 C 0.6452 0.73567 1.01406 0.0
C307 C 0.61345 0.76814 0.03272 0.0
C308 C 0.59226 0.82035 0.98671 0.0
H309 H 0.49214 0.91003 0.03119 0.0
H310 H 0.52937 0.87685 0.03808 0.0
H311 H 0.56248 0.8443 0.9668 0.0
H312 H 0.67368 0.75668 0.97809 0.0
H313 H 0.65608 0.80483 0.97635 0.0
H314 H 0.62272 0.83741 0.04698 0.0
C315 C 0.53366 0.89112 0.02062 0.0
C316 C 0.57627 0.84374 0.98429 0.0
C317 C 0.51228 0.91003 1.01671 0.0
C318 C 0.6574 0.75977 0.99367 0.0
C319 C 0.64694 0.78717 0.99256 0.0
C320 C 0.60973 0.83887 0.02939 0.0
C321 C 0.55823 0.88889 1.00161 0.0
C322 C 0.5768 0.8651 1.00434 0.0
C323 C 0.62411 0.79117 1.01182 0.0
C324 C 0.60904 0.81752 1.00928 0.0
H325 H 0.54406 0.93933 0.95747 0.0
H326 H 0.58215 0.90728 0.96438 0.0
H327 H 0.59502 0.87879 0.04268 0.0
H328 H 0.61459 0.72296 0.04997 0.0
H329 H 0.5957 0.77043 0.04782 0.0
C330 C 0.27276 0.90985 1.01729 0.0
C331 C 0.30179 0.92215 0.99782 0.0
C332 C 0.24034 0.87361 0.01786 0.0
C333 C 0.21412 0.79232 0.02261 0.0
H334 H 0.14758 0.73437 0.96753 0.0
C335 C 0.18121 0.64812 0.99895 0.0
C336 C 0.13965 0.62073 0.99732 0.0
C337 C 0.19179 0.6846 1.00151 0.0
C338 C 0.16545 0.75029 0.98319 0.0
H339 H 0.31788 0.90788 0.96265 0.0
H340 H 0.2605 0.84506 0.96318 0.0
H341 H 0.17967 0.80122 0.96599 0.0
H342 H 0.07651 0.60962 0.99683 0.0
H343 H 0.09527 0.67416 1.00037 0.0
H344 H 0.20279 0.74169 0.03885 0.0
C345 C 0.26287 0.86308 0.97809 0.0
C346 C 0.18374 0.78835 0.98231 0.0
C347 C 0.29575 0.89894 0.97782 0.0
C348 C 0.10875 0.63039 0.99822 0.0
C349 C 0.11939 0.66708 1.00017 0.0
C350 C 0.19655 0.7544 0.02324 0.0
C351 C 0.23606 0.84963 0.99865 0.0
C352 C 0.20913 0.80971 1.00173 0.0
C353 C 0.161 0.69436 1.00194 0.0
C354 C 0.17306 0.73326 1.00325 0.0
H355 H 0.2771 0.92721 0.03304 0.0
H356 H 0.22005 0.86375 0.03391 0.0
H357 H 0.23403 0.8082 0.03765 0.0
H358 H 0.20544 0.64119 0.99845 0.0
H359 H 0.2241 0.70535 1.00266 0.0
C360 C 0.32972 0.13328 0.04648 0.0
C361 C 0.33666 0.11579 0.02659 0.0
C362 C 0.33002 0.16602 0.04266 0.0
C363 C 0.38402 0.24343 1.00101 0.0
H364 H 0.34403 0.28675 0.04899 0.0
C365 C 0.47656 0.39559 0.02008 0.0
C366 C 0.48683 0.40244 0.0453 0.0
C367 C 0.44388 0.36209 1.01262 0.0
C368 C 0.35504 0.27499 0.03522 0.0
H369 H 0.34403 0.11582 0.98676 0.0
H370 H 0.34364 0.17282 0.97984 0.0
H371 H 0.3067 0.22056 0.04339 0.0
H372 H 0.46946 0.38029 0.08254 0.0
H373 H 0.41322 0.32114 0.06946 0.0
H374 H 0.43348 0.29736 0.99377 0.0
C375 C 0.33938 0.16199 0.99854 0.0
C376 C 0.33376 0.23717 0.03201 0.0
C377 C 0.33976 0.12951 1.00246 0.0
C378 C 0.46276 0.37556 0.06298 0.0
C379 C 0.43004 0.34199 0.0555 0.0
C380 C 0.40494 0.28113 1.00402 0.0
C381 C 0.33682 0.18165 0.01878 0.0
C382 C 0.34965 0.22085 1.01606 0.0
C383 C 0.42089 0.33469 0.03021 0.0
C384 C 0.39207 0.29699 0.02221 0.0
H385 H 0.32718 0.12313 0.06525 0.0
H386 H 0.32842 0.18045 0.05878 0.0
H387 H 0.39746 0.23202 0.98864 0.0
H388 H 0.49462 0.41562 1.00596 0.0
H389 H 0.43748 0.35714 0.99301 0.0
C390 C 0.5365 0.13002 0.02675 0.0
C391 C 0.5254 0.09295 0.02657 0.0
C392 C 0.57782 0.15725 0.03043 0.0
C393 C 0.67726 0.17179 0.05523 0.0
H394 H 0.72806 0.25317 1.00892 0.0
C395 C 0.85456 0.26158 0.04603 0.0
C396 C 0.87156 0.29912 0.0412 0.0
C397 C 0.81174 0.23797 0.04556 0.0
C398 C 0.71433 0.23097 0.02229 0.0
H399 H 0.54876 0.05542 0.03092 0.0
H400 H 0.61993 0.10245 0.03751 0.0
H401 H 0.65393 0.21029 1.00688 0.0
H402 H 0.85653 0.34134 0.03276 0.0
H403 H 0.78213 0.30044 0.03221 0.0
H404 H 0.73738 0.1922 0.07067 0.0
C405 C 0.59705 0.1107 0.03481 0.0
C406 C 0.67176 0.20639 0.0211 0.0
C407 C 0.55616 0.08371 0.03085 0.0
C408 C 0.84462 0.31249 0.03608 0.0
C409 C 0.80183 0.28896 0.03577 0.0
C410 C 0.71971 0.19645 0.05653 0.0
C411 C 0.60856 0.14782 0.03441 0.0
C412 C 0.65285 0.17616 0.0373 0.0
C413 C 0.78472 0.25133 0.04044 0.0
C414 C 0.73902 0.22609 0.03983 0.0
H415 H 0.51354 0.138 0.02345 0.0
H416 H 0.58574 0.18566 0.03014 0.0
H417 H 0.66353 0.14906 0.06822 0.0
H418 H 0.87442 0.25033 0.04977 0.0
H419 H 0.79988 0.2091 0.04882 0.0
C420 C 0.95783 0.51027 1.0079 0.0
C421 C 0.94986 0.47758 0.01972 0.0
C422 C 0.92992 0.5231 1.00977 0.0
C423 C 0.82122 0.49454 0.02861 0.0
H424 H 0.86349 0.59917 0.03 0.0
C425 C 0.71851 0.55254 0.05818 0.0
C426 C 0.71564 0.57708 0.04168 0.0
C427 C 0.74966 0.54376 0.05559 0.0
C428 C 0.85124 0.56991 0.02943 0.0
H429 H 0.90595 0.43268 0.04278 0.0
H430 H 0.85774 0.45553 0.04681 0.0
H431 H 0.91136 0.57599 0.02558 0.0
H432 H 0.7452 0.61351 1.01043 0.0
H433 H 0.80092 0.59871 1.00625 0.0
H434 H 0.76125 0.48865 0.03331 0.0
C435 C 0.88516 0.47095 0.03548 0.0
C436 C 0.87864 0.55647 0.02679 0.0
C437 C 0.91292 0.45781 0.0333 0.0
C438 C 0.74677 0.59479 0.02358 0.0
C439 C 0.77844 0.5861 0.02109 0.0
C440 C 0.79401 0.50798 0.0316 0.0
C441 C 0.89331 0.50396 0.02384 0.0
C442 C 0.86408 0.5185 0.02642 0.0
C443 C 0.77919 0.5594 0.03653 0.0
C444 C 0.80865 0.5458 0.0322 0.0
H445 H 0.98585 0.52614 0.99711 0.0
H446 H 0.93712 0.54805 0.99999 0.0
H447 H 0.80841 0.46524 0.02781 0.0
H448 H 0.69528 0.53858 0.07248 0.0
H449 H 0.74988 0.52373 0.06812 0.0
C450 C 0.82089 0.73894 0.34799 0.0
C451 C 0.78723 0.72779 0.36414 0.0
C452 C 0.8434 0.72082 0.34814 0.0
C453 C 0.88501 0.676 0.34946 0.0
H454 H 0.9403 0.71283 0.41205 0.0
C455 C 0.06039 0.76717 0.35842 0.0
C456 C 0.06111 0.80074 0.35689 0.0
C457 C 0.02386 0.73522 0.36488 0.0
C458 C 0.92473 0.7005 0.39488 0.0
H459 H 0.74908 0.68781 0.39217 0.0
H460 H 0.79009 0.65734 0.39328 0.0
H461 H 0.8671 0.69186 0.4089 0.0
H462 H 0.02609 0.8282 0.362 0.0
H463 H 0.9624 0.77267 0.37394 0.0
H464 H 0.94419 0.68979 0.33468 0.0
C465 C 0.79821 0.67937 0.3801 0.0
C466 C 0.88272 0.68857 0.39299 0.0
C467 C 0.77517 0.6971 0.37961 0.0
C468 C 0.02581 0.80247 0.36297 0.0
C469 C 0.98984 0.77092 0.37006 0.0
C470 C 0.92695 0.68759 0.35143 0.0
C471 C 0.83302 0.69159 0.36472 0.0
C472 C 0.86414 0.68069 0.36955 0.0
C473 C 0.98842 0.73704 0.37068 0.0
C474 C 0.94774 0.70413 0.37338 0.0
H475 H 0.83047 0.7622 0.33569 0.0
H476 H 0.87074 0.73143 0.33649 0.0
H477 H 0.87092 0.66923 0.33131 0.0
H478 H 0.0876 0.76557 0.35364 0.0
H479 H 0.02296 0.7092 0.36475 0.0
C480 C 0.16984 0.20731 0.311 0.0
C481 C 0.16332 0.22416 0.33165 0.0
C482 C 0.18542 0.1836 0.31381 0.0
C483 C 0.24505 0.15523 0.3515 0.0
H484 H 0.17477 0.0605 0.32212 0.0
C485 C 0.27586 0.03216 0.36014 0.0
C486 C 0.26148 0.00645 0.34093 0.0
C487 C 0.2681 0.06152 0.35982 0.0
C488 C 0.19541 0.08694 0.33003 0.0
H489 H 0.1709 0.23064 0.37147 0.0
H490 H 0.19935 0.18951 0.37627 0.0
H491 H 0.15441 0.10669 0.32069 0.0
H492 H 0.23008 0.99238 0.30573 0.0
H493 H 0.21914 0.04441 0.30416 0.0
H494 H 0.28683 0.13582 0.36016 0.0
C495 C 0.19162 0.19461 0.35792 0.0
C496 C 0.18337 0.11336 0.32942 0.0
C497 C 0.17539 0.2182 0.35514 0.0
C498 C 0.24158 0.01186 0.32075 0.0
C499 C 0.23467 0.04145 0.32013 0.0
C500 C 0.25757 0.12883 0.35179 0.0
C501 C 0.19572 0.17631 0.33729 0.0
C502 C 0.20814 0.14794 0.33987 0.0
C503 C 0.2462 0.06596 0.34011 0.0
C504 C 0.23315 0.09437 0.34071 0.0
H505 H 0.16235 0.21196 0.29249 0.0
H506 H 0.18894 0.17047 0.29751 0.0
H507 H 0.26484 0.18172 0.35966 0.0
H508 H 0.2906 0.02819 0.37616 0.0
H509 H 0.27742 0.07955 0.37562 0.0
C510 C 0.96178 0.23689 0.36654 0.0
C511 C 0.97862 0.25731 0.34465 0.0
C512 C 0.93646 0.19871 0.36565 0.0
C513 C 0.92767 0.1251 0.32569 0.0
H514 H 0.83868 0.0603 0.3699 0.0
C515 C 0.85437 0.96851 0.31853 0.0
C516 C 0.84229 0.94754 0.34049 0.0
C517 C 0.86638 0.00567 0.31881 0.0
C518 C 0.86383 0.078 0.35757 0.0
H519 H 0.97939 0.2543 0.30468 0.0
H520 H 0.93384 0.18825 0.30296 0.0
H521 H 0.86393 0.12606 0.37059 0.0
H522 H 0.83366 0.94961 0.38007 0.0
H523 H 0.85549 0.01457 0.38072 0.0
H524 H 0.92889 0.07778 0.31318 0.0
C525 C 0.94073 0.20137 0.32088 0.0
C526 C 0.87813 0.11574 0.3579 0.0
C527 C 0.96608 0.23937 0.3218 0.0
C528 C 0.84245 0.96481 0.36277 0.0
C529 C 0.85481 1.00213 0.3631 0.0
C530 C 0.91366 0.08759 0.32548 0.0
C531 C 0.92767 0.18031 0.34282 0.0
C532 C 0.91022 0.1398 0.34189 0.0
C533 C 0.86711 0.0232 0.34112 0.0
C534 C 0.88151 0.06335 0.34139 0.0
H535 H 0.97202 0.24982 0.38442 0.0
H536 H 0.92707 0.18344 0.38293 0.0
H537 H 0.95321 0.14278 0.31357 0.0
H538 H 0.85382 0.95607 0.30094 0.0
H539 H 0.87467 0.02054 0.30138 0.0
C540 C 0.19136 0.7781 0.36773 0.0
C541 C 0.23274 0.80475 0.36264 0.0
C542 C 0.1791 0.74103 0.36987 0.0
C543 C 0.2068 0.6714 0.35187 0.0
H544 H 0.12383 0.61266 0.40122 0.0
C545 C 0.14441 0.51427 0.36446 0.0
C546 C 0.10244 0.49169 0.37097 0.0
C547 C 0.16271 0.55262 0.36392 0.0
C548 C 0.14658 0.62837 0.38705 0.0
H549 H 0.29378 0.81254 0.35593 0.0
H550 H 0.27222 0.74716 0.35959 0.0
H551 H 0.15224 0.67848 0.40008 0.0
H552 H 0.0469 0.49259 0.38134 0.0
H553 H 0.07831 0.55877 0.38017 0.0
H554 H 0.20056 0.62104 0.33859 0.0
C555 C 0.24925 0.75539 0.3619 0.0
C556 C 0.16311 0.6664 0.38648 0.0
C557 C 0.26173 0.79294 0.35999 0.0
C558 C 0.07936 0.50879 0.37664 0.0
C559 C 0.09758 0.54704 0.37603 0.0
C560 C 0.19007 0.63318 0.35238 0.0
C561 C 0.20762 0.72885 0.36688 0.0
C562 C 0.19306 0.68857 0.36867 0.0
C563 C 0.13969 0.56975 0.36985 0.0
C564 C 0.15919 0.61089 0.36978 0.0
H565 H 0.16791 0.78578 0.36989 0.0
H566 H 0.14675 0.72171 0.37331 0.0
H567 H 0.22948 0.68735 0.33773 0.0
H568 H 0.16354 0.50244 0.36027 0.0
H569 H 0.19524 0.56884 0.35936 0.0
C570 C 0.2244 0.45028 0.36238 0.0
C571 C 0.21387 0.41344 0.36077 0.0
C572 C 0.26537 0.47746 0.36576 0.0
C573 C 0.36284 0.49292 0.39076 0.0
H574 H 0.41253 0.57901 0.34834 0.0
C575 C 0.53658 0.59679 0.39342 0.0
C576 C 0.54914 0.63393 0.39053 0.0
C577 C 0.49552 0.5701 0.3897 0.0
C578 C 0.39896 0.55543 0.36059 0.0
H579 H 0.23779 0.37607 0.36153 0.0
H580 H 0.30949 0.42371 0.36782 0.0
H581 H 0.34072 0.53193 0.34211 0.0
H582 H 0.5288 0.67249 0.3819 0.0
H583 H 0.45663 0.62594 0.37602 0.0
H584 H 0.42048 0.51652 0.40966 0.0
C585 C 0.28595 0.43141 0.36639 0.0
C586 C 0.35795 0.52845 0.35693 0.0
C587 C 0.24504 0.40425 0.36268 0.0
C588 C 0.51989 0.64398 0.38396 0.0
C589 C 0.47866 0.6173 0.38053 0.0
C590 C 0.40368 0.52007 0.39463 0.0
C591 C 0.29642 0.46822 0.36792 0.0
C592 C 0.33966 0.49692 0.37191 0.0
C593 C 0.46602 0.58003 0.38331 0.0
C594 C 0.42231 0.55155 0.3795 0.0
H595 H 0.20103 0.45819 0.36092 0.0
H596 H 0.27272 0.50566 0.36706 0.0
H597 H 0.34917 0.46902 0.40275 0.0
H598 H 0.55871 0.58834 0.39805 0.0
H599 H 0.48707 0.54166 0.39148 0.0
C600 C 0.47954 0.96802 0.36211 0.0
C601 C 0.43779 0.94085 0.36418 0.0
C602 C 0.51049 0.95893 0.36479 0.0
C603 C 0.52939 0.88978 0.39276 0.0
H604 H 0.61172 0.9147 0.34098 0.0
C605 C 0.6132 0.80951 0.37869 0.0
C606 C 0.65517 0.82859 0.37203 0.0
C607 C 0.59078 0.82766 0.37989 0.0
C608 C 0.58945 0.90813 0.35584 0.0
H609 H 0.39556 0.88321 0.3711 0.0
H610 H 0.44936 0.86738 0.37564 0.0
H611 H 0.56521 0.93961 0.33926 0.0
H612 H 0.7068 0.8817 0.36168 0.0
H613 H 0.6675 0.91343 0.36399 0.0
H614 H 0.55287 0.85779 0.40915 0.0
C615 C 0.45823 0.89562 0.37197 0.0
C616 C 0.5629 0.92236 0.35482 0.0
C617 C 0.42746 0.90459 0.36903 0.0
C618 C 0.6744 0.86622 0.36677 0.0
C619 C 0.65194 0.8844 0.36801 0.0
C620 C 0.55599 0.87574 0.39386 0.0
C621 C 0.49995 0.92269 0.36998 0.0
C622 C 0.53193 0.91239 0.3729 0.0
C623 C 0.60991 0.86525 0.37455 0.0
C624 C 0.58545 0.8839 0.37502 0.0
H625 H 0.48812 0.99612 0.35829 0.0
H626 H 0.54255 0.9802 0.36314 0.0
H627 H 0.50609 0.88223 0.40713 0.0
H628 H 0.59753 0.78048 0.38276 0.0
H629 H 0.55821 0.81206 0.38454 0.0
C630 C 0.78358 0.17143 0.67605 0.0
C631 C 0.81183 0.20894 0.67913 0.0
C632 C 0.74112 0.15813 0.67524 0.0
C633 C 0.65957 0.17753 0.69467 0.0
H634 H 0.59364 0.10207 0.64729 0.0
C635 C 0.47989 0.09932 0.69865 0.0
C636 C 0.46092 0.09775 0.6759 0.0
C637 C 0.52198 0.10968 0.69944 0.0
C638 C 0.61149 0.12309 0.66067 0.0
H639 H 0.81703 0.26196 0.68359 0.0
H640 H 0.74196 0.23851 0.68232 0.0
H641 H 0.66861 0.12991 0.64662 0.0
H642 H 0.47053 0.10419 0.63621 0.0
H643 H 0.54289 0.12049 0.63741 0.0
H644 H 0.6022 0.17078 0.70857 0.0
C645 C 0.75322 0.21948 0.68055 0.0
C646 C 0.65458 0.13901 0.66035 0.0
C647 C 0.79621 0.23299 0.68107 0.0
C648 C 0.48401 0.10415 0.65395 0.0
C649 C 0.5257 0.11389 0.65469 0.0
C650 C 0.6163 0.16133 0.69513 0.0
C651 C 0.72513 0.18178 0.67765 0.0
C652 C 0.67929 0.16645 0.67734 0.0
C653 C 0.54575 0.11823 0.67747 0.0
C654 C 0.59165 0.1339 0.67809 0.0
H655 H 0.79427 0.15195 0.67443 0.0
H656 H 0.72065 0.12898 0.67328 0.0
H657 H 0.67752 0.19829 0.70818 0.0
H658 H 0.46321 0.09555 0.71589 0.0
H659 H 0.53628 0.11233 0.7173 0.0
C660 C 0.97567 0.42421 0.65258 0.0
C661 C 0.96358 0.39649 0.6706 0.0
C662 C 0.96677 0.45234 0.65583 0.0
C663 C 0.89389 0.47244 0.68737 0.0
H664 H 0.97563 0.57373 0.67426 0.0
C665 C 0.86244 0.59054 0.70725 0.0
C666 C 0.87818 0.61953 0.69006 0.0
C667 C 0.87338 0.56346 0.70561 0.0
C668 C 0.95228 0.54553 0.67771 0.0
H669 H 0.9344 0.37774 0.70674 0.0
H670 H 0.91824 0.42634 0.71208 0.0
H671 H 0.99457 0.52656 0.66984 0.0
H672 H 0.91639 0.64229 0.6572 0.0
H673 H 0.93483 0.59485 0.65399 0.0
H674 H 0.8513 0.49111 0.69471 0.0
C675 C 0.93409 0.42596 0.69532 0.0
C676 C 0.96322 0.51859 0.67523 0.0
C677 C 0.94326 0.39805 0.69218 0.0
C678 C 0.90447 0.62065 0.67099 0.0
C679 C 0.9151 0.59349 0.6692 0.0
C680 C 0.88283 0.49933 0.68963 0.0
C681 C 0.94541 0.45315 0.67708 0.0
C682 C 0.9341 0.48182 0.68001 0.0
C683 C 0.89996 0.56472 0.6866 0.0
C684 C 0.91187 0.53618 0.68476 0.0
H685 H 0.991 0.4237 0.63566 0.0
H686 H 0.97556 0.47288 0.6414 0.0
H687 H 0.87072 0.44419 0.69087 0.0
H688 H 0.84241 0.58926 0.72225 0.0
H689 H 0.86156 0.54192 0.71949 0.0
C690 C 0.64192 0.57961 0.68928 0.0
C691 C 0.68343 0.59634 0.68157 0.0
C692 C 0.61494 0.54257 0.68444 0.0
C693 C 0.61994 0.45928 0.67345 0.0
H694 H 0.50583 0.41616 0.65293 0.0
C695 C 0.52932 0.31171 0.64064 0.0
C696 C 0.4891 0.28973 0.65002 0.0
C697 C 0.55033 0.34934 0.64432 0.0
C698 C 0.53755 0.42788 0.6589 0.0
H699 H 0.72846 0.5884 0.66118 0.0
H700 H 0.68146 0.52443 0.65237 0.0
H701 H 0.54724 0.48243 0.65889 0.0
H702 H 0.43887 0.29021 0.66996 0.0
H703 H 0.47599 0.35629 0.67664 0.0
H704 H 0.61065 0.40516 0.67342 0.0
C705 C 0.66993 0.53941 0.66275 0.0
C706 C 0.56118 0.46571 0.66229 0.0
C707 C 0.6968 0.57612 0.66768 0.0
C708 C 0.47003 0.30638 0.66279 0.0
C709 C 0.49107 0.34419 0.66639 0.0
C710 C 0.59647 0.42171 0.67003 0.0
C711 C 0.62914 0.5219 0.67177 0.0
C712 C 0.60284 0.4818 0.66919 0.0
C713 C 0.53164 0.36593 0.65746 0.0
C714 C 0.55527 0.40566 0.66235 0.0
H715 H 0.63083 0.59459 0.70004 0.0
H716 H 0.58363 0.52975 0.6916 0.0
H717 H 0.65161 0.47073 0.67945 0.0
H718 H 0.54504 0.29977 0.63093 0.0
H719 H 0.5814 0.36549 0.63695 0.0
C720 C 0.65186 0.79024 0.72653 0.0
C721 C 0.6558 0.77021 0.70718 0.0
C722 C 0.65463 0.82385 0.7216 0.0
C723 C 0.70906 0.89626 0.67554 0.0
H724 H 0.68008 0.95019 0.72153 0.0
C725 C 0.80517 0.0519 0.6799 0.0
C726 C 0.82023 0.06399 0.70387 0.0
C727 C 0.77191 0.01677 0.67627 0.0
C728 C 0.68805 0.9354 0.70835 0.0
H729 H 0.66018 0.7664 0.66749 0.0
H730 H 0.66258 0.82415 0.6585 0.0
H731 H 0.63962 0.88346 0.72127 0.0
H732 H 0.81069 0.04965 0.74293 0.0
H733 H 0.75321 0.98803 0.73659 0.0
H734 H 0.75838 0.94791 0.66333 0.0
C735 C 0.65927 0.81501 0.6776 0.0
C736 C 0.66501 0.89723 0.70823 0.0
C737 C 0.6576 0.7819 0.68264 0.0
C738 C 0.80027 0.04083 0.72422 0.0
C739 C 0.76687 0.0058 0.72061 0.0
C740 C 0.73167 0.93427 0.67548 0.0
C741 C 0.6607 0.83756 0.69713 0.0
C742 C 0.67662 0.87717 0.6927 0.0
C743 C 0.75292 0.99317 0.69657 0.0
C744 C 0.72266 0.95411 0.6927 0.0
H745 H 0.65065 0.78158 0.7456 0.0
H746 H 0.65581 0.84036 0.73719 0.0
H747 H 0.71951 0.88204 0.6635 0.0
H748 H 0.81997 0.06914 0.66386 0.0
H749 H 0.76172 0.00769 0.65754 0.0
C750 C 0.86601 0.82407 0.71935 0.0
C751 C 0.85647 0.79133 0.73153 0.0
C752 C 0.90594 0.85453 0.72094 0.0
C753 C 1.00784 0.88975 0.75296 0.0
H754 H 0.05335 0.92961 0.68801 0.0
C755 C 0.18089 0.95216 0.72906 0.0
C756 C 0.20013 0.9847 0.71497 0.0
C757 C 0.13809 0.93331 0.73292 0.0
C758 C 0.04106 0.91915 0.70634 0.0
H759 H 0.87948 0.76542 0.75643 0.0
H760 H 0.94827 0.81796 0.75945 0.0
H761 H 0.97891 0.89079 0.69323 0.0
H762 H 0.18846 0.02283 0.69416 0.0
H763 H 0.11414 0.98944 0.7004 0.0
H764 H 0.07034 0.91681 0.76575 0.0
C765 C 0.92558 0.82077 0.74875 0.0
C766 C 0.99829 0.89707 0.70941 0.0
C767 C 0.88603 0.79051 0.74703 0.0
C768 C 0.17514 0.99761 0.7047 0.0
C769 C 0.13233 0.97856 0.70838 0.0
C770 C 0.05061 0.91153 0.74984 0.0
C771 C 0.9367 0.85265 0.73486 0.0
C772 C 0.98116 0.88132 0.73264 0.0
C773 C 0.11333 0.9463 0.72263 0.0
C774 C 0.06776 0.9258 0.72639 0.0
H775 H 0.84388 0.82516 0.707 0.0
H776 H 0.9133 0.87885 0.71029 0.0
H777 H 0.99576 0.87868 0.77122 0.0
H778 H 0.19876 0.94099 0.73701 0.0
H779 H 0.12426 0.90817 0.74366 0.0
C780 C 0.24815 0.13551 0.69347 0.0
C781 C 0.28524 0.15474 0.67997 0.0
C782 C 0.22039 0.14865 0.69476 0.0
C783 C 0.21267 0.23284 0.68312 0.0
H784 H 0.09543 0.16354 0.68795 0.0
C785 C 0.07592 0.26467 0.67418 0.0
C786 C 0.04518 0.24747 0.69253 0.0
C787 C 0.10913 0.25786 0.67292 0.0
C788 C 0.12813 0.18325 0.68666 0.0
H789 H 0.32182 0.20255 0.65682 0.0
H790 H 0.273 0.22455 0.65822 0.0
H791 H 0.14387 0.14125 0.68448 0.0
H792 H 0.02699 0.21237 0.72512 0.0
H793 H 0.0843 0.20072 0.72289 0.0
H794 H 0.19608 0.27479 0.68465 0.0
C795 C 0.26568 0.19998 0.66854 0.0
C796 C 0.15605 0.17048 0.68488 0.0
C797 C 0.29364 0.18713 0.66755 0.0
C798 C 0.04998 0.2258 0.71061 0.0
C799 C 0.08266 0.2189 0.70928 0.0
C800 C 0.18454 0.24563 0.68453 0.0
C801 C 0.22867 0.18109 0.68226 0.0
C802 C 0.19885 0.19501 0.68342 0.0
C803 C 0.11171 0.23364 0.68992 0.0
C804 C 0.14202 0.22092 0.68669 0.0
H805 H 0.24085 0.1106 0.70338 0.0
H806 H 0.19269 0.13356 0.70592 0.0
H807 H 0.24532 0.25273 0.68236 0.0
H808 H 0.0728 0.28119 0.65987 0.0
H809 H 0.13126 0.26967 0.65784 0.0
C810 C 0.12399 0.37318 0.26203 0.0
C811 C 0.09875 0.37411 0.28111 0.0
C812 C 0.12387 0.38715 0.23829 0.0
C813 C 0.05738 0.40336 0.19685 0.0
H814 H 0.15693 0.47728 0.16391 0.0
C815 C 0.04303 0.46855 0.1072 0.0
C816 C 0.07133 0.47479 0.08805 0.0
C817 C 0.05071 0.46167 0.13143 0.0
C818 C 0.12881 0.45635 0.17265 0.0
H819 H 0.05324 0.39001 0.29001 0.0
H820 H 0.05233 0.41315 0.24884 0.0
H821 H 0.16173 0.45157 0.20376 0.0
H822 H 0.13057 0.48012 0.07927 0.0
H823 H 0.14372 0.46708 0.12135 0.0
H824 H 0.02425 0.40673 0.16587 0.0
C825 C 0.07251 0.40208 0.25218 0.0
C826 C 0.13165 0.44163 0.19551 0.0
C827 C 0.07318 0.38887 0.27583 0.0
C828 C 0.10873 0.47632 0.09387 0.0
C829 C 0.11605 0.46854 0.11804 0.0
C830 C 0.05455 0.41756 0.17396 0.0
C831 C 0.09783 0.40149 0.23312 0.0
C832 C 0.09586 0.4153 0.20798 0.0
C833 C 0.08625 0.4595 0.13698 0.0
C834 C 0.0901 0.44473 0.1616 0.0
H835 H 0.14415 0.36215 0.26554 0.0
H836 H 0.14359 0.38622 0.22388 0.0
H837 H 0.02929 0.38275 0.20585 0.0
H838 H 0.01368 0.46666 0.10311 0.0
H839 H 0.02761 0.45622 0.14554 0.0
C840 C 0.7045 0.76148 0.27749 0.0
C841 C 0.68396 0.74133 0.29887 0.0
C842 C 0.69429 0.74517 0.25405 0.0
C843 C 0.61379 0.66285 0.22046 0.0
H844 H 0.70284 0.6896 0.1731 0.0
C845 C 0.59661 0.58524 0.12761 0.0
C846 C 0.61379 0.60793 0.10664 0.0
C847 C 0.60355 0.60039 0.15147 0.0
C848 C 0.67758 0.68193 0.1861 0.0
H849 H 0.63602 0.68824 0.31223 0.0
H850 H 0.61911 0.6598 0.2718 0.0
H851 H 0.71772 0.71903 0.2134 0.0
H852 H 0.65151 0.66441 0.09444 0.0
H853 H 0.66369 0.69029 0.13563 0.0
H854 H 0.5739 0.62516 0.19305 0.0
C855 C 0.6425 0.68839 0.27286 0.0
C856 C 0.68605 0.69902 0.20919 0.0
C857 C 0.65242 0.70475 0.29618 0.0
C858 C 0.63777 0.64595 0.11009 0.0
C859 C 0.64504 0.6609 0.13377 0.0
C860 C 0.60542 0.64545 0.19741 0.0
C861 C 0.66354 0.70819 0.25144 0.0
C862 C 0.65426 0.68998 0.22668 0.0
C863 C 0.62827 0.6384 0.15478 0.0
C864 C 0.63717 0.65505 0.17988 0.0
H865 H 0.72886 0.78972 0.27886 0.0
H866 H 0.71068 0.7616 0.23799 0.0
H867 H 0.58833 0.6554 0.23322 0.0
H868 H 0.57801 0.55589 0.1256 0.0
H869 H 0.59029 0.58235 0.16736 0.0
C870 C 0.38152 0.93298 0.08592 0.0
C871 C 0.39751 0.97018 0.08016 0.0
C872 C 0.36516 0.91943 0.10974 0.0
C873 C 0.317 0.9415 0.16161 0.0
H874 H 0.34003 0.8783 0.20252 0.0
C875 C 0.24463 0.89561 0.2597 0.0
C876 C 0.27316 0.90049 0.27827 0.0
C877 C 0.25547 0.89742 0.23452 0.0
C878 C 0.33313 0.89583 0.19125 0.0
H879 H 0.41172 0.02263 0.0953 0.0
H880 H 0.38396 0.99931 0.13634 0.0
H881 H 0.36976 0.89511 0.16062 0.0
H882 H 0.3347 0.9093 0.28488 0.0
H883 H 0.3533 0.91233 0.24138 0.0
H884 H 0.28146 0.94327 0.19224 0.0
C885 C 0.38301 0.98035 0.12255 0.0
C886 C 0.34996 0.90523 0.16721 0.0
C887 C 0.39929 0.99376 0.09904 0.0
C888 C 0.31198 0.90563 0.2711 0.0
C889 C 0.32259 0.90705 0.24608 0.0
C890 C 0.29993 0.93189 0.18547 0.0
C891 C 0.36441 0.94289 0.128 0.0
C892 C 0.34298 0.929 0.15237 0.0
C893 C 0.29485 0.90367 0.22741 0.0
C894 C 0.30853 0.90963 0.20086 0.0
H895 H 0.37936 0.91411 0.07169 0.0
H896 H 0.35122 0.89042 0.11347 0.0
H897 H 0.31052 0.95945 0.15051 0.0
H898 H 0.2145 0.89158 0.26458 0.0
H899 H 0.23322 0.89442 0.22061 0.0
C900 C 0.39615 0.07003 0.93683 0.0
C901 C 0.4193 0.05288 0.94205 0.0
C902 C 0.39786 0.08502 0.9134 0.0
C903 C 0.4605 0.12098 0.85641 0.0
H904 H 0.35603 0.09733 0.82662 0.0
C905 C 0.44349 0.15028 0.75269 0.0
C906 C 0.40941 0.1538 0.74598 0.0
C907 C 0.44944 0.14401 0.77751 0.0
C908 C 0.38568 0.10508 0.83475 0.0
H909 H 0.46306 0.03871 0.92663 0.0
H910 H 0.46632 0.06536 0.88554 0.0
H911 H 0.35681 0.07342 0.86745 0.0
H912 H 0.35649 0.15604 0.75994 0.0
H913 H 0.36842 0.14806 0.80334 0.0
H914 H 0.48945 0.15303 0.82376 0.0
C915 C 0.4468 0.06706 0.89975 0.0
C916 C 0.38602 0.091 0.8582 0.0
C917 C 0.44473 0.05159 0.92322 0.0
C918 C 0.38346 0.1541 0.7647 0.0
C919 C 0.38983 0.14862 0.78953 0.0
C920 C 0.46022 0.13552 0.83297 0.0
C921 C 0.42306 0.08366 0.89451 0.0
C922 C 0.42336 0.09869 0.86935 0.0
C923 C 0.42153 0.14143 0.79618 0.0
C924 C 0.42274 0.12778 0.82175 0.0
H925 H 0.37633 0.07171 0.95085 0.0
H926 H 0.37953 0.09793 0.91009 0.0
H927 H 0.48983 0.12768 0.8646 0.0
H928 H 0.46327 0.14893 0.73849 0.0
H929 H 0.47409 0.13849 0.78167 0.0
C930 C 0.9831 0.37098 0.94534 0.0
C931 C 1.00837 0.40911 0.94765 0.0
C932 C 0.97397 0.35439 0.92211 0.0
C933 C 1.01006 0.37006 0.85643 0.0
H934 H 0.90337 0.28391 0.84508 0.0
C935 C 0.95784 0.30943 0.75914 0.0
C936 C 0.93898 0.27126 0.75632 0.0
C937 C 0.96534 0.32518 0.78259 0.0
C938 C 0.93346 0.30768 0.84805 0.0
H939 H 0.04333 0.45969 0.92698 0.0
H940 H 0.02655 0.43079 0.88616 0.0
H941 H 0.91758 0.31481 0.88495 0.0
H942 H 0.91247 0.21976 0.77632 0.0
H943 H 0.9252 0.24752 0.81769 0.0
H944 H 0.02552 0.36323 0.8193 0.0
C945 C 0.01442 0.41361 0.90251 0.0
C946 C 0.94171 0.3255 0.87094 0.0
C947 C 0.02383 0.4303 0.92592 0.0
C948 C 0.927 0.24918 0.77779 0.0
C949 C 0.93424 0.2651 0.80146 0.0
C950 C 1.00166 0.35244 0.83348 0.0
C951 C 0.98949 0.37532 0.90029 0.0
C952 C 0.9802 0.35696 0.87552 0.0
C953 C 0.95401 0.30338 0.80409 0.0
C954 C 0.96324 0.32105 0.82897 0.0
H955 H 0.97072 0.35359 0.9616 0.0
H956 H 0.95541 0.3249 0.92139 0.0
H957 H 0.04031 0.39365 0.85928 0.0
H958 H 0.96739 0.32749 0.74314 0.0
H959 H 0.9799 0.35464 0.78387 0.0
C960 C 0.71007 0.65105 0.78833 0.0
C961 C 0.74027 0.64797 0.7746 0.0
C962 C 0.69409 0.63153 0.81035 0.0
C963 C 0.71393 0.58848 0.86275 0.0
H964 H 0.59516 0.5424 0.87147 0.0
C965 C 0.63436 0.53188 0.95839 0.0
C966 C 0.60925 0.54644 0.96525 0.0
C967 C 0.64748 0.53424 0.93363 0.0
C968 C 0.62834 0.55493 0.86934 0.0
H969 H 0.77827 0.62255 0.77392 0.0
H970 H 0.75063 0.58869 0.81321 0.0
H971 H 0.62621 0.56735 0.83106 0.0
H972 H 0.5764 0.57298 0.95171 0.0
H973 H 0.59794 0.57613 0.90876 0.0
H974 H 0.71612 0.57764 0.90147 0.0
C975 C 0.73923 0.60616 0.80645 0.0
C976 C 0.64613 0.56923 0.84619 0.0
C977 C 0.75506 0.62556 0.78403 0.0
C978 C 0.59528 0.56109 0.94682 0.0
C979 C 0.60771 0.56289 0.92218 0.0
C980 C 0.69606 0.57422 0.88606 0.0
C981 C 0.70794 0.60846 0.81955 0.0
C982 C 0.68923 0.5874 0.84284 0.0
C983 C 0.63507 0.55063 0.91536 0.0
C984 C 0.65316 0.55852 0.88983 0.0
H985 H 0.698 0.66816 0.78188 0.0
H986 H 0.67072 0.63456 0.82026 0.0
H987 H 0.74721 0.60236 0.86072 0.0
H988 H 0.64623 0.52114 0.97239 0.0
H989 H 0.66842 0.52443 0.92895 0.0
C990 C 0.73322 0.79963 0.4568 0.0
C991 C 0.76214 0.8074 0.43769 0.0
C992 C 0.74418 0.80006 0.48154 0.0
C993 C 0.8087 0.77889 0.5192 0.0
H994 H 0.77433 0.81916 0.57254 0.0
C995 C 0.81819 0.7446 0.62274 0.0
C996 C 0.78453 0.73856 0.63781 0.0
C997 C 0.8228 0.7593 0.59876 0.0
C998 C 0.78387 0.80745 0.55792 0.0
H999 H 0.82545 0.8226 0.42937 0.0
H1000 H 0.84453 0.82244 0.47296 0.0
H1001 H 0.76972 0.8353 0.52969 0.0
H1002 H 0.7293 0.74318 0.63941 0.0
H1003 H 0.73655 0.76747 0.59781 0.0
H1004 H 0.82052 0.74926 0.54719 0.0
C1005 C 0.81356 0.81661 0.46867 0.0
C1006 C 0.78154 0.817 0.53337 0.0
C1007 C 0.8028 0.81704 0.44382 0.0
C1008 C 0.75577 0.74763 0.62841 0.0
C1009 C 0.76017 0.76198 0.60451 0.0
C1010 C 0.81051 0.7689 0.54378 0.0
C1011 C 0.78406 0.80744 0.48772 0.0
C1012 C 0.79302 0.80218 0.51373 0.0
C1013 C 0.79374 0.76811 0.5893 0.0
C1014 C 0.79704 0.78227 0.56344 0.0
H1015 H 0.70159 0.79184 0.45252 0.0
H1016 H 0.7207 0.79256 0.49578 0.0
H1017 H 0.81736 0.76676 0.50439 0.0
H1018 H 0.841 0.73806 0.62947 0.0
H1019 H 0.84926 0.76392 0.58771 0.0
C1020 C 0.27634 0.93017 0.43944 0.0
C1021 C 0.24445 0.92612 0.42371 0.0
C1022 C 0.28242 0.94717 0.46238 0.0
C1023 C 0.23659 0.97796 0.51071 0.0
H1024 H 0.35154 0.04754 0.52421 0.0
C1025 C 0.29529 0.04001 0.60782 0.0
C1026 C 0.32745 0.07655 0.60944 0.0
C1027 C 0.28213 0.02307 0.5848 0.0
C1028 C 0.31924 0.02858 0.52068 0.0
H1029 H 0.19244 0.93502 0.42043 0.0
H1030 H 0.20293 0.96476 0.46093 0.0
H1031 H 0.33301 0.01389 0.48551 0.0
H1032 H 0.37027 0.12414 0.58792 0.0
H1033 H 0.34726 0.09455 0.54764 0.0
H1034 H 0.22295 0.99282 0.54603 0.0
C1035 C 0.22322 0.95465 0.45535 0.0
C1036 C 0.30862 0.00887 0.49858 0.0
C1037 C 0.21704 0.93744 0.43222 0.0
C1038 C 0.34553 0.09596 0.58737 0.0
C1039 C 0.33245 0.07891 0.56428 0.0
C1040 C 0.24726 0.9976 0.53297 0.0
C1041 C 0.25692 0.96082 0.4703 0.0
C1042 C 0.26726 0.98292 0.49343 0.0
C1043 C 0.30084 0.04209 0.56271 0.0
C1044 C 0.28882 0.02293 0.53835 0.0
H1045 H 0.29783 0.92149 0.43357 0.0
H1046 H 0.30795 0.95051 0.47367 0.0
H1047 H 0.20446 0.95823 0.50734 0.0
H1048 H 0.28053 0.02417 0.62441 0.0
H1049 H 0.25811 0.99462 0.5844 0.0
C1050 C 0.95876 0.19183 0.60776 0.0
C1051 C 0.93878 0.21126 0.61459 0.0
C1052 C 0.97529 0.19566 0.58365 0.0
C1053 C 0.02878 0.26552 0.53974 0.0
H1054 H 0.99165 0.20102 0.4831 0.0
C1055 C 0.0727 0.32161 0.4407 0.0
C1056 C 0.07908 0.30162 0.42215 0.0
C1057 C 0.05916 0.30688 0.46441 0.0
C1058 C 1.00302 0.21916 0.49883 0.0
H1059 H 0.91766 0.24745 0.60102 0.0
H1060 H 0.9462 0.2539 0.55941 0.0
H1061 H 0.95821 0.17845 0.52379 0.0
H1062 H 0.07675 0.25036 0.41436 0.0
H1063 H 0.05336 0.22458 0.45616 0.0
H1064 H 0.07302 0.30643 0.51525 0.0
C1065 C 0.9493 0.23594 0.57254 0.0
C1066 C 0.98376 0.20618 0.52209 0.0
C1067 C 0.93285 0.2321 0.59637 0.0
C1068 C 0.07247 0.26664 0.42824 0.0
C1069 C 0.05865 0.25172 0.45213 0.0
C1070 C 0.04815 0.27836 0.51671 0.0
C1071 C 0.97192 0.21888 0.56619 0.0
C1072 C 0.99588 0.22961 0.54257 0.0
C1073 C 0.0515 0.2716 0.4705 0.0
C1074 C 0.03475 0.2558 0.49569 0.0
H1075 H 0.96438 0.17606 0.62148 0.0
H1076 H 0.99286 0.18239 0.57917 0.0
H1077 H 0.03874 0.28409 0.55529 0.0
H1078 H 0.07722 0.34853 0.43676 0.0
H1079 H 0.05336 0.32289 0.47776 0.0
loop_
_geom_bond_atom_site_label_1
_geom_bond_atom_site_label_2
_geom_bond_distance
_geom_bond_site_symmetry_2
_ccdc_geom_bond_type
Co0 N5 2.057 1_554 S
Co0 O17 2.021 . S
Co0 O20 2.062 . S
Co0 O24 2.117 1_554 S
Co0 O25 2.020 1_455 S
C1 O21 1.259 . S
C1 O24 1.258 1_655 S
Co2 N11 2.057 . S
Co2 O18 2.117 . S
Co2 O19 2.020 1_655 S
Co2 O21 2.021 1_554 S
Co2 O26 2.062 . S
C3 N5 1.316 1_554 S
C3 N6 1.347 1_554 S
C3 H8 0.931 . S
C4 N5 1.375 . S
C4 C7 1.350 . S
C4 H9 0.930 . S
N5 Co0 2.057 1_556 S
N5 C3 1.316 1_556 S
N5 C4 1.375 . S
N6 C3 1.347 1_556 S
N6 C7 1.373 . S
C7 C4 1.350 . S
C7 N6 1.373 . S
C7 H28 0.931 . S
H8 C3 0.931 . S
H9 C4 0.930 . S
C10 O17 1.259 . S
C10 O18 1.258 1_455 S
N11 Co2 2.057 . S
N11 C12 1.316 . S
N11 C13 1.375 . S
C12 N11 1.316 . S
C12 N14 1.347 . S
C12 H23 0.931 1_554 S
C13 N11 1.375 . S
C13 C15 1.350 . S
C13 H22 0.930 . S
N14 C12 1.347 . S
N14 C15 1.373 . S
C15 C13 1.350 . S
C15 N14 1.373 . S
C15 H29 0.931 . S
C16 O19 1.256 . S
C16 O20 1.255 . S
O17 Co0 2.021 . S
O17 C10 1.259 . S
O18 Co2 2.117 . S
O18 C10 1.258 1_655 S
O19 Co2 2.020 1_455 S
O19 C16 1.256 . S
O20 Co0 2.062 . S
O20 C16 1.255 . S
O21 C1 1.259 . S
O21 Co2 2.021 1_556 S
H22 C13 0.930 . S
H23 C12 0.931 1_556 S
O24 Co0 2.117 1_556 S
O24 C1 1.258 1_455 S
O25 Co0 2.020 1_655 S
O25 C27 1.256 . S
O26 Co2 2.062 . S
O26 C27 1.255 . S
C27 O25 1.256 . S
C27 O26 1.255 . S
H28 C7 0.931 . S
H29 C15 0.931 . S
Co30 N35 2.057 . S
Co30 O47 2.021 1_554 S
Co30 O50 2.062 . S
Co30 O54 2.117 . S
Co30 O55 2.020 . S
C31 O51 1.259 . S
C31 O54 1.258 . S
Co32 N41 2.057 1_554 S
Co32 O48 2.117 1_554 S
Co32 O49 2.020 . S
Co32 O51 2.021 . S
Co32 O56 2.062 . S
C33 N35 1.316 . S
C33 N36 1.347 . S
C33 H38 0.931 1_554 S
C34 N35 1.375 . S
C34 C37 1.350 . S
C34 H39 0.930 . S
N35 Co30 2.057 . S
N35 C33 1.316 . S
N35 C34 1.375 . S
N36 C33 1.347 . S
N36 C37 1.373 . S
C37 C34 1.350 . S
C37 N36 1.373 . S
C37 H58 0.931 . S
H38 C33 0.931 1_556 S
H39 C34 0.930 . S
C40 O47 1.259 . S
C40 O48 1.258 . S
N41 Co32 2.057 1_556 S
N41 C42 1.316 1_556 S
N41 C43 1.375 . S
C42 N41 1.316 1_554 S
C42 N44 1.347 1_554 S
C42 H53 0.931 . S
C43 N41 1.375 . S
C43 C45 1.350 . S
C43 H52 0.930 . S
N44 C42 1.347 1_556 S
N44 C45 1.373 . S
C45 C43 1.350 . S
C45 N44 1.373 . S
C45 H59 0.931 . S
C46 O49 1.256 . S
C46 O50 1.255 . S
O47 Co30 2.021 1_556 S
O47 C40 1.259 . S
O48 Co32 2.117 1_556 S
O48 C40 1.258 . S
O49 Co32 2.020 . S
O49 C46 1.256 . S
O50 Co30 2.062 . S
O50 C46 1.255 . S
O51 C31 1.259 . S
O51 Co32 2.021 . S
H52 C43 0.930 . S
H53 C42 0.931 . S
O54 Co30 2.117 . S
O54 C31 1.258 . S
O55 Co30 2.020 . S
O55 C57 1.256 . S
O56 Co32 2.062 . S
O56 C57 1.255 . S
C57 O55 1.256 . S
C57 O56 1.255 . S
H58 C37 0.931 . S
H59 C45 0.931 . S
Co60 N65 2.057 1_554 S
Co60 O77 2.021 . S
Co60 O80 2.062 . S
Co60 O84 2.117 1_554 S
Co60 O85 2.020 1_565 S
C61 O81 1.259 . S
C61 O84 1.258 1_545 S
Co62 N71 2.057 . S
Co62 O78 2.117 . S
Co62 O79 2.020 1_545 S
Co62 O81 2.021 1_554 S
Co62 O86 2.062 . S
C63 N65 1.316 1_554 S
C63 N66 1.347 1_554 S
C63 H68 0.931 . S
C64 N65 1.375 . S
C64 C67 1.350 . S
C64 H69 0.930 . S
N65 Co60 2.057 1_556 S
N65 C63 1.316 1_556 S
N65 C64 1.375 . S
N66 C63 1.347 1_556 S
N66 C67 1.373 . S
C67 C64 1.350 . S
C67 N66 1.373 . S
C67 H88 0.931 . S
H68 C63 0.931 . S
H69 C64 0.930 . S
C70 O77 1.259 . S
C70 O78 1.258 1_565 S
N71 Co62 2.057 . S
N71 C72 1.316 . S
N71 C73 1.375 . S
C72 N71 1.316 . S
C72 N74 1.347 . S
C72 H83 0.931 1_554 S
C73 N71 1.375 . S
C73 C75 1.350 . S
C73 H82 0.930 . S
N74 C72 1.347 . S
N74 C75 1.373 . S
C75 C73 1.350 . S
C75 N74 1.373 . S
C75 H89 0.931 . S
C76 O79 1.256 . S
C76 O80 1.255 . S
O77 Co60 2.021 . S
O77 C70 1.259 . S
O78 Co62 2.117 . S
O78 C70 1.258 1_545 S
O79 Co62 2.020 1_565 S
O79 C76 1.256 . S
O80 Co60 2.062 . S
O80 C76 1.255 . S
O81 C61 1.259 . S
O81 Co62 2.021 1_556 S
H82 C73 0.930 . S
H83 C72 0.931 1_556 S
O84 Co60 2.117 1_556 S
O84 C61 1.258 1_565 S
O85 Co60 2.020 1_545 S
O85 C87 1.256 . S
O86 Co62 2.062 . S
O86 C87 1.255 . S
C87 O85 1.256 . S
C87 O86 1.255 . S
H88 C67 0.931 . S
H89 C75 0.931 . S
Co90 N95 2.057 . S
Co90 O107 2.021 . S
Co90 O110 2.062 . S
Co90 O114 2.117 . S
Co90 O115 2.020 . S
C91 O111 1.259 . S
C91 O114 1.258 . S
Co92 N101 2.057 . S
Co92 O108 2.117 . S
Co92 O109 2.020 . S
Co92 O111 2.021 . S
Co92 O116 2.062 . S
C93 N95 1.316 . S
C93 N96 1.347 . S
C93 H98 0.931 . S
C94 N95 1.375 . S
C94 C97 1.350 . S
C94 H99 0.930 . S
N95 Co90 2.057 . S
N95 C93 1.316 . S
N95 C94 1.375 . S
N96 C93 1.347 . S
N96 C97 1.373 . S
C97 C94 1.350 . S
C97 N96 1.373 . S
C97 H118 0.931 . S
H98 C93 0.931 . S
H99 C94 0.930 . S
C100 O107 1.259 . S
C100 O108 1.258 . S
N101 Co92 2.057 . S
N101 C102 1.316 . S
N101 C103 1.375 . S
C102 N101 1.316 . S
C102 N104 1.347 . S
C102 H113 0.931 . S
C103 N101 1.375 . S
C103 C105 1.350 . S
C103 H112 0.930 . S
N104 C102 1.347 . S
N104 C105 1.373 . S
C105 C103 1.350 . S
C105 N104 1.373 . S
C105 H119 0.931 . S
C106 O109 1.256 . S
C106 O110 1.255 . S
O107 Co90 2.021 . S
O107 C100 1.259 . S
O108 Co92 2.117 . S
O108 C100 1.258 . S
O109 Co92 2.020 . S
O109 C106 1.256 . S
O110 Co90 2.062 . S
O110 C106 1.255 . S
O111 C91 1.259 . S
O111 Co92 2.021 . S
H112 C103 0.930 . S
H113 C102 0.931 . S
O114 Co90 2.117 . S
O114 C91 1.258 . S
O115 Co90 2.020 . S
O115 C117 1.256 . S
O116 Co92 2.062 . S
O116 C117 1.255 . S
C117 O115 1.256 . S
C117 O116 1.255 . S
H118 C97 0.931 . S
H119 C105 0.931 . S
Co120 N125 2.057 . S
Co120 O137 2.021 . S
Co120 O140 2.062 . S
Co120 O144 2.117 . S
Co120 O145 2.020 . S
C121 O141 1.259 . S
C121 O144 1.258 . S
Co122 N131 2.057 . S
Co122 O138 2.117 . S
Co122 O139 2.020 . S
Co122 O141 2.021 . S
Co122 O146 2.062 . S
C123 N125 1.316 . S
C123 N126 1.347 . S
C123 H128 0.931 . S
C124 N125 1.375 . S
C124 C127 1.350 . S
C124 H129 0.930 . S
N125 Co120 2.057 . S
N125 C123 1.316 . S
N125 C124 1.375 . S
N126 C123 1.347 . S
N126 C127 1.373 . S
C127 C124 1.350 . S
C127 N126 1.373 . S
C127 H148 0.931 . S
H128 C123 0.931 . S
H129 C124 0.930 . S
C130 O137 1.259 . S
C130 O138 1.258 . S
N131 Co122 2.057 . S
N131 C132 1.316 . S
N131 C133 1.375 . S
C132 N131 1.316 . S
C132 N134 1.347 . S
C132 H143 0.931 . S
C133 N131 1.375 . S
C133 C135 1.350 . S
C133 H142 0.930 . S
N134 C132 1.347 . S
N134 C135 1.373 . S
C135 C133 1.350 . S
C135 N134 1.373 . S
C135 H149 0.931 . S
C136 O139 1.256 . S
C136 O140 1.255 . S
O137 Co120 2.021 . S
O137 C130 1.259 . S
O138 Co122 2.117 . S
O138 C130 1.258 . S
O139 Co122 2.020 . S
O139 C136 1.256 . S
O140 Co120 2.062 . S
O140 C136 1.255 . S
O141 C121 1.259 . S
O141 Co122 2.021 . S
H142 C133 0.930 . S
H143 C132 0.931 . S
O144 Co120 2.117 . S
O144 C121 1.258 . S
O145 Co120 2.020 . S
O145 C147 1.256 . S
O146 Co122 2.062 . S
O146 C147 1.255 . S
C147 O145 1.256 . S
C147 O146 1.255 . S
H148 C127 0.931 . S
H149 C135 0.931 . S
Co150 N155 2.057 . S
Co150 O167 2.021 . S
Co150 O170 2.062 . S
Co150 O174 2.117 . S
Co150 O175 2.020 . S
C151 O171 1.259 . S
C151 O174 1.258 . S
Co152 N161 2.057 . S
Co152 O168 2.117 . S
Co152 O169 2.020 . S
Co152 O171 2.021 . S
Co152 O176 2.062 . S
C153 N155 1.316 . S
C153 N156 1.347 . S
C153 H158 0.931 . S
C154 N155 1.375 . S
C154 C157 1.350 . S
C154 H159 0.930 . S
N155 Co150 2.057 . S
N155 C153 1.316 . S
N155 C154 1.375 . S
N156 C153 1.347 . S
N156 C157 1.373 . S
C157 C154 1.350 . S
C157 N156 1.373 . S
C157 H178 0.931 . S
H158 C153 0.931 . S
H159 C154 0.930 . S
C160 O167 1.259 . S
C160 O168 1.258 . S
N161 Co152 2.057 . S
N161 C162 1.316 . S
N161 C163 1.375 . S
C162 N161 1.316 . S
C162 N164 1.347 . S
C162 H173 0.931 . S
C163 N161 1.375 . S
C163 C165 1.350 . S
C163 H172 0.930 . S
N164 C162 1.347 . S
N164 C165 1.373 . S
C165 C163 1.350 . S
C165 N164 1.373 . S
C165 H179 0.931 . S
C166 O169 1.256 . S
C166 O170 1.255 . S
O167 Co150 2.021 . S
O167 C160 1.259 . S
O168 Co152 2.117 . S
O168 C160 1.258 . S
O169 Co152 2.020 . S
O169 C166 1.256 . S
O170 Co150 2.062 . S
O170 C166 1.255 . S
O171 C151 1.259 . S
O171 Co152 2.021 . S
H172 C163 0.930 . S
H173 C162 0.931 . S
O174 Co150 2.117 . S
O174 C151 1.258 . S
O175 Co150 2.020 . S
O175 C177 1.256 . S
O176 Co152 2.062 . S
O176 C177 1.255 . S
C177 O175 1.256 . S
C177 O176 1.255 . S
H178 C157 0.931 . S
H179 C165 0.931 . S
Co180 N185 2.057 . S
Co180 O197 2.021 . S
Co180 O200 2.062 . S
Co180 O204 2.117 . S
Co180 O205 2.020 . S
C181 O201 1.259 . S
C181 O204 1.258 . S
Co182 N191 2.057 . S
Co182 O198 2.117 . S
Co182 O199 2.020 . S
Co182 O201 2.021 . S
Co182 O206 2.062 . S
C183 N185 1.316 . S
C183 N186 1.347 . S
C183 H188 0.931 . S
C184 N185 1.375 . S
C184 C187 1.350 . S
C184 H189 0.930 . S
N185 Co180 2.057 . S
N185 C183 1.316 . S
N185 C184 1.375 . S
N186 C183 1.347 . S
N186 C187 1.373 . S
C187 C184 1.350 . S
C187 N186 1.373 . S
C187 H208 0.931 . S
H188 C183 0.931 . S
H189 C184 0.930 . S
C190 O197 1.259 . S
C190 O198 1.258 . S
N191 Co182 2.057 . S
N191 C192 1.316 . S
N191 C193 1.375 . S
C192 N191 1.316 . S
C192 N194 1.347 1_545 S
C192 H203 0.931 . S
C193 N191 1.375 . S
C193 C195 1.350 1_545 S
C193 H202 0.930 . S
N194 C192 1.347 1_565 S
N194 C195 1.373 . S
C195 C193 1.350 1_565 S
C195 N194 1.373 . S
C195 H209 0.931 . S
C196 O199 1.256 . S
C196 O200 1.255 . S
O197 Co180 2.021 . S
O197 C190 1.259 . S
O198 Co182 2.117 . S
O198 C190 1.258 . S
O199 Co182 2.020 . S
O199 C196 1.256 . S
O200 Co180 2.062 . S
O200 C196 1.255 . S
O201 C181 1.259 . S
O201 Co182 2.021 . S
H202 C193 0.930 . S
H203 C192 0.931 . S
O204 Co180 2.117 . S
O204 C181 1.258 . S
O205 Co180 2.020 . S
O205 C207 1.256 . S
O206 Co182 2.062 . S
O206 C207 1.255 . S
C207 O205 1.256 . S
C207 O206 1.255 . S
H208 C187 0.931 . S
H209 C195 0.931 . S
Co210 N215 2.057 . S
Co210 O227 2.021 . S
Co210 O230 2.062 . S
Co210 O234 2.117 . S
Co210 O235 2.020 . S
C211 O231 1.259 . S
C211 O234 1.258 . S
Co212 N221 2.057 . S
Co212 O228 2.117 . S
Co212 O229 2.020 . S
Co212 O231 2.021 . S
Co212 O236 2.062 . S
C213 N215 1.316 . S
C213 N216 1.347 . S
C213 H218 0.931 . S
C214 N215 1.375 . S
C214 C217 1.350 . S
C214 H219 0.930 . S
N215 Co210 2.057 . S
N215 C213 1.316 . S
N215 C214 1.375 . S
N216 C213 1.347 . S
N216 C217 1.373 . S
C217 C214 1.350 . S
C217 N216 1.373 . S
C217 H238 0.931 . S
H218 C213 0.931 . S
H219 C214 0.930 . S
C220 O227 1.259 . S
C220 O228 1.258 . S
N221 Co212 2.057 . S
N221 C222 1.316 . S
N221 C223 1.375 . S
C222 N221 1.316 . S
C222 N224 1.347 . S
C222 H233 0.931 . S
C223 N221 1.375 . S
C223 C225 1.350 . S
C223 H232 0.930 . S
N224 C222 1.347 . S
N224 C225 1.373 . S
C225 C223 1.350 . S
C225 N224 1.373 . S
C225 H239 0.931 . S
C226 O229 1.256 . S
C226 O230 1.255 . S
O227 Co210 2.021 . S
O227 C220 1.259 . S
O228 Co212 2.117 . S
O228 C220 1.258 . S
O229 Co212 2.020 . S
O229 C226 1.256 . S
O230 Co210 2.062 . S
O230 C226 1.255 . S
O231 C211 1.259 . S
O231 Co212 2.021 . S
H232 C223 0.930 . S
H233 C222 0.931 . S
O234 Co210 2.117 . S
O234 C211 1.258 . S
O235 Co210 2.020 . S
O235 C237 1.256 . S
O236 Co212 2.062 . S
O236 C237 1.255 . S
C237 O235 1.256 . S
C237 O236 1.255 . S
H238 C217 0.931 . S
H239 C225 0.931 . S
Co240 N245 2.057 . S
Co240 O257 2.021 . S
Co240 O260 2.062 . S
Co240 O264 2.117 . S
Co240 O265 2.020 . S
C241 O261 1.259 . S
C241 O264 1.258 . S
Co242 N251 2.057 . S
Co242 O258 2.117 . S
Co242 O259 2.020 . S
Co242 O261 2.021 . S
Co242 O266 2.062 . S
C243 N245 1.316 . S
C243 N246 1.347 . S
C243 H248 0.931 . S
C244 N245 1.375 . S
C244 C247 1.350 . S
C244 H249 0.930 . S
N245 Co240 2.057 . S
N245 C243 1.316 . S
N245 C244 1.375 . S
N246 C243 1.347 . S
N246 C247 1.373 . S
C247 C244 1.350 . S
C247 N246 1.373 . S
C247 H268 0.931 . S
H248 C243 0.931 . S
H249 C244 0.930 . S
C250 O257 1.259 . S
C250 O258 1.258 . S
N251 Co242 2.057 . S
N251 C252 1.316 . S
N251 C253 1.375 . S
C252 N251 1.316 . S
C252 N254 1.347 . S
C252 H263 0.931 . S
C253 N251 1.375 . S
C253 C255 1.350 . S
C253 H262 0.930 . S
N254 C252 1.347 . S
N254 C255 1.373 . S
C255 C253 1.350 . S
C255 N254 1.373 . S
C255 H269 0.931 . S
C256 O259 1.256 . S
C256 O260 1.255 . S
O257 Co240 2.021 . S
O257 C250 1.259 . S
O258 Co242 2.117 . S
O258 C250 1.258 . S
O259 Co242 2.020 . S
O259 C256 1.256 . S
O260 Co240 2.062 . S
O260 C256 1.255 . S
O261 C241 1.259 . S
O261 Co242 2.021 . S
H262 C253 0.930 . S
H263 C252 0.931 . S
O264 Co240 2.117 . S
O264 C241 1.258 . S
O265 Co240 2.020 . S
O265 C267 1.256 . S
O266 Co242 2.062 . S
O266 C267 1.255 . S
C267 O265 1.256 . S
C267 O266 1.255 . S
H268 C247 0.931 . S
H269 C255 0.931 . S
C270 C271 1.349 1_556 S
C270 C272 1.327 . S
C270 H295 0.950 . S
C271 C270 1.349 1_554 S
C271 C287 1.349 . S
C272 C270 1.327 . S
C272 C291 1.429 1_556 S
C272 H296 0.950 . S
C273 C290 1.574 . S
C273 C292 1.368 . S
C273 H297 0.949 . S
H274 C278 0.949 . S
C275 C276 1.349 . S
C275 C277 1.327 . S
C275 H298 0.950 . S
C276 C275 1.349 . S
C276 C288 1.349 1_554 S
C277 C275 1.327 . S
C277 C293 1.429 . S
C277 H299 0.950 . S
C278 H274 0.949 . S
C278 C286 1.574 . S
C278 C294 1.368 1_556 S
H279 C287 0.950 . S
H280 C285 0.950 . S
H281 C286 0.949 . S
H282 C288 0.950 . S
H283 C289 0.950 . S
H284 C290 0.949 . S
C285 H280 0.950 . S
C285 C287 1.327 . S
C285 C291 1.429 . S
C286 C278 1.574 . S
C286 H281 0.949 . S
C286 C292 1.368 1_556 S
C287 C271 1.349 . S
C287 H279 0.950 . S
C287 C285 1.327 . S
C288 C276 1.349 1_556 S
C288 H282 0.950 . S
C288 C289 1.327 . S
C289 H283 0.950 . S
C289 C288 1.327 . S
C289 C293 1.429 1_556 S
C290 C273 1.574 . S
C290 H284 0.949 . S
C290 C294 1.368 . S
C291 C272 1.429 1_554 S
C291 C285 1.429 . S
C291 C292 1.523 . S
C292 C273 1.368 . S
C292 C286 1.368 1_554 S
C292 C291 1.523 . S
C293 C277 1.429 . S
C293 C289 1.429 1_554 S
C293 C294 1.523 . S
C294 C278 1.368 1_554 S
C294 C290 1.368 . S
C294 C293 1.523 . S
H295 C270 0.950 . S
H296 C272 0.950 . S
H297 C273 0.949 . S
H298 C275 0.950 . S
H299 C277 0.950 . S
C300 C301 1.349 . S
C300 C302 1.327 . S
C300 H325 0.950 . S
C301 C300 1.349 . S
C301 C317 1.349 1_556 S
C302 C300 1.327 . S
C302 C321 1.451 . S
C302 H326 0.950 . S
C303 C320 1.574 . S
C303 C322 1.355 1_554 S
C303 H327 0.949 . S
H304 C308 0.949 . S
C305 C306 1.377 . S
C305 C307 1.327 . S
C305 H328 0.950 . S
C306 C305 1.377 . S
C306 C318 1.321 1_554 S
C307 C305 1.327 . S
C307 C323 1.437 . S
C307 H329 0.950 . S
C308 H304 0.949 . S
C308 C316 1.574 . S
C308 C324 1.370 1_556 S
H309 C317 0.950 . S
H310 C315 0.950 . S
H311 C316 0.949 . S
H312 C318 0.950 . S
H313 C319 0.950 . S
H314 C320 0.949 . S
C315 H310 0.950 . S
C315 C317 1.327 . S
C315 C321 1.407 1_554 S
C316 C308 1.574 . S
C316 H311 0.949 . S
C316 C322 1.382 . S
C317 C301 1.349 1_554 S
C317 H309 0.950 . S
C317 C315 1.327 . S
C318 C306 1.321 1_556 S
C318 H312 0.950 . S
C318 C319 1.327 . S
C319 H313 0.950 . S
C319 C318 1.327 . S
C319 C323 1.420 1_556 S
C320 C303 1.574 . S
C320 H314 0.949 . S
C320 C324 1.366 . S
C321 C302 1.451 . S
C321 C315 1.407 1_556 S
C321 C322 1.523 . S
C322 C303 1.355 1_556 S
C322 C316 1.382 . S
C322 C321 1.523 . S
C323 C307 1.437 . S
C323 C319 1.420 1_554 S
C323 C324 1.523 . S
C324 C308 1.370 1_554 S
C324 C320 1.366 . S
C324 C323 1.523 . S
H325 C300 0.950 . S
H326 C302 0.950 . S
H327 C303 0.949 . S
H328 C305 0.950 . S
H329 C307 0.950 . S
C330 C331 1.349 . S
C330 C332 1.327 . S
C330 H355 0.950 . S
C331 C330 1.349 . S
C331 C347 1.349 1_554 S
C332 C330 1.327 . S
C332 C351 1.429 . S
C332 H356 0.950 . S
C333 C350 1.574 . S
C333 C352 1.368 1_556 S
C333 H357 0.949 . S
H334 C338 0.949 . S
C335 C336 1.365 . S
C335 C337 1.327 . S
C335 H358 0.950 . S
C336 C335 1.365 . S
C336 C348 1.333 1_556 S
C337 C335 1.327 . S
C337 C353 1.427 1_556 S
C337 H359 0.950 . S
C338 H334 0.949 . S
C338 C346 1.574 . S
C338 C354 1.385 . S
H339 C347 0.950 . S
H340 C345 0.950 . S
H341 C346 0.949 . S
H342 C348 0.950 . S
H343 C349 0.950 . S
H344 C350 0.949 . S
C345 H340 0.950 . S
C345 C347 1.327 . S
C345 C351 1.429 1_556 S
C346 C338 1.574 . S
C346 H341 0.949 . S
C346 C352 1.368 . S
C347 C331 1.349 1_556 S
C347 H339 0.950 . S
C347 C345 1.327 . S
C348 C336 1.333 1_554 S
C348 H342 0.950 . S
C348 C349 1.327 . S
C349 H343 0.950 . S
C349 C348 1.327 . S
C349 C353 1.430 . S
C350 C333 1.574 . S
C350 H344 0.949 . S
C350 C354 1.352 1_556 S
C351 C332 1.429 . S
C351 C345 1.429 1_554 S
C351 C352 1.523 . S
C352 C333 1.368 1_554 S
C352 C346 1.368 . S
C352 C351 1.523 . S
C353 C337 1.427 1_554 S
C353 C349 1.430 . S
C353 C354 1.523 . S
C354 C338 1.385 . S
C354 C350 1.352 1_554 S
C354 C353 1.523 . S
H355 C330 0.950 . S
H356 C332 0.950 . S
H357 C333 0.949 . S
H358 C335 0.950 . S
H359 C337 0.950 . S
C360 C361 1.349 . S
C360 C362 1.327 . S
C360 H385 0.950 . S
C361 C360 1.349 . S
C361 C377 1.349 1_554 S
C362 C360 1.327 . S
C362 C381 1.429 . S
C362 H386 0.950 . S
C363 C380 1.574 . S
C363 C382 1.368 1_556 S
C363 H387 0.949 . S
H364 C368 0.949 . S
C365 C366 1.349 1_556 S
C365 C367 1.327 . S
C365 H388 0.950 . S
C366 C365 1.349 1_554 S
C366 C378 1.349 . S
C367 C365 1.327 . S
C367 C383 1.429 1_556 S
C367 H389 0.950 . S
C368 H364 0.949 . S
C368 C376 1.574 . S
C368 C384 1.368 . S
H369 C377 0.950 . S
H370 C375 0.950 . S
H371 C376 0.949 . S
H372 C378 0.950 . S
H373 C379 0.950 . S
H374 C380 0.949 . S
C375 H370 0.950 . S
C375 C377 1.327 . S
C375 C381 1.429 1_556 S
C376 C368 1.574 . S
C376 H371 0.949 . S
C376 C382 1.368 . S
C377 C361 1.349 1_556 S
C377 H369 0.950 . S
C377 C375 1.327 . S
C378 C366 1.349 . S
C378 H372 0.950 . S
C378 C379 1.327 . S
C379 H373 0.950 . S
C379 C378 1.327 . S
C379 C383 1.429 . S
C380 C363 1.574 . S
C380 H374 0.949 . S
C380 C384 1.368 1_556 S
C381 C362 1.429 . S
C381 C375 1.429 1_554 S
C381 C382 1.523 . S
C382 C363 1.368 1_554 S
C382 C376 1.368 . S
C382 C381 1.523 . S
C383 C367 1.429 1_554 S
C383 C379 1.429 . S
C383 C384 1.523 . S
C384 C368 1.368 . S
C384 C380 1.368 1_554 S
C384 C383 1.523 . S
H385 C360 0.950 . S
H386 C362 0.950 . S
H387 C363 0.949 . S
H388 C365 0.950 . S
H389 C367 0.950 . S
C390 C391 1.349 1_556 S
C390 C392 1.327 . S
C390 H415 0.950 . S
C391 C390 1.349 1_554 S
C391 C407 1.349 . S
C392 C390 1.327 . S
C392 C411 1.429 1_556 S
C392 H416 0.950 . S
C393 C410 1.574 . S
C393 C412 1.368 . S
C393 H417 0.949 . S
H394 C398 0.949 . S
C395 C396 1.349 . S
C395 C397 1.327 . S
C395 H418 0.950 . S
C396 C395 1.349 . S
C396 C408 1.349 1_554 S
C397 C395 1.327 . S
C397 C413 1.429 . S
C397 H419 0.950 . S
C398 H394 0.949 . S
C398 C406 1.574 . S
C398 C414 1.368 1_556 S
H399 C407 0.950 . S
H400 C405 0.950 . S
H401 C406 0.949 . S
H402 C408 0.950 . S
H403 C409 0.950 . S
H404 C410 0.949 . S
C405 H400 0.950 . S
C405 C407 1.327 . S
C405 C411 1.429 . S
C406 C398 1.574 . S
C406 H401 0.949 . S
C406 C412 1.368 1_556 S
C407 C391 1.349 . S
C407 H399 0.950 . S
C407 C405 1.327 . S
C408 C396 1.349 1_556 S
C408 H402 0.950 . S
C408 C409 1.327 . S
C409 H403 0.950 . S
C409 C408 1.327 . S
C409 C413 1.429 1_556 S
C410 C393 1.574 . S
C410 H404 0.949 . S
C410 C414 1.368 . S
C411 C392 1.429 1_554 S
C411 C405 1.429 . S
C411 C412 1.523 . S
C412 C393 1.368 . S
C412 C406 1.368 1_554 S
C412 C411 1.523 . S
C413 C397 1.429 . S
C413 C409 1.429 1_554 S
C413 C414 1.523 . S
C414 C398 1.368 1_554 S
C414 C410 1.368 . S
C414 C413 1.523 . S
H415 C390 0.950 . S
H416 C392 0.950 . S
H417 C393 0.949 . S
H418 C395 0.950 . S
H419 C397 0.950 . S
C420 C421 1.349 . S
C420 C422 1.327 . S
C420 H445 0.950 . S
C421 C420 1.349 . S
C421 C437 1.349 . S
C422 C420 1.327 . S
C422 C441 1.429 . S
C422 H446 0.950 . S
C423 C440 1.574 . S
C423 C442 1.368 . S
C423 H447 0.949 . S
H424 C428 0.949 . S
C425 C426 1.349 . S
C425 C427 1.327 . S
C425 H448 0.950 . S
C426 C425 1.349 . S
C426 C438 1.349 . S
C427 C425 1.327 . S
C427 C443 1.429 . S
C427 H449 0.950 . S
C428 H424 0.949 . S
C428 C436 1.574 . S
C428 C444 1.368 . S
H429 C437 0.950 . S
H430 C435 0.950 . S
H431 C436 0.949 . S
H432 C438 0.950 . S
H433 C439 0.950 . S
H434 C440 0.949 . S
C435 H430 0.950 . S
C435 C437 1.327 . S
C435 C441 1.429 . S
C436 C428 1.574 . S
C436 H431 0.949 . S
C436 C442 1.368 . S
C437 C421 1.349 . S
C437 H429 0.950 . S
C437 C435 1.327 . S
C438 C426 1.349 . S
C438 H432 0.950 . S
C438 C439 1.327 . S
C439 H433 0.950 . S
C439 C438 1.327 . S
C439 C443 1.429 . S
C440 C423 1.574 . S
C440 H434 0.949 . S
C440 C444 1.368 . S
C441 C422 1.429 . S
C441 C435 1.429 . S
C441 C442 1.523 . S
C442 C423 1.368 . S
C442 C436 1.368 . S
C442 C441 1.523 . S
C443 C427 1.429 . S
C443 C439 1.429 . S
C443 C444 1.523 . S
C444 C428 1.368 . S
C444 C440 1.368 . S
C444 C443 1.523 . S
H445 C420 0.950 . S
H446 C422 0.950 . S
H447 C423 0.949 . S
H448 C425 0.950 . S
H449 C427 0.950 . S
C450 C451 1.349 . S
C450 C452 1.327 . S
C450 H475 0.950 . S
C451 C450 1.349 . S
C451 C467 1.349 . S
C452 C450 1.327 . S
C452 C471 1.429 . S
C452 H476 0.950 . S
C453 C470 1.574 . S
C453 C472 1.368 . S
C453 H477 0.949 . S
H454 C458 0.949 . S
C455 C456 1.349 . S
C455 C457 1.327 . S
C455 H478 0.950 . S
C456 C455 1.349 . S
C456 C468 1.349 . S
C457 C455 1.327 . S
C457 C473 1.429 1_455 S
C457 H479 0.950 1_455 S
C458 H454 0.949 . S
C458 C466 1.574 . S
C458 C474 1.368 . S
H459 C467 0.950 . S
H460 C465 0.950 . S
H461 C466 0.949 . S
H462 C468 0.950 . S
H463 C469 0.954 . S
H464 C470 0.949 . S
C465 H460 0.950 . S
C465 C467 1.327 . S
C465 C471 1.429 . S
C466 C458 1.574 . S
C466 H461 0.949 . S
C466 C472 1.368 . S
C467 C451 1.349 . S
C467 H459 0.950 . S
C467 C465 1.327 . S
C468 C456 1.349 . S
C468 H462 0.950 . S
C468 C469 1.327 . S
C469 H463 0.954 . S
C469 C468 1.327 . S
C469 C473 1.429 1_455 S
C470 C453 1.574 . S
C470 H464 0.949 . S
C470 C474 1.368 . S
C471 C452 1.429 . S
C471 C465 1.429 . S
C471 C472 1.523 . S
C472 C453 1.368 . S
C472 C466 1.368 . S
C472 C471 1.523 . S
C473 C457 1.429 1_655 S
C473 C469 1.429 1_655 S
C473 C474 1.523 . S
C474 C458 1.368 . S
C474 C470 1.368 . S
C474 C473 1.523 . S
H475 C450 0.950 . S
H476 C452 0.950 . S
H477 C453 0.949 . S
H478 C455 0.950 . S
H479 C457 0.950 1_655 S
C480 C481 1.349 . S
C480 C482 1.327 . S
C480 H505 0.950 . S
C481 C480 1.349 . S
C481 C497 1.349 . S
C482 C480 1.327 . S
C482 C501 1.429 . S
C482 H506 0.950 . S
C483 C500 1.574 . S
C483 C502 1.368 . S
C483 H507 0.949 . S
H484 C488 0.949 . S
C485 C486 1.349 . S
C485 C487 1.327 1_565 S
C485 H508 0.950 . S
C486 C485 1.349 . S
C486 C498 1.349 1_565 S
C487 C485 1.327 1_545 S
C487 C503 1.429 . S
C487 H509 0.950 . S
C488 H484 0.949 . S
C488 C496 1.574 . S
C488 C504 1.368 . S
H489 C497 0.950 . S
H490 C495 0.950 . S
H491 C496 0.949 . S
H492 C498 0.950 . S
H493 C499 0.950 . S
H494 C500 0.949 . S
C495 H490 0.950 . S
C495 C497 1.327 . S
C495 C501 1.429 . S
C496 C488 1.574 . S
C496 H491 0.949 . S
C496 C502 1.368 . S
C497 C481 1.349 . S
C497 H489 0.950 . S
C497 C495 1.327 . S
C498 C486 1.349 1_545 S
C498 H492 0.950 . S
C498 C499 1.327 . S
C499 H493 0.950 . S
C499 C498 1.327 . S
C499 C503 1.429 . S
C500 C483 1.574 . S
C500 H494 0.949 . S
C500 C504 1.368 . S
C501 C482 1.429 . S
C501 C495 1.429 . S
C501 C502 1.523 . S
C502 C483 1.368 . S
C502 C496 1.368 . S
C502 C501 1.523 . S
C503 C487 1.429 . S
C503 C499 1.429 . S
C503 C504 1.523 . S
C504 C488 1.368 . S
C504 C500 1.368 . S
C504 C503 1.523 . S
H505 C480 0.950 . S
H506 C482 0.950 . S
H507 C483 0.949 . S
H508 C485 0.950 . S
H509 C487 0.950 . S
C510 C511 1.349 1_655 S
C510 C512 1.327 . S
C510 H535 0.950 . S
C511 C510 1.349 1_455 S
C511 C527 1.349 . S
C512 C510 1.327 . S
C512 C531 1.429 . S
C512 H536 0.950 . S
C513 C530 1.574 . S
C513 C532 1.368 . S
C513 H537 0.949 . S
H514 C518 0.949 . S
C515 C516 1.349 . S
C515 C517 1.327 1_565 S
C515 H538 0.950 . S
C516 C515 1.349 . S
C516 C528 1.349 . S
C517 C515 1.327 1_545 S
C517 C533 1.429 . S
C517 H539 0.950 . S
C518 H514 0.949 . S
C518 C526 1.574 . S
C518 C534 1.368 . S
H519 C527 0.950 . S
H520 C525 0.950 1_455 S
H521 C526 0.949 . S
H522 C528 0.950 . S
H523 C529 0.950 . S
H524 C530 0.949 . S
C525 H520 0.950 1_655 S
C525 C527 1.327 1_655 S
C525 C531 1.429 . S
C526 C518 1.574 . S
C526 H521 0.949 . S
C526 C532 1.368 . S
C527 C511 1.349 . S
C527 H519 0.950 . S
C527 C525 1.327 1_455 S
C528 C516 1.349 . S
C528 H522 0.950 . S
C528 C529 1.327 1_565 S
C529 H523 0.950 . S
C529 C528 1.327 1_545 S
C529 C533 1.429 . S
C530 C513 1.574 . S
C530 H524 0.949 . S
C530 C534 1.368 . S
C531 C512 1.429 . S
C531 C525 1.429 . S
C531 C532 1.523 . S
C532 C513 1.368 . S
C532 C526 1.368 . S
C532 C531 1.523 . S
C533 C517 1.429 . S
C533 C529 1.429 . S
C533 C534 1.523 . S
C534 C518 1.368 . S
C534 C530 1.368 . S
C534 C533 1.523 . S
H535 C510 0.950 . S
H536 C512 0.950 . S
H537 C513 0.949 . S
H538 C515 0.950 . S
H539 C517 0.950 . S
C540 C541 1.349 . S
C540 C542 1.327 . S
C540 H565 0.950 . S
C541 C540 1.349 . S
C541 C557 1.349 . S
C542 C540 1.327 . S
C542 C561 1.429 . S
C542 H566 0.950 . S
C543 C560 1.574 . S
C543 C562 1.368 . S
C543 H567 0.949 . S
H544 C548 0.949 . S
C545 C546 1.349 . S
C545 C547 1.327 . S
C545 H568 0.950 . S
C546 C545 1.349 . S
C546 C558 1.349 . S
C547 C545 1.327 . S
C547 C563 1.429 . S
C547 H569 0.950 . S
C548 H544 0.949 . S
C548 C556 1.574 . S
C548 C564 1.368 . S
H549 C557 0.950 . S
H550 C555 0.950 . S
H551 C556 0.949 . S
H552 C558 0.950 . S
H553 C559 0.950 . S
H554 C560 0.949 . S
C555 H550 0.950 . S
C555 C557 1.327 . S
C555 C561 1.429 . S
C556 C548 1.574 . S
C556 H551 0.949 . S
C556 C562 1.368 . S
C557 C541 1.349 . S
C557 H549 0.950 . S
C557 C555 1.327 . S
C558 C546 1.349 . S
C558 H552 0.950 . S
C558 C559 1.327 . S
C559 H553 0.950 . S
C559 C558 1.327 . S
C559 C563 1.429 . S
C560 C543 1.574 . S
C560 H554 0.949 . S
C560 C564 1.368 . S
C561 C542 1.429 . S
C561 C555 1.429 . S
C561 C562 1.523 . S
C562 C543 1.368 . S
C562 C556 1.368 . S
C562 C561 1.523 . S
C563 C547 1.429 . S
C563 C559 1.429 . S
C563 C564 1.523 . S
C564 C548 1.368 . S
C564 C560 1.368 . S
C564 C563 1.523 . S
H565 C540 0.950 . S
H566 C542 0.950 . S
H567 C543 0.949 . S
H568 C545 0.950 . S
H569 C547 0.950 . S
C570 C571 1.349 . S
C570 C572 1.327 . S
C570 H595 0.950 . S
C571 C570 1.349 . S
C571 C587 1.349 . S
C572 C570 1.327 . S
C572 C591 1.429 . S
C572 H596 0.950 . S
C573 C590 1.574 . S
C573 C592 1.368 . S
C573 H597 0.949 . S
H574 C578 0.949 . S
C575 C576 1.349 . S
C575 C577 1.327 . S
C575 H598 0.950 . S
C576 C575 1.349 . S
C576 C588 1.349 . S
C577 C575 1.327 . S
C577 C593 1.429 . S
C577 H599 0.950 . S
C578 H574 0.949 . S
C578 C586 1.574 . S
C578 C594 1.368 . S
H579 C587 0.950 . S
H580 C585 0.950 . S
H581 C586 0.949 . S
H582 C588 0.950 . S
H583 C589 0.950 . S
H584 C590 0.949 . S
C585 H580 0.950 . S
C585 C587 1.327 . S
C585 C591 1.429 . S
C586 C578 1.574 . S
C586 H581 0.949 . S
C586 C592 1.368 . S
C587 C571 1.349 . S
C587 H579 0.950 . S
C587 C585 1.327 . S
C588 C576 1.349 . S
C588 H582 0.950 . S
C588 C589 1.327 . S
C589 H583 0.950 . S
C589 C588 1.327 . S
C589 C593 1.429 . S
C590 C573 1.574 . S
C590 H584 0.949 . S
C590 C594 1.368 . S
C591 C572 1.429 . S
C591 C585 1.429 . S
C591 C592 1.523 . S
C592 C573 1.368 . S
C592 C586 1.368 . S
C592 C591 1.523 . S
C593 C577 1.429 . S
C593 C589 1.429 . S
C593 C594 1.523 . S
C594 C578 1.368 . S
C594 C590 1.368 . S
C594 C593 1.523 . S
H595 C570 0.950 . S
H596 C572 0.950 . S
H597 C573 0.949 . S
H598 C575 0.950 . S
H599 C577 0.950 . S
C600 C601 1.349 . S
C600 C602 1.327 . S
C600 H625 0.950 . S
C601 C600 1.349 . S
C601 C617 1.349 . S
C602 C600 1.327 . S
C602 C621 1.429 . S
C602 H626 0.950 . S
C603 C620 1.574 . S
C603 C622 1.368 . S
C603 H627 0.949 . S
H604 C608 0.949 . S
C605 C606 1.349 . S
C605 C607 1.327 . S
C605 H628 0.950 . S
C606 C605 1.349 . S
C606 C618 1.349 . S
C607 C605 1.327 . S
C607 C623 1.429 . S
C607 H629 0.950 . S
C608 H604 0.949 . S
C608 C616 1.574 . S
C608 C624 1.368 . S
H609 C617 0.950 . S
H610 C615 0.950 . S
H611 C616 0.949 . S
H612 C618 0.950 . S
H613 C619 0.950 . S
H614 C620 0.949 . S
C615 H610 0.950 . S
C615 C617 1.327 . S
C615 C621 1.429 . S
C616 C608 1.574 . S
C616 H611 0.949 . S
C616 C622 1.368 . S
C617 C601 1.349 . S
C617 H609 0.950 . S
C617 C615 1.327 . S
C618 C606 1.349 . S
C618 H612 0.950 . S
C618 C619 1.327 . S
C619 H613 0.950 . S
C619 C618 1.327 . S
C619 C623 1.429 . S
C620 C603 1.574 . S
C620 H614 0.949 . S
C620 C624 1.368 . S
C621 C602 1.429 . S
C621 C615 1.429 . S
C621 C622 1.523 . S
C622 C603 1.368 . S
C622 C616 1.368 . S
C622 C621 1.523 . S
C623 C607 1.429 . S
C623 C619 1.429 . S
C623 C624 1.523 . S
C624 C608 1.368 . S
C624 C620 1.368 . S
C624 C623 1.523 . S
H625 C600 0.950 . S
H626 C602 0.950 . S
H627 C603 0.949 . S
H628 C605 0.950 . S
H629 C607 0.950 . S
C630 C631 1.349 . S
C630 C632 1.327 . S
C630 H655 0.950 . S
C631 C630 1.349 . S
C631 C647 1.349 . S
C632 C630 1.327 . S
C632 C651 1.429 . S
C632 H656 0.950 . S
C633 C650 1.574 . S
C633 C652 1.368 . S
C633 H657 0.949 . S
H634 C638 0.949 . S
C635 C636 1.349 . S
C635 C637 1.327 . S
C635 H658 0.950 . S
C636 C635 1.349 . S
C636 C648 1.349 . S
C637 C635 1.327 . S
C637 C653 1.429 . S
C637 H659 0.950 . S
C638 H634 0.949 . S
C638 C646 1.574 . S
C638 C654 1.368 . S
H639 C647 0.950 . S
H640 C645 0.950 . S
H641 C646 0.949 . S
H642 C648 0.950 . S
H643 C649 0.950 . S
H644 C650 0.949 . S
C645 H640 0.950 . S
C645 C647 1.327 . S
C645 C651 1.429 . S
C646 C638 1.574 . S
C646 H641 0.949 . S
C646 C652 1.368 . S
C647 C631 1.349 . S
C647 H639 0.950 . S
C647 C645 1.327 . S
C648 C636 1.349 . S
C648 H642 0.950 . S
C648 C649 1.327 . S
C649 H643 0.950 . S
C649 C648 1.327 . S
C649 C653 1.429 . S
C650 C633 1.574 . S
C650 H644 0.949 . S
C650 C654 1.368 . S
C651 C632 1.429 . S
C651 C645 1.429 . S
C651 C652 1.523 . S
C652 C633 1.368 . S
C652 C646 1.368 . S
C652 C651 1.523 . S
C653 C637 1.429 . S
C653 C649 1.429 . S
C653 C654 1.523 . S
C654 C638 1.368 . S
C654 C650 1.368 . S
C654 C653 1.523 . S
H655 C630 0.950 . S
H656 C632 0.950 . S
H657 C633 0.949 . S
H658 C635 0.950 . S
H659 C637 0.950 . S
C660 C661 1.349 . S
C660 C662 1.327 . S
C660 H685 0.950 . S
C661 C660 1.349 . S
C661 C677 1.349 . S
C662 C660 1.327 . S
C662 C681 1.429 . S
C662 H686 0.950 . S
C663 C680 1.574 . S
C663 C682 1.368 . S
C663 H687 0.949 . S
H664 C668 0.949 . S
C665 C666 1.349 . S
C665 C667 1.327 . S
C665 H688 0.950 . S
C666 C665 1.349 . S
C666 C678 1.349 . S
C667 C665 1.327 . S
C667 C683 1.429 . S
C667 H689 0.950 . S
C668 H664 0.949 . S
C668 C676 1.574 . S
C668 C684 1.368 . S
H669 C677 0.950 . S
H670 C675 0.950 . S
H671 C676 0.949 . S
H672 C678 0.950 . S
H673 C679 0.950 . S
H674 C680 0.949 . S
C675 H670 0.950 . S
C675 C677 1.327 . S
C675 C681 1.429 . S
C676 C668 1.574 . S
C676 H671 0.949 . S
C676 C682 1.368 . S
C677 C661 1.349 . S
C677 H669 0.950 . S
C677 C675 1.327 . S
C678 C666 1.349 . S
C678 H672 0.950 . S
C678 C679 1.327 . S
C679 H673 0.950 . S
C679 C678 1.327 . S
C679 C683 1.429 . S
C680 C663 1.574 . S
C680 H674 0.949 . S
C680 C684 1.368 . S
C681 C662 1.429 . S
C681 C675 1.429 . S
C681 C682 1.523 . S
C682 C663 1.368 . S
C682 C676 1.368 . S
C682 C681 1.523 . S
C683 C667 1.429 . S
C683 C679 1.429 . S
C683 C684 1.523 . S
C684 C668 1.368 . S
C684 C680 1.368 . S
C684 C683 1.523 . S
H685 C660 0.950 . S
H686 C662 0.950 . S
H687 C663 0.949 . S
H688 C665 0.950 . S
H689 C667 0.950 . S
C690 C691 1.349 . S
C690 C692 1.327 . S
C690 H715 0.950 . S
C691 C690 1.349 . S
C691 C707 1.349 . S
C692 C690 1.327 . S
C692 C711 1.429 . S
C692 H716 0.950 . S
C693 C710 1.574 . S
C693 C712 1.368 . S
C693 H717 0.949 . S
H694 C698 0.949 . S
C695 C696 1.349 . S
C695 C697 1.327 . S
C695 H718 0.950 . S
C696 C695 1.349 . S
C696 C708 1.349 . S
C697 C695 1.327 . S
C697 C713 1.429 . S
C697 H719 0.950 . S
C698 H694 0.949 . S
C698 C706 1.574 . S
C698 C714 1.368 . S
H699 C707 0.950 . S
H700 C705 0.950 . S
H701 C706 0.949 . S
H702 C708 0.950 . S
H703 C709 0.950 . S
H704 C710 0.949 . S
C705 H700 0.950 . S
C705 C707 1.327 . S
C705 C711 1.429 . S
C706 C698 1.574 . S
C706 H701 0.949 . S
C706 C712 1.368 . S
C707 C691 1.349 . S
C707 H699 0.950 . S
C707 C705 1.327 . S
C708 C696 1.349 . S
C708 H702 0.950 . S
C708 C709 1.327 . S
C709 H703 0.950 . S
C709 C708 1.327 . S
C709 C713 1.429 . S
C710 C693 1.574 . S
C710 H704 0.949 . S
C710 C714 1.368 . S
C711 C692 1.429 . S
C711 C705 1.429 . S
C711 C712 1.523 . S
C712 C693 1.368 . S
C712 C706 1.368 . S
C712 C711 1.523 . S
C713 C697 1.429 . S
C713 C709 1.429 . S
C713 C714 1.523 . S
C714 C698 1.368 . S
C714 C710 1.368 . S
C714 C713 1.523 . S
H715 C690 0.950 . S
H716 C692 0.950 . S
H717 C693 0.949 . S
H718 C695 0.950 . S
H719 C697 0.950 . S
C720 C721 1.349 . S
C720 C722 1.327 . S
C720 H745 0.950 . S
C721 C720 1.349 . S
C721 C737 1.349 . S
C722 C720 1.327 . S
C722 C741 1.429 . S
C722 H746 0.950 . S
C723 C740 1.574 . S
C723 C742 1.368 . S
C723 H747 0.949 . S
H724 C728 0.949 . S
C725 C726 1.349 . S
C725 C727 1.327 . S
C725 H748 0.950 . S
C726 C725 1.349 . S
C726 C738 1.349 . S
C727 C725 1.327 . S
C727 C743 1.429 . S
C727 H749 0.950 . S
C728 H724 0.949 . S
C728 C736 1.574 . S
C728 C744 1.368 . S
H729 C737 0.950 . S
H730 C735 0.950 . S
H731 C736 0.949 . S
H732 C738 0.950 . S
H733 C739 0.950 . S
H734 C740 0.949 . S
C735 H730 0.950 . S
C735 C737 1.327 . S
C735 C741 1.429 . S
C736 C728 1.574 . S
C736 H731 0.949 . S
C736 C742 1.368 . S
C737 C721 1.349 . S
C737 H729 0.950 . S
C737 C735 1.327 . S
C738 C726 1.349 . S
C738 H732 0.950 . S
C738 C739 1.327 . S
C739 H733 0.950 . S
C739 C738 1.327 . S
C739 C743 1.429 . S
C740 C723 1.574 . S
C740 H734 0.949 . S
C740 C744 1.368 . S
C741 C722 1.429 . S
C741 C735 1.429 . S
C741 C742 1.523 . S
C742 C723 1.368 . S
C742 C736 1.368 . S
C742 C741 1.523 . S
C743 C727 1.429 . S
C743 C739 1.429 . S
C743 C744 1.523 1_545 S
C744 C728 1.368 . S
C744 C740 1.368 . S
C744 C743 1.523 1_565 S
H745 C720 0.950 . S
H746 C722 0.950 . S
H747 C723 0.949 . S
H748 C725 0.950 . S
H749 C727 0.950 . S
C750 C751 1.349 . S
C750 C752 1.327 . S
C750 H775 0.950 . S
C751 C750 1.349 . S
C751 C767 1.349 . S
C752 C750 1.327 . S
C752 C771 1.429 . S
C752 H776 0.950 . S
C753 C770 1.574 . S
C753 C772 1.368 1_455 S
C753 H777 0.949 . S
H754 C758 0.949 . S
C755 C756 1.349 . S
C755 C757 1.327 . S
C755 H778 0.950 . S
C756 C755 1.349 . S
C756 C768 1.349 . S
C757 C755 1.327 . S
C757 C773 1.429 . S
C757 H779 0.950 . S
C758 H754 0.949 . S
C758 C766 1.574 . S
C758 C774 1.368 . S
H759 C767 0.950 . S
H760 C765 0.950 . S
H761 C766 0.949 1_655 S
H762 C768 0.950 . S
H763 C769 0.950 . S
H764 C770 0.949 . S
C765 H760 0.950 . S
C765 C767 1.327 . S
C765 C771 1.429 . S
C766 C758 1.574 . S
C766 H761 0.949 1_455 S
C766 C772 1.368 1_455 S
C767 C751 1.349 . S
C767 H759 0.950 . S
C767 C765 1.327 . S
C768 C756 1.349 . S
C768 H762 0.950 . S
C768 C769 1.327 . S
C769 H763 0.950 . S
C769 C768 1.327 . S
C769 C773 1.429 . S
C770 C753 1.574 . S
C770 H764 0.949 . S
C770 C774 1.368 . S
C771 C752 1.429 . S
C771 C765 1.429 . S
C771 C772 1.523 . S
C772 C753 1.368 1_655 S
C772 C766 1.368 1_655 S
C772 C771 1.523 . S
C773 C757 1.429 . S
C773 C769 1.429 . S
C773 C774 1.523 . S
C774 C758 1.368 . S
C774 C770 1.368 . S
C774 C773 1.523 . S
H775 C750 0.950 . S
H776 C752 0.950 . S
H777 C753 0.949 . S
H778 C755 0.950 . S
H779 C757 0.950 . S
C780 C781 1.349 . S
C780 C782 1.327 . S
C780 H805 0.950 . S
C781 C780 1.349 . S
C781 C797 1.349 . S
C782 C780 1.327 . S
C782 C801 1.429 . S
C782 H806 0.950 . S
C783 C800 1.574 . S
C783 C802 1.368 . S
C783 H807 0.949 . S
H784 C788 0.949 . S
C785 C786 1.349 . S
C785 C787 1.327 . S
C785 H808 0.950 . S
C786 C785 1.349 . S
C786 C798 1.349 . S
C787 C785 1.327 . S
C787 C803 1.429 . S
C787 H809 0.950 . S
C788 H784 0.949 . S
C788 C796 1.574 . S
C788 C804 1.368 . S
H789 C797 0.950 . S
H790 C795 0.950 . S
H791 C796 0.949 . S
H792 C798 0.950 1_655 S
H793 C799 0.950 . S
H794 C800 0.949 . S
C795 H790 0.950 . S
C795 C797 1.327 . S
C795 C801 1.429 . S
C796 C788 1.574 . S
C796 H791 0.949 . S
C796 C802 1.368 . S
C797 C781 1.349 . S
C797 H789 0.950 . S
C797 C795 1.327 . S
C798 C786 1.349 . S
C798 H792 0.950 1_455 S
C798 C799 1.327 . S
C799 H793 0.950 . S
C799 C798 1.327 . S
C799 C803 1.429 . S
C800 C783 1.574 . S
C800 H794 0.949 . S
C800 C804 1.368 . S
C801 C782 1.429 . S
C801 C795 1.429 . S
C801 C802 1.523 . S
C802 C783 1.368 . S
C802 C796 1.368 . S
C802 C801 1.523 . S
C803 C787 1.429 . S
C803 C799 1.429 . S
C803 C804 1.523 . S
C804 C788 1.368 . S
C804 C800 1.368 . S
C804 C803 1.523 . S
H805 C780 0.950 . S
H806 C782 0.950 . S
H807 C783 0.949 . S
H808 C785 0.950 . S
H809 C787 0.950 . S
C810 C811 1.349 . S
C810 C812 1.327 . S
C810 H835 0.950 . S
C811 C810 1.349 . S
C811 C827 1.349 . S
C812 C810 1.327 . S
C812 C831 1.429 . S
C812 H836 0.950 . S
C813 C830 1.574 . S
C813 C832 1.368 . S
C813 H837 0.949 . S
H814 C818 0.949 . S
C815 C816 1.347 1_655 S
C815 C817 1.324 1_655 S
C815 H838 0.955 . S
C816 C815 1.347 1_455 S
C816 C828 1.349 . S
C817 C815 1.324 1_455 S
C817 C833 1.429 . S
C817 H839 0.950 1_455 S
C818 H814 0.949 . S
C818 C826 1.574 . S
C818 C834 1.368 . S
H819 C827 0.950 . S
H820 C825 0.950 . S
H821 C826 0.949 . S
H822 C828 0.950 . S
H823 C829 0.950 . S
H824 C830 0.970 . S
C825 H820 0.950 . S
C825 C827 1.327 . S
C825 C831 1.429 . S
C826 C818 1.574 . S
C826 H821 0.949 . S
C826 C832 1.368 . S
C827 C811 1.349 . S
C827 H819 0.950 . S
C827 C825 1.327 . S
C828 C816 1.349 . S
C828 H822 0.950 . S
C828 C829 1.327 . S
C829 H823 0.950 . S
C829 C828 1.327 . S
C829 C833 1.429 . S
C830 C813 1.574 . S
C830 H824 0.970 . S
C830 C834 1.368 . S
C831 C812 1.429 . S
C831 C825 1.429 . S
C831 C832 1.523 . S
C832 C813 1.368 . S
C832 C826 1.368 . S
C832 C831 1.523 . S
C833 C817 1.429 . S
C833 C829 1.429 . S
C833 C834 1.523 . S
C834 C818 1.368 . S
C834 C830 1.368 . S
C834 C833 1.523 . S
H835 C810 0.950 . S
H836 C812 0.950 . S
H837 C813 0.949 . S
H838 C815 0.955 . S
H839 C817 0.950 1_655 S
C840 C841 1.349 . S
C840 C842 1.327 . S
C840 H865 0.950 . S
C841 C840 1.349 . S
C841 C857 1.349 . S
C842 C840 1.327 . S
C842 C861 1.429 . S
C842 H866 0.950 . S
C843 C860 1.574 . S
C843 C862 1.368 . S
C843 H867 0.949 . S
H844 C848 0.949 . S
C845 C846 1.349 . S
C845 C847 1.327 . S
C845 H868 0.950 . S
C846 C845 1.349 . S
C846 C858 1.349 . S
C847 C845 1.327 . S
C847 C863 1.429 . S
C847 H869 0.950 . S
C848 H844 0.949 . S
C848 C856 1.574 . S
C848 C864 1.368 . S
H849 C857 0.950 . S
H850 C855 0.950 . S
H851 C856 0.949 . S
H852 C858 0.950 . S
H853 C859 0.950 . S
H854 C860 0.949 . S
C855 H850 0.950 . S
C855 C857 1.327 . S
C855 C861 1.429 . S
C856 C848 1.574 . S
C856 H851 0.949 . S
C856 C862 1.368 . S
C857 C841 1.349 . S
C857 H849 0.950 . S
C857 C855 1.327 . S
C858 C846 1.349 . S
C858 H852 0.950 . S
C858 C859 1.327 . S
C859 H853 0.950 . S
C859 C858 1.327 . S
C859 C863 1.429 . S
C860 C843 1.574 . S
C860 H854 0.949 . S
C860 C864 1.368 . S
C861 C842 1.429 . S
C861 C855 1.429 . S
C861 C862 1.523 . S
C862 C843 1.368 . S
C862 C856 1.368 . S
C862 C861 1.523 . S
C863 C847 1.429 . S
C863 C859 1.429 . S
C863 C864 1.523 . S
C864 C848 1.368 . S
C864 C860 1.368 . S
C864 C863 1.523 . S
H865 C840 0.950 . S
H866 C842 0.950 . S
H867 C843 0.949 . S
H868 C845 0.950 . S
H869 C847 0.950 . S
C870 C871 1.349 . S
C870 C872 1.327 . S
C870 H895 0.950 . S
C871 C870 1.349 . S
C871 C887 1.371 . S
C872 C870 1.327 . S
C872 C891 1.429 . S
C872 H896 0.950 . S
C873 C890 1.574 . S
C873 C892 1.368 . S
C873 H897 0.949 . S
H874 C878 0.949 . S
C875 C876 1.349 . S
C875 C877 1.327 . S
C875 H898 0.950 . S
C876 C875 1.349 . S
C876 C888 1.349 . S
C877 C875 1.327 . S
C877 C893 1.429 . S
C877 H899 0.950 . S
C878 H874 0.949 . S
C878 C886 1.574 . S
C878 C894 1.368 . S
H879 C887 0.927 1_545 S
H880 C885 0.922 1_545 S
H881 C886 0.949 . S
H882 C888 0.950 . S
H883 C889 0.950 . S
H884 C890 0.949 . S
C885 H880 0.922 1_565 S
C885 C887 1.328 . S
C885 C891 1.429 . S
C886 C878 1.574 . S
C886 H881 0.949 . S
C886 C892 1.368 . S
C887 C871 1.371 . S
C887 H879 0.927 1_565 S
C887 C885 1.328 . S
C888 C876 1.349 . S
C888 H882 0.950 . S
C888 C889 1.327 . S
C889 H883 0.950 . S
C889 C888 1.327 . S
C889 C893 1.429 . S
C890 C873 1.574 . S
C890 H884 0.949 . S
C890 C894 1.368 . S
C891 C872 1.429 . S
C891 C885 1.429 . S
C891 C892 1.523 . S
C892 C873 1.368 . S
C892 C886 1.368 . S
C892 C891 1.523 . S
C893 C877 1.429 . S
C893 C889 1.429 . S
C893 C894 1.523 . S
C894 C878 1.368 . S
C894 C890 1.368 . S
C894 C893 1.523 . S
H895 C870 0.950 . S
H896 C872 0.950 . S
H897 C873 0.949 . S
H898 C875 0.950 . S
H899 C877 0.950 . S
C900 C901 1.349 . S
C900 C902 1.327 . S
C900 H925 0.950 1_545 S
C901 C900 1.349 . S
C901 C917 1.349 . S
C902 C900 1.327 . S
C902 C921 1.429 . S
C902 H926 0.950 . S
C903 C920 1.574 . S
C903 C922 1.368 . S
C903 H927 0.949 . S
H904 C908 0.949 . S
C905 C906 1.349 . S
C905 C907 1.327 . S
C905 H928 0.950 . S
C906 C905 1.349 . S
C906 C918 1.349 . S
C907 C905 1.327 . S
C907 C923 1.429 . S
C907 H929 0.950 . S
C908 H904 0.949 . S
C908 C916 1.574 . S
C908 C924 1.368 . S
H909 C917 0.950 . S
H910 C915 0.950 . S
H911 C916 0.949 . S
H912 C918 0.950 . S
H913 C919 0.950 . S
H914 C920 0.949 . S
C915 H910 0.950 . S
C915 C917 1.327 . S
C915 C921 1.429 . S
C916 C908 1.574 . S
C916 H911 0.949 . S
C916 C922 1.368 . S
C917 C901 1.349 . S
C917 H909 0.950 . S
C917 C915 1.327 . S
C918 C906 1.349 . S
C918 H912 0.950 . S
C918 C919 1.327 . S
C919 H913 0.950 . S
C919 C918 1.327 . S
C919 C923 1.429 . S
C920 C903 1.574 . S
C920 H914 0.949 . S
C920 C924 1.368 . S
C921 C902 1.429 . S
C921 C915 1.429 . S
C921 C922 1.523 . S
C922 C903 1.368 . S
C922 C916 1.368 . S
C922 C921 1.523 . S
C923 C907 1.429 . S
C923 C919 1.429 . S
C923 C924 1.523 . S
C924 C908 1.368 . S
C924 C920 1.368 . S
C924 C923 1.523 . S
H925 C900 0.950 1_565 S
H926 C902 0.950 . S
H927 C903 0.949 . S
H928 C905 0.950 . S
H929 C907 0.950 . S
C930 C931 1.349 . S
C930 C932 1.327 . S
C930 H955 0.950 . S
C931 C930 1.349 . S
C931 C947 1.349 1_655 S
C932 C930 1.327 . S
C932 C951 1.429 . S
C932 H956 0.950 . S
C933 C950 1.574 . S
C933 C952 1.368 . S
C933 H957 0.949 1_655 S
H934 C938 0.949 . S
C935 C936 1.349 . S
C935 C937 1.327 . S
C935 H958 0.950 . S
C936 C935 1.349 . S
C936 C948 1.349 . S
C937 C935 1.327 . S
C937 C953 1.429 . S
C937 H959 0.950 . S
C938 H934 0.949 . S
C938 C946 1.574 . S
C938 C954 1.368 . S
H939 C947 0.950 . S
H940 C945 0.950 . S
H941 C946 0.949 . S
H942 C948 0.950 . S
H943 C949 0.950 . S
H944 C950 0.949 . S
C945 H940 0.950 . S
C945 C947 1.327 . S
C945 C951 1.429 1_455 S
C946 C938 1.574 . S
C946 H941 0.949 . S
C946 C952 1.368 . S
C947 C931 1.349 1_455 S
C947 H939 0.950 . S
C947 C945 1.327 . S
C948 C936 1.349 . S
C948 H942 0.950 . S
C948 C949 1.327 . S
C949 H943 0.950 . S
C949 C948 1.327 . S
C949 C953 1.429 . S
C950 C933 1.574 . S
C950 H944 0.949 . S
C950 C954 1.368 . S
C951 C932 1.429 . S
C951 C945 1.429 1_655 S
C951 C952 1.523 . S
C952 C933 1.368 . S
C952 C946 1.368 . S
C952 C951 1.523 . S
C953 C937 1.429 . S
C953 C949 1.429 . S
C953 C954 1.523 . S
C954 C938 1.368 . S
C954 C950 1.368 . S
C954 C953 1.523 . S
H955 C930 0.950 . S
H956 C932 0.950 . S
H957 C933 0.949 1_455 S
H958 C935 0.950 . S
H959 C937 0.950 . S
C960 C961 1.349 . S
C960 C962 1.327 . S
C960 H985 0.950 . S
C961 C960 1.349 . S
C961 C977 1.349 . S
C962 C960 1.327 . S
C962 C981 1.429 . S
C962 H986 0.950 . S
C963 C980 1.574 . S
C963 C982 1.368 . S
C963 H987 0.949 . S
H964 C968 0.949 . S
C965 C966 1.349 . S
C965 C967 1.327 . S
C965 H988 0.950 . S
C966 C965 1.349 . S
C966 C978 1.349 . S
C967 C965 1.327 . S
C967 C983 1.429 . S
C967 H989 0.950 . S
C968 H964 0.949 . S
C968 C976 1.574 . S
C968 C984 1.368 . S
H969 C977 0.950 . S
H970 C975 0.950 . S
H971 C976 0.949 . S
H972 C978 0.950 . S
H973 C979 0.950 . S
H974 C980 0.949 . S
C975 H970 0.950 . S
C975 C977 1.327 . S
C975 C981 1.429 . S
C976 C968 1.574 . S
C976 H971 0.949 . S
C976 C982 1.368 . S
C977 C961 1.349 . S
C977 H969 0.950 . S
C977 C975 1.327 . S
C978 C966 1.349 . S
C978 H972 0.950 . S
C978 C979 1.327 . S
C979 H973 0.950 . S
C979 C978 1.327 . S
C979 C983 1.429 . S
C980 C963 1.574 . S
C980 H974 0.949 . S
C980 C984 1.368 . S
C981 C962 1.429 . S
C981 C975 1.429 . S
C981 C982 1.523 . S
C982 C963 1.368 . S
C982 C976 1.368 . S
C982 C981 1.523 . S
C983 C967 1.429 . S
C983 C979 1.429 . S
C983 C984 1.523 . S
C984 C968 1.368 . S
C984 C980 1.368 . S
C984 C983 1.523 . S
H985 C960 0.950 . S
H986 C962 0.950 . S
H987 C963 0.949 . S
H988 C965 0.950 . S
H989 C967 0.950 . S
C990 C991 1.349 . S
C990 C992 1.327 . S
C990 H1015 0.950 . S
C991 C990 1.349 . S
C991 C1007 1.349 . S
C992 C990 1.327 . S
C992 C1011 1.429 . S
C992 H1016 0.950 . S
C993 C1010 1.574 . S
C993 C1012 1.368 . S
C993 H1017 0.949 . S
H994 C998 0.949 . S
C995 C996 1.349 . S
C995 C997 1.327 . S
C995 H1018 0.950 . S
C996 C995 1.349 . S
C996 C1008 1.349 . S
C997 C995 1.327 . S
C997 C1013 1.429 . S
C997 H1019 0.950 . S
C998 H994 0.949 . S
C998 C1006 1.574 . S
C998 C1014 1.368 . S
H999 C1007 0.950 . S
H1000 C1005 0.950 . S
H1001 C1006 0.949 . S
H1002 C1008 0.950 . S
H1003 C1009 0.950 . S
H1004 C1010 0.949 . S
C1005 H1000 0.950 . S
C1005 C1007 1.327 . S
C1005 C1011 1.429 . S
C1006 C998 1.574 . S
C1006 H1001 0.949 . S
C1006 C1012 1.368 . S
C1007 C991 1.349 . S
C1007 H999 0.950 . S
C1007 C1005 1.327 . S
C1008 C996 1.349 . S
C1008 H1002 0.950 . S
C1008 C1009 1.327 . S
C1009 H1003 0.950 . S
C1009 C1008 1.327 . S
C1009 C1013 1.429 . S
C1010 C993 1.574 . S
C1010 H1004 0.949 . S
C1010 C1014 1.368 . S
C1011 C992 1.429 . S
C1011 C1005 1.429 . S
C1011 C1012 1.523 . S
C1012 C993 1.368 . S
C1012 C1006 1.368 . S
C1012 C1011 1.523 . S
C1013 C997 1.429 . S
C1013 C1009 1.429 . S
C1013 C1014 1.523 . S
C1014 C998 1.368 . S
C1014 C1010 1.368 . S
C1014 C1013 1.523 . S
H1015 C990 0.950 . S
H1016 C992 0.950 . S
H1017 C993 0.949 . S
H1018 C995 0.950 . S
H1019 C997 0.950 . S
C1020 C1021 1.349 . S
C1020 C1022 1.327 . S
C1020 H1045 0.950 . S
C1021 C1020 1.349 . S
C1021 C1037 1.349 . S
C1022 C1020 1.327 . S
C1022 C1041 1.429 . S
C1022 H1046 0.950 . S
C1023 C1040 1.574 1_565 S
C1023 C1042 1.368 . S
C1023 H1047 0.949 . S
H1024 C1028 0.949 . S
C1025 C1026 1.349 . S
C1025 C1027 1.327 . S
C1025 H1048 0.950 . S
C1026 C1025 1.349 . S
C1026 C1038 1.349 . S
C1027 C1025 1.327 . S
C1027 C1043 1.429 . S
C1027 H1049 0.950 . S
C1028 H1024 0.949 . S
C1028 C1036 1.574 . S
C1028 C1044 1.368 . S
H1029 C1037 0.950 . S
H1030 C1035 0.950 . S
H1031 C1036 0.949 . S
H1032 C1038 0.950 . S
H1033 C1039 0.950 . S
H1034 C1040 0.949 . S
C1035 H1030 0.950 . S
C1035 C1037 1.327 . S
C1035 C1041 1.429 . S
C1036 C1028 1.574 . S
C1036 H1031 0.949 . S
C1036 C1042 1.368 1_545 S
C1037 C1021 1.349 . S
C1037 H1029 0.950 . S
C1037 C1035 1.327 . S
C1038 C1026 1.349 . S
C1038 H1032 0.950 . S
C1038 C1039 1.327 . S
C1039 H1033 0.950 . S
C1039 C1038 1.327 . S
C1039 C1043 1.429 . S
C1040 C1023 1.574 1_545 S
C1040 H1034 0.949 . S
C1040 C1044 1.368 . S
C1041 C1022 1.429 . S
C1041 C1035 1.429 . S
C1041 C1042 1.523 . S
C1042 C1023 1.368 . S
C1042 C1036 1.368 1_565 S
C1042 C1041 1.523 . S
C1043 C1027 1.429 . S
C1043 C1039 1.429 . S
C1043 C1044 1.523 . S
C1044 C1028 1.368 . S
C1044 C1040 1.368 . S
C1044 C1043 1.523 . S
H1045 C1020 0.950 . S
H1046 C1022 0.950 . S
H1047 C1023 0.949 . S
H1048 C1025 0.950 . S
H1049 C1027 0.950 . S
C1050 C1051 1.349 . S
C1050 C1052 1.327 . S
C1050 H1075 0.950 . S
C1051 C1050 1.349 . S
C1051 C1067 1.349 . S
C1052 C1050 1.327 . S
C1052 C1071 1.429 . S
C1052 H1076 0.950 . S
C1053 C1070 1.574 1_655 S
C1053 C1072 1.368 . S
C1053 H1077 0.949 . S
H1054 C1058 0.949 . S
C1055 C1056 1.349 . S
C1055 C1057 1.327 . S
C1055 H1078 0.950 . S
C1056 C1055 1.349 . S
C1056 C1068 1.349 . S
C1057 C1055 1.327 . S
C1057 C1073 1.429 . S
C1057 H1079 0.950 . S
C1058 H1054 0.949 . S
C1058 C1066 1.574 1_455 S
C1058 C1074 1.368 . S
H1059 C1067 0.950 . S
H1060 C1065 0.950 . S
H1061 C1066 0.949 . S
H1062 C1068 0.950 . S
H1063 C1069 0.950 . S
H1064 C1070 0.949 . S
C1065 H1060 0.950 . S
C1065 C1067 1.327 . S
C1065 C1071 1.429 . S
C1066 C1058 1.574 1_655 S
C1066 H1061 0.949 . S
C1066 C1072 1.368 . S
C1067 C1051 1.349 . S
C1067 H1059 0.950 . S
C1067 C1065 1.327 . S
C1068 C1056 1.349 . S
C1068 H1062 0.950 . S
C1068 C1069 1.327 . S
C1069 H1063 0.950 . S
C1069 C1068 1.327 . S
C1069 C1073 1.429 . S
C1070 C1053 1.574 1_455 S
C1070 H1064 0.949 . S
C1070 C1074 1.368 . S
C1071 C1052 1.429 . S
C1071 C1065 1.429 . S
C1071 C1072 1.523 . S
C1072 C1053 1.368 . S
C1072 C1066 1.368 . S
C1072 C1071 1.523 . S
C1073 C1057 1.429 . S
C1073 C1069 1.429 . S
C1073 C1074 1.523 . S
C1074 C1058 1.368 . S
C1074 C1070 1.368 . S
C1074 C1073 1.523 . S
H1075 C1050 0.950 . S
H1076 C1052 0.950 . S
H1077 C1053 0.949 . S
H1078 C1055 0.950 . S
H1079 C1057 0.950 . S
C271 C57 1.595 . S
C276 C16 1.562 . S
C301 N66 0.368 . S
C306 N44 0.307 1_554 S
C331 C76 0.941 . S
C336 N6 0.950 . S
C361 N74 0.380 . S
C366 N36 0.408 . S
C391 C87 0.758 . S
C396 N14 0.758 . S
C421 C27 1.799 . S
C426 C46 1.753 . S
C451 C106 0.339 . S
C456 N126 0.360 . S
C481 N156 1.192 . S
C486 C136 1.187 . S
C511 C166 1.014 . S
C516 N96 1.017 . S
C541 C147 1.633 . S
C546 N164 1.600 . S
C571 C177 0.655 . S
C576 N104 0.661 . S
C601 N134 0.647 . S
C606 C117 0.638 . S
C631 C237 1.618 . S
C636 C196 1.585 . S
C661 N224 0.337 . S
C666 N246 0.371 . S
C691 C256 0.937 . S
C696 N186 0.940 . S
C721 N254 0.385 . S
C726 N216 0.412 . S
C751 C267 0.747 . S
C756 N194 0.748 . S
C781 C207 1.783 . S
C786 C226 1.736 1_455 S
C811 C151 2.093 . S
C816 C10 2.152 . S
C841 C91 2.185 . S
C846 C31 2.190 . S
C871 C70 1.997 . S
C876 C121 1.935 . S
C901 C61 2.078 . S
C906 C190 2.137 . S
C931 C1 2.204 . S
C936 C211 2.209 . S
C961 C250 1.986 . S
C966 C40 1.985 . S
C991 C100 2.126 . S
C996 C241 2.067 . S
C1021 C130 2.272 . S
C1026 C181 2.199 . S
C1051 C220 2.007 . S
C1056 C160 2.007 . S
