# Generated by pormake.
# Topology unc, (4)-cn, num edge types: 1
# Building blocks:
#     Node 0, Type 0, BuildingBlock: NAHDIM_clean_sbu_0, # of connection points: 4
#     Node 1, Type 0, BuildingBlock: NAHDIM_clean_sbu_0, # of connection points: 4
#     Node 2, Type 0, BuildingBlock: NAHDIM_clean_sbu_0, # of connection points: 4
#     Node 3, Type 0, BuildingBlock: NAHDIM_clean_sbu_0, # of connection points: 4
#     Edge 4, Type (0, 0), BuildingBlock: FUNLAD_clean_linker_1, # of connection points: 2
#     Edge 5, Type (0, 0), BuildingBlock: FUNLAD_clean_linker_1, # of connection points: 2
#     Edge 6, Type (0, 0), BuildingBlock: FUNLAD_clean_linker_1, # of connection points: 2
#     Edge 7, Type (0, 0), BuildingBlock: FUNLAD_clean_linker_1, # of connection points: 2
#     Edge 8, Type (0, 0), BuildingBlock: FUNLAD_clean_linker_1, # of connection points: 2
#     Edge 9, Type (0, 0), BuildingBlock: FUNLAD_clean_linker_1, # of connection points: 2
#     Edge 10, Type (0, 0), BuildingBlock: FUNLAD_clean_linker_1, # of connection points: 2
#     Edge 11, Type (0, 0), BuildingBlock: FUNLAD_clean_linker_1, # of connection points: 2
# Relax obj value: 0.113
# Max RMSD: 0.174
# Mean RMSD: 0.174
data_MOF--net-unc--node1-NAHDIM_clean_sbu_0--edge1-FUNLAD_clean_linker_1
_symmetry_space_group_name_H-M    P1
_symmetry_Int_Tables_number       1
_symmetry_cell_setting            triclinic
loop_
_symmetry_equiv_pos_as_xyz
'x, y, z'
_cell_length_a     31.126944
_cell_length_b     31.012916
_cell_length_c     22.24797
_cell_angle_alpha  89.791651
_cell_angle_beta   90.413348
_cell_angle_gamma 96.338634
loop_
_atom_site_label
_atom_site_type_symbol
_atom_site_fract_x
_atom_site_fract_y
_atom_site_fract_z
_atom_type_partial_charge
C0 C 0.97287 0.75362 0.92975 0.0
O1 O 0.00773 0.7509 0.89775 0.0
O2 O 0.02091 0.65738 0.92206 0.0
Zn3 Zn 0.01518 0.69414 0.99531 0.0
O4 O 0.07 0.73387 0.0118 0.0
C5 C 0.03061 0.6277 0.07591 0.0
O6 O 0.06633 0.63174 0.04445 0.0
O7 O 0.96738 0.73133 0.97774 0.0
C8 C 0.08254 0.7426 0.06529 0.0
O9 O 0.06 0.72503 0.11056 0.0
C10 C 0.05593 0.64803 0.89916 0.0
O11 O 0.09322 0.66383 0.92253 0.0
O12 O 0.0017 0.65262 0.06463 0.0
C13 C 0.30229 0.08703 0.28423 0.0
O14 O 0.28278 0.04724 0.28401 0.0
O15 O 0.41621 0.03167 0.30327 0.0
Zn16 Zn 0.3741 0.04545 0.23889 0.0
O17 O 0.33287 0.993 0.21671 0.0
C18 C 0.42817 0.1029 0.1615 0.0
O19 O 0.42267 0.13182 0.20285 0.0
O20 O 0.34123 0.09407 0.26697 0.0
C21 C 0.34298 0.9544 0.21798 0.0
O22 O 0.38202 0.94716 0.23493 0.0
C23 C 0.40717 0.00869 0.34973 0.0
O24 O 0.3672 0.99172 0.35905 0.0
O25 O 0.40946 0.06453 0.1667 0.0
C26 C 0.07403 0.28926 0.40607 0.0
O27 O 0.0352 0.28842 0.38241 0.0
O28 O 0.01959 0.38681 0.41763 0.0
Zn29 Zn 0.03792 0.34744 0.48319 0.0
O30 O 0.98908 0.30369 0.50996 0.0
C31 C 0.04605 0.42019 0.56247 0.0
O32 O 0.01646 0.43258 0.5258 0.0
O33 O 0.08417 0.31361 0.45096 0.0
C34 C 0.95626 0.31238 0.53919 0.0
O35 O 0.95184 0.35277 0.5531 0.0
C36 C 0.9829 0.38387 0.39158 0.0
O37 O 0.95315 0.35222 0.40576 0.0
O38 O 0.0607 0.38411 0.55371 0.0
C39 C 0.74391 0.96202 0.83399 0.0
O40 O 0.7323 0.99381 0.86676 0.0
O41 O 0.6534 0.01673 0.81517 0.0
Zn42 Zn 0.69249 0.00173 0.74845 0.0
O43 O 0.72903 0.05508 0.71843 0.0
C44 C 0.62027 0.95165 0.69197 0.0
O45 O 0.61378 0.9366 0.74675 0.0
O46 O 0.73079 0.95804 0.77978 0.0
C47 C 0.71247 0.08185 0.68423 0.0
O48 O 0.6714 0.07476 0.66945 0.0
C49 C 0.64884 0.05465 0.83354 0.0
O50 O 0.67146 0.0885 0.80942 0.0
O51 O 0.6536 0.97796 0.68109 0.0
H52 H 0.05129 0.57393 0.12917 0.0
C53 C 0.02487 0.59368 0.12231 0.0
H54 H 0.96224 0.6051 0.15014 0.0
H55 H 0.99834 0.40365 0.23358 0.0
H56 H 0.99099 0.38704 0.12749 0.0
H57 H 0.97915 0.44409 0.05354 0.0
H58 H 0.97538 0.51835 0.08543 0.0
C59 C 0.98874 0.58526 0.15486 0.0
C60 C 0.98563 0.54956 0.20008 0.0
C61 C 0.98536 0.50589 0.18117 0.0
C62 C 0.99026 0.47267 0.22411 0.0
C63 C 0.99301 0.42993 0.20338 0.0
C64 C 0.98909 0.41995 0.14244 0.0
C65 C 0.98257 0.45209 0.10079 0.0
C66 C 0.98074 0.49461 0.11965 0.0
H67 H 0.94212 0.41236 0.32353 0.0
C68 C 0.9735 0.41611 0.34578 0.0
H69 H 0.03355 0.45455 0.35484 0.0
H70 H 0.98245 0.62911 0.25149 0.0
H71 H 0.98553 0.64534 0.35822 0.0
H72 H 0.99156 0.58743 0.43315 0.0
H73 H 0.99474 0.51296 0.40185 0.0
C74 C 0.00271 0.44964 0.33123 0.0
C75 C 0.99346 0.483 0.28618 0.0
C76 C 0.99077 0.5262 0.30529 0.0
C77 C 0.98684 0.55952 0.26217 0.0
C78 C 0.98524 0.60254 0.28241 0.0
C79 C 0.98693 0.61229 0.34352 0.0
C80 C 0.99036 0.57969 0.38571 0.0
C81 C 0.99227 0.5371 0.36711 0.0
H82 H 0.47395 0.0192 0.38389 0.0
C83 C 0.44208 0.00237 0.39277 0.0
H84 H 0.40507 0.9591 0.45103 0.0
H85 H 0.5762 0.88688 0.55131 0.0
H86 H 0.54325 0.82466 0.49529 0.0
H87 H 0.47767 0.82963 0.43383 0.0
H88 H 0.44468 0.89691 0.42789 0.0
C89 C 0.43616 0.97748 0.44213 0.0
C90 C 0.47284 0.97319 0.48423 0.0
C91 C 0.49112 0.93338 0.48826 0.0
C92 C 0.52869 0.93038 0.5242 0.0
C93 C 0.54719 0.89069 0.5257 0.0
C94 C 0.52873 0.85479 0.4935 0.0
C95 C 0.49183 0.85761 0.45884 0.0
C96 C 0.47319 0.8964 0.45588 0.0
H97 H 0.55575 0.92444 0.65985 0.0
C98 C 0.58536 0.94405 0.64683 0.0
H99 H 0.61577 0.98632 0.58161 0.0
H100 H 0.44221 0.05246 0.49329 0.0
H101 H 0.47451 0.11435 0.55025 0.0
H102 H 0.54056 0.10972 0.61078 0.0
H103 H 0.5745 0.04314 0.61498 0.0
C104 C 0.58707 0.96496 0.59378 0.0
C105 C 0.54749 0.96708 0.55657 0.0
C106 C 0.52849 0.00657 0.55382 0.0
C107 C 0.49084 0.00948 0.5182 0.0
C108 C 0.47161 0.04883 0.51809 0.0
C109 C 0.48961 0.08454 0.551 0.0
C110 C 0.52675 0.08191 0.58513 0.0
C111 C 0.54599 0.04346 0.58694 0.0
H112 H 0.02151 0.60578 0.83133 0.0
C113 C 0.05347 0.61742 0.84858 0.0
H114 H 0.12068 0.61385 0.84019 0.0
H115 H 0.01461 0.43658 0.71358 0.0
H116 H 0.99783 0.41433 0.81596 0.0
H117 H 0.02133 0.4621 0.9012 0.0
H118 H 0.06113 0.53284 0.88421 0.0
C119 C 0.08829 0.60218 0.82481 0.0
C120 C 0.08278 0.56993 0.77523 0.0
C121 C 0.06162 0.52776 0.78607 0.0
C122 C 0.04981 0.49947 0.73711 0.0
C123 C 0.02595 0.45878 0.74905 0.0
C124 C 0.01583 0.44566 0.8077 0.0
C125 C 0.02892 0.4726 0.85567 0.0
C126 C 0.05151 0.51322 0.84526 0.0
H127 H 0.08561 0.43586 0.6441 0.0
C128 C 0.06153 0.44733 0.61417 0.0
H129 H 0.0229 0.49757 0.59479 0.0
H130 H 0.12716 0.64681 0.74003 0.0
H131 H 0.14779 0.66779 0.63811 0.0
H132 H 0.12954 0.61788 0.55333 0.0
H133 H 0.09039 0.54677 0.56985 0.0
C134 C 0.04595 0.48516 0.62548 0.0
C135 C 0.06104 0.51277 0.67762 0.0
C136 C 0.08459 0.55391 0.66729 0.0
C137 C 0.0955 0.58252 0.71619 0.0
C138 C 0.11824 0.62376 0.70449 0.0
C139 C 0.1303 0.63619 0.64623 0.0
C140 C 0.12 0.6081 0.59849 0.0
C141 C 0.09742 0.56742 0.6086 0.0
H142 H 0.47587 0.14665 0.11082 0.0
C143 C 0.45946 0.11387 0.11295 0.0
H144 H 0.45572 0.05026 0.07808 0.0
H145 H 0.55518 0.14062 0.84513 0.0
H146 H 0.48647 0.16694 0.82104 0.0
H147 H 0.42667 0.15962 0.89387 0.0
H148 H 0.43521 0.12585 0.99128 0.0
C149 C 0.47054 0.08359 0.07485 0.0
C150 C 0.50753 0.0926 0.03339 0.0
C151 C 0.50215 0.11302 0.97722 0.0
C152 C 0.53662 0.1172 0.93525 0.0
C153 C 0.53012 0.13674 0.87877 0.0
C154 C 0.49084 0.15197 0.86437 0.0
C155 C 0.45717 0.14786 0.90539 0.0
C156 C 0.46251 0.12849 0.96116 0.0
H157 H 0.60057 0.03023 0.90047 0.0
C158 C 0.61769 0.05963 0.88164 0.0
H159 H 0.62482 0.12827 0.88293 0.0
H160 H 0.52937 0.05528 0.13949 0.0
H161 H 0.59921 0.03234 0.16559 0.0
H162 H 0.65978 0.04195 0.0941 0.0
H163 H 0.6507 0.07418 0.99586 0.0
C164 C 0.60932 0.09839 0.90241 0.0
C165 C 0.57614 0.10074 0.94967 0.0
C166 C 0.58248 0.08318 0.00759 0.0
C167 C 0.5479 0.07852 0.04919 0.0
C168 C 0.55464 0.05972 0.10615 0.0
C169 C 0.59459 0.04651 0.1218 0.0
C170 C 0.62867 0.05186 0.08152 0.0
C171 C 0.62292 0.07007 0.02511 0.0
H172 H 0.31875 0.88491 0.21162 0.0
C173 C 0.31088 0.91755 0.20215 0.0
H174 H 0.26434 0.95592 0.16795 0.0
H175 H 0.20158 0.75432 0.06983 0.0
H176 H 0.26934 0.75937 0.01596 0.0
H177 H 0.32298 0.82368 0.02671 0.0
H178 H 0.30967 0.88266 0.09271 0.0
C179 C 0.27266 0.92333 0.17659 0.0
C180 C 0.23895 0.88632 0.16476 0.0
C181 C 0.2463 0.85327 0.12327 0.0
C182 C 0.21417 0.81752 0.11401 0.0
C183 C 0.22376 0.78335 0.07601 0.0
C184 C 0.26273 0.78565 0.04519 0.0
C185 C 0.29302 0.82174 0.05147 0.0
C186 C 0.28508 0.85525 0.08994 0.0
H187 H 0.13382 0.79371 0.0382 0.0
C188 C 0.12059 0.77442 0.07601 0.0
H189 H 0.12487 0.76192 0.16896 0.0
H190 H 0.21479 0.94351 0.24848 0.0
H191 H 0.14556 0.94041 0.29816 0.0
H192 H 0.08794 0.88121 0.27669 0.0
H193 H 0.09938 0.82454 0.20596 0.0
C194 C 0.13843 0.78073 0.13093 0.0
C195 C 0.17357 0.81639 0.14303 0.0
C196 C 0.16604 0.84977 0.18383 0.0
C197 C 0.19888 0.8845 0.19511 0.0
C198 C 0.19077 0.9168 0.23722 0.0
C199 C 0.15117 0.91538 0.26626 0.0
C200 C 0.11877 0.88202 0.25426 0.0
C201 C 0.12588 0.84957 0.21358 0.0
H202 H 0.29772 0.15563 0.30676 0.0
C203 C 0.27962 0.12362 0.30436 0.0
H204 H 0.21947 0.08653 0.31844 0.0
H205 H 0.14503 0.2118 0.50178 0.0
H206 H 0.15855 0.15176 0.5667 0.0
H207 H 0.1988 0.09306 0.52985 0.0
H208 H 0.22549 0.09389 0.4277 0.0
C209 C 0.23761 0.11855 0.31912 0.0
C210 C 0.21543 0.15539 0.34156 0.0
C211 C 0.20063 0.15476 0.40171 0.0
C212 C 0.17802 0.18895 0.42324 0.0
C213 C 0.16281 0.18697 0.48318 0.0
C214 C 0.17032 0.15266 0.52098 0.0
C215 C 0.19293 0.11959 0.50022 0.0
C216 C 0.20799 0.12044 0.44138 0.0
H217 H 0.0928 0.23903 0.34502 0.0
C218 C 0.10403 0.26011 0.38219 0.0
H219 H 0.15456 0.27705 0.44452 0.0
H220 H 0.2364 0.16528 0.22222 0.0
H221 H 0.22619 0.22717 0.15906 0.0
H222 H 0.19212 0.28916 0.19899 0.0
H223 H 0.16726 0.28912 0.3021 0.0
C224 C 0.14343 0.25738 0.40595 0.0
C225 C 0.17042 0.22382 0.38465 0.0
C226 C 0.18667 0.22532 0.32517 0.0
C227 C 0.20826 0.19056 0.30309 0.0
C228 C 0.22152 0.19159 0.24227 0.0
C229 C 0.21557 0.22683 0.20531 0.0
C230 C 0.19624 0.26164 0.22771 0.0
C231 C 0.18187 0.26107 0.28687 0.0
H232 H 0.72233 0.14379 0.63462 0.0
C233 C 0.73853 0.12097 0.66142 0.0
H234 H 0.79759 0.10686 0.69995 0.0
H235 H 0.85636 0.25206 0.48491 0.0
H236 H 0.82475 0.19789 0.41444 0.0
H237 H 0.78649 0.12884 0.4505 0.0
H238 H 0.7787 0.11406 0.55706 0.0
C239 C 0.78122 0.1288 0.67188 0.0
C240 C 0.80685 0.16892 0.64934 0.0
C241 C 0.81281 0.17602 0.58673 0.0
C242 C 0.83708 0.21468 0.56592 0.0
C243 C 0.84013 0.2223 0.5032 0.0
C244 C 0.82183 0.19163 0.46222 0.0
C245 C 0.80013 0.15285 0.48252 0.0
C246 C 0.79562 0.14493 0.54394 0.0
H247 H 0.93124 0.24356 0.54846 0.0
C248 C 0.92428 0.27643 0.55806 0.0
H249 H 0.88062 0.31512 0.59798 0.0
H250 H 0.80016 0.16622 0.77201 0.0
H251 H 0.83395 0.2193 0.84237 0.0
H252 H 0.87934 0.28437 0.8064 0.0
H253 H 0.89091 0.29698 0.69987 0.0
C254 C 0.88758 0.28258 0.58658 0.0
C255 C 0.85762 0.24485 0.60773 0.0
C256 C 0.85137 0.23791 0.67023 0.0
C257 C 0.82581 0.2 0.69103 0.0
C258 C 0.81975 0.19411 0.75371 0.0
C259 C 0.83889 0.22438 0.79464 0.0
C260 C 0.86441 0.26103 0.77438 0.0
C261 C 0.87074 0.26788 0.71302 0.0
H262 H 0.78187 0.93712 0.90763 0.0
C263 C 0.77266 0.93234 0.86068 0.0
H264 H 0.77904 0.89493 0.78275 0.0
H265 H 0.94835 0.86284 0.95842 0.0
H266 H 0.97156 0.93931 0.94331 0.0
H267 H 0.92615 0.98561 0.88615 0.0
H268 H 0.85688 0.95596 0.84514 0.0
C269 C 0.78874 0.90098 0.82925 0.0
C270 C 0.81847 0.87238 0.85802 0.0
C271 C 0.85993 0.88989 0.87899 0.0
C272 C 0.88727 0.86269 0.90881 0.0
C273 C 0.92722 0.88157 0.93286 0.0
C274 C 0.94081 0.92551 0.92492 0.0
C275 C 0.91516 0.95161 0.89299 0.0
C276 C 0.87523 0.93419 0.87012 0.0
H277 H 0.94845 0.80037 0.86733 0.0
C278 C 0.94134 0.78256 0.90892 0.0
H279 H 0.89646 0.76959 0.9793 0.0
H280 H 0.74095 0.82856 0.82405 0.0
H281 H 0.71907 0.7515 0.83587 0.0
H282 H 0.76802 0.70371 0.88308 0.0
H283 H 0.83903 0.73274 0.91925 0.0
C284 C 0.90498 0.78805 0.93869 0.0
C285 C 0.87434 0.81751 0.91423 0.0
C286 C 0.83299 0.8 0.89319 0.0
C287 C 0.80499 0.82747 0.86519 0.0
C288 C 0.76372 0.80914 0.84506 0.0
C289 C 0.75071 0.76495 0.85162 0.0
C290 C 0.77825 0.73805 0.87825 0.0
C291 C 0.81895 0.75516 0.89883 0.0
loop_
_geom_bond_atom_site_label_1
_geom_bond_atom_site_label_2
_geom_bond_distance
_geom_bond_site_symmetry_2
_ccdc_geom_bond_type
C0 O1 1.160 . S
C0 O7 1.185 1_556 S
O1 C0 1.160 . S
O2 Zn3 1.899 1_556 S
O2 C10 1.295 . S
Zn3 O2 1.899 1_554 S
Zn3 O4 2.032 . S
Zn3 O7 2.086 1_455 S
Zn3 O12 1.977 1_455 S
O4 Zn3 2.032 . S
O4 C8 1.278 . S
C5 O6 1.203 . S
C5 O12 1.267 1_455 S
O6 C5 1.203 . S
O7 C0 1.185 1_554 S
O7 Zn3 2.086 1_655 S
C8 O4 1.278 . S
C8 O9 1.211 . S
O9 C8 1.211 . S
C10 O2 1.295 . S
C10 O11 1.273 . S
O11 C10 1.273 . S
O12 Zn3 1.977 1_655 S
O12 C5 1.267 1_655 S
C13 O14 1.160 . S
C13 O20 1.185 . S
O14 C13 1.160 . S
O15 Zn16 1.899 . S
O15 C23 1.284 . S
Zn16 O15 1.899 . S
Zn16 O17 2.032 . S
Zn16 O20 2.086 . S
Zn16 O25 1.977 . S
O17 Zn16 2.032 . S
O17 C21 1.278 1_545 S
C18 O19 1.203 . S
C18 O25 1.267 . S
O19 C18 1.203 . S
O20 C13 1.185 . S
O20 Zn16 2.086 . S
C21 O17 1.278 1_565 S
C21 O22 1.211 . S
O22 C21 1.211 . S
C23 O15 1.284 . S
C23 O24 1.273 1_545 S
O24 C23 1.273 1_565 S
O25 Zn16 1.977 . S
O25 C18 1.267 . S
C26 O27 1.160 . S
C26 O33 1.185 . S
O27 C26 1.160 . S
O28 Zn29 1.899 . S
O28 C36 1.284 . S
Zn29 O28 1.899 . S
Zn29 O30 2.032 . S
Zn29 O33 2.086 . S
Zn29 O38 1.977 . S
O30 Zn29 2.032 . S
O30 C34 1.278 1_455 S
C31 O32 1.203 . S
C31 O38 1.267 . S
O32 C31 1.203 . S
O33 C26 1.185 . S
O33 Zn29 2.086 . S
C34 O30 1.278 1_655 S
C34 O35 1.211 . S
O35 C34 1.211 . S
C36 O28 1.284 . S
C36 O37 1.273 1_455 S
O37 C36 1.273 1_655 S
O38 Zn29 1.977 . S
O38 C31 1.267 . S
C39 O40 1.160 . S
C39 O46 1.185 . S
O40 C39 1.160 . S
O41 Zn42 1.899 . S
O41 C49 1.295 . S
Zn42 O41 1.899 . S
Zn42 O43 2.032 . S
Zn42 O46 2.086 1_545 S
Zn42 O51 1.977 1_545 S
O43 Zn42 2.032 . S
O43 C47 1.278 . S
C44 O45 1.203 . S
C44 O51 1.267 1_545 S
O45 C44 1.203 . S
O46 C39 1.185 . S
O46 Zn42 2.086 1_565 S
C47 O43 1.278 . S
C47 O48 1.211 . S
O48 C47 1.211 . S
C49 O41 1.295 . S
C49 O50 1.273 . S
O50 C49 1.273 . S
O51 Zn42 1.977 1_565 S
O51 C44 1.267 1_565 S
H52 C53 0.951 . S
C53 H52 0.951 . S
C53 C59 1.265 1_455 S
H54 C59 0.950 . S
H55 C63 0.949 . S
H56 C64 0.950 . S
H57 C65 0.951 1_655 S
H58 C66 0.951 . S
C59 C53 1.265 1_655 S
C59 H54 0.950 . S
C59 C60 1.478 . S
C60 C59 1.478 . S
C60 C61 1.397 1_655 S
C60 C77 1.394 1_655 S
C61 C60 1.397 1_455 S
C61 C62 1.438 . S
C61 C66 1.429 1_455 S
C62 C61 1.438 . S
C62 C63 1.428 . S
C62 C75 1.394 . S
C63 H55 0.949 . S
C63 C62 1.428 . S
C63 C64 1.345 . S
C64 H56 0.950 . S
C64 C63 1.345 . S
C64 C65 1.424 . S
C65 H57 0.951 1_455 S
C65 C64 1.424 . S
C65 C66 1.347 1_455 S
C66 H58 0.951 . S
C66 C61 1.429 1_655 S
C66 C65 1.347 1_655 S
H67 C68 0.951 1_655 S
C68 H67 0.951 1_455 S
C68 C74 1.265 . S
H69 C74 0.950 . S
H70 C78 0.949 . S
H71 C79 0.950 1_655 S
H72 C80 0.951 . S
H73 C81 0.951 . S
C74 C68 1.265 . S
C74 H69 0.950 . S
C74 C75 1.478 . S
C75 C62 1.394 . S
C75 C74 1.478 . S
C75 C76 1.397 . S
C76 C75 1.397 . S
C76 C77 1.438 . S
C76 C81 1.429 . S
C77 C60 1.394 1_455 S
C77 C76 1.438 . S
C77 C78 1.428 1_455 S
C78 H70 0.949 . S
C78 C77 1.428 1_655 S
C78 C79 1.345 1_655 S
C79 H71 0.950 1_455 S
C79 C78 1.345 1_455 S
C79 C80 1.424 . S
C80 H72 0.951 . S
C80 C79 1.424 . S
C80 C81 1.347 . S
C81 H73 0.951 . S
C81 C76 1.429 . S
C81 C80 1.347 . S
H82 C83 0.951 . S
C83 H82 0.951 . S
C83 C89 1.265 . S
H84 C89 0.950 1_565 S
H85 C93 0.949 . S
H86 C94 0.950 . S
H87 C95 0.951 . S
H88 C96 0.951 . S
C89 C83 1.265 . S
C89 H84 0.950 1_545 S
C89 C90 1.478 . S
C90 C89 1.478 . S
C90 C91 1.397 1_545 S
C90 C107 1.394 . S
C91 C90 1.397 1_565 S
C91 C92 1.438 . S
C91 C96 1.429 . S
C92 C91 1.438 . S
C92 C93 1.428 . S
C92 C105 1.394 1_565 S
C93 H85 0.949 . S
C93 C92 1.428 . S
C93 C94 1.345 . S
C94 H86 0.950 . S
C94 C93 1.345 . S
C94 C95 1.424 . S
C95 H87 0.951 . S
C95 C94 1.424 . S
C95 C96 1.347 . S
C96 H88 0.951 . S
C96 C91 1.429 . S
C96 C95 1.347 . S
H97 C98 0.951 . S
C98 H97 0.951 . S
C98 C104 1.265 1_565 S
H99 C104 0.950 . S
H100 C108 0.949 . S
H101 C109 0.950 . S
H102 C110 0.951 . S
H103 C111 0.951 . S
C104 C98 1.265 1_545 S
C104 H99 0.950 . S
C104 C105 1.478 . S
C105 C92 1.394 1_545 S
C105 C104 1.478 . S
C105 C106 1.397 . S
C106 C105 1.397 . S
C106 C107 1.438 . S
C106 C111 1.429 . S
C107 C90 1.394 . S
C107 C106 1.438 . S
C107 C108 1.428 . S
C108 H100 0.949 . S
C108 C107 1.428 . S
C108 C109 1.345 . S
C109 H101 0.950 . S
C109 C108 1.345 . S
C109 C110 1.424 . S
C110 H102 0.951 . S
C110 C109 1.424 . S
C110 C111 1.347 . S
C111 H103 0.951 . S
C111 C106 1.429 . S
C111 C110 1.347 . S
H112 C113 0.951 . S
C113 H112 0.951 . S
C113 C119 1.265 . S
H114 C119 0.950 . S
H115 C123 0.949 . S
H116 C124 0.950 . S
H117 C125 0.951 . S
H118 C126 0.951 . S
C119 C113 1.265 . S
C119 H114 0.950 . S
C119 C120 1.478 . S
C120 C119 1.478 . S
C120 C121 1.397 . S
C120 C137 1.394 . S
C121 C120 1.397 . S
C121 C122 1.438 . S
C121 C126 1.429 . S
C122 C121 1.438 . S
C122 C123 1.428 . S
C122 C135 1.394 . S
C123 H115 0.949 . S
C123 C122 1.428 . S
C123 C124 1.345 1_455 S
C124 H116 0.950 . S
C124 C123 1.345 1_655 S
C124 C125 1.424 . S
C125 H117 0.951 . S
C125 C124 1.424 . S
C125 C126 1.347 1_655 S
C126 H118 0.951 . S
C126 C121 1.429 . S
C126 C125 1.347 1_455 S
H127 C128 0.951 . S
C128 H127 0.951 . S
C128 C134 1.265 . S
H129 C134 0.950 . S
H130 C138 0.949 . S
H131 C139 0.950 . S
H132 C140 0.951 . S
H133 C141 0.951 . S
C134 C128 1.265 . S
C134 H129 0.950 . S
C134 C135 1.478 . S
C135 C122 1.394 . S
C135 C134 1.478 . S
C135 C136 1.397 . S
C136 C135 1.397 . S
C136 C137 1.438 . S
C136 C141 1.429 . S
C137 C120 1.394 . S
C137 C136 1.438 . S
C137 C138 1.428 . S
C138 H130 0.949 . S
C138 C137 1.428 . S
C138 C139 1.345 . S
C139 H131 0.950 . S
C139 C138 1.345 . S
C139 C140 1.424 . S
C140 H132 0.951 . S
C140 C139 1.424 . S
C140 C141 1.347 . S
C141 H133 0.951 . S
C141 C136 1.429 . S
C141 C140 1.347 . S
H142 C143 0.951 . S
C143 H142 0.951 . S
C143 C149 1.265 . S
H144 C149 0.950 . S
H145 C153 0.949 . S
H146 C154 0.950 . S
H147 C155 0.951 . S
H148 C156 0.951 . S
C149 C143 1.265 . S
C149 H144 0.950 . S
C149 C150 1.478 . S
C150 C149 1.478 . S
C150 C151 1.397 1_554 S
C150 C167 1.394 . S
C151 C150 1.397 1_556 S
C151 C152 1.438 . S
C151 C156 1.429 . S
C152 C151 1.438 . S
C152 C153 1.428 . S
C152 C165 1.394 . S
C153 H145 0.949 . S
C153 C152 1.428 . S
C153 C154 1.345 . S
C154 H146 0.950 . S
C154 C153 1.345 . S
C154 C155 1.424 . S
C155 H147 0.951 . S
C155 C154 1.424 . S
C155 C156 1.347 . S
C156 H148 0.951 . S
C156 C151 1.429 . S
C156 C155 1.347 . S
H157 C158 0.951 . S
C158 H157 0.951 . S
C158 C164 1.265 . S
H159 C164 0.950 . S
H160 C168 0.949 . S
H161 C169 0.950 . S
H162 C170 0.951 . S
H163 C171 0.942 1_556 S
C164 C158 1.265 . S
C164 H159 0.950 . S
C164 C165 1.478 . S
C165 C152 1.394 . S
C165 C164 1.478 . S
C165 C166 1.397 1_556 S
C166 C165 1.397 1_554 S
C166 C167 1.438 . S
C166 C171 1.429 1_545 S
C167 C150 1.394 . S
C167 C166 1.438 . S
C167 C168 1.428 1_545 S
C168 H160 0.949 . S
C168 C167 1.428 1_565 S
C168 C169 1.345 . S
C169 H161 0.950 . S
C169 C168 1.345 . S
C169 C170 1.424 . S
C170 H162 0.951 . S
C170 C169 1.424 . S
C170 C171 1.347 . S
C171 H163 0.942 1_554 S
C171 C166 1.429 1_565 S
C171 C170 1.347 . S
H172 C173 0.951 . S
C173 H172 0.951 . S
C173 C179 1.265 . S
H174 C179 0.950 . S
H175 C183 0.949 . S
H176 C184 0.950 . S
H177 C185 0.951 . S
H178 C186 0.951 . S
C179 C173 1.265 . S
C179 H174 0.950 . S
C179 C180 1.478 . S
C180 C179 1.478 . S
C180 C181 1.397 . S
C180 C197 1.394 . S
C181 C180 1.397 . S
C181 C182 1.438 . S
C181 C186 1.429 . S
C182 C181 1.438 . S
C182 C183 1.428 . S
C182 C195 1.394 . S
C183 H175 0.949 . S
C183 C182 1.428 . S
C183 C184 1.345 1_554 S
C184 H176 0.950 . S
C184 C183 1.345 1_556 S
C184 C185 1.424 . S
C185 H177 0.951 . S
C185 C184 1.424 . S
C185 C186 1.347 1_556 S
C186 H178 0.951 . S
C186 C181 1.429 . S
C186 C185 1.347 1_554 S
H187 C188 0.951 . S
C188 H187 0.951 . S
C188 C194 1.265 . S
H189 C194 0.950 . S
H190 C198 0.949 . S
H191 C199 0.950 . S
H192 C200 0.951 . S
H193 C201 0.951 . S
C194 C188 1.265 . S
C194 H189 0.950 . S
C194 C195 1.478 . S
C195 C182 1.394 . S
C195 C194 1.478 . S
C195 C196 1.397 . S
C196 C195 1.397 . S
C196 C197 1.438 . S
C196 C201 1.429 . S
C197 C180 1.394 . S
C197 C196 1.438 . S
C197 C198 1.428 . S
C198 H190 0.949 . S
C198 C197 1.428 . S
C198 C199 1.345 . S
C199 H191 0.950 . S
C199 C198 1.345 . S
C199 C200 1.424 . S
C200 H192 0.951 . S
C200 C199 1.424 . S
C200 C201 1.347 . S
C201 H193 0.951 . S
C201 C196 1.429 . S
C201 C200 1.347 . S
H202 C203 0.951 . S
C203 H202 0.951 . S
C203 C209 1.265 . S
H204 C209 0.950 . S
H205 C213 0.949 . S
H206 C214 0.950 . S
H207 C215 0.951 . S
H208 C216 0.951 . S
C209 C203 1.265 . S
C209 H204 0.950 . S
C209 C210 1.478 . S
C210 C209 1.478 . S
C210 C211 1.397 . S
C210 C227 1.394 . S
C211 C210 1.397 . S
C211 C212 1.438 . S
C211 C216 1.429 . S
C212 C211 1.438 . S
C212 C213 1.428 . S
C212 C225 1.394 . S
C213 H205 0.949 . S
C213 C212 1.428 . S
C213 C214 1.345 . S
C214 H206 0.950 . S
C214 C213 1.345 . S
C214 C215 1.424 . S
C215 H207 0.951 . S
C215 C214 1.424 . S
C215 C216 1.347 . S
C216 H208 0.951 . S
C216 C211 1.429 . S
C216 C215 1.347 . S
H217 C218 0.951 . S
C218 H217 0.951 . S
C218 C224 1.265 . S
H219 C224 0.950 . S
H220 C228 0.949 . S
H221 C229 0.950 . S
H222 C230 0.951 . S
H223 C231 0.951 . S
C224 C218 1.265 . S
C224 H219 0.950 . S
C224 C225 1.478 . S
C225 C212 1.394 . S
C225 C224 1.478 . S
C225 C226 1.397 . S
C226 C225 1.397 . S
C226 C227 1.438 . S
C226 C231 1.429 . S
C227 C210 1.394 . S
C227 C226 1.438 . S
C227 C228 1.428 . S
C228 H220 0.949 . S
C228 C227 1.428 . S
C228 C229 1.345 . S
C229 H221 0.950 . S
C229 C228 1.345 . S
C229 C230 1.424 . S
C230 H222 0.951 . S
C230 C229 1.424 . S
C230 C231 1.347 . S
C231 H223 0.951 . S
C231 C226 1.429 . S
C231 C230 1.347 . S
H232 C233 0.951 . S
C233 H232 0.951 . S
C233 C239 1.265 . S
H234 C239 0.950 . S
H235 C243 0.949 . S
H236 C244 0.950 . S
H237 C245 0.951 . S
H238 C246 0.951 . S
C239 C233 1.265 . S
C239 H234 0.950 . S
C239 C240 1.478 . S
C240 C239 1.478 . S
C240 C241 1.397 . S
C240 C257 1.394 . S
C241 C240 1.397 . S
C241 C242 1.438 . S
C241 C246 1.429 . S
C242 C241 1.438 . S
C242 C243 1.428 . S
C242 C255 1.394 . S
C243 H235 0.949 . S
C243 C242 1.428 . S
C243 C244 1.345 . S
C244 H236 0.950 . S
C244 C243 1.345 . S
C244 C245 1.424 . S
C245 H237 0.951 . S
C245 C244 1.424 . S
C245 C246 1.347 . S
C246 H238 0.951 . S
C246 C241 1.429 . S
C246 C245 1.347 . S
H247 C248 0.951 . S
C248 H247 0.951 . S
C248 C254 1.265 . S
H249 C254 0.950 . S
H250 C258 0.949 . S
H251 C259 0.950 . S
H252 C260 0.951 . S
H253 C261 0.951 . S
C254 C248 1.265 . S
C254 H249 0.950 . S
C254 C255 1.478 . S
C255 C242 1.394 . S
C255 C254 1.478 . S
C255 C256 1.397 . S
C256 C255 1.397 . S
C256 C257 1.438 . S
C256 C261 1.429 . S
C257 C240 1.394 . S
C257 C256 1.438 . S
C257 C258 1.428 . S
C258 H250 0.949 . S
C258 C257 1.428 . S
C258 C259 1.345 . S
C259 H251 0.950 . S
C259 C258 1.345 . S
C259 C260 1.424 . S
C260 H252 0.951 . S
C260 C259 1.424 . S
C260 C261 1.347 . S
C261 H253 0.951 . S
C261 C256 1.429 . S
C261 C260 1.347 . S
H262 C263 0.951 . S
C263 H262 0.951 . S
C263 C269 1.265 . S
H264 C269 0.950 . S
H265 C273 0.949 . S
H266 C274 0.950 . S
H267 C275 0.951 . S
H268 C276 0.951 . S
C269 C263 1.265 . S
C269 H264 0.950 . S
C269 C270 1.478 . S
C270 C269 1.478 . S
C270 C271 1.397 . S
C270 C287 1.394 . S
C271 C270 1.397 . S
C271 C272 1.438 . S
C271 C276 1.429 . S
C272 C271 1.438 . S
C272 C273 1.428 . S
C272 C285 1.394 . S
C273 H265 0.949 . S
C273 C272 1.428 . S
C273 C274 1.345 . S
C274 H266 0.950 . S
C274 C273 1.345 . S
C274 C275 1.424 . S
C275 H267 0.951 . S
C275 C274 1.424 . S
C275 C276 1.347 . S
C276 H268 0.951 . S
C276 C271 1.429 . S
C276 C275 1.347 . S
H277 C278 0.951 . S
C278 H277 0.951 . S
C278 C284 1.265 . S
H279 C284 0.950 . S
H280 C288 0.949 . S
H281 C289 0.950 . S
H282 C290 0.951 . S
H283 C291 0.951 . S
C284 C278 1.265 . S
C284 H279 0.950 . S
C284 C285 1.478 . S
C285 C272 1.394 . S
C285 C284 1.478 . S
C285 C286 1.397 . S
C286 C285 1.397 . S
C286 C287 1.438 . S
C286 C291 1.429 . S
C287 C270 1.394 . S
C287 C286 1.438 . S
C287 C288 1.428 . S
C288 H280 0.949 . S
C288 C287 1.428 . S
C288 C289 1.345 . S
C289 H281 0.950 . S
C289 C288 1.345 . S
C289 C290 1.424 . S
C290 H282 0.951 . S
C290 C289 1.424 . S
C290 C291 1.347 . S
C291 H283 0.951 . S
C291 C286 1.429 . S
C291 C290 1.347 . S
C53 C5 1.042 . S
C68 C36 1.095 . S
C83 C23 1.109 . S
C98 C44 1.043 1_565 S
C113 C10 1.118 . S
C128 C31 1.135 . S
C143 C18 1.055 . S
C158 C49 1.111 . S
C173 C21 1.467 . S
C188 C8 1.481 . S
C203 C13 1.412 . S
C218 C26 1.416 . S
C233 C47 1.426 . S
C248 C34 1.447 . S
C263 C39 1.390 . S
C278 C0 1.393 . S
