# Generated by pormake.
# Topology uli, (4)-cn, num edge types: 1
# Building blocks:
#     Node 0, Type 0, BuildingBlock: NAHDIM_clean_sbu_0, # of connection points: 4
#     Node 1, Type 0, BuildingBlock: NAHDIM_clean_sbu_0, # of connection points: 4
#     Node 2, Type 0, BuildingBlock: NAHDIM_clean_sbu_0, # of connection points: 4
#     Node 3, Type 0, BuildingBlock: NAHDIM_clean_sbu_0, # of connection points: 4
#     Node 4, Type 0, BuildingBlock: NAHDIM_clean_sbu_0, # of connection points: 4
#     Node 5, Type 0, BuildingBlock: NAHDIM_clean_sbu_0, # of connection points: 4
#     Node 6, Type 0, BuildingBlock: NAHDIM_clean_sbu_0, # of connection points: 4
#     Node 7, Type 0, BuildingBlock: NAHDIM_clean_sbu_0, # of connection points: 4
#     Node 8, Type 0, BuildingBlock: NAHDIM_clean_sbu_0, # of connection points: 4
#     Node 9, Type 0, BuildingBlock: NAHDIM_clean_sbu_0, # of connection points: 4
#     Node 10, Type 0, BuildingBlock: NAHDIM_clean_sbu_0, # of connection points: 4
#     Node 11, Type 0, BuildingBlock: NAHDIM_clean_sbu_0, # of connection points: 4
#     Node 12, Type 0, BuildingBlock: NAHDIM_clean_sbu_0, # of connection points: 4
#     Node 13, Type 0, BuildingBlock: NAHDIM_clean_sbu_0, # of connection points: 4
#     Node 14, Type 0, BuildingBlock: NAHDIM_clean_sbu_0, # of connection points: 4
#     Node 15, Type 0, BuildingBlock: NAHDIM_clean_sbu_0, # of connection points: 4
#     Node 16, Type 0, BuildingBlock: NAHDIM_clean_sbu_0, # of connection points: 4
#     Node 17, Type 0, BuildingBlock: NAHDIM_clean_sbu_0, # of connection points: 4
#     Node 18, Type 0, BuildingBlock: NAHDIM_clean_sbu_0, # of connection points: 4
#     Node 19, Type 0, BuildingBlock: NAHDIM_clean_sbu_0, # of connection points: 4
#     Node 20, Type 0, BuildingBlock: NAHDIM_clean_sbu_0, # of connection points: 4
#     Node 21, Type 0, BuildingBlock: NAHDIM_clean_sbu_0, # of connection points: 4
#     Node 22, Type 0, BuildingBlock: NAHDIM_clean_sbu_0, # of connection points: 4
#     Node 23, Type 0, BuildingBlock: NAHDIM_clean_sbu_0, # of connection points: 4
#     Node 24, Type 0, BuildingBlock: NAHDIM_clean_sbu_0, # of connection points: 4
#     Node 25, Type 0, BuildingBlock: NAHDIM_clean_sbu_0, # of connection points: 4
#     Node 26, Type 0, BuildingBlock: NAHDIM_clean_sbu_0, # of connection points: 4
#     Node 27, Type 0, BuildingBlock: NAHDIM_clean_sbu_0, # of connection points: 4
#     Node 28, Type 0, BuildingBlock: NAHDIM_clean_sbu_0, # of connection points: 4
#     Node 29, Type 0, BuildingBlock: NAHDIM_clean_sbu_0, # of connection points: 4
#     Node 30, Type 0, BuildingBlock: NAHDIM_clean_sbu_0, # of connection points: 4
#     Node 31, Type 0, BuildingBlock: NAHDIM_clean_sbu_0, # of connection points: 4
#     Node 32, Type 0, BuildingBlock: NAHDIM_clean_sbu_0, # of connection points: 4
#     Node 33, Type 0, BuildingBlock: NAHDIM_clean_sbu_0, # of connection points: 4
#     Node 34, Type 0, BuildingBlock: NAHDIM_clean_sbu_0, # of connection points: 4
#     Node 35, Type 0, BuildingBlock: NAHDIM_clean_sbu_0, # of connection points: 4
#     Node 36, Type 0, BuildingBlock: NAHDIM_clean_sbu_0, # of connection points: 4
#     Node 37, Type 0, BuildingBlock: NAHDIM_clean_sbu_0, # of connection points: 4
#     Node 38, Type 0, BuildingBlock: NAHDIM_clean_sbu_0, # of connection points: 4
#     Node 39, Type 0, BuildingBlock: NAHDIM_clean_sbu_0, # of connection points: 4
#     Node 40, Type 0, BuildingBlock: NAHDIM_clean_sbu_0, # of connection points: 4
#     Node 41, Type 0, BuildingBlock: NAHDIM_clean_sbu_0, # of connection points: 4
#     Node 42, Type 0, BuildingBlock: NAHDIM_clean_sbu_0, # of connection points: 4
#     Node 43, Type 0, BuildingBlock: NAHDIM_clean_sbu_0, # of connection points: 4
#     Node 44, Type 0, BuildingBlock: NAHDIM_clean_sbu_0, # of connection points: 4
#     Node 45, Type 0, BuildingBlock: NAHDIM_clean_sbu_0, # of connection points: 4
#     Node 46, Type 0, BuildingBlock: NAHDIM_clean_sbu_0, # of connection points: 4
#     Node 47, Type 0, BuildingBlock: NAHDIM_clean_sbu_0, # of connection points: 4
#     Edge 48, Type (0, 0), None
#     Edge 49, Type (0, 0), None
#     Edge 50, Type (0, 0), None
#     Edge 51, Type (0, 0), None
#     Edge 52, Type (0, 0), None
#     Edge 53, Type (0, 0), None
#     Edge 54, Type (0, 0), None
#     Edge 55, Type (0, 0), None
#     Edge 56, Type (0, 0), None
#     Edge 57, Type (0, 0), None
#     Edge 58, Type (0, 0), None
#     Edge 59, Type (0, 0), None
#     Edge 60, Type (0, 0), None
#     Edge 61, Type (0, 0), None
#     Edge 62, Type (0, 0), None
#     Edge 63, Type (0, 0), None
#     Edge 64, Type (0, 0), None
#     Edge 65, Type (0, 0), None
#     Edge 66, Type (0, 0), None
#     Edge 67, Type (0, 0), None
#     Edge 68, Type (0, 0), None
#     Edge 69, Type (0, 0), None
#     Edge 70, Type (0, 0), None
#     Edge 71, Type (0, 0), None
#     Edge 72, Type (0, 0), None
#     Edge 73, Type (0, 0), None
#     Edge 74, Type (0, 0), None
#     Edge 75, Type (0, 0), None
#     Edge 76, Type (0, 0), None
#     Edge 77, Type (0, 0), None
#     Edge 78, Type (0, 0), None
#     Edge 79, Type (0, 0), None
#     Edge 80, Type (0, 0), None
#     Edge 81, Type (0, 0), None
#     Edge 82, Type (0, 0), None
#     Edge 83, Type (0, 0), None
#     Edge 84, Type (0, 0), None
#     Edge 85, Type (0, 0), None
#     Edge 86, Type (0, 0), None
#     Edge 87, Type (0, 0), None
#     Edge 88, Type (0, 0), None
#     Edge 89, Type (0, 0), None
#     Edge 90, Type (0, 0), None
#     Edge 91, Type (0, 0), None
#     Edge 92, Type (0, 0), None
#     Edge 93, Type (0, 0), None
#     Edge 94, Type (0, 0), None
#     Edge 95, Type (0, 0), None
#     Edge 96, Type (0, 0), None
#     Edge 97, Type (0, 0), None
#     Edge 98, Type (0, 0), None
#     Edge 99, Type (0, 0), None
#     Edge 100, Type (0, 0), None
#     Edge 101, Type (0, 0), None
#     Edge 102, Type (0, 0), None
#     Edge 103, Type (0, 0), None
#     Edge 104, Type (0, 0), None
#     Edge 105, Type (0, 0), None
#     Edge 106, Type (0, 0), None
#     Edge 107, Type (0, 0), None
#     Edge 108, Type (0, 0), None
#     Edge 109, Type (0, 0), None
#     Edge 110, Type (0, 0), None
#     Edge 111, Type (0, 0), None
#     Edge 112, Type (0, 0), None
#     Edge 113, Type (0, 0), None
#     Edge 114, Type (0, 0), None
#     Edge 115, Type (0, 0), None
#     Edge 116, Type (0, 0), None
#     Edge 117, Type (0, 0), None
#     Edge 118, Type (0, 0), None
#     Edge 119, Type (0, 0), None
#     Edge 120, Type (0, 0), None
#     Edge 121, Type (0, 0), None
#     Edge 122, Type (0, 0), None
#     Edge 123, Type (0, 0), None
#     Edge 124, Type (0, 0), None
#     Edge 125, Type (0, 0), None
#     Edge 126, Type (0, 0), None
#     Edge 127, Type (0, 0), None
#     Edge 128, Type (0, 0), None
#     Edge 129, Type (0, 0), None
#     Edge 130, Type (0, 0), None
#     Edge 131, Type (0, 0), None
#     Edge 132, Type (0, 0), None
#     Edge 133, Type (0, 0), None
#     Edge 134, Type (0, 0), None
#     Edge 135, Type (0, 0), None
#     Edge 136, Type (0, 0), None
#     Edge 137, Type (0, 0), None
#     Edge 138, Type (0, 0), None
#     Edge 139, Type (0, 0), None
#     Edge 140, Type (0, 0), None
#     Edge 141, Type (0, 0), None
#     Edge 142, Type (0, 0), None
#     Edge 143, Type (0, 0), None
# Relax obj value: 0.408
# Max RMSD: 0.228
# Mean RMSD: 0.227
data_MOF--net-uli--node1-NAHDIM_clean_sbu_0--edge1-none
_symmetry_space_group_name_H-M    P1
_symmetry_Int_Tables_number       1
_symmetry_cell_setting            triclinic
loop_
_symmetry_equiv_pos_as_xyz
'x, y, z'
_cell_length_a     32.362904
_cell_length_b     32.362711
_cell_length_c     32.362872
_cell_angle_alpha  89.999261
_cell_angle_beta   89.999262
_cell_angle_gamma 89.999997
loop_
_atom_site_label
_atom_site_type_symbol
_atom_site_fract_x
_atom_site_fract_y
_atom_site_fract_z
_atom_type_partial_charge
C0 C -0.00528 0.23704 0.22555 0.0
O1 O 0.01642 0.26013 0.25082 0.0
O2 O 0.08764 0.29868 0.19124 0.0
Zn3 Zn 0.07102 0.23867 0.18361 0.0
O4 O 0.1015 0.20117 0.22192 0.0
C5 C 0.13445 0.23275 0.12847 0.0
O6 O 0.15029 0.2528 0.15997 0.0
O7 O 0.01051 0.22552 0.19148 0.0
C8 C 0.09771 0.16253 0.21558 0.0
O9 O 0.07135 0.14921 0.18776 0.0
C10 C 0.1016 0.31354 0.22473 0.0
O11 O 0.09773 0.29217 0.25901 0.0
O12 O 0.09628 0.22293 0.12905 0.0
C13 C 0.7102 -0.00528 0.2256 0.0
O14 O 0.68714 0.01643 0.25088 0.0
O15 O 0.64854 0.08762 0.19127 0.0
Zn16 Zn 0.70855 0.071 0.18364 0.0
O17 O 0.74605 0.10149 0.22195 0.0
C18 C 0.71447 0.13443 0.12848 0.0
O19 O 0.69442 0.15027 0.15998 0.0
O20 O 0.72169 0.0105 0.19151 0.0
C21 C 0.78469 0.0977 0.21561 0.0
O22 O 0.79802 0.07134 0.18779 0.0
C23 C 0.63368 0.10158 0.22475 0.0
O24 O 0.65503 0.09771 0.25903 0.0
O25 O 0.72429 0.09626 0.12907 0.0
C26 C 0.95247 0.7102 0.2256 0.0
O27 O 0.93074 0.68717 0.2509 0.0
O28 O 0.85957 0.64851 0.19125 0.0
Zn29 Zn 0.87619 0.70852 0.18362 0.0
O30 O 0.84571 0.74602 0.22193 0.0
C31 C 0.81277 0.71445 0.12846 0.0
O32 O 0.79693 0.6944 0.15996 0.0
O33 O 0.9367 0.72167 0.1915 0.0
C34 C 0.8495 0.78466 0.2156 0.0
O35 O 0.87586 0.79799 0.18778 0.0
C36 C 0.84561 0.63365 0.22473 0.0
O37 O 0.84947 0.65501 0.25901 0.0
O38 O 0.85094 0.72427 0.12906 0.0
C39 C 0.23695 0.95243 0.22564 0.0
O40 O 0.25991 0.93067 0.25096 0.0
O41 O 0.29869 0.85955 0.19125 0.0
Zn42 Zn 0.23867 0.87618 0.18362 0.0
O43 O 0.20117 0.8457 0.22193 0.0
C44 C 0.23274 0.81276 0.12847 0.0
O45 O 0.25279 0.79691 0.15997 0.0
O46 O 0.22554 0.93669 0.1915 0.0
C47 C 0.16253 0.84949 0.2156 0.0
O48 O 0.14921 0.87585 0.18778 0.0
C49 C 0.31355 0.8456 0.22474 0.0
O50 O 0.2922 0.84947 0.25902 0.0
O51 O 0.22293 0.85093 0.12906 0.0
C52 C -0.00522 0.71025 0.72156 0.0
O53 O 0.01655 0.68731 0.69622 0.0
O54 O 0.08765 0.64849 0.75595 0.0
Zn55 Zn 0.07102 0.7085 0.76358 0.0
O56 O 0.1015 0.746 0.72528 0.0
C57 C 0.13444 0.71442 0.81873 0.0
O58 O 0.15029 0.69438 0.78723 0.0
O59 O 0.01051 0.72164 0.7557 0.0
C60 C 0.09771 0.78464 0.73161 0.0
O61 O 0.07135 0.79797 0.75944 0.0
C62 C 0.10161 0.63363 0.72246 0.0
O63 O 0.09774 0.655 0.68818 0.0
O64 O 0.09627 0.72424 0.81815 0.0
C65 C 0.2369 -0.00522 0.72151 0.0
O66 O 0.25982 0.01656 0.69615 0.0
O67 O 0.29869 0.08763 0.75593 0.0
Zn68 Zn 0.23868 0.071 0.76356 0.0
O69 O 0.20118 0.10149 0.72525 0.0
C70 C 0.23276 0.13442 0.81872 0.0
O71 O 0.2528 0.15027 0.78722 0.0
O72 O 0.22555 0.01049 0.75567 0.0
C73 C 0.16253 0.0977 0.73159 0.0
O74 O 0.14921 0.07134 0.75941 0.0
C75 C 0.31355 0.10159 0.72244 0.0
O76 O 0.2922 0.09772 0.68816 0.0
O77 O 0.22293 0.09625 0.81812 0.0
C78 C 0.95247 0.237 0.72159 0.0
O79 O 0.93075 0.26003 0.6963 0.0
O80 O 0.85958 0.29869 0.75593 0.0
Zn81 Zn 0.8762 0.23868 0.76357 0.0
O82 O 0.84571 0.20118 0.72527 0.0
C83 C 0.81277 0.23276 0.81872 0.0
O84 O 0.79693 0.25281 0.78722 0.0
O85 O 0.9367 0.22553 0.75569 0.0
C86 C 0.8495 0.16253 0.73161 0.0
O87 O 0.87586 0.14921 0.75943 0.0
C88 C 0.84561 0.31354 0.72245 0.0
O89 O 0.84947 0.29217 0.68817 0.0
O90 O 0.85094 0.22294 0.81814 0.0
C91 C 0.71025 0.95244 0.72156 0.0
O92 O 0.68728 0.93068 0.69623 0.0
O93 O 0.64851 0.85956 0.75593 0.0
Zn94 Zn 0.70852 0.87618 0.76357 0.0
O95 O 0.74603 0.8457 0.72526 0.0
C96 C 0.71444 0.81276 0.81872 0.0
O97 O 0.6944 0.79691 0.78721 0.0
O98 O 0.72166 0.93669 0.75569 0.0
C99 C 0.78467 0.84949 0.73161 0.0
O100 O 0.79799 0.87585 0.75943 0.0
C101 C 0.63366 0.8456 0.72244 0.0
O102 O 0.65502 0.84947 0.68816 0.0
O103 O 0.72426 0.85093 0.81813 0.0
C104 C 0.22583 -0.00518 0.23674 0.0
O105 O 0.25126 0.01668 0.25948 0.0
O106 O 0.19129 0.08758 0.29869 0.0
Zn107 Zn 0.18367 0.07096 0.23868 0.0
O108 O 0.22198 0.10146 0.20119 0.0
C109 C 0.12851 0.13438 0.23275 0.0
O110 O 0.16 0.15023 0.25281 0.0
O111 O 0.19157 0.01046 0.22554 0.0
C112 C 0.21565 0.09766 0.16254 0.0
O113 O 0.18783 0.0713 0.14922 0.0
C114 C 0.22476 0.10153 0.31358 0.0
O115 O 0.25906 0.09767 0.29224 0.0
O116 O 0.12911 0.09621 0.22292 0.0
C117 C 0.95233 0.22591 0.23665 0.0
O118 O 0.93041 0.25141 0.25927 0.0
O119 O 0.85963 0.19129 0.29873 0.0
Zn120 Zn 0.87625 0.18367 0.23871 0.0
O121 O 0.84575 0.22198 0.20122 0.0
C122 C 0.81284 0.12851 0.23278 0.0
O123 O 0.79699 0.16 0.25284 0.0
O124 O 0.93675 0.19159 0.22558 0.0
C125 C 0.84955 0.21564 0.16258 0.0
O126 O 0.87593 0.18783 0.14926 0.0
C127 C 0.84567 0.22476 0.31361 0.0
O128 O 0.84954 0.25906 0.29227 0.0
O129 O 0.85101 0.1291 0.22296 0.0
C130 C 0.72132 0.95233 0.2367 0.0
O131 O 0.69584 0.93042 0.25935 0.0
O132 O 0.75591 0.85958 0.29873 0.0
Zn133 Zn 0.76353 0.87622 0.23871 0.0
O134 O 0.72523 0.84573 0.20121 0.0
C135 C 0.81869 0.81281 0.23277 0.0
O136 O 0.7872 0.79695 0.25283 0.0
O137 O 0.75562 0.93673 0.22559 0.0
C138 C 0.73157 0.84953 0.16257 0.0
O139 O 0.75938 0.87591 0.14925 0.0
C140 C 0.72243 0.84563 0.3136 0.0
O141 O 0.68814 0.84951 0.29227 0.0
O142 O 0.8181 0.85098 0.22296 0.0
C143 C -0.00515 0.72133 0.2367 0.0
O144 O 0.01675 0.69586 0.25938 0.0
O145 O 0.08758 0.75592 0.29873 0.0
Zn146 Zn 0.07096 0.76353 0.23871 0.0
O147 O 0.10146 0.72522 0.20122 0.0
C148 C 0.13438 0.81869 0.23277 0.0
O149 O 0.15023 0.7872 0.25283 0.0
O150 O 0.01046 0.75563 0.22558 0.0
C151 C 0.09765 0.73156 0.16258 0.0
O152 O 0.07128 0.75937 0.14926 0.0
C153 C 0.10154 0.72244 0.31361 0.0
O154 O 0.09767 0.68815 0.29227 0.0
O155 O 0.09621 0.8181 0.22295 0.0
C156 C 0.22579 0.95239 0.7104 0.0
O157 O 0.2512 0.93055 0.6876 0.0
O158 O 0.1913 0.85958 0.64851 0.0
Zn159 Zn 0.18367 0.87621 0.70853 0.0
O160 O 0.22198 0.84572 0.74603 0.0
C161 C 0.12852 0.81279 0.71445 0.0
O162 O 0.16001 0.79694 0.6944 0.0
O163 O 0.19157 0.93672 0.72165 0.0
C164 C 0.21564 0.84951 0.78467 0.0
O165 O 0.18782 0.87588 0.79799 0.0
C166 C 0.22478 0.84563 0.63364 0.0
O167 O 0.25907 0.84951 0.65498 0.0
O168 O 0.12911 0.85096 0.72427 0.0
C169 C -0.00514 0.22587 0.71049 0.0
O170 O 0.01676 0.25135 0.68782 0.0
O171 O 0.08761 0.1913 0.64848 0.0
Zn172 Zn 0.07098 0.18368 0.70849 0.0
O173 O 0.10147 0.22197 0.74599 0.0
C174 C 0.13439 0.12851 0.71442 0.0
O175 O 0.15024 0.16 0.69437 0.0
O176 O 0.01047 0.19158 0.72162 0.0
C177 C 0.09767 0.21563 0.78464 0.0
O178 O 0.0713 0.18781 0.79795 0.0
C179 C 0.10156 0.22478 0.6336 0.0
O180 O 0.09769 0.25907 0.65495 0.0
O181 O 0.09622 0.1291 0.72424 0.0
C182 C 0.72137 -0.00517 0.71046 0.0
O183 O 0.69593 0.01669 0.68771 0.0
O184 O 0.75589 0.08761 0.64851 0.0
Zn185 Zn 0.76352 0.07098 0.70853 0.0
O186 O 0.72522 0.10147 0.74603 0.0
C187 C 0.81869 0.13439 0.71445 0.0
O188 O 0.78719 0.15024 0.69439 0.0
O189 O 0.75562 0.01047 0.72166 0.0
C190 C 0.73156 0.09768 0.78467 0.0
O191 O 0.75938 0.07131 0.79799 0.0
C192 C 0.72241 0.10155 0.63363 0.0
O193 O 0.68812 0.09768 0.65498 0.0
O194 O 0.81809 0.09622 0.72427 0.0
C195 C 0.95239 0.72137 0.71045 0.0
O196 O 0.93054 0.69595 0.68768 0.0
O197 O 0.85963 0.7559 0.64851 0.0
Zn198 Zn 0.87624 0.76352 0.70853 0.0
O199 O 0.84574 0.72522 0.74602 0.0
C200 C 0.81282 0.81868 0.71445 0.0
O201 O 0.79698 0.78719 0.69439 0.0
O202 O 0.93675 0.75562 0.72167 0.0
C203 C 0.84953 0.73155 0.78466 0.0
O204 O 0.8759 0.75937 0.79799 0.0
C205 C 0.84567 0.72242 0.63363 0.0
O206 O 0.84953 0.68813 0.65497 0.0
O207 O 0.85099 0.81809 0.72428 0.0
C208 C 0.23675 0.22582 -0.00514 0.0
O209 O 0.25945 0.25128 0.01674 0.0
O210 O 0.29876 0.19125 0.0876 0.0
Zn211 Zn 0.23875 0.18363 0.07097 0.0
O212 O 0.20125 0.22193 0.10147 0.0
C213 C 0.23281 0.12847 0.13439 0.0
O214 O 0.25287 0.15997 0.15024 0.0
O215 O 0.2256 0.19154 0.01047 0.0
C216 C 0.16261 0.2156 0.09766 0.0
O217 O 0.14928 0.18779 0.07129 0.0
C218 C 0.31362 0.22473 0.10157 0.0
O219 O 0.29227 0.25902 0.09771 0.0
O220 O 0.223 0.12906 0.09622 0.0
C221 C 0.23673 0.72136 0.95236 0.0
O222 O 0.25945 0.69592 0.93049 0.0
O223 O 0.29874 0.75593 0.85963 0.0
Zn224 Zn 0.23872 0.76355 0.87624 0.0
O225 O 0.20124 0.72524 0.84574 0.0
C226 C 0.2328 0.81871 0.81282 0.0
O227 O 0.25286 0.78721 0.79698 0.0
O228 O 0.22557 0.75564 0.93674 0.0
C229 C 0.16259 0.73157 0.84954 0.0
O230 O 0.14926 0.75938 0.87592 0.0
C231 C 0.31361 0.72245 0.84566 0.0
O232 O 0.29226 0.68816 0.84952 0.0
O233 O 0.22297 0.81812 0.85099 0.0
C234 C 0.22564 0.23695 0.95248 0.0
O235 O 0.25095 0.25995 0.93073 0.0
O236 O 0.19125 0.29871 0.85963 0.0
Zn237 Zn 0.18362 0.23869 0.87623 0.0
O238 O 0.22193 0.20121 0.84574 0.0
C239 C 0.12848 0.23278 0.8128 0.0
O240 O 0.15998 0.25284 0.79696 0.0
O241 O 0.1915 0.22553 0.93673 0.0
C242 C 0.2156 0.16256 0.84953 0.0
O243 O 0.18778 0.14923 0.87589 0.0
C244 C 0.22473 0.31357 0.84566 0.0
O245 O 0.25901 0.2922 0.8495 0.0
O246 O 0.12906 0.22295 0.85096 0.0
C247 C 0.71047 0.22584 0.95236 0.0
O248 O 0.68775 0.25128 0.93049 0.0
O249 O 0.64847 0.19127 0.85963 0.0
Zn250 Zn 0.70849 0.18365 0.87624 0.0
O251 O 0.74598 0.22195 0.84574 0.0
C252 C 0.7144 0.12849 0.81282 0.0
O253 O 0.69435 0.15999 0.79698 0.0
O254 O 0.72163 0.19156 0.93674 0.0
C255 C 0.78462 0.21561 0.84954 0.0
O256 O 0.79795 0.18781 0.87591 0.0
C257 C 0.6336 0.22475 0.84566 0.0
O258 O 0.65495 0.25904 0.84951 0.0
O259 O 0.72423 0.12908 0.85099 0.0
C260 C 0.72135 0.71048 0.95234 0.0
O261 O 0.69589 0.68779 0.93045 0.0
O262 O 0.75593 0.64845 0.85961 0.0
Zn263 Zn 0.76355 0.70847 0.87623 0.0
O264 O 0.72526 0.74596 0.84572 0.0
C265 C 0.81872 0.71439 0.81281 0.0
O266 O 0.78722 0.69434 0.79696 0.0
O267 O 0.75564 0.72161 0.93673 0.0
C268 C 0.73159 0.7846 0.84953 0.0
O269 O 0.7594 0.79793 0.8759 0.0
C270 C 0.72245 0.63359 0.84564 0.0
O271 O 0.68817 0.65494 0.84949 0.0
O272 O 0.81813 0.72421 0.85098 0.0
C273 C 0.71022 0.72159 -0.00528 0.0
O274 O 0.68721 0.69629 0.01646 0.0
O275 O 0.64848 0.75597 0.08758 0.0
Zn276 Zn 0.70849 0.7636 0.07097 0.0
O277 O 0.74598 0.72528 0.10146 0.0
C278 C 0.71441 0.81873 0.13441 0.0
O279 O 0.69435 0.78723 0.15025 0.0
O280 O 0.72165 0.75572 0.01047 0.0
C281 C 0.78462 0.73161 0.09766 0.0
O282 O 0.79795 0.75943 0.0713 0.0
C283 C 0.63362 0.72248 0.10155 0.0
O284 O 0.65499 0.6882 0.09769 0.0
O285 O 0.72424 0.81815 0.09624 0.0
C286 C 0.22562 0.71023 -0.00526 0.0
O287 O 0.25094 0.68726 0.0165 0.0
O288 O 0.19123 0.64846 0.0876 0.0
Zn289 Zn 0.1836 0.70847 0.07099 0.0
O290 O 0.22191 0.74596 0.10147 0.0
C291 C 0.12846 0.7144 0.13442 0.0
O292 O 0.15996 0.69434 0.15026 0.0
O293 O 0.19148 0.72163 0.01048 0.0
C294 C 0.21558 0.78461 0.09767 0.0
O295 O 0.18776 0.79794 0.0713 0.0
C296 C 0.22471 0.63361 0.10157 0.0
O297 O 0.25899 0.65497 0.09772 0.0
O298 O 0.12904 0.72422 0.09625 0.0
C299 C 0.72158 0.23697 -0.00525 0.0
O300 O 0.69626 0.25994 0.0165 0.0
O301 O 0.75597 0.29873 0.0876 0.0
Zn302 Zn 0.7636 0.23872 0.07099 0.0
O303 O 0.72529 0.20122 0.10147 0.0
C304 C 0.81874 0.2328 0.13442 0.0
O305 O 0.78724 0.25285 0.15026 0.0
O306 O 0.75572 0.22556 0.01048 0.0
C307 C 0.73163 0.16258 0.09767 0.0
O308 O 0.75945 0.14925 0.07131 0.0
C309 C 0.72248 0.31358 0.10158 0.0
O310 O 0.68821 0.29221 0.09772 0.0
O311 O 0.81816 0.22297 0.09625 0.0
C312 C 0.49472 0.73705 0.72556 0.0
O313 O 0.51642 0.76013 0.75083 0.0
O314 O 0.58765 0.79868 0.69126 0.0
Zn315 Zn 0.57102 0.73867 0.68362 0.0
O316 O 0.6015 0.70117 0.72193 0.0
C317 C 0.63445 0.73276 0.62847 0.0
O318 O 0.6503 0.7528 0.65998 0.0
O319 O 0.51052 0.72553 0.69149 0.0
C320 C 0.59771 0.66253 0.71559 0.0
O321 O 0.57136 0.64921 0.68776 0.0
C322 C 0.60159 0.81354 0.72475 0.0
O323 O 0.59771 0.7922 0.75904 0.0
O324 O 0.59628 0.72294 0.62906 0.0
C325 C 0.21019 0.49472 0.72561 0.0
O326 O 0.18714 0.51643 0.75089 0.0
O327 O 0.14854 0.58764 0.69128 0.0
Zn328 Zn 0.20855 0.57101 0.68365 0.0
O329 O 0.24605 0.60149 0.72195 0.0
C330 C 0.21447 0.63443 0.62849 0.0
O331 O 0.19442 0.65027 0.65999 0.0
O332 O 0.22169 0.5105 0.69152 0.0
C333 C 0.28469 0.59771 0.71562 0.0
O334 O 0.29802 0.57135 0.68779 0.0
C335 C 0.13367 0.60157 0.72478 0.0
O336 O 0.15501 0.59769 0.75907 0.0
O337 O 0.22429 0.59626 0.62908 0.0
C338 C 0.45247 0.2102 0.72561 0.0
O339 O 0.43074 0.18716 0.7509 0.0
O340 O 0.35956 0.14851 0.69126 0.0
Zn341 Zn 0.37619 0.20852 0.68363 0.0
O342 O 0.3457 0.24602 0.72194 0.0
C343 C 0.31277 0.21444 0.62847 0.0
O344 O 0.29692 0.19439 0.65997 0.0
O345 O 0.4367 0.22166 0.69151 0.0
C346 C 0.34949 0.28466 0.71561 0.0
O347 O 0.37585 0.29799 0.68779 0.0
C348 C 0.34562 0.13365 0.72476 0.0
O349 O 0.3495 0.15498 0.75905 0.0
O350 O 0.35094 0.22427 0.62907 0.0
C351 C 0.73695 0.45243 0.72564 0.0
O352 O 0.75992 0.43067 0.75097 0.0
O353 O 0.79869 0.35954 0.69127 0.0
Zn354 Zn 0.73868 0.37618 0.68363 0.0
O355 O 0.70117 0.34569 0.72194 0.0
C356 C 0.73275 0.31276 0.62848 0.0
O357 O 0.7528 0.29691 0.65998 0.0
O358 O 0.72554 0.43668 0.69151 0.0
C359 C 0.66253 0.34949 0.71561 0.0
O360 O 0.64921 0.37585 0.68779 0.0
C361 C 0.81356 0.34561 0.72476 0.0
O362 O 0.79223 0.3495 0.75906 0.0
O363 O 0.72293 0.35093 0.62907 0.0
C364 C 0.49478 0.21025 0.22155 0.0
O365 O 0.51655 0.1873 0.19621 0.0
O366 O 0.58766 0.14849 0.25593 0.0
Zn367 Zn 0.57102 0.20849 0.26357 0.0
O368 O 0.6015 0.246 0.22527 0.0
C369 C 0.63444 0.21442 0.31873 0.0
O370 O 0.65029 0.19438 0.28722 0.0
O371 O 0.51051 0.22163 0.2557 0.0
C372 C 0.59771 0.28464 0.23161 0.0
O373 O 0.57135 0.29797 0.25943 0.0
C374 C 0.6016 0.13363 0.22244 0.0
O375 O 0.59772 0.15497 0.18815 0.0
O376 O 0.59627 0.22423 0.31814 0.0
C377 C 0.73691 0.49478 0.2215 0.0
O378 O 0.75982 0.51656 0.19614 0.0
O379 O 0.79869 0.58764 0.25591 0.0
Zn380 Zn 0.73868 0.571 0.26355 0.0
O381 O 0.70118 0.60149 0.22524 0.0
C382 C 0.73276 0.63442 0.31871 0.0
O383 O 0.75281 0.65027 0.28721 0.0
O384 O 0.72555 0.5105 0.25566 0.0
C385 C 0.66253 0.5977 0.23158 0.0
O386 O 0.64921 0.57134 0.2594 0.0
C387 C 0.81356 0.60158 0.22242 0.0
O388 O 0.79223 0.5977 0.18812 0.0
O389 O 0.72294 0.59625 0.31812 0.0
C390 C 0.45247 0.73701 0.22158 0.0
O391 O 0.43075 0.76004 0.19629 0.0
O392 O 0.35957 0.79869 0.25592 0.0
Zn393 Zn 0.37619 0.73868 0.26356 0.0
O394 O 0.34571 0.70118 0.22526 0.0
C395 C 0.31277 0.73277 0.31872 0.0
O396 O 0.29692 0.75281 0.28721 0.0
O397 O 0.4367 0.72554 0.25569 0.0
C398 C 0.34949 0.66253 0.2316 0.0
O399 O 0.37585 0.64921 0.25942 0.0
C400 C 0.34562 0.81355 0.22242 0.0
O401 O 0.3495 0.7922 0.18813 0.0
O402 O 0.35094 0.72295 0.31813 0.0
C403 C 0.21024 0.45244 0.22155 0.0
O404 O 0.18728 0.43068 0.19622 0.0
O405 O 0.14851 0.35955 0.25591 0.0
Zn406 Zn 0.20852 0.37618 0.26356 0.0
O407 O 0.24603 0.3457 0.22526 0.0
C408 C 0.21444 0.31276 0.31871 0.0
O409 O 0.1944 0.29691 0.2872 0.0
O410 O 0.22165 0.43669 0.25568 0.0
C411 C 0.28467 0.34949 0.2316 0.0
O412 O 0.29799 0.37584 0.25943 0.0
C413 C 0.13365 0.34561 0.22242 0.0
O414 O 0.15499 0.34949 0.18813 0.0
O415 O 0.22425 0.35093 0.31813 0.0
C416 C 0.72584 0.49482 0.73674 0.0
O417 O 0.75128 0.51668 0.75948 0.0
O418 O 0.6913 0.58759 0.7987 0.0
Zn419 Zn 0.68368 0.57097 0.73868 0.0
O420 O 0.72199 0.60146 0.70119 0.0
C421 C 0.62852 0.63438 0.73275 0.0
O422 O 0.66001 0.65023 0.75281 0.0
O423 O 0.69158 0.51046 0.72555 0.0
C424 C 0.71566 0.59767 0.66254 0.0
O425 O 0.68784 0.5713 0.64922 0.0
C426 C 0.72479 0.60152 0.81358 0.0
O427 O 0.75909 0.59764 0.79227 0.0
O428 O 0.62912 0.59621 0.72293 0.0
C429 C 0.45233 0.72592 0.73665 0.0
O430 O 0.43041 0.75142 0.75926 0.0
O431 O 0.35961 0.6913 0.79873 0.0
Zn432 Zn 0.37624 0.68368 0.73872 0.0
O433 O 0.34575 0.72198 0.70122 0.0
C434 C 0.31284 0.62851 0.73278 0.0
O435 O 0.29698 0.66001 0.75284 0.0
O436 O 0.43675 0.6916 0.72559 0.0
C437 C 0.34954 0.71565 0.66258 0.0
O438 O 0.37592 0.68784 0.64926 0.0
C439 C 0.34568 0.72479 0.81362 0.0
O440 O 0.34956 0.7591 0.7923 0.0
O441 O 0.35101 0.62911 0.72296 0.0
C442 C 0.22131 0.45233 0.7367 0.0
O443 O 0.19582 0.43042 0.75935 0.0
O444 O 0.25589 0.35957 0.79873 0.0
Zn445 Zn 0.26352 0.37622 0.73872 0.0
O446 O 0.22522 0.34573 0.70121 0.0
C447 C 0.31868 0.31281 0.73278 0.0
O448 O 0.28719 0.29695 0.75283 0.0
O449 O 0.25562 0.43673 0.7256 0.0
C450 C 0.23156 0.34953 0.66257 0.0
O451 O 0.25938 0.3759 0.64925 0.0
C452 C 0.2224 0.34565 0.81361 0.0
O453 O 0.1881 0.34954 0.7923 0.0
O454 O 0.31809 0.35098 0.72296 0.0
C455 C 0.49485 0.22132 0.73671 0.0
O456 O 0.51675 0.19584 0.75937 0.0
O457 O 0.5876 0.2559 0.79873 0.0
Zn458 Zn 0.57097 0.26352 0.73872 0.0
O459 O 0.60146 0.22522 0.70122 0.0
C460 C 0.63438 0.31868 0.73278 0.0
O461 O 0.65023 0.28719 0.75284 0.0
O462 O 0.51046 0.25562 0.72559 0.0
C463 C 0.59766 0.23155 0.66258 0.0
O464 O 0.57129 0.25936 0.64926 0.0
C465 C 0.60153 0.22242 0.81362 0.0
O466 O 0.59765 0.18811 0.7923 0.0
O467 O 0.59621 0.31809 0.72296 0.0
C468 C 0.7258 0.45239 0.2104 0.0
O469 O 0.75121 0.43055 0.1876 0.0
O470 O 0.69131 0.35957 0.14851 0.0
Zn471 Zn 0.68368 0.37621 0.20852 0.0
O472 O 0.72198 0.34572 0.24603 0.0
C473 C 0.62852 0.31279 0.21445 0.0
O474 O 0.66002 0.29694 0.19439 0.0
O475 O 0.69158 0.43672 0.22165 0.0
C476 C 0.71564 0.34951 0.28467 0.0
O477 O 0.68782 0.37587 0.29799 0.0
C478 C 0.72481 0.34565 0.13363 0.0
O479 O 0.75911 0.34953 0.15495 0.0
O480 O 0.62911 0.35096 0.22427 0.0
C481 C 0.49486 0.72588 0.21049 0.0
O482 O 0.51676 0.75136 0.18782 0.0
O483 O 0.58762 0.69132 0.14848 0.0
Zn484 Zn 0.57098 0.68368 0.20849 0.0
O485 O 0.60147 0.72198 0.24599 0.0
C486 C 0.63439 0.62852 0.21442 0.0
O487 O 0.65025 0.66001 0.19437 0.0
O488 O 0.51047 0.69159 0.22161 0.0
C489 C 0.59768 0.71564 0.28464 0.0
O490 O 0.5713 0.68782 0.29795 0.0
C491 C 0.60155 0.72481 0.1336 0.0
O492 O 0.59766 0.75911 0.15492 0.0
O493 O 0.59622 0.62911 0.22424 0.0
C494 C 0.22136 0.49483 0.21045 0.0
O495 O 0.19592 0.51669 0.18771 0.0
O496 O 0.25588 0.58762 0.14851 0.0
Zn497 Zn 0.26351 0.57098 0.20852 0.0
O498 O 0.22521 0.60148 0.24603 0.0
C499 C 0.31868 0.63439 0.21444 0.0
O500 O 0.28719 0.65024 0.19439 0.0
O501 O 0.25561 0.51047 0.22165 0.0
C502 C 0.23155 0.59769 0.28467 0.0
O503 O 0.25937 0.57132 0.29799 0.0
C504 C 0.22239 0.60154 0.13363 0.0
O505 O 0.18808 0.59765 0.15495 0.0
O506 O 0.31808 0.59622 0.22427 0.0
C507 C 0.45239 0.22136 0.21045 0.0
O508 O 0.43054 0.19594 0.18769 0.0
O509 O 0.35962 0.25589 0.14851 0.0
Zn510 Zn 0.37624 0.26351 0.20852 0.0
O511 O 0.34574 0.22521 0.24602 0.0
C512 C 0.31282 0.31868 0.21444 0.0
O513 O 0.29697 0.28718 0.19438 0.0
O514 O 0.43674 0.25561 0.22166 0.0
C515 C 0.34953 0.23154 0.28466 0.0
O516 O 0.37589 0.25936 0.29799 0.0
C517 C 0.34569 0.2224 0.13362 0.0
O518 O 0.34956 0.18809 0.15494 0.0
O519 O 0.35099 0.31808 0.22427 0.0
C520 C 0.73675 0.72583 0.49486 0.0
O521 O 0.75945 0.75129 0.51674 0.0
O522 O 0.79876 0.69127 0.58761 0.0
Zn523 Zn 0.73875 0.68364 0.57098 0.0
O524 O 0.70125 0.72194 0.60147 0.0
C525 C 0.73282 0.62848 0.6344 0.0
O526 O 0.75287 0.65997 0.65025 0.0
O527 O 0.72561 0.69155 0.51047 0.0
C528 C 0.66261 0.71561 0.59766 0.0
O529 O 0.64929 0.6878 0.57129 0.0
C530 C 0.81363 0.72476 0.60155 0.0
O531 O 0.7923 0.75905 0.59768 0.0
O532 O 0.723 0.62907 0.59622 0.0
C533 C 0.73673 0.22135 0.45236 0.0
O534 O 0.75945 0.1959 0.43048 0.0
O535 O 0.79874 0.25591 0.35962 0.0
Zn536 Zn 0.73873 0.26354 0.37624 0.0
O537 O 0.70124 0.22524 0.34574 0.0
C538 C 0.7328 0.3187 0.31282 0.0
O539 O 0.75286 0.28721 0.29697 0.0
O540 O 0.72558 0.25563 0.43674 0.0
C541 C 0.66259 0.23157 0.34954 0.0
O542 O 0.64926 0.25938 0.37591 0.0
C543 C 0.81362 0.22243 0.34568 0.0
O544 O 0.79229 0.18813 0.34954 0.0
O545 O 0.72298 0.31811 0.35099 0.0
C546 C 0.72564 0.73696 0.45247 0.0
O547 O 0.75096 0.75995 0.43073 0.0
O548 O 0.69126 0.79871 0.35962 0.0
Zn549 Zn 0.68363 0.7387 0.37623 0.0
O550 O 0.72194 0.70121 0.34573 0.0
C551 C 0.62848 0.73279 0.31279 0.0
O552 O 0.65998 0.75284 0.29695 0.0
O553 O 0.69151 0.72554 0.43673 0.0
C554 C 0.7156 0.66256 0.34953 0.0
O555 O 0.68778 0.64923 0.37589 0.0
C556 C 0.72476 0.81357 0.34567 0.0
O557 O 0.75905 0.79223 0.34953 0.0
O558 O 0.62907 0.72296 0.35096 0.0
C559 C 0.21047 0.72585 0.45236 0.0
O560 O 0.18775 0.75129 0.43049 0.0
O561 O 0.14847 0.69129 0.35962 0.0
Zn562 Zn 0.20848 0.68366 0.37624 0.0
O563 O 0.24598 0.72196 0.34573 0.0
C564 C 0.2144 0.6285 0.31282 0.0
O565 O 0.19434 0.65999 0.29697 0.0
O566 O 0.22163 0.69157 0.43674 0.0
C567 C 0.28462 0.71562 0.34953 0.0
O568 O 0.29795 0.68781 0.37591 0.0
C569 C 0.13359 0.72478 0.34568 0.0
O570 O 0.15492 0.75908 0.34954 0.0
O571 O 0.22422 0.62909 0.35099 0.0
C572 C 0.22134 0.21048 0.45233 0.0
O573 O 0.19587 0.1878 0.43044 0.0
O574 O 0.25592 0.14845 0.3596 0.0
Zn575 Zn 0.26354 0.20846 0.37622 0.0
O576 O 0.22525 0.24596 0.34572 0.0
C577 C 0.31871 0.21439 0.31281 0.0
O578 O 0.28722 0.19433 0.29696 0.0
O579 O 0.25563 0.22161 0.43673 0.0
C580 C 0.23158 0.2846 0.34952 0.0
O581 O 0.25939 0.29793 0.3759 0.0
C582 C 0.22243 0.13358 0.34565 0.0
O583 O 0.18813 0.15491 0.34952 0.0
O584 O 0.31812 0.22421 0.35098 0.0
C585 C 0.21021 0.22159 0.49472 0.0
O586 O 0.18721 0.19628 0.51646 0.0
O587 O 0.14848 0.25595 0.58759 0.0
Zn588 Zn 0.20849 0.26359 0.57098 0.0
O589 O 0.24598 0.22527 0.60146 0.0
C590 C 0.2144 0.31873 0.63441 0.0
O591 O 0.19435 0.28722 0.65025 0.0
O592 O 0.22164 0.25571 0.51047 0.0
C593 C 0.28462 0.23161 0.59766 0.0
O594 O 0.29795 0.25943 0.5713 0.0
C595 C 0.13361 0.22246 0.60153 0.0
O596 O 0.15496 0.18817 0.59767 0.0
O597 O 0.22423 0.31815 0.59624 0.0
C598 C 0.72563 0.21022 0.49475 0.0
O599 O 0.75095 0.18725 0.5165 0.0
O600 O 0.69124 0.14846 0.58761 0.0
Zn601 Zn 0.68361 0.20847 0.57099 0.0
O602 O 0.72192 0.24596 0.60147 0.0
C603 C 0.62846 0.21439 0.63442 0.0
O604 O 0.65996 0.19434 0.65027 0.0
O605 O 0.69149 0.22162 0.51048 0.0
C606 C 0.71559 0.28461 0.59767 0.0
O607 O 0.68777 0.29794 0.57131 0.0
C608 C 0.72473 0.1336 0.60156 0.0
O609 O 0.75903 0.15494 0.59769 0.0
O610 O 0.62905 0.22422 0.59625 0.0
C611 C 0.22157 0.73697 0.49475 0.0
O612 O 0.19625 0.75994 0.5165 0.0
O613 O 0.25595 0.79873 0.58761 0.0
Zn614 Zn 0.26359 0.73872 0.57099 0.0
O615 O 0.22529 0.70122 0.60148 0.0
C616 C 0.31874 0.7328 0.63442 0.0
O617 O 0.28723 0.75285 0.65027 0.0
O618 O 0.25571 0.72557 0.51049 0.0
C619 C 0.23162 0.66258 0.59768 0.0
O620 O 0.25944 0.64925 0.57131 0.0
C621 C 0.22246 0.81359 0.60156 0.0
O622 O 0.18817 0.79224 0.59769 0.0
O623 O 0.31816 0.72298 0.59625 0.0
loop_
_geom_bond_atom_site_label_1
_geom_bond_atom_site_label_2
_geom_bond_distance
_geom_bond_site_symmetry_2
_ccdc_geom_bond_type
C0 O1 1.160 . S
C0 O7 1.185 . S
O1 C0 1.160 . S
O2 Zn3 1.899 . S
O2 C10 1.284 . S
Zn3 O2 1.899 . S
Zn3 O4 2.032 . S
Zn3 O7 2.086 . S
Zn3 O12 1.977 . S
O4 Zn3 2.032 . S
O4 C8 1.278 . S
C5 O6 1.203 . S
C5 O12 1.267 . S
O6 C5 1.203 . S
O7 C0 1.185 . S
O7 Zn3 2.086 . S
C8 O4 1.278 . S
C8 O9 1.211 . S
O9 C8 1.211 . S
C10 O2 1.284 . S
C10 O11 1.273 . S
O11 C10 1.273 . S
O12 Zn3 1.977 . S
O12 C5 1.267 . S
C13 O14 1.160 . S
C13 O20 1.185 . S
O14 C13 1.160 . S
O15 Zn16 1.899 . S
O15 C23 1.284 . S
Zn16 O15 1.899 . S
Zn16 O17 2.032 . S
Zn16 O20 2.086 . S
Zn16 O25 1.977 . S
O17 Zn16 2.032 . S
O17 C21 1.278 . S
C18 O19 1.203 . S
C18 O25 1.267 . S
O19 C18 1.203 . S
O20 C13 1.185 . S
O20 Zn16 2.086 . S
C21 O17 1.278 . S
C21 O22 1.211 . S
O22 C21 1.211 . S
C23 O15 1.284 . S
C23 O24 1.273 . S
O24 C23 1.273 . S
O25 Zn16 1.977 . S
O25 C18 1.267 . S
C26 O27 1.160 . S
C26 O33 1.185 . S
O27 C26 1.160 . S
O28 Zn29 1.899 . S
O28 C36 1.284 . S
Zn29 O28 1.899 . S
Zn29 O30 2.032 . S
Zn29 O33 2.086 . S
Zn29 O38 1.977 . S
O30 Zn29 2.032 . S
O30 C34 1.278 . S
C31 O32 1.203 . S
C31 O38 1.267 . S
O32 C31 1.203 . S
O33 C26 1.185 . S
O33 Zn29 2.086 . S
C34 O30 1.278 . S
C34 O35 1.211 . S
O35 C34 1.211 . S
C36 O28 1.284 . S
C36 O37 1.273 . S
O37 C36 1.273 . S
O38 Zn29 1.977 . S
O38 C31 1.267 . S
C39 O40 1.160 . S
C39 O46 1.185 . S
O40 C39 1.160 . S
O41 Zn42 1.899 . S
O41 C49 1.284 . S
Zn42 O41 1.899 . S
Zn42 O43 2.032 . S
Zn42 O46 2.086 . S
Zn42 O51 1.977 . S
O43 Zn42 2.032 . S
O43 C47 1.278 . S
C44 O45 1.203 . S
C44 O51 1.267 . S
O45 C44 1.203 . S
O46 C39 1.185 . S
O46 Zn42 2.086 . S
C47 O43 1.278 . S
C47 O48 1.211 . S
O48 C47 1.211 . S
C49 O41 1.284 . S
C49 O50 1.273 . S
O50 C49 1.273 . S
O51 Zn42 1.977 . S
O51 C44 1.267 . S
C52 O53 1.160 . S
C52 O59 1.185 . S
O53 C52 1.160 . S
O54 Zn55 1.899 . S
O54 C62 1.284 . S
Zn55 O54 1.899 . S
Zn55 O56 2.032 . S
Zn55 O59 2.086 . S
Zn55 O64 1.977 . S
O56 Zn55 2.032 . S
O56 C60 1.278 . S
C57 O58 1.203 . S
C57 O64 1.267 . S
O58 C57 1.203 . S
O59 C52 1.185 . S
O59 Zn55 2.086 . S
C60 O56 1.278 . S
C60 O61 1.211 . S
O61 C60 1.211 . S
C62 O54 1.284 . S
C62 O63 1.273 . S
O63 C62 1.273 . S
O64 Zn55 1.977 . S
O64 C57 1.267 . S
C65 O66 1.160 . S
C65 O72 1.185 . S
O66 C65 1.160 . S
O67 Zn68 1.899 . S
O67 C75 1.284 . S
Zn68 O67 1.899 . S
Zn68 O69 2.032 . S
Zn68 O72 2.086 . S
Zn68 O77 1.977 . S
O69 Zn68 2.032 . S
O69 C73 1.278 . S
C70 O71 1.203 . S
C70 O77 1.267 . S
O71 C70 1.203 . S
O72 C65 1.185 . S
O72 Zn68 2.086 . S
C73 O69 1.278 . S
C73 O74 1.211 . S
O74 C73 1.211 . S
C75 O67 1.284 . S
C75 O76 1.273 . S
O76 C75 1.273 . S
O77 Zn68 1.977 . S
O77 C70 1.267 . S
C78 O79 1.160 . S
C78 O85 1.185 . S
O79 C78 1.160 . S
O80 Zn81 1.899 . S
O80 C88 1.284 . S
Zn81 O80 1.899 . S
Zn81 O82 2.032 . S
Zn81 O85 2.086 . S
Zn81 O90 1.977 . S
O82 Zn81 2.032 . S
O82 C86 1.278 . S
C83 O84 1.203 . S
C83 O90 1.267 . S
O84 C83 1.203 . S
O85 C78 1.185 . S
O85 Zn81 2.086 . S
C86 O82 1.278 . S
C86 O87 1.211 . S
O87 C86 1.211 . S
C88 O80 1.284 . S
C88 O89 1.273 . S
O89 C88 1.273 . S
O90 Zn81 1.977 . S
O90 C83 1.267 . S
C91 O92 1.160 . S
C91 O98 1.185 . S
O92 C91 1.160 . S
O93 Zn94 1.899 . S
O93 C101 1.284 . S
Zn94 O93 1.899 . S
Zn94 O95 2.032 . S
Zn94 O98 2.086 . S
Zn94 O103 1.977 . S
O95 Zn94 2.032 . S
O95 C99 1.278 . S
C96 O97 1.203 . S
C96 O103 1.267 . S
O97 C96 1.203 . S
O98 C91 1.185 . S
O98 Zn94 2.086 . S
C99 O95 1.278 . S
C99 O100 1.211 . S
O100 C99 1.211 . S
C101 O93 1.284 . S
C101 O102 1.273 . S
O102 C101 1.273 . S
O103 Zn94 1.977 . S
O103 C96 1.267 . S
C104 O105 1.160 . S
C104 O111 1.185 . S
O105 C104 1.160 . S
O106 Zn107 1.899 . S
O106 C114 1.284 . S
Zn107 O106 1.899 . S
Zn107 O108 2.032 . S
Zn107 O111 2.086 . S
Zn107 O116 1.977 . S
O108 Zn107 2.032 . S
O108 C112 1.278 . S
C109 O110 1.203 . S
C109 O116 1.267 . S
O110 C109 1.203 . S
O111 C104 1.185 . S
O111 Zn107 2.086 . S
C112 O108 1.278 . S
C112 O113 1.211 . S
O113 C112 1.211 . S
C114 O106 1.284 . S
C114 O115 1.273 . S
O115 C114 1.273 . S
O116 Zn107 1.977 . S
O116 C109 1.267 . S
C117 O118 1.160 . S
C117 O124 1.185 . S
O118 C117 1.160 . S
O119 Zn120 1.899 . S
O119 C127 1.284 . S
Zn120 O119 1.899 . S
Zn120 O121 2.032 . S
Zn120 O124 2.086 . S
Zn120 O129 1.977 . S
O121 Zn120 2.032 . S
O121 C125 1.278 . S
C122 O123 1.203 . S
C122 O129 1.267 . S
O123 C122 1.203 . S
O124 C117 1.185 . S
O124 Zn120 2.086 . S
C125 O121 1.278 . S
C125 O126 1.211 . S
O126 C125 1.211 . S
C127 O119 1.284 . S
C127 O128 1.273 . S
O128 C127 1.273 . S
O129 Zn120 1.977 . S
O129 C122 1.267 . S
C130 O131 1.160 . S
C130 O137 1.185 . S
O131 C130 1.160 . S
O132 Zn133 1.899 . S
O132 C140 1.284 . S
Zn133 O132 1.899 . S
Zn133 O134 2.032 . S
Zn133 O137 2.086 . S
Zn133 O142 1.977 . S
O134 Zn133 2.032 . S
O134 C138 1.278 . S
C135 O136 1.203 . S
C135 O142 1.267 . S
O136 C135 1.203 . S
O137 C130 1.185 . S
O137 Zn133 2.086 . S
C138 O134 1.278 . S
C138 O139 1.211 . S
O139 C138 1.211 . S
C140 O132 1.284 . S
C140 O141 1.273 . S
O141 C140 1.273 . S
O142 Zn133 1.977 . S
O142 C135 1.267 . S
C143 O144 1.160 . S
C143 O150 1.185 . S
O144 C143 1.160 . S
O145 Zn146 1.899 . S
O145 C153 1.284 . S
Zn146 O145 1.899 . S
Zn146 O147 2.032 . S
Zn146 O150 2.086 . S
Zn146 O155 1.977 . S
O147 Zn146 2.032 . S
O147 C151 1.278 . S
C148 O149 1.203 . S
C148 O155 1.267 . S
O149 C148 1.203 . S
O150 C143 1.185 . S
O150 Zn146 2.086 . S
C151 O147 1.278 . S
C151 O152 1.211 . S
O152 C151 1.211 . S
C153 O145 1.284 . S
C153 O154 1.273 . S
O154 C153 1.273 . S
O155 Zn146 1.977 . S
O155 C148 1.267 . S
C156 O157 1.160 . S
C156 O163 1.185 . S
O157 C156 1.160 . S
O158 Zn159 1.899 . S
O158 C166 1.284 . S
Zn159 O158 1.899 . S
Zn159 O160 2.032 . S
Zn159 O163 2.086 . S
Zn159 O168 1.977 . S
O160 Zn159 2.032 . S
O160 C164 1.278 . S
C161 O162 1.203 . S
C161 O168 1.267 . S
O162 C161 1.203 . S
O163 C156 1.185 . S
O163 Zn159 2.086 . S
C164 O160 1.278 . S
C164 O165 1.211 . S
O165 C164 1.211 . S
C166 O158 1.284 . S
C166 O167 1.273 . S
O167 C166 1.273 . S
O168 Zn159 1.977 . S
O168 C161 1.267 . S
C169 O170 1.160 . S
C169 O176 1.185 . S
O170 C169 1.160 . S
O171 Zn172 1.899 . S
O171 C179 1.284 . S
Zn172 O171 1.899 . S
Zn172 O173 2.032 . S
Zn172 O176 2.086 . S
Zn172 O181 1.977 . S
O173 Zn172 2.032 . S
O173 C177 1.278 . S
C174 O175 1.203 . S
C174 O181 1.267 . S
O175 C174 1.203 . S
O176 C169 1.185 . S
O176 Zn172 2.086 . S
C177 O173 1.278 . S
C177 O178 1.211 . S
O178 C177 1.211 . S
C179 O171 1.284 . S
C179 O180 1.273 . S
O180 C179 1.273 . S
O181 Zn172 1.977 . S
O181 C174 1.267 . S
C182 O183 1.160 . S
C182 O189 1.185 . S
O183 C182 1.160 . S
O184 Zn185 1.899 . S
O184 C192 1.284 . S
Zn185 O184 1.899 . S
Zn185 O186 2.032 . S
Zn185 O189 2.086 . S
Zn185 O194 1.977 . S
O186 Zn185 2.032 . S
O186 C190 1.278 . S
C187 O188 1.203 . S
C187 O194 1.267 . S
O188 C187 1.203 . S
O189 C182 1.185 . S
O189 Zn185 2.086 . S
C190 O186 1.278 . S
C190 O191 1.211 . S
O191 C190 1.211 . S
C192 O184 1.284 . S
C192 O193 1.273 . S
O193 C192 1.273 . S
O194 Zn185 1.977 . S
O194 C187 1.267 . S
C195 O196 1.160 . S
C195 O202 1.185 . S
O196 C195 1.160 . S
O197 Zn198 1.899 . S
O197 C205 1.284 . S
Zn198 O197 1.899 . S
Zn198 O199 2.032 . S
Zn198 O202 2.086 . S
Zn198 O207 1.977 . S
O199 Zn198 2.032 . S
O199 C203 1.278 . S
C200 O201 1.203 . S
C200 O207 1.267 . S
O201 C200 1.203 . S
O202 C195 1.185 . S
O202 Zn198 2.086 . S
C203 O199 1.278 . S
C203 O204 1.211 . S
O204 C203 1.211 . S
C205 O197 1.284 . S
C205 O206 1.273 . S
O206 C205 1.273 . S
O207 Zn198 1.977 . S
O207 C200 1.267 . S
C208 O209 1.160 . S
C208 O215 1.185 . S
O209 C208 1.160 . S
O210 Zn211 1.899 . S
O210 C218 1.284 . S
Zn211 O210 1.899 . S
Zn211 O212 2.032 . S
Zn211 O215 2.086 . S
Zn211 O220 1.977 . S
O212 Zn211 2.032 . S
O212 C216 1.278 . S
C213 O214 1.203 . S
C213 O220 1.267 . S
O214 C213 1.203 . S
O215 C208 1.185 . S
O215 Zn211 2.086 . S
C216 O212 1.278 . S
C216 O217 1.211 . S
O217 C216 1.211 . S
C218 O210 1.284 . S
C218 O219 1.273 . S
O219 C218 1.273 . S
O220 Zn211 1.977 . S
O220 C213 1.267 . S
C221 O222 1.160 . S
C221 O228 1.185 . S
O222 C221 1.160 . S
O223 Zn224 1.899 . S
O223 C231 1.284 . S
Zn224 O223 1.899 . S
Zn224 O225 2.032 . S
Zn224 O228 2.086 . S
Zn224 O233 1.977 . S
O225 Zn224 2.032 . S
O225 C229 1.278 . S
C226 O227 1.203 . S
C226 O233 1.267 . S
O227 C226 1.203 . S
O228 C221 1.185 . S
O228 Zn224 2.086 . S
C229 O225 1.278 . S
C229 O230 1.211 . S
O230 C229 1.211 . S
C231 O223 1.284 . S
C231 O232 1.273 . S
O232 C231 1.273 . S
O233 Zn224 1.977 . S
O233 C226 1.267 . S
C234 O235 1.160 . S
C234 O241 1.185 . S
O235 C234 1.160 . S
O236 Zn237 1.899 . S
O236 C244 1.284 . S
Zn237 O236 1.899 . S
Zn237 O238 2.032 . S
Zn237 O241 2.086 . S
Zn237 O246 1.977 . S
O238 Zn237 2.032 . S
O238 C242 1.278 . S
C239 O240 1.203 . S
C239 O246 1.267 . S
O240 C239 1.203 . S
O241 C234 1.185 . S
O241 Zn237 2.086 . S
C242 O238 1.278 . S
C242 O243 1.211 . S
O243 C242 1.211 . S
C244 O236 1.284 . S
C244 O245 1.273 . S
O245 C244 1.273 . S
O246 Zn237 1.977 . S
O246 C239 1.267 . S
C247 O248 1.160 . S
C247 O254 1.185 . S
O248 C247 1.160 . S
O249 Zn250 1.899 . S
O249 C257 1.284 . S
Zn250 O249 1.899 . S
Zn250 O251 2.032 . S
Zn250 O254 2.086 . S
Zn250 O259 1.977 . S
O251 Zn250 2.032 . S
O251 C255 1.278 . S
C252 O253 1.203 . S
C252 O259 1.267 . S
O253 C252 1.203 . S
O254 C247 1.185 . S
O254 Zn250 2.086 . S
C255 O251 1.278 . S
C255 O256 1.211 . S
O256 C255 1.211 . S
C257 O249 1.284 . S
C257 O258 1.273 . S
O258 C257 1.273 . S
O259 Zn250 1.977 . S
O259 C252 1.267 . S
C260 O261 1.160 . S
C260 O267 1.185 . S
O261 C260 1.160 . S
O262 Zn263 1.899 . S
O262 C270 1.284 . S
Zn263 O262 1.899 . S
Zn263 O264 2.032 . S
Zn263 O267 2.086 . S
Zn263 O272 1.977 . S
O264 Zn263 2.032 . S
O264 C268 1.278 . S
C265 O266 1.203 . S
C265 O272 1.267 . S
O266 C265 1.203 . S
O267 C260 1.185 . S
O267 Zn263 2.086 . S
C268 O264 1.278 . S
C268 O269 1.211 . S
O269 C268 1.211 . S
C270 O262 1.284 . S
C270 O271 1.273 . S
O271 C270 1.273 . S
O272 Zn263 1.977 . S
O272 C265 1.267 . S
C273 O274 1.160 . S
C273 O280 1.185 . S
O274 C273 1.160 . S
O275 Zn276 1.899 . S
O275 C283 1.284 . S
Zn276 O275 1.899 . S
Zn276 O277 2.032 . S
Zn276 O280 2.086 . S
Zn276 O285 1.977 . S
O277 Zn276 2.032 . S
O277 C281 1.278 . S
C278 O279 1.203 . S
C278 O285 1.267 . S
O279 C278 1.203 . S
O280 C273 1.185 . S
O280 Zn276 2.086 . S
C281 O277 1.278 . S
C281 O282 1.211 . S
O282 C281 1.211 . S
C283 O275 1.284 . S
C283 O284 1.273 . S
O284 C283 1.273 . S
O285 Zn276 1.977 . S
O285 C278 1.267 . S
C286 O287 1.160 . S
C286 O293 1.185 . S
O287 C286 1.160 . S
O288 Zn289 1.899 . S
O288 C296 1.284 . S
Zn289 O288 1.899 . S
Zn289 O290 2.032 . S
Zn289 O293 2.086 . S
Zn289 O298 1.977 . S
O290 Zn289 2.032 . S
O290 C294 1.278 . S
C291 O292 1.203 . S
C291 O298 1.267 . S
O292 C291 1.203 . S
O293 C286 1.185 . S
O293 Zn289 2.086 . S
C294 O290 1.278 . S
C294 O295 1.211 . S
O295 C294 1.211 . S
C296 O288 1.284 . S
C296 O297 1.273 . S
O297 C296 1.273 . S
O298 Zn289 1.977 . S
O298 C291 1.267 . S
C299 O300 1.160 . S
C299 O306 1.185 . S
O300 C299 1.160 . S
O301 Zn302 1.899 . S
O301 C309 1.284 . S
Zn302 O301 1.899 . S
Zn302 O303 2.032 . S
Zn302 O306 2.086 . S
Zn302 O311 1.977 . S
O303 Zn302 2.032 . S
O303 C307 1.278 . S
C304 O305 1.203 . S
C304 O311 1.267 . S
O305 C304 1.203 . S
O306 C299 1.185 . S
O306 Zn302 2.086 . S
C307 O303 1.278 . S
C307 O308 1.211 . S
O308 C307 1.211 . S
C309 O301 1.284 . S
C309 O310 1.273 . S
O310 C309 1.273 . S
O311 Zn302 1.977 . S
O311 C304 1.267 . S
C312 O313 1.160 . S
C312 O319 1.185 . S
O313 C312 1.160 . S
O314 Zn315 1.899 . S
O314 C322 1.284 . S
Zn315 O314 1.899 . S
Zn315 O316 2.032 . S
Zn315 O319 2.086 . S
Zn315 O324 1.977 . S
O316 Zn315 2.032 . S
O316 C320 1.278 . S
C317 O318 1.203 . S
C317 O324 1.267 . S
O318 C317 1.203 . S
O319 C312 1.185 . S
O319 Zn315 2.086 . S
C320 O316 1.278 . S
C320 O321 1.211 . S
O321 C320 1.211 . S
C322 O314 1.284 . S
C322 O323 1.273 . S
O323 C322 1.273 . S
O324 Zn315 1.977 . S
O324 C317 1.267 . S
C325 O326 1.160 . S
C325 O332 1.185 . S
O326 C325 1.160 . S
O327 Zn328 1.899 . S
O327 C335 1.284 . S
Zn328 O327 1.899 . S
Zn328 O329 2.032 . S
Zn328 O332 2.086 . S
Zn328 O337 1.977 . S
O329 Zn328 2.032 . S
O329 C333 1.278 . S
C330 O331 1.203 . S
C330 O337 1.267 . S
O331 C330 1.203 . S
O332 C325 1.185 . S
O332 Zn328 2.086 . S
C333 O329 1.278 . S
C333 O334 1.211 . S
O334 C333 1.211 . S
C335 O327 1.284 . S
C335 O336 1.273 . S
O336 C335 1.273 . S
O337 Zn328 1.977 . S
O337 C330 1.267 . S
C338 O339 1.160 . S
C338 O345 1.185 . S
O339 C338 1.160 . S
O340 Zn341 1.899 . S
O340 C348 1.284 . S
Zn341 O340 1.899 . S
Zn341 O342 2.032 . S
Zn341 O345 2.086 . S
Zn341 O350 1.977 . S
O342 Zn341 2.032 . S
O342 C346 1.278 . S
C343 O344 1.203 . S
C343 O350 1.267 . S
O344 C343 1.203 . S
O345 C338 1.185 . S
O345 Zn341 2.086 . S
C346 O342 1.278 . S
C346 O347 1.211 . S
O347 C346 1.211 . S
C348 O340 1.284 . S
C348 O349 1.273 . S
O349 C348 1.273 . S
O350 Zn341 1.977 . S
O350 C343 1.267 . S
C351 O352 1.160 . S
C351 O358 1.185 . S
O352 C351 1.160 . S
O353 Zn354 1.899 . S
O353 C361 1.284 . S
Zn354 O353 1.899 . S
Zn354 O355 2.032 . S
Zn354 O358 2.086 . S
Zn354 O363 1.977 . S
O355 Zn354 2.032 . S
O355 C359 1.278 . S
C356 O357 1.203 . S
C356 O363 1.267 . S
O357 C356 1.203 . S
O358 C351 1.185 . S
O358 Zn354 2.086 . S
C359 O355 1.278 . S
C359 O360 1.211 . S
O360 C359 1.211 . S
C361 O353 1.284 . S
C361 O362 1.273 . S
O362 C361 1.273 . S
O363 Zn354 1.977 . S
O363 C356 1.267 . S
C364 O365 1.160 . S
C364 O371 1.185 . S
O365 C364 1.160 . S
O366 Zn367 1.899 . S
O366 C374 1.284 . S
Zn367 O366 1.899 . S
Zn367 O368 2.032 . S
Zn367 O371 2.086 . S
Zn367 O376 1.977 . S
O368 Zn367 2.032 . S
O368 C372 1.278 . S
C369 O370 1.203 . S
C369 O376 1.267 . S
O370 C369 1.203 . S
O371 C364 1.185 . S
O371 Zn367 2.086 . S
C372 O368 1.278 . S
C372 O373 1.211 . S
O373 C372 1.211 . S
C374 O366 1.284 . S
C374 O375 1.273 . S
O375 C374 1.273 . S
O376 Zn367 1.977 . S
O376 C369 1.267 . S
C377 O378 1.160 . S
C377 O384 1.185 . S
O378 C377 1.160 . S
O379 Zn380 1.899 . S
O379 C387 1.284 . S
Zn380 O379 1.899 . S
Zn380 O381 2.032 . S
Zn380 O384 2.086 . S
Zn380 O389 1.977 . S
O381 Zn380 2.032 . S
O381 C385 1.278 . S
C382 O383 1.203 . S
C382 O389 1.267 . S
O383 C382 1.203 . S
O384 C377 1.185 . S
O384 Zn380 2.086 . S
C385 O381 1.278 . S
C385 O386 1.211 . S
O386 C385 1.211 . S
C387 O379 1.284 . S
C387 O388 1.273 . S
O388 C387 1.273 . S
O389 Zn380 1.977 . S
O389 C382 1.267 . S
C390 O391 1.160 . S
C390 O397 1.185 . S
O391 C390 1.160 . S
O392 Zn393 1.899 . S
O392 C400 1.284 . S
Zn393 O392 1.899 . S
Zn393 O394 2.032 . S
Zn393 O397 2.086 . S
Zn393 O402 1.977 . S
O394 Zn393 2.032 . S
O394 C398 1.278 . S
C395 O396 1.203 . S
C395 O402 1.267 . S
O396 C395 1.203 . S
O397 C390 1.185 . S
O397 Zn393 2.086 . S
C398 O394 1.278 . S
C398 O399 1.211 . S
O399 C398 1.211 . S
C400 O392 1.284 . S
C400 O401 1.273 . S
O401 C400 1.273 . S
O402 Zn393 1.977 . S
O402 C395 1.267 . S
C403 O404 1.160 . S
C403 O410 1.185 . S
O404 C403 1.160 . S
O405 Zn406 1.899 . S
O405 C413 1.284 . S
Zn406 O405 1.899 . S
Zn406 O407 2.032 . S
Zn406 O410 2.086 . S
Zn406 O415 1.977 . S
O407 Zn406 2.032 . S
O407 C411 1.278 . S
C408 O409 1.203 . S
C408 O415 1.267 . S
O409 C408 1.203 . S
O410 C403 1.185 . S
O410 Zn406 2.086 . S
C411 O407 1.278 . S
C411 O412 1.211 . S
O412 C411 1.211 . S
C413 O405 1.284 . S
C413 O414 1.273 . S
O414 C413 1.273 . S
O415 Zn406 1.977 . S
O415 C408 1.267 . S
C416 O417 1.160 . S
C416 O423 1.185 . S
O417 C416 1.160 . S
O418 Zn419 1.899 . S
O418 C426 1.284 . S
Zn419 O418 1.899 . S
Zn419 O420 2.032 . S
Zn419 O423 2.086 . S
Zn419 O428 1.977 . S
O420 Zn419 2.032 . S
O420 C424 1.278 . S
C421 O422 1.203 . S
C421 O428 1.267 . S
O422 C421 1.203 . S
O423 C416 1.185 . S
O423 Zn419 2.086 . S
C424 O420 1.278 . S
C424 O425 1.211 . S
O425 C424 1.211 . S
C426 O418 1.284 . S
C426 O427 1.273 . S
O427 C426 1.273 . S
O428 Zn419 1.977 . S
O428 C421 1.267 . S
C429 O430 1.160 . S
C429 O436 1.185 . S
O430 C429 1.160 . S
O431 Zn432 1.899 . S
O431 C439 1.284 . S
Zn432 O431 1.899 . S
Zn432 O433 2.032 . S
Zn432 O436 2.086 . S
Zn432 O441 1.977 . S
O433 Zn432 2.032 . S
O433 C437 1.278 . S
C434 O435 1.203 . S
C434 O441 1.267 . S
O435 C434 1.203 . S
O436 C429 1.185 . S
O436 Zn432 2.086 . S
C437 O433 1.278 . S
C437 O438 1.211 . S
O438 C437 1.211 . S
C439 O431 1.284 . S
C439 O440 1.273 . S
O440 C439 1.273 . S
O441 Zn432 1.977 . S
O441 C434 1.267 . S
C442 O443 1.160 . S
C442 O449 1.185 . S
O443 C442 1.160 . S
O444 Zn445 1.899 . S
O444 C452 1.284 . S
Zn445 O444 1.899 . S
Zn445 O446 2.032 . S
Zn445 O449 2.086 . S
Zn445 O454 1.977 . S
O446 Zn445 2.032 . S
O446 C450 1.278 . S
C447 O448 1.203 . S
C447 O454 1.267 . S
O448 C447 1.203 . S
O449 C442 1.185 . S
O449 Zn445 2.086 . S
C450 O446 1.278 . S
C450 O451 1.211 . S
O451 C450 1.211 . S
C452 O444 1.284 . S
C452 O453 1.273 . S
O453 C452 1.273 . S
O454 Zn445 1.977 . S
O454 C447 1.267 . S
C455 O456 1.160 . S
C455 O462 1.185 . S
O456 C455 1.160 . S
O457 Zn458 1.899 . S
O457 C465 1.284 . S
Zn458 O457 1.899 . S
Zn458 O459 2.032 . S
Zn458 O462 2.086 . S
Zn458 O467 1.977 . S
O459 Zn458 2.032 . S
O459 C463 1.278 . S
C460 O461 1.203 . S
C460 O467 1.267 . S
O461 C460 1.203 . S
O462 C455 1.185 . S
O462 Zn458 2.086 . S
C463 O459 1.278 . S
C463 O464 1.211 . S
O464 C463 1.211 . S
C465 O457 1.284 . S
C465 O466 1.273 . S
O466 C465 1.273 . S
O467 Zn458 1.977 . S
O467 C460 1.267 . S
C468 O469 1.160 . S
C468 O475 1.185 . S
O469 C468 1.160 . S
O470 Zn471 1.899 . S
O470 C478 1.284 . S
Zn471 O470 1.899 . S
Zn471 O472 2.032 . S
Zn471 O475 2.086 . S
Zn471 O480 1.977 . S
O472 Zn471 2.032 . S
O472 C476 1.278 . S
C473 O474 1.203 . S
C473 O480 1.267 . S
O474 C473 1.203 . S
O475 C468 1.185 . S
O475 Zn471 2.086 . S
C476 O472 1.278 . S
C476 O477 1.211 . S
O477 C476 1.211 . S
C478 O470 1.284 . S
C478 O479 1.273 . S
O479 C478 1.273 . S
O480 Zn471 1.977 . S
O480 C473 1.267 . S
C481 O482 1.160 . S
C481 O488 1.185 . S
O482 C481 1.160 . S
O483 Zn484 1.899 . S
O483 C491 1.284 . S
Zn484 O483 1.899 . S
Zn484 O485 2.032 . S
Zn484 O488 2.086 . S
Zn484 O493 1.977 . S
O485 Zn484 2.032 . S
O485 C489 1.278 . S
C486 O487 1.203 . S
C486 O493 1.267 . S
O487 C486 1.203 . S
O488 C481 1.185 . S
O488 Zn484 2.086 . S
C489 O485 1.278 . S
C489 O490 1.211 . S
O490 C489 1.211 . S
C491 O483 1.284 . S
C491 O492 1.273 . S
O492 C491 1.273 . S
O493 Zn484 1.977 . S
O493 C486 1.267 . S
C494 O495 1.160 . S
C494 O501 1.185 . S
O495 C494 1.160 . S
O496 Zn497 1.899 . S
O496 C504 1.284 . S
Zn497 O496 1.899 . S
Zn497 O498 2.032 . S
Zn497 O501 2.086 . S
Zn497 O506 1.977 . S
O498 Zn497 2.032 . S
O498 C502 1.278 . S
C499 O500 1.203 . S
C499 O506 1.267 . S
O500 C499 1.203 . S
O501 C494 1.185 . S
O501 Zn497 2.086 . S
C502 O498 1.278 . S
C502 O503 1.211 . S
O503 C502 1.211 . S
C504 O496 1.284 . S
C504 O505 1.273 . S
O505 C504 1.273 . S
O506 Zn497 1.977 . S
O506 C499 1.267 . S
C507 O508 1.160 . S
C507 O514 1.185 . S
O508 C507 1.160 . S
O509 Zn510 1.899 . S
O509 C517 1.284 . S
Zn510 O509 1.899 . S
Zn510 O511 2.032 . S
Zn510 O514 2.086 . S
Zn510 O519 1.977 . S
O511 Zn510 2.032 . S
O511 C515 1.278 . S
C512 O513 1.203 . S
C512 O519 1.267 . S
O513 C512 1.203 . S
O514 C507 1.185 . S
O514 Zn510 2.086 . S
C515 O511 1.278 . S
C515 O516 1.211 . S
O516 C515 1.211 . S
C517 O509 1.284 . S
C517 O518 1.273 . S
O518 C517 1.273 . S
O519 Zn510 1.977 . S
O519 C512 1.267 . S
C520 O521 1.160 . S
C520 O527 1.185 . S
O521 C520 1.160 . S
O522 Zn523 1.899 . S
O522 C530 1.284 . S
Zn523 O522 1.899 . S
Zn523 O524 2.032 . S
Zn523 O527 2.086 . S
Zn523 O532 1.977 . S
O524 Zn523 2.032 . S
O524 C528 1.278 . S
C525 O526 1.203 . S
C525 O532 1.267 . S
O526 C525 1.203 . S
O527 C520 1.185 . S
O527 Zn523 2.086 . S
C528 O524 1.278 . S
C528 O529 1.211 . S
O529 C528 1.211 . S
C530 O522 1.284 . S
C530 O531 1.273 . S
O531 C530 1.273 . S
O532 Zn523 1.977 . S
O532 C525 1.267 . S
C533 O534 1.160 . S
C533 O540 1.185 . S
O534 C533 1.160 . S
O535 Zn536 1.899 . S
O535 C543 1.284 . S
Zn536 O535 1.899 . S
Zn536 O537 2.032 . S
Zn536 O540 2.086 . S
Zn536 O545 1.977 . S
O537 Zn536 2.032 . S
O537 C541 1.278 . S
C538 O539 1.203 . S
C538 O545 1.267 . S
O539 C538 1.203 . S
O540 C533 1.185 . S
O540 Zn536 2.086 . S
C541 O537 1.278 . S
C541 O542 1.211 . S
O542 C541 1.211 . S
C543 O535 1.284 . S
C543 O544 1.273 . S
O544 C543 1.273 . S
O545 Zn536 1.977 . S
O545 C538 1.267 . S
C546 O547 1.160 . S
C546 O553 1.185 . S
O547 C546 1.160 . S
O548 Zn549 1.899 . S
O548 C556 1.284 . S
Zn549 O548 1.899 . S
Zn549 O550 2.032 . S
Zn549 O553 2.086 . S
Zn549 O558 1.977 . S
O550 Zn549 2.032 . S
O550 C554 1.278 . S
C551 O552 1.203 . S
C551 O558 1.267 . S
O552 C551 1.203 . S
O553 C546 1.185 . S
O553 Zn549 2.086 . S
C554 O550 1.278 . S
C554 O555 1.211 . S
O555 C554 1.211 . S
C556 O548 1.284 . S
C556 O557 1.273 . S
O557 C556 1.273 . S
O558 Zn549 1.977 . S
O558 C551 1.267 . S
C559 O560 1.160 . S
C559 O566 1.185 . S
O560 C559 1.160 . S
O561 Zn562 1.899 . S
O561 C569 1.284 . S
Zn562 O561 1.899 . S
Zn562 O563 2.032 . S
Zn562 O566 2.086 . S
Zn562 O571 1.977 . S
O563 Zn562 2.032 . S
O563 C567 1.278 . S
C564 O565 1.203 . S
C564 O571 1.267 . S
O565 C564 1.203 . S
O566 C559 1.185 . S
O566 Zn562 2.086 . S
C567 O563 1.278 . S
C567 O568 1.211 . S
O568 C567 1.211 . S
C569 O561 1.284 . S
C569 O570 1.273 . S
O570 C569 1.273 . S
O571 Zn562 1.977 . S
O571 C564 1.267 . S
C572 O573 1.160 . S
C572 O579 1.185 . S
O573 C572 1.160 . S
O574 Zn575 1.899 . S
O574 C582 1.284 . S
Zn575 O574 1.899 . S
Zn575 O576 2.032 . S
Zn575 O579 2.086 . S
Zn575 O584 1.977 . S
O576 Zn575 2.032 . S
O576 C580 1.278 . S
C577 O578 1.203 . S
C577 O584 1.267 . S
O578 C577 1.203 . S
O579 C572 1.185 . S
O579 Zn575 2.086 . S
C580 O576 1.278 . S
C580 O581 1.211 . S
O581 C580 1.211 . S
C582 O574 1.284 . S
C582 O583 1.273 . S
O583 C582 1.273 . S
O584 Zn575 1.977 . S
O584 C577 1.267 . S
C585 O586 1.160 . S
C585 O592 1.185 . S
O586 C585 1.160 . S
O587 Zn588 1.899 . S
O587 C595 1.284 . S
Zn588 O587 1.899 . S
Zn588 O589 2.032 . S
Zn588 O592 2.086 . S
Zn588 O597 1.977 . S
O589 Zn588 2.032 . S
O589 C593 1.278 . S
C590 O591 1.203 . S
C590 O597 1.267 . S
O591 C590 1.203 . S
O592 C585 1.185 . S
O592 Zn588 2.086 . S
C593 O589 1.278 . S
C593 O594 1.211 . S
O594 C593 1.211 . S
C595 O587 1.284 . S
C595 O596 1.273 . S
O596 C595 1.273 . S
O597 Zn588 1.977 . S
O597 C590 1.267 . S
C598 O599 1.160 . S
C598 O605 1.185 . S
O599 C598 1.160 . S
O600 Zn601 1.899 . S
O600 C608 1.284 . S
Zn601 O600 1.899 . S
Zn601 O602 2.032 . S
Zn601 O605 2.086 . S
Zn601 O610 1.977 . S
O602 Zn601 2.032 . S
O602 C606 1.278 . S
C603 O604 1.203 . S
C603 O610 1.267 . S
O604 C603 1.203 . S
O605 C598 1.185 . S
O605 Zn601 2.086 . S
C606 O602 1.278 . S
C606 O607 1.211 . S
O607 C606 1.211 . S
C608 O600 1.284 . S
C608 O609 1.273 . S
O609 C608 1.273 . S
O610 Zn601 1.977 . S
O610 C603 1.267 . S
C611 O612 1.160 . S
C611 O618 1.185 . S
O612 C611 1.160 . S
O613 Zn614 1.899 . S
O613 C621 1.284 . S
Zn614 O613 1.899 . S
Zn614 O615 2.032 . S
Zn614 O618 2.086 . S
Zn614 O623 1.977 . S
O615 Zn614 2.032 . S
O615 C619 1.278 . S
C616 O617 1.203 . S
C616 O623 1.267 . S
O617 C616 1.203 . S
O618 C611 1.185 . S
O618 Zn614 2.086 . S
C619 O615 1.278 . S
C619 O620 1.211 . S
O620 C619 1.211 . S
C621 O613 1.284 . S
C621 O622 1.273 . S
O622 C621 1.273 . S
O623 Zn614 1.977 . S
O623 C616 1.267 . S
C117 C0 2.904 1_655 S
C130 C13 2.904 1_565 S
C143 C26 2.904 1_455 S
C39 C104 2.904 1_565 S
C195 C52 2.904 1_655 S
C65 C156 2.904 1_545 S
C169 C78 2.904 1_455 S
C182 C91 2.904 1_545 S
C208 C234 2.904 1_554 S
C221 C286 2.904 1_556 S
C247 C299 2.904 1_556 S
C260 C273 2.904 1_556 S
C312 C429 2.904 . S
C442 C325 2.904 . S
C338 C455 2.904 . S
C351 C416 2.904 . S
C507 C364 2.904 . S
C468 C377 2.904 . S
C481 C390 2.904 . S
C494 C403 2.904 . S
C520 C546 2.904 . S
C533 C598 2.904 . S
C559 C611 2.904 . S
C585 C572 2.904 . S
C109 C8 1.819 . S
C122 C21 1.819 . S
C34 C135 1.819 . S
C47 C148 1.819 . S
C60 C161 1.819 . S
C73 C174 1.819 . S
C86 C187 1.819 . S
C200 C99 1.819 . S
C112 C213 1.819 . S
C304 C125 1.819 . S
C138 C278 1.819 . S
C151 C291 1.819 . S
C164 C226 1.819 . S
C177 C239 1.819 . S
C190 C252 1.819 . S
C265 C203 1.819 . S
C5 C216 1.819 . S
C229 C57 1.819 . S
C242 C70 1.819 . S
C255 C83 1.819 . S
C96 C268 1.819 . S
C281 C31 1.819 . S
C294 C44 1.819 . S
C18 C307 1.819 . S
C421 C320 1.819 . S
C333 C434 1.819 . S
C346 C447 1.819 . S
C460 C359 1.819 . S
C473 C372 1.819 . S
C385 C486 1.819 . S
C499 C398 1.819 . S
C512 C411 1.819 . S
C424 C525 1.819 . S
C437 C616 1.819 . S
C450 C590 1.819 . S
C603 C463 1.819 . S
C476 C538 1.819 . S
C489 C551 1.819 . S
C564 C502 1.819 . S
C577 C515 1.819 . S
C528 C317 1.819 . S
C541 C369 1.819 . S
C382 C554 1.819 . S
C567 C395 1.819 . S
C580 C408 1.819 . S
C343 C593 1.819 . S
C606 C356 1.819 . S
C330 C619 1.819 . S
C413 C10 1.415 . S
C23 C374 1.415 . S
C387 C36 1.415 . S
C400 C49 1.415 . S
C62 C335 1.415 . S
C348 C75 1.415 . S
C361 C88 1.415 . S
C101 C322 1.415 . S
C582 C114 1.415 . S
C127 C543 1.415 . S
C140 C556 1.415 . S
C569 C153 1.415 . S
C621 C166 1.415 . S
C595 C179 1.415 . S
C192 C608 1.415 . S
C530 C205 1.415 . S
C218 C517 1.415 . S
C439 C231 1.415 . S
C244 C452 1.415 . S
C465 C257 1.415 . S
C426 C270 1.415 . S
C283 C491 1.415 . S
C504 C296 1.415 . S
C478 C309 1.415 . S
