# Generated by pormake.
# Topology ull, (4)-cn, num edge types: 1
# Building blocks:
#     Node 0, Type 0, BuildingBlock: TATPOV_clean_sbu_0, # of connection points: 4
#     Node 1, Type 0, BuildingBlock: TATPOV_clean_sbu_0, # of connection points: 4
#     Node 2, Type 0, BuildingBlock: TATPOV_clean_sbu_0, # of connection points: 4
#     Node 3, Type 0, BuildingBlock: TATPOV_clean_sbu_0, # of connection points: 4
#     Node 4, Type 0, BuildingBlock: TATPOV_clean_sbu_0, # of connection points: 4
#     Node 5, Type 0, BuildingBlock: TATPOV_clean_sbu_0, # of connection points: 4
#     Node 6, Type 0, BuildingBlock: TATPOV_clean_sbu_0, # of connection points: 4
#     Node 7, Type 0, BuildingBlock: TATPOV_clean_sbu_0, # of connection points: 4
#     Node 8, Type 0, BuildingBlock: TATPOV_clean_sbu_0, # of connection points: 4
#     Node 9, Type 0, BuildingBlock: TATPOV_clean_sbu_0, # of connection points: 4
#     Node 10, Type 0, BuildingBlock: TATPOV_clean_sbu_0, # of connection points: 4
#     Node 11, Type 0, BuildingBlock: TATPOV_clean_sbu_0, # of connection points: 4
#     Node 12, Type 0, BuildingBlock: TATPOV_clean_sbu_0, # of connection points: 4
#     Node 13, Type 0, BuildingBlock: TATPOV_clean_sbu_0, # of connection points: 4
#     Node 14, Type 0, BuildingBlock: TATPOV_clean_sbu_0, # of connection points: 4
#     Node 15, Type 0, BuildingBlock: TATPOV_clean_sbu_0, # of connection points: 4
#     Node 16, Type 0, BuildingBlock: TATPOV_clean_sbu_0, # of connection points: 4
#     Node 17, Type 0, BuildingBlock: TATPOV_clean_sbu_0, # of connection points: 4
#     Node 18, Type 0, BuildingBlock: TATPOV_clean_sbu_0, # of connection points: 4
#     Node 19, Type 0, BuildingBlock: TATPOV_clean_sbu_0, # of connection points: 4
#     Node 20, Type 0, BuildingBlock: TATPOV_clean_sbu_0, # of connection points: 4
#     Node 21, Type 0, BuildingBlock: TATPOV_clean_sbu_0, # of connection points: 4
#     Node 22, Type 0, BuildingBlock: TATPOV_clean_sbu_0, # of connection points: 4
#     Node 23, Type 0, BuildingBlock: TATPOV_clean_sbu_0, # of connection points: 4
#     Node 24, Type 0, BuildingBlock: TATPOV_clean_sbu_0, # of connection points: 4
#     Node 25, Type 0, BuildingBlock: TATPOV_clean_sbu_0, # of connection points: 4
#     Node 26, Type 0, BuildingBlock: TATPOV_clean_sbu_0, # of connection points: 4
#     Node 27, Type 0, BuildingBlock: TATPOV_clean_sbu_0, # of connection points: 4
#     Node 28, Type 0, BuildingBlock: TATPOV_clean_sbu_0, # of connection points: 4
#     Node 29, Type 0, BuildingBlock: TATPOV_clean_sbu_0, # of connection points: 4
#     Node 30, Type 0, BuildingBlock: TATPOV_clean_sbu_0, # of connection points: 4
#     Node 31, Type 0, BuildingBlock: TATPOV_clean_sbu_0, # of connection points: 4
#     Node 32, Type 0, BuildingBlock: TATPOV_clean_sbu_0, # of connection points: 4
#     Node 33, Type 0, BuildingBlock: TATPOV_clean_sbu_0, # of connection points: 4
#     Node 34, Type 0, BuildingBlock: TATPOV_clean_sbu_0, # of connection points: 4
#     Node 35, Type 0, BuildingBlock: TATPOV_clean_sbu_0, # of connection points: 4
#     Node 36, Type 0, BuildingBlock: TATPOV_clean_sbu_0, # of connection points: 4
#     Node 37, Type 0, BuildingBlock: TATPOV_clean_sbu_0, # of connection points: 4
#     Node 38, Type 0, BuildingBlock: TATPOV_clean_sbu_0, # of connection points: 4
#     Node 39, Type 0, BuildingBlock: TATPOV_clean_sbu_0, # of connection points: 4
#     Node 40, Type 0, BuildingBlock: TATPOV_clean_sbu_0, # of connection points: 4
#     Node 41, Type 0, BuildingBlock: TATPOV_clean_sbu_0, # of connection points: 4
#     Node 42, Type 0, BuildingBlock: TATPOV_clean_sbu_0, # of connection points: 4
#     Node 43, Type 0, BuildingBlock: TATPOV_clean_sbu_0, # of connection points: 4
#     Node 44, Type 0, BuildingBlock: TATPOV_clean_sbu_0, # of connection points: 4
#     Node 45, Type 0, BuildingBlock: TATPOV_clean_sbu_0, # of connection points: 4
#     Node 46, Type 0, BuildingBlock: TATPOV_clean_sbu_0, # of connection points: 4
#     Node 47, Type 0, BuildingBlock: TATPOV_clean_sbu_0, # of connection points: 4
#     Edge 48, Type (0, 0), BuildingBlock: XIVTED_clean_linker_0, # of connection points: 2
#     Edge 49, Type (0, 0), BuildingBlock: XIVTED_clean_linker_0, # of connection points: 2
#     Edge 50, Type (0, 0), BuildingBlock: XIVTED_clean_linker_0, # of connection points: 2
#     Edge 51, Type (0, 0), BuildingBlock: XIVTED_clean_linker_0, # of connection points: 2
#     Edge 52, Type (0, 0), BuildingBlock: XIVTED_clean_linker_0, # of connection points: 2
#     Edge 53, Type (0, 0), BuildingBlock: XIVTED_clean_linker_0, # of connection points: 2
#     Edge 54, Type (0, 0), BuildingBlock: XIVTED_clean_linker_0, # of connection points: 2
#     Edge 55, Type (0, 0), BuildingBlock: XIVTED_clean_linker_0, # of connection points: 2
#     Edge 56, Type (0, 0), BuildingBlock: XIVTED_clean_linker_0, # of connection points: 2
#     Edge 57, Type (0, 0), BuildingBlock: XIVTED_clean_linker_0, # of connection points: 2
#     Edge 58, Type (0, 0), BuildingBlock: XIVTED_clean_linker_0, # of connection points: 2
#     Edge 59, Type (0, 0), BuildingBlock: XIVTED_clean_linker_0, # of connection points: 2
#     Edge 60, Type (0, 0), BuildingBlock: XIVTED_clean_linker_0, # of connection points: 2
#     Edge 61, Type (0, 0), BuildingBlock: XIVTED_clean_linker_0, # of connection points: 2
#     Edge 62, Type (0, 0), BuildingBlock: XIVTED_clean_linker_0, # of connection points: 2
#     Edge 63, Type (0, 0), BuildingBlock: XIVTED_clean_linker_0, # of connection points: 2
#     Edge 64, Type (0, 0), BuildingBlock: XIVTED_clean_linker_0, # of connection points: 2
#     Edge 65, Type (0, 0), BuildingBlock: XIVTED_clean_linker_0, # of connection points: 2
#     Edge 66, Type (0, 0), BuildingBlock: XIVTED_clean_linker_0, # of connection points: 2
#     Edge 67, Type (0, 0), BuildingBlock: XIVTED_clean_linker_0, # of connection points: 2
#     Edge 68, Type (0, 0), BuildingBlock: XIVTED_clean_linker_0, # of connection points: 2
#     Edge 69, Type (0, 0), BuildingBlock: XIVTED_clean_linker_0, # of connection points: 2
#     Edge 70, Type (0, 0), BuildingBlock: XIVTED_clean_linker_0, # of connection points: 2
#     Edge 71, Type (0, 0), BuildingBlock: XIVTED_clean_linker_0, # of connection points: 2
#     Edge 72, Type (0, 0), BuildingBlock: XIVTED_clean_linker_0, # of connection points: 2
#     Edge 73, Type (0, 0), BuildingBlock: XIVTED_clean_linker_0, # of connection points: 2
#     Edge 74, Type (0, 0), BuildingBlock: XIVTED_clean_linker_0, # of connection points: 2
#     Edge 75, Type (0, 0), BuildingBlock: XIVTED_clean_linker_0, # of connection points: 2
#     Edge 76, Type (0, 0), BuildingBlock: XIVTED_clean_linker_0, # of connection points: 2
#     Edge 77, Type (0, 0), BuildingBlock: XIVTED_clean_linker_0, # of connection points: 2
#     Edge 78, Type (0, 0), BuildingBlock: XIVTED_clean_linker_0, # of connection points: 2
#     Edge 79, Type (0, 0), BuildingBlock: XIVTED_clean_linker_0, # of connection points: 2
#     Edge 80, Type (0, 0), BuildingBlock: XIVTED_clean_linker_0, # of connection points: 2
#     Edge 81, Type (0, 0), BuildingBlock: XIVTED_clean_linker_0, # of connection points: 2
#     Edge 82, Type (0, 0), BuildingBlock: XIVTED_clean_linker_0, # of connection points: 2
#     Edge 83, Type (0, 0), BuildingBlock: XIVTED_clean_linker_0, # of connection points: 2
#     Edge 84, Type (0, 0), BuildingBlock: XIVTED_clean_linker_0, # of connection points: 2
#     Edge 85, Type (0, 0), BuildingBlock: XIVTED_clean_linker_0, # of connection points: 2
#     Edge 86, Type (0, 0), BuildingBlock: XIVTED_clean_linker_0, # of connection points: 2
#     Edge 87, Type (0, 0), BuildingBlock: XIVTED_clean_linker_0, # of connection points: 2
#     Edge 88, Type (0, 0), BuildingBlock: XIVTED_clean_linker_0, # of connection points: 2
#     Edge 89, Type (0, 0), BuildingBlock: XIVTED_clean_linker_0, # of connection points: 2
#     Edge 90, Type (0, 0), BuildingBlock: XIVTED_clean_linker_0, # of connection points: 2
#     Edge 91, Type (0, 0), BuildingBlock: XIVTED_clean_linker_0, # of connection points: 2
#     Edge 92, Type (0, 0), BuildingBlock: XIVTED_clean_linker_0, # of connection points: 2
#     Edge 93, Type (0, 0), BuildingBlock: XIVTED_clean_linker_0, # of connection points: 2
#     Edge 94, Type (0, 0), BuildingBlock: XIVTED_clean_linker_0, # of connection points: 2
#     Edge 95, Type (0, 0), BuildingBlock: XIVTED_clean_linker_0, # of connection points: 2
#     Edge 96, Type (0, 0), BuildingBlock: XIVTED_clean_linker_0, # of connection points: 2
#     Edge 97, Type (0, 0), BuildingBlock: XIVTED_clean_linker_0, # of connection points: 2
#     Edge 98, Type (0, 0), BuildingBlock: XIVTED_clean_linker_0, # of connection points: 2
#     Edge 99, Type (0, 0), BuildingBlock: XIVTED_clean_linker_0, # of connection points: 2
#     Edge 100, Type (0, 0), BuildingBlock: XIVTED_clean_linker_0, # of connection points: 2
#     Edge 101, Type (0, 0), BuildingBlock: XIVTED_clean_linker_0, # of connection points: 2
#     Edge 102, Type (0, 0), BuildingBlock: XIVTED_clean_linker_0, # of connection points: 2
#     Edge 103, Type (0, 0), BuildingBlock: XIVTED_clean_linker_0, # of connection points: 2
#     Edge 104, Type (0, 0), BuildingBlock: XIVTED_clean_linker_0, # of connection points: 2
#     Edge 105, Type (0, 0), BuildingBlock: XIVTED_clean_linker_0, # of connection points: 2
#     Edge 106, Type (0, 0), BuildingBlock: XIVTED_clean_linker_0, # of connection points: 2
#     Edge 107, Type (0, 0), BuildingBlock: XIVTED_clean_linker_0, # of connection points: 2
#     Edge 108, Type (0, 0), BuildingBlock: XIVTED_clean_linker_0, # of connection points: 2
#     Edge 109, Type (0, 0), BuildingBlock: XIVTED_clean_linker_0, # of connection points: 2
#     Edge 110, Type (0, 0), BuildingBlock: XIVTED_clean_linker_0, # of connection points: 2
#     Edge 111, Type (0, 0), BuildingBlock: XIVTED_clean_linker_0, # of connection points: 2
#     Edge 112, Type (0, 0), BuildingBlock: XIVTED_clean_linker_0, # of connection points: 2
#     Edge 113, Type (0, 0), BuildingBlock: XIVTED_clean_linker_0, # of connection points: 2
#     Edge 114, Type (0, 0), BuildingBlock: XIVTED_clean_linker_0, # of connection points: 2
#     Edge 115, Type (0, 0), BuildingBlock: XIVTED_clean_linker_0, # of connection points: 2
#     Edge 116, Type (0, 0), BuildingBlock: XIVTED_clean_linker_0, # of connection points: 2
#     Edge 117, Type (0, 0), BuildingBlock: XIVTED_clean_linker_0, # of connection points: 2
#     Edge 118, Type (0, 0), BuildingBlock: XIVTED_clean_linker_0, # of connection points: 2
#     Edge 119, Type (0, 0), BuildingBlock: XIVTED_clean_linker_0, # of connection points: 2
#     Edge 120, Type (0, 0), BuildingBlock: XIVTED_clean_linker_0, # of connection points: 2
#     Edge 121, Type (0, 0), BuildingBlock: XIVTED_clean_linker_0, # of connection points: 2
#     Edge 122, Type (0, 0), BuildingBlock: XIVTED_clean_linker_0, # of connection points: 2
#     Edge 123, Type (0, 0), BuildingBlock: XIVTED_clean_linker_0, # of connection points: 2
#     Edge 124, Type (0, 0), BuildingBlock: XIVTED_clean_linker_0, # of connection points: 2
#     Edge 125, Type (0, 0), BuildingBlock: XIVTED_clean_linker_0, # of connection points: 2
#     Edge 126, Type (0, 0), BuildingBlock: XIVTED_clean_linker_0, # of connection points: 2
#     Edge 127, Type (0, 0), BuildingBlock: XIVTED_clean_linker_0, # of connection points: 2
#     Edge 128, Type (0, 0), BuildingBlock: XIVTED_clean_linker_0, # of connection points: 2
#     Edge 129, Type (0, 0), BuildingBlock: XIVTED_clean_linker_0, # of connection points: 2
#     Edge 130, Type (0, 0), BuildingBlock: XIVTED_clean_linker_0, # of connection points: 2
#     Edge 131, Type (0, 0), BuildingBlock: XIVTED_clean_linker_0, # of connection points: 2
#     Edge 132, Type (0, 0), BuildingBlock: XIVTED_clean_linker_0, # of connection points: 2
#     Edge 133, Type (0, 0), BuildingBlock: XIVTED_clean_linker_0, # of connection points: 2
#     Edge 134, Type (0, 0), BuildingBlock: XIVTED_clean_linker_0, # of connection points: 2
#     Edge 135, Type (0, 0), BuildingBlock: XIVTED_clean_linker_0, # of connection points: 2
#     Edge 136, Type (0, 0), BuildingBlock: XIVTED_clean_linker_0, # of connection points: 2
#     Edge 137, Type (0, 0), BuildingBlock: XIVTED_clean_linker_0, # of connection points: 2
#     Edge 138, Type (0, 0), BuildingBlock: XIVTED_clean_linker_0, # of connection points: 2
#     Edge 139, Type (0, 0), BuildingBlock: XIVTED_clean_linker_0, # of connection points: 2
#     Edge 140, Type (0, 0), BuildingBlock: XIVTED_clean_linker_0, # of connection points: 2
#     Edge 141, Type (0, 0), BuildingBlock: XIVTED_clean_linker_0, # of connection points: 2
#     Edge 142, Type (0, 0), BuildingBlock: XIVTED_clean_linker_0, # of connection points: 2
#     Edge 143, Type (0, 0), BuildingBlock: XIVTED_clean_linker_0, # of connection points: 2
# Relax obj value: 0.153
# Max RMSD: 0.208
# Mean RMSD: 0.208
data_MOF--net-ull--node1-TATPOV_clean_sbu_0--edge1-XIVTED_clean_linker_0
_symmetry_space_group_name_H-M    P1
_symmetry_Int_Tables_number       1
_symmetry_cell_setting            triclinic
loop_
_symmetry_equiv_pos_as_xyz
'x, y, z'
_cell_length_a     59.670682
_cell_length_b     59.693473
_cell_length_c     59.688291
_cell_angle_alpha  89.952407
_cell_angle_beta   89.954503
_cell_angle_gamma 89.98066
loop_
_atom_site_label
_atom_site_type_symbol
_atom_site_fract_x
_atom_site_fract_y
_atom_site_fract_z
_atom_type_partial_charge
Zn0 Zn 0.01892 0.33361 0.1486 0.0
Zn1 Zn 0.02383 0.36569 0.17792 0.0
O2 O 0.05446 0.36478 0.16119 0.0
O3 O 0.05145 0.33428 0.14065 0.0
O4 O 0.02905 0.39005 0.2005 0.0
O5 O 0.00841 0.31272 0.17295 0.0
O6 O 0.01698 0.3383 0.19801 0.0
C7 C 0.06298 0.35053 0.14777 0.0
C8 C 0.98868 0.36977 0.14092 0.0
O9 O 0.99634 0.37645 0.15969 0.0
O10 O 0.99676 0.35255 0.13158 0.0
C11 C 0.03375 0.40994 0.19452 0.0
O12 O 0.03419 0.41487 0.17306 0.0
C13 C 0.01024 0.31861 0.19324 0.0
Zn14 Zn 0.66983 0.97715 0.15218 0.0
Zn15 Zn 0.63698 0.98969 0.17811 0.0
O16 O 0.6356 0.01364 0.15299 0.0
O17 O 0.66103 0.0007 0.12965 0.0
O18 O 0.6133 0.99955 0.19993 0.0
O19 O 0.69321 0.98327 0.17519 0.0
O20 O 0.66546 0.99053 0.19828 0.0
C21 C 0.64598 0.0149 0.13435 0.0
C22 C 0.63703 0.94288 0.15762 0.0
O23 O 0.62627 0.95832 0.16771 0.0
O24 O 0.65666 0.94639 0.15044 0.0
C25 C 0.59489 0.00857 0.19419 0.0
O26 O 0.59036 0.0112 0.17281 0.0
C27 C 0.6864 0.98815 0.19464 0.0
Zn28 Zn 0.98401 0.65623 0.16151 0.0
Zn29 Zn 0.99001 0.62175 0.18695 0.0
O30 O 0.96138 0.61395 0.16873 0.0
O31 O 0.96075 0.64051 0.14312 0.0
O32 O 0.99198 0.59552 0.20815 0.0
O33 O 0.97485 0.6755 0.18741 0.0
O34 O 0.98632 0.64824 0.20935 0.0
C35 C 0.95292 0.62253 0.15112 0.0
C36 C 0.02772 0.63755 0.15632 0.0
O37 O 0.01969 0.62182 0.16839 0.0
O38 O 0.01623 0.65492 0.15237 0.0
C39 C 0.9875 0.57562 0.20204 0.0
O40 O 0.98371 0.57161 0.18073 0.0
C41 C 0.97899 0.66816 0.20685 0.0
Zn42 Zn 0.36247 0.02496 0.15836 0.0
Zn43 Zn 0.3897 0.01185 0.1897 0.0
O44 O 0.39009 0.98503 0.16789 0.0
O45 O 0.37171 0.99868 0.13899 0.0
O46 O 0.40983 0.00093 0.21459 0.0
O47 O 0.33588 0.02315 0.17874 0.0
O48 O 0.35926 0.01622 0.20632 0.0
C49 C 0.3831 0.98311 0.14783 0.0
C50 C 0.39798 0.05574 0.16388 0.0
O51 O 0.4055 0.04021 0.17655 0.0
O52 O 0.37867 0.05409 0.15535 0.0
C53 C 0.42822 0.99099 0.21044 0.0
O54 O 0.43495 0.98924 0.18955 0.0
C55 C 0.33936 0.01989 0.19939 0.0
Zn56 Zn 0.99741 0.68366 0.82288 0.0
Zn57 Zn 0.99157 0.6425 0.811 0.0
O58 O 0.02328 0.64265 0.82532 0.0
O59 O 0.02983 0.67856 0.83007 0.0
O60 O 0.98865 0.61077 0.79984 0.0
O61 O 0.98798 0.69588 0.79344 0.0
O62 O 0.98733 0.66101 0.78145 0.0
C63 C 0.03637 0.65843 0.83128 0.0
C64 C 0.96297 0.66216 0.84848 0.0
O65 O 0.96666 0.64593 0.83506 0.0
O66 O 0.97448 0.6799 0.84698 0.0
C67 C 0.99487 0.594 0.81143 0.0
O68 O 0.00233 0.59727 0.83188 0.0
C69 C 0.98542 0.68198 0.77771 0.0
Zn70 Zn 0.33586 0.03021 0.83604 0.0
Zn71 Zn 0.36803 0.01025 0.81297 0.0
O72 O 0.38351 0.03754 0.82797 0.0
O73 O 0.35614 0.05535 0.84513 0.0
O74 O 0.39303 0.99809 0.79377 0.0
O75 O 0.31692 0.03409 0.80892 0.0
O76 O 0.34302 0.01688 0.78937 0.0
C77 C 0.37657 0.05401 0.83965 0.0
C78 C 0.34592 0.98495 0.85123 0.0
O79 O 0.36044 0.98522 0.83555 0.0
O80 O 0.33358 0.00192 0.85461 0.0
C81 C 0.41298 0.99654 0.80109 0.0
O82 O 0.41694 0.001 0.82228 0.0
C83 C 0.32398 0.02661 0.7904 0.0
Zn84 Zn 0.99391 0.30596 0.84666 0.0
Zn85 Zn 0.00084 0.3467 0.83425 0.0
O86 O 0.96982 0.34736 0.85055 0.0
O87 O 0.96237 0.31175 0.85617 0.0
O88 O 0.00355 0.37804 0.82147 0.0
O89 O 0.00078 0.29307 0.81681 0.0
O90 O 0.00303 0.32786 0.80481 0.0
C91 C 0.95654 0.33207 0.85744 0.0
C92 C 0.03178 0.3255 0.86895 0.0
O93 O 0.02791 0.3421 0.85598 0.0
O94 O 0.01886 0.30869 0.8687 0.0
C95 C 0.99399 0.39517 0.82979 0.0
O96 O 0.98337 0.39327 0.84898 0.0
C97 C 0.00359 0.30685 0.80099 0.0
Zn98 Zn 0.67814 0.02212 0.83003 0.0
Zn99 Zn 0.64003 0.0155 0.81091 0.0
O100 O 0.64 0.99161 0.83615 0.0
O101 O 0.6702 0.00098 0.85499 0.0
O102 O 0.61034 0.00946 0.79616 0.0
O103 O 0.69502 0.01072 0.80354 0.0
O104 O 0.66316 0.01002 0.78504 0.0
C105 C 0.65287 0.98893 0.85297 0.0
C106 C 0.65175 0.06146 0.83085 0.0
O107 O 0.63705 0.04797 0.82321 0.0
O108 O 0.67174 0.05491 0.83353 0.0
C109 C 0.60219 0.02084 0.78012 0.0
O110 O 0.61339 0.03815 0.77237 0.0
C111 C 0.68442 0.00757 0.78549 0.0
Zn112 Zn 0.15723 0.99019 0.30085 0.0
Zn113 Zn 0.17551 0.99888 0.33963 0.0
O114 O 0.14993 0.02241 0.3383 0.0
O115 O 0.13333 0.01324 0.30674 0.0
O116 O 0.19102 0.00626 0.36863 0.0
O117 O 0.18483 0.99861 0.2839 0.0
O118 O 0.20146 0.00298 0.31645 0.0
C119 C 0.13421 0.02535 0.32413 0.0
C120 C 0.15559 0.95248 0.33034 0.0
O121 O 0.16371 0.96649 0.34426 0.0
O122 O 0.15235 0.95821 0.31017 0.0
C123 C 0.20874 0.99594 0.3744 0.0
O124 O 0.21633 0.97971 0.36162 0.0
C125 C 0.20229 0.00292 0.29508 0.0
Zn126 Zn 0.96764 0.15618 0.32123 0.0
Zn127 Zn 0.98435 0.1778 0.35531 0.0
O128 O 0.95312 0.16627 0.36597 0.0
O129 O 0.93775 0.15196 0.33573 0.0
O130 O 0.99305 0.19676 0.38186 0.0
O131 O 0.972 0.18189 0.30048 0.0
O132 O 0.98503 0.20103 0.3291 0.0
C133 C 0.93644 0.15726 0.35618 0.0
C134 C 0.00814 0.13588 0.33919 0.0
O135 O 0.00824 0.15273 0.35234 0.0
O136 O 0.99235 0.13349 0.3252 0.0
C137 C 0.99007 0.18947 0.40167 0.0
O138 O 0.98399 0.1685 0.40449 0.0
C139 C 0.97978 0.19992 0.30839 0.0
Zn140 Zn 0.84034 0.02051 0.33715 0.0
Zn141 Zn 0.81365 0.00396 0.36707 0.0
O142 O 0.84016 0.98135 0.36768 0.0
O143 O 0.86415 0.99827 0.34535 0.0
O144 O 0.79124 0.99047 0.38844 0.0
O145 O 0.81937 0.01489 0.31184 0.0
O146 O 0.79512 0.00433 0.33746 0.0
C147 C 0.85949 0.98239 0.35861 0.0
C148 C 0.83134 0.05182 0.37171 0.0
O149 O 0.82154 0.03513 0.3808 0.0
O150 O 0.8397 0.05013 0.35232 0.0
C151 C 0.79672 0.98033 0.40634 0.0
O152 O 0.81797 0.97928 0.41202 0.0
C153 C 0.79986 0.00847 0.31702 0.0
Zn154 Zn 0.00304 0.8358 0.32024 0.0
Zn155 Zn 0.99945 0.81885 0.3594 0.0
O156 O 0.03191 0.83171 0.35859 0.0
O157 O 0.03628 0.83945 0.32284 0.0
O158 O 0.99855 0.80368 0.38963 0.0
O159 O 0.99027 0.80927 0.30484 0.0
O160 O 0.99249 0.79227 0.33747 0.0
C161 C 0.0443 0.83814 0.3424 0.0
C162 C 0.97205 0.86018 0.34747 0.0
O163 O 0.97531 0.844 0.36108 0.0
O164 O 0.98285 0.86097 0.32923 0.0
C165 C 0.00293 0.81407 0.4077 0.0
O166 O 0.00709 0.83567 0.40686 0.0
C167 C 0.98837 0.79169 0.31648 0.0
Zn168 Zn 0.15453 0.00374 0.6762 0.0
Zn169 Zn 0.17471 0.00657 0.6372 0.0
O170 O 0.16236 0.97425 0.63808 0.0
O171 O 0.14997 0.97048 0.67258 0.0
O172 O 0.1907 0.00643 0.60764 0.0
O173 O 0.18184 0.01542 0.69183 0.0
O174 O 0.20018 0.01349 0.65986 0.0
C175 C 0.15387 0.96214 0.65348 0.0
C176 C 0.13345 0.03523 0.64627 0.0
O177 O 0.15018 0.03079 0.63374 0.0
O178 O 0.13114 0.02522 0.66484 0.0
C179 C 0.1803 1e-05 0.59022 0.0
O180 O 0.1588 0.99547 0.59173 0.0
C181 C 0.19992 0.01725 0.68089 0.0
Zn182 Zn 0.98035 0.17144 0.65476 0.0
Zn183 Zn 0.98927 0.19302 0.62018 0.0
O184 O 0.01295 0.16736 0.61954 0.0
O185 O 0.99866 0.14512 0.64515 0.0
O186 O 0.99747 0.21197 0.59335 0.0
O187 O 0.99392 0.1936 0.67542 0.0
O188 O 0.99366 0.21608 0.64626 0.0
C189 C 0.01302 0.14869 0.62997 0.0
C190 C 0.94199 0.17519 0.62849 0.0
O191 O 0.95665 0.18169 0.61432 0.0
O192 O 0.94752 0.17208 0.64869 0.0
C193 C 0.00594 0.20415 0.57542 0.0
O194 O 0.0082 0.18237 0.57324 0.0
C195 C 0.99673 0.21287 0.66717 0.0
Zn196 Zn 0.84423 0.0124 0.66063 0.0
Zn197 Zn 0.82362 0.00641 0.62287 0.0
O198 O 0.8359 0.03879 0.62136 0.0
O199 O 0.84731 0.04564 0.65565 0.0
O200 O 0.80764 0.00576 0.59331 0.0
O201 O 0.81803 0.00034 0.67785 0.0
O202 O 0.7985 0.00086 0.6466 0.0
C203 C 0.84368 0.05233 0.63587 0.0
C204 C 0.86586 0.97977 0.63237 0.0
O205 O 0.84831 0.98207 0.62041 0.0
O206 O 0.8685 0.99168 0.64972 0.0
C207 C 0.78878 0.99684 0.58913 0.0
O208 O 0.77878 0.98487 0.60468 0.0
C209 C 0.79956 0.99794 0.66775 0.0
Zn210 Zn 0.00967 0.83521 0.65753 0.0
Zn211 Zn 0.00909 0.81896 0.61842 0.0
O212 O 0.98459 0.84381 0.61585 0.0
O213 O 0.99125 0.86132 0.64756 0.0
O214 O 0.00892 0.8033 0.58846 0.0
O215 O 0.99463 0.80901 0.67167 0.0
O216 O 0.00115 0.79215 0.6396 0.0
C217 C 0.9811 0.8603 0.62899 0.0
C218 C 0.05242 0.83795 0.63841 0.0
O219 O 0.04118 0.83228 0.62114 0.0
O220 O 0.0431 0.83804 0.65744 0.0
C221 C 0.00213 0.81153 0.57002 0.0
O222 O 0.99544 0.83249 0.56936 0.0
C223 C 0.99447 0.79145 0.65989 0.0
Zn224 Zn 0.39215 0.13999 1e-05 0.0
Zn225 Zn 0.41907 0.17545 0.99844 0.0
O226 O 0.42703 0.1595 0.02852 0.0
O227 O 0.40559 0.12945 0.02886 0.0
O228 O 0.43975 0.202 0.99908 0.0
O229 O 0.3654 0.16116 0.9996 0.0
O230 O 0.38791 0.1903 0.99816 0.0
C231 C 0.42054 0.14141 0.03787 0.0
C232 C 0.42008 0.1403 0.96097 0.0
O233 O 0.42671 0.15904 0.96875 0.0
O234 O 0.40567 0.12878 0.97143 0.0
C235 C 0.46033 0.19999 0.0042 0.0
O236 O 0.46862 0.17987 0.00754 0.0
C237 C 0.36816 0.18221 0.99869 0.0
Zn238 Zn 0.3241 0.85642 0.01637 0.0
Zn239 Zn 0.35842 0.83256 0.00203 0.0
O240 O 0.35299 0.85408 0.97541 0.0
O241 O 0.3244 0.87398 0.98752 0.0
O242 O 0.38344 0.8124 0.99113 0.0
O243 O 0.30456 0.82977 0.01965 0.0
O244 O 0.33275 0.80932 0.00757 0.0
C245 C 0.3387 0.86968 0.97242 0.0
C246 C 0.36216 0.86159 0.04455 0.0
O247 O 0.37148 0.84908 0.02991 0.0
O248 O 0.34167 0.8667 0.04287 0.0
C249 C 0.39937 0.81899 0.97857 0.0
O250 O 0.40055 0.84025 0.97297 0.0
C251 C 0.31259 0.81085 0.01459 0.0
Zn252 Zn 0.18355 0.28592 0.01102 0.0
Zn253 Zn 0.20362 0.32298 0.99864 0.0
O254 O 0.17827 0.31982 0.97516 0.0
O255 O 0.16098 0.28924 0.9862 0.0
O256 O 0.21966 0.35061 0.98772 0.0
O257 O 0.21101 0.26743 0.00653 0.0
O258 O 0.22891 0.29856 0.99828 0.0
C259 C 0.16248 0.30565 0.97283 0.0
C260 C 0.18143 0.32009 0.04475 0.0
O261 O 0.1911 0.33188 0.02977 0.0
O262 O 0.1773 0.2996 0.04117 0.0
C263 C 0.20871 0.36822 0.98283 0.0
O264 O 0.18691 0.3685 0.98599 0.0
C265 C 0.229 0.27737 0.00138 0.0
Zn266 Zn 0.67006 0.16182 0.99299 0.0
Zn267 Zn 0.63253 0.18161 0.99828 0.0
O268 O 0.63243 0.17091 0.96503 0.0
O269 O 0.66763 0.16156 0.95953 0.0
O270 O 0.60413 0.19991 0.99948 0.0
O271 O 0.68753 0.18578 0.0083 0.0
O272 O 0.65649 0.20557 0.00699 0.0
C273 C 0.64811 0.16467 0.95191 0.0
C274 C 0.6406 0.13768 0.02233 0.0
O275 O 0.62876 0.15545 0.02109 0.0
O276 O 0.65824 0.13582 0.01069 0.0
C277 C 0.5855 0.19273 0.99209 0.0
O278 O 0.58401 0.17179 0.98549 0.0
C279 C 0.67737 0.2041 0.01135 0.0
Zn280 Zn 0.83721 0.67429 0.01838 0.0
Zn281 Zn 0.814 0.64069 0.00265 0.0
O282 O 0.8387 0.64369 0.97875 0.0
O283 O 0.85981 0.66996 0.99359 0.0
O284 O 0.79478 0.61596 0.99046 0.0
O285 O 0.81222 0.69585 0.01351 0.0
O286 O 0.79151 0.66737 0.00279 0.0
C287 C 0.85611 0.65601 0.97804 0.0
C288 C 0.83564 0.63825 0.04931 0.0
O289 O 0.82606 0.62847 0.03291 0.0
O290 O 0.84086 0.65873 0.04793 0.0
C291 C 0.8028 0.59782 0.98275 0.0
O292 O 0.82453 0.59437 0.98372 0.0
C293 C 0.79366 0.68826 0.00672 0.0
Zn294 Zn 0.66427 0.84778 0.00462 0.0
Zn295 Zn 0.62911 0.8265 0.99344 0.0
O296 O 0.62285 0.83697 0.02606 0.0
O297 O 0.65608 0.84829 0.03711 0.0
O298 O 0.60179 0.80758 0.98779 0.0
O299 O 0.68497 0.82419 0.99356 0.0
O300 O 0.65498 0.80316 0.98996 0.0
C301 C 0.63583 0.84391 0.04149 0.0
C302 C 0.63999 0.87044 0.97015 0.0
O303 O 0.62854 0.85237 0.96997 0.0
O304 O 0.65538 0.87303 0.98449 0.0
C305 C 0.58256 0.8143 0.99404 0.0
O306 O 0.58037 0.83493 0.0014 0.0
C307 C 0.67626 0.80533 0.98952 0.0
Zn308 Zn 0.14486 0.68803 0.99755 0.0
Zn309 Zn 0.16883 0.6509 0.997 0.0
O310 O 0.14861 0.64685 0.02508 0.0
O311 O 0.12855 0.6778 0.02515 0.0
O312 O 0.18831 0.62348 0.99807 0.0
O313 O 0.17216 0.70683 0.00159 0.0
O314 O 0.19265 0.67624 0.99976 0.0
C315 C 0.13365 0.65921 0.03401 0.0
C316 C 0.13941 0.66283 0.95679 0.0
O317 O 0.15244 0.64893 0.96648 0.0
O318 O 0.13393 0.68086 0.96652 0.0
C319 C 0.18084 0.60445 0.00398 0.0
O320 O 0.15933 0.60215 0.00813 0.0
C321 C 0.19117 0.69746 0.00185 0.0
Zn322 Zn 0.84166 0.32446 0.02396 0.0
Zn323 Zn 0.81958 0.36242 0.01719 0.0
O324 O 0.84187 0.36977 0.04277 0.0
O325 O 0.85934 0.3379 0.04918 0.0
O326 O 0.80078 0.39038 0.01619 0.0
O327 O 0.81386 0.30754 0.03127 0.0
O328 O 0.79504 0.33816 0.02306 0.0
C329 C 0.85619 0.35834 0.05371 0.0
C330 C 0.8475 0.34392 0.97927 0.0
O331 O 0.83536 0.35989 0.98659 0.0
O332 O 0.8519 0.32721 0.99165 0.0
C333 C 0.80895 0.40986 0.01886 0.0
O334 O 0.8308 0.41224 0.0201 0.0
C335 C 0.79536 0.31759 0.02891 0.0
Zn336 Zn 0.47765 0.86333 0.64042 0.0
Zn337 Zn 0.48398 0.893 0.67261 0.0
O338 O 0.51278 0.89438 0.65282 0.0
O339 O 0.50611 0.8714 0.62476 0.0
O340 O 0.4905 0.91698 0.69537 0.0
O341 O 0.47693 0.83928 0.6644 0.0
O342 O 0.48166 0.86402 0.69131 0.0
C343 C 0.51875 0.88535 0.63439 0.0
C344 C 0.44246 0.89528 0.642 0.0
O345 O 0.4535 0.90277 0.65867 0.0
O346 O 0.44945 0.87855 0.63108 0.0
C347 C 0.49405 0.93696 0.68886 0.0
O348 O 0.49215 0.94172 0.66744 0.0
C349 C 0.47885 0.84379 0.68507 0.0
Zn350 Zn 0.13773 0.49067 0.66429 0.0
Zn351 Zn 0.10772 0.48517 0.69597 0.0
O352 O 0.09727 0.51327 0.67804 0.0
O353 O 0.11971 0.51442 0.64878 0.0
O354 O 0.08404 0.48397 0.71999 0.0
O355 O 0.16091 0.49852 0.68754 0.0
O356 O 0.13701 0.4894 0.71411 0.0
C357 C 0.10303 0.52199 0.65941 0.0
C358 C 0.11866 0.44668 0.66417 0.0
O359 O 0.10608 0.45447 0.6796 0.0
O360 O 0.1339 0.45861 0.65554 0.0
C361 C 0.06341 0.48534 0.71481 0.0
O362 O 0.05777 0.4851 0.69353 0.0
C363 C 0.15663 0.49541 0.7081 0.0
Zn364 Zn 0.47989 0.14817 0.6637 0.0
Zn365 Zn 0.49473 0.11186 0.68149 0.0
O366 O 0.46229 0.10449 0.67078 0.0
O367 O 0.44816 0.13743 0.66237 0.0
O368 O 0.50288 0.08319 0.69735 0.0
O369 O 0.49033 0.16696 0.68912 0.0
O370 O 0.4987 0.13571 0.70685 0.0
C371 C 0.44568 0.11656 0.66487 0.0
C372 C 0.51646 0.12901 0.63885 0.0
O373 O 0.51742 0.11559 0.65548 0.0
O374 O 0.50091 0.14343 0.6378 0.0
C375 C 0.49864 0.0642 0.68869 0.0
O376 O 0.49141 0.06339 0.66792 0.0
C377 C 0.49719 0.15703 0.70651 0.0
Zn378 Zn 0.86632 0.51561 0.66093 0.0
Zn379 Zn 0.89365 0.51012 0.69412 0.0
O380 O 0.89833 0.48138 0.67499 0.0
O381 O 0.87912 0.48915 0.6445 0.0
O382 O 0.91455 0.50453 0.72016 0.0
O383 O 0.83952 0.51262 0.6808 0.0
O384 O 0.8623 0.51245 0.70971 0.0
C385 C 0.89224 0.47637 0.65515 0.0
C386 C 0.89669 0.55175 0.66401 0.0
O387 O 0.9057 0.53929 0.67888 0.0
O388 O 0.87861 0.54596 0.65467 0.0
C389 C 0.93489 0.49894 0.71705 0.0
O390 O 0.94274 0.49815 0.69649 0.0
C391 C 0.84242 0.51255 0.7018 0.0
Zn392 Zn 0.50813 0.18034 0.35038 0.0
Zn393 Zn 0.50949 0.14585 0.32482 0.0
O394 O 0.54154 0.14742 0.33808 0.0
O395 O 0.54163 0.18099 0.35321 0.0
O396 O 0.51206 0.11997 0.30352 0.0
O397 O 0.49325 0.19925 0.32711 0.0
O398 O 0.50112 0.17211 0.30353 0.0
C399 C 0.55198 0.16331 0.34776 0.0
C400 C 0.48126 0.14445 0.3671 0.0
O401 O 0.48546 0.13594 0.34797 0.0
O402 O 0.49011 0.16285 0.37275 0.0
C403 C 0.52051 0.1015 0.30989 0.0
O404 O 0.52633 0.0991 0.33099 0.0
C405 C 0.49407 0.19192 0.30726 0.0
Zn406 Zn 0.81955 0.48121 0.34789 0.0
Zn407 Zn 0.85824 0.48177 0.32736 0.0
O408 O 0.85855 0.51143 0.34545 0.0
O409 O 0.82511 0.51169 0.36096 0.0
O410 O 0.88679 0.48395 0.30936 0.0
O411 O 0.80227 0.47794 0.31977 0.0
O412 O 0.83434 0.48021 0.30169 0.0
C413 C 0.84385 0.52104 0.35761 0.0
C414 C 0.8475 0.44444 0.36098 0.0
O415 O 0.86152 0.45321 0.34737 0.0
O416 O 0.82856 0.45343 0.36408 0.0
C417 C 0.90467 0.49268 0.31696 0.0
O418 O 0.9054 0.4989 0.33806 0.0
C419 C 0.81303 0.47832 0.30154 0.0
Zn420 Zn 0.47116 0.79277 0.35065 0.0
Zn421 Zn 0.47983 0.83282 0.33278 0.0
O422 O 0.45165 0.83793 0.35251 0.0
O423 O 0.44326 0.80438 0.36543 0.0
O424 O 0.48351 0.86248 0.3168 0.0
O425 O 0.46826 0.77856 0.32057 0.0
O426 O 0.47598 0.81135 0.30557 0.0
C427 C 0.43894 0.82506 0.36388 0.0
C428 C 0.51428 0.81162 0.36394 0.0
O429 O 0.50861 0.82807 0.35149 0.0
O430 O 0.50132 0.79492 0.36604 0.0
C431 C 0.47702 0.88113 0.32482 0.0
O432 O 0.46917 0.88183 0.34538 0.0
C433 C 0.47118 0.79064 0.30341 0.0
Zn434 Zn 0.18692 0.52653 0.35532 0.0
Zn435 Zn 0.15087 0.51006 0.33493 0.0
O436 O 0.15922 0.48415 0.35596 0.0
O437 O 0.18886 0.49762 0.37322 0.0
O438 O 0.12459 0.4976 0.31799 0.0
O439 O 0.20347 0.52977 0.32632 0.0
O440 O 0.17365 0.51645 0.30932 0.0
C441 C 0.1748 0.48196 0.37037 0.0
C442 C 0.14735 0.55232 0.36396 0.0
O443 O 0.13799 0.53693 0.3525 0.0
O444 O 0.16836 0.55227 0.36683 0.0
C445 C 0.11718 0.50716 0.30046 0.0
O446 O 0.12622 0.52614 0.29393 0.0
C447 C 0.19359 0.5241 0.30846 0.0
Zn448 Zn 0.65591 0.50262 0.80128 0.0
Zn449 Zn 0.67437 0.51396 0.83943 0.0
O450 O 0.65038 0.53885 0.83511 0.0
O451 O 0.63458 0.52864 0.80345 0.0
O452 O 0.68965 0.52346 0.86787 0.0
O453 O 0.6846 0.50619 0.78447 0.0
O454 O 0.70098 0.51396 0.8165 0.0
C455 C 0.63583 0.54209 0.8198 0.0
C456 C 0.65171 0.46827 0.83465 0.0
O457 O 0.66106 0.48279 0.8472 0.0
O458 O 0.64822 0.47246 0.81417 0.0
C459 C 0.70793 0.51445 0.87408 0.0
O460 O 0.7165 0.49813 0.86205 0.0
C461 C 0.70215 0.51085 0.79536 0.0
Zn462 Zn 0.47016 0.66811 0.80206 0.0
Zn463 Zn 0.47945 0.69046 0.8385 0.0
O464 O 0.451 0.67174 0.84633 0.0
O465 O 0.44172 0.65557 0.81455 0.0
O466 O 0.4818 0.71077 0.86557 0.0
O467 O 0.46888 0.69496 0.78258 0.0
O468 O 0.47699 0.71437 0.81276 0.0
C469 C 0.43782 0.65936 0.83501 0.0
C470 C 0.51305 0.65607 0.82224 0.0
O471 O 0.50818 0.67073 0.83705 0.0
O472 O 0.49958 0.65221 0.8063 0.0
C473 C 0.47565 0.70467 0.88506 0.0
O474 O 0.47028 0.6836 0.88847 0.0
C475 C 0.47275 0.71361 0.79179 0.0
Zn476 Zn 0.33983 0.50157 0.81356 0.0
Zn477 Zn 0.31896 0.48916 0.85052 0.0
O478 O 0.34299 0.46457 0.84516 0.0
O479 O 0.35974 0.4745 0.81388 0.0
O480 O 0.30378 0.47663 0.87799 0.0
O481 O 0.31123 0.50128 0.79631 0.0
O482 O 0.29322 0.49119 0.82687 0.0
C483 C 0.35763 0.46092 0.83002 0.0
C484 C 0.34328 0.53408 0.84902 0.0
O485 O 0.33176 0.52002 0.86027 0.0
O486 O 0.34881 0.53 0.82897 0.0
C487 C 0.2834 0.47983 0.88334 0.0
O488 O 0.27101 0.49328 0.87108 0.0
C489 C 0.29307 0.49638 0.80611 0.0
Zn490 Zn 0.51866 0.32915 0.81259 0.0
Zn491 Zn 0.51127 0.31258 0.85243 0.0
O492 O 0.54012 0.33192 0.857 0.0
O493 O 0.54635 0.3446 0.82288 0.0
O494 O 0.50774 0.29665 0.88209 0.0
O495 O 0.52199 0.29951 0.79809 0.0
O496 O 0.51406 0.28488 0.83099 0.0
C497 C 0.55195 0.34327 0.84325 0.0
C498 C 0.47638 0.3434 0.83135 0.0
O499 O 0.48263 0.33192 0.84829 0.0
O500 O 0.48867 0.34438 0.81407 0.0
C501 C 0.51288 0.30486 0.90105 0.0
O502 O 0.51938 0.32585 0.90223 0.0
C503 C 0.51881 0.28249 0.81027 0.0
Zn504 Zn 0.65882 0.52894 0.17546 0.0
Zn505 Zn 0.67726 0.51507 0.13877 0.0
O506 O 0.64991 0.49395 0.14151 0.0
O507 O 0.63217 0.509 0.17008 0.0
O508 O 0.69251 0.50393 0.11088 0.0
O509 O 0.68388 0.51744 0.19423 0.0
O510 O 0.7019 0.50972 0.16301 0.0
C511 C 0.63304 0.49451 0.15463 0.0
C512 C 0.66217 0.56401 0.1438 0.0
O513 O 0.66831 0.54787 0.13122 0.0
O514 O 0.65876 0.56065 0.16445 0.0
C515 C 0.71151 0.5115 0.10495 0.0
O516 O 0.72075 0.52762 0.11675 0.0
C517 C 0.70128 0.51047 0.18436 0.0
Zn518 Zn 0.50175 0.657 0.15286 0.0
Zn519 Zn 0.49673 0.68249 0.11943 0.0
O520 O 0.52988 0.67163 0.11734 0.0
O521 O 0.53518 0.65725 0.15081 0.0
O522 O 0.49522 0.70375 0.09329 0.0
O523 O 0.48636 0.67814 0.17361 0.0
O524 O 0.48904 0.70308 0.14663 0.0
C525 C 0.54291 0.66325 0.13203 0.0
C526 C 0.47185 0.63819 0.12112 0.0
O527 O 0.47308 0.6578 0.1127 0.0
O528 O 0.48415 0.63291 0.13755 0.0
C529 C 0.50206 0.69759 0.07408 0.0
O530 O 0.50834 0.67669 0.07122 0.0
C531 C 0.4842 0.69809 0.16686 0.0
Zn532 Zn 0.33536 0.49306 0.16016 0.0
Zn533 Zn 0.30897 0.50125 0.12776 0.0
O534 O 0.33459 0.52403 0.12194 0.0
O535 O 0.35974 0.51117 0.14558 0.0
O536 O 0.28684 0.50797 0.10332 0.0
O537 O 0.31528 0.50696 0.183 0.0
O538 O 0.28979 0.50699 0.15645 0.0
C539 C 0.35444 0.52431 0.12981 0.0
C540 C 0.32689 0.45406 0.13503 0.0
O541 O 0.31847 0.46839 0.12163 0.0
O542 O 0.33347 0.46009 0.15423 0.0
C543 C 0.29272 0.51317 0.08352 0.0
O544 O 0.31413 0.5136 0.07836 0.0
C545 C 0.29523 0.51002 0.17689 0.0
Zn546 Zn 0.47329 0.35861 0.18119 0.0
Zn547 Zn 0.48793 0.33557 0.14731 0.0
O548 O 0.45581 0.34444 0.13736 0.0
O549 O 0.44232 0.35924 0.16833 0.0
O550 O 0.49838 0.31685 0.12133 0.0
O551 O 0.48088 0.33444 0.20285 0.0
O552 O 0.48921 0.31308 0.17404 0.0
C553 C 0.43951 0.35274 0.14838 0.0
C554 C 0.51035 0.38002 0.15981 0.0
O555 O 0.51043 0.36203 0.1483 0.0
O556 O 0.49539 0.38307 0.17454 0.0
C557 C 0.49612 0.32383 0.10134 0.0
O558 O 0.48799 0.344 0.09789 0.0
C559 C 0.4865 0.31554 0.19511 0.0
Zn560 Zn 0.84872 0.64717 0.51483 0.0
Zn561 Zn 0.87902 0.67602 0.50156 0.0
O562 O 0.89275 0.66152 0.53015 0.0
O563 O 0.86899 0.63452 0.53845 0.0
O564 O 0.90247 0.69911 0.49392 0.0
O565 O 0.82723 0.67178 0.52247 0.0
O566 O 0.8507 0.69568 0.50708 0.0
C567 C 0.88709 0.64484 0.54221 0.0
C568 C 0.86249 0.64005 0.4693 0.0
O569 O 0.87682 0.6553 0.47362 0.0
O570 O 0.84816 0.63433 0.48386 0.0
C571 C 0.92322 0.69425 0.49406 0.0
O572 O 0.92927 0.67333 0.49725 0.0
C573 C 0.83181 0.69152 0.51623 0.0
Zn574 Zn 0.84637 0.3343 0.53475 0.0
Zn575 Zn 0.88293 0.31135 0.52467 0.0
O576 O 0.87796 0.32985 0.49587 0.0
O577 O 0.84656 0.34762 0.50358 0.0
O578 O 0.90946 0.29203 0.51643 0.0
O579 O 0.82872 0.30675 0.54096 0.0
O580 O 0.85823 0.28715 0.53071 0.0
C581 C 0.86237 0.34323 0.4901 0.0
C582 C 0.88289 0.34483 0.56383 0.0
O583 O 0.89354 0.33092 0.55155 0.0
O584 O 0.86245 0.34903 0.56016 0.0
C585 C 0.92587 0.29942 0.50501 0.0
O586 O 0.92648 0.32078 0.49971 0.0
C587 C 0.83789 0.28801 0.53733 0.0
Zn588 Zn 0.65253 0.80246 0.52177 0.0
Zn589 Zn 0.67408 0.83728 0.50424 0.0
O590 O 0.65233 0.82971 0.47852 0.0
O591 O 0.63468 0.80064 0.49286 0.0
O592 O 0.69295 0.86265 0.49248 0.0
O593 O 0.68076 0.78471 0.5254 0.0
O594 O 0.69866 0.81336 0.5107 0.0
C595 C 0.63755 0.81438 0.4769 0.0
C596 C 0.64557 0.84271 0.54688 0.0
O597 O 0.65736 0.85122 0.53121 0.0
O598 O 0.6417 0.82187 0.54723 0.0
C599 C 0.68579 0.87855 0.48027 0.0
O600 O 0.66448 0.87918 0.47476 0.0
C601 C 0.69888 0.79366 0.51901 0.0
Zn602 Zn 0.13211 0.65189 0.5356 0.0
Zn603 Zn 0.09947 0.67929 0.52644 0.0
O604 O 0.10178 0.65982 0.49803 0.0
O605 O 0.12497 0.63308 0.50838 0.0
O606 O 0.07375 0.69957 0.51782 0.0
O607 O 0.15444 0.67677 0.53374 0.0
O608 O 0.12677 0.70083 0.53007 0.0
C609 C 0.1118 0.64142 0.49401 0.0
C610 C 0.09863 0.64935 0.56867 0.0
O611 O 0.08821 0.66176 0.55468 0.0
O612 O 0.11883 0.64401 0.56522 0.0
C613 C 0.07151 0.71998 0.52347 0.0
O614 O 0.08618 0.72902 0.53715 0.0
C615 C 0.14769 0.6968 0.53202 0.0
Zn616 Zn 0.3491 0.14232 0.52005 0.0
Zn617 Zn 0.32317 0.11181 0.50615 0.0
O618 O 0.34942 0.11065 0.4832 0.0
O619 O 0.37406 0.13213 0.50009 0.0
O620 O 0.30153 0.08901 0.49395 0.0
O621 O 0.32906 0.1671 0.51025 0.0
O622 O 0.3038 0.14092 0.50482 0.0
C623 C 0.36908 0.11894 0.4843 0.0
C624 C 0.34005 0.11125 0.5544 0.0
O625 O 0.33169 0.10027 0.53809 0.0
O626 O 0.34707 0.131 0.55142 0.0
C627 C 0.30765 0.0702 0.48609 0.0
O628 O 0.32891 0.06455 0.487 0.0
C629 C 0.30916 0.16159 0.50557 0.0
Zn630 Zn 0.19637 0.33688 0.52276 0.0
Zn631 Zn 0.15938 0.31713 0.50903 0.0
O632 O 0.15197 0.32983 0.54049 0.0
O633 O 0.1838 0.3431 0.55337 0.0
O634 O 0.13091 0.30015 0.50254 0.0
O635 O 0.21447 0.30938 0.51725 0.0
O636 O 0.18357 0.292 0.50721 0.0
C637 C 0.1632 0.33896 0.55615 0.0
C638 C 0.17697 0.35738 0.48312 0.0
O639 O 0.16248 0.34172 0.48465 0.0
O640 O 0.19241 0.35899 0.4976 0.0
C641 C 0.11193 0.30896 0.50663 0.0
O642 O 0.11109 0.33016 0.51248 0.0
C643 C 0.20468 0.29182 0.5106 0.0
Zn644 Zn 0.66706 0.18538 0.50111 0.0
Zn645 Zn 0.68292 0.14447 0.5036 0.0
O646 O 0.65647 0.14437 0.52595 0.0
O647 O 0.64094 0.17738 0.52093 0.0
O648 O 0.69411 0.11303 0.50731 0.0
O649 O 0.69518 0.1975 0.51485 0.0
O650 O 0.71046 0.164 0.51234 0.0
C651 C 0.64091 0.15834 0.53027 0.0
C652 C 0.6665 0.16278 0.45876 0.0
O653 O 0.67286 0.1462 0.47062 0.0
O654 O 0.66419 0.18192 0.46763 0.0
C655 C 0.71103 0.10481 0.49736 0.0
O656 O 0.72225 0.11723 0.48304 0.0
C657 C 0.71199 0.18477 0.51711 0.0
Zn658 Zn 0.31677 0.82531 0.52563 0.0
Zn659 Zn 0.28993 0.85789 0.51323 0.0
O660 O 0.30662 0.86979 0.54128 0.0
O661 O 0.32391 0.84025 0.55492 0.0
O662 O 0.2692 0.88359 0.50697 0.0
O663 O 0.29132 0.80326 0.52428 0.0
O664 O 0.26816 0.83118 0.51781 0.0
C665 C 0.31844 0.86065 0.55652 0.0
C666 C 0.32863 0.84548 0.48307 0.0
O667 O 0.31005 0.8557 0.48537 0.0
O668 O 0.33578 0.83254 0.49831 0.0
C669 C 0.27709 0.90333 0.50586 0.0
O670 O 0.29892 0.90615 0.50674 0.0
C671 C 0.27153 0.8104 0.52151 0.0
H672 H 0.10163 0.51983 0.25912 0.0
H673 H 0.03605 0.40466 0.24002 0.0
H674 H 0.09464 0.46822 0.30936 0.0
H675 H 0.04847 0.45291 0.18752 0.0
H676 H 0.05238 0.43051 0.26708 0.0
H677 H 0.07724 0.4983 0.23427 0.0
C678 C 0.09478 0.50411 0.26504 0.0
C679 C 0.10042 0.49569 0.28627 0.0
C680 C 0.05137 0.43554 0.24968 0.0
C681 C 0.07256 0.47095 0.25787 0.0
C682 C 0.04202 0.42079 0.23419 0.0
C683 C 0.04116 0.4265 0.21139 0.0
C684 C 0.06001 0.45617 0.24235 0.0
C685 C 0.04898 0.44771 0.20489 0.0
C686 C 0.08088 0.4918 0.25081 0.0
C687 C 0.09094 0.47526 0.29306 0.0
N688 N 0.05827 0.4617 0.22026 0.0
N689 N 0.07764 0.46352 0.27884 0.0
H690 H 0.59736 0.00292 0.23958 0.0
H691 H 0.51043 0.10079 0.26512 0.0
H692 H 0.55853 0.03608 0.18834 0.0
H693 H 0.54455 0.06298 0.31651 0.0
H694 H 0.52484 0.07479 0.23703 0.0
H695 H 0.57538 0.02217 0.26814 0.0
C696 C 0.58406 0.0141 0.23432 0.0
C697 C 0.57997 0.01811 0.21152 0.0
C698 C 0.52897 0.07202 0.25447 0.0
C699 C 0.5548 0.04037 0.24419 0.0
C700 C 0.52074 0.08687 0.27054 0.0
C701 C 0.52654 0.08424 0.29318 0.0
C702 C 0.54325 0.05451 0.26106 0.0
C703 C 0.5398 0.06578 0.29923 0.0
C704 C 0.57148 0.02508 0.25066 0.0
C705 C 0.56238 0.0326 0.20572 0.0
N706 N 0.54793 0.05179 0.28323 0.0
N707 N 0.55062 0.04342 0.22195 0.0
H708 H 0.96957 0.53384 0.19561 0.0
H709 H 0.94152 0.51871 0.32557 0.0
H710 H 0.993 0.57832 0.24755 0.0
H711 H 0.90889 0.48206 0.27249 0.0
H712 H 0.96734 0.53468 0.29805 0.0
H713 H 0.95444 0.50894 0.2244 0.0
C714 C 0.9719 0.53819 0.21306 0.0
C715 C 0.98221 0.55843 0.21915 0.0
C716 C 0.95472 0.5229 0.29248 0.0
C717 C 0.96478 0.53004 0.25218 0.0
C718 C 0.94 0.51371 0.3082 0.0
C719 C 0.92274 0.49931 0.30128 0.0
C720 C 0.9522 0.51763 0.26969 0.0
C721 C 0.92173 0.49333 0.27855 0.0
C722 C 0.96318 0.52399 0.2295 0.0
C723 C 0.98488 0.56307 0.24206 0.0
N724 N 0.93606 0.50272 0.26354 0.0
N725 N 0.97597 0.54913 0.25772 0.0
H726 H 0.45671 0.92135 0.33379 0.0
H727 H 0.46441 0.96298 0.20656 0.0
H728 H 0.49237 0.88591 0.28177 0.0
H729 H 0.4191 0.99104 0.2555 0.0
H730 H 0.48054 0.93923 0.23577 0.0
H731 H 0.4487 0.95144 0.30716 0.0
C732 C 0.46315 0.92002 0.31687 0.0
C733 C 0.47498 0.90091 0.30994 0.0
C734 C 0.46722 0.95076 0.24016 0.0
C735 C 0.46577 0.93529 0.27935 0.0
C736 C 0.45803 0.96438 0.2235 0.0
C737 C 0.44015 0.97883 0.22851 0.0
C738 C 0.45853 0.9516 0.26202 0.0
C739 C 0.43269 0.97998 0.2508 0.0
C740 C 0.45849 0.93719 0.30165 0.0
C741 C 0.48297 0.9002 0.28781 0.0
N742 N 0.44178 0.96641 0.26668 0.0
N743 N 0.47805 0.91703 0.27326 0.0
H744 H 0.06845 0.48568 0.76044 0.0
H745 H 0.97724 0.57999 0.77147 0.0
H746 H 0.02097 0.50162 0.70829 0.0
H747 H 0.01837 0.55758 0.82655 0.0
H748 H 0.98759 0.54636 0.75063 0.0
H749 H 0.04519 0.50603 0.78722 0.0
C750 C 0.0529 0.49308 0.7547 0.0
C751 C 0.04698 0.49249 0.73196 0.0
C752 C 0.99406 0.54857 0.76742 0.0
C753 C 0.02048 0.51619 0.76245 0.0
C754 C 0.98818 0.56782 0.77933 0.0
C755 C 0.99738 0.57186 0.80058 0.0
C756 C 0.00959 0.53347 0.77666 0.0
C757 C 0.01115 0.55532 0.81008 0.0
C758 C 0.0396 0.50473 0.77002 0.0
C759 C 0.02644 0.50203 0.72557 0.0
N760 N 0.01722 0.53709 0.79787 0.0
N761 N 0.0142 0.51394 0.74063 0.0
H762 H 0.41154 0.98312 0.75725 0.0
H763 H 0.51475 0.05839 0.7313 0.0
H764 H 0.45715 0.00695 0.80797 0.0
H765 H 0.47557 0.02544 0.68032 0.0
H766 H 0.50031 0.03191 0.75893 0.0
H767 H 0.4401 0.99017 0.72884 0.0
C768 C 0.42775 0.98939 0.76248 0.0
C769 C 0.43173 0.99509 0.78492 0.0
C770 C 0.4952 0.03014 0.74162 0.0
C771 C 0.46436 0.00367 0.75242 0.0
C772 C 0.50349 0.04526 0.72581 0.0
C773 C 0.49573 0.04462 0.70363 0.0
C774 C 0.4787 0.0146 0.73526 0.0
C775 C 0.48159 0.02692 0.69735 0.0
C776 C 0.4441 0.99341 0.74623 0.0
C777 C 0.45318 0.00274 0.79079 0.0
N778 N 0.47303 0.013 0.71321 0.0
N779 N 0.4685 0.00736 0.77457 0.0
H780 H 0.92472 0.49956 0.76185 0.0
H781 H 0.01428 0.40536 0.78978 0.0
H782 H 0.9757 0.47783 0.71534 0.0
H783 H 0.96725 0.43159 0.83808 0.0
H784 H 0.00447 0.43586 0.76429 0.0
H785 H 0.9439 0.47922 0.79171 0.0
C786 C 0.94011 0.49076 0.75796 0.0
C787 C 0.94833 0.49002 0.73593 0.0
C788 C 0.99652 0.43515 0.78059 0.0
C789 C 0.97029 0.46645 0.77005 0.0
C790 C 0.00213 0.41772 0.79518 0.0
C791 C 0.99129 0.41566 0.81598 0.0
C792 C 0.97973 0.45049 0.7867 0.0
C793 C 0.97587 0.43233 0.82214 0.0
C794 C 0.95109 0.47914 0.77505 0.0
C795 C 0.96854 0.4786 0.73199 0.0
N796 N 0.97028 0.44881 0.80742 0.0
N797 N 0.97861 0.46696 0.74879 0.0
H798 H 0.58307 0.03666 0.74131 0.0
H799 H 0.49808 0.93371 0.73444 0.0
H800 H 0.57387 0.98748 0.79359 0.0
H801 H 0.51198 0.9781 0.67902 0.0
H802 H 0.51966 0.95827 0.75895 0.0
H803 H 0.55143 0.02026 0.72101 0.0
C804 C 0.57425 0.0226 0.74866 0.0
C805 C 0.58141 0.01315 0.76898 0.0
C806 C 0.51781 0.96277 0.74147 0.0
C807 C 0.54528 0.99431 0.74584 0.0
C808 C 0.50545 0.94876 0.72746 0.0
C809 C 0.50365 0.95357 0.70453 0.0
C810 C 0.52866 0.98162 0.73245 0.0
C811 C 0.51324 0.97352 0.69652 0.0
C812 C 0.55621 0.01323 0.73705 0.0
C813 C 0.5692 0.99508 0.7778 0.0
N814 N 0.52565 0.98663 0.71039 0.0
N815 N 0.55191 0.98612 0.76607 0.0
H816 H 0.24917 0.98012 0.38945 0.0
H817 H 0.26268 0.07738 0.48049 0.0
H818 H 0.1981 0.02922 0.40415 0.0
H819 H 0.31561 0.03123 0.46305 0.0
H820 H 0.23716 0.05667 0.45625 0.0
H821 H 0.272 0.99542 0.41978 0.0
C822 C 0.24265 0.99398 0.39917 0.0
C823 C 0.22177 0.00356 0.39407 0.0
C824 C 0.2543 0.05094 0.45785 0.0
C825 C 0.24788 0.02119 0.42879 0.0
C826 C 0.2689 0.06275 0.47174 0.0
C827 C 0.29142 0.0562 0.47362 0.0
C828 C 0.26224 0.03246 0.44566 0.0
C829 C 0.29845 0.037 0.46199 0.0
C830 C 0.25572 0.00273 0.41648 0.0
C831 C 0.21416 0.02142 0.40734 0.0
N832 N 0.28397 0.02593 0.44834 0.0
N833 N 0.22728 0.02976 0.42395 0.0
H834 H 0.93053 0.25452 0.51347 0.0
H835 H 0.99972 0.23442 0.40162 0.0
H836 H 0.9576 0.30795 0.47287 0.0
H837 H 0.97661 0.18113 0.44477 0.0
H838 H 0.98998 0.26153 0.43065 0.0
H839 H 0.95254 0.2276 0.49192 0.0
C840 C 0.94134 0.26064 0.50022 0.0
C841 C 0.9419 0.2835 0.49472 0.0
C842 C 0.98736 0.24388 0.43392 0.0
C843 C 0.96698 0.2527 0.46978 0.0
C844 C 0.99297 0.22836 0.41734 0.0
C845 C 0.9886 0.20547 0.42058 0.0
C846 C 0.97712 0.2365 0.45381 0.0
C847 C 0.98002 0.19862 0.4414 0.0
C848 C 0.95393 0.24524 0.48791 0.0
C849 C 0.95643 0.29046 0.47756 0.0
N850 N 0.97422 0.2141 0.45706 0.0
N851 N 0.96811 0.27509 0.46547 0.0
H852 H 0.73023 0.88335 0.49045 0.0
H853 H 0.75132 0.97943 0.39952 0.0
H854 H 0.67759 0.91245 0.45026 0.0
H855 H 0.80295 0.95311 0.44282 0.0
H856 H 0.7237 0.95655 0.41924 0.0
H857 H 0.75668 0.9101 0.47448 0.0
C858 C 0.72419 0.89543 0.47832 0.0
C859 C 0.70165 0.89554 0.47158 0.0
C860 C 0.74104 0.95589 0.42454 0.0
C861 C 0.73196 0.92625 0.45314 0.0
C862 C 0.75685 0.96896 0.41328 0.0
C863 C 0.77955 0.96807 0.41941 0.0
C864 C 0.74797 0.94171 0.44199 0.0
C865 C 0.78567 0.95427 0.43745 0.0
C866 C 0.73933 0.91074 0.46923 0.0
C867 C 0.6948 0.91169 0.4559 0.0
N868 N 0.77 0.94152 0.44798 0.0
N869 N 0.70993 0.9263 0.44711 0.0
H870 H 0.01794 0.8298 0.44821 0.0
H871 H 0.03766 0.70645 0.49565 0.0
H872 H 0.99575 0.76937 0.41533 0.0
H873 H 0.06728 0.7658 0.52438 0.0
H874 H 0.01492 0.73011 0.47127 0.0
H875 H 0.02878 0.80749 0.48085 0.0
C876 C 0.01505 0.81189 0.44794 0.0
C877 C 0.00633 0.80139 0.42879 0.0
C878 C 0.02623 0.73798 0.48305 0.0
C879 C 0.01882 0.77577 0.46607 0.0
C880 C 0.03921 0.72447 0.49704 0.0
C881 C 0.05482 0.73413 0.51172 0.0
C882 C 0.02896 0.76134 0.48362 0.0
C883 C 0.05574 0.7576 0.51306 0.0
C884 C 0.02129 0.79916 0.46659 0.0
C885 C 0.00275 0.77816 0.42955 0.0
N886 N 0.04327 0.7704 0.49891 0.0
N887 N 0.00926 0.76611 0.44774 0.0
H888 H 0.22407 0.00936 0.58012 0.0
H889 H 0.2314 0.90418 0.50193 0.0
H890 H 0.16589 0.97469 0.55485 0.0
H891 H 0.28813 0.94647 0.51675 0.0
H892 H 0.20642 0.93365 0.51527 0.0
H893 H 0.24693 0.991 0.55163 0.0
C894 C 0.21602 0.99821 0.5683 0.0
C895 C 0.19314 0.99314 0.5702 0.0
C896 C 0.22431 0.9367 0.51519 0.0
C897 C 0.21926 0.97178 0.53776 0.0
C898 C 0.23859 0.91985 0.50758 0.0
C899 C 0.2619 0.92266 0.50874 0.0
C900 C 0.23342 0.95635 0.52439 0.0
C901 C 0.27027 0.94344 0.51588 0.0
C902 C 0.22909 0.98773 0.552 0.0
C903 C 0.18354 0.97883 0.55422 0.0
N904 N 0.25606 0.9593 0.52391 0.0
N905 N 0.19674 0.96827 0.53898 0.0
H906 H 0.03304 0.1936 0.53982 0.0
H907 H 0.07034 0.32085 0.52204 0.0
H908 H 0.00295 0.24993 0.57376 0.0
H909 H 0.10804 0.26396 0.49804 0.0
H910 H 0.04021 0.29557 0.53339 0.0
H911 H 0.05506 0.21963 0.51707 0.0
C912 C 0.03077 0.21144 0.54225 0.0
C913 C 0.01641 0.21958 0.55902 0.0
C914 C 0.05494 0.28865 0.52534 0.0
C915 C 0.04164 0.24944 0.53308 0.0
C916 C 0.07214 0.30309 0.51877 0.0
C917 C 0.09195 0.29449 0.50943 0.0
C918 C 0.05754 0.26544 0.52257 0.0
C919 C 0.09321 0.27133 0.50546 0.0
C920 C 0.04341 0.22629 0.52929 0.0
C921 C 0.01406 0.24288 0.56128 0.0
N922 N 0.07638 0.25758 0.51232 0.0
N923 N 0.02674 0.25697 0.54865 0.0
H924 H 0.74473 0.98896 0.57821 0.0
H925 H 0.69008 0.07381 0.52372 0.0
H926 H 0.80444 0.02201 0.5542 0.0
H927 H 0.75152 0.08542 0.48732 0.0
H928 H 0.70667 0.0409 0.54073 0.0
H929 H 0.72295 0.0087 0.54981 0.0
C930 C 0.7533 0.00019 0.56681 0.0
C931 C 0.77632 0.00439 0.56908 0.0
C932 C 0.71643 0.05006 0.52852 0.0
C933 C 0.75138 0.02783 0.53712 0.0
C934 C 0.70696 0.06912 0.51892 0.0
C935 C 0.71958 0.08264 0.50438 0.0
C936 C 0.7388 0.04447 0.52364 0.0
C937 C 0.74126 0.07562 0.49864 0.0
C938 C 0.74079 0.01175 0.55075 0.0
C939 C 0.78662 0.0187 0.55348 0.0
N940 N 0.75033 0.05726 0.50862 0.0
N941 N 0.77402 0.03019 0.53845 0.0
H942 H 0.91728 0.739 0.48565 0.0
H943 H 0.01872 0.76932 0.5633 0.0
H944 H 0.96739 0.69107 0.50621 0.0
H945 H 0.97552 0.81896 0.53331 0.0
H946 H 0.00482 0.74167 0.53666 0.0
H947 H 0.94243 0.76934 0.49654 0.0
C948 C 0.93375 0.73485 0.49206 0.0
C949 C 0.94 0.71245 0.49557 0.0
C950 C 0.99864 0.7587 0.53561 0.0
C951 C 0.96875 0.74711 0.50844 0.0
C952 C 0.00657 0.77451 0.55086 0.0
C953 C 0.9978 0.79633 0.55094 0.0
C954 C 0.98155 0.76465 0.52056 0.0
C955 C 0.98247 0.80223 0.53412 0.0
C956 C 0.94814 0.7522 0.49827 0.0
C957 C 0.96169 0.70809 0.50358 0.0
N958 N 0.97445 0.78634 0.51992 0.0
N959 N 0.97508 0.72525 0.51022 0.0
H960 H 0.51671 0.28284 0.10162 0.0
H961 H 0.45069 0.2439 0.99527 0.0
H962 H 0.48181 0.32883 0.05805 0.0
H963 H 0.49882 0.20185 0.02911 0.0
H964 H 0.46648 0.27651 0.01415 0.0
H965 H 0.51505 0.25442 0.07228 0.0
C966 C 0.50901 0.28708 0.08574 0.0
C967 C 0.49897 0.30809 0.08244 0.0
C968 C 0.47391 0.26023 0.01714 0.0
C969 C 0.49676 0.27554 0.04887 0.0
C970 C 0.46488 0.24159 0.00635 0.0
C971 C 0.47307 0.22006 0.01109 0.0
C972 C 0.49095 0.25726 0.03309 0.0
C973 C 0.49172 0.21809 0.02527 0.0
C974 C 0.50812 0.27086 0.06895 0.0
C975 C 0.48951 0.31276 0.06143 0.0
N976 N 0.49969 0.23639 0.0362 0.0
N977 N 0.48823 0.29646 0.0456 0.0
H978 H 0.40254 0.77403 0.98747 0.0
H979 H 0.48241 0.75012 0.88294 0.0
H980 H 0.4316 0.82614 0.94655 0.0
H981 H 0.45627 0.69838 0.92624 0.0
H982 H 0.4677 0.77839 0.90862 0.0
H983 H 0.42547 0.74642 0.96782 0.0
C984 C 0.41389 0.77972 0.97449 0.0
C985 C 0.41493 0.80244 0.96849 0.0
C986 C 0.46542 0.76085 0.91266 0.0
C987 C 0.4412 0.77082 0.94578 0.0
C988 C 0.47388 0.74467 0.89801 0.0
C989 C 0.47034 0.72179 0.90226 0.0
C990 C 0.45319 0.75416 0.93164 0.0
C991 C 0.45926 0.71579 0.92215 0.0
C992 C 0.42701 0.76392 0.96327 0.0
C993 C 0.4301 0.8088 0.95164 0.0
N994 N 0.45084 0.73186 0.93593 0.0
N995 N 0.44244 0.79305 0.94072 0.0
H996 H 0.30411 0.44968 0.91102 0.0
H997 H 0.18967 0.40652 0.96605 0.0
H998 H 0.23951 0.47918 0.89719 0.0
H999 H 0.25351 0.37343 0.97416 0.0
H1000 H 0.20826 0.43619 0.94477 0.0
H1001 H 0.28647 0.42476 0.9382 0.0
C1002 C 0.28623 0.45108 0.91383 0.0
C1003 C 0.27324 0.46642 0.9016 0.0
C1004 C 0.21822 0.42253 0.95135 0.0
C1005 C 0.25289 0.43777 0.9327 0.0
C1006 C 0.20763 0.40558 0.96354 0.0
C1007 C 0.22002 0.38733 0.97174 0.0
C1008 C 0.24138 0.42125 0.94734 0.0
C1009 C 0.24325 0.38708 0.96802 0.0
C1010 C 0.27616 0.43679 0.92935 0.0
C1011 C 0.25017 0.46753 0.90611 0.0
N1012 N 0.25314 0.40369 0.95599 0.0
N1013 N 0.2407 0.45326 0.92117 0.0
H1014 H 0.54598 0.18482 0.96997 0.0
H1015 H 0.5314 0.31433 0.94206 0.0
H1016 H 0.58415 0.23777 0.00102 0.0
H1017 H 0.50082 0.2607 0.90447 0.0
H1018 H 0.54256 0.28725 0.9707 0.0
H1019 H 0.52126 0.21297 0.95343 0.0
C1020 C 0.54893 0.20232 0.97369 0.0
C1021 C 0.56756 0.20895 0.98641 0.0
C1022 C 0.53308 0.28147 0.95637 0.0
C1023 C 0.53945 0.24127 0.96732 0.0
C1024 C 0.52664 0.29695 0.94001 0.0
C1025 C 0.51562 0.28971 0.92055 0.0
C1026 C 0.5285 0.2586 0.95322 0.0
C1027 C 0.5097 0.26699 0.91897 0.0
C1028 C 0.53483 0.21841 0.96417 0.0
C1029 C 0.57029 0.23189 0.99092 0.0
N1030 N 0.51652 0.2522 0.93489 0.0
N1031 N 0.55666 0.24723 0.98106 0.0
H1032 H 0.69413 0.54667 0.90362 0.0
H1033 H 0.81454 0.55929 0.96057 0.0
H1034 H 0.75012 0.50339 0.88852 0.0
H1035 H 0.75745 0.6007 0.97678 0.0
H1036 H 0.79041 0.53615 0.93691 0.0
H1037 H 0.71619 0.5642 0.93316 0.0
C1038 C 0.71102 0.54073 0.90662 0.0
C1039 C 0.72037 0.52368 0.8934 0.0
C1040 C 0.78313 0.55018 0.94582 0.0
C1041 C 0.74582 0.54381 0.92718 0.0
C1042 C 0.7969 0.56338 0.95936 0.0
C1043 C 0.78807 0.58213 0.97048 0.0
C1044 C 0.7604 0.55581 0.94333 0.0
C1045 C 0.76506 0.58655 0.96836 0.0
C1046 C 0.72362 0.55075 0.92353 0.0
C1047 C 0.74228 0.51657 0.8982 0.0
N1048 N 0.75209 0.57363 0.9549 0.0
N1049 N 0.75434 0.52681 0.91456 0.0
H1050 H 0.49072 0.7421 0.07403 0.0
H1051 H 0.58136 0.77017 0.98138 0.0
H1052 H 0.52445 0.69186 0.03441 0.0
H1053 H 0.54293 0.82044 0.01641 0.0
H1054 H 0.5559 0.74148 0.99557 0.0
H1055 H 0.50468 0.77092 0.04856 0.0
C1056 C 0.50077 0.73708 0.05977 0.0
C1057 C 0.50679 0.71456 0.05661 0.0
C1058 C 0.55278 0.75882 -0.00016 0.0
C1059 C 0.52306 0.74753 0.0275 0.0
C1060 C 0.56731 0.77525 0.9917 0.0
C1061 C 0.56457 0.79771 0.9981 0.0
C1062 C 0.53553 0.76486 0.0147 0.0
C1063 C 0.5459 0.8033 0.01129 0.0
C1064 C 0.50874 0.75356 0.0452 0.0
C1065 C 0.51962 0.70903 0.03768 0.0
N1066 N 0.53235 0.78694 0.01951 0.0
N1067 N 0.52765 0.72544 0.02407 0.0
H1068 H 0.22562 0.60211 0.99432 0.0
H1069 H 0.24717 0.50925 0.08644 0.0
H1070 H 0.17238 0.56576 0.02717 0.0
H1071 H 0.29954 0.53571 0.04409 0.0
H1072 H 0.21929 0.52711 0.06245 0.0
H1073 H 0.25266 0.57543 0.00949 0.0
C1074 C 0.21957 0.58832 0.00446 0.0
C1075 C 0.19674 0.58636 0.00978 0.0
C1076 C 0.23686 0.52877 0.0582 0.0
C1077 C 0.22764 0.55591 0.02743 0.0
C1078 C 0.2528 0.51862 0.07194 0.0
C1079 C 0.27573 0.52127 0.06744 0.0
C1080 C 0.2439 0.54195 0.04001 0.0
C1081 C 0.28205 0.53337 0.04829 0.0
C1082 C 0.23503 0.57307 0.01311 0.0
C1083 C 0.18984 0.56804 0.0228 0.0
N1084 N 0.26622 0.54356 0.03547 0.0
N1085 N 0.20528 0.55373 0.03149 0.0
H1086 H 0.69728 0.47802 0.07706 0.0
H1087 H 0.82052 0.45227 0.03226 0.0
H1088 H 0.75476 0.51944 0.09156 0.0
H1089 H 0.76306 0.41024 0.01949 0.0
H1090 H 0.79566 0.48048 0.04848 0.0
H1091 H 0.71998 0.45654 0.0507 0.0
C1092 C 0.71462 0.48277 0.07453 0.0
C1093 C 0.72422 0.50036 0.08681 0.0
C1094 C 0.78846 0.46522 0.04185 0.0
C1095 C 0.75039 0.47569 0.05672 0.0
C1096 C 0.80265 0.44911 0.03251 0.0
C1097 C 0.79392 0.42867 0.02484 0.0
C1098 C 0.76539 0.46082 0.04359 0.0
C1099 C 0.77059 0.42561 0.02547 0.0
C1100 C 0.72759 0.47048 0.05945 0.0
C1101 C 0.74671 0.50588 0.08263 0.0
N1102 N 0.7572 0.44136 0.03496 0.0
N1103 N 0.75911 0.49341 0.06815 0.0
H1104 H 0.99985 0.2409 0.3168 0.0
H1105 H 0.99019 0.27801 0.18828 0.0
H1106 H 0.96715 0.2028 0.26475 0.0
H1107 H 0.01735 0.32195 0.23886 0.0
H1108 H 0.98179 0.25058 0.21702 0.0
H1109 H 0.00642 0.27121 0.28957 0.0
C1110 C 0.99396 0.23894 0.29975 0.0
C1111 C 0.98307 0.21918 0.29304 0.0
C1112 C 0.98953 0.26621 0.22198 0.0
C1113 C 0.99054 0.2536 0.26196 0.0
C1114 C 0.99439 0.28193 0.20549 0.0
C1115 C 0.00459 0.30232 0.21111 0.0
C1116 C 0.99497 0.27069 0.24441 0.0
C1117 C 0.00949 0.30643 0.23378 0.0
C1118 C 0.99771 0.25621 0.28425 0.0
C1119 C 0.97576 0.21758 0.27075 0.0
N1120 N 0.00474 0.29067 0.24964 0.0
N1121 N 0.97971 0.23445 0.2561 0.0
H1122 H 0.80514 0.01727 0.2726 0.0
H1123 H 0.73165 0.98328 0.19166 0.0
H1124 H 0.75581 0.99448 0.32045 0.0
H1125 H 0.67924 0.99868 0.23918 0.0
H1126 H 0.75924 0.98772 0.22107 0.0
H1127 H 0.77786 0.01302 0.24288 0.0
C1128 C 0.7886 0.01113 0.27687 0.0
C1129 C 0.7829 0.00593 0.29909 0.0
C1130 C 0.74178 0.99059 0.22507 0.0
C1131 C 0.75153 0.00039 0.26473 0.0
C1132 C 0.72591 0.98785 0.20827 0.0
C1133 C 0.70304 0.9909 0.21284 0.0
C1134 C 0.7349 0.99666 0.24671 0.0
C1135 C 0.69672 0.9964 0.23486 0.0
C1136 C 0.77304 0.0085 0.25977 0.0
C1137 C 0.761 0.99845 0.30352 0.0
N1138 N 0.7126 0.9991 0.25104 0.0
N1139 N 0.74605 0.9959 0.28645 0.0
H1140 H 0.95316 0.70553 0.20868 0.0
H1141 H 0.00109 0.74827 0.32622 0.0
H1142 H 0.99778 0.66544 0.24906 0.0
H1143 H 0.96187 0.78766 0.28004 0.0
H1144 H 0.99524 0.71523 0.30214 0.0
H1145 H 0.95117 0.73299 0.23856 0.0
C1146 C 0.96247 0.70243 0.22395 0.0
C1147 C 0.97593 0.68331 0.22623 0.0
C1148 C 0.98767 0.73106 0.29752 0.0
C1149 C 0.97395 0.71503 0.26067 0.0
C1150 C 0.99088 0.74983 0.31131 0.0
C1151 C 0.98215 0.77072 0.30493 0.0
C1152 C 0.97548 0.73333 0.27747 0.0
C1153 C 0.96915 0.77193 0.28542 0.0
C1154 C 0.96132 0.71816 0.24107 0.0
C1155 C 0.98731 0.68004 0.24658 0.0
N1156 N 0.96636 0.7536 0.27238 0.0
N1157 N 0.98633 0.69594 0.26295 0.0
H1158 H 0.24578 0.00337 0.31116 0.0
H1159 H 0.29617 0.03083 0.18976 0.0
H1160 H 0.20687 0.01329 0.25101 0.0
H1161 H 0.33818 0.00911 0.24452 0.0
H1162 H 0.26379 0.02887 0.21418 0.0
H1163 H 0.28021 0.00942 0.28912 0.0
C1164 C 0.24446 0.00696 0.29342 0.0
C1165 C 0.22341 0.00768 0.28289 0.0
C1166 C 0.28004 0.02454 0.22098 0.0
C1167 C 0.2625 0.01467 0.25776 0.0
C1168 C 0.29864 0.02567 0.20699 0.0
C1169 C 0.31999 0.01991 0.21499 0.0
C1170 C 0.28257 0.01753 0.24328 0.0
C1171 C 0.32202 0.01359 0.23761 0.0
C1172 C 0.26408 0.01033 0.28087 0.0
C1173 C 0.22267 0.01236 0.25986 0.0
N1174 N 0.30349 0.01244 0.25098 0.0
N1175 N 0.24185 0.01565 0.24816 0.0
H1176 H 0.00587 0.67192 0.73765 0.0
H1177 H 0.95896 0.7859 0.6873 0.0
H1178 H 0.95439 0.71298 0.76726 0.0
H1179 H 0.01352 0.74958 0.65697 0.0
H1180 H 0.95102 0.75374 0.71107 0.0
H1181 H 0.00325 0.69443 0.70309 0.0
C1182 C 0.99354 0.68519 0.73656 0.0
C1183 C 0.98046 0.69085 0.75525 0.0
C1184 C 0.96456 0.75253 0.69904 0.0
C1185 C 0.97749 0.71658 0.71624 0.0
C1186 C 0.96903 0.77091 0.68543 0.0
C1187 C 0.98706 0.77041 0.67043 0.0
C1188 C 0.97863 0.73367 0.69816 0.0
C1189 C 0.99949 0.75055 0.66845 0.0
C1190 C 0.99215 0.69811 0.71696 0.0
C1191 C 0.96491 0.70828 0.75323 0.0
N1192 N 0.99538 0.73307 0.68258 0.0
N1193 N 0.96402 0.72064 0.73421 0.0
H1194 H 0.20329 0.04368 0.71749 0.0
H1195 H 0.32601 0.00373 0.75014 0.0
H1196 H 0.24325 0.00364 0.67254 0.0
H1197 H 0.28837 0.05442 0.78542 0.0
H1198 H 0.2979 0.00478 0.71998 0.0
H1199 H 0.23596 0.04935 0.74106 0.0
C1200 C 0.21909 0.03625 0.71248 0.0
C1201 C 0.22057 0.02305 0.69316 0.0
C1202 C 0.29605 0.01586 0.73421 0.0
C1203 C 0.25817 0.02908 0.72037 0.0
C1204 C 0.31207 0.01528 0.75139 0.0
C1205 C 0.30932 0.02872 0.77051 0.0
C1206 C 0.27727 0.02997 0.73629 0.0
C1207 C 0.291 0.04343 0.77124 0.0
C1208 C 0.2378 0.0395 0.72594 0.0
C1209 C 0.24149 0.01396 0.68734 0.0
N1210 N 0.27564 0.04349 0.75455 0.0
N1211 N 0.25947 0.01683 0.70113 0.0
H1212 H 0.98332 0.25714 0.66692 0.0
H1213 H 0.03019 0.27189 0.791 0.0
H1214 H 0.02487 0.20977 0.70226 0.0
H1215 H 0.98743 0.32123 0.7601 0.0
H1216 H 0.03389 0.25294 0.75524 0.0
H1217 H 0.98962 0.28447 0.69728 0.0
C1218 C 0.99417 0.25273 0.68078 0.0
C1219 C 0.00335 0.23114 0.68236 0.0
C1220 C 0.02382 0.26801 0.75604 0.0
C1221 C 0.01056 0.26197 0.71683 0.0
C1222 C 0.02173 0.27883 0.7765 0.0
C1223 C 0.00826 0.29791 0.77848 0.0
C1224 C 0.01187 0.27594 0.73737 0.0
C1225 C 0.9979 0.30645 0.75917 0.0
C1226 C 0.99767 0.26823 0.69811 0.0
C1227 C 0.0172 0.22613 0.70061 0.0
N1228 N 0.99955 0.29511 0.73939 0.0
N1229 N 0.02021 0.24132 0.71714 0.0
H1230 H 0.79751 0.97343 0.70581 0.0
H1231 H 0.67552 0.01655 0.74085 0.0
H1232 H 0.75597 0.01176 0.66081 0.0
H1233 H 0.72295 0.98386 0.7845 0.0
H1234 H 0.70094 0.0095 0.70897 0.0
H1235 H 0.76642 0.9709 0.73198 0.0
C1236 C 0.78167 0.98109 0.70133 0.0
C1237 C 0.77938 0.99306 0.68127 0.0
C1238 C 0.70555 0.00363 0.72551 0.0
C1239 C 0.74365 0.99076 0.71154 0.0
C1240 C 0.69105 0.00757 0.74364 0.0
C1241 C 0.69733 0.00106 0.76536 0.0
C1242 C 0.72622 0.99288 0.72925 0.0
C1243 C 0.7176 0.98951 0.76811 0.0
C1244 C 0.76388 0.97971 0.71633 0.0
C1245 C 0.75839 0.00243 0.67618 0.0
N1246 N 0.73129 0.98594 0.75036 0.0
N1247 N 0.74137 0.00145 0.69144 0.0
H1248 H 0.23281 0.23196 0.00219 0.0
H1249 H 0.36684 0.22839 0.99655 0.0
H1250 H 0.2728 0.29195 0.99634 0.0
H1251 H 0.32402 0.17018 0.99974 0.0
H1252 H 0.33336 0.25232 0.99608 0.0
H1253 H 0.26665 0.20956 0.00077 0.0
C1254 C 0.24875 0.24049 0.00056 0.0
C1255 C 0.24989 0.26396 0.99947 0.0
C1256 C 0.33136 0.2343 0.99684 0.0
C1257 C 0.2891 0.23812 0.99788 0.0
C1258 C 0.35045 0.22062 0.99713 0.0
C1259 C 0.34829 0.19719 0.99824 0.0
C1260 C 0.30998 0.22447 0.99768 0.0
C1261 C 0.32661 0.1881 0.99892 0.0
C1262 C 0.26815 0.22761 0.99974 0.0
C1263 C 0.27112 0.27392 0.99724 0.0
N1264 N 0.3084 0.20173 0.99867 0.0
N1265 N 0.28994 0.26094 0.99661 0.0
H1266 H 0.23555 0.68828 0.99179 0.0
H1267 H 0.2751 0.8069 0.03981 0.0
H1268 H 0.19238 0.73871 0.02052 0.0
H1269 H 0.31621 0.76983 0.99325 0.0
H1270 H 0.24763 0.777 0.03905 0.0
H1271 H 0.2678 0.71361 0.99732 0.0
C1272 C 0.23289 0.70455 0.99935 0.0
C1273 C 0.21124 0.7115 0.00552 0.0
C1274 C 0.26267 0.77526 0.02903 0.0
C1275 C 0.24778 0.74012 0.01215 0.0
C1276 C 0.27843 0.79234 0.02949 0.0
C1277 C 0.2978 0.79105 0.01626 0.0
C1278 C 0.26608 0.75664 0.01511 0.0
C1279 C 0.30138 0.77153 0.00358 0.0
C1280 C 0.25123 0.71895 0.00245 0.0
C1281 C 0.20868 0.73271 0.01526 0.0
N1282 N 0.28547 0.75512 0.00307 0.0
N1283 N 0.22667 0.74617 0.01826 0.0
H1284 H 0.78959 0.28057 0.05456 0.0
H1285 H 0.67028 0.24892 0.00263 0.0
H1286 H 0.75373 0.32494 0.01016 0.0
H1287 H 0.71435 0.2035 0.03755 0.0
H1288 H 0.69616 0.27988 0.01137 0.0
H1289 H 0.75747 0.25558 0.05515 0.0
C1290 C 0.77481 0.28516 0.04508 0.0
C1291 C 0.77446 0.30466 0.03198 0.0
C1292 C 0.69992 0.26317 0.01737 0.0
C1293 C 0.73757 0.27581 0.03225 0.0
C1294 C 0.68514 0.24557 0.01249 0.0
C1295 C 0.69038 0.22362 0.01915 0.0
C1296 C 0.7198 0.25869 0.0292 0.0
C1297 C 0.70983 0.22011 0.03181 0.0
C1298 C 0.75644 0.27086 0.0454 0.0
C1299 C 0.7547 0.30997 0.02036 0.0
N1300 N 0.72384 0.23739 0.03629 0.0
N1301 N 0.7371 0.29539 0.02044 0.0
H1302 H 0.79704 0.73332 0.00253 0.0
H1303 H 0.66721 0.76033 0.99557 0.0
H1304 H 0.74852 0.67973 -1e-05 0.0
H1305 H 0.71986 0.80626 0.97689 0.0
H1306 H 0.69514 0.72995 0.99724 0.0
H1307 H 0.76763 0.76002 0.99446 0.0
C1308 C 0.78012 0.72713 0.00035 0.0
C1309 C 0.77525 0.70422 0.00208 0.0
C1310 C 0.7004 0.74664 0.99242 0.0
C1311 C 0.74118 0.73499 0.99267 0.0
C1312 C 0.6845 0.76392 0.99137 0.0
C1313 C 0.69131 0.78591 0.98644 0.0
C1314 C 0.72312 0.75157 0.98861 0.0
C1315 C 0.71389 0.78967 0.98117 0.0
C1316 C 0.76329 0.74243 0.99554 0.0
C1317 C 0.75297 0.69727 0.99883 0.0
N1318 N 0.72896 0.77278 0.98265 0.0
N1319 N 0.73664 0.71266 0.99446 0.0
H1320 H 0.48344 0.75729 0.80343 0.0
H1321 H 0.46976 0.79989 0.67686 0.0
H1322 H 0.46202 0.71655 0.74766 0.0
H1323 H 0.48497 0.84535 0.731 0.0
H1324 H 0.46764 0.76934 0.70349 0.0
H1325 H 0.48456 0.78999 0.77824 0.0
C1326 C 0.47889 0.75522 0.786 0.0
C1327 C 0.47273 0.73408 0.77767 0.0
C1328 C 0.47142 0.78596 0.70969 0.0
C1329 C 0.47406 0.77123 0.74888 0.0
C1330 C 0.47268 0.80349 0.6944 0.0
C1331 C 0.47758 0.8253 0.70164 0.0
C1332 C 0.47515 0.79002 0.73255 0.0
C1333 C 0.48113 0.8288 0.72467 0.0
C1334 C 0.47955 0.77386 0.77165 0.0
C1335 C 0.467 0.73239 0.75492 0.0
N1336 N 0.4799 0.81131 0.73935 0.0
N1337 N 0.46788 0.75062 0.74143 0.0
H1338 H 0.28772 0.51208 0.76374 0.0
H1339 H 0.15746 0.48246 0.75259 0.0
H1340 H 0.25023 0.48324 0.81855 0.0
H1341 H 0.19788 0.51354 0.70122 0.0
H1342 H 0.18986 0.48377 0.77805 0.0
H1343 H 0.25384 0.51361 0.74165 0.0
C1344 C 0.27232 0.50599 0.77119 0.0
C1345 C 0.27194 0.49736 0.79306 0.0
C1346 C 0.1915 0.49042 0.76124 0.0
C1347 C 0.2326 0.49909 0.76752 0.0
C1348 C 0.17302 0.48975 0.74673 0.0
C1349 C 0.17499 0.49775 0.72465 0.0
C1350 C 0.21197 0.49919 0.75356 0.0
C1351 C 0.19555 0.50698 0.71797 0.0
C1352 C 0.25285 0.50694 0.7585 0.0
C1353 C 0.25131 0.48995 0.80173 0.0
N1354 N 0.21316 0.50733 0.73229 0.0
N1355 N 0.23243 0.49087 0.78887 0.0
H1356 H 0.54613 0.27081 0.7762 0.0
H1357 H 0.48753 0.15283 0.75162 0.0
H1358 H 0.49565 0.24359 0.82022 0.0
H1359 H 0.52397 0.19301 0.7039 0.0
H1360 H 0.49665 0.18052 0.78105 0.0
H1361 H 0.54528 0.23652 0.75436 0.0
C1362 C 0.53497 0.25745 0.78139 0.0
C1363 C 0.52063 0.26017 0.79977 0.0
C1364 C 0.5029 0.18299 0.76419 0.0
C1365 C 0.51921 0.22085 0.77448 0.0
C1366 C 0.49782 0.1672 0.74751 0.0
C1367 C 0.50491 0.17086 0.72539 0.0
C1368 C 0.51544 0.20215 0.75857 0.0
C1369 C 0.51802 0.18973 0.72074 0.0
C1370 C 0.53447 0.23785 0.76889 0.0
C1371 C 0.50684 0.24215 0.80602 0.0
N1372 N 0.52279 0.20463 0.73712 0.0
N1373 N 0.50615 0.22329 0.7931 0.0
H1374 H 0.79874 0.5128 0.68899 0.0
H1375 H 0.74531 0.5148 0.81221 0.0
H1376 H 0.84018 0.51302 0.74828 0.0
H1377 H 0.70823 0.51018 0.75028 0.0
H1378 H 0.78039 0.51574 0.79035 0.0
H1379 H 0.76568 0.51334 0.71236 0.0
C1380 C 0.80095 0.51294 0.707 0.0
C1381 C 0.8224 0.5128 0.71662 0.0
C1382 C 0.76452 0.51455 0.78167 0.0
C1383 C 0.78408 0.51343 0.74384 0.0
C1384 C 0.74451 0.51408 0.7941 0.0
C1385 C 0.72375 0.51233 0.7831 0.0
C1386 C 0.76363 0.51338 0.75814 0.0
C1387 C 0.72374 0.51142 0.7596 0.0
C1388 C 0.78193 0.51326 0.72042 0.0
C1389 C 0.82398 0.51306 0.74014 0.0
N1390 N 0.74326 0.51193 0.74803 0.0
N1391 N 0.80503 0.51335 0.753 0.0
H1392 H 0.46731 0.22863 0.30881 0.0
H1393 H 0.48658 0.31727 0.24055 0.0
H1394 H 0.50923 0.19078 0.26365 0.0
H1395 H 0.49076 0.27031 0.18569 0.0
H1396 H 0.48625 0.28627 0.26671 0.0
H1397 H 0.464 0.25791 0.28065 0.0
C1398 C 0.47577 0.22646 0.29288 0.0
C1399 C 0.48892 0.20747 0.28871 0.0
C1400 C 0.48682 0.28263 0.24895 0.0
C1401 C 0.48604 0.24146 0.25671 0.0
C1402 C 0.48731 0.30039 0.23394 0.0
C1403 C 0.48837 0.29642 0.2108 0.0
C1404 C 0.48721 0.26055 0.24092 0.0
C1405 C 0.48976 0.27411 0.20339 0.0
C1406 C 0.4741 0.24332 0.27691 0.0
C1407 C 0.49908 0.20529 0.26757 0.0
N1408 N 0.48913 0.25692 0.21845 0.0
N1409 N 0.49766 0.22229 0.25237 0.0
H1410 H 0.77385 0.4568 0.29487 0.0
H1411 H 0.7468 0.51098 0.1753 0.0
H1412 H 0.8226 0.49767 0.26051 0.0
H1413 H 0.69816 0.49075 0.22485 0.0
H1414 H 0.77703 0.49895 0.20099 0.0
H1415 H 0.7487 0.46056 0.26312 0.0
C1416 C 0.77936 0.46638 0.28046 0.0
C1417 C 0.80014 0.47729 0.28046 0.0
C1418 C 0.75969 0.49703 0.20601 0.0
C1419 C 0.77115 0.48204 0.24408 0.0
C1420 C 0.74252 0.5038 0.19142 0.0
C1421 C 0.72002 0.50208 0.19814 0.0
C1422 C 0.7541 0.48804 0.22707 0.0
C1423 C 0.71528 0.49269 0.21912 0.0
C1424 C 0.76496 0.46857 0.26234 0.0
C1425 C 0.80661 0.48913 0.26116 0.0
N1426 N 0.73212 0.48605 0.23276 0.0
N1427 N 0.79195 0.49155 0.24378 0.0
H1428 H 0.49527 0.74295 0.16818 0.0
H1429 H 0.44831 0.75283 0.29314 0.0
H1430 H 0.45764 0.69203 0.20306 0.0
H1431 H 0.48857 0.8047 0.26283 0.0
H1432 H 0.44699 0.7334 0.25752 0.0
H1433 H 0.48849 0.76872 0.1997 0.0
C1434 C 0.4852 0.73738 0.18222 0.0
C1435 C 0.47724 0.71527 0.18321 0.0
C1436 C 0.45605 0.74908 0.25848 0.0
C1437 C 0.46953 0.74439 0.2191 0.0
C1438 C 0.45686 0.76018 0.27891 0.0
C1439 C 0.46888 0.78023 0.28106 0.0
C1440 C 0.46764 0.75782 0.23995 0.0
C1441 C 0.47925 0.78917 0.26189 0.0
C1442 C 0.48145 0.75201 0.20023 0.0
C1443 C 0.46437 0.70882 0.20177 0.0
N1444 N 0.47868 0.77771 0.24214 0.0
N1445 N 0.46109 0.72322 0.21898 0.0
H1446 H 0.30285 0.53112 0.21634 0.0
H1447 H 0.18138 0.50773 0.26694 0.0
H1448 H 0.24954 0.50298 0.17651 0.0
H1449 H 0.23401 0.54385 0.30092 0.0
H1450 H 0.20441 0.50756 0.23277 0.0
H1451 H 0.27639 0.5378 0.24653 0.0
C1452 C 0.28546 0.52647 0.2139 0.0
C1453 C 0.27842 0.51629 0.19397 0.0
C1454 C 0.21075 0.51571 0.24768 0.0
C1455 C 0.24787 0.52366 0.22876 0.0
C1456 C 0.19763 0.51581 0.26717 0.0
C1457 C 0.20589 0.52556 0.28694 0.0
C1458 C 0.23222 0.52539 0.24805 0.0
C1459 C 0.22702 0.53586 0.28623 0.0
C1460 C 0.27031 0.53033 0.23117 0.0
C1461 C 0.25564 0.51086 0.19165 0.0
N1462 N 0.23944 0.53534 0.26723 0.0
N1463 N 0.24117 0.51433 0.20901 0.0
H1464 H 0.83039 0.73388 0.49751 0.0
H1465 H 0.70576 0.75515 0.54243 0.0
H1466 H 0.79361 0.68925 0.541 0.0
H1467 H 0.74015 0.80259 0.49996 0.0
H1468 H 0.73943 0.73243 0.54381 0.0
H1469 H 0.7993 0.76086 0.49992 0.0
C1470 C 0.81594 0.72985 0.50773 0.0
C1471 C 0.81453 0.70916 0.51889 0.0
C1472 C 0.73977 0.74784 0.53423 0.0
C1473 C 0.77903 0.73981 0.52167 0.0
C1474 C 0.72046 0.76086 0.53341 0.0
C1475 C 0.72002 0.78075 0.5209 0.0
C1476 C 0.75893 0.75453 0.52231 0.0
C1477 C 0.73972 0.78733 0.50976 0.0
C1478 C 0.79819 0.74521 0.50905 0.0
C1479 C 0.7954 0.70483 0.53189 0.0
N1480 N 0.75837 0.77414 0.51057 0.0
N1481 N 0.77845 0.71992 0.5328 0.0
H1482 H 0.7165 0.21698 0.54844 0.0
H1483 H 0.84137 0.24795 0.5145 0.0
H1484 H 0.75529 0.17542 0.50389 0.0
H1485 H 0.80238 0.28202 0.56492 0.0
H1486 H 0.81294 0.21806 0.51357 0.0
H1487 H 0.75017 0.2377 0.55804 0.0
C1488 C 0.73227 0.21208 0.54087 0.0
C1489 C 0.73313 0.19466 0.52521 0.0
C1490 C 0.81089 0.23188 0.52514 0.0
C1491 C 0.77191 0.21872 0.53569 0.0
C1492 C 0.82714 0.24886 0.52574 0.0
C1493 C 0.82399 0.26764 0.53954 0.0
C1494 C 0.79152 0.23382 0.53848 0.0
C1495 C 0.80527 0.26804 0.55373 0.0
C1496 C 0.75155 0.22391 0.54635 0.0
C1497 C 0.754 0.18882 0.51604 0.0
N1498 N 0.78969 0.25158 0.55264 0.0
N1499 N 0.77258 0.20114 0.52109 0.0
H1500 H 0.27381 0.76567 0.53006 0.0
H1501 H 0.14178 0.74206 0.52341 0.0
H1502 H 0.22608 0.81843 0.51676 0.0
H1503 H 0.19239 0.69298 0.53975 0.0
H1504 H 0.17134 0.77077 0.52104 0.0
H1505 H 0.24323 0.73923 0.53338 0.0
C1506 C 0.25685 0.77175 0.5278 0.0
C1507 C 0.25258 0.79438 0.5231 0.0
C1508 C 0.17585 0.7537 0.52521 0.0
C1509 C 0.2171 0.76387 0.52696 0.0
C1510 C 0.15901 0.73734 0.52662 0.0
C1511 C 0.16459 0.71502 0.53168 0.0
C1512 C 0.19832 0.74762 0.5289 0.0
C1513 C 0.18719 0.70987 0.53566 0.0
C1514 C 0.2393 0.75657 0.52975 0.0
C1515 C 0.23016 0.80113 0.52038 0.0
N1516 N 0.20311 0.72596 0.53412 0.0
N1517 N 0.21321 0.78592 0.52233 0.0
H1518 H 0.1909 0.24769 0.50687 0.0
H1519 H 0.31752 0.20489 0.49486 0.0
H1520 H 0.24968 0.28979 0.50499 0.0
H1521 H 0.26291 0.15926 0.50775 0.0
H1522 H 0.29104 0.23559 0.4927 0.0
H1523 H 0.21524 0.21462 0.50218 0.0
C1524 C 0.20883 0.24999 0.50531 0.0
C1525 C 0.2183 0.2715 0.50656 0.0
C1526 C 0.2847 0.2189 0.49593 0.0
C1527 C 0.24601 0.23404 0.50103 0.0
C1528 C 0.29987 0.2013 0.49716 0.0
C1529 C 0.29246 0.17952 0.50183 0.0
C1530 C 0.26181 0.21489 0.49961 0.0
C1531 C 0.26931 0.17586 0.50425 0.0
C1532 C 0.22268 0.23116 0.50268 0.0
C1533 C 0.24161 0.27356 0.50442 0.0
N1534 N 0.25475 0.19347 0.50337 0.0
N1535 N 0.25457 0.25513 0.50181 0.0
H1536 H 0.09593 0.32077 0.1557 0.0
H1537 H 0.16565 0.36291 0.05085 0.0
H1538 H 0.08243 0.38318 0.12209 0.0
H1539 H 0.17585 0.30018 0.08525 0.0
H1540 H 0.14183 0.37553 0.08198 0.0
H1541 H 0.13166 0.31815 0.13601 0.0
C1542 C 0.10088 0.33422 0.14454 0.0
C1543 C 0.08639 0.35217 0.1404 0.0
C1544 C 0.14975 0.35923 0.08295 0.0
C1545 C 0.12675 0.34891 0.117 0.0
C1546 C 0.16345 0.35209 0.06527 0.0
C1547 C 0.17237 0.33033 0.06536 0.0
C1548 C 0.14511 0.34447 0.10076 0.0
C1549 C 0.16896 0.31694 0.08436 0.0
C1550 C 0.1212 0.33271 0.13318 0.0
C1551 C 0.09333 0.36914 0.12572 0.0
N1552 N 0.15538 0.3241 0.10111 0.0
N1553 N 0.11288 0.36687 0.11412 0.0
H1554 H 0.62235 0.05433 0.14048 0.0
H1555 H 0.64757 0.09373 0.01476 0.0
H1556 H 0.65736 0.01572 0.09033 0.0
H1557 H 0.62095 0.13908 0.06429 0.0
H1558 H 0.64454 0.06316 0.04142 0.0
H1559 H 0.61606 0.08396 0.11239 0.0
C1560 C 0.62855 0.05201 0.12358 0.0
C1561 C 0.64064 0.03263 0.11782 0.0
C1562 C 0.63916 0.07971 0.04656 0.0
C1563 C 0.63331 0.06615 0.08574 0.0
C1564 C 0.64082 0.09717 0.03127 0.0
C1565 C 0.63475 0.11898 0.03744 0.0
C1566 C 0.6317 0.084 0.06845 0.0
C1567 C 0.62584 0.12246 0.05894 0.0
C1568 C 0.62496 0.06889 0.1076 0.0
C1569 C 0.64823 0.03045 0.09569 0.0
N1570 N 0.62489 0.10516 0.07388 0.0
N1571 N 0.64448 0.04696 0.08058 0.0
H1572 H 0.95032 0.60322 0.11018 0.0
H1573 H 0.83366 0.64961 0.0933 0.0
H1574 H 0.91045 0.62166 0.16742 0.0
H1575 H 0.859 0.59909 0.04842 0.0
H1576 H 0.85884 0.63583 0.12249 0.0
H1577 H 0.91597 0.59728 0.08858 0.0
C1578 C 0.93423 0.60524 0.11836 0.0
C1579 C 0.93302 0.61283 0.1405 0.0
C1580 C 0.85838 0.62721 0.10654 0.0
C1581 C 0.89382 0.60703 0.11581 0.0
C1582 C 0.84397 0.63504 0.08992 0.0
C1583 C 0.84441 0.6255 0.06849 0.0
C1584 C 0.87392 0.61031 0.10136 0.0
C1585 C 0.85817 0.60683 0.0648 0.0
C1586 C 0.91464 0.60187 0.10608 0.0
C1587 C 0.91191 0.61563 0.15037 0.0
N1588 N 0.87295 0.60025 0.08087 0.0
N1589 N 0.89307 0.6133 0.13777 0.0
H1590 H 0.39786 0.88936 0.03946 0.0
H1591 H 0.38525 0.93979 0.16289 0.0
H1592 H 0.35427 0.86053 0.08928 0.0
H1593 H 0.39116 0.97999 0.10311 0.0
H1594 H 0.3878 0.9058 0.13965 0.0
H1595 H 0.4101 0.91736 0.06706 0.0
C1596 C 0.39169 0.88831 0.0565 0.0
C1597 C 0.37512 0.87271 0.06225 0.0
C1598 C 0.389 0.92211 0.13178 0.0
C1599 C 0.38877 0.90451 0.09358 0.0
C1600 C 0.38757 0.94143 0.14496 0.0
C1601 C 0.38767 0.96262 0.13479 0.0
C1602 C 0.39116 0.92414 0.10843 0.0
C1603 C 0.39067 0.96391 0.11152 0.0
C1604 C 0.39845 0.90439 0.07212 0.0
C1605 C 0.36715 0.87232 0.08435 0.0
N1606 N 0.39224 0.94492 0.0991 0.0
N1607 N 0.3739 0.88816 0.09922 0.0
H1608 H 0.04915 0.61983 0.85297 0.0
H1609 H 0.13157 0.62213 0.93626 0.0
H1610 H 0.07183 0.68651 0.83676 0.0
H1611 H 0.12638 0.69349 0.92603 0.0
H1612 H 0.11177 0.61615 0.90065 0.0
H1613 H 0.07948 0.61658 0.88029 0.0
C1614 C 0.06099 0.63348 0.8546 0.0
C1615 C 0.05773 0.65364 0.84289 0.0
C1616 C 0.11497 0.63309 0.90619 0.0
C1617 C 0.09252 0.65009 0.87407 0.0
C1618 C 0.12646 0.63649 0.92641 0.0
C1619 C 0.13018 0.65833 0.93428 0.0
C1620 C 0.10742 0.65174 0.89385 0.0
C1621 C 0.12343 0.67637 0.92083 0.0
C1622 C 0.07837 0.63163 0.87025 0.0
C1623 C 0.07348 0.67082 0.84573 0.0
N1624 N 0.11233 0.67265 0.90141 0.0
N1625 N 0.08989 0.6688 0.86129 0.0
H1626 H 0.4187 0.04638 0.85589 0.0
H1627 H 0.41603 0.16256 0.9214 0.0
H1628 H 0.36984 0.09862 0.84577 0.0
H1629 H 0.43745 0.09983 0.94998 0.0
H1630 H 0.41394 0.1445 0.88447 0.0
H1631 H 0.43969 0.07152 0.88082 0.0
C1632 C 0.41286 0.0634 0.85826 0.0
C1633 C 0.39236 0.0704 0.84917 0.0
C1634 C 0.41995 0.13496 0.8987 0.0
C1635 C 0.41622 0.09908 0.87727 0.0
C1636 C 0.42132 0.14529 0.91967 0.0
C1637 C 0.42676 0.13253 0.93861 0.0
C1638 C 0.42429 0.1119 0.89683 0.0
C1639 C 0.43309 0.11012 0.93567 0.0
C1640 C 0.42477 0.07766 0.87251 0.0
C1641 C 0.38542 0.09254 0.85281 0.0
N1642 N 0.43138 0.10038 0.9152 0.0
N1643 N 0.39718 0.10604 0.86681 0.0
H1644 H 0.85389 0.30902 0.95113 0.0
H1645 H 0.94394 0.37196 0.8771 0.0
H1646 H 0.86416 0.3803 0.95637 0.0
H1647 H 0.92105 0.3045 0.86487 0.0
H1648 H 0.91232 0.3774 0.90292 0.0
H1649 H 0.87561 0.30868 0.91664 0.0
C1650 C 0.86052 0.32469 0.94478 0.0
C1651 C 0.85742 0.34467 0.95665 0.0
C1652 C 0.914 0.36158 0.89422 0.0
C1653 C 0.88289 0.34442 0.91733 0.0
C1654 C 0.932 0.35849 0.87943 0.0
C1655 C 0.93537 0.33759 0.86916 0.0
C1656 C 0.89942 0.34361 0.89871 0.0
C1657 C 0.91938 0.32075 0.87275 0.0
C1658 C 0.87293 0.32453 0.92505 0.0
C1659 C 0.86622 0.36455 0.94764 0.0
N1660 N 0.90234 0.32403 0.88742 0.0
N1661 N 0.87898 0.36387 0.92869 0.0
H1662 H 0.61996 0.8682 0.92831 0.0
H1663 H 0.66949 0.98766 0.8952 0.0
H1664 H 0.65241 0.91383 0.97399 0.0
H1665 H 0.62467 0.95221 0.85094 0.0
H1666 H 0.66265 0.95987 0.92398 0.0
H1667 H 0.61997 0.89797 0.89961 0.0
C1668 C 0.62674 0.88451 0.93241 0.0
C1669 C 0.63652 0.88844 0.95344 0.0
C1670 C 0.65414 0.9581 0.90806 0.0
C1671 C 0.63673 0.92225 0.92089 0.0
C1672 C 0.65815 0.97398 0.89152 0.0
C1673 C 0.64776 0.9722 0.87055 0.0
C1674 C 0.63981 0.93997 0.90369 0.0
C1675 C 0.63305 0.95418 0.8669 0.0
C1676 C 0.62681 0.90143 0.91604 0.0
C1677 C 0.64506 0.90987 0.9579 0.0
N1678 N 0.62965 0.93857 0.88327 0.0
N1679 N 0.64513 0.9258 0.94176 0.0
H1680 H 0.13093 0.05735 0.35758 0.0
H1681 H 0.01045 0.09755 0.31479 0.0
H1682 H 0.09662 0.03186 0.29924 0.0
H1683 H 0.04782 0.13586 0.36343 0.0
H1684 H 0.04103 0.07107 0.31251 0.0
H1685 H 0.10021 0.08441 0.36301 0.0
C1686 C 0.11702 0.05743 0.34593 0.0
C1687 C 0.11639 0.04228 0.32791 0.0
C1688 C 0.04268 0.08523 0.32372 0.0
C1689 C 0.0813 0.07292 0.33415 0.0
C1690 C 0.02511 0.10042 0.32509 0.0
C1691 C 0.02656 0.11916 0.33921 0.0
C1692 C 0.06208 0.08857 0.33654 0.0
C1693 C 0.04601 0.12171 0.35226 0.0
C1694 C 0.09954 0.07287 0.34904 0.0
C1695 C 0.09796 0.04316 0.31335 0.0
N1696 N 0.06311 0.10659 0.35056 0.0
N1697 N 0.08124 0.0581 0.31684 0.0
H1698 H 0.93336 0.13849 0.39797 0.0
H1699 H 0.8148 0.09291 0.36246 0.0
H1700 H 0.89343 0.16099 0.34219 0.0
H1701 H 0.86006 0.05797 0.4064 0.0
H1702 H 0.836 0.12736 0.36843 0.0
H1703 H 0.90046 0.11863 0.41292 0.0
C1704 C 0.91746 0.13991 0.38933 0.0
C1705 C 0.91608 0.15095 0.36863 0.0
C1706 C 0.84085 0.1124 0.3775 0.0
C1707 C 0.87864 0.12851 0.38551 0.0
C1708 C 0.82854 0.09282 0.37433 0.0
C1709 C 0.83585 0.07267 0.38385 0.0
C1710 C 0.86097 0.11155 0.3897 0.0
C1711 C 0.85394 0.07328 0.3988 0.0
C1712 C 0.89875 0.12854 0.3978 0.0
C1713 C 0.8952 0.15229 0.35802 0.0
N1714 N 0.86638 0.09228 0.40074 0.0
N1715 N 0.8774 0.14094 0.36641 0.0
H1716 H 0.90444 0.9879 0.35706 0.0
H1717 H 0.97062 0.90091 0.32764 0.0
H1718 H 0.85393 0.93784 0.37 0.0
H1719 H 0.93734 0.86152 0.37844 0.0
H1720 H 0.94427 0.93099 0.33402 0.0
H1721 H 0.93312 0.95899 0.35863 0.0
C1722 C 0.89939 0.97075 0.36023 0.0
C1723 C 0.87674 0.96515 0.36283 0.0
C1724 C 0.94292 0.91602 0.3442 0.0
C1725 C 0.90949 0.93175 0.36381 0.0
C1726 C 0.95785 0.89864 0.34035 0.0
C1727 C 0.95626 0.87862 0.35257 0.0
C1728 C 0.92608 0.9136 0.36042 0.0
C1729 C 0.93924 0.87676 0.36878 0.0
C1730 C 0.91576 0.95423 0.36098 0.0
C1731 C 0.87123 0.94276 0.36759 0.0
N1732 N 0.92457 0.89401 0.3721 0.0
N1733 N 0.88752 0.9267 0.36759 0.0
H1734 H 0.1384 0.94018 0.37129 0.0
H1735 H 0.07996 0.8355 0.31431 0.0
H1736 H 0.15372 0.91445 0.30556 0.0
H1737 H 0.0601 0.86142 0.37873 0.0
H1738 H 0.11394 0.85801 0.31598 0.0
H1739 H 0.11669 0.90606 0.37909 0.0
C1740 C 0.13775 0.92706 0.35878 0.0
C1741 C 0.1475 0.93025 0.33761 0.0
C1742 C 0.10243 0.85855 0.33 0.0
C1743 C 0.1227 0.89145 0.34628 0.0
C1744 C 0.08305 0.8456 0.32907 0.0
C1745 C 0.0671 0.84689 0.34625 0.0
C1746 C 0.10564 0.87338 0.34798 0.0
C1747 C 0.07199 0.86006 0.36508 0.0
C1748 C 0.12526 0.90767 0.36317 0.0
C1749 C 0.14612 0.91282 0.32196 0.0
N1750 N 0.09061 0.87327 0.36522 0.0
N1751 N 0.1337 0.89434 0.3265 0.0
H1752 H 0.07104 0.85904 0.60194 0.0
H1753 H 0.14856 0.9282 0.68347 0.0
H1754 H 0.08448 0.84101 0.67062 0.0
H1755 H 0.14271 0.94333 0.61304 0.0
H1756 H 0.13081 0.89209 0.67692 0.0
H1757 H 0.10274 0.88513 0.60306 0.0
C1758 C 0.0811 0.86002 0.61701 0.0
C1759 C 0.07486 0.84821 0.63638 0.0
C1760 C 0.13367 0.90308 0.66276 0.0
C1761 C 0.11077 0.87822 0.63791 0.0
C1762 C 0.14378 0.92376 0.66654 0.0
C1763 C 0.14674 0.93891 0.64884 0.0
C1764 C 0.12595 0.89766 0.6412 0.0
C1765 C 0.14055 0.93217 0.62718 0.0
C1766 C 0.0991 0.87505 0.6177 0.0
C1767 C 0.08844 0.85014 0.65545 0.0
N1768 N 0.12999 0.9122 0.62402 0.0
N1769 N 0.10548 0.86516 0.65586 0.0
H1770 H 0.13539 0.06703 0.61256 0.0
H1771 H 0.05402 0.15339 0.60894 0.0
H1772 H 0.09207 0.04081 0.66428 0.0
H1773 H 0.01184 0.10496 0.64223 0.0
H1774 H 0.08448 0.12575 0.60845 0.0
H1775 H 0.10638 0.09471 0.6031 0.0
C1776 C 0.11982 0.06711 0.62191 0.0
C1777 C 0.11627 0.05176 0.63943 0.0
C1778 C 0.06841 0.12098 0.61535 0.0
C1779 C 0.08318 0.08332 0.62886 0.0
C1780 C 0.05102 0.13681 0.61568 0.0
C1781 C 0.03048 0.13157 0.62593 0.0
C1782 C 0.06503 0.09986 0.62529 0.0
C1783 C 0.02749 0.10989 0.63448 0.0
C1784 C 0.10334 0.08302 0.61662 0.0
C1785 C 0.09575 0.05246 0.65086 0.0
N1786 N 0.04461 0.09501 0.6342 0.0
N1787 N 0.08007 0.06791 0.64536 0.0
H1788 H 0.90276 0.17946 0.65097 0.0
H1789 H 0.85732 0.06779 0.59474 0.0
H1790 H 0.93136 0.15075 0.59121 0.0
H1791 H 0.84509 0.08912 0.66268 0.0
H1792 H 0.87455 0.10436 0.58682 0.0
H1793 H 0.87099 0.15397 0.64772 0.0
C1794 C 0.9019 0.16832 0.63667 0.0
C1795 C 0.91981 0.1669 0.62154 0.0
C1796 C 0.86762 0.10116 0.60329 0.0
C1797 C 0.88401 0.1371 0.6182 0.0
C1798 C 0.85777 0.08036 0.60781 0.0
C1799 C 0.85018 0.07535 0.62952 0.0
C1800 C 0.86953 0.11705 0.62053 0.0
C1801 C 0.85112 0.09218 0.64583 0.0
C1802 C 0.88387 0.15362 0.63493 0.0
C1803 C 0.91788 0.15226 0.60327 0.0
N1804 N 0.86081 0.11217 0.64106 0.0
N1805 N 0.90057 0.13742 0.60243 0.0
H1806 H 0.94228 0.85878 0.60363 0.0
H1807 H 0.9098 0.98278 0.64269 0.0
H1808 H 0.98431 0.90348 0.64173 0.0
H1809 H 0.86256 0.94011 0.60855 0.0
H1810 H 0.93886 0.95508 0.63675 0.0
H1811 H 0.91446 0.8892 0.59977 0.0
C1812 C 0.9458 0.87506 0.61081 0.0
C1813 C 0.96543 0.87859 0.62328 0.0
C1814 C 0.92221 0.95165 0.63041 0.0
C1815 C 0.93402 0.91316 0.61895 0.0
C1816 C 0.90556 0.96752 0.63385 0.0
C1817 C 0.88365 0.96359 0.62642 0.0
C1818 C 0.91701 0.93135 0.61974 0.0
C1819 C 0.87925 0.94369 0.61466 0.0
C1820 C 0.92993 0.89233 0.60871 0.0
C1821 C 0.96924 0.89991 0.63229 0.0
N1822 N 0.89576 0.92807 0.61195 0.0
N1823 N 0.95368 0.91625 0.63005 0.0
H1824 H 0.43927 0.05146 0.14507 0.0
H1825 H 0.41864 0.16454 0.0772 0.0
H1826 H 0.38853 0.10017 0.16129 0.0
H1827 H 0.44049 0.10206 0.04848 0.0
H1828 H 0.42263 0.14807 0.11483 0.0
H1829 H 0.45489 0.07761 0.1174 0.0
C1830 C 0.43215 0.0681 0.14364 0.0
C1831 C 0.41251 0.07369 0.15525 0.0
C1832 C 0.42732 0.13829 0.10028 0.0
C1833 C 0.43001 0.10338 0.12365 0.0
C1834 C 0.42516 0.14769 0.0789 0.0
C1835 C 0.42914 0.13451 0.0599 0.0
C1836 C 0.43377 0.11574 0.10248 0.0
C1837 C 0.43719 0.11266 0.06283 0.0
C1838 C 0.44091 0.0829 0.1277 0.0
C1839 C 0.40364 0.09528 0.15251 0.0
N1840 N 0.43903 0.10385 0.08373 0.0
N1841 N 0.41222 0.10924 0.1367 0.0
H1842 H 0.31141 0.97576 0.87955 0.0
H1843 H 0.37093 0.87154 0.93926 0.0
H1844 H 0.37504 0.94951 0.85726 0.0
H1845 H 0.30718 0.8997 0.95877 0.0
H1846 H 0.37193 0.89743 0.90723 0.0
H1847 H 0.30869 0.94551 0.90659 0.0
C1848 C 0.32481 0.96354 0.88027 0.0
C1849 C 0.34359 0.96532 0.86624 0.0
C1850 C 0.35768 0.89776 0.91846 0.0
C1851 C 0.34066 0.93047 0.8975 0.0
C1852 C 0.35707 0.88298 0.93671 0.0
C1853 C 0.33904 0.88359 0.95186 0.0
C1854 C 0.34011 0.91316 0.91539 0.0
C1855 C 0.32154 0.89874 0.94772 0.0
C1856 C 0.32324 0.9462 0.89576 0.0
C1857 C 0.3603 0.94879 0.86781 0.0
N1858 N 0.32259 0.91293 0.93001 0.0
N1859 N 0.35855 0.93214 0.88336 0.0
H1860 H 0.06719 0.35555 0.87282 0.0
H1861 H 0.1302 0.27593 0.96073 0.0
H1862 H 0.04168 0.29322 0.89935 0.0
H1863 H 0.15459 0.34234 0.9456 0.0
H1864 H 0.09938 0.28172 0.93502 0.0
H1865 H 0.10051 0.3513 0.89695 0.0
C1866 C 0.0685 0.3411 0.88372 0.0
C1867 C 0.0516 0.3247 0.88394 0.0
C1868 C 0.11142 0.29511 0.93721 0.0
C1869 C 0.08954 0.31966 0.91123 0.0
C1870 C 0.12914 0.29176 0.95191 0.0
C1871 C 0.14497 0.30872 0.9555 0.0
C1872 C 0.10925 0.31564 0.92589 0.0
C1873 C 0.14273 0.32881 0.94335 0.0
C1874 C 0.08751 0.33866 0.8974 0.0
C1875 C 0.05421 0.3063 0.89839 0.0
N1876 N 0.12508 0.3318 0.92913 0.0
N1877 N 0.07273 0.3043 0.91128 0.0
H1878 H 0.67624 0.16855 0.91638 0.0
H1879 H 0.61176 0.07422 0.84973 0.0
H1880 H 0.61002 0.1459 0.93431 0.0
H1881 H 0.67785 0.09863 0.83366 0.0
H1882 H 0.60627 0.10664 0.87441 0.0
H1883 H 0.67251 0.15008 0.8802 0.0
C1884 C 0.6607 0.16003 0.91246 0.0
C1885 C 0.64356 0.15841 0.92843 0.0
C1886 C 0.62173 0.10521 0.86502 0.0
C1887 C 0.63938 0.13655 0.88727 0.0
C1888 C 0.6248 0.0868 0.8508 0.0
C1889 C 0.64545 0.08357 0.84 0.0
C1890 C 0.63946 0.12038 0.86833 0.0
C1891 C 0.66182 0.10029 0.84201 0.0
C1892 C 0.65856 0.14942 0.8918 0.0
C1893 C 0.62367 0.1474 0.92244 0.0
N1894 N 0.65861 0.11775 0.85618 0.0
N1895 N 0.62232 0.13638 0.90251 0.0
H1896 H 0.95337 0.69363 0.87985 0.0
H1897 H 0.85577 0.62689 0.94208 0.0
H1898 H 0.93406 0.62722 0.85859 0.0
H1899 H 0.89199 0.68294 0.96998 0.0
H1900 H 0.88129 0.62735 0.90967 0.0
H1901 H 0.92731 0.69103 0.91077 0.0
C1902 C 0.94359 0.67844 0.88161 0.0
C1903 C 0.94605 0.66054 0.86657 0.0
C1904 C 0.88361 0.63942 0.923 0.0
C1905 C 0.91595 0.65746 0.90238 0.0
C1906 C 0.86908 0.63921 0.94146 0.0
C1907 C 0.87168 0.65496 0.95876 0.0
C1908 C 0.9006 0.65565 0.92183 0.0
C1909 C 0.88924 0.67049 0.9571 0.0
C1910 C 0.92871 0.67695 0.89942 0.0
C1911 C 0.93274 0.64138 0.86982 0.0
N1912 N 0.90288 0.67049 0.93896 0.0
N1913 N 0.9182 0.64032 0.88744 0.0
H1914 H 0.65262 0.90115 0.16569 0.0
H1915 H 0.59566 0.86291 0.05314 0.0
H1916 H 0.59851 0.93677 0.13393 0.0
H1917 H 0.65712 0.83713 0.08095 0.0
H1918 H 0.58721 0.88058 0.08937 0.0
H1919 H 0.64399 0.86829 0.14301 0.0
C1920 C 0.63832 0.90168 0.15452 0.0
C1921 C 0.62639 0.92163 0.15139 0.0
C1922 C 0.60219 0.87047 0.08772 0.0
C1923 C 0.61718 0.88466 0.12452 0.0
C1924 C 0.60696 0.86033 0.06711 0.0
C1925 C 0.62734 0.84903 0.06407 0.0
C1926 C 0.61788 0.86903 0.10524 0.0
C1927 C 0.64144 0.84613 0.08257 0.0
C1928 C 0.63349 0.88302 0.14142 0.0
C1929 C 0.60808 0.92161 0.13671 0.0
N1930 N 0.63661 0.85634 0.10226 0.0
N1931 N 0.60443 0.90359 0.12324 0.0
H1932 H 0.0599 0.66912 0.15571 0.0
H1933 H 0.12438 0.6169 0.05047 0.0
H1934 H 0.04485 0.60296 0.13117 0.0
H1935 H 0.11829 0.68718 0.0661 0.0
H1936 H 0.10338 0.608 0.08505 0.0
H1937 H 0.0909 0.67164 0.12923 0.0
C1938 C 0.06358 0.65486 0.1451 0.0
C1939 C 0.04981 0.63589 0.14545 0.0
C1940 C 0.10693 0.62531 0.08093 0.0
C1941 C 0.08469 0.63895 0.11444 0.0
C1942 C 0.11887 0.63038 0.06129 0.0
C1943 C 0.12274 0.65282 0.05531 0.0
C1944 C 0.0994 0.64282 0.09476 0.0
C1945 C 0.11535 0.66968 0.06987 0.0
C1946 C 0.08113 0.65636 0.12985 0.0
C1947 C 0.05521 0.61784 0.13138 0.0
N1948 N 0.10406 0.66433 0.08882 0.0
N1949 N 0.07203 0.61998 0.11602 0.0
H1950 H 0.9828 0.38385 0.09808 0.0
H1951 H 0.86322 0.34471 0.09646 0.0
H1952 H 0.94845 0.37657 0.16117 0.0
H1953 H 0.88277 0.39504 0.04852 0.0
H1954 H 0.89355 0.35699 0.12123 0.0
H1955 H 0.94668 0.38986 0.07952 0.0
C1956 C 0.96765 0.3843 0.10809 0.0
C1957 C 0.96845 0.37979 0.13111 0.0
C1958 C 0.8908 0.3658 0.1056 0.0
C1959 C 0.92724 0.38563 0.10999 0.0
C1960 C 0.87358 0.35877 0.09149 0.0
C1961 C 0.87064 0.36894 0.07056 0.0
C1962 C 0.90568 0.38247 0.09824 0.0
C1963 C 0.88454 0.38693 0.06466 0.0
C1964 C 0.94709 0.38771 0.09754 0.0
C1965 C 0.94842 0.38018 0.14339 0.0
N1966 N 0.90195 0.39274 0.07817 0.0
N1967 N 0.92849 0.38235 0.13255 0.0
H1968 H 0.62638 0.88356 0.53943 0.0
H1969 H 0.55916 0.88135 0.65527 0.0
H1970 H 0.63709 0.83395 0.59087 0.0
H1971 H 0.52887 0.89677 0.59159 0.0
H1972 H 0.59573 0.87778 0.63644 0.0
H1973 H 0.59877 0.90208 0.56375 0.0
C1974 C 0.62351 0.87705 0.55613 0.0
C1975 C 0.63377 0.8571 0.56313 0.0
C1976 C 0.58116 0.88265 0.62679 0.0
C1977 C 0.6026 0.8782 0.5909 0.0
C1978 C 0.56041 0.88483 0.63749 0.0
C1979 C 0.54113 0.88926 0.62485 0.0
C1980 C 0.58252 0.88541 0.60345 0.0
C1981 C 0.54344 0.89326 0.60182 0.0
C1982 C 0.60771 0.88753 0.5699 0.0
C1983 C 0.62932 0.84919 0.58482 0.0
N1984 N 0.56376 0.89109 0.59179 0.0
N1985 N 0.6139 0.85966 0.5979 0.0
H1986 H 0.09484 0.56169 0.68055 0.0
H1987 H 0.06319 0.62117 0.565 0.0
H1988 H 0.08601 0.52744 0.61767 0.0
H1989 H 0.10928 0.64916 0.61289 0.0
H1990 H 0.05489 0.59075 0.59146 0.0
H1991 H 0.08401 0.59708 0.66222 0.0
C1992 C 0.08983 0.56153 0.66311 0.0
C1993 C 0.09142 0.54182 0.65046 0.0
C1994 C 0.06609 0.6041 0.5965 0.0
C1995 C 0.0788 0.58177 0.62968 0.0
C1996 C 0.07063 0.62156 0.58155 0.0
C1997 C 0.08693 0.63759 0.58687 0.0
C1998 C 0.07776 0.60296 0.6169 0.0
C1999 C 0.09657 0.63707 0.60828 0.0
C2000 C 0.08375 0.58165 0.65269 0.0
C2001 C 0.08508 0.5424 0.62787 0.0
N2002 N 0.09208 0.61981 0.62245 0.0
N2003 N 0.07918 0.56211 0.61814 0.0
H2004 H 0.36346 0.07285 0.56271 0.0
H2005 H 0.40383 0.13302 0.67164 0.0
H2006 H 0.32914 0.12729 0.5953 0.0
H2007 H 0.43905 0.07768 0.64149 0.0
H2008 H 0.3702 0.12254 0.65104 0.0
H2009 H 0.38424 0.06566 0.59744 0.0
C2010 C 0.35951 0.08255 0.57753 0.0
C2011 C 0.34483 0.10083 0.57621 0.0
C2012 C 0.38507 0.1123 0.64923 0.0
C2013 C 0.36886 0.09325 0.61559 0.0
C2014 C 0.40426 0.11828 0.66107 0.0
C2015 C 0.42427 0.10643 0.6579 0.0
C2016 C 0.38612 0.09482 0.63348 0.0
C2017 C 0.42393 0.08734 0.64422 0.0
C2018 C 0.37156 0.07864 0.59728 0.0
C2019 C 0.34051 0.11315 0.59569 0.0
N2020 N 0.40531 0.08249 0.63196 0.0
N2021 N 0.3528 0.10943 0.61443 0.0
H2022 H 0.87247 0.34688 0.60796 0.0
H2023 H 0.90462 0.4707 0.61183 0.0
H2024 H 0.91727 0.37421 0.55838 0.0
H2025 H 0.89613 0.43455 0.6738 0.0
H2026 H 0.91093 0.43524 0.59235 0.0
H2027 H 0.88268 0.37729 0.63352 0.0
C2028 C 0.88512 0.35886 0.60284 0.0
C2029 C 0.89421 0.35807 0.5812 0.0
C2030 C 0.9082 0.43505 0.6103 0.0
C2031 C 0.90511 0.39336 0.60979 0.0
C2032 C 0.90447 0.45525 0.62137 0.0
C2033 C 0.8997 0.45544 0.64437 0.0
C2034 C 0.90639 0.41483 0.62216 0.0
C2035 C 0.89977 0.43504 0.65603 0.0
C2036 C 0.89087 0.37624 0.61736 0.0
C2037 C 0.91014 0.37417 0.57508 0.0
N2038 N 0.90248 0.41543 0.64468 0.0
N2039 N 0.91466 0.39156 0.58909 0.0
H2040 H 0.58344 0.19586 0.35178 0.0
H2041 H 0.65221 0.12394 0.43867 0.0
H2042 H 0.57348 0.1249 0.36092 0.0
H2043 H 0.66229 0.19442 0.42615 0.0
H2044 H 0.6302 0.12147 0.40412 0.0
H2045 H 0.61875 0.19321 0.37204 0.0
C2046 C 0.58897 0.17961 0.35772 0.0
C2047 C 0.57541 0.16065 0.35507 0.0
C2048 C 0.63769 0.13735 0.40866 0.0
C2049 C 0.61551 0.15754 0.37891 0.0
C2050 C 0.65035 0.13875 0.42833 0.0
C2051 C 0.65862 0.15954 0.43553 0.0
C2052 C 0.63333 0.1569 0.39624 0.0
C2053 C 0.65578 0.17815 0.42147 0.0
C2054 C 0.60913 0.17808 0.36932 0.0
C2055 C 0.58343 0.13995 0.3628 0.0
N2056 N 0.64308 0.17647 0.40273 0.0
N2057 N 0.60275 0.13901 0.37489 0.0
H2058 H 0.88472 0.54025 0.36754 0.0
H2059 H 0.82568 0.63207 0.44465 0.0
H2060 H 0.81343 0.55114 0.37294 0.0
H2061 H 0.89717 0.62184 0.44478 0.0
H2062 H 0.82238 0.60723 0.41258 0.0
H2063 H 0.89102 0.57398 0.3904 0.0
C2064 C 0.87044 0.54991 0.37322 0.0
C2065 C 0.8485 0.5427 0.36866 0.0
C2066 C 0.8389 0.61053 0.41932 0.0
C2067 C 0.85555 0.58114 0.39457 0.0
C2068 C 0.84076 0.6248 0.4376 0.0
C2069 C 0.86168 0.6288 0.44739 0.0
C2070 C 0.85805 0.59964 0.41102 0.0
C2071 C 0.88074 0.61912 0.4376 0.0
C2072 C 0.87404 0.5691 0.38628 0.0
C2073 C 0.83061 0.55583 0.37636 0.0
N2074 N 0.87844 0.60457 0.42013 0.0
N2075 N 0.83454 0.57424 0.38901 0.0
H2076 H 0.3157 0.84125 0.43937 0.0
H2077 H 0.43769 0.86314 0.38912 0.0
H2078 H 0.37263 0.85632 0.48112 0.0
H2079 H 0.3974 0.80697 0.36825 0.0
H2080 H 0.40826 0.87349 0.41616 0.0
H2081 H 0.34062 0.84123 0.40635 0.0
C2082 C 0.33332 0.84507 0.44144 0.0
C2083 C 0.3423 0.84861 0.46283 0.0
C2084 C 0.40573 0.85924 0.40521 0.0
C2085 C 0.37043 0.84918 0.42554 0.0
C2086 C 0.42237 0.85342 0.38979 0.0
C2087 C 0.41991 0.83411 0.37668 0.0
C2088 C 0.38638 0.84599 0.40696 0.0
C2089 C 0.3999 0.82188 0.37826 0.0
C2090 C 0.34745 0.84501 0.42273 0.0
C2091 C 0.36521 0.85334 0.46483 0.0
N2092 N 0.38387 0.82799 0.39322 0.0
N2093 N 0.37855 0.8535 0.44639 0.0
H2094 H 0.20828 0.47009 0.3991 0.0
H2095 H 0.14451 0.36363 0.45057 0.0
H2096 H 0.14401 0.44778 0.37454 0.0
H2097 H 0.20827 0.38903 0.47342 0.0
H2098 H 0.1443 0.39253 0.42113 0.0
H2099 H 0.20904 0.43851 0.42477 0.0
C2100 C 0.19433 0.45847 0.39902 0.0
C2101 C 0.17599 0.46172 0.38471 0.0
C2102 C 0.15833 0.39164 0.43259 0.0
C2103 C 0.17666 0.42535 0.41438 0.0
C2104 C 0.15846 0.37517 0.44937 0.0
C2105 C 0.17634 0.37396 0.46462 0.0
C2106 C 0.17625 0.40688 0.43108 0.0
C2107 C 0.194 0.38934 0.46223 0.0
C2108 C 0.19476 0.44038 0.41374 0.0
C2109 C 0.15848 0.44595 0.38531 0.0
N2110 N 0.19345 0.40509 0.4459 0.0
N2111 N 0.15917 0.42851 0.40003 0.0
H2112 H 0.61114 0.55888 0.78554 0.0
H2113 H 0.54053 0.64646 0.85855 0.0
H2114 H 0.62489 0.56937 0.85574 0.0
H2115 H 0.53353 0.63561 0.78742 0.0
H2116 H 0.57287 0.62063 0.85863 0.0
H2117 H 0.58399 0.58897 0.78658 0.0
C2118 C 0.60846 0.56756 0.80125 0.0
C2119 C 0.62022 0.56141 0.82062 0.0
C2120 C 0.56431 0.62415 0.84303 0.0
C2121 C 0.58871 0.59621 0.82203 0.0
C2122 C 0.54595 0.63892 0.84296 0.0
C2123 C 0.53414 0.64297 0.823 0.0
C2124 C 0.57081 0.61357 0.82297 0.0
C2125 C 0.54185 0.63276 0.80329 0.0
C2126 C 0.59292 0.58488 0.80184 0.0
C2127 C 0.61614 0.57355 0.84041 0.0
N2128 N 0.5595 0.61853 0.80383 0.0
N2129 N 0.60053 0.59028 0.84068 0.0
H2130 H 0.39534 0.65685 0.81952 0.0
H2131 H 0.37575 0.54278 0.88006 0.0
H2132 H 0.43755 0.63485 0.87376 0.0
H2133 H 0.32711 0.57446 0.83723 0.0
H2134 H 0.39489 0.57896 0.88437 0.0
H2135 H 0.36658 0.63048 0.83154 0.0
C2136 C 0.39826 0.64677 0.83434 0.0
C2137 C 0.41878 0.64782 0.8456 0.0
C2138 C 0.37957 0.5782 0.87468 0.0
C2139 C 0.38637 0.61686 0.85901 0.0
C2140 C 0.36858 0.5576 0.8724 0.0
C2141 C 0.3499 0.55583 0.85831 0.0
C2142 C 0.37193 0.59687 0.86244 0.0
C2143 C 0.34148 0.57528 0.84828 0.0
C2144 C 0.38187 0.63166 0.84123 0.0
C2145 C 0.42185 0.63445 0.86469 0.0
N2146 N 0.35276 0.5949 0.85022 0.0
N2147 N 0.40602 0.61905 0.87049 0.0
H2148 H 0.36622 0.43306 0.86597 0.0
H2149 H 0.45417 0.36033 0.7955 0.0
H2150 H 0.38272 0.44338 0.79629 0.0
H2151 H 0.451 0.35707 0.86768 0.0
H2152 H 0.42291 0.38629 0.79555 0.0
H2153 H 0.39267 0.4014 0.86694 0.0
C2154 C 0.37524 0.42858 0.85087 0.0
C2155 C 0.37239 0.441 0.83105 0.0
C2156 C 0.4289 0.37988 0.81143 0.0
C2157 C 0.40236 0.40487 0.83203 0.0
C2158 C 0.44678 0.36497 0.81142 0.0
C2159 C 0.45546 0.35674 0.83165 0.0
C2160 C 0.41953 0.38687 0.83183 0.0
C2161 C 0.44489 0.36311 0.85171 0.0
C2162 C 0.39033 0.41058 0.85146 0.0
C2163 C 0.3845 0.43448 0.812 0.0
N2164 N 0.42758 0.37805 0.85133 0.0
N2165 N 0.3989 0.41695 0.81299 0.0
H2166 H 0.55662 0.37199 0.87892 0.0
H2167 H 0.66004 0.42767 0.81678 0.0
H2168 H 0.59227 0.34354 0.82296 0.0
H2169 H 0.6259 0.4596 0.87177 0.0
H2170 H 0.64116 0.39263 0.82572 0.0
H2171 H 0.5868 0.39981 0.8833 0.0
C2172 C 0.57118 0.37115 0.86809 0.0
C2173 C 0.57199 0.35571 0.85042 0.0
C2174 C 0.63797 0.40711 0.83617 0.0
C2175 C 0.60618 0.38734 0.85507 0.0
C2176 C 0.64884 0.42709 0.83107 0.0
C2177 C 0.64432 0.44646 0.84346 0.0
C2178 C 0.62185 0.40663 0.85335 0.0
C2179 C 0.62976 0.44491 0.86186 0.0
C2180 C 0.58829 0.38709 0.87046 0.0
C2181 C 0.59098 0.35536 0.83665 0.0
N2182 N 0.61858 0.42541 0.86597 0.0
N2183 N 0.60716 0.37109 0.8391 0.0
H2184 H 0.51144 0.42157 0.17842 0.0
H2185 H 0.63103 0.45641 0.12847 0.0
H2186 H 0.54879 0.37842 0.13393 0.0
H2187 H 0.59282 0.49519 0.17612 0.0
H2188 H 0.60056 0.4287 0.12754 0.0
H2189 H 0.54044 0.44975 0.17495 0.0
C2190 C 0.52576 0.41799 0.16785 0.0
C2191 C 0.52772 0.39746 0.15659 0.0
C2192 C 0.59888 0.44335 0.13809 0.0
C2193 C 0.56133 0.42993 0.15257 0.0
C2194 C 0.61622 0.45918 0.1386 0.0
C2195 C 0.61456 0.47809 0.15251 0.0
C2196 C 0.57978 0.44659 0.1515 0.0
C2197 C 0.59499 0.48083 0.16527 0.0
C2198 C 0.54239 0.43417 0.16586 0.0
C2199 C 0.54664 0.39399 0.14298 0.0
N2200 N 0.57849 0.46527 0.16448 0.0
N2201 N 0.56282 0.41004 0.14144 0.0
H2202 H 0.6654 0.605 0.16321 0.0
H2203 H 0.56071 0.64641 0.09319 0.0
H2204 H 0.6416 0.57205 0.10357 0.0
H2205 H 0.57845 0.66776 0.15981 0.0
H2206 H 0.5977 0.62855 0.08958 0.0
H2207 H 0.64236 0.63748 0.15409 0.0
C2208 C 0.65583 0.60492 0.14779 0.0
C2209 C 0.65501 0.5857 0.13436 0.0
C2210 C 0.59372 0.63772 0.10471 0.0
C2211 C 0.62794 0.62243 0.12424 0.0
C2212 C 0.5727 0.648 0.10672 0.0
C2213 C 0.56653 0.65819 0.12697 0.0
C2214 C 0.60853 0.63792 0.12303 0.0
C2215 C 0.58252 0.65974 0.14406 0.0
C2216 C 0.64256 0.62341 0.14264 0.0
C2217 C 0.64252 0.58652 0.11447 0.0
N2218 N 0.60266 0.64946 0.14181 0.0
N2219 N 0.62892 0.60436 0.1103 0.0
H2220 H 0.42906 0.64534 0.10529 0.0
H2221 H 0.3992 0.51751 0.12833 0.0
H2222 H 0.47695 0.59326 0.11993 0.0
H2223 H 0.34869 0.56643 0.11163 0.0
H2224 H 0.42814 0.54444 0.11876 0.0
H2225 H 0.39986 0.61652 0.1009 0.0
C2226 C 0.43353 0.62783 0.10696 0.0
C2227 C 0.45531 0.62161 0.11329 0.0
C2228 C 0.41078 0.54938 0.11694 0.0
C2229 C 0.42223 0.5888 0.10852 0.0
C2230 C 0.39422 0.53396 0.12247 0.0
C2231 C 0.37156 0.53989 0.12111 0.0
C2232 C 0.40474 0.57118 0.11043 0.0
C2233 C 0.36604 0.5613 0.11303 0.0
C2234 C 0.41687 0.61142 0.10461 0.0
C2235 C 0.46027 0.59877 0.11539 0.0
N2236 N 0.38256 0.57639 0.10838 0.0
N2237 N 0.44384 0.58327 0.11325 0.0
H2238 H 0.39889 0.34321 0.16599 0.0
H2239 H 0.34751 0.44168 0.09614 0.0
H2240 H 0.43043 0.37191 0.10772 0.0
H2241 H 0.32103 0.41533 0.15792 0.0
H2242 H 0.36996 0.40753 0.09167 0.0
H2243 H 0.36328 0.35961 0.15452 0.0
C2244 C 0.39809 0.3525 0.1504 0.0
C2245 C 0.41755 0.35662 0.13796 0.0
C2246 C 0.35861 0.40885 0.10577 0.0
C2247 C 0.37716 0.37631 0.12521 0.0
C2248 C 0.34564 0.42824 0.1082 0.0
C2249 C 0.33278 0.43134 0.12762 0.0
C2250 C 0.35858 0.39268 0.12293 0.0
C2251 C 0.33104 0.41361 0.14288 0.0
C2252 C 0.37779 0.36194 0.14386 0.0
C2253 C 0.41572 0.36857 0.11782 0.0
N2254 N 0.34414 0.39522 0.14043 0.0
N2255 N 0.39596 0.3786 0.11237 0.0
H2256 H 0.88431 0.59514 0.66866 0.0
H2257 H 0.91554 0.60951 0.54495 0.0
H2258 H 0.93276 0.55248 0.63651 0.0
H2259 H 0.88742 0.66353 0.58356 0.0
H2260 H 0.92861 0.5919 0.57963 0.0
H2261 H 0.89191 0.62423 0.64089 0.0
C2262 C 0.89739 0.59238 0.65636 0.0
C2263 C 0.90803 0.57153 0.65485 0.0
C2264 C 0.92025 0.60798 0.58057 0.0
C2265 C 0.91585 0.60407 0.62219 0.0
C2266 C 0.91287 0.61802 0.56076 0.0
C2267 C 0.90053 0.63793 0.56158 0.0
C2268 C 0.91449 0.61759 0.60131 0.0
C2269 C 0.89705 0.64819 0.58238 0.0
C2270 C 0.90158 0.60889 0.64032 0.0
C2271 C 0.9244 0.56849 0.63829 0.0
N2272 N 0.90354 0.63764 0.60151 0.0
N2273 N 0.92735 0.58433 0.62217 0.0
H2274 H 0.81866 0.41162 0.37237 0.0
H2275 H 0.89839 0.35368 0.46307 0.0
H2276 H 0.88779 0.43131 0.37972 0.0
H2277 H 0.82623 0.35692 0.46629 0.0
H2278 H 0.89718 0.3744 0.42729 0.0
H2279 H 0.82414 0.38263 0.40049 0.0
C2280 C 0.83515 0.40956 0.37969 0.0
C2281 C 0.85271 0.42408 0.37402 0.0
C2282 C 0.88168 0.37031 0.4358 0.0
C2283 C 0.85899 0.39116 0.40666 0.0
C2284 C 0.88233 0.35848 0.45611 0.0
C2285 C 0.86237 0.35382 0.46772 0.0
C2286 C 0.8609 0.37697 0.42697 0.0
C2287 C 0.84202 0.36041 0.45806 0.0
C2288 C 0.83824 0.39307 0.39582 0.0
C2289 C 0.87382 0.42047 0.38376 0.0
N2290 N 0.84184 0.37161 0.43831 0.0
N2291 N 0.87632 0.40455 0.4 0.0
H2292 H 0.54364 0.84681 0.37069 0.0
H2293 H 0.61207 0.77896 0.46371 0.0
H2294 H 0.53314 0.77715 0.38715 0.0
H2295 H 0.62895 0.84676 0.44506 0.0
H2296 H 0.58472 0.77784 0.43359 0.0
H2297 H 0.57644 0.8471 0.39561 0.0
C2298 C 0.54834 0.83154 0.37932 0.0
C2299 C 0.53544 0.81199 0.37699 0.0
C2300 C 0.59447 0.79296 0.43589 0.0
C2301 C 0.57279 0.81224 0.40549 0.0
C2302 C 0.61012 0.7936 0.45315 0.0
C2303 C 0.62271 0.81304 0.45705 0.0
C2304 C 0.59104 0.81199 0.42245 0.0
C2305 C 0.61957 0.83143 0.44266 0.0
C2306 C 0.56703 0.83173 0.39355 0.0
C2307 C 0.54234 0.79271 0.38857 0.0
N2308 N 0.60384 0.83055 0.42612 0.0
N2309 N 0.56037 0.79339 0.40236 0.0
H2310 H 0.11085 0.66069 0.45253 0.0
H2311 H 0.10923 0.54395 0.38758 0.0
H2312 H 0.10751 0.5968 0.48611 0.0
H2313 H 0.1558 0.5966 0.37087 0.0
H2314 H 0.09364 0.56779 0.41732 0.0
H2315 H 0.11288 0.64101 0.41632 0.0
C2316 C 0.10994 0.64257 0.4522 0.0
C2317 C 0.10924 0.63025 0.4722 0.0
C2318 C 0.10679 0.5743 0.40662 0.0
C2319 C 0.11094 0.60793 0.43122 0.0
C2320 C 0.11555 0.56084 0.3896 0.0
C2321 C 0.13387 0.56836 0.37695 0.0
C2322 C 0.11612 0.59551 0.41053 0.0
C2323 C 0.14173 0.59023 0.38041 0.0
C2324 C 0.11114 0.63143 0.43164 0.0
C2325 C 0.10827 0.60682 0.471 0.0
N2326 N 0.1329 0.60304 0.39703 0.0
N2327 N 0.10919 0.59638 0.45081 0.0
H2328 H 0.48841 0.14054 0.41141 0.0
H2329 H 0.36259 0.10731 0.44003 0.0
H2330 H 0.44088 0.12311 0.35997 0.0
H2331 H 0.41418 0.12107 0.4887 0.0
H2332 H 0.39136 0.10713 0.41043 0.0
H2333 H 0.4623 0.12742 0.43975 0.0
C2334 C 0.47246 0.13367 0.40612 0.0
C2335 C 0.46663 0.13311 0.38343 0.0
C2336 C 0.39637 0.10979 0.42766 0.0
C2337 C 0.4362 0.11852 0.41587 0.0
C2338 C 0.37999 0.10982 0.44453 0.0
C2339 C 0.38601 0.11463 0.46676 0.0
C2340 C 0.41879 0.11448 0.43321 0.0
C2341 C 0.40874 0.11773 0.47172 0.0
C2342 C 0.45751 0.12616 0.4223 0.0
C2343 C 0.4459 0.12383 0.37738 0.0
N2344 N 0.4242 0.11782 0.4551 0.0
N2345 N 0.43115 0.11727 0.39359 0.0
H2346 H 0.08882 0.42959 0.63422 0.0
H2347 H 0.18198 0.34479 0.59726 0.0
H2348 H 0.14593 0.41236 0.67473 0.0
H2349 H 0.11924 0.35114 0.56199 0.0
H2350 H 0.16558 0.36413 0.62923 0.0
H2351 H 0.09528 0.39593 0.61152 0.0
C2352 C 0.10209 0.41812 0.63892 0.0
C2353 C 0.11681 0.4235 0.65635 0.0
C2354 C 0.15518 0.361 0.6147 0.0
C2355 C 0.12492 0.3857 0.6301 0.0
C2356 C 0.1646 0.34998 0.59641 0.0
C2357 C 0.15206 0.34672 0.57684 0.0
C2358 C 0.13321 0.36936 0.61325 0.0
C2359 C 0.12953 0.3535 0.57674 0.0
C2360 C 0.10595 0.39905 0.62585 0.0
C2361 C 0.13415 0.40857 0.66148 0.0
N2362 N 0.12095 0.36498 0.59448 0.0
N2363 N 0.13797 0.39055 0.64817 0.0
H2364 H 0.60157 0.18062 0.53624 0.0
H2365 H 0.55687 0.1063 0.63782 0.0
H2366 H 0.63791 0.12245 0.55928 0.0
H2367 H 0.5164 0.15296 0.6001 0.0
H2368 H 0.58731 0.11158 0.61046 0.0
H2369 H 0.57099 0.17107 0.56133 0.0
C2370 C 0.60315 0.16581 0.54662 0.0
C2371 C 0.62239 0.15235 0.54567 0.0
C2372 C 0.57164 0.12044 0.60815 0.0
C2373 C 0.58721 0.14123 0.57463 0.0
C2374 C 0.55427 0.1174 0.6237 0.0
C2375 C 0.53413 0.12939 0.62141 0.0
C2376 C 0.56879 0.13565 0.59038 0.0
C2377 C 0.53168 0.14354 0.60277 0.0
C2378 C 0.58558 0.16028 0.56091 0.0
C2379 C 0.62336 0.13328 0.55949 0.0
N2380 N 0.54882 0.14641 0.58817 0.0
N2381 N 0.60604 0.12834 0.57354 0.0
H2382 H 0.43079 0.91896 0.60509 0.0
H2383 H 0.32609 0.84797 0.5996 0.0
H2384 H 0.40378 0.88865 0.66472 0.0
H2385 H 0.33432 0.90351 0.55414 0.0
H2386 H 0.35109 0.86642 0.62617 0.0
H2387 H 0.39334 0.91892 0.58846 0.0
C2388 C 0.4167 0.9133 0.61506 0.0
C2389 C 0.42019 0.9039 0.63627 0.0
C2390 C 0.34696 0.87495 0.61069 0.0
C2391 C 0.37767 0.90261 0.61703 0.0
C2392 C 0.33274 0.86436 0.59551 0.0
C2393 C 0.32844 0.87413 0.5746 0.0
C2394 C 0.35758 0.89504 0.60455 0.0
C2395 C 0.33735 0.89541 0.5701 0.0
C2396 C 0.39534 0.91312 0.60554 0.0
C2397 C 0.40161 0.89623 0.64837 0.0
N2398 N 0.35208 0.90488 0.58468 0.0
N2399 N 0.38119 0.89512 0.63833 0.0
loop_
_geom_bond_atom_site_label_1
_geom_bond_atom_site_label_2
_geom_bond_distance
_geom_bond_site_symmetry_2
_ccdc_geom_bond_type
Zn0 O3 2.031 . S
Zn0 O5 2.049 . S
Zn0 O10 2.067 1_455 S
Zn1 O2 1.962 . S
Zn1 O4 1.986 . S
Zn1 O6 1.996 . S
Zn1 O9 1.943 . S
O2 Zn1 1.962 . S
O2 C7 1.254 . S
O3 Zn0 2.031 . S
O3 C7 1.269 . S
O4 Zn1 1.986 . S
O4 C11 1.262 . S
O5 Zn0 2.049 . S
O5 C13 1.260 . S
O6 Zn1 1.996 . S
O6 C13 1.257 . S
C7 O2 1.254 . S
C7 O3 1.269 . S
C8 O9 1.249 1_655 S
C8 O10 1.270 . S
O9 Zn1 1.943 . S
O9 C8 1.249 1_455 S
O10 Zn0 2.067 1_655 S
O10 C8 1.270 . S
C11 O4 1.262 . S
C11 O12 1.232 . S
O12 C11 1.232 . S
C13 O5 1.260 . S
C13 O6 1.257 . S
Zn14 O17 2.031 . S
Zn14 O19 2.049 . S
Zn14 O24 2.067 1_545 S
Zn15 O16 1.962 . S
Zn15 O18 1.986 . S
Zn15 O20 1.996 . S
Zn15 O23 1.943 . S
O16 Zn15 1.962 . S
O16 C21 1.254 . S
O17 Zn14 2.031 . S
O17 C21 1.269 . S
O18 Zn15 1.986 . S
O18 C25 1.262 . S
O19 Zn14 2.049 . S
O19 C27 1.260 . S
O20 Zn15 1.996 . S
O20 C27 1.257 . S
C21 O16 1.254 . S
C21 O17 1.269 . S
C22 O23 1.249 1_565 S
C22 O24 1.270 . S
O23 Zn15 1.943 . S
O23 C22 1.249 1_545 S
O24 Zn14 2.067 1_565 S
O24 C22 1.270 . S
C25 O18 1.262 . S
C25 O26 1.232 . S
O26 C25 1.232 . S
C27 O19 1.260 . S
C27 O20 1.257 . S
Zn28 O31 2.031 . S
Zn28 O33 2.049 . S
Zn28 O38 2.067 1_655 S
Zn29 O30 1.962 . S
Zn29 O32 1.986 . S
Zn29 O34 1.996 . S
Zn29 O37 1.943 . S
O30 Zn29 1.962 . S
O30 C35 1.254 . S
O31 Zn28 2.031 . S
O31 C35 1.269 . S
O32 Zn29 1.986 . S
O32 C39 1.262 . S
O33 Zn28 2.049 . S
O33 C41 1.260 . S
O34 Zn29 1.996 . S
O34 C41 1.257 . S
C35 O30 1.254 . S
C35 O31 1.269 . S
C36 O37 1.249 1_455 S
C36 O38 1.270 . S
O37 Zn29 1.943 . S
O37 C36 1.249 1_655 S
O38 Zn28 2.067 1_455 S
O38 C36 1.270 . S
C39 O32 1.262 . S
C39 O40 1.232 . S
O40 C39 1.232 . S
C41 O33 1.260 . S
C41 O34 1.257 . S
Zn42 O45 2.031 . S
Zn42 O47 2.049 . S
Zn42 O52 2.067 1_565 S
Zn43 O44 1.962 . S
Zn43 O46 1.986 . S
Zn43 O48 1.996 . S
Zn43 O51 1.943 . S
O44 Zn43 1.962 . S
O44 C49 1.254 . S
O45 Zn42 2.031 . S
O45 C49 1.269 . S
O46 Zn43 1.986 . S
O46 C53 1.262 . S
O47 Zn42 2.049 . S
O47 C55 1.260 . S
O48 Zn43 1.996 . S
O48 C55 1.257 . S
C49 O44 1.254 . S
C49 O45 1.269 . S
C50 O51 1.249 1_545 S
C50 O52 1.270 . S
O51 Zn43 1.943 . S
O51 C50 1.249 1_565 S
O52 Zn42 2.067 1_545 S
O52 C50 1.270 . S
C53 O46 1.262 . S
C53 O54 1.232 . S
O54 C53 1.232 . S
C55 O47 1.260 . S
C55 O48 1.257 . S
Zn56 O59 2.031 . S
Zn56 O61 2.049 . S
Zn56 O66 2.067 1_455 S
Zn57 O58 1.962 . S
Zn57 O60 1.986 . S
Zn57 O62 1.996 . S
Zn57 O65 1.943 . S
O58 Zn57 1.962 . S
O58 C63 1.254 . S
O59 Zn56 2.031 . S
O59 C63 1.269 . S
O60 Zn57 1.986 . S
O60 C67 1.262 . S
O61 Zn56 2.049 . S
O61 C69 1.260 . S
O62 Zn57 1.996 . S
O62 C69 1.257 . S
C63 O58 1.254 . S
C63 O59 1.269 . S
C64 O65 1.249 1_655 S
C64 O66 1.270 . S
O65 Zn57 1.943 . S
O65 C64 1.249 1_455 S
O66 Zn56 2.067 1_655 S
O66 C64 1.270 . S
C67 O60 1.262 . S
C67 O68 1.232 . S
O68 C67 1.232 . S
C69 O61 1.260 . S
C69 O62 1.257 . S
Zn70 O73 2.031 . S
Zn70 O75 2.049 . S
Zn70 O80 2.067 1_545 S
Zn71 O72 1.962 . S
Zn71 O74 1.986 . S
Zn71 O76 1.996 . S
Zn71 O79 1.943 . S
O72 Zn71 1.962 . S
O72 C77 1.254 . S
O73 Zn70 2.031 . S
O73 C77 1.269 . S
O74 Zn71 1.986 . S
O74 C81 1.262 . S
O75 Zn70 2.049 . S
O75 C83 1.260 . S
O76 Zn71 1.996 . S
O76 C83 1.257 . S
C77 O72 1.254 . S
C77 O73 1.269 . S
C78 O79 1.249 1_565 S
C78 O80 1.270 . S
O79 Zn71 1.943 . S
O79 C78 1.249 1_545 S
O80 Zn70 2.067 1_565 S
O80 C78 1.270 . S
C81 O74 1.262 . S
C81 O82 1.232 . S
O82 C81 1.232 . S
C83 O75 1.260 . S
C83 O76 1.257 . S
Zn84 O87 2.031 . S
Zn84 O89 2.049 . S
Zn84 O94 2.067 1_655 S
Zn85 O86 1.962 . S
Zn85 O88 1.986 . S
Zn85 O90 1.996 . S
Zn85 O93 1.943 . S
O86 Zn85 1.962 . S
O86 C91 1.254 . S
O87 Zn84 2.031 . S
O87 C91 1.269 . S
O88 Zn85 1.986 . S
O88 C95 1.262 . S
O89 Zn84 2.049 . S
O89 C97 1.260 . S
O90 Zn85 1.996 . S
O90 C97 1.257 . S
C91 O86 1.254 . S
C91 O87 1.269 . S
C92 O93 1.249 1_455 S
C92 O94 1.270 . S
O93 Zn85 1.943 . S
O93 C92 1.249 1_655 S
O94 Zn84 2.067 1_455 S
O94 C92 1.270 . S
C95 O88 1.262 . S
C95 O96 1.232 . S
O96 C95 1.232 . S
C97 O89 1.260 . S
C97 O90 1.257 . S
Zn98 O101 2.031 . S
Zn98 O103 2.049 . S
Zn98 O108 2.067 1_565 S
Zn99 O100 1.962 . S
Zn99 O102 1.986 . S
Zn99 O104 1.996 . S
Zn99 O107 1.943 . S
O100 Zn99 1.962 . S
O100 C105 1.254 . S
O101 Zn98 2.031 . S
O101 C105 1.269 . S
O102 Zn99 1.986 . S
O102 C109 1.262 . S
O103 Zn98 2.049 . S
O103 C111 1.260 . S
O104 Zn99 1.996 . S
O104 C111 1.257 . S
C105 O100 1.254 . S
C105 O101 1.269 . S
C106 O107 1.249 1_545 S
C106 O108 1.270 . S
O107 Zn99 1.943 . S
O107 C106 1.249 1_565 S
O108 Zn98 2.067 1_545 S
O108 C106 1.270 . S
C109 O102 1.262 . S
C109 O110 1.232 . S
O110 C109 1.232 . S
C111 O103 1.260 . S
C111 O104 1.257 . S
Zn112 O115 2.031 . S
Zn112 O117 2.049 . S
Zn112 O122 2.067 1_545 S
Zn113 O114 1.962 . S
Zn113 O116 1.986 . S
Zn113 O118 1.996 . S
Zn113 O121 1.943 . S
O114 Zn113 1.962 . S
O114 C119 1.254 . S
O115 Zn112 2.031 . S
O115 C119 1.269 . S
O116 Zn113 1.986 . S
O116 C123 1.262 . S
O117 Zn112 2.049 . S
O117 C125 1.260 . S
O118 Zn113 1.996 . S
O118 C125 1.257 . S
C119 O114 1.254 . S
C119 O115 1.269 . S
C120 O121 1.249 1_565 S
C120 O122 1.270 . S
O121 Zn113 1.943 . S
O121 C120 1.249 1_545 S
O122 Zn112 2.067 1_565 S
O122 C120 1.270 . S
C123 O116 1.262 . S
C123 O124 1.232 . S
O124 C123 1.232 . S
C125 O117 1.260 . S
C125 O118 1.257 . S
Zn126 O129 2.031 . S
Zn126 O131 2.049 . S
Zn126 O136 2.067 1_655 S
Zn127 O128 1.962 . S
Zn127 O130 1.986 . S
Zn127 O132 1.996 . S
Zn127 O135 1.943 . S
O128 Zn127 1.962 . S
O128 C133 1.254 . S
O129 Zn126 2.031 . S
O129 C133 1.269 . S
O130 Zn127 1.986 . S
O130 C137 1.262 . S
O131 Zn126 2.049 . S
O131 C139 1.260 . S
O132 Zn127 1.996 . S
O132 C139 1.257 . S
C133 O128 1.254 . S
C133 O129 1.269 . S
C134 O135 1.249 1_455 S
C134 O136 1.270 . S
O135 Zn127 1.943 . S
O135 C134 1.249 1_655 S
O136 Zn126 2.067 1_455 S
O136 C134 1.270 . S
C137 O130 1.262 . S
C137 O138 1.232 . S
O138 C137 1.232 . S
C139 O131 1.260 . S
C139 O132 1.257 . S
Zn140 O143 2.031 . S
Zn140 O145 2.049 . S
Zn140 O150 2.067 1_565 S
Zn141 O142 1.962 . S
Zn141 O144 1.986 . S
Zn141 O146 1.996 . S
Zn141 O149 1.943 . S
O142 Zn141 1.962 . S
O142 C147 1.254 . S
O143 Zn140 2.031 . S
O143 C147 1.269 . S
O144 Zn141 1.986 . S
O144 C151 1.262 . S
O145 Zn140 2.049 . S
O145 C153 1.260 . S
O146 Zn141 1.996 . S
O146 C153 1.257 . S
C147 O142 1.254 . S
C147 O143 1.269 . S
C148 O149 1.249 1_545 S
C148 O150 1.270 . S
O149 Zn141 1.943 . S
O149 C148 1.249 1_565 S
O150 Zn140 2.067 1_545 S
O150 C148 1.270 . S
C151 O144 1.262 . S
C151 O152 1.232 . S
O152 C151 1.232 . S
C153 O145 1.260 . S
C153 O146 1.257 . S
Zn154 O157 2.031 . S
Zn154 O159 2.049 . S
Zn154 O164 2.067 1_455 S
Zn155 O156 1.962 . S
Zn155 O158 1.986 . S
Zn155 O160 1.996 . S
Zn155 O163 1.943 . S
O156 Zn155 1.962 . S
O156 C161 1.254 . S
O157 Zn154 2.031 . S
O157 C161 1.269 . S
O158 Zn155 1.986 . S
O158 C165 1.262 . S
O159 Zn154 2.049 . S
O159 C167 1.260 . S
O160 Zn155 1.996 . S
O160 C167 1.257 . S
C161 O156 1.254 . S
C161 O157 1.269 . S
C162 O163 1.249 1_655 S
C162 O164 1.270 . S
O163 Zn155 1.943 . S
O163 C162 1.249 1_455 S
O164 Zn154 2.067 1_655 S
O164 C162 1.270 . S
C165 O158 1.262 . S
C165 O166 1.232 . S
O166 C165 1.232 . S
C167 O159 1.260 . S
C167 O160 1.257 . S
Zn168 O171 2.031 . S
Zn168 O173 2.049 . S
Zn168 O178 2.067 1_565 S
Zn169 O170 1.962 . S
Zn169 O172 1.986 . S
Zn169 O174 1.996 . S
Zn169 O177 1.943 . S
O170 Zn169 1.962 . S
O170 C175 1.254 . S
O171 Zn168 2.031 . S
O171 C175 1.269 . S
O172 Zn169 1.986 . S
O172 C179 1.262 . S
O173 Zn168 2.049 . S
O173 C181 1.260 . S
O174 Zn169 1.996 . S
O174 C181 1.257 . S
C175 O170 1.254 . S
C175 O171 1.269 . S
C176 O177 1.249 1_545 S
C176 O178 1.270 . S
O177 Zn169 1.943 . S
O177 C176 1.249 1_565 S
O178 Zn168 2.067 1_545 S
O178 C176 1.270 . S
C179 O172 1.262 . S
C179 O180 1.232 . S
O180 C179 1.232 . S
C181 O173 1.260 . S
C181 O174 1.257 . S
Zn182 O185 2.031 . S
Zn182 O187 2.049 . S
Zn182 O192 2.067 1_455 S
Zn183 O184 1.962 . S
Zn183 O186 1.986 . S
Zn183 O188 1.996 . S
Zn183 O191 1.943 . S
O184 Zn183 1.962 . S
O184 C189 1.254 . S
O185 Zn182 2.031 . S
O185 C189 1.269 . S
O186 Zn183 1.986 . S
O186 C193 1.262 . S
O187 Zn182 2.049 . S
O187 C195 1.260 . S
O188 Zn183 1.996 . S
O188 C195 1.257 . S
C189 O184 1.254 . S
C189 O185 1.269 . S
C190 O191 1.249 1_655 S
C190 O192 1.270 . S
O191 Zn183 1.943 . S
O191 C190 1.249 1_455 S
O192 Zn182 2.067 1_655 S
O192 C190 1.270 . S
C193 O186 1.262 . S
C193 O194 1.232 . S
O194 C193 1.232 . S
C195 O187 1.260 . S
C195 O188 1.257 . S
Zn196 O199 2.031 . S
Zn196 O201 2.049 . S
Zn196 O206 2.067 1_545 S
Zn197 O198 1.962 . S
Zn197 O200 1.986 . S
Zn197 O202 1.996 . S
Zn197 O205 1.943 . S
O198 Zn197 1.962 . S
O198 C203 1.254 . S
O199 Zn196 2.031 . S
O199 C203 1.269 . S
O200 Zn197 1.986 . S
O200 C207 1.262 . S
O201 Zn196 2.049 . S
O201 C209 1.260 . S
O202 Zn197 1.996 . S
O202 C209 1.257 . S
C203 O198 1.254 . S
C203 O199 1.269 . S
C204 O205 1.249 1_565 S
C204 O206 1.270 . S
O205 Zn197 1.943 . S
O205 C204 1.249 1_545 S
O206 Zn196 2.067 1_565 S
O206 C204 1.270 . S
C207 O200 1.262 . S
C207 O208 1.232 . S
O208 C207 1.232 . S
C209 O201 1.260 . S
C209 O202 1.257 . S
Zn210 O213 2.031 . S
Zn210 O215 2.049 . S
Zn210 O220 2.067 1_655 S
Zn211 O212 1.962 . S
Zn211 O214 1.986 . S
Zn211 O216 1.996 . S
Zn211 O219 1.943 . S
O212 Zn211 1.962 . S
O212 C217 1.254 . S
O213 Zn210 2.031 . S
O213 C217 1.269 . S
O214 Zn211 1.986 . S
O214 C221 1.262 . S
O215 Zn210 2.049 . S
O215 C223 1.260 . S
O216 Zn211 1.996 . S
O216 C223 1.257 . S
C217 O212 1.254 . S
C217 O213 1.269 . S
C218 O219 1.249 1_455 S
C218 O220 1.270 . S
O219 Zn211 1.943 . S
O219 C218 1.249 1_655 S
O220 Zn210 2.067 1_455 S
O220 C218 1.270 . S
C221 O214 1.262 . S
C221 O222 1.232 . S
O222 C221 1.232 . S
C223 O215 1.260 . S
C223 O216 1.257 . S
Zn224 O227 2.031 . S
Zn224 O229 2.049 . S
Zn224 O234 2.067 1_554 S
Zn225 O226 1.962 . S
Zn225 O228 1.986 . S
Zn225 O230 1.996 . S
Zn225 O233 1.943 . S
O226 Zn225 1.962 . S
O226 C231 1.254 . S
O227 Zn224 2.031 . S
O227 C231 1.269 . S
O228 Zn225 1.986 . S
O228 C235 1.262 . S
O229 Zn224 2.049 . S
O229 C237 1.260 . S
O230 Zn225 1.996 . S
O230 C237 1.257 . S
C231 O226 1.254 . S
C231 O227 1.269 . S
C232 O233 1.249 1_556 S
C232 O234 1.270 . S
O233 Zn225 1.943 . S
O233 C232 1.249 1_554 S
O234 Zn224 2.067 1_556 S
O234 C232 1.270 . S
C235 O228 1.262 . S
C235 O236 1.232 . S
O236 C235 1.232 . S
C237 O229 1.260 . S
C237 O230 1.257 . S
Zn238 O241 2.031 . S
Zn238 O243 2.049 . S
Zn238 O248 2.067 1_556 S
Zn239 O240 1.962 . S
Zn239 O242 1.986 . S
Zn239 O244 1.996 . S
Zn239 O247 1.943 . S
O240 Zn239 1.962 . S
O240 C245 1.254 . S
O241 Zn238 2.031 . S
O241 C245 1.269 . S
O242 Zn239 1.986 . S
O242 C249 1.262 . S
O243 Zn238 2.049 . S
O243 C251 1.260 . S
O244 Zn239 1.996 . S
O244 C251 1.257 . S
C245 O240 1.254 . S
C245 O241 1.269 . S
C246 O247 1.249 1_554 S
C246 O248 1.270 . S
O247 Zn239 1.943 . S
O247 C246 1.249 1_556 S
O248 Zn238 2.067 1_554 S
O248 C246 1.270 . S
C249 O242 1.262 . S
C249 O250 1.232 . S
O250 C249 1.232 . S
C251 O243 1.260 . S
C251 O244 1.257 . S
Zn252 O255 2.031 . S
Zn252 O257 2.049 . S
Zn252 O262 2.067 1_556 S
Zn253 O254 1.962 . S
Zn253 O256 1.986 . S
Zn253 O258 1.996 . S
Zn253 O261 1.943 . S
O254 Zn253 1.962 . S
O254 C259 1.254 . S
O255 Zn252 2.031 . S
O255 C259 1.269 . S
O256 Zn253 1.986 . S
O256 C263 1.262 . S
O257 Zn252 2.049 . S
O257 C265 1.260 . S
O258 Zn253 1.996 . S
O258 C265 1.257 . S
C259 O254 1.254 . S
C259 O255 1.269 . S
C260 O261 1.249 1_554 S
C260 O262 1.270 . S
O261 Zn253 1.943 . S
O261 C260 1.249 1_556 S
O262 Zn252 2.067 1_554 S
O262 C260 1.270 . S
C263 O256 1.262 . S
C263 O264 1.232 . S
O264 C263 1.232 . S
C265 O257 1.260 . S
C265 O258 1.257 . S
Zn266 O269 2.031 . S
Zn266 O271 2.049 . S
Zn266 O276 2.067 1_556 S
Zn267 O268 1.962 . S
Zn267 O270 1.986 . S
Zn267 O272 1.996 . S
Zn267 O275 1.943 . S
O268 Zn267 1.962 . S
O268 C273 1.254 . S
O269 Zn266 2.031 . S
O269 C273 1.269 . S
O270 Zn267 1.986 . S
O270 C277 1.262 . S
O271 Zn266 2.049 . S
O271 C279 1.260 . S
O272 Zn267 1.996 . S
O272 C279 1.257 . S
C273 O268 1.254 . S
C273 O269 1.269 . S
C274 O275 1.249 1_554 S
C274 O276 1.270 . S
O275 Zn267 1.943 . S
O275 C274 1.249 1_556 S
O276 Zn266 2.067 1_554 S
O276 C274 1.270 . S
C277 O270 1.262 . S
C277 O278 1.232 . S
O278 C277 1.232 . S
C279 O271 1.260 . S
C279 O272 1.257 . S
Zn280 O283 2.031 . S
Zn280 O285 2.049 . S
Zn280 O290 2.067 1_556 S
Zn281 O282 1.962 . S
Zn281 O284 1.986 . S
Zn281 O286 1.996 . S
Zn281 O289 1.943 . S
O282 Zn281 1.962 . S
O282 C287 1.254 . S
O283 Zn280 2.031 . S
O283 C287 1.269 . S
O284 Zn281 1.986 . S
O284 C291 1.262 . S
O285 Zn280 2.049 . S
O285 C293 1.260 . S
O286 Zn281 1.996 . S
O286 C293 1.257 . S
C287 O282 1.254 . S
C287 O283 1.269 . S
C288 O289 1.249 1_554 S
C288 O290 1.270 . S
O289 Zn281 1.943 . S
O289 C288 1.249 1_556 S
O290 Zn280 2.067 1_554 S
O290 C288 1.270 . S
C291 O284 1.262 . S
C291 O292 1.232 . S
O292 C291 1.232 . S
C293 O285 1.260 . S
C293 O286 1.257 . S
Zn294 O297 2.031 . S
Zn294 O299 2.049 . S
Zn294 O304 2.067 1_554 S
Zn295 O296 1.962 . S
Zn295 O298 1.986 . S
Zn295 O300 1.996 . S
Zn295 O303 1.943 . S
O296 Zn295 1.962 . S
O296 C301 1.254 . S
O297 Zn294 2.031 . S
O297 C301 1.269 . S
O298 Zn295 1.986 . S
O298 C305 1.262 . S
O299 Zn294 2.049 . S
O299 C307 1.260 . S
O300 Zn295 1.996 . S
O300 C307 1.257 . S
C301 O296 1.254 . S
C301 O297 1.269 . S
C302 O303 1.249 1_556 S
C302 O304 1.270 . S
O303 Zn295 1.943 . S
O303 C302 1.249 1_554 S
O304 Zn294 2.067 1_556 S
O304 C302 1.270 . S
C305 O298 1.262 . S
C305 O306 1.232 . S
O306 C305 1.232 . S
C307 O299 1.260 . S
C307 O300 1.257 . S
Zn308 O311 2.031 . S
Zn308 O313 2.049 . S
Zn308 O318 2.067 1_554 S
Zn309 O310 1.962 . S
Zn309 O312 1.986 . S
Zn309 O314 1.996 . S
Zn309 O317 1.943 . S
O310 Zn309 1.962 . S
O310 C315 1.254 . S
O311 Zn308 2.031 . S
O311 C315 1.269 . S
O312 Zn309 1.986 . S
O312 C319 1.262 . S
O313 Zn308 2.049 . S
O313 C321 1.260 . S
O314 Zn309 1.996 . S
O314 C321 1.257 . S
C315 O310 1.254 . S
C315 O311 1.269 . S
C316 O317 1.249 1_556 S
C316 O318 1.270 . S
O317 Zn309 1.943 . S
O317 C316 1.249 1_554 S
O318 Zn308 2.067 1_556 S
O318 C316 1.270 . S
C319 O312 1.262 . S
C319 O320 1.232 . S
O320 C319 1.232 . S
C321 O313 1.260 . S
C321 O314 1.257 . S
Zn322 O325 2.031 . S
Zn322 O327 2.049 . S
Zn322 O332 2.067 1_554 S
Zn323 O324 1.962 . S
Zn323 O326 1.986 . S
Zn323 O328 1.996 . S
Zn323 O331 1.943 . S
O324 Zn323 1.962 . S
O324 C329 1.254 . S
O325 Zn322 2.031 . S
O325 C329 1.269 . S
O326 Zn323 1.986 . S
O326 C333 1.262 . S
O327 Zn322 2.049 . S
O327 C335 1.260 . S
O328 Zn323 1.996 . S
O328 C335 1.257 . S
C329 O324 1.254 . S
C329 O325 1.269 . S
C330 O331 1.249 1_556 S
C330 O332 1.270 . S
O331 Zn323 1.943 . S
O331 C330 1.249 1_554 S
O332 Zn322 2.067 1_556 S
O332 C330 1.270 . S
C333 O326 1.262 . S
C333 O334 1.232 . S
O334 C333 1.232 . S
C335 O327 1.260 . S
C335 O328 1.257 . S
Zn336 O339 2.031 . S
Zn336 O341 2.049 . S
Zn336 O346 2.067 . S
Zn337 O338 1.962 . S
Zn337 O340 1.986 . S
Zn337 O342 1.996 . S
Zn337 O345 1.943 . S
O338 Zn337 1.962 . S
O338 C343 1.254 . S
O339 Zn336 2.031 . S
O339 C343 1.269 . S
O340 Zn337 1.986 . S
O340 C347 1.262 . S
O341 Zn336 2.049 . S
O341 C349 1.260 . S
O342 Zn337 1.996 . S
O342 C349 1.257 . S
C343 O338 1.254 . S
C343 O339 1.269 . S
C344 O345 1.249 . S
C344 O346 1.270 . S
O345 Zn337 1.943 . S
O345 C344 1.249 . S
O346 Zn336 2.067 . S
O346 C344 1.270 . S
C347 O340 1.262 . S
C347 O348 1.232 . S
O348 C347 1.232 . S
C349 O341 1.260 . S
C349 O342 1.257 . S
Zn350 O353 2.031 . S
Zn350 O355 2.049 . S
Zn350 O360 2.067 . S
Zn351 O352 1.962 . S
Zn351 O354 1.986 . S
Zn351 O356 1.996 . S
Zn351 O359 1.943 . S
O352 Zn351 1.962 . S
O352 C357 1.254 . S
O353 Zn350 2.031 . S
O353 C357 1.269 . S
O354 Zn351 1.986 . S
O354 C361 1.262 . S
O355 Zn350 2.049 . S
O355 C363 1.260 . S
O356 Zn351 1.996 . S
O356 C363 1.257 . S
C357 O352 1.254 . S
C357 O353 1.269 . S
C358 O359 1.249 . S
C358 O360 1.270 . S
O359 Zn351 1.943 . S
O359 C358 1.249 . S
O360 Zn350 2.067 . S
O360 C358 1.270 . S
C361 O354 1.262 . S
C361 O362 1.232 . S
O362 C361 1.232 . S
C363 O355 1.260 . S
C363 O356 1.257 . S
Zn364 O367 2.031 . S
Zn364 O369 2.049 . S
Zn364 O374 2.067 . S
Zn365 O366 1.962 . S
Zn365 O368 1.986 . S
Zn365 O370 1.996 . S
Zn365 O373 1.943 . S
O366 Zn365 1.962 . S
O366 C371 1.254 . S
O367 Zn364 2.031 . S
O367 C371 1.269 . S
O368 Zn365 1.986 . S
O368 C375 1.262 . S
O369 Zn364 2.049 . S
O369 C377 1.260 . S
O370 Zn365 1.996 . S
O370 C377 1.257 . S
C371 O366 1.254 . S
C371 O367 1.269 . S
C372 O373 1.249 . S
C372 O374 1.270 . S
O373 Zn365 1.943 . S
O373 C372 1.249 . S
O374 Zn364 2.067 . S
O374 C372 1.270 . S
C375 O368 1.262 . S
C375 O376 1.232 . S
O376 C375 1.232 . S
C377 O369 1.260 . S
C377 O370 1.257 . S
Zn378 O381 2.031 . S
Zn378 O383 2.049 . S
Zn378 O388 2.067 . S
Zn379 O380 1.962 . S
Zn379 O382 1.986 . S
Zn379 O384 1.996 . S
Zn379 O387 1.943 . S
O380 Zn379 1.962 . S
O380 C385 1.254 . S
O381 Zn378 2.031 . S
O381 C385 1.269 . S
O382 Zn379 1.986 . S
O382 C389 1.262 . S
O383 Zn378 2.049 . S
O383 C391 1.260 . S
O384 Zn379 1.996 . S
O384 C391 1.257 . S
C385 O380 1.254 . S
C385 O381 1.269 . S
C386 O387 1.249 . S
C386 O388 1.270 . S
O387 Zn379 1.943 . S
O387 C386 1.249 . S
O388 Zn378 2.067 . S
O388 C386 1.270 . S
C389 O382 1.262 . S
C389 O390 1.232 . S
O390 C389 1.232 . S
C391 O383 1.260 . S
C391 O384 1.257 . S
Zn392 O395 2.031 . S
Zn392 O397 2.049 . S
Zn392 O402 2.067 . S
Zn393 O394 1.962 . S
Zn393 O396 1.986 . S
Zn393 O398 1.996 . S
Zn393 O401 1.943 . S
O394 Zn393 1.962 . S
O394 C399 1.254 . S
O395 Zn392 2.031 . S
O395 C399 1.269 . S
O396 Zn393 1.986 . S
O396 C403 1.262 . S
O397 Zn392 2.049 . S
O397 C405 1.260 . S
O398 Zn393 1.996 . S
O398 C405 1.257 . S
C399 O394 1.254 . S
C399 O395 1.269 . S
C400 O401 1.249 . S
C400 O402 1.270 . S
O401 Zn393 1.943 . S
O401 C400 1.249 . S
O402 Zn392 2.067 . S
O402 C400 1.270 . S
C403 O396 1.262 . S
C403 O404 1.232 . S
O404 C403 1.232 . S
C405 O397 1.260 . S
C405 O398 1.257 . S
Zn406 O409 2.031 . S
Zn406 O411 2.049 . S
Zn406 O416 2.067 . S
Zn407 O408 1.962 . S
Zn407 O410 1.986 . S
Zn407 O412 1.996 . S
Zn407 O415 1.943 . S
O408 Zn407 1.962 . S
O408 C413 1.254 . S
O409 Zn406 2.031 . S
O409 C413 1.269 . S
O410 Zn407 1.986 . S
O410 C417 1.262 . S
O411 Zn406 2.049 . S
O411 C419 1.260 . S
O412 Zn407 1.996 . S
O412 C419 1.257 . S
C413 O408 1.254 . S
C413 O409 1.269 . S
C414 O415 1.249 . S
C414 O416 1.270 . S
O415 Zn407 1.943 . S
O415 C414 1.249 . S
O416 Zn406 2.067 . S
O416 C414 1.270 . S
C417 O410 1.262 . S
C417 O418 1.232 . S
O418 C417 1.232 . S
C419 O411 1.260 . S
C419 O412 1.257 . S
Zn420 O423 2.031 . S
Zn420 O425 2.049 . S
Zn420 O430 2.067 . S
Zn421 O422 1.962 . S
Zn421 O424 1.986 . S
Zn421 O426 1.996 . S
Zn421 O429 1.943 . S
O422 Zn421 1.962 . S
O422 C427 1.254 . S
O423 Zn420 2.031 . S
O423 C427 1.269 . S
O424 Zn421 1.986 . S
O424 C431 1.262 . S
O425 Zn420 2.049 . S
O425 C433 1.260 . S
O426 Zn421 1.996 . S
O426 C433 1.257 . S
C427 O422 1.254 . S
C427 O423 1.269 . S
C428 O429 1.249 . S
C428 O430 1.270 . S
O429 Zn421 1.943 . S
O429 C428 1.249 . S
O430 Zn420 2.067 . S
O430 C428 1.270 . S
C431 O424 1.262 . S
C431 O432 1.232 . S
O432 C431 1.232 . S
C433 O425 1.260 . S
C433 O426 1.257 . S
Zn434 O437 2.031 . S
Zn434 O439 2.049 . S
Zn434 O444 2.067 . S
Zn435 O436 1.962 . S
Zn435 O438 1.986 . S
Zn435 O440 1.996 . S
Zn435 O443 1.943 . S
O436 Zn435 1.962 . S
O436 C441 1.254 . S
O437 Zn434 2.031 . S
O437 C441 1.269 . S
O438 Zn435 1.986 . S
O438 C445 1.262 . S
O439 Zn434 2.049 . S
O439 C447 1.260 . S
O440 Zn435 1.996 . S
O440 C447 1.257 . S
C441 O436 1.254 . S
C441 O437 1.269 . S
C442 O443 1.249 . S
C442 O444 1.270 . S
O443 Zn435 1.943 . S
O443 C442 1.249 . S
O444 Zn434 2.067 . S
O444 C442 1.270 . S
C445 O438 1.262 . S
C445 O446 1.232 . S
O446 C445 1.232 . S
C447 O439 1.260 . S
C447 O440 1.257 . S
Zn448 O451 2.031 . S
Zn448 O453 2.049 . S
Zn448 O458 2.067 . S
Zn449 O450 1.962 . S
Zn449 O452 1.986 . S
Zn449 O454 1.996 . S
Zn449 O457 1.943 . S
O450 Zn449 1.962 . S
O450 C455 1.254 . S
O451 Zn448 2.031 . S
O451 C455 1.269 . S
O452 Zn449 1.986 . S
O452 C459 1.262 . S
O453 Zn448 2.049 . S
O453 C461 1.260 . S
O454 Zn449 1.996 . S
O454 C461 1.257 . S
C455 O450 1.254 . S
C455 O451 1.269 . S
C456 O457 1.249 . S
C456 O458 1.270 . S
O457 Zn449 1.943 . S
O457 C456 1.249 . S
O458 Zn448 2.067 . S
O458 C456 1.270 . S
C459 O452 1.262 . S
C459 O460 1.232 . S
O460 C459 1.232 . S
C461 O453 1.260 . S
C461 O454 1.257 . S
Zn462 O465 2.031 . S
Zn462 O467 2.049 . S
Zn462 O472 2.067 . S
Zn463 O464 1.962 . S
Zn463 O466 1.986 . S
Zn463 O468 1.996 . S
Zn463 O471 1.943 . S
O464 Zn463 1.962 . S
O464 C469 1.254 . S
O465 Zn462 2.031 . S
O465 C469 1.269 . S
O466 Zn463 1.986 . S
O466 C473 1.262 . S
O467 Zn462 2.049 . S
O467 C475 1.260 . S
O468 Zn463 1.996 . S
O468 C475 1.257 . S
C469 O464 1.254 . S
C469 O465 1.269 . S
C470 O471 1.249 . S
C470 O472 1.270 . S
O471 Zn463 1.943 . S
O471 C470 1.249 . S
O472 Zn462 2.067 . S
O472 C470 1.270 . S
C473 O466 1.262 . S
C473 O474 1.232 . S
O474 C473 1.232 . S
C475 O467 1.260 . S
C475 O468 1.257 . S
Zn476 O479 2.031 . S
Zn476 O481 2.049 . S
Zn476 O486 2.067 . S
Zn477 O478 1.962 . S
Zn477 O480 1.986 . S
Zn477 O482 1.996 . S
Zn477 O485 1.943 . S
O478 Zn477 1.962 . S
O478 C483 1.254 . S
O479 Zn476 2.031 . S
O479 C483 1.269 . S
O480 Zn477 1.986 . S
O480 C487 1.262 . S
O481 Zn476 2.049 . S
O481 C489 1.260 . S
O482 Zn477 1.996 . S
O482 C489 1.257 . S
C483 O478 1.254 . S
C483 O479 1.269 . S
C484 O485 1.249 . S
C484 O486 1.270 . S
O485 Zn477 1.943 . S
O485 C484 1.249 . S
O486 Zn476 2.067 . S
O486 C484 1.270 . S
C487 O480 1.262 . S
C487 O488 1.232 . S
O488 C487 1.232 . S
C489 O481 1.260 . S
C489 O482 1.257 . S
Zn490 O493 2.031 . S
Zn490 O495 2.049 . S
Zn490 O500 2.067 . S
Zn491 O492 1.962 . S
Zn491 O494 1.986 . S
Zn491 O496 1.996 . S
Zn491 O499 1.943 . S
O492 Zn491 1.962 . S
O492 C497 1.254 . S
O493 Zn490 2.031 . S
O493 C497 1.269 . S
O494 Zn491 1.986 . S
O494 C501 1.262 . S
O495 Zn490 2.049 . S
O495 C503 1.260 . S
O496 Zn491 1.996 . S
O496 C503 1.257 . S
C497 O492 1.254 . S
C497 O493 1.269 . S
C498 O499 1.249 . S
C498 O500 1.270 . S
O499 Zn491 1.943 . S
O499 C498 1.249 . S
O500 Zn490 2.067 . S
O500 C498 1.270 . S
C501 O494 1.262 . S
C501 O502 1.232 . S
O502 C501 1.232 . S
C503 O495 1.260 . S
C503 O496 1.257 . S
Zn504 O507 2.031 . S
Zn504 O509 2.049 . S
Zn504 O514 2.067 . S
Zn505 O506 1.962 . S
Zn505 O508 1.986 . S
Zn505 O510 1.996 . S
Zn505 O513 1.943 . S
O506 Zn505 1.962 . S
O506 C511 1.254 . S
O507 Zn504 2.031 . S
O507 C511 1.269 . S
O508 Zn505 1.986 . S
O508 C515 1.262 . S
O509 Zn504 2.049 . S
O509 C517 1.260 . S
O510 Zn505 1.996 . S
O510 C517 1.257 . S
C511 O506 1.254 . S
C511 O507 1.269 . S
C512 O513 1.249 . S
C512 O514 1.270 . S
O513 Zn505 1.943 . S
O513 C512 1.249 . S
O514 Zn504 2.067 . S
O514 C512 1.270 . S
C515 O508 1.262 . S
C515 O516 1.232 . S
O516 C515 1.232 . S
C517 O509 1.260 . S
C517 O510 1.257 . S
Zn518 O521 2.031 . S
Zn518 O523 2.049 . S
Zn518 O528 2.067 . S
Zn519 O520 1.962 . S
Zn519 O522 1.986 . S
Zn519 O524 1.996 . S
Zn519 O527 1.943 . S
O520 Zn519 1.962 . S
O520 C525 1.254 . S
O521 Zn518 2.031 . S
O521 C525 1.269 . S
O522 Zn519 1.986 . S
O522 C529 1.262 . S
O523 Zn518 2.049 . S
O523 C531 1.260 . S
O524 Zn519 1.996 . S
O524 C531 1.257 . S
C525 O520 1.254 . S
C525 O521 1.269 . S
C526 O527 1.249 . S
C526 O528 1.270 . S
O527 Zn519 1.943 . S
O527 C526 1.249 . S
O528 Zn518 2.067 . S
O528 C526 1.270 . S
C529 O522 1.262 . S
C529 O530 1.232 . S
O530 C529 1.232 . S
C531 O523 1.260 . S
C531 O524 1.257 . S
Zn532 O535 2.031 . S
Zn532 O537 2.049 . S
Zn532 O542 2.067 . S
Zn533 O534 1.962 . S
Zn533 O536 1.986 . S
Zn533 O538 1.996 . S
Zn533 O541 1.943 . S
O534 Zn533 1.962 . S
O534 C539 1.254 . S
O535 Zn532 2.031 . S
O535 C539 1.269 . S
O536 Zn533 1.986 . S
O536 C543 1.262 . S
O537 Zn532 2.049 . S
O537 C545 1.260 . S
O538 Zn533 1.996 . S
O538 C545 1.257 . S
C539 O534 1.254 . S
C539 O535 1.269 . S
C540 O541 1.249 . S
C540 O542 1.270 . S
O541 Zn533 1.943 . S
O541 C540 1.249 . S
O542 Zn532 2.067 . S
O542 C540 1.270 . S
C543 O536 1.262 . S
C543 O544 1.232 . S
O544 C543 1.232 . S
C545 O537 1.260 . S
C545 O538 1.257 . S
Zn546 O549 2.031 . S
Zn546 O551 2.049 . S
Zn546 O556 2.067 . S
Zn547 O548 1.962 . S
Zn547 O550 1.986 . S
Zn547 O552 1.996 . S
Zn547 O555 1.943 . S
O548 Zn547 1.962 . S
O548 C553 1.254 . S
O549 Zn546 2.031 . S
O549 C553 1.269 . S
O550 Zn547 1.986 . S
O550 C557 1.262 . S
O551 Zn546 2.049 . S
O551 C559 1.260 . S
O552 Zn547 1.996 . S
O552 C559 1.257 . S
C553 O548 1.254 . S
C553 O549 1.269 . S
C554 O555 1.249 . S
C554 O556 1.270 . S
O555 Zn547 1.943 . S
O555 C554 1.249 . S
O556 Zn546 2.067 . S
O556 C554 1.270 . S
C557 O550 1.262 . S
C557 O558 1.232 . S
O558 C557 1.232 . S
C559 O551 1.260 . S
C559 O552 1.257 . S
Zn560 O563 2.031 . S
Zn560 O565 2.049 . S
Zn560 O570 2.067 . S
Zn561 O562 1.962 . S
Zn561 O564 1.986 . S
Zn561 O566 1.996 . S
Zn561 O569 1.943 . S
O562 Zn561 1.962 . S
O562 C567 1.254 . S
O563 Zn560 2.031 . S
O563 C567 1.269 . S
O564 Zn561 1.986 . S
O564 C571 1.262 . S
O565 Zn560 2.049 . S
O565 C573 1.260 . S
O566 Zn561 1.996 . S
O566 C573 1.257 . S
C567 O562 1.254 . S
C567 O563 1.269 . S
C568 O569 1.249 . S
C568 O570 1.270 . S
O569 Zn561 1.943 . S
O569 C568 1.249 . S
O570 Zn560 2.067 . S
O570 C568 1.270 . S
C571 O564 1.262 . S
C571 O572 1.232 . S
O572 C571 1.232 . S
C573 O565 1.260 . S
C573 O566 1.257 . S
Zn574 O577 2.031 . S
Zn574 O579 2.049 . S
Zn574 O584 2.067 . S
Zn575 O576 1.962 . S
Zn575 O578 1.986 . S
Zn575 O580 1.996 . S
Zn575 O583 1.943 . S
O576 Zn575 1.962 . S
O576 C581 1.254 . S
O577 Zn574 2.031 . S
O577 C581 1.269 . S
O578 Zn575 1.986 . S
O578 C585 1.262 . S
O579 Zn574 2.049 . S
O579 C587 1.260 . S
O580 Zn575 1.996 . S
O580 C587 1.257 . S
C581 O576 1.254 . S
C581 O577 1.269 . S
C582 O583 1.249 . S
C582 O584 1.270 . S
O583 Zn575 1.943 . S
O583 C582 1.249 . S
O584 Zn574 2.067 . S
O584 C582 1.270 . S
C585 O578 1.262 . S
C585 O586 1.232 . S
O586 C585 1.232 . S
C587 O579 1.260 . S
C587 O580 1.257 . S
Zn588 O591 2.031 . S
Zn588 O593 2.049 . S
Zn588 O598 2.067 . S
Zn589 O590 1.962 . S
Zn589 O592 1.986 . S
Zn589 O594 1.996 . S
Zn589 O597 1.943 . S
O590 Zn589 1.962 . S
O590 C595 1.254 . S
O591 Zn588 2.031 . S
O591 C595 1.269 . S
O592 Zn589 1.986 . S
O592 C599 1.262 . S
O593 Zn588 2.049 . S
O593 C601 1.260 . S
O594 Zn589 1.996 . S
O594 C601 1.257 . S
C595 O590 1.254 . S
C595 O591 1.269 . S
C596 O597 1.249 . S
C596 O598 1.270 . S
O597 Zn589 1.943 . S
O597 C596 1.249 . S
O598 Zn588 2.067 . S
O598 C596 1.270 . S
C599 O592 1.262 . S
C599 O600 1.232 . S
O600 C599 1.232 . S
C601 O593 1.260 . S
C601 O594 1.257 . S
Zn602 O605 2.031 . S
Zn602 O607 2.049 . S
Zn602 O612 2.067 . S
Zn603 O604 1.962 . S
Zn603 O606 1.986 . S
Zn603 O608 1.996 . S
Zn603 O611 1.943 . S
O604 Zn603 1.962 . S
O604 C609 1.254 . S
O605 Zn602 2.031 . S
O605 C609 1.269 . S
O606 Zn603 1.986 . S
O606 C613 1.262 . S
O607 Zn602 2.049 . S
O607 C615 1.260 . S
O608 Zn603 1.996 . S
O608 C615 1.257 . S
C609 O604 1.254 . S
C609 O605 1.269 . S
C610 O611 1.249 . S
C610 O612 1.270 . S
O611 Zn603 1.943 . S
O611 C610 1.249 . S
O612 Zn602 2.067 . S
O612 C610 1.270 . S
C613 O606 1.262 . S
C613 O614 1.232 . S
O614 C613 1.232 . S
C615 O607 1.260 . S
C615 O608 1.257 . S
Zn616 O619 2.031 . S
Zn616 O621 2.049 . S
Zn616 O626 2.067 . S
Zn617 O618 1.962 . S
Zn617 O620 1.986 . S
Zn617 O622 1.996 . S
Zn617 O625 1.943 . S
O618 Zn617 1.962 . S
O618 C623 1.254 . S
O619 Zn616 2.031 . S
O619 C623 1.269 . S
O620 Zn617 1.986 . S
O620 C627 1.262 . S
O621 Zn616 2.049 . S
O621 C629 1.260 . S
O622 Zn617 1.996 . S
O622 C629 1.257 . S
C623 O618 1.254 . S
C623 O619 1.269 . S
C624 O625 1.249 . S
C624 O626 1.270 . S
O625 Zn617 1.943 . S
O625 C624 1.249 . S
O626 Zn616 2.067 . S
O626 C624 1.270 . S
C627 O620 1.262 . S
C627 O628 1.232 . S
O628 C627 1.232 . S
C629 O621 1.260 . S
C629 O622 1.257 . S
Zn630 O633 2.031 . S
Zn630 O635 2.049 . S
Zn630 O640 2.067 . S
Zn631 O632 1.962 . S
Zn631 O634 1.986 . S
Zn631 O636 1.996 . S
Zn631 O639 1.943 . S
O632 Zn631 1.962 . S
O632 C637 1.254 . S
O633 Zn630 2.031 . S
O633 C637 1.269 . S
O634 Zn631 1.986 . S
O634 C641 1.262 . S
O635 Zn630 2.049 . S
O635 C643 1.260 . S
O636 Zn631 1.996 . S
O636 C643 1.257 . S
C637 O632 1.254 . S
C637 O633 1.269 . S
C638 O639 1.249 . S
C638 O640 1.270 . S
O639 Zn631 1.943 . S
O639 C638 1.249 . S
O640 Zn630 2.067 . S
O640 C638 1.270 . S
C641 O634 1.262 . S
C641 O642 1.232 . S
O642 C641 1.232 . S
C643 O635 1.260 . S
C643 O636 1.257 . S
Zn644 O647 2.031 . S
Zn644 O649 2.049 . S
Zn644 O654 2.067 . S
Zn645 O646 1.962 . S
Zn645 O648 1.986 . S
Zn645 O650 1.996 . S
Zn645 O653 1.943 . S
O646 Zn645 1.962 . S
O646 C651 1.254 . S
O647 Zn644 2.031 . S
O647 C651 1.269 . S
O648 Zn645 1.986 . S
O648 C655 1.262 . S
O649 Zn644 2.049 . S
O649 C657 1.260 . S
O650 Zn645 1.996 . S
O650 C657 1.257 . S
C651 O646 1.254 . S
C651 O647 1.269 . S
C652 O653 1.249 . S
C652 O654 1.270 . S
O653 Zn645 1.943 . S
O653 C652 1.249 . S
O654 Zn644 2.067 . S
O654 C652 1.270 . S
C655 O648 1.262 . S
C655 O656 1.232 . S
O656 C655 1.232 . S
C657 O649 1.260 . S
C657 O650 1.257 . S
Zn658 O661 2.031 . S
Zn658 O663 2.049 . S
Zn658 O668 2.067 . S
Zn659 O660 1.962 . S
Zn659 O662 1.986 . S
Zn659 O664 1.996 . S
Zn659 O667 1.943 . S
O660 Zn659 1.962 . S
O660 C665 1.254 . S
O661 Zn658 2.031 . S
O661 C665 1.269 . S
O662 Zn659 1.986 . S
O662 C669 1.262 . S
O663 Zn658 2.049 . S
O663 C671 1.260 . S
O664 Zn659 1.996 . S
O664 C671 1.257 . S
C665 O660 1.254 . S
C665 O661 1.269 . S
C666 O667 1.249 . S
C666 O668 1.270 . S
O667 Zn659 1.943 . S
O667 C666 1.249 . S
O668 Zn658 2.067 . S
O668 C666 1.270 . S
C669 O662 1.262 . S
C669 O670 1.232 . S
O670 C669 1.232 . S
C671 O663 1.260 . S
C671 O664 1.257 . S
H672 C678 0.930 . S
H673 C682 0.930 . S
H674 C687 0.929 . S
H675 C685 0.929 . S
H676 C680 0.929 . S
H677 C686 0.929 . S
C678 H672 0.930 . S
C678 C679 1.367 . S
C678 C686 1.378 . S
C679 C678 1.367 . S
C679 C687 1.433 . S
C680 H676 0.929 . S
C680 C682 1.378 . S
C680 C684 1.350 . S
C681 C684 1.463 . S
C681 C686 1.350 . S
C681 N689 1.427 . S
C682 H673 0.930 . S
C682 C680 1.378 . S
C682 C683 1.367 . S
C683 C682 1.367 . S
C683 C685 1.433 . S
C684 C680 1.350 . S
C684 C681 1.463 . S
C684 N688 1.427 . S
C685 H675 0.929 . S
C685 C683 1.433 . S
C685 N688 1.384 . S
C686 H677 0.929 . S
C686 C678 1.378 . S
C686 C681 1.350 . S
C687 H674 0.929 . S
C687 C679 1.433 . S
C687 N689 1.384 . S
N688 C684 1.427 . S
N688 C685 1.384 . S
N689 C681 1.427 . S
N689 C687 1.384 . S
H690 C696 0.930 . S
H691 C700 0.930 . S
H692 C705 0.929 . S
H693 C703 0.929 . S
H694 C698 0.929 . S
H695 C704 0.929 . S
C696 H690 0.930 . S
C696 C697 1.367 . S
C696 C704 1.378 . S
C697 C696 1.367 . S
C697 C705 1.433 . S
C698 H694 0.929 . S
C698 C700 1.378 . S
C698 C702 1.350 . S
C699 C702 1.463 . S
C699 C704 1.350 . S
C699 N707 1.427 . S
C700 H691 0.930 . S
C700 C698 1.378 . S
C700 C701 1.367 . S
C701 C700 1.367 . S
C701 C703 1.433 . S
C702 C698 1.350 . S
C702 C699 1.463 . S
C702 N706 1.427 . S
C703 H693 0.929 . S
C703 C701 1.433 . S
C703 N706 1.384 . S
C704 H695 0.929 . S
C704 C696 1.378 . S
C704 C699 1.350 . S
C705 H692 0.929 . S
C705 C697 1.433 . S
C705 N707 1.384 . S
N706 C702 1.427 . S
N706 C703 1.384 . S
N707 C699 1.427 . S
N707 C705 1.384 . S
H708 C714 0.930 . S
H709 C718 0.930 . S
H710 C723 0.929 . S
H711 C721 0.929 . S
H712 C716 0.929 . S
H713 C722 0.929 . S
C714 H708 0.930 . S
C714 C715 1.367 . S
C714 C722 1.378 . S
C715 C714 1.367 . S
C715 C723 1.433 . S
C716 H712 0.929 . S
C716 C718 1.378 . S
C716 C720 1.350 . S
C717 C720 1.463 . S
C717 C722 1.350 . S
C717 N725 1.427 . S
C718 H709 0.930 . S
C718 C716 1.378 . S
C718 C719 1.367 . S
C719 C718 1.367 . S
C719 C721 1.433 . S
C720 C716 1.350 . S
C720 C717 1.463 . S
C720 N724 1.427 . S
C721 H711 0.929 . S
C721 C719 1.433 . S
C721 N724 1.384 . S
C722 H713 0.929 . S
C722 C714 1.378 . S
C722 C717 1.350 . S
C723 H710 0.929 . S
C723 C715 1.433 . S
C723 N725 1.384 . S
N724 C720 1.427 . S
N724 C721 1.384 . S
N725 C717 1.427 . S
N725 C723 1.384 . S
H726 C732 0.930 . S
H727 C736 0.930 . S
H728 C741 0.929 . S
H729 C739 0.929 . S
H730 C734 0.929 . S
H731 C740 0.929 . S
C732 H726 0.930 . S
C732 C733 1.367 . S
C732 C740 1.378 . S
C733 C732 1.367 . S
C733 C741 1.433 . S
C734 H730 0.929 . S
C734 C736 1.378 . S
C734 C738 1.350 . S
C735 C738 1.463 . S
C735 C740 1.350 . S
C735 N743 1.427 . S
C736 H727 0.930 . S
C736 C734 1.378 . S
C736 C737 1.367 . S
C737 C736 1.367 . S
C737 C739 1.433 . S
C738 C734 1.350 . S
C738 C735 1.463 . S
C738 N742 1.427 . S
C739 H729 0.929 . S
C739 C737 1.433 . S
C739 N742 1.384 . S
C740 H731 0.929 . S
C740 C732 1.378 . S
C740 C735 1.350 . S
C741 H728 0.929 . S
C741 C733 1.433 . S
C741 N743 1.384 . S
N742 C738 1.427 . S
N742 C739 1.384 . S
N743 C735 1.427 . S
N743 C741 1.384 . S
H744 C750 0.930 . S
H745 C754 0.930 . S
H746 C759 0.929 . S
H747 C757 0.929 . S
H748 C752 0.929 . S
H749 C758 0.929 . S
C750 H744 0.930 . S
C750 C751 1.367 . S
C750 C758 1.378 . S
C751 C750 1.367 . S
C751 C759 1.433 . S
C752 H748 0.929 . S
C752 C754 1.378 . S
C752 C756 1.350 . S
C753 C756 1.463 . S
C753 C758 1.350 . S
C753 N761 1.427 . S
C754 H745 0.930 . S
C754 C752 1.378 . S
C754 C755 1.367 . S
C755 C754 1.367 . S
C755 C757 1.433 . S
C756 C752 1.350 . S
C756 C753 1.463 . S
C756 N760 1.427 . S
C757 H747 0.929 . S
C757 C755 1.433 . S
C757 N760 1.384 . S
C758 H749 0.929 . S
C758 C750 1.378 . S
C758 C753 1.350 . S
C759 H746 0.929 . S
C759 C751 1.433 . S
C759 N761 1.384 . S
N760 C756 1.427 . S
N760 C757 1.384 . S
N761 C753 1.427 . S
N761 C759 1.384 . S
H762 C768 0.930 . S
H763 C772 0.930 . S
H764 C777 0.929 . S
H765 C775 0.929 . S
H766 C770 0.929 . S
H767 C776 0.929 . S
C768 H762 0.930 . S
C768 C769 1.367 . S
C768 C776 1.378 . S
C769 C768 1.367 . S
C769 C777 1.433 . S
C770 H766 0.929 . S
C770 C772 1.378 . S
C770 C774 1.350 . S
C771 C774 1.463 . S
C771 C776 1.350 . S
C771 N779 1.427 . S
C772 H763 0.930 . S
C772 C770 1.378 . S
C772 C773 1.367 . S
C773 C772 1.367 . S
C773 C775 1.433 . S
C774 C770 1.350 . S
C774 C771 1.463 . S
C774 N778 1.427 . S
C775 H765 0.929 . S
C775 C773 1.433 . S
C775 N778 1.384 . S
C776 H767 0.929 . S
C776 C768 1.378 . S
C776 C771 1.350 . S
C777 H764 0.929 . S
C777 C769 1.433 . S
C777 N779 1.384 . S
N778 C774 1.427 . S
N778 C775 1.384 . S
N779 C771 1.427 . S
N779 C777 1.384 . S
H780 C786 0.930 . S
H781 C790 0.930 . S
H782 C795 0.929 . S
H783 C793 0.929 . S
H784 C788 0.929 . S
H785 C794 0.929 . S
C786 H780 0.930 . S
C786 C787 1.367 . S
C786 C794 1.378 . S
C787 C786 1.367 . S
C787 C795 1.433 . S
C788 H784 0.929 . S
C788 C790 1.378 . S
C788 C792 1.350 . S
C789 C792 1.463 . S
C789 C794 1.350 . S
C789 N797 1.427 . S
C790 H781 0.930 . S
C790 C788 1.378 . S
C790 C791 1.367 . S
C791 C790 1.367 . S
C791 C793 1.433 . S
C792 C788 1.350 . S
C792 C789 1.463 . S
C792 N796 1.427 . S
C793 H783 0.929 . S
C793 C791 1.433 . S
C793 N796 1.384 . S
C794 H785 0.929 . S
C794 C786 1.378 . S
C794 C789 1.350 . S
C795 H782 0.929 . S
C795 C787 1.433 . S
C795 N797 1.384 . S
N796 C792 1.427 . S
N796 C793 1.384 . S
N797 C789 1.427 . S
N797 C795 1.384 . S
H798 C804 0.930 . S
H799 C808 0.930 . S
H800 C813 0.929 . S
H801 C811 0.929 . S
H802 C806 0.929 . S
H803 C812 0.929 . S
C804 H798 0.930 . S
C804 C805 1.367 . S
C804 C812 1.378 . S
C805 C804 1.367 . S
C805 C813 1.433 . S
C806 H802 0.929 . S
C806 C808 1.378 . S
C806 C810 1.350 . S
C807 C810 1.463 . S
C807 C812 1.350 . S
C807 N815 1.427 . S
C808 H799 0.930 . S
C808 C806 1.378 . S
C808 C809 1.367 . S
C809 C808 1.367 . S
C809 C811 1.433 . S
C810 C806 1.350 . S
C810 C807 1.463 . S
C810 N814 1.427 . S
C811 H801 0.929 . S
C811 C809 1.433 . S
C811 N814 1.384 . S
C812 H803 0.929 . S
C812 C804 1.378 . S
C812 C807 1.350 . S
C813 H800 0.929 . S
C813 C805 1.433 . S
C813 N815 1.384 . S
N814 C810 1.427 . S
N814 C811 1.384 . S
N815 C807 1.427 . S
N815 C813 1.384 . S
H816 C822 0.930 . S
H817 C826 0.930 . S
H818 C831 0.929 . S
H819 C829 0.929 . S
H820 C824 0.929 . S
H821 C830 0.929 . S
C822 H816 0.930 . S
C822 C823 1.367 . S
C822 C830 1.378 . S
C823 C822 1.367 . S
C823 C831 1.433 . S
C824 H820 0.929 . S
C824 C826 1.378 . S
C824 C828 1.350 . S
C825 C828 1.463 . S
C825 C830 1.350 . S
C825 N833 1.427 . S
C826 H817 0.930 . S
C826 C824 1.378 . S
C826 C827 1.367 . S
C827 C826 1.367 . S
C827 C829 1.433 . S
C828 C824 1.350 . S
C828 C825 1.463 . S
C828 N832 1.427 . S
C829 H819 0.929 . S
C829 C827 1.433 . S
C829 N832 1.384 . S
C830 H821 0.929 . S
C830 C822 1.378 . S
C830 C825 1.350 . S
C831 H818 0.929 . S
C831 C823 1.433 . S
C831 N833 1.384 . S
N832 C828 1.427 . S
N832 C829 1.384 . S
N833 C825 1.427 . S
N833 C831 1.384 . S
H834 C840 0.930 . S
H835 C844 0.930 . S
H836 C849 0.929 . S
H837 C847 0.929 . S
H838 C842 0.929 . S
H839 C848 0.929 . S
C840 H834 0.930 . S
C840 C841 1.367 . S
C840 C848 1.378 . S
C841 C840 1.367 . S
C841 C849 1.433 . S
C842 H838 0.929 . S
C842 C844 1.378 . S
C842 C846 1.350 . S
C843 C846 1.463 . S
C843 C848 1.350 . S
C843 N851 1.427 . S
C844 H835 0.930 . S
C844 C842 1.378 . S
C844 C845 1.367 . S
C845 C844 1.367 . S
C845 C847 1.433 . S
C846 C842 1.350 . S
C846 C843 1.463 . S
C846 N850 1.427 . S
C847 H837 0.929 . S
C847 C845 1.433 . S
C847 N850 1.384 . S
C848 H839 0.929 . S
C848 C840 1.378 . S
C848 C843 1.350 . S
C849 H836 0.929 . S
C849 C841 1.433 . S
C849 N851 1.384 . S
N850 C846 1.427 . S
N850 C847 1.384 . S
N851 C843 1.427 . S
N851 C849 1.384 . S
H852 C858 0.930 . S
H853 C862 0.930 . S
H854 C867 0.929 . S
H855 C865 0.929 . S
H856 C860 0.929 . S
H857 C866 0.929 . S
C858 H852 0.930 . S
C858 C859 1.367 . S
C858 C866 1.378 . S
C859 C858 1.367 . S
C859 C867 1.433 . S
C860 H856 0.929 . S
C860 C862 1.378 . S
C860 C864 1.350 . S
C861 C864 1.463 . S
C861 C866 1.350 . S
C861 N869 1.427 . S
C862 H853 0.930 . S
C862 C860 1.378 . S
C862 C863 1.367 . S
C863 C862 1.367 . S
C863 C865 1.433 . S
C864 C860 1.350 . S
C864 C861 1.463 . S
C864 N868 1.427 . S
C865 H855 0.929 . S
C865 C863 1.433 . S
C865 N868 1.384 . S
C866 H857 0.929 . S
C866 C858 1.378 . S
C866 C861 1.350 . S
C867 H854 0.929 . S
C867 C859 1.433 . S
C867 N869 1.384 . S
N868 C864 1.427 . S
N868 C865 1.384 . S
N869 C861 1.427 . S
N869 C867 1.384 . S
H870 C876 0.930 . S
H871 C880 0.930 . S
H872 C885 0.929 . S
H873 C883 0.929 . S
H874 C878 0.929 . S
H875 C884 0.929 . S
C876 H870 0.930 . S
C876 C877 1.367 . S
C876 C884 1.378 . S
C877 C876 1.367 . S
C877 C885 1.433 . S
C878 H874 0.929 . S
C878 C880 1.378 . S
C878 C882 1.350 . S
C879 C882 1.463 . S
C879 C884 1.350 . S
C879 N887 1.427 . S
C880 H871 0.930 . S
C880 C878 1.378 . S
C880 C881 1.367 . S
C881 C880 1.367 . S
C881 C883 1.433 . S
C882 C878 1.350 . S
C882 C879 1.463 . S
C882 N886 1.427 . S
C883 H873 0.929 . S
C883 C881 1.433 . S
C883 N886 1.384 . S
C884 H875 0.929 . S
C884 C876 1.378 . S
C884 C879 1.350 . S
C885 H872 0.929 . S
C885 C877 1.433 . S
C885 N887 1.384 . S
N886 C882 1.427 . S
N886 C883 1.384 . S
N887 C879 1.427 . S
N887 C885 1.384 . S
H888 C894 0.930 . S
H889 C898 0.930 . S
H890 C903 0.929 . S
H891 C901 0.929 . S
H892 C896 0.929 . S
H893 C902 0.929 . S
C894 H888 0.930 . S
C894 C895 1.367 . S
C894 C902 1.378 . S
C895 C894 1.367 . S
C895 C903 1.433 . S
C896 H892 0.929 . S
C896 C898 1.378 . S
C896 C900 1.350 . S
C897 C900 1.463 . S
C897 C902 1.350 . S
C897 N905 1.427 . S
C898 H889 0.930 . S
C898 C896 1.378 . S
C898 C899 1.367 . S
C899 C898 1.367 . S
C899 C901 1.433 . S
C900 C896 1.350 . S
C900 C897 1.463 . S
C900 N904 1.427 . S
C901 H891 0.929 . S
C901 C899 1.433 . S
C901 N904 1.384 . S
C902 H893 0.929 . S
C902 C894 1.378 . S
C902 C897 1.350 . S
C903 H890 0.929 . S
C903 C895 1.433 . S
C903 N905 1.384 . S
N904 C900 1.427 . S
N904 C901 1.384 . S
N905 C897 1.427 . S
N905 C903 1.384 . S
H906 C912 0.930 . S
H907 C916 0.930 . S
H908 C921 0.929 . S
H909 C919 0.929 . S
H910 C914 0.929 . S
H911 C920 0.929 . S
C912 H906 0.930 . S
C912 C913 1.367 . S
C912 C920 1.378 . S
C913 C912 1.367 . S
C913 C921 1.433 . S
C914 H910 0.929 . S
C914 C916 1.378 . S
C914 C918 1.350 . S
C915 C918 1.463 . S
C915 C920 1.350 . S
C915 N923 1.427 . S
C916 H907 0.930 . S
C916 C914 1.378 . S
C916 C917 1.367 . S
C917 C916 1.367 . S
C917 C919 1.433 . S
C918 C914 1.350 . S
C918 C915 1.463 . S
C918 N922 1.427 . S
C919 H909 0.929 . S
C919 C917 1.433 . S
C919 N922 1.384 . S
C920 H911 0.929 . S
C920 C912 1.378 . S
C920 C915 1.350 . S
C921 H908 0.929 . S
C921 C913 1.433 . S
C921 N923 1.384 . S
N922 C918 1.427 . S
N922 C919 1.384 . S
N923 C915 1.427 . S
N923 C921 1.384 . S
H924 C930 0.930 . S
H925 C934 0.930 . S
H926 C939 0.929 . S
H927 C937 0.929 . S
H928 C932 0.929 . S
H929 C938 0.929 . S
C930 H924 0.930 . S
C930 C931 1.367 . S
C930 C938 1.378 . S
C931 C930 1.367 . S
C931 C939 1.433 . S
C932 H928 0.929 . S
C932 C934 1.378 . S
C932 C936 1.350 . S
C933 C936 1.463 . S
C933 C938 1.350 . S
C933 N941 1.427 . S
C934 H925 0.930 . S
C934 C932 1.378 . S
C934 C935 1.367 . S
C935 C934 1.367 . S
C935 C937 1.433 . S
C936 C932 1.350 . S
C936 C933 1.463 . S
C936 N940 1.427 . S
C937 H927 0.929 . S
C937 C935 1.433 . S
C937 N940 1.384 . S
C938 H929 0.929 . S
C938 C930 1.378 . S
C938 C933 1.350 . S
C939 H926 0.929 . S
C939 C931 1.433 . S
C939 N941 1.384 . S
N940 C936 1.427 . S
N940 C937 1.384 . S
N941 C933 1.427 . S
N941 C939 1.384 . S
H942 C948 0.930 . S
H943 C952 0.930 . S
H944 C957 0.929 . S
H945 C955 0.929 . S
H946 C950 0.929 . S
H947 C956 0.929 . S
C948 H942 0.930 . S
C948 C949 1.367 . S
C948 C956 1.378 . S
C949 C948 1.367 . S
C949 C957 1.433 . S
C950 H946 0.929 . S
C950 C952 1.378 . S
C950 C954 1.350 . S
C951 C954 1.463 . S
C951 C956 1.350 . S
C951 N959 1.427 . S
C952 H943 0.930 . S
C952 C950 1.378 . S
C952 C953 1.367 . S
C953 C952 1.367 . S
C953 C955 1.433 . S
C954 C950 1.350 . S
C954 C951 1.463 . S
C954 N958 1.427 . S
C955 H945 0.929 . S
C955 C953 1.433 . S
C955 N958 1.384 . S
C956 H947 0.929 . S
C956 C948 1.378 . S
C956 C951 1.350 . S
C957 H944 0.929 . S
C957 C949 1.433 . S
C957 N959 1.384 . S
N958 C954 1.427 . S
N958 C955 1.384 . S
N959 C951 1.427 . S
N959 C957 1.384 . S
H960 C966 0.930 . S
H961 C970 0.930 . S
H962 C975 0.929 . S
H963 C973 0.929 . S
H964 C968 0.929 . S
H965 C974 0.929 . S
C966 H960 0.930 . S
C966 C967 1.367 . S
C966 C974 1.378 . S
C967 C966 1.367 . S
C967 C975 1.433 . S
C968 H964 0.929 . S
C968 C970 1.378 . S
C968 C972 1.350 . S
C969 C972 1.463 . S
C969 C974 1.350 . S
C969 N977 1.427 . S
C970 H961 0.930 . S
C970 C968 1.378 . S
C970 C971 1.367 . S
C971 C970 1.367 . S
C971 C973 1.433 . S
C972 C968 1.350 . S
C972 C969 1.463 . S
C972 N976 1.427 . S
C973 H963 0.929 . S
C973 C971 1.433 . S
C973 N976 1.384 . S
C974 H965 0.929 . S
C974 C966 1.378 . S
C974 C969 1.350 . S
C975 H962 0.929 . S
C975 C967 1.433 . S
C975 N977 1.384 . S
N976 C972 1.427 . S
N976 C973 1.384 . S
N977 C969 1.427 . S
N977 C975 1.384 . S
H978 C984 0.930 . S
H979 C988 0.930 . S
H980 C993 0.929 . S
H981 C991 0.929 . S
H982 C986 0.929 . S
H983 C992 0.929 . S
C984 H978 0.930 . S
C984 C985 1.367 . S
C984 C992 1.378 . S
C985 C984 1.367 . S
C985 C993 1.433 . S
C986 H982 0.929 . S
C986 C988 1.378 . S
C986 C990 1.350 . S
C987 C990 1.463 . S
C987 C992 1.350 . S
C987 N995 1.427 . S
C988 H979 0.930 . S
C988 C986 1.378 . S
C988 C989 1.367 . S
C989 C988 1.367 . S
C989 C991 1.433 . S
C990 C986 1.350 . S
C990 C987 1.463 . S
C990 N994 1.427 . S
C991 H981 0.929 . S
C991 C989 1.433 . S
C991 N994 1.384 . S
C992 H983 0.929 . S
C992 C984 1.378 . S
C992 C987 1.350 . S
C993 H980 0.929 . S
C993 C985 1.433 . S
C993 N995 1.384 . S
N994 C990 1.427 . S
N994 C991 1.384 . S
N995 C987 1.427 . S
N995 C993 1.384 . S
H996 C1002 0.930 . S
H997 C1006 0.930 . S
H998 C1011 0.929 . S
H999 C1009 0.929 . S
H1000 C1004 0.929 . S
H1001 C1010 0.929 . S
C1002 H996 0.930 . S
C1002 C1003 1.367 . S
C1002 C1010 1.378 . S
C1003 C1002 1.367 . S
C1003 C1011 1.433 . S
C1004 H1000 0.929 . S
C1004 C1006 1.378 . S
C1004 C1008 1.350 . S
C1005 C1008 1.463 . S
C1005 C1010 1.350 . S
C1005 N1013 1.427 . S
C1006 H997 0.930 . S
C1006 C1004 1.378 . S
C1006 C1007 1.367 . S
C1007 C1006 1.367 . S
C1007 C1009 1.433 . S
C1008 C1004 1.350 . S
C1008 C1005 1.463 . S
C1008 N1012 1.427 . S
C1009 H999 0.929 . S
C1009 C1007 1.433 . S
C1009 N1012 1.384 . S
C1010 H1001 0.929 . S
C1010 C1002 1.378 . S
C1010 C1005 1.350 . S
C1011 H998 0.929 . S
C1011 C1003 1.433 . S
C1011 N1013 1.384 . S
N1012 C1008 1.427 . S
N1012 C1009 1.384 . S
N1013 C1005 1.427 . S
N1013 C1011 1.384 . S
H1014 C1020 0.930 . S
H1015 C1024 0.930 . S
H1016 C1029 0.929 . S
H1017 C1027 0.929 . S
H1018 C1022 0.929 . S
H1019 C1028 0.929 . S
C1020 H1014 0.930 . S
C1020 C1021 1.367 . S
C1020 C1028 1.378 . S
C1021 C1020 1.367 . S
C1021 C1029 1.433 . S
C1022 H1018 0.929 . S
C1022 C1024 1.378 . S
C1022 C1026 1.350 . S
C1023 C1026 1.463 . S
C1023 C1028 1.350 . S
C1023 N1031 1.427 . S
C1024 H1015 0.930 . S
C1024 C1022 1.378 . S
C1024 C1025 1.367 . S
C1025 C1024 1.367 . S
C1025 C1027 1.433 . S
C1026 C1022 1.350 . S
C1026 C1023 1.463 . S
C1026 N1030 1.427 . S
C1027 H1017 0.929 . S
C1027 C1025 1.433 . S
C1027 N1030 1.384 . S
C1028 H1019 0.929 . S
C1028 C1020 1.378 . S
C1028 C1023 1.350 . S
C1029 H1016 0.929 . S
C1029 C1021 1.433 . S
C1029 N1031 1.384 . S
N1030 C1026 1.427 . S
N1030 C1027 1.384 . S
N1031 C1023 1.427 . S
N1031 C1029 1.384 . S
H1032 C1038 0.930 . S
H1033 C1042 0.930 . S
H1034 C1047 0.929 . S
H1035 C1045 0.929 . S
H1036 C1040 0.929 . S
H1037 C1046 0.929 . S
C1038 H1032 0.930 . S
C1038 C1039 1.367 . S
C1038 C1046 1.378 . S
C1039 C1038 1.367 . S
C1039 C1047 1.433 . S
C1040 H1036 0.929 . S
C1040 C1042 1.378 . S
C1040 C1044 1.350 . S
C1041 C1044 1.463 . S
C1041 C1046 1.350 . S
C1041 N1049 1.427 . S
C1042 H1033 0.930 . S
C1042 C1040 1.378 . S
C1042 C1043 1.367 . S
C1043 C1042 1.367 . S
C1043 C1045 1.433 . S
C1044 C1040 1.350 . S
C1044 C1041 1.463 . S
C1044 N1048 1.427 . S
C1045 H1035 0.929 . S
C1045 C1043 1.433 . S
C1045 N1048 1.384 . S
C1046 H1037 0.929 . S
C1046 C1038 1.378 . S
C1046 C1041 1.350 . S
C1047 H1034 0.929 . S
C1047 C1039 1.433 . S
C1047 N1049 1.384 . S
N1048 C1044 1.427 . S
N1048 C1045 1.384 . S
N1049 C1041 1.427 . S
N1049 C1047 1.384 . S
H1050 C1056 0.930 . S
H1051 C1060 0.930 . S
H1052 C1065 0.929 . S
H1053 C1063 0.929 . S
H1054 C1058 0.929 . S
H1055 C1064 0.929 . S
C1056 H1050 0.930 . S
C1056 C1057 1.367 . S
C1056 C1064 1.378 . S
C1057 C1056 1.367 . S
C1057 C1065 1.433 . S
C1058 H1054 0.929 . S
C1058 C1060 1.378 . S
C1058 C1062 1.350 . S
C1059 C1062 1.463 . S
C1059 C1064 1.350 . S
C1059 N1067 1.427 . S
C1060 H1051 0.930 . S
C1060 C1058 1.378 . S
C1060 C1061 1.367 . S
C1061 C1060 1.367 . S
C1061 C1063 1.433 . S
C1062 C1058 1.350 . S
C1062 C1059 1.463 . S
C1062 N1066 1.427 . S
C1063 H1053 0.929 . S
C1063 C1061 1.433 . S
C1063 N1066 1.384 . S
C1064 H1055 0.929 . S
C1064 C1056 1.378 . S
C1064 C1059 1.350 . S
C1065 H1052 0.929 . S
C1065 C1057 1.433 . S
C1065 N1067 1.384 . S
N1066 C1062 1.427 . S
N1066 C1063 1.384 . S
N1067 C1059 1.427 . S
N1067 C1065 1.384 . S
H1068 C1074 0.930 . S
H1069 C1078 0.930 . S
H1070 C1083 0.929 . S
H1071 C1081 0.929 . S
H1072 C1076 0.929 . S
H1073 C1082 0.929 . S
C1074 H1068 0.930 . S
C1074 C1075 1.367 . S
C1074 C1082 1.378 . S
C1075 C1074 1.367 . S
C1075 C1083 1.433 . S
C1076 H1072 0.929 . S
C1076 C1078 1.378 . S
C1076 C1080 1.350 . S
C1077 C1080 1.463 . S
C1077 C1082 1.350 . S
C1077 N1085 1.427 . S
C1078 H1069 0.930 . S
C1078 C1076 1.378 . S
C1078 C1079 1.367 . S
C1079 C1078 1.367 . S
C1079 C1081 1.433 . S
C1080 C1076 1.350 . S
C1080 C1077 1.463 . S
C1080 N1084 1.427 . S
C1081 H1071 0.929 . S
C1081 C1079 1.433 . S
C1081 N1084 1.384 . S
C1082 H1073 0.929 . S
C1082 C1074 1.378 . S
C1082 C1077 1.350 . S
C1083 H1070 0.929 . S
C1083 C1075 1.433 . S
C1083 N1085 1.384 . S
N1084 C1080 1.427 . S
N1084 C1081 1.384 . S
N1085 C1077 1.427 . S
N1085 C1083 1.384 . S
H1086 C1092 0.930 . S
H1087 C1096 0.930 . S
H1088 C1101 0.929 . S
H1089 C1099 0.929 . S
H1090 C1094 0.929 . S
H1091 C1100 0.929 . S
C1092 H1086 0.930 . S
C1092 C1093 1.367 . S
C1092 C1100 1.378 . S
C1093 C1092 1.367 . S
C1093 C1101 1.433 . S
C1094 H1090 0.929 . S
C1094 C1096 1.378 . S
C1094 C1098 1.350 . S
C1095 C1098 1.463 . S
C1095 C1100 1.350 . S
C1095 N1103 1.427 . S
C1096 H1087 0.930 . S
C1096 C1094 1.378 . S
C1096 C1097 1.367 . S
C1097 C1096 1.367 . S
C1097 C1099 1.433 . S
C1098 C1094 1.350 . S
C1098 C1095 1.463 . S
C1098 N1102 1.427 . S
C1099 H1089 0.929 . S
C1099 C1097 1.433 . S
C1099 N1102 1.384 . S
C1100 H1091 0.929 . S
C1100 C1092 1.378 . S
C1100 C1095 1.350 . S
C1101 H1088 0.929 . S
C1101 C1093 1.433 . S
C1101 N1103 1.384 . S
N1102 C1098 1.427 . S
N1102 C1099 1.384 . S
N1103 C1095 1.427 . S
N1103 C1101 1.384 . S
H1104 C1110 0.930 . S
H1105 C1114 0.930 . S
H1106 C1119 0.929 . S
H1107 C1117 0.929 . S
H1108 C1112 0.929 . S
H1109 C1118 0.929 . S
C1110 H1104 0.930 . S
C1110 C1111 1.367 . S
C1110 C1118 1.378 . S
C1111 C1110 1.367 . S
C1111 C1119 1.433 . S
C1112 H1108 0.929 . S
C1112 C1114 1.378 . S
C1112 C1116 1.350 . S
C1113 C1116 1.463 1_655 S
C1113 C1118 1.350 . S
C1113 N1121 1.427 . S
C1114 H1105 0.930 . S
C1114 C1112 1.378 . S
C1114 C1115 1.367 . S
C1115 C1114 1.367 . S
C1115 C1117 1.433 . S
C1116 C1112 1.350 . S
C1116 C1113 1.463 1_455 S
C1116 N1120 1.427 . S
C1117 H1107 0.929 . S
C1117 C1115 1.433 . S
C1117 N1120 1.384 . S
C1118 H1109 0.929 . S
C1118 C1110 1.378 . S
C1118 C1113 1.350 . S
C1119 H1106 0.929 . S
C1119 C1111 1.433 . S
C1119 N1121 1.384 . S
N1120 C1116 1.427 . S
N1120 C1117 1.384 . S
N1121 C1113 1.427 . S
N1121 C1119 1.384 . S
H1122 C1128 0.930 . S
H1123 C1132 0.930 . S
H1124 C1137 0.929 . S
H1125 C1135 0.929 . S
H1126 C1130 0.929 . S
H1127 C1136 0.929 . S
C1128 H1122 0.930 . S
C1128 C1129 1.367 1_545 S
C1128 C1136 1.378 . S
C1129 C1128 1.367 1_565 S
C1129 C1137 1.433 . S
C1130 H1126 0.929 . S
C1130 C1132 1.378 . S
C1130 C1134 1.350 1_565 S
C1131 C1134 1.463 1_565 S
C1131 C1136 1.350 1_565 S
C1131 N1139 1.427 . S
C1132 H1123 0.930 . S
C1132 C1130 1.378 . S
C1132 C1133 1.367 1_565 S
C1133 C1132 1.367 1_545 S
C1133 C1135 1.433 . S
C1134 C1130 1.350 1_545 S
C1134 C1131 1.463 1_545 S
C1134 N1138 1.427 . S
C1135 H1125 0.929 . S
C1135 C1133 1.433 . S
C1135 N1138 1.384 . S
C1136 H1127 0.929 . S
C1136 C1128 1.378 . S
C1136 C1131 1.350 1_545 S
C1137 H1124 0.929 . S
C1137 C1129 1.433 . S
C1137 N1139 1.384 . S
N1138 C1134 1.427 . S
N1138 C1135 1.384 . S
N1139 C1131 1.427 . S
N1139 C1137 1.384 . S
H1140 C1146 0.930 . S
H1141 C1150 0.930 . S
H1142 C1155 0.929 . S
H1143 C1153 0.929 . S
H1144 C1148 0.929 . S
H1145 C1154 0.929 . S
C1146 H1140 0.930 . S
C1146 C1147 1.367 . S
C1146 C1154 1.378 . S
C1147 C1146 1.367 . S
C1147 C1155 1.433 1_655 S
C1148 H1144 0.929 . S
C1148 C1150 1.378 . S
C1148 C1152 1.350 . S
C1149 C1152 1.463 1_655 S
C1149 C1154 1.350 . S
C1149 N1157 1.427 1_655 S
C1150 H1141 0.930 . S
C1150 C1148 1.378 . S
C1150 C1151 1.367 . S
C1151 C1150 1.367 . S
C1151 C1153 1.433 1_455 S
C1152 C1148 1.350 . S
C1152 C1149 1.463 1_455 S
C1152 N1156 1.427 1_455 S
C1153 H1143 0.929 . S
C1153 C1151 1.433 1_655 S
C1153 N1156 1.384 . S
C1154 H1145 0.929 . S
C1154 C1146 1.378 . S
C1154 C1149 1.350 . S
C1155 H1142 0.929 . S
C1155 C1147 1.433 1_455 S
C1155 N1157 1.384 . S
N1156 C1152 1.427 1_655 S
N1156 C1153 1.384 . S
N1157 C1149 1.427 1_455 S
N1157 C1155 1.384 . S
H1158 C1164 0.930 . S
H1159 C1168 0.930 . S
H1160 C1173 0.929 . S
H1161 C1171 0.929 . S
H1162 C1166 0.929 . S
H1163 C1172 0.929 . S
C1164 H1158 0.930 . S
C1164 C1165 1.367 . S
C1164 C1172 1.378 . S
C1165 C1164 1.367 . S
C1165 C1173 1.433 . S
C1166 H1162 0.929 . S
C1166 C1168 1.378 . S
C1166 C1170 1.350 . S
C1167 C1170 1.463 1_545 S
C1167 C1172 1.350 . S
C1167 N1175 1.427 . S
C1168 H1159 0.930 . S
C1168 C1166 1.378 . S
C1168 C1169 1.367 . S
C1169 C1168 1.367 . S
C1169 C1171 1.433 . S
C1170 C1166 1.350 . S
C1170 C1167 1.463 1_565 S
C1170 N1174 1.427 . S
C1171 H1161 0.929 . S
C1171 C1169 1.433 . S
C1171 N1174 1.384 . S
C1172 H1163 0.929 . S
C1172 C1164 1.378 . S
C1172 C1167 1.350 . S
C1173 H1160 0.929 . S
C1173 C1165 1.433 . S
C1173 N1175 1.384 . S
N1174 C1170 1.427 . S
N1174 C1171 1.384 . S
N1175 C1167 1.427 . S
N1175 C1173 1.384 . S
H1176 C1182 0.943 . S
H1177 C1186 0.943 . S
H1178 C1191 0.929 . S
H1179 C1189 0.929 . S
H1180 C1184 0.929 . S
H1181 C1190 0.929 . S
C1182 H1176 0.943 . S
C1182 C1183 1.346 1_655 S
C1182 C1190 1.386 . S
C1183 C1182 1.346 1_455 S
C1183 C1191 1.433 . S
C1184 H1180 0.929 . S
C1184 C1186 1.386 . S
C1184 C1188 1.350 1_455 S
C1185 C1188 1.463 1_455 S
C1185 C1190 1.350 1_455 S
C1185 N1193 1.427 . S
C1186 H1177 0.943 . S
C1186 C1184 1.386 . S
C1186 C1187 1.346 1_455 S
C1187 C1186 1.346 1_655 S
C1187 C1189 1.433 . S
C1188 C1184 1.350 1_655 S
C1188 C1185 1.463 1_655 S
C1188 N1192 1.427 . S
C1189 H1179 0.929 . S
C1189 C1187 1.433 . S
C1189 N1192 1.384 . S
C1190 H1181 0.929 . S
C1190 C1182 1.386 . S
C1190 C1185 1.350 1_655 S
C1191 H1178 0.929 . S
C1191 C1183 1.433 . S
C1191 N1193 1.384 . S
N1192 C1188 1.427 . S
N1192 C1189 1.384 . S
N1193 C1185 1.427 . S
N1193 C1191 1.384 . S
H1194 C1200 0.930 . S
H1195 C1204 0.930 . S
H1196 C1209 0.929 . S
H1197 C1207 0.929 . S
H1198 C1202 0.929 . S
H1199 C1208 0.929 . S
C1200 H1194 0.930 . S
C1200 C1201 1.367 . S
C1200 C1208 1.378 . S
C1201 C1200 1.367 . S
C1201 C1209 1.433 1_565 S
C1202 H1198 0.929 . S
C1202 C1204 1.378 . S
C1202 C1206 1.350 . S
C1203 C1206 1.463 1_565 S
C1203 C1208 1.350 . S
C1203 N1211 1.427 1_565 S
C1204 H1195 0.930 . S
C1204 C1202 1.378 . S
C1204 C1205 1.367 . S
C1205 C1204 1.367 . S
C1205 C1207 1.433 1_545 S
C1206 C1202 1.350 . S
C1206 C1203 1.463 1_545 S
C1206 N1210 1.427 1_545 S
C1207 H1197 0.929 . S
C1207 C1205 1.433 1_565 S
C1207 N1210 1.384 . S
C1208 H1199 0.929 . S
C1208 C1200 1.378 . S
C1208 C1203 1.350 . S
C1209 H1196 0.929 . S
C1209 C1201 1.433 1_545 S
C1209 N1211 1.384 . S
N1210 C1206 1.427 1_565 S
N1210 C1207 1.384 . S
N1211 C1203 1.427 1_545 S
N1211 C1209 1.384 . S
H1212 C1218 0.930 1_655 S
H1213 C1222 0.930 1_455 S
H1214 C1227 0.929 . S
H1215 C1225 0.929 . S
H1216 C1220 0.929 . S
H1217 C1226 0.929 . S
C1218 H1212 0.930 1_455 S
C1218 C1219 1.367 . S
C1218 C1226 1.378 1_455 S
C1219 C1218 1.367 . S
C1219 C1227 1.433 . S
C1220 H1216 0.929 . S
C1220 C1222 1.378 1_455 S
C1220 C1224 1.350 1_455 S
C1221 C1224 1.463 1_455 S
C1221 C1226 1.350 1_455 S
C1221 N1229 1.427 . S
C1222 H1213 0.930 1_655 S
C1222 C1220 1.378 1_655 S
C1222 C1223 1.367 . S
C1223 C1222 1.367 . S
C1223 C1225 1.433 . S
C1224 C1220 1.350 1_655 S
C1224 C1221 1.463 1_655 S
C1224 N1228 1.427 . S
C1225 H1215 0.929 . S
C1225 C1223 1.433 . S
C1225 N1228 1.384 . S
C1226 H1217 0.929 . S
C1226 C1218 1.378 1_655 S
C1226 C1221 1.350 1_655 S
C1227 H1214 0.929 . S
C1227 C1219 1.433 . S
C1227 N1229 1.384 . S
N1228 C1224 1.427 . S
N1228 C1225 1.384 . S
N1229 C1221 1.427 . S
N1229 C1227 1.384 . S
H1230 C1236 0.930 . S
H1231 C1240 0.930 . S
H1232 C1245 0.929 . S
H1233 C1243 0.929 . S
H1234 C1238 0.929 . S
H1235 C1244 0.929 . S
C1236 H1230 0.930 . S
C1236 C1237 1.367 . S
C1236 C1244 1.378 . S
C1237 C1236 1.367 . S
C1237 C1245 1.433 1_545 S
C1238 H1234 0.929 . S
C1238 C1240 1.378 . S
C1238 C1242 1.350 . S
C1239 C1242 1.463 1_545 S
C1239 C1244 1.350 . S
C1239 N1247 1.427 1_545 S
C1240 H1231 0.930 . S
C1240 C1238 1.378 . S
C1240 C1241 1.367 . S
C1241 C1240 1.367 . S
C1241 C1243 1.433 1_565 S
C1242 C1238 1.350 . S
C1242 C1239 1.463 1_565 S
C1242 N1246 1.427 1_565 S
C1243 H1233 0.929 . S
C1243 C1241 1.433 1_545 S
C1243 N1246 1.384 . S
C1244 H1235 0.929 . S
C1244 C1236 1.378 . S
C1244 C1239 1.350 . S
C1245 H1232 0.929 . S
C1245 C1237 1.433 1_565 S
C1245 N1247 1.384 . S
N1246 C1242 1.427 1_545 S
N1246 C1243 1.384 . S
N1247 C1239 1.427 1_565 S
N1247 C1245 1.384 . S
H1248 C1254 0.930 1_554 S
H1249 C1258 0.930 1_556 S
H1250 C1263 0.929 . S
H1251 C1261 0.929 . S
H1252 C1256 0.929 . S
H1253 C1262 0.929 . S
C1254 H1248 0.930 1_556 S
C1254 C1255 1.367 . S
C1254 C1262 1.378 1_556 S
C1255 C1254 1.367 . S
C1255 C1263 1.433 . S
C1256 H1252 0.929 . S
C1256 C1258 1.378 1_556 S
C1256 C1260 1.350 1_556 S
C1257 C1260 1.463 1_556 S
C1257 C1262 1.350 1_556 S
C1257 N1265 1.427 . S
C1258 H1249 0.930 1_554 S
C1258 C1256 1.378 1_554 S
C1258 C1259 1.367 . S
C1259 C1258 1.367 . S
C1259 C1261 1.433 . S
C1260 C1256 1.350 1_554 S
C1260 C1257 1.463 1_554 S
C1260 N1264 1.427 . S
C1261 H1251 0.929 . S
C1261 C1259 1.433 . S
C1261 N1264 1.384 . S
C1262 H1253 0.929 . S
C1262 C1254 1.378 1_554 S
C1262 C1257 1.350 1_554 S
C1263 H1250 0.929 . S
C1263 C1255 1.433 . S
C1263 N1265 1.384 . S
N1264 C1260 1.427 . S
N1264 C1261 1.384 . S
N1265 C1257 1.427 . S
N1265 C1263 1.384 . S
H1266 C1272 0.930 . S
H1267 C1276 0.930 . S
H1268 C1281 0.929 . S
H1269 C1279 0.929 . S
H1270 C1274 0.929 . S
H1271 C1280 0.929 . S
C1272 H1266 0.930 . S
C1272 C1273 1.367 . S
C1272 C1280 1.378 . S
C1273 C1272 1.367 . S
C1273 C1281 1.433 1_554 S
C1274 H1270 0.929 . S
C1274 C1276 1.378 . S
C1274 C1278 1.350 . S
C1275 C1278 1.463 1_554 S
C1275 C1280 1.350 . S
C1275 N1283 1.427 1_554 S
C1276 H1267 0.930 . S
C1276 C1274 1.378 . S
C1276 C1277 1.367 . S
C1277 C1276 1.367 . S
C1277 C1279 1.433 1_556 S
C1278 C1274 1.350 . S
C1278 C1275 1.463 1_556 S
C1278 N1282 1.427 1_556 S
C1279 H1269 0.929 . S
C1279 C1277 1.433 1_554 S
C1279 N1282 1.384 . S
C1280 H1271 0.929 . S
C1280 C1272 1.378 . S
C1280 C1275 1.350 . S
C1281 H1268 0.929 . S
C1281 C1273 1.433 1_556 S
C1281 N1283 1.384 . S
N1282 C1278 1.427 1_554 S
N1282 C1279 1.384 . S
N1283 C1275 1.427 1_556 S
N1283 C1281 1.384 . S
H1284 C1290 0.930 . S
H1285 C1294 0.930 . S
H1286 C1299 0.929 . S
H1287 C1297 0.929 . S
H1288 C1292 0.929 . S
H1289 C1298 0.929 . S
C1290 H1284 0.930 . S
C1290 C1291 1.367 . S
C1290 C1298 1.378 . S
C1291 C1290 1.367 . S
C1291 C1299 1.433 . S
C1292 H1288 0.929 . S
C1292 C1294 1.378 . S
C1292 C1296 1.350 . S
C1293 C1296 1.463 1_554 S
C1293 C1298 1.350 . S
C1293 N1301 1.427 . S
C1294 H1285 0.930 . S
C1294 C1292 1.378 . S
C1294 C1295 1.367 . S
C1295 C1294 1.367 . S
C1295 C1297 1.433 . S
C1296 C1292 1.350 . S
C1296 C1293 1.463 1_556 S
C1296 N1300 1.427 . S
C1297 H1287 0.929 . S
C1297 C1295 1.433 . S
C1297 N1300 1.384 . S
C1298 H1289 0.929 . S
C1298 C1290 1.378 . S
C1298 C1293 1.350 . S
C1299 H1286 0.929 . S
C1299 C1291 1.433 . S
C1299 N1301 1.384 . S
N1300 C1296 1.427 . S
N1300 C1297 1.384 . S
N1301 C1293 1.427 . S
N1301 C1299 1.384 . S
H1302 C1308 0.930 . S
H1303 C1312 0.930 . S
H1304 C1317 0.929 . S
H1305 C1315 0.929 . S
H1306 C1310 0.929 . S
H1307 C1316 0.929 . S
C1308 H1302 0.930 . S
C1308 C1309 1.367 . S
C1308 C1316 1.378 . S
C1309 C1308 1.367 . S
C1309 C1317 1.433 1_556 S
C1310 H1306 0.929 . S
C1310 C1312 1.378 . S
C1310 C1314 1.350 . S
C1311 C1314 1.463 1_556 S
C1311 C1316 1.350 . S
C1311 N1319 1.427 1_556 S
C1312 H1303 0.930 . S
C1312 C1310 1.378 . S
C1312 C1313 1.367 . S
C1313 C1312 1.367 . S
C1313 C1315 1.433 1_554 S
C1314 C1310 1.350 . S
C1314 C1311 1.463 1_554 S
C1314 N1318 1.427 1_554 S
C1315 H1305 0.929 . S
C1315 C1313 1.433 1_556 S
C1315 N1318 1.384 . S
C1316 H1307 0.929 . S
C1316 C1308 1.378 . S
C1316 C1311 1.350 . S
C1317 H1304 0.929 . S
C1317 C1309 1.433 1_554 S
C1317 N1319 1.384 . S
N1318 C1314 1.427 1_556 S
N1318 C1315 1.384 . S
N1319 C1311 1.427 1_554 S
N1319 C1317 1.384 . S
H1320 C1326 0.930 . S
H1321 C1330 0.930 . S
H1322 C1335 0.929 . S
H1323 C1333 0.929 . S
H1324 C1328 0.929 . S
H1325 C1334 0.929 . S
C1326 H1320 0.930 . S
C1326 C1327 1.367 . S
C1326 C1334 1.378 . S
C1327 C1326 1.367 . S
C1327 C1335 1.433 . S
C1328 H1324 0.929 . S
C1328 C1330 1.378 . S
C1328 C1332 1.350 . S
C1329 C1332 1.463 . S
C1329 C1334 1.350 . S
C1329 N1337 1.427 . S
C1330 H1321 0.930 . S
C1330 C1328 1.378 . S
C1330 C1331 1.367 . S
C1331 C1330 1.367 . S
C1331 C1333 1.433 . S
C1332 C1328 1.350 . S
C1332 C1329 1.463 . S
C1332 N1336 1.427 . S
C1333 H1323 0.929 . S
C1333 C1331 1.433 . S
C1333 N1336 1.384 . S
C1334 H1325 0.929 . S
C1334 C1326 1.378 . S
C1334 C1329 1.350 . S
C1335 H1322 0.929 . S
C1335 C1327 1.433 . S
C1335 N1337 1.384 . S
N1336 C1332 1.427 . S
N1336 C1333 1.384 . S
N1337 C1329 1.427 . S
N1337 C1335 1.384 . S
H1338 C1344 0.930 . S
H1339 C1348 0.930 . S
H1340 C1353 0.929 . S
H1341 C1351 0.929 . S
H1342 C1346 0.929 . S
H1343 C1352 0.929 . S
C1344 H1338 0.930 . S
C1344 C1345 1.367 . S
C1344 C1352 1.378 . S
C1345 C1344 1.367 . S
C1345 C1353 1.433 . S
C1346 H1342 0.929 . S
C1346 C1348 1.378 . S
C1346 C1350 1.350 . S
C1347 C1350 1.463 . S
C1347 C1352 1.350 . S
C1347 N1355 1.427 . S
C1348 H1339 0.930 . S
C1348 C1346 1.378 . S
C1348 C1349 1.367 . S
C1349 C1348 1.367 . S
C1349 C1351 1.433 . S
C1350 C1346 1.350 . S
C1350 C1347 1.463 . S
C1350 N1354 1.427 . S
C1351 H1341 0.929 . S
C1351 C1349 1.433 . S
C1351 N1354 1.384 . S
C1352 H1343 0.929 . S
C1352 C1344 1.378 . S
C1352 C1347 1.350 . S
C1353 H1340 0.929 . S
C1353 C1345 1.433 . S
C1353 N1355 1.384 . S
N1354 C1350 1.427 . S
N1354 C1351 1.384 . S
N1355 C1347 1.427 . S
N1355 C1353 1.384 . S
H1356 C1362 0.930 . S
H1357 C1366 0.930 . S
H1358 C1371 0.929 . S
H1359 C1369 0.929 . S
H1360 C1364 0.929 . S
H1361 C1370 0.929 . S
C1362 H1356 0.930 . S
C1362 C1363 1.367 . S
C1362 C1370 1.378 . S
C1363 C1362 1.367 . S
C1363 C1371 1.433 . S
C1364 H1360 0.929 . S
C1364 C1366 1.378 . S
C1364 C1368 1.350 . S
C1365 C1368 1.463 . S
C1365 C1370 1.350 . S
C1365 N1373 1.427 . S
C1366 H1357 0.930 . S
C1366 C1364 1.378 . S
C1366 C1367 1.367 . S
C1367 C1366 1.367 . S
C1367 C1369 1.433 . S
C1368 C1364 1.350 . S
C1368 C1365 1.463 . S
C1368 N1372 1.427 . S
C1369 H1359 0.929 . S
C1369 C1367 1.433 . S
C1369 N1372 1.384 . S
C1370 H1361 0.929 . S
C1370 C1362 1.378 . S
C1370 C1365 1.350 . S
C1371 H1358 0.929 . S
C1371 C1363 1.433 . S
C1371 N1373 1.384 . S
N1372 C1368 1.427 . S
N1372 C1369 1.384 . S
N1373 C1365 1.427 . S
N1373 C1371 1.384 . S
H1374 C1380 0.930 . S
H1375 C1384 0.930 . S
H1376 C1389 0.929 . S
H1377 C1387 0.929 . S
H1378 C1382 0.929 . S
H1379 C1388 0.929 . S
C1380 H1374 0.930 . S
C1380 C1381 1.367 . S
C1380 C1388 1.378 . S
C1381 C1380 1.367 . S
C1381 C1389 1.433 . S
C1382 H1378 0.929 . S
C1382 C1384 1.378 . S
C1382 C1386 1.350 . S
C1383 C1386 1.463 . S
C1383 C1388 1.350 . S
C1383 N1391 1.427 . S
C1384 H1375 0.930 . S
C1384 C1382 1.378 . S
C1384 C1385 1.367 . S
C1385 C1384 1.367 . S
C1385 C1387 1.433 . S
C1386 C1382 1.350 . S
C1386 C1383 1.463 . S
C1386 N1390 1.427 . S
C1387 H1377 0.929 . S
C1387 C1385 1.433 . S
C1387 N1390 1.384 . S
C1388 H1379 0.929 . S
C1388 C1380 1.378 . S
C1388 C1383 1.350 . S
C1389 H1376 0.929 . S
C1389 C1381 1.433 . S
C1389 N1391 1.384 . S
N1390 C1386 1.427 . S
N1390 C1387 1.384 . S
N1391 C1383 1.427 . S
N1391 C1389 1.384 . S
H1392 C1398 0.930 . S
H1393 C1402 0.930 . S
H1394 C1407 0.929 . S
H1395 C1405 0.929 . S
H1396 C1400 0.929 . S
H1397 C1406 0.929 . S
C1398 H1392 0.930 . S
C1398 C1399 1.367 . S
C1398 C1406 1.378 . S
C1399 C1398 1.367 . S
C1399 C1407 1.433 . S
C1400 H1396 0.929 . S
C1400 C1402 1.378 . S
C1400 C1404 1.350 . S
C1401 C1404 1.463 . S
C1401 C1406 1.350 . S
C1401 N1409 1.427 . S
C1402 H1393 0.930 . S
C1402 C1400 1.378 . S
C1402 C1403 1.367 . S
C1403 C1402 1.367 . S
C1403 C1405 1.433 . S
C1404 C1400 1.350 . S
C1404 C1401 1.463 . S
C1404 N1408 1.427 . S
C1405 H1395 0.929 . S
C1405 C1403 1.433 . S
C1405 N1408 1.384 . S
C1406 H1397 0.929 . S
C1406 C1398 1.378 . S
C1406 C1401 1.350 . S
C1407 H1394 0.929 . S
C1407 C1399 1.433 . S
C1407 N1409 1.384 . S
N1408 C1404 1.427 . S
N1408 C1405 1.384 . S
N1409 C1401 1.427 . S
N1409 C1407 1.384 . S
H1410 C1416 0.930 . S
H1411 C1420 0.930 . S
H1412 C1425 0.929 . S
H1413 C1423 0.929 . S
H1414 C1418 0.929 . S
H1415 C1424 0.929 . S
C1416 H1410 0.930 . S
C1416 C1417 1.367 . S
C1416 C1424 1.378 . S
C1417 C1416 1.367 . S
C1417 C1425 1.433 . S
C1418 H1414 0.929 . S
C1418 C1420 1.378 . S
C1418 C1422 1.350 . S
C1419 C1422 1.463 . S
C1419 C1424 1.350 . S
C1419 N1427 1.427 . S
C1420 H1411 0.930 . S
C1420 C1418 1.378 . S
C1420 C1421 1.367 . S
C1421 C1420 1.367 . S
C1421 C1423 1.433 . S
C1422 C1418 1.350 . S
C1422 C1419 1.463 . S
C1422 N1426 1.427 . S
C1423 H1413 0.929 . S
C1423 C1421 1.433 . S
C1423 N1426 1.384 . S
C1424 H1415 0.929 . S
C1424 C1416 1.378 . S
C1424 C1419 1.350 . S
C1425 H1412 0.929 . S
C1425 C1417 1.433 . S
C1425 N1427 1.384 . S
N1426 C1422 1.427 . S
N1426 C1423 1.384 . S
N1427 C1419 1.427 . S
N1427 C1425 1.384 . S
H1428 C1434 0.930 . S
H1429 C1438 0.930 . S
H1430 C1443 0.929 . S
H1431 C1441 0.929 . S
H1432 C1436 0.929 . S
H1433 C1442 0.929 . S
C1434 H1428 0.930 . S
C1434 C1435 1.367 . S
C1434 C1442 1.378 . S
C1435 C1434 1.367 . S
C1435 C1443 1.433 . S
C1436 H1432 0.929 . S
C1436 C1438 1.378 . S
C1436 C1440 1.350 . S
C1437 C1440 1.463 . S
C1437 C1442 1.350 . S
C1437 N1445 1.427 . S
C1438 H1429 0.930 . S
C1438 C1436 1.378 . S
C1438 C1439 1.367 . S
C1439 C1438 1.367 . S
C1439 C1441 1.433 . S
C1440 C1436 1.350 . S
C1440 C1437 1.463 . S
C1440 N1444 1.427 . S
C1441 H1431 0.929 . S
C1441 C1439 1.433 . S
C1441 N1444 1.384 . S
C1442 H1433 0.929 . S
C1442 C1434 1.378 . S
C1442 C1437 1.350 . S
C1443 H1430 0.929 . S
C1443 C1435 1.433 . S
C1443 N1445 1.384 . S
N1444 C1440 1.427 . S
N1444 C1441 1.384 . S
N1445 C1437 1.427 . S
N1445 C1443 1.384 . S
H1446 C1452 0.930 . S
H1447 C1456 0.930 . S
H1448 C1461 0.929 . S
H1449 C1459 0.929 . S
H1450 C1454 0.929 . S
H1451 C1460 0.929 . S
C1452 H1446 0.930 . S
C1452 C1453 1.367 . S
C1452 C1460 1.378 . S
C1453 C1452 1.367 . S
C1453 C1461 1.433 . S
C1454 H1450 0.929 . S
C1454 C1456 1.378 . S
C1454 C1458 1.350 . S
C1455 C1458 1.463 . S
C1455 C1460 1.350 . S
C1455 N1463 1.427 . S
C1456 H1447 0.930 . S
C1456 C1454 1.378 . S
C1456 C1457 1.367 . S
C1457 C1456 1.367 . S
C1457 C1459 1.433 . S
C1458 C1454 1.350 . S
C1458 C1455 1.463 . S
C1458 N1462 1.427 . S
C1459 H1449 0.929 . S
C1459 C1457 1.433 . S
C1459 N1462 1.384 . S
C1460 H1451 0.929 . S
C1460 C1452 1.378 . S
C1460 C1455 1.350 . S
C1461 H1448 0.929 . S
C1461 C1453 1.433 . S
C1461 N1463 1.384 . S
N1462 C1458 1.427 . S
N1462 C1459 1.384 . S
N1463 C1455 1.427 . S
N1463 C1461 1.384 . S
H1464 C1470 0.930 . S
H1465 C1474 0.930 . S
H1466 C1479 0.929 . S
H1467 C1477 0.929 . S
H1468 C1472 0.929 . S
H1469 C1478 0.929 . S
C1470 H1464 0.930 . S
C1470 C1471 1.367 . S
C1470 C1478 1.378 . S
C1471 C1470 1.367 . S
C1471 C1479 1.433 . S
C1472 H1468 0.929 . S
C1472 C1474 1.378 . S
C1472 C1476 1.350 . S
C1473 C1476 1.463 . S
C1473 C1478 1.350 . S
C1473 N1481 1.427 . S
C1474 H1465 0.930 . S
C1474 C1472 1.378 . S
C1474 C1475 1.367 . S
C1475 C1474 1.367 . S
C1475 C1477 1.433 . S
C1476 C1472 1.350 . S
C1476 C1473 1.463 . S
C1476 N1480 1.427 . S
C1477 H1467 0.929 . S
C1477 C1475 1.433 . S
C1477 N1480 1.384 . S
C1478 H1469 0.929 . S
C1478 C1470 1.378 . S
C1478 C1473 1.350 . S
C1479 H1466 0.929 . S
C1479 C1471 1.433 . S
C1479 N1481 1.384 . S
N1480 C1476 1.427 . S
N1480 C1477 1.384 . S
N1481 C1473 1.427 . S
N1481 C1479 1.384 . S
H1482 C1488 0.930 . S
H1483 C1492 0.930 . S
H1484 C1497 0.929 . S
H1485 C1495 0.929 . S
H1486 C1490 0.929 . S
H1487 C1496 0.929 . S
C1488 H1482 0.930 . S
C1488 C1489 1.367 . S
C1488 C1496 1.378 . S
C1489 C1488 1.367 . S
C1489 C1497 1.433 . S
C1490 H1486 0.929 . S
C1490 C1492 1.378 . S
C1490 C1494 1.350 . S
C1491 C1494 1.463 . S
C1491 C1496 1.350 . S
C1491 N1499 1.427 . S
C1492 H1483 0.930 . S
C1492 C1490 1.378 . S
C1492 C1493 1.367 . S
C1493 C1492 1.367 . S
C1493 C1495 1.433 . S
C1494 C1490 1.350 . S
C1494 C1491 1.463 . S
C1494 N1498 1.427 . S
C1495 H1485 0.929 . S
C1495 C1493 1.433 . S
C1495 N1498 1.384 . S
C1496 H1487 0.929 . S
C1496 C1488 1.378 . S
C1496 C1491 1.350 . S
C1497 H1484 0.929 . S
C1497 C1489 1.433 . S
C1497 N1499 1.384 . S
N1498 C1494 1.427 . S
N1498 C1495 1.384 . S
N1499 C1491 1.427 . S
N1499 C1497 1.384 . S
H1500 C1506 0.930 . S
H1501 C1510 0.930 . S
H1502 C1515 0.929 . S
H1503 C1513 0.929 . S
H1504 C1508 0.929 . S
H1505 C1514 0.929 . S
C1506 H1500 0.930 . S
C1506 C1507 1.367 . S
C1506 C1514 1.378 . S
C1507 C1506 1.367 . S
C1507 C1515 1.433 . S
C1508 H1504 0.929 . S
C1508 C1510 1.378 . S
C1508 C1512 1.350 . S
C1509 C1512 1.463 . S
C1509 C1514 1.350 . S
C1509 N1517 1.427 . S
C1510 H1501 0.930 . S
C1510 C1508 1.378 . S
C1510 C1511 1.367 . S
C1511 C1510 1.367 . S
C1511 C1513 1.433 . S
C1512 C1508 1.350 . S
C1512 C1509 1.463 . S
C1512 N1516 1.427 . S
C1513 H1503 0.929 . S
C1513 C1511 1.433 . S
C1513 N1516 1.384 . S
C1514 H1505 0.929 . S
C1514 C1506 1.378 . S
C1514 C1509 1.350 . S
C1515 H1502 0.929 . S
C1515 C1507 1.433 . S
C1515 N1517 1.384 . S
N1516 C1512 1.427 . S
N1516 C1513 1.384 . S
N1517 C1509 1.427 . S
N1517 C1515 1.384 . S
H1518 C1524 0.930 . S
H1519 C1528 0.930 . S
H1520 C1533 0.929 . S
H1521 C1531 0.929 . S
H1522 C1526 0.929 . S
H1523 C1532 0.929 . S
C1524 H1518 0.930 . S
C1524 C1525 1.367 . S
C1524 C1532 1.378 . S
C1525 C1524 1.367 . S
C1525 C1533 1.433 . S
C1526 H1522 0.929 . S
C1526 C1528 1.378 . S
C1526 C1530 1.350 . S
C1527 C1530 1.463 . S
C1527 C1532 1.350 . S
C1527 N1535 1.427 . S
C1528 H1519 0.930 . S
C1528 C1526 1.378 . S
C1528 C1529 1.367 . S
C1529 C1528 1.367 . S
C1529 C1531 1.433 . S
C1530 C1526 1.350 . S
C1530 C1527 1.463 . S
C1530 N1534 1.427 . S
C1531 H1521 0.929 . S
C1531 C1529 1.433 . S
C1531 N1534 1.384 . S
C1532 H1523 0.929 . S
C1532 C1524 1.378 . S
C1532 C1527 1.350 . S
C1533 H1520 0.929 . S
C1533 C1525 1.433 . S
C1533 N1535 1.384 . S
N1534 C1530 1.427 . S
N1534 C1531 1.384 . S
N1535 C1527 1.427 . S
N1535 C1533 1.384 . S
H1536 C1542 0.930 . S
H1537 C1546 0.930 . S
H1538 C1551 0.929 . S
H1539 C1549 0.929 . S
H1540 C1544 0.929 . S
H1541 C1550 0.929 . S
C1542 H1536 0.930 . S
C1542 C1543 1.367 . S
C1542 C1550 1.378 . S
C1543 C1542 1.367 . S
C1543 C1551 1.433 . S
C1544 H1540 0.929 . S
C1544 C1546 1.378 . S
C1544 C1548 1.350 . S
C1545 C1548 1.463 . S
C1545 C1550 1.350 . S
C1545 N1553 1.427 . S
C1546 H1537 0.930 . S
C1546 C1544 1.378 . S
C1546 C1547 1.367 . S
C1547 C1546 1.367 . S
C1547 C1549 1.433 . S
C1548 C1544 1.350 . S
C1548 C1545 1.463 . S
C1548 N1552 1.427 . S
C1549 H1539 0.929 . S
C1549 C1547 1.433 . S
C1549 N1552 1.384 . S
C1550 H1541 0.929 . S
C1550 C1542 1.378 . S
C1550 C1545 1.350 . S
C1551 H1538 0.929 . S
C1551 C1543 1.433 . S
C1551 N1553 1.384 . S
N1552 C1548 1.427 . S
N1552 C1549 1.384 . S
N1553 C1545 1.427 . S
N1553 C1551 1.384 . S
H1554 C1560 0.930 . S
H1555 C1564 0.930 . S
H1556 C1569 0.929 . S
H1557 C1567 0.929 . S
H1558 C1562 0.929 . S
H1559 C1568 0.929 . S
C1560 H1554 0.930 . S
C1560 C1561 1.367 . S
C1560 C1568 1.378 . S
C1561 C1560 1.367 . S
C1561 C1569 1.433 . S
C1562 H1558 0.929 . S
C1562 C1564 1.378 . S
C1562 C1566 1.350 . S
C1563 C1566 1.463 . S
C1563 C1568 1.350 . S
C1563 N1571 1.427 . S
C1564 H1555 0.930 . S
C1564 C1562 1.378 . S
C1564 C1565 1.367 . S
C1565 C1564 1.367 . S
C1565 C1567 1.433 . S
C1566 C1562 1.350 . S
C1566 C1563 1.463 . S
C1566 N1570 1.427 . S
C1567 H1557 0.929 . S
C1567 C1565 1.433 . S
C1567 N1570 1.384 . S
C1568 H1559 0.929 . S
C1568 C1560 1.378 . S
C1568 C1563 1.350 . S
C1569 H1556 0.929 . S
C1569 C1561 1.433 . S
C1569 N1571 1.384 . S
N1570 C1566 1.427 . S
N1570 C1567 1.384 . S
N1571 C1563 1.427 . S
N1571 C1569 1.384 . S
H1572 C1578 0.930 . S
H1573 C1582 0.930 . S
H1574 C1587 0.929 . S
H1575 C1585 0.929 . S
H1576 C1580 0.929 . S
H1577 C1586 0.929 . S
C1578 H1572 0.930 . S
C1578 C1579 1.367 . S
C1578 C1586 1.378 . S
C1579 C1578 1.367 . S
C1579 C1587 1.433 . S
C1580 H1576 0.929 . S
C1580 C1582 1.378 . S
C1580 C1584 1.350 . S
C1581 C1584 1.463 . S
C1581 C1586 1.350 . S
C1581 N1589 1.427 . S
C1582 H1573 0.930 . S
C1582 C1580 1.378 . S
C1582 C1583 1.367 . S
C1583 C1582 1.367 . S
C1583 C1585 1.433 . S
C1584 C1580 1.350 . S
C1584 C1581 1.463 . S
C1584 N1588 1.427 . S
C1585 H1575 0.929 . S
C1585 C1583 1.433 . S
C1585 N1588 1.384 . S
C1586 H1577 0.929 . S
C1586 C1578 1.378 . S
C1586 C1581 1.350 . S
C1587 H1574 0.929 . S
C1587 C1579 1.433 . S
C1587 N1589 1.384 . S
N1588 C1584 1.427 . S
N1588 C1585 1.384 . S
N1589 C1581 1.427 . S
N1589 C1587 1.384 . S
H1590 C1596 0.930 . S
H1591 C1600 0.930 . S
H1592 C1605 0.929 . S
H1593 C1603 0.929 . S
H1594 C1598 0.929 . S
H1595 C1604 0.929 . S
C1596 H1590 0.930 . S
C1596 C1597 1.367 . S
C1596 C1604 1.378 . S
C1597 C1596 1.367 . S
C1597 C1605 1.433 . S
C1598 H1594 0.929 . S
C1598 C1600 1.378 . S
C1598 C1602 1.350 . S
C1599 C1602 1.463 . S
C1599 C1604 1.350 . S
C1599 N1607 1.427 . S
C1600 H1591 0.930 . S
C1600 C1598 1.378 . S
C1600 C1601 1.367 . S
C1601 C1600 1.367 . S
C1601 C1603 1.433 . S
C1602 C1598 1.350 . S
C1602 C1599 1.463 . S
C1602 N1606 1.427 . S
C1603 H1593 0.929 . S
C1603 C1601 1.433 . S
C1603 N1606 1.384 . S
C1604 H1595 0.929 . S
C1604 C1596 1.378 . S
C1604 C1599 1.350 . S
C1605 H1592 0.929 . S
C1605 C1597 1.433 . S
C1605 N1607 1.384 . S
N1606 C1602 1.427 . S
N1606 C1603 1.384 . S
N1607 C1599 1.427 . S
N1607 C1605 1.384 . S
H1608 C1614 0.930 . S
H1609 C1618 0.930 . S
H1610 C1623 0.929 . S
H1611 C1621 0.929 . S
H1612 C1616 0.929 . S
H1613 C1622 0.929 . S
C1614 H1608 0.930 . S
C1614 C1615 1.367 . S
C1614 C1622 1.378 . S
C1615 C1614 1.367 . S
C1615 C1623 1.433 . S
C1616 H1612 0.929 . S
C1616 C1618 1.378 . S
C1616 C1620 1.350 . S
C1617 C1620 1.463 . S
C1617 C1622 1.350 . S
C1617 N1625 1.427 . S
C1618 H1609 0.930 . S
C1618 C1616 1.378 . S
C1618 C1619 1.367 . S
C1619 C1618 1.367 . S
C1619 C1621 1.433 . S
C1620 C1616 1.350 . S
C1620 C1617 1.463 . S
C1620 N1624 1.427 . S
C1621 H1611 0.929 . S
C1621 C1619 1.433 . S
C1621 N1624 1.384 . S
C1622 H1613 0.929 . S
C1622 C1614 1.378 . S
C1622 C1617 1.350 . S
C1623 H1610 0.929 . S
C1623 C1615 1.433 . S
C1623 N1625 1.384 . S
N1624 C1620 1.427 . S
N1624 C1621 1.384 . S
N1625 C1617 1.427 . S
N1625 C1623 1.384 . S
H1626 C1632 0.930 . S
H1627 C1636 0.930 . S
H1628 C1641 0.929 . S
H1629 C1639 0.929 . S
H1630 C1634 0.929 . S
H1631 C1640 0.929 . S
C1632 H1626 0.930 . S
C1632 C1633 1.367 . S
C1632 C1640 1.378 . S
C1633 C1632 1.367 . S
C1633 C1641 1.433 . S
C1634 H1630 0.929 . S
C1634 C1636 1.378 . S
C1634 C1638 1.350 . S
C1635 C1638 1.463 . S
C1635 C1640 1.350 . S
C1635 N1643 1.427 . S
C1636 H1627 0.930 . S
C1636 C1634 1.378 . S
C1636 C1637 1.367 . S
C1637 C1636 1.367 . S
C1637 C1639 1.433 . S
C1638 C1634 1.350 . S
C1638 C1635 1.463 . S
C1638 N1642 1.427 . S
C1639 H1629 0.929 . S
C1639 C1637 1.433 . S
C1639 N1642 1.384 . S
C1640 H1631 0.929 . S
C1640 C1632 1.378 . S
C1640 C1635 1.350 . S
C1641 H1628 0.929 . S
C1641 C1633 1.433 . S
C1641 N1643 1.384 . S
N1642 C1638 1.427 . S
N1642 C1639 1.384 . S
N1643 C1635 1.427 . S
N1643 C1641 1.384 . S
H1644 C1650 0.930 . S
H1645 C1654 0.930 . S
H1646 C1659 0.929 . S
H1647 C1657 0.929 . S
H1648 C1652 0.929 . S
H1649 C1658 0.929 . S
C1650 H1644 0.930 . S
C1650 C1651 1.367 . S
C1650 C1658 1.378 . S
C1651 C1650 1.367 . S
C1651 C1659 1.433 . S
C1652 H1648 0.929 . S
C1652 C1654 1.378 . S
C1652 C1656 1.350 . S
C1653 C1656 1.463 . S
C1653 C1658 1.350 . S
C1653 N1661 1.427 . S
C1654 H1645 0.930 . S
C1654 C1652 1.378 . S
C1654 C1655 1.367 . S
C1655 C1654 1.367 . S
C1655 C1657 1.433 . S
C1656 C1652 1.350 . S
C1656 C1653 1.463 . S
C1656 N1660 1.427 . S
C1657 H1647 0.929 . S
C1657 C1655 1.433 . S
C1657 N1660 1.384 . S
C1658 H1649 0.929 . S
C1658 C1650 1.378 . S
C1658 C1653 1.350 . S
C1659 H1646 0.929 . S
C1659 C1651 1.433 . S
C1659 N1661 1.384 . S
N1660 C1656 1.427 . S
N1660 C1657 1.384 . S
N1661 C1653 1.427 . S
N1661 C1659 1.384 . S
H1662 C1668 0.930 . S
H1663 C1672 0.930 . S
H1664 C1677 0.929 . S
H1665 C1675 0.929 . S
H1666 C1670 0.929 . S
H1667 C1676 0.929 . S
C1668 H1662 0.930 . S
C1668 C1669 1.367 . S
C1668 C1676 1.378 . S
C1669 C1668 1.367 . S
C1669 C1677 1.433 . S
C1670 H1666 0.929 . S
C1670 C1672 1.378 . S
C1670 C1674 1.350 . S
C1671 C1674 1.463 . S
C1671 C1676 1.350 . S
C1671 N1679 1.427 . S
C1672 H1663 0.930 . S
C1672 C1670 1.378 . S
C1672 C1673 1.367 . S
C1673 C1672 1.367 . S
C1673 C1675 1.433 . S
C1674 C1670 1.350 . S
C1674 C1671 1.463 . S
C1674 N1678 1.427 . S
C1675 H1665 0.929 . S
C1675 C1673 1.433 . S
C1675 N1678 1.384 . S
C1676 H1667 0.929 . S
C1676 C1668 1.378 . S
C1676 C1671 1.350 . S
C1677 H1664 0.929 . S
C1677 C1669 1.433 . S
C1677 N1679 1.384 . S
N1678 C1674 1.427 . S
N1678 C1675 1.384 . S
N1679 C1671 1.427 . S
N1679 C1677 1.384 . S
H1680 C1686 0.930 . S
H1681 C1690 0.930 . S
H1682 C1695 0.929 . S
H1683 C1693 0.929 . S
H1684 C1688 0.929 . S
H1685 C1694 0.929 . S
C1686 H1680 0.930 . S
C1686 C1687 1.367 . S
C1686 C1694 1.378 . S
C1687 C1686 1.367 . S
C1687 C1695 1.433 . S
C1688 H1684 0.929 . S
C1688 C1690 1.378 . S
C1688 C1692 1.350 . S
C1689 C1692 1.463 . S
C1689 C1694 1.350 . S
C1689 N1697 1.427 . S
C1690 H1681 0.930 . S
C1690 C1688 1.378 . S
C1690 C1691 1.367 . S
C1691 C1690 1.367 . S
C1691 C1693 1.433 . S
C1692 C1688 1.350 . S
C1692 C1689 1.463 . S
C1692 N1696 1.427 . S
C1693 H1683 0.929 . S
C1693 C1691 1.433 . S
C1693 N1696 1.384 . S
C1694 H1685 0.929 . S
C1694 C1686 1.378 . S
C1694 C1689 1.350 . S
C1695 H1682 0.929 . S
C1695 C1687 1.433 . S
C1695 N1697 1.384 . S
N1696 C1692 1.427 . S
N1696 C1693 1.384 . S
N1697 C1689 1.427 . S
N1697 C1695 1.384 . S
H1698 C1704 0.930 . S
H1699 C1708 0.930 . S
H1700 C1713 0.929 . S
H1701 C1711 0.929 . S
H1702 C1706 0.929 . S
H1703 C1712 0.929 . S
C1704 H1698 0.930 . S
C1704 C1705 1.367 . S
C1704 C1712 1.378 . S
C1705 C1704 1.367 . S
C1705 C1713 1.433 . S
C1706 H1702 0.929 . S
C1706 C1708 1.378 . S
C1706 C1710 1.350 . S
C1707 C1710 1.463 . S
C1707 C1712 1.350 . S
C1707 N1715 1.427 . S
C1708 H1699 0.930 . S
C1708 C1706 1.378 . S
C1708 C1709 1.367 . S
C1709 C1708 1.367 . S
C1709 C1711 1.433 . S
C1710 C1706 1.350 . S
C1710 C1707 1.463 . S
C1710 N1714 1.427 . S
C1711 H1701 0.929 . S
C1711 C1709 1.433 . S
C1711 N1714 1.384 . S
C1712 H1703 0.929 . S
C1712 C1704 1.378 . S
C1712 C1707 1.350 . S
C1713 H1700 0.929 . S
C1713 C1705 1.433 . S
C1713 N1715 1.384 . S
N1714 C1710 1.427 . S
N1714 C1711 1.384 . S
N1715 C1707 1.427 . S
N1715 C1713 1.384 . S
H1716 C1722 0.930 . S
H1717 C1726 0.930 . S
H1718 C1731 0.929 . S
H1719 C1729 0.929 . S
H1720 C1724 0.929 . S
H1721 C1730 0.929 . S
C1722 H1716 0.930 . S
C1722 C1723 1.367 . S
C1722 C1730 1.378 . S
C1723 C1722 1.367 . S
C1723 C1731 1.433 . S
C1724 H1720 0.929 . S
C1724 C1726 1.378 . S
C1724 C1728 1.350 . S
C1725 C1728 1.463 . S
C1725 C1730 1.350 . S
C1725 N1733 1.427 . S
C1726 H1717 0.930 . S
C1726 C1724 1.378 . S
C1726 C1727 1.367 . S
C1727 C1726 1.367 . S
C1727 C1729 1.433 . S
C1728 C1724 1.350 . S
C1728 C1725 1.463 . S
C1728 N1732 1.427 . S
C1729 H1719 0.929 . S
C1729 C1727 1.433 . S
C1729 N1732 1.384 . S
C1730 H1721 0.929 . S
C1730 C1722 1.378 . S
C1730 C1725 1.350 . S
C1731 H1718 0.929 . S
C1731 C1723 1.433 . S
C1731 N1733 1.384 . S
N1732 C1728 1.427 . S
N1732 C1729 1.384 . S
N1733 C1725 1.427 . S
N1733 C1731 1.384 . S
H1734 C1740 0.930 . S
H1735 C1744 0.930 . S
H1736 C1749 0.929 . S
H1737 C1747 0.929 . S
H1738 C1742 0.929 . S
H1739 C1748 0.929 . S
C1740 H1734 0.930 . S
C1740 C1741 1.367 . S
C1740 C1748 1.378 . S
C1741 C1740 1.367 . S
C1741 C1749 1.433 . S
C1742 H1738 0.929 . S
C1742 C1744 1.378 . S
C1742 C1746 1.350 . S
C1743 C1746 1.463 . S
C1743 C1748 1.350 . S
C1743 N1751 1.427 . S
C1744 H1735 0.930 . S
C1744 C1742 1.378 . S
C1744 C1745 1.367 . S
C1745 C1744 1.367 . S
C1745 C1747 1.433 . S
C1746 C1742 1.350 . S
C1746 C1743 1.463 . S
C1746 N1750 1.427 . S
C1747 H1737 0.929 . S
C1747 C1745 1.433 . S
C1747 N1750 1.384 . S
C1748 H1739 0.929 . S
C1748 C1740 1.378 . S
C1748 C1743 1.350 . S
C1749 H1736 0.929 . S
C1749 C1741 1.433 . S
C1749 N1751 1.384 . S
N1750 C1746 1.427 . S
N1750 C1747 1.384 . S
N1751 C1743 1.427 . S
N1751 C1749 1.384 . S
H1752 C1758 0.930 . S
H1753 C1762 0.930 . S
H1754 C1767 0.929 . S
H1755 C1765 0.929 . S
H1756 C1760 0.929 . S
H1757 C1766 0.929 . S
C1758 H1752 0.930 . S
C1758 C1759 1.367 . S
C1758 C1766 1.378 . S
C1759 C1758 1.367 . S
C1759 C1767 1.433 . S
C1760 H1756 0.929 . S
C1760 C1762 1.378 . S
C1760 C1764 1.350 . S
C1761 C1764 1.463 . S
C1761 C1766 1.350 . S
C1761 N1769 1.427 . S
C1762 H1753 0.930 . S
C1762 C1760 1.378 . S
C1762 C1763 1.367 . S
C1763 C1762 1.367 . S
C1763 C1765 1.433 . S
C1764 C1760 1.350 . S
C1764 C1761 1.463 . S
C1764 N1768 1.427 . S
C1765 H1755 0.929 . S
C1765 C1763 1.433 . S
C1765 N1768 1.384 . S
C1766 H1757 0.929 . S
C1766 C1758 1.378 . S
C1766 C1761 1.350 . S
C1767 H1754 0.929 . S
C1767 C1759 1.433 . S
C1767 N1769 1.384 . S
N1768 C1764 1.427 . S
N1768 C1765 1.384 . S
N1769 C1761 1.427 . S
N1769 C1767 1.384 . S
H1770 C1776 0.930 . S
H1771 C1780 0.930 . S
H1772 C1785 0.929 . S
H1773 C1783 0.929 . S
H1774 C1778 0.929 . S
H1775 C1784 0.929 . S
C1776 H1770 0.930 . S
C1776 C1777 1.367 . S
C1776 C1784 1.378 . S
C1777 C1776 1.367 . S
C1777 C1785 1.433 . S
C1778 H1774 0.929 . S
C1778 C1780 1.378 . S
C1778 C1782 1.350 . S
C1779 C1782 1.463 . S
C1779 C1784 1.350 . S
C1779 N1787 1.427 . S
C1780 H1771 0.930 . S
C1780 C1778 1.378 . S
C1780 C1781 1.367 . S
C1781 C1780 1.367 . S
C1781 C1783 1.433 . S
C1782 C1778 1.350 . S
C1782 C1779 1.463 . S
C1782 N1786 1.427 . S
C1783 H1773 0.929 . S
C1783 C1781 1.433 . S
C1783 N1786 1.384 . S
C1784 H1775 0.929 . S
C1784 C1776 1.378 . S
C1784 C1779 1.350 . S
C1785 H1772 0.929 . S
C1785 C1777 1.433 . S
C1785 N1787 1.384 . S
N1786 C1782 1.427 . S
N1786 C1783 1.384 . S
N1787 C1779 1.427 . S
N1787 C1785 1.384 . S
H1788 C1794 0.930 . S
H1789 C1798 0.930 . S
H1790 C1803 0.929 . S
H1791 C1801 0.929 . S
H1792 C1796 0.929 . S
H1793 C1802 0.929 . S
C1794 H1788 0.930 . S
C1794 C1795 1.367 . S
C1794 C1802 1.378 . S
C1795 C1794 1.367 . S
C1795 C1803 1.433 . S
C1796 H1792 0.929 . S
C1796 C1798 1.378 . S
C1796 C1800 1.350 . S
C1797 C1800 1.463 . S
C1797 C1802 1.350 . S
C1797 N1805 1.427 . S
C1798 H1789 0.930 . S
C1798 C1796 1.378 . S
C1798 C1799 1.367 . S
C1799 C1798 1.367 . S
C1799 C1801 1.433 . S
C1800 C1796 1.350 . S
C1800 C1797 1.463 . S
C1800 N1804 1.427 . S
C1801 H1791 0.929 . S
C1801 C1799 1.433 . S
C1801 N1804 1.384 . S
C1802 H1793 0.929 . S
C1802 C1794 1.378 . S
C1802 C1797 1.350 . S
C1803 H1790 0.929 . S
C1803 C1795 1.433 . S
C1803 N1805 1.384 . S
N1804 C1800 1.427 . S
N1804 C1801 1.384 . S
N1805 C1797 1.427 . S
N1805 C1803 1.384 . S
H1806 C1812 0.930 . S
H1807 C1816 0.930 . S
H1808 C1821 0.929 . S
H1809 C1819 0.929 . S
H1810 C1814 0.929 . S
H1811 C1820 0.929 . S
C1812 H1806 0.930 . S
C1812 C1813 1.367 . S
C1812 C1820 1.378 . S
C1813 C1812 1.367 . S
C1813 C1821 1.433 . S
C1814 H1810 0.929 . S
C1814 C1816 1.378 . S
C1814 C1818 1.350 . S
C1815 C1818 1.463 . S
C1815 C1820 1.350 . S
C1815 N1823 1.427 . S
C1816 H1807 0.930 . S
C1816 C1814 1.378 . S
C1816 C1817 1.367 . S
C1817 C1816 1.367 . S
C1817 C1819 1.433 . S
C1818 C1814 1.350 . S
C1818 C1815 1.463 . S
C1818 N1822 1.427 . S
C1819 H1809 0.929 . S
C1819 C1817 1.433 . S
C1819 N1822 1.384 . S
C1820 H1811 0.929 . S
C1820 C1812 1.378 . S
C1820 C1815 1.350 . S
C1821 H1808 0.929 . S
C1821 C1813 1.433 . S
C1821 N1823 1.384 . S
N1822 C1818 1.427 . S
N1822 C1819 1.384 . S
N1823 C1815 1.427 . S
N1823 C1821 1.384 . S
H1824 C1830 0.930 . S
H1825 C1834 0.930 . S
H1826 C1839 0.929 . S
H1827 C1837 0.929 . S
H1828 C1832 0.929 . S
H1829 C1838 0.929 . S
C1830 H1824 0.930 . S
C1830 C1831 1.367 . S
C1830 C1838 1.378 . S
C1831 C1830 1.367 . S
C1831 C1839 1.433 . S
C1832 H1828 0.929 . S
C1832 C1834 1.378 . S
C1832 C1836 1.350 . S
C1833 C1836 1.463 . S
C1833 C1838 1.350 . S
C1833 N1841 1.427 . S
C1834 H1825 0.930 . S
C1834 C1832 1.378 . S
C1834 C1835 1.367 . S
C1835 C1834 1.367 . S
C1835 C1837 1.433 . S
C1836 C1832 1.350 . S
C1836 C1833 1.463 . S
C1836 N1840 1.427 . S
C1837 H1827 0.929 . S
C1837 C1835 1.433 . S
C1837 N1840 1.384 . S
C1838 H1829 0.929 . S
C1838 C1830 1.378 . S
C1838 C1833 1.350 . S
C1839 H1826 0.929 . S
C1839 C1831 1.433 . S
C1839 N1841 1.384 . S
N1840 C1836 1.427 . S
N1840 C1837 1.384 . S
N1841 C1833 1.427 . S
N1841 C1839 1.384 . S
H1842 C1848 0.930 . S
H1843 C1852 0.930 . S
H1844 C1857 0.929 . S
H1845 C1855 0.929 . S
H1846 C1850 0.929 . S
H1847 C1856 0.929 . S
C1848 H1842 0.930 . S
C1848 C1849 1.367 . S
C1848 C1856 1.378 . S
C1849 C1848 1.367 . S
C1849 C1857 1.433 . S
C1850 H1846 0.929 . S
C1850 C1852 1.378 . S
C1850 C1854 1.350 . S
C1851 C1854 1.463 . S
C1851 C1856 1.350 . S
C1851 N1859 1.427 . S
C1852 H1843 0.930 . S
C1852 C1850 1.378 . S
C1852 C1853 1.367 . S
C1853 C1852 1.367 . S
C1853 C1855 1.433 . S
C1854 C1850 1.350 . S
C1854 C1851 1.463 . S
C1854 N1858 1.427 . S
C1855 H1845 0.929 . S
C1855 C1853 1.433 . S
C1855 N1858 1.384 . S
C1856 H1847 0.929 . S
C1856 C1848 1.378 . S
C1856 C1851 1.350 . S
C1857 H1844 0.929 . S
C1857 C1849 1.433 . S
C1857 N1859 1.384 . S
N1858 C1854 1.427 . S
N1858 C1855 1.384 . S
N1859 C1851 1.427 . S
N1859 C1857 1.384 . S
H1860 C1866 0.930 . S
H1861 C1870 0.930 . S
H1862 C1875 0.929 . S
H1863 C1873 0.929 . S
H1864 C1868 0.929 . S
H1865 C1874 0.929 . S
C1866 H1860 0.930 . S
C1866 C1867 1.367 . S
C1866 C1874 1.378 . S
C1867 C1866 1.367 . S
C1867 C1875 1.433 . S
C1868 H1864 0.929 . S
C1868 C1870 1.378 . S
C1868 C1872 1.350 . S
C1869 C1872 1.463 . S
C1869 C1874 1.350 . S
C1869 N1877 1.427 . S
C1870 H1861 0.930 . S
C1870 C1868 1.378 . S
C1870 C1871 1.367 . S
C1871 C1870 1.367 . S
C1871 C1873 1.433 . S
C1872 C1868 1.350 . S
C1872 C1869 1.463 . S
C1872 N1876 1.427 . S
C1873 H1863 0.929 . S
C1873 C1871 1.433 . S
C1873 N1876 1.384 . S
C1874 H1865 0.929 . S
C1874 C1866 1.378 . S
C1874 C1869 1.350 . S
C1875 H1862 0.929 . S
C1875 C1867 1.433 . S
C1875 N1877 1.384 . S
N1876 C1872 1.427 . S
N1876 C1873 1.384 . S
N1877 C1869 1.427 . S
N1877 C1875 1.384 . S
H1878 C1884 0.930 . S
H1879 C1888 0.930 . S
H1880 C1893 0.929 . S
H1881 C1891 0.929 . S
H1882 C1886 0.929 . S
H1883 C1892 0.929 . S
C1884 H1878 0.930 . S
C1884 C1885 1.367 . S
C1884 C1892 1.378 . S
C1885 C1884 1.367 . S
C1885 C1893 1.433 . S
C1886 H1882 0.929 . S
C1886 C1888 1.378 . S
C1886 C1890 1.350 . S
C1887 C1890 1.463 . S
C1887 C1892 1.350 . S
C1887 N1895 1.427 . S
C1888 H1879 0.930 . S
C1888 C1886 1.378 . S
C1888 C1889 1.367 . S
C1889 C1888 1.367 . S
C1889 C1891 1.433 . S
C1890 C1886 1.350 . S
C1890 C1887 1.463 . S
C1890 N1894 1.427 . S
C1891 H1881 0.929 . S
C1891 C1889 1.433 . S
C1891 N1894 1.384 . S
C1892 H1883 0.929 . S
C1892 C1884 1.378 . S
C1892 C1887 1.350 . S
C1893 H1880 0.929 . S
C1893 C1885 1.433 . S
C1893 N1895 1.384 . S
N1894 C1890 1.427 . S
N1894 C1891 1.384 . S
N1895 C1887 1.427 . S
N1895 C1893 1.384 . S
H1896 C1902 0.930 . S
H1897 C1906 0.930 . S
H1898 C1911 0.929 . S
H1899 C1909 0.929 . S
H1900 C1904 0.929 . S
H1901 C1910 0.929 . S
C1902 H1896 0.930 . S
C1902 C1903 1.367 . S
C1902 C1910 1.378 . S
C1903 C1902 1.367 . S
C1903 C1911 1.433 . S
C1904 H1900 0.929 . S
C1904 C1906 1.378 . S
C1904 C1908 1.350 . S
C1905 C1908 1.463 . S
C1905 C1910 1.350 . S
C1905 N1913 1.427 . S
C1906 H1897 0.930 . S
C1906 C1904 1.378 . S
C1906 C1907 1.367 . S
C1907 C1906 1.367 . S
C1907 C1909 1.433 . S
C1908 C1904 1.350 . S
C1908 C1905 1.463 . S
C1908 N1912 1.427 . S
C1909 H1899 0.929 . S
C1909 C1907 1.433 . S
C1909 N1912 1.384 . S
C1910 H1901 0.929 . S
C1910 C1902 1.378 . S
C1910 C1905 1.350 . S
C1911 H1898 0.929 . S
C1911 C1903 1.433 . S
C1911 N1913 1.384 . S
N1912 C1908 1.427 . S
N1912 C1909 1.384 . S
N1913 C1905 1.427 . S
N1913 C1911 1.384 . S
H1914 C1920 0.930 . S
H1915 C1924 0.930 . S
H1916 C1929 0.929 . S
H1917 C1927 0.929 . S
H1918 C1922 0.929 . S
H1919 C1928 0.929 . S
C1920 H1914 0.930 . S
C1920 C1921 1.367 . S
C1920 C1928 1.378 . S
C1921 C1920 1.367 . S
C1921 C1929 1.433 . S
C1922 H1918 0.929 . S
C1922 C1924 1.378 . S
C1922 C1926 1.350 . S
C1923 C1926 1.463 . S
C1923 C1928 1.350 . S
C1923 N1931 1.427 . S
C1924 H1915 0.930 . S
C1924 C1922 1.378 . S
C1924 C1925 1.367 . S
C1925 C1924 1.367 . S
C1925 C1927 1.433 . S
C1926 C1922 1.350 . S
C1926 C1923 1.463 . S
C1926 N1930 1.427 . S
C1927 H1917 0.929 . S
C1927 C1925 1.433 . S
C1927 N1930 1.384 . S
C1928 H1919 0.929 . S
C1928 C1920 1.378 . S
C1928 C1923 1.350 . S
C1929 H1916 0.929 . S
C1929 C1921 1.433 . S
C1929 N1931 1.384 . S
N1930 C1926 1.427 . S
N1930 C1927 1.384 . S
N1931 C1923 1.427 . S
N1931 C1929 1.384 . S
H1932 C1938 0.930 . S
H1933 C1942 0.930 . S
H1934 C1947 0.929 . S
H1935 C1945 0.929 . S
H1936 C1940 0.929 . S
H1937 C1946 0.929 . S
C1938 H1932 0.930 . S
C1938 C1939 1.367 . S
C1938 C1946 1.378 . S
C1939 C1938 1.367 . S
C1939 C1947 1.433 . S
C1940 H1936 0.929 . S
C1940 C1942 1.378 . S
C1940 C1944 1.350 . S
C1941 C1944 1.463 . S
C1941 C1946 1.350 . S
C1941 N1949 1.427 . S
C1942 H1933 0.930 . S
C1942 C1940 1.378 . S
C1942 C1943 1.367 . S
C1943 C1942 1.367 . S
C1943 C1945 1.433 . S
C1944 C1940 1.350 . S
C1944 C1941 1.463 . S
C1944 N1948 1.427 . S
C1945 H1935 0.929 . S
C1945 C1943 1.433 . S
C1945 N1948 1.384 . S
C1946 H1937 0.929 . S
C1946 C1938 1.378 . S
C1946 C1941 1.350 . S
C1947 H1934 0.929 . S
C1947 C1939 1.433 . S
C1947 N1949 1.384 . S
N1948 C1944 1.427 . S
N1948 C1945 1.384 . S
N1949 C1941 1.427 . S
N1949 C1947 1.384 . S
H1950 C1956 0.930 . S
H1951 C1960 0.930 . S
H1952 C1965 0.929 . S
H1953 C1963 0.929 . S
H1954 C1958 0.929 . S
H1955 C1964 0.929 . S
C1956 H1950 0.930 . S
C1956 C1957 1.367 . S
C1956 C1964 1.378 . S
C1957 C1956 1.367 . S
C1957 C1965 1.433 . S
C1958 H1954 0.929 . S
C1958 C1960 1.378 . S
C1958 C1962 1.350 . S
C1959 C1962 1.463 . S
C1959 C1964 1.350 . S
C1959 N1967 1.427 . S
C1960 H1951 0.930 . S
C1960 C1958 1.378 . S
C1960 C1961 1.367 . S
C1961 C1960 1.367 . S
C1961 C1963 1.433 . S
C1962 C1958 1.350 . S
C1962 C1959 1.463 . S
C1962 N1966 1.427 . S
C1963 H1953 0.929 . S
C1963 C1961 1.433 . S
C1963 N1966 1.384 . S
C1964 H1955 0.929 . S
C1964 C1956 1.378 . S
C1964 C1959 1.350 . S
C1965 H1952 0.929 . S
C1965 C1957 1.433 . S
C1965 N1967 1.384 . S
N1966 C1962 1.427 . S
N1966 C1963 1.384 . S
N1967 C1959 1.427 . S
N1967 C1965 1.384 . S
H1968 C1974 0.930 . S
H1969 C1978 0.930 . S
H1970 C1983 0.929 . S
H1971 C1981 0.929 . S
H1972 C1976 0.929 . S
H1973 C1982 0.929 . S
C1974 H1968 0.930 . S
C1974 C1975 1.367 . S
C1974 C1982 1.378 . S
C1975 C1974 1.367 . S
C1975 C1983 1.433 . S
C1976 H1972 0.929 . S
C1976 C1978 1.378 . S
C1976 C1980 1.350 . S
C1977 C1980 1.463 . S
C1977 C1982 1.350 . S
C1977 N1985 1.427 . S
C1978 H1969 0.930 . S
C1978 C1976 1.378 . S
C1978 C1979 1.367 . S
C1979 C1978 1.367 . S
C1979 C1981 1.433 . S
C1980 C1976 1.350 . S
C1980 C1977 1.463 . S
C1980 N1984 1.427 . S
C1981 H1971 0.929 . S
C1981 C1979 1.433 . S
C1981 N1984 1.384 . S
C1982 H1973 0.929 . S
C1982 C1974 1.378 . S
C1982 C1977 1.350 . S
C1983 H1970 0.929 . S
C1983 C1975 1.433 . S
C1983 N1985 1.384 . S
N1984 C1980 1.427 . S
N1984 C1981 1.384 . S
N1985 C1977 1.427 . S
N1985 C1983 1.384 . S
H1986 C1992 0.930 . S
H1987 C1996 0.930 . S
H1988 C2001 0.929 . S
H1989 C1999 0.929 . S
H1990 C1994 0.929 . S
H1991 C2000 0.929 . S
C1992 H1986 0.930 . S
C1992 C1993 1.367 . S
C1992 C2000 1.378 . S
C1993 C1992 1.367 . S
C1993 C2001 1.433 . S
C1994 H1990 0.929 . S
C1994 C1996 1.378 . S
C1994 C1998 1.350 . S
C1995 C1998 1.463 . S
C1995 C2000 1.350 . S
C1995 N2003 1.427 . S
C1996 H1987 0.930 . S
C1996 C1994 1.378 . S
C1996 C1997 1.367 . S
C1997 C1996 1.367 . S
C1997 C1999 1.433 . S
C1998 C1994 1.350 . S
C1998 C1995 1.463 . S
C1998 N2002 1.427 . S
C1999 H1989 0.929 . S
C1999 C1997 1.433 . S
C1999 N2002 1.384 . S
C2000 H1991 0.929 . S
C2000 C1992 1.378 . S
C2000 C1995 1.350 . S
C2001 H1988 0.929 . S
C2001 C1993 1.433 . S
C2001 N2003 1.384 . S
N2002 C1998 1.427 . S
N2002 C1999 1.384 . S
N2003 C1995 1.427 . S
N2003 C2001 1.384 . S
H2004 C2010 0.930 . S
H2005 C2014 0.930 . S
H2006 C2019 0.929 . S
H2007 C2017 0.929 . S
H2008 C2012 0.929 . S
H2009 C2018 0.929 . S
C2010 H2004 0.930 . S
C2010 C2011 1.367 . S
C2010 C2018 1.378 . S
C2011 C2010 1.367 . S
C2011 C2019 1.433 . S
C2012 H2008 0.929 . S
C2012 C2014 1.378 . S
C2012 C2016 1.350 . S
C2013 C2016 1.463 . S
C2013 C2018 1.350 . S
C2013 N2021 1.427 . S
C2014 H2005 0.930 . S
C2014 C2012 1.378 . S
C2014 C2015 1.367 . S
C2015 C2014 1.367 . S
C2015 C2017 1.433 . S
C2016 C2012 1.350 . S
C2016 C2013 1.463 . S
C2016 N2020 1.427 . S
C2017 H2007 0.929 . S
C2017 C2015 1.433 . S
C2017 N2020 1.384 . S
C2018 H2009 0.929 . S
C2018 C2010 1.378 . S
C2018 C2013 1.350 . S
C2019 H2006 0.929 . S
C2019 C2011 1.433 . S
C2019 N2021 1.384 . S
N2020 C2016 1.427 . S
N2020 C2017 1.384 . S
N2021 C2013 1.427 . S
N2021 C2019 1.384 . S
H2022 C2028 0.930 . S
H2023 C2032 0.930 . S
H2024 C2037 0.929 . S
H2025 C2035 0.929 . S
H2026 C2030 0.929 . S
H2027 C2036 0.929 . S
C2028 H2022 0.930 . S
C2028 C2029 1.367 . S
C2028 C2036 1.378 . S
C2029 C2028 1.367 . S
C2029 C2037 1.433 . S
C2030 H2026 0.929 . S
C2030 C2032 1.378 . S
C2030 C2034 1.350 . S
C2031 C2034 1.463 . S
C2031 C2036 1.350 . S
C2031 N2039 1.427 . S
C2032 H2023 0.930 . S
C2032 C2030 1.378 . S
C2032 C2033 1.367 . S
C2033 C2032 1.367 . S
C2033 C2035 1.433 . S
C2034 C2030 1.350 . S
C2034 C2031 1.463 . S
C2034 N2038 1.427 . S
C2035 H2025 0.929 . S
C2035 C2033 1.433 . S
C2035 N2038 1.384 . S
C2036 H2027 0.929 . S
C2036 C2028 1.378 . S
C2036 C2031 1.350 . S
C2037 H2024 0.929 . S
C2037 C2029 1.433 . S
C2037 N2039 1.384 . S
N2038 C2034 1.427 . S
N2038 C2035 1.384 . S
N2039 C2031 1.427 . S
N2039 C2037 1.384 . S
H2040 C2046 0.930 . S
H2041 C2050 0.930 . S
H2042 C2055 0.929 . S
H2043 C2053 0.929 . S
H2044 C2048 0.929 . S
H2045 C2054 0.929 . S
C2046 H2040 0.930 . S
C2046 C2047 1.367 . S
C2046 C2054 1.378 . S
C2047 C2046 1.367 . S
C2047 C2055 1.433 . S
C2048 H2044 0.929 . S
C2048 C2050 1.378 . S
C2048 C2052 1.350 . S
C2049 C2052 1.463 . S
C2049 C2054 1.350 . S
C2049 N2057 1.427 . S
C2050 H2041 0.930 . S
C2050 C2048 1.378 . S
C2050 C2051 1.367 . S
C2051 C2050 1.367 . S
C2051 C2053 1.433 . S
C2052 C2048 1.350 . S
C2052 C2049 1.463 . S
C2052 N2056 1.427 . S
C2053 H2043 0.929 . S
C2053 C2051 1.433 . S
C2053 N2056 1.384 . S
C2054 H2045 0.929 . S
C2054 C2046 1.378 . S
C2054 C2049 1.350 . S
C2055 H2042 0.929 . S
C2055 C2047 1.433 . S
C2055 N2057 1.384 . S
N2056 C2052 1.427 . S
N2056 C2053 1.384 . S
N2057 C2049 1.427 . S
N2057 C2055 1.384 . S
H2058 C2064 0.930 . S
H2059 C2068 0.930 . S
H2060 C2073 0.929 . S
H2061 C2071 0.929 . S
H2062 C2066 0.929 . S
H2063 C2072 0.929 . S
C2064 H2058 0.930 . S
C2064 C2065 1.367 . S
C2064 C2072 1.378 . S
C2065 C2064 1.367 . S
C2065 C2073 1.433 . S
C2066 H2062 0.929 . S
C2066 C2068 1.378 . S
C2066 C2070 1.350 . S
C2067 C2070 1.463 . S
C2067 C2072 1.350 . S
C2067 N2075 1.427 . S
C2068 H2059 0.930 . S
C2068 C2066 1.378 . S
C2068 C2069 1.367 . S
C2069 C2068 1.367 . S
C2069 C2071 1.433 . S
C2070 C2066 1.350 . S
C2070 C2067 1.463 . S
C2070 N2074 1.427 . S
C2071 H2061 0.929 . S
C2071 C2069 1.433 . S
C2071 N2074 1.384 . S
C2072 H2063 0.929 . S
C2072 C2064 1.378 . S
C2072 C2067 1.350 . S
C2073 H2060 0.929 . S
C2073 C2065 1.433 . S
C2073 N2075 1.384 . S
N2074 C2070 1.427 . S
N2074 C2071 1.384 . S
N2075 C2067 1.427 . S
N2075 C2073 1.384 . S
H2076 C2082 0.930 . S
H2077 C2086 0.930 . S
H2078 C2091 0.929 . S
H2079 C2089 0.929 . S
H2080 C2084 0.929 . S
H2081 C2090 0.929 . S
C2082 H2076 0.930 . S
C2082 C2083 1.367 . S
C2082 C2090 1.378 . S
C2083 C2082 1.367 . S
C2083 C2091 1.433 . S
C2084 H2080 0.929 . S
C2084 C2086 1.378 . S
C2084 C2088 1.350 . S
C2085 C2088 1.463 . S
C2085 C2090 1.350 . S
C2085 N2093 1.427 . S
C2086 H2077 0.930 . S
C2086 C2084 1.378 . S
C2086 C2087 1.367 . S
C2087 C2086 1.367 . S
C2087 C2089 1.433 . S
C2088 C2084 1.350 . S
C2088 C2085 1.463 . S
C2088 N2092 1.427 . S
C2089 H2079 0.929 . S
C2089 C2087 1.433 . S
C2089 N2092 1.384 . S
C2090 H2081 0.929 . S
C2090 C2082 1.378 . S
C2090 C2085 1.350 . S
C2091 H2078 0.929 . S
C2091 C2083 1.433 . S
C2091 N2093 1.384 . S
N2092 C2088 1.427 . S
N2092 C2089 1.384 . S
N2093 C2085 1.427 . S
N2093 C2091 1.384 . S
H2094 C2100 0.930 . S
H2095 C2104 0.930 . S
H2096 C2109 0.929 . S
H2097 C2107 0.929 . S
H2098 C2102 0.929 . S
H2099 C2108 0.929 . S
C2100 H2094 0.930 . S
C2100 C2101 1.367 . S
C2100 C2108 1.378 . S
C2101 C2100 1.367 . S
C2101 C2109 1.433 . S
C2102 H2098 0.929 . S
C2102 C2104 1.378 . S
C2102 C2106 1.350 . S
C2103 C2106 1.463 . S
C2103 C2108 1.350 . S
C2103 N2111 1.427 . S
C2104 H2095 0.930 . S
C2104 C2102 1.378 . S
C2104 C2105 1.367 . S
C2105 C2104 1.367 . S
C2105 C2107 1.433 . S
C2106 C2102 1.350 . S
C2106 C2103 1.463 . S
C2106 N2110 1.427 . S
C2107 H2097 0.929 . S
C2107 C2105 1.433 . S
C2107 N2110 1.384 . S
C2108 H2099 0.929 . S
C2108 C2100 1.378 . S
C2108 C2103 1.350 . S
C2109 H2096 0.929 . S
C2109 C2101 1.433 . S
C2109 N2111 1.384 . S
N2110 C2106 1.427 . S
N2110 C2107 1.384 . S
N2111 C2103 1.427 . S
N2111 C2109 1.384 . S
H2112 C2118 0.930 . S
H2113 C2122 0.930 . S
H2114 C2127 0.929 . S
H2115 C2125 0.929 . S
H2116 C2120 0.929 . S
H2117 C2126 0.929 . S
C2118 H2112 0.930 . S
C2118 C2119 1.367 . S
C2118 C2126 1.378 . S
C2119 C2118 1.367 . S
C2119 C2127 1.433 . S
C2120 H2116 0.929 . S
C2120 C2122 1.378 . S
C2120 C2124 1.350 . S
C2121 C2124 1.463 . S
C2121 C2126 1.350 . S
C2121 N2129 1.427 . S
C2122 H2113 0.930 . S
C2122 C2120 1.378 . S
C2122 C2123 1.367 . S
C2123 C2122 1.367 . S
C2123 C2125 1.433 . S
C2124 C2120 1.350 . S
C2124 C2121 1.463 . S
C2124 N2128 1.427 . S
C2125 H2115 0.929 . S
C2125 C2123 1.433 . S
C2125 N2128 1.384 . S
C2126 H2117 0.929 . S
C2126 C2118 1.378 . S
C2126 C2121 1.350 . S
C2127 H2114 0.929 . S
C2127 C2119 1.433 . S
C2127 N2129 1.384 . S
N2128 C2124 1.427 . S
N2128 C2125 1.384 . S
N2129 C2121 1.427 . S
N2129 C2127 1.384 . S
H2130 C2136 0.930 . S
H2131 C2140 0.930 . S
H2132 C2145 0.929 . S
H2133 C2143 0.929 . S
H2134 C2138 0.929 . S
H2135 C2144 0.929 . S
C2136 H2130 0.930 . S
C2136 C2137 1.367 . S
C2136 C2144 1.378 . S
C2137 C2136 1.367 . S
C2137 C2145 1.433 . S
C2138 H2134 0.929 . S
C2138 C2140 1.378 . S
C2138 C2142 1.350 . S
C2139 C2142 1.463 . S
C2139 C2144 1.350 . S
C2139 N2147 1.427 . S
C2140 H2131 0.930 . S
C2140 C2138 1.378 . S
C2140 C2141 1.367 . S
C2141 C2140 1.367 . S
C2141 C2143 1.433 . S
C2142 C2138 1.350 . S
C2142 C2139 1.463 . S
C2142 N2146 1.427 . S
C2143 H2133 0.929 . S
C2143 C2141 1.433 . S
C2143 N2146 1.384 . S
C2144 H2135 0.929 . S
C2144 C2136 1.378 . S
C2144 C2139 1.350 . S
C2145 H2132 0.929 . S
C2145 C2137 1.433 . S
C2145 N2147 1.384 . S
N2146 C2142 1.427 . S
N2146 C2143 1.384 . S
N2147 C2139 1.427 . S
N2147 C2145 1.384 . S
H2148 C2154 0.930 . S
H2149 C2158 0.930 . S
H2150 C2163 0.929 . S
H2151 C2161 0.929 . S
H2152 C2156 0.929 . S
H2153 C2162 0.929 . S
C2154 H2148 0.930 . S
C2154 C2155 1.367 . S
C2154 C2162 1.378 . S
C2155 C2154 1.367 . S
C2155 C2163 1.433 . S
C2156 H2152 0.929 . S
C2156 C2158 1.378 . S
C2156 C2160 1.350 . S
C2157 C2160 1.463 . S
C2157 C2162 1.350 . S
C2157 N2165 1.427 . S
C2158 H2149 0.930 . S
C2158 C2156 1.378 . S
C2158 C2159 1.367 . S
C2159 C2158 1.367 . S
C2159 C2161 1.433 . S
C2160 C2156 1.350 . S
C2160 C2157 1.463 . S
C2160 N2164 1.427 . S
C2161 H2151 0.929 . S
C2161 C2159 1.433 . S
C2161 N2164 1.384 . S
C2162 H2153 0.929 . S
C2162 C2154 1.378 . S
C2162 C2157 1.350 . S
C2163 H2150 0.929 . S
C2163 C2155 1.433 . S
C2163 N2165 1.384 . S
N2164 C2160 1.427 . S
N2164 C2161 1.384 . S
N2165 C2157 1.427 . S
N2165 C2163 1.384 . S
H2166 C2172 0.930 . S
H2167 C2176 0.930 . S
H2168 C2181 0.929 . S
H2169 C2179 0.929 . S
H2170 C2174 0.929 . S
H2171 C2180 0.929 . S
C2172 H2166 0.930 . S
C2172 C2173 1.367 . S
C2172 C2180 1.378 . S
C2173 C2172 1.367 . S
C2173 C2181 1.433 . S
C2174 H2170 0.929 . S
C2174 C2176 1.378 . S
C2174 C2178 1.350 . S
C2175 C2178 1.463 . S
C2175 C2180 1.350 . S
C2175 N2183 1.427 . S
C2176 H2167 0.930 . S
C2176 C2174 1.378 . S
C2176 C2177 1.367 . S
C2177 C2176 1.367 . S
C2177 C2179 1.433 . S
C2178 C2174 1.350 . S
C2178 C2175 1.463 . S
C2178 N2182 1.427 . S
C2179 H2169 0.929 . S
C2179 C2177 1.433 . S
C2179 N2182 1.384 . S
C2180 H2171 0.929 . S
C2180 C2172 1.378 . S
C2180 C2175 1.350 . S
C2181 H2168 0.929 . S
C2181 C2173 1.433 . S
C2181 N2183 1.384 . S
N2182 C2178 1.427 . S
N2182 C2179 1.384 . S
N2183 C2175 1.427 . S
N2183 C2181 1.384 . S
H2184 C2190 0.930 . S
H2185 C2194 0.930 . S
H2186 C2199 0.929 . S
H2187 C2197 0.929 . S
H2188 C2192 0.929 . S
H2189 C2198 0.929 . S
C2190 H2184 0.930 . S
C2190 C2191 1.367 . S
C2190 C2198 1.378 . S
C2191 C2190 1.367 . S
C2191 C2199 1.433 . S
C2192 H2188 0.929 . S
C2192 C2194 1.378 . S
C2192 C2196 1.350 . S
C2193 C2196 1.463 . S
C2193 C2198 1.350 . S
C2193 N2201 1.427 . S
C2194 H2185 0.930 . S
C2194 C2192 1.378 . S
C2194 C2195 1.367 . S
C2195 C2194 1.367 . S
C2195 C2197 1.433 . S
C2196 C2192 1.350 . S
C2196 C2193 1.463 . S
C2196 N2200 1.427 . S
C2197 H2187 0.929 . S
C2197 C2195 1.433 . S
C2197 N2200 1.384 . S
C2198 H2189 0.929 . S
C2198 C2190 1.378 . S
C2198 C2193 1.350 . S
C2199 H2186 0.929 . S
C2199 C2191 1.433 . S
C2199 N2201 1.384 . S
N2200 C2196 1.427 . S
N2200 C2197 1.384 . S
N2201 C2193 1.427 . S
N2201 C2199 1.384 . S
H2202 C2208 0.930 . S
H2203 C2212 0.930 . S
H2204 C2217 0.929 . S
H2205 C2215 0.929 . S
H2206 C2210 0.929 . S
H2207 C2216 0.929 . S
C2208 H2202 0.930 . S
C2208 C2209 1.367 . S
C2208 C2216 1.378 . S
C2209 C2208 1.367 . S
C2209 C2217 1.433 . S
C2210 H2206 0.929 . S
C2210 C2212 1.378 . S
C2210 C2214 1.350 . S
C2211 C2214 1.463 . S
C2211 C2216 1.350 . S
C2211 N2219 1.427 . S
C2212 H2203 0.930 . S
C2212 C2210 1.378 . S
C2212 C2213 1.367 . S
C2213 C2212 1.367 . S
C2213 C2215 1.433 . S
C2214 C2210 1.350 . S
C2214 C2211 1.463 . S
C2214 N2218 1.427 . S
C2215 H2205 0.929 . S
C2215 C2213 1.433 . S
C2215 N2218 1.384 . S
C2216 H2207 0.929 . S
C2216 C2208 1.378 . S
C2216 C2211 1.350 . S
C2217 H2204 0.929 . S
C2217 C2209 1.433 . S
C2217 N2219 1.384 . S
N2218 C2214 1.427 . S
N2218 C2215 1.384 . S
N2219 C2211 1.427 . S
N2219 C2217 1.384 . S
H2220 C2226 0.930 . S
H2221 C2230 0.930 . S
H2222 C2235 0.929 . S
H2223 C2233 0.929 . S
H2224 C2228 0.929 . S
H2225 C2234 0.929 . S
C2226 H2220 0.930 . S
C2226 C2227 1.367 . S
C2226 C2234 1.378 . S
C2227 C2226 1.367 . S
C2227 C2235 1.433 . S
C2228 H2224 0.929 . S
C2228 C2230 1.378 . S
C2228 C2232 1.350 . S
C2229 C2232 1.463 . S
C2229 C2234 1.350 . S
C2229 N2237 1.427 . S
C2230 H2221 0.930 . S
C2230 C2228 1.378 . S
C2230 C2231 1.367 . S
C2231 C2230 1.367 . S
C2231 C2233 1.433 . S
C2232 C2228 1.350 . S
C2232 C2229 1.463 . S
C2232 N2236 1.427 . S
C2233 H2223 0.929 . S
C2233 C2231 1.433 . S
C2233 N2236 1.384 . S
C2234 H2225 0.929 . S
C2234 C2226 1.378 . S
C2234 C2229 1.350 . S
C2235 H2222 0.929 . S
C2235 C2227 1.433 . S
C2235 N2237 1.384 . S
N2236 C2232 1.427 . S
N2236 C2233 1.384 . S
N2237 C2229 1.427 . S
N2237 C2235 1.384 . S
H2238 C2244 0.930 . S
H2239 C2248 0.930 . S
H2240 C2253 0.929 . S
H2241 C2251 0.929 . S
H2242 C2246 0.929 . S
H2243 C2252 0.929 . S
C2244 H2238 0.930 . S
C2244 C2245 1.367 . S
C2244 C2252 1.378 . S
C2245 C2244 1.367 . S
C2245 C2253 1.433 . S
C2246 H2242 0.929 . S
C2246 C2248 1.378 . S
C2246 C2250 1.350 . S
C2247 C2250 1.463 . S
C2247 C2252 1.350 . S
C2247 N2255 1.427 . S
C2248 H2239 0.930 . S
C2248 C2246 1.378 . S
C2248 C2249 1.367 . S
C2249 C2248 1.367 . S
C2249 C2251 1.433 . S
C2250 C2246 1.350 . S
C2250 C2247 1.463 . S
C2250 N2254 1.427 . S
C2251 H2241 0.929 . S
C2251 C2249 1.433 . S
C2251 N2254 1.384 . S
C2252 H2243 0.929 . S
C2252 C2244 1.378 . S
C2252 C2247 1.350 . S
C2253 H2240 0.929 . S
C2253 C2245 1.433 . S
C2253 N2255 1.384 . S
N2254 C2250 1.427 . S
N2254 C2251 1.384 . S
N2255 C2247 1.427 . S
N2255 C2253 1.384 . S
H2256 C2262 0.930 . S
H2257 C2266 0.930 . S
H2258 C2271 0.929 . S
H2259 C2269 0.929 . S
H2260 C2264 0.929 . S
H2261 C2270 0.929 . S
C2262 H2256 0.930 . S
C2262 C2263 1.367 . S
C2262 C2270 1.378 . S
C2263 C2262 1.367 . S
C2263 C2271 1.433 . S
C2264 H2260 0.929 . S
C2264 C2266 1.378 . S
C2264 C2268 1.350 . S
C2265 C2268 1.463 . S
C2265 C2270 1.350 . S
C2265 N2273 1.427 . S
C2266 H2257 0.930 . S
C2266 C2264 1.378 . S
C2266 C2267 1.367 . S
C2267 C2266 1.367 . S
C2267 C2269 1.433 . S
C2268 C2264 1.350 . S
C2268 C2265 1.463 . S
C2268 N2272 1.427 . S
C2269 H2259 0.929 . S
C2269 C2267 1.433 . S
C2269 N2272 1.384 . S
C2270 H2261 0.929 . S
C2270 C2262 1.378 . S
C2270 C2265 1.350 . S
C2271 H2258 0.929 . S
C2271 C2263 1.433 . S
C2271 N2273 1.384 . S
N2272 C2268 1.427 . S
N2272 C2269 1.384 . S
N2273 C2265 1.427 . S
N2273 C2271 1.384 . S
H2274 C2280 0.930 . S
H2275 C2284 0.930 . S
H2276 C2289 0.929 . S
H2277 C2287 0.929 . S
H2278 C2282 0.929 . S
H2279 C2288 0.929 . S
C2280 H2274 0.930 . S
C2280 C2281 1.367 . S
C2280 C2288 1.378 . S
C2281 C2280 1.367 . S
C2281 C2289 1.433 . S
C2282 H2278 0.929 . S
C2282 C2284 1.378 . S
C2282 C2286 1.350 . S
C2283 C2286 1.463 . S
C2283 C2288 1.350 . S
C2283 N2291 1.427 . S
C2284 H2275 0.930 . S
C2284 C2282 1.378 . S
C2284 C2285 1.367 . S
C2285 C2284 1.367 . S
C2285 C2287 1.433 . S
C2286 C2282 1.350 . S
C2286 C2283 1.463 . S
C2286 N2290 1.427 . S
C2287 H2277 0.929 . S
C2287 C2285 1.433 . S
C2287 N2290 1.384 . S
C2288 H2279 0.929 . S
C2288 C2280 1.378 . S
C2288 C2283 1.350 . S
C2289 H2276 0.929 . S
C2289 C2281 1.433 . S
C2289 N2291 1.384 . S
N2290 C2286 1.427 . S
N2290 C2287 1.384 . S
N2291 C2283 1.427 . S
N2291 C2289 1.384 . S
H2292 C2298 0.930 . S
H2293 C2302 0.930 . S
H2294 C2307 0.929 . S
H2295 C2305 0.929 . S
H2296 C2300 0.929 . S
H2297 C2306 0.929 . S
C2298 H2292 0.930 . S
C2298 C2299 1.367 . S
C2298 C2306 1.378 . S
C2299 C2298 1.367 . S
C2299 C2307 1.433 . S
C2300 H2296 0.929 . S
C2300 C2302 1.378 . S
C2300 C2304 1.350 . S
C2301 C2304 1.463 . S
C2301 C2306 1.350 . S
C2301 N2309 1.427 . S
C2302 H2293 0.930 . S
C2302 C2300 1.378 . S
C2302 C2303 1.367 . S
C2303 C2302 1.367 . S
C2303 C2305 1.433 . S
C2304 C2300 1.350 . S
C2304 C2301 1.463 . S
C2304 N2308 1.427 . S
C2305 H2295 0.929 . S
C2305 C2303 1.433 . S
C2305 N2308 1.384 . S
C2306 H2297 0.929 . S
C2306 C2298 1.378 . S
C2306 C2301 1.350 . S
C2307 H2294 0.929 . S
C2307 C2299 1.433 . S
C2307 N2309 1.384 . S
N2308 C2304 1.427 . S
N2308 C2305 1.384 . S
N2309 C2301 1.427 . S
N2309 C2307 1.384 . S
H2310 C2316 0.930 . S
H2311 C2320 0.930 . S
H2312 C2325 0.929 . S
H2313 C2323 0.929 . S
H2314 C2318 0.929 . S
H2315 C2324 0.929 . S
C2316 H2310 0.930 . S
C2316 C2317 1.367 . S
C2316 C2324 1.378 . S
C2317 C2316 1.367 . S
C2317 C2325 1.433 . S
C2318 H2314 0.929 . S
C2318 C2320 1.378 . S
C2318 C2322 1.350 . S
C2319 C2322 1.463 . S
C2319 C2324 1.350 . S
C2319 N2327 1.427 . S
C2320 H2311 0.930 . S
C2320 C2318 1.378 . S
C2320 C2321 1.367 . S
C2321 C2320 1.367 . S
C2321 C2323 1.433 . S
C2322 C2318 1.350 . S
C2322 C2319 1.463 . S
C2322 N2326 1.427 . S
C2323 H2313 0.929 . S
C2323 C2321 1.433 . S
C2323 N2326 1.384 . S
C2324 H2315 0.929 . S
C2324 C2316 1.378 . S
C2324 C2319 1.350 . S
C2325 H2312 0.929 . S
C2325 C2317 1.433 . S
C2325 N2327 1.384 . S
N2326 C2322 1.427 . S
N2326 C2323 1.384 . S
N2327 C2319 1.427 . S
N2327 C2325 1.384 . S
H2328 C2334 0.930 . S
H2329 C2338 0.930 . S
H2330 C2343 0.929 . S
H2331 C2341 0.929 . S
H2332 C2336 0.929 . S
H2333 C2342 0.929 . S
C2334 H2328 0.930 . S
C2334 C2335 1.367 . S
C2334 C2342 1.378 . S
C2335 C2334 1.367 . S
C2335 C2343 1.433 . S
C2336 H2332 0.929 . S
C2336 C2338 1.378 . S
C2336 C2340 1.350 . S
C2337 C2340 1.463 . S
C2337 C2342 1.350 . S
C2337 N2345 1.427 . S
C2338 H2329 0.930 . S
C2338 C2336 1.378 . S
C2338 C2339 1.367 . S
C2339 C2338 1.367 . S
C2339 C2341 1.433 . S
C2340 C2336 1.350 . S
C2340 C2337 1.463 . S
C2340 N2344 1.427 . S
C2341 H2331 0.929 . S
C2341 C2339 1.433 . S
C2341 N2344 1.384 . S
C2342 H2333 0.929 . S
C2342 C2334 1.378 . S
C2342 C2337 1.350 . S
C2343 H2330 0.929 . S
C2343 C2335 1.433 . S
C2343 N2345 1.384 . S
N2344 C2340 1.427 . S
N2344 C2341 1.384 . S
N2345 C2337 1.427 . S
N2345 C2343 1.384 . S
H2346 C2352 0.930 . S
H2347 C2356 0.930 . S
H2348 C2361 0.929 . S
H2349 C2359 0.929 . S
H2350 C2354 0.929 . S
H2351 C2360 0.929 . S
C2352 H2346 0.930 . S
C2352 C2353 1.367 . S
C2352 C2360 1.378 . S
C2353 C2352 1.367 . S
C2353 C2361 1.433 . S
C2354 H2350 0.929 . S
C2354 C2356 1.378 . S
C2354 C2358 1.350 . S
C2355 C2358 1.463 . S
C2355 C2360 1.350 . S
C2355 N2363 1.427 . S
C2356 H2347 0.930 . S
C2356 C2354 1.378 . S
C2356 C2357 1.367 . S
C2357 C2356 1.367 . S
C2357 C2359 1.433 . S
C2358 C2354 1.350 . S
C2358 C2355 1.463 . S
C2358 N2362 1.427 . S
C2359 H2349 0.929 . S
C2359 C2357 1.433 . S
C2359 N2362 1.384 . S
C2360 H2351 0.929 . S
C2360 C2352 1.378 . S
C2360 C2355 1.350 . S
C2361 H2348 0.929 . S
C2361 C2353 1.433 . S
C2361 N2363 1.384 . S
N2362 C2358 1.427 . S
N2362 C2359 1.384 . S
N2363 C2355 1.427 . S
N2363 C2361 1.384 . S
H2364 C2370 0.930 . S
H2365 C2374 0.930 . S
H2366 C2379 0.929 . S
H2367 C2377 0.929 . S
H2368 C2372 0.929 . S
H2369 C2378 0.929 . S
C2370 H2364 0.930 . S
C2370 C2371 1.367 . S
C2370 C2378 1.378 . S
C2371 C2370 1.367 . S
C2371 C2379 1.433 . S
C2372 H2368 0.929 . S
C2372 C2374 1.378 . S
C2372 C2376 1.350 . S
C2373 C2376 1.463 . S
C2373 C2378 1.350 . S
C2373 N2381 1.427 . S
C2374 H2365 0.930 . S
C2374 C2372 1.378 . S
C2374 C2375 1.367 . S
C2375 C2374 1.367 . S
C2375 C2377 1.433 . S
C2376 C2372 1.350 . S
C2376 C2373 1.463 . S
C2376 N2380 1.427 . S
C2377 H2367 0.929 . S
C2377 C2375 1.433 . S
C2377 N2380 1.384 . S
C2378 H2369 0.929 . S
C2378 C2370 1.378 . S
C2378 C2373 1.350 . S
C2379 H2366 0.929 . S
C2379 C2371 1.433 . S
C2379 N2381 1.384 . S
N2380 C2376 1.427 . S
N2380 C2377 1.384 . S
N2381 C2373 1.427 . S
N2381 C2379 1.384 . S
H2382 C2388 0.930 . S
H2383 C2392 0.930 . S
H2384 C2397 0.929 . S
H2385 C2395 0.929 . S
H2386 C2390 0.929 . S
H2387 C2396 0.929 . S
C2388 H2382 0.930 . S
C2388 C2389 1.367 . S
C2388 C2396 1.378 . S
C2389 C2388 1.367 . S
C2389 C2397 1.433 . S
C2390 H2386 0.929 . S
C2390 C2392 1.378 . S
C2390 C2394 1.350 . S
C2391 C2394 1.463 . S
C2391 C2396 1.350 . S
C2391 N2399 1.427 . S
C2392 H2383 0.930 . S
C2392 C2390 1.378 . S
C2392 C2393 1.367 . S
C2393 C2392 1.367 . S
C2393 C2395 1.433 . S
C2394 C2390 1.350 . S
C2394 C2391 1.463 . S
C2394 N2398 1.427 . S
C2395 H2385 0.929 . S
C2395 C2393 1.433 . S
C2395 N2398 1.384 . S
C2396 H2387 0.929 . S
C2396 C2388 1.378 . S
C2396 C2391 1.350 . S
C2397 H2384 0.929 . S
C2397 C2389 1.433 . S
C2397 N2399 1.384 . S
N2398 C2394 1.427 . S
N2398 C2395 1.384 . S
N2399 C2391 1.427 . S
N2399 C2397 1.384 . S
C679 C445 1.289 . S
C683 C11 1.279 . S
C697 C25 1.287 . S
C701 C403 1.282 . S
C715 C39 1.281 . S
C719 C417 1.285 . S
C733 C431 1.279 . S
C737 C53 1.287 . S
C751 C361 1.286 . S
C755 C67 1.284 . S
C769 C81 1.282 . S
C773 C375 1.287 . S
C787 C389 1.285 . S
C791 C95 1.284 . S
C805 C109 1.289 . S
C809 C347 1.279 . S
C823 C123 1.289 . S
C827 C627 1.279 . S
C841 C585 1.284 . S
C845 C137 1.286 . S
C859 C599 1.285 . S
C863 C151 1.284 . S
C877 C165 1.289 . S
C881 C613 1.279 . S
C895 C179 1.286 . S
C899 C669 1.283 . S
C913 C193 1.285 . S
C917 C641 1.281 . S
C931 C207 1.289 . S
C935 C655 1.279 . S
C949 C571 1.287 . S
C953 C221 1.282 . S
C967 C557 1.288 . S
C971 C235 1.281 . S
C985 C249 1.283 . S
C989 C473 1.286 . S
C1003 C487 1.279 . S
C1007 C263 1.289 . S
C1021 C277 1.288 . S
C1025 C501 1.279 . S
C1039 C459 1.279 . S
C1043 C291 1.289 . S
C1057 C529 1.282 . S
C1061 C305 1.287 . S
C1075 C319 1.281 . S
C1079 C543 1.288 . S
C1093 C515 1.279 . S
C1097 C333 1.289 . S
C1111 C139 1.159 . S
C1115 C13 1.140 . S
C1129 C153 1.149 . S
C1133 C27 1.144 . S
C1147 C41 1.151 . S
C1151 C167 1.155 . S
C1165 C125 1.159 . S
C1169 C55 1.140 . S
C1183 C69 1.153 . S
C1187 C223 1.141 . S
C1201 C181 1.152 . S
C1205 C83 1.154 . S
C1219 C195 1.155 . S
C1223 C97 1.140 . S
C1237 C209 1.151 . S
C1241 C111 1.156 . S
C1255 C265 1.140 . S
C1259 C237 1.155 . S
C1273 C321 1.154 . S
C1277 C251 1.153 . S
C1291 C335 1.140 . S
C1295 C279 1.159 . S
C1309 C293 1.152 . S
C1313 C307 1.155 . S
C1327 C475 1.147 . S
C1331 C349 1.145 . S
C1345 C489 1.143 . S
C1349 C363 1.149 . S
C1363 C503 1.140 . S
C1367 C377 1.159 . S
C1381 C391 1.145 . S
C1385 C461 1.147 . S
C1399 C405 1.147 . S
C1403 C559 1.145 . S
C1417 C419 1.150 . S
C1421 C517 1.156 . S
C1435 C531 1.156 . S
C1439 C433 1.140 . S
C1453 C545 1.141 . S
C1457 C447 1.152 . S
C1471 C573 1.157 . S
C1475 C601 1.150 . S
C1489 C657 1.151 . S
C1493 C587 1.155 . S
C1507 C671 1.150 . S
C1511 C615 1.142 . S
C1525 C643 1.160 . S
C1529 C629 1.142 . S
C1543 C7 1.316 . S
C1547 C260 1.209 . S
C1561 C21 1.317 . S
C1565 C274 1.213 . S
C1579 C35 1.318 . S
C1583 C288 1.230 . S
C1597 C246 1.215 . S
C1601 C49 1.317 . S
C1615 C63 1.319 . S
C1619 C316 1.233 . S
C1633 C77 1.315 . S
C1637 C232 1.211 . S
C1651 C330 1.210 . S
C1655 C91 1.315 . S
C1669 C302 1.219 . S
C1673 C105 1.316 . S
C1687 C119 1.316 . S
C1691 C134 1.209 . S
C1705 C133 1.315 . S
C1709 C148 1.211 . S
C1723 C147 1.317 . S
C1727 C162 1.212 . S
C1741 C120 1.233 . S
C1745 C161 1.319 . S
C1759 C218 1.233 . S
C1763 C175 1.319 . S
C1777 C176 1.209 . S
C1781 C189 1.316 . S
C1795 C190 1.209 . S
C1799 C203 1.316 . S
C1813 C217 1.317 . S
C1817 C204 1.211 . S
C1831 C50 1.226 . S
C1835 C231 1.319 . S
C1849 C78 1.211 . S
C1853 C245 1.317 . S
C1867 C92 1.215 . S
C1871 C259 1.316 . S
C1885 C273 1.316 . S
C1889 C106 1.210 . S
C1903 C64 1.210 . S
C1907 C287 1.315 . S
C1921 C22 1.223 . S
C1925 C301 1.317 . S
C1939 C36 1.232 . S
C1943 C315 1.318 . S
C1957 C8 1.231 . S
C1961 C329 1.319 . S
C1975 C596 1.210 . S
C1979 C343 1.316 . S
C1993 C357 1.319 . S
C1997 C610 1.224 . S
C2011 C624 1.233 . S
C2015 C371 1.319 . S
C2029 C582 1.224 . S
C2033 C385 1.317 . S
C2047 C399 1.319 . S
C2051 C652 1.233 . S
C2065 C413 1.316 . S
C2069 C568 1.218 . S
C2083 C666 1.211 . S
C2087 C427 1.315 . S
C2101 C441 1.318 . S
C2105 C638 1.231 . S
C2119 C455 1.316 . S
C2123 C470 1.215 . S
C2137 C469 1.319 . S
C2141 C484 1.231 . S
C2155 C483 1.316 . S
C2159 C498 1.209 . S
C2173 C497 1.318 . S
C2177 C456 1.229 . S
C2191 C554 1.228 . S
C2195 C511 1.319 . S
C2209 C512 1.209 . S
C2213 C525 1.316 . S
C2227 C526 1.210 . S
C2231 C539 1.315 . S
C2245 C553 1.319 . S
C2249 C540 1.233 . S
C2263 C386 1.226 . S
C2267 C567 1.317 . S
C2281 C414 1.225 . S
C2285 C581 1.317 . S
C2299 C428 1.232 . S
C2303 C595 1.318 . S
C2317 C609 1.318 . S
C2321 C442 1.216 . S
C2335 C400 1.225 . S
C2339 C623 1.319 . S
C2353 C358 1.233 . S
C2357 C637 1.319 . S
C2371 C651 1.318 . S
C2375 C372 1.232 . S
C2389 C344 1.225 . S
C2393 C665 1.319 . S
