# Generated by pormake.
# Topology smk, (6)-cn, num edge types: 1
# Building blocks:
#     Node 0, Type 0, BuildingBlock: JUFBIX_clean_sbu_0, # of connection points: 6
#     Node 1, Type 0, BuildingBlock: JUFBIX_clean_sbu_0, # of connection points: 6
#     Node 2, Type 0, BuildingBlock: JUFBIX_clean_sbu_0, # of connection points: 6
#     Node 3, Type 0, BuildingBlock: JUFBIX_clean_sbu_0, # of connection points: 6
#     Node 4, Type 0, BuildingBlock: JUFBIX_clean_sbu_0, # of connection points: 6
#     Node 5, Type 0, BuildingBlock: JUFBIX_clean_sbu_0, # of connection points: 6
#     Edge 6, Type (0, 0), BuildingBlock: FUNLAD_clean_linker_0, # of connection points: 2
#     Edge 7, Type (0, 0), BuildingBlock: FUNLAD_clean_linker_0, # of connection points: 2
#     Edge 8, Type (0, 0), BuildingBlock: FUNLAD_clean_linker_0, # of connection points: 2
#     Edge 9, Type (0, 0), BuildingBlock: FUNLAD_clean_linker_0, # of connection points: 2
#     Edge 10, Type (0, 0), BuildingBlock: FUNLAD_clean_linker_0, # of connection points: 2
#     Edge 11, Type (0, 0), BuildingBlock: FUNLAD_clean_linker_0, # of connection points: 2
#     Edge 12, Type (0, 0), BuildingBlock: FUNLAD_clean_linker_0, # of connection points: 2
#     Edge 13, Type (0, 0), BuildingBlock: FUNLAD_clean_linker_0, # of connection points: 2
#     Edge 14, Type (0, 0), BuildingBlock: FUNLAD_clean_linker_0, # of connection points: 2
#     Edge 15, Type (0, 0), BuildingBlock: FUNLAD_clean_linker_0, # of connection points: 2
#     Edge 16, Type (0, 0), BuildingBlock: FUNLAD_clean_linker_0, # of connection points: 2
#     Edge 17, Type (0, 0), BuildingBlock: FUNLAD_clean_linker_0, # of connection points: 2
#     Edge 18, Type (0, 0), BuildingBlock: FUNLAD_clean_linker_0, # of connection points: 2
#     Edge 19, Type (0, 0), BuildingBlock: FUNLAD_clean_linker_0, # of connection points: 2
#     Edge 20, Type (0, 0), BuildingBlock: FUNLAD_clean_linker_0, # of connection points: 2
#     Edge 21, Type (0, 0), BuildingBlock: FUNLAD_clean_linker_0, # of connection points: 2
#     Edge 22, Type (0, 0), BuildingBlock: FUNLAD_clean_linker_0, # of connection points: 2
#     Edge 23, Type (0, 0), BuildingBlock: FUNLAD_clean_linker_0, # of connection points: 2
# Relax obj value: 0.360
# Max RMSD: 0.249
# Mean RMSD: 0.249
data_MOF--net-smk--node1-JUFBIX_clean_sbu_0--edge1-FUNLAD_clean_linker_0
_symmetry_space_group_name_H-M    P1
_symmetry_Int_Tables_number       1
_symmetry_cell_setting            triclinic
loop_
_symmetry_equiv_pos_as_xyz
'x, y, z'
_cell_length_a     51.984863
_cell_length_b     51.965174
_cell_length_c     17.41071
_cell_angle_alpha  89.765781
_cell_angle_beta   89.722071
_cell_angle_gamma 120.23284
loop_
_atom_site_label
_atom_site_type_symbol
_atom_site_fract_x
_atom_site_fract_y
_atom_site_fract_z
_atom_type_partial_charge
Co0 Co 0.42501 0.19208 0.52661 0.0
C1 C 0.40794 0.132 0.52527 0.0
Co2 Co 0.46272 0.18385 0.52155 0.0
C3 C 0.39112 0.22149 0.55827 0.0
C4 C 0.36759 0.18276 0.48836 0.0
N5 N 0.39328 0.19893 0.52667 0.0
N6 N 0.36517 0.22014 0.54049 0.0
C7 C 0.3503 0.19566 0.49683 0.0
H8 H 0.40867 0.23909 0.59142 0.0
H9 H 0.36205 0.16319 0.45482 0.0
C10 C 0.48064 0.24372 0.52176 0.0
N11 N 0.49419 0.1768 0.52088 0.0
C12 C 0.51794 0.18906 0.56773 0.0
C13 C 0.49765 0.15723 0.47781 0.0
N14 N 0.53605 0.17781 0.55624 0.0
C15 C 0.52336 0.15776 0.49954 0.0
C16 C 0.44318 0.18846 0.37887 0.0
O17 O 0.45278 0.23422 0.52418 0.0
O18 O 0.48963 0.2251 0.52119 0.0
O19 O 0.46245 0.18435 0.4127 0.0
O20 O 0.42468 0.19201 0.41853 0.0
O21 O 0.43588 0.14265 0.52202 0.0
H22 H 0.48221 0.14314 0.4344 0.0
H23 H 0.52136 0.20529 0.61118 0.0
O24 O 0.39777 0.14971 0.52808 0.0
O25 O 0.42555 0.19218 0.63543 0.0
O26 O 0.46261 0.1834 0.6297 0.0
C27 C 0.44448 0.18756 0.6693 0.0
H28 H 0.32848 0.18763 0.47239 0.0
H29 H 0.532 0.14444 0.47542 0.0
Co30 Co 0.21663 0.41736 0.76365 0.0
C31 C 0.15722 0.40377 0.75268 0.0
Co32 Co 0.20993 0.45614 0.76801 0.0
C33 C 0.23983 0.37847 0.72336 0.0
C34 C 0.20172 0.35776 0.79799 0.0
N35 N 0.22015 0.38361 0.76139 0.0
N36 N 0.2341 0.35029 0.73434 0.0
C37 C 0.21015 0.33726 0.7813 0.0
H38 H 0.2575 0.39479 0.68688 0.0
H39 H 0.18312 0.35399 0.83409 0.0
C40 C 0.26915 0.47023 0.78161 0.0
N41 N 0.20648 0.49009 0.77159 0.0
C42 C 0.19841 0.50264 0.71545 0.0
C43 C 0.21572 0.50985 0.82956 0.0
N44 N 0.20276 0.52959 0.73579 0.0
C45 C 0.21344 0.53405 0.80781 0.0
C46 C 0.20791 0.43163 0.91107 0.0
O47 O 0.25878 0.44232 0.77504 0.0
O48 O 0.25146 0.48035 0.77865 0.0
O49 O 0.20566 0.45201 0.87673 0.0
O50 O 0.21258 0.41383 0.87188 0.0
O51 O 0.16837 0.43179 0.75784 0.0
H52 H 0.22499 0.50761 0.88292 0.0
H53 H 0.19124 0.49309 0.65903 0.0
O54 O 0.17439 0.39295 0.75333 0.0
O55 O 0.22066 0.42102 0.65499 0.0
O56 O 0.21425 0.45959 0.65976 0.0
C57 C 0.21864 0.44156 0.62062 0.0
H58 H 0.19955 0.31453 0.80231 0.0
H59 H 0.22015 0.55388 0.84145 0.0
Co60 Co 0.82518 0.22911 0.83411 0.0
C61 C 0.88435 0.2733 0.83546 0.0
Co62 Co 0.83143 0.27445 0.84129 0.0
C63 C 0.79838 0.16551 0.86263 0.0
C64 C 0.8333 0.18196 0.77839 0.0
N65 N 0.81885 0.19072 0.82648 0.0
N66 N 0.79939 0.14125 0.83878 0.0
C67 C 0.82144 0.15173 0.78566 0.0
H68 H 0.78301 0.1651 0.90539 0.0
H69 H 0.85094 0.19657 0.73926 0.0
C70 C 0.77244 0.23114 0.838 0.0
N71 N 0.8385 0.31319 0.84732 0.0
C72 C 0.83083 0.32618 0.90307 0.0
C73 C 0.85549 0.3355 0.79785 0.0
N74 N 0.84263 0.35575 0.89055 0.0
C75 C 0.85799 0.36154 0.82401 0.0
C76 C 0.82812 0.25476 0.69247 0.0
O77 O 0.78317 0.21388 0.83439 0.0
O78 O 0.79001 0.25908 0.84305 0.0
O79 O 0.83109 0.27644 0.7325 0.0
O80 O 0.82539 0.23179 0.72597 0.0
O81 O 0.87273 0.28966 0.83928 0.0
H82 H 0.86614 0.33318 0.74695 0.0
H83 H 0.81781 0.31437 0.95329 0.0
O84 O 0.8675 0.24516 0.8329 0.0
O85 O 0.82493 0.22666 0.9427 0.0
O86 O 0.83161 0.2718 0.94941 0.0
C87 C 0.82835 0.24854 -0.01722 0.0
H88 H 0.82819 0.13853 0.75255 0.0
H89 H 0.87037 0.38311 0.79623 0.0
Co90 Co 0.60649 0.79437 0.10262 0.0
C91 C 0.62566 0.75301 0.11536 0.0
Co92 Co 0.57012 0.74735 0.10811 0.0
C93 C 0.64461 0.85731 0.05815 0.0
C94 C 0.66052 0.84354 0.15409 0.0
N95 N 0.63788 0.83355 0.10384 0.0
N96 N 0.67075 0.88155 0.07789 0.0
C97 C 0.68062 0.87284 0.13844 0.0
H98 H 0.63109 0.8566 0.01022 0.0
H99 H 0.6625 0.83019 0.19895 0.0
C100 C 0.55017 0.78773 0.09749 0.0
N101 N 0.53954 0.70798 0.10804 0.0
C102 C 0.51786 0.69452 0.05538 0.0
C103 C 0.53549 0.68604 0.15692 0.0
N104 N 0.50056 0.66497 0.06885 0.0
C105 C 0.51158 0.6596 0.133 0.0
C106 C 0.58613 0.77242 0.25067 0.0
O107 O 0.57782 0.8073 0.09755 0.0
O108 O 0.54232 0.7603 0.1005 0.0
O109 O 0.56809 0.74843 0.21686 0.0
O110 O 0.60454 0.79476 0.21101 0.0
O111 O 0.59791 0.73456 0.11601 0.0
H112 H 0.54946 0.68897 0.2058 0.0
H113 H 0.51552 0.70608 0.00648 0.0
O114 O 0.63467 0.78066 0.10864 0.0
O115 O 0.608 0.79358 -0.0062 0.0
O116 O 0.57255 0.74672 -8e-05 0.0
C117 C 0.59046 0.76933 0.96014 0.0
H118 H 0.70099 0.88671 0.16942 0.0
H119 H 0.50309 0.6381 0.16064 0.0
Co120 Co 0.79018 0.5891 0.20566 0.0
C121 C 0.74927 0.60863 0.21724 0.0
Co122 Co 0.74304 0.55285 0.20297 0.0
C123 C 0.85516 0.62186 0.22788 0.0
C124 C 0.83841 0.64645 0.16835 0.0
N125 N 0.82961 0.62009 0.20344 0.0
N126 N 0.87944 0.64828 0.2086 0.0
C127 C 0.86875 0.66374 0.17171 0.0
H128 H 0.85599 0.60385 0.25695 0.0
H129 H 0.82371 0.65256 0.14029 0.0
C130 C 0.78271 0.5324 0.19047 0.0
N131 N 0.70337 0.52283 0.20266 0.0
C132 C 0.6887 0.49968 0.25192 0.0
C133 C 0.68222 0.52124 0.15514 0.0
N134 N 0.65918 0.48386 0.23737 0.0
C135 C 0.65515 0.49736 0.17611 0.0
C136 C 0.76629 0.57498 0.05904 0.0
O137 O 0.80239 0.55996 0.19445 0.0
O138 O 0.75532 0.52463 0.19434 0.0
O139 O 0.74292 0.55564 0.09393 0.0
O140 O 0.78926 0.59195 0.09766 0.0
O141 O 0.73073 0.58103 0.21181 0.0
H142 H 0.6861 0.53689 0.10919 0.0
H143 H 0.69935 0.49516 0.29913 0.0
O144 O 0.77695 0.61753 0.21617 0.0
O145 O 0.79086 0.58604 0.31436 0.0
O146 O 0.74391 0.55055 0.31117 0.0
C147 C 0.76722 0.56712 0.34947 0.0
H148 H 0.88191 0.68607 0.14857 0.0
H149 H 0.63413 0.49059 0.14835 0.0
Co150 Co 0.22883 0.80143 0.41863 0.0
C151 C 0.26703 0.86271 0.41474 0.0
Co152 Co 0.27646 0.81472 0.40973 0.0
C153 C 0.16458 0.76845 0.39261 0.0
C154 C 0.17846 0.80405 0.47296 0.0
N155 N 0.18894 0.79035 0.42757 0.0
N156 N 0.13944 0.76828 0.41405 0.0
C157 C 0.14819 0.79066 0.46461 0.0
H158 H 0.16535 0.75337 0.35118 0.0
H159 H 0.19205 0.82272 0.50977 0.0
C160 C 0.23921 0.75377 0.41594 0.0
N161 N 0.31672 0.82699 0.40291 0.0
C162 C 0.33178 0.8204 0.35047 0.0
C163 C 0.33787 0.84703 0.44965 0.0
N164 N 0.36152 0.83575 0.36252 0.0
C165 C 0.36528 0.85238 0.42523 0.0
C166 C 0.25583 0.80841 0.55932 0.0
O167 O 0.2188 0.7605 0.42015 0.0
O168 O 0.26623 0.77444 0.4093 0.0
O169 O 0.27857 0.81468 0.51851 0.0
O170 O 0.23162 0.80211 0.52665 0.0
O171 O 0.28649 0.8549 0.4105 0.0
H172 H 0.33369 0.85755 0.49779 0.0
H173 H 0.32118 0.80529 0.30319 0.0
O174 O 0.23967 0.84271 0.41809 0.0
O175 O 0.22633 0.80076 0.31003 0.0
O176 O 0.27375 0.81454 0.30178 0.0
C177 C 0.2493 0.80761 0.26921 0.0
H178 H 0.13366 0.79678 0.49396 0.0
H179 H 0.38635 0.86734 0.45197 0.0
C180 C 0.46265 0.18591 0.24914 0.0
C181 C 0.44244 0.18978 0.29441 0.0
C182 C 0.46205 0.18768 0.16919 0.0
C183 C 0.44107 0.19317 0.13313 0.0
C184 C 0.42119 0.19739 0.17854 0.0
C185 C 0.42173 0.19556 0.25832 0.0
C186 C 0.43965 0.19539 0.04865 0.0
C187 C 0.44858 0.18147 -0.00036 0.0
C188 C 0.44707 0.18357 0.91513 0.0
C189 C 0.46674 0.17903 0.86969 0.0
C190 C 0.46603 0.18061 0.7899 0.0
C191 C 0.44537 0.18647 0.75379 0.0
H192 H 0.40993 0.19178 0.91199 0.0
C193 C 0.42541 0.1907 0.7991 0.0
C194 C 0.42616 0.18917 0.87907 0.0
H195 H 0.40904 0.19494 0.77285 0.0
H196 H 0.47907 0.18175 0.2754 0.0
H197 H 0.47844 0.18532 0.13629 0.0
H198 H 0.405 0.2019 0.1522 0.0
H199 H 0.40596 0.19883 0.29162 0.0
H200 H 0.43034 0.20853 0.02672 0.0
H201 H 0.45787 0.16832 0.02162 0.0
H202 H 0.48287 0.17445 0.89603 0.0
H203 H 0.48165 0.17711 0.75659 0.0
C204 C 0.22194 0.4223 0.4914 0.0
C205 C 0.22005 0.4438 0.53587 0.0
C206 C 0.22159 0.4236 0.41124 0.0
C207 C 0.21922 0.44641 0.37392 0.0
C208 C 0.21829 0.46837 0.41842 0.0
C209 C 0.21852 0.46702 0.49849 0.0
C210 C 0.2182 0.44841 0.289 0.0
C211 C 0.20802 0.4246 0.24264 0.0
C212 C 0.20703 0.42661 0.1577 0.0
C213 C 0.20793 0.40463 0.11321 0.0
C214 C 0.20779 0.40603 0.03313 0.0
C215 C 0.2064 0.42932 -0.00423 0.0
H216 H 0.20291 0.46624 0.15254 0.0
C217 C 0.20452 0.45083 0.04022 0.0
C218 C 0.20477 0.44948 0.12037 0.0
H219 H 0.20315 0.4689 0.01314 0.0
H220 H 0.22342 0.40429 0.51847 0.0
H221 H 0.22347 0.40686 0.37904 0.0
H222 H 0.21683 0.48637 0.39117 0.0
H223 H 0.21721 0.48406 0.53102 0.0
H224 H 0.22558 0.4703 0.26451 0.0
H225 H 0.20063 0.40271 0.26714 0.0
H226 H 0.2093 0.38657 0.14046 0.0
H227 H 0.20906 0.38898 0.00056 0.0
C228 C 0.83364 0.27191 0.11103 0.0
C229 C 0.82888 0.24725 0.06734 0.0
C230 C 0.83447 0.27097 0.19097 0.0
C231 C 0.83027 0.24517 0.22898 0.0
C232 C 0.8259 0.22068 0.18524 0.0
C233 C 0.82508 0.22162 0.10519 0.0
C234 C 0.83116 0.24328 0.31379 0.0
C235 C 0.82479 0.25968 0.3615 0.0
C236 C 0.82575 0.25784 0.44632 0.0
C237 C 0.82997 0.2823 0.48998 0.0
C238 C 0.83093 0.28145 0.57003 0.0
C239 C 0.82743 0.25596 0.60794 0.0
H240 H 0.81739 0.21241 0.45324 0.0
C241 C 0.8228 0.23132 0.56435 0.0
C242 C 0.82181 0.23216 0.48443 0.0
H243 H 0.81966 0.2112 0.59195 0.0
H244 H 0.837 0.29213 0.08352 0.0
H245 H 0.839 0.29074 0.22226 0.0
H246 H 0.82289 0.20065 0.21311 0.0
H247 H 0.82151 0.2023 0.07307 0.0
H248 H 0.83694 0.22746 0.33705 0.0
H249 H 0.819 0.27549 0.33819 0.0
H250 H 0.83277 0.30224 0.46206 0.0
H251 H 0.83438 0.30075 0.60208 0.0
C252 C 0.56834 0.74937 0.38096 0.0
C253 C 0.58632 0.77453 0.33517 0.0
C254 C 0.56944 0.75147 0.46101 0.0
C255 C 0.58865 0.7788 0.49665 0.0
C256 C 0.60597 0.80402 0.45074 0.0
C257 C 0.60499 0.80191 0.3709 0.0
C258 C 0.59091 0.78209 0.58126 0.0
C259 C 0.58538 0.75957 0.62952 0.0
C260 C 0.5877 0.76288 0.71413 0.0
C261 C 0.57054 0.73764 0.76012 0.0
C262 C 0.57161 0.73976 0.83996 0.0
C263 C 0.5902 0.76719 0.87562 0.0
H264 H 0.62123 0.81 0.71625 0.0
C265 C 0.60801 0.79237 0.82974 0.0
C266 C 0.60684 0.79025 0.7497 0.0
H267 H 0.62275 0.81375 0.85557 0.0
H268 H 0.55354 0.72803 0.35505 0.0
H269 H 0.55496 0.73174 0.49442 0.0
H270 H 0.62069 0.82538 0.47673 0.0
H271 H 0.61899 0.82179 0.33724 0.0
H272 H 0.59805 0.8041 0.6039 0.0
H273 H 0.57824 0.73756 0.60685 0.0
H274 H 0.55587 0.71624 0.7342 0.0
H275 H 0.55771 0.71987 0.87366 0.0
C276 C 0.79039 0.58517 0.47852 0.0
C277 C 0.76625 0.56476 0.43413 0.0
C278 C 0.78868 0.58357 0.55871 0.0
C279 C 0.76271 0.56153 0.59598 0.0
C280 C 0.73901 0.54063 0.5515 0.0
C281 C 0.74065 0.54231 0.47149 0.0
C282 C 0.7596 0.55923 0.68086 0.0
C283 C 0.77418 0.58272 0.72768 0.0
C284 C 0.77101 0.58046 0.81256 0.0
C285 C 0.79457 0.60151 0.85711 0.0
C286 C 0.79287 0.59988 0.93712 0.0
C287 C 0.76734 0.57731 -0.02561 0.0
H288 H 0.72599 0.54231 0.81752 0.0
C289 C 0.74332 0.55674 0.92996 0.0
C290 C 0.74509 0.5583 0.84979 0.0
H291 H 0.72324 0.53927 0.95704 0.0
H292 H 0.81052 0.60254 0.4514 0.0
H293 H 0.80785 0.59943 0.59096 0.0
H294 H 0.71891 0.52323 0.57873 0.0
H295 H 0.72172 0.52608 0.439 0.0
H296 H 0.74416 0.53745 0.70492 0.0
H297 H 0.78961 0.6045 0.70358 0.0
H298 H 0.81463 0.619 0.82993 0.0
H299 H 0.8117 0.61624 -0.03031 0.0
C300 C 0.2735 0.81633 0.14014 0.0
C301 C 0.24782 0.80792 0.18468 0.0
C302 C 0.27236 0.81698 0.06021 0.0
C303 C 0.24539 0.80894 0.02306 0.0
C304 C 0.21984 0.8009 0.06763 0.0
C305 C 0.22097 0.80026 0.14768 0.0
C306 C 0.24322 0.80947 0.9383 0.0
C307 C 0.26187 0.80643 0.89019 0.0
C308 C 0.2597 0.80697 0.80542 0.0
C309 C 0.28521 0.81485 0.76084 0.0
C310 C 0.28409 0.81551 0.6808 0.0
C311 C 0.25729 0.80805 0.64382 0.0
H312 H 0.21233 0.79181 0.80021 0.0
C313 C 0.23165 0.79978 0.68834 0.0
C314 C 0.23277 0.79909 0.76826 0.0
H315 H 0.21056 0.79357 0.6615 0.0
H316 H 0.29462 0.82268 0.16697 0.0
H317 H 0.29281 0.82437 0.02824 0.0
H318 H 0.19886 0.79488 0.04043 0.0
H319 H 0.20083 0.79382 0.18045 0.0
H320 H 0.22528 0.81208 0.91541 0.0
H321 H 0.2798 0.80382 0.91312 0.0
H322 H 0.30616 0.82073 0.78803 0.0
H323 H 0.3042 0.82184 0.64801 0.0
C324 C 0.35798 0.08614 0.5031 0.0
C325 C 0.38807 0.09931 0.52396 0.0
C326 C 0.34046 0.0551 0.49538 0.0
C327 C 0.3528 0.03679 0.50922 0.0
C328 C 0.38251 0.05012 0.53316 0.0
C329 C 0.39994 0.08089 0.54003 0.0
C330 C 0.3367 1.00402 0.49683 0.0
C331 C 0.30994 0.98784 0.4632 0.0
C332 C 0.2982 0.95592 0.4449 0.0
C333 C 0.26768 0.93509 0.45248 0.0
C334 C 0.25705 0.90467 0.44044 0.0
C335 C 0.27683 0.89478 0.41982 0.0
H336 H 0.341 0.96167 0.41041 0.0
C337 C 0.30705 0.91595 0.40812 0.0
C338 C 0.31755 0.94608 0.42009 0.0
H339 H 0.32284 0.90922 0.39087 0.0
H340 H 0.34825 0.09984 0.4905 0.0
H341 H 0.31759 0.04581 0.47771 0.0
H342 H 0.39267 0.03672 0.54471 0.0
H343 H 0.42296 0.09027 0.55697 0.0
H344 H 0.34846 0.99258 0.51394 0.0
H345 H 0.29643 0.99764 0.44885 0.0
H346 H 0.25224 0.9422 0.47026 0.0
H347 H 0.23361 0.88889 0.44943 0.0
C348 C 0.33544 0.24413 0.5137 0.0
C349 C 0.35554 0.24089 0.56078 0.0
C350 C 0.32482 0.26301 0.53465 0.0
C351 C 0.33389 0.27903 0.60367 0.0
C352 C 0.35496 0.27685 0.64916 0.0
C353 C 0.36562 0.25789 0.62813 0.0
C354 C 0.32137 0.29775 0.62983 0.0
C355 C 0.29335 0.29093 0.61308 0.0
C356 C 0.27899 0.30734 0.64345 0.0
C357 C 0.24794 0.29181 0.65259 0.0
C358 C 0.23333 0.306 0.68186 0.0
C359 C 0.24937 0.33626 0.70142 0.0
H360 H 0.31904 0.35067 0.65361 0.0
C361 C 0.28039 0.35219 0.69015 0.0
C362 C 0.29515 0.33782 0.66178 0.0
H363 H 0.29323 0.37555 0.70477 0.0
H364 H 0.32794 0.23214 0.46022 0.0
H365 H 0.30957 0.26504 0.4964 0.0
H366 H 0.36255 0.28918 0.70223 0.0
H367 H 0.3811 0.25594 0.66565 0.0
H368 H 0.33459 0.31593 0.66873 0.0
H369 H 0.27928 0.27092 0.58056 0.0
H370 H 0.23491 0.26842 0.63809 0.0
H371 H 0.20936 0.29331 0.68878 0.0
C372 C 0.93142 0.27193 0.80997 0.0
C373 C 0.91717 0.28761 0.8326 0.0
C374 C 0.96256 0.28669 0.80294 0.0
C375 C 0.97987 0.31736 0.81891 0.0
C376 C 0.96548 0.33257 0.84372 0.0
C377 C 0.93461 0.318 0.85008 0.0
C378 C 1.01283 0.33482 0.81092 0.0
C379 C 1.02943 0.32646 0.77 0.0
C380 C 0.0621 0.34642 0.76058 0.0
C381 C 0.08074 0.33419 0.75571 0.0
C382 C 0.11169 0.35275 0.75126 0.0
C383 C 0.12452 0.38393 0.75062 0.0
H384 H 0.06117 0.38776 0.75659 0.0
C385 C 0.10573 0.39607 0.75168 0.0
C386 C 0.07491 0.37756 0.75631 0.0
H387 H 0.11483 0.41996 0.75011 0.0
H388 H 0.91853 0.24846 0.79637 0.0
H389 H 0.97278 0.27395 0.78535 0.0
H390 H 0.97817 0.3561 0.857 0.0
H391 H 0.9244 0.33074 0.86827 0.0
H392 H 1.02394 0.35644 0.8386 0.0
H393 H 1.01932 0.30466 0.7437 0.0
H394 H 0.07139 0.31026 0.75765 0.0
H395 H 0.12555 0.34268 0.74996 0.0
C396 C 0.67059 0.92315 0.00741 0.0
C397 C 0.68618 0.91051 0.04149 0.0
C398 C 0.68604 0.95218 -0.02322 0.0
C399 C 0.7174 0.96899 -0.02054 0.0
C400 C 0.73278 0.95581 0.01133 0.0
C401 C 0.71743 0.92709 0.04212 0.0
C402 C 0.73536 0.99997 0.94887 0.0
C403 C 0.72485 1.01865 0.9361 0.0
C404 C 0.74426 0.05012 0.90958 0.0
C405 C 0.73535 0.0711 0.92375 0.0
C406 C 0.75332 0.10093 0.90095 0.0
C407 C 0.7807 0.11052 0.86302 0.0
H408 H 0.77872 0.04417 0.8553 0.0
C409 C 0.78934 0.08934 0.84798 0.0
C410 C 0.77132 0.05959 0.87016 0.0
H411 H 0.81019 0.09562 0.81933 0.0
H412 H 0.6465 0.91086 0.006 0.0
H413 H 0.67333 0.96117 0.9509 0.0
H414 H 0.75689 0.96793 0.01335 0.0
H415 H 0.73016 0.91781 0.0664 0.0
H416 H 0.75898 1.00825 0.94134 0.0
H417 H 0.70179 1.01143 0.94971 0.0
H418 H 0.71448 0.06446 0.95314 0.0
H419 H 0.74551 0.11628 0.91252 0.0
C420 C 0.75549 0.65958 0.19948 0.0
C421 C 0.73812 0.62968 0.22304 0.0
C422 C 0.74317 0.6782 0.19795 0.0
C423 C 0.71337 0.66717 0.22096 0.0
C424 C 0.69673 0.63774 0.24813 0.0
C425 C 0.70881 0.61916 0.24853 0.0
C426 C 0.69788 0.68456 0.21522 0.0
C427 C 0.70594 0.70802 0.1678 0.0
C428 C 0.68561 0.71982 0.1533 0.0
C429 C 0.69704 0.75034 0.13943 0.0
C430 C 0.67774 0.76141 0.12635 0.0
C431 C 0.64672 0.74197 0.12563 0.0
H432 H 0.64506 0.67659 0.15756 0.0
C433 C 0.63551 0.71134 0.13695 0.0
C434 C 0.65465 0.70041 0.15037 0.0
H435 H 0.61179 0.69563 0.13597 0.0
H436 H 0.77821 0.66827 0.17984 0.0
H437 H 0.75693 0.70095 0.17828 0.0
H438 H 0.67383 0.62867 0.26677 0.0
H439 H 0.69495 0.59632 0.26783 0.0
H440 H 0.6771 0.67585 0.24725 0.0
H441 H 0.72694 0.71805 0.13665 0.0
H442 H 0.72084 0.76567 0.14008 0.0
H443 H 0.68707 0.78511 0.1174 0.0
C444 C 0.91975 0.64878 0.28623 0.0
C445 C 0.91052 0.65847 0.22194 0.0
C446 C 0.95018 0.66154 0.30285 0.0
C447 C 0.97182 0.68414 0.25518 0.0
C448 C 0.96251 0.69272 0.1894 0.0
C449 C 0.93236 0.67993 0.17265 0.0
C450 C 1.00385 0.70162 0.27553 0.0
C451 C 1.01818 0.69167 0.3201 0.0
C452 C 0.04976 0.71158 0.34245 0.0
C453 C 0.06912 0.70025 0.34998 0.0
C454 C 0.09886 0.71896 0.37154 0.0
C455 C 0.10946 0.74913 0.38778 0.0
H456 H 0.04606 0.75116 0.35512 0.0
C457 C 0.08995 0.76029 0.38084 0.0
C458 C 0.06052 0.74181 0.35842 0.0
H459 H 0.09751 0.78345 0.39264 0.0
H460 H 0.90349 0.63239 0.32546 0.0
H461 H 0.95653 0.65471 0.35479 0.0
H462 H 0.97865 0.70996 0.15151 0.0
H463 H 0.92618 0.68738 0.12153 0.0
H464 H 1.01643 0.72397 0.25132 0.0
H465 H 1.007 0.66856 0.33888 0.0
H466 H 0.06129 0.67698 0.33868 0.0
H467 H 0.11334 0.70972 0.37732 0.0
C468 C 0.49413 0.29616 0.4887 0.0
C469 C 0.50267 0.27582 0.51357 0.0
C470 C 0.51573 0.32559 0.47052 0.0
C471 C 0.54626 0.33516 0.47724 0.0
C472 C 0.55456 0.3153 0.50701 0.0
C473 C 0.53307 0.28592 0.52441 0.0
C474 C 0.57018 0.36506 0.45105 0.0
C475 C 0.56658 0.38028 0.39329 0.0
C476 C 0.59136 0.40796 0.35843 0.0
C477 C 0.58437 0.42666 0.31628 0.0
C478 C 0.6066 0.45171 0.27776 0.0
C479 C 0.63645 0.45857 0.2797 0.0
H480 H 0.62762 0.40068 0.3909 0.0
C481 C 0.64355 0.44003 0.32255 0.0
C482 C 0.62129 0.41496 0.36129 0.0
H483 H 0.66619 0.44436 0.32438 0.0
H484 H 0.47085 0.28908 0.48042 0.0
H485 H 0.50841 0.34056 0.45037 0.0
H486 H 0.57785 0.32216 0.51377 0.0
H487 H 0.54038 0.27088 0.54438 0.0
H488 H 0.59199 0.37353 0.47637 0.0
H489 H 0.54473 0.37174 0.36807 0.0
H490 H 0.56154 0.42177 0.3127 0.0
H491 H 0.60029 0.46569 0.24651 0.0
C492 C 0.22161 0.58162 0.6956 0.0
C493 C 0.20102 0.55114 0.6871 0.0
C494 C 0.22066 0.60269 0.64778 0.0
C495 C 0.19902 0.59384 0.59016 0.0
C496 C 0.17799 0.56344 0.58245 0.0
C497 C 0.17921 0.5422 0.62988 0.0
C498 C 0.1977 0.61639 0.54022 0.0
C499 C 0.22272 0.64098 0.51626 0.0
C500 C 0.2238 0.66705 0.47745 0.0
C501 C 0.25077 0.68825 0.44304 0.0
C502 C 0.25502 0.71571 0.41837 0.0
C503 C 0.23239 0.72271 0.42779 0.0
H504 H 0.17938 0.65769 0.50939 0.0
C505 C 0.20464 0.7008 0.45742 0.0
C506 C 0.20038 0.67322 0.48233 0.0
H507 H 0.18677 0.70555 0.46557 0.0
H508 H 0.23884 0.58922 0.7386 0.0
H509 H 0.2367 0.626 0.65678 0.0
H510 H 0.16087 0.55612 0.53913 0.0
H511 H 0.16295 0.51886 0.62254 0.0
H512 H 0.17598 0.61259 0.52343 0.0
H513 H 0.24403 0.64264 0.52806 0.0
H514 H 0.26918 0.68413 0.43835 0.0
H515 H 0.27661 0.73197 0.3952 0.0
C516 C 0.72852 0.23848 0.83378 0.0
C517 C 0.7402 0.21936 0.8278 0.0
C518 C 0.69919 0.22882 0.81258 0.0
C519 C 0.68099 0.19988 0.78406 0.0
C520 C 0.692 0.18014 0.78337 0.0
C521 C 0.72135 0.18977 0.80483 0.0
C522 C 0.65103 0.18996 0.75178 0.0
C523 C 0.64372 0.20902 0.71939 0.0
C524 C 0.61512 0.19969 0.6798 0.0
C525 C 0.6059 0.22066 0.67053 0.0
C526 C 0.57996 0.21346 0.63042 0.0
C527 C 0.56276 0.18514 0.5978 0.0
H528 H 0.60466 0.15474 0.65088 0.0
C529 C 0.57203 0.16414 0.60662 0.0
C530 C 0.59793 0.1713 0.64713 0.0
H531 H 0.55918 0.14208 0.58257 0.0
H532 H 0.74229 0.26126 0.85266 0.0
H533 H 0.69113 0.2443 0.81753 0.0
H534 H 0.6783 0.15757 0.76288 0.0
H535 H 0.72961 0.17441 0.80014 0.0
H536 H 0.63538 0.16618 0.75066 0.0
H537 H 0.65956 0.23277 0.72016 0.0
H538 H 0.61889 0.24281 0.6942 0.0
H539 H 0.57369 0.23029 0.62374 0.0
C540 C 0.46838 0.6134 0.02262 0.0
C541 C 0.4763 0.64358 0.02244 0.0
C542 C 0.44486 0.59269 -0.0224 0.0
C543 C 0.42856 0.6017 0.93154 0.0
C544 C 0.43685 0.63195 0.93055 0.0
C545 C 0.46032 0.6526 -0.02451 0.0
C546 C 0.40253 0.58065 0.88466 0.0
C547 C 0.38712 0.55081 0.89495 0.0
C548 C 0.3584 0.53084 0.85592 0.0
C549 C 0.34801 0.5001 0.85243 0.0
C550 C 0.31955 0.4803 0.8243 0.0
C551 C 0.30081 0.49089 0.79991 0.0
H552 H 0.34641 0.56466 0.83219 0.0
C553 C 0.31163 0.52171 0.8008 0.0
C554 C 0.33993 0.54141 0.82869 0.0
H555 H 0.29775 0.53065 0.78269 0.0
H556 H 0.48062 0.60577 0.05673 0.0
H557 H 0.43992 0.56985 -0.02119 0.0
H558 H 0.42478 0.63963 0.89573 0.0
H559 H 0.46558 0.67557 -0.02568 0.0
H560 H 0.39498 0.59063 0.84211 0.0
H561 H 0.39478 0.54038 0.93581 0.0
H562 H 0.36163 0.49128 0.87348 0.0
H563 H 0.3118 0.45665 0.82477 0.0
C564 C 0.81952 0.51715 0.14921 0.0
C565 C 0.7909 0.5094 0.1754 0.0
C566 C 0.82566 0.49508 0.12499 0.0
C567 C 0.80325 0.46473 0.1272 0.0
C568 C 0.77513 0.45714 0.1569 0.0
C569 C 0.76902 0.47911 0.18066 0.0
C570 C 0.80702 0.44041 0.09386 0.0
C571 C 0.8332 0.4434 0.07097 0.0
C572 C 0.83558 0.41978 0.02874 0.0
C573 C 0.86045 0.42833 -0.019 0.0
C574 C 0.86288 0.40734 0.93657 0.0
C575 C 0.84057 0.37711 0.9391 0.0
H576 H 0.7947 0.38155 0.07168 0.0
C577 C 0.81619 0.36829 -0.01087 0.0
C578 C 0.81373 0.38934 0.03364 0.0
H579 H 0.79869 0.3452 -0.00717 0.0
H580 H 0.83682 0.54031 0.14421 0.0
H581 H 0.84758 0.50223 0.10189 0.0
H582 H 0.75743 0.43407 0.15967 0.0
H583 H 0.74675 0.47232 0.20109 0.0
H584 H 0.78671 0.41936 0.08461 0.0
H585 H 0.85365 0.46442 0.07868 0.0
H586 H 0.87783 0.4515 -0.02324 0.0
H587 H 0.88236 0.41488 0.90028 0.0
C588 C 0.53364 0.82481 0.12301 0.0
C589 C 0.5269 0.79615 0.10061 0.0
C590 C 0.51074 0.83099 0.1373 0.0
C591 C 0.48067 0.80857 0.12926 0.0
C592 C 0.47422 0.78064 0.10166 0.0
C593 C 0.49699 0.77441 0.088 0.0
C594 C 0.45537 0.8127 0.15223 0.0
C595 C 0.45747 0.83177 0.2074 0.0
C596 C 0.43155 0.83295 0.24008 0.0
C597 C 0.43699 0.85849 0.28043 0.0
C598 C 0.41393 0.85967 0.31858 0.0
C599 C 0.38475 0.83515 0.31811 0.0
H600 H 0.39702 0.78814 0.20921 0.0
C601 C 0.37904 0.80978 0.27613 0.0
C602 C 0.40217 0.80861 0.23774 0.0
H603 H 0.35692 0.7904 0.2753 0.0
H604 H 0.55648 0.84209 0.13255 0.0
H605 H 0.51671 0.85316 0.15569 0.0
H606 H 0.45134 0.76308 0.09387 0.0
H607 H 0.49104 0.75219 0.06982 0.0
H608 H 0.43387 0.79779 0.12702 0.0
H609 H 0.479 0.84661 0.23258 0.0
H610 H 0.45933 0.87755 0.28341 0.0
H611 H 0.4191 0.87981 0.34897 0.0
loop_
_geom_bond_atom_site_label_1
_geom_bond_atom_site_label_2
_geom_bond_distance
_geom_bond_site_symmetry_2
_ccdc_geom_bond_type
Co0 N5 2.057 . S
Co0 O17 2.021 . S
Co0 O20 2.062 . S
Co0 O24 2.117 . S
Co0 O25 2.020 . S
C1 O21 1.259 . S
C1 O24 1.258 . S
Co2 N11 2.057 . S
Co2 O18 2.117 . S
Co2 O19 2.020 . S
Co2 O21 2.021 . S
Co2 O26 2.062 . S
C3 N5 1.316 . S
C3 N6 1.347 . S
C3 H8 0.931 . S
C4 N5 1.375 . S
C4 C7 1.350 . S
C4 H9 0.930 . S
N5 Co0 2.057 . S
N5 C3 1.316 . S
N5 C4 1.375 . S
N6 C3 1.347 . S
N6 C7 1.373 . S
C7 C4 1.350 . S
C7 N6 1.373 . S
C7 H28 0.931 . S
H8 C3 0.931 . S
H9 C4 0.930 . S
C10 O17 1.259 . S
C10 O18 1.258 . S
N11 Co2 2.057 . S
N11 C12 1.316 . S
N11 C13 1.375 . S
C12 N11 1.316 . S
C12 N14 1.347 . S
C12 H23 0.931 . S
C13 N11 1.375 . S
C13 C15 1.350 . S
C13 H22 0.930 . S
N14 C12 1.347 . S
N14 C15 1.373 . S
C15 C13 1.350 . S
C15 N14 1.373 . S
C15 H29 0.931 . S
C16 O19 1.256 . S
C16 O20 1.255 . S
O17 Co0 2.021 . S
O17 C10 1.259 . S
O18 Co2 2.117 . S
O18 C10 1.258 . S
O19 Co2 2.020 . S
O19 C16 1.256 . S
O20 Co0 2.062 . S
O20 C16 1.255 . S
O21 C1 1.259 . S
O21 Co2 2.021 . S
H22 C13 0.930 . S
H23 C12 0.931 . S
O24 Co0 2.117 . S
O24 C1 1.258 . S
O25 Co0 2.020 . S
O25 C27 1.256 . S
O26 Co2 2.062 . S
O26 C27 1.255 . S
C27 O25 1.256 . S
C27 O26 1.255 . S
H28 C7 0.931 . S
H29 C15 0.931 . S
Co30 N35 2.057 . S
Co30 O47 2.021 . S
Co30 O50 2.062 . S
Co30 O54 2.117 . S
Co30 O55 2.020 . S
C31 O51 1.259 . S
C31 O54 1.258 . S
Co32 N41 2.057 . S
Co32 O48 2.117 . S
Co32 O49 2.020 . S
Co32 O51 2.021 . S
Co32 O56 2.062 . S
C33 N35 1.316 . S
C33 N36 1.347 . S
C33 H38 0.931 . S
C34 N35 1.375 . S
C34 C37 1.350 . S
C34 H39 0.930 . S
N35 Co30 2.057 . S
N35 C33 1.316 . S
N35 C34 1.375 . S
N36 C33 1.347 . S
N36 C37 1.373 . S
C37 C34 1.350 . S
C37 N36 1.373 . S
C37 H58 0.931 . S
H38 C33 0.931 . S
H39 C34 0.930 . S
C40 O47 1.259 . S
C40 O48 1.258 . S
N41 Co32 2.057 . S
N41 C42 1.316 . S
N41 C43 1.375 . S
C42 N41 1.316 . S
C42 N44 1.347 . S
C42 H53 0.931 . S
C43 N41 1.375 . S
C43 C45 1.350 . S
C43 H52 0.930 . S
N44 C42 1.347 . S
N44 C45 1.373 . S
C45 C43 1.350 . S
C45 N44 1.373 . S
C45 H59 0.931 . S
C46 O49 1.256 . S
C46 O50 1.255 . S
O47 Co30 2.021 . S
O47 C40 1.259 . S
O48 Co32 2.117 . S
O48 C40 1.258 . S
O49 Co32 2.020 . S
O49 C46 1.256 . S
O50 Co30 2.062 . S
O50 C46 1.255 . S
O51 C31 1.259 . S
O51 Co32 2.021 . S
H52 C43 0.930 . S
H53 C42 0.931 . S
O54 Co30 2.117 . S
O54 C31 1.258 . S
O55 Co30 2.020 . S
O55 C57 1.256 . S
O56 Co32 2.062 . S
O56 C57 1.255 . S
C57 O55 1.256 . S
C57 O56 1.255 . S
H58 C37 0.931 . S
H59 C45 0.931 . S
Co60 N65 2.057 . S
Co60 O77 2.021 . S
Co60 O80 2.062 . S
Co60 O84 2.117 . S
Co60 O85 2.020 1_556 S
C61 O81 1.259 . S
C61 O84 1.258 . S
Co62 N71 2.057 . S
Co62 O78 2.117 . S
Co62 O79 2.020 . S
Co62 O81 2.021 . S
Co62 O86 2.062 1_556 S
C63 N65 1.316 . S
C63 N66 1.347 . S
C63 H68 0.931 . S
C64 N65 1.375 . S
C64 C67 1.350 . S
C64 H69 0.930 . S
N65 Co60 2.057 . S
N65 C63 1.316 . S
N65 C64 1.375 . S
N66 C63 1.347 . S
N66 C67 1.373 . S
C67 C64 1.350 . S
C67 N66 1.373 . S
C67 H88 0.931 . S
H68 C63 0.931 . S
H69 C64 0.930 . S
C70 O77 1.259 . S
C70 O78 1.258 . S
N71 Co62 2.057 . S
N71 C72 1.316 . S
N71 C73 1.375 . S
C72 N71 1.316 . S
C72 N74 1.347 1_556 S
C72 H83 0.931 1_556 S
C73 N71 1.375 . S
C73 C75 1.350 . S
C73 H82 0.930 . S
N74 C72 1.347 1_554 S
N74 C75 1.373 1_554 S
C75 C73 1.350 . S
C75 N74 1.373 1_556 S
C75 H89 0.931 . S
C76 O79 1.256 . S
C76 O80 1.255 . S
O77 Co60 2.021 . S
O77 C70 1.259 . S
O78 Co62 2.117 . S
O78 C70 1.258 . S
O79 Co62 2.020 . S
O79 C76 1.256 . S
O80 Co60 2.062 . S
O80 C76 1.255 . S
O81 C61 1.259 . S
O81 Co62 2.021 . S
H82 C73 0.930 . S
H83 C72 0.931 1_554 S
O84 Co60 2.117 . S
O84 C61 1.258 . S
O85 Co60 2.020 1_554 S
O85 C87 1.256 . S
O86 Co62 2.062 1_554 S
O86 C87 1.255 . S
C87 O85 1.256 . S
C87 O86 1.255 . S
H88 C67 0.931 . S
H89 C75 0.931 . S
Co90 N95 2.057 . S
Co90 O107 2.021 . S
Co90 O110 2.062 . S
Co90 O114 2.117 . S
Co90 O115 2.020 1_554 S
C91 O111 1.259 . S
C91 O114 1.258 . S
Co92 N101 2.057 . S
Co92 O108 2.117 . S
Co92 O109 2.020 . S
Co92 O111 2.021 . S
Co92 O116 2.062 1_554 S
C93 N95 1.316 . S
C93 N96 1.347 . S
C93 H98 0.931 . S
C94 N95 1.375 . S
C94 C97 1.350 . S
C94 H99 0.930 . S
N95 Co90 2.057 . S
N95 C93 1.316 . S
N95 C94 1.375 . S
N96 C93 1.347 . S
N96 C97 1.373 . S
C97 C94 1.350 . S
C97 N96 1.373 . S
C97 H118 0.931 . S
H98 C93 0.931 . S
H99 C94 0.930 . S
C100 O107 1.259 . S
C100 O108 1.258 . S
N101 Co92 2.057 . S
N101 C102 1.316 . S
N101 C103 1.375 . S
C102 N101 1.316 . S
C102 N104 1.347 . S
C102 H113 0.931 . S
C103 N101 1.375 . S
C103 C105 1.350 . S
C103 H112 0.930 . S
N104 C102 1.347 . S
N104 C105 1.373 . S
C105 C103 1.350 . S
C105 N104 1.373 . S
C105 H119 0.931 . S
C106 O109 1.256 . S
C106 O110 1.255 . S
O107 Co90 2.021 . S
O107 C100 1.259 . S
O108 Co92 2.117 . S
O108 C100 1.258 . S
O109 Co92 2.020 . S
O109 C106 1.256 . S
O110 Co90 2.062 . S
O110 C106 1.255 . S
O111 C91 1.259 . S
O111 Co92 2.021 . S
H112 C103 0.930 . S
H113 C102 0.931 . S
O114 Co90 2.117 . S
O114 C91 1.258 . S
O115 Co90 2.020 1_556 S
O115 C117 1.256 . S
O116 Co92 2.062 1_556 S
O116 C117 1.255 . S
C117 O115 1.256 . S
C117 O116 1.255 . S
H118 C97 0.931 . S
H119 C105 0.931 . S
Co120 N125 2.057 . S
Co120 O137 2.021 . S
Co120 O140 2.062 . S
Co120 O144 2.117 . S
Co120 O145 2.020 . S
C121 O141 1.259 . S
C121 O144 1.258 . S
Co122 N131 2.057 . S
Co122 O138 2.117 . S
Co122 O139 2.020 . S
Co122 O141 2.021 . S
Co122 O146 2.062 . S
C123 N125 1.316 . S
C123 N126 1.347 . S
C123 H128 0.931 . S
C124 N125 1.375 . S
C124 C127 1.350 . S
C124 H129 0.930 . S
N125 Co120 2.057 . S
N125 C123 1.316 . S
N125 C124 1.375 . S
N126 C123 1.347 . S
N126 C127 1.373 . S
C127 C124 1.350 . S
C127 N126 1.373 . S
C127 H148 0.931 . S
H128 C123 0.931 . S
H129 C124 0.930 . S
C130 O137 1.259 . S
C130 O138 1.258 . S
N131 Co122 2.057 . S
N131 C132 1.316 . S
N131 C133 1.375 . S
C132 N131 1.316 . S
C132 N134 1.347 . S
C132 H143 0.931 . S
C133 N131 1.375 . S
C133 C135 1.350 . S
C133 H142 0.930 . S
N134 C132 1.347 . S
N134 C135 1.373 . S
C135 C133 1.350 . S
C135 N134 1.373 . S
C135 H149 0.931 . S
C136 O139 1.256 . S
C136 O140 1.255 . S
O137 Co120 2.021 . S
O137 C130 1.259 . S
O138 Co122 2.117 . S
O138 C130 1.258 . S
O139 Co122 2.020 . S
O139 C136 1.256 . S
O140 Co120 2.062 . S
O140 C136 1.255 . S
O141 C121 1.259 . S
O141 Co122 2.021 . S
H142 C133 0.930 . S
H143 C132 0.931 . S
O144 Co120 2.117 . S
O144 C121 1.258 . S
O145 Co120 2.020 . S
O145 C147 1.256 . S
O146 Co122 2.062 . S
O146 C147 1.255 . S
C147 O145 1.256 . S
C147 O146 1.255 . S
H148 C127 0.931 . S
H149 C135 0.931 . S
Co150 N155 2.057 . S
Co150 O167 2.021 . S
Co150 O170 2.062 . S
Co150 O174 2.117 . S
Co150 O175 2.020 . S
C151 O171 1.259 . S
C151 O174 1.258 . S
Co152 N161 2.057 . S
Co152 O168 2.117 . S
Co152 O169 2.020 . S
Co152 O171 2.021 . S
Co152 O176 2.062 . S
C153 N155 1.316 . S
C153 N156 1.347 . S
C153 H158 0.931 . S
C154 N155 1.375 . S
C154 C157 1.350 . S
C154 H159 0.930 . S
N155 Co150 2.057 . S
N155 C153 1.316 . S
N155 C154 1.375 . S
N156 C153 1.347 . S
N156 C157 1.373 . S
C157 C154 1.350 . S
C157 N156 1.373 . S
C157 H178 0.931 . S
H158 C153 0.931 . S
H159 C154 0.930 . S
C160 O167 1.259 . S
C160 O168 1.258 . S
N161 Co152 2.057 . S
N161 C162 1.316 . S
N161 C163 1.375 . S
C162 N161 1.316 . S
C162 N164 1.347 . S
C162 H173 0.931 . S
C163 N161 1.375 . S
C163 C165 1.350 . S
C163 H172 0.930 . S
N164 C162 1.347 . S
N164 C165 1.373 . S
C165 C163 1.350 . S
C165 N164 1.373 . S
C165 H179 0.931 . S
C166 O169 1.256 . S
C166 O170 1.255 . S
O167 Co150 2.021 . S
O167 C160 1.259 . S
O168 Co152 2.117 . S
O168 C160 1.258 . S
O169 Co152 2.020 . S
O169 C166 1.256 . S
O170 Co150 2.062 . S
O170 C166 1.255 . S
O171 C151 1.259 . S
O171 Co152 2.021 . S
H172 C163 0.930 . S
H173 C162 0.931 . S
O174 Co150 2.117 . S
O174 C151 1.258 . S
O175 Co150 2.020 . S
O175 C177 1.256 . S
O176 Co152 2.062 . S
O176 C177 1.255 . S
C177 O175 1.256 . S
C177 O176 1.255 . S
H178 C157 0.931 . S
H179 C165 0.931 . S
C180 C181 1.386 . S
C180 C182 1.383 . S
C180 H196 0.951 . S
C181 C180 1.386 . S
C181 C185 1.383 . S
C182 C180 1.383 . S
C182 C183 1.402 . S
C182 H197 0.951 . S
C183 C182 1.402 . S
C183 C184 1.375 . S
C183 C186 1.481 . S
C184 C183 1.375 . S
C184 C185 1.367 . S
C184 H198 0.951 . S
C185 C181 1.383 . S
C185 C184 1.367 . S
C185 H199 0.950 . S
C186 C183 1.481 . S
C186 C187 1.297 . S
C186 H200 0.950 . S
C187 C186 1.297 . S
C187 C188 1.479 . S
C187 H201 0.950 . S
C188 C187 1.479 . S
C188 C189 1.375 1_554 S
C188 C194 1.404 1_554 S
C189 C188 1.375 1_556 S
C189 C190 1.369 . S
C189 H202 0.950 1_556 S
C190 C189 1.369 . S
C190 C191 1.392 . S
C190 H203 0.951 . S
C191 C190 1.392 . S
C191 C193 1.384 . S
H192 C194 0.949 1_554 S
C193 C191 1.384 . S
C193 C194 1.385 . S
C193 H195 0.950 . S
C194 C188 1.404 1_556 S
C194 H192 0.949 1_556 S
C194 C193 1.385 . S
H195 C193 0.950 . S
H196 C180 0.951 . S
H197 C182 0.951 . S
H198 C184 0.951 . S
H199 C185 0.950 . S
H200 C186 0.950 . S
H201 C187 0.950 . S
H202 C189 0.950 1_554 S
H203 C190 0.951 . S
C204 C205 1.386 . S
C204 C206 1.383 . S
C204 H220 0.951 . S
C205 C204 1.386 . S
C205 C209 1.383 . S
C206 C204 1.383 . S
C206 C207 1.402 . S
C206 H221 0.951 . S
C207 C206 1.402 . S
C207 C208 1.375 . S
C207 C210 1.481 . S
C208 C207 1.375 . S
C208 C209 1.367 . S
C208 H222 0.951 . S
C209 C205 1.383 . S
C209 C208 1.367 . S
C209 H223 0.950 . S
C210 C207 1.481 . S
C210 C211 1.297 . S
C210 H224 0.950 . S
C211 C210 1.297 . S
C211 C212 1.479 . S
C211 H225 0.950 . S
C212 C211 1.479 . S
C212 C213 1.375 . S
C212 C218 1.404 . S
C213 C212 1.375 . S
C213 C214 1.369 1_554 S
C213 H226 0.950 . S
C214 C213 1.369 1_556 S
C214 C215 1.392 . S
C214 H227 0.951 . S
C215 C214 1.392 . S
C215 C217 1.384 . S
H216 C218 0.949 . S
C217 C215 1.384 . S
C217 C218 1.385 1_556 S
C217 H219 0.950 . S
C218 C212 1.404 . S
C218 H216 0.949 . S
C218 C217 1.385 1_554 S
H219 C217 0.950 . S
H220 C204 0.951 . S
H221 C206 0.951 . S
H222 C208 0.951 . S
H223 C209 0.950 . S
H224 C210 0.950 . S
H225 C211 0.950 . S
H226 C213 0.950 . S
H227 C214 0.951 . S
C228 C229 1.386 . S
C228 C230 1.383 . S
C228 H244 0.951 . S
C229 C228 1.386 . S
C229 C233 1.383 . S
C230 C228 1.383 . S
C230 C231 1.402 . S
C230 H245 0.951 . S
C231 C230 1.402 . S
C231 C232 1.375 . S
C231 C234 1.481 . S
C232 C231 1.375 . S
C232 C233 1.367 . S
C232 H246 0.951 . S
C233 C229 1.383 . S
C233 C232 1.367 . S
C233 H247 0.950 . S
C234 C231 1.481 . S
C234 C235 1.297 . S
C234 H248 0.950 . S
C235 C234 1.297 . S
C235 C236 1.479 . S
C235 H249 0.950 . S
C236 C235 1.479 . S
C236 C237 1.375 . S
C236 C242 1.404 . S
C237 C236 1.375 . S
C237 C238 1.369 . S
C237 H250 0.950 . S
C238 C237 1.369 . S
C238 C239 1.392 . S
C238 H251 0.951 . S
C239 C238 1.392 . S
C239 C241 1.384 . S
H240 C242 0.949 . S
C241 C239 1.384 . S
C241 C242 1.385 . S
C241 H243 0.950 . S
C242 C236 1.404 . S
C242 H240 0.949 . S
C242 C241 1.385 . S
H243 C241 0.950 . S
H244 C228 0.951 . S
H245 C230 0.951 . S
H246 C232 0.951 . S
H247 C233 0.950 . S
H248 C234 0.950 . S
H249 C235 0.950 . S
H250 C237 0.950 . S
H251 C238 0.951 . S
C252 C253 1.386 . S
C252 C254 1.383 . S
C252 H268 0.951 . S
C253 C252 1.386 . S
C253 C257 1.383 . S
C254 C252 1.383 . S
C254 C255 1.402 . S
C254 H269 0.951 . S
C255 C254 1.402 . S
C255 C256 1.375 . S
C255 C258 1.481 . S
C256 C255 1.375 . S
C256 C257 1.367 . S
C256 H270 0.951 . S
C257 C253 1.383 . S
C257 C256 1.367 . S
C257 H271 0.950 . S
C258 C255 1.481 . S
C258 C259 1.297 . S
C258 H272 0.950 . S
C259 C258 1.297 . S
C259 C260 1.479 . S
C259 H273 0.950 . S
C260 C259 1.479 . S
C260 C261 1.375 . S
C260 C266 1.404 . S
C261 C260 1.375 . S
C261 C262 1.369 . S
C261 H274 0.950 . S
C262 C261 1.369 . S
C262 C263 1.392 . S
C262 H275 0.951 . S
C263 C262 1.392 . S
C263 C265 1.384 . S
H264 C266 0.949 . S
C265 C263 1.384 . S
C265 C266 1.385 . S
C265 H267 0.950 . S
C266 C260 1.404 . S
C266 H264 0.949 . S
C266 C265 1.385 . S
H267 C265 0.950 . S
H268 C252 0.951 . S
H269 C254 0.951 . S
H270 C256 0.951 . S
H271 C257 0.950 . S
H272 C258 0.950 . S
H273 C259 0.950 . S
H274 C261 0.950 . S
H275 C262 0.951 . S
C276 C277 1.386 . S
C276 C278 1.383 . S
C276 H292 0.951 . S
C277 C276 1.386 . S
C277 C281 1.383 . S
C278 C276 1.383 . S
C278 C279 1.402 . S
C278 H293 0.951 . S
C279 C278 1.402 . S
C279 C280 1.375 . S
C279 C282 1.481 . S
C280 C279 1.375 . S
C280 C281 1.367 . S
C280 H294 0.951 . S
C281 C277 1.383 . S
C281 C280 1.367 . S
C281 H295 0.950 . S
C282 C279 1.481 . S
C282 C283 1.297 . S
C282 H296 0.950 . S
C283 C282 1.297 . S
C283 C284 1.479 . S
C283 H297 0.950 . S
C284 C283 1.479 . S
C284 C285 1.375 . S
C284 C290 1.404 . S
C285 C284 1.375 . S
C285 C286 1.369 1_556 S
C285 H298 0.950 . S
C286 C285 1.369 1_554 S
C286 C287 1.392 . S
C286 H299 0.951 . S
C287 C286 1.392 . S
C287 C289 1.384 . S
H288 C290 0.949 . S
C289 C287 1.384 . S
C289 C290 1.385 1_554 S
C289 H291 0.950 . S
C290 C284 1.404 . S
C290 H288 0.949 . S
C290 C289 1.385 1_556 S
H291 C289 0.950 . S
H292 C276 0.951 . S
H293 C278 0.951 . S
H294 C280 0.951 . S
H295 C281 0.950 . S
H296 C282 0.950 . S
H297 C283 0.950 . S
H298 C285 0.950 . S
H299 C286 0.951 . S
C300 C301 1.386 . S
C300 C302 1.383 . S
C300 H316 0.951 . S
C301 C300 1.386 . S
C301 C305 1.383 . S
C302 C300 1.383 . S
C302 C303 1.402 1_554 S
C302 H317 0.951 1_554 S
C303 C302 1.402 1_556 S
C303 C304 1.375 1_556 S
C303 C306 1.481 . S
C304 C303 1.375 1_554 S
C304 C305 1.367 . S
C304 H318 0.951 . S
C305 C301 1.383 . S
C305 C304 1.367 . S
C305 H319 0.950 . S
C306 C303 1.481 . S
C306 C307 1.297 . S
C306 H320 0.950 . S
C307 C306 1.297 . S
C307 C308 1.479 . S
C307 H321 0.950 . S
C308 C307 1.479 . S
C308 C309 1.375 . S
C308 C314 1.404 . S
C309 C308 1.375 . S
C309 C310 1.369 . S
C309 H322 0.950 . S
C310 C309 1.369 . S
C310 C311 1.392 . S
C310 H323 0.951 . S
C311 C310 1.392 . S
C311 C313 1.384 . S
H312 C314 0.949 . S
C313 C311 1.384 . S
C313 C314 1.385 . S
C313 H315 0.950 . S
C314 C308 1.404 . S
C314 H312 0.949 . S
C314 C313 1.385 . S
H315 C313 0.950 . S
H316 C300 0.951 . S
H317 C302 0.951 1_556 S
H318 C304 0.951 . S
H319 C305 0.950 . S
H320 C306 0.950 . S
H321 C307 0.950 . S
H322 C309 0.950 . S
H323 C310 0.951 . S
C324 C325 1.386 . S
C324 C326 1.383 . S
C324 H340 0.951 . S
C325 C324 1.386 . S
C325 C329 1.383 . S
C326 C324 1.383 . S
C326 C327 1.402 . S
C326 H341 0.951 . S
C327 C326 1.402 . S
C327 C328 1.375 . S
C327 C330 1.481 1_545 S
C328 C327 1.375 . S
C328 C329 1.367 . S
C328 H342 0.951 . S
C329 C325 1.383 . S
C329 C328 1.367 . S
C329 H343 0.950 . S
C330 C327 1.481 1_565 S
C330 C331 1.297 . S
C330 H344 0.950 . S
C331 C330 1.297 . S
C331 C332 1.479 . S
C331 H345 0.950 . S
C332 C331 1.479 . S
C332 C333 1.375 . S
C332 C338 1.404 . S
C333 C332 1.375 . S
C333 C334 1.369 . S
C333 H346 0.950 . S
C334 C333 1.369 . S
C334 C335 1.392 . S
C334 H347 0.951 . S
C335 C334 1.392 . S
C335 C337 1.384 . S
H336 C338 0.949 . S
C337 C335 1.384 . S
C337 C338 1.385 . S
C337 H339 0.950 . S
C338 C332 1.404 . S
C338 H336 0.949 . S
C338 C337 1.385 . S
H339 C337 0.950 . S
H340 C324 0.951 . S
H341 C326 0.951 . S
H342 C328 0.951 . S
H343 C329 0.950 . S
H344 C330 0.950 . S
H345 C331 0.950 . S
H346 C333 0.950 . S
H347 C334 0.951 . S
C348 C349 1.386 . S
C348 C350 1.383 . S
C348 H364 0.951 . S
C349 C348 1.386 . S
C349 C353 1.383 . S
C350 C348 1.383 . S
C350 C351 1.402 . S
C350 H365 0.951 . S
C351 C350 1.402 . S
C351 C352 1.375 . S
C351 C354 1.481 . S
C352 C351 1.375 . S
C352 C353 1.367 . S
C352 H366 0.951 . S
C353 C349 1.383 . S
C353 C352 1.367 . S
C353 H367 0.950 . S
C354 C351 1.481 . S
C354 C355 1.297 . S
C354 H368 0.950 . S
C355 C354 1.297 . S
C355 C356 1.479 . S
C355 H369 0.950 . S
C356 C355 1.479 . S
C356 C357 1.375 . S
C356 C362 1.404 . S
C357 C356 1.375 . S
C357 C358 1.369 . S
C357 H370 0.950 . S
C358 C357 1.369 . S
C358 C359 1.392 . S
C358 H371 0.951 . S
C359 C358 1.392 . S
C359 C361 1.384 . S
H360 C362 0.949 . S
C361 C359 1.384 . S
C361 C362 1.385 . S
C361 H363 0.950 . S
C362 C356 1.404 . S
C362 H360 0.949 . S
C362 C361 1.385 . S
H363 C361 0.950 . S
H364 C348 0.951 . S
H365 C350 0.951 . S
H366 C352 0.951 . S
H367 C353 0.950 . S
H368 C354 0.950 . S
H369 C355 0.950 . S
H370 C357 0.950 . S
H371 C358 0.951 . S
C372 C373 1.386 . S
C372 C374 1.383 . S
C372 H388 0.951 . S
C373 C372 1.386 . S
C373 C377 1.383 . S
C374 C372 1.383 . S
C374 C375 1.402 . S
C374 H389 0.951 . S
C375 C374 1.402 . S
C375 C376 1.375 . S
C375 C378 1.481 . S
C376 C375 1.375 . S
C376 C377 1.367 . S
C376 H390 0.951 . S
C377 C373 1.383 . S
C377 C376 1.367 . S
C377 H391 0.950 . S
C378 C375 1.481 . S
C378 C379 1.297 . S
C378 H392 0.950 . S
C379 C378 1.297 . S
C379 C380 1.479 1_655 S
C379 H393 0.950 . S
C380 C379 1.479 1_455 S
C380 C381 1.375 . S
C380 C386 1.404 . S
C381 C380 1.375 . S
C381 C382 1.369 . S
C381 H394 0.950 . S
C382 C381 1.369 . S
C382 C383 1.392 . S
C382 H395 0.951 . S
C383 C382 1.392 . S
C383 C385 1.384 . S
H384 C386 0.949 . S
C385 C383 1.384 . S
C385 C386 1.385 . S
C385 H387 0.950 . S
C386 C380 1.404 . S
C386 H384 0.949 . S
C386 C385 1.385 . S
H387 C385 0.950 . S
H388 C372 0.951 . S
H389 C374 0.951 . S
H390 C376 0.951 . S
H391 C377 0.950 . S
H392 C378 0.950 . S
H393 C379 0.950 . S
H394 C381 0.950 . S
H395 C382 0.951 . S
C396 C397 1.386 . S
C396 C398 1.383 . S
C396 H412 0.951 . S
C397 C396 1.386 . S
C397 C401 1.383 . S
C398 C396 1.383 . S
C398 C399 1.402 . S
C398 H413 0.951 . S
C399 C398 1.402 . S
C399 C400 1.375 . S
C399 C402 1.481 . S
C400 C399 1.375 . S
C400 C401 1.367 . S
C400 H414 0.951 1_554 S
C401 C397 1.383 . S
C401 C400 1.367 . S
C401 H415 0.950 . S
C402 C399 1.481 . S
C402 C403 1.297 . S
C402 H416 0.950 1_554 S
C403 C402 1.297 . S
C403 C404 1.479 1_565 S
C403 H417 0.950 . S
C404 C403 1.479 1_545 S
C404 C405 1.375 . S
C404 C410 1.404 1_554 S
C405 C404 1.375 . S
C405 C406 1.369 1_554 S
C405 H418 0.950 . S
C406 C405 1.369 1_556 S
C406 C407 1.392 . S
C406 H419 0.951 1_556 S
C407 C406 1.392 . S
C407 C409 1.384 . S
H408 C410 0.949 . S
C409 C407 1.384 . S
C409 C410 1.385 . S
C409 H411 0.950 . S
C410 C404 1.404 1_556 S
C410 H408 0.949 . S
C410 C409 1.385 . S
H411 C409 0.950 . S
H412 C396 0.951 . S
H413 C398 0.951 . S
H414 C400 0.951 1_556 S
H415 C401 0.950 . S
H416 C402 0.950 1_556 S
H417 C403 0.950 . S
H418 C405 0.950 . S
H419 C406 0.951 1_554 S
C420 C421 1.386 . S
C420 C422 1.383 . S
C420 H436 0.951 . S
C421 C420 1.386 . S
C421 C425 1.383 . S
C422 C420 1.383 . S
C422 C423 1.402 . S
C422 H437 0.951 . S
C423 C422 1.402 . S
C423 C424 1.375 . S
C423 C426 1.481 . S
C424 C423 1.375 . S
C424 C425 1.367 . S
C424 H438 0.951 . S
C425 C421 1.383 . S
C425 C424 1.367 . S
C425 H439 0.950 . S
C426 C423 1.481 . S
C426 C427 1.297 . S
C426 H440 0.950 . S
C427 C426 1.297 . S
C427 C428 1.479 . S
C427 H441 0.950 . S
C428 C427 1.479 . S
C428 C429 1.375 . S
C428 C434 1.404 . S
C429 C428 1.375 . S
C429 C430 1.369 . S
C429 H442 0.950 . S
C430 C429 1.369 . S
C430 C431 1.392 . S
C430 H443 0.951 . S
C431 C430 1.392 . S
C431 C433 1.384 . S
H432 C434 0.949 . S
C433 C431 1.384 . S
C433 C434 1.385 . S
C433 H435 0.950 . S
C434 C428 1.404 . S
C434 H432 0.949 . S
C434 C433 1.385 . S
H435 C433 0.950 . S
H436 C420 0.951 . S
H437 C422 0.951 . S
H438 C424 0.951 . S
H439 C425 0.950 . S
H440 C426 0.950 . S
H441 C427 0.950 . S
H442 C429 0.950 . S
H443 C430 0.951 . S
C444 C445 1.386 . S
C444 C446 1.383 . S
C444 H460 0.951 . S
C445 C444 1.386 . S
C445 C449 1.383 . S
C446 C444 1.383 . S
C446 C447 1.402 . S
C446 H461 0.951 . S
C447 C446 1.402 . S
C447 C448 1.375 . S
C447 C450 1.481 . S
C448 C447 1.375 . S
C448 C449 1.367 . S
C448 H462 0.951 . S
C449 C445 1.383 . S
C449 C448 1.367 . S
C449 H463 0.950 . S
C450 C447 1.481 . S
C450 C451 1.297 . S
C450 H464 0.950 . S
C451 C450 1.297 . S
C451 C452 1.479 1_655 S
C451 H465 0.950 . S
C452 C451 1.479 1_455 S
C452 C453 1.375 . S
C452 C458 1.404 . S
C453 C452 1.375 . S
C453 C454 1.369 . S
C453 H466 0.950 . S
C454 C453 1.369 . S
C454 C455 1.392 . S
C454 H467 0.951 . S
C455 C454 1.392 . S
C455 C457 1.384 . S
H456 C458 0.949 . S
C457 C455 1.384 . S
C457 C458 1.385 . S
C457 H459 0.950 . S
C458 C452 1.404 . S
C458 H456 0.949 . S
C458 C457 1.385 . S
H459 C457 0.950 . S
H460 C444 0.951 . S
H461 C446 0.951 . S
H462 C448 0.951 . S
H463 C449 0.950 . S
H464 C450 0.950 . S
H465 C451 0.950 . S
H466 C453 0.950 . S
H467 C454 0.951 . S
C468 C469 1.386 . S
C468 C470 1.383 . S
C468 H484 0.951 . S
C469 C468 1.386 . S
C469 C473 1.383 . S
C470 C468 1.383 . S
C470 C471 1.402 . S
C470 H485 0.951 . S
C471 C470 1.402 . S
C471 C472 1.375 . S
C471 C474 1.481 . S
C472 C471 1.375 . S
C472 C473 1.367 . S
C472 H486 0.951 . S
C473 C469 1.383 . S
C473 C472 1.367 . S
C473 H487 0.950 . S
C474 C471 1.481 . S
C474 C475 1.297 . S
C474 H488 0.950 . S
C475 C474 1.297 . S
C475 C476 1.479 . S
C475 H489 0.950 . S
C476 C475 1.479 . S
C476 C477 1.375 . S
C476 C482 1.404 . S
C477 C476 1.375 . S
C477 C478 1.369 . S
C477 H490 0.950 . S
C478 C477 1.369 . S
C478 C479 1.392 . S
C478 H491 0.951 . S
C479 C478 1.392 . S
C479 C481 1.384 . S
H480 C482 0.949 . S
C481 C479 1.384 . S
C481 C482 1.385 . S
C481 H483 0.950 . S
C482 C476 1.404 . S
C482 H480 0.949 . S
C482 C481 1.385 . S
H483 C481 0.950 . S
H484 C468 0.951 . S
H485 C470 0.951 . S
H486 C472 0.951 . S
H487 C473 0.950 . S
H488 C474 0.950 . S
H489 C475 0.950 . S
H490 C477 0.950 . S
H491 C478 0.951 . S
C492 C493 1.386 . S
C492 C494 1.383 . S
C492 H508 0.951 . S
C493 C492 1.386 . S
C493 C497 1.383 . S
C494 C492 1.383 . S
C494 C495 1.402 . S
C494 H509 0.951 . S
C495 C494 1.402 . S
C495 C496 1.375 . S
C495 C498 1.481 . S
C496 C495 1.375 . S
C496 C497 1.367 . S
C496 H510 0.951 . S
C497 C493 1.383 . S
C497 C496 1.367 . S
C497 H511 0.950 . S
C498 C495 1.481 . S
C498 C499 1.297 . S
C498 H512 0.950 . S
C499 C498 1.297 . S
C499 C500 1.479 . S
C499 H513 0.950 . S
C500 C499 1.479 . S
C500 C501 1.375 . S
C500 C506 1.404 . S
C501 C500 1.375 . S
C501 C502 1.369 . S
C501 H514 0.950 . S
C502 C501 1.369 . S
C502 C503 1.392 . S
C502 H515 0.951 . S
C503 C502 1.392 . S
C503 C505 1.384 . S
H504 C506 0.949 . S
C505 C503 1.384 . S
C505 C506 1.385 . S
C505 H507 0.950 . S
C506 C500 1.404 . S
C506 H504 0.949 . S
C506 C505 1.385 . S
H507 C505 0.950 . S
H508 C492 0.951 . S
H509 C494 0.951 . S
H510 C496 0.951 . S
H511 C497 0.950 . S
H512 C498 0.950 . S
H513 C499 0.950 . S
H514 C501 0.950 . S
H515 C502 0.951 . S
C516 C517 1.386 . S
C516 C518 1.383 . S
C516 H532 0.951 . S
C517 C516 1.386 . S
C517 C521 1.383 . S
C518 C516 1.383 . S
C518 C519 1.402 . S
C518 H533 0.951 . S
C519 C518 1.402 . S
C519 C520 1.375 . S
C519 C522 1.481 . S
C520 C519 1.375 . S
C520 C521 1.367 . S
C520 H534 0.951 . S
C521 C517 1.383 . S
C521 C520 1.367 . S
C521 H535 0.950 . S
C522 C519 1.481 . S
C522 C523 1.297 . S
C522 H536 0.950 . S
C523 C522 1.297 . S
C523 C524 1.479 . S
C523 H537 0.950 . S
C524 C523 1.479 . S
C524 C525 1.375 . S
C524 C530 1.404 . S
C525 C524 1.375 . S
C525 C526 1.369 . S
C525 H538 0.950 . S
C526 C525 1.369 . S
C526 C527 1.392 . S
C526 H539 0.951 . S
C527 C526 1.392 . S
C527 C529 1.384 . S
H528 C530 0.949 . S
C529 C527 1.384 . S
C529 C530 1.385 . S
C529 H531 0.950 . S
C530 C524 1.404 . S
C530 H528 0.949 . S
C530 C529 1.385 . S
H531 C529 0.950 . S
H532 C516 0.951 . S
H533 C518 0.951 . S
H534 C520 0.951 . S
H535 C521 0.950 . S
H536 C522 0.950 . S
H537 C523 0.950 . S
H538 C525 0.950 . S
H539 C526 0.951 . S
C540 C541 1.386 . S
C540 C542 1.383 . S
C540 H556 0.951 . S
C541 C540 1.386 . S
C541 C545 1.383 . S
C542 C540 1.383 . S
C542 C543 1.402 . S
C542 H557 0.951 . S
C543 C542 1.402 . S
C543 C544 1.375 . S
C543 C546 1.481 . S
C544 C543 1.375 . S
C544 C545 1.367 . S
C544 H558 0.951 . S
C545 C541 1.383 . S
C545 C544 1.367 . S
C545 H559 0.950 . S
C546 C543 1.481 . S
C546 C547 1.297 . S
C546 H560 0.950 . S
C547 C546 1.297 . S
C547 C548 1.479 . S
C547 H561 0.950 . S
C548 C547 1.479 . S
C548 C549 1.375 . S
C548 C554 1.404 . S
C549 C548 1.375 . S
C549 C550 1.369 . S
C549 H562 0.950 . S
C550 C549 1.369 . S
C550 C551 1.392 . S
C550 H563 0.951 . S
C551 C550 1.392 . S
C551 C553 1.384 . S
H552 C554 0.949 . S
C553 C551 1.384 . S
C553 C554 1.385 . S
C553 H555 0.950 . S
C554 C548 1.404 . S
C554 H552 0.949 . S
C554 C553 1.385 . S
H555 C553 0.950 . S
H556 C540 0.951 . S
H557 C542 0.951 . S
H558 C544 0.951 . S
H559 C545 0.950 . S
H560 C546 0.950 . S
H561 C547 0.950 . S
H562 C549 0.950 . S
H563 C550 0.951 . S
C564 C565 1.386 . S
C564 C566 1.383 . S
C564 H580 0.951 . S
C565 C564 1.386 . S
C565 C569 1.383 . S
C566 C564 1.383 . S
C566 C567 1.402 . S
C566 H581 0.951 . S
C567 C566 1.402 . S
C567 C568 1.375 . S
C567 C570 1.481 . S
C568 C567 1.375 . S
C568 C569 1.367 . S
C568 H582 0.951 . S
C569 C565 1.383 . S
C569 C568 1.367 . S
C569 H583 0.950 . S
C570 C567 1.481 . S
C570 C571 1.297 . S
C570 H584 0.950 . S
C571 C570 1.297 . S
C571 C572 1.479 . S
C571 H585 0.950 . S
C572 C571 1.479 . S
C572 C573 1.375 . S
C572 C578 1.404 . S
C573 C572 1.375 . S
C573 C574 1.369 . S
C573 H586 0.950 . S
C574 C573 1.369 . S
C574 C575 1.392 . S
C574 H587 0.951 . S
C575 C574 1.392 . S
C575 C577 1.384 . S
H576 C578 0.949 . S
C577 C575 1.384 . S
C577 C578 1.385 . S
C577 H579 0.950 . S
C578 C572 1.404 . S
C578 H576 0.949 . S
C578 C577 1.385 . S
H579 C577 0.950 . S
H580 C564 0.951 . S
H581 C566 0.951 . S
H582 C568 0.951 . S
H583 C569 0.950 . S
H584 C570 0.950 . S
H585 C571 0.950 . S
H586 C573 0.950 . S
H587 C574 0.951 . S
C588 C589 1.386 . S
C588 C590 1.383 . S
C588 H604 0.951 . S
C589 C588 1.386 . S
C589 C593 1.383 . S
C590 C588 1.383 . S
C590 C591 1.402 . S
C590 H605 0.951 . S
C591 C590 1.402 . S
C591 C592 1.375 . S
C591 C594 1.481 . S
C592 C591 1.375 . S
C592 C593 1.367 . S
C592 H606 0.951 . S
C593 C589 1.383 . S
C593 C592 1.367 . S
C593 H607 0.950 . S
C594 C591 1.481 . S
C594 C595 1.297 . S
C594 H608 0.950 . S
C595 C594 1.297 . S
C595 C596 1.479 . S
C595 H609 0.950 . S
C596 C595 1.479 . S
C596 C597 1.375 . S
C596 C602 1.404 . S
C597 C596 1.375 . S
C597 C598 1.369 . S
C597 H610 0.950 . S
C598 C597 1.369 . S
C598 C599 1.392 . S
C598 H611 0.951 . S
C599 C598 1.392 . S
C599 C601 1.384 . S
H600 C602 0.949 . S
C601 C599 1.384 . S
C601 C602 1.385 . S
C601 H603 0.950 . S
C602 C596 1.404 . S
C602 H600 0.949 . S
C602 C601 1.385 . S
H603 C601 0.950 . S
H604 C588 0.951 . S
H605 C590 0.951 . S
H606 C592 0.951 . S
H607 C593 0.950 . S
H608 C594 0.950 . S
H609 C595 0.950 . S
H610 C597 0.950 . S
H611 C598 0.951 . S
C181 C16 0.890 . S
C191 C27 0.889 . S
C205 C57 0.892 . S
C215 C46 0.881 . S
C229 C87 0.887 . S
C239 C76 0.880 . S
C253 C106 0.890 . S
C263 C117 0.878 . S
C277 C147 0.892 . S
C287 C136 0.883 . S
C301 C177 0.890 . S
C311 C166 0.877 . S
C325 C1 1.919 . S
C335 C151 1.937 . S
C349 N6 1.557 . S
C359 N36 1.616 . S
C373 C61 1.910 . S
C383 C31 1.953 . S
C397 N96 1.579 . S
C407 N66 1.521 . S
C421 C121 1.912 . S
C431 C91 1.952 . S
C445 N126 1.609 . S
C455 N156 1.548 . S
C469 C10 1.860 . S
C479 N134 1.711 . S
C493 N44 1.745 . S
C503 C160 1.864 . S
C517 C70 1.843 . S
C527 N14 1.711 . S
C541 N104 1.690 1_556 S
C551 C40 1.820 . S
C565 C130 1.863 . S
C575 N74 1.735 . S
C589 C100 1.859 . S
C599 N164 1.704 . S
