# Generated by pormake.
# Topology snw, (6)-cn, num edge types: 1
# Building blocks:
#     Node 0, Type 0, BuildingBlock: MIDCAF_clean_sbu_0, # of connection points: 6
#     Node 1, Type 0, BuildingBlock: MIDCAF_clean_sbu_0, # of connection points: 6
#     Node 2, Type 0, BuildingBlock: MIDCAF_clean_sbu_0, # of connection points: 6
#     Node 3, Type 0, BuildingBlock: MIDCAF_clean_sbu_0, # of connection points: 6
#     Node 4, Type 0, BuildingBlock: MIDCAF_clean_sbu_0, # of connection points: 6
#     Node 5, Type 0, BuildingBlock: MIDCAF_clean_sbu_0, # of connection points: 6
#     Node 6, Type 0, BuildingBlock: MIDCAF_clean_sbu_0, # of connection points: 6
#     Node 7, Type 0, BuildingBlock: MIDCAF_clean_sbu_0, # of connection points: 6
#     Edge 8, Type (0, 0), BuildingBlock: ZUJKAS_clean_linker_0, # of connection points: 2
#     Edge 9, Type (0, 0), BuildingBlock: ZUJKAS_clean_linker_0, # of connection points: 2
#     Edge 10, Type (0, 0), BuildingBlock: ZUJKAS_clean_linker_0, # of connection points: 2
#     Edge 11, Type (0, 0), BuildingBlock: ZUJKAS_clean_linker_0, # of connection points: 2
#     Edge 12, Type (0, 0), BuildingBlock: ZUJKAS_clean_linker_0, # of connection points: 2
#     Edge 13, Type (0, 0), BuildingBlock: ZUJKAS_clean_linker_0, # of connection points: 2
#     Edge 14, Type (0, 0), BuildingBlock: ZUJKAS_clean_linker_0, # of connection points: 2
#     Edge 15, Type (0, 0), BuildingBlock: ZUJKAS_clean_linker_0, # of connection points: 2
#     Edge 16, Type (0, 0), BuildingBlock: ZUJKAS_clean_linker_0, # of connection points: 2
#     Edge 17, Type (0, 0), BuildingBlock: ZUJKAS_clean_linker_0, # of connection points: 2
#     Edge 18, Type (0, 0), BuildingBlock: ZUJKAS_clean_linker_0, # of connection points: 2
#     Edge 19, Type (0, 0), BuildingBlock: ZUJKAS_clean_linker_0, # of connection points: 2
#     Edge 20, Type (0, 0), BuildingBlock: ZUJKAS_clean_linker_0, # of connection points: 2
#     Edge 21, Type (0, 0), BuildingBlock: ZUJKAS_clean_linker_0, # of connection points: 2
#     Edge 22, Type (0, 0), BuildingBlock: ZUJKAS_clean_linker_0, # of connection points: 2
#     Edge 23, Type (0, 0), BuildingBlock: ZUJKAS_clean_linker_0, # of connection points: 2
#     Edge 24, Type (0, 0), BuildingBlock: ZUJKAS_clean_linker_0, # of connection points: 2
#     Edge 25, Type (0, 0), BuildingBlock: ZUJKAS_clean_linker_0, # of connection points: 2
#     Edge 26, Type (0, 0), BuildingBlock: ZUJKAS_clean_linker_0, # of connection points: 2
#     Edge 27, Type (0, 0), BuildingBlock: ZUJKAS_clean_linker_0, # of connection points: 2
#     Edge 28, Type (0, 0), BuildingBlock: ZUJKAS_clean_linker_0, # of connection points: 2
#     Edge 29, Type (0, 0), BuildingBlock: ZUJKAS_clean_linker_0, # of connection points: 2
#     Edge 30, Type (0, 0), BuildingBlock: ZUJKAS_clean_linker_0, # of connection points: 2
#     Edge 31, Type (0, 0), BuildingBlock: ZUJKAS_clean_linker_0, # of connection points: 2
# Relax obj value: 0.252
# Max RMSD: 0.249
# Mean RMSD: 0.249
data_MOF--net-snw--node1-MIDCAF_clean_sbu_0--edge1-ZUJKAS_clean_linker_0
_symmetry_space_group_name_H-M    P1
_symmetry_Int_Tables_number       1
_symmetry_cell_setting            triclinic
loop_
_symmetry_equiv_pos_as_xyz
'x, y, z'
_cell_length_a     24.530029
_cell_length_b     24.526061
_cell_length_c     100.50898
_cell_angle_alpha  89.856129
_cell_angle_beta   89.622716
_cell_angle_gamma 89.851292
loop_
_atom_site_label
_atom_site_type_symbol
_atom_site_fract_x
_atom_site_fract_y
_atom_site_fract_z
_atom_type_partial_charge
Zn0 Zn 0.98339 0.36082 0.06951 0.0
Zn1 Zn 0.98184 0.14808 0.06711 0.0
Zn2 Zn 0.98082 0.25496 0.06693 0.0
C3 C 0.88403 0.17802 0.079 0.0
C4 C 0.07375 0.17704 0.08062 0.0
O5 O 0.98641 0.28693 0.04629 0.0
O6 O -0.00292 0.37496 0.05037 0.0
C7 C 0.88262 0.32967 0.07912 0.0
O8 O 0.90375 0.22573 0.07652 0.0
O9 O 0.9107 0.13578 0.07592 0.0
O10 O 0.05035 0.13431 0.07672 0.0
O11 O 0.05313 0.22436 0.07808 0.0
O12 O 0.90982 0.37238 0.07696 0.0
O13 O 0.90272 0.28249 0.07622 0.0
O14 O 0.05432 0.28105 0.07853 0.0
O15 O 0.04481 0.36981 0.08169 0.0
C16 C 0.07131 0.32638 0.08351 0.0
O17 O 0.98445 0.22936 0.04565 0.0
O18 O 0.98432 0.13938 0.04779 0.0
C19 C 0.9946 0.33609 0.04218 0.0
C20 C 0.98526 0.18125 0.0405 0.0
Zn21 Zn 0.16402 0.75231 0.31727 0.0
Zn22 Zn 0.89502 0.76395 0.321 0.0
Zn23 Zn 0.99468 0.75253 0.31631 0.0
C24 C 0.94681 0.84888 0.33386 0.0
C25 C 0.915 0.66203 0.33046 0.0
O26 O 0.02025 0.75098 0.2954 0.0
O27 O 0.09105 0.74639 0.30786 0.0
C28 C 0.09432 0.84277 0.32886 0.0
O29 O 0.98772 0.82864 0.32752 0.0
O30 O 0.90104 0.82558 0.33357 0.0
O31 O 0.87385 0.69138 0.32811 0.0
O32 O 0.96299 0.67895 0.32716 0.0
O33 O 0.14162 0.82326 0.32609 0.0
O34 O 0.04844 0.81925 0.32572 0.0
O35 O 0.01723 0.67379 0.32478 0.0
O36 O 0.09545 0.70917 0.32086 0.0
C37 C 0.06884 0.66886 0.32523 0.0
O38 O 0.96152 0.75912 0.29598 0.0
O39 O 0.87765 0.7811 0.30218 0.0
C40 C 0.07213 0.75054 0.29623 0.0
C41 C 0.91253 0.77341 0.29307 0.0
Zn42 Zn 0.49301 0.63741 0.56664 0.0
Zn43 Zn 0.49217 0.84059 0.56883 0.0
Zn44 Zn 0.49189 0.7396 0.56604 0.0
C45 C 0.57742 0.80957 0.58381 0.0
C46 C 0.39122 0.81245 0.57731 0.0
O47 O 0.48894 0.71453 0.54479 0.0
O48 O 0.46792 0.62799 0.5482 0.0
C49 C 0.59396 0.66374 0.57495 0.0
O50 O 0.56586 0.76572 0.57735 0.0
O51 O 0.54583 0.85012 0.58323 0.0
O52 O 0.41463 0.85476 0.57304 0.0
O53 O 0.41539 0.76579 0.57644 0.0
O54 O 0.57088 0.62242 0.57017 0.0
O55 O 0.56903 0.71007 0.57522 0.0
O56 O 0.41789 0.70866 0.57676 0.0
O57 O 0.4389 0.62257 0.58083 0.0
C58 C 0.40661 0.66228 0.58221 0.0
O59 O 0.49487 0.77247 0.5454 0.0
O60 O 0.51765 0.85684 0.5506 0.0
C61 C 0.47465 0.66752 0.54032 0.0
C62 C 0.51014 0.82068 0.5419 0.0
Zn63 Zn 0.65494 0.23198 0.81853 0.0
Zn64 Zn 0.38841 0.27043 0.81939 0.0
Zn65 Zn 0.48649 0.25142 0.81605 0.0
C66 C 0.44283 0.34189 0.83585 0.0
C67 C 0.39574 0.16238 0.82565 0.0
O68 O 0.51598 0.25856 0.79537 0.0
O69 O 0.58455 0.24091 0.80785 0.0
C70 C 0.591 0.32107 0.83292 0.0
O71 O 0.48398 0.32154 0.82962 0.0
O72 O 0.39549 0.3242 0.83373 0.0
O73 O 0.35884 0.19776 0.82416 0.0
O74 O 0.44599 0.17541 0.82354 0.0
O75 O 0.63617 0.29645 0.8304 0.0
O76 O 0.54377 0.30645 0.82818 0.0
O77 O 0.50068 0.16911 0.8237 0.0
O78 O 0.57931 0.2014 0.81914 0.0
C79 C 0.55207 0.16268 0.82407 0.0
O80 O 0.45829 0.26933 0.79559 0.0
O81 O 0.3757 0.29791 0.80112 0.0
C82 C 0.56751 0.25303 0.79635 0.0
C83 C 0.41176 0.28959 0.79233 0.0
Zn84 Zn 0.99266 0.57092 0.90436 0.0
Zn85 Zn 0.0105 0.85975 0.90804 0.0
Zn86 Zn 0.00216 0.76133 0.90806 0.0
C87 C 0.92224 0.83861 0.89181 0.0
C88 C 0.10988 0.82563 0.89867 0.0
O89 O 0.99536 0.71969 0.92745 0.0
O90 O 0.9941 0.64817 0.91458 0.0
C91 C 0.92775 0.68149 0.8958 0.0
O92 O 0.93114 0.79064 0.89656 0.0
O93 O 0.95443 0.87713 0.89446 0.0
O94 O 0.08843 0.86862 0.9032 0.0
O95 O 0.08276 0.78068 0.89891 0.0
O96 O 0.96593 0.65311 0.90105 0.0
O97 O 0.93172 0.73334 0.89684 0.0
O98 O 0.07287 0.72477 0.89825 0.0
O99 O 0.02925 0.64879 0.90186 0.0
C100 C 0.07158 0.67279 0.89725 0.0
O101 O 0.99611 0.7785 0.92954 0.0
O102 O 0.99017 0.86789 0.92699 0.0
C103 C 0.99234 0.66764 0.9264 0.0
C104 C 0.98907 0.82639 0.93444 0.0
Zn105 Zn 0.58695 0.74785 0.15253 0.0
Zn106 Zn 0.38125 0.74909 0.15828 0.0
Zn107 Zn 0.48553 0.74842 0.15731 0.0
C108 C 0.40416 0.66176 0.14281 0.0
C109 C 0.40797 0.85063 0.14928 0.0
O110 O 0.52291 0.74941 0.17732 0.0
O111 O 0.60719 0.76805 0.17086 0.0
C112 C 0.55462 0.64887 0.14381 0.0
O113 O 0.45177 0.67491 0.14715 0.0
O114 O 0.36383 0.69261 0.14495 0.0
O115 O 0.3669 0.82681 0.15413 0.0
O116 O 0.45452 0.82621 0.1488 0.0
O117 O 0.59866 0.6716 0.147 0.0
O118 O 0.50867 0.67283 0.14615 0.0
O119 O 0.51004 0.82388 0.14616 0.0
O120 O 0.59318 0.80561 0.13884 0.0
C121 C 0.55252 0.83714 0.13923 0.0
O122 O 0.46534 0.74446 0.17888 0.0
O123 O 0.37724 0.72686 0.17716 0.0
C124 C 0.57255 0.76184 0.18008 0.0
C125 C 0.41914 0.73209 0.18426 0.0
Zn126 Zn 0.50423 0.14209 0.40241 0.0
Zn127 Zn 0.51362 0.35218 0.40495 0.0
Zn128 Zn 0.5081 0.24498 0.40603 0.0
C129 C 0.4216 0.32654 0.39115 0.0
C130 C 0.60925 0.31735 0.39396 0.0
O131 O 0.50036 0.21225 0.42649 0.0
O132 O 0.48091 0.12726 0.42096 0.0
C133 C 0.4185 0.17852 0.38833 0.0
O134 O 0.437 0.27871 0.39495 0.0
O135 O 0.44918 0.36807 0.39405 0.0
O136 O 0.58499 0.36155 0.39641 0.0
O137 O 0.58675 0.27119 0.39677 0.0
O138 O 0.4476 0.13609 0.3886 0.0
O139 O 0.43355 0.22159 0.39467 0.0
O140 O 0.58539 0.21453 0.39642 0.0
O141 O 0.58036 0.12468 0.39754 0.0
C142 C 0.60692 0.16699 0.39458 0.0
O143 O 0.5049 0.27055 0.42719 0.0
O144 O 0.50922 0.3602 0.42443 0.0
C145 C 0.48609 0.16348 0.42976 0.0
C146 C 0.50609 0.31919 0.432 0.0
Zn147 Zn 0.09443 0.22574 0.65526 0.0
Zn148 Zn 0.88409 0.23913 0.65726 0.0
Zn149 Zn 0.9884 0.23544 0.65807 0.0
C150 C 0.90864 0.14906 0.64287 0.0
C151 C 0.91696 0.33681 0.64671 0.0
O152 O 0.01949 0.23749 0.67872 0.0
O153 O 0.10779 0.22739 0.67457 0.0
C154 C 0.05626 0.13253 0.64468 0.0
O155 O 0.95519 0.16172 0.64791 0.0
O156 O 0.8684 0.18066 0.64429 0.0
O157 O 0.87435 0.31571 0.65154 0.0
O158 O 0.96294 0.31137 0.6475 0.0
O159 O 0.10174 0.15485 0.64651 0.0
O160 O 0.01166 0.15666 0.64823 0.0
O161 O 0.01996 0.30821 0.64711 0.0
O162 O 0.10826 0.29201 0.64462 0.0
C163 C 0.06745 0.32241 0.64275 0.0
O164 O 0.9614 0.2371 0.67923 0.0
O165 O 0.87343 0.22186 0.67629 0.0
C166 C 0.06902 0.23304 0.68277 0.0
C167 C 0.91344 0.22753 0.68399 0.0
H168 H 0.92571 0.31071 0.02181 0.0
H169 H 0.923 0.35688 -0.0 0.0
H170 H 0.07217 0.44086 0.00927 0.0
H171 H 0.07427 0.39606 0.031 0.0
H172 H 0.92224 0.47945 -0.00043 0.0
H173 H 0.09012 0.38846 0.96957 0.0
H174 H 0.05667 0.35226 0.98301 0.0
H175 H 0.10653 0.40355 0.98658 0.0
C176 C 0.95883 0.33749 0.01893 0.0
C177 C 0.00035 0.34979 0.02798 0.0
C178 C 0.95705 0.36413 0.00656 0.0
C179 C -0.00253 0.40221 0.00305 0.0
C180 C 0.04094 0.41127 0.01173 0.0
H181 H 0.00684 0.69126 0.95293 0.0
H182 H 0.00464 0.62657 0.9717 0.0
C183 C 0.04217 0.38557 0.02411 0.0
C184 C 0.99161 0.43763 -0.00882 0.0
H185 H 0.05509 0.4739 0.96217 0.0
C186 C 0.95079 0.47788 -0.00871 0.0
C187 C 0.02914 0.43562 0.98047 0.0
C188 C 0.07292 0.39243 0.97977 0.0
C189 C 0.94743 0.51715 0.98112 0.0
C190 C 0.9861 0.51624 0.97063 0.0
C191 C 0.02591 0.47496 0.97032 0.0
C192 C 0.98491 0.5565 0.9596 0.0
C193 C 0.90259 0.55929 0.98163 0.0
C194 C 0.97445 0.5386 0.94666 0.0
C195 C 0.97558 0.57521 0.93603 0.0
C196 C 0.98786 0.63059 0.93803 0.0
C197 C -0.0027 0.64888 0.95106 0.0
C198 C 0.99596 0.61201 0.96177 0.0
H199 H 0.87 0.54801 -0.01115 0.0
H200 H 0.91996 0.599 0.98471 0.0
H201 H 0.88411 0.56483 0.97166 0.0
H202 H 0.96554 0.49607 0.94477 0.0
H203 H 0.96691 0.55975 0.92622 0.0
H204 H 0.63164 0.84465 0.18969 0.0
H205 H 0.68923 0.84233 0.2094 0.0
H206 H 0.6205 0.68703 0.22058 0.0
H207 H 0.56146 0.68988 0.20082 0.0
H208 H 0.644 0.7583 0.24251 0.0
H209 H 0.82035 0.73645 0.20822 0.0
H210 H 0.77898 0.79501 0.20457 0.0
H211 H 0.75076 0.72775 0.20289 0.0
C212 C 0.62745 0.81092 0.19661 0.0
C213 C 0.59234 0.7674 0.19378 0.0
C214 C 0.66084 0.80929 0.20775 0.0
C215 C 0.66043 0.76368 0.21617 0.0
C216 C 0.62186 0.72227 0.21407 0.0
H217 H 0.92568 0.69944 0.27294 0.0
H218 H 0.86653 0.69262 0.2533 0.0
C219 C 0.5878 0.72416 0.2029 0.0
C220 C 0.70282 0.7584 0.22655 0.0
H221 H 0.84106 0.75939 0.23079 0.0
C222 C 0.68704 0.7579 0.23996 0.0
C223 C 0.75903 0.75666 0.22319 0.0
C224 C 0.77839 0.75341 0.20893 0.0
C225 C 0.72606 0.75875 0.25012 0.0
C226 C 0.78223 0.76114 0.24674 0.0
C227 C 0.79804 0.75854 0.23335 0.0
C228 C 0.82454 0.76888 0.25703 0.0
C229 C 0.70677 0.75758 0.26441 0.0
C230 C 0.82303 0.81562 0.26502 0.0
C231 C 0.85658 0.81954 0.2761 0.0
C232 C 0.89291 0.77721 0.27929 0.0
C233 C 0.89848 0.73289 0.27057 0.0
C234 C 0.8643 0.72871 0.25947 0.0
H235 H 0.66527 0.73985 0.26532 0.0
H236 H 0.73506 0.73363 0.27074 0.0
H237 H 0.70505 0.79988 0.26829 0.0
H238 H 0.7937 0.84775 0.2631 0.0
H239 H 0.85152 0.85406 0.28271 0.0
H240 H 0.55721 0.66939 0.52226 0.0
H241 H 0.5618 0.60991 0.50265 0.0
H242 H 0.39145 0.57147 0.50763 0.0
H243 H 0.38709 0.63023 0.52719 0.0
H244 H 0.53692 0.49678 0.5074 0.0
H245 H 0.41015 0.58251 0.46681 0.0
H246 H 0.43844 0.62423 0.47984 0.0
H247 H 0.37884 0.58371 0.48302 0.0
C248 C 0.52012 0.65077 0.51866 0.0
C249 C 0.47159 0.65492 0.52607 0.0
C250 C 0.52292 0.61616 0.5076 0.0
C251 C 0.47697 0.58615 0.5037 0.0
C252 C 0.42719 0.59472 0.51032 0.0
H253 H 0.41656 0.32402 0.44788 0.0
H254 H 0.40893 0.38281 0.46753 0.0
C255 C 0.42458 0.6287 0.52144 0.0
C256 C 0.4826 0.5399 0.49429 0.0
H257 H 0.43523 0.48923 0.46498 0.0
C258 C 0.5151 0.49527 0.49805 0.0
C259 C 0.45323 0.53756 0.48226 0.0
C260 C 0.41849 0.58469 0.47765 0.0
C261 C 0.51857 0.44808 0.49018 0.0
C262 C 0.48962 0.44587 0.47807 0.0
C263 C 0.45703 0.49058 0.47433 0.0
C264 C 0.49539 0.39962 0.4686 0.0
C265 C 0.55228 0.40065 0.49508 0.0
C266 C 0.54674 0.38698 0.46316 0.0
C267 C 0.55108 0.35264 0.45213 0.0
C268 C 0.50422 0.33056 0.44631 0.0
C269 C 0.4534 0.3392 0.45244 0.0
C270 C 0.44899 0.37355 0.46352 0.0
H271 H 0.556 0.40106 0.50609 0.0
H272 H 0.53443 0.36108 0.49203 0.0
H273 H 0.59398 0.40362 0.4908 0.0
H274 H 0.583 0.40734 0.46667 0.0
H275 H 0.59045 0.34801 0.44729 0.0
H276 H 0.67551 0.27458 0.79805 0.0
H277 H 0.74306 0.27611 0.78025 0.0
H278 H 0.61654 0.24908 0.75143 0.0
H279 H 0.54791 0.24762 0.76942 0.0
H280 H 0.76595 0.19012 0.76359 0.0
H281 H 0.70579 0.3739 0.73481 0.0
H282 H 0.68154 0.36103 0.75153 0.0
H283 H 0.65161 0.32606 0.7377 0.0
C284 C 0.66178 0.26911 0.78794 0.0
C285 C 0.6064 0.26018 0.78516 0.0
C286 C 0.70057 0.27026 0.77775 0.0
C287 C 0.685 0.26279 0.76451 0.0
C288 C 0.62941 0.25568 0.76158 0.0
H289 H 0.85887 0.14889 0.69706 0.0
H290 H 0.81229 0.15832 0.71845 0.0
C291 C 0.59027 0.25471 0.77184 0.0
C292 C 0.72776 0.25888 0.75401 0.0
H293 H 0.77245 0.31575 0.72488 0.0
C294 C 0.76759 0.21787 0.75518 0.0
C295 C 0.73046 0.29562 0.74316 0.0
C296 C 0.69042 0.342 0.74173 0.0
C297 C 0.8089 0.21148 0.74557 0.0
C298 C 0.8102 0.2467 0.73443 0.0
C299 C 0.7715 0.28885 0.73347 0.0
C300 C 0.84735 0.23693 0.72296 0.0
C301 C 0.85058 0.16678 0.74736 0.0
C302 C 0.88412 0.27718 0.71858 0.0
C303 C 0.91166 0.27134 0.70638 0.0
C304 C 0.90174 0.22571 0.69835 0.0
C305 C 0.86777 0.18403 0.70319 0.0
C306 C 0.84099 0.18948 0.71539 0.0
H307 H 0.85421 0.15458 0.75797 0.0
H308 H 0.83779 0.13041 0.74164 0.0
H309 H 0.89128 0.17969 0.74363 0.0
H310 H 0.88935 0.31424 0.72426 0.0
H311 H 0.9368 0.30447 0.70271 0.0
H312 H 0.42367 0.21686 0.7721 0.0
H313 H 0.3644 0.21243 0.75261 0.0
H314 H 0.29899 0.37116 0.76215 0.0
H315 H 0.35677 0.37469 0.78183 0.0
H316 H 0.22016 0.29635 0.76103 0.0
H317 H 0.35032 0.27799 0.71603 0.0
H318 H 0.36779 0.22924 0.72865 0.0
H319 H 0.37663 0.30088 0.73179 0.0
C320 C 0.39864 0.25187 0.76963 0.0
C321 C 0.39484 0.29619 0.77839 0.0
C322 C 0.36447 0.24924 0.75852 0.0
C323 C 0.32696 0.29142 0.75593 0.0
C324 C 0.3273 0.33804 0.76398 0.0
H325 H 0.05762 0.31863 0.69981 0.0
H326 H 0.11553 0.33363 0.71934 0.0
C327 C 0.36078 0.34032 0.77513 0.0
C328 C 0.28255 0.28394 0.7461 0.0
H329 H 0.25684 0.25218 0.71372 0.0
C330 C 0.22821 0.2873 0.75064 0.0
C331 C 0.29296 0.27193 0.73258 0.0
C332 C 0.35008 0.27032 0.72693 0.0
C333 C 0.18416 0.27766 0.7421 0.0
C334 C 0.1947 0.26453 0.72867 0.0
C335 C 0.24891 0.26188 0.72408 0.0
C336 C 0.15053 0.25247 0.71913 0.0
C337 C 0.12677 0.28006 0.74756 0.0
C338 C 0.14914 0.20127 0.71298 0.0
C339 C 0.11612 0.19276 0.70195 0.0
C340 C 0.08381 0.23523 0.69689 0.0
C341 C 0.0812 0.28492 0.70375 0.0
C342 C 0.11463 0.2936 0.71482 0.0
H343 H 0.12594 0.28041 0.75861 0.0
H344 H 0.10662 0.31781 0.74395 0.0
H345 H 0.10266 0.24478 0.744 0.0
H346 H 0.1764 0.16901 0.71616 0.0
H347 H 0.11943 0.15443 0.69665 0.0
H348 H 0.43484 0.81199 0.20252 0.0
H349 H 0.38569 0.81828 0.22387 0.0
H350 H 0.32995 0.65287 0.2192 0.0
H351 H 0.37826 0.6469 0.19793 0.0
H352 H 0.26932 0.80424 0.2232 0.0
H353 H 0.36542 0.6626 0.25928 0.0
H354 H 0.40168 0.68995 0.24505 0.0
H355 H 0.35516 0.63415 0.24303 0.0
C356 C 0.41453 0.77616 0.20644 0.0
C357 C 0.41084 0.72871 0.19873 0.0
C358 C 0.38587 0.77997 0.21853 0.0
C359 C 0.35412 0.73603 0.22311 0.0
C360 C 0.35473 0.68699 0.21597 0.0
H361 H 0.05328 0.72529 0.26996 0.0
H362 H 0.12093 0.72495 0.2517 0.0
C363 C 0.38266 0.68345 0.20386 0.0
C364 C 0.31416 0.74339 0.23412 0.0
H365 H 0.27458 0.69163 0.26422 0.0
C366 C 0.27076 0.78008 0.23224 0.0
C367 C 0.31592 0.71159 0.24585 0.0
C368 C 0.36227 0.67265 0.24852 0.0
C369 C 0.22849 0.78502 0.24168 0.0
C370 C 0.22951 0.75215 0.25324 0.0
C371 C 0.27353 0.71632 0.25525 0.0
C372 C 0.18681 0.75603 0.26373 0.0
C373 C 0.18326 0.82557 0.23929 0.0
C374 C 0.20121 0.77426 0.27641 0.0
C375 C 0.16295 0.77458 0.28672 0.0
C376 C 0.10944 0.75607 0.28466 0.0
C377 C 0.09421 0.73976 0.27182 0.0
C378 C 0.13278 0.73952 0.26142 0.0
H379 H 0.19368 0.85484 0.23122 0.0
H380 H 0.1458 0.8034 0.2364 0.0
H381 H 0.17398 0.84877 0.24851 0.0
H382 H 0.24242 0.7877 0.27838 0.0
H383 H 0.17569 0.78898 0.29636 0.0
H384 H 0.40167 0.10701 0.43993 0.0
H385 H 0.4037 0.04966 0.45981 0.0
H386 H 0.56029 0.11659 0.4701 0.0
H387 H 0.55751 0.17531 0.45027 0.0
H388 H 0.48202 0.97138 0.4619 0.0
H389 H 0.48586 0.10531 0.50628 0.0
H390 H 0.46437 0.12936 0.49015 0.0
H391 H 0.5357 0.12256 0.49381 0.0
C392 C 0.43531 0.11131 0.44678 0.0
C393 C 0.47924 0.14578 0.44367 0.0
C394 C 0.43671 0.07811 0.45806 0.0
C395 C 0.48225 0.07847 0.46641 0.0
C396 C 0.52434 0.11612 0.46391 0.0
H397 H 0.5933 0.87649 0.53092 0.0
H398 H 0.58852 0.93355 0.51103 0.0
C399 C 0.52265 0.14994 0.45263 0.0
C400 C 0.48839 0.03489 0.4766 0.0
H401 H 0.50787 0.01187 0.50971 0.0
C402 C 0.48733 0.98022 0.47238 0.0
C403 C 0.49554 0.04641 0.49024 0.0
C404 C 0.49497 0.10405 0.49544 0.0
C405 C 0.49409 0.93685 0.48139 0.0
C406 C 0.50155 0.94841 0.49501 0.0
C407 C 0.5024 0.00305 0.49924 0.0
C408 C 0.50894 0.9049 0.50515 0.0
C409 C 0.49448 0.87916 0.47622 0.0
C410 C 0.46712 0.86741 0.50804 0.0
C411 C 0.47033 0.83379 0.51933 0.0
C412 C 0.51502 0.83801 0.52791 0.0
C413 C 0.55864 0.8722 0.52438 0.0
C414 C 0.55569 0.90523 0.51309 0.0
H415 H 0.50183 0.87777 0.4653 0.0
H416 H 0.52623 0.85437 0.48125 0.0
H417 H 0.4543 0.86015 0.47829 0.0
H418 H 0.43034 0.86693 0.50215 0.0
H419 H 0.43573 0.80858 0.52202 0.0
H420 H 0.89936 0.17194 0.02405 0.0
H421 H 0.89888 0.10995 0.00496 0.0
H422 H 0.07414 0.09902 0.00647 0.0
H423 H 0.07452 0.1607 0.0256 0.0
H424 H 0.9571 0.09647 0.97898 0.0
H425 H 0.01339 0.9451 0.01787 0.0
H426 H 0.98799 0.0123 0.02185 0.0
H427 H 0.0573 0.00343 0.0164 0.0
C428 C 0.9379 0.15901 0.01976 0.0
C429 C 0.98703 0.17152 0.02614 0.0
C430 C 0.93757 0.12294 0.00899 0.0
C431 C 0.98638 0.09892 0.00456 0.0
C432 C 0.036 0.11664 0.00988 0.0
H433 H 0.06925 0.83297 0.95261 0.0
H434 H 0.06558 0.89555 0.97156 0.0
C435 C 0.03629 0.15266 0.02064 0.0
C436 C 0.98479 0.05032 -0.00416 0.0
H437 H 0.00685 0.91252 -0.00416 0.0
C438 C 0.96783 0.05624 0.98264 0.0
C439 C -0.0015 -0.00218 0.00072 0.0
C440 C 0.01492 0.98887 0.01501 0.0
C441 C 0.96552 0.01117 0.97406 0.0
C442 C 0.97921 0.95859 0.97894 0.0
C443 C 0.99601 0.95271 -0.00784 0.0
C444 C 0.97874 0.90999 0.97017 0.0
C445 C 0.94992 0.02051 0.95972 0.0
C446 C 0.93048 0.89379 0.9639 0.0
C447 C 0.93255 0.8577 0.95317 0.0
C448 C 0.98276 0.83681 0.94871 0.0
C449 C 0.02991 0.84752 0.95608 0.0
C450 C 0.02793 0.88395 0.96677 0.0
H451 H 0.95303 0.06419 0.95686 0.0
H452 H 0.97626 -0.00378 0.95293 0.0
H453 H 0.90708 0.00754 0.95826 0.0
H454 H 0.89192 0.91257 0.96657 0.0
H455 H 0.89587 0.85092 0.94746 0.0
H456 H 0.37915 0.94134 0.16283 0.0
H457 H 0.34479 0.02669 0.15327 0.0
H458 H 0.38108 0.96666 0.11386 0.0
H459 H 0.41858 0.88265 0.12353 0.0
H460 H 0.38872 0.07854 0.115 0.0
H461 H 0.19471 0.00789 0.13829 0.0
H462 H 0.2481 0.02223 0.14985 0.0
H463 H 0.25556 0.96675 0.13828 0.0
C464 C 0.38148 0.94743 0.15216 0.0
C465 C 0.40078 0.90572 0.14385 0.0
C466 C 0.36157 0.9959 0.1467 0.0
C467 C 0.35855 0.00221 0.13284 0.0
C468 C 0.38255 0.96249 0.12459 0.0
H469 H 0.1617 0.11862 0.0731 0.0
H470 H 0.24015 0.09392 0.0867 0.0
C471 C 0.40384 0.91453 0.13008 0.0
C472 C 0.32346 0.04519 0.12693 0.0
H473 H 0.19018 0.08446 0.12464 0.0
C474 C 0.34545 0.08043 0.11725 0.0
C475 C 0.26683 0.04761 0.12983 0.0
C476 C 0.23967 0.00887 0.13953 0.0
C477 C 0.31195 0.11652 0.11008 0.0
C478 C 0.25522 0.1171 0.11263 0.0
C479 C 0.23383 0.08428 0.12282 0.0
C480 C 0.21584 0.14344 0.10353 0.0
C481 C 0.33714 0.15257 0.09955 0.0
C482 C 0.17637 0.1801 0.10841 0.0
C483 C 0.13132 0.19418 0.10061 0.0
C484 C 0.12517 0.17136 0.08792 0.0
C485 C 0.16596 0.13694 0.08284 0.0
C486 C 0.21105 0.12332 0.09054 0.0
H487 H 0.38073 0.1608 0.10169 0.0
H488 H 0.33504 0.13169 0.08979 0.0
H489 H 0.31497 0.19199 0.09875 0.0
H490 H 0.17893 0.19541 0.11849 0.0
H491 H 0.09985 0.22024 0.10477 0.0
H492 H 0.0549 0.86853 0.35354 0.0
H493 H 0.07174 0.95341 0.36578 0.0
H494 H 0.15615 0.0185 0.33143 0.0
H495 H 0.13655 0.93562 0.31914 0.0
H496 H 0.16748 0.9798 0.37238 0.0
H497 H 0.09264 0.15611 0.34441 0.0
H498 H 0.06749 0.08818 0.3413 0.0
H499 H 0.12769 0.11313 0.33281 0.0
C500 C 0.0747 0.90223 0.34849 0.0
C501 C 0.09365 0.89633 0.33537 0.0
C502 C 0.08455 0.95056 0.35547 0.0
C503 C 0.11457 0.99308 0.34951 0.0
C504 C 0.1312 0.98763 0.33617 0.0
H505 H 0.39733 0.13893 0.36382 0.0
H506 H 0.3084 0.10991 0.35558 0.0
C507 C 0.12067 0.93985 0.32918 0.0
C508 C 0.13881 0.03718 0.35769 0.0
H509 H 0.18474 0.16818 0.35481 0.0
C510 C 0.16932 0.02158 0.36886 0.0
C511 C 0.14114 0.09206 0.35328 0.0
C512 C 0.10484 0.11326 0.34238 0.0
C513 C 0.2066 0.05734 0.37469 0.0
C514 C 0.21388 0.10985 0.36916 0.0
C515 C 0.17966 0.1275 0.35889 0.0
C516 C 0.2631 0.14164 0.3724 0.0
C517 C 0.24171 0.03716 0.38597 0.0
C518 C 0.26651 0.17126 0.38429 0.0
C519 C 0.31739 0.18836 0.38895 0.0
C520 C 0.36512 0.1756 0.38179 0.0
C521 C 0.36098 0.14961 0.36943 0.0
C522 C 0.31027 0.13319 0.36471 0.0
H523 H 0.22929 -0.00392 0.38953 0.0
H524 H 0.28494 0.03524 0.38266 0.0
H525 H 0.23924 0.06602 0.39444 0.0
H526 H 0.23056 0.17749 0.39042 0.0
H527 H 0.31985 0.20715 0.39866 0.0
H528 H 0.05044 0.10887 0.61848 0.0
H529 H 0.08047 0.02358 0.60818 0.0
H530 H 0.09487 0.9498 0.64704 0.0
H531 H 0.0664 0.03591 0.6573 0.0
H532 H 0.18913 0.95337 0.63458 0.0
H533 H 0.03989 0.86905 0.59949 0.0
H534 H 0.04806 0.94084 0.59682 0.0
H535 H 0.02067 0.91658 0.61242 0.0
C536 C 0.05766 0.07356 0.62473 0.0
C537 C 0.05598 0.07834 0.63861 0.0
C538 C 0.07447 0.02465 0.61886 0.0
C539 C 0.08965 0.97996 0.62682 0.0
C540 C 0.08305 0.98353 0.64069 0.0
H541 H 0.35493 0.76339 0.60015 0.0
H542 H 0.27177 0.78583 0.61273 0.0
C543 C 0.06676 0.03258 0.64655 0.0
C544 C 0.12388 0.93593 0.62101 0.0
H545 H 0.1362 0.85276 0.59397 0.0
C546 C 0.177 0.93002 0.62594 0.0
C547 C 0.10818 0.90575 0.60971 0.0
C548 C 0.05085 0.908 0.60441 0.0
C549 C 0.21622 0.89854 0.61927 0.0
C550 C 0.20157 0.87098 0.60746 0.0
C551 C 0.14739 0.87386 0.60301 0.0
C552 C 0.24385 0.84668 0.59866 0.0
C553 C 0.27408 0.8989 0.62434 0.0
C554 C 0.25384 0.87077 0.58621 0.0
C555 C 0.30036 0.85694 0.5789 0.0
C556 C 0.33763 0.81855 0.58386 0.0
C557 C 0.32614 0.79211 0.59596 0.0
C558 C 0.27904 0.80543 0.60322 0.0
H559 H 0.28023 0.92989 0.63223 0.0
H560 H 0.28401 0.85836 0.62862 0.0
H561 H 0.30332 0.9073 0.61612 0.0
H562 H 0.22741 0.9028 0.58251 0.0
H563 H 0.3085 0.8781 0.56962 0.0
H564 H 0.14903 0.76438 0.87821 0.0
H565 H 0.2279 0.78408 0.86405 0.0
H566 H 0.26601 0.92171 0.88898 0.0
H567 H 0.18963 0.89945 0.90349 0.0
H568 H 0.2262 0.87084 0.85012 0.0
H569 H 0.41629 0.8817 0.87824 0.0
H570 H 0.3578 0.84478 0.88451 0.0
H571 H 0.36529 0.91681 0.88773 0.0
C572 C 0.17633 0.79638 0.8811 0.0
C573 C 0.16351 0.8297 0.89199 0.0
C574 C 0.22112 0.80822 0.87292 0.0
C575 C 0.25353 0.85413 0.87547 0.0
C576 C 0.24293 0.88513 0.88694 0.0
H577 H 0.30157 0.13288 0.83792 0.0
H578 H 0.27743 0.04416 0.847 0.0
C579 C 0.19857 0.87286 0.89515 0.0
C580 C 0.2893 0.87725 0.86492 0.0
H581 H 0.40228 0.95707 0.8616 0.0
C582 C 0.26577 0.8878 0.85247 0.0
C583 C 0.34153 0.89864 0.86771 0.0
C584 C 0.37176 0.8842 0.88025 0.0
C585 C 0.28952 0.92484 0.84356 0.0
C586 C 0.33736 0.95254 0.84731 0.0
C587 C 0.36476 0.93669 0.8589 0.0
C588 C 0.35248 0.00463 0.8409 0.0
C589 C 0.26084 0.93739 0.83068 0.0
C590 C 0.40296 0.01183 0.83452 0.0
C591 C 0.41678 0.06281 0.82917 0.0
C592 C 0.38088 0.10737 0.83046 0.0
C593 C 0.33017 0.09948 0.83673 0.0
C594 C 0.31624 0.04873 0.84191 0.0
H595 H 0.23748 0.90152 0.82715 0.0
H596 H 0.2315 0.97128 0.83231 0.0
H597 H 0.29024 0.9499 0.8228 0.0
H598 H 0.43147 0.97819 0.83368 0.0
H599 H 0.45546 0.06731 0.82405 0.0
H600 H 0.91915 0.9054 0.87048 0.0
H601 H 0.83867 0.93769 0.85864 0.0
H602 H 0.73667 0.83335 0.88274 0.0
H603 H 0.81784 0.80056 0.89472 0.0
H604 H 0.74778 0.8766 0.84485 0.0
H605 H 0.68733 -0.00181 0.88946 0.0
H606 H 0.75606 0.97293 0.88741 0.0
H607 H 0.70187 0.92648 0.89124 0.0
C608 C 0.87969 0.88855 0.87309 0.0
C609 C 0.87452 0.85051 0.88347 0.0
C610 C 0.83384 0.90688 0.8663 0.0
C611 C 0.78188 0.8881 0.86988 0.0
C612 C 0.77657 0.8483 0.87988 0.0
H613 H 0.51014 0.09573 0.84343 0.0
H614 H 0.5554 0.0179 0.85412 0.0
C615 C 0.82279 0.82947 0.88663 0.0
C616 C 0.73388 0.91472 0.86384 0.0
H617 H 0.64588 0.0204 0.86925 0.0
C618 C 0.72444 0.90715 0.85023 0.0
C619 C 0.70344 0.95427 0.87092 0.0
C620 C 0.71241 0.96391 0.88557 0.0
C621 C 0.68743 0.94034 0.84333 0.0
C622 C 0.66044 0.98305 0.85018 0.0
C623 C 0.6669 0.98791 0.864 0.0
C624 C 0.63083 0.02687 0.84303 0.0
C625 C 0.67887 0.93035 0.8287 0.0
C626 C 0.65838 0.05815 0.8334 0.0
C627 C 0.63245 0.10201 0.82722 0.0
C628 C 0.57854 0.11571 0.83059 0.0
C629 C 0.55109 0.08491 0.84034 0.0
C630 C 0.57704 0.04078 0.84652 0.0
H631 H 0.68538 0.8867 0.82619 0.0
H632 H 0.63723 0.94249 0.82557 0.0
H633 H 0.70893 0.95453 0.82288 0.0
H634 H 0.70047 0.04939 0.83086 0.0
H635 H 0.65473 0.1253 0.81981 0.0
H636 H 0.95039 0.0483 0.6487 0.0
H637 H 0.92838 0.96148 0.63782 0.0
H638 H 0.82289 0.04744 0.61066 0.0
H639 H 0.84663 0.13359 0.62108 0.0
H640 H 0.83022 0.91707 0.63766 0.0
H641 H 0.89229 0.94122 0.58551 0.0
H642 H 0.91987 0.9834 0.59855 0.0
H643 H 0.85696 0.00194 0.59044 0.0
C644 C 0.92449 0.04861 0.64002 0.0
C645 C 0.90111 0.0976 0.63553 0.0
C646 C 0.91149 -0.00096 0.63391 0.0
C647 C 0.87485 -0.00211 0.62321 0.0
C648 C 0.85265 0.0472 0.61857 0.0
H649 H 0.59094 0.86446 0.60678 0.0
H650 H 0.67636 0.88942 0.61722 0.0
C651 C 0.86567 0.09646 0.62465 0.0
C652 C 0.85272 0.94574 0.61808 0.0
H653 H 0.80412 0.89317 0.58915 0.0
C654 C 0.82606 0.91065 0.62705 0.0
C655 C 0.8488 0.93552 0.60427 0.0
C656 C 0.88169 0.96726 0.59418 0.0
C657 C 0.78977 0.87071 0.62252 0.0
C658 C 0.7787 0.86712 0.60875 0.0
C659 C 0.81113 0.89686 0.59975 0.0
C660 C 0.72745 0.84244 0.60378 0.0
C661 C 0.76124 0.83497 0.6326 0.0
C662 C 0.72725 0.8077 0.59267 0.0
C663 C 0.67795 0.79392 0.58655 0.0
C664 C 0.62833 0.81476 0.59145 0.0
C665 C 0.62856 0.84742 0.60288 0.0
C666 C 0.67749 0.86118 0.60895 0.0
H667 H 0.789 0.82487 0.64094 0.0
H668 H 0.72586 0.85734 0.63686 0.0
H669 H 0.74659 0.79646 0.62807 0.0
H670 H 0.76527 0.79334 0.58839 0.0
H671 H 0.67896 0.76982 0.57754 0.0
H672 H 0.97419 0.94803 0.32358 0.0
H673 H 0.95002 0.03664 0.33346 0.0
H674 H 0.89936 0.95487 0.36951 0.0
H675 H 0.92237 0.86708 0.35961 0.0
H676 H 0.8392 0.04682 0.33981 0.0
H677 H 0.96155 0.0985 0.38376 0.0
H678 H 0.98723 0.05595 0.37042 0.0
H679 H 0.94541 0.0272 0.38345 0.0
C680 C 0.96018 0.94954 0.33382 0.0
C681 C 0.95001 0.90115 0.3409 0.0
C682 C 0.9464 2e-05 0.33944 0.0
C683 C 0.92322 0.00244 0.35226 0.0
C684 C 0.9182 0.95426 0.35973 0.0
H685 H 0.68297 0.09327 0.40199 0.0
H686 H 0.769 0.07211 0.39084 0.0
C687 C 0.93101 0.90402 0.35405 0.0
C688 C 0.89224 0.05113 0.35672 0.0
H689 H 0.86446 0.12274 0.385 0.0
C690 C 0.84553 0.06518 0.34948 0.0
C691 C 0.90078 0.075 0.36929 0.0
C692 C 0.95184 0.06379 0.37711 0.0
C693 C 0.8038 0.09692 0.35517 0.0
C694 C 0.80988 0.11646 0.36834 0.0
C695 C 0.85944 0.10737 0.37497 0.0
C696 C 0.76227 0.13659 0.37617 0.0
C697 C 0.75151 0.10429 0.34751 0.0
C698 C 0.73024 0.18084 0.37188 0.0
C699 C 0.6801 0.19202 0.37809 0.0
C700 C 0.6623 0.16051 0.38895 0.0
C701 C 0.69585 0.11837 0.39367 0.0
C702 C 0.74528 0.10657 0.38736 0.0
H703 H 0.75063 0.07917 0.33833 0.0
H704 H 0.71575 0.09314 0.35377 0.0
H705 H 0.7472 0.14764 0.34452 0.0
H706 H 0.7427 0.20509 0.36339 0.0
H707 H 0.65399 0.2232 0.37394 0.0
H708 H 0.60057 0.85817 0.11551 0.0
H709 H 0.62722 0.9472 0.10674 0.0
H710 H 0.54444 0.02619 0.13942 0.0
H711 H 0.51715 0.93651 0.14825 0.0
H712 H 0.56328 0.05657 0.10155 0.0
H713 H 0.71837 0.05503 0.14193 0.0
H714 H 0.68725 0.99211 0.13669 0.0
H715 H 0.64757 0.04168 0.14558 0.0
C716 C 0.58661 0.89455 0.1206 0.0
C717 C 0.55682 0.89057 0.13253 0.0
C718 C 0.60173 0.94536 0.11558 0.0
C719 C 0.58805 0.99314 0.12248 0.0
C720 C 0.55523 0.9897 0.13395 0.0
H721 H 0.83821 0.23116 0.10042 0.0
H722 H 0.7524 0.20703 0.11187 0.0
C723 C 0.53944 0.93857 0.13893 0.0
C724 C 0.61526 0.04448 0.11848 0.0
H725 H 0.73654 0.10905 0.12317 0.0
C726 C 0.60024 0.06948 0.10648 0.0
C727 C 0.66302 0.0618 0.12502 0.0
C728 C 0.6804 0.03653 0.13803 0.0
C729 C 0.63441 0.10791 0.10028 0.0
C730 C 0.68553 0.12006 0.10601 0.0
C731 C 0.6976 0.09949 0.1187 0.0
C732 C 0.73104 0.14326 0.09798 0.0
C733 C 0.61678 0.13282 0.08727 0.0
C734 C 0.74723 0.11601 0.08634 0.0
C735 C 0.79573 0.12963 0.0799 0.0
C736 C 0.82932 0.17084 0.08491 0.0
C737 C 0.81243 0.19987 0.09624 0.0
C738 C 0.76361 0.18599 0.10279 0.0
H739 H 0.5719 0.13903 0.08716 0.0
H740 H 0.63711 0.17254 0.08539 0.0
H741 H 0.62716 0.10454 0.07902 0.0
H742 H 0.72401 0.08181 0.08264 0.0
H743 H 0.80804 0.10642 0.07121 0.0
H744 H 0.85347 0.42253 0.65364 0.0
H745 H 0.82785 0.49976 0.6396 0.0
H746 H 0.94172 0.4461 0.60945 0.0
H747 H 0.96619 0.36736 0.62336 0.0
H748 H 0.8793 0.58785 0.62488 0.0
H749 H 0.78947 0.426 0.59293 0.0
H750 H 0.81472 0.41153 0.60937 0.0
H751 H 0.86158 0.42254 0.59582 0.0
C752 C 0.87403 0.42799 0.64415 0.0
C753 C 0.91173 0.38908 0.63955 0.0
C754 C 0.85968 0.47234 0.63619 0.0
C755 C 0.88242 0.4783 0.62344 0.0
C756 C 0.92342 0.44195 0.61924 0.0
H757 H 0.68463 0.62799 0.56232 0.0
H758 H 0.76934 0.59712 0.57266 0.0
C759 C 0.93764 0.39725 0.62721 0.0
C760 C 0.85591 0.51623 0.61397 0.0
H761 H 0.76544 0.51555 0.58841 0.0
C762 C 0.85524 0.57239 0.6167 0.0
C763 C 0.82441 0.49588 0.60335 0.0
C764 C 0.82203 0.43573 0.60018 0.0
C765 C 0.82239 0.60853 0.60934 0.0
C766 C 0.78851 0.58755 0.59923 0.0
C767 C 0.79152 0.53183 0.5961 0.0
C768 C 0.74525 0.62028 0.59264 0.0
C769 C 0.82378 0.66849 0.61262 0.0
C770 C 0.70448 0.64604 0.6003 0.0
C771 C 0.65656 0.66475 0.59432 0.0
C772 C 0.64846 0.65703 0.58067 0.0
C773 C 0.69036 0.63445 0.57288 0.0
C774 C 0.73865 0.61687 0.57879 0.0
H775 H 0.86458 0.68051 0.61633 0.0
H776 H 0.81365 0.69409 0.60385 0.0
H777 H 0.79372 0.67712 0.62065 0.0
H778 H 0.70769 0.64799 0.61103 0.0
H779 H 0.6243 0.68151 0.6005 0.0
H780 H 0.89253 0.5771 0.89905 0.0
H781 H 0.81354 0.53388 0.88884 0.0
H782 H 0.77567 0.68383 0.86834 0.0
H783 H 0.856 0.72675 0.87821 0.0
H784 H 0.70034 0.56561 0.89007 0.0
H785 H 0.78499 0.56898 0.83845 0.0
H786 H 0.82728 0.58003 0.85281 0.0
H787 H 0.78187 0.63269 0.84724 0.0
C788 C 0.86766 0.60079 0.8923 0.0
C789 C 0.88031 0.65543 0.88946 0.0
C790 C 0.82224 0.5762 0.88657 0.0
C791 C 0.7888 0.60561 0.87782 0.0
C792 C 0.8011 0.66031 0.87501 0.0
H793 H 0.56151 0.4259 0.82734 0.0
H794 H 0.59297 0.50745 0.83924 0.0
C795 C 0.84665 0.68494 0.88075 0.0
C796 C 0.74234 0.57775 0.8714 0.0
H797 H 0.7034 0.52188 0.84192 0.0
C798 C 0.70042 0.5568 0.87949 0.0
C799 C 0.74212 0.56695 0.85759 0.0
C800 C 0.7865 0.58795 0.84847 0.0
C801 C 0.65994 0.52283 0.87424 0.0
C802 C 0.66213 0.5087 0.86062 0.0
C803 C 0.70172 0.53283 0.85237 0.0
C804 C 0.63086 0.46212 0.85523 0.0
C805 C 0.61625 0.5009 0.88341 0.0
C806 C 0.64014 0.40989 0.86049 0.0
C807 C 0.62247 0.36376 0.85372 0.0
C808 C 0.59488 0.36896 0.84161 0.0
C809 C 0.58187 0.42112 0.8368 0.0
C810 C 0.60006 0.46755 0.84354 0.0
H811 H 0.60757 0.52984 0.89165 0.0
H812 H 0.57784 0.49282 0.87797 0.0
H813 H 0.63059 0.46212 0.88791 0.0
H814 H 0.66487 0.40449 0.86929 0.0
H815 H 0.63355 0.32383 0.85749 0.0
H816 H 0.50114 0.6152 0.12147 0.0
H817 H 0.51861 0.53125 0.10881 0.0
H818 H 0.63719 0.48208 0.13807 0.0
H819 H 0.6179 0.56391 0.15087 0.0
H820 H 0.61055 0.51158 0.0973 0.0
H821 H 0.57632 0.33665 0.13018 0.0
H822 H 0.54704 0.40277 0.13374 0.0
H823 H 0.61474 0.38543 0.13939 0.0
C824 C 0.52912 0.58512 0.12542 0.0
C825 C 0.55754 0.59533 0.13724 0.0
C826 C 0.53928 0.53733 0.11817 0.0
C827 C 0.57843 0.49945 0.12259 0.0
C828 C 0.60531 0.50922 0.13465 0.0
H829 H 0.86005 0.38887 0.10086 0.0
H830 H 0.77043 0.41313 0.10972 0.0
C831 C 0.59488 0.5565 0.14189 0.0
C832 C 0.59944 0.45569 0.11369 0.0
H833 H 0.66097 0.33098 0.11587 0.0
C834 C 0.61934 0.47111 0.1011 0.0
C835 C 0.61045 0.40238 0.11845 0.0
C836 C 0.5853 0.38085 0.13113 0.0
C837 C 0.65589 0.43768 0.09407 0.0
C838 C 0.67318 0.38805 0.09983 0.0
C839 C 0.64817 0.3695 0.11157 0.0
C840 C 0.72579 0.36379 0.09573 0.0
C841 C 0.68067 0.45832 0.08125 0.0
C842 C 0.73016 0.32661 0.08517 0.0
C843 C 0.78178 0.31224 0.08013 0.0
C844 C 0.82896 0.33549 0.08557 0.0
C845 C 0.82419 0.37049 0.09652 0.0
C846 C 0.77313 0.38417 0.10161 0.0
H847 H 0.65719 0.49304 0.07704 0.0
H848 H 0.723 0.47213 0.08312 0.0
H849 H 0.68259 0.4251 0.07377 0.0
H850 H 0.69388 0.31079 0.08049 0.0
H851 H 0.7847 0.28542 0.07161 0.0
H852 H 0.82855 0.59478 0.32775 0.0
H853 H 0.81159 0.50869 0.33924 0.0
H854 H 0.96687 0.52121 0.35891 0.0
H855 H 0.98312 0.60903 0.34772 0.0
H856 H 0.87212 0.40769 0.34061 0.0
H857 H 0.85435 0.51375 0.38956 0.0
H858 H 0.85438 0.55166 0.37416 0.0
H859 H 0.91617 0.52072 0.37998 0.0
C860 C 0.85923 0.57907 0.33447 0.0
C861 C 0.90732 0.60827 0.33679 0.0
C862 C 0.84976 0.52965 0.34093 0.0
C863 C 0.88796 0.50857 0.34992 0.0
C864 C 0.93682 0.53686 0.35203 0.0
H865 H 0.71005 0.29389 0.40381 0.0
H866 H 0.79781 0.3198 0.39352 0.0
C867 C 0.94627 0.58664 0.34555 0.0
C868 C 0.87281 0.45986 0.35783 0.0
H869 H 0.81361 0.42852 0.38763 0.0
C870 C 0.86092 0.41142 0.35102 0.0
C871 C 0.85912 0.4644 0.37147 0.0
C872 C 0.87139 0.51533 0.37929 0.0
C873 C 0.83039 0.36992 0.35713 0.0
C874 C 0.81066 0.3777 0.37022 0.0
C875 C 0.82847 0.42287 0.37754 0.0
C876 C 0.76175 0.34865 0.37519 0.0
C877 C 0.81604 0.31992 0.34921 0.0
C878 C 0.71281 0.35536 0.3682 0.0
C879 C 0.66325 0.34165 0.37411 0.0
C880 C 0.6618 0.3202 0.38703 0.0
C881 C 0.7107 0.30988 0.39375 0.0
C882 C 0.76059 0.32448 0.38789 0.0
H883 H 0.84918 0.30957 0.34205 0.0
H884 H 0.8084 0.28429 0.35579 0.0
H885 H 0.77863 0.32817 0.34337 0.0
H886 H 0.71242 0.37532 0.35858 0.0
H887 H 0.62576 0.35038 0.36886 0.0
H888 H 0.31519 0.3086 0.39776 0.0
H889 H 0.23528 0.34207 0.38549 0.0
H890 H 0.34139 0.40021 0.35414 0.0
H891 H 0.4204 0.36618 0.36625 0.0
H892 H 0.22427 0.45035 0.38095 0.0
H893 H 0.21426 0.34407 0.33276 0.0
H894 H 0.2507 0.31638 0.34683 0.0
H895 H 0.28258 0.36583 0.33602 0.0
C896 C 0.32084 0.32625 0.38796 0.0
C897 C 0.37344 0.33418 0.38278 0.0
C898 C 0.2754 0.34566 0.38101 0.0
C899 C 0.28224 0.37297 0.36879 0.0
C900 C 0.33481 0.37799 0.36333 0.0
H901 H 0.16812 0.66505 0.33703 0.0
H902 H 0.21094 0.58672 0.34796 0.0
C903 C 0.37999 0.3589 0.37029 0.0
C904 C 0.23706 0.40488 0.36286 0.0
H905 H 0.18152 0.43855 0.33287 0.0
C906 C 0.21376 0.44678 0.37052 0.0
C907 C 0.22284 0.40006 0.34929 0.0
C908 C 0.24353 0.35371 0.34081 0.0
C909 C 0.18035 0.48659 0.36472 0.0
C910 C 0.17063 0.48478 0.35089 0.0
C911 C 0.18999 0.44039 0.34343 0.0
C912 C 0.14477 0.53112 0.34389 0.0
C913 C 0.15746 0.53158 0.37332 0.0
C914 C 0.0942 0.5252 0.33764 0.0
C915 C 0.06977 0.56991 0.33136 0.0
C916 C 0.09562 0.62099 0.33124 0.0
C917 C 0.14712 0.62623 0.33709 0.0
C918 C 0.1714 0.58169 0.34339 0.0
H919 H 0.15568 0.51928 0.38396 0.0
H920 H 0.18412 0.56793 0.37248 0.0
H921 H 0.11589 0.54341 0.37006 0.0
H922 H 0.07338 0.4863 0.33778 0.0
H923 H 0.03069 0.56458 0.32659 0.0
H924 H 0.17159 0.28195 0.07784 0.0
H925 H 0.25809 0.3043 0.08888 0.0
H926 H 0.16984 0.40346 0.11721 0.0
H927 H 0.08455 0.3806 0.10644 0.0
H928 H 0.29742 0.40545 0.08948 0.0
H929 H 0.28095 0.33725 0.14128 0.0
H930 H 0.23896 0.30876 0.12833 0.0
H931 H 0.21801 0.36976 0.13703 0.0
C932 C 0.17087 0.30684 0.08672 0.0
C933 C 0.12164 0.32942 0.09138 0.0
C934 C 0.22016 0.31971 0.09299 0.0
C935 C 0.22054 0.35492 0.10402 0.0
C936 C 0.17077 0.37493 0.109 0.0
H937 H 0.33952 0.64623 0.12152 0.0
H938 H 0.31435 0.55998 0.11131 0.0
C939 C 0.12196 0.36234 0.10275 0.0
C940 C 0.27186 0.37915 0.10905 0.0
H941 H 0.32239 0.42944 0.13803 0.0
C942 C 0.30426 0.40913 0.10009 0.0
C943 C 0.28249 0.38288 0.12283 0.0
C944 C 0.25353 0.34728 0.13287 0.0
C945 C 0.34144 0.44814 0.10466 0.0
C946 C 0.34509 0.45827 0.11848 0.0
C947 C 0.31848 0.42299 0.12741 0.0
C948 C 0.3671 0.51039 0.12365 0.0
C949 C 0.37397 0.48046 0.09461 0.0
C950 C 0.40449 0.51145 0.13418 0.0
C951 C 0.41848 0.56108 0.14015 0.0
C952 C 0.39522 0.61017 0.13566 0.0
C953 C 0.35858 0.60902 0.12503 0.0
C954 C 0.34469 0.55973 0.11909 0.0
H955 H 0.38467 0.45482 0.08587 0.0
H956 H 0.34891 0.51508 0.09097 0.0
H957 H 0.41205 0.49679 0.09898 0.0
H958 H 0.42166 0.47386 0.13801 0.0
H959 H 0.44601 0.56091 0.14853 0.0
H960 H 0.11387 0.68392 0.87242 0.0
H961 H 0.19609 0.64046 0.8634 0.0
H962 H 0.21056 0.5444 0.89925 0.0
H963 H 0.13042 0.59138 0.90866 0.0
H964 H 0.30968 0.58301 0.89114 0.0
H965 H 0.2027 0.48972 0.8485 0.0
H966 H 0.19549 0.56243 0.84882 0.0
H967 H 0.16656 0.5219 0.86205 0.0
C968 C 0.1356 0.65459 0.87847 0.0
C969 C 0.11726 0.64214 0.89134 0.0
C970 C 0.18186 0.62895 0.87323 0.0
C971 C 0.20942 0.58884 0.8806 0.0
C972 C 0.19017 0.5754 0.8934 0.0
H973 H 0.43575 0.34087 0.86263 0.0
H974 H 0.39201 0.41408 0.87524 0.0
C975 C 0.14424 0.60175 0.89872 0.0
C976 C 0.25766 0.56036 0.87486 0.0
H977 H 0.29894 0.48398 0.8483 0.0
C978 C 0.30738 0.56136 0.88177 0.0
C979 C 0.25464 0.53188 0.86266 0.0
C980 C 0.20186 0.52587 0.85515 0.0
C981 C 0.35411 0.53482 0.87674 0.0
C982 C 0.35096 0.50693 0.8645 0.0
C983 C 0.30151 0.50642 0.85756 0.0
C984 C 0.39599 0.47281 0.85918 0.0
C985 C 0.40645 0.53657 0.8845 0.0
C986 C 0.41631 0.48278 0.8463 0.0
C987 C 0.44196 0.44102 0.83915 0.0
C988 C 0.44704 0.38885 0.84476 0.0
C989 C 0.43331 0.38115 0.85821 0.0
C990 C 0.40798 0.42296 0.8654 0.0
H991 H 0.40597 0.5696 0.89204 0.0
H992 H 0.41214 0.4971 0.88974 0.0
H993 H 0.4419 0.54254 0.87772 0.0
H994 H 0.40713 0.52085 0.8413 0.0
H995 H 0.45113 0.44752 0.8287 0.0
H996 H 0.02682 0.4242 0.64844 0.0
H997 H 0.05276 0.51056 0.63755 0.0
H998 H 0.15608 0.42135 0.61028 0.0
H999 H 0.12953 0.33609 0.62085 0.0
H1000 H 0.15388 0.55134 0.63697 0.0
H1001 H 0.0889 0.52897 0.58518 0.0
H1002 H 0.06046 0.48777 0.59844 0.0
H1003 H 0.12252 0.46728 0.59006 0.0
C1004 C 0.0537 0.42329 0.63985 0.0
C1005 C 0.07581 0.37368 0.63535 0.0
C1006 C 0.06859 0.47248 0.63367 0.0
C1007 C 0.10551 0.47244 0.6229 0.0
C1008 C 0.1262 0.42252 0.61826 0.0
H1009 H 0.39376 0.60245 0.60458 0.0
H1010 H 0.30866 0.57539 0.61524 0.0
C1011 C 0.11151 0.37377 0.62441 0.0
C1012 C 0.12928 0.5237 0.61756 0.0
H1013 H 0.17855 0.57427 0.58827 0.0
C1014 C 0.15779 0.55763 0.62632 0.0
C1015 C 0.13313 0.53355 0.60372 0.0
C1016 C 0.09896 0.50273 0.59386 0.0
C1017 C 0.19544 0.59608 0.62152 0.0
C1018 C 0.2058 0.5994 0.60767 0.0
C1019 C 0.17195 0.57078 0.59892 0.0
C1020 C 0.25694 0.62347 0.6023 0.0
C1021 C 0.2259 0.63058 0.63138 0.0
C1022 C 0.25656 0.65896 0.59129 0.0
C1023 C 0.30557 0.67386 0.58502 0.0
C1024 C 0.35552 0.65356 0.58971 0.0
C1025 C 0.35583 0.61925 0.60089 0.0
C1026 C 0.30714 0.60431 0.60709 0.0
H1027 H 0.19921 0.64124 0.63997 0.0
H1028 H 0.26095 0.60699 0.63532 0.0
H1029 H 0.24134 0.66878 0.62677 0.0
H1030 H 0.21833 0.6736 0.58728 0.0
H1031 H 0.3043 0.6995 0.57624 0.0
loop_
_geom_bond_atom_site_label_1
_geom_bond_atom_site_label_2
_geom_bond_distance
_geom_bond_site_symmetry_2
_ccdc_geom_bond_type
Zn0 O6 1.920 . S
Zn0 O12 1.898 1_455 S
Zn0 O15 1.905 . S
Zn1 O9 1.905 . S
Zn1 O10 1.898 1_655 S
Zn1 O18 1.920 . S
Zn2 O5 2.080 . S
Zn2 O8 2.114 1_455 S
Zn2 O11 2.120 . S
Zn2 O13 2.120 1_455 S
Zn2 O14 2.114 . S
Zn2 O17 2.080 1_455 S
C3 O8 1.166 . S
C3 O9 1.182 . S
C4 O10 1.167 . S
C4 O11 1.299 . S
O5 Zn2 2.080 . S
O5 C19 1.305 . S
O6 Zn0 1.920 . S
O6 C19 1.234 . S
C7 O12 1.167 . S
C7 O13 1.299 . S
O8 Zn2 2.114 1_655 S
O8 C3 1.166 . S
O9 Zn1 1.905 . S
O9 C3 1.182 . S
O10 Zn1 1.898 1_455 S
O10 C4 1.167 . S
O11 Zn2 2.120 . S
O11 C4 1.299 . S
O12 Zn0 1.898 1_655 S
O12 C7 1.167 . S
O13 Zn2 2.120 1_655 S
O13 C7 1.299 . S
O14 Zn2 2.114 . S
O14 C16 1.166 . S
O15 Zn0 1.905 . S
O15 C16 1.182 . S
C16 O14 1.166 . S
C16 O15 1.182 . S
O17 Zn2 2.080 1_655 S
O17 C20 1.305 . S
O18 Zn1 1.920 . S
O18 C20 1.234 . S
C19 O5 1.305 . S
C19 O6 1.234 . S
C20 O17 1.305 . S
C20 O18 1.234 . S
Zn21 O27 1.920 . S
Zn21 O33 1.898 . S
Zn21 O36 1.905 . S
Zn22 O30 1.905 . S
Zn22 O31 1.898 . S
Zn22 O39 1.920 . S
Zn23 O26 2.080 . S
Zn23 O29 2.114 1_455 S
Zn23 O32 2.120 1_455 S
Zn23 O34 2.120 . S
Zn23 O35 2.114 . S
Zn23 O38 2.080 1_455 S
C24 O29 1.166 . S
C24 O30 1.182 . S
C25 O31 1.167 . S
C25 O32 1.299 . S
O26 Zn23 2.080 . S
O26 C40 1.305 . S
O27 Zn21 1.920 . S
O27 C40 1.234 . S
C28 O33 1.167 . S
C28 O34 1.299 . S
O29 Zn23 2.114 1_655 S
O29 C24 1.166 . S
O30 Zn22 1.905 . S
O30 C24 1.182 . S
O31 Zn22 1.898 . S
O31 C25 1.167 . S
O32 Zn23 2.120 1_655 S
O32 C25 1.299 . S
O33 Zn21 1.898 . S
O33 C28 1.167 . S
O34 Zn23 2.120 . S
O34 C28 1.299 . S
O35 Zn23 2.114 . S
O35 C37 1.166 . S
O36 Zn21 1.905 . S
O36 C37 1.182 . S
C37 O35 1.166 . S
C37 O36 1.182 . S
O38 Zn23 2.080 1_655 S
O38 C41 1.305 . S
O39 Zn22 1.920 . S
O39 C41 1.234 . S
C40 O26 1.305 . S
C40 O27 1.234 . S
C41 O38 1.305 . S
C41 O39 1.234 . S
Zn42 O48 1.920 . S
Zn42 O54 1.898 . S
Zn42 O57 1.905 . S
Zn43 O51 1.905 . S
Zn43 O52 1.898 . S
Zn43 O60 1.920 . S
Zn44 O47 2.080 . S
Zn44 O50 2.114 . S
Zn44 O53 2.120 . S
Zn44 O55 2.120 . S
Zn44 O56 2.114 . S
Zn44 O59 2.080 . S
C45 O50 1.166 . S
C45 O51 1.182 . S
C46 O52 1.167 . S
C46 O53 1.299 . S
O47 Zn44 2.080 . S
O47 C61 1.305 . S
O48 Zn42 1.920 . S
O48 C61 1.234 . S
C49 O54 1.167 . S
C49 O55 1.299 . S
O50 Zn44 2.114 . S
O50 C45 1.166 . S
O51 Zn43 1.905 . S
O51 C45 1.182 . S
O52 Zn43 1.898 . S
O52 C46 1.167 . S
O53 Zn44 2.120 . S
O53 C46 1.299 . S
O54 Zn42 1.898 . S
O54 C49 1.167 . S
O55 Zn44 2.120 . S
O55 C49 1.299 . S
O56 Zn44 2.114 . S
O56 C58 1.166 . S
O57 Zn42 1.905 . S
O57 C58 1.182 . S
C58 O56 1.166 . S
C58 O57 1.182 . S
O59 Zn44 2.080 . S
O59 C62 1.305 . S
O60 Zn43 1.920 . S
O60 C62 1.234 . S
C61 O47 1.305 . S
C61 O48 1.234 . S
C62 O59 1.305 . S
C62 O60 1.234 . S
Zn63 O69 1.920 . S
Zn63 O75 1.898 . S
Zn63 O78 1.905 . S
Zn64 O72 1.905 . S
Zn64 O73 1.898 . S
Zn64 O81 1.920 . S
Zn65 O68 2.080 . S
Zn65 O71 2.114 . S
Zn65 O74 2.120 . S
Zn65 O76 2.120 . S
Zn65 O77 2.114 . S
Zn65 O80 2.080 . S
C66 O71 1.166 . S
C66 O72 1.182 . S
C67 O73 1.167 . S
C67 O74 1.299 . S
O68 Zn65 2.080 . S
O68 C82 1.305 . S
O69 Zn63 1.920 . S
O69 C82 1.234 . S
C70 O75 1.167 . S
C70 O76 1.299 . S
O71 Zn65 2.114 . S
O71 C66 1.166 . S
O72 Zn64 1.905 . S
O72 C66 1.182 . S
O73 Zn64 1.898 . S
O73 C67 1.167 . S
O74 Zn65 2.120 . S
O74 C67 1.299 . S
O75 Zn63 1.898 . S
O75 C70 1.167 . S
O76 Zn65 2.120 . S
O76 C70 1.299 . S
O77 Zn65 2.114 . S
O77 C79 1.166 . S
O78 Zn63 1.905 . S
O78 C79 1.182 . S
C79 O77 1.166 . S
C79 O78 1.182 . S
O80 Zn65 2.080 . S
O80 C83 1.305 . S
O81 Zn64 1.920 . S
O81 C83 1.234 . S
C82 O68 1.305 . S
C82 O69 1.234 . S
C83 O80 1.305 . S
C83 O81 1.234 . S
Zn84 O90 1.920 . S
Zn84 O96 1.898 1_455 S
Zn84 O99 1.905 . S
Zn85 O93 1.905 . S
Zn85 O94 1.898 1_655 S
Zn85 O102 1.920 . S
Zn86 O89 2.080 . S
Zn86 O92 2.114 1_455 S
Zn86 O95 2.120 . S
Zn86 O97 2.120 1_455 S
Zn86 O98 2.114 . S
Zn86 O101 2.080 1_455 S
C87 O92 1.166 . S
C87 O93 1.182 . S
C88 O94 1.167 . S
C88 O95 1.299 . S
O89 Zn86 2.080 . S
O89 C103 1.305 . S
O90 Zn84 1.920 . S
O90 C103 1.234 . S
C91 O96 1.167 . S
C91 O97 1.299 . S
O92 Zn86 2.114 1_655 S
O92 C87 1.166 . S
O93 Zn85 1.905 . S
O93 C87 1.182 . S
O94 Zn85 1.898 1_455 S
O94 C88 1.167 . S
O95 Zn86 2.120 . S
O95 C88 1.299 . S
O96 Zn84 1.898 1_655 S
O96 C91 1.167 . S
O97 Zn86 2.120 1_655 S
O97 C91 1.299 . S
O98 Zn86 2.114 . S
O98 C100 1.166 . S
O99 Zn84 1.905 . S
O99 C100 1.182 . S
C100 O98 1.166 . S
C100 O99 1.182 . S
O101 Zn86 2.080 1_655 S
O101 C104 1.305 . S
O102 Zn85 1.920 . S
O102 C104 1.234 . S
C103 O89 1.305 . S
C103 O90 1.234 . S
C104 O101 1.305 . S
C104 O102 1.234 . S
Zn105 O111 1.920 . S
Zn105 O117 1.898 . S
Zn105 O120 1.905 . S
Zn106 O114 1.905 . S
Zn106 O115 1.898 . S
Zn106 O123 1.920 . S
Zn107 O110 2.080 . S
Zn107 O113 2.114 . S
Zn107 O116 2.120 . S
Zn107 O118 2.120 . S
Zn107 O119 2.114 . S
Zn107 O122 2.080 . S
C108 O113 1.166 . S
C108 O114 1.182 . S
C109 O115 1.167 . S
C109 O116 1.299 . S
O110 Zn107 2.080 . S
O110 C124 1.305 . S
O111 Zn105 1.920 . S
O111 C124 1.234 . S
C112 O117 1.167 . S
C112 O118 1.299 . S
O113 Zn107 2.114 . S
O113 C108 1.166 . S
O114 Zn106 1.905 . S
O114 C108 1.182 . S
O115 Zn106 1.898 . S
O115 C109 1.167 . S
O116 Zn107 2.120 . S
O116 C109 1.299 . S
O117 Zn105 1.898 . S
O117 C112 1.167 . S
O118 Zn107 2.120 . S
O118 C112 1.299 . S
O119 Zn107 2.114 . S
O119 C121 1.166 . S
O120 Zn105 1.905 . S
O120 C121 1.182 . S
C121 O119 1.166 . S
C121 O120 1.182 . S
O122 Zn107 2.080 . S
O122 C125 1.305 . S
O123 Zn106 1.920 . S
O123 C125 1.234 . S
C124 O110 1.305 . S
C124 O111 1.234 . S
C125 O122 1.305 . S
C125 O123 1.234 . S
Zn126 O132 1.920 . S
Zn126 O138 1.898 . S
Zn126 O141 1.905 . S
Zn127 O135 1.905 . S
Zn127 O136 1.898 . S
Zn127 O144 1.920 . S
Zn128 O131 2.080 . S
Zn128 O134 2.114 . S
Zn128 O137 2.120 . S
Zn128 O139 2.120 . S
Zn128 O140 2.114 . S
Zn128 O143 2.080 . S
C129 O134 1.166 . S
C129 O135 1.182 . S
C130 O136 1.167 . S
C130 O137 1.299 . S
O131 Zn128 2.080 . S
O131 C145 1.305 . S
O132 Zn126 1.920 . S
O132 C145 1.234 . S
C133 O138 1.167 . S
C133 O139 1.299 . S
O134 Zn128 2.114 . S
O134 C129 1.166 . S
O135 Zn127 1.905 . S
O135 C129 1.182 . S
O136 Zn127 1.898 . S
O136 C130 1.167 . S
O137 Zn128 2.120 . S
O137 C130 1.299 . S
O138 Zn126 1.898 . S
O138 C133 1.167 . S
O139 Zn128 2.120 . S
O139 C133 1.299 . S
O140 Zn128 2.114 . S
O140 C142 1.166 . S
O141 Zn126 1.905 . S
O141 C142 1.182 . S
C142 O140 1.166 . S
C142 O141 1.182 . S
O143 Zn128 2.080 . S
O143 C146 1.305 . S
O144 Zn127 1.920 . S
O144 C146 1.234 . S
C145 O131 1.305 . S
C145 O132 1.234 . S
C146 O143 1.305 . S
C146 O144 1.234 . S
Zn147 O153 1.920 . S
Zn147 O159 1.898 . S
Zn147 O162 1.905 . S
Zn148 O156 1.905 . S
Zn148 O157 1.898 . S
Zn148 O165 1.920 . S
Zn149 O152 2.080 . S
Zn149 O155 2.114 1_455 S
Zn149 O158 2.120 1_455 S
Zn149 O160 2.120 . S
Zn149 O161 2.114 . S
Zn149 O164 2.080 1_455 S
C150 O155 1.166 . S
C150 O156 1.182 . S
C151 O157 1.167 . S
C151 O158 1.299 . S
O152 Zn149 2.080 . S
O152 C166 1.305 . S
O153 Zn147 1.920 . S
O153 C166 1.234 . S
C154 O159 1.167 . S
C154 O160 1.299 . S
O155 Zn149 2.114 1_655 S
O155 C150 1.166 . S
O156 Zn148 1.905 . S
O156 C150 1.182 . S
O157 Zn148 1.898 . S
O157 C151 1.167 . S
O158 Zn149 2.120 1_655 S
O158 C151 1.299 . S
O159 Zn147 1.898 . S
O159 C154 1.167 . S
O160 Zn149 2.120 . S
O160 C154 1.299 . S
O161 Zn149 2.114 . S
O161 C163 1.166 . S
O162 Zn147 1.905 . S
O162 C163 1.182 . S
C163 O161 1.166 . S
C163 O162 1.182 . S
O164 Zn149 2.080 1_655 S
O164 C167 1.305 . S
O165 Zn148 1.920 . S
O165 C167 1.234 . S
C166 O152 1.305 . S
C166 O153 1.234 . S
C167 O164 1.305 . S
C167 O165 1.234 . S
H168 C176 0.929 1_655 S
H169 C178 0.930 1_655 S
H170 C180 0.930 . S
H171 C183 0.929 . S
H172 C186 0.930 . S
H173 C188 0.960 . S
H174 C188 0.960 . S
H175 C188 0.960 . S
C176 H168 0.929 1_455 S
C176 C177 1.377 . S
C176 C178 1.384 . S
C177 C176 1.377 . S
C177 C183 1.390 . S
C178 H169 0.930 1_455 S
C178 C176 1.384 . S
C178 C179 1.372 . S
C179 C178 1.372 . S
C179 C180 1.400 . S
C179 C184 1.490 . S
C180 H170 0.930 . S
C180 C179 1.400 . S
C180 C183 1.386 . S
H181 C197 0.930 . S
H182 C198 0.931 . S
C183 H171 0.929 . S
C183 C177 1.390 . S
C183 C180 1.386 . S
C184 C179 1.490 . S
C184 C186 1.395 1_455 S
C184 C187 1.403 . S
H185 C191 0.930 . S
C186 H172 0.930 . S
C186 C184 1.395 1_655 S
C186 C189 1.403 1_554 S
C187 C184 1.403 . S
C187 C188 1.524 . S
C187 C191 1.400 1_554 S
C188 H173 0.960 . S
C188 H174 0.960 . S
C188 H175 0.960 . S
C188 C187 1.524 . S
C189 C186 1.403 1_556 S
C189 C190 1.392 1_655 S
C189 C193 1.495 . S
C190 C189 1.392 1_455 S
C190 C191 1.385 . S
C190 C192 1.478 . S
C191 H185 0.930 . S
C191 C187 1.400 1_556 S
C191 C190 1.385 . S
C192 C190 1.478 . S
C192 C194 1.381 . S
C192 C198 1.383 . S
C193 C189 1.495 . S
C193 H199 0.959 . S
C193 H200 0.961 . S
C193 H201 0.960 . S
C194 C192 1.381 . S
C194 C195 1.394 . S
C194 H202 0.930 1_455 S
C195 C194 1.394 . S
C195 C196 1.383 . S
C195 H203 0.929 1_455 S
C196 C195 1.383 . S
C196 C197 1.377 . S
C197 H181 0.930 . S
C197 C196 1.377 . S
C197 C198 1.379 . S
C198 H182 0.931 . S
C198 C192 1.383 . S
C198 C197 1.379 . S
H199 C193 0.959 . S
H200 C193 0.961 . S
H201 C193 0.960 . S
H202 C194 0.930 1_655 S
H203 C195 0.929 1_655 S
H204 C212 0.929 . S
H205 C214 0.930 . S
H206 C216 0.930 . S
H207 C219 0.929 . S
H208 C222 0.930 . S
H209 C224 0.960 . S
H210 C224 0.960 . S
H211 C224 0.960 . S
C212 H204 0.929 . S
C212 C213 1.377 . S
C212 C214 1.384 . S
C213 C212 1.377 . S
C213 C219 1.390 . S
C214 H205 0.930 . S
C214 C212 1.384 . S
C214 C215 1.372 . S
C215 C214 1.372 . S
C215 C216 1.400 . S
C215 C220 1.490 . S
C216 H206 0.930 . S
C216 C215 1.400 . S
C216 C219 1.386 . S
H217 C233 0.930 . S
H218 C234 0.931 . S
C219 H207 0.929 . S
C219 C213 1.390 . S
C219 C216 1.386 . S
C220 C215 1.490 . S
C220 C222 1.395 . S
C220 C223 1.403 . S
H221 C227 0.930 . S
C222 H208 0.930 . S
C222 C220 1.395 . S
C222 C225 1.403 . S
C223 C220 1.403 . S
C223 C224 1.524 . S
C223 C227 1.400 . S
C224 H209 0.960 . S
C224 H210 0.960 . S
C224 H211 0.960 . S
C224 C223 1.524 . S
C225 C222 1.403 . S
C225 C226 1.392 . S
C225 C229 1.495 . S
C226 C225 1.392 . S
C226 C227 1.385 . S
C226 C228 1.478 . S
C227 H221 0.930 . S
C227 C223 1.400 . S
C227 C226 1.385 . S
C228 C226 1.478 . S
C228 C230 1.381 . S
C228 C234 1.383 . S
C229 C225 1.495 . S
C229 H235 0.959 . S
C229 H236 0.961 . S
C229 H237 0.960 . S
C230 C228 1.381 . S
C230 C231 1.394 . S
C230 H238 0.930 . S
C231 C230 1.394 . S
C231 C232 1.383 . S
C231 H239 0.929 . S
C232 C231 1.383 . S
C232 C233 1.377 . S
C233 H217 0.930 . S
C233 C232 1.377 . S
C233 C234 1.379 . S
C234 H218 0.931 . S
C234 C228 1.383 . S
C234 C233 1.379 . S
H235 C229 0.959 . S
H236 C229 0.961 . S
H237 C229 0.960 . S
H238 C230 0.930 . S
H239 C231 0.929 . S
H240 C248 0.929 . S
H241 C250 0.930 . S
H242 C252 0.930 . S
H243 C255 0.929 . S
H244 C258 0.930 . S
H245 C260 0.960 . S
H246 C260 0.960 . S
H247 C260 0.960 . S
C248 H240 0.929 . S
C248 C249 1.377 . S
C248 C250 1.384 . S
C249 C248 1.377 . S
C249 C255 1.390 . S
C250 H241 0.930 . S
C250 C248 1.384 . S
C250 C251 1.372 . S
C251 C250 1.372 . S
C251 C252 1.400 . S
C251 C256 1.490 . S
C252 H242 0.930 . S
C252 C251 1.400 . S
C252 C255 1.386 . S
H253 C269 0.930 . S
H254 C270 0.931 . S
C255 H243 0.929 . S
C255 C249 1.390 . S
C255 C252 1.386 . S
C256 C251 1.490 . S
C256 C258 1.395 . S
C256 C259 1.403 . S
H257 C263 0.930 . S
C258 H244 0.930 . S
C258 C256 1.395 . S
C258 C261 1.403 . S
C259 C256 1.403 . S
C259 C260 1.524 . S
C259 C263 1.400 . S
C260 H245 0.960 . S
C260 H246 0.960 . S
C260 H247 0.960 . S
C260 C259 1.524 . S
C261 C258 1.403 . S
C261 C262 1.392 . S
C261 C265 1.495 . S
C262 C261 1.392 . S
C262 C263 1.385 . S
C262 C264 1.478 . S
C263 H257 0.930 . S
C263 C259 1.400 . S
C263 C262 1.385 . S
C264 C262 1.478 . S
C264 C266 1.381 . S
C264 C270 1.383 . S
C265 C261 1.495 . S
C265 H271 0.959 . S
C265 H272 0.961 . S
C265 H273 0.960 . S
C266 C264 1.381 . S
C266 C267 1.394 . S
C266 H274 0.930 . S
C267 C266 1.394 . S
C267 C268 1.383 . S
C267 H275 0.929 . S
C268 C267 1.383 . S
C268 C269 1.377 . S
C269 H253 0.930 . S
C269 C268 1.377 . S
C269 C270 1.379 . S
C270 H254 0.931 . S
C270 C264 1.383 . S
C270 C269 1.379 . S
H271 C265 0.959 . S
H272 C265 0.961 . S
H273 C265 0.960 . S
H274 C266 0.930 . S
H275 C267 0.929 . S
H276 C284 0.929 . S
H277 C286 0.930 . S
H278 C288 0.930 . S
H279 C291 0.929 . S
H280 C294 0.930 . S
H281 C296 0.960 . S
H282 C296 0.960 . S
H283 C296 0.960 . S
C284 H276 0.929 . S
C284 C285 1.377 . S
C284 C286 1.384 . S
C285 C284 1.377 . S
C285 C291 1.390 . S
C286 H277 0.930 . S
C286 C284 1.384 . S
C286 C287 1.372 . S
C287 C286 1.372 . S
C287 C288 1.400 . S
C287 C292 1.490 . S
C288 H278 0.930 . S
C288 C287 1.400 . S
C288 C291 1.386 . S
H289 C305 0.930 . S
H290 C306 0.931 . S
C291 H279 0.929 . S
C291 C285 1.390 . S
C291 C288 1.386 . S
C292 C287 1.490 . S
C292 C294 1.395 . S
C292 C295 1.403 . S
H293 C299 0.930 . S
C294 H280 0.930 . S
C294 C292 1.395 . S
C294 C297 1.403 . S
C295 C292 1.403 . S
C295 C296 1.524 . S
C295 C299 1.400 . S
C296 H281 0.960 . S
C296 H282 0.960 . S
C296 H283 0.960 . S
C296 C295 1.524 . S
C297 C294 1.403 . S
C297 C298 1.392 . S
C297 C301 1.495 . S
C298 C297 1.392 . S
C298 C299 1.385 . S
C298 C300 1.478 . S
C299 H293 0.930 . S
C299 C295 1.400 . S
C299 C298 1.385 . S
C300 C298 1.478 . S
C300 C302 1.381 . S
C300 C306 1.383 . S
C301 C297 1.495 . S
C301 H307 0.959 . S
C301 H308 0.961 . S
C301 H309 0.960 . S
C302 C300 1.381 . S
C302 C303 1.394 . S
C302 H310 0.930 . S
C303 C302 1.394 . S
C303 C304 1.383 . S
C303 H311 0.929 . S
C304 C303 1.383 . S
C304 C305 1.377 . S
C305 H289 0.930 . S
C305 C304 1.377 . S
C305 C306 1.379 . S
C306 H290 0.931 . S
C306 C300 1.383 . S
C306 C305 1.379 . S
H307 C301 0.959 . S
H308 C301 0.961 . S
H309 C301 0.960 . S
H310 C302 0.930 . S
H311 C303 0.929 . S
H312 C320 0.929 . S
H313 C322 0.930 . S
H314 C324 0.930 . S
H315 C327 0.929 . S
H316 C330 0.930 . S
H317 C332 0.960 . S
H318 C332 0.960 . S
H319 C332 0.960 . S
C320 H312 0.929 . S
C320 C321 1.377 . S
C320 C322 1.384 . S
C321 C320 1.377 . S
C321 C327 1.390 . S
C322 H313 0.930 . S
C322 C320 1.384 . S
C322 C323 1.372 . S
C323 C322 1.372 . S
C323 C324 1.400 . S
C323 C328 1.490 . S
C324 H314 0.930 . S
C324 C323 1.400 . S
C324 C327 1.386 . S
H325 C341 0.930 . S
H326 C342 0.931 . S
C327 H315 0.929 . S
C327 C321 1.390 . S
C327 C324 1.386 . S
C328 C323 1.490 . S
C328 C330 1.395 . S
C328 C331 1.403 . S
H329 C335 0.930 . S
C330 H316 0.930 . S
C330 C328 1.395 . S
C330 C333 1.403 . S
C331 C328 1.403 . S
C331 C332 1.524 . S
C331 C335 1.400 . S
C332 H317 0.960 . S
C332 H318 0.960 . S
C332 H319 0.960 . S
C332 C331 1.524 . S
C333 C330 1.403 . S
C333 C334 1.392 . S
C333 C337 1.495 . S
C334 C333 1.392 . S
C334 C335 1.385 . S
C334 C336 1.478 . S
C335 H329 0.930 . S
C335 C331 1.400 . S
C335 C334 1.385 . S
C336 C334 1.478 . S
C336 C338 1.381 . S
C336 C342 1.383 . S
C337 C333 1.495 . S
C337 H343 0.959 . S
C337 H344 0.961 . S
C337 H345 0.960 . S
C338 C336 1.381 . S
C338 C339 1.394 . S
C338 H346 0.930 . S
C339 C338 1.394 . S
C339 C340 1.383 . S
C339 H347 0.929 . S
C340 C339 1.383 . S
C340 C341 1.377 . S
C341 H325 0.930 . S
C341 C340 1.377 . S
C341 C342 1.379 . S
C342 H326 0.931 . S
C342 C336 1.383 . S
C342 C341 1.379 . S
H343 C337 0.959 . S
H344 C337 0.961 . S
H345 C337 0.960 . S
H346 C338 0.930 . S
H347 C339 0.929 . S
H348 C356 0.929 . S
H349 C358 0.930 . S
H350 C360 0.930 . S
H351 C363 0.929 . S
H352 C366 0.930 . S
H353 C368 0.960 . S
H354 C368 0.960 . S
H355 C368 0.960 . S
C356 H348 0.929 . S
C356 C357 1.377 . S
C356 C358 1.384 . S
C357 C356 1.377 . S
C357 C363 1.390 . S
C358 H349 0.930 . S
C358 C356 1.384 . S
C358 C359 1.372 . S
C359 C358 1.372 . S
C359 C360 1.400 . S
C359 C364 1.490 . S
C360 H350 0.930 . S
C360 C359 1.400 . S
C360 C363 1.386 . S
H361 C377 0.930 . S
H362 C378 0.931 . S
C363 H351 0.929 . S
C363 C357 1.390 . S
C363 C360 1.386 . S
C364 C359 1.490 . S
C364 C366 1.395 . S
C364 C367 1.403 . S
H365 C371 0.930 . S
C366 H352 0.930 . S
C366 C364 1.395 . S
C366 C369 1.403 . S
C367 C364 1.403 . S
C367 C368 1.524 . S
C367 C371 1.400 . S
C368 H353 0.960 . S
C368 H354 0.960 . S
C368 H355 0.960 . S
C368 C367 1.524 . S
C369 C366 1.403 . S
C369 C370 1.392 . S
C369 C373 1.495 . S
C370 C369 1.392 . S
C370 C371 1.385 . S
C370 C372 1.478 . S
C371 H365 0.930 . S
C371 C367 1.400 . S
C371 C370 1.385 . S
C372 C370 1.478 . S
C372 C374 1.381 . S
C372 C378 1.383 . S
C373 C369 1.495 . S
C373 H379 0.959 . S
C373 H380 0.961 . S
C373 H381 0.960 . S
C374 C372 1.381 . S
C374 C375 1.394 . S
C374 H382 0.930 . S
C375 C374 1.394 . S
C375 C376 1.383 . S
C375 H383 0.929 . S
C376 C375 1.383 . S
C376 C377 1.377 . S
C377 H361 0.930 . S
C377 C376 1.377 . S
C377 C378 1.379 . S
C378 H362 0.931 . S
C378 C372 1.383 . S
C378 C377 1.379 . S
H379 C373 0.959 . S
H380 C373 0.961 . S
H381 C373 0.960 . S
H382 C374 0.930 . S
H383 C375 0.929 . S
H384 C392 0.929 . S
H385 C394 0.930 . S
H386 C396 0.930 . S
H387 C399 0.929 . S
H388 C402 0.930 . S
H389 C404 0.960 . S
H390 C404 0.960 . S
H391 C404 0.960 . S
C392 H384 0.929 . S
C392 C393 1.377 . S
C392 C394 1.384 . S
C393 C392 1.377 . S
C393 C399 1.390 . S
C394 H385 0.930 . S
C394 C392 1.384 . S
C394 C395 1.372 . S
C395 C394 1.372 . S
C395 C396 1.400 . S
C395 C400 1.490 . S
C396 H386 0.930 . S
C396 C395 1.400 . S
C396 C399 1.386 . S
H397 C413 0.930 . S
H398 C414 0.931 . S
C399 H387 0.929 . S
C399 C393 1.390 . S
C399 C396 1.386 . S
C400 C395 1.490 . S
C400 C402 1.395 1_545 S
C400 C403 1.403 . S
H401 C407 0.930 . S
C402 H388 0.930 . S
C402 C400 1.395 1_565 S
C402 C405 1.403 . S
C403 C400 1.403 . S
C403 C404 1.524 . S
C403 C407 1.400 . S
C404 H389 0.960 . S
C404 H390 0.960 . S
C404 H391 0.960 . S
C404 C403 1.524 . S
C405 C402 1.403 . S
C405 C406 1.392 . S
C405 C409 1.495 . S
C406 C405 1.392 . S
C406 C407 1.385 1_565 S
C406 C408 1.478 . S
C407 H401 0.930 . S
C407 C403 1.400 . S
C407 C406 1.385 1_545 S
C408 C406 1.478 . S
C408 C410 1.381 . S
C408 C414 1.383 . S
C409 C405 1.495 . S
C409 H415 0.959 . S
C409 H416 0.961 . S
C409 H417 0.960 . S
C410 C408 1.381 . S
C410 C411 1.394 . S
C410 H418 0.930 . S
C411 C410 1.394 . S
C411 C412 1.383 . S
C411 H419 0.929 . S
C412 C411 1.383 . S
C412 C413 1.377 . S
C413 H397 0.930 . S
C413 C412 1.377 . S
C413 C414 1.379 . S
C414 H398 0.931 . S
C414 C408 1.383 . S
C414 C413 1.379 . S
H415 C409 0.959 . S
H416 C409 0.961 . S
H417 C409 0.960 . S
H418 C410 0.930 . S
H419 C411 0.929 . S
H420 C428 0.929 . S
H421 C430 0.930 . S
H422 C432 0.930 . S
H423 C435 0.929 . S
H424 C438 0.930 . S
H425 C440 0.960 . S
H426 C440 0.960 . S
H427 C440 0.960 . S
C428 H420 0.929 . S
C428 C429 1.377 . S
C428 C430 1.384 . S
C429 C428 1.377 . S
C429 C435 1.390 1_655 S
C430 H421 0.930 . S
C430 C428 1.384 . S
C430 C431 1.372 . S
C431 C430 1.372 . S
C431 C432 1.400 1_655 S
C431 C436 1.490 . S
C432 H422 0.930 . S
C432 C431 1.400 1_455 S
C432 C435 1.386 . S
H433 C449 0.930 . S
H434 C450 0.931 . S
C435 H423 0.929 . S
C435 C429 1.390 1_455 S
C435 C432 1.386 . S
C436 C431 1.490 . S
C436 C438 1.395 1_554 S
C436 C439 1.403 1_545 S
H437 C443 0.928 1_554 S
C438 H424 0.930 . S
C438 C436 1.395 1_556 S
C438 C441 1.403 . S
C439 C436 1.403 1_565 S
C439 C440 1.524 . S
C439 C443 1.404 1_554 S
C440 H425 0.960 . S
C440 H426 0.960 . S
C440 H427 0.960 . S
C440 C439 1.524 . S
C441 C438 1.403 . S
C441 C442 1.392 1_545 S
C441 C445 1.495 . S
C442 C441 1.392 1_565 S
C442 C443 1.381 . S
C442 C444 1.478 . S
C443 H437 0.928 1_556 S
C443 C439 1.404 1_556 S
C443 C442 1.381 . S
C444 C442 1.478 . S
C444 C446 1.381 . S
C444 C450 1.383 1_655 S
C445 C441 1.495 . S
C445 H451 0.959 . S
C445 H452 0.950 1_655 S
C445 H453 0.960 . S
C446 C444 1.381 . S
C446 C447 1.394 . S
C446 H454 0.930 . S
C447 C446 1.394 . S
C447 C448 1.383 . S
C447 H455 0.929 . S
C448 C447 1.383 . S
C448 C449 1.377 1_655 S
C449 H433 0.930 . S
C449 C448 1.377 1_455 S
C449 C450 1.379 . S
C450 H434 0.931 . S
C450 C444 1.383 1_455 S
C450 C449 1.379 . S
H451 C445 0.959 . S
H452 C445 0.950 1_455 S
H453 C445 0.960 . S
H454 C446 0.930 . S
H455 C447 0.929 . S
H456 C464 0.929 . S
H457 C466 0.930 1_545 S
H458 C468 0.930 . S
H459 C471 0.929 . S
H460 C474 0.930 . S
H461 C476 0.960 . S
H462 C476 0.960 . S
H463 C476 0.960 . S
C464 H456 0.929 . S
C464 C465 1.377 . S
C464 C466 1.384 . S
C465 C464 1.377 . S
C465 C471 1.390 . S
C466 H457 0.930 1_565 S
C466 C464 1.384 . S
C466 C467 1.372 . S
C467 C466 1.372 . S
C467 C468 1.400 . S
C467 C472 1.490 . S
C468 H458 0.930 . S
C468 C467 1.400 . S
C468 C471 1.386 . S
H469 C485 0.930 . S
H470 C486 0.931 . S
C471 H459 0.929 . S
C471 C465 1.390 . S
C471 C468 1.386 . S
C472 C467 1.490 . S
C472 C474 1.395 1_565 S
C472 C475 1.403 . S
H473 C479 0.930 . S
C474 H460 0.930 . S
C474 C472 1.395 1_545 S
C474 C477 1.403 . S
C475 C472 1.403 . S
C475 C476 1.524 . S
C475 C479 1.400 1_565 S
C476 H461 0.960 . S
C476 H462 0.960 . S
C476 H463 0.960 . S
C476 C475 1.524 . S
C477 C474 1.403 . S
C477 C478 1.392 . S
C477 C481 1.495 . S
C478 C477 1.392 . S
C478 C479 1.385 . S
C478 C480 1.478 . S
C479 H473 0.930 . S
C479 C475 1.400 1_545 S
C479 C478 1.385 . S
C480 C478 1.478 . S
C480 C482 1.381 . S
C480 C486 1.383 . S
C481 C477 1.495 . S
C481 H487 0.959 . S
C481 H488 0.961 . S
C481 H489 0.960 . S
C482 C480 1.381 . S
C482 C483 1.394 . S
C482 H490 0.930 . S
C483 C482 1.394 . S
C483 C484 1.383 . S
C483 H491 0.929 . S
C484 C483 1.383 . S
C484 C485 1.377 . S
C485 H469 0.930 . S
C485 C484 1.377 . S
C485 C486 1.379 . S
C486 H470 0.931 . S
C486 C480 1.383 . S
C486 C485 1.379 . S
H487 C481 0.959 . S
H488 C481 0.961 . S
H489 C481 0.960 . S
H490 C482 0.930 . S
H491 C483 0.929 . S
H492 C500 0.929 . S
H493 C502 0.930 . S
H494 C504 0.930 . S
H495 C507 0.929 . S
H496 C510 0.930 . S
H497 C512 0.960 . S
H498 C512 0.960 . S
H499 C512 0.960 . S
C500 H492 0.929 . S
C500 C501 1.377 . S
C500 C502 1.384 . S
C501 C500 1.377 . S
C501 C507 1.390 . S
C502 H493 0.930 . S
C502 C500 1.384 . S
C502 C503 1.372 . S
C503 C502 1.372 . S
C503 C504 1.400 . S
C503 C508 1.490 . S
C504 H494 0.930 . S
C504 C503 1.400 . S
C504 C507 1.386 . S
H505 C521 0.930 . S
H506 C522 0.931 . S
C507 H495 0.929 . S
C507 C501 1.390 . S
C507 C504 1.386 . S
C508 C503 1.490 . S
C508 C510 1.395 . S
C508 C511 1.403 1_565 S
H509 C515 0.930 . S
C510 H496 0.930 . S
C510 C508 1.395 . S
C510 C513 1.403 . S
C511 C508 1.403 1_545 S
C511 C512 1.524 . S
C511 C515 1.400 . S
C512 H497 0.960 . S
C512 H498 0.960 . S
C512 H499 0.960 . S
C512 C511 1.524 . S
C513 C510 1.403 . S
C513 C514 1.392 1_565 S
C513 C517 1.495 . S
C514 C513 1.392 1_545 S
C514 C515 1.385 . S
C514 C516 1.478 . S
C515 H509 0.930 . S
C515 C511 1.400 . S
C515 C514 1.385 . S
C516 C514 1.478 . S
C516 C518 1.381 . S
C516 C522 1.383 . S
C517 C513 1.495 . S
C517 H523 0.959 . S
C517 H524 0.961 . S
C517 H525 0.960 . S
C518 C516 1.381 . S
C518 C519 1.394 . S
C518 H526 0.930 . S
C519 C518 1.394 . S
C519 C520 1.383 . S
C519 H527 0.929 . S
C520 C519 1.383 . S
C520 C521 1.377 . S
C521 H505 0.930 . S
C521 C520 1.377 . S
C521 C522 1.379 . S
C522 H506 0.931 . S
C522 C516 1.383 . S
C522 C521 1.379 . S
H523 C517 0.959 . S
H524 C517 0.961 . S
H525 C517 0.960 . S
H526 C518 0.930 . S
H527 C519 0.929 . S
H528 C536 0.929 . S
H529 C538 0.930 . S
H530 C540 0.930 1_565 S
H531 C543 0.929 . S
H532 C546 0.930 . S
H533 C548 0.960 . S
H534 C548 0.960 1_545 S
H535 C548 0.960 . S
C536 H528 0.929 . S
C536 C537 1.377 . S
C536 C538 1.384 . S
C537 C536 1.377 . S
C537 C543 1.390 . S
C538 H529 0.930 . S
C538 C536 1.384 . S
C538 C539 1.372 . S
C539 C538 1.372 . S
C539 C540 1.400 . S
C539 C544 1.490 . S
C540 H530 0.930 1_545 S
C540 C539 1.400 . S
C540 C543 1.386 . S
H541 C557 0.930 . S
H542 C558 0.931 . S
C543 H531 0.929 . S
C543 C537 1.390 . S
C543 C540 1.386 . S
C544 C539 1.490 . S
C544 C546 1.395 . S
C544 C547 1.403 1_545 S
H545 C551 0.930 . S
C546 H532 0.930 . S
C546 C544 1.395 . S
C546 C549 1.403 1_545 S
C547 C544 1.403 1_565 S
C547 C548 1.524 . S
C547 C551 1.400 . S
C548 H533 0.960 . S
C548 H534 0.960 1_565 S
C548 H535 0.960 . S
C548 C547 1.524 . S
C549 C546 1.403 1_565 S
C549 C550 1.392 . S
C549 C553 1.495 . S
C550 C549 1.392 . S
C550 C551 1.385 . S
C550 C552 1.478 . S
C551 H545 0.930 . S
C551 C547 1.400 . S
C551 C550 1.385 . S
C552 C550 1.478 . S
C552 C554 1.381 . S
C552 C558 1.383 . S
C553 C549 1.495 . S
C553 H559 0.959 . S
C553 H560 0.961 . S
C553 H561 0.960 . S
C554 C552 1.381 . S
C554 C555 1.394 . S
C554 H562 0.930 . S
C555 C554 1.394 . S
C555 C556 1.383 . S
C555 H563 0.929 . S
C556 C555 1.383 . S
C556 C557 1.377 . S
C557 H541 0.930 . S
C557 C556 1.377 . S
C557 C558 1.379 . S
C558 H542 0.931 . S
C558 C552 1.383 . S
C558 C557 1.379 . S
H559 C553 0.959 . S
H560 C553 0.961 . S
H561 C553 0.960 . S
H562 C554 0.930 . S
H563 C555 0.929 . S
H564 C572 0.929 . S
H565 C574 0.930 . S
H566 C576 0.930 . S
H567 C579 0.929 . S
H568 C582 0.930 . S
H569 C584 0.960 . S
H570 C584 0.960 . S
H571 C584 0.960 . S
C572 H564 0.929 . S
C572 C573 1.377 . S
C572 C574 1.384 . S
C573 C572 1.377 . S
C573 C579 1.390 . S
C574 H565 0.930 . S
C574 C572 1.384 . S
C574 C575 1.372 . S
C575 C574 1.372 . S
C575 C576 1.400 . S
C575 C580 1.490 . S
C576 H566 0.930 . S
C576 C575 1.400 . S
C576 C579 1.386 . S
H577 C593 0.930 . S
H578 C594 0.931 . S
C579 H567 0.929 . S
C579 C573 1.390 . S
C579 C576 1.386 . S
C580 C575 1.490 . S
C580 C582 1.395 . S
C580 C583 1.403 . S
H581 C587 0.926 1_545 S
C582 H568 0.930 . S
C582 C580 1.395 . S
C582 C585 1.403 . S
C583 C580 1.403 . S
C583 C584 1.524 . S
C583 C587 1.407 . S
C584 H569 0.960 . S
C584 H570 0.960 . S
C584 H571 0.960 . S
C584 C583 1.524 . S
C585 C582 1.403 . S
C585 C586 1.392 1_565 S
C585 C589 1.495 1_565 S
C586 C585 1.392 1_545 S
C586 C587 1.382 1_545 S
C586 C588 1.478 . S
C587 H581 0.926 1_565 S
C587 C583 1.407 . S
C587 C586 1.382 1_565 S
C588 C586 1.478 . S
C588 C590 1.381 . S
C588 C594 1.383 . S
C589 C585 1.495 1_545 S
C589 H595 0.959 1_545 S
C589 H596 0.961 . S
C589 H597 0.960 1_545 S
C590 C588 1.381 . S
C590 C591 1.394 . S
C590 H598 0.930 1_545 S
C591 C590 1.394 . S
C591 C592 1.383 . S
C591 H599 0.929 . S
C592 C591 1.383 . S
C592 C593 1.377 . S
C593 H577 0.930 . S
C593 C592 1.377 . S
C593 C594 1.379 . S
C594 H578 0.931 . S
C594 C588 1.383 . S
C594 C593 1.379 . S
H595 C589 0.959 1_565 S
H596 C589 0.961 . S
H597 C589 0.960 1_565 S
H598 C590 0.930 1_565 S
H599 C591 0.929 . S
H600 C608 0.929 . S
H601 C610 0.930 . S
H602 C612 0.930 . S
H603 C615 0.929 . S
H604 C618 0.930 . S
H605 C620 0.960 1_545 S
H606 C620 0.960 1_545 S
H607 C620 0.960 . S
C608 H600 0.929 . S
C608 C609 1.377 . S
C608 C610 1.384 . S
C609 C608 1.377 . S
C609 C615 1.390 . S
C610 H601 0.930 . S
C610 C608 1.384 . S
C610 C611 1.372 . S
C611 C610 1.372 . S
C611 C612 1.400 . S
C611 C616 1.490 . S
C612 H602 0.930 . S
C612 C611 1.400 . S
C612 C615 1.386 . S
H613 C629 0.930 . S
H614 C630 0.931 . S
C615 H603 0.929 . S
C615 C609 1.390 . S
C615 C612 1.386 . S
C616 C611 1.490 . S
C616 C618 1.395 . S
C616 C619 1.403 . S
H617 C623 0.930 . S
C618 H604 0.930 . S
C618 C616 1.395 . S
C618 C621 1.403 1_565 S
C619 C616 1.403 . S
C619 C620 1.524 . S
C619 C623 1.400 1_565 S
C620 H605 0.960 1_565 S
C620 H606 0.960 1_565 S
C620 H607 0.960 . S
C620 C619 1.524 . S
C621 C618 1.403 1_545 S
C621 C622 1.392 . S
C621 C625 1.495 . S
C622 C621 1.392 . S
C622 C623 1.385 . S
C622 C624 1.478 . S
C623 H617 0.930 . S
C623 C619 1.400 1_545 S
C623 C622 1.385 . S
C624 C622 1.478 . S
C624 C626 1.381 . S
C624 C630 1.383 . S
C625 C621 1.495 . S
C625 H631 0.959 1_545 S
C625 H632 0.961 1_545 S
C625 H633 0.960 . S
C626 C624 1.381 . S
C626 C627 1.394 . S
C626 H634 0.930 . S
C627 C626 1.394 . S
C627 C628 1.383 . S
C627 H635 0.929 . S
C628 C627 1.383 . S
C628 C629 1.377 . S
C629 H613 0.930 . S
C629 C628 1.377 . S
C629 C630 1.379 . S
C630 H614 0.931 . S
C630 C624 1.383 . S
C630 C629 1.379 . S
H631 C625 0.959 1_565 S
H632 C625 0.961 1_565 S
H633 C625 0.960 . S
H634 C626 0.930 . S
H635 C627 0.929 . S
H636 C644 0.929 . S
H637 C646 0.930 . S
H638 C648 0.930 . S
H639 C651 0.929 . S
H640 C654 0.930 . S
H641 C656 0.960 . S
H642 C656 0.960 . S
H643 C656 0.960 . S
C644 H636 0.929 . S
C644 C645 1.377 . S
C644 C646 1.384 . S
C645 C644 1.377 . S
C645 C651 1.390 . S
C646 H637 0.930 . S
C646 C644 1.384 . S
C646 C647 1.372 . S
C647 C646 1.372 . S
C647 C648 1.400 . S
C647 C652 1.490 . S
C648 H638 0.930 . S
C648 C647 1.400 . S
C648 C651 1.386 . S
H649 C665 0.930 . S
H650 C666 0.931 . S
C651 H639 0.929 . S
C651 C645 1.390 . S
C651 C648 1.386 . S
C652 C647 1.490 . S
C652 C654 1.395 1_545 S
C652 C655 1.403 . S
H653 C659 0.931 . S
C654 H640 0.930 . S
C654 C652 1.395 1_565 S
C654 C657 1.403 . S
C655 C652 1.403 . S
C655 C656 1.524 . S
C655 C659 1.402 . S
C656 H641 0.960 . S
C656 H642 0.960 . S
C656 H643 0.960 . S
C656 C655 1.524 . S
C657 C654 1.403 . S
C657 C658 1.392 . S
C657 C661 1.495 . S
C658 C657 1.392 . S
C658 C659 1.382 1_565 S
C658 C660 1.478 . S
C659 H653 0.931 . S
C659 C655 1.402 . S
C659 C658 1.382 1_545 S
C660 C658 1.478 . S
C660 C662 1.381 . S
C660 C666 1.383 . S
C661 C657 1.495 . S
C661 H667 0.959 . S
C661 H668 0.961 . S
C661 H669 0.960 . S
C662 C660 1.381 . S
C662 C663 1.394 . S
C662 H670 0.930 . S
C663 C662 1.394 . S
C663 C664 1.383 . S
C663 H671 0.929 . S
C664 C663 1.383 . S
C664 C665 1.377 . S
C665 H649 0.930 . S
C665 C664 1.377 . S
C665 C666 1.379 . S
C666 H650 0.931 . S
C666 C660 1.383 . S
C666 C665 1.379 . S
H667 C661 0.959 . S
H668 C661 0.961 . S
H669 C661 0.960 . S
H670 C662 0.930 . S
H671 C663 0.929 . S
H672 C680 0.929 . S
H673 C682 0.930 . S
H674 C684 0.930 . S
H675 C687 0.929 . S
H676 C690 0.930 . S
H677 C692 0.960 1_545 S
H678 C692 0.960 1_545 S
H679 C692 0.960 . S
C680 H672 0.929 . S
C680 C681 1.377 . S
C680 C682 1.384 . S
C681 C680 1.377 . S
C681 C687 1.390 . S
C682 H673 0.930 . S
C682 C680 1.384 . S
C682 C683 1.372 . S
C683 C682 1.372 . S
C683 C684 1.400 . S
C683 C688 1.490 . S
C684 H674 0.930 . S
C684 C683 1.400 . S
C684 C687 1.386 . S
H685 C701 0.930 . S
H686 C702 0.931 . S
C687 H675 0.929 . S
C687 C681 1.390 . S
C687 C684 1.386 . S
C688 C683 1.490 . S
C688 C690 1.395 . S
C688 C691 1.403 . S
H689 C695 0.930 . S
C690 H676 0.930 . S
C690 C688 1.395 . S
C690 C693 1.403 1_565 S
C691 C688 1.403 . S
C691 C692 1.524 . S
C691 C695 1.400 1_565 S
C692 H677 0.960 1_565 S
C692 H678 0.960 1_565 S
C692 H679 0.960 . S
C692 C691 1.524 . S
C693 C690 1.403 1_545 S
C693 C694 1.392 . S
C693 C697 1.495 . S
C694 C693 1.392 . S
C694 C695 1.385 . S
C694 C696 1.478 . S
C695 H689 0.930 . S
C695 C691 1.400 1_545 S
C695 C694 1.385 . S
C696 C694 1.478 . S
C696 C698 1.381 . S
C696 C702 1.383 . S
C697 C693 1.495 . S
C697 H703 0.959 1_545 S
C697 H704 0.965 . S
C697 H705 0.960 . S
C698 C696 1.381 . S
C698 C699 1.394 . S
C698 H706 0.930 . S
C699 C698 1.394 . S
C699 C700 1.383 . S
C699 H707 0.929 . S
C700 C699 1.383 . S
C700 C701 1.377 . S
C701 H685 0.930 . S
C701 C700 1.377 . S
C701 C702 1.379 . S
C702 H686 0.931 . S
C702 C696 1.383 . S
C702 C701 1.379 . S
H703 C697 0.959 1_565 S
H704 C697 0.965 . S
H705 C697 0.960 . S
H706 C698 0.930 . S
H707 C699 0.929 . S
H708 C716 0.929 . S
H709 C718 0.930 . S
H710 C720 0.930 . S
H711 C723 0.929 . S
H712 C726 0.930 . S
H713 C728 0.960 . S
H714 C728 0.960 . S
H715 C728 0.960 . S
C716 H708 0.929 . S
C716 C717 1.377 . S
C716 C718 1.384 . S
C717 C716 1.377 . S
C717 C723 1.390 . S
C718 H709 0.930 . S
C718 C716 1.384 . S
C718 C719 1.372 . S
C719 C718 1.372 . S
C719 C720 1.400 . S
C719 C724 1.490 . S
C720 H710 0.930 . S
C720 C719 1.400 . S
C720 C723 1.386 . S
H721 C737 0.930 . S
H722 C738 0.931 . S
C723 H711 0.929 . S
C723 C717 1.390 . S
C723 C720 1.386 . S
C724 C719 1.490 . S
C724 C726 1.395 1_565 S
C724 C727 1.403 . S
H725 C731 0.930 . S
C726 H712 0.930 . S
C726 C724 1.395 1_545 S
C726 C729 1.403 . S
C727 C724 1.403 . S
C727 C728 1.524 . S
C727 C731 1.400 . S
C728 H713 0.960 . S
C728 H714 0.960 . S
C728 H715 0.960 . S
C728 C727 1.524 . S
C729 C726 1.403 . S
C729 C730 1.392 . S
C729 C733 1.495 . S
C730 C729 1.392 . S
C730 C731 1.385 1_545 S
C730 C732 1.478 . S
C731 H725 0.930 . S
C731 C727 1.400 . S
C731 C730 1.385 1_565 S
C732 C730 1.478 . S
C732 C734 1.381 . S
C732 C738 1.383 . S
C733 C729 1.495 . S
C733 H739 0.959 . S
C733 H740 0.961 . S
C733 H741 0.960 . S
C734 C732 1.381 . S
C734 C735 1.394 . S
C734 H742 0.930 . S
C735 C734 1.394 . S
C735 C736 1.383 . S
C735 H743 0.929 . S
C736 C735 1.383 . S
C736 C737 1.377 . S
C737 H721 0.930 . S
C737 C736 1.377 . S
C737 C738 1.379 . S
C738 H722 0.931 . S
C738 C732 1.383 . S
C738 C737 1.379 . S
H739 C733 0.959 . S
H740 C733 0.961 . S
H741 C733 0.960 . S
H742 C734 0.930 . S
H743 C735 0.929 . S
H744 C752 0.929 . S
H745 C754 0.930 . S
H746 C756 0.930 . S
H747 C759 0.929 . S
H748 C762 0.930 . S
H749 C764 0.960 . S
H750 C764 0.960 . S
H751 C764 0.960 . S
C752 H744 0.929 . S
C752 C753 1.377 . S
C752 C754 1.384 . S
C753 C752 1.377 . S
C753 C759 1.390 . S
C754 H745 0.930 . S
C754 C752 1.384 . S
C754 C755 1.372 . S
C755 C754 1.372 . S
C755 C756 1.400 . S
C755 C760 1.490 . S
C756 H746 0.930 . S
C756 C755 1.400 . S
C756 C759 1.386 . S
H757 C773 0.930 . S
H758 C774 0.931 . S
C759 H747 0.929 . S
C759 C753 1.390 . S
C759 C756 1.386 . S
C760 C755 1.490 . S
C760 C762 1.395 . S
C760 C763 1.403 . S
H761 C767 0.930 . S
C762 H748 0.930 . S
C762 C760 1.395 . S
C762 C765 1.403 . S
C763 C760 1.403 . S
C763 C764 1.524 . S
C763 C767 1.400 . S
C764 H749 0.960 . S
C764 H750 0.960 . S
C764 H751 0.960 . S
C764 C763 1.524 . S
C765 C762 1.403 . S
C765 C766 1.392 . S
C765 C769 1.495 . S
C766 C765 1.392 . S
C766 C767 1.385 . S
C766 C768 1.478 . S
C767 H761 0.930 . S
C767 C763 1.400 . S
C767 C766 1.385 . S
C768 C766 1.478 . S
C768 C770 1.381 . S
C768 C774 1.383 . S
C769 C765 1.495 . S
C769 H775 0.959 . S
C769 H776 0.961 . S
C769 H777 0.960 . S
C770 C768 1.381 . S
C770 C771 1.394 . S
C770 H778 0.930 . S
C771 C770 1.394 . S
C771 C772 1.383 . S
C771 H779 0.929 . S
C772 C771 1.383 . S
C772 C773 1.377 . S
C773 H757 0.930 . S
C773 C772 1.377 . S
C773 C774 1.379 . S
C774 H758 0.931 . S
C774 C768 1.383 . S
C774 C773 1.379 . S
H775 C769 0.959 . S
H776 C769 0.961 . S
H777 C769 0.960 . S
H778 C770 0.930 . S
H779 C771 0.929 . S
H780 C788 0.929 . S
H781 C790 0.930 . S
H782 C792 0.930 . S
H783 C795 0.929 . S
H784 C798 0.930 . S
H785 C800 0.960 . S
H786 C800 0.960 . S
H787 C800 0.960 . S
C788 H780 0.929 . S
C788 C789 1.377 . S
C788 C790 1.384 . S
C789 C788 1.377 . S
C789 C795 1.390 . S
C790 H781 0.930 . S
C790 C788 1.384 . S
C790 C791 1.372 . S
C791 C790 1.372 . S
C791 C792 1.400 . S
C791 C796 1.490 . S
C792 H782 0.930 . S
C792 C791 1.400 . S
C792 C795 1.386 . S
H793 C809 0.930 . S
H794 C810 0.931 . S
C795 H783 0.929 . S
C795 C789 1.390 . S
C795 C792 1.386 . S
C796 C791 1.490 . S
C796 C798 1.395 . S
C796 C799 1.403 . S
H797 C803 0.930 . S
C798 H784 0.930 . S
C798 C796 1.395 . S
C798 C801 1.403 . S
C799 C796 1.403 . S
C799 C800 1.524 . S
C799 C803 1.400 . S
C800 H785 0.960 . S
C800 H786 0.960 . S
C800 H787 0.960 . S
C800 C799 1.524 . S
C801 C798 1.403 . S
C801 C802 1.392 . S
C801 C805 1.495 . S
C802 C801 1.392 . S
C802 C803 1.385 . S
C802 C804 1.478 . S
C803 H797 0.930 . S
C803 C799 1.400 . S
C803 C802 1.385 . S
C804 C802 1.478 . S
C804 C806 1.381 . S
C804 C810 1.383 . S
C805 C801 1.495 . S
C805 H811 0.959 . S
C805 H812 0.961 . S
C805 H813 0.960 . S
C806 C804 1.381 . S
C806 C807 1.394 . S
C806 H814 0.930 . S
C807 C806 1.394 . S
C807 C808 1.383 . S
C807 H815 0.929 . S
C808 C807 1.383 . S
C808 C809 1.377 . S
C809 H793 0.930 . S
C809 C808 1.377 . S
C809 C810 1.379 . S
C810 H794 0.931 . S
C810 C804 1.383 . S
C810 C809 1.379 . S
H811 C805 0.959 . S
H812 C805 0.961 . S
H813 C805 0.960 . S
H814 C806 0.930 . S
H815 C807 0.929 . S
H816 C824 0.929 . S
H817 C826 0.930 . S
H818 C828 0.930 . S
H819 C831 0.929 . S
H820 C834 0.930 . S
H821 C836 0.960 . S
H822 C836 0.960 . S
H823 C836 0.960 . S
C824 H816 0.929 . S
C824 C825 1.377 . S
C824 C826 1.384 . S
C825 C824 1.377 . S
C825 C831 1.390 . S
C826 H817 0.930 . S
C826 C824 1.384 . S
C826 C827 1.372 . S
C827 C826 1.372 . S
C827 C828 1.400 . S
C827 C832 1.490 . S
C828 H818 0.930 . S
C828 C827 1.400 . S
C828 C831 1.386 . S
H829 C845 0.930 . S
H830 C846 0.931 . S
C831 H819 0.929 . S
C831 C825 1.390 . S
C831 C828 1.386 . S
C832 C827 1.490 . S
C832 C834 1.395 . S
C832 C835 1.403 . S
H833 C839 0.930 . S
C834 H820 0.930 . S
C834 C832 1.395 . S
C834 C837 1.403 . S
C835 C832 1.403 . S
C835 C836 1.524 . S
C835 C839 1.400 . S
C836 H821 0.960 . S
C836 H822 0.960 . S
C836 H823 0.960 . S
C836 C835 1.524 . S
C837 C834 1.403 . S
C837 C838 1.392 . S
C837 C841 1.495 . S
C838 C837 1.392 . S
C838 C839 1.385 . S
C838 C840 1.478 . S
C839 H833 0.930 . S
C839 C835 1.400 . S
C839 C838 1.385 . S
C840 C838 1.478 . S
C840 C842 1.381 . S
C840 C846 1.383 . S
C841 C837 1.495 . S
C841 H847 0.959 . S
C841 H848 0.961 . S
C841 H849 0.960 . S
C842 C840 1.381 . S
C842 C843 1.394 . S
C842 H850 0.930 . S
C843 C842 1.394 . S
C843 C844 1.383 . S
C843 H851 0.929 . S
C844 C843 1.383 . S
C844 C845 1.377 . S
C845 H829 0.930 . S
C845 C844 1.377 . S
C845 C846 1.379 . S
C846 H830 0.931 . S
C846 C840 1.383 . S
C846 C845 1.379 . S
H847 C841 0.959 . S
H848 C841 0.961 . S
H849 C841 0.960 . S
H850 C842 0.930 . S
H851 C843 0.929 . S
H852 C860 0.929 . S
H853 C862 0.930 . S
H854 C864 0.930 . S
H855 C867 0.929 . S
H856 C870 0.930 . S
H857 C872 0.960 . S
H858 C872 0.960 . S
H859 C872 0.960 . S
C860 H852 0.929 . S
C860 C861 1.377 . S
C860 C862 1.384 . S
C861 C860 1.377 . S
C861 C867 1.390 . S
C862 H853 0.930 . S
C862 C860 1.384 . S
C862 C863 1.372 . S
C863 C862 1.372 . S
C863 C864 1.400 . S
C863 C868 1.490 . S
C864 H854 0.930 . S
C864 C863 1.400 . S
C864 C867 1.386 . S
H865 C881 0.930 . S
H866 C882 0.931 . S
C867 H855 0.929 . S
C867 C861 1.390 . S
C867 C864 1.386 . S
C868 C863 1.490 . S
C868 C870 1.395 . S
C868 C871 1.403 . S
H869 C875 0.930 . S
C870 H856 0.930 . S
C870 C868 1.395 . S
C870 C873 1.403 . S
C871 C868 1.403 . S
C871 C872 1.524 . S
C871 C875 1.400 . S
C872 H857 0.960 . S
C872 H858 0.960 . S
C872 H859 0.960 . S
C872 C871 1.524 . S
C873 C870 1.403 . S
C873 C874 1.392 . S
C873 C877 1.495 . S
C874 C873 1.392 . S
C874 C875 1.385 . S
C874 C876 1.478 . S
C875 H869 0.930 . S
C875 C871 1.400 . S
C875 C874 1.385 . S
C876 C874 1.478 . S
C876 C878 1.381 . S
C876 C882 1.383 . S
C877 C873 1.495 . S
C877 H883 0.959 . S
C877 H884 0.961 . S
C877 H885 0.960 . S
C878 C876 1.381 . S
C878 C879 1.394 . S
C878 H886 0.930 . S
C879 C878 1.394 . S
C879 C880 1.383 . S
C879 H887 0.929 . S
C880 C879 1.383 . S
C880 C881 1.377 . S
C881 H865 0.930 . S
C881 C880 1.377 . S
C881 C882 1.379 . S
C882 H866 0.931 . S
C882 C876 1.383 . S
C882 C881 1.379 . S
H883 C877 0.959 . S
H884 C877 0.961 . S
H885 C877 0.960 . S
H886 C878 0.930 . S
H887 C879 0.929 . S
H888 C896 0.929 . S
H889 C898 0.930 . S
H890 C900 0.930 . S
H891 C903 0.929 . S
H892 C906 0.930 . S
H893 C908 0.960 . S
H894 C908 0.960 . S
H895 C908 0.960 . S
C896 H888 0.929 . S
C896 C897 1.377 . S
C896 C898 1.384 . S
C897 C896 1.377 . S
C897 C903 1.390 . S
C898 H889 0.930 . S
C898 C896 1.384 . S
C898 C899 1.372 . S
C899 C898 1.372 . S
C899 C900 1.400 . S
C899 C904 1.490 . S
C900 H890 0.930 . S
C900 C899 1.400 . S
C900 C903 1.386 . S
H901 C917 0.930 . S
H902 C918 0.931 . S
C903 H891 0.929 . S
C903 C897 1.390 . S
C903 C900 1.386 . S
C904 C899 1.490 . S
C904 C906 1.395 . S
C904 C907 1.403 . S
H905 C911 0.930 . S
C906 H892 0.930 . S
C906 C904 1.395 . S
C906 C909 1.403 . S
C907 C904 1.403 . S
C907 C908 1.524 . S
C907 C911 1.400 . S
C908 H893 0.960 . S
C908 H894 0.960 . S
C908 H895 0.960 . S
C908 C907 1.524 . S
C909 C906 1.403 . S
C909 C910 1.392 . S
C909 C913 1.495 . S
C910 C909 1.392 . S
C910 C911 1.385 . S
C910 C912 1.478 . S
C911 H905 0.930 . S
C911 C907 1.400 . S
C911 C910 1.385 . S
C912 C910 1.478 . S
C912 C914 1.381 . S
C912 C918 1.383 . S
C913 C909 1.495 . S
C913 H919 0.959 . S
C913 H920 0.961 . S
C913 H921 0.960 . S
C914 C912 1.381 . S
C914 C915 1.394 . S
C914 H922 0.930 . S
C915 C914 1.394 . S
C915 C916 1.383 . S
C915 H923 0.929 . S
C916 C915 1.383 . S
C916 C917 1.377 . S
C917 H901 0.930 . S
C917 C916 1.377 . S
C917 C918 1.379 . S
C918 H902 0.931 . S
C918 C912 1.383 . S
C918 C917 1.379 . S
H919 C913 0.959 . S
H920 C913 0.961 . S
H921 C913 0.960 . S
H922 C914 0.930 . S
H923 C915 0.929 . S
H924 C932 0.929 . S
H925 C934 0.930 . S
H926 C936 0.930 . S
H927 C939 0.929 . S
H928 C942 0.930 . S
H929 C944 0.960 . S
H930 C944 0.960 . S
H931 C944 0.960 . S
C932 H924 0.929 . S
C932 C933 1.377 . S
C932 C934 1.384 . S
C933 C932 1.377 . S
C933 C939 1.390 . S
C934 H925 0.930 . S
C934 C932 1.384 . S
C934 C935 1.372 . S
C935 C934 1.372 . S
C935 C936 1.400 . S
C935 C940 1.490 . S
C936 H926 0.930 . S
C936 C935 1.400 . S
C936 C939 1.386 . S
H937 C953 0.930 . S
H938 C954 0.931 . S
C939 H927 0.929 . S
C939 C933 1.390 . S
C939 C936 1.386 . S
C940 C935 1.490 . S
C940 C942 1.395 . S
C940 C943 1.403 . S
H941 C947 0.930 . S
C942 H928 0.930 . S
C942 C940 1.395 . S
C942 C945 1.403 . S
C943 C940 1.403 . S
C943 C944 1.524 . S
C943 C947 1.400 . S
C944 H929 0.960 . S
C944 H930 0.960 . S
C944 H931 0.960 . S
C944 C943 1.524 . S
C945 C942 1.403 . S
C945 C946 1.392 . S
C945 C949 1.495 . S
C946 C945 1.392 . S
C946 C947 1.385 . S
C946 C948 1.478 . S
C947 H941 0.930 . S
C947 C943 1.400 . S
C947 C946 1.385 . S
C948 C946 1.478 . S
C948 C950 1.381 . S
C948 C954 1.383 . S
C949 C945 1.495 . S
C949 H955 0.959 . S
C949 H956 0.961 . S
C949 H957 0.960 . S
C950 C948 1.381 . S
C950 C951 1.394 . S
C950 H958 0.930 . S
C951 C950 1.394 . S
C951 C952 1.383 . S
C951 H959 0.929 . S
C952 C951 1.383 . S
C952 C953 1.377 . S
C953 H937 0.930 . S
C953 C952 1.377 . S
C953 C954 1.379 . S
C954 H938 0.931 . S
C954 C948 1.383 . S
C954 C953 1.379 . S
H955 C949 0.959 . S
H956 C949 0.961 . S
H957 C949 0.960 . S
H958 C950 0.930 . S
H959 C951 0.929 . S
H960 C968 0.929 . S
H961 C970 0.930 . S
H962 C972 0.930 . S
H963 C975 0.929 . S
H964 C978 0.930 . S
H965 C980 0.960 . S
H966 C980 0.960 . S
H967 C980 0.960 . S
C968 H960 0.929 . S
C968 C969 1.377 . S
C968 C970 1.384 . S
C969 C968 1.377 . S
C969 C975 1.390 . S
C970 H961 0.930 . S
C970 C968 1.384 . S
C970 C971 1.372 . S
C971 C970 1.372 . S
C971 C972 1.400 . S
C971 C976 1.490 . S
C972 H962 0.930 . S
C972 C971 1.400 . S
C972 C975 1.386 . S
H973 C989 0.930 . S
H974 C990 0.931 . S
C975 H963 0.929 . S
C975 C969 1.390 . S
C975 C972 1.386 . S
C976 C971 1.490 . S
C976 C978 1.395 . S
C976 C979 1.403 . S
H977 C983 0.930 . S
C978 H964 0.930 . S
C978 C976 1.395 . S
C978 C981 1.403 . S
C979 C976 1.403 . S
C979 C980 1.524 . S
C979 C983 1.400 . S
C980 H965 0.960 . S
C980 H966 0.960 . S
C980 H967 0.960 . S
C980 C979 1.524 . S
C981 C978 1.403 . S
C981 C982 1.392 . S
C981 C985 1.495 . S
C982 C981 1.392 . S
C982 C983 1.385 . S
C982 C984 1.478 . S
C983 H977 0.930 . S
C983 C979 1.400 . S
C983 C982 1.385 . S
C984 C982 1.478 . S
C984 C986 1.381 . S
C984 C990 1.383 . S
C985 C981 1.495 . S
C985 H991 0.959 . S
C985 H992 0.961 . S
C985 H993 0.960 . S
C986 C984 1.381 . S
C986 C987 1.394 . S
C986 H994 0.930 . S
C987 C986 1.394 . S
C987 C988 1.383 . S
C987 H995 0.929 . S
C988 C987 1.383 . S
C988 C989 1.377 . S
C989 H973 0.930 . S
C989 C988 1.377 . S
C989 C990 1.379 . S
C990 H974 0.931 . S
C990 C984 1.383 . S
C990 C989 1.379 . S
H991 C985 0.959 . S
H992 C985 0.961 . S
H993 C985 0.960 . S
H994 C986 0.930 . S
H995 C987 0.929 . S
H996 C1004 0.929 . S
H997 C1006 0.930 . S
H998 C1008 0.930 . S
H999 C1011 0.929 . S
H1000 C1014 0.930 . S
H1001 C1016 0.960 . S
H1002 C1016 0.960 . S
H1003 C1016 0.960 . S
C1004 H996 0.929 . S
C1004 C1005 1.377 . S
C1004 C1006 1.384 . S
C1005 C1004 1.377 . S
C1005 C1011 1.390 . S
C1006 H997 0.930 . S
C1006 C1004 1.384 . S
C1006 C1007 1.372 . S
C1007 C1006 1.372 . S
C1007 C1008 1.400 . S
C1007 C1012 1.490 . S
C1008 H998 0.930 . S
C1008 C1007 1.400 . S
C1008 C1011 1.386 . S
H1009 C1025 0.930 . S
H1010 C1026 0.931 . S
C1011 H999 0.929 . S
C1011 C1005 1.390 . S
C1011 C1008 1.386 . S
C1012 C1007 1.490 . S
C1012 C1014 1.395 . S
C1012 C1015 1.403 . S
H1013 C1019 0.930 . S
C1014 H1000 0.930 . S
C1014 C1012 1.395 . S
C1014 C1017 1.403 . S
C1015 C1012 1.403 . S
C1015 C1016 1.524 . S
C1015 C1019 1.400 . S
C1016 H1001 0.960 . S
C1016 H1002 0.960 . S
C1016 H1003 0.960 . S
C1016 C1015 1.524 . S
C1017 C1014 1.403 . S
C1017 C1018 1.392 . S
C1017 C1021 1.495 . S
C1018 C1017 1.392 . S
C1018 C1019 1.385 . S
C1018 C1020 1.478 . S
C1019 H1013 0.930 . S
C1019 C1015 1.400 . S
C1019 C1018 1.385 . S
C1020 C1018 1.478 . S
C1020 C1022 1.381 . S
C1020 C1026 1.383 . S
C1021 C1017 1.495 . S
C1021 H1027 0.959 . S
C1021 H1028 0.961 . S
C1021 H1029 0.960 . S
C1022 C1020 1.381 . S
C1022 C1023 1.394 . S
C1022 H1030 0.930 . S
C1023 C1022 1.394 . S
C1023 C1024 1.383 . S
C1023 H1031 0.929 . S
C1024 C1023 1.383 . S
C1024 C1025 1.377 . S
C1025 H1009 0.930 . S
C1025 C1024 1.377 . S
C1025 C1026 1.379 . S
C1026 H1010 0.931 . S
C1026 C1020 1.383 . S
C1026 C1025 1.379 . S
H1027 C1021 0.959 . S
H1028 C1021 0.961 . S
H1029 C1021 0.960 . S
H1030 C1022 0.930 . S
H1031 C1023 0.929 . S
C177 C19 1.445 . S
C196 C103 1.428 . S
C213 C124 1.435 . S
C232 C41 1.391 . S
C249 C61 1.444 . S
C268 C146 1.445 . S
C285 C82 1.431 . S
C304 C167 1.473 . S
C321 C83 1.431 . S
C340 C166 1.472 . S
C357 C125 1.445 . S
C376 C40 1.433 . S
C393 C145 1.439 . S
C412 C62 1.470 . S
C429 C20 1.435 . S
C448 C104 1.390 . S
C465 C109 1.112 . S
C484 C4 1.161 . S
C501 C28 1.124 . S
C520 C133 1.071 . S
C537 C154 1.107 . S
C556 C46 1.074 . S
C573 C88 1.125 . S
C592 C67 1.081 . S
C609 C87 1.070 . S
C628 C79 1.052 . S
C645 C150 1.093 . S
C664 C45 1.137 . S
C681 C24 1.090 . S
C700 C142 1.078 . S
C717 C121 1.084 . S
C736 C3 1.130 . S
C753 C151 1.108 . S
C772 C49 1.169 . S
C789 C91 1.102 . S
C808 C70 1.151 . S
C825 C112 1.124 . S
C844 C7 1.104 . S
C861 C25 1.106 . S
C880 C130 1.169 . S
C897 C129 1.094 . S
C916 C37 1.129 . S
C933 C16 1.093 . S
C952 C108 1.136 . S
C969 C100 1.091 . S
C988 C66 1.138 . S
C1005 C163 1.092 . S
C1024 C58 1.136 . S
