# Generated by pormake.
# Topology afw, (4)-cn, num edge types: 1
# Building blocks:
#     Node 0, Type 0, BuildingBlock: QUQFOY_clean_sbu_1, # of connection points: 4
#     Node 1, Type 0, BuildingBlock: QUQFOY_clean_sbu_1, # of connection points: 4
#     Node 2, Type 0, BuildingBlock: QUQFOY_clean_sbu_1, # of connection points: 4
#     Node 3, Type 0, BuildingBlock: QUQFOY_clean_sbu_1, # of connection points: 4
#     Node 4, Type 0, BuildingBlock: QUQFOY_clean_sbu_1, # of connection points: 4
#     Node 5, Type 0, BuildingBlock: QUQFOY_clean_sbu_1, # of connection points: 4
#     Node 6, Type 0, BuildingBlock: QUQFOY_clean_sbu_1, # of connection points: 4
#     Node 7, Type 0, BuildingBlock: QUQFOY_clean_sbu_1, # of connection points: 4
#     Node 8, Type 0, BuildingBlock: QUQFOY_clean_sbu_1, # of connection points: 4
#     Edge 9, Type (0, 0), BuildingBlock: OJICUG_clean_linker_0, # of connection points: 2
#     Edge 10, Type (0, 0), BuildingBlock: OJICUG_clean_linker_0, # of connection points: 2
#     Edge 11, Type (0, 0), BuildingBlock: OJICUG_clean_linker_0, # of connection points: 2
#     Edge 12, Type (0, 0), BuildingBlock: OJICUG_clean_linker_0, # of connection points: 2
#     Edge 13, Type (0, 0), BuildingBlock: OJICUG_clean_linker_0, # of connection points: 2
#     Edge 14, Type (0, 0), BuildingBlock: OJICUG_clean_linker_0, # of connection points: 2
#     Edge 15, Type (0, 0), BuildingBlock: OJICUG_clean_linker_0, # of connection points: 2
#     Edge 16, Type (0, 0), BuildingBlock: OJICUG_clean_linker_0, # of connection points: 2
#     Edge 17, Type (0, 0), BuildingBlock: OJICUG_clean_linker_0, # of connection points: 2
#     Edge 18, Type (0, 0), BuildingBlock: OJICUG_clean_linker_0, # of connection points: 2
#     Edge 19, Type (0, 0), BuildingBlock: OJICUG_clean_linker_0, # of connection points: 2
#     Edge 20, Type (0, 0), BuildingBlock: OJICUG_clean_linker_0, # of connection points: 2
#     Edge 21, Type (0, 0), BuildingBlock: OJICUG_clean_linker_0, # of connection points: 2
#     Edge 22, Type (0, 0), BuildingBlock: OJICUG_clean_linker_0, # of connection points: 2
#     Edge 23, Type (0, 0), BuildingBlock: OJICUG_clean_linker_0, # of connection points: 2
#     Edge 24, Type (0, 0), BuildingBlock: OJICUG_clean_linker_0, # of connection points: 2
#     Edge 25, Type (0, 0), BuildingBlock: OJICUG_clean_linker_0, # of connection points: 2
#     Edge 26, Type (0, 0), BuildingBlock: OJICUG_clean_linker_0, # of connection points: 2
# Relax obj value: 0.117
# Max RMSD: 0.155
# Mean RMSD: 0.155
data_MOF--net-afw--node1-QUQFOY_clean_sbu_1--edge1-OJICUG_clean_linker_0
_symmetry_space_group_name_H-M    P1
_symmetry_Int_Tables_number       1
_symmetry_cell_setting            triclinic
loop_
_symmetry_equiv_pos_as_xyz
'x, y, z'
_cell_length_a     31.784341
_cell_length_b     31.800226
_cell_length_c     27.116508
_cell_angle_alpha  90.022894
_cell_angle_beta   89.974408
_cell_angle_gamma 120.12923
loop_
_atom_site_label
_atom_site_type_symbol
_atom_site_fract_x
_atom_site_fract_y
_atom_site_fract_z
_atom_type_partial_charge
O0 O 0.0689 0.19735 1.00922 0.0
Cd1 Cd 0.00849 0.20486 1.00091 0.0
Cd2 Cd 0.01129 0.20596 0.09865 0.0
O3 O 0.07731 0.20911 0.08953 0.0
O4 O 0.01093 0.22656 0.93151 0.0
O5 O 0.01786 0.27204 0.99623 0.0
C6 C 0.01814 0.26741 0.9489 0.0
C7 C 0.0016 0.25898 0.15039 0.0
C8 C 0.09211 0.20143 0.04877 0.0
C9 C 0.92761 0.11898 0.05049 0.0
O10 O 0.95085 0.1379 0.09011 0.0
O11 O 0.94243 0.14179 1.00989 0.0
O12 O 0.00874 0.2254 0.16796 0.0
O13 O 0.002 0.26379 0.10304 0.0
O14 O 0.88758 0.8342 0.08809 0.0
Cd15 Cd 0.81975 0.82665 0.09782 0.0
Cd16 Cd 0.82007 0.8261 0.99989 0.0
O17 O 0.88327 0.82336 1.0076 0.0
O18 O 0.8014 0.80476 0.16732 0.0
O19 O 0.76162 0.75949 0.10286 0.0
C20 C 0.76724 0.764 0.15014 0.0
C21 C 0.75739 0.77357 0.94758 0.0
C22 C 0.90627 0.83065 0.04797 0.0
C23 C 0.82417 0.91269 0.04961 0.0
O24 O 0.82762 0.8939 1.00951 0.0
O25 O 0.81699 0.8898 0.09003 0.0
O26 O 0.79817 0.80771 0.93039 0.0
O27 O 0.75286 0.76798 0.99486 0.0
O28 O 0.13151 0.95712 1.00671 0.0
Cd29 Cd 0.19955 0.01753 0.9979 0.0
Cd30 Cd 0.1987 0.01514 0.09568 0.0
O31 O 0.13558 0.94909 0.08697 0.0
O32 O 0.21885 0.01475 0.92859 0.0
O33 O 0.25745 0.00831 0.9935 0.0
C34 C 0.25254 0.00774 0.94615 0.0
C35 C 0.26121 0.02495 0.14791 0.0
C36 C 0.11267 0.93408 0.04644 0.0
C37 C 0.19511 0.0985 0.04745 0.0
O38 O 0.19119 0.0755 0.08711 0.0
O39 O 0.20265 0.08351 1.00674 0.0
O40 O 0.22033 0.01782 0.16516 0.0
O41 O 0.26591 0.02451 0.1006 0.0
O42 O 0.61721 0.47091 0.42285 0.0
Cd43 Cd 0.67765 0.53891 0.43174 0.0
Cd44 Cd 0.67554 0.53802 0.33397 0.0
O45 O 0.60941 0.47495 0.34254 0.0
O46 O 0.67471 0.55818 0.50103 0.0
O47 O 0.66843 0.59679 0.43606 0.0
C48 C 0.66775 0.59186 0.48341 0.0
C49 C 0.68554 0.60068 0.28192 0.0
C50 C 0.59427 0.45206 0.38307 0.0
C51 C 0.75875 0.53434 0.38251 0.0
O52 O 0.73585 0.53043 0.34276 0.0
O53 O 0.74366 0.54194 0.42313 0.0
O54 O 0.67842 0.55986 0.26455 0.0
O55 O 0.68499 0.60523 0.32924 0.0
O56 O 0.55372 0.16711 0.42115 0.0
Cd57 Cd 0.48587 0.15963 0.43033 0.0
Cd58 Cd 0.48684 0.15915 0.33245 0.0
O59 O 0.54991 0.15627 0.34067 0.0
O60 O 0.46707 0.13769 0.49975 0.0
O61 O 0.42768 0.09248 0.43512 0.0
C62 C 0.43301 0.09695 0.48243 0.0
C63 C 0.42427 0.10658 0.28007 0.0
C64 C 0.57265 0.16352 0.38121 0.0
C65 C 0.49073 0.24576 0.38186 0.0
O66 O 0.49445 0.227 0.34187 0.0
O67 O 0.48322 0.22281 0.4223 0.0
O68 O 0.46512 0.14063 0.26293 0.0
O69 O 0.41962 0.1011 0.32736 0.0
O70 O 0.85736 0.40809 0.42192 0.0
Cd71 Cd 0.86481 0.34771 0.4306 0.0
Cd72 Cd 0.86618 0.35021 0.33283 0.0
O73 O 0.86921 0.41617 0.3416 0.0
O74 O 0.8864 0.35034 0.50008 0.0
O75 O 0.93198 0.35702 0.43551 0.0
C76 C 0.92728 0.35745 0.48282 0.0
C77 C 0.91933 0.34058 0.28116 0.0
C78 C 0.86148 0.43113 0.38224 0.0
C79 C 0.77903 0.2667 0.38102 0.0
O80 O 0.79811 0.28976 0.34136 0.0
O81 O 0.80171 0.28168 0.42168 0.0
O82 O 0.88565 0.34758 0.26355 0.0
O83 O 0.92414 0.34105 0.32852 0.0
O84 O 0.40159 0.86336 0.67462 0.0
Cd85 Cd 0.34123 0.87089 0.66599 0.0
Cd86 Cd 0.34382 0.87238 0.76374 0.0
O87 O 0.4098 0.87539 0.7549 0.0
O88 O 0.34385 0.89266 0.59658 0.0
O89 O 0.35063 0.93808 0.66131 0.0
C90 C 0.35104 0.9335 0.61398 0.0
C91 C 0.33422 0.92553 0.81541 0.0
C92 C 0.42469 0.86754 0.71428 0.0
C93 C 0.2602 0.78524 0.71566 0.0
O94 O 0.28333 0.80434 0.75529 0.0
O95 O 0.27514 0.80787 0.67498 0.0
O96 O 0.34124 0.89188 0.83302 0.0
O97 O 0.33465 0.9303 0.76805 0.0
O98 O 0.22037 0.50083 0.75561 0.0
Cd99 Cd 0.15248 0.49325 0.76486 0.0
Cd100 Cd 0.15306 0.49212 0.667 0.0
O101 O 0.21622 0.4894 0.67521 0.0
O102 O 0.13377 0.47148 0.83434 0.0
O103 O 0.0944 0.42607 0.76981 0.0
C104 C 0.09976 0.43067 0.81711 0.0
C105 C 0.09046 0.4393 0.6148 0.0
C106 C 0.23915 0.49698 0.71568 0.0
C107 C 0.15695 0.57896 0.71589 0.0
O108 O 0.16059 0.55998 0.67603 0.0
O109 O 0.14963 0.55629 0.75648 0.0
O110 O 0.13127 0.47331 0.59755 0.0
O111 O 0.08586 0.434 0.6621 0.0
O112 O 0.46441 0.62303 0.6746 0.0
Cd113 Cd 0.5324 0.68348 0.66557 0.0
Cd114 Cd 0.53154 0.68173 0.76338 0.0
O115 O 0.46841 0.61562 0.75498 0.0
O116 O 0.55161 0.68041 0.59628 0.0
O117 O 0.59042 0.67442 0.66125 0.0
C118 C 0.58542 0.67363 0.61391 0.0
C119 C 0.59414 0.69181 0.8156 0.0
C120 C 0.44554 0.60029 0.71447 0.0
C121 C 0.52781 0.7647 0.71443 0.0
O122 O 0.52399 0.74201 0.75429 0.0
O123 O 0.53532 0.74943 0.67388 0.0
O124 O 0.5533 0.6848 0.83286 0.0
O125 O 0.59875 0.69112 0.7683 0.0
C126 C 0.17138 0.15259 1.00324 0.0
C127 C 0.182 0.13713 0.0477 0.0
H128 H 0.13496 0.1859 0.96865 0.0
C129 C 0.1718 0.15255 0.09248 0.0
H130 H 0.1792 0.14186 0.96805 0.0
C131 C 0.14655 0.17803 0.09283 0.0
C132 C 0.13077 0.18833 0.0484 0.0
H133 H 0.18014 0.14189 0.12742 0.0
H134 H 0.13606 0.18609 0.12803 0.0
C135 C 0.14588 0.17783 1.00359 0.0
C136 C 0.8474 0.9906 1.00565 0.0
C137 C 0.83742 0.96451 0.05011 0.0
H138 H 0.88307 0.06034 0.97083 0.0
C139 C 0.84838 0.9902 0.09488 0.0
H140 H 0.8388 0.97191 0.97049 0.0
C141 C 0.874 0.04103 0.09508 0.0
C142 C 0.88888 0.06711 0.05051 0.0
H143 H 0.84073 0.97128 0.12985 0.0
H144 H 0.88516 0.05971 0.13019 0.0
C145 C 0.87277 0.04142 1.00585 0.0
C146 C 0.98436 0.85405 0.09173 0.0
C147 C 0.95813 0.8439 0.04735 0.0
H148 H 0.05424 0.88984 0.12634 0.0
C149 C 0.9837 0.8547 1.0025 0.0
H150 H 0.96577 0.84557 0.12695 0.0
C151 C 0.03455 0.88031 1.00215 0.0
C152 C 0.06078 0.89536 0.04662 0.0
H153 H 0.96466 0.84692 0.96759 0.0
H154 H 0.05313 0.89134 0.96697 0.0
C155 C 0.03521 0.87941 0.09138 0.0
C156 C 0.83792 0.48513 0.42698 0.0
C157 C 0.84842 0.4698 0.38231 0.0
H158 H 0.80202 0.51869 0.46217 0.0
C159 C 0.83816 0.4854 0.33773 0.0
H160 H 0.84597 0.47436 0.46201 0.0
C161 C 0.81274 0.51071 0.33782 0.0
C162 C 0.79734 0.52114 0.38249 0.0
H163 H 0.84622 0.47473 0.30263 0.0
H164 H 0.80211 0.51891 0.30279 0.0
C165 C 0.81275 0.51069 0.42707 0.0
C166 C 0.5144 0.32376 0.33786 0.0
C167 C 0.50403 0.2976 0.38231 0.0
H168 H 0.5504 0.39355 0.30315 0.0
C169 C 0.51462 0.32322 0.4271 0.0
H170 H 0.50609 0.30512 0.30268 0.0
C171 C 0.54025 0.37405 0.42737 0.0
C172 C 0.55552 0.4002 0.38287 0.0
H173 H 0.50666 0.30425 0.46205 0.0
H174 H 0.55112 0.39267 0.46253 0.0
C175 C 0.53979 0.37458 0.33813 0.0
C176 C 0.65043 0.18681 0.42556 0.0
C177 C 0.62448 0.17668 0.38098 0.0
H178 H 0.72008 0.22253 0.46061 0.0
C179 C 0.65033 0.18742 0.33631 0.0
H180 H 0.63162 0.17838 0.46065 0.0
C181 C 0.70118 0.21296 0.33629 0.0
C182 C 0.72713 0.228 0.38093 0.0
H183 H 0.63152 0.17965 0.30128 0.0
H184 H 0.71999 0.22395 0.30123 0.0
C185 C 0.70127 0.21211 0.42553 0.0
C186 C 0.47847 0.84364 0.6696 0.0
C187 C 0.46333 0.85441 0.71423 0.0
H188 H 0.51186 0.80751 0.63456 0.0
C189 C 0.47907 0.84439 0.75884 0.0
H190 H 0.46758 0.8515 0.63454 0.0
C191 C 0.50436 0.81894 0.75885 0.0
C192 C 0.51462 0.80328 0.71426 0.0
H193 H 0.46856 0.85266 0.79391 0.0
H194 H 0.51268 0.80851 0.79394 0.0
C195 C 0.50401 0.81844 0.66961 0.0
C196 C 0.20559 0.70744 0.67128 0.0
C197 C 0.22148 0.73337 0.71584 0.0
H198 H 0.17186 0.63776 0.63631 0.0
C199 C 0.20641 0.70751 0.76052 0.0
H200 H 0.21604 0.72619 0.63617 0.0
C201 C 0.18085 0.65669 0.7606 0.0
C202 C 0.17013 0.63077 0.71599 0.0
H203 H 0.2174 0.72638 0.79555 0.0
H204 H 0.17307 0.63796 0.79568 0.0
C205 C 0.18028 0.65662 0.67136 0.0
C206 C 0.31716 0.52074 0.75977 0.0
C207 C 0.291 0.51021 0.7153 0.0
H208 H 0.38699 0.5568 0.79447 0.0
C209 C 0.31663 0.52057 0.67053 0.0
H210 H 0.29852 0.51261 0.79495 0.0
C211 C 0.36748 0.54613 0.67025 0.0
C212 C 0.39365 0.56158 0.71474 0.0
H213 H 0.29765 0.51248 0.63557 0.0
H214 H 0.38612 0.55683 0.63508 0.0
C215 C 0.36801 0.54606 0.7595 0.0
C216 C 0.02598 0.30179 0.86418 0.0
C217 C 0.03111 0.30893 0.9155 0.0
H218 H 0.04291 0.33483 0.79268 0.0
C219 C 0.05363 0.35657 0.93409 0.0
H220 H 0.00849 0.26547 0.84874 0.0
C221 C 0.07378 0.39631 0.90194 0.0
C222 C 0.07124 0.38916 0.8506 0.0
H223 H 0.05808 0.36327 0.97344 0.0
H224 H 0.09303 0.43262 0.91738 0.0
C225 C 0.04558 0.34153 0.83203 0.0
C226 C 0.6682 0.71954 0.93259 0.0
C227 C 0.71588 0.74512 0.91406 0.0
H228 H 0.59212 0.68247 0.91581 0.0
C229 C 0.72307 0.7476 0.86273 0.0
H230 H 0.66147 0.71693 0.97194 0.0
C231 C 0.68334 0.72742 0.83054 0.0
C232 C 0.63566 0.70493 0.84908 0.0
H233 H 0.75942 0.7668 0.84733 0.0
H234 H 0.69008 0.73179 0.7912 0.0
C235 C 0.62847 0.69991 0.90041 0.0
C236 C 0.32605 0.95225 0.89995 0.0
C237 C 0.32127 0.95425 0.84857 0.0
H238 H 0.3088 0.96848 0.97123 0.0
C239 C 0.29913 0.97952 0.82968 0.0
H240 H 0.34324 0.9333 0.91562 0.0
C241 C 0.27898 0.99927 0.86157 0.0
C242 C 0.28113 0.99466 0.91295 0.0
H243 H 0.29497 0.98178 0.79029 0.0
H244 H 0.26001 0.01644 0.8459 0.0
C245 C 0.30643 0.97253 0.93183 0.0
C246 C 0.39007 0.08063 0.19518 0.0
C247 C 0.38281 0.07811 0.2465 0.0
H248 H 0.35718 0.0649 0.12361 0.0
C249 C 0.33512 0.0525 0.26497 0.0
H250 H 0.42644 0.09986 0.17982 0.0
C251 C 0.29543 0.03289 0.23273 0.0
C252 C 0.30268 0.03797 0.18142 0.0
H253 H 0.32833 0.04985 0.30431 0.0
H254 H 0.25906 0.01543 0.24809 0.0
C255 C 0.35039 0.06048 0.16294 0.0
C256 C 0.96633 0.31281 0.16472 0.0
C257 C 0.98852 0.28757 0.1836 0.0
H258 H 0.92704 0.34955 0.18094 0.0
C259 C 0.99318 0.28545 0.23498 0.0
H260 H 0.96225 0.31516 0.12533 0.0
C261 C 0.97341 0.30558 0.26687 0.0
C262 C 0.94807 0.32766 0.24799 0.0
H263 H 0.0104 0.26653 0.25064 0.0
H264 H 0.9757 0.30144 0.30626 0.0
C265 C 0.94604 0.33241 0.19661 0.0
C266 C 0.69344 0.63511 0.19721 0.0
C267 C 0.69863 0.64224 0.24853 0.0
H268 H 0.7103 0.66818 0.12571 0.0
C269 C 0.72128 0.68987 0.26714 0.0
H270 H 0.67586 0.5988 0.18177 0.0
C271 C 0.74145 0.72962 0.235 0.0
C272 C 0.73879 0.72249 0.18365 0.0
H273 H 0.7258 0.69656 0.30648 0.0
H274 H 0.76078 0.76593 0.25044 0.0
C275 C 0.71305 0.67487 0.16508 0.0
C276 C 0.00128 0.3852 0.59983 0.0
C277 C 0.04896 0.41072 0.58131 0.0
H278 H 0.92521 0.34816 0.58304 0.0
C279 C 0.05617 0.41306 0.52998 0.0
H280 H 0.99454 0.38268 0.63918 0.0
C281 C 0.01645 0.39286 0.49779 0.0
C282 C 0.96877 0.37047 0.51632 0.0
H283 H 0.09252 0.43221 0.51459 0.0
H284 H 0.0232 0.39716 0.45845 0.0
C285 C 0.96156 0.36553 0.56764 0.0
C286 C 0.65926 0.61841 0.56792 0.0
C287 C 0.6546 0.62044 0.51653 0.0
H288 H 0.6418 0.63454 0.63915 0.0
C289 C 0.63237 0.64561 0.49757 0.0
H290 H 0.67651 0.59954 0.58364 0.0
C291 C 0.61205 0.66523 0.5294 0.0
C292 C 0.61412 0.66062 0.58078 0.0
H293 H 0.62828 0.64787 0.45817 0.0
H294 H 0.59302 0.68233 0.51367 0.0
C295 C 0.63949 0.63859 0.59975 0.0
C296 C 0.38659 0.02267 0.59927 0.0
C297 C 0.3641 0.97506 0.58061 0.0
H298 H 0.42604 0.09875 0.58268 0.0
C299 C 0.3591 0.968 0.52927 0.0
H300 H 0.39095 0.02931 0.63863 0.0
C301 C 0.37879 0.00779 0.49719 0.0
C302 C 0.4044 0.05539 0.51584 0.0
H303 H 0.34165 0.9317 0.51378 0.0
H304 H 0.37622 0.00115 0.45782 0.0
C305 C 0.40682 0.06246 0.56718 0.0
loop_
_geom_bond_atom_site_label_1
_geom_bond_atom_site_label_2
_geom_bond_distance
_geom_bond_site_symmetry_2
_ccdc_geom_bond_type
O0 Cd1 2.218 1_455 S
O0 C8 1.315 . S
Cd1 O0 2.218 1_655 S
Cd1 O4 2.295 1_655 S
Cd1 O5 2.439 1_655 S
Cd1 O11 2.242 1_556 S
Cd2 O3 2.240 . S
Cd2 O10 2.223 1_455 S
Cd2 O12 2.297 1_455 S
Cd2 O13 2.439 1_455 S
O3 Cd2 2.240 . S
O3 C8 1.279 1_554 S
O4 Cd1 2.295 1_455 S
O4 C6 1.247 . S
O5 Cd1 2.439 1_455 S
O5 C6 1.208 . S
C6 O4 1.247 . S
C6 O5 1.208 . S
C7 O12 1.247 . S
C7 O13 1.208 . S
C8 O0 1.315 . S
C8 O3 1.279 1_556 S
C9 O10 1.315 . S
C9 O11 1.279 . S
O10 Cd2 2.223 1_655 S
O10 C9 1.315 . S
O11 Cd1 2.242 1_554 S
O11 C9 1.279 . S
O12 Cd2 2.297 1_655 S
O12 C7 1.247 . S
O13 Cd2 2.439 1_655 S
O13 C7 1.208 . S
O14 Cd15 2.223 . S
O14 C22 1.315 . S
Cd15 O14 2.223 . S
Cd15 O18 2.297 . S
Cd15 O19 2.439 . S
Cd15 O25 2.240 . S
Cd16 O17 2.240 1_556 S
Cd16 O24 2.223 . S
Cd16 O26 2.297 . S
Cd16 O27 2.439 . S
O17 Cd16 2.240 1_554 S
O17 C22 1.279 . S
O18 Cd15 2.297 . S
O18 C20 1.247 . S
O19 Cd15 2.439 . S
O19 C20 1.208 . S
C20 O18 1.247 . S
C20 O19 1.208 . S
C21 O26 1.247 . S
C21 O27 1.208 . S
C22 O14 1.315 . S
C22 O17 1.279 . S
C23 O24 1.315 . S
C23 O25 1.279 1_556 S
O24 Cd16 2.223 . S
O24 C23 1.315 . S
O25 Cd15 2.240 . S
O25 C23 1.279 1_554 S
O26 Cd16 2.297 . S
O26 C21 1.247 . S
O27 Cd16 2.439 . S
O27 C21 1.208 . S
O28 Cd29 2.223 1_565 S
O28 C36 1.315 . S
Cd29 O28 2.223 1_545 S
Cd29 O32 2.297 1_545 S
Cd29 O33 2.439 1_545 S
Cd29 O39 2.240 1_556 S
Cd30 O31 2.240 1_545 S
Cd30 O38 2.223 . S
Cd30 O40 2.297 . S
Cd30 O41 2.439 . S
O31 Cd30 2.240 1_565 S
O31 C36 1.279 1_554 S
O32 Cd29 2.297 1_565 S
O32 C34 1.247 . S
O33 Cd29 2.439 1_565 S
O33 C34 1.208 . S
C34 O32 1.247 . S
C34 O33 1.208 . S
C35 O40 1.247 . S
C35 O41 1.208 . S
C36 O28 1.315 . S
C36 O31 1.279 1_556 S
C37 O38 1.315 . S
C37 O39 1.279 . S
O38 Cd30 2.223 . S
O38 C37 1.315 . S
O39 Cd29 2.240 1_554 S
O39 C37 1.279 . S
O40 Cd30 2.297 . S
O40 C35 1.247 . S
O41 Cd30 2.439 . S
O41 C35 1.208 . S
O42 Cd43 2.223 . S
O42 C50 1.315 . S
Cd43 O42 2.223 . S
Cd43 O46 2.297 . S
Cd43 O47 2.439 . S
Cd43 O53 2.240 . S
Cd44 O45 2.240 . S
Cd44 O52 2.223 . S
Cd44 O54 2.297 . S
Cd44 O55 2.439 . S
O45 Cd44 2.240 . S
O45 C50 1.279 . S
O46 Cd43 2.297 . S
O46 C48 1.247 . S
O47 Cd43 2.439 . S
O47 C48 1.208 . S
C48 O46 1.247 . S
C48 O47 1.208 . S
C49 O54 1.247 . S
C49 O55 1.208 . S
C50 O42 1.315 . S
C50 O45 1.279 . S
C51 O52 1.315 . S
C51 O53 1.279 . S
O52 Cd44 2.223 . S
O52 C51 1.315 . S
O53 Cd43 2.240 . S
O53 C51 1.279 . S
O54 Cd44 2.297 . S
O54 C49 1.247 . S
O55 Cd44 2.439 . S
O55 C49 1.208 . S
O56 Cd57 2.223 . S
O56 C64 1.315 . S
Cd57 O56 2.223 . S
Cd57 O60 2.297 . S
Cd57 O61 2.439 . S
Cd57 O67 2.240 . S
Cd58 O59 2.240 . S
Cd58 O66 2.223 . S
Cd58 O68 2.297 . S
Cd58 O69 2.439 . S
O59 Cd58 2.240 . S
O59 C64 1.279 . S
O60 Cd57 2.297 . S
O60 C62 1.247 . S
O61 Cd57 2.439 . S
O61 C62 1.208 . S
C62 O60 1.247 . S
C62 O61 1.208 . S
C63 O68 1.247 . S
C63 O69 1.208 . S
C64 O56 1.315 . S
C64 O59 1.279 . S
C65 O66 1.315 . S
C65 O67 1.279 . S
O66 Cd58 2.223 . S
O66 C65 1.315 . S
O67 Cd57 2.240 . S
O67 C65 1.279 . S
O68 Cd58 2.297 . S
O68 C63 1.247 . S
O69 Cd58 2.439 . S
O69 C63 1.208 . S
O70 Cd71 2.223 . S
O70 C78 1.315 . S
Cd71 O70 2.223 . S
Cd71 O74 2.297 . S
Cd71 O75 2.439 . S
Cd71 O81 2.240 . S
Cd72 O73 2.240 . S
Cd72 O80 2.223 . S
Cd72 O82 2.297 . S
Cd72 O83 2.439 . S
O73 Cd72 2.240 . S
O73 C78 1.279 . S
O74 Cd71 2.297 . S
O74 C76 1.247 . S
O75 Cd71 2.439 . S
O75 C76 1.208 . S
C76 O74 1.247 . S
C76 O75 1.208 . S
C77 O82 1.247 . S
C77 O83 1.208 . S
C78 O70 1.315 . S
C78 O73 1.279 . S
C79 O80 1.315 . S
C79 O81 1.279 . S
O80 Cd72 2.223 . S
O80 C79 1.315 . S
O81 Cd71 2.240 . S
O81 C79 1.279 . S
O82 Cd72 2.297 . S
O82 C77 1.247 . S
O83 Cd72 2.439 . S
O83 C77 1.208 . S
O84 Cd85 2.223 . S
O84 C92 1.315 . S
Cd85 O84 2.223 . S
Cd85 O88 2.297 . S
Cd85 O89 2.439 . S
Cd85 O95 2.240 . S
Cd86 O87 2.240 . S
Cd86 O94 2.223 . S
Cd86 O96 2.297 . S
Cd86 O97 2.439 . S
O87 Cd86 2.240 . S
O87 C92 1.279 . S
O88 Cd85 2.297 . S
O88 C90 1.247 . S
O89 Cd85 2.439 . S
O89 C90 1.208 . S
C90 O88 1.247 . S
C90 O89 1.208 . S
C91 O96 1.247 . S
C91 O97 1.208 . S
C92 O84 1.315 . S
C92 O87 1.279 . S
C93 O94 1.315 . S
C93 O95 1.279 . S
O94 Cd86 2.223 . S
O94 C93 1.315 . S
O95 Cd85 2.240 . S
O95 C93 1.279 . S
O96 Cd86 2.297 . S
O96 C91 1.247 . S
O97 Cd86 2.439 . S
O97 C91 1.208 . S
O98 Cd99 2.223 . S
O98 C106 1.315 . S
Cd99 O98 2.223 . S
Cd99 O102 2.297 . S
Cd99 O103 2.439 . S
Cd99 O109 2.240 . S
Cd100 O101 2.240 . S
Cd100 O108 2.223 . S
Cd100 O110 2.297 . S
Cd100 O111 2.439 . S
O101 Cd100 2.240 . S
O101 C106 1.279 . S
O102 Cd99 2.297 . S
O102 C104 1.247 . S
O103 Cd99 2.439 . S
O103 C104 1.208 . S
C104 O102 1.247 . S
C104 O103 1.208 . S
C105 O110 1.247 . S
C105 O111 1.208 . S
C106 O98 1.315 . S
C106 O101 1.279 . S
C107 O108 1.315 . S
C107 O109 1.279 . S
O108 Cd100 2.223 . S
O108 C107 1.315 . S
O109 Cd99 2.240 . S
O109 C107 1.279 . S
O110 Cd100 2.297 . S
O110 C105 1.247 . S
O111 Cd100 2.439 . S
O111 C105 1.208 . S
O112 Cd113 2.223 . S
O112 C120 1.315 . S
Cd113 O112 2.223 . S
Cd113 O116 2.297 . S
Cd113 O117 2.439 . S
Cd113 O123 2.240 . S
Cd114 O115 2.240 . S
Cd114 O122 2.223 . S
Cd114 O124 2.297 . S
Cd114 O125 2.439 . S
O115 Cd114 2.240 . S
O115 C120 1.279 . S
O116 Cd113 2.297 . S
O116 C118 1.247 . S
O117 Cd113 2.439 . S
O117 C118 1.208 . S
C118 O116 1.247 . S
C118 O117 1.208 . S
C119 O124 1.247 . S
C119 O125 1.208 . S
C120 O112 1.315 . S
C120 O115 1.279 . S
C121 O122 1.315 . S
C121 O123 1.279 . S
O122 Cd114 2.223 . S
O122 C121 1.315 . S
O123 Cd113 2.240 . S
O123 C121 1.279 . S
O124 Cd114 2.297 . S
O124 C119 1.247 . S
O125 Cd114 2.439 . S
O125 C119 1.208 . S
C126 C127 1.387 1_556 S
C126 H130 0.950 . S
C126 C135 1.390 . S
C127 C126 1.387 1_554 S
C127 C129 1.387 . S
H128 C135 0.950 . S
C129 C127 1.387 . S
C129 C131 1.390 . S
C129 H133 0.950 . S
H130 C126 0.950 . S
C131 C129 1.390 . S
C131 C132 1.387 . S
C131 H134 0.950 . S
C132 C131 1.387 . S
C132 C135 1.387 1_554 S
H133 C129 0.950 . S
H134 C131 0.950 . S
C135 C126 1.390 . S
C135 H128 0.950 . S
C135 C132 1.387 1_556 S
C136 C137 1.387 . S
C136 H140 0.950 . S
C136 C145 1.390 1_565 S
C137 C136 1.387 . S
C137 C139 1.387 . S
H138 C145 0.950 . S
C139 C137 1.387 . S
C139 C141 1.390 1_565 S
C139 H143 0.950 . S
H140 C136 0.950 . S
C141 C139 1.390 1_545 S
C141 C142 1.387 . S
C141 H144 0.950 . S
C142 C141 1.387 . S
C142 C145 1.387 . S
H143 C139 0.950 . S
H144 C141 0.950 . S
C145 C136 1.390 1_545 S
C145 H138 0.950 . S
C145 C142 1.387 . S
C146 C147 1.387 . S
C146 H150 0.950 . S
C146 C155 1.390 1_655 S
C147 C146 1.387 . S
C147 C149 1.387 1_554 S
H148 C155 0.950 . S
C149 C147 1.387 1_556 S
C149 C151 1.390 1_655 S
C149 H153 0.950 . S
H150 C146 0.950 . S
C151 C149 1.390 1_455 S
C151 C152 1.387 1_556 S
C151 H154 0.950 . S
C152 C151 1.387 1_554 S
C152 C155 1.387 . S
H153 C149 0.950 . S
H154 C151 0.950 . S
C155 C146 1.390 1_455 S
C155 H148 0.950 . S
C155 C152 1.387 . S
C156 C157 1.387 . S
C156 H160 0.950 . S
C156 C165 1.390 . S
C157 C156 1.387 . S
C157 C159 1.387 . S
H158 C165 0.950 . S
C159 C157 1.387 . S
C159 C161 1.390 . S
C159 H163 0.950 . S
H160 C156 0.950 . S
C161 C159 1.390 . S
C161 C162 1.387 . S
C161 H164 0.950 . S
C162 C161 1.387 . S
C162 C165 1.387 . S
H163 C159 0.950 . S
H164 C161 0.950 . S
C165 C156 1.390 . S
C165 H158 0.950 . S
C165 C162 1.387 . S
C166 C167 1.387 . S
C166 H170 0.950 . S
C166 C175 1.390 . S
C167 C166 1.387 . S
C167 C169 1.387 . S
H168 C175 0.950 . S
C169 C167 1.387 . S
C169 C171 1.390 . S
C169 H173 0.950 . S
H170 C166 0.950 . S
C171 C169 1.390 . S
C171 C172 1.387 . S
C171 H174 0.950 . S
C172 C171 1.387 . S
C172 C175 1.387 . S
H173 C169 0.950 . S
H174 C171 0.950 . S
C175 C166 1.390 . S
C175 H168 0.950 . S
C175 C172 1.387 . S
C176 C177 1.387 . S
C176 H180 0.950 . S
C176 C185 1.390 . S
C177 C176 1.387 . S
C177 C179 1.387 . S
H178 C185 0.950 . S
C179 C177 1.387 . S
C179 C181 1.390 . S
C179 H183 0.950 . S
H180 C176 0.950 . S
C181 C179 1.390 . S
C181 C182 1.387 . S
C181 H184 0.950 . S
C182 C181 1.387 . S
C182 C185 1.387 . S
H183 C179 0.950 . S
H184 C181 0.950 . S
C185 C176 1.390 . S
C185 H178 0.950 . S
C185 C182 1.387 . S
C186 C187 1.387 . S
C186 H190 0.950 . S
C186 C195 1.390 . S
C187 C186 1.387 . S
C187 C189 1.387 . S
H188 C195 0.950 . S
C189 C187 1.387 . S
C189 C191 1.390 . S
C189 H193 0.950 . S
H190 C186 0.950 . S
C191 C189 1.390 . S
C191 C192 1.387 . S
C191 H194 0.950 . S
C192 C191 1.387 . S
C192 C195 1.387 . S
H193 C189 0.950 . S
H194 C191 0.950 . S
C195 C186 1.390 . S
C195 H188 0.950 . S
C195 C192 1.387 . S
C196 C197 1.387 . S
C196 H200 0.950 . S
C196 C205 1.390 . S
C197 C196 1.387 . S
C197 C199 1.387 . S
H198 C205 0.950 . S
C199 C197 1.387 . S
C199 C201 1.390 . S
C199 H203 0.950 . S
H200 C196 0.950 . S
C201 C199 1.390 . S
C201 C202 1.387 . S
C201 H204 0.950 . S
C202 C201 1.387 . S
C202 C205 1.387 . S
H203 C199 0.950 . S
H204 C201 0.950 . S
C205 C196 1.390 . S
C205 H198 0.950 . S
C205 C202 1.387 . S
C206 C207 1.387 . S
C206 H210 0.950 . S
C206 C215 1.390 . S
C207 C206 1.387 . S
C207 C209 1.387 . S
H208 C215 0.950 . S
C209 C207 1.387 . S
C209 C211 1.390 . S
C209 H213 0.950 . S
H210 C206 0.950 . S
C211 C209 1.390 . S
C211 C212 1.387 . S
C211 H214 0.950 . S
C212 C211 1.387 . S
C212 C215 1.387 . S
H213 C209 0.950 . S
H214 C211 0.950 . S
C215 C206 1.390 . S
C215 H208 0.950 . S
C215 C212 1.387 . S
C216 C217 1.387 . S
C216 H220 0.950 . S
C216 C225 1.390 . S
C217 C216 1.387 . S
C217 C219 1.387 . S
H218 C225 0.950 . S
C219 C217 1.387 . S
C219 C221 1.390 . S
C219 H223 0.950 . S
H220 C216 0.950 . S
C221 C219 1.390 . S
C221 C222 1.387 . S
C221 H224 0.950 . S
C222 C221 1.387 . S
C222 C225 1.387 . S
H223 C219 0.950 . S
H224 C221 0.950 . S
C225 C216 1.390 . S
C225 H218 0.950 . S
C225 C222 1.387 . S
C226 C227 1.387 . S
C226 H230 0.950 . S
C226 C235 1.390 . S
C227 C226 1.387 . S
C227 C229 1.387 . S
H228 C235 0.950 . S
C229 C227 1.387 . S
C229 C231 1.390 . S
C229 H233 0.950 . S
H230 C226 0.950 . S
C231 C229 1.390 . S
C231 C232 1.387 . S
C231 H234 0.950 . S
C232 C231 1.387 . S
C232 C235 1.387 . S
H233 C229 0.950 . S
H234 C231 0.950 . S
C235 C226 1.390 . S
C235 H228 0.950 . S
C235 C232 1.387 . S
C236 C237 1.387 . S
C236 H240 0.950 . S
C236 C245 1.390 . S
C237 C236 1.387 . S
C237 C239 1.387 . S
H238 C245 0.950 . S
C239 C237 1.387 . S
C239 C241 1.390 . S
C239 H243 0.950 . S
H240 C236 0.950 . S
C241 C239 1.390 . S
C241 C242 1.387 . S
C241 H244 0.950 1_565 S
C242 C241 1.387 . S
C242 C245 1.387 . S
H243 C239 0.950 . S
H244 C241 0.950 1_545 S
C245 C236 1.390 . S
C245 H238 0.950 . S
C245 C242 1.387 . S
C246 C247 1.387 . S
C246 H250 0.950 . S
C246 C255 1.390 . S
C247 C246 1.387 . S
C247 C249 1.387 . S
H248 C255 0.950 . S
C249 C247 1.387 . S
C249 C251 1.390 . S
C249 H253 0.950 . S
H250 C246 0.950 . S
C251 C249 1.390 . S
C251 C252 1.387 . S
C251 H254 0.950 . S
C252 C251 1.387 . S
C252 C255 1.387 . S
H253 C249 0.950 . S
H254 C251 0.950 . S
C255 C246 1.390 . S
C255 H248 0.950 . S
C255 C252 1.387 . S
C256 C257 1.387 . S
C256 H260 0.950 . S
C256 C265 1.390 . S
C257 C256 1.387 . S
C257 C259 1.387 . S
H258 C265 0.950 . S
C259 C257 1.387 . S
C259 C261 1.390 . S
C259 H263 0.950 . S
H260 C256 0.950 . S
C261 C259 1.390 . S
C261 C262 1.387 . S
C261 H264 0.950 . S
C262 C261 1.387 . S
C262 C265 1.387 . S
H263 C259 0.950 . S
H264 C261 0.950 . S
C265 C256 1.390 . S
C265 H258 0.950 . S
C265 C262 1.387 . S
C266 C267 1.387 . S
C266 H270 0.950 . S
C266 C275 1.390 . S
C267 C266 1.387 . S
C267 C269 1.387 . S
H268 C275 0.950 . S
C269 C267 1.387 . S
C269 C271 1.390 . S
C269 H273 0.950 . S
H270 C266 0.950 . S
C271 C269 1.390 . S
C271 C272 1.387 . S
C271 H274 0.950 . S
C272 C271 1.387 . S
C272 C275 1.387 . S
H273 C269 0.950 . S
H274 C271 0.950 . S
C275 C266 1.390 . S
C275 H268 0.950 . S
C275 C272 1.387 . S
C276 C277 1.387 . S
C276 H280 0.950 . S
C276 C285 1.390 1_455 S
C277 C276 1.387 . S
C277 C279 1.387 . S
H278 C285 0.950 . S
C279 C277 1.387 . S
C279 C281 1.390 . S
C279 H283 0.950 . S
H280 C276 0.950 . S
C281 C279 1.390 . S
C281 C282 1.387 1_455 S
C281 H284 0.950 . S
C282 C281 1.387 1_655 S
C282 C285 1.387 . S
H283 C279 0.950 . S
H284 C281 0.950 . S
C285 C276 1.390 1_655 S
C285 H278 0.950 . S
C285 C282 1.387 . S
C286 C287 1.387 . S
C286 H290 0.950 . S
C286 C295 1.390 . S
C287 C286 1.387 . S
C287 C289 1.387 . S
H288 C295 0.950 . S
C289 C287 1.387 . S
C289 C291 1.390 . S
C289 H293 0.950 . S
H290 C286 0.950 . S
C291 C289 1.390 . S
C291 C292 1.387 . S
C291 H294 0.950 . S
C292 C291 1.387 . S
C292 C295 1.387 . S
H293 C289 0.950 . S
H294 C291 0.950 . S
C295 C286 1.390 . S
C295 H288 0.950 . S
C295 C292 1.387 . S
C296 C297 1.387 1_545 S
C296 H300 0.950 1_545 S
C296 C305 1.390 . S
C297 C296 1.387 1_565 S
C297 C299 1.387 1_565 S
H298 C305 0.950 . S
C299 C297 1.387 1_545 S
C299 C301 1.390 . S
C299 H303 0.950 1_545 S
H300 C296 0.950 1_565 S
C301 C299 1.390 . S
C301 C302 1.387 . S
C301 H304 0.950 . S
C302 C301 1.387 . S
C302 C305 1.387 . S
H303 C299 0.950 1_565 S
H304 C301 0.950 . S
C305 C296 1.390 . S
C305 H298 0.950 . S
C305 C302 1.387 . S
C127 C37 1.344 . S
C132 C8 1.343 1_554 S
C137 C23 1.342 1_554 S
C142 C9 1.342 . S
C147 C22 1.342 . S
C152 C36 1.344 1_554 S
C157 C78 1.342 . S
C162 C51 1.344 . S
C167 C65 1.343 . S
C172 C50 1.343 . S
C177 C64 1.342 . S
C182 C79 1.344 . S
C187 C92 1.342 . S
C192 C121 1.344 . S
C197 C93 1.343 . S
C202 C107 1.343 . S
C207 C106 1.342 . S
C212 C120 1.344 . S
C217 C6 1.471 . S
C222 C104 1.471 . S
C227 C21 1.471 . S
C232 C119 1.471 . S
C237 C91 1.474 . S
C242 C34 1.473 . S
C247 C63 1.473 . S
C252 C35 1.473 . S
C257 C7 1.471 . S
C262 C77 1.472 . S
C267 C49 1.471 . S
C272 C20 1.471 . S
C277 C105 1.471 . S
C282 C76 1.471 . S
C287 C48 1.473 . S
C292 C118 1.473 . S
C297 C90 1.474 . S
C302 C62 1.474 . S
