# Generated by pormake.
# Topology ncb, (9)-cn, num edge types: 1
# Building blocks:
#     Node 0, Type 0, BuildingBlock: BELTOD_clean_sbu_0, # of connection points: 9
#     Node 1, Type 0, BuildingBlock: BELTOD_clean_sbu_0, # of connection points: 9
#     Node 2, Type 0, BuildingBlock: BELTOD_clean_sbu_0, # of connection points: 9
#     Node 3, Type 0, BuildingBlock: BELTOD_clean_sbu_0, # of connection points: 9
#     Node 4, Type 0, BuildingBlock: BELTOD_clean_sbu_0, # of connection points: 9
#     Node 5, Type 0, BuildingBlock: BELTOD_clean_sbu_0, # of connection points: 9
#     Node 6, Type 0, BuildingBlock: BELTOD_clean_sbu_0, # of connection points: 9
#     Node 7, Type 0, BuildingBlock: BELTOD_clean_sbu_0, # of connection points: 9
#     Edge 8, Type (0, 0), BuildingBlock: AJUNOK_clean_linker_0, # of connection points: 2
#     Edge 9, Type (0, 0), BuildingBlock: AJUNOK_clean_linker_0, # of connection points: 2
#     Edge 10, Type (0, 0), BuildingBlock: AJUNOK_clean_linker_0, # of connection points: 2
#     Edge 11, Type (0, 0), BuildingBlock: AJUNOK_clean_linker_0, # of connection points: 2
#     Edge 12, Type (0, 0), BuildingBlock: AJUNOK_clean_linker_0, # of connection points: 2
#     Edge 13, Type (0, 0), BuildingBlock: AJUNOK_clean_linker_0, # of connection points: 2
#     Edge 14, Type (0, 0), BuildingBlock: AJUNOK_clean_linker_0, # of connection points: 2
#     Edge 15, Type (0, 0), BuildingBlock: AJUNOK_clean_linker_0, # of connection points: 2
#     Edge 16, Type (0, 0), BuildingBlock: AJUNOK_clean_linker_0, # of connection points: 2
#     Edge 17, Type (0, 0), BuildingBlock: AJUNOK_clean_linker_0, # of connection points: 2
#     Edge 18, Type (0, 0), BuildingBlock: AJUNOK_clean_linker_0, # of connection points: 2
#     Edge 19, Type (0, 0), BuildingBlock: AJUNOK_clean_linker_0, # of connection points: 2
#     Edge 20, Type (0, 0), BuildingBlock: AJUNOK_clean_linker_0, # of connection points: 2
#     Edge 21, Type (0, 0), BuildingBlock: AJUNOK_clean_linker_0, # of connection points: 2
#     Edge 22, Type (0, 0), BuildingBlock: AJUNOK_clean_linker_0, # of connection points: 2
#     Edge 23, Type (0, 0), BuildingBlock: AJUNOK_clean_linker_0, # of connection points: 2
#     Edge 24, Type (0, 0), BuildingBlock: AJUNOK_clean_linker_0, # of connection points: 2
#     Edge 25, Type (0, 0), BuildingBlock: AJUNOK_clean_linker_0, # of connection points: 2
#     Edge 26, Type (0, 0), BuildingBlock: AJUNOK_clean_linker_0, # of connection points: 2
#     Edge 27, Type (0, 0), BuildingBlock: AJUNOK_clean_linker_0, # of connection points: 2
#     Edge 28, Type (0, 0), BuildingBlock: AJUNOK_clean_linker_0, # of connection points: 2
#     Edge 29, Type (0, 0), BuildingBlock: AJUNOK_clean_linker_0, # of connection points: 2
#     Edge 30, Type (0, 0), BuildingBlock: AJUNOK_clean_linker_0, # of connection points: 2
#     Edge 31, Type (0, 0), BuildingBlock: AJUNOK_clean_linker_0, # of connection points: 2
#     Edge 32, Type (0, 0), BuildingBlock: AJUNOK_clean_linker_0, # of connection points: 2
#     Edge 33, Type (0, 0), BuildingBlock: AJUNOK_clean_linker_0, # of connection points: 2
#     Edge 34, Type (0, 0), BuildingBlock: AJUNOK_clean_linker_0, # of connection points: 2
#     Edge 35, Type (0, 0), BuildingBlock: AJUNOK_clean_linker_0, # of connection points: 2
#     Edge 36, Type (0, 0), BuildingBlock: AJUNOK_clean_linker_0, # of connection points: 2
#     Edge 37, Type (0, 0), BuildingBlock: AJUNOK_clean_linker_0, # of connection points: 2
#     Edge 38, Type (0, 0), BuildingBlock: AJUNOK_clean_linker_0, # of connection points: 2
#     Edge 39, Type (0, 0), BuildingBlock: AJUNOK_clean_linker_0, # of connection points: 2
#     Edge 40, Type (0, 0), BuildingBlock: AJUNOK_clean_linker_0, # of connection points: 2
#     Edge 41, Type (0, 0), BuildingBlock: AJUNOK_clean_linker_0, # of connection points: 2
#     Edge 42, Type (0, 0), BuildingBlock: AJUNOK_clean_linker_0, # of connection points: 2
#     Edge 43, Type (0, 0), BuildingBlock: AJUNOK_clean_linker_0, # of connection points: 2
# Relax obj value: 0.237
# Max RMSD: 0.279
# Mean RMSD: 0.276
data_MOF--net-ncb--node1-BELTOD_clean_sbu_0--edge1-AJUNOK_clean_linker_0
_symmetry_space_group_name_H-M    P1
_symmetry_Int_Tables_number       1
_symmetry_cell_setting            triclinic
loop_
_symmetry_equiv_pos_as_xyz
'x, y, z'
_cell_length_a     21.51606
_cell_length_b     21.57
_cell_length_c     21.359306
_cell_angle_alpha  89.887801
_cell_angle_beta   86.937757
_cell_angle_gamma 88.784622
loop_
_atom_site_label
_atom_site_type_symbol
_atom_site_fract_x
_atom_site_fract_y
_atom_site_fract_z
_atom_type_partial_charge
Mn0 Mn 0.30393 0.30685 0.31586 0.0
Mn1 Mn 0.24184 0.26569 0.30814 0.0
O2 O 0.18765 0.28604 0.23369 0.0
O3 O 0.20133 0.18663 0.20594 0.0
Mn4 Mn 0.26368 0.1527 0.25779 0.0
C5 C 0.33594 0.19497 0.37035 0.0
O6 O 0.36835 0.23295 0.33471 0.0
O7 O 0.2823 0.21732 0.38035 0.0
P8 P 0.37827 0.39598 0.41739 0.0
C9 C 0.16243 0.15989 0.33785 0.0
C10 C 0.30699 0.15749 0.23451 0.0
O11 O 0.22053 0.36422 0.3097 0.0
O12 O 0.18054 0.29808 0.37306 0.0
O13 O 0.31832 0.34899 0.39769 0.0
C14 C 0.32634 0.32293 0.20505 0.0
O15 O 0.16485 0.21676 0.32935 0.0
O16 O 0.21149 0.12864 0.32568 0.0
C17 C 0.17188 0.3481 0.34542 0.0
O18 O 0.34978 0.1251 0.25632 0.0
O19 O 0.3036 0.21906 0.24463 0.0
C20 C 0.17819 0.24082 0.19723 0.0
O21 O 0.30442 0.27287 0.23057 0.0
O22 O 0.34399 0.36072 0.24688 0.0
Mn23 Mn 0.28056 0.86217 0.87738 0.0
Mn24 Mn 0.21572 0.95182 0.96181 0.0
O25 O 0.1826 1.0086 0.89506 0.0
O26 O 0.08244 1.02097 0.93014 0.0
Mn27 Mn 0.09074 1.0057 1.01538 0.0
C28 C 0.29994 0.87156 1.02337 0.0
O29 O 0.32592 0.86235 0.96613 0.0
O30 O 0.24857 0.89983 1.0293 0.0
P31 P 0.39601 0.78725 0.79103 0.0
C32 C 0.19826 1.07292 1.02692 0.0
C33 C 0.12414 0.91123 1.04855 0.0
O34 O 0.28944 0.95448 0.84632 0.0
O35 O 0.30587 0.97321 0.93787 0.0
O36 O 0.36408 0.85227 0.8279 0.0
C37 C 0.17121 0.8674 0.86032 0.0
O38 O 0.23015 1.02691 1.00813 0.0
O39 O 0.13985 1.07094 1.03507 0.0
C40 C 0.31069 0.9933 0.88389 0.0
O41 O 0.08619 0.94515 1.0819 0.0
O42 O 0.13475 0.93735 0.99649 0.0
C43 C 0.12879 1.03253 0.891 0.0
O44 O 0.19904 0.87454 0.91238 0.0
O45 O 0.21284 0.85674 0.81513 0.0
Mn46 Mn 0.84035 0.8859 0.30332 0.0
Mn47 Mn 0.92159 0.95096 0.20738 0.0
O48 O 0.95605 0.87677 0.1625 0.0
O49 O 0.9725 0.92672 1.0701 0.0
Mn50 Mn 0.94396 1.00996 1.09101 0.0
C51 C 0.86369 1.02891 0.3091 0.0
O52 O 0.85129 0.97667 0.33951 0.0
O53 O 0.88768 1.02777 0.25323 0.0
P54 P 0.76645 0.80396 0.40643 0.0
C55 C 1.01996 1.03145 0.18288 0.0
C56 C 0.84364 1.02294 0.13436 0.0
O57 O 0.93309 0.85307 0.31009 0.0
O58 O 0.96912 0.9403 0.28608 0.0
O59 O 0.82843 0.85 0.3878 0.0
C60 C 0.83224 0.85664 0.1994 0.0
O61 O 1.00829 0.97684 0.1899 0.0
O62 O 0.9971 1.05693 0.13721 0.0
C63 C 0.9795 0.8894 0.30978 0.0
O64 O 0.87825 1.06418 0.11314 0.0
O65 O 0.87702 0.97398 0.13227 0.0
C66 C 0.97483 0.87735 0.10506 0.0
O67 O 0.84332 0.9104 0.222 0.0
O68 O 0.8279 0.81501 0.24372 0.0
Mn69 Mn 0.83628 0.2982 0.87039 0.0
Mn70 Mn 0.89594 0.23196 0.95968 0.0
O71 O 0.80579 0.20897 0.99613 0.0
O72 O 0.84189 0.15851 1.07179 0.0
Mn73 Mn 0.90019 0.10718 1.02411 0.0
C74 C 0.98023 0.30722 0.88714 0.0
O75 O 0.92823 0.337 0.87209 0.0
O76 O 0.97608 0.25663 0.91736 0.0
P77 P 0.75144 0.40615 0.80353 0.0
C78 C 0.96652 0.20126 1.06801 0.0
C79 C 0.95101 0.10674 0.93156 0.0
O80 O 0.8023 0.31464 0.96582 0.0
O81 O 0.89268 0.32485 0.98337 0.0
O82 O 0.79086 0.37915 0.86557 0.0
C83 C 0.81678 0.19034 0.86097 0.0
O84 O 0.92985 0.23955 1.04484 0.0
O85 O 0.96092 0.14335 1.06276 0.0
C86 C 0.83981 0.3361 1.00476 0.0
O87 O 0.9529 1.05921 0.9679 0.0
O88 O 0.90843 0.14424 0.95071 0.0
C89 C 0.79513 0.17966 1.04668 0.0
O90 O 0.86774 0.21739 0.87324 0.0
O91 O 0.77139 0.23158 0.86004 0.0
Mn92 Mn 0.82225 0.82042 0.80115 0.0
Mn93 Mn 0.7701 0.72745 0.71664 0.0
O94 O 0.72063 0.78452 0.66858 0.0
O95 O 0.69367 0.71498 0.59959 0.0
Mn96 Mn 0.76143 0.65879 0.60645 0.0
C97 C 0.82306 0.67748 0.82406 0.0
O98 O 0.81381 0.73317 0.84829 0.0
O99 O 0.82265 0.67109 0.76583 0.0
P100 P 0.87264 0.90308 0.907 0.0
C101 C 0.71912 0.60884 0.71178 0.0
C102 C 0.85638 0.68207 0.5918 0.0
O103 O 0.72992 0.84438 0.80115 0.0
O104 O 0.70788 0.74928 0.79355 0.0
O105 O 0.81341 0.86053 0.88313 0.0
C106 C 0.82861 0.84545 0.6942 0.0
O107 O 0.70526 0.66468 0.71549 0.0
O108 O 0.74849 0.59187 0.66221 0.0
C109 C 0.68857 0.8038 0.80581 0.0
O110 O 0.82693 0.65539 0.54888 0.0
O111 O 0.82251 0.69979 0.64058 0.0
C112 C 0.68488 0.76628 0.62938 0.0
O113 O 0.83029 0.79181 0.72035 0.0
O114 O 0.82835 0.88916 0.73633 0.0
Mn115 Mn 0.78073 0.40307 0.39066 0.0
Mn116 Mn 0.79286 0.46929 0.45656 0.0
O117 O 0.74374 0.53938 0.42802 0.0
O118 O 0.73414 0.60491 0.50561 0.0
Mn119 Mn 0.75479 0.5449 0.56788 0.0
C120 C 0.81217 0.35508 0.5084 0.0
O121 O 0.77333 0.3421 0.46704 0.0
O122 O 0.84548 0.39822 0.48979 0.0
P123 P 0.88665 0.31564 0.299 0.0
C124 C 0.88021 0.52996 0.55088 0.0
C125 C 0.69281 0.46386 0.56645 0.0
O126 O 0.78539 0.47605 0.32455 0.0
O127 O 0.85544 0.48709 0.38189 0.0
O128 O 0.86323 0.36659 0.35754 0.0
C129 C 0.67686 0.39376 0.38166 0.0
O130 O 0.86672 0.51554 0.4951 0.0
O131 O 0.83683 0.53765 0.59315 0.0
C132 C 0.82911 0.51257 0.33779 0.0
O133 O 0.68485 0.50821 0.60563 0.0
O134 O 0.74495 0.46989 0.53614 0.0
C135 C 0.72463 0.58978 0.44934 0.0
O136 O 0.70303 0.43134 0.42053 0.0
O137 O 0.71599 0.36141 0.34671 0.0
Mn138 Mn 0.32173 0.37641 0.80872 0.0
Mn139 Mn 0.40402 0.45313 0.71472 0.0
O140 O 0.41507 0.44167 0.62217 0.0
O141 O 0.44623 0.53888 0.60531 0.0
Mn142 Mn 0.41425 0.57885 0.67973 0.0
C143 C 0.35085 0.5028 0.83519 0.0
O144 O 0.30846 0.46314 0.84747 0.0
O145 O 0.40002 0.48157 0.80742 0.0
P146 P 0.26798 0.28492 0.91901 0.0
C147 C 0.5008 0.52681 0.74435 0.0
C148 C 0.31532 0.57716 0.68664 0.0
O149 O 0.41632 0.3702 0.82547 0.0
O150 O 0.45854 0.37598 0.73122 0.0
O151 O 0.32197 0.33592 0.89191 0.0
C152 C 0.32692 0.34837 0.70527 0.0
O153 O 0.48773 0.48809 0.70529 0.0
O154 O 0.46575 0.57423 0.74828 0.0
C155 C 0.46476 0.36267 0.7881 0.0
O156 O 0.34407 0.62893 0.6783 0.0
O157 O 0.3517 0.53015 0.698 0.0
C158 C 0.44687 0.48092 0.59007 0.0
O159 O 0.32654 0.40483 0.72509 0.0
O160 O 0.32949 0.30631 0.74939 0.0
Mn161 Mn 0.34268 0.79292 0.36443 0.0
Mn162 Mn 0.43646 0.71651 0.42612 0.0
O163 O 0.37064 0.67055 0.48948 0.0
O164 O 0.39301 0.56941 0.47824 0.0
Mn165 Mn 0.47273 0.5931 0.47278 0.0
C166 C 0.48525 0.81836 0.3541 0.0
O167 O 0.42859 0.84301 0.36259 0.0
O168 O 0.49168 0.7607 0.36197 0.0
P169 P 0.27584 0.91489 0.30983 0.0
C170 C 0.49705 0.69988 0.53595 0.0
C171 C 0.52583 0.62083 0.38693 0.0
O172 O 0.32064 0.79234 0.46065 0.0
O173 O 0.41574 0.80029 0.46839 0.0
O174 O 0.29262 0.87106 0.37305 0.0
C175 C 0.32714 0.68451 0.35928 0.0
O176 O 0.49986 0.72153 0.48293 0.0
O177 O 0.47968 0.64524 0.54396 0.0
C178 C 0.36368 0.8063 0.49578 0.0
O179 O 0.5431 0.57464 0.42042 0.0
O180 O 0.47044 0.63833 0.40165 0.0
C181 C 0.35528 0.61285 0.49549 0.0
O182 O 0.378 0.71389 0.35998 0.0
O183 O 0.27976 0.72351 0.36052 0.0
C184 C 0.25676 0.33579 0.11316 0.0
C185 C 0.31773 0.3339 0.1346 0.0
C186 C 0.24139 0.31897 1.05108 0.0
C187 C 0.28727 0.3046 1.00345 0.0
H188 H 0.22048 0.3497 0.14651 0.0
H189 H 0.19304 0.31764 1.0403 0.0
S190 S 0.45825 0.31739 1.02772 0.0
N191 N 0.42592 0.32691 0.09899 0.0
N192 N 0.40026 0.3095 0.9809 0.0
C193 C 0.34997 0.31329 1.02209 0.0
C194 C 0.36468 0.32485 1.08705 0.0
C195 C 0.29785 0.82175 0.1325 0.0
C196 C 0.32706 0.86317 1.08864 0.0
C197 C 0.29031 0.83369 0.19893 0.0
C198 C 0.30944 0.88934 0.22725 0.0
H199 H 0.276 0.78135 0.11434 0.0
H200 H 0.26406 0.80096 0.22764 0.0
S201 S 0.40722 1.00447 0.13725 0.0
N202 N 0.38791 0.95569 1.08262 0.0
N203 N 0.37433 0.97869 0.20358 0.0
C204 C 0.34594 0.92714 0.18477 0.0
C205 C 0.35422 0.91419 0.11736 0.0
C206 C 0.79968 0.89706 1.0269 0.0
C207 C 0.85416 0.87584 0.99266 0.0
C208 C 0.78883 0.88684 1.09291 0.0
C209 C 0.82731 0.8473 0.12744 0.0
H210 H 0.76505 0.92305 1.00278 0.0
H211 H 0.74998 0.91051 0.11737 0.0
S212 S 0.91497 0.72025 1.04296 0.0
N213 N 0.90515 0.77325 0.98795 0.0
N214 N 0.88527 0.75075 0.1093 0.0
C215 C 0.86373 0.80619 1.08834 0.0
C216 C 0.87642 0.81985 1.0213 0.0
C217 C 0.80321 0.30081 0.11991 0.0
C218 C 0.83258 0.34393 1.07842 0.0
C219 C 0.81947 0.29238 0.18403 0.0
C220 C 0.85975 0.33238 0.21526 0.0
H221 H 0.76659 0.27336 0.10332 0.0
H222 H 0.79942 0.25357 0.20881 0.0
S223 S 0.91747 0.47772 0.13977 0.0
N224 N 0.88967 0.43947 1.08076 0.0
N225 N 0.9055 0.43395 0.20266 0.0
C226 C 0.87784 0.38437 0.17797 0.0
C227 C 0.86747 0.38821 0.11051 0.0
C228 C 1.01277 0.36497 0.26852 0.0
C229 C 0.97052 0.33738 0.31344 0.0
C230 C 1.07641 0.3776 0.28073 0.0
C231 C 0.1021 0.36335 0.33854 0.0
H232 H 0.99836 0.37217 0.22191 0.0
H233 H 0.10696 0.39561 0.24383 0.0
S234 S 1.00874 0.30845 0.47921 0.0
N235 N 0.95817 0.31053 0.42384 0.0
N236 N 1.07497 0.33191 0.4456 0.0
C237 C 1.05828 0.34326 0.38609 0.0
C238 C 0.99399 0.33091 0.37395 0.0
C239 C 0.28338 0.10246 0.83419 0.0
C240 C 0.31494 1.06476 0.87716 0.0
C241 C 0.27773 0.16892 0.84132 0.0
C242 C 0.29604 0.2012 0.89576 0.0
H243 H 0.2617 1.08075 0.7955 0.0
H244 H 0.25824 0.19407 0.80351 0.0
S245 S 0.41282 0.12864 0.99874 0.0
N246 N 0.38849 1.06966 0.95852 0.0
N247 N 0.37339 0.18962 0.97437 0.0
C248 C 0.338 0.16483 0.93078 0.0
C249 C 0.34681 0.0983 0.92183 0.0
C250 C 0.15492 0.88177 0.2608 0.0
C251 C 0.18722 0.89922 0.31411 0.0
C252 C 0.0893 0.87277 0.26199 0.0
C253 C 1.04966 0.87411 0.31686 0.0
H254 H 0.17908 0.88008 0.21545 0.0
H255 H 1.06796 0.87229 0.21784 0.0
S256 S 0.1086 0.90442 0.47435 0.0
N257 N 0.17201 0.90893 0.42747 0.0
N258 N 1.0508 0.8895 0.42907 0.0
C259 C 0.08145 0.88651 0.37196 0.0
C260 C 0.14876 0.89826 0.37081 0.0
C261 C 0.78605 1.01314 0.89497 0.0
C262 C 0.84517 0.98471 0.87762 0.0
C263 C 0.76941 1.07687 0.87842 0.0
C264 C 0.81411 0.11732 0.8503 0.0
H265 H 0.7525 0.98729 0.92309 0.0
H266 H 0.72572 0.09649 0.89757 0.0
S267 S 0.9105 1.04039 0.72281 0.0
N268 N 0.90333 0.98545 0.77685 0.0
N269 N 0.87898 0.10417 0.75537 0.0
C270 C 0.8583 1.08252 0.81235 0.0
C271 C 0.87205 1.01644 0.82447 0.0
C272 C 0.99963 0.93292 0.86287 0.0
C273 C 0.95804 0.88425 0.87685 0.0
C274 C 1.06431 0.92336 0.84491 0.0
C275 C 0.09757 0.86806 0.85475 0.0
H276 H 0.98196 0.97971 0.86479 0.0
H277 H 0.08917 0.95919 0.82103 0.0
S278 S 1.01273 0.71882 0.86256 0.0
N279 N 0.95558 0.77135 0.86932 0.0
N280 N 0.07857 0.75724 0.85768 0.0
C281 C 1.05668 0.81663 0.86071 0.0
C282 C 0.98797 0.82452 0.86855 0.0
C283 C 0.91398 0.12568 0.34985 0.0
C284 C 0.85885 0.095 0.3366 0.0
C285 C 0.91924 0.19159 0.3469 0.0
C286 C 0.87176 0.23164 0.32517 0.0
H287 H 0.95511 0.09811 0.35911 0.0
H288 H 0.96292 0.21031 0.35852 0.0
S289 S 0.70824 0.18065 0.32444 0.0
N290 N 0.74817 0.1144 0.32791 0.0
N291 N 0.75962 0.23639 0.32099 0.0
C292 C 0.81332 0.20287 0.32396 0.0
C293 C 0.80701 0.13554 0.32854 0.0
C294 C 0.08862 0.28391 0.83915 0.0
C295 C 1.04895 0.32592 0.87383 0.0
C296 C 0.1539 0.27745 0.84755 0.0
C297 C 0.18542 0.30953 0.89423 0.0
H298 H 1.06797 0.25132 0.8082 0.0
H299 H 0.17732 0.2427 0.81955 0.0
S300 S 0.11234 0.44963 0.97176 0.0
N301 N 1.05275 0.41673 0.9401 0.0
N302 N 0.174 0.40438 0.95531 0.0
C303 C 0.14868 0.35944 0.92114 0.0
C304 C 0.0815 0.36679 0.91203 0.0
C305 C 0.26807 1.03038 0.38437 0.0
C306 C 0.30561 0.99281 0.34253 0.0
C307 C 0.28662 1.09027 0.406 0.0
C308 C 0.34059 0.12127 0.38094 0.0
H309 H 0.22255 1.01469 0.39956 0.0
H310 H 0.25235 0.11646 0.43469 0.0
S311 S 0.47604 1.02402 0.32103 0.0
N312 N 0.41715 0.97607 0.31883 0.0
N313 N 0.44674 1.0914 0.34679 0.0
C314 C 0.38597 1.07714 0.35671 0.0
C315 C 0.36884 1.01358 0.33881 0.0
C316 C 0.83974 0.80352 0.51759 0.0
C317 C 0.78243 0.82321 0.49285 0.0
C318 C 0.85728 0.81706 0.57965 0.0
C319 C 0.81964 0.85212 0.62267 0.0
H320 H 0.87482 0.78122 0.48743 0.0
H321 H 0.90155 0.79962 0.59455 0.0
S322 S 0.70139 0.96318 0.56647 0.0
N323 N 0.71688 0.91742 0.50532 0.0
N324 N 0.74151 0.93441 0.62402 0.0
C325 C 0.77126 0.88572 0.59453 0.0
C326 C 0.75523 0.87394 0.52948 0.0
C327 C 0.73045 0.35809 0.67604 0.0
C328 C 0.77539 0.37925 0.71804 0.0
C329 C 0.74471 0.33945 0.61212 0.0
C330 C 0.80264 0.34974 0.5811 0.0
H331 H 0.68202 0.35844 0.69065 0.0
H332 H 0.70882 0.32126 0.58455 0.0
S333 S 0.9417 0.39849 0.66344 0.0
N334 N 0.88606 0.39833 0.71955 0.0
N335 N 0.90838 0.37838 0.59909 0.0
C336 C 0.84881 0.36985 0.62127 0.0
C337 C 0.83608 0.38218 0.68829 0.0
C338 C 0.40342 0.34396 0.54224 0.0
C339 C 0.35992 0.37399 0.50388 0.0
C340 C 0.38974 0.32327 0.60467 0.0
C341 C 0.33206 0.33638 0.63544 0.0
H342 H 0.45076 0.34174 0.52908 0.0
H343 H 0.42747 0.30562 0.63166 0.0
S344 S 0.19035 0.38166 0.55453 0.0
N345 N 0.24701 0.38747 0.49982 0.0
N346 N 0.2244 0.36055 0.61878 0.0
C347 C 0.28487 0.35663 0.59699 0.0
C348 C 0.29793 0.37309 0.53175 0.0
C349 C 0.41804 0.8204 0.59598 0.0
C350 C 0.36157 0.81126 0.56805 0.0
C351 C 0.4275 0.80827 0.65982 0.0
C352 C 0.37902 0.79672 0.70441 0.0
H353 H 0.45564 0.83843 0.56718 0.0
H354 H 0.47411 0.80987 0.6738 0.0
S355 S 0.21381 0.8226 0.66427 0.0
N356 N 0.25133 0.82024 0.59469 0.0
N357 N 0.26653 0.80867 0.71613 0.0
C358 C 0.3189 0.80235 0.67918 0.0
C359 C 0.31022 0.80848 0.61165 0.0
C360 C 0.51405 0.78135 0.85702 0.0
C361 C 0.48163 0.80599 0.80584 0.0
C362 C 0.58023 0.78558 0.8608 0.0
C363 C 0.61788 0.81836 0.81635 0.0
H364 H 0.48862 0.75895 0.8953 0.0
H365 H 0.60248 0.76319 0.8992 0.0
S366 S 0.55025 0.93599 0.71103 0.0
N367 N 0.4889 0.89765 0.73856 0.0
N368 N 0.61156 0.90244 0.74133 0.0
C369 C 0.58377 0.85779 0.77706 0.0
C370 C 0.51626 0.85342 0.77376 0.0
C371 C 0.83287 0.68179 0.40719 0.0
C372 C 0.79102 0.72048 0.37524 0.0
C373 C 0.84983 0.6193 0.38954 0.0
C374 C 0.82529 0.58682 0.33886 0.0
H375 H 0.85261 0.69848 0.44804 0.0
H376 H 0.88038 0.59478 0.41905 0.0
S377 S 0.74276 0.67308 0.216 0.0
N378 N 0.74363 0.72363 0.27385 0.0
N379 N 0.7791 0.61002 0.24036 0.0
C380 C 0.79416 0.62799 0.29837 0.0
C381 C 0.77578 0.69248 0.31679 0.0
C382 C 0.61898 0.4187 0.85204 0.0
C383 C 0.66608 0.38205 0.81948 0.0
C384 C 0.55383 0.40836 0.84778 0.0
C385 C 0.53133 0.36027 0.81113 0.0
H386 H 0.63018 0.45782 0.87887 0.0
H387 H 0.521 0.44183 0.86914 0.0
S388 S 0.63088 0.2276 0.75336 0.0
N389 N 0.68145 0.27738 0.77817 0.0
N390 N 0.56148 0.26141 0.7641 0.0
C391 C 0.57693 0.31597 0.79005 0.0
C392 C 0.64311 0.32526 0.79712 0.0
C393 C 0.38351 0.57998 0.3391 0.0
C394 C 0.32805 0.61224 0.35878 0.0
C395 C 0.39824 0.51854 0.35921 0.0
C396 C 0.35464 0.47901 0.39053 0.0
H397 H 0.41914 0.60478 0.31229 0.0
H398 H 0.44634 0.5052 0.35366 0.0
S399 S 0.1883 0.53063 0.42223 0.0
N400 N 0.22226 0.59489 0.39786 0.0
N401 N 0.24299 0.47564 0.41826 0.0
C402 C 0.29346 0.50726 0.39742 0.0
C403 C 0.28113 0.57331 0.38428 0.0
C404 C 0.5063 0.33978 0.42766 0.0
C405 C 0.46536 0.37659 0.3919 0.0
C406 C 0.57252 0.34773 0.42653 0.0
C407 C 0.60463 0.38473 0.38119 0.0
H408 H 0.4884 0.30019 0.45286 0.0
H409 H 0.59925 0.32139 0.45932 0.0
S410 S 0.52686 0.43445 0.23689 0.0
N411 N 0.4677 0.41674 0.28562 0.0
N412 N 0.59051 0.42267 0.27574 0.0
C413 C 0.56614 0.40393 0.33213 0.0
C414 C 0.49781 0.40043 0.33761 0.0
C415 C 0.40186 0.60232 0.86294 0.0
C416 C 0.34712 0.57335 0.84745 0.0
C417 C 0.41489 0.665 0.84759 0.0
C418 C 0.37137 0.70696 0.82212 0.0
H419 H 0.43761 0.57347 0.88201 0.0
H420 H 0.46177 0.67775 0.85245 0.0
S421 S 0.20756 0.66157 0.79881 0.0
N422 N 0.24148 0.59542 0.81854 0.0
N423 N 0.26154 0.7149 0.79998 0.0
C424 C 0.31134 0.68084 0.81705 0.0
C425 C 0.29978 0.61471 0.82829 0.0
C426 C 0.63592 0.84802 0.42818 0.0
C427 C 0.6844 0.83334 0.38267 0.0
C428 C 0.57276 0.86375 0.4139 0.0
C429 C 0.5489 0.85107 0.35535 0.0
H430 H 0.64554 0.84278 0.47619 0.0
H431 H 0.53969 0.87877 0.45082 0.0
S432 S 0.65406 0.83924 0.21213 0.0
N433 N 0.7029 0.83885 0.26929 0.0
N434 N 0.5833 0.84041 0.24623 0.0
C435 C 0.59669 0.8418 0.30754 0.0
C436 C 0.66327 0.83816 0.3205 0.0
C437 C 0.74227 0.53032 0.86604 0.0
C438 C 0.77776 0.48807 0.82614 0.0
C439 C 0.76224 0.59169 0.88018 0.0
C440 C 0.81952 0.61443 0.85682 0.0
H441 H 0.69831 0.51826 0.8868 0.0
H442 H 0.73194 0.62239 0.90835 0.0
S443 S 0.94997 0.50229 0.83053 0.0
N444 N 0.8879 0.46047 0.82145 0.0
N445 N 0.92402 0.57441 0.84017 0.0
C446 C 0.86185 0.56672 0.83728 0.0
C447 C 0.84175 0.50406 0.8247 0.0
C448 C 0.30417 0.16906 0.11558 0.0
C449 C 0.30486 0.13169 0.16911 0.0
C450 C 0.26575 0.15346 1.06758 0.0
C451 C 0.22894 0.10147 1.07472 0.0
H452 H 0.32952 0.21129 0.11335 0.0
H453 H 0.26156 0.18292 1.02742 0.0
S454 S 0.20287 1.00323 0.21091 0.0
N455 N 0.2623 1.04467 0.22696 0.0
N456 N 0.18645 1.02085 0.13987 0.0
C457 C 0.22975 1.06485 0.12742 0.0
C458 C 0.27077 1.07719 0.17291 0.0
C459 C 1.033 0.81954 1.02062 0.0
C460 C 1.01099 0.82223 1.08366 0.0
C461 C 0.09772 0.81631 1.00814 0.0
C462 C 0.13241 0.84196 1.05475 0.0
H463 H 1.00383 0.83389 0.98421 0.0
H464 H 0.11652 0.81501 0.96126 0.0
S465 S 0.11075 0.74166 0.19351 0.0
N466 N 1.03933 0.7602 0.17357 0.0
N467 N 0.15868 0.78149 0.14614 0.0
C468 C 0.11709 0.81342 0.11248 0.0
C469 C 1.05349 0.8001 0.12601 0.0
C470 C 0.78311 1.03104 1.0463 0.0
C471 C 0.78014 1.02755 0.11175 0.0
C472 C 0.76417 1.08467 1.01662 0.0
C473 C 0.74321 0.13649 1.05085 0.0
H474 H 0.8214 1.00734 1.02074 0.0
H475 H 0.79675 1.09379 0.97869 0.0
S476 S 0.65617 0.11449 0.20195 0.0
N477 N 0.70637 1.05512 0.19777 0.0
N478 N 0.67042 0.15772 0.13898 0.0
C479 C 0.71669 0.12295 0.11043 0.0
C480 C 0.73623 1.06793 0.14201 0.0
C481 C 0.11712 0.18365 0.12978 0.0
C482 C 0.13257 0.24265 0.14959 0.0
C483 C 1.06662 0.17411 0.09885 0.0
C484 C 1.02454 0.22162 1.08867 0.0
H485 H 0.13759 0.14101 0.14535 0.0
H486 H 1.05959 0.12715 1.08562 0.0
S487 S 1.0524 0.38879 0.10428 0.0
N488 N 0.11096 0.35399 0.13796 0.0
N489 N 1.00839 0.33319 1.07932 0.0
C490 C 1.04189 0.28298 1.09747 0.0
C491 C 0.09717 0.29395 0.12912 0.0
C492 C 1.07201 1.03455 0.28358 0.0
C493 C 1.0401 1.06519 0.23689 0.0
C494 C 0.10128 1.06696 0.32915 0.0
C495 C 0.10356 0.13132 0.32516 0.0
H496 H 0.07977 0.98603 0.28148 0.0
H497 H 0.13041 1.04148 0.36027 0.0
S498 S 1.0007 0.22892 0.23063 0.0
N499 N 0.98582 0.1583 0.20971 0.0
N500 N 1.0547 0.22433 0.28256 0.0
C501 C 1.06193 0.16204 0.28596 0.0
C502 C 1.02729 0.1275 0.24426 0.0
C503 C 1.07443 1.07973 0.8078 0.0
C504 C 0.12263 1.08526 0.84824 0.0
C505 C 1.01449 0.09472 0.83204 0.0
C506 C 1.00503 0.12437 0.88998 0.0
H507 H 0.08018 1.04993 0.7671 0.0
H508 H 0.97747 1.0741 0.81118 0.0
S509 S 0.13121 0.19881 0.97274 0.0
N510 N 0.16699 0.1576 0.91686 0.0
N511 N 1.05653 0.18798 0.96505 0.0
C512 C 1.05772 0.15216 0.91357 0.0
C513 C 0.11781 0.13683 0.8867 0.0
C514 C 0.96046 0.60075 0.51466 0.0
C515 C 0.94245 0.55687 0.56102 0.0
C516 C 0.95181 0.66436 0.52932 0.0
C517 C 0.92533 0.67993 0.58937 0.0
H518 H 0.9691 0.58682 0.46635 0.0
H519 H 0.9527 0.69807 0.49177 0.0
S520 S 0.99969 0.59596 0.71507 0.0
N521 N 0.9844 0.54168 0.66364 0.0
N522 N 0.97017 0.66203 0.68941 0.0
C523 C 0.94701 0.64118 0.63586 0.0
C524 C 0.95401 0.5768 0.62202 0.0
C525 C 0.6002 0.39701 0.57321 0.0
C526 C 0.63678 0.44107 0.53948 0.0
C527 C 0.53497 0.40283 0.57776 0.0
C528 C 0.50528 0.45749 0.55695 0.0
H529 H 0.62039 0.36308 0.60317 0.0
H530 H 0.51056 0.37095 0.60874 0.0
S531 S 0.61357 0.6064 0.55126 0.0
N532 N 0.57559 0.53987 0.53864 0.0
N533 N 0.55276 0.55879 0.55707 0.0
C534 C 0.55009 0.5041 0.53275 0.0
C535 C 0.60629 0.48827 0.50781 0.0
C536 C 0.26578 0.51828 0.61362 0.0
C537 C 0.25589 0.56793 0.65528 0.0
C538 C 0.29653 0.53168 0.55556 0.0
C539 C 0.30058 0.59401 0.53505 0.0
H540 H 0.27134 0.47243 0.63266 0.0
H541 H 0.32313 0.49526 0.5315 0.0
S542 S 0.17374 0.70101 0.58617 0.0
N543 N 0.18134 0.65366 0.64652 0.0
N544 N 0.23156 0.6842 0.53427 0.0
C545 C 0.25839 0.63621 0.56449 0.0
C546 C 0.23222 0.62064 0.62506 0.0
C547 C 0.55865 0.78934 0.5585 0.0
C548 C 0.53158 0.73363 0.57937 0.0
C549 C 0.59937 0.82036 0.59346 0.0
C550 C 0.62285 0.78827 0.64218 0.0
H551 H 0.54709 0.80899 0.5154 0.0
H552 H 0.62155 0.86134 0.57536 0.0
S553 S 0.53605 0.67758 0.73836 0.0
N554 N 0.50402 0.67308 0.67052 0.0
N555 N 0.59344 0.72571 0.7315 0.0
C556 C 0.5856 0.74442 0.67258 0.0
C557 C 0.53977 0.71497 0.63975 0.0
C558 C 0.66982 0.50875 0.72923 0.0
C559 C 0.68063 0.56793 0.75029 0.0
C560 C 0.60889 0.48898 0.73117 0.0
C561 C 0.56302 0.52339 0.76637 0.0
H562 H 0.70619 0.483 0.70391 0.0
H563 H 0.59735 0.45024 0.70211 0.0
S564 S 0.59125 0.63901 0.8857 0.0
N565 N 0.65204 0.64092 0.83522 0.0
N566 N 0.54662 0.58442 0.86067 0.0
C567 C 0.58235 0.56413 0.81066 0.0
C568 C 0.6399 0.59207 0.79847 0.0
C569 C 0.60256 0.70028 0.39784 0.0
C570 C 0.57301 0.6612 0.35616 0.0
C571 C 0.65535 0.67981 0.42713 0.0
C572 C 0.68306 0.62375 0.4081 0.0
H573 H 0.58131 0.74186 0.4154 0.0
H574 H 0.67133 0.70528 0.46666 0.0
S575 S 0.64997 0.54305 0.25839 0.0
N576 N 0.5969 0.5989 0.26546 0.0
N577 N 0.69003 0.54715 0.32184 0.0
C578 C 0.66422 0.59798 0.35036 0.0
C579 C 0.61344 0.62489 0.31982 0.0
loop_
_geom_bond_atom_site_label_1
_geom_bond_atom_site_label_2
_geom_bond_distance
_geom_bond_site_symmetry_2
_ccdc_geom_bond_type
Mn0 O6 2.111 . S
Mn0 O11 2.150 . S
Mn0 O13 2.130 . S
Mn0 O21 2.281 . S
Mn0 O22 2.374 . S
Mn1 O2 2.126 . S
Mn1 O7 2.116 . S
Mn1 O12 2.129 . S
Mn1 O15 2.147 . S
Mn1 O19 2.267 . S
Mn1 O21 2.247 . S
O2 Mn1 2.126 . S
O2 C20 1.255 . S
O3 Mn4 2.113 . S
O3 C20 1.238 . S
Mn4 O3 2.113 . S
Mn4 O16 2.101 . S
Mn4 O18 2.372 1_545 S
Mn4 O19 2.265 . S
C5 O6 1.258 . S
C5 O7 1.263 . S
O6 Mn0 2.111 . S
O6 C5 1.258 . S
O7 Mn1 2.116 . S
O7 C5 1.263 . S
P8 O13 1.496 . S
C9 O15 1.252 . S
C9 O16 1.259 . S
C10 O18 1.252 1_545 S
C10 O19 1.273 . S
O11 Mn0 2.150 . S
O11 C17 1.271 . S
O12 Mn1 2.129 . S
O12 C17 1.250 . S
O13 Mn0 2.130 . S
O13 P8 1.496 . S
C14 O21 1.283 . S
C14 O22 1.263 . S
O15 Mn1 2.147 . S
O15 C9 1.252 . S
O16 Mn4 2.101 . S
O16 C9 1.259 . S
C17 O11 1.271 . S
C17 O12 1.250 . S
O18 Mn4 2.372 1_565 S
O18 C10 1.252 1_565 S
O19 Mn1 2.267 . S
O19 Mn4 2.265 . S
O19 C10 1.273 . S
C20 O2 1.255 . S
C20 O3 1.238 . S
O21 Mn0 2.281 . S
O21 Mn1 2.247 . S
O21 C14 1.283 . S
O22 Mn0 2.374 . S
O22 C14 1.263 . S
Mn23 O29 2.111 . S
Mn23 O34 2.150 . S
Mn23 O36 2.130 . S
Mn23 O44 2.281 . S
Mn23 O45 2.374 . S
Mn24 O25 2.126 . S
Mn24 O30 2.116 . S
Mn24 O35 2.129 . S
Mn24 O38 2.147 . S
Mn24 O42 2.267 . S
Mn24 O44 2.247 . S
O25 Mn24 2.126 . S
O25 C43 1.255 . S
O26 Mn27 2.113 . S
O26 C43 1.238 . S
Mn27 O26 2.113 . S
Mn27 O39 2.101 . S
Mn27 O41 2.372 1_556 S
Mn27 O42 2.265 . S
C28 O29 1.258 . S
C28 O30 1.263 . S
O29 Mn23 2.111 . S
O29 C28 1.258 . S
O30 Mn24 2.116 . S
O30 C28 1.263 . S
P31 O36 1.496 . S
C32 O38 1.252 . S
C32 O39 1.259 . S
C33 O41 1.252 1_556 S
C33 O42 1.273 . S
O34 Mn23 2.150 . S
O34 C40 1.271 . S
O35 Mn24 2.129 . S
O35 C40 1.250 . S
O36 Mn23 2.130 . S
O36 P31 1.496 . S
C37 O44 1.283 . S
C37 O45 1.263 . S
O38 Mn24 2.147 . S
O38 C32 1.252 . S
O39 Mn27 2.101 . S
O39 C32 1.259 . S
C40 O34 1.271 . S
C40 O35 1.250 . S
O41 Mn27 2.372 1_554 S
O41 C33 1.252 1_554 S
O42 Mn24 2.267 . S
O42 Mn27 2.265 . S
O42 C33 1.273 . S
C43 O25 1.255 . S
C43 O26 1.238 . S
O44 Mn23 2.281 . S
O44 Mn24 2.247 . S
O44 C37 1.283 . S
O45 Mn23 2.374 . S
O45 C37 1.263 . S
Mn46 O52 2.111 . S
Mn46 O57 2.150 . S
Mn46 O59 2.130 . S
Mn46 O67 2.281 . S
Mn46 O68 2.374 . S
Mn47 O48 2.126 . S
Mn47 O53 2.116 . S
Mn47 O58 2.129 . S
Mn47 O61 2.147 . S
Mn47 O65 2.267 . S
Mn47 O67 2.247 . S
O48 Mn47 2.126 . S
O48 C66 1.255 . S
O49 Mn50 2.113 1_556 S
O49 C66 1.238 1_556 S
Mn50 O49 2.113 1_554 S
Mn50 O62 2.101 . S
Mn50 O64 2.372 . S
Mn50 O65 2.265 . S
C51 O52 1.258 . S
C51 O53 1.263 . S
O52 Mn46 2.111 . S
O52 C51 1.258 . S
O53 Mn47 2.116 . S
O53 C51 1.263 . S
P54 O59 1.496 . S
C55 O61 1.252 . S
C55 O62 1.259 . S
C56 O64 1.252 . S
C56 O65 1.273 . S
O57 Mn46 2.150 . S
O57 C63 1.271 . S
O58 Mn47 2.129 . S
O58 C63 1.250 . S
O59 Mn46 2.130 . S
O59 P54 1.496 . S
C60 O67 1.283 . S
C60 O68 1.263 . S
O61 Mn47 2.147 . S
O61 C55 1.252 . S
O62 Mn50 2.101 . S
O62 C55 1.259 . S
C63 O57 1.271 . S
C63 O58 1.250 . S
O64 Mn50 2.372 . S
O64 C56 1.252 . S
O65 Mn47 2.267 . S
O65 Mn50 2.265 . S
O65 C56 1.273 . S
C66 O48 1.255 . S
C66 O49 1.238 1_554 S
O67 Mn46 2.281 . S
O67 Mn47 2.247 . S
O67 C60 1.283 . S
O68 Mn46 2.374 . S
O68 C60 1.263 . S
Mn69 O75 2.111 . S
Mn69 O80 2.150 . S
Mn69 O82 2.130 . S
Mn69 O90 2.281 . S
Mn69 O91 2.374 . S
Mn70 O71 2.126 . S
Mn70 O76 2.116 . S
Mn70 O81 2.129 . S
Mn70 O84 2.147 . S
Mn70 O88 2.267 . S
Mn70 O90 2.247 . S
O71 Mn70 2.126 . S
O71 C89 1.255 . S
O72 Mn73 2.113 1_565 S
O72 C89 1.238 1_565 S
Mn73 O72 2.113 1_545 S
Mn73 O85 2.101 . S
Mn73 O87 2.372 1_655 S
Mn73 O88 2.265 . S
C74 O75 1.258 . S
C74 O76 1.263 . S
O75 Mn69 2.111 . S
O75 C74 1.258 . S
O76 Mn70 2.116 . S
O76 C74 1.263 . S
P77 O82 1.496 . S
C78 O84 1.252 . S
C78 O85 1.259 . S
C79 O87 1.252 1_655 S
C79 O88 1.273 . S
O80 Mn69 2.150 . S
O80 C86 1.271 . S
O81 Mn70 2.129 . S
O81 C86 1.250 . S
O82 Mn69 2.130 . S
O82 P77 1.496 . S
C83 O90 1.283 . S
C83 O91 1.263 . S
O84 Mn70 2.147 . S
O84 C78 1.252 . S
O85 Mn73 2.101 . S
O85 C78 1.259 . S
C86 O80 1.271 . S
C86 O81 1.250 . S
O87 Mn73 2.372 1_455 S
O87 C79 1.252 1_455 S
O88 Mn70 2.267 . S
O88 Mn73 2.265 . S
O88 C79 1.273 . S
C89 O71 1.255 . S
C89 O72 1.238 1_545 S
O90 Mn69 2.281 . S
O90 Mn70 2.247 . S
O90 C83 1.283 . S
O91 Mn69 2.374 . S
O91 C83 1.263 . S
Mn92 O98 2.111 . S
Mn92 O103 2.150 . S
Mn92 O105 2.130 . S
Mn92 O113 2.281 . S
Mn92 O114 2.374 . S
Mn93 O94 2.126 . S
Mn93 O99 2.116 . S
Mn93 O104 2.129 . S
Mn93 O107 2.147 . S
Mn93 O111 2.267 . S
Mn93 O113 2.247 . S
O94 Mn93 2.126 . S
O94 C112 1.255 . S
O95 Mn96 2.113 . S
O95 C112 1.238 . S
Mn96 O95 2.113 . S
Mn96 O108 2.101 . S
Mn96 O110 2.372 . S
Mn96 O111 2.265 . S
C97 O98 1.258 . S
C97 O99 1.263 . S
O98 Mn92 2.111 . S
O98 C97 1.258 . S
O99 Mn93 2.116 . S
O99 C97 1.263 . S
P100 O105 1.496 . S
C101 O107 1.252 . S
C101 O108 1.259 . S
C102 O110 1.252 . S
C102 O111 1.273 . S
O103 Mn92 2.150 . S
O103 C109 1.271 . S
O104 Mn93 2.129 . S
O104 C109 1.250 . S
O105 Mn92 2.130 . S
O105 P100 1.496 . S
C106 O113 1.283 . S
C106 O114 1.263 . S
O107 Mn93 2.147 . S
O107 C101 1.252 . S
O108 Mn96 2.101 . S
O108 C101 1.259 . S
C109 O103 1.271 . S
C109 O104 1.250 . S
O110 Mn96 2.372 . S
O110 C102 1.252 . S
O111 Mn93 2.267 . S
O111 Mn96 2.265 . S
O111 C102 1.273 . S
C112 O94 1.255 . S
C112 O95 1.238 . S
O113 Mn92 2.281 . S
O113 Mn93 2.247 . S
O113 C106 1.283 . S
O114 Mn92 2.374 . S
O114 C106 1.263 . S
Mn115 O121 2.111 . S
Mn115 O126 2.150 . S
Mn115 O128 2.130 . S
Mn115 O136 2.281 . S
Mn115 O137 2.374 . S
Mn116 O117 2.126 . S
Mn116 O122 2.116 . S
Mn116 O127 2.129 . S
Mn116 O130 2.147 . S
Mn116 O134 2.267 . S
Mn116 O136 2.247 . S
O117 Mn116 2.126 . S
O117 C135 1.255 . S
O118 Mn119 2.113 . S
O118 C135 1.238 . S
Mn119 O118 2.113 . S
Mn119 O131 2.101 . S
Mn119 O133 2.372 . S
Mn119 O134 2.265 . S
C120 O121 1.258 . S
C120 O122 1.263 . S
O121 Mn115 2.111 . S
O121 C120 1.258 . S
O122 Mn116 2.116 . S
O122 C120 1.263 . S
P123 O128 1.496 . S
C124 O130 1.252 . S
C124 O131 1.259 . S
C125 O133 1.252 . S
C125 O134 1.273 . S
O126 Mn115 2.150 . S
O126 C132 1.271 . S
O127 Mn116 2.129 . S
O127 C132 1.250 . S
O128 Mn115 2.130 . S
O128 P123 1.496 . S
C129 O136 1.283 . S
C129 O137 1.263 . S
O130 Mn116 2.147 . S
O130 C124 1.252 . S
O131 Mn119 2.101 . S
O131 C124 1.259 . S
C132 O126 1.271 . S
C132 O127 1.250 . S
O133 Mn119 2.372 . S
O133 C125 1.252 . S
O134 Mn116 2.267 . S
O134 Mn119 2.265 . S
O134 C125 1.273 . S
C135 O117 1.255 . S
C135 O118 1.238 . S
O136 Mn115 2.281 . S
O136 Mn116 2.247 . S
O136 C129 1.283 . S
O137 Mn115 2.374 . S
O137 C129 1.263 . S
Mn138 O144 2.111 . S
Mn138 O149 2.150 . S
Mn138 O151 2.130 . S
Mn138 O159 2.281 . S
Mn138 O160 2.374 . S
Mn139 O140 2.126 . S
Mn139 O145 2.116 . S
Mn139 O150 2.129 . S
Mn139 O153 2.147 . S
Mn139 O157 2.267 . S
Mn139 O159 2.247 . S
O140 Mn139 2.126 . S
O140 C158 1.255 . S
O141 Mn142 2.113 . S
O141 C158 1.238 . S
Mn142 O141 2.113 . S
Mn142 O154 2.101 . S
Mn142 O156 2.372 . S
Mn142 O157 2.265 . S
C143 O144 1.258 . S
C143 O145 1.263 . S
O144 Mn138 2.111 . S
O144 C143 1.258 . S
O145 Mn139 2.116 . S
O145 C143 1.263 . S
P146 O151 1.496 . S
C147 O153 1.252 . S
C147 O154 1.259 . S
C148 O156 1.252 . S
C148 O157 1.273 . S
O149 Mn138 2.150 . S
O149 C155 1.271 . S
O150 Mn139 2.129 . S
O150 C155 1.250 . S
O151 Mn138 2.130 . S
O151 P146 1.496 . S
C152 O159 1.283 . S
C152 O160 1.263 . S
O153 Mn139 2.147 . S
O153 C147 1.252 . S
O154 Mn142 2.101 . S
O154 C147 1.259 . S
C155 O149 1.271 . S
C155 O150 1.250 . S
O156 Mn142 2.372 . S
O156 C148 1.252 . S
O157 Mn139 2.267 . S
O157 Mn142 2.265 . S
O157 C148 1.273 . S
C158 O140 1.255 . S
C158 O141 1.238 . S
O159 Mn138 2.281 . S
O159 Mn139 2.247 . S
O159 C152 1.283 . S
O160 Mn138 2.374 . S
O160 C152 1.263 . S
Mn161 O167 2.111 . S
Mn161 O172 2.150 . S
Mn161 O174 2.130 . S
Mn161 O182 2.281 . S
Mn161 O183 2.374 . S
Mn162 O163 2.126 . S
Mn162 O168 2.116 . S
Mn162 O173 2.129 . S
Mn162 O176 2.147 . S
Mn162 O180 2.267 . S
Mn162 O182 2.247 . S
O163 Mn162 2.126 . S
O163 C181 1.255 . S
O164 Mn165 2.113 . S
O164 C181 1.238 . S
Mn165 O164 2.113 . S
Mn165 O177 2.101 . S
Mn165 O179 2.372 . S
Mn165 O180 2.265 . S
C166 O167 1.258 . S
C166 O168 1.263 . S
O167 Mn161 2.111 . S
O167 C166 1.258 . S
O168 Mn162 2.116 . S
O168 C166 1.263 . S
P169 O174 1.496 . S
C170 O176 1.252 . S
C170 O177 1.259 . S
C171 O179 1.252 . S
C171 O180 1.273 . S
O172 Mn161 2.150 . S
O172 C178 1.271 . S
O173 Mn162 2.129 . S
O173 C178 1.250 . S
O174 Mn161 2.130 . S
O174 P169 1.496 . S
C175 O182 1.283 . S
C175 O183 1.263 . S
O176 Mn162 2.147 . S
O176 C170 1.252 . S
O177 Mn165 2.101 . S
O177 C170 1.259 . S
C178 O172 1.271 . S
C178 O173 1.250 . S
O179 Mn165 2.372 . S
O179 C171 1.252 . S
O180 Mn162 2.267 . S
O180 Mn165 2.265 . S
O180 C171 1.273 . S
C181 O163 1.255 . S
C181 O164 1.238 . S
O182 Mn161 2.281 . S
O182 Mn162 2.247 . S
O182 C175 1.283 . S
O183 Mn161 2.374 . S
O183 C175 1.263 . S
C184 C185 1.369 . S
C184 C186 1.419 . S
C184 H188 0.930 . S
C185 C184 1.369 . S
C185 C194 1.429 . S
C186 C184 1.419 . S
C186 C187 1.363 . S
C186 H189 0.929 . S
C187 C186 1.363 . S
C187 C193 1.428 . S
H188 C184 0.930 . S
H189 C186 0.929 . S
S190 N191 1.613 . S
S190 N192 1.610 . S
N191 S190 1.613 . S
N191 C194 1.350 . S
N192 S190 1.610 . S
N192 C193 1.351 . S
C193 C187 1.428 . S
C193 N192 1.351 . S
C193 C194 1.434 . S
C194 C185 1.429 . S
C194 N191 1.350 . S
C194 C193 1.434 . S
C195 C196 1.369 . S
C195 C197 1.419 . S
C195 H199 0.930 . S
C196 C195 1.369 . S
C196 C205 1.429 . S
C197 C195 1.419 . S
C197 C198 1.363 . S
C197 H200 0.929 . S
C198 C197 1.363 . S
C198 C204 1.428 . S
H199 C195 0.930 . S
H200 C197 0.929 . S
S201 N202 1.613 . S
S201 N203 1.610 . S
N202 S201 1.613 . S
N202 C205 1.350 . S
N203 S201 1.610 . S
N203 C204 1.351 . S
C204 C198 1.428 . S
C204 N203 1.351 . S
C204 C205 1.434 . S
C205 C196 1.429 . S
C205 N202 1.350 . S
C205 C204 1.434 . S
C206 C207 1.369 . S
C206 C208 1.419 . S
C206 H210 0.930 . S
C207 C206 1.369 . S
C207 C216 1.429 . S
C208 C206 1.419 . S
C208 C209 1.363 . S
C208 H211 0.929 . S
C209 C208 1.363 . S
C209 C215 1.428 . S
H210 C206 0.930 . S
H211 C208 0.929 . S
S212 N213 1.613 . S
S212 N214 1.610 . S
N213 S212 1.613 . S
N213 C216 1.350 . S
N214 S212 1.610 . S
N214 C215 1.351 . S
C215 C209 1.428 . S
C215 N214 1.351 . S
C215 C216 1.434 . S
C216 C207 1.429 . S
C216 N213 1.350 . S
C216 C215 1.434 . S
C217 C218 1.369 1_554 S
C217 C219 1.419 . S
C217 H221 0.930 . S
C218 C217 1.369 1_556 S
C218 C227 1.429 1_556 S
C219 C217 1.419 . S
C219 C220 1.363 . S
C219 H222 0.929 . S
C220 C219 1.363 . S
C220 C226 1.428 . S
H221 C217 0.930 . S
H222 C219 0.929 . S
S223 N224 1.613 1_554 S
S223 N225 1.610 . S
N224 S223 1.613 1_556 S
N224 C227 1.350 1_556 S
N225 S223 1.610 . S
N225 C226 1.351 . S
C226 C220 1.428 . S
C226 N225 1.351 . S
C226 C227 1.434 . S
C227 C218 1.429 1_554 S
C227 N224 1.350 1_554 S
C227 C226 1.434 . S
C228 C229 1.369 . S
C228 C230 1.419 . S
C228 H232 0.930 . S
C229 C228 1.369 . S
C229 C238 1.429 . S
C230 C228 1.419 . S
C230 C231 1.363 1_655 S
C230 H233 0.929 1_655 S
C231 C230 1.363 1_455 S
C231 C237 1.428 1_455 S
H232 C228 0.930 . S
H233 C230 0.929 1_455 S
S234 N235 1.613 . S
S234 N236 1.610 . S
N235 S234 1.613 . S
N235 C238 1.350 . S
N236 S234 1.610 . S
N236 C237 1.351 . S
C237 C231 1.428 1_655 S
C237 N236 1.351 . S
C237 C238 1.434 . S
C238 C229 1.429 . S
C238 N235 1.350 . S
C238 C237 1.434 . S
C239 C240 1.369 1_545 S
C239 C241 1.419 . S
C239 H243 0.930 . S
C240 C239 1.369 1_565 S
C240 C249 1.429 1_565 S
C241 C239 1.419 . S
C241 C242 1.363 . S
C241 H244 0.929 . S
C242 C241 1.363 . S
C242 C248 1.428 . S
H243 C239 0.930 . S
H244 C241 0.929 . S
S245 N246 1.613 . S
S245 N247 1.610 . S
N246 S245 1.613 . S
N246 C249 1.350 . S
N247 S245 1.610 . S
N247 C248 1.351 . S
C248 C242 1.428 . S
C248 N247 1.351 . S
C248 C249 1.434 . S
C249 C240 1.429 1_545 S
C249 N246 1.350 . S
C249 C248 1.434 . S
C250 C251 1.369 . S
C250 C252 1.419 . S
C250 H254 0.930 . S
C251 C250 1.369 . S
C251 C260 1.429 . S
C252 C250 1.419 . S
C252 C253 1.363 1_455 S
C252 H255 0.929 . S
C253 C252 1.363 1_655 S
C253 C259 1.428 1_655 S
H254 C250 0.930 . S
H255 C252 0.929 . S
S256 N257 1.613 . S
S256 N258 1.610 1_455 S
N257 S256 1.613 . S
N257 C260 1.350 . S
N258 S256 1.610 1_655 S
N258 C259 1.351 1_655 S
C259 C253 1.428 1_455 S
C259 N258 1.351 1_455 S
C259 C260 1.434 . S
C260 C251 1.429 . S
C260 N257 1.350 . S
C260 C259 1.434 . S
C261 C262 1.369 . S
C261 C263 1.419 . S
C261 H265 0.930 . S
C262 C261 1.369 . S
C262 C271 1.429 . S
C263 C261 1.419 . S
C263 C264 1.363 . S
C263 H266 0.929 . S
C264 C263 1.363 . S
C264 C270 1.428 . S
H265 C261 0.930 . S
H266 C263 0.929 . S
S267 N268 1.613 . S
S267 N269 1.610 . S
N268 S267 1.613 . S
N268 C271 1.350 . S
N269 S267 1.610 . S
N269 C270 1.351 . S
C270 C264 1.428 . S
C270 N269 1.351 . S
C270 C271 1.434 . S
C271 C262 1.429 . S
C271 N268 1.350 . S
C271 C270 1.434 . S
C272 C273 1.369 . S
C272 C274 1.419 . S
C272 H276 0.930 . S
C273 C272 1.369 . S
C273 C282 1.429 . S
C274 C272 1.419 . S
C274 C275 1.363 . S
C274 H277 0.929 . S
C275 C274 1.363 . S
C275 C281 1.428 . S
H276 C272 0.930 . S
H277 C274 0.929 . S
S278 N279 1.613 . S
S278 N280 1.610 1_655 S
N279 S278 1.613 . S
N279 C282 1.350 . S
N280 S278 1.610 1_455 S
N280 C281 1.351 1_455 S
C281 C275 1.428 . S
C281 N280 1.351 1_655 S
C281 C282 1.434 . S
C282 C273 1.429 . S
C282 N279 1.350 . S
C282 C281 1.434 . S
C283 C284 1.369 . S
C283 C285 1.419 . S
C283 H287 0.930 . S
C284 C283 1.369 . S
C284 C293 1.429 . S
C285 C283 1.419 . S
C285 C286 1.363 . S
C285 H288 0.929 . S
C286 C285 1.363 . S
C286 C292 1.428 . S
H287 C283 0.930 . S
H288 C285 0.929 . S
S289 N290 1.613 . S
S289 N291 1.610 . S
N290 S289 1.613 . S
N290 C293 1.350 . S
N291 S289 1.610 . S
N291 C292 1.351 . S
C292 C286 1.428 . S
C292 N291 1.351 . S
C292 C293 1.434 . S
C293 C284 1.429 . S
C293 N290 1.350 . S
C293 C292 1.434 . S
C294 C295 1.369 1_455 S
C294 C296 1.419 . S
C294 H298 0.930 . S
C295 C294 1.369 1_655 S
C295 C304 1.429 1_655 S
C296 C294 1.419 . S
C296 C297 1.363 . S
C296 H299 0.929 . S
C297 C296 1.363 . S
C297 C303 1.428 . S
H298 C294 0.930 . S
H299 C296 0.929 . S
S300 N301 1.613 . S
S300 N302 1.610 . S
N301 S300 1.613 . S
N301 C304 1.350 . S
N302 S300 1.610 . S
N302 C303 1.351 . S
C303 C297 1.428 . S
C303 N302 1.351 . S
C303 C304 1.434 . S
C304 C295 1.429 1_455 S
C304 N301 1.350 . S
C304 C303 1.434 . S
C305 C306 1.369 . S
C305 C307 1.419 . S
C305 H309 0.930 . S
C306 C305 1.369 . S
C306 C315 1.429 . S
C307 C305 1.419 . S
C307 C308 1.363 . S
C307 H310 0.929 . S
C308 C307 1.363 . S
C308 C314 1.428 . S
H309 C305 0.930 . S
H310 C307 0.929 . S
S311 N312 1.613 . S
S311 N313 1.610 . S
N312 S311 1.613 . S
N312 C315 1.350 . S
N313 S311 1.610 . S
N313 C314 1.351 . S
C314 C308 1.428 . S
C314 N313 1.351 . S
C314 C315 1.434 . S
C315 C306 1.429 . S
C315 N312 1.350 . S
C315 C314 1.434 . S
C316 C317 1.369 . S
C316 C318 1.419 . S
C316 H320 0.930 . S
C317 C316 1.369 . S
C317 C326 1.429 . S
C318 C316 1.419 . S
C318 C319 1.363 . S
C318 H321 0.929 . S
C319 C318 1.363 . S
C319 C325 1.428 . S
H320 C316 0.930 . S
H321 C318 0.929 . S
S322 N323 1.613 . S
S322 N324 1.610 . S
N323 S322 1.613 . S
N323 C326 1.350 . S
N324 S322 1.610 . S
N324 C325 1.351 . S
C325 C319 1.428 . S
C325 N324 1.351 . S
C325 C326 1.434 . S
C326 C317 1.429 . S
C326 N323 1.350 . S
C326 C325 1.434 . S
C327 C328 1.369 . S
C327 C329 1.419 . S
C327 H331 0.930 . S
C328 C327 1.369 . S
C328 C337 1.429 . S
C329 C327 1.419 . S
C329 C330 1.363 . S
C329 H332 0.929 . S
C330 C329 1.363 . S
C330 C336 1.428 . S
H331 C327 0.930 . S
H332 C329 0.929 . S
S333 N334 1.613 . S
S333 N335 1.610 . S
N334 S333 1.613 . S
N334 C337 1.350 . S
N335 S333 1.610 . S
N335 C336 1.351 . S
C336 C330 1.428 . S
C336 N335 1.351 . S
C336 C337 1.434 . S
C337 C328 1.429 . S
C337 N334 1.350 . S
C337 C336 1.434 . S
C338 C339 1.369 . S
C338 C340 1.419 . S
C338 H342 0.930 . S
C339 C338 1.369 . S
C339 C348 1.429 . S
C340 C338 1.419 . S
C340 C341 1.363 . S
C340 H343 0.929 . S
C341 C340 1.363 . S
C341 C347 1.428 . S
H342 C338 0.930 . S
H343 C340 0.929 . S
S344 N345 1.613 . S
S344 N346 1.610 . S
N345 S344 1.613 . S
N345 C348 1.350 . S
N346 S344 1.610 . S
N346 C347 1.351 . S
C347 C341 1.428 . S
C347 N346 1.351 . S
C347 C348 1.434 . S
C348 C339 1.429 . S
C348 N345 1.350 . S
C348 C347 1.434 . S
C349 C350 1.369 . S
C349 C351 1.419 . S
C349 H353 0.930 . S
C350 C349 1.369 . S
C350 C359 1.429 . S
C351 C349 1.419 . S
C351 C352 1.363 . S
C351 H354 0.929 . S
C352 C351 1.363 . S
C352 C358 1.428 . S
H353 C349 0.930 . S
H354 C351 0.929 . S
S355 N356 1.613 . S
S355 N357 1.610 . S
N356 S355 1.613 . S
N356 C359 1.350 . S
N357 S355 1.610 . S
N357 C358 1.351 . S
C358 C352 1.428 . S
C358 N357 1.351 . S
C358 C359 1.434 . S
C359 C350 1.429 . S
C359 N356 1.350 . S
C359 C358 1.434 . S
C360 C361 1.369 . S
C360 C362 1.419 . S
C360 H364 0.930 . S
C361 C360 1.369 . S
C361 C370 1.429 . S
C362 C360 1.419 . S
C362 C363 1.363 . S
C362 H365 0.929 . S
C363 C362 1.363 . S
C363 C369 1.428 . S
H364 C360 0.930 . S
H365 C362 0.929 . S
S366 N367 1.613 . S
S366 N368 1.610 . S
N367 S366 1.613 . S
N367 C370 1.350 . S
N368 S366 1.610 . S
N368 C369 1.351 . S
C369 C363 1.428 . S
C369 N368 1.351 . S
C369 C370 1.434 . S
C370 C361 1.429 . S
C370 N367 1.350 . S
C370 C369 1.434 . S
C371 C372 1.369 . S
C371 C373 1.419 . S
C371 H375 0.930 . S
C372 C371 1.369 . S
C372 C381 1.429 . S
C373 C371 1.419 . S
C373 C374 1.363 . S
C373 H376 0.929 . S
C374 C373 1.363 . S
C374 C380 1.428 . S
H375 C371 0.930 . S
H376 C373 0.929 . S
S377 N378 1.613 . S
S377 N379 1.610 . S
N378 S377 1.613 . S
N378 C381 1.350 . S
N379 S377 1.610 . S
N379 C380 1.351 . S
C380 C374 1.428 . S
C380 N379 1.351 . S
C380 C381 1.434 . S
C381 C372 1.429 . S
C381 N378 1.350 . S
C381 C380 1.434 . S
C382 C383 1.369 . S
C382 C384 1.419 . S
C382 H386 0.930 . S
C383 C382 1.369 . S
C383 C392 1.429 . S
C384 C382 1.419 . S
C384 C385 1.363 . S
C384 H387 0.929 . S
C385 C384 1.363 . S
C385 C391 1.428 . S
H386 C382 0.930 . S
H387 C384 0.929 . S
S388 N389 1.613 . S
S388 N390 1.610 . S
N389 S388 1.613 . S
N389 C392 1.350 . S
N390 S388 1.610 . S
N390 C391 1.351 . S
C391 C385 1.428 . S
C391 N390 1.351 . S
C391 C392 1.434 . S
C392 C383 1.429 . S
C392 N389 1.350 . S
C392 C391 1.434 . S
C393 C394 1.369 . S
C393 C395 1.419 . S
C393 H397 0.930 . S
C394 C393 1.369 . S
C394 C403 1.429 . S
C395 C393 1.419 . S
C395 C396 1.363 . S
C395 H398 0.929 . S
C396 C395 1.363 . S
C396 C402 1.428 . S
H397 C393 0.930 . S
H398 C395 0.929 . S
S399 N400 1.613 . S
S399 N401 1.610 . S
N400 S399 1.613 . S
N400 C403 1.350 . S
N401 S399 1.610 . S
N401 C402 1.351 . S
C402 C396 1.428 . S
C402 N401 1.351 . S
C402 C403 1.434 . S
C403 C394 1.429 . S
C403 N400 1.350 . S
C403 C402 1.434 . S
C404 C405 1.369 . S
C404 C406 1.419 . S
C404 H408 0.930 . S
C405 C404 1.369 . S
C405 C414 1.429 . S
C406 C404 1.419 . S
C406 C407 1.363 . S
C406 H409 0.929 . S
C407 C406 1.363 . S
C407 C413 1.428 . S
H408 C404 0.930 . S
H409 C406 0.929 . S
S410 N411 1.613 . S
S410 N412 1.610 . S
N411 S410 1.613 . S
N411 C414 1.350 . S
N412 S410 1.610 . S
N412 C413 1.351 . S
C413 C407 1.428 . S
C413 N412 1.351 . S
C413 C414 1.434 . S
C414 C405 1.429 . S
C414 N411 1.350 . S
C414 C413 1.434 . S
C415 C416 1.369 . S
C415 C417 1.419 . S
C415 H419 0.930 . S
C416 C415 1.369 . S
C416 C425 1.429 . S
C417 C415 1.419 . S
C417 C418 1.363 . S
C417 H420 0.929 . S
C418 C417 1.363 . S
C418 C424 1.428 . S
H419 C415 0.930 . S
H420 C417 0.929 . S
S421 N422 1.613 . S
S421 N423 1.610 . S
N422 S421 1.613 . S
N422 C425 1.350 . S
N423 S421 1.610 . S
N423 C424 1.351 . S
C424 C418 1.428 . S
C424 N423 1.351 . S
C424 C425 1.434 . S
C425 C416 1.429 . S
C425 N422 1.350 . S
C425 C424 1.434 . S
C426 C427 1.369 . S
C426 C428 1.419 . S
C426 H430 0.930 . S
C427 C426 1.369 . S
C427 C436 1.429 . S
C428 C426 1.419 . S
C428 C429 1.363 . S
C428 H431 0.929 . S
C429 C428 1.363 . S
C429 C435 1.428 . S
H430 C426 0.930 . S
H431 C428 0.929 . S
S432 N433 1.613 . S
S432 N434 1.610 . S
N433 S432 1.613 . S
N433 C436 1.350 . S
N434 S432 1.610 . S
N434 C435 1.351 . S
C435 C429 1.428 . S
C435 N434 1.351 . S
C435 C436 1.434 . S
C436 C427 1.429 . S
C436 N433 1.350 . S
C436 C435 1.434 . S
C437 C438 1.369 . S
C437 C439 1.419 . S
C437 H441 0.930 . S
C438 C437 1.369 . S
C438 C447 1.429 . S
C439 C437 1.419 . S
C439 C440 1.363 . S
C439 H442 0.929 . S
C440 C439 1.363 . S
C440 C446 1.428 . S
H441 C437 0.930 . S
H442 C439 0.929 . S
S443 N444 1.613 . S
S443 N445 1.610 . S
N444 S443 1.613 . S
N444 C447 1.350 . S
N445 S443 1.610 . S
N445 C446 1.351 . S
C446 C440 1.428 . S
C446 N445 1.351 . S
C446 C447 1.434 . S
C447 C438 1.429 . S
C447 N444 1.350 . S
C447 C446 1.434 . S
C448 C449 1.369 . S
C448 C450 1.419 1_554 S
C448 H452 0.930 . S
C449 C448 1.369 . S
C449 C458 1.429 . S
C450 C448 1.419 1_556 S
C450 C451 1.363 1_545 S
C450 H453 0.931 . S
C451 C450 1.363 1_565 S
C451 C457 1.428 1_566 S
H452 C448 0.930 . S
H453 C450 0.931 . S
S454 N455 1.613 . S
S454 N456 1.610 1_545 S
N455 S454 1.613 . S
N455 C458 1.350 . S
N456 S454 1.610 1_565 S
N456 C457 1.351 1_565 S
C457 C451 1.428 1_544 S
C457 N456 1.351 1_545 S
C457 C458 1.434 . S
C458 C449 1.429 . S
C458 N455 1.350 . S
C458 C457 1.434 . S
C459 C460 1.363 1_556 S
C459 C461 1.419 1_655 S
C459 H463 0.930 . S
C460 C459 1.363 1_554 S
C460 C469 1.432 . S
C461 C459 1.419 1_455 S
C461 C462 1.363 . S
C461 H464 0.929 . S
C462 C461 1.363 . S
C462 C468 1.428 1_556 S
H463 C459 0.930 . S
H464 C461 0.929 . S
S465 N466 1.613 1_455 S
S465 N467 1.610 . S
N466 S465 1.613 1_655 S
N466 C469 1.350 . S
N467 S465 1.610 . S
N467 C468 1.351 . S
C468 C462 1.428 1_554 S
C468 N467 1.351 . S
C468 C469 1.434 1_455 S
C469 C460 1.432 . S
C469 N466 1.350 . S
C469 C468 1.434 1_655 S
C470 C471 1.369 . S
C470 C472 1.419 1_554 S
C470 H474 0.930 . S
C471 C470 1.369 . S
C471 C480 1.429 . S
C472 C470 1.419 1_556 S
C472 C473 1.363 1_565 S
C472 H475 0.929 . S
C473 C472 1.363 1_545 S
C473 C479 1.428 . S
H474 C470 0.930 . S
H475 C472 0.929 . S
S476 N477 1.613 . S
S476 N478 1.610 1_554 S
N477 S476 1.613 . S
N477 C480 1.350 1_545 S
N478 S476 1.610 1_556 S
N478 C479 1.351 . S
C479 C473 1.428 . S
C479 N478 1.351 . S
C479 C480 1.434 1_546 S
C480 C471 1.429 . S
C480 N477 1.350 1_565 S
C480 C479 1.434 1_564 S
C481 C482 1.369 . S
C481 C483 1.419 1_455 S
C481 H485 0.930 . S
C482 C481 1.369 . S
C482 C491 1.429 1_554 S
C483 C481 1.419 1_655 S
C483 C484 1.363 1_554 S
C483 H486 0.929 . S
C484 C483 1.363 1_556 S
C484 C490 1.428 . S
H485 C481 0.930 . S
H486 C483 0.929 . S
S487 N488 1.613 . S
S487 N489 1.610 1_455 S
N488 S487 1.613 . S
N488 C491 1.350 . S
N489 S487 1.610 1_655 S
N489 C490 1.351 . S
C490 C484 1.428 . S
C490 N489 1.351 . S
C490 C491 1.434 1_655 S
C491 C482 1.429 1_556 S
C491 N488 1.350 . S
C491 C490 1.434 1_455 S
C492 C493 1.369 1_455 S
C492 C494 1.419 . S
C492 H496 0.930 . S
C493 C492 1.369 1_655 S
C493 C502 1.439 . S
C494 C492 1.419 . S
C494 C495 1.363 1_565 S
C494 H497 0.929 . S
C495 C494 1.363 1_545 S
C495 C501 1.428 1_455 S
H496 C492 0.930 . S
H497 C494 0.929 . S
S498 N499 1.613 . S
S498 N500 1.610 . S
N499 S498 1.613 . S
N499 C502 1.348 1_545 S
N500 S498 1.610 . S
N500 C501 1.351 . S
C501 C495 1.428 1_655 S
C501 N500 1.351 . S
C501 C502 1.425 1_545 S
C502 C493 1.439 . S
C502 N499 1.348 1_565 S
C502 C501 1.425 1_565 S
C503 C504 1.369 1_655 S
C503 C505 1.419 1_565 S
C503 H507 0.930 . S
C504 C503 1.369 1_455 S
C504 C513 1.429 1_565 S
C505 C503 1.419 1_545 S
C505 C506 1.363 . S
C505 H508 0.929 . S
C506 C505 1.363 . S
C506 C512 1.428 1_655 S
H507 C503 0.930 . S
H508 C505 0.929 . S
S509 N510 1.613 . S
S509 N511 1.610 . S
N510 S509 1.613 . S
N510 C513 1.350 . S
N511 S509 1.610 . S
N511 C512 1.351 . S
C512 C506 1.428 1_455 S
C512 N511 1.351 . S
C512 C513 1.434 . S
C513 C504 1.429 1_545 S
C513 N510 1.350 . S
C513 C512 1.434 . S
C514 C515 1.369 . S
C514 C516 1.419 . S
C514 H518 0.930 . S
C515 C514 1.369 . S
C515 C524 1.429 . S
C516 C514 1.419 . S
C516 C517 1.363 . S
C516 H519 0.929 . S
C517 C516 1.363 . S
C517 C523 1.428 . S
H518 C514 0.930 . S
H519 C516 0.929 . S
S520 N521 1.613 . S
S520 N522 1.610 . S
N521 S520 1.613 . S
N521 C524 1.350 . S
N522 S520 1.610 . S
N522 C523 1.351 . S
C523 C517 1.428 . S
C523 N522 1.351 . S
C523 C524 1.434 . S
C524 C515 1.429 . S
C524 N521 1.350 . S
C524 C523 1.434 . S
C525 C526 1.369 . S
C525 C527 1.419 . S
C525 H529 0.930 . S
C526 C525 1.369 . S
C526 C535 1.429 . S
C527 C525 1.419 . S
C527 C528 1.363 . S
C527 H530 0.929 . S
C528 C527 1.363 . S
C528 C534 1.428 . S
H529 C525 0.930 . S
H530 C527 0.929 . S
S531 N532 1.613 . S
S531 N533 1.610 . S
N532 S531 1.613 . S
N532 C535 1.350 . S
N533 S531 1.610 . S
N533 C534 1.351 . S
C534 C528 1.428 . S
C534 N533 1.351 . S
C534 C535 1.434 . S
C535 C526 1.429 . S
C535 N532 1.350 . S
C535 C534 1.434 . S
C536 C537 1.369 . S
C536 C538 1.419 . S
C536 H540 0.930 . S
C537 C536 1.369 . S
C537 C546 1.429 . S
C538 C536 1.419 . S
C538 C539 1.363 . S
C538 H541 0.929 . S
C539 C538 1.363 . S
C539 C545 1.428 . S
H540 C536 0.930 . S
H541 C538 0.929 . S
S542 N543 1.613 . S
S542 N544 1.610 . S
N543 S542 1.613 . S
N543 C546 1.350 . S
N544 S542 1.610 . S
N544 C545 1.351 . S
C545 C539 1.428 . S
C545 N544 1.351 . S
C545 C546 1.434 . S
C546 C537 1.429 . S
C546 N543 1.350 . S
C546 C545 1.434 . S
C547 C548 1.369 . S
C547 C549 1.419 . S
C547 H551 0.930 . S
C548 C547 1.369 . S
C548 C557 1.429 . S
C549 C547 1.419 . S
C549 C550 1.363 . S
C549 H552 0.929 . S
C550 C549 1.363 . S
C550 C556 1.428 . S
H551 C547 0.930 . S
H552 C549 0.929 . S
S553 N554 1.613 . S
S553 N555 1.610 . S
N554 S553 1.613 . S
N554 C557 1.350 . S
N555 S553 1.610 . S
N555 C556 1.351 . S
C556 C550 1.428 . S
C556 N555 1.351 . S
C556 C557 1.434 . S
C557 C548 1.429 . S
C557 N554 1.350 . S
C557 C556 1.434 . S
C558 C559 1.369 . S
C558 C560 1.419 . S
C558 H562 0.930 . S
C559 C558 1.369 . S
C559 C568 1.429 . S
C560 C558 1.419 . S
C560 C561 1.363 . S
C560 H563 0.929 . S
C561 C560 1.363 . S
C561 C567 1.428 . S
H562 C558 0.930 . S
H563 C560 0.929 . S
S564 N565 1.613 . S
S564 N566 1.610 . S
N565 S564 1.613 . S
N565 C568 1.350 . S
N566 S564 1.610 . S
N566 C567 1.351 . S
C567 C561 1.428 . S
C567 N566 1.351 . S
C567 C568 1.434 . S
C568 C559 1.429 . S
C568 N565 1.350 . S
C568 C567 1.434 . S
C569 C570 1.369 . S
C569 C571 1.419 . S
C569 H573 0.930 . S
C570 C569 1.369 . S
C570 C579 1.429 . S
C571 C569 1.419 . S
C571 C572 1.363 . S
C571 H574 0.929 . S
C572 C571 1.363 . S
C572 C578 1.428 . S
H573 C569 0.930 . S
H574 C571 0.929 . S
S575 N576 1.613 . S
S575 N577 1.610 . S
N576 S575 1.613 . S
N576 C579 1.350 . S
N577 S575 1.610 . S
N577 C578 1.351 . S
C578 C572 1.428 . S
C578 N577 1.351 . S
C578 C579 1.434 . S
C579 C570 1.429 . S
C579 N576 1.350 . S
C579 C578 1.434 . S
C185 C14 2.718 1_556 S
C187 P146 2.617 . S
C196 C28 2.549 1_554 S
C198 P169 2.617 . S
C207 P100 2.164 . S
C209 C60 2.256 1_556 S
C218 C86 2.545 . S
C220 P123 2.707 . S
C229 P123 2.689 . S
C231 C17 2.631 . S
C240 C40 2.361 . S
C242 P146 2.524 . S
C251 P169 2.616 . S
C253 C63 2.486 . S
C262 P100 2.336 . S
C264 C83 2.332 1_565 S
C273 P100 2.293 . S
C275 C37 2.296 1_655 S
C284 C51 2.772 1_545 S
C286 P123 2.835 . S
C295 C74 2.428 . S
C297 P146 2.490 . S
C306 P169 2.649 . S
C308 C5 2.696 1_565 S
C317 P54 2.615 . S
C319 C106 2.720 . S
C328 P77 2.617 . S
C330 C120 2.545 . S
C339 P8 2.165 . S
C341 C152 2.254 . S
C350 C178 2.552 . S
C352 P31 2.708 . S
C361 P31 2.689 . S
C363 C109 2.630 . S
C372 P54 2.525 . S
C374 C132 2.366 . S
C383 P77 2.616 . S
C385 C155 2.490 . S
C394 C175 2.334 . S
C396 P8 2.338 . S
C405 P8 2.290 . S
C407 C129 2.298 . S
C416 C143 2.772 . S
C418 P31 2.835 . S
C427 P54 2.489 . S
C429 C166 2.428 . S
C438 P77 2.648 . S
C440 C97 2.696 . S
C449 C10 0.772 . S
C451 C32 0.709 . S
C460 C66 0.800 . S
C462 C33 0.742 . S
C471 C56 0.771 . S
C473 C89 0.754 . S
C482 C20 0.844 . S
C484 C78 0.494 . S
C493 C55 0.333 . S
C495 C9 0.608 . S
C504 C43 0.759 . S
C506 C79 0.731 . S
C515 C124 0.709 . S
C517 C102 0.787 . S
C526 C125 0.718 . S
C528 C158 0.778 . S
C537 C148 0.769 . S
C539 C181 0.755 . S
C548 C170 0.502 . S
C550 C112 0.818 . S
C559 C101 0.628 . S
C561 C147 0.360 . S
C570 C171 0.744 . S
C572 C135 0.781 . S
