# Generated by pormake.
# Topology crb, (4)-cn, num edge types: 1
# Building blocks:
#     Node 0, Type 0, BuildingBlock: UXUYUI_clean_sbu_0, # of connection points: 4
#     Node 1, Type 0, BuildingBlock: UXUYUI_clean_sbu_0, # of connection points: 4
#     Node 2, Type 0, BuildingBlock: UXUYUI_clean_sbu_0, # of connection points: 4
#     Node 3, Type 0, BuildingBlock: UXUYUI_clean_sbu_0, # of connection points: 4
#     Node 4, Type 0, BuildingBlock: UXUYUI_clean_sbu_0, # of connection points: 4
#     Node 5, Type 0, BuildingBlock: UXUYUI_clean_sbu_0, # of connection points: 4
#     Node 6, Type 0, BuildingBlock: UXUYUI_clean_sbu_0, # of connection points: 4
#     Node 7, Type 0, BuildingBlock: UXUYUI_clean_sbu_0, # of connection points: 4
#     Edge 8, Type (0, 0), BuildingBlock: XIVTED_clean_linker_0, # of connection points: 2
#     Edge 9, Type (0, 0), BuildingBlock: XIVTED_clean_linker_0, # of connection points: 2
#     Edge 10, Type (0, 0), BuildingBlock: XIVTED_clean_linker_0, # of connection points: 2
#     Edge 11, Type (0, 0), BuildingBlock: XIVTED_clean_linker_0, # of connection points: 2
#     Edge 12, Type (0, 0), BuildingBlock: XIVTED_clean_linker_0, # of connection points: 2
#     Edge 13, Type (0, 0), BuildingBlock: XIVTED_clean_linker_0, # of connection points: 2
#     Edge 14, Type (0, 0), BuildingBlock: XIVTED_clean_linker_0, # of connection points: 2
#     Edge 15, Type (0, 0), BuildingBlock: XIVTED_clean_linker_0, # of connection points: 2
#     Edge 16, Type (0, 0), BuildingBlock: XIVTED_clean_linker_0, # of connection points: 2
#     Edge 17, Type (0, 0), BuildingBlock: XIVTED_clean_linker_0, # of connection points: 2
#     Edge 18, Type (0, 0), BuildingBlock: XIVTED_clean_linker_0, # of connection points: 2
#     Edge 19, Type (0, 0), BuildingBlock: XIVTED_clean_linker_0, # of connection points: 2
#     Edge 20, Type (0, 0), BuildingBlock: XIVTED_clean_linker_0, # of connection points: 2
#     Edge 21, Type (0, 0), BuildingBlock: XIVTED_clean_linker_0, # of connection points: 2
#     Edge 22, Type (0, 0), BuildingBlock: XIVTED_clean_linker_0, # of connection points: 2
#     Edge 23, Type (0, 0), BuildingBlock: XIVTED_clean_linker_0, # of connection points: 2
# Relax obj value: 0.060
# Max RMSD: 0.078
# Mean RMSD: 0.078
data_MOF--net-crb--node1-UXUYUI_clean_sbu_0--edge1-XIVTED_clean_linker_0
_symmetry_space_group_name_H-M    P1
_symmetry_Int_Tables_number       1
_symmetry_cell_setting            triclinic
loop_
_symmetry_equiv_pos_as_xyz
'x, y, z'
_cell_length_a     62.339509
_cell_length_b     62.421648
_cell_length_c     37.231456
_cell_angle_alpha  89.99918
_cell_angle_beta   90.010795
_cell_angle_gamma 90.003235
loop_
_atom_site_label
_atom_site_type_symbol
_atom_site_fract_x
_atom_site_fract_y
_atom_site_fract_z
_atom_type_partial_charge
Li0 Li 0.31444 0.31377 0.03469 0.0
Li1 Li 0.34698 0.31842 0.99839 0.0
Li2 Li 0.31933 0.34756 1.00066 0.0
Li3 Li 0.31344 0.31424 0.96668 0.0
C4 C 0.33863 0.34462 0.0736 0.0
N5 N 0.34123 0.36283 0.14112 0.0
C6 C 0.35672 0.34118 0.09502 0.0
C7 C 0.32201 0.35757 0.08633 0.0
C8 C 0.35769 0.35045 0.12914 0.0
C9 C 0.32359 0.36658 0.12057 0.0
C10 C 0.34179 0.27685 1.00145 0.0
C11 C 0.36775 0.25379 0.97301 0.0
N12 N 0.37197 0.24454 0.00533 0.0
C13 C 0.34626 0.26703 0.03434 0.0
C14 C 0.35248 0.27011 0.97047 0.0
C15 C 0.36161 0.25075 0.03576 0.0
C16 C 0.2818 0.29406 0.07528 0.0
N17 N 0.30231 0.3014 0.07694 0.0
C18 C 0.30481 0.29137 0.13879 0.0
C19 C 0.31396 0.29994 0.10771 0.0
C20 C 0.28353 0.28397 0.13807 0.0
C21 C 0.27203 0.28528 0.10567 0.0
H22 H 0.27296 0.2952 0.05035 0.0
H23 H 0.33044 0.30526 0.10813 0.0
C24 C 0.38826 0.32005 0.96771 0.0
N25 N 0.37718 0.31342 0.9971 0.0
C26 C 0.41052 0.31793 0.96636 0.0
C27 C 0.40966 0.30203 0.02552 0.0
C28 C 0.38736 0.30443 0.02568 0.0
C29 C 0.42158 0.30909 0.99572 0.0
H30 H 0.37988 0.32738 0.94554 0.0
H31 H 0.3782 0.2995 0.0489 0.0
C32 C 0.27449 0.33806 0.00691 0.0
N33 N 0.23512 0.35745 0.01743 0.0
C34 C 0.26087 0.34187 0.97776 0.0
C35 C 0.26788 0.34376 0.04149 0.0
C36 C 0.24109 0.3518 0.9836 0.0
C37 C 0.24798 0.35364 0.04624 0.0
C38 C 0.33593 0.34028 0.92279 0.0
C39 C 0.32789 0.35953 0.90911 0.0
C40 C 0.34401 0.3248 0.89926 0.0
C41 C 0.32784 0.36287 0.87201 0.0
C42 C 0.34364 0.32874 0.86232 0.0
N43 N 0.33562 0.34752 0.84958 0.0
C44 C 0.33279 0.38926 0.01489 0.0
C45 C 0.29796 0.38798 0.98952 0.0
C46 C 0.33194 0.41156 0.0167 0.0
N47 N 0.31588 0.37794 1.00181 0.0
C48 C 0.29644 0.41031 0.99072 0.0
C49 C 0.31356 0.4224 0.00459 0.0
H50 H 0.34702 0.3809 0.02382 0.0
H51 H 0.28494 0.37875 0.97839 0.0
C52 C 0.29936 0.28051 0.92182 0.0
N53 N 0.29995 0.3022 0.92517 0.0
C54 C 0.29035 0.27109 0.8913 0.0
C55 C 0.28271 0.30647 0.86823 0.0
C56 C 0.29153 0.31519 0.89944 0.0
C57 C 0.28211 0.28415 0.86386 0.0
H58 H 0.30601 0.27053 0.94277 0.0
H59 H 0.29184 0.33236 0.90294 0.0
O60 O 0.33743 0.33558 0.04016 0.0
O61 O 0.32709 0.29307 0.99964 0.0
O62 O 0.29386 0.32822 1.00163 0.0
O63 O 0.33598 0.33669 0.95904 0.0
H64 H 0.36984 0.33138 0.08549 0.0
H65 H 0.30819 0.36088 0.06981 0.0
H66 H 0.37154 0.34781 0.14609 0.0
H67 H 0.31082 0.37662 0.13074 0.0
H68 H 0.37625 0.2485 0.9493 0.0
H69 H 0.33809 0.27205 0.05855 0.0
H70 H 0.34912 0.27748 0.9448 0.0
H71 H 0.36533 0.24308 0.06106 0.0
H72 H 0.3144 0.29026 0.16297 0.0
H73 H 0.25555 0.27987 0.10395 0.0
H74 H 0.41898 0.32333 0.94263 0.0
H75 H 0.41751 0.29536 0.04893 0.0
H76 H 0.26556 0.33736 0.95089 0.0
H77 H 0.27786 0.34039 0.06453 0.0
H78 H 0.23048 0.35499 0.96124 0.0
H79 H 0.24271 0.35818 0.07285 0.0
H80 H 0.32169 0.37172 0.92692 0.0
H81 H 0.3503 0.30983 0.90938 0.0
H82 H 0.32159 0.37765 0.86104 0.0
H83 H 0.34969 0.31684 0.8438 0.0
H84 H 0.3457 0.42023 0.02691 0.0
H85 H 0.28194 0.41798 0.98117 0.0
H86 H 0.29021 0.2538 0.88883 0.0
H87 H 0.27626 0.31705 0.84786 0.0
Li88 Li 0.68602 0.34455 0.00632 0.0
Li89 Li 0.69076 0.31164 0.04267 0.0
Li90 Li 0.69211 0.31112 0.97552 0.0
Li91 Li 0.65768 0.31557 0.00582 0.0
C92 C 0.72852 0.33944 0.01438 0.0
N93 N 0.76201 0.36784 0.02409 0.0
C94 C 0.73897 0.34064 0.04754 0.0
C95 C 0.73519 0.35258 0.98609 0.0
C96 C 0.75586 0.35513 0.05191 0.0
C97 C 0.75212 0.36687 0.99157 0.0
C98 C 0.6576 0.33978 0.07662 0.0
C99 C 0.63019 0.33416 0.12141 0.0
N100 N 0.6365 0.35238 0.13843 0.0
C101 C 0.66373 0.3585 0.09449 0.0
C102 C 0.64063 0.32754 0.09013 0.0
C103 C 0.6529 0.36458 0.12572 0.0
C104 C 0.67757 0.38602 0.98118 0.0
N105 N 0.68934 0.375 0.00573 0.0
C106 C 0.70317 0.40769 0.03 0.0
C107 C 0.70196 0.38534 0.02999 0.0
C108 C 0.69094 0.41948 0.00526 0.0
C109 C 0.67809 0.40837 0.9805 0.0
H110 H 0.66745 0.37744 0.96248 0.0
H111 H 0.71073 0.37631 0.0499 0.0
C112 C 0.71619 0.28322 0.08328 0.0
N113 N 0.70255 0.30012 0.08605 0.0
C114 C 0.72535 0.2742 0.11406 0.0
C115 C 0.7061 0.30004 0.15 0.0
C116 C 0.69749 0.30865 0.11855 0.0
C117 C 0.72032 0.2826 0.14812 0.0
H118 H 0.72003 0.27681 0.05705 0.0
H119 H 0.68677 0.32213 0.12029 0.0
C120 C 0.66813 0.33187 0.92906 0.0
N121 N 0.66639 0.32894 0.85512 0.0
C122 C 0.65223 0.3195 0.91261 0.0
C123 C 0.683 0.34292 0.90797 0.0
C124 C 0.65165 0.3182 0.87516 0.0
C125 C 0.6819 0.34117 0.87061 0.0
C126 C 0.66822 0.27255 0.02254 0.0
C127 C 0.66661 0.25391 1.00193 0.0
C128 C 0.66043 0.27267 0.05772 0.0
C129 C 0.65699 0.23573 0.01677 0.0
C130 C 0.65094 0.25417 0.07162 0.0
N131 N 0.6494 0.23624 0.05101 0.0
C132 C 0.72497 0.30399 0.92361 0.0
C133 C 0.69316 0.28385 0.91516 0.0
C134 C 0.73381 0.29545 0.89223 0.0
N135 N 0.70492 0.29823 0.93422 0.0
C136 C 0.70135 0.27491 0.88362 0.0
C137 C 0.72192 0.28076 0.87164 0.0
H138 H 0.73406 0.31532 0.93938 0.0
H139 H 0.6772 0.27964 0.92411 0.0
C140 C 0.61579 0.32983 0.00881 0.0
N141 N 0.62743 0.31169 0.00377 0.0
C142 C 0.59345 0.32922 0.00744 0.0
C143 C 0.59539 0.29123 0.99527 0.0
C144 C 0.61777 0.29259 0.99689 0.0
C145 C 0.58293 0.30975 1.00045 0.0
H146 H 0.62393 0.34482 0.01399 0.0
H147 H 0.62736 0.27847 0.99221 0.0
O148 O 0.71196 0.32536 0.00961 0.0
O149 O 0.66805 0.33365 0.04593 0.0
O150 O 0.66928 0.33293 0.96568 0.0
O151 O 0.67753 0.29047 0.00827 0.0
H152 H 0.73406 0.33057 0.0697 0.0
H153 H 0.72719 0.35193 0.96032 0.0
H154 H 0.76406 0.35628 0.07745 0.0
H155 H 0.75735 0.37723 0.96999 0.0
H156 H 0.61704 0.32483 0.13212 0.0
H157 H 0.67682 0.36816 0.08457 0.0
H158 H 0.63542 0.31316 0.07657 0.0
H159 H 0.65755 0.37899 0.13987 0.0
H160 H 0.71303 0.41567 0.04987 0.0
H161 H 0.66851 0.41689 0.96087 0.0
H162 H 0.73646 0.261 0.11109 0.0
H163 H 0.70141 0.30689 0.17553 0.0
H164 H 0.64063 0.31083 0.9286 0.0
H165 H 0.69537 0.35258 0.92035 0.0
H166 H 0.63952 0.30859 0.86203 0.0
H167 H 0.6934 0.3495 0.85393 0.0
H168 H 0.67267 0.25349 0.97471 0.0
H169 H 0.66181 0.28681 0.07421 0.0
H170 H 0.65556 0.22122 1.00107 0.0
H171 H 0.64482 0.25406 0.09881 0.0
H172 H 0.74984 0.30017 0.88436 0.0
H173 H 0.69148 0.26388 0.86843 0.0
H174 H 0.58452 0.34384 0.01207 0.0
H175 H 0.58796 0.27596 0.9893 0.0
Li176 Li 0.65821 0.68529 0.99857 0.0
Li177 Li 0.69037 0.68923 0.03414 0.0
Li178 Li 0.69201 0.68769 0.96743 0.0
Li179 Li 0.68398 0.65544 1.00205 0.0
C180 C 0.66419 0.7262 0.99752 0.0
N181 N 0.63367 0.75826 0.99515 0.0
C182 C 0.65318 0.7321 0.02868 0.0
C183 C 0.65985 0.73676 0.96522 0.0
C184 C 0.63775 0.74829 0.02691 0.0
C185 C 0.64433 0.7529 0.96456 0.0
C186 C 0.67044 0.65653 0.0721 0.0
C187 C 0.69479 0.63965 0.11383 0.0
N188 N 0.67777 0.63206 0.13278 0.0
C189 C 0.6532 0.64845 0.09192 0.0
C190 C 0.69142 0.652 0.08306 0.0
C191 C 0.65723 0.63616 0.12255 0.0
C192 C 0.61788 0.69811 0.96754 0.0
N193 N 0.62803 0.69158 0.99796 0.0
C194 C 0.59472 0.69115 0.02993 0.0
C195 C 0.61698 0.6885 0.02901 0.0
C196 C 0.58371 0.69709 0.99853 0.0
C197 C 0.59567 0.70097 0.96722 0.0
H198 H 0.62688 0.70094 0.94336 0.0
H199 H 0.62543 0.68365 0.053 0.0
C200 C 0.72344 0.7055 0.07887 0.0
N201 N 0.70201 0.70171 0.07672 0.0
C202 C 0.73234 0.71386 0.11036 0.0
C203 C 0.69688 0.71462 0.13658 0.0
C204 C 0.68871 0.70604 0.10472 0.0
C205 C 0.71899 0.71855 0.13974 0.0
H206 H 0.73363 0.70194 0.05617 0.0
H207 H 0.67176 0.70259 0.10246 0.0
C208 C 0.66419 0.66457 0.9238 0.0
N209 N 0.65611 0.6607 0.85105 0.0
C210 C 0.66531 0.64453 0.90712 0.0
C211 C 0.65915 0.68265 0.90333 0.0
C212 C 0.66111 0.6429 0.87036 0.0
C213 C 0.65507 0.68038 0.86664 0.0
C214 C 0.72736 0.66277 0.98514 0.0
C215 C 0.72292 0.64856 0.95711 0.0
C216 C 0.74867 0.66687 0.99462 0.0
C217 C 0.73986 0.63871 0.93894 0.0
C218 C 0.76517 0.65671 0.9758 0.0
N219 N 0.76047 0.64296 0.94857 0.0
C220 C 0.71331 0.71935 0.92646 0.0
C221 C 0.71017 0.68609 0.89643 0.0
C222 C 0.72321 0.72847 0.89641 0.0
N223 N 0.70672 0.6986 0.92579 0.0
C224 C 0.71967 0.69461 0.86565 0.0
C225 C 0.72625 0.71616 0.86513 0.0
H226 H 0.71072 0.7289 0.95031 0.0
H227 H 0.70512 0.66956 0.89641 0.0
C228 C 0.66887 0.6136 0.99339 0.0
N229 N 0.68604 0.62501 0.00509 0.0
C230 C 0.66916 0.59126 0.99439 0.0
C231 C 0.70456 0.5928 0.02075 0.0
C232 C 0.70365 0.61514 0.01891 0.0
C233 C 0.68719 0.5805 0.0082 0.0
H234 H 0.65496 0.62191 0.98302 0.0
H235 H 0.71696 0.62461 0.02863 0.0
O236 O 0.67892 0.70998 0.99856 0.0
O237 O 0.66668 0.66843 0.04183 0.0
O238 O 0.66853 0.66648 0.95973 0.0
O239 O 0.71103 0.67263 0.00334 0.0
H240 H 0.65627 0.72402 0.05383 0.0
H241 H 0.66831 0.73252 0.94089 0.0
H242 H 0.62897 0.75289 0.05075 0.0
H243 H 0.64073 0.76114 0.93972 0.0
H244 H 0.71094 0.63607 0.12258 0.0
H245 H 0.63685 0.65154 0.08367 0.0
H246 H 0.70501 0.65786 0.06797 0.0
H247 H 0.64403 0.62983 0.13813 0.0
H248 H 0.5862 0.68788 0.05467 0.0
H249 H 0.58793 0.70603 0.94259 0.0
H250 H 0.74944 0.71685 0.11158 0.0
H251 H 0.68607 0.71776 0.15873 0.0
H252 H 0.66954 0.63038 0.92228 0.0
H253 H 0.65906 0.69838 0.9154 0.0
H254 H 0.66191 0.62748 0.85716 0.0
H255 H 0.65128 0.69428 0.8505 0.0
H256 H 0.70657 0.64515 0.94939 0.0
H257 H 0.75244 0.67778 0.01629 0.0
H258 H 0.73661 0.6277 0.91717 0.0
H259 H 0.78173 0.65975 0.98285 0.0
H260 H 0.72843 0.74498 0.89782 0.0
H261 H 0.72131 0.68445 0.84227 0.0
H262 H 0.65549 0.58256 0.98395 0.0
H263 H 0.71862 0.58529 0.03227 0.0
Li264 Li 0.32078 0.65817 0.00557 0.0
Li265 Li 0.31495 0.69075 0.03871 0.0
Li266 Li 0.31437 0.69107 0.97351 0.0
Li267 Li 0.34778 0.68619 0.0051 0.0
C268 C 0.27864 0.6665 0.0266 0.0
N269 N 0.24699 0.64758 0.06774 0.0
C270 C 0.28414 0.65397 0.05634 0.0
C271 C 0.25705 0.66938 0.01777 0.0
C272 C 0.2679 0.64455 0.0768 0.0
C273 C 0.24128 0.65969 0.0389 0.0
C274 C 0.35016 0.67386 0.07588 0.0
C275 C 0.36691 0.69981 0.11485 0.0
N276 N 0.37532 0.68359 0.13476 0.0
C277 C 0.35897 0.65746 0.09672 0.0
C278 C 0.35414 0.69523 0.08499 0.0
C279 C 0.37165 0.6627 0.12639 0.0
C280 C 0.33421 0.61611 0.01723 0.0
N281 N 0.31735 0.62787 0.00518 0.0
C282 C 0.29727 0.59605 0.99306 0.0
C283 C 0.29909 0.61836 0.99312 0.0
C284 C 0.31441 0.58345 0.00555 0.0
C285 C 0.33308 0.59379 0.01772 0.0
H286 H 0.3486 0.62414 0.02631 0.0
H287 H 0.28591 0.62808 0.98357 0.0
C288 C 0.29188 0.72161 0.07872 0.0
N289 N 0.30219 0.70249 0.08107 0.0
C290 C 0.28232 0.73066 0.10913 0.0
C291 C 0.2942 0.70015 0.14376 0.0
C292 C 0.30336 0.69164 0.11269 0.0
C293 C 0.28345 0.71994 0.14234 0.0
H294 H 0.29103 0.7298 0.05315 0.0
H295 H 0.31148 0.67637 0.1139 0.0
C296 C 0.33223 0.65736 0.93414 0.0
N297 N 0.32274 0.63292 0.87433 0.0
C298 C 0.34872 0.64967 0.91223 0.0
C299 C 0.31091 0.65263 0.92561 0.0
C300 C 0.34359 0.63734 0.88211 0.0
C301 C 0.30644 0.64025 0.89527 0.0
C302 C 0.3371 0.72835 0.98636 0.0
C303 C 0.35007 0.7241 0.95658 0.0
C304 C 0.33256 0.74955 0.9957 0.0
C305 C 0.35828 0.74116 0.93658 0.0
C306 C 0.34108 0.76618 0.97502 0.0
N307 N 0.35365 0.76168 0.94613 0.0
C308 C 0.28104 0.71115 0.93399 0.0
C309 C 0.31272 0.70445 0.90066 0.0
C310 C 0.27115 0.72005 0.90373 0.0
N311 N 0.30144 0.70356 0.93188 0.0
C312 C 0.30349 0.7132 0.86984 0.0
C313 C 0.28242 0.72117 0.87106 0.0
H314 H 0.27247 0.71028 0.9592 0.0
H315 H 0.32887 0.69821 0.89954 0.0
C316 C 0.39006 0.67425 0.99159 0.0
N317 N 0.37803 0.69066 0.00454 0.0
C318 C 0.41237 0.67593 0.99043 0.0
C319 C 0.40956 0.71133 0.01632 0.0
C320 C 0.38725 0.70898 0.01689 0.0
C321 C 0.42243 0.69467 1.00286 0.0
H322 H 0.38227 0.65978 0.98235 0.0
H323 H 0.37732 0.72178 0.02718 0.0
O324 O 0.29419 0.676 0.00612 0.0
O325 O 0.33782 0.66888 0.04665 0.0
O326 O 0.3371 0.66939 0.96376 0.0
O327 O 0.32875 0.71197 0.00636 0.0
H328 H 0.30074 0.65147 0.06356 0.0
H329 H 0.25253 0.67902 0.99481 0.0
H330 H 0.27194 0.63483 0.09988 0.0
H331 H 0.2245 0.66179 0.03238 0.0
H332 H 0.37011 0.71627 0.1222 0.0
H333 H 0.35603 0.64084 0.09003 0.0
H334 H 0.34744 0.70816 0.06928 0.0
H335 H 0.37857 0.65016 0.14276 0.0
H336 H 0.28251 0.58877 0.98376 0.0
H337 H 0.34681 0.58473 0.02702 0.0
H338 H 0.27392 0.74576 0.10649 0.0
H339 H 0.29582 0.6914 0.16872 0.0
H340 H 0.36531 0.65321 0.91844 0.0
H341 H 0.29791 0.65847 0.94214 0.0
H342 H 0.3562 0.63128 0.86492 0.0
H343 H 0.29001 0.63647 0.88837 0.0
H344 H 0.35381 0.70781 0.94895 0.0
H345 H 0.32255 0.7531 0.01869 0.0
H346 H 0.36833 0.73809 0.91346 0.0
H347 H 0.33769 0.78267 0.98193 0.0
H348 H 0.25498 0.72621 0.90604 0.0
H349 H 0.31268 0.7134 0.84517 0.0
H350 H 0.42165 0.66253 0.98041 0.0
H351 H 0.41661 0.72612 0.02589 0.0
Li352 Li 0.81243 0.81266 0.53371 0.0
Li353 Li 0.84518 0.81969 0.49883 0.0
Li354 Li 0.81659 0.84568 0.49993 0.0
Li355 Li 0.81175 0.81274 0.46811 0.0
C356 C 0.83114 0.8513 0.56601 0.0
N357 N 0.82456 0.88437 0.61414 0.0
C358 C 0.8483 0.86419 0.57683 0.0
C359 C 0.81063 0.85522 0.57977 0.0
C360 C 0.84464 0.88083 0.60117 0.0
C361 C 0.80764 0.872 0.60406 0.0
C362 C 0.83781 0.77723 0.51968 0.0
C363 C 0.84686 0.74014 0.52964 0.0
N364 N 0.85824 0.74584 0.55931 0.0
C365 C 0.84962 0.78273 0.55027 0.0
C366 C 0.83643 0.75578 0.50925 0.0
C367 C 0.85981 0.76663 0.56995 0.0
C368 C 0.7846 0.78591 0.57403 0.0
N369 N 0.80151 0.7996 0.57634 0.0
C370 C 0.80288 0.79522 0.6401 0.0
C371 C 0.81091 0.80409 0.60844 0.0
C372 C 0.78532 0.7812 0.63862 0.0
C373 C 0.77629 0.77633 0.60503 0.0
H374 H 0.77755 0.78249 0.54809 0.0
H375 H 0.82467 0.8146 0.60954 0.0
C376 C 0.88724 0.83432 0.50611 0.0
N377 N 0.87562 0.81678 0.4969 0.0
C378 C 0.90961 0.83366 0.50571 0.0
C379 C 0.90772 0.79706 0.48479 0.0
C380 C 0.88534 0.79837 0.48606 0.0
C381 C 0.92024 0.81484 0.49491 0.0
H382 H 0.87908 0.8489 0.51366 0.0
H383 H 0.87575 0.78475 0.47809 0.0
C384 C 0.77358 0.83374 0.48338 0.0
N385 N 0.73815 0.84786 0.44561 0.0
C386 C 0.7761 0.84773 0.45438 0.0
C387 C 0.75306 0.82691 0.49316 0.0
C388 C 0.75799 0.85469 0.43563 0.0
C389 C 0.73534 0.83424 0.47374 0.0
C390 C 0.84448 0.83115 0.42756 0.0
C391 C 0.85132 0.84771 0.40506 0.0
C392 C 0.84957 0.80994 0.419 0.0
C393 C 0.86315 0.84277 0.37428 0.0
C394 C 0.86143 0.80566 0.388 0.0
N395 N 0.86792 0.82202 0.36647 0.0
C396 C 0.82993 0.88777 0.49262 0.0
C397 C 0.79348 0.88534 0.51036 0.0
C398 C 0.82915 0.91007 0.49427 0.0
N399 N 0.8123 0.87593 0.50068 0.0
C400 C 0.79188 0.90766 0.51186 0.0
C401 C 0.80995 0.92028 0.50402 0.0
H402 H 0.84473 0.87979 0.48541 0.0
H403 H 0.77982 0.87554 0.51748 0.0
C404 C 0.79316 0.77901 0.42729 0.0
N405 N 0.79892 0.80002 0.42659 0.0
C406 C 0.78396 0.76946 0.39698 0.0
C407 C 0.78659 0.80339 0.36603 0.0
C408 C 0.79595 0.8122 0.39671 0.0
C409 C 0.78048 0.78174 0.36588 0.0
H410 H 0.79573 0.7697 0.4514 0.0
H411 H 0.80095 0.82877 0.39659 0.0
O412 O 0.83416 0.83537 0.54123 0.0
O413 O 0.82761 0.79264 0.49988 0.0
O414 O 0.79105 0.82654 0.50205 0.0
O415 O 0.83292 0.83586 0.45777 0.0
H416 H 0.86428 0.86141 0.56665 0.0
H417 H 0.7971 0.84559 0.57136 0.0
H418 H 0.85777 0.89095 0.60971 0.0
H419 H 0.79184 0.87527 0.61474 0.0
H420 H 0.84592 0.72347 0.52186 0.0
H421 H 0.851 0.79923 0.55873 0.0
H422 H 0.82739 0.75126 0.4856 0.0
H423 H 0.869 0.77066 0.59366 0.0
H424 H 0.81047 0.7991 0.66546 0.0
H425 H 0.7627 0.76559 0.60288 0.0
H426 H 0.91841 0.84772 0.51418 0.0
H427 H 0.91508 0.78236 0.47553 0.0
H428 H 0.79188 0.85315 0.4464 0.0
H429 H 0.75086 0.81604 0.51553 0.0
H430 H 0.75972 0.86551 0.41312 0.0
H431 H 0.71935 0.82909 0.48101 0.0
H432 H 0.8475 0.86421 0.41134 0.0
H433 H 0.84442 0.79689 0.43601 0.0
H434 H 0.86854 0.85543 0.35662 0.0
H435 H 0.86548 0.78932 0.38106 0.0
H436 H 0.84338 0.91925 0.48782 0.0
H437 H 0.77688 0.91497 0.51991 0.0
H438 H 0.77936 0.75274 0.398 0.0
H439 H 0.78448 0.81334 0.34246 0.0
Li440 Li 0.18486 0.84489 0.50591 0.0
Li441 Li 0.18911 0.81282 0.5401 0.0
Li442 Li 0.19016 0.81183 0.4719 0.0
Li443 Li 0.15631 0.81845 0.50727 0.0
C444 C 0.22797 0.83843 0.50126 0.0
N445 N 0.26373 0.86394 0.49129 0.0
C446 C 0.23467 0.85242 0.52837 0.0
C447 C 0.23948 0.83743 0.46907 0.0
C448 C 0.25277 0.86519 0.5228 0.0
C449 C 0.25752 0.85044 0.46456 0.0
C450 C 0.16809 0.83725 0.58373 0.0
C451 C 0.15788 0.82421 0.64226 0.0
N452 N 0.17041 0.83947 0.65774 0.0
C453 C 0.18081 0.85286 0.60021 0.0
C454 C 0.15644 0.82287 0.60488 0.0
C455 C 0.18178 0.85371 0.63767 0.0
C456 C 0.17363 0.88704 0.52244 0.0
N457 N 0.18867 0.87552 0.50442 0.0
C458 C 0.2056 0.90779 0.4844 0.0
C459 C 0.2042 0.88546 0.48489 0.0
C460 C 0.1904 0.92017 0.50312 0.0
C461 C 0.17411 0.90938 0.52202 0.0
H462 H 0.16094 0.87883 0.53667 0.0
H463 H 0.21537 0.87616 0.46921 0.0
C464 C 0.19539 0.78017 0.5929 0.0
N465 N 0.20131 0.80021 0.58256 0.0
C466 C 0.20387 0.7711 0.62421 0.0
C467 C 0.22448 0.80338 0.63348 0.0
C468 C 0.21564 0.81177 0.60207 0.0
C469 C 0.21867 0.78275 0.64497 0.0
H470 H 0.18413 0.77117 0.57683 0.0
H471 H 0.22004 0.82766 0.59355 0.0
C472 C 0.16261 0.85207 0.44719 0.0
N473 N 0.15305 0.89058 0.41434 0.0
C474 C 0.14363 0.86286 0.45568 0.0
C475 C 0.17669 0.8608 0.42192 0.0
C476 C 0.1391 0.88233 0.43879 0.0
C477 C 0.17157 0.8803 0.40561 0.0
C478 C 0.16048 0.77613 0.50182 0.0
C479 C 0.15918 0.76553 0.46882 0.0
C480 C 0.14666 0.77032 0.52974 0.0
C481 C 0.14391 0.74937 0.46421 0.0
C482 C 0.13159 0.75411 0.52403 0.0
N483 N 0.13054 0.74406 0.49166 0.0
C484 C 0.21769 0.78399 0.43323 0.0
C485 C 0.1941 0.80478 0.39743 0.0
C486 C 0.22663 0.77467 0.40254 0.0
N487 N 0.20185 0.79885 0.43007 0.0
C488 C 0.20271 0.79604 0.36608 0.0
C489 C 0.21926 0.78083 0.36838 0.0
H490 H 0.22347 0.77955 0.45959 0.0
H491 H 0.18121 0.8163 0.39573 0.0
C492 C 0.11426 0.82555 0.5319 0.0
N493 N 0.12588 0.8152 0.50634 0.0
C494 C 0.09189 0.82504 0.53101 0.0
C495 C 0.09376 0.80292 0.47781 0.0
C496 C 0.11613 0.80418 0.47936 0.0
C497 C 0.08139 0.81366 0.50366 0.0
H498 H 0.12238 0.83465 0.55252 0.0
H499 H 0.12571 0.79667 0.4587 0.0
O500 O 0.21048 0.82552 0.50629 0.0
O501 O 0.16729 0.83585 0.54709 0.0
O502 O 0.16762 0.83333 0.46425 0.0
O503 O 0.17522 0.79209 0.50676 0.0
H504 H 0.22569 0.85388 0.55304 0.0
H505 H 0.23456 0.82676 0.44775 0.0
H506 H 0.25802 0.8762 0.54344 0.0
H507 H 0.26656 0.84983 0.43978 0.0
H508 H 0.14906 0.8131 0.65895 0.0
H509 H 0.19006 0.86401 0.58427 0.0
H510 H 0.14656 0.81067 0.59256 0.0
H511 H 0.19165 0.86562 0.65079 0.0
H512 H 0.21854 0.91517 0.4695 0.0
H513 H 0.16155 0.91802 0.53588 0.0
H514 H 0.19912 0.75503 0.63175 0.0
H515 H 0.23555 0.81312 0.64886 0.0
H516 H 0.13265 0.85641 0.47539 0.0
H517 H 0.19161 0.85281 0.41548 0.0
H518 H 0.12453 0.89092 0.44522 0.0
H519 H 0.18239 0.88733 0.3862 0.0
H520 H 0.16975 0.76979 0.44694 0.0
H521 H 0.14738 0.77841 0.55539 0.0
H522 H 0.14267 0.74108 0.43878 0.0
H523 H 0.1207 0.74955 0.54532 0.0
H524 H 0.23944 0.76308 0.40546 0.0
H525 H 0.19633 0.80096 0.34031 0.0
H526 H 0.08288 0.83353 0.55141 0.0
H527 H 0.08621 0.79426 0.456 0.0
Li528 Li 0.19219 0.18863 0.53452 0.0
Li529 Li 0.15827 0.18269 0.49935 0.0
Li530 Li 0.18671 0.156 0.49932 0.0
Li531 Li 0.19099 0.18873 0.46607 0.0
C532 C 0.16367 0.14789 0.5569 0.0
N533 N 0.15224 0.10869 0.58564 0.0
C534 C 0.14343 0.13921 0.54984 0.0
C535 C 0.17806 0.13666 0.5787 0.0
C536 C 0.13796 0.11938 0.56462 0.0
C537 C 0.172 0.11685 0.59292 0.0
C538 C 0.1626 0.22491 0.50465 0.0
C539 C 0.13488 0.24765 0.4804 0.0
N540 N 0.13254 0.25703 0.51314 0.0
C541 C 0.15999 0.23483 0.53803 0.0
C542 C 0.15003 0.23143 0.47554 0.0
C543 C 0.14469 0.25103 0.54178 0.0
C544 C 0.21548 0.21991 0.57334 0.0
N545 N 0.20423 0.20135 0.57631 0.0
C546 C 0.20984 0.20073 0.63978 0.0
C547 C 0.20118 0.19177 0.60865 0.0
C548 C 0.22146 0.22002 0.63781 0.0
C549 C 0.22417 0.22964 0.60389 0.0
H550 H 0.21748 0.22727 0.54725 0.0
H551 H 0.19198 0.17717 0.61034 0.0
C552 C 0.11612 0.17842 0.47286 0.0
N553 N 0.12794 0.18678 0.50011 0.0
C554 C 0.09381 0.18026 0.47304 0.0
C555 C 0.0962 0.19935 0.52935 0.0
C556 C 0.11847 0.19688 0.52829 0.0
C557 C 0.08348 0.19089 0.50152 0.0
H558 H 0.12397 0.16989 0.45131 0.0
H559 H 0.1282 0.2029 0.5501 0.0
C560 C 0.23046 0.16351 0.50237 0.0
N561 N 0.26775 0.13985 0.50845 0.0
C562 C 0.23776 0.15128 0.47339 0.0
C563 C 0.24216 0.16376 0.53441 0.0
C564 C 0.25663 0.1394 0.47702 0.0
C565 C 0.26097 0.15168 0.53695 0.0
C566 C 0.16932 0.16382 0.42211 0.0
C567 C 0.18047 0.14695 0.40598 0.0
C568 C 0.15853 0.17871 0.40065 0.0
C569 C 0.18075 0.14533 0.36856 0.0
C570 C 0.15923 0.17656 0.36333 0.0
N571 N 0.17024 0.16006 0.34818 0.0
C572 C 0.17377 0.11421 0.48502 0.0
C573 C 0.20746 0.11506 0.5145 0.0
C574 C 0.17375 0.09187 0.48548 0.0
N575 N 0.19049 0.12537 0.49925 0.0
C576 C 0.20836 0.09269 0.51469 0.0
C577 C 0.19127 0.08093 0.50025 0.0
H578 H 0.16021 0.12275 0.47392 0.0
H579 H 0.22003 0.12402 0.5275 0.0
C580 C 0.20023 0.22342 0.41897 0.0
N581 N 0.2031 0.20205 0.42425 0.0
C582 C 0.20846 0.23337 0.38827 0.0
C583 C 0.22263 0.19921 0.36916 0.0
C584 C 0.21428 0.18999 0.4003 0.0
C585 C 0.21971 0.22118 0.36274 0.0
H586 H 0.1915 0.23275 0.43854 0.0
H587 H 0.21659 0.17313 0.40511 0.0
O588 O 0.16955 0.16699 0.54178 0.0
O589 O 0.17732 0.20886 0.50055 0.0
O590 O 0.21218 0.17548 0.49932 0.0
O591 O 0.16903 0.16583 0.4587 0.0
H592 H 0.13213 0.14757 0.53284 0.0
H593 H 0.19397 0.14288 0.5838 0.0
H594 H 0.12238 0.11244 0.55925 0.0
H595 H 0.18306 0.1079 0.60952 0.0
H596 H 0.12496 0.25277 0.45816 0.0
H597 H 0.16952 0.22993 0.56088 0.0
H598 H 0.15184 0.22391 0.44955 0.0
H599 H 0.14242 0.25878 0.56749 0.0
H600 H 0.20758 0.19245 0.66503 0.0
H601 H 0.23262 0.24468 0.60093 0.0
H602 H 0.08476 0.17296 0.45145 0.0
H603 H 0.08908 0.20782 0.55175 0.0
H604 H 0.22873 0.15056 0.44868 0.0
H605 H 0.23678 0.17317 0.55708 0.0
H606 H 0.26238 0.12974 0.4549 0.0
H607 H 0.27017 0.15171 0.56159 0.0
H608 H 0.18911 0.1354 0.42211 0.0
H609 H 0.14984 0.19187 0.41269 0.0
H610 H 0.18942 0.13242 0.3557 0.0
H611 H 0.15106 0.18804 0.34639 0.0
H612 H 0.16023 0.0832 0.47436 0.0
H613 H 0.22191 0.08466 0.52694 0.0
H614 H 0.20576 0.25035 0.3843 0.0
H615 H 0.23149 0.18927 0.35051 0.0
Li616 Li 0.8151 0.18919 0.54101 0.0
Li617 Li 0.81971 0.15584 0.50883 0.0
Li618 Li 0.84763 0.18296 0.5075 0.0
Li619 Li 0.81463 0.18875 0.47574 0.0
C620 C 0.84975 0.17069 0.57858 0.0
N621 N 0.87578 0.17886 0.63706 0.0
C622 C 0.85878 0.15375 0.59789 0.0
C623 C 0.85396 0.19179 0.58899 0.0
C624 C 0.87189 0.15821 0.62739 0.0
C625 C 0.86716 0.19559 0.61864 0.0
C626 C 0.77764 0.16658 0.52927 0.0
C627 C 0.73988 0.16281 0.54183 0.0
N628 N 0.74466 0.15033 0.57069 0.0
C629 C 0.78218 0.15371 0.55904 0.0
C630 C 0.75633 0.17118 0.52056 0.0
C631 C 0.76529 0.14565 0.57964 0.0
C632 C 0.7944 0.2218 0.58121 0.0
N633 N 0.80282 0.20175 0.58315 0.0
C634 C 0.7935 0.19922 0.64529 0.0
C635 C 0.80254 0.19043 0.61435 0.0
C636 C 0.78462 0.2199 0.64422 0.0
C637 C 0.7852 0.23126 0.6116 0.0
H638 H 0.79476 0.2304 0.55599 0.0
H639 H 0.80939 0.17453 0.6153 0.0
C640 C 0.83329 0.11382 0.51716 0.0
N641 N 0.81561 0.12559 0.50922 0.0
C642 C 0.83221 0.0915 0.51786 0.0
C643 C 0.79466 0.09378 0.50214 0.0
C644 C 0.79654 0.11609 0.50138 0.0
C645 C 0.81266 0.08112 0.51054 0.0
H646 H 0.84832 0.12184 0.52271 0.0
H647 H 0.78276 0.12579 0.49458 0.0
C648 C 0.839 0.2251 0.48742 0.0
N649 N 0.85745 0.2569 0.44608 0.0
C650 C 0.85127 0.21974 0.45731 0.0
C651 C 0.83615 0.24662 0.49654 0.0
C652 C 0.86045 0.23605 0.43674 0.0
C653 C 0.8456 0.26247 0.47529 0.0
C654 C 0.83069 0.15388 0.43753 0.0
C655 C 0.84651 0.1461 0.41437 0.0
C656 C 0.80913 0.14921 0.4307 0.0
C657 C 0.84051 0.13375 0.38473 0.0
C658 C 0.80378 0.1368 0.40079 0.0
N659 N 0.81945 0.12939 0.37862 0.0
C660 C 0.88961 0.17105 0.49023 0.0
C661 C 0.88759 0.20398 0.52179 0.0
C662 C 0.91192 0.17257 0.48849 0.0
N663 N 0.87797 0.18664 0.50661 0.0
C664 C 0.90992 0.20599 0.52114 0.0
C665 C 0.92234 0.19017 0.50422 0.0
H666 H 0.88152 0.15737 0.47863 0.0
H667 H 0.87794 0.21625 0.53439 0.0
C668 C 0.78295 0.21127 0.43622 0.0
N669 N 0.80229 0.20133 0.43369 0.0
C670 C 0.77342 0.22028 0.40573 0.0
C671 C 0.80388 0.2086 0.37069 0.0
C672 C 0.81292 0.20008 0.40184 0.0
C673 C 0.78385 0.2188 0.37236 0.0
H674 H 0.7749 0.21211 0.46192 0.0
H675 H 0.82843 0.19242 0.40051 0.0
O676 O 0.83698 0.1665 0.54953 0.0
O677 O 0.79386 0.17486 0.50879 0.0
O678 O 0.82975 0.20948 0.50805 0.0
O679 O 0.83644 0.16596 0.46669 0.0
H680 H 0.85567 0.13732 0.59013 0.0
H681 H 0.84714 0.20512 0.57435 0.0
H682 H 0.87899 0.14525 0.64258 0.0
H683 H 0.87056 0.21184 0.62697 0.0
H684 H 0.72331 0.16624 0.53541 0.0
H685 H 0.79856 0.14992 0.56616 0.0
H686 H 0.75256 0.18114 0.49761 0.0
H687 H 0.76858 0.13567 0.60275 0.0
H688 H 0.79373 0.19 0.66992 0.0
H689 H 0.77834 0.24714 0.60941 0.0
H690 H 0.84666 0.08251 0.52361 0.0
H691 H 0.77921 0.08658 0.4966 0.0
H692 H 0.85373 0.2032 0.44985 0.0
H693 H 0.82671 0.25102 0.51981 0.0
H694 H 0.86997 0.23213 0.41336 0.0
H695 H 0.84351 0.2792 0.48203 0.0
H696 H 0.86327 0.14961 0.4192 0.0
H697 H 0.79662 0.15513 0.44814 0.0
H698 H 0.85259 0.12764 0.36658 0.0
H699 H 0.78716 0.13308 0.3952 0.0
H700 H 0.92097 0.15992 0.47554 0.0
H701 H 0.91737 0.21989 0.53331 0.0
H702 H 0.75791 0.22797 0.40809 0.0
H703 H 0.81259 0.20742 0.3456 0.0
H704 H 0.32749 0.44899 0.05835 0.0
H705 H 0.29701 0.55709 0.95417 0.0
H706 H 0.29721 0.45004 0.95409 0.0
H707 H 0.32847 0.5556 0.05742 0.0
H708 H 0.29551 0.51795 0.95465 0.0
H709 H 0.32687 0.48808 0.05924 0.0
C710 C 0.32076 0.45744 0.03557 0.0
C711 C 0.31248 0.44618 0.00601 0.0
C712 C 0.30271 0.52619 0.97723 0.0
C713 C 0.31155 0.49104 0.00699 0.0
C714 C 0.30346 0.54855 0.97707 0.0
C715 C 0.31294 0.55968 0.00576 0.0
C716 C 0.31148 0.51483 0.00631 0.0
C717 C 0.32131 0.54772 0.03447 0.0
C718 C 0.32031 0.47978 0.03618 0.0
C719 C 0.30359 0.45802 0.97759 0.0
N720 N 0.3204 0.52597 0.03399 0.0
N721 N 0.30343 0.47979 0.97873 0.0
H722 H 0.44785 0.27708 0.02149 0.0
H723 H 0.55603 0.33896 0.96913 0.0
H724 H 0.44978 0.33912 0.97035 0.0
H725 H 0.55552 0.27881 0.02633 0.0
H726 H 0.51698 0.33832 0.96745 0.0
H727 H 0.48714 0.27654 0.02196 0.0
C728 C 0.4565 0.2906 0.01043 0.0
C729 C 0.44543 0.30814 0.99575 0.0
C730 C 0.52536 0.32523 0.98037 0.0
C731 C 0.49039 0.30754 0.99594 0.0
C732 C 0.5477 0.32564 0.98151 0.0
C733 C 0.55912 0.309 0.99817 0.0
C734 C 0.51421 0.30804 0.99597 0.0
C735 C 0.54741 0.29191 0.013 0.0
C736 C 0.47893 0.29023 0.01055 0.0
C737 C 0.45754 0.32509 0.9814 0.0
N738 N 0.52559 0.29191 0.01167 0.0
N739 N 0.4793 0.32436 0.98191 0.0
H740 H 0.72547 0.44652 0.01068 0.0
H741 H 0.65407 0.55258 0.02193 0.0
H742 H 0.65646 0.44644 1.00206 0.0
H743 H 0.72176 0.5538 0.99713 0.0
H744 H 0.65513 0.51354 0.02129 0.0
H745 H 0.72491 0.4858 0.01253 0.0
C746 C 0.71021 0.45478 0.00927 0.0
C747 C 0.69099 0.44324 0.00606 0.0
C748 C 0.66974 0.52237 0.01597 0.0
C749 C 0.69021 0.48804 0.00833 0.0
C750 C 0.66915 0.5447 0.01614 0.0
C751 C 0.68782 0.55664 0.00929 0.0
C752 C 0.68918 0.51176 0.00928 0.0
C753 C 0.70699 0.54537 1.00296 0.0
C754 C 0.70991 0.47716 0.01015 0.0
C755 C 0.67167 0.45472 0.00409 0.0
N756 N 0.70717 0.52359 1.00311 0.0
N757 N 0.67176 0.47647 0.00541 0.0
H758 H 0.44915 0.71196 0.05395 0.0
H759 H 0.55642 0.68364 0.94546 0.0
H760 H 0.44993 0.6819 0.94956 0.0
H761 H 0.55656 0.71296 0.05047 0.0
H762 H 0.51734 0.68448 0.94559 0.0
H763 H 0.48834 0.71403 0.05229 0.0
C764 C 0.45754 0.70595 0.03055 0.0
C765 C 0.4462 0.69666 1.00191 0.0
C766 C 0.52589 0.69081 0.96859 0.0
C767 C 0.49109 0.6988 0.99999 0.0
C768 C 0.54825 0.69048 0.96842 0.0
C769 C 0.55987 0.69828 0.99798 0.0
C770 C 0.51491 0.69897 0.99855 0.0
C771 C 0.5483 0.70655 0.02726 0.0
C772 C 0.47993 0.70703 0.02972 0.0
C773 C 0.45797 0.68889 0.97251 0.0
N774 N 0.52648 0.70665 0.02682 0.0
N775 N 0.47973 0.69011 0.97235 0.0
H776 H 0.77931 0.94723 0.4767 0.0
H777 H 0.83329 0.05323 0.55609 0.0
H778 H 0.83843 0.94709 0.53692 0.0
H779 H 0.78863 0.05442 0.46735 0.0
H780 H 0.83192 0.0142 0.55558 0.0
H781 H 0.77888 0.98652 0.47957 0.0
C782 C 0.79211 0.95549 0.49071 0.0
C783 C 0.80899 0.94396 0.50644 0.0
C784 C 0.82242 0.02303 0.53625 0.0
C785 C 0.80857 0.98871 0.50993 0.0
C786 C 0.82327 0.04536 0.53634 0.0
C787 C 0.81121 0.05729 0.51148 0.0
C788 C 0.80924 0.01243 0.5114 0.0
C789 C 0.79805 0.04602 0.48728 0.0
C790 C 0.79192 0.97786 0.49216 0.0
C791 C 0.82525 0.9554 0.52408 0.0
N792 N 0.79742 0.02424 0.48784 0.0
N793 N 0.82461 0.97714 0.52543 0.0
H794 H 0.05457 0.84809 0.50754 0.0
H795 H 0.94652 0.78044 0.51009 0.0
H796 H 0.05436 0.77944 0.49452 0.0
H797 H 0.94883 0.847 0.47841 0.0
H798 H 0.98572 0.77969 0.51051 0.0
H799 H 0.01536 0.84809 0.50401 0.0
C800 C 0.04622 0.83301 0.50409 0.0
C801 C 0.05766 0.81373 0.50141 0.0
C802 C 0.97757 0.79441 0.50337 0.0
C803 C 0.01287 0.81359 0.49743 0.0
C804 C 0.95516 0.79486 0.50291 0.0
C805 C 0.94416 0.81386 0.49436 0.0
C806 C 0.98912 0.81315 0.49572 0.0
C807 C 0.95643 0.8321 0.486 0.0
C808 C 0.02389 0.83303 0.50184 0.0
C809 C 0.0461 0.79465 0.49653 0.0
N810 N 0.9782 0.83132 0.48714 0.0
N811 N 0.02429 0.79502 0.49498 0.0
H812 H 0.16316 0.05482 0.5349 0.0
H813 H 0.20475 0.94685 0.44893 0.0
H814 H 0.21961 0.05374 0.46815 0.0
H815 H 0.17804 0.94851 0.5561 0.0
H816 H 0.20592 0.98594 0.44906 0.0
H817 H 0.16344 0.01544 0.53627 0.0
C818 C 0.17556 0.04621 0.52051 0.0
C819 C 0.1914 0.05732 0.50143 0.0
C820 C 0.19986 0.97763 0.47249 0.0
C821 C 0.19164 0.01265 0.50237 0.0
C822 C 0.19929 0.95527 0.47264 0.0
C823 C 0.19129 0.94409 0.50261 0.0
C824 C 0.19194 0.98898 0.50212 0.0
C825 C 0.18392 0.95621 0.53202 0.0
C826 C 0.17578 0.02386 0.52141 0.0
C827 C 0.2072 0.0456 0.48325 0.0
N828 N 0.18426 0.97796 0.5309 0.0
N829 N 0.20682 0.02382 0.48385 0.0
H830 H 0.94886 0.18422 0.4466 0.0
H831 H 0.05679 0.18927 0.56045 0.0
H832 H 0.94969 0.19976 0.55947 0.0
H833 H 0.05549 0.19619 0.445 0.0
H834 H 0.01767 0.1908 0.56114 0.0
H835 H 0.9881 0.18576 0.44585 0.0
C836 C 0.95733 0.18795 0.47122 0.0
C837 C 0.94605 0.19183 0.50316 0.0
C838 C 0.02599 0.19209 0.5357 0.0
C839 C 0.99089 0.19354 0.50256 0.0
C840 C 0.04838 0.19134 0.53525 0.0
C841 C 0.05963 0.19255 0.50258 0.0
C842 C 0.01467 0.19378 0.50324 0.0
C843 C 0.04763 0.19476 0.47079 0.0
C844 C 0.9797 0.18895 0.47074 0.0
C845 C 0.95779 0.19681 0.53424 0.0
N846 N 0.02584 0.19516 0.47191 0.0
N847 N 0.9796 0.19735 0.53324 0.0
H848 H 0.24037 0.2598 0.35597 0.0
H849 H 0.25776 0.24849 0.14352 0.0
H850 H 0.21894 0.20542 0.29406 0.0
H851 H 0.2863 0.29868 0.20735 0.0
H852 H 0.24147 0.23371 0.19784 0.0
H853 H 0.2553 0.27556 0.30123 0.0
C854 C 0.23868 0.25124 0.33082 0.0
C855 C 0.22844 0.23122 0.32963 0.0
C856 C 0.2513 0.24796 0.19998 0.0
C857 C 0.24561 0.2491 0.26689 0.0
C858 C 0.2605 0.25648 0.16893 0.0
C859 C 0.27345 0.27485 0.17086 0.0
C860 C 0.25493 0.25792 0.23327 0.0
C861 C 0.27666 0.28435 0.20465 0.0
C862 C 0.24733 0.26018 0.29962 0.0
C863 C 0.22695 0.22074 0.29634 0.0
N864 N 0.26745 0.2758 0.23448 0.0
N865 N 0.23541 0.22981 0.26633 0.0
H866 H 0.73283 0.30363 0.20964 0.0
H867 H 0.78041 0.19994 0.30631 0.0
H868 H 0.72956 0.24035 0.16299 0.0
H869 H 0.76495 0.25808 0.36332 0.0
H870 H 0.76494 0.21533 0.25167 0.0
H871 H 0.74753 0.28803 0.26444 0.0
C872 C 0.73503 0.28645 0.21089 0.0
C873 C 0.72978 0.27332 0.18147 0.0
C874 C 0.76487 0.2247 0.27615 0.0
C875 C 0.74711 0.25541 0.24417 0.0
C876 C 0.77379 0.21597 0.30727 0.0
C877 C 0.77398 0.22778 0.33936 0.0
C878 C 0.75631 0.2455 0.27696 0.0
C879 C 0.76497 0.24838 0.33921 0.0
C880 C 0.74354 0.27757 0.24221 0.0
C881 C 0.73359 0.2512 0.18462 0.0
N882 N 0.75662 0.25665 0.30843 0.0
N883 N 0.74205 0.24297 0.21533 0.0
H884 H 0.74885 0.79847 0.32332 0.0
H885 H 0.75517 0.70573 0.17566 0.0
H886 H 0.78985 0.74319 0.33422 0.0
H887 H 0.70344 0.75154 0.18072 0.0
H888 H 0.76987 0.7207 0.23126 0.0
H889 H 0.73365 0.78294 0.2686 0.0
C890 C 0.75467 0.78307 0.31413 0.0
C891 C 0.77066 0.77212 0.3333 0.0
C892 C 0.75528 0.72744 0.22025 0.0
C893 C 0.75337 0.75424 0.27067 0.0
C894 C 0.74696 0.71899 0.1884 0.0
C895 C 0.72806 0.72741 0.17352 0.0
C896 C 0.74477 0.7446 0.23716 0.0
C897 C 0.71794 0.74444 0.19142 0.0
C898 C 0.74592 0.77416 0.28302 0.0
C899 C 0.77743 0.75209 0.32042 0.0
N900 N 0.72648 0.75254 0.22217 0.0
N901 N 0.76885 0.74386 0.28977 0.0
H902 H 0.22905 0.73882 0.35452 0.0
H903 H 0.28122 0.76234 0.16238 0.0
H904 H 0.23117 0.80181 0.30695 0.0
H905 H 0.26326 0.69895 0.19789 0.0
H906 H 0.26542 0.77718 0.21698 0.0
H907 H 0.24456 0.72397 0.29945 0.0
C908 C 0.23288 0.74953 0.33254 0.0
C909 C 0.22879 0.77157 0.33529 0.0
C910 C 0.26491 0.76002 0.21275 0.0
C911 C 0.2465 0.75471 0.27222 0.0
C912 C 0.27383 0.75152 0.18143 0.0
C913 C 0.27364 0.7293 0.17532 0.0
C914 C 0.25586 0.74625 0.23842 0.0
C915 C 0.26417 0.71612 0.20156 0.0
C916 C 0.2416 0.74103 0.30105 0.0
C917 C 0.23385 0.78469 0.30583 0.0
N918 N 0.25574 0.72478 0.23194 0.0
N919 N 0.24252 0.77607 0.27559 0.0
H920 H 0.26014 0.78597 0.66889 0.0
H921 H 0.24089 0.71668 0.84718 0.0
H922 H 0.19889 0.75841 0.69696 0.0
H923 H 0.30101 0.747 0.82023 0.0
H924 H 0.22508 0.73166 0.79251 0.0
H925 H 0.2753 0.77148 0.72414 0.0
C926 C 0.24982 0.77697 0.68676 0.0
C927 C 0.22815 0.77351 0.67824 0.0
C928 C 0.24173 0.73504 0.79859 0.0
C929 C 0.24555 0.75659 0.74163 0.0
C930 C 0.25074 0.7266 0.82993 0.0
C931 C 0.27236 0.73052 0.83835 0.0
C932 C 0.2544 0.74752 0.77544 0.0
C933 C 0.28439 0.74325 0.81464 0.0
C934 C 0.25853 0.76859 0.71828 0.0
C935 C 0.21572 0.76131 0.70219 0.0
N936 N 0.27527 0.75126 0.78434 0.0
N937 N 0.22458 0.75333 0.7328 0.0
H938 H 0.25305 0.25148 0.8584 0.0
H939 H 0.2591 0.24286 0.64524 0.0
H940 H 0.29061 0.29505 0.79418 0.0
H941 H 0.20476 0.22004 0.70635 0.0
H942 H 0.27366 0.25884 0.69994 0.0
H943 H 0.23818 0.23597 0.80324 0.0
C944 C 0.25821 0.2577 0.83266 0.0
C945 C 0.27302 0.27457 0.83076 0.0
C946 C 0.25853 0.25034 0.70124 0.0
C947 C 0.25623 0.2569 0.76772 0.0
C948 C 0.2501 0.24129 0.66996 0.0
C949 C 0.23059 0.22999 0.67091 0.0
C950 C 0.24758 0.24784 0.7339 0.0
C951 C 0.22002 0.22818 0.70418 0.0
C952 C 0.24965 0.24896 0.80125 0.0
C953 C 0.27907 0.28218 0.79676 0.0
N954 N 0.2287 0.2369 0.7343 0.0
N955 N 0.27076 0.2732 0.76654 0.0
H956 H 0.71862 0.23955 0.84645 0.0
H957 H 0.78747 0.26143 0.66836 0.0
H958 H 0.74557 0.30121 0.81963 0.0
H959 H 0.7595 0.20019 0.69493 0.0
H960 H 0.77187 0.27649 0.72308 0.0
H961 H 0.73318 0.22502 0.79067 0.0
C962 C 0.7275 0.25008 0.82876 0.0
C963 C 0.73085 0.27166 0.83784 0.0
C964 C 0.76913 0.25976 0.71692 0.0
C965 C 0.7478 0.25503 0.7739 0.0
C966 C 0.77793 0.25118 0.68554 0.0
C967 C 0.77487 0.22947 0.677 0.0
C968 C 0.75712 0.24658 0.73998 0.0
C969 C 0.76259 0.21691 0.70063 0.0
C970 C 0.73592 0.24174 0.79695 0.0
C971 C 0.74281 0.28442 0.81403 0.0
N972 N 0.7542 0.22564 0.73098 0.0
N973 N 0.75083 0.27592 0.78319 0.0
H974 H 0.75188 0.69676 0.81414 0.0
H975 H 0.77408 0.80217 0.70012 0.0
H976 H 0.72246 0.75755 0.83994 0.0
H977 H 0.77663 0.73908 0.65315 0.0
H978 H 0.75998 0.78647 0.7557 0.0
H979 H 0.7658 0.71241 0.75878 0.0
C980 C 0.7482 0.71334 0.80825 0.0
C981 C 0.73577 0.72574 0.83198 0.0
C982 C 0.76359 0.77609 0.73319 0.0
C983 C 0.75228 0.74387 0.76882 0.0
C984 C 0.7717 0.785 0.70161 0.0
C985 C 0.77648 0.77187 0.67209 0.0
C986 C 0.76061 0.75384 0.7355 0.0
C987 C 0.77299 0.74975 0.67526 0.0
C988 C 0.75628 0.72226 0.77664 0.0
C989 C 0.73219 0.74735 0.82302 0.0
N990 N 0.76541 0.74138 0.70653 0.0
N991 N 0.74045 0.75572 0.79227 0.0
loop_
_geom_bond_atom_site_label_1
_geom_bond_atom_site_label_2
_geom_bond_distance
_geom_bond_site_symmetry_2
_ccdc_geom_bond_type
Li0 N17 1.990 . S
Li0 O60 1.956 . S
Li0 O61 1.981 . S
Li0 O62 1.955 1_554 S
Li1 N25 1.991 . S
Li1 O60 1.960 1_556 S
Li1 O61 1.956 1_556 S
Li1 O63 1.971 . S
Li2 N47 1.991 . S
Li2 O60 1.976 . S
Li2 O62 1.956 1_554 S
Li2 O63 1.955 1_554 S
Li3 N53 1.990 . S
Li3 O61 1.950 1_556 S
Li3 O62 1.976 . S
Li3 O63 1.956 . S
C4 C6 1.348 . S
C4 C7 1.356 . S
C4 O60 1.325 . S
N5 C8 1.314 . S
N5 C9 1.279 . S
C6 C4 1.348 . S
C6 C8 1.353 . S
C6 H64 0.929 . S
C7 C4 1.356 . S
C7 C9 1.358 . S
C7 H65 0.930 . S
C8 N5 1.314 . S
C8 C6 1.353 . S
C8 H66 0.930 . S
C9 N5 1.279 . S
C9 C7 1.358 . S
C9 H67 0.930 . S
C10 C13 1.345 . S
C10 C14 1.358 1_554 S
C10 O61 1.325 . S
C11 N12 1.279 . S
C11 C14 1.358 . S
C11 H68 0.930 . S
N12 C11 1.279 . S
N12 C15 1.314 1_556 S
C13 C10 1.345 . S
C13 C15 1.353 . S
C13 H69 0.929 . S
C14 C10 1.358 1_556 S
C14 C11 1.358 . S
C14 H70 0.930 . S
C15 N12 1.314 1_554 S
C15 C13 1.353 . S
C15 H71 0.930 . S
C16 N17 1.314 . S
C16 C21 1.353 . S
C16 H22 0.930 . S
N17 Li0 1.990 . S
N17 C16 1.314 . S
N17 C19 1.279 . S
C18 C19 1.358 . S
C18 C20 1.356 . S
C18 H72 0.930 . S
C19 N17 1.279 . S
C19 C18 1.358 . S
C19 H23 0.930 . S
C20 C18 1.356 . S
C20 C21 1.348 . S
C21 C16 1.353 . S
C21 C20 1.348 . S
C21 H73 0.929 . S
H22 C16 0.930 . S
H23 C19 0.930 . S
C24 N25 1.314 . S
C24 C26 1.353 . S
C24 H30 0.930 . S
N25 Li1 1.991 . S
N25 C24 1.314 . S
N25 C28 1.279 1_556 S
C26 C24 1.353 . S
C26 C29 1.346 1_556 S
C26 H74 0.929 . S
C27 C28 1.358 . S
C27 C29 1.357 . S
C27 H75 0.930 . S
C28 N25 1.279 1_554 S
C28 C27 1.358 . S
C28 H31 0.930 . S
C29 C26 1.346 1_554 S
C29 C27 1.357 . S
H30 C24 0.930 . S
H31 C28 0.930 . S
C32 C34 1.345 1_554 S
C32 C35 1.358 . S
C32 O62 1.325 1_554 S
N33 C36 1.314 1_554 S
N33 C37 1.279 . S
C34 C32 1.345 1_556 S
C34 C36 1.353 . S
C34 H76 0.929 . S
C35 C32 1.358 . S
C35 C37 1.358 . S
C35 H77 0.930 . S
C36 N33 1.314 1_556 S
C36 C34 1.353 . S
C36 H78 0.930 . S
C37 N33 1.279 . S
C37 C35 1.358 . S
C37 H79 0.930 . S
C38 C39 1.348 . S
C38 C40 1.356 . S
C38 O63 1.325 . S
C39 C38 1.348 . S
C39 C41 1.353 . S
C39 H80 0.929 . S
C40 C38 1.356 . S
C40 C42 1.358 . S
C40 H81 0.930 . S
C41 C39 1.353 . S
C41 N43 1.314 . S
C41 H82 0.930 . S
C42 C40 1.358 . S
C42 N43 1.279 . S
C42 H83 0.930 . S
N43 C41 1.314 . S
N43 C42 1.279 . S
C44 C46 1.353 . S
C44 N47 1.314 . S
C44 H50 0.930 . S
C45 N47 1.279 1_556 S
C45 C48 1.358 . S
C45 H51 0.930 . S
C46 C44 1.353 . S
C46 C49 1.348 1_554 S
C46 H84 0.929 . S
N47 Li2 1.991 . S
N47 C44 1.314 . S
N47 C45 1.279 1_554 S
C48 C45 1.358 . S
C48 C49 1.356 . S
C48 H85 0.930 . S
C49 C46 1.348 1_556 S
C49 C48 1.356 . S
H50 C44 0.930 . S
H51 C45 0.930 . S
C52 N53 1.314 . S
C52 C54 1.353 . S
C52 H58 0.930 . S
N53 Li3 1.990 . S
N53 C52 1.314 . S
N53 C56 1.279 . S
C54 C52 1.353 . S
C54 C57 1.348 . S
C54 H86 0.929 . S
C55 C56 1.358 . S
C55 C57 1.356 . S
C55 H87 0.930 . S
C56 N53 1.279 . S
C56 C55 1.358 . S
C56 H59 0.930 . S
C57 C54 1.348 . S
C57 C55 1.356 . S
H58 C52 0.930 . S
H59 C56 0.930 . S
O60 Li0 1.956 . S
O60 Li1 1.960 1_554 S
O60 Li2 1.976 . S
O60 C4 1.325 . S
O61 Li0 1.981 . S
O61 Li1 1.956 1_554 S
O61 Li3 1.950 1_554 S
O61 C10 1.325 . S
O62 Li0 1.955 1_556 S
O62 Li2 1.956 1_556 S
O62 Li3 1.976 . S
O62 C32 1.325 1_556 S
O63 Li1 1.971 . S
O63 Li2 1.955 1_556 S
O63 Li3 1.956 . S
O63 C38 1.325 . S
H64 C6 0.929 . S
H65 C7 0.930 . S
H66 C8 0.930 . S
H67 C9 0.930 . S
H68 C11 0.930 . S
H69 C13 0.929 . S
H70 C14 0.930 . S
H71 C15 0.930 . S
H72 C18 0.930 . S
H73 C21 0.929 . S
H74 C26 0.929 . S
H75 C27 0.930 . S
H76 C34 0.929 . S
H77 C35 0.930 . S
H78 C36 0.930 . S
H79 C37 0.930 . S
H80 C39 0.929 . S
H81 C40 0.930 . S
H82 C41 0.930 . S
H83 C42 0.930 . S
H84 C46 0.929 . S
H85 C48 0.930 . S
H86 C54 0.929 . S
H87 C55 0.930 . S
Li88 N105 1.991 . S
Li88 O148 1.956 1_556 S
Li88 O149 1.960 1_556 S
Li88 O150 1.971 . S
Li89 N113 1.990 . S
Li89 O148 1.981 . S
Li89 O149 1.956 . S
Li89 O151 1.955 1_554 S
Li90 N135 1.990 . S
Li90 O148 1.950 1_556 S
Li90 O150 1.956 . S
Li90 O151 1.976 . S
Li91 N141 1.991 . S
Li91 O149 1.976 . S
Li91 O150 1.955 1_554 S
Li91 O151 1.956 1_554 S
C92 C94 1.345 . S
C92 C95 1.358 1_554 S
C92 O148 1.325 . S
N93 C96 1.314 1_556 S
N93 C97 1.279 . S
C94 C92 1.345 . S
C94 C96 1.353 . S
C94 H152 0.929 . S
C95 C92 1.358 1_556 S
C95 C97 1.358 . S
C95 H153 0.930 . S
C96 N93 1.314 1_554 S
C96 C94 1.353 . S
C96 H154 0.930 . S
C97 N93 1.279 . S
C97 C95 1.358 . S
C97 H155 0.930 . S
C98 C101 1.348 . S
C98 C102 1.356 . S
C98 O149 1.325 . S
C99 N100 1.279 . S
C99 C102 1.358 . S
C99 H156 0.930 . S
N100 C99 1.279 . S
N100 C103 1.314 . S
C101 C98 1.348 . S
C101 C103 1.353 . S
C101 H157 0.929 . S
C102 C98 1.356 . S
C102 C99 1.358 . S
C102 H158 0.930 . S
C103 N100 1.314 . S
C103 C101 1.353 . S
C103 H159 0.930 . S
C104 N105 1.314 . S
C104 C109 1.353 . S
C104 H110 0.930 . S
N105 Li88 1.991 . S
N105 C104 1.314 . S
N105 C107 1.279 1_556 S
C106 C107 1.358 . S
C106 C108 1.357 . S
C106 H160 0.930 . S
C107 N105 1.279 1_554 S
C107 C106 1.358 . S
C107 H111 0.930 . S
C108 C106 1.357 . S
C108 C109 1.346 1_554 S
C109 C104 1.353 . S
C109 C108 1.346 1_556 S
C109 H161 0.929 . S
H110 C104 0.930 . S
H111 C107 0.930 . S
C112 N113 1.314 . S
C112 C114 1.353 . S
C112 H118 0.930 . S
N113 Li89 1.990 . S
N113 C112 1.314 . S
N113 C116 1.279 . S
C114 C112 1.353 . S
C114 C117 1.348 . S
C114 H162 0.929 . S
C115 C116 1.358 . S
C115 C117 1.356 . S
C115 H163 0.930 . S
C116 N113 1.279 . S
C116 C115 1.358 . S
C116 H119 0.930 . S
C117 C114 1.348 . S
C117 C115 1.356 . S
H118 C112 0.930 . S
H119 C116 0.930 . S
C120 C122 1.348 . S
C120 C123 1.356 . S
C120 O150 1.325 . S
N121 C124 1.314 . S
N121 C125 1.279 . S
C122 C120 1.348 . S
C122 C124 1.353 . S
C122 H164 0.929 . S
C123 C120 1.356 . S
C123 C125 1.358 . S
C123 H165 0.930 . S
C124 N121 1.314 . S
C124 C122 1.353 . S
C124 H166 0.930 . S
C125 N121 1.279 . S
C125 C123 1.358 . S
C125 H167 0.930 . S
C126 C127 1.345 1_554 S
C126 C128 1.358 . S
C126 O151 1.325 1_554 S
C127 C126 1.345 1_556 S
C127 C129 1.353 . S
C127 H168 0.929 . S
C128 C126 1.358 . S
C128 C130 1.358 . S
C128 H169 0.930 . S
C129 C127 1.353 . S
C129 N131 1.314 1_556 S
C129 H170 0.930 . S
C130 C128 1.358 . S
C130 N131 1.279 . S
C130 H171 0.930 . S
N131 C129 1.314 1_554 S
N131 C130 1.279 . S
C132 C134 1.353 . S
C132 N135 1.314 . S
C132 H138 0.930 . S
C133 N135 1.279 . S
C133 C136 1.358 . S
C133 H139 0.930 . S
C134 C132 1.353 . S
C134 C137 1.348 . S
C134 H172 0.929 . S
N135 Li90 1.990 . S
N135 C132 1.314 . S
N135 C133 1.279 . S
C136 C133 1.358 . S
C136 C137 1.356 . S
C136 H173 0.930 . S
C137 C134 1.348 . S
C137 C136 1.356 . S
H138 C132 0.930 . S
H139 C133 0.930 . S
C140 N141 1.314 . S
C140 C142 1.353 . S
C140 H146 0.930 . S
N141 Li91 1.991 . S
N141 C140 1.314 . S
N141 C144 1.279 1_554 S
C142 C140 1.353 . S
C142 C145 1.348 1_554 S
C142 H174 0.929 . S
C143 C144 1.358 . S
C143 C145 1.356 . S
C143 H175 0.930 . S
C144 N141 1.279 1_556 S
C144 C143 1.358 . S
C144 H147 0.930 . S
C145 C142 1.348 1_556 S
C145 C143 1.356 . S
H146 C140 0.930 . S
H147 C144 0.930 . S
O148 Li88 1.956 1_554 S
O148 Li89 1.981 . S
O148 Li90 1.950 1_554 S
O148 C92 1.325 . S
O149 Li88 1.960 1_554 S
O149 Li89 1.956 . S
O149 Li91 1.976 . S
O149 C98 1.325 . S
O150 Li88 1.971 . S
O150 Li90 1.956 . S
O150 Li91 1.955 1_556 S
O150 C120 1.325 . S
O151 Li89 1.955 1_556 S
O151 Li90 1.976 . S
O151 Li91 1.956 1_556 S
O151 C126 1.325 1_556 S
H152 C94 0.929 . S
H153 C95 0.930 . S
H154 C96 0.930 . S
H155 C97 0.930 . S
H156 C99 0.930 . S
H157 C101 0.929 . S
H158 C102 0.930 . S
H159 C103 0.930 . S
H160 C106 0.930 . S
H161 C109 0.929 . S
H162 C114 0.929 . S
H163 C115 0.930 . S
H164 C122 0.929 . S
H165 C123 0.930 . S
H166 C124 0.930 . S
H167 C125 0.930 . S
H168 C127 0.929 . S
H169 C128 0.930 . S
H170 C129 0.930 . S
H171 C130 0.930 . S
H172 C134 0.929 . S
H173 C136 0.930 . S
H174 C142 0.929 . S
H175 C143 0.930 . S
Li176 N193 1.991 . S
Li176 O236 1.956 1_556 S
Li176 O237 1.960 1_556 S
Li176 O238 1.971 . S
Li177 N201 1.990 . S
Li177 O236 1.981 . S
Li177 O237 1.956 . S
Li177 O239 1.955 1_554 S
Li178 N223 1.990 . S
Li178 O236 1.950 1_556 S
Li178 O238 1.956 . S
Li178 O239 1.976 . S
Li179 N229 1.991 . S
Li179 O237 1.976 . S
Li179 O238 1.955 1_554 S
Li179 O239 1.956 1_554 S
C180 C182 1.345 . S
C180 C183 1.358 1_554 S
C180 O236 1.325 . S
N181 C184 1.314 1_556 S
N181 C185 1.279 . S
C182 C180 1.345 . S
C182 C184 1.353 . S
C182 H240 0.929 . S
C183 C180 1.358 1_556 S
C183 C185 1.358 . S
C183 H241 0.930 . S
C184 N181 1.314 1_554 S
C184 C182 1.353 . S
C184 H242 0.930 . S
C185 N181 1.279 . S
C185 C183 1.358 . S
C185 H243 0.930 . S
C186 C189 1.348 . S
C186 C190 1.356 . S
C186 O237 1.325 . S
C187 N188 1.279 . S
C187 C190 1.358 . S
C187 H244 0.930 . S
N188 C187 1.279 . S
N188 C191 1.314 . S
C189 C186 1.348 . S
C189 C191 1.353 . S
C189 H245 0.929 . S
C190 C186 1.356 . S
C190 C187 1.358 . S
C190 H246 0.930 . S
C191 N188 1.314 . S
C191 C189 1.353 . S
C191 H247 0.930 . S
C192 N193 1.314 . S
C192 C197 1.353 . S
C192 H198 0.930 . S
N193 Li176 1.991 . S
N193 C192 1.314 . S
N193 C195 1.279 1_556 S
C194 C195 1.358 . S
C194 C196 1.357 . S
C194 H248 0.930 . S
C195 N193 1.279 1_554 S
C195 C194 1.358 . S
C195 H199 0.930 . S
C196 C194 1.357 . S
C196 C197 1.346 1_554 S
C197 C192 1.353 . S
C197 C196 1.346 1_556 S
C197 H249 0.929 . S
H198 C192 0.930 . S
H199 C195 0.930 . S
C200 N201 1.314 . S
C200 C202 1.353 . S
C200 H206 0.930 . S
N201 Li177 1.990 . S
N201 C200 1.314 . S
N201 C204 1.279 . S
C202 C200 1.353 . S
C202 C205 1.348 . S
C202 H250 0.929 . S
C203 C204 1.358 . S
C203 C205 1.356 . S
C203 H251 0.930 . S
C204 N201 1.279 . S
C204 C203 1.358 . S
C204 H207 0.930 . S
C205 C202 1.348 . S
C205 C203 1.356 . S
H206 C200 0.930 . S
H207 C204 0.930 . S
C208 C210 1.348 . S
C208 C211 1.356 . S
C208 O238 1.325 . S
N209 C212 1.314 . S
N209 C213 1.279 . S
C210 C208 1.348 . S
C210 C212 1.353 . S
C210 H252 0.929 . S
C211 C208 1.356 . S
C211 C213 1.358 . S
C211 H253 0.930 . S
C212 N209 1.314 . S
C212 C210 1.353 . S
C212 H254 0.930 . S
C213 N209 1.279 . S
C213 C211 1.358 . S
C213 H255 0.930 . S
C214 C215 1.345 1_554 S
C214 C216 1.358 . S
C214 O239 1.325 1_554 S
C215 C214 1.345 1_556 S
C215 C217 1.353 . S
C215 H256 0.929 . S
C216 C214 1.358 . S
C216 C218 1.358 . S
C216 H257 0.930 . S
C217 C215 1.353 . S
C217 N219 1.314 1_556 S
C217 H258 0.930 . S
C218 C216 1.358 . S
C218 N219 1.279 . S
C218 H259 0.930 . S
N219 C217 1.314 1_554 S
N219 C218 1.279 . S
C220 C222 1.353 . S
C220 N223 1.314 . S
C220 H226 0.930 . S
C221 N223 1.279 . S
C221 C224 1.358 . S
C221 H227 0.930 . S
C222 C220 1.353 . S
C222 C225 1.348 . S
C222 H260 0.929 . S
N223 Li178 1.990 . S
N223 C220 1.314 . S
N223 C221 1.279 . S
C224 C221 1.358 . S
C224 C225 1.356 . S
C224 H261 0.930 . S
C225 C222 1.348 . S
C225 C224 1.356 . S
H226 C220 0.930 . S
H227 C221 0.930 . S
C228 N229 1.314 . S
C228 C230 1.353 . S
C228 H234 0.930 . S
N229 Li179 1.991 . S
N229 C228 1.314 . S
N229 C232 1.279 1_554 S
C230 C228 1.353 . S
C230 C233 1.348 1_554 S
C230 H262 0.929 . S
C231 C232 1.358 . S
C231 C233 1.356 . S
C231 H263 0.930 . S
C232 N229 1.279 1_556 S
C232 C231 1.358 . S
C232 H235 0.930 . S
C233 C230 1.348 1_556 S
C233 C231 1.356 . S
H234 C228 0.930 . S
H235 C232 0.930 . S
O236 Li176 1.956 1_554 S
O236 Li177 1.981 . S
O236 Li178 1.950 1_554 S
O236 C180 1.325 . S
O237 Li176 1.960 1_554 S
O237 Li177 1.956 . S
O237 Li179 1.976 . S
O237 C186 1.325 . S
O238 Li176 1.971 . S
O238 Li178 1.956 . S
O238 Li179 1.955 1_556 S
O238 C208 1.325 . S
O239 Li177 1.955 1_556 S
O239 Li178 1.976 . S
O239 Li179 1.956 1_556 S
O239 C214 1.325 1_556 S
H240 C182 0.929 . S
H241 C183 0.930 . S
H242 C184 0.930 . S
H243 C185 0.930 . S
H244 C187 0.930 . S
H245 C189 0.929 . S
H246 C190 0.930 . S
H247 C191 0.930 . S
H248 C194 0.930 . S
H249 C197 0.929 . S
H250 C202 0.929 . S
H251 C203 0.930 . S
H252 C210 0.929 . S
H253 C211 0.930 . S
H254 C212 0.930 . S
H255 C213 0.930 . S
H256 C215 0.929 . S
H257 C216 0.930 . S
H258 C217 0.930 . S
H259 C218 0.930 . S
H260 C222 0.929 . S
H261 C224 0.930 . S
H262 C230 0.929 . S
H263 C231 0.930 . S
Li264 N281 1.991 . S
Li264 O324 1.956 1_556 S
Li264 O325 1.960 1_556 S
Li264 O326 1.971 . S
Li265 N289 1.990 . S
Li265 O324 1.981 . S
Li265 O325 1.956 . S
Li265 O327 1.955 1_554 S
Li266 N311 1.990 . S
Li266 O324 1.950 1_556 S
Li266 O326 1.956 . S
Li266 O327 1.976 . S
Li267 N317 1.991 . S
Li267 O325 1.976 . S
Li267 O326 1.955 1_554 S
Li267 O327 1.956 1_554 S
C268 C270 1.345 . S
C268 C271 1.358 1_554 S
C268 O324 1.325 . S
N269 C272 1.314 1_556 S
N269 C273 1.279 . S
C270 C268 1.345 . S
C270 C272 1.353 . S
C270 H328 0.929 . S
C271 C268 1.358 1_556 S
C271 C273 1.358 . S
C271 H329 0.930 . S
C272 N269 1.314 1_554 S
C272 C270 1.353 . S
C272 H330 0.930 . S
C273 N269 1.279 . S
C273 C271 1.358 . S
C273 H331 0.930 . S
C274 C277 1.348 . S
C274 C278 1.356 . S
C274 O325 1.325 . S
C275 N276 1.279 . S
C275 C278 1.358 . S
C275 H332 0.930 . S
N276 C275 1.279 . S
N276 C279 1.314 . S
C277 C274 1.348 . S
C277 C279 1.353 . S
C277 H333 0.929 . S
C278 C274 1.356 . S
C278 C275 1.358 . S
C278 H334 0.930 . S
C279 N276 1.314 . S
C279 C277 1.353 . S
C279 H335 0.930 . S
C280 N281 1.314 . S
C280 C285 1.353 . S
C280 H286 0.930 . S
N281 Li264 1.991 . S
N281 C280 1.314 . S
N281 C283 1.279 1_556 S
C282 C283 1.358 . S
C282 C284 1.357 . S
C282 H336 0.930 . S
C283 N281 1.279 1_554 S
C283 C282 1.358 . S
C283 H287 0.930 . S
C284 C282 1.357 . S
C284 C285 1.346 1_554 S
C285 C280 1.353 . S
C285 C284 1.346 1_556 S
C285 H337 0.929 . S
H286 C280 0.930 . S
H287 C283 0.930 . S
C288 N289 1.314 . S
C288 C290 1.353 . S
C288 H294 0.930 . S
N289 Li265 1.990 . S
N289 C288 1.314 . S
N289 C292 1.279 . S
C290 C288 1.353 . S
C290 C293 1.348 . S
C290 H338 0.929 . S
C291 C292 1.358 . S
C291 C293 1.356 . S
C291 H339 0.930 . S
C292 N289 1.279 . S
C292 C291 1.358 . S
C292 H295 0.930 . S
C293 C290 1.348 . S
C293 C291 1.356 . S
H294 C288 0.930 . S
H295 C292 0.930 . S
C296 C298 1.348 . S
C296 C299 1.356 . S
C296 O326 1.325 . S
N297 C300 1.314 . S
N297 C301 1.279 . S
C298 C296 1.348 . S
C298 C300 1.353 . S
C298 H340 0.929 . S
C299 C296 1.356 . S
C299 C301 1.358 . S
C299 H341 0.930 . S
C300 N297 1.314 . S
C300 C298 1.353 . S
C300 H342 0.930 . S
C301 N297 1.279 . S
C301 C299 1.358 . S
C301 H343 0.930 . S
C302 C303 1.345 1_554 S
C302 C304 1.358 . S
C302 O327 1.325 1_554 S
C303 C302 1.345 1_556 S
C303 C305 1.353 . S
C303 H344 0.929 . S
C304 C302 1.358 . S
C304 C306 1.358 . S
C304 H345 0.930 . S
C305 C303 1.353 . S
C305 N307 1.314 1_556 S
C305 H346 0.930 . S
C306 C304 1.358 . S
C306 N307 1.279 . S
C306 H347 0.930 . S
N307 C305 1.314 1_554 S
N307 C306 1.279 . S
C308 C310 1.353 . S
C308 N311 1.314 . S
C308 H314 0.930 . S
C309 N311 1.279 . S
C309 C312 1.358 . S
C309 H315 0.930 . S
C310 C308 1.353 . S
C310 C313 1.348 . S
C310 H348 0.929 . S
N311 Li266 1.990 . S
N311 C308 1.314 . S
N311 C309 1.279 . S
C312 C309 1.358 . S
C312 C313 1.356 . S
C312 H349 0.930 . S
C313 C310 1.348 . S
C313 C312 1.356 . S
H314 C308 0.930 . S
H315 C309 0.930 . S
C316 N317 1.314 . S
C316 C318 1.353 . S
C316 H322 0.930 . S
N317 Li267 1.991 . S
N317 C316 1.314 . S
N317 C320 1.279 1_554 S
C318 C316 1.353 . S
C318 C321 1.348 1_554 S
C318 H350 0.929 . S
C319 C320 1.358 . S
C319 C321 1.356 . S
C319 H351 0.930 . S
C320 N317 1.279 1_556 S
C320 C319 1.358 . S
C320 H323 0.930 . S
C321 C318 1.348 1_556 S
C321 C319 1.356 . S
H322 C316 0.930 . S
H323 C320 0.930 . S
O324 Li264 1.956 1_554 S
O324 Li265 1.981 . S
O324 Li266 1.950 1_554 S
O324 C268 1.325 . S
O325 Li264 1.960 1_554 S
O325 Li265 1.956 . S
O325 Li267 1.976 . S
O325 C274 1.325 . S
O326 Li264 1.971 . S
O326 Li266 1.956 . S
O326 Li267 1.955 1_556 S
O326 C296 1.325 . S
O327 Li265 1.955 1_556 S
O327 Li266 1.976 . S
O327 Li267 1.956 1_556 S
O327 C302 1.325 1_556 S
H328 C270 0.929 . S
H329 C271 0.930 . S
H330 C272 0.930 . S
H331 C273 0.930 . S
H332 C275 0.930 . S
H333 C277 0.929 . S
H334 C278 0.930 . S
H335 C279 0.930 . S
H336 C282 0.930 . S
H337 C285 0.929 . S
H338 C290 0.929 . S
H339 C291 0.930 . S
H340 C298 0.929 . S
H341 C299 0.930 . S
H342 C300 0.930 . S
H343 C301 0.930 . S
H344 C303 0.929 . S
H345 C304 0.930 . S
H346 C305 0.930 . S
H347 C306 0.930 . S
H348 C310 0.929 . S
H349 C312 0.930 . S
H350 C318 0.929 . S
H351 C319 0.930 . S
Li352 N369 1.990 . S
Li352 O412 1.956 . S
Li352 O413 1.970 . S
Li352 O414 1.961 . S
Li353 N377 1.990 . S
Li353 O412 1.970 . S
Li353 O413 1.956 . S
Li353 O415 1.961 . S
Li354 N399 1.990 . S
Li354 O412 1.961 . S
Li354 O414 1.956 . S
Li354 O415 1.970 . S
Li355 N405 1.990 . S
Li355 O413 1.961 . S
Li355 O414 1.970 . S
Li355 O415 1.956 . S
C356 C358 1.348 . S
C356 C359 1.356 . S
C356 O412 1.325 . S
N357 C360 1.314 . S
N357 C361 1.279 . S
C358 C356 1.348 . S
C358 C360 1.353 . S
C358 H416 0.929 . S
C359 C356 1.356 . S
C359 C361 1.358 . S
C359 H417 0.930 . S
C360 N357 1.314 . S
C360 C358 1.353 . S
C360 H418 0.930 . S
C361 N357 1.279 . S
C361 C359 1.358 . S
C361 H419 0.930 . S
C362 C365 1.348 . S
C362 C366 1.356 . S
C362 O413 1.325 . S
C363 N364 1.279 . S
C363 C366 1.358 . S
C363 H420 0.930 . S
N364 C363 1.279 . S
N364 C367 1.314 . S
C365 C362 1.348 . S
C365 C367 1.353 . S
C365 H421 0.929 . S
C366 C362 1.356 . S
C366 C363 1.358 . S
C366 H422 0.930 . S
C367 N364 1.314 . S
C367 C365 1.353 . S
C367 H423 0.930 . S
C368 N369 1.314 . S
C368 C373 1.353 . S
C368 H374 0.930 . S
N369 Li352 1.990 . S
N369 C368 1.314 . S
N369 C371 1.279 . S
C370 C371 1.358 . S
C370 C372 1.356 . S
C370 H424 0.930 . S
C371 N369 1.279 . S
C371 C370 1.358 . S
C371 H375 0.930 . S
C372 C370 1.356 . S
C372 C373 1.348 . S
C373 C368 1.353 . S
C373 C372 1.348 . S
C373 H425 0.929 . S
H374 C368 0.930 . S
H375 C371 0.930 . S
C376 N377 1.314 . S
C376 C378 1.353 . S
C376 H382 0.930 . S
N377 Li353 1.990 . S
N377 C376 1.314 . S
N377 C380 1.279 . S
C378 C376 1.353 . S
C378 C381 1.348 . S
C378 H426 0.929 . S
C379 C380 1.358 . S
C379 C381 1.356 . S
C379 H427 0.930 . S
C380 N377 1.279 . S
C380 C379 1.358 . S
C380 H383 0.930 . S
C381 C378 1.348 . S
C381 C379 1.356 . S
H382 C376 0.930 . S
H383 C380 0.930 . S
C384 C386 1.348 . S
C384 C387 1.356 . S
C384 O414 1.325 . S
N385 C388 1.314 . S
N385 C389 1.279 . S
C386 C384 1.348 . S
C386 C388 1.353 . S
C386 H428 0.929 . S
C387 C384 1.356 . S
C387 C389 1.358 . S
C387 H429 0.930 . S
C388 N385 1.314 . S
C388 C386 1.353 . S
C388 H430 0.930 . S
C389 N385 1.279 . S
C389 C387 1.358 . S
C389 H431 0.930 . S
C390 C391 1.348 . S
C390 C392 1.356 . S
C390 O415 1.325 . S
C391 C390 1.348 . S
C391 C393 1.353 . S
C391 H432 0.929 . S
C392 C390 1.356 . S
C392 C394 1.358 . S
C392 H433 0.930 . S
C393 C391 1.353 . S
C393 N395 1.314 . S
C393 H434 0.930 . S
C394 C392 1.358 . S
C394 N395 1.279 . S
C394 H435 0.930 . S
N395 C393 1.314 . S
N395 C394 1.279 . S
C396 C398 1.353 . S
C396 N399 1.314 . S
C396 H402 0.930 . S
C397 N399 1.279 . S
C397 C400 1.358 . S
C397 H403 0.930 . S
C398 C396 1.353 . S
C398 C401 1.348 . S
C398 H436 0.929 . S
N399 Li354 1.990 . S
N399 C396 1.314 . S
N399 C397 1.279 . S
C400 C397 1.358 . S
C400 C401 1.356 . S
C400 H437 0.930 . S
C401 C398 1.348 . S
C401 C400 1.356 . S
H402 C396 0.930 . S
H403 C397 0.930 . S
C404 N405 1.314 . S
C404 C406 1.353 . S
C404 H410 0.930 . S
N405 Li355 1.990 . S
N405 C404 1.314 . S
N405 C408 1.279 . S
C406 C404 1.353 . S
C406 C409 1.348 . S
C406 H438 0.929 . S
C407 C408 1.358 . S
C407 C409 1.356 . S
C407 H439 0.930 . S
C408 N405 1.279 . S
C408 C407 1.358 . S
C408 H411 0.930 . S
C409 C406 1.348 . S
C409 C407 1.356 . S
H410 C404 0.930 . S
H411 C408 0.930 . S
O412 Li352 1.956 . S
O412 Li353 1.970 . S
O412 Li354 1.961 . S
O412 C356 1.325 . S
O413 Li352 1.970 . S
O413 Li353 1.956 . S
O413 Li355 1.961 . S
O413 C362 1.325 . S
O414 Li352 1.961 . S
O414 Li354 1.956 . S
O414 Li355 1.970 . S
O414 C384 1.325 . S
O415 Li353 1.961 . S
O415 Li354 1.970 . S
O415 Li355 1.956 . S
O415 C390 1.325 . S
H416 C358 0.929 . S
H417 C359 0.930 . S
H418 C360 0.930 . S
H419 C361 0.930 . S
H420 C363 0.930 . S
H421 C365 0.929 . S
H422 C366 0.930 . S
H423 C367 0.930 . S
H424 C370 0.930 . S
H425 C373 0.929 . S
H426 C378 0.929 . S
H427 C379 0.930 . S
H428 C386 0.929 . S
H429 C387 0.930 . S
H430 C388 0.930 . S
H431 C389 0.930 . S
H432 C391 0.929 . S
H433 C392 0.930 . S
H434 C393 0.930 . S
H435 C394 0.930 . S
H436 C398 0.929 . S
H437 C400 0.930 . S
H438 C406 0.929 . S
H439 C407 0.930 . S
Li440 N457 1.990 . S
Li440 O500 1.956 . S
Li440 O501 1.970 . S
Li440 O502 1.961 . S
Li441 N465 1.990 . S
Li441 O500 1.970 . S
Li441 O501 1.956 . S
Li441 O503 1.961 . S
Li442 N487 1.990 . S
Li442 O500 1.961 . S
Li442 O502 1.956 . S
Li442 O503 1.970 . S
Li443 N493 1.990 . S
Li443 O501 1.961 . S
Li443 O502 1.970 . S
Li443 O503 1.956 . S
C444 C446 1.348 . S
C444 C447 1.356 . S
C444 O500 1.325 . S
N445 C448 1.314 . S
N445 C449 1.279 . S
C446 C444 1.348 . S
C446 C448 1.353 . S
C446 H504 0.929 . S
C447 C444 1.356 . S
C447 C449 1.358 . S
C447 H505 0.930 . S
C448 N445 1.314 . S
C448 C446 1.353 . S
C448 H506 0.930 . S
C449 N445 1.279 . S
C449 C447 1.358 . S
C449 H507 0.930 . S
C450 C453 1.348 . S
C450 C454 1.356 . S
C450 O501 1.325 . S
C451 N452 1.279 . S
C451 C454 1.358 . S
C451 H508 0.930 . S
N452 C451 1.279 . S
N452 C455 1.314 . S
C453 C450 1.348 . S
C453 C455 1.353 . S
C453 H509 0.929 . S
C454 C450 1.356 . S
C454 C451 1.358 . S
C454 H510 0.930 . S
C455 N452 1.314 . S
C455 C453 1.353 . S
C455 H511 0.930 . S
C456 N457 1.314 . S
C456 C461 1.353 . S
C456 H462 0.930 . S
N457 Li440 1.990 . S
N457 C456 1.314 . S
N457 C459 1.279 . S
C458 C459 1.358 . S
C458 C460 1.356 . S
C458 H512 0.930 . S
C459 N457 1.279 . S
C459 C458 1.358 . S
C459 H463 0.930 . S
C460 C458 1.356 . S
C460 C461 1.348 . S
C461 C456 1.353 . S
C461 C460 1.348 . S
C461 H513 0.929 . S
H462 C456 0.930 . S
H463 C459 0.930 . S
C464 N465 1.314 . S
C464 C466 1.353 . S
C464 H470 0.930 . S
N465 Li441 1.990 . S
N465 C464 1.314 . S
N465 C468 1.279 . S
C466 C464 1.353 . S
C466 C469 1.348 . S
C466 H514 0.929 . S
C467 C468 1.358 . S
C467 C469 1.356 . S
C467 H515 0.930 . S
C468 N465 1.279 . S
C468 C467 1.358 . S
C468 H471 0.930 . S
C469 C466 1.348 . S
C469 C467 1.356 . S
H470 C464 0.930 . S
H471 C468 0.930 . S
C472 C474 1.348 . S
C472 C475 1.356 . S
C472 O502 1.325 . S
N473 C476 1.314 . S
N473 C477 1.279 . S
C474 C472 1.348 . S
C474 C476 1.353 . S
C474 H516 0.929 . S
C475 C472 1.356 . S
C475 C477 1.358 . S
C475 H517 0.930 . S
C476 N473 1.314 . S
C476 C474 1.353 . S
C476 H518 0.930 . S
C477 N473 1.279 . S
C477 C475 1.358 . S
C477 H519 0.930 . S
C478 C479 1.348 . S
C478 C480 1.356 . S
C478 O503 1.325 . S
C479 C478 1.348 . S
C479 C481 1.353 . S
C479 H520 0.929 . S
C480 C478 1.356 . S
C480 C482 1.358 . S
C480 H521 0.930 . S
C481 C479 1.353 . S
C481 N483 1.314 . S
C481 H522 0.930 . S
C482 C480 1.358 . S
C482 N483 1.279 . S
C482 H523 0.930 . S
N483 C481 1.314 . S
N483 C482 1.279 . S
C484 C486 1.353 . S
C484 N487 1.314 . S
C484 H490 0.930 . S
C485 N487 1.279 . S
C485 C488 1.358 . S
C485 H491 0.930 . S
C486 C484 1.353 . S
C486 C489 1.348 . S
C486 H524 0.929 . S
N487 Li442 1.990 . S
N487 C484 1.314 . S
N487 C485 1.279 . S
C488 C485 1.358 . S
C488 C489 1.356 . S
C488 H525 0.930 . S
C489 C486 1.348 . S
C489 C488 1.356 . S
H490 C484 0.930 . S
H491 C485 0.930 . S
C492 N493 1.314 . S
C492 C494 1.353 . S
C492 H498 0.930 . S
N493 Li443 1.990 . S
N493 C492 1.314 . S
N493 C496 1.279 . S
C494 C492 1.353 . S
C494 C497 1.348 . S
C494 H526 0.929 . S
C495 C496 1.358 . S
C495 C497 1.356 . S
C495 H527 0.930 . S
C496 N493 1.279 . S
C496 C495 1.358 . S
C496 H499 0.930 . S
C497 C494 1.348 . S
C497 C495 1.356 . S
H498 C492 0.930 . S
H499 C496 0.930 . S
O500 Li440 1.956 . S
O500 Li441 1.970 . S
O500 Li442 1.961 . S
O500 C444 1.325 . S
O501 Li440 1.970 . S
O501 Li441 1.956 . S
O501 Li443 1.961 . S
O501 C450 1.325 . S
O502 Li440 1.961 . S
O502 Li442 1.956 . S
O502 Li443 1.970 . S
O502 C472 1.325 . S
O503 Li441 1.961 . S
O503 Li442 1.970 . S
O503 Li443 1.956 . S
O503 C478 1.325 . S
H504 C446 0.929 . S
H505 C447 0.930 . S
H506 C448 0.930 . S
H507 C449 0.930 . S
H508 C451 0.930 . S
H509 C453 0.929 . S
H510 C454 0.930 . S
H511 C455 0.930 . S
H512 C458 0.930 . S
H513 C461 0.929 . S
H514 C466 0.929 . S
H515 C467 0.930 . S
H516 C474 0.929 . S
H517 C475 0.930 . S
H518 C476 0.930 . S
H519 C477 0.930 . S
H520 C479 0.929 . S
H521 C480 0.930 . S
H522 C481 0.930 . S
H523 C482 0.930 . S
H524 C486 0.929 . S
H525 C488 0.930 . S
H526 C494 0.929 . S
H527 C495 0.930 . S
Li528 N545 1.990 . S
Li528 O588 1.956 . S
Li528 O589 1.970 . S
Li528 O590 1.961 . S
Li529 N553 1.990 . S
Li529 O588 1.970 . S
Li529 O589 1.956 . S
Li529 O591 1.961 . S
Li530 N575 1.990 . S
Li530 O588 1.961 . S
Li530 O590 1.956 . S
Li530 O591 1.970 . S
Li531 N581 1.990 . S
Li531 O589 1.961 . S
Li531 O590 1.970 . S
Li531 O591 1.956 . S
C532 C534 1.348 . S
C532 C535 1.356 . S
C532 O588 1.325 . S
N533 C536 1.314 . S
N533 C537 1.279 . S
C534 C532 1.348 . S
C534 C536 1.353 . S
C534 H592 0.929 . S
C535 C532 1.356 . S
C535 C537 1.358 . S
C535 H593 0.930 . S
C536 N533 1.314 . S
C536 C534 1.353 . S
C536 H594 0.930 . S
C537 N533 1.279 . S
C537 C535 1.358 . S
C537 H595 0.930 . S
C538 C541 1.348 . S
C538 C542 1.356 . S
C538 O589 1.325 . S
C539 N540 1.279 . S
C539 C542 1.358 . S
C539 H596 0.930 . S
N540 C539 1.279 . S
N540 C543 1.314 . S
C541 C538 1.348 . S
C541 C543 1.353 . S
C541 H597 0.929 . S
C542 C538 1.356 . S
C542 C539 1.358 . S
C542 H598 0.930 . S
C543 N540 1.314 . S
C543 C541 1.353 . S
C543 H599 0.930 . S
C544 N545 1.314 . S
C544 C549 1.353 . S
C544 H550 0.930 . S
N545 Li528 1.990 . S
N545 C544 1.314 . S
N545 C547 1.279 . S
C546 C547 1.358 . S
C546 C548 1.356 . S
C546 H600 0.930 . S
C547 N545 1.279 . S
C547 C546 1.358 . S
C547 H551 0.930 . S
C548 C546 1.356 . S
C548 C549 1.348 . S
C549 C544 1.353 . S
C549 C548 1.348 . S
C549 H601 0.929 . S
H550 C544 0.930 . S
H551 C547 0.930 . S
C552 N553 1.314 . S
C552 C554 1.353 . S
C552 H558 0.930 . S
N553 Li529 1.990 . S
N553 C552 1.314 . S
N553 C556 1.279 . S
C554 C552 1.353 . S
C554 C557 1.348 . S
C554 H602 0.929 . S
C555 C556 1.358 . S
C555 C557 1.356 . S
C555 H603 0.930 . S
C556 N553 1.279 . S
C556 C555 1.358 . S
C556 H559 0.930 . S
C557 C554 1.348 . S
C557 C555 1.356 . S
H558 C552 0.930 . S
H559 C556 0.930 . S
C560 C562 1.348 . S
C560 C563 1.356 . S
C560 O590 1.325 . S
N561 C564 1.314 . S
N561 C565 1.279 . S
C562 C560 1.348 . S
C562 C564 1.353 . S
C562 H604 0.929 . S
C563 C560 1.356 . S
C563 C565 1.358 . S
C563 H605 0.930 . S
C564 N561 1.314 . S
C564 C562 1.353 . S
C564 H606 0.930 . S
C565 N561 1.279 . S
C565 C563 1.358 . S
C565 H607 0.930 . S
C566 C567 1.348 . S
C566 C568 1.356 . S
C566 O591 1.325 . S
C567 C566 1.348 . S
C567 C569 1.353 . S
C567 H608 0.929 . S
C568 C566 1.356 . S
C568 C570 1.358 . S
C568 H609 0.930 . S
C569 C567 1.353 . S
C569 N571 1.314 . S
C569 H610 0.930 . S
C570 C568 1.358 . S
C570 N571 1.279 . S
C570 H611 0.930 . S
N571 C569 1.314 . S
N571 C570 1.279 . S
C572 C574 1.353 . S
C572 N575 1.314 . S
C572 H578 0.930 . S
C573 N575 1.279 . S
C573 C576 1.358 . S
C573 H579 0.930 . S
C574 C572 1.353 . S
C574 C577 1.348 . S
C574 H612 0.929 . S
N575 Li530 1.990 . S
N575 C572 1.314 . S
N575 C573 1.279 . S
C576 C573 1.358 . S
C576 C577 1.356 . S
C576 H613 0.930 . S
C577 C574 1.348 . S
C577 C576 1.356 . S
H578 C572 0.930 . S
H579 C573 0.930 . S
C580 N581 1.314 . S
C580 C582 1.353 . S
C580 H586 0.930 . S
N581 Li531 1.990 . S
N581 C580 1.314 . S
N581 C584 1.279 . S
C582 C580 1.353 . S
C582 C585 1.348 . S
C582 H614 0.929 . S
C583 C584 1.358 . S
C583 C585 1.356 . S
C583 H615 0.930 . S
C584 N581 1.279 . S
C584 C583 1.358 . S
C584 H587 0.930 . S
C585 C582 1.348 . S
C585 C583 1.356 . S
H586 C580 0.930 . S
H587 C584 0.930 . S
O588 Li528 1.956 . S
O588 Li529 1.970 . S
O588 Li530 1.961 . S
O588 C532 1.325 . S
O589 Li528 1.970 . S
O589 Li529 1.956 . S
O589 Li531 1.961 . S
O589 C538 1.325 . S
O590 Li528 1.961 . S
O590 Li530 1.956 . S
O590 Li531 1.970 . S
O590 C560 1.325 . S
O591 Li529 1.961 . S
O591 Li530 1.970 . S
O591 Li531 1.956 . S
O591 C566 1.325 . S
H592 C534 0.929 . S
H593 C535 0.930 . S
H594 C536 0.930 . S
H595 C537 0.930 . S
H596 C539 0.930 . S
H597 C541 0.929 . S
H598 C542 0.930 . S
H599 C543 0.930 . S
H600 C546 0.930 . S
H601 C549 0.929 . S
H602 C554 0.929 . S
H603 C555 0.930 . S
H604 C562 0.929 . S
H605 C563 0.930 . S
H606 C564 0.930 . S
H607 C565 0.930 . S
H608 C567 0.929 . S
H609 C568 0.930 . S
H610 C569 0.930 . S
H611 C570 0.930 . S
H612 C574 0.929 . S
H613 C576 0.930 . S
H614 C582 0.929 . S
H615 C583 0.930 . S
Li616 N633 1.990 . S
Li616 O676 1.956 . S
Li616 O677 1.970 . S
Li616 O678 1.961 . S
Li617 N641 1.990 . S
Li617 O676 1.970 . S
Li617 O677 1.956 . S
Li617 O679 1.961 . S
Li618 N663 1.990 . S
Li618 O676 1.961 . S
Li618 O678 1.956 . S
Li618 O679 1.970 . S
Li619 N669 1.990 . S
Li619 O677 1.961 . S
Li619 O678 1.970 . S
Li619 O679 1.956 . S
C620 C622 1.348 . S
C620 C623 1.356 . S
C620 O676 1.325 . S
N621 C624 1.314 . S
N621 C625 1.279 . S
C622 C620 1.348 . S
C622 C624 1.353 . S
C622 H680 0.929 . S
C623 C620 1.356 . S
C623 C625 1.358 . S
C623 H681 0.930 . S
C624 N621 1.314 . S
C624 C622 1.353 . S
C624 H682 0.930 . S
C625 N621 1.279 . S
C625 C623 1.358 . S
C625 H683 0.930 . S
C626 C629 1.348 . S
C626 C630 1.356 . S
C626 O677 1.325 . S
C627 N628 1.279 . S
C627 C630 1.358 . S
C627 H684 0.930 . S
N628 C627 1.279 . S
N628 C631 1.314 . S
C629 C626 1.348 . S
C629 C631 1.353 . S
C629 H685 0.929 . S
C630 C626 1.356 . S
C630 C627 1.358 . S
C630 H686 0.930 . S
C631 N628 1.314 . S
C631 C629 1.353 . S
C631 H687 0.930 . S
C632 N633 1.314 . S
C632 C637 1.353 . S
C632 H638 0.930 . S
N633 Li616 1.990 . S
N633 C632 1.314 . S
N633 C635 1.279 . S
C634 C635 1.358 . S
C634 C636 1.356 . S
C634 H688 0.930 . S
C635 N633 1.279 . S
C635 C634 1.358 . S
C635 H639 0.930 . S
C636 C634 1.356 . S
C636 C637 1.348 . S
C637 C632 1.353 . S
C637 C636 1.348 . S
C637 H689 0.929 . S
H638 C632 0.930 . S
H639 C635 0.930 . S
C640 N641 1.314 . S
C640 C642 1.353 . S
C640 H646 0.930 . S
N641 Li617 1.990 . S
N641 C640 1.314 . S
N641 C644 1.279 . S
C642 C640 1.353 . S
C642 C645 1.348 . S
C642 H690 0.929 . S
C643 C644 1.358 . S
C643 C645 1.356 . S
C643 H691 0.930 . S
C644 N641 1.279 . S
C644 C643 1.358 . S
C644 H647 0.930 . S
C645 C642 1.348 . S
C645 C643 1.356 . S
H646 C640 0.930 . S
H647 C644 0.930 . S
C648 C650 1.348 . S
C648 C651 1.356 . S
C648 O678 1.325 . S
N649 C652 1.314 . S
N649 C653 1.279 . S
C650 C648 1.348 . S
C650 C652 1.353 . S
C650 H692 0.929 . S
C651 C648 1.356 . S
C651 C653 1.358 . S
C651 H693 0.930 . S
C652 N649 1.314 . S
C652 C650 1.353 . S
C652 H694 0.930 . S
C653 N649 1.279 . S
C653 C651 1.358 . S
C653 H695 0.930 . S
C654 C655 1.348 . S
C654 C656 1.356 . S
C654 O679 1.325 . S
C655 C654 1.348 . S
C655 C657 1.353 . S
C655 H696 0.929 . S
C656 C654 1.356 . S
C656 C658 1.358 . S
C656 H697 0.930 . S
C657 C655 1.353 . S
C657 N659 1.314 . S
C657 H698 0.930 . S
C658 C656 1.358 . S
C658 N659 1.279 . S
C658 H699 0.930 . S
N659 C657 1.314 . S
N659 C658 1.279 . S
C660 C662 1.353 . S
C660 N663 1.314 . S
C660 H666 0.930 . S
C661 N663 1.279 . S
C661 C664 1.358 . S
C661 H667 0.930 . S
C662 C660 1.353 . S
C662 C665 1.348 . S
C662 H700 0.929 . S
N663 Li618 1.990 . S
N663 C660 1.314 . S
N663 C661 1.279 . S
C664 C661 1.358 . S
C664 C665 1.356 . S
C664 H701 0.930 . S
C665 C662 1.348 . S
C665 C664 1.356 . S
H666 C660 0.930 . S
H667 C661 0.930 . S
C668 N669 1.314 . S
C668 C670 1.353 . S
C668 H674 0.930 . S
N669 Li619 1.990 . S
N669 C668 1.314 . S
N669 C672 1.279 . S
C670 C668 1.353 . S
C670 C673 1.348 . S
C670 H702 0.929 . S
C671 C672 1.358 . S
C671 C673 1.356 . S
C671 H703 0.930 . S
C672 N669 1.279 . S
C672 C671 1.358 . S
C672 H675 0.930 . S
C673 C670 1.348 . S
C673 C671 1.356 . S
H674 C668 0.930 . S
H675 C672 0.930 . S
O676 Li616 1.956 . S
O676 Li617 1.970 . S
O676 Li618 1.961 . S
O676 C620 1.325 . S
O677 Li616 1.970 . S
O677 Li617 1.956 . S
O677 Li619 1.961 . S
O677 C626 1.325 . S
O678 Li616 1.961 . S
O678 Li618 1.956 . S
O678 Li619 1.970 . S
O678 C648 1.325 . S
O679 Li617 1.961 . S
O679 Li618 1.970 . S
O679 Li619 1.956 . S
O679 C654 1.325 . S
H680 C622 0.929 . S
H681 C623 0.930 . S
H682 C624 0.930 . S
H683 C625 0.930 . S
H684 C627 0.930 . S
H685 C629 0.929 . S
H686 C630 0.930 . S
H687 C631 0.930 . S
H688 C634 0.930 . S
H689 C637 0.929 . S
H690 C642 0.929 . S
H691 C643 0.930 . S
H692 C650 0.929 . S
H693 C651 0.930 . S
H694 C652 0.930 . S
H695 C653 0.930 . S
H696 C655 0.929 . S
H697 C656 0.930 . S
H698 C657 0.930 . S
H699 C658 0.930 . S
H700 C662 0.929 . S
H701 C664 0.930 . S
H702 C670 0.929 . S
H703 C671 0.930 . S
H704 C710 0.930 . S
H705 C714 0.930 . S
H706 C719 0.929 . S
H707 C717 0.929 . S
H708 C712 0.929 . S
H709 C718 0.929 . S
C710 H704 0.930 . S
C710 C711 1.371 . S
C710 C718 1.378 . S
C711 C710 1.371 . S
C711 C719 1.429 1_554 S
C712 H708 0.929 . S
C712 C714 1.378 . S
C712 C716 1.370 . S
C713 C716 1.461 1_554 S
C713 C718 1.375 . S
C713 N721 1.402 1_554 S
C714 H705 0.930 . S
C714 C712 1.378 . S
C714 C715 1.365 . S
C715 C714 1.365 . S
C715 C717 1.435 1_556 S
C716 C712 1.370 . S
C716 C713 1.461 1_556 S
C716 N720 1.407 1_556 S
C717 H707 0.929 . S
C717 C715 1.435 1_554 S
C717 N720 1.384 . S
C718 H709 0.929 . S
C718 C710 1.378 . S
C718 C713 1.375 . S
C719 H706 0.929 . S
C719 C711 1.429 1_556 S
C719 N721 1.384 . S
N720 C716 1.407 1_554 S
N720 C717 1.384 . S
N721 C713 1.402 1_556 S
N721 C719 1.384 . S
H722 C728 0.930 . S
H723 C732 0.930 . S
H724 C737 0.929 . S
H725 C735 0.929 . S
H726 C730 0.929 . S
H727 C736 0.929 . S
C728 H722 0.930 . S
C728 C729 1.373 . S
C728 C736 1.378 . S
C729 C728 1.373 . S
C729 C737 1.427 1_554 S
C730 H726 0.929 . S
C730 C732 1.378 . S
C730 C734 1.352 . S
C731 C734 1.462 1_554 S
C731 C736 1.354 . S
C731 N739 1.424 1_554 S
C732 H723 0.930 . S
C732 C730 1.378 . S
C732 C733 1.372 . S
C733 C732 1.372 . S
C733 C735 1.429 1_556 S
C734 C730 1.352 . S
C734 C731 1.462 1_556 S
C734 N738 1.425 1_556 S
C735 H725 0.929 . S
C735 C733 1.429 1_554 S
C735 N738 1.384 . S
C736 H727 0.929 . S
C736 C728 1.378 . S
C736 C731 1.354 . S
C737 H724 0.929 . S
C737 C729 1.427 1_556 S
C737 N739 1.384 . S
N738 C734 1.425 1_554 S
N738 C735 1.384 . S
N739 C731 1.424 1_556 S
N739 C737 1.384 . S
H740 C746 0.930 . S
H741 C750 0.930 . S
H742 C755 0.929 . S
H743 C753 0.929 . S
H744 C748 0.929 . S
H745 C754 0.929 . S
C746 H740 0.930 . S
C746 C747 1.365 1_556 S
C746 C754 1.378 . S
C747 C746 1.365 1_554 S
C747 C755 1.435 . S
C748 H744 0.929 . S
C748 C750 1.378 . S
C748 C752 1.360 . S
C749 C752 1.462 1_556 S
C749 C754 1.356 . S
C749 N757 1.421 1_556 S
C750 H741 0.930 . S
C750 C748 1.378 . S
C750 C751 1.365 . S
C751 C750 1.365 . S
C751 C753 1.435 1_554 S
C752 C748 1.360 . S
C752 C749 1.462 1_554 S
C752 N756 1.417 1_554 S
C753 H743 0.929 . S
C753 C751 1.435 1_556 S
C753 N756 1.384 . S
C754 H745 0.929 . S
C754 C746 1.378 . S
C754 C749 1.356 . S
C755 H742 0.929 . S
C755 C747 1.435 . S
C755 N757 1.384 . S
N756 C752 1.417 1_556 S
N756 C753 1.384 . S
N757 C749 1.421 1_554 S
N757 C755 1.384 . S
H758 C764 0.930 . S
H759 C768 0.930 . S
H760 C773 0.929 . S
H761 C771 0.929 . S
H762 C766 0.929 . S
H763 C772 0.929 . S
C764 H758 0.930 . S
C764 C765 1.366 1_554 S
C764 C772 1.378 . S
C765 C764 1.366 1_556 S
C765 C773 1.434 . S
C766 H762 0.929 . S
C766 C768 1.378 . S
C766 C770 1.350 . S
C767 C770 1.462 1_554 S
C767 C772 1.352 . S
C767 N775 1.425 1_554 S
C768 H759 0.930 . S
C768 C766 1.378 . S
C768 C769 1.364 1_556 S
C769 C768 1.364 1_554 S
C769 C771 1.436 . S
C770 C766 1.350 . S
C770 C767 1.462 1_556 S
C770 N774 1.427 1_556 S
C771 H761 0.929 . S
C771 C769 1.436 . S
C771 N774 1.384 . S
C772 H763 0.929 . S
C772 C764 1.378 . S
C772 C767 1.352 . S
C773 H760 0.929 . S
C773 C765 1.434 . S
C773 N775 1.384 . S
N774 C770 1.427 1_554 S
N774 C771 1.384 . S
N775 C767 1.425 1_556 S
N775 C773 1.384 . S
H776 C782 0.930 . S
H777 C786 0.930 . S
H778 C791 0.929 . S
H779 C789 0.929 . S
H780 C784 0.929 . S
H781 C790 0.929 . S
C782 H776 0.930 . S
C782 C783 1.367 . S
C782 C790 1.378 . S
C783 C782 1.367 . S
C783 C791 1.433 . S
C784 H780 0.929 . S
C784 C786 1.378 . S
C784 C788 1.350 . S
C785 C788 1.463 1_565 S
C785 C790 1.350 . S
C785 N793 1.427 . S
C786 H777 0.930 . S
C786 C784 1.378 . S
C786 C787 1.367 . S
C787 C786 1.367 . S
C787 C789 1.433 . S
C788 C784 1.350 . S
C788 C785 1.463 1_545 S
C788 N792 1.427 . S
C789 H779 0.929 . S
C789 C787 1.433 . S
C789 N792 1.384 . S
C790 H781 0.929 . S
C790 C782 1.378 . S
C790 C785 1.350 . S
C791 H778 0.929 . S
C791 C783 1.433 . S
C791 N793 1.384 . S
N792 C788 1.427 . S
N792 C789 1.384 . S
N793 C785 1.427 . S
N793 C791 1.384 . S
H794 C800 0.930 . S
H795 C804 0.930 . S
H796 C809 0.929 . S
H797 C807 0.929 . S
H798 C802 0.929 . S
H799 C808 0.929 . S
C800 H794 0.930 . S
C800 C801 1.367 . S
C800 C808 1.378 . S
C801 C800 1.367 . S
C801 C809 1.433 . S
C802 H798 0.929 . S
C802 C804 1.378 . S
C802 C806 1.350 . S
C803 C806 1.463 1_455 S
C803 C808 1.350 . S
C803 N811 1.427 . S
C804 H795 0.930 . S
C804 C802 1.378 . S
C804 C805 1.367 . S
C805 C804 1.367 . S
C805 C807 1.433 . S
C806 C802 1.350 . S
C806 C803 1.463 1_655 S
C806 N810 1.427 . S
C807 H797 0.929 . S
C807 C805 1.433 . S
C807 N810 1.384 . S
C808 H799 0.929 . S
C808 C800 1.378 . S
C808 C803 1.350 . S
C809 H796 0.929 . S
C809 C801 1.433 . S
C809 N811 1.384 . S
N810 C806 1.427 . S
N810 C807 1.384 . S
N811 C803 1.427 . S
N811 C809 1.384 . S
H812 C818 0.930 . S
H813 C822 0.930 . S
H814 C827 0.929 . S
H815 C825 0.929 . S
H816 C820 0.929 . S
H817 C826 0.929 . S
C818 H812 0.930 . S
C818 C819 1.367 . S
C818 C826 1.378 . S
C819 C818 1.367 . S
C819 C827 1.433 . S
C820 H816 0.929 . S
C820 C822 1.378 . S
C820 C824 1.350 . S
C821 C824 1.463 1_545 S
C821 C826 1.350 . S
C821 N829 1.427 . S
C822 H813 0.930 . S
C822 C820 1.378 . S
C822 C823 1.367 . S
C823 C822 1.367 . S
C823 C825 1.433 . S
C824 C820 1.350 . S
C824 C821 1.463 1_565 S
C824 N828 1.427 . S
C825 H815 0.929 . S
C825 C823 1.433 . S
C825 N828 1.384 . S
C826 H817 0.929 . S
C826 C818 1.378 . S
C826 C821 1.350 . S
C827 H814 0.929 . S
C827 C819 1.433 . S
C827 N829 1.384 . S
N828 C824 1.427 . S
N828 C825 1.384 . S
N829 C821 1.427 . S
N829 C827 1.384 . S
H830 C836 0.930 . S
H831 C840 0.930 . S
H832 C845 0.929 . S
H833 C843 0.929 . S
H834 C838 0.929 . S
H835 C844 0.929 . S
C836 H830 0.930 . S
C836 C837 1.367 . S
C836 C844 1.378 . S
C837 C836 1.367 . S
C837 C845 1.433 . S
C838 H834 0.929 . S
C838 C840 1.378 . S
C838 C842 1.350 . S
C839 C842 1.463 1_655 S
C839 C844 1.350 . S
C839 N847 1.427 . S
C840 H831 0.930 . S
C840 C838 1.378 . S
C840 C841 1.367 . S
C841 C840 1.367 . S
C841 C843 1.433 . S
C842 C838 1.350 . S
C842 C839 1.463 1_455 S
C842 N846 1.427 . S
C843 H833 0.929 . S
C843 C841 1.433 . S
C843 N846 1.384 . S
C844 H835 0.929 . S
C844 C836 1.378 . S
C844 C839 1.350 . S
C845 H832 0.929 . S
C845 C837 1.433 . S
C845 N847 1.384 . S
N846 C842 1.427 . S
N846 C843 1.384 . S
N847 C839 1.427 . S
N847 C845 1.384 . S
H848 C854 0.930 . S
H849 C858 0.930 . S
H850 C863 0.929 . S
H851 C861 0.929 . S
H852 C856 0.929 . S
H853 C862 0.929 . S
C854 H848 0.930 . S
C854 C855 1.367 . S
C854 C862 1.378 . S
C855 C854 1.367 . S
C855 C863 1.433 . S
C856 H852 0.929 . S
C856 C858 1.378 . S
C856 C860 1.350 . S
C857 C860 1.463 . S
C857 C862 1.350 . S
C857 N865 1.427 . S
C858 H849 0.930 . S
C858 C856 1.378 . S
C858 C859 1.367 . S
C859 C858 1.367 . S
C859 C861 1.433 . S
C860 C856 1.350 . S
C860 C857 1.463 . S
C860 N864 1.427 . S
C861 H851 0.929 . S
C861 C859 1.433 . S
C861 N864 1.384 . S
C862 H853 0.929 . S
C862 C854 1.378 . S
C862 C857 1.350 . S
C863 H850 0.929 . S
C863 C855 1.433 . S
C863 N865 1.384 . S
N864 C860 1.427 . S
N864 C861 1.384 . S
N865 C857 1.427 . S
N865 C863 1.384 . S
H866 C872 0.930 . S
H867 C876 0.930 . S
H868 C881 0.929 . S
H869 C879 0.929 . S
H870 C874 0.929 . S
H871 C880 0.929 . S
C872 H866 0.930 . S
C872 C873 1.367 . S
C872 C880 1.378 . S
C873 C872 1.367 . S
C873 C881 1.433 . S
C874 H870 0.929 . S
C874 C876 1.378 . S
C874 C878 1.350 . S
C875 C878 1.463 . S
C875 C880 1.350 . S
C875 N883 1.427 . S
C876 H867 0.930 . S
C876 C874 1.378 . S
C876 C877 1.367 . S
C877 C876 1.367 . S
C877 C879 1.433 . S
C878 C874 1.350 . S
C878 C875 1.463 . S
C878 N882 1.427 . S
C879 H869 0.929 . S
C879 C877 1.433 . S
C879 N882 1.384 . S
C880 H871 0.929 . S
C880 C872 1.378 . S
C880 C875 1.350 . S
C881 H868 0.929 . S
C881 C873 1.433 . S
C881 N883 1.384 . S
N882 C878 1.427 . S
N882 C879 1.384 . S
N883 C875 1.427 . S
N883 C881 1.384 . S
H884 C890 0.930 . S
H885 C894 0.930 . S
H886 C899 0.929 . S
H887 C897 0.929 . S
H888 C892 0.929 . S
H889 C898 0.929 . S
C890 H884 0.930 . S
C890 C891 1.367 . S
C890 C898 1.378 . S
C891 C890 1.367 . S
C891 C899 1.433 . S
C892 H888 0.929 . S
C892 C894 1.378 . S
C892 C896 1.350 . S
C893 C896 1.463 . S
C893 C898 1.350 . S
C893 N901 1.427 . S
C894 H885 0.930 . S
C894 C892 1.378 . S
C894 C895 1.367 . S
C895 C894 1.367 . S
C895 C897 1.433 . S
C896 C892 1.350 . S
C896 C893 1.463 . S
C896 N900 1.427 . S
C897 H887 0.929 . S
C897 C895 1.433 . S
C897 N900 1.384 . S
C898 H889 0.929 . S
C898 C890 1.378 . S
C898 C893 1.350 . S
C899 H886 0.929 . S
C899 C891 1.433 . S
C899 N901 1.384 . S
N900 C896 1.427 . S
N900 C897 1.384 . S
N901 C893 1.427 . S
N901 C899 1.384 . S
H902 C908 0.930 . S
H903 C912 0.930 . S
H904 C917 0.929 . S
H905 C915 0.929 . S
H906 C910 0.929 . S
H907 C916 0.929 . S
C908 H902 0.930 . S
C908 C909 1.367 . S
C908 C916 1.378 . S
C909 C908 1.367 . S
C909 C917 1.433 . S
C910 H906 0.929 . S
C910 C912 1.378 . S
C910 C914 1.350 . S
C911 C914 1.463 . S
C911 C916 1.350 . S
C911 N919 1.427 . S
C912 H903 0.930 . S
C912 C910 1.378 . S
C912 C913 1.367 . S
C913 C912 1.367 . S
C913 C915 1.433 . S
C914 C910 1.350 . S
C914 C911 1.463 . S
C914 N918 1.427 . S
C915 H905 0.929 . S
C915 C913 1.433 . S
C915 N918 1.384 . S
C916 H907 0.929 . S
C916 C908 1.378 . S
C916 C911 1.350 . S
C917 H904 0.929 . S
C917 C909 1.433 . S
C917 N919 1.384 . S
N918 C914 1.427 . S
N918 C915 1.384 . S
N919 C911 1.427 . S
N919 C917 1.384 . S
H920 C926 0.930 . S
H921 C930 0.930 . S
H922 C935 0.929 . S
H923 C933 0.929 . S
H924 C928 0.929 . S
H925 C934 0.929 . S
C926 H920 0.930 . S
C926 C927 1.367 . S
C926 C934 1.378 . S
C927 C926 1.367 . S
C927 C935 1.433 . S
C928 H924 0.929 . S
C928 C930 1.378 . S
C928 C932 1.350 . S
C929 C932 1.463 . S
C929 C934 1.350 . S
C929 N937 1.427 . S
C930 H921 0.930 . S
C930 C928 1.378 . S
C930 C931 1.367 . S
C931 C930 1.367 . S
C931 C933 1.433 . S
C932 C928 1.350 . S
C932 C929 1.463 . S
C932 N936 1.427 . S
C933 H923 0.929 . S
C933 C931 1.433 . S
C933 N936 1.384 . S
C934 H925 0.929 . S
C934 C926 1.378 . S
C934 C929 1.350 . S
C935 H922 0.929 . S
C935 C927 1.433 . S
C935 N937 1.384 . S
N936 C932 1.427 . S
N936 C933 1.384 . S
N937 C929 1.427 . S
N937 C935 1.384 . S
H938 C944 0.930 . S
H939 C948 0.930 . S
H940 C953 0.929 . S
H941 C951 0.929 . S
H942 C946 0.929 . S
H943 C952 0.929 . S
C944 H938 0.930 . S
C944 C945 1.367 . S
C944 C952 1.378 . S
C945 C944 1.367 . S
C945 C953 1.433 . S
C946 H942 0.929 . S
C946 C948 1.378 . S
C946 C950 1.350 . S
C947 C950 1.463 . S
C947 C952 1.350 . S
C947 N955 1.427 . S
C948 H939 0.930 . S
C948 C946 1.378 . S
C948 C949 1.367 . S
C949 C948 1.367 . S
C949 C951 1.433 . S
C950 C946 1.350 . S
C950 C947 1.463 . S
C950 N954 1.427 . S
C951 H941 0.929 . S
C951 C949 1.433 . S
C951 N954 1.384 . S
C952 H943 0.929 . S
C952 C944 1.378 . S
C952 C947 1.350 . S
C953 H940 0.929 . S
C953 C945 1.433 . S
C953 N955 1.384 . S
N954 C950 1.427 . S
N954 C951 1.384 . S
N955 C947 1.427 . S
N955 C953 1.384 . S
H956 C962 0.930 . S
H957 C966 0.930 . S
H958 C971 0.929 . S
H959 C969 0.929 . S
H960 C964 0.929 . S
H961 C970 0.929 . S
C962 H956 0.930 . S
C962 C963 1.367 . S
C962 C970 1.378 . S
C963 C962 1.367 . S
C963 C971 1.433 . S
C964 H960 0.929 . S
C964 C966 1.378 . S
C964 C968 1.350 . S
C965 C968 1.463 . S
C965 C970 1.350 . S
C965 N973 1.427 . S
C966 H957 0.930 . S
C966 C964 1.378 . S
C966 C967 1.367 . S
C967 C966 1.367 . S
C967 C969 1.433 . S
C968 C964 1.350 . S
C968 C965 1.463 . S
C968 N972 1.427 . S
C969 H959 0.929 . S
C969 C967 1.433 . S
C969 N972 1.384 . S
C970 H961 0.929 . S
C970 C962 1.378 . S
C970 C965 1.350 . S
C971 H958 0.929 . S
C971 C963 1.433 . S
C971 N973 1.384 . S
N972 C968 1.427 . S
N972 C969 1.384 . S
N973 C965 1.427 . S
N973 C971 1.384 . S
H974 C980 0.930 . S
H975 C984 0.930 . S
H976 C989 0.929 . S
H977 C987 0.929 . S
H978 C982 0.929 . S
H979 C988 0.929 . S
C980 H974 0.930 . S
C980 C981 1.367 . S
C980 C988 1.378 . S
C981 C980 1.367 . S
C981 C989 1.433 . S
C982 H978 0.929 . S
C982 C984 1.378 . S
C982 C986 1.350 . S
C983 C986 1.463 . S
C983 C988 1.350 . S
C983 N991 1.427 . S
C984 H975 0.930 . S
C984 C982 1.378 . S
C984 C985 1.367 . S
C985 C984 1.367 . S
C985 C987 1.433 . S
C986 C982 1.350 . S
C986 C983 1.463 . S
C986 N990 1.427 . S
C987 H977 0.929 . S
C987 C985 1.433 . S
C987 N990 1.384 . S
C988 H979 0.929 . S
C988 C980 1.378 . S
C988 C983 1.350 . S
C989 H976 0.929 . S
C989 C981 1.433 . S
C989 N991 1.384 . S
N990 C986 1.427 . S
N990 C987 1.384 . S
N991 C983 1.427 . S
N991 C989 1.384 . S
C711 C49 1.498 1_554 S
C715 C284 1.500 1_556 S
C729 C29 1.501 . S
C733 C145 1.497 . S
C747 C108 1.501 . S
C751 C233 1.497 1_554 S
C765 C321 1.501 . S
C769 C196 1.497 . S
C783 C401 1.501 . S
C787 C645 1.497 . S
C801 C497 1.498 . S
C805 C381 1.501 . S
C819 C577 1.498 . S
C823 C460 1.500 . S
C837 C665 1.498 . S
C841 C557 1.501 . S
C855 C585 1.350 . S
C859 C20 1.347 . S
C873 C117 1.346 . S
C877 C673 1.343 . S
C891 C409 1.349 . S
C895 C205 1.345 . S
C909 C489 1.349 . S
C913 C293 1.346 . S
C927 C469 1.349 . S
C931 C313 1.351 . S
C945 C57 1.350 . S
C949 C548 1.353 . S
C963 C137 1.348 . S
C967 C636 1.350 . S
C981 C225 1.346 . S
C985 C372 1.349 . S
