# Generated by pormake.
# Topology reo-e, (6)-cn, num edge types: 1
# Building blocks:
#     Node 0, Type 0, BuildingBlock: OJICUG_clean_sbu_0, # of connection points: 6
#     Node 1, Type 0, BuildingBlock: OJICUG_clean_sbu_0, # of connection points: 6
#     Node 2, Type 0, BuildingBlock: OJICUG_clean_sbu_0, # of connection points: 6
#     Node 3, Type 0, BuildingBlock: OJICUG_clean_sbu_0, # of connection points: 6
#     Node 4, Type 0, BuildingBlock: OJICUG_clean_sbu_0, # of connection points: 6
#     Node 5, Type 0, BuildingBlock: OJICUG_clean_sbu_0, # of connection points: 6
#     Node 6, Type 0, BuildingBlock: OJICUG_clean_sbu_0, # of connection points: 6
#     Node 7, Type 0, BuildingBlock: OJICUG_clean_sbu_0, # of connection points: 6
#     Node 8, Type 0, BuildingBlock: OJICUG_clean_sbu_0, # of connection points: 6
#     Node 9, Type 0, BuildingBlock: OJICUG_clean_sbu_0, # of connection points: 6
#     Node 10, Type 0, BuildingBlock: OJICUG_clean_sbu_0, # of connection points: 6
#     Node 11, Type 0, BuildingBlock: OJICUG_clean_sbu_0, # of connection points: 6
#     Edge 12, Type (0, 0), BuildingBlock: OJICUG_clean_linker_0, # of connection points: 2
#     Edge 13, Type (0, 0), BuildingBlock: OJICUG_clean_linker_0, # of connection points: 2
#     Edge 14, Type (0, 0), BuildingBlock: OJICUG_clean_linker_0, # of connection points: 2
#     Edge 15, Type (0, 0), BuildingBlock: OJICUG_clean_linker_0, # of connection points: 2
#     Edge 16, Type (0, 0), BuildingBlock: OJICUG_clean_linker_0, # of connection points: 2
#     Edge 17, Type (0, 0), BuildingBlock: OJICUG_clean_linker_0, # of connection points: 2
#     Edge 18, Type (0, 0), BuildingBlock: OJICUG_clean_linker_0, # of connection points: 2
#     Edge 19, Type (0, 0), BuildingBlock: OJICUG_clean_linker_0, # of connection points: 2
#     Edge 20, Type (0, 0), BuildingBlock: OJICUG_clean_linker_0, # of connection points: 2
#     Edge 21, Type (0, 0), BuildingBlock: OJICUG_clean_linker_0, # of connection points: 2
#     Edge 22, Type (0, 0), BuildingBlock: OJICUG_clean_linker_0, # of connection points: 2
#     Edge 23, Type (0, 0), BuildingBlock: OJICUG_clean_linker_0, # of connection points: 2
#     Edge 24, Type (0, 0), BuildingBlock: OJICUG_clean_linker_0, # of connection points: 2
#     Edge 25, Type (0, 0), BuildingBlock: OJICUG_clean_linker_0, # of connection points: 2
#     Edge 26, Type (0, 0), BuildingBlock: OJICUG_clean_linker_0, # of connection points: 2
#     Edge 27, Type (0, 0), BuildingBlock: OJICUG_clean_linker_0, # of connection points: 2
#     Edge 28, Type (0, 0), BuildingBlock: OJICUG_clean_linker_0, # of connection points: 2
#     Edge 29, Type (0, 0), BuildingBlock: OJICUG_clean_linker_0, # of connection points: 2
#     Edge 30, Type (0, 0), BuildingBlock: OJICUG_clean_linker_0, # of connection points: 2
#     Edge 31, Type (0, 0), BuildingBlock: OJICUG_clean_linker_0, # of connection points: 2
#     Edge 32, Type (0, 0), BuildingBlock: OJICUG_clean_linker_0, # of connection points: 2
#     Edge 33, Type (0, 0), BuildingBlock: OJICUG_clean_linker_0, # of connection points: 2
#     Edge 34, Type (0, 0), BuildingBlock: OJICUG_clean_linker_0, # of connection points: 2
#     Edge 35, Type (0, 0), BuildingBlock: OJICUG_clean_linker_0, # of connection points: 2
#     Edge 36, Type (0, 0), BuildingBlock: OJICUG_clean_linker_0, # of connection points: 2
#     Edge 37, Type (0, 0), BuildingBlock: OJICUG_clean_linker_0, # of connection points: 2
#     Edge 38, Type (0, 0), BuildingBlock: OJICUG_clean_linker_0, # of connection points: 2
#     Edge 39, Type (0, 0), BuildingBlock: OJICUG_clean_linker_0, # of connection points: 2
#     Edge 40, Type (0, 0), BuildingBlock: OJICUG_clean_linker_0, # of connection points: 2
#     Edge 41, Type (0, 0), BuildingBlock: OJICUG_clean_linker_0, # of connection points: 2
#     Edge 42, Type (0, 0), BuildingBlock: OJICUG_clean_linker_0, # of connection points: 2
#     Edge 43, Type (0, 0), BuildingBlock: OJICUG_clean_linker_0, # of connection points: 2
#     Edge 44, Type (0, 0), BuildingBlock: OJICUG_clean_linker_0, # of connection points: 2
#     Edge 45, Type (0, 0), BuildingBlock: OJICUG_clean_linker_0, # of connection points: 2
#     Edge 46, Type (0, 0), BuildingBlock: OJICUG_clean_linker_0, # of connection points: 2
#     Edge 47, Type (0, 0), BuildingBlock: OJICUG_clean_linker_0, # of connection points: 2
# Relax obj value: 0.131
# Max RMSD: 0.142
# Mean RMSD: 0.142
data_MOF--net-reo-e--node1-OJICUG_clean_sbu_0--edge1-OJICUG_clean_linker_0
_symmetry_space_group_name_H-M    P1
_symmetry_Int_Tables_number       1
_symmetry_cell_setting            triclinic
loop_
_symmetry_equiv_pos_as_xyz
'x, y, z'
_cell_length_a     30.318462
_cell_length_b     30.272308
_cell_length_c     30.285491
_cell_angle_alpha  89.997279
_cell_angle_beta   89.841444
_cell_angle_gamma 89.880631
loop_
_atom_site_label
_atom_site_type_symbol
_atom_site_fract_x
_atom_site_fract_y
_atom_site_fract_z
_atom_type_partial_charge
Sc0 Sc 0.17193 0.17213 0.4305 0.0
Sc1 Sc 0.2421 0.24336 0.48898 0.0
Sc2 Sc 0.17148 0.17232 0.54762 0.0
O3 O 0.19512 0.19588 0.48904 0.0
C4 C 0.08404 0.17757 0.48895 0.0
C5 C 0.18132 0.27486 0.40888 0.0
C6 C 0.18097 0.27508 0.56907 0.0
C7 C 0.27451 0.18257 0.40892 0.0
C8 C 0.17788 0.08453 0.48918 0.0
C9 C 0.27399 0.18275 0.5692 0.0
O10 O 0.10427 0.17631 0.45212 0.0
O11 O 0.20898 0.28185 0.43954 0.0
O12 O 0.16422 0.23728 0.57644 0.0
O13 O 0.23691 0.1655 0.40162 0.0
O14 O 0.17634 0.10462 0.52605 0.0
O15 O 0.28075 0.2105 0.53845 0.0
O16 O 0.17673 0.10455 0.45228 0.0
O17 O 0.28106 0.21046 0.43955 0.0
O18 O 0.23632 0.16575 0.57658 0.0
O19 O 0.16475 0.237 0.40155 0.0
O20 O 0.10392 0.17652 0.52588 0.0
O21 O 0.2088 0.28194 0.53839 0.0
Sc22 Sc 0.80485 0.17176 0.54654 0.0
Sc23 Sc 0.7345 0.24296 0.48787 0.0
Sc24 Sc 0.80547 0.17184 0.42942 0.0
O25 O 0.78165 0.19547 0.48795 0.0
C26 C 0.89281 0.17709 0.48823 0.0
C27 C 0.79514 0.27456 0.56794 0.0
C28 C 0.79568 0.27454 0.40781 0.0
C29 C 0.70224 0.18241 0.56809 0.0
C30 C 0.79903 0.08413 0.48792 0.0
C31 C 0.70294 0.18223 0.40774 0.0
O32 O 0.87254 0.17586 0.52504 0.0
O33 O 0.7675 0.28153 0.53724 0.0
O34 O 0.81265 0.23675 0.40057 0.0
O35 O 0.73986 0.16526 0.5754 0.0
O36 O 0.80064 0.10421 0.45106 0.0
O37 O 0.69599 0.20996 0.43849 0.0
O38 O 0.80018 0.10414 0.52482 0.0
O39 O 0.69563 0.21025 0.5374 0.0
O40 O 0.74071 0.16534 0.40035 0.0
O41 O 0.81179 0.23668 0.57538 0.0
O42 O 0.87297 0.17598 0.45128 0.0
O43 O 0.76769 0.28142 0.43836 0.0
Sc44 Sc 0.80395 0.80509 0.54632 0.0
Sc45 Sc 0.73375 0.73401 0.48769 0.0
Sc46 Sc 0.8045 0.80504 0.4292 0.0
O47 O 0.78078 0.78143 0.48773 0.0
C48 C 0.79812 0.89276 0.48773 0.0
C49 C 0.70135 0.7947 0.56783 0.0
C50 C 0.70201 0.79473 0.4075 0.0
C51 C 0.7944 0.70234 0.56782 0.0
C52 C 0.89189 0.79968 0.48795 0.0
C53 C 0.79495 0.70231 0.40763 0.0
O54 O 0.79924 0.8727 0.52462 0.0
O55 O 0.69479 0.76687 0.53714 0.0
O56 O 0.7397 0.81167 0.40015 0.0
O57 O 0.81103 0.74017 0.5752 0.0
O58 O 0.87203 0.80079 0.45101 0.0
O59 O 0.76706 0.69546 0.43826 0.0
O60 O 0.87164 0.80087 0.52477 0.0
O61 O 0.76677 0.69542 0.53713 0.0
O62 O 0.81176 0.74009 0.40033 0.0
O63 O 0.73895 0.81173 0.57516 0.0
O64 O 0.79964 0.8727 0.45085 0.0
O65 O 0.69518 0.76698 0.43824 0.0
Sc66 Sc 0.17104 0.80561 0.43028 0.0
Sc67 Sc 0.24126 0.73416 0.4888 0.0
Sc68 Sc 0.17051 0.80539 0.5474 0.0
O69 O 0.19422 0.78177 0.48883 0.0
C70 C 0.177 0.89316 0.489 0.0
C71 C 0.2736 0.79479 0.40867 0.0
C72 C 0.27305 0.79476 0.56896 0.0
C73 C 0.18049 0.70281 0.40874 0.0
C74 C 0.08312 0.80029 0.48867 0.0
C75 C 0.18014 0.70264 0.56892 0.0
O76 O 0.17583 0.87318 0.45208 0.0
O77 O 0.28016 0.76686 0.43929 0.0
O78 O 0.23533 0.81178 0.57637 0.0
O79 O 0.16395 0.74074 0.40134 0.0
O80 O 0.10298 0.80133 0.52561 0.0
O81 O 0.20804 0.69572 0.53829 0.0
O82 O 0.10336 0.80157 0.45185 0.0
O83 O 0.20812 0.69573 0.43943 0.0
O84 O 0.16329 0.74047 0.57622 0.0
O85 O 0.23601 0.81204 0.4014 0.0
O86 O 0.17538 0.87304 0.52584 0.0
O87 O 0.27989 0.76701 0.5382 0.0
Sc88 Sc 0.43016 0.17218 0.17224 0.0
Sc89 Sc 0.48879 0.24285 0.24291 0.0
Sc90 Sc 0.54715 0.17178 0.17179 0.0
O91 O 0.48871 0.19556 0.1956 0.0
C92 C 0.48853 0.08422 0.17774 0.0
C93 C 0.40872 0.18228 0.27503 0.0
C94 C 0.56894 0.18187 0.27437 0.0
C95 C 0.40862 0.27493 0.1825 0.0
C96 C 0.48855 0.1777 0.08428 0.0
C97 C 0.56881 0.27446 0.18178 0.0
O98 O 0.45173 0.10444 0.17662 0.0
O99 O 0.43944 0.20994 0.28178 0.0
O100 O 0.57617 0.16488 0.2366 0.0
O101 O 0.40134 0.23721 0.16553 0.0
O102 O 0.52542 0.17632 0.1042 0.0
O103 O 0.53815 0.28138 0.20966 0.0
O104 O 0.45174 0.17658 0.1045 0.0
O105 O 0.4393 0.28166 0.21019 0.0
O106 O 0.5761 0.23666 0.16486 0.0
O107 O 0.40134 0.16544 0.23728 0.0
O108 O 0.52541 0.10415 0.17635 0.0
O109 O 0.53829 0.20973 0.28131 0.0
Sc110 Sc 0.80485 0.54689 0.17104 0.0
Sc111 Sc 0.73437 0.48829 0.24224 0.0
Sc112 Sc 0.80519 0.42972 0.17108 0.0
O113 O 0.78151 0.4883 0.19474 0.0
C114 C 0.79906 0.48828 0.08342 0.0
C115 C 0.70221 0.56835 0.18149 0.0
C116 C 0.70268 0.40806 0.18161 0.0
C117 C 0.79499 0.56849 0.27374 0.0
C118 C 0.89264 0.48838 0.17648 0.0
C119 C 0.79545 0.40824 0.27383 0.0
O120 O 0.80028 0.52518 0.10347 0.0
O121 O 0.69553 0.53768 0.20935 0.0
O122 O 0.74039 0.40074 0.16454 0.0
O123 O 0.81176 0.57583 0.2359 0.0
O124 O 0.87271 0.45146 0.17528 0.0
O125 O 0.76761 0.43891 0.28076 0.0
O126 O 0.87249 0.52526 0.17525 0.0
O127 O 0.76728 0.53781 0.2807 0.0
O128 O 0.81223 0.40085 0.23598 0.0
O129 O 0.73989 0.57574 0.16447 0.0
O130 O 0.8005 0.45138 0.10347 0.0
O131 O 0.69585 0.43876 0.20944 0.0
Sc132 Sc 0.42936 0.8052 0.17201 0.0
Sc133 Sc 0.48797 0.73409 0.24255 0.0
Sc134 Sc 0.54635 0.8048 0.17136 0.0
O135 O 0.48789 0.7814 0.19526 0.0
C136 C 0.48761 0.7994 0.08395 0.0
C137 C 0.40778 0.70249 0.1821 0.0
C138 C 0.56793 0.70205 0.18138 0.0
C139 C 0.40788 0.79495 0.27477 0.0
C140 C 0.48799 0.89274 0.17753 0.0
C141 C 0.56815 0.79469 0.27397 0.0
O142 O 0.45083 0.8008 0.10422 0.0
O143 O 0.43852 0.69555 0.20972 0.0
O144 O 0.57516 0.73977 0.16434 0.0
O145 O 0.40057 0.81199 0.23708 0.0
O146 O 0.52479 0.87253 0.176 0.0
O147 O 0.53742 0.76704 0.28099 0.0
O148 O 0.4511 0.87282 0.17649 0.0
O149 O 0.43857 0.7671 0.28144 0.0
O150 O 0.57543 0.81149 0.23614 0.0
O151 O 0.40044 0.7403 0.16527 0.0
O152 O 0.52451 0.80044 0.10382 0.0
O153 O 0.53737 0.69533 0.20937 0.0
Sc154 Sc 0.17169 0.43018 0.1723 0.0
Sc155 Sc 0.2418 0.48886 0.24343 0.0
Sc156 Sc 0.17128 0.54735 0.17231 0.0
O157 O 0.19487 0.4888 0.19596 0.0
C158 C 0.1777 0.48879 0.08465 0.0
C159 C 0.27427 0.4087 0.1828 0.0
C160 C 0.27376 0.569 0.18269 0.0
C161 C 0.18107 0.4087 0.27504 0.0
C162 C 0.08383 0.48864 0.17761 0.0
C163 C 0.18057 0.56894 0.27499 0.0
O164 O 0.17647 0.45188 0.10469 0.0
O165 O 0.28078 0.43938 0.21065 0.0
O166 O 0.2361 0.57635 0.16571 0.0
O167 O 0.16453 0.40127 0.2372 0.0
O168 O 0.10375 0.52556 0.17647 0.0
O169 O 0.20843 0.53831 0.2819 0.0
O170 O 0.10401 0.45177 0.17648 0.0
O171 O 0.20867 0.43944 0.28198 0.0
O172 O 0.1639 0.57626 0.23719 0.0
O173 O 0.2367 0.40135 0.1657 0.0
O174 O 0.17624 0.52568 0.10472 0.0
O175 O 0.2805 0.5383 0.2105 0.0
Sc176 Sc 0.42874 0.80549 0.80494 0.0
Sc177 Sc 0.4872 0.73424 0.73408 0.0
Sc178 Sc 0.54573 0.80513 0.8046 0.0
O179 O 0.48722 0.78167 0.78125 0.0
C180 C 0.48733 0.89306 0.79889 0.0
C181 C 0.40707 0.79511 0.70236 0.0
C182 C 0.56725 0.79482 0.70185 0.0
C183 C 0.40712 0.70278 0.79519 0.0
C184 C 0.48727 0.79971 0.89251 0.0
C185 C 0.56734 0.70237 0.79462 0.0
O186 O 0.45045 0.87312 0.80023 0.0
O187 O 0.43773 0.76723 0.69553 0.0
O188 O 0.57456 0.8118 0.73955 0.0
O189 O 0.3998 0.74062 0.81199 0.0
O190 O 0.5241 0.80078 0.87232 0.0
O191 O 0.53665 0.69552 0.76697 0.0
O192 O 0.45041 0.80112 0.87256 0.0
O193 O 0.43782 0.69578 0.76737 0.0
O194 O 0.57463 0.74016 0.81143 0.0
O195 O 0.39981 0.81221 0.74007 0.0
O196 O 0.52413 0.87285 0.80012 0.0
O197 O 0.53659 0.76707 0.69517 0.0
Sc198 Sc 0.17105 0.43039 0.80572 0.0
Sc199 Sc 0.24161 0.48902 0.73462 0.0
Sc200 Sc 0.17072 0.54756 0.80573 0.0
O201 O 0.19441 0.48899 0.78207 0.0
C202 C 0.08327 0.48889 0.80023 0.0
C203 C 0.181 0.40885 0.70302 0.0
C204 C 0.1805 0.56905 0.703 0.0
C205 C 0.2737 0.40892 0.79536 0.0
C206 C 0.17684 0.48896 0.89337 0.0
C207 C 0.27323 0.56922 0.7953 0.0
O208 O 0.10342 0.45201 0.80144 0.0
O209 O 0.20872 0.43952 0.6961 0.0
O210 O 0.16367 0.57642 0.74083 0.0
O211 O 0.236 0.40153 0.81235 0.0
O212 O 0.17542 0.52587 0.87334 0.0
O213 O 0.28011 0.53852 0.76749 0.0
O214 O 0.17557 0.45207 0.87331 0.0
O215 O 0.28041 0.43961 0.76753 0.0
O216 O 0.2355 0.57656 0.8123 0.0
O217 O 0.1642 0.40149 0.74085 0.0
O218 O 0.1032 0.52581 0.80151 0.0
O219 O 0.2084 0.53841 0.6961 0.0
Sc220 Sc 0.42955 0.17249 0.80537 0.0
Sc221 Sc 0.48802 0.24332 0.73438 0.0
Sc222 Sc 0.54654 0.17205 0.80483 0.0
O223 O 0.48804 0.19591 0.78157 0.0
C224 C 0.48821 0.1778 0.89285 0.0
C225 C 0.408 0.27526 0.79552 0.0
C226 C 0.56818 0.27476 0.79494 0.0
C227 C 0.40786 0.18281 0.70276 0.0
C228 C 0.48787 0.08453 0.79915 0.0
C229 C 0.56808 0.18241 0.70211 0.0
O230 O 0.45133 0.17672 0.87295 0.0
O231 O 0.4386 0.28203 0.76758 0.0
O232 O 0.57552 0.2369 0.81166 0.0
O233 O 0.40054 0.16593 0.74055 0.0
O234 O 0.52476 0.10445 0.8003 0.0
O235 O 0.53746 0.21035 0.69549 0.0
O236 O 0.45107 0.10475 0.80063 0.0
O237 O 0.4386 0.21046 0.69582 0.0
O238 O 0.57534 0.16528 0.73977 0.0
O239 O 0.40075 0.23751 0.81248 0.0
O240 O 0.52501 0.17645 0.8726 0.0
O241 O 0.53744 0.28179 0.76736 0.0
Sc242 Sc 0.80423 0.54709 0.80449 0.0
Sc243 Sc 0.73384 0.48845 0.73363 0.0
Sc244 Sc 0.80465 0.42992 0.80443 0.0
O245 O 0.78096 0.48849 0.7809 0.0
C246 C 0.89209 0.48863 0.79897 0.0
C247 C 0.79452 0.56857 0.70179 0.0
C248 C 0.79498 0.40841 0.70177 0.0
C249 C 0.70162 0.56861 0.79436 0.0
C250 C 0.79841 0.48845 0.89213 0.0
C251 C 0.70213 0.40826 0.79442 0.0
O252 O 0.8719 0.5255 0.80019 0.0
O253 O 0.76682 0.5379 0.69499 0.0
O254 O 0.81183 0.40109 0.7395 0.0
O255 O 0.73927 0.57599 0.81125 0.0
O256 O 0.79988 0.45157 0.87205 0.0
O257 O 0.69527 0.43899 0.76668 0.0
O258 O 0.79956 0.52537 0.8721 0.0
O259 O 0.69497 0.53789 0.76659 0.0
O260 O 0.73986 0.40089 0.81121 0.0
O261 O 0.81126 0.57596 0.73955 0.0
O262 O 0.87217 0.45171 0.80009 0.0
O263 O 0.76706 0.43901 0.695 0.0
C264 C 0.1875 0.35426 0.38697 0.0
C265 C 0.17225 0.31145 0.37763 0.0
H266 H 0.20149 0.41875 0.3622 0.0
C267 C 0.15329 0.30314 0.33611 0.0
H268 H 0.20163 0.3621 0.41883 0.0
C269 C 0.15321 0.33584 0.30341 0.0
C270 C 0.17209 0.37744 0.31166 0.0
H271 H 0.14095 0.27062 0.32788 0.0
H272 H 0.14083 0.32756 0.27095 0.0
C273 C 0.18742 0.38683 0.3544 0.0
C274 C 0.59108 0.18884 0.35356 0.0
C275 C 0.60032 0.17309 0.31085 0.0
H276 H 0.6159 0.20336 0.41782 0.0
C277 C 0.64185 0.15396 0.30248 0.0
H278 H 0.55924 0.20316 0.36146 0.0
C279 C 0.67457 0.15409 0.33503 0.0
C280 C 0.66637 0.17335 0.37654 0.0
H281 H 0.65003 0.14129 0.27003 0.0
H282 H 0.70701 0.14149 0.32671 0.0
C283 C 0.62367 0.18897 0.38598 0.0
C284 C 0.78837 0.62297 0.38568 0.0
C285 C 0.80396 0.66568 0.37635 0.0
H286 H 0.77403 0.55859 0.3609 0.0
C287 C 0.82311 0.6739 0.3348 0.0
H288 H 0.77407 0.61519 0.41756 0.0
C289 C 0.82309 0.64122 0.30208 0.0
C290 C 0.80391 0.59973 0.31033 0.0
H291 H 0.83569 0.70634 0.32657 0.0
H292 H 0.83566 0.64943 0.2696 0.0
C293 C 0.78835 0.59042 0.3531 0.0
C294 C 0.3025 0.82336 0.33618 0.0
C295 C 0.31036 0.80348 0.37743 0.0
H296 H 0.32734 0.83665 0.27126 0.0
C297 C 0.35281 0.78713 0.3865 0.0
H298 H 0.27027 0.83654 0.32815 0.0
C299 C 0.38547 0.78721 0.35397 0.0
C300 C 0.37653 0.80364 0.31149 0.0
H301 H 0.36032 0.77222 0.41813 0.0
H302 H 0.41709 0.77235 0.36157 0.0
C303 C 0.33529 0.82344 0.30352 0.0
C304 C 0.1869 0.62331 0.59096 0.0
C305 C 0.1712 0.66605 0.60023 0.0
H306 H 0.20142 0.55895 0.61585 0.0
C307 C 0.152 0.67435 0.64176 0.0
H308 H 0.20123 0.61547 0.5591 0.0
C309 C 0.15211 0.64172 0.67453 0.0
C310 C 0.17143 0.60021 0.66635 0.0
H311 H 0.13933 0.70683 0.64994 0.0
H312 H 0.13952 0.65 0.707 0.0
C313 C 0.18701 0.59081 0.6236 0.0
C314 C 0.30253 0.15466 0.64191 0.0
C315 C 0.3106 0.17404 0.60044 0.0
H316 H 0.32712 0.14185 0.70691 0.0
C317 C 0.35314 0.18998 0.59111 0.0
H318 H 0.27022 0.14182 0.65015 0.0
C319 C 0.38569 0.19001 0.62358 0.0
C320 C 0.37655 0.17409 0.66624 0.0
H321 H 0.36081 0.2045 0.55932 0.0
H322 H 0.41738 0.20454 0.61576 0.0
C323 C 0.33521 0.15468 0.6745 0.0
C324 C 0.78835 0.38651 0.62246 0.0
C325 C 0.80401 0.37719 0.66511 0.0
H326 H 0.77399 0.36172 0.55812 0.0
C327 C 0.82331 0.33568 0.67325 0.0
H328 H 0.77394 0.41835 0.61474 0.0
C329 C 0.82333 0.30298 0.64056 0.0
C330 C 0.80406 0.3112 0.59915 0.0
H331 H 0.83596 0.32747 0.70564 0.0
H332 H 0.83601 0.27052 0.64872 0.0
C333 C 0.78838 0.35393 0.58989 0.0
C334 C 0.67246 0.8232 0.64037 0.0
C335 C 0.6646 0.80344 0.59909 0.0
H336 H 0.64768 0.83636 0.70536 0.0
C337 C 0.62217 0.7872 0.59003 0.0
H338 H 0.70467 0.8363 0.6484 0.0
C339 C 0.58956 0.78724 0.62261 0.0
C340 C 0.59852 0.80352 0.66512 0.0
H341 H 0.61466 0.77239 0.55837 0.0
H342 H 0.55797 0.77245 0.61502 0.0
C343 C 0.63973 0.82324 0.67308 0.0
C344 C 0.33616 0.15397 0.30371 0.0
C345 C 0.37741 0.17358 0.31173 0.0
H346 H 0.27116 0.14105 0.32831 0.0
C347 C 0.38637 0.18979 0.35427 0.0
H348 H 0.32821 0.1409 0.27141 0.0
C349 C 0.35373 0.18988 0.38682 0.0
C350 C 0.31126 0.17376 0.37769 0.0
H351 H 0.41799 0.20449 0.36191 0.0
H352 H 0.36124 0.20464 0.4185 0.0
C353 C 0.3034 0.15405 0.33639 0.0
C354 C 0.78888 0.38642 0.35321 0.0
C355 C 0.8045 0.37704 0.31047 0.0
H356 H 0.77458 0.3617 0.41767 0.0
C357 C 0.82381 0.33553 0.30227 0.0
H358 H 0.77447 0.41827 0.36097 0.0
C359 C 0.82388 0.30287 0.33501 0.0
C360 C 0.80464 0.31114 0.37653 0.0
H361 H 0.83643 0.32728 0.2698 0.0
H362 H 0.83654 0.2704 0.32681 0.0
C363 C 0.78895 0.35389 0.38582 0.0
C364 C 0.59026 0.78782 0.35319 0.0
C365 C 0.59948 0.80348 0.31045 0.0
H366 H 0.61507 0.77352 0.41752 0.0
C367 C 0.64092 0.82264 0.30209 0.0
H368 H 0.55849 0.77349 0.36108 0.0
C369 C 0.67359 0.82265 0.33468 0.0
C370 C 0.66544 0.80351 0.37624 0.0
H371 H 0.64907 0.83525 0.26962 0.0
H372 H 0.70597 0.83527 0.32637 0.0
C373 C 0.62281 0.78784 0.38566 0.0
C374 C 0.15252 0.67457 0.33597 0.0
C375 C 0.17145 0.66622 0.37752 0.0
H376 H 0.14018 0.65016 0.2708 0.0
C377 C 0.18672 0.62337 0.38691 0.0
H378 H 0.14017 0.70713 0.32771 0.0
C379 C 0.18671 0.59078 0.35436 0.0
C380 C 0.17144 0.60021 0.31159 0.0
H381 H 0.20081 0.61549 0.41879 0.0
H382 H 0.20081 0.55882 0.36219 0.0
C383 C 0.15252 0.64186 0.3033 0.0
C384 C 0.35225 0.78754 0.59081 0.0
C385 C 0.30966 0.80354 0.60013 0.0
H386 H 0.41658 0.77307 0.61543 0.0
C387 C 0.30159 0.82313 0.64151 0.0
H388 H 0.35992 0.77287 0.55907 0.0
C389 C 0.33432 0.82325 0.67406 0.0
C390 C 0.37572 0.80378 0.66582 0.0
H391 H 0.26925 0.83603 0.64974 0.0
H392 H 0.32623 0.83622 0.70642 0.0
C393 C 0.38485 0.78766 0.62322 0.0
C394 C 0.15277 0.30352 0.64188 0.0
C395 C 0.17199 0.31172 0.60035 0.0
H396 H 0.14018 0.32798 0.70707 0.0
C397 C 0.18767 0.35441 0.59106 0.0
H398 H 0.14013 0.2711 0.65008 0.0
C399 C 0.18772 0.38694 0.62366 0.0
C400 C 0.17208 0.37763 0.6664 0.0
H401 H 0.20203 0.36217 0.5592 0.0
H402 H 0.2021 0.41874 0.61589 0.0
C403 C 0.15281 0.33618 0.67461 0.0
C404 C 0.64064 0.15389 0.67333 0.0
C405 C 0.5994 0.17371 0.66538 0.0
H406 H 0.70563 0.14073 0.64865 0.0
C407 C 0.59043 0.1901 0.62289 0.0
H408 H 0.64861 0.1407 0.70559 0.0
C409 C 0.62305 0.19012 0.59032 0.0
C410 C 0.66551 0.17375 0.59937 0.0
H411 H 0.55881 0.20497 0.61532 0.0
H412 H 0.61552 0.205 0.55869 0.0
C413 C 0.67339 0.15391 0.64063 0.0
C414 C 0.8226 0.64128 0.67323 0.0
C415 C 0.80343 0.59979 0.66512 0.0
H416 H 0.83516 0.70639 0.64864 0.0
C417 C 0.78782 0.59046 0.62246 0.0
H418 H 0.83522 0.6495 0.70563 0.0
C419 C 0.78778 0.623 0.58987 0.0
C420 C 0.80337 0.66572 0.59908 0.0
H421 H 0.77351 0.55863 0.61477 0.0
H422 H 0.77345 0.61522 0.55809 0.0
C423 C 0.82257 0.67395 0.64051 0.0
C424 C 0.33609 0.30356 0.15417 0.0
C425 C 0.37727 0.31161 0.17388 0.0
H426 H 0.2711 0.32811 0.14115 0.0
C427 C 0.38614 0.35413 0.19023 0.0
H428 H 0.32821 0.27127 0.141 0.0
C429 C 0.35346 0.38664 0.19032 0.0
C430 C 0.31106 0.37749 0.17406 0.0
H431 H 0.4177 0.36178 0.20503 0.0
H432 H 0.36091 0.4183 0.20517 0.0
C433 C 0.30329 0.3362 0.15425 0.0
C434 C 0.30161 0.64199 0.82334 0.0
C435 C 0.3098 0.60045 0.80411 0.0
H436 H 0.32614 0.70706 0.83599 0.0
C437 C 0.35248 0.59103 0.78841 0.0
H438 H 0.26919 0.65028 0.836 0.0
C439 C 0.38506 0.6235 0.78842 0.0
C440 C 0.37581 0.66624 0.80411 0.0
H441 H 0.36024 0.55917 0.77404 0.0
H442 H 0.41687 0.61562 0.77404 0.0
C443 C 0.33432 0.67459 0.82334 0.0
C444 C 0.30249 0.33638 0.82383 0.0
C445 C 0.31044 0.37775 0.80423 0.0
H446 H 0.3273 0.27139 0.83685 0.0
C447 C 0.35301 0.38702 0.78824 0.0
H448 H 0.27018 0.3282 0.83674 0.0
C449 C 0.38569 0.35453 0.78832 0.0
C450 C 0.37666 0.31191 0.80438 0.0
H451 H 0.36058 0.41877 0.77358 0.0
H452 H 0.4174 0.36226 0.7737 0.0
C453 C 0.3353 0.30376 0.82391 0.0
C454 C 0.62288 0.38648 0.7879 0.0
C455 C 0.66555 0.37703 0.80338 0.0
H456 H 0.55849 0.36193 0.77385 0.0
C457 C 0.67371 0.33549 0.82255 0.0
H458 H 0.61514 0.41836 0.77359 0.0
C459 C 0.641 0.3029 0.8227 0.0
C460 C 0.59952 0.31127 0.80369 0.0
H461 H 0.70612 0.32717 0.83504 0.0
H462 H 0.64916 0.27042 0.8353 0.0
C463 C 0.59029 0.35403 0.78806 0.0
C464 C 0.6728 0.64127 0.82267 0.0
C465 C 0.66488 0.59984 0.80321 0.0
H466 H 0.648 0.7063 0.8356 0.0
C467 C 0.62235 0.59057 0.78734 0.0
H468 H 0.70509 0.64945 0.83547 0.0
C469 C 0.58969 0.62309 0.78741 0.0
C470 C 0.5987 0.66574 0.80336 0.0
H471 H 0.6148 0.5588 0.77278 0.0
H472 H 0.55802 0.61534 0.7729 0.0
C473 C 0.64001 0.67391 0.82275 0.0
C474 C 0.64057 0.67349 0.15291 0.0
C475 C 0.59926 0.66538 0.17254 0.0
H476 H 0.70567 0.64901 0.13998 0.0
C477 C 0.59026 0.6228 0.18871 0.0
H478 H 0.64856 0.70584 0.13989 0.0
C479 C 0.62293 0.59029 0.18877 0.0
C480 C 0.66546 0.59952 0.17266 0.0
H481 H 0.55858 0.6151 0.20341 0.0
H482 H 0.61538 0.55858 0.2035 0.0
C483 C 0.67338 0.64086 0.15297 0.0
C484 C 0.33508 0.6742 0.15417 0.0
C485 C 0.37645 0.66594 0.17346 0.0
H486 H 0.27002 0.64987 0.14159 0.0
C487 C 0.38556 0.62329 0.18944 0.0
H488 H 0.32701 0.7066 0.1413 0.0
C489 C 0.35296 0.59084 0.18961 0.0
C490 C 0.31039 0.60019 0.17381 0.0
H491 H 0.41728 0.61547 0.20388 0.0
H492 H 0.36061 0.55906 0.20418 0.0
C493 C 0.30235 0.64163 0.15434 0.0
C494 C 0.5909 0.35371 0.18875 0.0
C495 C 0.60011 0.31102 0.1729 0.0
H496 H 0.61575 0.41801 0.20322 0.0
C497 C 0.64154 0.30274 0.15351 0.0
H498 H 0.55913 0.36154 0.20326 0.0
C499 C 0.67423 0.33535 0.15349 0.0
C500 C 0.66609 0.37683 0.17286 0.0
H501 H 0.64968 0.27031 0.14074 0.0
H502 H 0.70661 0.3271 0.1407 0.0
C503 C 0.62347 0.38619 0.18873 0.0
C504 C 0.17928 0.96572 0.52909 0.0
C505 C 0.17929 0.9421 0.48909 0.0
H506 H 0.17897 0.0289 0.56058 0.0
C507 C 0.18045 0.96579 0.44916 0.0
H508 H 0.17854 0.94862 0.5605 0.0
C509 C 0.18071 0.01193 0.44921 0.0
C510 C 0.17981 0.03557 0.48919 0.0
H511 H 0.18066 0.94877 0.41771 0.0
H512 H 0.18109 0.02902 0.41779 0.0
C513 C 0.17954 0.01187 0.52914 0.0
C514 C 0.0112 0.17965 0.52865 0.0
C515 C 0.03511 0.17925 0.48879 0.0
H516 H 0.94786 0.17939 0.55984 0.0
C517 C 0.01172 0.17944 0.44873 0.0
H518 H 0.02803 0.17963 0.56015 0.0
C519 C 0.96563 0.17929 0.44855 0.0
C520 C 0.94172 0.17896 0.48841 0.0
H521 H 0.02895 0.17924 0.41736 0.0
H522 H 0.94881 0.179 0.41705 0.0
C523 C 0.9651 0.17951 0.52847 0.0
C524 C 0.79653 0.01157 0.44786 0.0
C525 C 0.79678 0.03519 0.48785 0.0
H526 H 0.79661 0.94839 0.41636 0.0
C527 C 0.79588 0.01149 0.52779 0.0
H528 H 0.79706 0.02866 0.41644 0.0
C529 C 0.79561 0.96535 0.52774 0.0
C530 C 0.79623 0.94172 0.48775 0.0
H531 H 0.79589 0.02852 0.55924 0.0
H532 H 0.79544 0.94826 0.55916 0.0
C533 C 0.79626 0.96542 0.44781 0.0
C534 C 0.0103 0.79795 0.52836 0.0
C535 C 0.0342 0.79842 0.4885 0.0
H536 H 0.94697 0.79784 0.55955 0.0
C537 C 0.01082 0.79796 0.44844 0.0
H538 H 0.02713 0.79816 0.55986 0.0
C539 C 0.96473 0.79777 0.44826 0.0
C540 C 0.94082 0.79803 0.48812 0.0
H541 H 0.02806 0.79818 0.41707 0.0
H542 H 0.9479 0.79787 0.41676 0.0
C543 C 0.96421 0.79775 0.52818 0.0
C544 C 0.52827 0.18 0.96531 0.0
C545 C 0.48831 0.17965 0.94182 0.0
H546 H 0.55978 0.17977 0.02837 0.0
C547 C 0.44843 0.18007 0.96568 0.0
H548 H 0.55964 0.17981 0.94811 0.0
C549 C 0.44852 0.18005 0.01182 0.0
C550 C 0.48848 0.17961 0.03531 0.0
H551 H 0.417 0.17994 0.94877 0.0
H552 H 0.41714 0.17991 0.02901 0.0
C553 C 0.52835 0.17998 0.01146 0.0
C554 C 0.79643 0.44839 0.96469 0.0
C555 C 0.79651 0.4884 0.94107 0.0
H556 H 0.79707 0.41688 0.02784 0.0
C557 C 0.79593 0.52836 0.96476 0.0
H558 H 0.79674 0.41696 0.94761 0.0
C559 C 0.79613 0.52831 0.01089 0.0
C560 C 0.7969 0.48831 0.0345 0.0
H561 H 0.79584 0.55982 0.94774 0.0
H562 H 0.79617 0.55975 0.02796 0.0
C563 C 0.79662 0.44835 0.01082 0.0
C564 C 0.52735 0.7967 0.01111 0.0
C565 C 0.48748 0.79759 0.03497 0.0
H566 H 0.55864 0.79654 0.94778 0.0
C567 C 0.44752 0.7978 0.01148 0.0
H568 H 0.55878 0.79639 0.02802 0.0
C569 C 0.44743 0.79789 0.96534 0.0
C570 C 0.48731 0.79778 0.94148 0.0
H571 H 0.41615 0.79838 0.02868 0.0
H572 H 0.41601 0.79853 0.94842 0.0
C573 C 0.52726 0.79679 0.96497 0.0
C574 C 0.1797 0.52888 0.96596 0.0
C575 C 0.17906 0.48892 0.94228 0.0
H576 H 0.17993 0.56026 0.02917 0.0
C577 C 0.17957 0.44891 0.9659 0.0
H578 H 0.17949 0.56034 0.94894 0.0
C579 C 0.17984 0.44886 0.01202 0.0
C580 C 0.1796 0.48883 0.03571 0.0
H581 H 0.17925 0.41748 0.94882 0.0
H582 H 0.17969 0.4174 0.02905 0.0
C583 C 0.17997 0.52883 0.01209 0.0
C584 C 0.01112 0.52851 0.17928 0.0
C585 C 0.0349 0.48857 0.17916 0.0
H586 H 0.9479 0.55988 0.1786 0.0
C587 C 0.01139 0.44855 0.17946 0.0
H588 H 0.02805 0.55999 0.17915 0.0
C589 C 0.96531 0.44849 0.17913 0.0
C590 C 0.94154 0.48844 0.1785 0.0
H591 H 0.02854 0.41713 0.17948 0.0
H592 H 0.94838 0.41702 0.17894 0.0
C593 C 0.96504 0.52845 0.17895 0.0
C594 C 0.96452 0.52873 0.79741 0.0
C595 C 0.94101 0.48871 0.79738 0.0
H596 H 0.02752 0.56026 0.79826 0.0
C597 C 0.96479 0.44877 0.79696 0.0
H598 H 0.94737 0.56015 0.79764 0.0
C599 C 0.01088 0.44883 0.79734 0.0
C600 C 0.03437 0.48884 0.79814 0.0
H601 H 0.94787 0.4173 0.79681 0.0
H602 H 0.02802 0.41741 0.79744 0.0
C603 C 0.0106 0.52879 0.79779 0.0
C604 C 0.52758 0.01168 0.79673 0.0
C605 C 0.48774 0.03555 0.7971 0.0
H606 H 0.5588 0.94831 0.79689 0.0
C607 C 0.44775 0.01207 0.79656 0.0
H608 H 0.55903 0.02858 0.79701 0.0
C609 C 0.44761 0.96591 0.79649 0.0
C610 C 0.48746 0.94204 0.79696 0.0
H611 H 0.4164 0.02929 0.79668 0.0
H612 H 0.41616 0.94901 0.79656 0.0
C613 C 0.52745 0.96552 0.79666 0.0
C614 C 0.52811 0.9652 0.17975 0.0
C615 C 0.48812 0.94172 0.17952 0.0
H616 H 0.5597 0.02827 0.17951 0.0
C617 C 0.44828 0.9656 0.18015 0.0
H618 H 0.55947 0.94799 0.17941 0.0
C619 C 0.44841 0.01175 0.1802 0.0
C620 C 0.4884 0.03524 0.17963 0.0
H621 H 0.41683 0.94869 0.18011 0.0
H622 H 0.41706 0.02897 0.18021 0.0
C623 C 0.52825 0.01136 0.17981 0.0
loop_
_geom_bond_atom_site_label_1
_geom_bond_atom_site_label_2
_geom_bond_distance
_geom_bond_site_symmetry_2
_ccdc_geom_bond_type
Sc0 O3 2.025 . S
Sc0 O10 2.105 . S
Sc0 O13 2.105 . S
Sc0 O16 2.105 . S
Sc0 O19 2.105 . S
Sc1 O3 2.025 . S
Sc1 O11 2.105 . S
Sc1 O15 2.105 . S
Sc1 O17 2.105 . S
Sc1 O21 2.105 . S
Sc2 O3 2.025 . S
Sc2 O12 2.105 . S
Sc2 O14 2.105 . S
Sc2 O18 2.105 . S
Sc2 O20 2.105 . S
O3 Sc0 2.025 . S
O3 Sc1 2.025 . S
O3 Sc2 2.025 . S
C4 O10 1.268 . S
C4 O20 1.268 . S
C5 O11 1.268 . S
C5 O19 1.268 . S
C6 O12 1.268 . S
C6 O21 1.268 . S
C7 O13 1.268 . S
C7 O17 1.268 . S
C8 O14 1.268 . S
C8 O16 1.268 . S
C9 O15 1.268 . S
C9 O18 1.268 . S
O10 Sc0 2.105 . S
O10 C4 1.268 . S
O11 Sc1 2.105 . S
O11 C5 1.268 . S
O12 Sc2 2.105 . S
O12 C6 1.268 . S
O13 Sc0 2.105 . S
O13 C7 1.268 . S
O14 Sc2 2.105 . S
O14 C8 1.268 . S
O15 Sc1 2.105 . S
O15 C9 1.268 . S
O16 Sc0 2.105 . S
O16 C8 1.268 . S
O17 Sc1 2.105 . S
O17 C7 1.268 . S
O18 Sc2 2.105 . S
O18 C9 1.268 . S
O19 Sc0 2.105 . S
O19 C5 1.268 . S
O20 Sc2 2.105 . S
O20 C4 1.268 . S
O21 Sc1 2.105 . S
O21 C6 1.268 . S
Sc22 O25 2.025 . S
Sc22 O32 2.105 . S
Sc22 O35 2.105 . S
Sc22 O38 2.105 . S
Sc22 O41 2.105 . S
Sc23 O25 2.025 . S
Sc23 O33 2.105 . S
Sc23 O37 2.105 . S
Sc23 O39 2.105 . S
Sc23 O43 2.105 . S
Sc24 O25 2.025 . S
Sc24 O34 2.105 . S
Sc24 O36 2.105 . S
Sc24 O40 2.105 . S
Sc24 O42 2.105 . S
O25 Sc22 2.025 . S
O25 Sc23 2.025 . S
O25 Sc24 2.025 . S
C26 O32 1.268 . S
C26 O42 1.268 . S
C27 O33 1.268 . S
C27 O41 1.268 . S
C28 O34 1.268 . S
C28 O43 1.268 . S
C29 O35 1.268 . S
C29 O39 1.268 . S
C30 O36 1.268 . S
C30 O38 1.268 . S
C31 O37 1.268 . S
C31 O40 1.268 . S
O32 Sc22 2.105 . S
O32 C26 1.268 . S
O33 Sc23 2.105 . S
O33 C27 1.268 . S
O34 Sc24 2.105 . S
O34 C28 1.268 . S
O35 Sc22 2.105 . S
O35 C29 1.268 . S
O36 Sc24 2.105 . S
O36 C30 1.268 . S
O37 Sc23 2.105 . S
O37 C31 1.268 . S
O38 Sc22 2.105 . S
O38 C30 1.268 . S
O39 Sc23 2.105 . S
O39 C29 1.268 . S
O40 Sc24 2.105 . S
O40 C31 1.268 . S
O41 Sc22 2.105 . S
O41 C27 1.268 . S
O42 Sc24 2.105 . S
O42 C26 1.268 . S
O43 Sc23 2.105 . S
O43 C28 1.268 . S
Sc44 O47 2.025 . S
Sc44 O54 2.105 . S
Sc44 O57 2.105 . S
Sc44 O60 2.105 . S
Sc44 O63 2.105 . S
Sc45 O47 2.025 . S
Sc45 O55 2.105 . S
Sc45 O59 2.105 . S
Sc45 O61 2.105 . S
Sc45 O65 2.105 . S
Sc46 O47 2.025 . S
Sc46 O56 2.105 . S
Sc46 O58 2.105 . S
Sc46 O62 2.105 . S
Sc46 O64 2.105 . S
O47 Sc44 2.025 . S
O47 Sc45 2.025 . S
O47 Sc46 2.025 . S
C48 O54 1.268 . S
C48 O64 1.268 . S
C49 O55 1.268 . S
C49 O63 1.268 . S
C50 O56 1.268 . S
C50 O65 1.268 . S
C51 O57 1.268 . S
C51 O61 1.268 . S
C52 O58 1.268 . S
C52 O60 1.268 . S
C53 O59 1.268 . S
C53 O62 1.268 . S
O54 Sc44 2.105 . S
O54 C48 1.268 . S
O55 Sc45 2.105 . S
O55 C49 1.268 . S
O56 Sc46 2.105 . S
O56 C50 1.268 . S
O57 Sc44 2.105 . S
O57 C51 1.268 . S
O58 Sc46 2.105 . S
O58 C52 1.268 . S
O59 Sc45 2.105 . S
O59 C53 1.268 . S
O60 Sc44 2.105 . S
O60 C52 1.268 . S
O61 Sc45 2.105 . S
O61 C51 1.268 . S
O62 Sc46 2.105 . S
O62 C53 1.268 . S
O63 Sc44 2.105 . S
O63 C49 1.268 . S
O64 Sc46 2.105 . S
O64 C48 1.268 . S
O65 Sc45 2.105 . S
O65 C50 1.268 . S
Sc66 O69 2.025 . S
Sc66 O76 2.105 . S
Sc66 O79 2.105 . S
Sc66 O82 2.105 . S
Sc66 O85 2.105 . S
Sc67 O69 2.025 . S
Sc67 O77 2.105 . S
Sc67 O81 2.105 . S
Sc67 O83 2.105 . S
Sc67 O87 2.105 . S
Sc68 O69 2.025 . S
Sc68 O78 2.105 . S
Sc68 O80 2.105 . S
Sc68 O84 2.105 . S
Sc68 O86 2.105 . S
O69 Sc66 2.025 . S
O69 Sc67 2.025 . S
O69 Sc68 2.025 . S
C70 O76 1.268 . S
C70 O86 1.268 . S
C71 O77 1.268 . S
C71 O85 1.268 . S
C72 O78 1.268 . S
C72 O87 1.268 . S
C73 O79 1.268 . S
C73 O83 1.268 . S
C74 O80 1.268 . S
C74 O82 1.268 . S
C75 O81 1.268 . S
C75 O84 1.268 . S
O76 Sc66 2.105 . S
O76 C70 1.268 . S
O77 Sc67 2.105 . S
O77 C71 1.268 . S
O78 Sc68 2.105 . S
O78 C72 1.268 . S
O79 Sc66 2.105 . S
O79 C73 1.268 . S
O80 Sc68 2.105 . S
O80 C74 1.268 . S
O81 Sc67 2.105 . S
O81 C75 1.268 . S
O82 Sc66 2.105 . S
O82 C74 1.268 . S
O83 Sc67 2.105 . S
O83 C73 1.268 . S
O84 Sc68 2.105 . S
O84 C75 1.268 . S
O85 Sc66 2.105 . S
O85 C71 1.268 . S
O86 Sc68 2.105 . S
O86 C70 1.268 . S
O87 Sc67 2.105 . S
O87 C72 1.268 . S
Sc88 O91 2.025 . S
Sc88 O98 2.105 . S
Sc88 O101 2.105 . S
Sc88 O104 2.105 . S
Sc88 O107 2.105 . S
Sc89 O91 2.025 . S
Sc89 O99 2.105 . S
Sc89 O103 2.105 . S
Sc89 O105 2.105 . S
Sc89 O109 2.105 . S
Sc90 O91 2.025 . S
Sc90 O100 2.105 . S
Sc90 O102 2.105 . S
Sc90 O106 2.105 . S
Sc90 O108 2.105 . S
O91 Sc88 2.025 . S
O91 Sc89 2.025 . S
O91 Sc90 2.025 . S
C92 O98 1.268 . S
C92 O108 1.268 . S
C93 O99 1.268 . S
C93 O107 1.268 . S
C94 O100 1.268 . S
C94 O109 1.268 . S
C95 O101 1.268 . S
C95 O105 1.268 . S
C96 O102 1.268 . S
C96 O104 1.268 . S
C97 O103 1.268 . S
C97 O106 1.268 . S
O98 Sc88 2.105 . S
O98 C92 1.268 . S
O99 Sc89 2.105 . S
O99 C93 1.268 . S
O100 Sc90 2.105 . S
O100 C94 1.268 . S
O101 Sc88 2.105 . S
O101 C95 1.268 . S
O102 Sc90 2.105 . S
O102 C96 1.268 . S
O103 Sc89 2.105 . S
O103 C97 1.268 . S
O104 Sc88 2.105 . S
O104 C96 1.268 . S
O105 Sc89 2.105 . S
O105 C95 1.268 . S
O106 Sc90 2.105 . S
O106 C97 1.268 . S
O107 Sc88 2.105 . S
O107 C93 1.268 . S
O108 Sc90 2.105 . S
O108 C92 1.268 . S
O109 Sc89 2.105 . S
O109 C94 1.268 . S
Sc110 O113 2.025 . S
Sc110 O120 2.105 . S
Sc110 O123 2.105 . S
Sc110 O126 2.105 . S
Sc110 O129 2.105 . S
Sc111 O113 2.025 . S
Sc111 O121 2.105 . S
Sc111 O125 2.105 . S
Sc111 O127 2.105 . S
Sc111 O131 2.105 . S
Sc112 O113 2.025 . S
Sc112 O122 2.105 . S
Sc112 O124 2.105 . S
Sc112 O128 2.105 . S
Sc112 O130 2.105 . S
O113 Sc110 2.025 . S
O113 Sc111 2.025 . S
O113 Sc112 2.025 . S
C114 O120 1.268 . S
C114 O130 1.268 . S
C115 O121 1.268 . S
C115 O129 1.268 . S
C116 O122 1.268 . S
C116 O131 1.268 . S
C117 O123 1.268 . S
C117 O127 1.268 . S
C118 O124 1.268 . S
C118 O126 1.268 . S
C119 O125 1.268 . S
C119 O128 1.268 . S
O120 Sc110 2.105 . S
O120 C114 1.268 . S
O121 Sc111 2.105 . S
O121 C115 1.268 . S
O122 Sc112 2.105 . S
O122 C116 1.268 . S
O123 Sc110 2.105 . S
O123 C117 1.268 . S
O124 Sc112 2.105 . S
O124 C118 1.268 . S
O125 Sc111 2.105 . S
O125 C119 1.268 . S
O126 Sc110 2.105 . S
O126 C118 1.268 . S
O127 Sc111 2.105 . S
O127 C117 1.268 . S
O128 Sc112 2.105 . S
O128 C119 1.268 . S
O129 Sc110 2.105 . S
O129 C115 1.268 . S
O130 Sc112 2.105 . S
O130 C114 1.268 . S
O131 Sc111 2.105 . S
O131 C116 1.268 . S
Sc132 O135 2.025 . S
Sc132 O142 2.105 . S
Sc132 O145 2.105 . S
Sc132 O148 2.105 . S
Sc132 O151 2.105 . S
Sc133 O135 2.025 . S
Sc133 O143 2.105 . S
Sc133 O147 2.105 . S
Sc133 O149 2.105 . S
Sc133 O153 2.105 . S
Sc134 O135 2.025 . S
Sc134 O144 2.105 . S
Sc134 O146 2.105 . S
Sc134 O150 2.105 . S
Sc134 O152 2.105 . S
O135 Sc132 2.025 . S
O135 Sc133 2.025 . S
O135 Sc134 2.025 . S
C136 O142 1.268 . S
C136 O152 1.268 . S
C137 O143 1.268 . S
C137 O151 1.268 . S
C138 O144 1.268 . S
C138 O153 1.268 . S
C139 O145 1.268 . S
C139 O149 1.268 . S
C140 O146 1.268 . S
C140 O148 1.268 . S
C141 O147 1.268 . S
C141 O150 1.268 . S
O142 Sc132 2.105 . S
O142 C136 1.268 . S
O143 Sc133 2.105 . S
O143 C137 1.268 . S
O144 Sc134 2.105 . S
O144 C138 1.268 . S
O145 Sc132 2.105 . S
O145 C139 1.268 . S
O146 Sc134 2.105 . S
O146 C140 1.268 . S
O147 Sc133 2.105 . S
O147 C141 1.268 . S
O148 Sc132 2.105 . S
O148 C140 1.268 . S
O149 Sc133 2.105 . S
O149 C139 1.268 . S
O150 Sc134 2.105 . S
O150 C141 1.268 . S
O151 Sc132 2.105 . S
O151 C137 1.268 . S
O152 Sc134 2.105 . S
O152 C136 1.268 . S
O153 Sc133 2.105 . S
O153 C138 1.268 . S
Sc154 O157 2.025 . S
Sc154 O164 2.105 . S
Sc154 O167 2.105 . S
Sc154 O170 2.105 . S
Sc154 O173 2.105 . S
Sc155 O157 2.025 . S
Sc155 O165 2.105 . S
Sc155 O169 2.105 . S
Sc155 O171 2.105 . S
Sc155 O175 2.105 . S
Sc156 O157 2.025 . S
Sc156 O166 2.105 . S
Sc156 O168 2.105 . S
Sc156 O172 2.105 . S
Sc156 O174 2.105 . S
O157 Sc154 2.025 . S
O157 Sc155 2.025 . S
O157 Sc156 2.025 . S
C158 O164 1.268 . S
C158 O174 1.268 . S
C159 O165 1.268 . S
C159 O173 1.268 . S
C160 O166 1.268 . S
C160 O175 1.268 . S
C161 O167 1.268 . S
C161 O171 1.268 . S
C162 O168 1.268 . S
C162 O170 1.268 . S
C163 O169 1.268 . S
C163 O172 1.268 . S
O164 Sc154 2.105 . S
O164 C158 1.268 . S
O165 Sc155 2.105 . S
O165 C159 1.268 . S
O166 Sc156 2.105 . S
O166 C160 1.268 . S
O167 Sc154 2.105 . S
O167 C161 1.268 . S
O168 Sc156 2.105 . S
O168 C162 1.268 . S
O169 Sc155 2.105 . S
O169 C163 1.268 . S
O170 Sc154 2.105 . S
O170 C162 1.268 . S
O171 Sc155 2.105 . S
O171 C161 1.268 . S
O172 Sc156 2.105 . S
O172 C163 1.268 . S
O173 Sc154 2.105 . S
O173 C159 1.268 . S
O174 Sc156 2.105 . S
O174 C158 1.268 . S
O175 Sc155 2.105 . S
O175 C160 1.268 . S
Sc176 O179 2.025 . S
Sc176 O186 2.105 . S
Sc176 O189 2.105 . S
Sc176 O192 2.105 . S
Sc176 O195 2.105 . S
Sc177 O179 2.025 . S
Sc177 O187 2.105 . S
Sc177 O191 2.105 . S
Sc177 O193 2.105 . S
Sc177 O197 2.105 . S
Sc178 O179 2.025 . S
Sc178 O188 2.105 . S
Sc178 O190 2.105 . S
Sc178 O194 2.105 . S
Sc178 O196 2.105 . S
O179 Sc176 2.025 . S
O179 Sc177 2.025 . S
O179 Sc178 2.025 . S
C180 O186 1.268 . S
C180 O196 1.268 . S
C181 O187 1.268 . S
C181 O195 1.268 . S
C182 O188 1.268 . S
C182 O197 1.268 . S
C183 O189 1.268 . S
C183 O193 1.268 . S
C184 O190 1.268 . S
C184 O192 1.268 . S
C185 O191 1.268 . S
C185 O194 1.268 . S
O186 Sc176 2.105 . S
O186 C180 1.268 . S
O187 Sc177 2.105 . S
O187 C181 1.268 . S
O188 Sc178 2.105 . S
O188 C182 1.268 . S
O189 Sc176 2.105 . S
O189 C183 1.268 . S
O190 Sc178 2.105 . S
O190 C184 1.268 . S
O191 Sc177 2.105 . S
O191 C185 1.268 . S
O192 Sc176 2.105 . S
O192 C184 1.268 . S
O193 Sc177 2.105 . S
O193 C183 1.268 . S
O194 Sc178 2.105 . S
O194 C185 1.268 . S
O195 Sc176 2.105 . S
O195 C181 1.268 . S
O196 Sc178 2.105 . S
O196 C180 1.268 . S
O197 Sc177 2.105 . S
O197 C182 1.268 . S
Sc198 O201 2.025 . S
Sc198 O208 2.105 . S
Sc198 O211 2.105 . S
Sc198 O214 2.105 . S
Sc198 O217 2.105 . S
Sc199 O201 2.025 . S
Sc199 O209 2.105 . S
Sc199 O213 2.105 . S
Sc199 O215 2.105 . S
Sc199 O219 2.105 . S
Sc200 O201 2.025 . S
Sc200 O210 2.105 . S
Sc200 O212 2.105 . S
Sc200 O216 2.105 . S
Sc200 O218 2.105 . S
O201 Sc198 2.025 . S
O201 Sc199 2.025 . S
O201 Sc200 2.025 . S
C202 O208 1.268 . S
C202 O218 1.268 . S
C203 O209 1.268 . S
C203 O217 1.268 . S
C204 O210 1.268 . S
C204 O219 1.268 . S
C205 O211 1.268 . S
C205 O215 1.268 . S
C206 O212 1.268 . S
C206 O214 1.268 . S
C207 O213 1.268 . S
C207 O216 1.268 . S
O208 Sc198 2.105 . S
O208 C202 1.268 . S
O209 Sc199 2.105 . S
O209 C203 1.268 . S
O210 Sc200 2.105 . S
O210 C204 1.268 . S
O211 Sc198 2.105 . S
O211 C205 1.268 . S
O212 Sc200 2.105 . S
O212 C206 1.268 . S
O213 Sc199 2.105 . S
O213 C207 1.268 . S
O214 Sc198 2.105 . S
O214 C206 1.268 . S
O215 Sc199 2.105 . S
O215 C205 1.268 . S
O216 Sc200 2.105 . S
O216 C207 1.268 . S
O217 Sc198 2.105 . S
O217 C203 1.268 . S
O218 Sc200 2.105 . S
O218 C202 1.268 . S
O219 Sc199 2.105 . S
O219 C204 1.268 . S
Sc220 O223 2.025 . S
Sc220 O230 2.105 . S
Sc220 O233 2.105 . S
Sc220 O236 2.105 . S
Sc220 O239 2.105 . S
Sc221 O223 2.025 . S
Sc221 O231 2.105 . S
Sc221 O235 2.105 . S
Sc221 O237 2.105 . S
Sc221 O241 2.105 . S
Sc222 O223 2.025 . S
Sc222 O232 2.105 . S
Sc222 O234 2.105 . S
Sc222 O238 2.105 . S
Sc222 O240 2.105 . S
O223 Sc220 2.025 . S
O223 Sc221 2.025 . S
O223 Sc222 2.025 . S
C224 O230 1.268 . S
C224 O240 1.268 . S
C225 O231 1.268 . S
C225 O239 1.268 . S
C226 O232 1.268 . S
C226 O241 1.268 . S
C227 O233 1.268 . S
C227 O237 1.268 . S
C228 O234 1.268 . S
C228 O236 1.268 . S
C229 O235 1.268 . S
C229 O238 1.268 . S
O230 Sc220 2.105 . S
O230 C224 1.268 . S
O231 Sc221 2.105 . S
O231 C225 1.268 . S
O232 Sc222 2.105 . S
O232 C226 1.268 . S
O233 Sc220 2.105 . S
O233 C227 1.268 . S
O234 Sc222 2.105 . S
O234 C228 1.268 . S
O235 Sc221 2.105 . S
O235 C229 1.268 . S
O236 Sc220 2.105 . S
O236 C228 1.268 . S
O237 Sc221 2.105 . S
O237 C227 1.268 . S
O238 Sc222 2.105 . S
O238 C229 1.268 . S
O239 Sc220 2.105 . S
O239 C225 1.268 . S
O240 Sc222 2.105 . S
O240 C224 1.268 . S
O241 Sc221 2.105 . S
O241 C226 1.268 . S
Sc242 O245 2.025 . S
Sc242 O252 2.105 . S
Sc242 O255 2.105 . S
Sc242 O258 2.105 . S
Sc242 O261 2.105 . S
Sc243 O245 2.025 . S
Sc243 O253 2.105 . S
Sc243 O257 2.105 . S
Sc243 O259 2.105 . S
Sc243 O263 2.105 . S
Sc244 O245 2.025 . S
Sc244 O254 2.105 . S
Sc244 O256 2.105 . S
Sc244 O260 2.105 . S
Sc244 O262 2.105 . S
O245 Sc242 2.025 . S
O245 Sc243 2.025 . S
O245 Sc244 2.025 . S
C246 O252 1.268 . S
C246 O262 1.268 . S
C247 O253 1.268 . S
C247 O261 1.268 . S
C248 O254 1.268 . S
C248 O263 1.268 . S
C249 O255 1.268 . S
C249 O259 1.268 . S
C250 O256 1.268 . S
C250 O258 1.268 . S
C251 O257 1.268 . S
C251 O260 1.268 . S
O252 Sc242 2.105 . S
O252 C246 1.268 . S
O253 Sc243 2.105 . S
O253 C247 1.268 . S
O254 Sc244 2.105 . S
O254 C248 1.268 . S
O255 Sc242 2.105 . S
O255 C249 1.268 . S
O256 Sc244 2.105 . S
O256 C250 1.268 . S
O257 Sc243 2.105 . S
O257 C251 1.268 . S
O258 Sc242 2.105 . S
O258 C250 1.268 . S
O259 Sc243 2.105 . S
O259 C249 1.268 . S
O260 Sc244 2.105 . S
O260 C251 1.268 . S
O261 Sc242 2.105 . S
O261 C247 1.268 . S
O262 Sc244 2.105 . S
O262 C246 1.268 . S
O263 Sc243 2.105 . S
O263 C248 1.268 . S
C264 C265 1.387 . S
C264 H268 0.950 . S
C264 C273 1.390 . S
C265 C264 1.387 . S
C265 C267 1.387 . S
H266 C273 0.950 . S
C267 C265 1.387 . S
C267 C269 1.390 . S
C267 H271 0.950 . S
H268 C264 0.950 . S
C269 C267 1.390 . S
C269 C270 1.387 . S
C269 H272 0.950 . S
C270 C269 1.387 . S
C270 C273 1.387 . S
H271 C267 0.950 . S
H272 C269 0.950 . S
C273 C264 1.390 . S
C273 H266 0.950 . S
C273 C270 1.387 . S
C274 C275 1.387 . S
C274 H278 0.950 . S
C274 C283 1.390 . S
C275 C274 1.387 . S
C275 C277 1.387 . S
H276 C283 0.950 . S
C277 C275 1.387 . S
C277 C279 1.390 . S
C277 H281 0.950 . S
H278 C274 0.950 . S
C279 C277 1.390 . S
C279 C280 1.387 . S
C279 H282 0.950 . S
C280 C279 1.387 . S
C280 C283 1.387 . S
H281 C277 0.950 . S
H282 C279 0.950 . S
C283 C274 1.390 . S
C283 H276 0.950 . S
C283 C280 1.387 . S
C284 C285 1.387 . S
C284 H288 0.950 . S
C284 C293 1.390 . S
C285 C284 1.387 . S
C285 C287 1.387 . S
H286 C293 0.950 . S
C287 C285 1.387 . S
C287 C289 1.390 . S
C287 H291 0.950 . S
H288 C284 0.950 . S
C289 C287 1.390 . S
C289 C290 1.387 . S
C289 H292 0.950 . S
C290 C289 1.387 . S
C290 C293 1.387 . S
H291 C287 0.950 . S
H292 C289 0.950 . S
C293 C284 1.390 . S
C293 H286 0.950 . S
C293 C290 1.387 . S
C294 C295 1.387 . S
C294 H298 0.950 . S
C294 C303 1.390 . S
C295 C294 1.387 . S
C295 C297 1.387 . S
H296 C303 0.950 . S
C297 C295 1.387 . S
C297 C299 1.390 . S
C297 H301 0.950 . S
H298 C294 0.950 . S
C299 C297 1.390 . S
C299 C300 1.387 . S
C299 H302 0.950 . S
C300 C299 1.387 . S
C300 C303 1.387 . S
H301 C297 0.950 . S
H302 C299 0.950 . S
C303 C294 1.390 . S
C303 H296 0.950 . S
C303 C300 1.387 . S
C304 C305 1.387 . S
C304 H308 0.950 . S
C304 C313 1.390 . S
C305 C304 1.387 . S
C305 C307 1.387 . S
H306 C313 0.950 . S
C307 C305 1.387 . S
C307 C309 1.390 . S
C307 H311 0.950 . S
H308 C304 0.950 . S
C309 C307 1.390 . S
C309 C310 1.387 . S
C309 H312 0.950 . S
C310 C309 1.387 . S
C310 C313 1.387 . S
H311 C307 0.950 . S
H312 C309 0.950 . S
C313 C304 1.390 . S
C313 H306 0.950 . S
C313 C310 1.387 . S
C314 C315 1.387 . S
C314 H318 0.950 . S
C314 C323 1.390 . S
C315 C314 1.387 . S
C315 C317 1.387 . S
H316 C323 0.950 . S
C317 C315 1.387 . S
C317 C319 1.390 . S
C317 H321 0.950 . S
H318 C314 0.950 . S
C319 C317 1.390 . S
C319 C320 1.387 . S
C319 H322 0.950 . S
C320 C319 1.387 . S
C320 C323 1.387 . S
H321 C317 0.950 . S
H322 C319 0.950 . S
C323 C314 1.390 . S
C323 H316 0.950 . S
C323 C320 1.387 . S
C324 C325 1.387 . S
C324 H328 0.950 . S
C324 C333 1.390 . S
C325 C324 1.387 . S
C325 C327 1.387 . S
H326 C333 0.950 . S
C327 C325 1.387 . S
C327 C329 1.390 . S
C327 H331 0.950 . S
H328 C324 0.950 . S
C329 C327 1.390 . S
C329 C330 1.387 . S
C329 H332 0.950 . S
C330 C329 1.387 . S
C330 C333 1.387 . S
H331 C327 0.950 . S
H332 C329 0.950 . S
C333 C324 1.390 . S
C333 H326 0.950 . S
C333 C330 1.387 . S
C334 C335 1.387 . S
C334 H338 0.950 . S
C334 C343 1.390 . S
C335 C334 1.387 . S
C335 C337 1.387 . S
H336 C343 0.950 . S
C337 C335 1.387 . S
C337 C339 1.390 . S
C337 H341 0.950 . S
H338 C334 0.950 . S
C339 C337 1.390 . S
C339 C340 1.387 . S
C339 H342 0.950 . S
C340 C339 1.387 . S
C340 C343 1.387 . S
H341 C337 0.950 . S
H342 C339 0.950 . S
C343 C334 1.390 . S
C343 H336 0.950 . S
C343 C340 1.387 . S
C344 C345 1.387 . S
C344 H348 0.950 . S
C344 C353 1.390 . S
C345 C344 1.387 . S
C345 C347 1.387 . S
H346 C353 0.950 . S
C347 C345 1.387 . S
C347 C349 1.390 . S
C347 H351 0.950 . S
H348 C344 0.950 . S
C349 C347 1.390 . S
C349 C350 1.387 . S
C349 H352 0.950 . S
C350 C349 1.387 . S
C350 C353 1.387 . S
H351 C347 0.950 . S
H352 C349 0.950 . S
C353 C344 1.390 . S
C353 H346 0.950 . S
C353 C350 1.387 . S
C354 C355 1.387 . S
C354 H358 0.950 . S
C354 C363 1.390 . S
C355 C354 1.387 . S
C355 C357 1.387 . S
H356 C363 0.950 . S
C357 C355 1.387 . S
C357 C359 1.390 . S
C357 H361 0.950 . S
H358 C354 0.950 . S
C359 C357 1.390 . S
C359 C360 1.387 . S
C359 H362 0.950 . S
C360 C359 1.387 . S
C360 C363 1.387 . S
H361 C357 0.950 . S
H362 C359 0.950 . S
C363 C354 1.390 . S
C363 H356 0.950 . S
C363 C360 1.387 . S
C364 C365 1.387 . S
C364 H368 0.950 . S
C364 C373 1.390 . S
C365 C364 1.387 . S
C365 C367 1.387 . S
H366 C373 0.950 . S
C367 C365 1.387 . S
C367 C369 1.390 . S
C367 H371 0.950 . S
H368 C364 0.950 . S
C369 C367 1.390 . S
C369 C370 1.387 . S
C369 H372 0.950 . S
C370 C369 1.387 . S
C370 C373 1.387 . S
H371 C367 0.950 . S
H372 C369 0.950 . S
C373 C364 1.390 . S
C373 H366 0.950 . S
C373 C370 1.387 . S
C374 C375 1.387 . S
C374 H378 0.950 . S
C374 C383 1.390 . S
C375 C374 1.387 . S
C375 C377 1.387 . S
H376 C383 0.950 . S
C377 C375 1.387 . S
C377 C379 1.390 . S
C377 H381 0.950 . S
H378 C374 0.950 . S
C379 C377 1.390 . S
C379 C380 1.387 . S
C379 H382 0.950 . S
C380 C379 1.387 . S
C380 C383 1.387 . S
H381 C377 0.950 . S
H382 C379 0.950 . S
C383 C374 1.390 . S
C383 H376 0.950 . S
C383 C380 1.387 . S
C384 C385 1.387 . S
C384 H388 0.950 . S
C384 C393 1.390 . S
C385 C384 1.387 . S
C385 C387 1.387 . S
H386 C393 0.950 . S
C387 C385 1.387 . S
C387 C389 1.390 . S
C387 H391 0.950 . S
H388 C384 0.950 . S
C389 C387 1.390 . S
C389 C390 1.387 . S
C389 H392 0.950 . S
C390 C389 1.387 . S
C390 C393 1.387 . S
H391 C387 0.950 . S
H392 C389 0.950 . S
C393 C384 1.390 . S
C393 H386 0.950 . S
C393 C390 1.387 . S
C394 C395 1.387 . S
C394 H398 0.950 . S
C394 C403 1.390 . S
C395 C394 1.387 . S
C395 C397 1.387 . S
H396 C403 0.950 . S
C397 C395 1.387 . S
C397 C399 1.390 . S
C397 H401 0.950 . S
H398 C394 0.950 . S
C399 C397 1.390 . S
C399 C400 1.387 . S
C399 H402 0.950 . S
C400 C399 1.387 . S
C400 C403 1.387 . S
H401 C397 0.950 . S
H402 C399 0.950 . S
C403 C394 1.390 . S
C403 H396 0.950 . S
C403 C400 1.387 . S
C404 C405 1.387 . S
C404 H408 0.950 . S
C404 C413 1.390 . S
C405 C404 1.387 . S
C405 C407 1.387 . S
H406 C413 0.950 . S
C407 C405 1.387 . S
C407 C409 1.390 . S
C407 H411 0.950 . S
H408 C404 0.950 . S
C409 C407 1.390 . S
C409 C410 1.387 . S
C409 H412 0.950 . S
C410 C409 1.387 . S
C410 C413 1.387 . S
H411 C407 0.950 . S
H412 C409 0.950 . S
C413 C404 1.390 . S
C413 H406 0.950 . S
C413 C410 1.387 . S
C414 C415 1.387 . S
C414 H418 0.950 . S
C414 C423 1.390 . S
C415 C414 1.387 . S
C415 C417 1.387 . S
H416 C423 0.950 . S
C417 C415 1.387 . S
C417 C419 1.390 . S
C417 H421 0.950 . S
H418 C414 0.950 . S
C419 C417 1.390 . S
C419 C420 1.387 . S
C419 H422 0.950 . S
C420 C419 1.387 . S
C420 C423 1.387 . S
H421 C417 0.950 . S
H422 C419 0.950 . S
C423 C414 1.390 . S
C423 H416 0.950 . S
C423 C420 1.387 . S
C424 C425 1.387 . S
C424 H428 0.950 . S
C424 C433 1.390 . S
C425 C424 1.387 . S
C425 C427 1.387 . S
H426 C433 0.950 . S
C427 C425 1.387 . S
C427 C429 1.390 . S
C427 H431 0.950 . S
H428 C424 0.950 . S
C429 C427 1.390 . S
C429 C430 1.387 . S
C429 H432 0.950 . S
C430 C429 1.387 . S
C430 C433 1.387 . S
H431 C427 0.950 . S
H432 C429 0.950 . S
C433 C424 1.390 . S
C433 H426 0.950 . S
C433 C430 1.387 . S
C434 C435 1.387 . S
C434 H438 0.950 . S
C434 C443 1.390 . S
C435 C434 1.387 . S
C435 C437 1.387 . S
H436 C443 0.950 . S
C437 C435 1.387 . S
C437 C439 1.390 . S
C437 H441 0.950 . S
H438 C434 0.950 . S
C439 C437 1.390 . S
C439 C440 1.387 . S
C439 H442 0.950 . S
C440 C439 1.387 . S
C440 C443 1.387 . S
H441 C437 0.950 . S
H442 C439 0.950 . S
C443 C434 1.390 . S
C443 H436 0.950 . S
C443 C440 1.387 . S
C444 C445 1.387 . S
C444 H448 0.950 . S
C444 C453 1.390 . S
C445 C444 1.387 . S
C445 C447 1.387 . S
H446 C453 0.950 . S
C447 C445 1.387 . S
C447 C449 1.390 . S
C447 H451 0.950 . S
H448 C444 0.950 . S
C449 C447 1.390 . S
C449 C450 1.387 . S
C449 H452 0.950 . S
C450 C449 1.387 . S
C450 C453 1.387 . S
H451 C447 0.950 . S
H452 C449 0.950 . S
C453 C444 1.390 . S
C453 H446 0.950 . S
C453 C450 1.387 . S
C454 C455 1.387 . S
C454 H458 0.950 . S
C454 C463 1.390 . S
C455 C454 1.387 . S
C455 C457 1.387 . S
H456 C463 0.950 . S
C457 C455 1.387 . S
C457 C459 1.390 . S
C457 H461 0.950 . S
H458 C454 0.950 . S
C459 C457 1.390 . S
C459 C460 1.387 . S
C459 H462 0.950 . S
C460 C459 1.387 . S
C460 C463 1.387 . S
H461 C457 0.950 . S
H462 C459 0.950 . S
C463 C454 1.390 . S
C463 H456 0.950 . S
C463 C460 1.387 . S
C464 C465 1.387 . S
C464 H468 0.950 . S
C464 C473 1.390 . S
C465 C464 1.387 . S
C465 C467 1.387 . S
H466 C473 0.950 . S
C467 C465 1.387 . S
C467 C469 1.390 . S
C467 H471 0.950 . S
H468 C464 0.950 . S
C469 C467 1.390 . S
C469 C470 1.387 . S
C469 H472 0.950 . S
C470 C469 1.387 . S
C470 C473 1.387 . S
H471 C467 0.950 . S
H472 C469 0.950 . S
C473 C464 1.390 . S
C473 H466 0.950 . S
C473 C470 1.387 . S
C474 C475 1.387 . S
C474 H478 0.950 . S
C474 C483 1.390 . S
C475 C474 1.387 . S
C475 C477 1.387 . S
H476 C483 0.950 . S
C477 C475 1.387 . S
C477 C479 1.390 . S
C477 H481 0.950 . S
H478 C474 0.950 . S
C479 C477 1.390 . S
C479 C480 1.387 . S
C479 H482 0.950 . S
C480 C479 1.387 . S
C480 C483 1.387 . S
H481 C477 0.950 . S
H482 C479 0.950 . S
C483 C474 1.390 . S
C483 H476 0.950 . S
C483 C480 1.387 . S
C484 C485 1.387 . S
C484 H488 0.950 . S
C484 C493 1.390 . S
C485 C484 1.387 . S
C485 C487 1.387 . S
H486 C493 0.950 . S
C487 C485 1.387 . S
C487 C489 1.390 . S
C487 H491 0.950 . S
H488 C484 0.950 . S
C489 C487 1.390 . S
C489 C490 1.387 . S
C489 H492 0.950 . S
C490 C489 1.387 . S
C490 C493 1.387 . S
H491 C487 0.950 . S
H492 C489 0.950 . S
C493 C484 1.390 . S
C493 H486 0.950 . S
C493 C490 1.387 . S
C494 C495 1.387 . S
C494 H498 0.950 . S
C494 C503 1.390 . S
C495 C494 1.387 . S
C495 C497 1.387 . S
H496 C503 0.950 . S
C497 C495 1.387 . S
C497 C499 1.390 . S
C497 H501 0.950 . S
H498 C494 0.950 . S
C499 C497 1.390 . S
C499 C500 1.387 . S
C499 H502 0.950 . S
C500 C499 1.387 . S
C500 C503 1.387 . S
H501 C497 0.950 . S
H502 C499 0.950 . S
C503 C494 1.390 . S
C503 H496 0.950 . S
C503 C500 1.387 . S
C504 C505 1.387 . S
C504 H508 0.950 . S
C504 C513 1.390 1_565 S
C505 C504 1.387 . S
C505 C507 1.387 . S
H506 C513 0.950 . S
C507 C505 1.387 . S
C507 C509 1.390 1_565 S
C507 H511 0.950 . S
H508 C504 0.950 . S
C509 C507 1.390 1_545 S
C509 C510 1.387 . S
C509 H512 0.950 . S
C510 C509 1.387 . S
C510 C513 1.387 . S
H511 C507 0.950 . S
H512 C509 0.950 . S
C513 C504 1.390 1_545 S
C513 H506 0.950 . S
C513 C510 1.387 . S
C514 C515 1.387 . S
C514 H518 0.950 . S
C514 C523 1.390 1_455 S
C515 C514 1.387 . S
C515 C517 1.387 . S
H516 C523 0.950 . S
C517 C515 1.387 . S
C517 C519 1.390 1_455 S
C517 H521 0.950 . S
H518 C514 0.950 . S
C519 C517 1.390 1_655 S
C519 C520 1.387 . S
C519 H522 0.950 . S
C520 C519 1.387 . S
C520 C523 1.387 . S
H521 C517 0.950 . S
H522 C519 0.950 . S
C523 C514 1.390 1_655 S
C523 H516 0.950 . S
C523 C520 1.387 . S
C524 C525 1.387 . S
C524 H528 0.950 . S
C524 C533 1.390 1_545 S
C525 C524 1.387 . S
C525 C527 1.387 . S
H526 C533 0.950 . S
C527 C525 1.387 . S
C527 C529 1.390 1_545 S
C527 H531 0.950 . S
H528 C524 0.950 . S
C529 C527 1.390 1_565 S
C529 C530 1.387 . S
C529 H532 0.950 . S
C530 C529 1.387 . S
C530 C533 1.387 . S
H531 C527 0.950 . S
H532 C529 0.950 . S
C533 C524 1.390 1_565 S
C533 H526 0.950 . S
C533 C530 1.387 . S
C534 C535 1.387 . S
C534 H538 0.950 . S
C534 C543 1.390 1_455 S
C535 C534 1.387 . S
C535 C537 1.387 . S
H536 C543 0.950 . S
C537 C535 1.387 . S
C537 C539 1.390 1_455 S
C537 H541 0.950 . S
H538 C534 0.950 . S
C539 C537 1.390 1_655 S
C539 C540 1.387 . S
C539 H542 0.950 . S
C540 C539 1.387 . S
C540 C543 1.387 . S
H541 C537 0.950 . S
H542 C539 0.950 . S
C543 C534 1.390 1_655 S
C543 H536 0.950 . S
C543 C540 1.387 . S
C544 C545 1.387 . S
C544 H548 0.950 . S
C544 C553 1.390 1_556 S
C545 C544 1.387 . S
C545 C547 1.387 . S
H546 C553 0.950 . S
C547 C545 1.387 . S
C547 C549 1.390 1_556 S
C547 H551 0.950 . S
H548 C544 0.950 . S
C549 C547 1.390 1_554 S
C549 C550 1.387 . S
C549 H552 0.950 . S
C550 C549 1.387 . S
C550 C553 1.387 . S
H551 C547 0.950 . S
H552 C549 0.950 . S
C553 C544 1.390 1_554 S
C553 H546 0.950 . S
C553 C550 1.387 . S
C554 C555 1.387 . S
C554 H558 0.950 . S
C554 C563 1.390 1_556 S
C555 C554 1.387 . S
C555 C557 1.387 . S
H556 C563 0.950 . S
C557 C555 1.387 . S
C557 C559 1.390 1_556 S
C557 H561 0.950 . S
H558 C554 0.950 . S
C559 C557 1.390 1_554 S
C559 C560 1.387 . S
C559 H562 0.950 . S
C560 C559 1.387 . S
C560 C563 1.387 . S
H561 C557 0.950 . S
H562 C559 0.950 . S
C563 C554 1.390 1_554 S
C563 H556 0.950 . S
C563 C560 1.387 . S
C564 C565 1.387 . S
C564 H568 0.950 . S
C564 C573 1.390 1_554 S
C565 C564 1.387 . S
C565 C567 1.387 . S
H566 C573 0.950 . S
C567 C565 1.387 . S
C567 C569 1.390 1_554 S
C567 H571 0.950 . S
H568 C564 0.950 . S
C569 C567 1.390 1_556 S
C569 C570 1.387 . S
C569 H572 0.950 . S
C570 C569 1.387 . S
C570 C573 1.387 . S
H571 C567 0.950 . S
H572 C569 0.950 . S
C573 C564 1.390 1_556 S
C573 H566 0.950 . S
C573 C570 1.387 . S
C574 C575 1.387 . S
C574 H578 0.950 . S
C574 C583 1.390 1_556 S
C575 C574 1.387 . S
C575 C577 1.387 . S
H576 C583 0.950 . S
C577 C575 1.387 . S
C577 C579 1.390 1_556 S
C577 H581 0.950 . S
H578 C574 0.950 . S
C579 C577 1.390 1_554 S
C579 C580 1.387 . S
C579 H582 0.950 . S
C580 C579 1.387 . S
C580 C583 1.387 . S
H581 C577 0.950 . S
H582 C579 0.950 . S
C583 C574 1.390 1_554 S
C583 H576 0.950 . S
C583 C580 1.387 . S
C584 C585 1.387 . S
C584 H588 0.950 . S
C584 C593 1.390 1_455 S
C585 C584 1.387 . S
C585 C587 1.387 . S
H586 C593 0.950 . S
C587 C585 1.387 . S
C587 C589 1.390 1_455 S
C587 H591 0.950 . S
H588 C584 0.950 . S
C589 C587 1.390 1_655 S
C589 C590 1.387 . S
C589 H592 0.950 . S
C590 C589 1.387 . S
C590 C593 1.387 . S
H591 C587 0.950 . S
H592 C589 0.950 . S
C593 C584 1.390 1_655 S
C593 H586 0.950 . S
C593 C590 1.387 . S
C594 C595 1.387 . S
C594 H598 0.950 . S
C594 C603 1.390 1_655 S
C595 C594 1.387 . S
C595 C597 1.387 . S
H596 C603 0.950 . S
C597 C595 1.387 . S
C597 C599 1.390 1_655 S
C597 H601 0.950 . S
H598 C594 0.950 . S
C599 C597 1.390 1_455 S
C599 C600 1.387 . S
C599 H602 0.950 . S
C600 C599 1.387 . S
C600 C603 1.387 . S
H601 C597 0.950 . S
H602 C599 0.950 . S
C603 C594 1.390 1_455 S
C603 H596 0.950 . S
C603 C600 1.387 . S
C604 C605 1.387 . S
C604 H608 0.950 . S
C604 C613 1.390 1_545 S
C605 C604 1.387 . S
C605 C607 1.387 . S
H606 C613 0.950 . S
C607 C605 1.387 . S
C607 C609 1.390 1_545 S
C607 H611 0.950 . S
H608 C604 0.950 . S
C609 C607 1.390 1_565 S
C609 C610 1.387 . S
C609 H612 0.950 . S
C610 C609 1.387 . S
C610 C613 1.387 . S
H611 C607 0.950 . S
H612 C609 0.950 . S
C613 C604 1.390 1_565 S
C613 H606 0.950 . S
C613 C610 1.387 . S
C614 C615 1.387 . S
C614 H618 0.950 . S
C614 C623 1.390 1_565 S
C615 C614 1.387 . S
C615 C617 1.387 . S
H616 C623 0.950 . S
C617 C615 1.387 . S
C617 C619 1.390 1_565 S
C617 H621 0.950 . S
H618 C614 0.950 . S
C619 C617 1.390 1_545 S
C619 C620 1.387 . S
C619 H622 0.950 . S
C620 C619 1.387 . S
C620 C623 1.387 . S
H621 C617 0.950 . S
H622 C619 0.950 . S
C623 C614 1.390 1_545 S
C623 H616 0.950 . S
C623 C620 1.387 . S
C265 C5 1.457 . S
C270 C161 1.455 . S
C275 C94 1.455 . S
C280 C31 1.457 . S
C285 C53 1.457 . S
C290 C117 1.455 . S
C295 C71 1.455 . S
C300 C139 1.457 . S
C305 C75 1.457 . S
C310 C204 1.455 . S
C315 C9 1.455 . S
C320 C227 1.457 . S
C325 C248 1.455 . S
C330 C27 1.457 . S
C335 C49 1.455 . S
C340 C182 1.457 . S
C345 C93 1.455 . S
C350 C7 1.457 . S
C355 C119 1.457 . S
C360 C28 1.455 . S
C365 C141 1.457 . S
C370 C50 1.455 . S
C375 C73 1.457 . S
C380 C163 1.455 . S
C385 C72 1.455 . S
C390 C181 1.457 . S
C395 C6 1.457 . S
C400 C203 1.455 . S
C405 C229 1.455 . S
C410 C29 1.457 . S
C415 C247 1.455 . S
C420 C51 1.457 . S
C425 C95 1.457 . S
C430 C159 1.455 . S
C435 C207 1.455 . S
C440 C183 1.457 . S
C445 C205 1.457 . S
C450 C225 1.455 . S
C455 C251 1.457 . S
C460 C226 1.455 . S
C465 C249 1.457 . S
C470 C185 1.455 . S
C475 C138 1.457 . S
C480 C115 1.455 . S
C485 C137 1.455 . S
C490 C160 1.457 . S
C495 C97 1.457 . S
C500 C116 1.455 . S
C505 C70 1.531 . S
C510 C8 1.531 . S
C515 C4 1.531 . S
C520 C26 1.532 . S
C525 C30 1.532 . S
C530 C48 1.530 . S
C535 C74 1.532 . S
C540 C52 1.530 . S
C545 C224 1.531 . S
C550 C96 1.531 . S
C555 C250 1.532 . S
C560 C114 1.530 . S
C565 C136 1.531 . S
C570 C184 1.531 . S
C575 C206 1.532 . S
C580 C158 1.530 . S
C585 C162 1.532 . S
C590 C118 1.531 . S
C595 C246 1.532 . S
C600 C202 1.530 . S
C605 C228 1.531 . S
C610 C180 1.531 . S
C615 C140 1.531 . S
C620 C92 1.531 . S
