# Generated by pormake.
# Topology bsn, (6)-cn, num edge types: 1
# Building blocks:
#     Node 0, Type 0, BuildingBlock: JUFBIX_clean_sbu_0, # of connection points: 6
#     Node 1, Type 0, BuildingBlock: JUFBIX_clean_sbu_0, # of connection points: 6
#     Node 2, Type 0, BuildingBlock: JUFBIX_clean_sbu_0, # of connection points: 6
#     Node 3, Type 0, BuildingBlock: JUFBIX_clean_sbu_0, # of connection points: 6
#     Edge 4, Type (0, 0), BuildingBlock: TEMPAE_clean_linker_10, # of connection points: 2
#     Edge 5, Type (0, 0), BuildingBlock: TEMPAE_clean_linker_10, # of connection points: 2
#     Edge 6, Type (0, 0), BuildingBlock: TEMPAE_clean_linker_10, # of connection points: 2
#     Edge 7, Type (0, 0), BuildingBlock: TEMPAE_clean_linker_10, # of connection points: 2
#     Edge 8, Type (0, 0), BuildingBlock: TEMPAE_clean_linker_10, # of connection points: 2
#     Edge 9, Type (0, 0), BuildingBlock: TEMPAE_clean_linker_10, # of connection points: 2
#     Edge 10, Type (0, 0), BuildingBlock: TEMPAE_clean_linker_10, # of connection points: 2
#     Edge 11, Type (0, 0), BuildingBlock: TEMPAE_clean_linker_10, # of connection points: 2
#     Edge 12, Type (0, 0), BuildingBlock: TEMPAE_clean_linker_10, # of connection points: 2
#     Edge 13, Type (0, 0), BuildingBlock: TEMPAE_clean_linker_10, # of connection points: 2
#     Edge 14, Type (0, 0), BuildingBlock: TEMPAE_clean_linker_10, # of connection points: 2
#     Edge 15, Type (0, 0), BuildingBlock: TEMPAE_clean_linker_10, # of connection points: 2
# Relax obj value: 0.099
# Max RMSD: 0.163
# Mean RMSD: 0.163
data_MOF--net-bsn--node1-JUFBIX_clean_sbu_0--edge1-TEMPAE_clean_linker_10
_symmetry_space_group_name_H-M    P1
_symmetry_Int_Tables_number       1
_symmetry_cell_setting            triclinic
loop_
_symmetry_equiv_pos_as_xyz
'x, y, z'
_cell_length_a     29.408209
_cell_length_b     38.802661
_cell_length_c     15.024847
_cell_angle_alpha  87.418933
_cell_angle_beta   92.766356
_cell_angle_gamma 98.298031
loop_
_atom_site_label
_atom_site_type_symbol
_atom_site_fract_x
_atom_site_fract_y
_atom_site_fract_z
_atom_type_partial_charge
Co0 Co 0.02106 0.26469 0.30751 0.0
C1 C 0.02817 0.29207 0.47409 0.0
Co2 Co 0.03254 0.32279 0.30511 0.0
C3 C 0.02277 0.19065 0.35796 0.0
C4 C 0.97365 0.19925 0.25242 0.0
N5 N 1.00657 0.2162 0.30665 0.0
N6 N 1.00065 0.15863 0.33826 0.0
C7 C 0.96982 0.16408 0.27188 0.0
H8 H 0.0493 0.19548 0.4102 0.0
H9 H 0.95322 0.21177 0.20238 0.0
C10 C 0.02635 0.29546 0.13876 0.0
N11 N 0.04655 0.37139 0.30397 0.0
C12 C 0.02959 0.39509 0.35181 0.0
C13 C 0.07967 0.3903 0.25601 0.0
N14 N 0.05135 0.42786 0.33615 0.0
C15 C 0.08282 0.42483 0.27588 0.0
C16 C 0.11182 0.28986 0.30758 0.0
O17 O 0.02252 0.26656 0.18254 0.0
O18 O 0.03002 0.32387 0.17901 0.0
O19 O 0.09662 0.31898 0.30579 0.0
O20 O 0.08405 0.26163 0.31275 0.0
O21 O 0.03497 0.32097 0.43018 0.0
H22 H 0.1008 0.37955 0.21046 0.0
H23 H 1.00286 0.38831 0.39922 0.0
O24 O 0.02023 0.26365 0.43333 0.0
O25 O 0.958 0.26839 0.29937 0.0
O26 O 0.96837 0.32557 0.30283 0.0
C27 C 0.94153 0.29689 0.29687 0.0
H28 H 0.94623 0.14397 0.23947 0.0
H29 H 0.10651 0.44612 0.24814 0.0
Co30 Co 1.01778 0.7582 0.62632 0.0
C31 C 0.02405 0.78562 0.79278 0.0
Co32 Co 0.03083 0.81632 0.62385 0.0
C33 C 0.02048 0.68619 0.57656 0.0
C34 C 0.97663 0.68984 0.68437 0.0
N35 N 1.00483 0.7095 0.62774 0.0
N36 N 1.00348 0.65288 0.60006 0.0
C37 C 0.97595 0.6552 0.66794 0.0
H38 H 0.0444 0.69347 0.5241 0.0
H39 H 0.95764 0.70006 0.73461 0.0
C40 C 0.02528 0.78889 0.45764 0.0
N41 N 0.04413 0.8649 0.62485 0.0
C42 C 0.02801 0.89011 0.5722 0.0
C43 C 0.07318 0.88239 0.68509 0.0
N44 N 0.0455 0.92247 0.59845 0.0
C45 C 0.07387 0.91758 0.66941 0.0
C46 C 0.10951 0.78449 0.63774 0.0
O47 O 0.01979 0.75994 0.50153 0.0
O48 O 0.03001 0.8174 0.49796 0.0
O49 O 0.09395 0.81336 0.62951 0.0
O50 O 0.08206 0.75598 0.63619 0.0
O51 O 0.03154 0.81441 0.74909 0.0
H52 H 0.09257 0.87028 0.73766 0.0
H53 H 1.00329 0.88487 0.517 0.0
O54 O 1.01622 0.75729 0.75214 0.0
O55 O 0.95361 0.76139 0.61812 0.0
O56 O 0.96749 0.81862 0.62099 0.0
C57 C 0.93901 0.79068 0.62009 0.0
H58 H 0.95619 0.63337 0.70248 0.0
H59 H 0.09405 0.93807 0.70682 0.0
Co60 Co 0.52504 0.76589 0.80885 0.0
C61 C 0.53485 0.79333 -0.02649 0.0
Co62 Co 0.53557 0.82397 0.80227 0.0
C63 C 0.52733 0.69161 0.85903 0.0
C64 C 0.48228 0.70038 0.74673 0.0
N65 N 0.51184 0.7173 0.80709 0.0
N66 N 0.5089 0.65951 0.83211 0.0
C67 C 0.4806 0.6651 0.76155 0.0
H68 H 0.55206 0.69631 0.91443 0.0
H69 H 0.46296 0.71296 0.69491 0.0
C70 C 0.52656 0.79658 0.6377 0.0
N71 N 0.54785 0.87266 0.80069 0.0
C72 C 0.53339 0.89557 0.85469 0.0
C73 C 0.57338 0.89275 0.7406 0.0
N74 N 0.54853 0.92908 0.82972 0.0
C75 C 0.57366 0.92728 0.75792 0.0
C76 C 0.61541 0.79266 0.79918 0.0
O77 O 0.52469 0.76803 0.68277 0.0
O78 O 0.52974 0.82511 0.67687 0.0
O79 O 0.59911 0.82136 0.79521 0.0
O80 O 0.5889 0.76403 0.81066 0.0
O81 O 0.5412 0.82202 0.92833 0.0
H82 H 0.59058 0.88289 0.68712 0.0
H83 H 0.51143 0.88786 0.91004 0.0
O84 O 0.52616 0.76469 0.93393 0.0
O85 O 0.46117 0.76843 0.8059 0.0
O86 O 0.47199 0.8257 0.80616 0.0
C87 C 0.44493 0.79705 0.80483 0.0
H88 H 0.45965 0.64502 0.72401 0.0
H89 H 0.59136 0.9494 0.72096 0.0
Co90 Co 0.51393 0.25734 0.12739 0.0
C91 C 0.52175 0.28539 0.29142 0.0
Co92 Co 0.52628 0.31541 0.12011 0.0
C93 C 0.51751 0.18504 0.08241 0.0
C94 C 0.46691 0.18975 0.17718 0.0
N95 N 0.50002 0.20873 0.12935 0.0
N96 N 0.49615 0.15217 0.09851 0.0
C97 C 0.46435 0.15516 0.15821 0.0
H98 H 0.54441 0.19189 0.03537 0.0
H99 H 0.44544 0.20047 0.22213 0.0
C100 C 0.51786 0.28725 0.9561 0.0
N101 N 0.54117 0.3639 0.11946 0.0
C102 C 0.52454 0.38961 0.06947 0.0
C103 C 0.57559 0.38058 0.17092 0.0
N104 N 0.54783 0.42146 0.08736 0.0
C105 C 0.57984 0.41573 0.15123 0.0
C106 C 0.60528 0.28278 0.12993 0.0
O107 O 0.51454 0.25865 0.00168 0.0
O108 O 0.5224 0.31606 -0.00512 0.0
O109 O 0.5897 0.31159 0.11894 0.0
O110 O 0.57761 0.25448 0.13552 0.0
O111 O 0.52972 0.31392 0.24635 0.0
H112 H 0.59691 0.36787 0.21894 0.0
H113 H 0.49693 0.385 0.01922 0.0
O114 O 0.5133 0.25677 0.25221 0.0
O115 O 0.45047 0.26112 0.12233 0.0
O116 O 0.46278 0.31848 0.12236 0.0
C117 C 0.43516 0.29008 0.12444 0.0
H118 H 0.44087 0.13382 0.18627 0.0
H119 H 0.60464 0.43562 0.18158 0.0
C120 C 0.99993 0.46641 0.39247 0.0
C121 C 0.04432 0.45963 0.37673 0.0
C122 C 0.99284 0.49826 0.42728 0.0
C123 C 0.03116 0.52358 0.44887 0.0
C124 C 0.0761 0.51644 0.43481 0.0
C125 C 0.08206 0.48479 0.39813 0.0
C126 C 0.94434 0.50501 0.43982 0.0
C127 C 0.11798 0.54217 0.45898 0.0
C128 C 1.01571 0.61901 0.46964 0.0
C129 C 1.0122 0.62107 0.56191 0.0
C130 C 0.02127 0.58739 0.43173 0.0
C131 C 0.02444 0.55729 0.48764 0.0
C132 C 0.02193 0.55952 0.58106 0.0
C133 C 1.01539 0.59122 0.61682 0.0
C134 C 0.02305 0.58604 0.33175 0.0
C135 C 0.02634 0.52845 0.64344 0.0
H136 H 0.97072 0.44716 0.3752 0.0
H137 H 0.11645 0.47944 0.38705 0.0
H138 H 0.93964 0.50939 0.51103 0.0
H139 H 0.9379 0.52904 0.40131 0.0
H140 H 0.91825 0.48305 0.41802 0.0
H141 H 0.15058 0.53237 0.44567 0.0
H142 H 0.11684 0.56712 0.42046 0.0
H143 H 0.11824 0.54792 0.53071 0.0
H144 H 1.01277 0.64192 0.42699 0.0
H145 H 1.01321 0.59282 0.68825 0.0
H146 H 0.99527 0.56601 0.30628 0.0
H147 H 0.05621 0.57832 0.31385 0.0
H148 H 0.01921 0.61149 0.29743 0.0
H149 H 0.99848 0.50685 0.62774 0.0
H150 H 0.02464 0.53468 0.71454 0.0
H151 H 0.05949 0.51885 0.63419 0.0
C152 C 0.69217 0.77262 0.82121 0.0
C153 C 0.66264 0.79237 0.77279 0.0
C154 C 0.73693 0.77197 0.79337 0.0
C155 C 0.75128 0.79029 0.71341 0.0
C156 C 0.72072 0.80925 0.66288 0.0
C157 C 0.67701 0.8106 0.6942 0.0
C158 C 0.76912 0.75229 0.85018 0.0
C159 C 0.7341 0.82801 0.57569 0.0
C160 C 0.87834 0.81903 0.68409 0.0
C161 C 0.8902 0.79199 0.63513 0.0
C162 C 0.83326 0.81862 0.71039 0.0
C163 C 0.79895 0.79105 0.68466 0.0
C164 C 0.81029 0.76439 0.63199 0.0
C165 C 0.85611 0.76484 0.6091 0.0
C166 C 0.8227 0.84711 0.76818 0.0
C167 C 0.77418 0.73526 0.60072 0.0
H168 H 0.68055 0.75833 0.88155 0.0
H169 H 0.65344 0.82516 0.65581 0.0
H170 H 0.7808 0.73191 0.81102 0.0
H171 H 0.80018 0.77036 0.87106 0.0
H172 H 0.75274 0.7397 0.91079 0.0
H173 H 0.70494 0.83911 0.54109 0.0
H174 H 0.76262 0.84951 0.58781 0.0
H175 H 0.74668 0.80988 0.53066 0.0
H176 H 0.9048 0.83979 0.7055 0.0
H177 H 0.86533 0.74392 0.57129 0.0
H178 H 0.80871 0.83551 0.83181 0.0
H179 H 0.79602 0.86115 0.73443 0.0
H180 H 0.85357 0.86633 0.78366 0.0
H181 H 0.76027 0.71925 0.6589 0.0
H182 H 0.78804 0.71799 0.555 0.0
H183 H 0.74501 0.74616 0.5658 0.0
C184 C 0.58039 0.47986 0.03014 0.0
C185 C 0.54184 0.45492 0.04621 0.0
C186 C 0.57564 0.51334 -0.005 0.0
C187 C 0.53114 0.52246 -0.02333 0.0
C188 C 0.49199 0.49729 -0.00786 0.0
C189 C 0.49783 0.46367 0.02591 0.0
C190 C 0.61831 0.53897 -0.02255 0.0
C191 C 0.44395 0.50608 -0.0256 0.0
C192 C 0.5207 0.61954 0.96148 0.0
C193 C 0.51683 0.62583 0.86906 0.0
C194 C 0.52471 0.58592 -0.00239 0.0
C195 C 0.52581 0.55814 0.93981 0.0
C196 C 0.52297 0.56465 0.84639 0.0
C197 C 0.51815 0.59827 0.81232 0.0
C198 C 0.5271 0.57999 0.09758 0.0
C199 C 0.52511 0.5361 0.78228 0.0
H200 H 0.61447 0.473 0.0447 0.0
H201 H 0.46804 0.44453 0.03905 0.0
H202 H 0.6181 0.54797 0.9063 0.0
H203 H 0.6188 0.56228 0.01778 0.0
H204 H 0.6504 0.52755 -0.00643 0.0
H205 H 0.41714 0.48378 -0.00912 0.0
H206 H 0.43894 0.52848 0.0144 0.0
H207 H 0.43897 0.51405 0.90318 0.0
H208 H 0.51916 0.64071 0.00538 0.0
H209 H 0.51566 0.60317 0.74082 0.0
H210 H 0.5598 0.57037 0.11892 0.0
H211 H 0.49863 0.55962 0.11803 0.0
H212 H 0.52482 0.60409 0.13334 0.0
H213 H 0.55766 0.52499 0.79453 0.0
H214 H 0.52303 0.54556 0.71151 0.0
H215 H 0.49645 0.51462 0.79324 0.0
C216 C 0.86595 0.31823 0.31174 0.0
C217 C 0.89239 0.2961 0.27337 0.0
C218 C 0.81872 0.31623 0.28913 0.0
C219 C 0.79843 0.2925 0.2245 0.0
C220 C 0.82556 0.2709 0.18395 0.0
C221 C 0.87204 0.2726 0.20994 0.0
C222 C 0.79039 0.33899 0.33529 0.0
C223 C 0.8056 0.2461 0.11274 0.0
C224 C 0.67037 0.26069 0.21429 0.0
C225 C 0.65483 0.28314 0.14779 0.0
C226 C 0.71698 0.2641 0.24168 0.0
C227 C 0.74875 0.2898 0.19926 0.0
C228 C 0.73332 0.31182 0.13006 0.0
C229 C 0.68628 0.30863 0.10624 0.0
C230 C 0.73208 0.24071 0.31713 0.0
C231 C 0.76645 0.33866 0.08117 0.0
H232 H 0.88193 0.33635 0.36077 0.0
H233 H 0.89285 0.25593 0.17912 0.0
H234 H 0.7746 0.35618 0.28557 0.0
H235 H 0.76187 0.32248 0.36933 0.0
H236 H 0.81118 0.35548 0.3853 0.0
H237 H 0.83203 0.23235 0.08494 0.0
H238 H 0.77841 0.22632 0.14062 0.0
H239 H 0.78929 0.26053 0.05742 0.0
H240 H 0.64577 0.24148 0.24766 0.0
H241 H 0.67401 0.32609 0.05512 0.0
H242 H 0.75025 0.25674 0.37087 0.0
H243 H 0.75668 0.22442 0.29319 0.0
H244 H 0.70268 0.22323 0.34589 0.0
H245 H 0.78445 0.3577 0.1285 0.0
H246 H 0.74894 0.35308 0.02735 0.0
H247 H 0.79311 0.3258 0.05131 0.0
C248 C 0.37002 0.2679 0.2179 0.0
C249 C 0.3873 0.28999 0.1474 0.0
C250 C 0.32582 0.2687 0.24728 0.0
C251 C 0.29768 0.29121 0.20266 0.0
C252 C 0.31474 0.3132 0.13017 0.0
C253 C 0.36 0.3129 0.10458 0.0
C254 C 0.3095 0.24576 0.32672 0.0
C255 C 0.28505 0.33665 0.07921 0.0
C256 C 0.16983 0.26475 0.22722 0.0
C257 C 0.15991 0.2889 0.28737 0.0
C258 C 0.21435 0.26587 0.19724 0.0
C259 C 0.25003 0.29093 0.23093 0.0
C260 C 0.24039 0.31485 0.29355 0.0
C261 C 0.19505 0.31403 0.31966 0.0
C262 C 0.22299 0.24068 0.12824 0.0
C263 C 0.27793 0.34114 0.33315 0.0
H264 H 0.39178 0.25075 0.25214 0.0
H265 H 0.37379 0.33006 0.05039 0.0
H266 H 0.29774 0.26175 0.37811 0.0
H267 H 0.27972 0.22643 0.30624 0.0
H268 H 0.33685 0.23151 0.35741 0.0
H269 H 0.30304 0.35128 0.02278 0.0
H270 H 0.25317 0.32092 0.0526 0.0
H271 H 0.27449 0.3556 0.12438 0.0
H272 H 0.14228 0.24587 0.20061 0.0
H273 H 0.18704 0.33285 0.3656 0.0
H274 H 0.24739 0.22334 0.1563 0.0
H275 H 0.23903 0.25521 0.06974 0.0
H276 H 0.19089 0.22423 0.10501 0.0
H277 H 0.30546 0.32756 0.36552 0.0
H278 H 0.26491 0.35706 0.3833 0.0
H279 H 0.29383 0.35887 0.27975 0.0
C280 C 0.36443 0.76995 0.8287 0.0
C281 C 0.39523 0.79675 0.79039 0.0
C282 C 0.31716 0.76719 0.80733 0.0
C283 C 0.30091 0.791 0.74356 0.0
C284 C 0.33202 0.81819 0.70494 0.0
C285 C 0.37885 0.8211 0.73011 0.0
C286 C 0.28471 0.73872 0.85241 0.0
C287 C 0.31606 0.84355 0.63511 0.0
C288 C 0.18552 0.76424 0.6232 0.0
C289 C 0.15809 0.78484 0.66435 0.0
C290 C 0.23243 0.76603 0.64812 0.0
C291 C 0.25127 0.78787 0.71789 0.0
C292 C 0.22296 0.80765 0.76168 0.0
C293 C 0.17684 0.80635 0.73319 0.0
C294 C 0.26203 0.7453 0.59853 0.0
C295 C 0.24135 0.83025 0.83838 0.0
H296 H 0.37739 0.75111 0.87518 0.0
H297 H 0.40298 0.84142 0.69933 0.0
H298 H 0.25722 0.75011 0.88393 0.0
H299 H 0.26771 0.72044 0.80227 0.0
H300 H 0.30263 0.72368 0.90429 0.0
H301 H 0.34493 0.86255 0.60978 0.0
H302 H 0.29854 0.8291 0.57805 0.0
H303 H 0.29069 0.85818 0.66309 0.0
H304 H 0.17062 0.74764 0.57004 0.0
H305 H 0.15506 0.8218 0.76582 0.0
H306 H 0.27812 0.72729 0.64553 0.0
H307 H 0.29032 0.76319 0.56755 0.0
H308 H 0.24213 0.72983 0.5455 0.0
H309 H 0.25848 0.81473 0.89025 0.0
H310 H 0.21383 0.84181 0.86951 0.0
H311 H 0.26756 0.85172 0.81466 0.0
C312 C 0.53828 0.96251 0.96214 0.0
C313 C 0.53967 0.96057 0.86938 0.0
C314 C 0.53209 0.99377 0.00121 0.0
C315 C 0.52615 1.0236 0.94609 0.0
C316 C 0.52663 1.02147 0.85228 0.0
C317 C 0.5338 0.99016 0.81527 0.0
C318 C 0.53248 0.99502 0.1015 0.0
C319 C 0.51933 0.05225 0.79082 0.0
C320 C 0.46685 0.09423 0.04049 0.0
C321 C 0.50391 0.12039 0.05877 0.0
C322 C 0.47359 0.06276 0.00375 0.0
C323 C 0.51866 0.05688 -0.01391 0.0
C324 C 0.5563 0.08316 0.00471 0.0
C325 C 0.54842 0.11473 0.03994 0.0
C326 C 0.43235 1.03592 -0.01692 0.0
C327 C 0.60495 0.07779 -0.01186 0.0
H328 H 0.54326 0.93982 0.00416 0.0
H329 H 0.53428 0.98864 0.74351 0.0
H330 H 0.55985 1.01578 0.12491 0.0
H331 H 0.49925 1.00165 0.12249 0.0
H332 H 0.5384 0.96985 0.13504 0.0
H333 H 0.51987 0.04617 0.71936 0.0
H334 H 0.4858 0.06075 0.80303 0.0
H335 H 0.54647 0.07456 0.80467 0.0
H336 H 0.43232 0.09865 0.0538 0.0
H337 H 0.57716 0.13472 0.05477 0.0
H338 H 0.43574 1.01112 0.02079 0.0
H339 H 0.43057 1.03031 0.91112 0.0
H340 H 0.39954 0.0446 -2e-05 0.0
H341 H 0.61326 0.05402 0.02552 0.0
H342 H 0.63054 0.1003 0.00844 0.0
H343 H 0.60841 0.07371 0.91633 0.0
C344 C 0.03317 0.96179 0.46814 0.0
C345 C 0.03633 0.95573 0.5607 0.0
C346 C 0.02792 0.99507 0.43121 0.0
C347 C 0.02472 1.02269 0.48832 0.0
C348 C 0.02665 1.01634 0.58187 0.0
C349 C 0.03289 0.98309 0.61678 0.0
C350 C 0.02666 1.00086 0.33117 0.0
C351 C 0.02215 0.04468 0.6452 0.0
C352 C 0.05108 0.11732 0.40283 0.0
C353 C 1.00697 0.12527 0.37957 0.0
C354 C 0.05748 0.08391 0.43726 0.0
C355 C 0.01873 0.05813 0.45055 0.0
C356 C 0.97406 0.06641 0.42909 0.0
C357 C 0.9688 0.09971 0.39315 0.0
C358 C 0.1057 0.07601 0.45812 0.0
C359 C 0.93176 1.04011 0.44427 0.0
H360 H 0.03631 0.94075 0.4248 0.0
H361 H 0.03483 0.97832 0.68838 0.0
H362 H 0.99383 1.00988 0.308 0.0
H363 H 0.05488 1.02162 0.31181 0.0
H364 H 0.03018 0.97685 0.29604 0.0
H365 H 0.02311 1.03524 0.71608 0.0
H366 H 0.05041 0.06662 0.63613 0.0
H367 H 0.98931 0.05515 0.63032 0.0
H368 H 0.0806 0.13694 0.39153 0.0
H369 H 0.93462 0.10595 0.37618 0.0
H370 H 0.11206 0.05363 0.41932 0.0
H371 H 0.10984 0.06837 0.52976 0.0
H372 H 0.13218 0.09864 0.44249 0.0
H373 H 0.93275 1.01687 0.40446 0.0
H374 H 0.89945 0.05091 0.42585 0.0
H375 H 0.93103 1.03117 0.51545 0.0
C376 C 0.99841 0.31367 -0.01143 0.0
C377 C 0.02813 0.29578 0.04206 0.0
C378 C 0.99839 0.31254 0.89558 0.0
C379 C 0.03007 0.29416 0.85636 0.0
C380 C 0.0611 0.27691 0.91069 0.0
C381 C 0.05909 0.27737 0.0034 0.0
C382 C 0.96404 0.33042 0.83946 0.0
C383 C 0.09642 0.25815 0.87102 0.0
C384 C 1.0047 0.2645 0.62052 0.0
C385 C 0.02968 0.29184 0.5718 0.0
C386 C 1.00438 0.26496 0.71362 0.0
C387 C 0.03066 0.29296 0.75836 0.0
C388 C 0.057 0.32012 0.70949 0.0
C389 C 0.05567 0.31946 0.61643 0.0
C390 C 0.97521 0.23594 0.7639 0.0
C391 C 0.08647 0.34983 0.75542 0.0
H392 H 0.97434 0.32762 0.01961 0.0
H393 H 0.08222 0.26382 0.04589 0.0
H394 H 0.98227 0.35086 0.79485 0.0
H395 H 0.94275 0.3113 0.79635 0.0
H396 H 0.94087 0.34267 0.88069 0.0
H397 H 0.11972 0.24785 0.92285 0.0
H398 H 0.07897 0.23609 0.83197 0.0
H399 H 0.11751 0.27606 0.82442 0.0
H400 H 0.98444 0.24324 0.5857 0.0
H401 H 0.07539 0.34043 0.57855 0.0
H402 H 0.94975 0.24691 0.80237 0.0
H403 H 0.99704 0.22262 0.81253 0.0
H404 H 0.95648 0.21625 0.71885 0.0
H405 H 0.06448 0.36499 0.79148 0.0
H406 H 0.10685 0.36782 0.70776 0.0
H407 H 0.11047 0.3395 0.80566 0.0
C408 C 0.99205 0.76361 0.93732 0.0
C409 C 0.02535 0.78536 0.88999 0.0
C410 C 0.99183 0.76451 0.03033 0.0
C411 C 0.0268 0.78673 0.0762 0.0
C412 C 0.06132 0.80797 0.0284 0.0
C413 C 0.05962 0.80752 0.93531 0.0
C414 C 0.95379 0.74225 0.07927 0.0
C415 C 0.10005 0.831 0.07548 0.0
C416 C 1.00653 0.81394 0.30786 0.0
C417 C 0.02663 0.7891 0.36049 0.0
C418 C 1.0058 0.81321 0.21473 0.0
C419 C 0.0272 0.78782 0.17432 0.0
C420 C 0.04873 0.76333 0.22754 0.0
C421 C 0.04742 0.76387 0.32035 0.0
C422 C 0.98141 0.83907 0.15969 0.0
C423 C 0.07329 0.73671 0.18655 0.0
H424 H 0.96545 0.74672 0.90135 0.0
H425 H 0.08555 0.82404 0.89786 0.0
H426 H 0.96844 0.72365 0.12675 0.0
H427 H 0.93543 0.75895 0.11886 0.0
H428 H 0.92845 0.72725 0.0332 0.0
H429 H 0.12561 0.84427 0.0285 0.0
H430 H 0.08608 0.85115 0.11175 0.0
H431 H 0.11801 0.8153 0.12566 0.0
H432 H 0.99021 0.83324 0.33958 0.0
H433 H 0.06332 0.7449 0.36173 0.0
H434 H 0.95412 0.82498 0.1158 0.0
H435 H 1.00592 0.85536 0.11587 0.0
H436 H 0.96548 0.8565 0.20171 0.0
H437 H 0.04852 0.71898 0.14577 0.0
H438 H 0.09037 0.72078 0.23768 0.0
H439 H 0.09964 0.74998 0.14131 0.0
C440 C 0.51206 0.76564 0.12002 0.0
C441 C 0.5361 0.79346 0.07127 0.0
C442 C 0.51081 0.76629 0.2129 0.0
C443 C 0.53515 0.79506 0.25768 0.0
C444 C 0.56054 0.82279 0.20896 0.0
C445 C 0.5602 0.82187 0.1159 0.0
C446 C 0.48268 0.7366 0.26286 0.0
C447 C 0.58793 0.85338 0.25505 0.0
C448 C 0.49851 0.8137 0.48651 0.0
C449 C 0.52869 0.79662 0.54106 0.0
C450 C 0.49995 0.81314 0.39357 0.0
C451 C 0.53356 0.79625 0.35559 0.0
C452 C 0.56507 0.77993 0.41108 0.0
C453 C 0.56164 0.77975 0.5036 0.0
C454 C 0.46509 0.83 0.33616 0.0
C455 C 0.60236 0.76278 0.37286 0.0
H456 H 0.49316 0.74378 0.08533 0.0
H457 H 0.57908 0.84328 0.07808 0.0
H458 H 0.505 0.7241 0.31227 0.0
H459 H 0.45615 0.74673 0.30039 0.0
H460 H 0.4653 0.7164 0.21773 0.0
H461 H 0.60776 0.87186 0.20766 0.0
H462 H 0.56454 0.86771 0.29 0.0
H463 H 0.61225 0.84403 0.30627 0.0
H464 H 0.47311 0.82665 0.51662 0.0
H465 H 0.5853 0.76705 0.5469 0.0
H466 H 0.44514 0.81043 0.29242 0.0
H467 H 0.48284 0.8509 0.29215 0.0
H468 H 0.44072 0.84143 0.37644 0.0
H469 H 0.58671 0.74022 0.33361 0.0
H470 H 0.62604 0.75349 0.42555 0.0
H471 H 0.62279 0.78138 0.32675 0.0
C472 C 0.55291 0.30852 0.43623 0.0
C473 C 0.52062 0.28566 0.3884 0.0
C474 C 0.55231 0.30883 0.52924 0.0
C475 C 0.51752 0.28665 0.57419 0.0
C476 C 0.48407 0.26416 0.52558 0.0
C477 C 0.48658 0.26348 0.43296 0.0
C478 C 0.58924 0.33241 0.57942 0.0
C479 C 0.44559 0.24105 0.57121 0.0
C480 C 0.53835 0.26223 0.8174 0.0
C481 C 0.51714 0.28691 0.85879 0.0
C482 C 0.53915 0.26211 0.72442 0.0
C483 C 0.51675 0.28646 0.67238 0.0
C484 C 0.49423 0.31087 0.71407 0.0
C485 C 0.49546 0.31123 0.80727 0.0
C486 C 0.56462 0.23639 0.68201 0.0
C487 C 0.46865 0.33637 0.66033 0.0
H488 H 0.57922 0.32555 0.40096 0.0
H489 H 0.46128 0.24621 0.39503 0.0
H490 H 0.57347 0.35103 0.61778 0.0
H491 H 0.60806 0.31669 0.62812 0.0
H492 H 0.61437 0.34745 0.53431 0.0
H493 H 0.4206 0.22698 0.52285 0.0
H494 H 0.45994 0.22158 0.61648 0.0
H495 H 0.4269 0.25686 0.6127 0.0
H496 H 0.55535 0.24362 0.85787 0.0
H497 H 0.47872 0.33004 0.83996 0.0
H498 H 0.59148 0.25054 0.63916 0.0
H499 H 0.54062 0.21918 0.63851 0.0
H500 H 0.58127 0.21984 0.73231 0.0
H501 H 0.4929 0.35416 0.61916 0.0
H502 H 0.45084 0.35231 0.70324 0.0
H503 H 0.44277 0.32216 0.61393 0.0
loop_
_geom_bond_atom_site_label_1
_geom_bond_atom_site_label_2
_geom_bond_distance
_geom_bond_site_symmetry_2
_ccdc_geom_bond_type
Co0 N5 2.057 . S
Co0 O17 2.021 . S
Co0 O20 2.062 1_655 S
Co0 O24 2.117 1_655 S
Co0 O25 2.020 . S
C1 O21 1.259 . S
C1 O24 1.258 . S
Co2 N11 2.057 . S
Co2 O18 2.117 . S
Co2 O19 2.020 . S
Co2 O21 2.021 . S
Co2 O26 2.062 1_455 S
C3 N5 1.311 1_455 S
C3 N6 1.350 . S
C3 H8 0.933 . S
C4 N5 1.375 . S
C4 C7 1.350 . S
C4 H9 0.930 . S
N5 Co0 2.057 . S
N5 C3 1.311 1_655 S
N5 C4 1.375 . S
N6 C3 1.350 . S
N6 C7 1.373 1_455 S
C7 C4 1.350 . S
C7 N6 1.373 1_655 S
C7 H28 0.931 . S
H8 C3 0.933 . S
H9 C4 0.930 . S
C10 O17 1.259 1_455 S
C10 O18 1.258 . S
N11 Co2 2.057 . S
N11 C12 1.316 . S
N11 C13 1.375 . S
C12 N11 1.316 . S
C12 N14 1.347 . S
C12 H23 0.931 . S
C13 N11 1.375 . S
C13 C15 1.350 . S
C13 H22 0.930 . S
N14 C12 1.347 . S
N14 C15 1.373 . S
C15 C13 1.350 . S
C15 N14 1.373 . S
C15 H29 0.931 . S
C16 O19 1.256 . S
C16 O20 1.255 . S
O17 Co0 2.021 . S
O17 C10 1.259 1_655 S
O18 Co2 2.117 . S
O18 C10 1.258 . S
O19 Co2 2.020 . S
O19 C16 1.256 . S
O20 Co0 2.062 1_455 S
O20 C16 1.255 . S
O21 C1 1.259 . S
O21 Co2 2.021 . S
H22 C13 0.930 . S
H23 C12 0.931 . S
O24 Co0 2.117 1_455 S
O24 C1 1.258 . S
O25 Co0 2.020 . S
O25 C27 1.256 . S
O26 Co2 2.062 1_655 S
O26 C27 1.255 . S
C27 O25 1.256 . S
C27 O26 1.255 . S
H28 C7 0.931 . S
H29 C15 0.931 . S
Co30 N35 2.057 . S
Co30 O47 2.021 . S
Co30 O50 2.062 1_655 S
Co30 O54 2.117 1_655 S
Co30 O55 2.020 . S
C31 O51 1.259 . S
C31 O54 1.258 . S
Co32 N41 2.057 . S
Co32 O48 2.117 . S
Co32 O49 2.020 . S
Co32 O51 2.021 . S
Co32 O56 2.062 1_455 S
C33 N35 1.316 . S
C33 N36 1.347 1_655 S
C33 H38 0.928 1_655 S
C34 N35 1.375 . S
C34 C37 1.350 . S
C34 H39 0.930 . S
N35 Co30 2.057 . S
N35 C33 1.316 . S
N35 C34 1.375 . S
N36 C33 1.347 1_455 S
N36 C37 1.374 1_455 S
C37 C34 1.350 . S
C37 N36 1.374 1_655 S
C37 H58 0.931 . S
H38 C33 0.928 1_455 S
H39 C34 0.930 . S
C40 O47 1.259 1_455 S
C40 O48 1.258 . S
N41 Co32 2.057 . S
N41 C42 1.316 . S
N41 C43 1.375 . S
C42 N41 1.316 . S
C42 N44 1.347 . S
C42 H53 0.931 . S
C43 N41 1.375 . S
C43 C45 1.350 . S
C43 H52 0.930 . S
N44 C42 1.347 . S
N44 C45 1.373 . S
C45 C43 1.350 . S
C45 N44 1.373 . S
C45 H59 0.931 . S
C46 O49 1.256 . S
C46 O50 1.255 . S
O47 Co30 2.021 . S
O47 C40 1.259 1_655 S
O48 Co32 2.117 . S
O48 C40 1.258 . S
O49 Co32 2.020 . S
O49 C46 1.256 . S
O50 Co30 2.062 1_455 S
O50 C46 1.255 . S
O51 C31 1.259 . S
O51 Co32 2.021 . S
H52 C43 0.930 . S
H53 C42 0.931 . S
O54 Co30 2.117 1_455 S
O54 C31 1.258 . S
O55 Co30 2.020 . S
O55 C57 1.256 . S
O56 Co32 2.062 1_655 S
O56 C57 1.255 . S
C57 O55 1.256 . S
C57 O56 1.255 . S
H58 C37 0.931 . S
H59 C45 0.931 . S
Co60 N65 2.057 . S
Co60 O77 2.021 . S
Co60 O80 2.062 . S
Co60 O84 2.117 1_556 S
Co60 O85 2.020 . S
C61 O81 1.259 . S
C61 O84 1.258 . S
Co62 N71 2.057 . S
Co62 O78 2.117 . S
Co62 O79 2.020 . S
Co62 O81 2.021 1_556 S
Co62 O86 2.062 . S
C63 N65 1.316 . S
C63 N66 1.347 . S
C63 H68 0.931 . S
C64 N65 1.375 . S
C64 C67 1.350 . S
C64 H69 0.930 1_556 S
N65 Co60 2.057 . S
N65 C63 1.316 . S
N65 C64 1.375 . S
N66 C63 1.347 . S
N66 C67 1.373 . S
C67 C64 1.350 . S
C67 N66 1.373 . S
C67 H88 0.931 1_556 S
H68 C63 0.931 . S
H69 C64 0.930 1_554 S
C70 O77 1.259 . S
C70 O78 1.258 . S
N71 Co62 2.057 . S
N71 C72 1.316 . S
N71 C73 1.375 . S
C72 N71 1.316 . S
C72 N74 1.347 . S
C72 H83 0.931 . S
C73 N71 1.375 . S
C73 C75 1.350 . S
C73 H82 0.930 . S
N74 C72 1.347 . S
N74 C75 1.373 . S
C75 C73 1.350 . S
C75 N74 1.373 . S
C75 H89 0.931 . S
C76 O79 1.256 . S
C76 O80 1.255 . S
O77 Co60 2.021 . S
O77 C70 1.259 . S
O78 Co62 2.117 . S
O78 C70 1.258 . S
O79 Co62 2.020 . S
O79 C76 1.256 . S
O80 Co60 2.062 . S
O80 C76 1.255 . S
O81 C61 1.259 . S
O81 Co62 2.021 1_554 S
H82 C73 0.930 . S
H83 C72 0.931 . S
O84 Co60 2.117 1_554 S
O84 C61 1.258 . S
O85 Co60 2.020 . S
O85 C87 1.256 . S
O86 Co62 2.062 . S
O86 C87 1.255 . S
C87 O85 1.256 . S
C87 O86 1.255 . S
H88 C67 0.931 1_554 S
H89 C75 0.931 . S
Co90 N95 2.057 . S
Co90 O107 2.021 1_554 S
Co90 O110 2.062 . S
Co90 O114 2.117 . S
Co90 O115 2.020 . S
C91 O111 1.259 . S
C91 O114 1.258 . S
Co92 N101 2.057 . S
Co92 O108 2.117 1_554 S
Co92 O109 2.020 . S
Co92 O111 2.021 . S
Co92 O116 2.062 . S
C93 N95 1.316 . S
C93 N96 1.347 . S
C93 H98 0.931 . S
C94 N95 1.375 . S
C94 C97 1.350 . S
C94 H99 0.930 . S
N95 Co90 2.057 . S
N95 C93 1.316 . S
N95 C94 1.375 . S
N96 C93 1.347 . S
N96 C97 1.373 . S
C97 C94 1.350 . S
C97 N96 1.373 . S
C97 H118 0.931 . S
H98 C93 0.931 . S
H99 C94 0.930 . S
C100 O107 1.259 . S
C100 O108 1.258 . S
N101 Co92 2.057 . S
N101 C102 1.316 . S
N101 C103 1.375 . S
C102 N101 1.316 . S
C102 N104 1.347 . S
C102 H113 0.931 . S
C103 N101 1.375 . S
C103 C105 1.350 . S
C103 H112 0.930 1_554 S
N104 C102 1.347 . S
N104 C105 1.373 . S
C105 C103 1.350 . S
C105 N104 1.373 . S
C105 H119 0.931 1_554 S
C106 O109 1.256 . S
C106 O110 1.255 . S
O107 Co90 2.021 1_556 S
O107 C100 1.259 . S
O108 Co92 2.117 1_556 S
O108 C100 1.258 . S
O109 Co92 2.020 . S
O109 C106 1.256 . S
O110 Co90 2.062 . S
O110 C106 1.255 . S
O111 C91 1.259 . S
O111 Co92 2.021 . S
H112 C103 0.930 1_556 S
H113 C102 0.931 . S
O114 Co90 2.117 . S
O114 C91 1.258 . S
O115 Co90 2.020 . S
O115 C117 1.256 . S
O116 Co92 2.062 . S
O116 C117 1.255 . S
C117 O115 1.256 . S
C117 O116 1.255 . S
H118 C97 0.931 . S
H119 C105 0.931 1_556 S
C120 C121 1.391 1_655 S
C120 C122 1.394 . S
C120 H136 0.931 . S
C121 C120 1.391 1_455 S
C121 C125 1.376 . S
C122 C120 1.394 . S
C122 C123 1.369 1_655 S
C122 C126 1.531 . S
C123 C122 1.369 1_455 S
C123 C124 1.410 . S
C123 C131 1.503 . S
C124 C123 1.410 . S
C124 C125 1.392 . S
C124 C127 1.511 . S
C125 C121 1.376 . S
C125 C124 1.392 . S
C125 H137 0.929 . S
C126 C122 1.531 . S
C126 H138 0.960 . S
C126 H139 0.962 . S
C126 H140 0.960 . S
C127 C124 1.511 . S
C127 H141 0.961 . S
C127 H142 0.961 . S
C127 H143 0.961 . S
C128 C129 1.370 1_655 S
C128 C130 1.366 . S
C128 H144 0.931 . S
C129 C128 1.370 1_455 S
C129 C133 1.408 . S
C130 C128 1.366 . S
C130 C131 1.366 1_655 S
C130 C134 1.526 . S
C131 C123 1.503 . S
C131 C130 1.366 1_455 S
C131 C132 1.403 . S
C132 C131 1.403 . S
C132 C133 1.404 . S
C132 C135 1.539 . S
C133 C129 1.408 . S
C133 C132 1.404 . S
C133 H145 0.930 . S
C134 C130 1.526 . S
C134 H146 0.956 . S
C134 H147 0.961 1_655 S
C134 H148 0.961 . S
C135 C132 1.539 . S
C135 H149 0.956 . S
C135 H150 0.961 . S
C135 H151 0.960 . S
H136 C120 0.931 . S
H137 C125 0.929 . S
H138 C126 0.960 . S
H139 C126 0.962 . S
H140 C126 0.960 . S
H141 C127 0.961 . S
H142 C127 0.961 . S
H143 C127 0.961 . S
H144 C128 0.931 . S
H145 C133 0.930 . S
H146 C134 0.956 . S
H147 C134 0.961 1_455 S
H148 C134 0.961 . S
H149 C135 0.956 . S
H150 C135 0.961 . S
H151 C135 0.960 . S
C152 C153 1.391 . S
C152 C154 1.394 . S
C152 H168 0.931 . S
C153 C152 1.391 . S
C153 C157 1.376 . S
C154 C152 1.394 . S
C154 C155 1.369 . S
C154 C158 1.531 . S
C155 C154 1.369 . S
C155 C156 1.410 . S
C155 C163 1.503 . S
C156 C155 1.410 . S
C156 C157 1.392 . S
C156 C159 1.511 . S
C157 C153 1.376 . S
C157 C156 1.392 . S
C157 H169 0.929 . S
C158 C154 1.531 . S
C158 H170 0.960 . S
C158 H171 0.962 . S
C158 H172 0.960 . S
C159 C156 1.511 . S
C159 H173 0.961 . S
C159 H174 0.961 . S
C159 H175 0.961 . S
C160 C161 1.370 . S
C160 C162 1.363 . S
C160 H176 0.931 . S
C161 C160 1.370 . S
C161 C165 1.408 . S
C162 C160 1.363 . S
C162 C163 1.370 . S
C162 C166 1.524 . S
C163 C155 1.503 . S
C163 C162 1.370 . S
C163 C164 1.403 . S
C164 C163 1.403 . S
C164 C165 1.404 . S
C164 C167 1.539 . S
C165 C161 1.408 . S
C165 C164 1.404 . S
C165 H177 0.930 . S
C166 C162 1.524 . S
C166 H178 0.956 . S
C166 H179 0.961 . S
C166 H180 0.961 . S
C167 C164 1.539 . S
C167 H181 0.958 . S
C167 H182 0.961 . S
C167 H183 0.960 . S
H168 C152 0.931 . S
H169 C157 0.929 . S
H170 C158 0.960 . S
H171 C158 0.962 . S
H172 C158 0.960 . S
H173 C159 0.961 . S
H174 C159 0.961 . S
H175 C159 0.961 . S
H176 C160 0.931 . S
H177 C165 0.930 . S
H178 C166 0.956 . S
H179 C166 0.961 . S
H180 C166 0.961 . S
H181 C167 0.958 . S
H182 C167 0.961 . S
H183 C167 0.960 . S
C184 C185 1.391 . S
C184 C186 1.394 . S
C184 H200 0.931 . S
C185 C184 1.391 . S
C185 C189 1.376 . S
C186 C184 1.394 . S
C186 C187 1.369 . S
C186 C190 1.531 . S
C187 C186 1.369 . S
C187 C188 1.410 1_554 S
C187 C195 1.503 1_554 S
C188 C187 1.410 1_556 S
C188 C189 1.392 1_556 S
C188 C191 1.511 . S
C189 C185 1.376 . S
C189 C188 1.392 1_554 S
C189 H201 0.929 . S
C190 C186 1.531 . S
C190 H202 0.960 1_554 S
C190 H203 0.962 . S
C190 H204 0.960 . S
C191 C188 1.511 . S
C191 H205 0.961 . S
C191 H206 0.961 . S
C191 H207 0.961 . S
C192 C193 1.370 . S
C192 C194 1.363 1_556 S
C192 H208 0.931 1_556 S
C193 C192 1.370 . S
C193 C197 1.408 . S
C194 C192 1.363 1_554 S
C194 C195 1.370 1_554 S
C194 C198 1.524 . S
C195 C187 1.503 1_556 S
C195 C194 1.370 1_556 S
C195 C196 1.403 . S
C196 C195 1.403 . S
C196 C197 1.404 . S
C196 C199 1.539 . S
C197 C193 1.408 . S
C197 C196 1.404 . S
C197 H209 0.930 . S
C198 C194 1.524 . S
C198 H210 0.956 . S
C198 H211 0.961 . S
C198 H212 0.961 . S
C199 C196 1.539 . S
C199 H213 0.958 . S
C199 H214 0.961 . S
C199 H215 0.960 . S
H200 C184 0.931 . S
H201 C189 0.929 . S
H202 C190 0.960 1_556 S
H203 C190 0.962 . S
H204 C190 0.960 . S
H205 C191 0.961 . S
H206 C191 0.961 . S
H207 C191 0.961 . S
H208 C192 0.931 1_554 S
H209 C197 0.930 . S
H210 C198 0.956 . S
H211 C198 0.961 . S
H212 C198 0.961 . S
H213 C199 0.958 . S
H214 C199 0.961 . S
H215 C199 0.960 . S
C216 C217 1.391 . S
C216 C218 1.394 . S
C216 H232 0.931 . S
C217 C216 1.391 . S
C217 C221 1.376 . S
C218 C216 1.394 . S
C218 C219 1.369 . S
C218 C222 1.531 . S
C219 C218 1.369 . S
C219 C220 1.410 . S
C219 C227 1.503 . S
C220 C219 1.410 . S
C220 C221 1.392 . S
C220 C223 1.511 . S
C221 C217 1.376 . S
C221 C220 1.392 . S
C221 H233 0.929 . S
C222 C218 1.531 . S
C222 H234 0.960 . S
C222 H235 0.962 . S
C222 H236 0.960 . S
C223 C220 1.511 . S
C223 H237 0.961 . S
C223 H238 0.961 . S
C223 H239 0.961 . S
C224 C225 1.370 . S
C224 C226 1.363 . S
C224 H240 0.931 . S
C225 C224 1.370 . S
C225 C229 1.408 . S
C226 C224 1.363 . S
C226 C227 1.370 . S
C226 C230 1.524 . S
C227 C219 1.503 . S
C227 C226 1.370 . S
C227 C228 1.403 . S
C228 C227 1.403 . S
C228 C229 1.404 . S
C228 C231 1.539 . S
C229 C225 1.408 . S
C229 C228 1.404 . S
C229 H241 0.930 . S
C230 C226 1.524 . S
C230 H242 0.956 . S
C230 H243 0.961 . S
C230 H244 0.961 . S
C231 C228 1.539 . S
C231 H245 0.958 . S
C231 H246 0.961 . S
C231 H247 0.960 . S
H232 C216 0.931 . S
H233 C221 0.929 . S
H234 C222 0.960 . S
H235 C222 0.962 . S
H236 C222 0.960 . S
H237 C223 0.961 . S
H238 C223 0.961 . S
H239 C223 0.961 . S
H240 C224 0.931 . S
H241 C229 0.930 . S
H242 C230 0.956 . S
H243 C230 0.961 . S
H244 C230 0.961 . S
H245 C231 0.958 . S
H246 C231 0.961 . S
H247 C231 0.960 . S
C248 C249 1.391 . S
C248 C250 1.394 . S
C248 H264 0.931 . S
C249 C248 1.391 . S
C249 C253 1.376 . S
C250 C248 1.394 . S
C250 C251 1.369 . S
C250 C254 1.531 . S
C251 C250 1.369 . S
C251 C252 1.410 . S
C251 C259 1.503 . S
C252 C251 1.410 . S
C252 C253 1.392 . S
C252 C255 1.511 . S
C253 C249 1.376 . S
C253 C252 1.392 . S
C253 H265 0.929 . S
C254 C250 1.531 . S
C254 H266 0.960 . S
C254 H267 0.962 . S
C254 H268 0.960 . S
C255 C252 1.511 . S
C255 H269 0.961 . S
C255 H270 0.961 . S
C255 H271 0.961 . S
C256 C257 1.370 . S
C256 C258 1.363 . S
C256 H272 0.931 . S
C257 C256 1.370 . S
C257 C261 1.408 . S
C258 C256 1.363 . S
C258 C259 1.370 . S
C258 C262 1.524 . S
C259 C251 1.503 . S
C259 C258 1.370 . S
C259 C260 1.403 . S
C260 C259 1.403 . S
C260 C261 1.404 . S
C260 C263 1.539 . S
C261 C257 1.408 . S
C261 C260 1.404 . S
C261 H273 0.930 . S
C262 C258 1.524 . S
C262 H274 0.956 . S
C262 H275 0.961 . S
C262 H276 0.961 . S
C263 C260 1.539 . S
C263 H277 0.958 . S
C263 H278 0.961 . S
C263 H279 0.960 . S
H264 C248 0.931 . S
H265 C253 0.929 . S
H266 C254 0.960 . S
H267 C254 0.962 . S
H268 C254 0.960 . S
H269 C255 0.961 . S
H270 C255 0.961 . S
H271 C255 0.961 . S
H272 C256 0.931 . S
H273 C261 0.930 . S
H274 C262 0.956 . S
H275 C262 0.961 . S
H276 C262 0.961 . S
H277 C263 0.958 . S
H278 C263 0.961 . S
H279 C263 0.960 . S
C280 C281 1.391 . S
C280 C282 1.394 . S
C280 H296 0.931 . S
C281 C280 1.391 . S
C281 C285 1.376 . S
C282 C280 1.394 . S
C282 C283 1.369 . S
C282 C286 1.531 . S
C283 C282 1.369 . S
C283 C284 1.410 . S
C283 C291 1.503 . S
C284 C283 1.410 . S
C284 C285 1.392 . S
C284 C287 1.511 . S
C285 C281 1.376 . S
C285 C284 1.392 . S
C285 H297 0.929 . S
C286 C282 1.531 . S
C286 H298 0.960 . S
C286 H299 0.962 . S
C286 H300 0.955 1_556 S
C287 C284 1.511 . S
C287 H301 0.961 . S
C287 H302 0.961 . S
C287 H303 0.961 . S
C288 C289 1.370 . S
C288 C290 1.363 . S
C288 H304 0.931 . S
C289 C288 1.370 . S
C289 C293 1.408 . S
C290 C288 1.363 . S
C290 C291 1.370 . S
C290 C294 1.524 . S
C291 C283 1.503 . S
C291 C290 1.370 . S
C291 C292 1.403 . S
C292 C291 1.403 . S
C292 C293 1.404 . S
C292 C295 1.539 . S
C293 C289 1.408 . S
C293 C292 1.404 . S
C293 H305 0.930 . S
C294 C290 1.524 . S
C294 H306 0.956 . S
C294 H307 0.961 . S
C294 H308 0.961 . S
C295 C292 1.539 . S
C295 H309 0.958 . S
C295 H310 0.961 . S
C295 H311 0.960 . S
H296 C280 0.931 . S
H297 C285 0.929 . S
H298 C286 0.960 . S
H299 C286 0.962 . S
H300 C286 0.955 1_554 S
H301 C287 0.961 . S
H302 C287 0.961 . S
H303 C287 0.961 . S
H304 C288 0.931 . S
H305 C293 0.930 . S
H306 C294 0.956 . S
H307 C294 0.961 . S
H308 C294 0.961 . S
H309 C295 0.958 . S
H310 C295 0.961 . S
H311 C295 0.960 . S
C312 C313 1.391 . S
C312 C314 1.394 1_556 S
C312 H328 0.931 1_556 S
C313 C312 1.391 . S
C313 C317 1.376 . S
C314 C312 1.394 1_554 S
C314 C315 1.369 1_554 S
C314 C318 1.531 . S
C315 C314 1.369 1_556 S
C315 C316 1.410 . S
C315 C323 1.503 1_566 S
C316 C315 1.410 . S
C316 C317 1.392 . S
C316 C319 1.511 1_565 S
C317 C313 1.376 . S
C317 C316 1.392 . S
C317 H329 0.929 . S
C318 C314 1.531 . S
C318 H330 0.960 . S
C318 H331 0.962 . S
C318 H332 0.960 . S
C319 C316 1.511 1_545 S
C319 H333 0.965 . S
C319 H334 0.961 . S
C319 H335 0.961 . S
C320 C321 1.370 . S
C320 C322 1.363 . S
C320 H336 0.931 . S
C321 C320 1.370 . S
C321 C325 1.408 . S
C322 C320 1.363 . S
C322 C323 1.370 . S
C322 C326 1.524 1_545 S
C323 C315 1.503 1_544 S
C323 C322 1.370 . S
C323 C324 1.403 . S
C324 C323 1.403 . S
C324 C325 1.404 . S
C324 C327 1.539 1_554 S
C325 C321 1.408 . S
C325 C324 1.404 . S
C325 H337 0.930 . S
C326 C322 1.524 1_565 S
C326 H338 0.956 . S
C326 H339 0.961 1_554 S
C326 H340 0.961 1_565 S
C327 C324 1.539 1_556 S
C327 H341 0.958 1_556 S
C327 H342 0.961 . S
C327 H343 0.960 . S
H328 C312 0.931 1_554 S
H329 C317 0.929 . S
H330 C318 0.960 . S
H331 C318 0.962 . S
H332 C318 0.960 . S
H333 C319 0.965 . S
H334 C319 0.961 . S
H335 C319 0.961 . S
H336 C320 0.931 . S
H337 C325 0.930 . S
H338 C326 0.956 . S
H339 C326 0.961 1_556 S
H340 C326 0.961 1_545 S
H341 C327 0.958 1_554 S
H342 C327 0.961 . S
H343 C327 0.960 . S
C344 C345 1.391 . S
C344 C346 1.394 . S
C344 H360 0.931 . S
C345 C344 1.391 . S
C345 C349 1.376 1_455 S
C346 C344 1.394 . S
C346 C347 1.369 1_455 S
C346 C350 1.531 . S
C347 C346 1.369 1_655 S
C347 C348 1.410 . S
C347 C355 1.505 1_665 S
C348 C347 1.410 . S
C348 C349 1.392 . S
C348 C351 1.511 . S
C349 C345 1.376 1_655 S
C349 C348 1.392 . S
C349 H361 0.929 . S
C350 C346 1.531 . S
C350 H362 0.960 . S
C350 H363 0.962 . S
C350 H364 0.960 . S
C351 C348 1.511 . S
C351 H365 0.961 . S
C351 H366 0.961 1_565 S
C351 H367 0.961 . S
C352 C353 1.370 . S
C352 C354 1.363 . S
C352 H368 0.931 . S
C353 C352 1.370 . S
C353 C357 1.408 1_455 S
C354 C352 1.363 . S
C354 C355 1.379 . S
C354 C358 1.524 . S
C355 C347 1.505 1_445 S
C355 C354 1.379 . S
C355 C356 1.393 1_455 S
C356 C355 1.393 1_655 S
C356 C357 1.404 . S
C356 C359 1.539 1_545 S
C357 C353 1.408 1_655 S
C357 C356 1.404 . S
C357 H369 0.930 . S
C358 C354 1.524 . S
C358 H370 0.956 . S
C358 H371 0.961 . S
C358 H372 0.961 . S
C359 C356 1.539 1_565 S
C359 H373 0.958 . S
C359 H374 0.961 1_565 S
C359 H375 0.960 . S
H360 C344 0.931 . S
H361 C349 0.929 . S
H362 C350 0.960 . S
H363 C350 0.962 . S
H364 C350 0.960 . S
H365 C351 0.961 . S
H366 C351 0.961 1_545 S
H367 C351 0.961 . S
H368 C352 0.931 . S
H369 C357 0.930 . S
H370 C358 0.956 . S
H371 C358 0.961 . S
H372 C358 0.961 . S
H373 C359 0.958 . S
H374 C359 0.961 1_545 S
H375 C359 0.960 . S
C376 C377 1.391 1_655 S
C376 C378 1.394 1_554 S
C376 H392 0.931 . S
C377 C376 1.391 1_455 S
C377 C381 1.376 . S
C378 C376 1.394 1_556 S
C378 C379 1.369 1_655 S
C378 C382 1.531 . S
C379 C378 1.369 1_455 S
C379 C380 1.410 . S
C379 C387 1.503 . S
C380 C379 1.410 . S
C380 C381 1.392 1_556 S
C380 C383 1.511 . S
C381 C377 1.376 . S
C381 C380 1.392 1_554 S
C381 H393 0.929 . S
C382 C378 1.531 . S
C382 H394 0.960 . S
C382 H395 0.962 . S
C382 H396 0.960 . S
C383 C380 1.511 . S
C383 H397 0.961 . S
C383 H398 0.961 . S
C383 H399 0.961 . S
C384 C385 1.370 1_655 S
C384 C386 1.363 . S
C384 H400 0.931 . S
C385 C384 1.370 1_455 S
C385 C389 1.408 . S
C386 C384 1.363 . S
C386 C387 1.371 1_655 S
C386 C390 1.524 . S
C387 C379 1.503 . S
C387 C386 1.371 1_455 S
C387 C388 1.403 . S
C388 C387 1.403 . S
C388 C389 1.404 . S
C388 C391 1.539 . S
C389 C385 1.408 . S
C389 C388 1.404 . S
C389 H401 0.930 . S
C390 C386 1.524 . S
C390 H402 0.956 . S
C390 H403 0.961 1_655 S
C390 H404 0.961 . S
C391 C388 1.539 . S
C391 H405 0.958 . S
C391 H406 0.961 . S
C391 H407 0.960 . S
H392 C376 0.931 . S
H393 C381 0.929 . S
H394 C382 0.960 . S
H395 C382 0.962 . S
H396 C382 0.960 . S
H397 C383 0.961 . S
H398 C383 0.961 . S
H399 C383 0.961 . S
H400 C384 0.931 . S
H401 C389 0.930 . S
H402 C390 0.956 . S
H403 C390 0.961 1_455 S
H404 C390 0.961 . S
H405 C391 0.958 . S
H406 C391 0.961 . S
H407 C391 0.960 . S
C408 C409 1.391 1_655 S
C408 C410 1.394 1_556 S
C408 H424 0.931 . S
C409 C408 1.391 1_455 S
C409 C413 1.376 . S
C410 C408 1.394 1_554 S
C410 C411 1.369 1_655 S
C410 C414 1.531 . S
C411 C410 1.369 1_455 S
C411 C412 1.410 . S
C411 C419 1.503 . S
C412 C411 1.410 . S
C412 C413 1.392 1_554 S
C412 C415 1.511 . S
C413 C409 1.376 . S
C413 C412 1.392 1_556 S
C413 H425 0.929 . S
C414 C410 1.531 . S
C414 H426 0.960 . S
C414 H427 0.962 . S
C414 H428 0.960 . S
C415 C412 1.511 . S
C415 H429 0.961 . S
C415 H430 0.961 . S
C415 H431 0.961 . S
C416 C417 1.370 1_655 S
C416 C418 1.363 . S
C416 H432 0.931 . S
C417 C416 1.370 1_455 S
C417 C421 1.408 . S
C418 C416 1.363 . S
C418 C419 1.370 1_655 S
C418 C422 1.524 . S
C419 C411 1.503 . S
C419 C418 1.370 1_455 S
C419 C420 1.403 . S
C420 C419 1.403 . S
C420 C421 1.404 . S
C420 C423 1.539 . S
C421 C417 1.408 . S
C421 C420 1.404 . S
C421 H433 0.930 . S
C422 C418 1.524 . S
C422 H434 0.956 . S
C422 H435 0.961 . S
C422 H436 0.961 . S
C423 C420 1.539 . S
C423 H437 0.958 . S
C423 H438 0.961 . S
C423 H439 0.960 . S
H424 C408 0.931 . S
H425 C413 0.929 . S
H426 C414 0.960 . S
H427 C414 0.962 . S
H428 C414 0.960 . S
H429 C415 0.961 . S
H430 C415 0.961 . S
H431 C415 0.961 . S
H432 C416 0.931 . S
H433 C421 0.930 . S
H434 C422 0.956 . S
H435 C422 0.961 . S
H436 C422 0.961 . S
H437 C423 0.958 . S
H438 C423 0.961 . S
H439 C423 0.960 . S
C440 C441 1.391 . S
C440 C442 1.394 . S
C440 H456 0.931 . S
C441 C440 1.391 . S
C441 C445 1.376 . S
C442 C440 1.394 . S
C442 C443 1.369 . S
C442 C446 1.531 . S
C443 C442 1.369 . S
C443 C444 1.410 . S
C443 C451 1.503 . S
C444 C443 1.410 . S
C444 C445 1.392 . S
C444 C447 1.511 . S
C445 C441 1.376 . S
C445 C444 1.392 . S
C445 H457 0.929 . S
C446 C442 1.531 . S
C446 H458 0.960 . S
C446 H459 0.962 . S
C446 H460 0.960 . S
C447 C444 1.511 . S
C447 H461 0.961 . S
C447 H462 0.961 . S
C447 H463 0.961 . S
C448 C449 1.370 . S
C448 C450 1.363 . S
C448 H464 0.931 . S
C449 C448 1.370 . S
C449 C453 1.408 . S
C450 C448 1.363 . S
C450 C451 1.370 . S
C450 C454 1.524 . S
C451 C443 1.503 . S
C451 C450 1.370 . S
C451 C452 1.403 . S
C452 C451 1.403 . S
C452 C453 1.404 . S
C452 C455 1.539 . S
C453 C449 1.408 . S
C453 C452 1.404 . S
C453 H465 0.930 . S
C454 C450 1.524 . S
C454 H466 0.956 . S
C454 H467 0.961 . S
C454 H468 0.961 . S
C455 C452 1.539 . S
C455 H469 0.958 . S
C455 H470 0.961 . S
C455 H471 0.960 . S
H456 C440 0.931 . S
H457 C445 0.929 . S
H458 C446 0.960 . S
H459 C446 0.962 . S
H460 C446 0.960 . S
H461 C447 0.961 . S
H462 C447 0.961 . S
H463 C447 0.961 . S
H464 C448 0.931 . S
H465 C453 0.930 . S
H466 C454 0.956 . S
H467 C454 0.961 . S
H468 C454 0.961 . S
H469 C455 0.958 . S
H470 C455 0.961 . S
H471 C455 0.960 . S
C472 C473 1.391 . S
C472 C474 1.394 . S
C472 H488 0.931 . S
C473 C472 1.391 . S
C473 C477 1.376 . S
C474 C472 1.394 . S
C474 C475 1.369 . S
C474 C478 1.531 . S
C475 C474 1.369 . S
C475 C476 1.410 . S
C475 C483 1.503 . S
C476 C475 1.410 . S
C476 C477 1.392 . S
C476 C479 1.511 . S
C477 C473 1.376 . S
C477 C476 1.392 . S
C477 H489 0.929 . S
C478 C474 1.531 . S
C478 H490 0.960 . S
C478 H491 0.962 . S
C478 H492 0.960 . S
C479 C476 1.511 . S
C479 H493 0.961 . S
C479 H494 0.961 . S
C479 H495 0.961 . S
C480 C481 1.370 . S
C480 C482 1.363 . S
C480 H496 0.931 . S
C481 C480 1.370 . S
C481 C485 1.408 . S
C482 C480 1.363 . S
C482 C483 1.370 . S
C482 C486 1.524 . S
C483 C475 1.503 . S
C483 C482 1.370 . S
C483 C484 1.403 . S
C484 C483 1.403 . S
C484 C485 1.404 . S
C484 C487 1.539 . S
C485 C481 1.408 . S
C485 C484 1.404 . S
C485 H497 0.930 . S
C486 C482 1.524 . S
C486 H498 0.956 . S
C486 H499 0.961 . S
C486 H500 0.961 . S
C487 C484 1.539 . S
C487 H501 0.958 . S
C487 H502 0.961 . S
C487 H503 0.960 . S
H488 C472 0.931 . S
H489 C477 0.929 . S
H490 C478 0.960 . S
H491 C478 0.962 . S
H492 C478 0.960 . S
H493 C479 0.961 . S
H494 C479 0.961 . S
H495 C479 0.961 . S
H496 C480 0.931 . S
H497 C485 0.930 . S
H498 C486 0.956 . S
H499 C486 0.961 . S
H500 C486 0.961 . S
H501 C487 0.958 . S
H502 C487 0.961 . S
H503 C487 0.960 . S
C121 N14 1.832 . S
C129 N36 1.840 . S
C153 C76 1.782 . S
C161 C57 1.801 . S
C185 N104 1.572 . S
C193 N66 1.632 . S
C217 C27 1.685 . S
C225 C106 1.707 . S
C249 C117 1.773 . S
C257 C16 1.803 . S
C281 C87 1.702 . S
C289 C46 1.700 . S
C313 N74 1.825 . S
C321 N96 1.842 . S
C345 N44 1.601 . S
C353 N6 1.618 . S
C377 C10 0.911 . S
C385 C1 0.892 . S
C409 C31 0.902 . S
C417 C40 0.897 . S
C441 C61 0.906 . S
C449 C70 0.895 . S
C473 C91 0.897 . S
C481 C100 0.897 . S
