# Generated by pormake.
# Topology loh, (5)-cn, num edge types: 1
# Building blocks:
#     Node 0, Type 0, BuildingBlock: BEQFEK_clean_sbu_0, # of connection points: 5
#     Node 1, Type 0, BuildingBlock: BEQFEK_clean_sbu_0, # of connection points: 5
#     Node 2, Type 0, BuildingBlock: BEQFEK_clean_sbu_0, # of connection points: 5
#     Node 3, Type 0, BuildingBlock: BEQFEK_clean_sbu_0, # of connection points: 5
#     Node 4, Type 0, BuildingBlock: BEQFEK_clean_sbu_0, # of connection points: 5
#     Node 5, Type 0, BuildingBlock: BEQFEK_clean_sbu_0, # of connection points: 5
#     Node 6, Type 0, BuildingBlock: BEQFEK_clean_sbu_0, # of connection points: 5
#     Node 7, Type 0, BuildingBlock: BEQFEK_clean_sbu_0, # of connection points: 5
#     Edge 8, Type (0, 0), BuildingBlock: EZIPEK_clean_linker_0, # of connection points: 2
#     Edge 9, Type (0, 0), BuildingBlock: EZIPEK_clean_linker_0, # of connection points: 2
#     Edge 10, Type (0, 0), BuildingBlock: EZIPEK_clean_linker_0, # of connection points: 2
#     Edge 11, Type (0, 0), BuildingBlock: EZIPEK_clean_linker_0, # of connection points: 2
#     Edge 12, Type (0, 0), BuildingBlock: EZIPEK_clean_linker_0, # of connection points: 2
#     Edge 13, Type (0, 0), BuildingBlock: EZIPEK_clean_linker_0, # of connection points: 2
#     Edge 14, Type (0, 0), BuildingBlock: EZIPEK_clean_linker_0, # of connection points: 2
#     Edge 15, Type (0, 0), BuildingBlock: EZIPEK_clean_linker_0, # of connection points: 2
#     Edge 16, Type (0, 0), BuildingBlock: EZIPEK_clean_linker_0, # of connection points: 2
#     Edge 17, Type (0, 0), BuildingBlock: EZIPEK_clean_linker_0, # of connection points: 2
#     Edge 18, Type (0, 0), BuildingBlock: EZIPEK_clean_linker_0, # of connection points: 2
#     Edge 19, Type (0, 0), BuildingBlock: EZIPEK_clean_linker_0, # of connection points: 2
#     Edge 20, Type (0, 0), BuildingBlock: EZIPEK_clean_linker_0, # of connection points: 2
#     Edge 21, Type (0, 0), BuildingBlock: EZIPEK_clean_linker_0, # of connection points: 2
#     Edge 22, Type (0, 0), BuildingBlock: EZIPEK_clean_linker_0, # of connection points: 2
#     Edge 23, Type (0, 0), BuildingBlock: EZIPEK_clean_linker_0, # of connection points: 2
#     Edge 24, Type (0, 0), BuildingBlock: EZIPEK_clean_linker_0, # of connection points: 2
#     Edge 25, Type (0, 0), BuildingBlock: EZIPEK_clean_linker_0, # of connection points: 2
#     Edge 26, Type (0, 0), BuildingBlock: EZIPEK_clean_linker_0, # of connection points: 2
#     Edge 27, Type (0, 0), BuildingBlock: EZIPEK_clean_linker_0, # of connection points: 2
# Relax obj value: 0.196
# Max RMSD: 0.139
# Mean RMSD: 0.139
data_MOF--net-loh--node1-BEQFEK_clean_sbu_0--edge1-EZIPEK_clean_linker_0
_symmetry_space_group_name_H-M    P1
_symmetry_Int_Tables_number       1
_symmetry_cell_setting            triclinic
loop_
_symmetry_equiv_pos_as_xyz
'x, y, z'
_cell_length_a     16.057482
_cell_length_b     21.678623
_cell_length_c     32.852411
_cell_angle_alpha  89.752543
_cell_angle_beta   90.022889
_cell_angle_gamma 89.922513
loop_
_atom_site_label
_atom_site_type_symbol
_atom_site_fract_x
_atom_site_fract_y
_atom_site_fract_z
_atom_type_partial_charge
Co0 Co 0.94198 0.37568 0.11756 0.0
Co1 Co 0.01448 0.25564 0.1586 0.0
C2 C 0.86512 0.25266 0.104 0.0
O3 O 0.87173 0.31012 0.09881 0.0
O4 O 0.91405 0.22303 0.12767 0.0
C5 C 0.80558 0.45092 0.09576 0.0
O6 O 0.76123 0.40816 0.11403 0.0
C7 C 0.01912 0.13967 0.20778 0.0
C8 C 0.15191 0.13337 0.22464 0.0
C9 C 0.07615 0.10358 0.22932 0.0
N10 N 0.05924 0.18862 0.19153 0.0
N11 N 0.13874 0.18414 0.20163 0.0
C12 C 0.92828 0.12737 0.20201 0.0
H13 H 0.91732 0.11337 0.17001 0.0
H14 H 0.89236 0.17033 0.20748 0.0
H15 H 0.90597 0.09005 0.22247 0.0
C16 C 0.94696 0.42172 0.20053 0.0
N17 N 0.95497 0.37507 0.17407 0.0
N18 N 0.98823 0.32681 0.19237 0.0
C19 C 1.00393 0.34245 0.23156 0.0
C20 C 0.97827 0.40335 0.2379 0.0
C21 C 0.9143 0.48419 0.18928 0.0
H22 H 0.953 0.50413 0.16455 0.0
H23 H 0.84998 0.47914 0.17767 0.0
H24 H 0.91322 0.51607 0.21559 0.0
O25 O 0.04931 0.36769 0.08945 0.0
O26 O 0.09994 0.2804 0.11599 0.0
H27 H 0.11382 0.2944 0.2499 0.0
H28 H 0.05205 0.32336 0.29178 0.0
C29 C 0.04951 0.30216 0.26111 0.0
H30 H 0.01824 0.25664 0.26302 0.0
H31 H 0.18419 0.21598 0.19291 0.0
O32 O 0.88467 0.44913 0.09723 0.0
C33 C 0.10511 0.32607 0.09126 0.0
Co34 Co 0.61989 0.67083 0.62229 0.0
Co35 Co 0.54268 0.79164 0.6574 0.0
C36 C 0.69445 0.79358 0.6045 0.0
O37 O 0.68873 0.73592 0.60081 0.0
O38 O 0.64456 0.82356 0.6272 0.0
C39 C 0.76351 0.60105 0.61085 0.0
O40 O 0.79728 0.64498 0.63273 0.0
C41 C 0.52476 0.89889 0.71442 0.0
C42 C 0.4128 0.94321 0.68857 0.0
C43 C 0.47278 0.95022 0.71842 0.0
N44 N 0.49598 0.8634 0.68378 0.0
N45 N 0.42908 0.89052 0.6686 0.0
C46 C 0.60104 0.88439 0.73882 0.0
H47 H 0.61888 0.83529 0.73524 0.0
H48 H 0.59034 0.89529 0.77139 0.0
H49 H 0.65364 0.91306 0.72787 0.0
C50 C 0.60921 0.6298 0.70664 0.0
N51 N 0.60344 0.67533 0.67889 0.0
N52 N 0.56525 0.72334 0.6948 0.0
C53 C 0.54259 0.70806 0.7334 0.0
C54 C 0.57084 0.6484 0.7422 0.0
C55 C 0.64501 0.56741 0.69797 0.0
H56 H 0.71213 0.57265 0.69107 0.0
H57 H 0.63878 0.53534 0.72417 0.0
H58 H 0.6139 0.54739 0.67093 0.0
O59 O 0.5132 0.67333 0.59215 0.0
O60 O 0.46075 0.76234 0.61447 0.0
H61 H 0.44397 0.71556 0.7774 0.0
H62 H 0.52422 0.77265 0.78136 0.0
C63 C 0.48613 0.74586 0.75952 0.0
H64 H 0.44896 0.77829 0.74067 0.0
H65 H 0.39546 0.87357 0.64393 0.0
O66 O 0.68487 0.59878 0.6065 0.0
C67 C 0.45701 0.71488 0.59147 0.0
Co68 Co 0.98052 0.67824 0.96089 0.0
Co69 Co 0.04421 0.8009 0.92039 0.0
C70 C 0.89932 0.80071 0.976 0.0
O71 O 0.91006 0.74355 0.98094 0.0
O72 O 0.94424 0.83175 0.95148 0.0
C73 C 0.83885 0.60641 0.97131 0.0
O74 O 0.80613 0.64889 0.94757 0.0
C75 C 0.04062 0.91661 0.87168 0.0
C76 C 0.17371 0.93331 0.85931 0.0
C77 C 0.09494 0.95765 0.85271 0.0
N78 N 0.08513 0.87016 0.88849 0.0
N79 N 0.16475 0.88071 0.88099 0.0
C80 C 0.94802 0.92217 0.87479 0.0
H81 H 0.93179 0.93957 0.9055 0.0
H82 H 0.91896 0.87608 0.87119 0.0
H83 H 0.92281 0.95477 0.85174 0.0
C84 C 0.99081 0.63305 0.87805 0.0
N85 N 0.99557 0.6797 0.90466 0.0
N86 N 0.01926 0.73048 0.8859 0.0
C87 C 0.02817 0.71735 0.84579 0.0
C88 C 0.01062 0.65478 0.83967 0.0
C89 C 0.97246 0.56761 0.8897 0.0
H90 H 0.99895 0.5571 0.92012 0.0
H91 H 0.90401 0.56124 0.89098 0.0
H92 H 0.99836 0.53483 0.86713 0.0
O93 O 0.08669 0.68547 0.98908 0.0
O94 O 0.13089 0.77522 0.96307 0.0
H95 H 0.11793 0.77975 0.82123 0.0
H96 H 0.05257 0.74325 0.78331 0.0
C97 C 0.05404 0.7634 0.81431 0.0
H98 H 0.01188 0.8039 0.81566 0.0
H99 H 0.21318 0.85213 0.89088 0.0
O100 O 0.91675 0.60643 0.97844 0.0
C101 C 0.13947 0.72914 0.98743 0.0
Co102 Co 0.65033 0.38445 0.45997 0.0
Co103 Co 0.57781 0.26367 0.42233 0.0
C104 C 0.72888 0.26182 0.47521 0.0
O105 O 0.72038 0.31909 0.48035 0.0
O106 O 0.6811 0.23188 0.45141 0.0
C107 C 0.78798 0.45782 0.47961 0.0
O108 O 0.83012 0.41455 0.46079 0.0
C109 C 0.55775 0.15681 0.365 0.0
C110 C 0.4409 0.11684 0.38861 0.0
C111 C 0.5028 0.10749 0.35995 0.0
N112 N 0.52904 0.19331 0.39513 0.0
N113 N 0.45911 0.16889 0.4089 0.0
C114 C 0.63634 0.16882 0.34187 0.0
H115 H 0.65515 0.21781 0.34482 0.0
H116 H 0.62811 0.15654 0.30934 0.0
H117 H 0.68719 0.13991 0.35454 0.0
C118 C 0.64317 0.4281 0.37642 0.0
N119 N 0.63599 0.38178 0.40343 0.0
N120 N 0.59981 0.3339 0.38631 0.0
C121 C 0.58007 0.35005 0.34749 0.0
C122 C 0.60772 0.41022 0.34001 0.0
C123 C 0.67676 0.49057 0.38664 0.0
H124 H 0.63769 0.5117 0.41071 0.0
H125 H 0.74081 0.48558 0.39872 0.0
H126 H 0.67862 0.52158 0.35971 0.0
O127 O 0.54361 0.37958 0.48913 0.0
O128 O 0.49661 0.28951 0.46634 0.0
H129 H 0.48697 0.34225 0.30069 0.0
H130 H 0.56874 0.28589 0.2988 0.0
C131 C 0.52756 0.31211 0.31961 0.0
H132 H 0.48893 0.27912 0.33722 0.0
H133 H 0.42435 0.18734 0.43276 0.0
O134 O 0.7089 0.45793 0.4783 0.0
C135 C 0.49027 0.33629 0.48972 0.0
Co136 Co 0.47792 0.88734 0.11574 0.0
Co137 Co 0.54232 0.76689 0.15848 0.0
C138 C 0.39986 0.76266 0.10232 0.0
O139 O 0.41118 0.81948 0.09621 0.0
O140 O 0.44333 0.73288 0.12817 0.0
C141 C 0.33191 0.95342 0.10452 0.0
O142 O 0.30294 0.91072 0.12918 0.0
C143 C 0.54729 0.65127 0.20744 0.0
C144 C 0.67937 0.64608 0.22568 0.0
C145 C 0.60392 0.61555 0.22936 0.0
N146 N 0.58726 0.70076 0.19187 0.0
N147 N 0.66634 0.69707 0.20286 0.0
C148 C 0.457 0.63797 0.2006 0.0
H149 H 0.44802 0.62329 0.16859 0.0
H150 H 0.41997 0.68061 0.20535 0.0
H151 H 0.43431 0.60073 0.22101 0.0
C152 C 0.48739 0.93637 0.19736 0.0
N153 N 0.49229 0.88839 0.17185 0.0
N154 N 0.51563 0.83849 0.1917 0.0
C155 C 0.52347 0.85345 0.23159 0.0
C156 C 0.50619 0.91646 0.23635 0.0
C157 C 0.47005 1.00126 0.18398 0.0
H158 H 0.49655 1.00956 0.15328 0.0
H159 H 0.40172 1.00837 0.18247 0.0
H160 H 0.49665 0.0351 0.20564 0.0
O161 O 0.58496 0.88176 0.08838 0.0
O162 O 0.62727 0.79162 0.11471 0.0
H163 H 0.61399 0.79558 0.26016 0.0
H164 H 0.53894 0.82868 0.29492 0.0
C165 C 0.54767 0.8086 0.26419 0.0
H166 H 0.50991 0.76604 0.26119 0.0
H167 H 0.71154 0.72944 0.19477 0.0
O168 O 0.40965 0.95639 0.09716 0.0
C169 C 0.63669 0.83726 0.09006 0.0
Co170 Co 0.14816 0.18207 0.62321 0.0
Co171 Co 0.07426 0.30508 0.65646 0.0
C172 C 0.22943 0.30129 0.60492 0.0
O173 O 0.22239 0.24361 0.60161 0.0
O174 O 0.17932 0.33256 0.62681 0.0
C175 C 0.28041 0.10136 0.60593 0.0
O176 O 0.32665 0.14378 0.62319 0.0
C177 C 0.0553 0.41314 0.71312 0.0
C178 C 0.95447 0.46364 0.68161 0.0
C179 C 0.00803 0.46717 0.71449 0.0
N180 N 0.02995 0.37922 0.68103 0.0
N181 N 0.96982 0.41009 0.66246 0.0
C182 C 0.12431 0.39492 0.7413 0.0
H183 H 0.14495 0.34698 0.73529 0.0
H184 H 0.10332 0.39951 0.77334 0.0
H185 H 0.17813 0.42621 0.73695 0.0
C186 C 0.137 0.14389 0.70805 0.0
N187 N 0.13182 0.1886 0.67975 0.0
N188 N 0.09172 0.23656 0.69457 0.0
C189 C 0.06556 0.22145 0.73267 0.0
C190 C 0.09438 0.1622 0.74255 0.0
C191 C 0.17679 0.08241 0.70087 0.0
H192 H 0.24076 0.08965 0.68921 0.0
H193 H 0.18063 0.05436 0.72913 0.0
H194 H 0.1407 0.0569 0.67758 0.0
O195 O 0.04231 0.18776 0.59279 0.0
O196 O 0.99286 0.27849 0.61315 0.0
H197 H 0.96017 0.22811 0.77274 0.0
H198 H 0.03941 0.28507 0.7804 0.0
C199 C 1.00508 0.25879 0.75688 0.0
H200 H 0.9712 0.29174 0.73693 0.0
H201 H 0.9406 0.39524 0.6359 0.0
O202 O 0.20154 0.10533 0.60716 0.0
C203 C 0.98823 0.23058 0.59076 0.0
Co204 Co 0.44535 0.1686 0.96342 0.0
Co205 Co 0.51137 0.28901 0.9213 0.0
C206 C 0.3647 0.29184 0.97626 0.0
O207 O 0.37429 0.23471 0.98193 0.0
O208 O 0.41127 0.3218 0.95185 0.0
C209 C 0.30426 0.09701 0.97879 0.0
O210 O 0.26688 0.14 0.95722 0.0
C211 C 0.51398 0.40611 0.87362 0.0
C212 C 0.64512 0.41152 0.85393 0.0
C213 C 0.56957 0.44233 0.85151 0.0
N214 N 0.55463 0.35608 0.88814 0.0
N215 N 0.63316 0.35995 0.87631 0.0
C216 C 0.42399 0.41933 0.88146 0.0
H217 H 0.41623 0.4328 0.91378 0.0
H218 H 0.38674 0.37697 0.8763 0.0
H219 H 0.40056 0.45737 0.86186 0.0
C220 C 0.45614 0.11991 0.88148 0.0
N221 N 0.4612 0.16756 0.90729 0.0
N222 N 0.48577 0.21744 0.88779 0.0
C223 C 0.4948 0.20273 0.84791 0.0
C224 C 0.47677 0.13998 0.84275 0.0
C225 C 0.43603 0.05524 0.89429 0.0
H226 H 0.4643 0.04515 0.92439 0.0
H227 H 0.36749 0.05045 0.89698 0.0
H228 H 0.45904 1.02113 0.87183 0.0
O229 O 0.55127 0.17634 0.99178 0.0
O230 O 0.59776 0.26437 0.96438 0.0
H231 H 0.5872 0.25959 0.82014 0.0
H232 H 0.51224 0.22793 0.7848 0.0
C233 C 0.52069 0.24758 0.81567 0.0
H234 H 0.48381 0.29065 0.81863 0.0
H235 H 0.67873 0.32727 0.88348 0.0
O236 O 0.38316 0.09704 0.98235 0.0
C237 C 0.60533 0.219 0.98936 0.0
Co238 Co 0.12025 0.8717 0.46261 0.0
Co239 Co 0.04465 0.75305 0.42337 0.0
C240 C 0.19448 0.74742 0.47776 0.0
O241 O 0.18891 0.80497 0.48241 0.0
O242 O 0.14467 0.71848 0.4544 0.0
C243 C 0.26102 0.94223 0.47985 0.0
O244 O 0.29943 0.89855 0.45959 0.0
C245 C 0.03836 0.63846 0.37411 0.0
C246 C 0.90462 0.63135 0.35939 0.0
C247 C 0.98069 0.60252 0.35323 0.0
N248 N 0.99833 0.68651 0.3913 0.0
N249 N 0.91826 0.68156 0.38254 0.0
C250 C 0.12978 0.62689 0.37844 0.0
H251 H 0.14302 0.61206 0.41015 0.0
H252 H 0.16446 0.67035 0.37277 0.0
H253 H 0.15163 0.59036 0.35743 0.0
C254 C 0.11271 0.91821 0.37937 0.0
N255 N 0.1061 0.87135 0.40608 0.0
N256 N 0.07111 0.82352 0.38849 0.0
C257 C 0.05274 0.83963 0.34953 0.0
C258 C 0.07876 0.90038 0.3425 0.0
C259 C 0.14532 0.98074 0.39015 0.0
H260 H 0.10858 0.99981 0.41579 0.0
H261 H 0.21084 0.97621 0.40029 0.0
H262 H 0.1433 1.01323 0.364 0.0
O263 O 0.01278 0.86668 0.49123 0.0
O264 O 0.96009 0.77968 0.46588 0.0
H265 H 0.9405 0.79271 0.33401 0.0
H266 H 0.99782 0.82209 0.29061 0.0
C267 C 1.00354 0.80027 0.32112 0.0
H268 H 0.03411 0.75459 0.31827 0.0
H269 H 0.87281 0.71275 0.39219 0.0
O270 O 0.18193 0.94335 0.48137 0.0
C271 C 0.95616 0.82565 0.4902 0.0
C272 C 0.21474 0.30831 0.98915 0.0
C273 C 0.29785 0.32143 1.00027 0.0
C274 C 0.25196 0.34944 0.06914 0.0
C275 C 0.17129 0.327 0.05974 0.0
N276 N 0.07415 0.2847 1.01122 0.0
N277 N 0.39759 0.35716 0.04927 0.0
C278 C 0.15179 0.30724 1.01962 0.0
C279 C 0.31678 0.34392 1.03968 0.0
N280 N 0.19692 0.29634 0.94927 0.0
N281 N 0.26602 0.37647 0.10603 0.0
H282 H 0.44486 0.35709 1.02747 0.0
H283 H 0.41838 0.36641 0.07861 0.0
H284 H 0.22003 0.38008 0.12834 0.0
H285 H 0.32107 0.39888 0.11366 0.0
H286 H 0.1369 0.29087 0.93791 0.0
H287 H 0.24269 0.29739 0.9267 0.0
H288 H 0.05841 0.263 0.98411 0.0
H289 H 0.02589 0.28426 1.03244 0.0
C290 C 0.40778 0.71987 0.51869 0.0
C291 C 0.38925 0.7103 0.56063 0.0
C292 C 0.24016 0.70342 0.5444 0.0
C293 C 0.25858 0.71596 0.50294 0.0
N294 N 0.35778 0.72043 0.44866 0.0
N295 N 0.29159 0.67912 0.61231 0.0
C296 C 0.34208 0.7185 0.48951 0.0
C297 C 0.30642 0.69753 0.57313 0.0
N298 N 0.48737 0.73389 0.50709 0.0
N299 N 0.15879 0.70012 0.55638 0.0
H300 H 0.33888 0.67476 0.63394 0.0
H301 H 0.234 0.66382 0.62273 0.0
H302 H 0.10975 0.70043 0.5355 0.0
H303 H 0.13961 0.69896 0.58662 0.0
H304 H 0.50352 0.7483 0.4779 0.0
H305 H 0.53731 0.73494 0.52735 0.0
H306 H 0.4171 0.71741 0.43607 0.0
H307 H 0.30992 0.71932 0.42713 0.0
C308 C 0.35625 0.72242 1.03483 0.0
C309 C 0.33651 0.73289 0.07633 0.0
C310 C 0.18803 0.73737 0.05979 0.0
C311 C 0.20768 0.72871 1.01793 0.0
N312 N 0.30702 0.70027 0.96641 0.0
N313 N 0.23585 0.73503 0.1301 0.0
C314 C 0.29091 0.71716 1.00568 0.0
C315 C 0.25278 0.73474 0.08934 0.0
N316 N 0.43797 0.72005 1.02331 0.0
N317 N 0.10832 0.75188 0.07097 0.0
H318 H 0.28298 0.73322 0.15198 0.0
H319 H 0.17616 0.73121 0.14217 0.0
H320 H 0.05918 0.75503 0.0503 0.0
H321 H 0.0916 0.76543 0.10019 0.0
H322 H 0.45792 0.72042 0.99317 0.0
H323 H 0.4865 0.71965 0.04448 0.0
H324 H 0.36509 0.68561 0.95623 0.0
H325 H 0.26052 0.69684 0.94434 0.0
C326 C 0.4445 0.32752 0.56265 0.0
C327 C 0.42352 0.33792 0.52106 0.0
C328 C 0.27596 0.34866 0.53972 0.0
C329 C 0.29579 0.33032 0.58006 0.0
N330 N 0.39645 0.30379 0.63122 0.0
N331 N 0.32119 0.35957 0.46933 0.0
C332 C 0.37972 0.32139 0.59203 0.0
C333 C 0.33971 0.34947 0.50945 0.0
N334 N 0.52633 0.32245 0.57388 0.0
N335 N 0.19562 0.36449 0.53056 0.0
H336 H 0.36676 0.36298 0.44681 0.0
H337 H 0.26099 0.36214 0.45777 0.0
H338 H 0.14835 0.3642 0.55235 0.0
H339 H 0.1765 0.38227 0.50263 0.0
H340 H 0.54668 0.32145 0.60394 0.0
H341 H 0.57539 0.32217 0.55311 0.0
H342 H 0.45433 0.28861 0.64139 0.0
H343 H 0.35054 0.30266 0.65371 0.0
C344 C 0.78858 0.84512 0.07165 0.0
C345 C 0.70467 0.83615 0.05941 0.0
C346 C 0.74947 0.822 0.98844 0.0
C347 C 0.8332 0.82919 1.00095 0.0
N348 N 0.93314 0.85971 0.05125 0.0
N349 N 0.60272 0.82552 1.00564 0.0
C350 C 0.85274 0.84503 0.04164 0.0
C351 C 0.68433 0.82814 1.01753 0.0
N352 N 0.80678 0.85246 0.11201 0.0
N353 N 0.73308 0.80575 0.94906 0.0
H354 H 0.55302 0.82489 1.02601 0.0
H355 H 0.58337 0.82694 0.97543 0.0
H356 H 0.77929 0.80458 0.92672 0.0
H357 H 0.67512 0.79132 0.93866 0.0
H358 H 0.86692 0.85297 0.12377 0.0
H359 H 0.76103 0.85529 0.13446 0.0
H360 H 0.95215 0.87579 0.07954 0.0
H361 H 0.98046 0.86042 1.02946 0.0
C362 C 0.94332 0.23501 0.51748 0.0
C363 C 0.92204 0.22659 0.55921 0.0
C364 C 0.77478 0.21478 0.5404 0.0
C365 C 0.79476 0.23182 0.49988 0.0
N366 N 0.89555 0.25618 0.44846 0.0
N367 N 0.81943 0.2065 0.61103 0.0
C368 C 0.87871 0.24 0.48788 0.0
C369 C 0.83824 0.21522 0.57081 0.0
N370 N 0.0252 0.23949 0.50633 0.0
N371 N 0.69446 0.1991 0.54952 0.0
H372 H 0.86485 0.20394 0.6337 0.0
H373 H 0.75914 0.20414 0.62246 0.0
H374 H 0.64766 0.19836 0.52747 0.0
H375 H 0.67505 0.18242 0.57768 0.0
H376 H 0.04569 0.23924 0.4763 0.0
H377 H 0.07411 0.24043 0.52719 0.0
H378 H 0.95348 0.27081 0.43811 0.0
H379 H 0.8496 0.25667 0.42595 0.0
C380 C 0.81783 0.20125 0.04036 0.0
C381 C 0.79883 0.22245 0.08008 0.0
C382 C 0.65295 0.23792 0.06076 0.0
C383 C 0.67238 0.21917 1.02043 0.0
N384 N 0.76719 0.17083 0.97358 0.0
N385 N 0.69778 0.24581 0.13133 0.0
C386 C 0.75306 0.1968 1.01079 0.0
C387 C 0.71572 0.2354 0.09128 0.0
N388 N 0.89868 0.18831 1.03064 0.0
N389 N 0.57546 0.26068 0.06939 0.0
H390 H 0.74353 0.24359 0.15391 0.0
H391 H 0.63771 0.25095 0.1427 0.0
H392 H 0.5274 0.2624 0.04806 0.0
H393 H 0.55982 0.28151 0.09682 0.0
H394 H 0.91951 0.18005 1.00117 0.0
H395 H 0.94591 0.18764 0.05247 0.0
H396 H 0.82218 0.14837 0.96577 0.0
H397 H 0.72141 0.16827 0.95109 0.0
C398 C 0.84198 0.82114 0.59214 0.0
C399 C 0.75838 0.82397 0.57888 0.0
C400 C 0.80538 0.84182 0.50856 0.0
C401 C 0.88828 0.82885 0.52092 0.0
N402 N 0.98664 0.80405 0.57426 0.0
N403 N 0.65798 0.83912 0.52552 0.0
C404 C 0.90721 0.81909 0.56282 0.0
C405 C 0.73945 0.83607 0.53741 0.0
N406 N 0.85826 0.81953 0.63295 0.0
N407 N 0.79015 0.86043 0.46945 0.0
H408 H 0.60902 0.83878 0.54643 0.0
H409 H 0.63866 0.83991 0.49528 0.0
H410 H 0.83715 0.86464 0.44768 0.0
H411 H 0.73247 0.87608 0.45925 0.0
H412 H 0.91778 0.82257 0.64532 0.0
H413 H 0.81074 0.82101 0.65463 0.0
H414 H 1.00273 0.78941 0.60343 0.0
H415 H 0.03629 0.80194 0.55389 0.0
C416 C 0.05039 0.49545 0.26708 0.0
C417 C 0.99461 0.44551 0.27287 0.0
C418 C 0.95131 0.49076 0.3378 0.0
C419 C 0.99405 0.54617 0.3278 0.0
N420 N 0.07631 0.60368 0.2791 0.0
N421 N 0.88737 0.39685 0.31291 0.0
C422 C 0.04255 0.54901 0.29167 0.0
C423 C 0.94434 0.44307 0.30827 0.0
N424 N 0.1101 0.49192 0.23758 0.0
N425 N 0.9193 0.48309 0.37594 0.0
H426 H 0.88223 0.36038 0.29245 0.0
H427 H 0.8419 0.39692 0.33553 0.0
H428 H 0.92737 0.5159 0.39869 0.0
H429 H 0.89362 0.44173 0.38612 0.0
H430 H 0.15715 0.52458 0.23419 0.0
H431 H 0.11747 0.45297 0.21934 0.0
H432 H 0.10435 0.60961 0.25076 0.0
H433 H 0.0698 0.64465 0.29524 0.0
C434 C 0.60036 0.60703 0.81275 0.0
C435 C 0.55068 0.60643 0.7771 0.0
C436 C 0.50304 0.50168 0.7933 0.0
C437 C 0.55438 0.50117 0.82859 0.0
N438 N 0.63401 0.55859 0.87768 0.0
N439 N 0.43515 0.56289 0.7408 0.0
C440 C 0.59725 0.55576 0.8402 0.0
C441 C 0.49488 0.55703 0.77017 0.0
N442 N 0.6528 0.65549 0.81945 0.0
N443 N 0.46698 0.44834 0.78003 0.0
H444 H 0.4283 0.60314 0.72354 0.0
H445 H 0.38765 0.53087 0.73655 0.0
H446 H 0.47292 0.40633 0.79527 0.0
H447 H 0.43682 0.44455 0.75209 0.0
H448 H 0.69735 0.65624 0.84245 0.0
H449 H 0.65383 0.6944 0.80064 0.0
H450 H 0.66077 0.59837 0.88951 0.0
H451 H 0.63097 0.52232 0.89861 0.0
C452 C 0.08206 0.55532 0.74994 0.0
C453 C 0.00954 0.51865 0.74465 0.0
C454 C 0.93393 0.58745 0.7909 0.0
C455 C 0.00967 0.61651 0.80189 0.0
N456 N 0.15904 0.62284 0.79491 0.0
N457 N 0.86875 0.49484 0.76553 0.0
C458 C 0.08473 0.59937 0.78205 0.0
C459 C 0.93578 0.53364 0.76639 0.0
N460 N 0.14707 0.55001 0.72339 0.0
N461 N 0.85998 0.61142 0.80399 0.0
H462 H 0.86857 0.4533 0.74966 0.0
H463 H 0.81661 0.50057 0.78402 0.0
H464 H 0.85665 0.65137 0.82155 0.0
H465 H 0.80241 0.59557 0.79384 0.0
H466 H 0.19818 0.57958 0.7236 0.0
H467 H 0.1459 0.52014 0.69859 0.0
H468 H 0.21633 0.60663 0.78453 0.0
H469 H 0.16367 0.65525 0.81813 0.0
C470 C 0.53255 0.50221 0.3121 0.0
C471 C 0.58902 0.45297 0.30539 0.0
C472 C 0.63353 0.50278 0.24184 0.0
C473 C 0.59 0.55728 0.25302 0.0
N474 N 0.50378 0.61075 0.30178 0.0
N475 N 0.69595 0.40642 0.26436 0.0
C476 C 0.53981 0.55728 0.28864 0.0
C477 C 0.63956 0.4528 0.27005 0.0
N478 N 0.47294 0.49651 0.34152 0.0
N479 N 0.66745 0.4984 0.20388 0.0
H480 H 0.69969 0.36817 0.28366 0.0
H481 H 0.74182 0.40766 0.24194 0.0
H482 H 0.66068 0.53332 0.1822 0.0
H483 H 0.69387 0.45805 0.19259 0.0
H484 H 0.42528 0.52853 0.34561 0.0
H485 H 0.46641 0.45648 0.35901 0.0
H486 H 0.47443 0.61486 0.32991 0.0
H487 H 0.50916 0.65254 0.28625 0.0
C488 C 0.57776 0.97088 0.2954 0.0
C489 C 0.50417 0.95655 0.27338 0.0
C490 C 0.43325 0.04396 0.30549 0.0
C491 C 0.50447 0.05552 0.33001 0.0
N492 N 0.63458 1.01642 0.35661 0.0
N493 N 0.35551 0.96838 0.26712 0.0
C494 C 0.57398 1.01497 0.32748 0.0
C495 C 0.42975 0.98936 0.28185 0.0
N496 N 0.65201 0.94485 0.28473 0.0
N497 N 0.37076 0.08666 0.30271 0.0
H498 H 0.35083 0.92778 0.25033 0.0
H499 H 0.29836 0.98758 0.27523 0.0
H500 H 0.37303 0.12934 0.31716 0.0
H501 H 0.32133 0.08272 0.28231 0.0
H502 H 0.70867 0.95876 0.29714 0.0
H503 H 0.65779 0.91317 0.26114 0.0
H504 H 0.68282 0.98426 0.35803 0.0
H505 H 0.63134 0.04536 0.38184 0.0
C506 C 0.03524 1.01139 0.79055 0.0
C507 C 0.07608 1.01506 0.82884 0.0
C508 C 0.10879 0.12439 0.81538 0.0
C509 C 0.07052 0.11954 0.77664 0.0
N510 N 0.97214 0.06692 0.73409 0.0
N511 N 0.13031 0.07893 0.88244 0.0
C512 C 0.0246 0.06586 0.76681 0.0
C513 C 0.10567 0.07306 0.84285 0.0
N514 N 0.01198 0.95542 0.77536 0.0
N515 N 0.15184 0.17662 0.82499 0.0
H516 H 0.12712 0.04246 0.90322 0.0
H517 H 0.14608 0.12086 0.89565 0.0
H518 H 0.15392 0.21496 0.80574 0.0
H519 H 0.18855 0.18101 0.85093 0.0
H520 H 0.99078 0.94935 0.74568 0.0
H521 H 0.02018 0.9141 0.79116 0.0
H522 H 0.93156 0.03101 0.72716 0.0
H523 H 0.96324 0.10663 0.7165 0.0
C524 C 0.54607 0.04051 0.75232 0.0
C525 C 0.47497 1.00187 0.74855 0.0
C526 C 0.40016 0.06973 0.79565 0.0
C527 C 0.47535 0.10042 0.80547 0.0
N528 N 0.62405 0.10896 0.79623 0.0
N529 N 0.33784 0.9745 0.7732 0.0
C530 C 0.5496 0.08446 0.7845 0.0
C531 C 0.40264 1.0153 0.77182 0.0
N532 N 0.60846 0.03746 0.7242 0.0
N533 N 0.32606 0.09264 0.80921 0.0
H534 H 0.33899 0.93192 0.75861 0.0
H535 H 0.287 0.9798 0.79258 0.0
H536 H 0.32212 0.13305 0.82623 0.0
H537 H 0.26888 0.07531 0.79967 0.0
H538 H 0.65815 0.06833 0.72357 0.0
H539 H 0.60566 1.00857 0.69894 0.0
H540 H 0.68094 0.09381 0.7847 0.0
H541 H 0.62945 0.14078 0.81976 0.0
C542 C 0.10485 0.99074 0.24301 0.0
C543 C 0.06237 0.04598 0.25382 0.0
C544 C 1.00548 0.99309 0.31396 0.0
C545 C 0.06075 0.94303 0.30754 0.0
N546 N 0.16247 0.89244 0.26557 0.0
N547 N 0.97853 0.10159 0.30257 0.0
C548 C 0.10948 0.9409 0.27159 0.0
C549 C 0.01314 0.04741 0.28976 0.0
N550 N 0.13971 0.98584 0.20522 0.0
N551 N 0.94623 0.98876 0.34365 0.0
H552 H 0.98437 0.14299 0.28662 0.0
H553 H 0.95007 0.1067 0.33084 0.0
H554 H 0.93918 0.94924 0.36159 0.0
H555 H 0.89914 1.02132 0.34751 0.0
H556 H 0.16595 0.94541 0.19402 0.0
H557 H 0.1353 1.02089 0.18345 0.0
H558 H 0.20577 0.89058 0.24206 0.0
H559 H 0.16551 0.85477 0.28537 0.0
C560 C 0.77198 0.59655 1.03831 0.0
C561 C 0.78573 0.57128 0.99928 0.0
C562 C 0.75708 0.46825 1.02533 0.0
C563 C 0.76778 0.49182 0.06519 0.0
N564 N 0.77328 0.57758 0.11111 0.0
N565 N 0.77668 0.48666 0.95281 0.0
C566 C 0.76886 0.55608 0.07219 0.0
C567 C 0.77132 0.50821 0.99172 0.0
N568 N 0.76582 0.65901 0.04272 0.0
N569 N 0.7375 0.40751 1.02001 0.0
H570 H 0.78389 0.51645 0.92801 0.0
H571 H 0.77523 0.44017 0.94512 0.0
H572 H 0.72706 0.37771 0.04447 0.0
H573 H 0.72479 0.38788 0.99184 0.0
H574 H 0.7511 0.68057 0.07004 0.0
H575 H 0.76798 0.68893 1.0178 0.0
H576 H 0.78328 0.6236 0.11857 0.0
H577 H 0.76931 0.54806 0.13615 0.0
C578 C 0.81347 0.49958 0.58685 0.0
C579 C 0.81421 0.56443 0.58268 0.0
C580 C 0.83607 0.55645 0.50953 0.0
C581 C 0.82624 0.49192 0.51318 0.0
N582 N 0.83566 0.40031 0.55477 0.0
N583 N 0.85719 0.65377 0.54412 0.0
C584 C 0.82683 0.46288 0.5519 0.0
C585 C 0.83775 0.59249 0.54539 0.0
N586 N 0.79384 0.47372 0.62356 0.0
N587 N 0.837 0.58326 0.47184 0.0
H588 H 0.85867 0.68098 0.57017 0.0
H589 H 0.87982 0.67597 0.51823 0.0
H590 H 0.83605 0.55721 0.44525 0.0
H591 H 0.8346 0.63072 0.46694 0.0
H592 H 0.78142 0.427 0.62774 0.0
H593 H 0.7879 0.50017 0.64986 0.0
H594 H 0.83987 0.37644 0.58224 0.0
H595 H 0.84628 0.37272 0.5294 0.0
C596 C 0.24538 0.0861 0.04729 0.0
C597 C 0.25746 0.06 1.00832 0.0
C598 C 0.26167 0.95724 1.03794 0.0
C599 C 0.27566 0.98521 0.0762 0.0
N600 N 0.26332 0.07242 0.12036 0.0
N601 N 0.25791 0.97211 0.96451 0.0
C602 C 0.2594 0.04849 0.08204 0.0
C603 C 0.25664 0.99555 1.003 0.0
N604 N 0.22575 0.14717 0.05048 0.0
N605 N 0.25783 0.89449 1.03531 0.0
H606 H 0.25232 1.0007 0.93898 0.0
H607 H 0.26544 0.92557 0.95782 0.0
H608 H 0.26126 0.8664 0.06109 0.0
H609 H 0.24467 0.87077 1.00861 0.0
H610 H 0.21325 0.1692 0.07789 0.0
H611 H 0.21543 0.17462 1.02482 0.0
H612 H 0.2595 0.11927 0.12686 0.0
H613 H 0.27134 0.0442 0.14591 0.0
C614 C 0.30536 0.95221 0.55101 0.0
C615 C 0.30569 0.97692 0.51114 0.0
C616 C 0.33834 0.07866 0.53786 0.0
C617 C 0.3162 0.05693 0.5772 0.0
N618 N 0.27999 0.97335 0.62215 0.0
N619 N 0.32594 0.06181 0.46518 0.0
C620 C 0.30245 0.99334 0.58428 0.0
C621 C 0.3256 0.03937 0.50405 0.0
N622 N 0.30384 0.88975 0.55668 0.0
N623 N 0.36779 0.13725 0.53269 0.0
H624 H 0.32118 0.03298 0.43991 0.0
H625 H 0.32645 0.10871 0.4583 0.0
H626 H 0.3774 0.16734 0.55686 0.0
H627 H 0.39028 0.1539 0.50503 0.0
H628 H 0.30753 0.86862 0.58513 0.0
H629 H 0.30663 0.85895 0.53242 0.0
H630 H 0.25759 0.92918 0.62815 0.0
H631 H 0.28068 1.00239 0.64737 0.0
loop_
_geom_bond_atom_site_label_1
_geom_bond_atom_site_label_2
_geom_bond_distance
_geom_bond_site_symmetry_2
_ccdc_geom_bond_type
Co0 O3 1.970 1_455 S
Co0 N17 1.989 . S
Co0 O25 1.967 . S
Co0 O32 1.920 . S
Co1 O4 1.966 1_455 S
Co1 N10 2.022 . S
Co1 N18 1.993 . S
Co1 O26 1.941 . S
C2 O3 1.258 . S
C2 O4 1.263 . S
O3 Co0 1.970 1_655 S
O3 C2 1.258 . S
O4 Co1 1.966 1_655 S
O4 C2 1.263 . S
C5 O6 1.235 . S
C5 O32 1.289 1_655 S
O6 C5 1.235 . S
C7 C9 1.400 1_655 S
C7 N10 1.351 1_655 S
C7 C12 1.501 . S
C8 C9 1.387 . S
C8 N11 1.341 . S
C9 C7 1.400 1_455 S
C9 C8 1.387 . S
N10 Co1 2.022 . S
N10 C7 1.351 1_455 S
N10 N11 1.365 . S
N11 C8 1.341 . S
N11 N10 1.365 . S
N11 H31 0.862 . S
C12 C7 1.501 . S
C12 H13 0.961 . S
C12 H14 0.961 . S
C12 H15 0.960 . S
H13 C12 0.961 . S
H14 C12 0.961 . S
H15 C12 0.960 . S
C16 N17 1.342 . S
C16 C20 1.401 . S
C16 C21 1.499 . S
N17 Co0 1.989 . S
N17 C16 1.342 . S
N17 N18 1.388 . S
N18 Co1 1.993 . S
N18 N17 1.388 . S
N18 C19 1.346 . S
C19 N18 1.346 . S
C19 C20 1.396 . S
C19 C29 1.510 . S
C20 C16 1.401 . S
C20 C19 1.396 . S
C21 C16 1.499 . S
C21 H22 0.959 . S
C21 H23 0.960 . S
C21 H24 0.961 . S
H22 C21 0.959 . S
H23 C21 0.960 . S
H24 C21 0.961 . S
O25 Co0 1.967 . S
O25 C33 1.258 . S
O26 Co1 1.941 . S
O26 C33 1.266 . S
H27 C29 0.959 . S
H28 C29 0.961 1_655 S
C29 C19 1.510 . S
C29 H27 0.959 . S
C29 H28 0.961 1_455 S
C29 H30 0.960 . S
H30 C29 0.960 . S
H31 N11 0.862 . S
O32 Co0 1.920 . S
O32 C5 1.289 1_455 S
C33 O25 1.258 . S
C33 O26 1.266 . S
Co34 O37 1.970 . S
Co34 N51 1.989 . S
Co34 O59 1.967 . S
Co34 O66 1.920 . S
Co35 O38 1.966 . S
Co35 N44 2.022 . S
Co35 N52 1.993 . S
Co35 O60 1.941 . S
C36 O37 1.258 . S
C36 O38 1.263 . S
O37 Co34 1.970 . S
O37 C36 1.258 . S
O38 Co35 1.966 . S
O38 C36 1.263 . S
C39 O40 1.235 . S
C39 O66 1.289 . S
O40 C39 1.235 . S
C41 C43 1.400 . S
C41 N44 1.351 . S
C41 C46 1.501 . S
C42 C43 1.387 . S
C42 N45 1.341 . S
C43 C41 1.400 . S
C43 C42 1.387 . S
N44 Co35 2.022 . S
N44 C41 1.351 . S
N44 N45 1.365 . S
N45 C42 1.341 . S
N45 N44 1.365 . S
N45 H65 0.862 . S
C46 C41 1.501 . S
C46 H47 0.961 . S
C46 H48 0.961 . S
C46 H49 0.960 . S
H47 C46 0.961 . S
H48 C46 0.961 . S
H49 C46 0.960 . S
C50 N51 1.342 . S
C50 C54 1.401 . S
C50 C55 1.499 . S
N51 Co34 1.989 . S
N51 C50 1.342 . S
N51 N52 1.388 . S
N52 Co35 1.993 . S
N52 N51 1.388 . S
N52 C53 1.346 . S
C53 N52 1.346 . S
C53 C54 1.396 . S
C53 C63 1.510 . S
C54 C50 1.401 . S
C54 C53 1.396 . S
C55 C50 1.499 . S
C55 H56 0.959 . S
C55 H57 0.960 . S
C55 H58 0.961 . S
H56 C55 0.959 . S
H57 C55 0.960 . S
H58 C55 0.961 . S
O59 Co34 1.967 . S
O59 C67 1.258 . S
O60 Co35 1.941 . S
O60 C67 1.266 . S
H61 C63 0.959 . S
H62 C63 0.961 . S
C63 C53 1.510 . S
C63 H61 0.959 . S
C63 H62 0.961 . S
C63 H64 0.960 . S
H64 C63 0.960 . S
H65 N45 0.862 . S
O66 Co34 1.920 . S
O66 C39 1.289 . S
C67 O59 1.258 . S
C67 O60 1.266 . S
Co68 O71 1.970 1_455 S
Co68 N85 1.989 . S
Co68 O93 1.967 . S
Co68 O100 1.920 . S
Co69 O72 1.966 1_455 S
Co69 N78 2.022 . S
Co69 N86 1.993 . S
Co69 O94 1.941 . S
C70 O71 1.258 . S
C70 O72 1.263 . S
O71 Co68 1.970 1_655 S
O71 C70 1.258 . S
O72 Co69 1.966 1_655 S
O72 C70 1.263 . S
C73 O74 1.235 . S
C73 O100 1.289 1_655 S
O74 C73 1.235 . S
C75 C77 1.400 1_655 S
C75 N78 1.351 1_655 S
C75 C80 1.501 . S
C76 C77 1.387 . S
C76 N79 1.341 . S
C77 C75 1.400 1_455 S
C77 C76 1.387 . S
N78 Co69 2.022 . S
N78 C75 1.351 1_455 S
N78 N79 1.365 . S
N79 C76 1.341 . S
N79 N78 1.365 . S
N79 H99 0.862 . S
C80 C75 1.501 . S
C80 H81 0.961 . S
C80 H82 0.961 . S
C80 H83 0.960 . S
H81 C80 0.961 . S
H82 C80 0.961 . S
H83 C80 0.960 . S
C84 N85 1.342 . S
C84 C88 1.401 . S
C84 C89 1.499 . S
N85 Co68 1.989 . S
N85 C84 1.342 . S
N85 N86 1.388 . S
N86 Co69 1.993 . S
N86 N85 1.388 . S
N86 C87 1.346 . S
C87 N86 1.346 . S
C87 C88 1.396 . S
C87 C97 1.510 . S
C88 C84 1.401 . S
C88 C87 1.396 . S
C89 C84 1.499 . S
C89 H90 0.959 . S
C89 H91 0.960 . S
C89 H92 0.961 . S
H90 C89 0.959 . S
H91 C89 0.960 . S
H92 C89 0.961 . S
O93 Co68 1.967 . S
O93 C101 1.258 . S
O94 Co69 1.941 . S
O94 C101 1.266 . S
H95 C97 0.959 . S
H96 C97 0.961 1_655 S
C97 C87 1.510 . S
C97 H95 0.959 . S
C97 H96 0.961 1_455 S
C97 H98 0.960 . S
H98 C97 0.960 . S
H99 N79 0.862 . S
O100 Co68 1.920 . S
O100 C73 1.289 1_455 S
C101 O93 1.258 . S
C101 O94 1.266 . S
Co102 O105 1.970 . S
Co102 N119 1.989 . S
Co102 O127 1.967 . S
Co102 O134 1.920 . S
Co103 O106 1.966 . S
Co103 N112 2.022 . S
Co103 N120 1.993 . S
Co103 O128 1.941 . S
C104 O105 1.258 . S
C104 O106 1.263 . S
O105 Co102 1.970 . S
O105 C104 1.258 . S
O106 Co103 1.966 . S
O106 C104 1.263 . S
C107 O108 1.235 . S
C107 O134 1.289 . S
O108 C107 1.235 . S
C109 C111 1.400 . S
C109 N112 1.351 . S
C109 C114 1.501 . S
C110 C111 1.387 . S
C110 N113 1.341 . S
C111 C109 1.400 . S
C111 C110 1.387 . S
N112 Co103 2.022 . S
N112 C109 1.351 . S
N112 N113 1.365 . S
N113 C110 1.341 . S
N113 N112 1.365 . S
N113 H133 0.862 . S
C114 C109 1.501 . S
C114 H115 0.961 . S
C114 H116 0.961 . S
C114 H117 0.960 . S
H115 C114 0.961 . S
H116 C114 0.961 . S
H117 C114 0.960 . S
C118 N119 1.342 . S
C118 C122 1.401 . S
C118 C123 1.499 . S
N119 Co102 1.989 . S
N119 C118 1.342 . S
N119 N120 1.388 . S
N120 Co103 1.993 . S
N120 N119 1.388 . S
N120 C121 1.346 . S
C121 N120 1.346 . S
C121 C122 1.396 . S
C121 C131 1.510 . S
C122 C118 1.401 . S
C122 C121 1.396 . S
C123 C118 1.499 . S
C123 H124 0.959 . S
C123 H125 0.960 . S
C123 H126 0.961 . S
H124 C123 0.959 . S
H125 C123 0.960 . S
H126 C123 0.961 . S
O127 Co102 1.967 . S
O127 C135 1.258 . S
O128 Co103 1.941 . S
O128 C135 1.266 . S
H129 C131 0.959 . S
H130 C131 0.961 . S
C131 C121 1.510 . S
C131 H129 0.959 . S
C131 H130 0.961 . S
C131 H132 0.960 . S
H132 C131 0.960 . S
H133 N113 0.862 . S
O134 Co102 1.920 . S
O134 C107 1.289 . S
C135 O127 1.258 . S
C135 O128 1.266 . S
Co136 O139 1.970 . S
Co136 N153 1.989 . S
Co136 O161 1.967 . S
Co136 O168 1.920 . S
Co137 O140 1.966 . S
Co137 N146 2.022 . S
Co137 N154 1.993 . S
Co137 O162 1.941 . S
C138 O139 1.258 . S
C138 O140 1.263 . S
O139 Co136 1.970 . S
O139 C138 1.258 . S
O140 Co137 1.966 . S
O140 C138 1.263 . S
C141 O142 1.235 . S
C141 O168 1.289 . S
O142 C141 1.235 . S
C143 C145 1.400 . S
C143 N146 1.351 . S
C143 C148 1.501 . S
C144 C145 1.387 . S
C144 N147 1.341 . S
C145 C143 1.400 . S
C145 C144 1.387 . S
N146 Co137 2.022 . S
N146 C143 1.351 . S
N146 N147 1.365 . S
N147 C144 1.341 . S
N147 N146 1.365 . S
N147 H167 0.862 . S
C148 C143 1.501 . S
C148 H149 0.961 . S
C148 H150 0.961 . S
C148 H151 0.960 . S
H149 C148 0.961 . S
H150 C148 0.961 . S
H151 C148 0.960 . S
C152 N153 1.342 . S
C152 C156 1.401 . S
C152 C157 1.499 . S
N153 Co136 1.989 . S
N153 C152 1.342 . S
N153 N154 1.388 . S
N154 Co137 1.993 . S
N154 N153 1.388 . S
N154 C155 1.346 . S
C155 N154 1.346 . S
C155 C156 1.396 . S
C155 C165 1.510 . S
C156 C152 1.401 . S
C156 C155 1.396 . S
C157 C152 1.499 . S
C157 H158 0.959 . S
C157 H159 0.960 . S
C157 H160 0.961 . S
H158 C157 0.959 . S
H159 C157 0.960 . S
H160 C157 0.961 . S
O161 Co136 1.967 . S
O161 C169 1.258 . S
O162 Co137 1.941 . S
O162 C169 1.266 . S
H163 C165 0.959 . S
H164 C165 0.961 . S
C165 C155 1.510 . S
C165 H163 0.959 . S
C165 H164 0.961 . S
C165 H166 0.960 . S
H166 C165 0.960 . S
H167 N147 0.862 . S
O168 Co136 1.920 . S
O168 C141 1.289 . S
C169 O161 1.258 . S
C169 O162 1.266 . S
Co170 O173 1.970 . S
Co170 N187 1.989 . S
Co170 O195 1.967 1_455 S
Co170 O202 1.920 . S
Co171 O174 1.966 . S
Co171 N180 2.022 . S
Co171 N188 1.993 . S
Co171 O196 1.941 1_455 S
C172 O173 1.258 . S
C172 O174 1.263 . S
O173 Co170 1.970 . S
O173 C172 1.258 . S
O174 Co171 1.966 . S
O174 C172 1.263 . S
C175 O176 1.235 . S
C175 O202 1.289 . S
O176 C175 1.235 . S
C177 C179 1.400 . S
C177 N180 1.351 . S
C177 C182 1.501 . S
C178 C179 1.387 1_655 S
C178 N181 1.341 . S
C179 C177 1.400 . S
C179 C178 1.387 1_455 S
N180 Co171 2.022 . S
N180 C177 1.351 . S
N180 N181 1.365 1_455 S
N181 C178 1.341 . S
N181 N180 1.365 1_655 S
N181 H201 0.862 . S
C182 C177 1.501 . S
C182 H183 0.961 . S
C182 H184 0.961 . S
C182 H185 0.960 . S
H183 C182 0.961 . S
H184 C182 0.961 . S
H185 C182 0.960 . S
C186 N187 1.342 . S
C186 C190 1.401 . S
C186 C191 1.499 . S
N187 Co170 1.989 . S
N187 C186 1.342 . S
N187 N188 1.388 . S
N188 Co171 1.993 . S
N188 N187 1.388 . S
N188 C189 1.346 . S
C189 N188 1.346 . S
C189 C190 1.396 . S
C189 C199 1.510 . S
C190 C186 1.401 . S
C190 C189 1.396 . S
C191 C186 1.499 . S
C191 H192 0.959 . S
C191 H193 0.960 . S
C191 H194 0.961 1_455 S
H192 C191 0.959 . S
H193 C191 0.960 . S
H194 C191 0.961 1_655 S
O195 Co170 1.967 1_655 S
O195 C203 1.258 . S
O196 Co171 1.941 1_655 S
O196 C203 1.266 . S
H197 C199 0.959 1_655 S
H198 C199 0.961 . S
C199 C189 1.510 . S
C199 H197 0.959 1_455 S
C199 H198 0.961 . S
C199 H200 0.960 . S
H200 C199 0.960 . S
H201 N181 0.862 . S
O202 Co170 1.920 . S
O202 C175 1.289 . S
C203 O195 1.258 . S
C203 O196 1.266 . S
Co204 O207 1.970 . S
Co204 N221 1.989 . S
Co204 O229 1.967 . S
Co204 O236 1.920 . S
Co205 O208 1.966 . S
Co205 N214 2.022 . S
Co205 N222 1.993 . S
Co205 O230 1.941 . S
C206 O207 1.258 . S
C206 O208 1.263 . S
O207 Co204 1.970 . S
O207 C206 1.258 . S
O208 Co205 1.966 . S
O208 C206 1.263 . S
C209 O210 1.235 . S
C209 O236 1.289 . S
O210 C209 1.235 . S
C211 C213 1.400 . S
C211 N214 1.351 . S
C211 C216 1.501 . S
C212 C213 1.387 . S
C212 N215 1.341 . S
C213 C211 1.400 . S
C213 C212 1.387 . S
N214 Co205 2.022 . S
N214 C211 1.351 . S
N214 N215 1.365 . S
N215 C212 1.341 . S
N215 N214 1.365 . S
N215 H235 0.862 . S
C216 C211 1.501 . S
C216 H217 0.961 . S
C216 H218 0.961 . S
C216 H219 0.960 . S
H217 C216 0.961 . S
H218 C216 0.961 . S
H219 C216 0.960 . S
C220 N221 1.342 . S
C220 C224 1.401 . S
C220 C225 1.499 . S
N221 Co204 1.989 . S
N221 C220 1.342 . S
N221 N222 1.388 . S
N222 Co205 1.993 . S
N222 N221 1.388 . S
N222 C223 1.346 . S
C223 N222 1.346 . S
C223 C224 1.396 . S
C223 C233 1.510 . S
C224 C220 1.401 . S
C224 C223 1.396 . S
C225 C220 1.499 . S
C225 H226 0.959 . S
C225 H227 0.960 . S
C225 H228 0.961 . S
H226 C225 0.959 . S
H227 C225 0.960 . S
H228 C225 0.961 . S
O229 Co204 1.967 . S
O229 C237 1.258 . S
O230 Co205 1.941 . S
O230 C237 1.266 . S
H231 C233 0.959 . S
H232 C233 0.961 . S
C233 C223 1.510 . S
C233 H231 0.959 . S
C233 H232 0.961 . S
C233 H234 0.960 . S
H234 C233 0.960 . S
H235 N215 0.862 . S
O236 Co204 1.920 . S
O236 C209 1.289 . S
C237 O229 1.258 . S
C237 O230 1.266 . S
Co238 O241 1.970 . S
Co238 N255 1.989 . S
Co238 O263 1.967 1_455 S
Co238 O270 1.920 . S
Co239 O242 1.966 . S
Co239 N248 2.022 . S
Co239 N256 1.993 . S
Co239 O264 1.941 1_455 S
C240 O241 1.258 . S
C240 O242 1.263 . S
O241 Co238 1.970 . S
O241 C240 1.258 . S
O242 Co239 1.966 . S
O242 C240 1.263 . S
C243 O244 1.235 . S
C243 O270 1.289 . S
O244 C243 1.235 . S
C245 C247 1.400 . S
C245 N248 1.351 . S
C245 C250 1.501 . S
C246 C247 1.387 1_655 S
C246 N249 1.341 . S
C247 C245 1.400 . S
C247 C246 1.387 1_455 S
N248 Co239 2.022 . S
N248 C245 1.351 . S
N248 N249 1.365 1_455 S
N249 C246 1.341 . S
N249 N248 1.365 1_655 S
N249 H269 0.862 . S
C250 C245 1.501 . S
C250 H251 0.961 . S
C250 H252 0.961 . S
C250 H253 0.960 . S
H251 C250 0.961 . S
H252 C250 0.961 . S
H253 C250 0.960 . S
C254 N255 1.342 . S
C254 C258 1.401 . S
C254 C259 1.499 . S
N255 Co238 1.989 . S
N255 C254 1.342 . S
N255 N256 1.388 . S
N256 Co239 1.993 . S
N256 N255 1.388 . S
N256 C257 1.346 . S
C257 N256 1.346 . S
C257 C258 1.396 . S
C257 C267 1.510 . S
C258 C254 1.401 . S
C258 C257 1.396 . S
C259 C254 1.499 . S
C259 H260 0.959 . S
C259 H261 0.960 . S
C259 H262 0.961 1_455 S
H260 C259 0.959 . S
H261 C259 0.960 . S
H262 C259 0.961 1_655 S
O263 Co238 1.967 1_655 S
O263 C271 1.258 . S
O264 Co239 1.941 1_655 S
O264 C271 1.266 . S
H265 C267 0.959 1_655 S
H266 C267 0.961 . S
C267 C257 1.510 . S
C267 H265 0.959 1_455 S
C267 H266 0.961 . S
C267 H268 0.960 . S
H268 C267 0.960 . S
H269 N249 0.862 . S
O270 Co238 1.920 . S
O270 C243 1.289 . S
C271 O263 1.258 . S
C271 O264 1.266 . S
C272 C273 1.363 . S
C272 C278 1.379 . S
C272 N280 1.356 . S
C273 C272 1.363 . S
C273 C279 1.363 1_556 S
C274 C275 1.363 . S
C274 C279 1.379 . S
C274 N281 1.356 . S
C275 C274 1.363 . S
C275 C278 1.363 1_554 S
N276 C278 1.356 1_554 S
N276 H288 0.984 1_554 S
N276 H289 0.985 . S
N277 C279 1.356 1_556 S
N277 H282 0.984 . S
N277 H283 0.985 1_556 S
C278 C272 1.379 . S
C278 C275 1.363 1_556 S
C278 N276 1.356 1_556 S
C279 C273 1.363 1_554 S
C279 C274 1.379 . S
C279 N277 1.356 1_554 S
N280 C272 1.356 . S
N280 H286 0.984 . S
N280 H287 0.984 . S
N281 C274 1.356 . S
N281 H284 0.984 . S
N281 H285 0.985 . S
H282 N277 0.984 . S
H283 N277 0.985 1_554 S
H284 N281 0.984 . S
H285 N281 0.985 . S
H286 N280 0.984 . S
H287 N280 0.984 . S
H288 N276 0.984 1_556 S
H289 N276 0.985 . S
C290 C291 1.363 . S
C290 C296 1.379 . S
C290 N298 1.356 . S
C291 C290 1.363 . S
C291 C297 1.363 . S
C292 C293 1.363 . S
C292 C297 1.379 . S
C292 N299 1.356 . S
C293 C292 1.363 . S
C293 C296 1.363 . S
N294 C296 1.356 . S
N294 H306 0.984 . S
N294 H307 0.985 . S
N295 C297 1.356 . S
N295 H300 0.984 . S
N295 H301 0.985 . S
C296 C290 1.379 . S
C296 C293 1.363 . S
C296 N294 1.356 . S
C297 C291 1.363 . S
C297 C292 1.379 . S
C297 N295 1.356 . S
N298 C290 1.356 . S
N298 H304 0.984 . S
N298 H305 0.984 . S
N299 C292 1.356 . S
N299 H302 0.984 . S
N299 H303 0.985 . S
H300 N295 0.984 . S
H301 N295 0.985 . S
H302 N299 0.984 . S
H303 N299 0.985 . S
H304 N298 0.984 . S
H305 N298 0.984 . S
H306 N294 0.984 . S
H307 N294 0.985 . S
C308 C309 1.363 . S
C308 C314 1.379 1_554 S
C308 N316 1.356 . S
C309 C308 1.363 . S
C309 C315 1.363 . S
C310 C311 1.363 1_554 S
C310 C315 1.379 . S
C310 N317 1.356 1_554 S
C311 C310 1.363 1_556 S
C311 C314 1.363 . S
N312 C314 1.356 . S
N312 H324 0.984 . S
N312 H325 0.985 . S
N313 C315 1.356 . S
N313 H318 0.984 . S
N313 H319 0.985 . S
C314 C308 1.379 1_556 S
C314 C311 1.363 . S
C314 N312 1.356 . S
C315 C309 1.363 . S
C315 C310 1.379 . S
C315 N313 1.356 . S
N316 C308 1.356 . S
N316 H322 0.984 1_554 S
N316 H323 0.984 . S
N317 C310 1.356 1_556 S
N317 H320 0.984 . S
N317 H321 0.985 1_556 S
H318 N313 0.984 . S
H319 N313 0.985 . S
H320 N317 0.984 . S
H321 N317 0.985 1_554 S
H322 N316 0.984 1_556 S
H323 N316 0.984 . S
H324 N312 0.984 . S
H325 N312 0.985 . S
C326 C327 1.363 . S
C326 C332 1.379 . S
C326 N334 1.356 . S
C327 C326 1.363 . S
C327 C333 1.363 . S
C328 C329 1.363 . S
C328 C333 1.379 . S
C328 N335 1.356 . S
C329 C328 1.363 . S
C329 C332 1.363 . S
N330 C332 1.356 . S
N330 H342 0.984 . S
N330 H343 0.985 . S
N331 C333 1.356 . S
N331 H336 0.984 . S
N331 H337 0.985 . S
C332 C326 1.379 . S
C332 C329 1.363 . S
C332 N330 1.356 . S
C333 C327 1.363 . S
C333 C328 1.379 . S
C333 N331 1.356 . S
N334 C326 1.356 . S
N334 H340 0.984 . S
N334 H341 0.984 . S
N335 C328 1.356 . S
N335 H338 0.984 . S
N335 H339 0.985 . S
H336 N331 0.984 . S
H337 N331 0.985 . S
H338 N335 0.984 . S
H339 N335 0.985 . S
H340 N334 0.984 . S
H341 N334 0.984 . S
H342 N330 0.984 . S
H343 N330 0.985 . S
C344 C345 1.363 . S
C344 C350 1.379 1_554 S
C344 N352 1.356 . S
C345 C344 1.363 . S
C345 C351 1.363 . S
C346 C347 1.363 . S
C346 C351 1.379 1_556 S
C346 N353 1.356 . S
C347 C346 1.363 . S
C347 C350 1.363 . S
N348 C350 1.356 . S
N348 H360 0.984 . S
N348 H361 0.985 . S
N349 C351 1.356 . S
N349 H354 0.984 . S
N349 H355 0.985 . S
C350 C344 1.379 1_556 S
C350 C347 1.363 . S
C350 N348 1.356 . S
C351 C345 1.363 . S
C351 C346 1.379 1_554 S
C351 N349 1.356 . S
N352 C344 1.356 . S
N352 H358 0.984 . S
N352 H359 0.984 . S
N353 C346 1.356 . S
N353 H356 0.984 . S
N353 H357 0.985 . S
H354 N349 0.984 . S
H355 N349 0.985 . S
H356 N353 0.984 . S
H357 N353 0.985 . S
H358 N352 0.984 . S
H359 N352 0.984 . S
H360 N348 0.984 . S
H361 N348 0.985 . S
C362 C363 1.363 . S
C362 C368 1.379 . S
C362 N370 1.356 . S
C363 C362 1.363 . S
C363 C369 1.363 . S
C364 C365 1.363 . S
C364 C369 1.379 . S
C364 N371 1.356 . S
C365 C364 1.363 . S
C365 C368 1.363 . S
N366 C368 1.356 . S
N366 H378 0.984 . S
N366 H379 0.985 . S
N367 C369 1.356 . S
N367 H372 0.984 . S
N367 H373 0.985 . S
C368 C362 1.379 . S
C368 C365 1.363 . S
C368 N366 1.356 . S
C369 C363 1.363 . S
C369 C364 1.379 . S
C369 N367 1.356 . S
N370 C362 1.356 . S
N370 H376 0.984 . S
N370 H377 0.984 . S
N371 C364 1.356 . S
N371 H374 0.984 . S
N371 H375 0.985 . S
H372 N367 0.984 . S
H373 N367 0.985 . S
H374 N371 0.984 . S
H375 N371 0.985 . S
H376 N370 0.984 . S
H377 N370 0.984 . S
H378 N366 0.984 . S
H379 N366 0.985 . S
C380 C381 1.363 . S
C380 C386 1.379 1_554 S
C380 N388 1.356 . S
C381 C380 1.363 . S
C381 C387 1.363 . S
C382 C383 1.363 . S
C382 C387 1.379 1_556 S
C382 N389 1.356 . S
C383 C382 1.363 . S
C383 C386 1.363 . S
N384 C386 1.356 . S
N384 H396 0.984 . S
N384 H397 0.985 . S
N385 C387 1.356 . S
N385 H390 0.984 . S
N385 H391 0.985 . S
C386 C380 1.379 1_556 S
C386 C383 1.363 . S
C386 N384 1.356 . S
C387 C381 1.363 . S
C387 C382 1.379 1_554 S
C387 N385 1.356 . S
N388 C380 1.356 . S
N388 H394 0.984 . S
N388 H395 0.984 . S
N389 C382 1.356 . S
N389 H392 0.984 . S
N389 H393 0.985 . S
H390 N385 0.984 . S
H391 N385 0.985 . S
H392 N389 0.984 . S
H393 N389 0.985 . S
H394 N388 0.984 . S
H395 N388 0.984 . S
H396 N384 0.984 . S
H397 N384 0.985 . S
C398 C399 1.363 . S
C398 C404 1.379 . S
C398 N406 1.356 . S
C399 C398 1.363 . S
C399 C405 1.363 . S
C400 C401 1.363 . S
C400 C405 1.379 . S
C400 N407 1.356 . S
C401 C400 1.363 . S
C401 C404 1.363 . S
N402 C404 1.356 . S
N402 H414 0.984 . S
N402 H415 0.985 . S
N403 C405 1.356 . S
N403 H408 0.984 . S
N403 H409 0.985 . S
C404 C398 1.379 . S
C404 C401 1.363 . S
C404 N402 1.356 . S
C405 C399 1.363 . S
C405 C400 1.379 . S
C405 N403 1.356 . S
N406 C398 1.356 . S
N406 H412 0.984 . S
N406 H413 0.984 . S
N407 C400 1.356 . S
N407 H410 0.984 . S
N407 H411 0.985 . S
H408 N403 0.984 . S
H409 N403 0.985 . S
H410 N407 0.984 . S
H411 N407 0.985 . S
H412 N406 0.984 . S
H413 N406 0.984 . S
H414 N402 0.984 . S
H415 N402 0.985 . S
C416 C417 1.363 . S
C416 C422 1.379 . S
C416 N424 1.356 . S
C417 C416 1.363 . S
C417 C423 1.363 . S
C418 C419 1.363 . S
C418 C423 1.379 . S
C418 N425 1.356 1_455 S
C419 C418 1.363 . S
C419 C422 1.363 . S
N420 C422 1.356 . S
N420 H432 0.984 . S
N420 H433 0.985 . S
N421 C423 1.356 1_655 S
N421 H426 0.984 . S
N421 H427 0.985 . S
C422 C416 1.379 . S
C422 C419 1.363 . S
C422 N420 1.356 . S
C423 C417 1.363 . S
C423 C418 1.379 . S
C423 N421 1.356 1_455 S
N424 C416 1.356 . S
N424 H430 0.984 . S
N424 H431 0.984 . S
N425 C418 1.356 1_655 S
N425 H428 0.987 . S
N425 H429 0.985 . S
H426 N421 0.984 . S
H427 N421 0.985 . S
H428 N425 0.987 . S
H429 N425 0.985 . S
H430 N424 0.984 . S
H431 N424 0.984 . S
H432 N420 0.984 . S
H433 N420 0.985 . S
C434 C435 1.363 . S
C434 C440 1.379 . S
C434 N442 1.356 . S
C435 C434 1.363 . S
C435 C441 1.363 . S
C436 C437 1.363 . S
C436 C441 1.379 . S
C436 N443 1.356 . S
C437 C436 1.363 . S
C437 C440 1.363 . S
N438 C440 1.356 . S
N438 H450 0.984 . S
N438 H451 0.985 . S
N439 C441 1.356 . S
N439 H444 0.984 . S
N439 H445 0.985 . S
C440 C434 1.379 . S
C440 C437 1.363 . S
C440 N438 1.356 . S
C441 C435 1.363 . S
C441 C436 1.379 . S
C441 N439 1.356 . S
N442 C434 1.356 . S
N442 H448 0.984 . S
N442 H449 0.984 . S
N443 C436 1.356 . S
N443 H446 0.984 . S
N443 H447 0.985 . S
H444 N439 0.984 . S
H445 N439 0.985 . S
H446 N443 0.984 . S
H447 N443 0.985 . S
H448 N442 0.984 . S
H449 N442 0.984 . S
H450 N438 0.984 . S
H451 N438 0.985 . S
C452 C453 1.363 . S
C452 C458 1.379 . S
C452 N460 1.356 . S
C453 C452 1.363 . S
C453 C459 1.363 . S
C454 C455 1.363 . S
C454 C459 1.379 . S
C454 N461 1.356 1_455 S
C455 C454 1.363 . S
C455 C458 1.363 . S
N456 C458 1.356 . S
N456 H468 0.984 . S
N456 H469 0.985 . S
N457 C459 1.356 . S
N457 H462 0.984 . S
N457 H463 0.985 1_455 S
C458 C452 1.379 . S
C458 C455 1.363 . S
C458 N456 1.356 . S
C459 C453 1.363 . S
C459 C454 1.379 . S
C459 N457 1.356 . S
N460 C452 1.356 . S
N460 H466 0.984 . S
N460 H467 0.984 . S
N461 C454 1.356 1_655 S
N461 H464 0.984 . S
N461 H465 0.985 . S
H462 N457 0.984 . S
H463 N457 0.985 1_655 S
H464 N461 0.984 . S
H465 N461 0.985 . S
H466 N460 0.984 . S
H467 N460 0.984 . S
H468 N456 0.984 . S
H469 N456 0.985 . S
C470 C471 1.363 . S
C470 C476 1.379 . S
C470 N478 1.356 . S
C471 C470 1.363 . S
C471 C477 1.363 . S
C472 C473 1.363 . S
C472 C477 1.379 . S
C472 N479 1.356 . S
C473 C472 1.363 . S
C473 C476 1.363 . S
N474 C476 1.356 . S
N474 H486 0.984 . S
N474 H487 0.985 . S
N475 C477 1.356 . S
N475 H480 0.984 . S
N475 H481 0.985 . S
C476 C470 1.379 . S
C476 C473 1.363 . S
C476 N474 1.356 . S
C477 C471 1.363 . S
C477 C472 1.379 . S
C477 N475 1.356 . S
N478 C470 1.356 . S
N478 H484 0.984 . S
N478 H485 0.984 . S
N479 C472 1.356 . S
N479 H482 0.984 . S
N479 H483 0.985 . S
H480 N475 0.984 . S
H481 N475 0.985 . S
H482 N479 0.984 . S
H483 N479 0.985 . S
H484 N478 0.984 . S
H485 N478 0.984 . S
H486 N474 0.984 . S
H487 N474 0.985 . S
C488 C489 1.363 . S
C488 C494 1.379 1_565 S
C488 N496 1.356 . S
C489 C488 1.363 . S
C489 C495 1.363 . S
C490 C491 1.363 . S
C490 C495 1.379 1_545 S
C490 N497 1.356 . S
C491 C490 1.363 . S
C491 C494 1.363 . S
N492 C494 1.356 . S
N492 H504 0.984 . S
N492 H505 0.985 . S
N493 C495 1.356 . S
N493 H498 0.984 . S
N493 H499 0.985 . S
C494 C488 1.379 1_545 S
C494 C491 1.363 . S
C494 N492 1.356 . S
C495 C489 1.363 . S
C495 C490 1.379 1_565 S
C495 N493 1.356 . S
N496 C488 1.356 . S
N496 H502 0.984 . S
N496 H503 0.984 . S
N497 C490 1.356 . S
N497 H500 0.984 . S
N497 H501 0.985 . S
H498 N493 0.984 . S
H499 N493 0.985 . S
H500 N497 0.984 . S
H501 N497 0.985 . S
H502 N496 0.984 . S
H503 N496 0.984 . S
H504 N492 0.984 . S
H505 N492 0.985 . S
C506 C507 1.363 . S
C506 C512 1.379 . S
C506 N514 1.356 . S
C507 C506 1.363 . S
C507 C513 1.363 . S
C508 C509 1.364 . S
C508 C513 1.379 1_545 S
C508 N515 1.356 . S
C509 C508 1.364 . S
C509 C512 1.364 1_545 S
N510 C512 1.356 1_445 S
N510 H522 0.984 1_545 S
N510 H523 0.985 . S
N511 C513 1.356 . S
N511 H516 0.984 . S
N511 H517 0.985 1_565 S
C512 C506 1.379 . S
C512 C509 1.364 1_565 S
C512 N510 1.356 1_665 S
C513 C507 1.363 . S
C513 C508 1.379 1_565 S
C513 N511 1.356 . S
N514 C506 1.356 . S
N514 H520 0.984 . S
N514 H521 0.984 . S
N515 C508 1.356 . S
N515 H518 0.984 1_655 S
N515 H519 0.985 . S
H516 N511 0.984 . S
H517 N511 0.985 1_545 S
H518 N515 0.984 1_455 S
H519 N515 0.985 . S
H520 N514 0.984 . S
H521 N514 0.984 . S
H522 N510 0.984 1_565 S
H523 N510 0.985 . S
C524 C525 1.363 . S
C524 C530 1.379 1_565 S
C524 N532 1.356 . S
C525 C524 1.363 . S
C525 C531 1.363 . S
C526 C527 1.357 1_565 S
C526 C531 1.385 . S
C526 N533 1.354 1_565 S
C527 C526 1.357 1_545 S
C527 C530 1.363 . S
N528 C530 1.356 . S
N528 H540 0.984 . S
N528 H541 0.985 . S
N529 C531 1.356 . S
N529 H534 0.984 . S
N529 H535 0.985 . S
C530 C524 1.379 1_545 S
C530 C527 1.363 . S
C530 N528 1.356 . S
C531 C525 1.363 . S
C531 C526 1.385 . S
C531 N529 1.356 . S
N532 C524 1.356 . S
N532 H538 0.984 . S
N532 H539 0.984 . S
N533 C526 1.354 1_545 S
N533 H536 0.984 . S
N533 H537 0.985 1_545 S
H534 N529 0.984 . S
H535 N529 0.985 . S
H536 N533 0.984 . S
H537 N533 0.985 1_565 S
H538 N532 0.984 . S
H539 N532 0.984 . S
H540 N528 0.984 . S
H541 N528 0.985 . S
C542 C543 1.363 1_455 S
C542 C548 1.379 1_545 S
C542 N550 1.356 . S
C543 C542 1.363 1_655 S
C543 C549 1.363 . S
C544 C545 1.374 . S
C544 C549 1.379 1_565 S
C544 N551 1.356 . S
C545 C544 1.374 . S
C545 C548 1.353 1_655 S
N546 C548 1.356 . S
N546 H558 0.984 . S
N546 H559 0.985 . S
N547 C549 1.356 . S
N547 H552 0.984 . S
N547 H553 0.985 . S
C548 C542 1.379 1_565 S
C548 C545 1.353 1_455 S
C548 N546 1.356 . S
C549 C543 1.363 . S
C549 C544 1.379 1_545 S
C549 N547 1.356 . S
N550 C542 1.356 . S
N550 H556 0.984 . S
N550 H557 0.984 . S
N551 C544 1.356 . S
N551 H554 0.984 . S
N551 H555 0.985 . S
H552 N547 0.984 . S
H553 N547 0.985 . S
H554 N551 0.984 . S
H555 N551 0.985 . S
H556 N550 0.984 . S
H557 N550 0.984 . S
H558 N546 0.984 . S
H559 N546 0.985 . S
C560 C561 1.363 1_455 S
C560 C566 1.379 1_556 S
C560 N568 1.356 . S
C561 C560 1.363 1_655 S
C561 C567 1.363 . S
C562 C563 1.363 . S
C562 C567 1.379 1_554 S
C562 N569 1.356 . S
C563 C562 1.363 . S
C563 C566 1.363 1_655 S
N564 C566 1.356 . S
N564 H576 0.984 . S
N564 H577 0.985 . S
N565 C567 1.356 . S
N565 H570 0.984 . S
N565 H571 0.985 . S
C566 C560 1.379 1_554 S
C566 C563 1.363 1_455 S
C566 N564 1.356 . S
C567 C561 1.363 . S
C567 C562 1.379 1_556 S
C567 N565 1.356 . S
N568 C560 1.356 . S
N568 H574 0.980 1_556 S
N568 H575 0.984 . S
N569 C562 1.356 . S
N569 H572 0.984 . S
N569 H573 0.980 1_554 S
H570 N565 0.984 . S
H571 N565 0.985 . S
H572 N569 0.984 . S
H573 N569 0.980 1_556 S
H574 N568 0.980 1_554 S
H575 N568 0.984 . S
H576 N564 0.984 . S
H577 N564 0.985 . S
C578 C579 1.363 . S
C578 C584 1.379 . S
C578 N586 1.356 . S
C579 C578 1.363 . S
C579 C585 1.363 . S
C580 C581 1.363 . S
C580 C585 1.379 . S
C580 N587 1.356 . S
C581 C580 1.363 . S
C581 C584 1.363 . S
N582 C584 1.356 . S
N582 H594 0.984 . S
N582 H595 0.985 . S
N583 C585 1.356 . S
N583 H588 0.984 . S
N583 H589 0.985 . S
C584 C578 1.379 . S
C584 C581 1.363 . S
C584 N582 1.356 . S
C585 C579 1.363 . S
C585 C580 1.379 . S
C585 N583 1.356 . S
N586 C578 1.356 . S
N586 H592 0.984 . S
N586 H593 0.984 . S
N587 C580 1.356 . S
N587 H590 0.984 . S
N587 H591 0.985 . S
H588 N583 0.984 . S
H589 N583 0.985 . S
H590 N587 0.984 . S
H591 N587 0.985 . S
H592 N586 0.984 . S
H593 N586 0.984 . S
H594 N582 0.984 . S
H595 N582 0.985 . S
C596 C597 1.363 . S
C596 C602 1.379 1_546 S
C596 N604 1.356 . S
C597 C596 1.363 . S
C597 C603 1.363 . S
C598 C599 1.363 . S
C598 C603 1.379 1_564 S
C598 N605 1.356 . S
C599 C598 1.363 . S
C599 C602 1.363 . S
N600 C602 1.356 . S
N600 H612 0.984 . S
N600 H613 0.985 . S
N601 C603 1.356 . S
N601 H606 0.984 . S
N601 H607 0.985 . S
C602 C596 1.379 1_564 S
C602 C599 1.363 . S
C602 N600 1.356 . S
C603 C597 1.363 . S
C603 C598 1.379 1_546 S
C603 N601 1.356 . S
N604 C596 1.356 . S
N604 H610 0.984 . S
N604 H611 0.984 . S
N605 C598 1.356 . S
N605 H608 0.984 . S
N605 H609 0.985 . S
H606 N601 0.984 . S
H607 N601 0.985 . S
H608 N605 0.984 . S
H609 N605 0.985 . S
H610 N604 0.984 . S
H611 N604 0.984 . S
H612 N600 0.984 . S
H613 N600 0.985 . S
C614 C615 1.363 . S
C614 C620 1.379 . S
C614 N622 1.356 1_455 S
C615 C614 1.363 . S
C615 C621 1.363 1_565 S
C616 C617 1.363 . S
C616 C621 1.379 . S
C616 N623 1.356 . S
C617 C616 1.363 . S
C617 C620 1.363 1_545 S
N618 C620 1.356 1_655 S
N618 H630 0.984 . S
N618 H631 0.985 1_665 S
N619 C621 1.356 . S
N619 H624 0.984 1_545 S
N619 H625 0.985 . S
C620 C614 1.379 . S
C620 C617 1.363 1_565 S
C620 N618 1.356 1_455 S
C621 C615 1.363 1_545 S
C621 C616 1.379 . S
C621 N619 1.356 . S
N622 C614 1.356 1_655 S
N622 H628 0.984 . S
N622 H629 0.984 1_655 S
N623 C616 1.356 . S
N623 H626 0.984 . S
N623 H627 0.985 . S
H624 N619 0.984 1_565 S
H625 N619 0.985 . S
H626 N623 0.984 . S
H627 N623 0.985 . S
H628 N622 0.984 . S
H629 N622 0.984 1_455 S
H630 N618 0.984 . S
H631 N618 0.985 1_445 S
C273 C206 1.630 . S
C275 C33 1.683 . S
C291 C67 1.683 . S
C293 C240 1.630 . S
C309 C138 1.630 . S
C311 C101 1.683 . S
C327 C135 1.683 . S
C329 C172 1.630 . S
C345 C169 1.683 . S
C347 C70 1.630 . S
C363 C203 1.683 . S
C365 C104 1.630 . S
C381 C2 1.630 . S
C383 C237 1.683 . S
C399 C36 1.630 . S
C401 C271 1.683 . S
C417 C20 1.885 . S
C419 C247 1.782 . S
C435 C54 1.885 . S
C437 C213 1.782 . S
C453 C179 1.782 . S
C455 C88 1.885 . S
C471 C122 1.885 . S
C473 C145 1.783 . S
C489 C156 1.885 . S
C491 C111 1.782 . S
C507 C77 1.782 1_655 S
C509 C190 1.883 1_655 S
C525 C43 1.782 . S
C527 C224 1.885 . S
C543 C9 1.782 1_655 S
C545 C258 1.883 1_655 S
C561 C73 0.366 . S
C563 C5 0.366 . S
C579 C39 0.365 . S
C581 C107 0.365 . S
C597 C209 0.366 . S
C599 C141 0.366 . S
C615 C243 0.365 . S
C617 C175 0.365 . S
