# Generated by pormake.
# Topology sod, (4)-cn, num edge types: 1
# Building blocks:
#     Node 0, Type 0, BuildingBlock: AZAVOO_clean_sbu_0, # of connection points: 4
#     Node 1, Type 0, BuildingBlock: AZAVOO_clean_sbu_0, # of connection points: 4
#     Node 2, Type 0, BuildingBlock: AZAVOO_clean_sbu_0, # of connection points: 4
#     Node 3, Type 0, BuildingBlock: AZAVOO_clean_sbu_0, # of connection points: 4
#     Node 4, Type 0, BuildingBlock: AZAVOO_clean_sbu_0, # of connection points: 4
#     Node 5, Type 0, BuildingBlock: AZAVOO_clean_sbu_0, # of connection points: 4
#     Node 6, Type 0, BuildingBlock: AZAVOO_clean_sbu_0, # of connection points: 4
#     Node 7, Type 0, BuildingBlock: AZAVOO_clean_sbu_0, # of connection points: 4
#     Node 8, Type 0, BuildingBlock: AZAVOO_clean_sbu_0, # of connection points: 4
#     Node 9, Type 0, BuildingBlock: AZAVOO_clean_sbu_0, # of connection points: 4
#     Node 10, Type 0, BuildingBlock: AZAVOO_clean_sbu_0, # of connection points: 4
#     Node 11, Type 0, BuildingBlock: AZAVOO_clean_sbu_0, # of connection points: 4
#     Edge 12, Type (0, 0), BuildingBlock: ZUJKAS_clean_linker_0, # of connection points: 2
#     Edge 13, Type (0, 0), BuildingBlock: ZUJKAS_clean_linker_0, # of connection points: 2
#     Edge 14, Type (0, 0), BuildingBlock: ZUJKAS_clean_linker_0, # of connection points: 2
#     Edge 15, Type (0, 0), BuildingBlock: ZUJKAS_clean_linker_0, # of connection points: 2
#     Edge 16, Type (0, 0), BuildingBlock: ZUJKAS_clean_linker_0, # of connection points: 2
#     Edge 17, Type (0, 0), BuildingBlock: ZUJKAS_clean_linker_0, # of connection points: 2
#     Edge 18, Type (0, 0), BuildingBlock: ZUJKAS_clean_linker_0, # of connection points: 2
#     Edge 19, Type (0, 0), BuildingBlock: ZUJKAS_clean_linker_0, # of connection points: 2
#     Edge 20, Type (0, 0), BuildingBlock: ZUJKAS_clean_linker_0, # of connection points: 2
#     Edge 21, Type (0, 0), BuildingBlock: ZUJKAS_clean_linker_0, # of connection points: 2
#     Edge 22, Type (0, 0), BuildingBlock: ZUJKAS_clean_linker_0, # of connection points: 2
#     Edge 23, Type (0, 0), BuildingBlock: ZUJKAS_clean_linker_0, # of connection points: 2
#     Edge 24, Type (0, 0), BuildingBlock: ZUJKAS_clean_linker_0, # of connection points: 2
#     Edge 25, Type (0, 0), BuildingBlock: ZUJKAS_clean_linker_0, # of connection points: 2
#     Edge 26, Type (0, 0), BuildingBlock: ZUJKAS_clean_linker_0, # of connection points: 2
#     Edge 27, Type (0, 0), BuildingBlock: ZUJKAS_clean_linker_0, # of connection points: 2
#     Edge 28, Type (0, 0), BuildingBlock: ZUJKAS_clean_linker_0, # of connection points: 2
#     Edge 29, Type (0, 0), BuildingBlock: ZUJKAS_clean_linker_0, # of connection points: 2
#     Edge 30, Type (0, 0), BuildingBlock: ZUJKAS_clean_linker_0, # of connection points: 2
#     Edge 31, Type (0, 0), BuildingBlock: ZUJKAS_clean_linker_0, # of connection points: 2
#     Edge 32, Type (0, 0), BuildingBlock: ZUJKAS_clean_linker_0, # of connection points: 2
#     Edge 33, Type (0, 0), BuildingBlock: ZUJKAS_clean_linker_0, # of connection points: 2
#     Edge 34, Type (0, 0), BuildingBlock: ZUJKAS_clean_linker_0, # of connection points: 2
#     Edge 35, Type (0, 0), BuildingBlock: ZUJKAS_clean_linker_0, # of connection points: 2
# Relax obj value: 0.127
# Max RMSD: 0.162
# Mean RMSD: 0.156
data_MOF--net-sod--node1-AZAVOO_clean_sbu_0--edge1-ZUJKAS_clean_linker_0
_symmetry_space_group_name_H-M    P1
_symmetry_Int_Tables_number       1
_symmetry_cell_setting            triclinic
loop_
_symmetry_equiv_pos_as_xyz
'x, y, z'
_cell_length_a     53.645549
_cell_length_b     54.416856
_cell_length_c     54.924693
_cell_angle_alpha  89.796992
_cell_angle_beta   92.917962
_cell_angle_gamma 95.642491
loop_
_atom_site_label
_atom_site_type_symbol
_atom_site_fract_x
_atom_site_fract_y
_atom_site_fract_z
_atom_type_partial_charge
Mg0 Mg 0.0226 0.25013 0.53867 0.0
O1 O 0.98711 0.22494 0.52617 0.0
O2 O 0.95625 0.24967 0.52183 0.0
Mg3 Mg 0.97083 0.28927 0.5315 0.0
C4 C 0.96423 0.22838 0.52074 0.0
C5 C 0.06195 0.2154 0.55107 0.0
O6 O 0.0588 0.22693 0.57148 0.0
O7 O 0.02607 0.26554 0.49997 0.0
O8 O 0.9951 0.29024 0.49834 0.0
O9 O 0.01347 0.24536 0.57792 0.0
O10 O 0.00071 0.27484 0.55421 0.0
C11 C 0.01346 0.28127 0.48879 0.0
C12 C 0.00088 0.26434 0.57522 0.0
O13 O 0.04859 0.22019 0.53216 0.0
Mg14 Mg 0.73323 0.98915 0.48742 0.0
O15 O 0.75921 0.02402 0.48067 0.0
O16 O 0.73696 0.05617 0.47446 0.0
Mg17 Mg 0.6957 0.04145 0.47734 0.0
C18 C 0.75792 0.0469 0.47635 0.0
C19 C 0.78532 0.97062 0.48433 0.0
O20 O 0.78342 0.98402 0.4645 0.0
O21 O 0.728 0.00286 0.52602 0.0
O22 O 0.70384 0.03349 0.51796 0.0
O23 O 0.72768 0.98147 0.4475 0.0
O24 O 0.70374 0.00382 0.46809 0.0
C25 C 0.71536 0.02005 0.53305 0.0
C26 C 0.709 0.99483 0.44755 0.0
O27 O 0.76745 0.96908 0.49881 0.0
Mg28 Mg 0.02121 0.77754 0.5198 0.0
O29 O 0.05616 0.80547 0.52541 0.0
O30 O 0.08836 0.78358 0.53518 0.0
Mg31 Mg 0.07461 0.74259 0.53622 0.0
C32 C 0.07942 0.80416 0.53097 0.0
C33 C 0.97552 0.80363 0.51122 0.0
O34 O 0.96943 0.78391 0.52434 0.0
O35 O 0.03425 0.76633 0.48256 0.0
O36 O 0.06471 0.74331 0.49516 0.0
O37 O 0.01363 0.7778 0.55966 0.0
O38 O 0.03693 0.75212 0.54278 0.0
C39 C 0.05104 0.75203 0.47812 0.0
C40 C 0.02745 0.75967 0.56208 0.0
O41 O 0.99783 0.80724 0.50424 0.0
Mg42 Mg 0.31455 0.04624 0.53209 0.0
O43 O 0.28524 0.01274 0.52723 0.0
O44 O 0.30437 0.98036 0.51587 0.0
Mg45 Mg 0.34609 0.99306 0.51383 0.0
C46 C 0.28463 0.99006 0.5212 0.0
C47 C 0.28314 0.08838 0.54055 0.0
O48 O 0.2996 0.09734 0.52509 0.0
O49 O 0.32916 0.03098 0.5683 0.0
O50 O 0.34914 -0.00036 0.55529 0.0
O51 O 0.30964 0.0558 0.49289 0.0
O52 O 0.33742 0.03139 0.5074 0.0
C53 C 0.34252 0.01306 0.57242 0.0
C54 C 0.32697 0.04162 0.48885 0.0
O55 O 0.28508 0.06695 0.54926 0.0
Mg56 Mg 0.47223 -0.002 0.22362 0.0
O57 O 0.50866 0.99565 0.24703 0.0
O58 O 0.53788 0.9846 0.22274 0.0
Mg59 Mg 0.52051 0.98097 0.18399 0.0
C60 C 0.53095 0.99039 0.24369 0.0
C61 C 0.43285 0.00616 0.25887 0.0
O62 O 0.42282 0.98809 0.24463 0.0
O63 O 0.48853 0.0348 0.20878 0.0
O64 O 0.51704 0.02289 0.18418 0.0
O65 O 0.46131 0.95816 0.22973 0.0
O66 O 0.48344 0.97272 0.19905 0.0
C67 C 0.50559 0.03976 0.19364 0.0
C68 C 0.47388 0.95392 0.21097 0.0
O69 O 0.45461 0.01618 0.25469 0.0
Mg70 Mg 0.07836 0.51093 0.30287 0.0
O71 O 0.04043 0.50314 0.28175 0.0
O72 O 0.01094 0.49332 0.30841 0.0
Mg73 Mg 0.03007 0.49532 0.34669 0.0
C74 C 0.01763 0.49696 0.28661 0.0
C75 C 0.11768 0.51829 0.26529 0.0
O76 O 0.12745 0.50443 0.28216 0.0
O77 O 0.06706 0.54866 0.31387 0.0
O78 O 0.03953 0.53722 0.34204 0.0
O79 O 0.08454 0.47087 0.30225 0.0
O80 O 0.06573 0.48845 0.33141 0.0
C81 C 0.05213 0.55393 0.33006 0.0
C82 C 0.07288 0.4687 0.3223 0.0
O83 O 0.09638 0.52581 0.26849 0.0
Mg84 Mg 0.57123 0.01651 0.79945 0.0
O85 O 0.53387 0.00916 0.77694 0.0
O86 O 0.50337 -0.00113 0.80242 0.0
Mg87 Mg 0.5209 0.00152 0.84116 0.0
C88 C 0.51088 0.00273 0.78094 0.0
C89 C 0.61433 0.03109 0.76649 0.0
O90 O 0.62585 0.0247 0.78689 0.0
O91 O 0.56027 0.05429 0.81014 0.0
O92 O 0.52976 0.04348 0.83558 0.0
O93 O 0.57694 0.97657 0.79877 0.0
O94 O 0.55723 0.99408 0.82743 0.0
C95 C 0.54361 0.05988 0.82441 0.0
C96 C 0.56445 0.97431 0.81833 0.0
O97 O 0.59062 0.03123 0.76578 0.0
Mg98 Mg 0.96577 0.50556 0.73319 0.0
O99 O 0.00483 0.50147 0.75094 0.0
O100 O 0.02977 0.4911 0.72206 0.0
Mg101 Mg 0.00676 0.48948 0.68587 0.0
C102 C 0.02608 0.49604 0.74422 0.0
C103 C 0.93363 0.53276 0.76725 0.0
O104 O 0.9202 0.53336 0.74661 0.0
O105 O 0.98053 0.54259 0.71792 0.0
O106 O 0.00469 0.53158 0.68867 0.0
O107 O 0.9546 0.46576 0.73888 0.0
O108 O 0.97233 0.48103 0.70585 0.0
C109 C 0.99516 0.54811 0.70071 0.0
C110 C 0.96415 0.46196 0.71821 0.0
O111 O 0.95436 0.5233 0.76754 0.0
Mg112 Mg 0.2308 0.48642 0.98241 0.0
O113 O 0.25826 0.52022 0.97598 0.0
O114 O 0.23705 0.55291 0.96853 0.0
Mg115 Mg 0.19522 0.53945 0.96921 0.0
C116 C 0.25768 0.54313 0.97137 0.0
C117 C 0.26686 0.44602 0.98584 0.0
O118 O 0.24984 0.43723 0.96924 0.0
O119 O 0.22382 0.50118 0.0202 0.0
O120 O 0.2003 0.53182 0.01025 0.0
O121 O 0.22726 0.47808 0.94245 0.0
O122 O 0.20276 0.50137 0.9612 0.0
C123 C 0.21078 0.51847 0.02619 0.0
C124 C 0.20895 0.49193 0.94121 0.0
O125 O 0.26399 0.46626 0.99631 0.0
Mg126 Mg 0.5252 0.28122 0.02277 0.0
O127 O 0.56071 0.30885 0.02661 0.0
O128 O 0.59303 0.2861 0.03303 0.0
Mg129 Mg 0.57918 0.2452 0.0319 0.0
C130 C 0.58412 0.30692 0.03063 0.0
C131 C 0.47794 0.30513 0.01565 0.0
O132 O 0.47235 0.28335 0.02546 0.0
O133 O 0.53438 0.27166 0.98393 0.0
O134 O 0.566 0.24838 0.99163 0.0
O135 O 0.521 0.27949 0.06321 0.0
O136 O 0.5428 0.25487 0.04291 0.0
C137 C 0.55067 0.25802 0.97673 0.0
C138 C 0.53502 0.26144 0.06343 0.0
O139 O 0.50058 0.31125 0.01058 0.0
Mg140 Mg 0.81859 0.5499 0.04389 0.0
O141 O 0.79152 0.51523 0.03651 0.0
O142 O 0.81228 0.48586 0.02091 0.0
Mg143 Mg 0.85354 0.50123 0.02079 0.0
C144 C 0.79209 0.49361 0.0278 0.0
C145 C 0.78669 0.58969 0.05699 0.0
O146 O 0.80543 0.60107 0.04555 0.0
O147 O 0.83403 0.53255 0.07864 0.0
O148 O 0.85548 0.50364 0.06283 0.0
O149 O 0.81291 0.5621 0.00557 0.0
O150 O 0.8428 0.53917 0.01823 0.0
C151 C 0.84811 0.51497 0.08111 0.0
C152 C 0.83147 0.54984 0.00051 0.0
O153 O 0.78738 0.56698 0.06211 0.0
Mg154 Mg 0.52406 0.74639 0.02767 0.0
O155 O 0.48876 0.72028 0.01652 0.0
O156 O 0.45713 0.74423 0.01439 0.0
Mg157 Mg 0.47088 0.7838 0.02496 0.0
C158 C 0.46558 0.72326 0.01224 0.0
C159 C 0.5711 0.72342 0.03233 0.0
O160 O 0.57319 0.74387 0.04527 0.0
O161 O 0.52474 0.76283 0.98921 0.0
O162 O 0.49323 0.78676 0.99046 0.0
O163 O 0.51808 0.7403 0.06729 0.0
O164 O 0.50248 0.76969 0.04532 0.0
C165 C 0.51118 0.77863 0.97945 0.0
C166 C 0.50461 0.75876 0.06603 0.0
O167 O 0.5508 0.71781 0.01974 0.0
H168 H 0.05802 0.27778 0.46681 0.0
H169 H 0.07287 0.30105 0.4311 0.0
H170 H 0.00158 0.33117 0.42181 0.0
H171 H 0.9865 0.3078 0.4568 0.0
H172 H 0.02198 0.32131 0.37758 0.0
H173 H 0.09089 0.37538 0.44104 0.0
H174 H 0.09303 0.34269 0.4393 0.0
H175 H 0.06613 0.35401 0.45196 0.0
C176 C 0.04534 0.28892 0.4568 0.0
C177 C 0.02125 0.29132 0.46495 0.0
C178 C 0.0539 0.30229 0.43649 0.0
C179 C 0.03849 0.31822 0.42415 0.0
C180 C 0.01383 0.31909 0.43113 0.0
H181 H 0.05153 0.45955 0.36579 0.0
H182 H 0.04558 0.42032 0.38722 0.0
C183 C 0.00529 0.3058 0.45129 0.0
C184 C 0.04836 0.33623 0.40585 0.0
H185 H 0.08518 0.39077 0.40167 0.0
C186 C 0.03621 0.33623 0.38258 0.0
C187 C 0.06676 0.3558 0.4126 0.0
C188 C 0.07992 0.35722 0.4376 0.0
C189 C 0.04098 0.35598 0.36637 0.0
C190 C 0.05853 0.37601 0.37362 0.0
C191 C 0.07174 0.37531 0.39626 0.0
C192 C 0.06127 0.39923 0.35948 0.0
C193 C 0.02612 0.35608 0.34231 0.0
C194 C 0.0719 0.40032 0.33664 0.0
C195 C 0.07521 0.42282 0.32419 0.0
C196 C 0.06797 0.44454 0.33446 0.0
C197 C 0.05708 0.44321 0.35721 0.0
C198 C 0.05379 0.4208 0.36958 0.0
H199 H 0.01113 0.34048 0.3407 0.0
H200 H 0.01742 0.37369 0.34 0.0
H201 H 0.03889 0.35465 0.32722 0.0
H202 H 0.07805 0.3839 0.32868 0.0
H203 H 0.08378 0.42328 0.30674 0.0
H204 H 0.71591 0.97945 0.40118 0.0
H205 H 0.68696 0.98137 0.36541 0.0
H206 H 0.63769 0.02019 0.40766 0.0
H207 H 0.6663 0.01824 0.44346 0.0
H208 H 0.61502 0.97646 0.38321 0.0
H209 H 0.66896 0.04007 0.32116 0.0
H210 H 0.6854 0.01558 0.33433 0.0
H211 H 0.67614 0.03927 0.35364 0.0
C212 C 0.69914 0.98879 0.40274 0.0
C213 C 0.69341 -0.0013 0.42515 0.0
C214 C 0.68268 0.98995 0.38227 0.0
C215 C 0.66031 0.00107 0.38391 0.0
C216 C 0.65494 0.01163 0.40604 0.0
H217 H 0.52583 0.0077 0.2898 0.0
H218 H 0.55714 0.01053 0.32384 0.0
C219 C 0.67137 0.01056 0.42646 0.0
C220 C 0.64148 -0.00013 0.36324 0.0
H221 H 0.63095 0.01926 0.30481 0.0
C222 C 0.61841 0.9859 0.36609 0.0
C223 C 0.64612 0.01207 0.34095 0.0
C224 C 0.67041 0.02777 0.33725 0.0
C225 C 0.5999 0.98349 0.34705 0.0
C226 C 0.60441 0.99587 0.32479 0.0
C227 C 0.62753 0.00983 0.32193 0.0
C228 C 0.58545 0.99438 0.30414 0.0
C229 C 0.57596 0.96718 0.35077 0.0
C230 C 0.5912 0.98492 0.28161 0.0
C231 C 0.57345 0.98348 0.26205 0.0
C232 C 0.54957 0.99152 0.26463 0.0
C233 C 0.54392 0.00111 0.28723 0.0
C234 C 0.56177 0.00266 0.30675 0.0
H235 H 0.57829 0.95391 0.36595 0.0
H236 H 0.56104 0.97886 0.35541 0.0
H237 H 0.56958 0.95663 0.33396 0.0
H238 H 0.60941 0.9785 0.27921 0.0
H239 H 0.57847 0.97603 0.24491 0.0
H240 H 0.06414 0.59559 0.30267 0.0
H241 H 0.06121 0.6387 0.31442 0.0
H242 H 0.03348 0.61404 0.38368 0.0
H243 H 0.03521 0.57142 0.37171 0.0
H244 H 0.00816 0.64977 0.36623 0.0
H245 H 0.1102 0.67822 0.3595 0.0
H246 H 0.09315 0.66756 0.33195 0.0
H247 H 0.09748 0.64641 0.35668 0.0
C248 C 0.05732 0.59947 0.32034 0.0
C249 C 0.05 0.58008 0.33629 0.0
C250 C 0.05578 0.6241 0.32709 0.0
C251 C 0.04748 0.62971 0.35011 0.0
C252 C 0.03984 0.61028 0.36577 0.0
H253 H 0.08405 0.72101 0.46325 0.0
H254 H 0.08209 0.69813 0.42549 0.0
C255 C 0.04092 0.58583 0.35891 0.0
C256 C 0.0473 0.65551 0.35892 0.0
H257 H 0.08662 0.70525 0.37897 0.0
C258 C 0.02521 0.66217 0.36869 0.0
C259 C 0.0695 0.67181 0.36177 0.0
C260 C 0.094 0.6657 0.35209 0.0
C261 C 0.0253 0.68309 0.38358 0.0
C262 C 0.04797 0.69848 0.38791 0.0
C263 C 0.06933 0.69336 0.37578 0.0
C264 C 0.05139 0.71622 0.40866 0.0
C265 C 0.0017 0.68701 0.39632 0.0
C266 C 0.03556 0.73503 0.41159 0.0
C267 C 0.03623 0.74795 0.43374 0.0
C268 C 0.0531 0.74256 0.45305 0.0
C269 C 0.0705 0.72545 0.44903 0.0
C270 C 0.06952 0.71237 0.42723 0.0
H271 H 0.98708 0.67117 0.39378 0.0
H272 H 0.00586 0.68978 0.41619 0.0
H273 H 0.99378 0.7037 0.38885 0.0
H274 H 0.02197 0.73897 0.39722 0.0
H275 H 0.02281 0.76127 0.43608 0.0
H276 H 0.31633 0.06832 0.44821 0.0
H277 H 0.3326 0.06464 0.40778 0.0
H278 H 0.37136 0.0026 0.43248 0.0
H279 H 0.35621 0.00696 0.47315 0.0
H280 H 0.40142 0.03394 0.40889 0.0
H281 H 0.31195 0.01686 0.35383 0.0
H282 H 0.31404 0.04506 0.37093 0.0
H283 H 0.31337 0.01595 0.38668 0.0
C284 C 0.32807 0.05369 0.44494 0.0
C285 C 0.33487 0.03783 0.46388 0.0
C286 C 0.33723 0.05153 0.42176 0.0
C287 C 0.35287 0.03309 0.41696 0.0
C288 C 0.35926 0.01694 0.43574 0.0
H289 H 0.39319 0.98015 0.27899 0.0
H290 H 0.37399 0.98885 0.31685 0.0
C291 C 0.35048 0.01938 0.459 0.0
C292 C 0.36377 0.03135 0.39283 0.0
H293 H 0.34894 0.02476 0.33189 0.0
C294 C 0.38994 0.03186 0.39205 0.0
C295 C 0.34875 0.02849 0.3709 0.0
C296 C 0.32046 0.0263 0.37059 0.0
C297 C 0.40151 0.02923 0.37002 0.0
C298 C 0.38656 0.02699 0.34801 0.0
C299 C 0.3604 0.02679 0.34875 0.0
C300 C 0.39746 0.02294 0.32427 0.0
C301 C 0.42953 0.02789 0.37076 0.0
C302 C 0.4167 0.03952 0.31552 0.0
C303 C 0.42808 0.03435 0.29402 0.0
C304 C 0.41995 0.01281 0.28066 0.0
C305 C 0.3999 0.9969 0.28887 0.0
C306 C 0.38886 0.00186 0.31052 0.0
H307 H 0.43698 0.02319 0.38927 0.0
H308 H 0.43462 0.0139 0.35771 0.0
H309 H 0.43894 0.04614 0.36575 0.0
H310 H 0.42314 0.05627 0.32548 0.0
H311 H 0.4433 0.04709 0.28796 0.0
H312 H 0.02958 0.56745 0.66908 0.0
H313 H 0.03769 0.61037 0.65652 0.0
H314 H 0.98249 0.63146 0.70476 0.0
H315 H 0.97407 0.58837 0.71745 0.0
H316 H 0.97581 0.64771 0.65688 0.0
H317 H 0.07392 0.67146 0.69102 0.0
H318 H 0.06984 0.64279 0.67458 0.0
H319 H 0.05428 0.64557 0.70257 0.0
C320 C 0.01931 0.58119 0.67726 0.0
C321 C 0.0011 0.57441 0.69421 0.0
C322 C 0.02418 0.60579 0.67024 0.0
C323 C 0.01102 0.62414 0.68005 0.0
C324 C 0.99306 0.61758 0.69721 0.0
H325 H 0.00496 0.76713 0.60485 0.0
H326 H 0.00219 0.73889 0.63974 0.0
C327 C 0.98825 0.59294 0.70438 0.0
C328 C 0.01432 0.64958 0.6703 0.0
H329 H 0.05938 0.6957 0.65707 0.0
C330 C 0.9939 0.65859 0.65742 0.0
C331 C 0.03794 0.66367 0.67114 0.0
C332 C 0.06018 0.65549 0.6858 0.0
C333 C 0.99692 0.68033 0.64363 0.0
C334 C 0.02095 0.69364 0.64321 0.0
C335 C 0.04099 0.68548 0.65744 0.0
C336 C 0.02634 0.71353 0.62522 0.0
C337 C 0.97482 0.6878 0.62819 0.0
C338 C 0.04203 0.7094 0.60632 0.0
C339 C 0.04379 0.72549 0.58656 0.0
C340 C 0.0299 0.74609 0.58531 0.0
C341 C 0.01578 0.75133 0.60522 0.0
C342 C 0.01405 0.73516 0.62508 0.0
H343 H 0.95862 0.67339 0.62782 0.0
H344 H 0.96863 0.70498 0.63566 0.0
H345 H 0.98017 0.69154 0.60916 0.0
H346 H 0.05175 0.69286 0.60611 0.0
H347 H 0.05489 0.72088 0.57164 0.0
H348 H 0.4631 0.97982 0.78002 0.0
H349 H 0.43156 0.97787 0.74618 0.0
H350 H 0.48399 0.0202 0.70155 0.0
H351 H 0.51589 0.02147 0.73498 0.0
H352 H 0.40959 0.01347 0.72336 0.0
H353 H 0.46023 0.96452 0.65627 0.0
H354 H 0.47069 0.96716 0.68796 0.0
H355 H 0.47835 0.99209 0.66711 0.0
C356 C 0.46801 0.98849 0.76291 0.0
C357 C 0.49209 0.00065 0.76014 0.0
C358 C 0.44993 0.9874 0.7436 0.0
C359 C 0.4555 -0.00147 0.72117 0.0
C360 C 0.47946 0.01085 0.71843 0.0
H361 H 0.35323 0.04709 0.60886 0.0
H362 H 0.37808 0.042 0.64675 0.0
C363 C 0.49766 0.01167 0.73762 0.0
C364 C 0.436 -0.00196 0.70094 0.0
H365 H 0.42534 0.98492 0.64043 0.0
C366 C 0.41292 0.00697 0.70527 0.0
C367 C 0.4401 0.98912 0.67746 0.0
C368 C 0.46358 0.97744 0.67198 0.0
C369 C 0.39415 0.00795 0.68658 0.0
C370 C 0.39891 0.00048 0.66274 0.0
C371 C 0.42171 0.99088 0.65862 0.0
C372 C 0.38098 0.00294 0.64153 0.0
C373 C 0.36939 0.0167 0.69272 0.0
C374 C 0.37426 0.98276 0.62589 0.0
C375 C 0.36056 0.98578 0.60397 0.0
C376 C 0.35303 0.00901 0.59735 0.0
C377 C 0.3585 0.02891 0.61362 0.0
C378 C 0.37264 0.02597 0.63537 0.0
H379 H 0.36559 0.01333 0.71221 0.0
H380 H 0.37002 0.03689 0.68953 0.0
H381 H 0.35361 0.00736 0.68128 0.0
H382 H 0.38042 0.9648 0.63023 0.0
H383 H 0.35655 0.97009 0.59182 0.0
H384 H 0.0071 0.25314 0.62358 0.0
H385 H 0.99513 0.27715 0.65803 0.0
H386 H 0.9573 0.32421 0.60812 0.0
H387 H 0.9691 0.30057 0.5739 0.0
H388 H 0.0129 0.32618 0.66191 0.0
H389 H 0.90966 0.31729 0.6636 0.0
H390 H 0.92653 0.29486 0.64881 0.0
H391 H 0.91961 0.32276 0.63321 0.0
C392 C 0.99554 0.26812 0.62002 0.0
C393 C 0.9892 0.27507 0.59597 0.0
C394 C 0.98873 0.2818 0.63972 0.0
C395 C 0.97512 0.3023 0.63564 0.0
C396 C 0.96731 0.30814 0.61175 0.0
H397 H 0.98481 0.44799 0.67659 0.0
H398 H 0.988 0.40613 0.66224 0.0
C399 C 0.97428 0.29467 0.59211 0.0
C400 C 0.97278 0.32025 0.65535 0.0
H401 H 0.93113 0.35688 0.67762 0.0
C402 C 0.99496 0.33243 0.66595 0.0
C403 C 0.94941 0.32825 0.6608 0.0
C404 C 0.92495 0.3149 0.65118 0.0
C405 C 0.99448 0.35379 0.68 0.0
C406 C 0.97128 0.3632 0.68332 0.0
C407 C 0.94894 0.34978 0.67468 0.0
C408 C 0.97014 0.3883 0.69299 0.0
C409 C 0.01888 0.36686 0.69014 0.0
C410 C 0.95875 0.39206 0.71488 0.0
C411 C 0.95709 0.41605 0.72327 0.0
C412 C 0.96649 0.4366 0.70969 0.0
C413 C 0.9777 0.43266 0.68767 0.0
C414 C 0.97956 0.40873 0.67944 0.0
H415 H 0.03379 0.35408 0.69205 0.0
H416 H 0.02524 0.38189 0.67751 0.0
H417 H 0.01651 0.37522 0.70819 0.0
H418 H 0.95119 0.37646 0.72543 0.0
H419 H 0.94821 0.41847 0.74026 0.0
H420 H 0.59542 0.03803 0.72 0.0
H421 H 0.61799 0.03819 0.68239 0.0
H422 H 0.6872 0.03151 0.7242 0.0
H423 H 0.66487 0.03146 0.76196 0.0
H424 H 0.6907 0.06597 0.68368 0.0
H425 H 0.64418 0.97335 0.65792 0.0
H426 H 0.62308 0.99575 0.66488 0.0
H427 H 0.64424 0.98567 0.68841 0.0
C428 C 0.61549 0.03692 0.72125 0.0
C429 C 0.62831 0.03447 0.74397 0.0
C430 C 0.62832 0.03689 0.69973 0.0
C431 C 0.65414 0.03441 0.70057 0.0
C432 C 0.66723 0.03327 0.72322 0.0
H433 H 0.72703 0.98968 0.57119 0.0
H434 H 0.71658 0.99371 0.61384 0.0
C435 C 0.65442 0.03323 0.74476 0.0
C436 C 0.66721 0.03189 0.67777 0.0
H437 H 0.66786 0.99495 0.6278 0.0
C438 C 0.68588 0.05039 0.6715 0.0
C439 C 0.66123 0.01126 0.66224 0.0
C440 C 0.64226 0.99023 0.66873 0.0
C441 C 0.69799 0.04928 0.6495 0.0
C442 C 0.69104 0.02928 0.63337 0.0
C443 C 0.67311 0.01031 0.64016 0.0
C444 C 0.7006 0.02846 0.60859 0.0
C445 C 0.71802 0.06957 0.64367 0.0
C446 C 0.69535 0.04678 0.59163 0.0
C447 C 0.7012 0.04452 0.56734 0.0
C448 C 0.71234 0.02378 0.55943 0.0
C449 C 0.71852 0.0059 0.57667 0.0
C450 C 0.71254 0.00815 0.60103 0.0
H451 H 0.72652 0.07892 0.66049 0.0
H452 H 0.7331 0.06228 0.63352 0.0
H453 H 0.7095 0.08363 0.63215 0.0
H454 H 0.6857 0.06235 0.59693 0.0
H455 H 0.69623 0.0587 0.5546 0.0
H456 H 0.48291 0.35303 -0.00106 0.0
H457 H 0.45011 0.38152 0.99518 0.0
H458 H 0.39606 0.32439 0.02038 0.0
H459 H 0.42844 0.29607 0.02438 0.0
H460 H 0.40451 0.37692 0.96734 0.0
H461 H 0.38807 0.38231 0.06578 0.0
H462 H 0.41557 0.37041 0.0545 0.0
H463 H 0.38637 0.35109 0.05494 0.0
C464 C 0.46402 0.34658 0.00366 0.0
C465 C 0.45833 0.32234 0.01211 0.0
C466 C 0.44535 0.36286 0.00155 0.0
C467 C 0.4208 0.3552 0.00802 0.0
C468 C 0.41501 0.33087 0.01589 0.0
H469 H 0.27799 0.4025 0.96663 0.0
H470 H 0.31693 0.38303 0.97232 0.0
C471 C 0.43356 0.31465 0.01799 0.0
C472 C 0.40083 0.37217 0.00597 0.0
H473 H 0.35564 0.39526 0.03829 0.0
C474 C 0.39403 0.38123 0.98289 0.0
C475 C 0.38745 0.37811 0.02635 0.0
C476 C 0.39488 0.37019 0.05184 0.0
C477 C 0.37334 0.39501 0.97944 0.0
C478 C 0.35889 0.39945 -0.00045 0.0
C479 C 0.36651 0.39153 0.02284 0.0
C480 C 0.33519 0.41127 -0.00343 0.0
C481 C 0.36702 0.40451 0.95426 0.0
C482 C 0.33216 0.43314 0.00909 0.0
C483 C 0.30976 0.44426 0.00605 0.0
C484 C 0.28997 0.43358 0.99054 0.0
C485 C 0.29289 0.41132 0.97857 0.0
C486 C 0.31523 0.40025 0.98163 0.0
H487 H 0.38367 0.40618 0.94293 0.0
H488 H 0.35247 0.39134 0.94504 0.0
H489 H 0.35957 0.4228 0.95512 0.0
H490 H 0.34726 0.44179 0.02091 0.0
H491 H 0.3081 0.46138 0.01555 0.0
H492 H 0.30531 0.52896 0.97631 0.0
H493 H 0.3448 0.55554 0.97898 0.0
H494 H 0.30434 0.6197 0.96837 0.0
H495 H 0.26471 0.59333 0.96537 0.0
H496 H 0.34839 0.62016 0.94137 0.0
H497 H 0.36641 0.59846 0.03948 0.0
H498 H 0.36135 0.57249 0.01909 0.0
H499 H 0.33618 0.59109 0.02389 0.0
C500 C 0.30475 0.54871 0.97435 0.0
C501 C 0.28175 0.55902 0.97085 0.0
C502 C 0.32737 0.56386 0.976 0.0
C503 C 0.32742 0.58958 0.97429 0.0
C504 C 0.30465 0.59987 0.96984 0.0
H505 H 0.41695 0.72437 0.9957 0.0
H506 H 0.38653 0.68975 0.98429 0.0
C507 C 0.28202 0.58476 0.96816 0.0
C508 C 0.35102 0.60596 0.97795 0.0
H509 H 0.39582 0.62678 0.02142 0.0
C510 C 0.35891 0.62146 0.95879 0.0
C511 C 0.36478 0.60745 0.00067 0.0
C512 C 0.35675 0.59165 0.02207 0.0
C513 C 0.37987 0.63893 0.96194 0.0
C514 C 0.39296 0.64117 0.98496 0.0
C515 C 0.38575 0.62494 0.00379 0.0
C516 C 0.41228 0.66195 0.99067 0.0
C517 C 0.38759 0.6551 0.94072 0.0
C518 C 0.43682 0.65776 -0.00147 0.0
C519 C 0.45443 0.67764 0.00522 0.0
C520 C 0.44759 0.70196 0.00447 0.0
C521 C 0.42295 0.70594 -0.00346 0.0
C522 C 0.40552 0.68616 0.98977 0.0
H523 H 0.38116 0.64618 0.92303 0.0
H524 H 0.3789 0.67272 0.9418 0.0
H525 H 0.40828 0.65943 0.94103 0.0
H526 H 0.44229 0.63913 -0.00041 0.0
H527 H 0.4732 0.67393 0.01132 0.0
H528 H 0.62437 0.31572 0.0622 0.0
H529 H 0.65673 0.35055 0.06229 0.0
H530 H 0.61783 0.38217 0.00085 0.0
H531 H 0.58451 0.348 0.00187 0.0
H532 H 0.68779 0.36128 0.02987 0.0
H533 H 0.63528 0.44295 0.03961 0.0
H534 H 0.62114 0.41194 0.04416 0.0
H535 H 0.62353 0.42444 0.01384 0.0
C536 C 0.62248 0.33042 0.04909 0.0
C537 C 0.60197 0.32931 0.0321 0.0
C538 C 0.64101 0.35029 0.04907 0.0
C539 C 0.63974 0.3692 0.0317 0.0
C540 C 0.61897 0.36827 0.0149 0.0
H541 H 0.77897 0.45583 0.99566 0.0
H542 H 0.74112 0.42677 0.99482 0.0
C543 C 0.6 0.34867 0.01537 0.0
C544 C 0.66124 0.38854 0.03011 0.0
H545 H 0.67737 0.45076 0.02722 0.0
C546 C 0.68546 0.38086 0.0295 0.0
C547 C 0.65836 0.41414 0.02979 0.0
C548 C 0.6332 0.42386 0.03215 0.0
C549 C 0.70679 0.39787 0.02881 0.0
C550 C 0.70385 0.42343 0.0274 0.0
C551 C 0.67964 0.43118 0.02795 0.0
C552 C 0.72572 0.44238 0.02634 0.0
C553 C 0.73225 0.38816 0.03053 0.0
C554 C 0.72898 0.46178 0.04337 0.0
C555 C 0.75021 0.47888 0.04336 0.0
C556 C 0.76877 0.47667 0.02656 0.0
C557 C 0.76517 0.4577 0.00909 0.0
C558 C 0.74362 0.44099 0.00871 0.0
H559 H 0.73143 0.36965 0.03923 0.0
H560 H 0.73894 0.38624 0.01191 0.0
H561 H 0.74618 0.40082 0.04119 0.0
H562 H 0.7154 0.46338 0.05707 0.0
H563 H 0.75249 0.49333 0.05704 0.0
H564 H 0.74096 0.56904 0.0713 0.0
H565 H 0.70106 0.58758 0.06786 0.0
H566 H 0.73961 0.65578 0.04347 0.0
H567 H 0.77941 0.63755 0.04674 0.0
H568 H 0.68535 0.63205 0.0886 0.0
H569 H 0.68623 0.63514 0.98771 0.0
H570 H 0.7059 0.61645 0.0061 0.0
H571 H 0.71462 0.649 0.00283 0.0
C572 C 0.741 0.58811 0.06558 0.0
C573 C 0.76333 0.60175 0.05905 0.0
C574 C 0.71818 0.59861 0.06353 0.0
C575 C 0.71739 0.62281 0.05484 0.0
C576 C 0.7398 0.63688 0.04968 0.0
H577 H 0.61576 0.7316 0.05801 0.0
H578 H 0.64869 0.70406 0.06324 0.0
C579 C 0.76255 0.62646 0.05173 0.0
C580 C 0.69319 0.6334 0.05055 0.0
H581 H 0.65725 0.65916 0.00615 0.0
C582 C 0.679 0.6377 0.07056 0.0
C583 C 0.68472 0.64028 0.02691 0.0
C584 C 0.69851 0.63478 0.0046 0.0
C585 C 0.65725 0.65003 0.06771 0.0
C586 C 0.64978 0.65846 0.0443 0.0
C587 C 0.66317 0.65288 0.02411 0.0
C588 C 0.62945 0.67485 0.04077 0.0
C589 C 0.64269 0.65429 0.08984 0.0
C590 C 0.60803 0.6679 0.02564 0.0
C591 C 0.58906 0.68376 0.02245 0.0
C592 C 0.5914 0.70686 0.0342 0.0
C593 C 0.61321 0.71389 0.04881 0.0
C594 C 0.63203 0.69808 0.05201 0.0
H595 H 0.6461 0.64061 0.1044 0.0
H596 H 0.6488 0.67296 0.09731 0.0
H597 H 0.62224 0.65325 0.0851 0.0
H598 H 0.60588 0.65011 0.01657 0.0
H599 H 0.5725 0.67784 0.01105 0.0
H600 H 0.55521 0.77872 0.95582 0.0
H601 H 0.56773 0.80465 0.92099 0.0
H602 H 0.49421 0.8305 0.91528 0.0
H603 H 0.48145 0.80452 0.94948 0.0
H604 H 0.51475 0.82453 0.86976 0.0
H605 H 0.58075 0.87909 0.93547 0.0
H606 H 0.58509 0.84696 0.93213 0.0
H607 H 0.55731 0.85566 0.94538 0.0
C608 C 0.54154 0.78944 0.94672 0.0
C609 C 0.5175 0.78994 0.95571 0.0
C610 C 0.54876 0.80434 0.92693 0.0
C611 C 0.53204 0.81986 0.91593 0.0
C612 C 0.50744 0.81876 0.92359 0.0
H613 H 0.54137 0.96446 0.86091 0.0
H614 H 0.53489 0.9248 0.88167 0.0
C615 C 0.50024 0.80398 0.94327 0.0
C616 C 0.5405 0.83944 0.89855 0.0
H617 H 0.57473 0.89565 0.89656 0.0
C618 C 0.52823 0.83989 0.87537 0.0
C619 C 0.55784 0.85958 0.90614 0.0
C620 C 0.57095 0.86055 0.93116 0.0
C621 C 0.53212 0.86041 0.85993 0.0
C622 C 0.54884 0.88081 0.86789 0.0
C623 C 0.56192 0.8799 0.89059 0.0
C624 C 0.55145 0.90424 0.85409 0.0
C625 C 0.51737 0.86074 0.83583 0.0
C626 C 0.56271 0.90573 0.83157 0.0
C627 C 0.56636 0.92843 0.81957 0.0
C628 C 0.55886 0.94997 0.82995 0.0
C629 C 0.5472 0.94824 0.85231 0.0
C630 C 0.54358 0.9256 0.86426 0.0
H631 H 0.50259 0.84496 0.8339 0.0
H632 H 0.50841 0.87823 0.83374 0.0
H633 H 0.53027 0.85974 0.82078 0.0
H634 H 0.56919 0.88949 0.82359 0.0
H635 H 0.57551 0.92918 0.80241 0.0
H636 H 0.2178 0.47545 0.89564 0.0
H637 H 0.19151 0.47882 0.85817 0.0
H638 H 0.14158 0.5201 0.89713 0.0
H639 H 0.16773 0.51715 0.93433 0.0
H640 H 0.14266 0.46002 0.85184 0.0
H641 H 0.1497 0.56079 0.83589 0.0
H642 H 0.1714 0.54651 0.85636 0.0
H643 H 0.14132 0.55315 0.86638 0.0
C644 C 0.20149 0.48567 0.89608 0.0
C645 C 0.19493 0.49614 0.91794 0.0
C646 C 0.18649 0.48754 0.87468 0.0
C647 C 0.16481 0.50004 0.87477 0.0
C648 C 0.15858 0.51095 0.89645 0.0
H649 H 0.02754 0.51073 0.79195 0.0
H650 H 0.06289 0.51141 0.82192 0.0
C651 C 0.17353 0.50913 0.91778 0.0
C652 C 0.14731 0.49978 0.85299 0.0
H653 H 0.11385 0.53702 0.81653 0.0
C654 C 0.13668 0.47685 0.84381 0.0
C655 C 0.13953 0.52177 0.84257 0.0
C656 C 0.15129 0.54693 0.85065 0.0
C657 C 0.11761 0.47531 0.82527 0.0
C658 C 0.10913 0.49728 0.81561 0.0
C659 C 0.1203 0.52022 0.82418 0.0
C660 C 0.08796 0.49681 0.79726 0.0
C661 C 0.1059 0.45024 0.81682 0.0
C662 C 0.09049 0.48847 0.77349 0.0
C663 C 0.07034 0.48808 0.75628 0.0
C664 C 0.0473 0.49601 0.76258 0.0
C665 C 0.04493 0.50438 0.78648 0.0
C666 C 0.06513 0.50487 0.80362 0.0
H667 H 0.11185 0.43517 0.8288 0.0
H668 H 0.08512 0.44958 0.81624 0.0
H669 H 0.11155 0.44678 0.79808 0.0
H670 H 0.10808 0.4824 0.76822 0.0
H671 H 0.07287 0.48157 0.73804 0.0
H672 H 0.50134 0.08022 0.83576 0.0
H673 H 0.49822 0.12207 0.85044 0.0
H674 H 0.57741 0.13996 0.84144 0.0
H675 H 0.58026 0.0985 0.82551 0.0
H676 H 0.51931 0.13805 0.89066 0.0
H677 H 0.55354 0.20369 0.82022 0.0
H678 H 0.54545 0.17129 0.81379 0.0
H679 H 0.57597 0.18204 0.82714 0.0
C680 C 0.51793 0.09332 0.8363 0.0
C681 C 0.54107 0.08611 0.82963 0.0
C682 C 0.51613 0.11726 0.84465 0.0
C683 C 0.53752 0.13436 0.84692 0.0
C684 C 0.56046 0.12746 0.83925 0.0
H685 H 0.58803 0.24065 0.95197 0.0
H686 H 0.58271 0.21536 0.91509 0.0
C687 C 0.56214 0.10365 0.83034 0.0
C688 C 0.53659 0.15769 0.86075 0.0
H689 H 0.55643 0.21941 0.86187 0.0
C690 C 0.52686 0.15591 0.88402 0.0
C691 C 0.54653 0.18108 0.85225 0.0
C692 C 0.5557 0.18466 0.82686 0.0
C693 C 0.52785 0.17646 0.89941 0.0
C694 C 0.53891 0.19951 0.89139 0.0
C695 C 0.54794 0.20166 0.86789 0.0
C696 C 0.5435 0.22051 0.90856 0.0
C697 C 0.51816 0.17316 0.92468 0.0
C698 C 0.52351 0.23286 0.91623 0.0
C699 C 0.5265 0.24746 0.93732 0.0
C700 C 0.54945 0.24957 0.95108 0.0
C701 C 0.57006 0.23917 0.94188 0.0
C702 C 0.5671 0.22481 0.92074 0.0
H703 H 0.51199 0.15356 0.92879 0.0
H704 H 0.53293 0.18006 0.93858 0.0
H705 H 0.50196 0.18414 0.92642 0.0
H706 H 0.50513 0.22966 0.90703 0.0
H707 H 0.51027 0.2552 0.94395 0.0
H708 H 0.88903 0.5518 0.77351 0.0
H709 H 0.87029 0.55953 0.81211 0.0
H710 H 0.93578 0.537 0.8516 0.0
H711 H 0.95484 0.52971 0.81327 0.0
H712 H 0.85864 0.52462 0.84656 0.0
H713 H 0.92471 0.5996 0.88728 0.0
H714 H 0.92426 0.59142 0.85542 0.0
H715 H 0.94043 0.57386 0.87795 0.0
C716 C 0.89964 0.54893 0.79041 0.0
C717 C 0.92341 0.5401 0.79033 0.0
C718 C 0.88888 0.55332 0.81243 0.0
C719 C 0.90176 0.54911 0.8347 0.0
C720 C 0.92575 0.54092 0.83464 0.0
H721 H 0.87293 0.53026 0.9853 0.0
H722 H 0.8881 0.53067 0.94407 0.0
C723 C 0.93655 0.5366 0.81268 0.0
C724 C 0.88941 0.55121 0.85798 0.0
H725 H 0.89783 0.57667 0.91484 0.0
C726 C 0.86697 0.53629 0.86138 0.0
C727 C 0.90035 0.56646 0.87724 0.0
C728 C 0.92363 0.58392 0.87423 0.0
C729 C 0.85574 0.53544 0.88392 0.0
C730 C 0.86723 0.54997 0.9034 0.0
C731 C 0.88924 0.56541 0.89983 0.0
C732 C 0.85718 0.54879 0.92792 0.0
C733 C 0.83222 0.51837 0.88709 0.0
C734 C 0.83469 0.55873 0.93232 0.0
C735 C 0.82596 0.55855 0.95587 0.0
C736 C 0.8396 0.54839 0.97532 0.0
C737 C 0.8619 0.53806 0.9707 0.0
C738 C 0.87066 0.53837 0.9472 0.0
H739 H 0.82775 0.50572 0.8713 0.0
H740 H 0.83419 0.50717 0.9039 0.0
H741 H 0.81618 0.52949 0.88909 0.0
H742 H 0.82419 0.56704 0.91765 0.0
H743 H 0.80876 0.56672 0.95889 0.0
H744 H 0.54317 0.05768 0.16475 0.0
H745 H 0.55198 0.09978 0.15003 0.0
H746 H 0.4916 0.12289 0.19057 0.0
H747 H 0.4827 0.08073 0.20572 0.0
H748 H 0.51601 0.12314 0.12227 0.0
H749 H 0.54938 0.17806 0.20487 0.0
H750 H 0.54938 0.14487 0.20364 0.0
H751 H 0.5206 0.15843 0.20721 0.0
C752 C 0.5319 0.07171 0.17083 0.0
C753 C 0.51207 0.06574 0.18628 0.0
C754 C 0.53706 0.0958 0.16246 0.0
C755 C 0.52261 0.11447 0.16941 0.0
C756 C 0.50328 0.10883 0.18538 0.0
H757 H 0.50633 0.25711 0.10315 0.0
H758 H 0.50537 0.22346 0.13298 0.0
C759 C 0.4981 0.08468 0.19384 0.0
C760 C 0.52611 0.13898 0.15768 0.0
H761 H 0.54295 0.20041 0.16819 0.0
C762 C 0.52198 0.14001 0.13231 0.0
C763 C 0.53363 0.16095 0.17091 0.0
C764 C 0.53871 0.16066 0.19816 0.0
C765 C 0.52523 0.16238 0.11973 0.0
C766 C 0.53327 0.1843 0.13283 0.0
C767 C 0.53699 0.18348 0.15827 0.0
C768 C 0.5378 0.208 0.11984 0.0
C769 C 0.51986 0.16242 0.09246 0.0
C770 C 0.55721 0.21115 0.10363 0.0
C771 C 0.55767 0.23013 0.08649 0.0
C772 C 0.53885 0.24638 0.08546 0.0
C773 C 0.52107 0.24484 0.10349 0.0
C774 C 0.52047 0.22563 0.12054 0.0
H775 H 0.50873 0.14516 0.08601 0.0
H776 H 0.50949 0.17838 0.08686 0.0
H777 H 0.53785 0.16407 0.08319 0.0
H778 H 0.57089 0.19781 0.10304 0.0
H779 H 0.57184 0.23106 0.07313 0.0
H780 H 0.97004 0.47349 0.28679 0.0
H781 H 0.93768 0.47127 0.25359 0.0
H782 H 0.98834 0.51489 0.2082 0.0
H783 H 0.021 0.51634 0.24084 0.0
H784 H 0.91422 0.50582 0.23157 0.0
H785 H 0.96484 0.45998 0.16245 0.0
H786 H 0.97602 0.46236 0.19395 0.0
H787 H 0.98282 0.48763 0.17323 0.0
C788 C 0.97436 0.48238 0.26963 0.0
C789 C 0.99818 0.4949 0.26638 0.0
C790 C 0.95583 0.48113 0.25068 0.0
C791 C 0.96069 0.49249 0.22819 0.0
C792 C 0.98436 0.50528 0.22507 0.0
H793 H 0.85797 0.54581 0.12023 0.0
H794 H 0.88238 0.53792 0.15768 0.0
C795 C 0.003 0.50622 0.24383 0.0
C796 C 0.94081 0.49189 0.20829 0.0
H797 H 0.93013 0.4814 0.14732 0.0
C798 C 0.91756 0.50015 0.2132 0.0
C799 C 0.94485 0.48395 0.18443 0.0
C800 C 0.96839 0.47272 0.17828 0.0
C801 C 0.8987 0.50169 0.19469 0.0
C802 C 0.90354 0.49561 0.17045 0.0
C803 C 0.92641 0.48639 0.1658 0.0
C804 C 0.88583 0.49952 0.14937 0.0
C805 C 0.87379 0.50964 0.20145 0.0
C806 C 0.87965 0.48069 0.13205 0.0
C807 C 0.86628 0.4854 0.11032 0.0
C808 C 0.85848 0.50894 0.10561 0.0
C809 C 0.86343 0.5274 0.1235 0.0
C810 C 0.87729 0.52284 0.14503 0.0
H811 H 0.86984 0.5046 0.22059 0.0
H812 H 0.87433 0.53002 0.19996 0.0
H813 H 0.85815 0.50114 0.18929 0.0
H814 H 0.88597 0.46255 0.13494 0.0
H815 H 0.86267 0.47079 0.09687 0.0
H816 H 0.51406 0.74606 0.11361 0.0
H817 H 0.50431 0.76885 0.14975 0.0
H818 H 0.4631 0.81704 0.10401 0.0
H819 H 0.47259 0.79454 0.06815 0.0
H820 H 0.52203 0.81705 0.15503 0.0
H821 H 0.41948 0.80898 0.16195 0.0
H822 H 0.43508 0.7871 0.14498 0.0
H823 H 0.42731 0.81564 0.13113 0.0
C824 C 0.50221 0.76101 0.11136 0.0
C825 C 0.49424 0.76862 0.08797 0.0
C826 C 0.49668 0.77399 0.13203 0.0
C827 C 0.48277 0.79448 0.1296 0.0
C828 C 0.47335 0.80095 0.10642 0.0
H829 H 0.49855 0.9391 0.17216 0.0
H830 H 0.5021 0.89697 0.15891 0.0
C831 C 0.47899 0.78814 0.08582 0.0
C832 C 0.4817 0.81183 0.15011 0.0
H833 H 0.4419 0.84872 0.17498 0.0
C834 C 0.50446 0.82348 0.16001 0.0
C835 C 0.45884 0.82 0.15693 0.0
C836 C 0.43382 0.80704 0.14835 0.0
C837 C 0.505 0.84464 0.17455 0.0
C838 C 0.48224 0.85449 0.17895 0.0
C839 C 0.45939 0.8414 0.17118 0.0
C840 C 0.48186 0.87975 0.18861 0.0
C841 C 0.52999 0.85697 0.18407 0.0
C842 C 0.46901 0.88403 0.20953 0.0
C843 C 0.46694 0.90819 0.21718 0.0
C844 C 0.47747 0.92842 0.20383 0.0
C845 C 0.49051 0.924 0.18302 0.0
C846 C 0.49266 0.89989 0.17548 0.0
H847 H 0.54408 0.84338 0.1865 0.0
H848 H 0.53707 0.87096 0.17069 0.0
H849 H 0.52834 0.86638 0.20174 0.0
H850 H 0.46032 0.8687 0.21974 0.0
H851 H 0.45669 0.911 0.23326 0.0
H852 H 0.18299 0.55258 0.04509 0.0
H853 H 0.17099 0.55611 0.08702 0.0
H854 H 0.21514 0.49687 0.10842 0.0
H855 H 0.22733 0.493 0.06628 0.0
H856 H 0.14538 0.51339 0.11191 0.0
H857 H 0.23324 0.55361 0.16098 0.0
H858 H 0.22749 0.55722 0.1285 0.0
H859 H 0.23564 0.52823 0.14054 0.0
C860 C 0.19051 0.54046 0.05868 0.0
C861 C 0.20603 0.52235 0.05221 0.0
C862 C 0.1836 0.54256 0.08266 0.0
C863 C 0.19227 0.52685 0.10075 0.0
C864 C 0.2085 0.50936 0.09469 0.0
H865 H 0.15968 0.49912 0.25097 0.0
H866 H 0.17798 0.50288 0.21121 0.0
C867 C 0.21537 0.50713 0.0706 0.0
C868 C 0.18241 0.52736 0.12537 0.0
H869 H 0.19871 0.54149 0.1849 0.0
C870 C 0.15697 0.51963 0.12789 0.0
C871 C 0.19768 0.53538 0.14607 0.0
C872 C 0.22502 0.54425 0.14405 0.0
C873 C 0.14639 0.51925 0.15073 0.0
C874 C 0.16157 0.52754 0.1715 0.0
C875 C 0.18707 0.53533 0.16894 0.0
C876 C 0.15153 0.52714 0.19617 0.0
C877 C 0.11928 0.50921 0.15246 0.0
C878 C 0.13099 0.54013 0.20118 0.0
C879 C 0.12027 0.53781 0.22387 0.0
C880 C 0.13017 0.52275 0.24204 0.0
C881 C 0.15151 0.51078 0.23735 0.0
C882 C 0.16205 0.51294 0.21463 0.0
H883 H 0.11241 0.49772 0.13635 0.0
H884 H 0.11661 0.49786 0.16914 0.0
H885 H 0.10752 0.52483 0.15328 0.0
H886 H 0.12296 0.5517 0.18738 0.0
H887 H 0.10401 0.54747 0.227 0.0
H888 H 0.79071 0.93308 0.51698 0.0
H889 H 0.82525 0.90674 0.52075 0.0
H890 H 0.86342 0.94883 0.46472 0.0
H891 H 0.82901 0.97515 0.46068 0.0
H892 H 0.84177 0.87983 0.47662 0.0
H893 H 0.91685 0.94266 0.52426 0.0
H894 H 0.88392 0.94617 0.5268 0.0
H895 H 0.89893 0.95496 0.49924 0.0
C896 C 0.8066 0.93694 0.5057 0.0
C897 C 0.80708 0.95613 0.48847 0.0
C898 C 0.82627 0.92187 0.50784 0.0
C899 C 0.84686 0.92598 0.49308 0.0
C900 C 0.84776 0.94554 0.4764 0.0
H901 H 0.98102 0.84687 0.48498 0.0
H902 H 0.95001 0.87689 0.47837 0.0
C903 C 0.82803 0.96048 0.47408 0.0
C904 C 0.86657 0.9088 0.49394 0.0
H905 H 0.92753 0.90357 0.51242 0.0
C906 C 0.86053 0.88497 0.48444 0.0
C907 C 0.89106 0.9158 0.50377 0.0
C908 C 0.89824 0.94124 0.51424 0.0
C909 C 0.87838 0.86777 0.48466 0.0
C910 C 0.90269 0.87443 0.49529 0.0
C911 C 0.90888 0.8985 0.50431 0.0
C912 C 0.92138 0.85618 0.49858 0.0
C913 C 0.87105 0.84273 0.47328 0.0
C914 C 0.91564 0.83479 0.51229 0.0
C915 C 0.93313 0.81765 0.51593 0.0
C916 C 0.95694 0.82165 0.50621 0.0
C917 C 0.9628 0.8432 0.49259 0.0
C918 C 0.94515 0.86037 0.48886 0.0
H919 H 0.85541 0.84337 0.4593 0.0
H920 H 0.88716 0.83557 0.46463 0.0
H921 H 0.86459 0.82954 0.48762 0.0
H922 H 0.89768 0.83147 0.52049 0.0
H923 H 0.92803 0.80138 0.5267 0.0
H924 H 0.91481 0.22946 0.50681 0.0
H925 H 0.88431 0.19496 0.49513 0.0
H926 H 0.94136 0.14473 0.50485 0.0
H927 H 0.97229 0.17933 0.51696 0.0
H928 H 0.88467 0.16046 0.45673 0.0
H929 H 0.88498 0.11576 0.54814 0.0
H930 H 0.89837 0.14708 0.54362 0.0
H931 H 0.9148 0.12168 0.53461 0.0
C932 C 0.92103 0.21113 0.50652 0.0
C933 C 0.94604 0.2072 0.51303 0.0
C934 C 0.90351 0.19142 0.49973 0.0
C935 C 0.91052 0.1673 0.49935 0.0
C936 C 0.93552 0.16321 0.50537 0.0
H937 H 0.80603 0.03398 0.4807 0.0
H938 H 0.84489 0.06148 0.48295 0.0
C939 C 0.95317 0.18301 0.5122 0.0
C940 C 0.89122 0.14666 0.49306 0.0
H941 H 0.85665 0.09772 0.51783 0.0
C942 C 0.87869 0.14656 0.46997 0.0
C943 C 0.88354 0.12855 0.51038 0.0
C944 C 0.89594 0.12822 0.53566 0.0
C945 C 0.85826 0.12916 0.46394 0.0
C946 C 0.84992 0.11171 0.48162 0.0
C947 C 0.86309 0.11117 0.50434 0.0
C948 C 0.82662 0.09493 0.47763 0.0
C949 C 0.84565 0.12975 0.43879 0.0
C950 C 0.80344 0.10462 0.47373 0.0
C951 C 0.78114 0.08898 0.47243 0.0
C952 C 0.78158 0.06332 0.4752 0.0
C953 C 0.80493 0.05363 0.47848 0.0
C954 C 0.8272 0.06931 0.47979 0.0
H955 H 0.85856 0.13862 0.42542 0.0
H956 H 0.83886 0.11086 0.43229 0.0
H957 H 0.82929 0.1407 0.43935 0.0
H958 H 0.80253 0.12439 0.47254 0.0
H959 H 0.76354 0.09709 0.46998 0.0
H960 H 0.12773 0.8097 0.54975 0.0
H961 H 0.15772 0.84631 0.54866 0.0
H962 H 0.10143 0.887 0.51278 0.0
H963 H 0.07104 0.85027 0.51375 0.0
H964 H 0.14853 0.88929 0.48966 0.0
H965 H 0.16112 0.91138 0.58823 0.0
H966 H 0.16356 0.87948 0.58137 0.0
H967 H 0.13423 0.89229 0.57536 0.0
C968 C 0.12156 0.82646 0.54182 0.0
C969 C 0.09695 0.82701 0.53181 0.0
C970 C 0.13872 0.84743 0.54136 0.0
C971 C 0.1317 0.86941 0.5309 0.0
C972 C 0.10712 0.87022 0.5211 0.0
H973 H 0.23961 0.00185 0.53713 0.0
H974 H 0.20022 0.97507 0.5381 0.0
C975 C 0.0898 0.84924 0.52171 0.0
C976 C 0.15069 0.89087 0.52889 0.0
H977 H 0.19325 0.92899 0.5628 0.0
C978 C 0.15806 0.89827 0.50562 0.0
C979 C 0.16289 0.9027 0.54973 0.0
C980 C 0.15492 0.89625 0.57509 0.0
C981 C 0.17826 0.91631 0.50269 0.0
C982 C 0.19148 0.927 0.52359 0.0
C983 C 0.18323 0.92058 0.54681 0.0
C984 C 0.21484 0.94369 0.52182 0.0
C985 C 0.18556 0.9235 0.47728 0.0
C986 C 0.23611 0.93483 0.51248 0.0
C987 C 0.25866 0.94997 0.51201 0.0
C988 C 0.2604 0.97433 0.5209 0.0
C989 C 0.23894 0.98323 0.53006 0.0
C990 C 0.21641 0.96797 0.53065 0.0
H991 H 0.16976 0.91904 0.46364 0.0
H992 H 0.1918 0.94353 0.47625 0.0
H993 H 0.20134 0.91309 0.47231 0.0
H994 H 0.2354 0.91598 0.50599 0.0
H995 H 0.27477 0.94248 0.50486 0.0
H996 H 0.08899 0.19793 0.58942 0.0
H997 H 0.12545 0.17461 0.58831 0.0
H998 H 0.118 0.17262 0.50979 0.0
H999 H 0.08104 0.19583 0.5107 0.0
H1000 H 0.12977 0.12738 0.53167 0.0
H1001 H 0.19327 0.20735 0.56717 0.0
H1002 H 0.16739 0.19864 0.58591 0.0
H1003 H 0.16157 0.21023 0.55567 0.0
C1004 C 0.09493 0.19241 0.57187 0.0
C1005 C 0.0823 0.19899 0.55011 0.0
C1006 C 0.11585 0.17915 0.5713 0.0
C1007 C 0.12472 0.17239 0.54897 0.0
C1008 C 0.11151 0.17787 0.52721 0.0
H1009 H 0.27296 0.1333 0.52269 0.0
H1010 H 0.23424 0.15297 0.52536 0.0
C1011 C 0.09042 0.1911 0.52776 0.0
C1012 C 0.14828 0.16038 0.54846 0.0
H1013 H 0.21082 0.16918 0.56458 0.0
C1014 C 0.14752 0.13648 0.53881 0.0
C1015 C 0.17143 0.17249 0.55753 0.0
C1016 C 0.17362 0.19868 0.56695 0.0
C1017 C 0.16932 0.12418 0.53828 0.0
C1018 C 0.19233 0.13601 0.54805 0.0
C1019 C 0.1931 0.16003 0.55741 0.0
C1020 C 0.21611 0.12432 0.54761 0.0
C1021 C 0.16763 0.09888 0.5268 0.0
C1022 C 0.21903 0.10201 0.55986 0.0
C1023 C 0.24121 0.09066 0.55836 0.0
C1024 C 0.26085 0.10153 0.5447 0.0
C1025 C 0.25819 0.12437 0.5333 0.0
C1026 C 0.23605 0.13565 0.53477 0.0
H1027 H 0.15021 0.09502 0.51505 0.0
H1028 H 0.18402 0.09694 0.51566 0.0
H1029 H 0.16749 0.08471 0.54138 0.0
H1030 H 0.20408 0.09326 0.57036 0.0
H1031 H 0.2427 0.07312 0.56742 0.0
loop_
_geom_bond_atom_site_label_1
_geom_bond_atom_site_label_2
_geom_bond_distance
_geom_bond_site_symmetry_2
_ccdc_geom_bond_type
Mg0 O1 2.028 . S
Mg0 O7 1.986 . S
Mg0 O9 2.114 . S
Mg0 O10 2.251 . S
Mg0 O13 2.010 . S
O1 Mg0 2.028 . S
O1 C4 1.250 1_455 S
O2 Mg3 2.028 . S
O2 C4 1.248 . S
Mg3 O2 2.028 . S
Mg3 O8 2.032 . S
Mg3 O10 2.079 1_655 S
C4 O1 1.250 1_655 S
C4 O2 1.248 . S
C5 O6 1.264 . S
C5 O13 1.249 . S
O6 C5 1.264 . S
O7 Mg0 1.986 . S
O7 C11 1.246 . S
O8 Mg3 2.032 . S
O8 C11 1.259 1_655 S
O9 Mg0 2.114 . S
O9 C12 1.252 . S
O10 Mg0 2.251 . S
O10 Mg3 2.079 1_455 S
O10 C12 1.273 . S
C11 O7 1.246 . S
C11 O8 1.259 1_455 S
C12 O9 1.252 . S
C12 O10 1.273 . S
O13 Mg0 2.010 . S
O13 C5 1.249 . S
Mg14 O15 2.028 . S
Mg14 O21 1.986 . S
Mg14 O23 2.114 . S
Mg14 O24 2.251 . S
Mg14 O27 2.010 1_545 S
O15 Mg14 2.028 . S
O15 C18 1.250 . S
O16 Mg17 2.028 . S
O16 C18 1.248 . S
Mg17 O16 2.028 . S
Mg17 O22 2.032 . S
Mg17 O24 2.079 . S
C18 O15 1.250 . S
C18 O16 1.248 . S
C19 O20 1.264 . S
C19 O27 1.249 . S
O20 C19 1.264 . S
O21 Mg14 1.986 . S
O21 C25 1.246 . S
O22 Mg17 2.032 . S
O22 C25 1.259 . S
O23 Mg14 2.114 . S
O23 C26 1.252 . S
O24 Mg14 2.251 . S
O24 Mg17 2.079 . S
O24 C26 1.273 . S
C25 O21 1.246 . S
C25 O22 1.259 . S
C26 O23 1.252 . S
C26 O24 1.273 . S
O27 Mg14 2.010 1_565 S
O27 C19 1.249 . S
Mg28 O29 2.028 . S
Mg28 O35 1.986 . S
Mg28 O37 2.114 . S
Mg28 O38 2.251 . S
Mg28 O41 2.010 1_455 S
O29 Mg28 2.028 . S
O29 C32 1.250 . S
O30 Mg31 2.028 . S
O30 C32 1.248 . S
Mg31 O30 2.028 . S
Mg31 O36 2.032 . S
Mg31 O38 2.079 . S
C32 O29 1.250 . S
C32 O30 1.248 . S
C33 O34 1.264 . S
C33 O41 1.249 . S
O34 C33 1.264 . S
O35 Mg28 1.986 . S
O35 C39 1.246 . S
O36 Mg31 2.032 . S
O36 C39 1.259 . S
O37 Mg28 2.114 . S
O37 C40 1.252 . S
O38 Mg28 2.251 . S
O38 Mg31 2.079 . S
O38 C40 1.273 . S
C39 O35 1.246 . S
C39 O36 1.259 . S
C40 O37 1.252 . S
C40 O38 1.273 . S
O41 Mg28 2.010 1_655 S
O41 C33 1.249 . S
Mg42 O43 1.999 1_545 S
Mg42 O49 1.986 . S
Mg42 O51 2.114 . S
Mg42 O52 2.251 . S
Mg42 O55 2.010 . S
O43 Mg42 1.999 1_565 S
O43 C46 1.296 . S
O44 Mg45 2.028 . S
O44 C46 1.248 . S
Mg45 O44 2.028 . S
Mg45 O50 2.032 . S
Mg45 O52 2.079 1_565 S
C46 O43 1.296 . S
C46 O44 1.248 . S
C47 O48 1.264 . S
C47 O55 1.249 . S
O48 C47 1.264 . S
O49 Mg42 1.986 . S
O49 C53 1.246 . S
O50 Mg45 2.032 . S
O50 C53 1.259 1_565 S
O51 Mg42 2.114 . S
O51 C54 1.252 . S
O52 Mg42 2.251 . S
O52 Mg45 2.079 1_545 S
O52 C54 1.273 . S
C53 O49 1.246 . S
C53 O50 1.259 1_545 S
C54 O51 1.252 . S
C54 O52 1.273 . S
O55 Mg42 2.010 . S
O55 C47 1.249 . S
Mg56 O57 2.028 . S
Mg56 O63 1.986 . S
Mg56 O65 2.114 1_545 S
Mg56 O66 2.251 1_545 S
Mg56 O69 2.010 . S
O57 Mg56 2.028 . S
O57 C60 1.250 . S
O58 Mg59 2.028 . S
O58 C60 1.248 . S
Mg59 O58 2.028 . S
Mg59 O64 2.032 . S
Mg59 O66 2.079 1_545 S
C60 O57 1.250 . S
C60 O58 1.248 . S
C61 O62 1.264 . S
C61 O69 1.249 . S
O62 C61 1.264 . S
O63 Mg56 1.986 . S
O63 C67 1.246 . S
O64 Mg59 2.032 . S
O64 C67 1.259 . S
O65 Mg56 2.114 1_565 S
O65 C68 1.252 . S
O66 Mg56 2.251 1_565 S
O66 Mg59 2.079 1_565 S
O66 C68 1.273 . S
C67 O63 1.246 . S
C67 O64 1.259 . S
C68 O65 1.252 . S
C68 O66 1.273 . S
O69 Mg56 2.010 . S
O69 C61 1.249 . S
Mg70 O71 2.028 . S
Mg70 O77 1.986 . S
Mg70 O79 2.114 . S
Mg70 O80 2.251 . S
Mg70 O83 2.010 . S
O71 Mg70 2.028 . S
O71 C74 1.250 1_455 S
O72 Mg73 2.028 . S
O72 C74 1.248 . S
Mg73 O72 2.028 . S
Mg73 O78 2.032 1_655 S
Mg73 O80 2.079 1_655 S
C74 O71 1.250 1_655 S
C74 O72 1.248 . S
C75 O76 1.264 . S
C75 O83 1.249 . S
O76 C75 1.264 . S
O77 Mg70 1.986 . S
O77 C81 1.246 . S
O78 Mg73 2.032 1_455 S
O78 C81 1.259 . S
O79 Mg70 2.114 . S
O79 C82 1.252 . S
O80 Mg70 2.251 . S
O80 Mg73 2.079 1_455 S
O80 C82 1.273 . S
C81 O77 1.246 . S
C81 O78 1.259 . S
C82 O79 1.252 . S
C82 O80 1.273 . S
O83 Mg70 2.010 . S
O83 C75 1.249 . S
Mg84 O85 2.028 . S
Mg84 O91 1.986 . S
Mg84 O93 2.114 1_545 S
Mg84 O94 2.251 1_545 S
Mg84 O97 2.010 . S
O85 Mg84 2.028 . S
O85 C88 1.250 . S
O86 Mg87 2.028 . S
O86 C88 1.248 . S
Mg87 O86 2.028 . S
Mg87 O92 2.032 . S
Mg87 O94 2.079 1_545 S
C88 O85 1.250 . S
C88 O86 1.248 . S
C89 O90 1.264 . S
C89 O97 1.249 . S
O90 C89 1.264 . S
O91 Mg84 1.986 . S
O91 C95 1.246 . S
O92 Mg87 2.032 . S
O92 C95 1.259 . S
O93 Mg84 2.114 1_565 S
O93 C96 1.252 . S
O94 Mg84 2.251 1_565 S
O94 Mg87 2.079 1_565 S
O94 C96 1.273 . S
C95 O91 1.246 . S
C95 O92 1.259 . S
C96 O93 1.252 . S
C96 O94 1.273 . S
O97 Mg84 2.010 . S
O97 C89 1.249 . S
Mg98 O99 2.041 . S
Mg98 O105 1.987 . S
Mg98 O107 2.115 1_455 S
Mg98 O108 2.263 . S
Mg98 O111 1.995 1_455 S
O99 Mg98 2.041 . S
O99 C102 1.250 . S
O100 Mg101 2.028 . S
O100 C102 1.248 . S
Mg101 O100 2.028 . S
Mg101 O106 2.032 . S
Mg101 O108 2.079 . S
C102 O99 1.250 . S
C102 O100 1.248 . S
C103 O104 1.264 . S
C103 O111 1.249 . S
O104 C103 1.264 . S
O105 Mg98 1.987 . S
O105 C109 1.246 . S
O106 Mg101 2.032 . S
O106 C109 1.259 . S
O107 Mg98 2.115 1_655 S
O107 C110 1.252 1_655 S
O108 Mg98 2.263 . S
O108 Mg101 2.079 . S
O108 C110 1.273 . S
C109 O105 1.246 . S
C109 O106 1.259 . S
C110 O107 1.252 1_455 S
C110 O108 1.273 . S
O111 Mg98 1.995 1_655 S
O111 C103 1.249 . S
Mg112 O113 2.028 . S
Mg112 O119 1.986 . S
Mg112 O121 2.114 1_554 S
Mg112 O122 2.251 1_554 S
Mg112 O125 2.010 . S
O113 Mg112 2.028 . S
O113 C116 1.250 . S
O114 Mg115 2.028 . S
O114 C116 1.248 . S
Mg115 O114 2.028 . S
Mg115 O120 2.032 . S
Mg115 O122 2.079 1_554 S
C116 O113 1.250 . S
C116 O114 1.248 . S
C117 O118 1.264 . S
C117 O125 1.249 . S
O118 C117 1.264 . S
O119 Mg112 1.986 . S
O119 C123 1.246 . S
O120 Mg115 2.032 . S
O120 C123 1.259 . S
O121 Mg112 2.114 1_556 S
O121 C124 1.252 . S
O122 Mg112 2.251 1_556 S
O122 Mg115 2.079 1_556 S
O122 C124 1.273 . S
C123 O119 1.246 . S
C123 O120 1.259 . S
C124 O121 1.252 . S
C124 O122 1.273 . S
O125 Mg112 2.010 . S
O125 C117 1.249 . S
Mg126 O127 2.028 . S
Mg126 O133 1.986 1_554 S
Mg126 O135 2.114 . S
Mg126 O136 2.251 . S
Mg126 O139 2.010 . S
O127 Mg126 2.028 . S
O127 C130 1.250 . S
O128 Mg129 2.028 . S
O128 C130 1.248 . S
Mg129 O128 2.028 . S
Mg129 O134 2.032 1_554 S
Mg129 O136 2.079 . S
C130 O127 1.250 . S
C130 O128 1.248 . S
C131 O132 1.264 . S
C131 O139 1.249 . S
O132 C131 1.264 . S
O133 Mg126 1.986 1_556 S
O133 C137 1.246 . S
O134 Mg129 2.032 1_556 S
O134 C137 1.259 . S
O135 Mg126 2.114 . S
O135 C138 1.252 . S
O136 Mg126 2.251 . S
O136 Mg129 2.079 . S
O136 C138 1.273 . S
C137 O133 1.246 . S
C137 O134 1.259 . S
C138 O135 1.252 . S
C138 O136 1.273 . S
O139 Mg126 2.010 . S
O139 C131 1.249 . S
Mg140 O141 2.028 . S
Mg140 O147 1.986 . S
Mg140 O149 2.114 1_554 S
Mg140 O150 2.251 . S
Mg140 O153 2.010 . S
O141 Mg140 2.028 . S
O141 C144 1.250 . S
O142 Mg143 2.028 . S
O142 C144 1.248 . S
Mg143 O142 2.028 . S
Mg143 O148 2.032 . S
Mg143 O150 2.079 . S
C144 O141 1.250 . S
C144 O142 1.248 . S
C145 O146 1.264 . S
C145 O153 1.249 . S
O146 C145 1.264 . S
O147 Mg140 1.986 . S
O147 C151 1.246 . S
O148 Mg143 2.032 . S
O148 C151 1.259 . S
O149 Mg140 2.114 1_556 S
O149 C152 1.252 . S
O150 Mg140 2.251 . S
O150 Mg143 2.079 . S
O150 C152 1.273 1_554 S
C151 O147 1.246 . S
C151 O148 1.259 . S
C152 O149 1.252 . S
C152 O150 1.273 1_556 S
O153 Mg140 2.010 . S
O153 C145 1.249 . S
Mg154 O155 2.028 . S
Mg154 O161 1.986 1_554 S
Mg154 O163 2.114 . S
Mg154 O164 2.251 . S
Mg154 O167 2.010 . S
O155 Mg154 2.028 . S
O155 C158 1.250 . S
O156 Mg157 2.028 . S
O156 C158 1.248 . S
Mg157 O156 2.028 . S
Mg157 O162 2.032 1_554 S
Mg157 O164 2.079 . S
C158 O155 1.250 . S
C158 O156 1.248 . S
C159 O160 1.264 . S
C159 O167 1.249 . S
O160 C159 1.264 . S
O161 Mg154 1.986 1_556 S
O161 C165 1.246 . S
O162 Mg157 2.032 1_556 S
O162 C165 1.259 . S
O163 Mg154 2.114 . S
O163 C166 1.252 . S
O164 Mg154 2.251 . S
O164 Mg157 2.079 . S
O164 C166 1.273 . S
C165 O161 1.246 . S
C165 O162 1.259 . S
C166 O163 1.252 . S
C166 O164 1.273 . S
O167 Mg154 2.010 . S
O167 C159 1.249 . S
H168 C176 0.929 . S
H169 C178 0.930 . S
H170 C180 0.899 1_655 S
H171 C183 0.929 1_655 S
H172 C186 0.930 . S
H173 C188 0.960 . S
H174 C188 0.960 . S
H175 C188 0.960 . S
C176 H168 0.929 . S
C176 C177 1.377 . S
C176 C178 1.384 . S
C177 C176 1.377 . S
C177 C183 1.390 . S
C178 H169 0.930 . S
C178 C176 1.384 . S
C178 C179 1.372 . S
C179 C178 1.372 . S
C179 C180 1.400 . S
C179 C184 1.490 . S
C180 H170 0.899 1_455 S
C180 C179 1.400 . S
C180 C183 1.386 . S
H181 C197 0.960 . S
H182 C198 0.931 1_655 S
C183 H171 0.929 1_455 S
C183 C177 1.390 . S
C183 C180 1.386 . S
C184 C179 1.490 . S
C184 C186 1.395 . S
C184 C187 1.403 . S
H185 C191 0.930 . S
C186 H172 0.930 . S
C186 C184 1.395 . S
C186 C189 1.403 . S
C187 C184 1.403 . S
C187 C188 1.524 . S
C187 C191 1.400 . S
C188 H173 0.960 . S
C188 H174 0.960 . S
C188 H175 0.960 . S
C188 C187 1.524 . S
C189 C186 1.403 . S
C189 C190 1.392 . S
C189 C193 1.495 . S
C190 C189 1.392 . S
C190 C191 1.385 . S
C190 C192 1.478 . S
C191 H185 0.930 . S
C191 C187 1.400 . S
C191 C190 1.385 . S
C192 C190 1.478 . S
C192 C194 1.381 . S
C192 C198 1.383 . S
C193 C189 1.495 . S
C193 H199 0.959 . S
C193 H200 0.961 . S
C193 H201 0.960 . S
C194 C192 1.381 . S
C194 C195 1.394 . S
C194 H202 0.930 . S
C195 C194 1.394 . S
C195 C196 1.383 . S
C195 H203 0.929 . S
C196 C195 1.383 . S
C196 C197 1.377 . S
C197 H181 0.960 . S
C197 C196 1.377 . S
C197 C198 1.379 . S
C198 H182 0.931 1_455 S
C198 C192 1.383 . S
C198 C197 1.379 . S
H199 C193 0.959 . S
H200 C193 0.961 . S
H201 C193 0.960 . S
H202 C194 0.930 . S
H203 C195 0.929 . S
H204 C212 0.942 . S
H205 C214 0.930 . S
H206 C216 0.930 . S
H207 C219 0.929 . S
H208 C222 0.930 . S
H209 C224 0.960 . S
H210 C224 0.960 . S
H211 C224 0.960 . S
C212 H204 0.942 . S
C212 C213 1.366 1_565 S
C212 C214 1.383 . S
C213 C212 1.366 1_545 S
C213 C219 1.390 . S
C214 H205 0.930 . S
C214 C212 1.383 . S
C214 C215 1.372 1_565 S
C215 C214 1.372 1_545 S
C215 C216 1.400 . S
C215 C220 1.490 . S
C216 H206 0.930 . S
C216 C215 1.400 . S
C216 C219 1.386 . S
H217 C233 0.930 . S
H218 C234 0.931 . S
C219 H207 0.929 . S
C219 C213 1.390 . S
C219 C216 1.386 . S
C220 C215 1.490 . S
C220 C222 1.395 . S
C220 C223 1.403 . S
H221 C227 0.930 . S
C222 H208 0.930 . S
C222 C220 1.395 . S
C222 C225 1.403 . S
C223 C220 1.403 . S
C223 C224 1.524 . S
C223 C227 1.400 . S
C224 H209 0.960 . S
C224 H210 0.960 . S
C224 H211 0.960 . S
C224 C223 1.524 . S
C225 C222 1.403 . S
C225 C226 1.392 . S
C225 C229 1.495 . S
C226 C225 1.392 . S
C226 C227 1.385 . S
C226 C228 1.478 . S
C227 H221 0.930 . S
C227 C223 1.400 . S
C227 C226 1.385 . S
C228 C226 1.478 . S
C228 C230 1.381 1_545 S
C228 C234 1.383 . S
C229 C225 1.495 . S
C229 H235 0.967 . S
C229 H236 0.961 . S
C229 H237 0.960 1_545 S
C230 C228 1.381 1_565 S
C230 C231 1.394 . S
C230 H238 0.930 . S
C231 C230 1.394 . S
C231 C232 1.383 1_565 S
C231 H239 0.929 . S
C232 C231 1.383 1_545 S
C232 C233 1.377 . S
C233 H217 0.930 . S
C233 C232 1.377 . S
C233 C234 1.379 . S
C234 H218 0.931 . S
C234 C228 1.383 . S
C234 C233 1.379 . S
H235 C229 0.967 . S
H236 C229 0.961 . S
H237 C229 0.960 1_565 S
H238 C230 0.930 . S
H239 C231 0.929 . S
H240 C248 0.929 . S
H241 C250 0.930 . S
H242 C252 0.930 . S
H243 C255 0.929 . S
H244 C258 0.930 1_655 S
H245 C260 0.960 . S
H246 C260 0.960 . S
H247 C260 0.960 . S
C248 H240 0.929 . S
C248 C249 1.377 . S
C248 C250 1.384 . S
C249 C248 1.377 . S
C249 C255 1.390 . S
C250 H241 0.930 . S
C250 C248 1.384 . S
C250 C251 1.372 . S
C251 C250 1.372 . S
C251 C252 1.400 . S
C251 C256 1.490 . S
C252 H242 0.930 . S
C252 C251 1.400 . S
C252 C255 1.386 . S
H253 C269 0.930 . S
H254 C270 0.931 . S
C255 H243 0.929 . S
C255 C249 1.390 . S
C255 C252 1.386 . S
C256 C251 1.490 . S
C256 C258 1.395 . S
C256 C259 1.403 . S
H257 C263 0.930 . S
C258 H244 0.930 1_455 S
C258 C256 1.395 . S
C258 C261 1.403 . S
C259 C256 1.403 . S
C259 C260 1.524 . S
C259 C263 1.400 . S
C260 H245 0.960 . S
C260 H246 0.960 . S
C260 H247 0.960 . S
C260 C259 1.524 . S
C261 C258 1.403 . S
C261 C262 1.392 . S
C261 C265 1.495 1_455 S
C262 C261 1.392 . S
C262 C263 1.385 . S
C262 C264 1.478 . S
C263 H257 0.930 . S
C263 C259 1.400 . S
C263 C262 1.385 . S
C264 C262 1.478 . S
C264 C266 1.381 . S
C264 C270 1.383 . S
C265 C261 1.495 1_655 S
C265 H271 0.959 . S
C265 H272 0.961 . S
C265 H273 0.960 . S
C266 C264 1.381 . S
C266 C267 1.394 . S
C266 H274 0.930 . S
C267 C266 1.394 . S
C267 C268 1.383 . S
C267 H275 0.929 . S
C268 C267 1.383 . S
C268 C269 1.377 . S
C269 H253 0.930 . S
C269 C268 1.377 . S
C269 C270 1.379 . S
C270 H254 0.931 . S
C270 C264 1.383 . S
C270 C269 1.379 . S
H271 C265 0.959 . S
H272 C265 0.961 . S
H273 C265 0.960 . S
H274 C266 0.930 . S
H275 C267 0.929 . S
H276 C284 0.929 . S
H277 C286 0.930 . S
H278 C288 0.930 . S
H279 C291 0.929 . S
H280 C294 0.930 . S
H281 C296 0.960 . S
H282 C296 0.960 1_545 S
H283 C296 0.960 . S
C284 H276 0.929 . S
C284 C285 1.377 . S
C284 C286 1.384 . S
C285 C284 1.377 . S
C285 C291 1.390 1_545 S
C286 H277 0.930 . S
C286 C284 1.384 . S
C286 C287 1.372 . S
C287 C286 1.372 . S
C287 C288 1.400 1_545 S
C287 C292 1.490 . S
C288 H278 0.930 . S
C288 C287 1.400 1_565 S
C288 C291 1.386 . S
H289 C305 0.930 . S
H290 C306 0.931 . S
C291 H279 0.929 . S
C291 C285 1.390 1_565 S
C291 C288 1.386 . S
C292 C287 1.490 . S
C292 C294 1.395 . S
C292 C295 1.403 . S
H293 C299 0.921 1_565 S
C294 H280 0.930 . S
C294 C292 1.395 . S
C294 C297 1.403 . S
C295 C292 1.403 . S
C295 C296 1.524 1_545 S
C295 C299 1.400 . S
C296 H281 0.960 . S
C296 H282 0.960 1_565 S
C296 H283 0.960 . S
C296 C295 1.524 1_565 S
C297 C294 1.403 . S
C297 C298 1.392 . S
C297 C301 1.495 . S
C298 C297 1.392 . S
C298 C299 1.385 . S
C298 C300 1.478 . S
C299 H293 0.921 1_545 S
C299 C295 1.400 . S
C299 C298 1.385 . S
C300 C298 1.478 . S
C300 C302 1.381 . S
C300 C306 1.383 1_545 S
C301 C297 1.495 . S
C301 H307 0.959 . S
C301 H308 0.961 . S
C301 H309 0.960 . S
C302 C300 1.381 . S
C302 C303 1.394 . S
C302 H310 0.930 . S
C303 C302 1.394 . S
C303 C304 1.383 . S
C303 H311 0.929 . S
C304 C303 1.383 . S
C304 C305 1.377 1_545 S
C305 H289 0.930 . S
C305 C304 1.377 1_565 S
C305 C306 1.379 . S
C306 H290 0.931 . S
C306 C300 1.383 1_565 S
C306 C305 1.379 . S
H307 C301 0.959 . S
H308 C301 0.961 . S
H309 C301 0.960 . S
H310 C302 0.930 . S
H311 C303 0.929 . S
H312 C320 0.929 . S
H313 C322 0.930 . S
H314 C324 0.930 . S
H315 C327 0.929 . S
H316 C330 0.930 . S
H317 C332 0.956 1_655 S
H318 C332 0.960 . S
H319 C332 0.960 1_655 S
C320 H312 0.929 . S
C320 C321 1.377 . S
C320 C322 1.384 . S
C321 C320 1.377 . S
C321 C327 1.390 1_455 S
C322 H313 0.930 . S
C322 C320 1.384 . S
C322 C323 1.372 . S
C323 C322 1.372 . S
C323 C324 1.400 1_455 S
C323 C328 1.490 . S
C324 H314 0.930 . S
C324 C323 1.400 1_655 S
C324 C327 1.386 . S
H325 C341 0.930 1_655 S
H326 C342 0.931 1_655 S
C327 H315 0.929 . S
C327 C321 1.390 1_655 S
C327 C324 1.386 . S
C328 C323 1.490 . S
C328 C330 1.395 . S
C328 C331 1.403 . S
H329 C335 0.930 . S
C330 H316 0.930 . S
C330 C328 1.395 . S
C330 C333 1.403 . S
C331 C328 1.403 . S
C331 C332 1.524 . S
C331 C335 1.400 . S
C332 H317 0.956 1_455 S
C332 H318 0.960 . S
C332 H319 0.960 1_455 S
C332 C331 1.524 . S
C333 C330 1.403 . S
C333 C334 1.392 . S
C333 C337 1.495 . S
C334 C333 1.392 . S
C334 C335 1.385 . S
C334 C336 1.478 . S
C335 H329 0.930 . S
C335 C331 1.400 . S
C335 C334 1.385 . S
C336 C334 1.478 . S
C336 C338 1.381 . S
C336 C342 1.383 . S
C337 C333 1.495 . S
C337 H343 0.959 . S
C337 H344 0.961 . S
C337 H345 0.960 . S
C338 C336 1.381 . S
C338 C339 1.394 . S
C338 H346 0.930 . S
C339 C338 1.394 . S
C339 C340 1.383 . S
C339 H347 0.929 . S
C340 C339 1.383 . S
C340 C341 1.377 . S
C341 H325 0.930 1_455 S
C341 C340 1.377 . S
C341 C342 1.379 . S
C342 H326 0.931 1_455 S
C342 C336 1.383 . S
C342 C341 1.379 . S
H343 C337 0.959 . S
H344 C337 0.961 . S
H345 C337 0.960 . S
H346 C338 0.930 . S
H347 C339 0.929 . S
H348 C356 0.929 . S
H349 C358 0.930 . S
H350 C360 0.930 . S
H351 C363 0.929 . S
H352 C366 0.930 1_565 S
H353 C368 0.960 . S
H354 C368 0.960 . S
H355 C368 0.960 . S
C356 H348 0.929 . S
C356 C357 1.377 1_565 S
C356 C358 1.384 . S
C357 C356 1.377 1_545 S
C357 C363 1.390 . S
C358 H349 0.930 . S
C358 C356 1.384 . S
C358 C359 1.372 1_565 S
C359 C358 1.372 1_545 S
C359 C360 1.400 . S
C359 C364 1.490 . S
C360 H350 0.930 . S
C360 C359 1.400 . S
C360 C363 1.386 . S
H361 C377 0.930 . S
H362 C378 0.931 . S
C363 H351 0.929 . S
C363 C357 1.390 . S
C363 C360 1.386 . S
C364 C359 1.490 . S
C364 C366 1.395 . S
C364 C367 1.403 . S
H365 C371 0.930 . S
C366 H352 0.930 1_545 S
C366 C364 1.395 . S
C366 C369 1.403 . S
C367 C364 1.403 . S
C367 C368 1.524 . S
C367 C371 1.400 . S
C368 H353 0.960 . S
C368 H354 0.960 . S
C368 H355 0.960 . S
C368 C367 1.524 . S
C369 C366 1.403 . S
C369 C370 1.392 . S
C369 C373 1.495 1_545 S
C370 C369 1.392 . S
C370 C371 1.385 . S
C370 C372 1.478 . S
C371 H365 0.930 . S
C371 C367 1.400 . S
C371 C370 1.385 . S
C372 C370 1.478 . S
C372 C374 1.381 1_545 S
C372 C378 1.383 . S
C373 C369 1.495 1_565 S
C373 H379 0.959 . S
C373 H380 0.961 1_565 S
C373 H381 0.960 . S
C374 C372 1.381 1_565 S
C374 C375 1.394 . S
C374 H382 0.930 . S
C375 C374 1.394 . S
C375 C376 1.383 1_565 S
C375 H383 0.929 . S
C376 C375 1.383 1_545 S
C376 C377 1.377 . S
C377 H361 0.930 . S
C377 C376 1.377 . S
C377 C378 1.379 . S
C378 H362 0.931 . S
C378 C372 1.383 . S
C378 C377 1.379 . S
H379 C373 0.959 . S
H380 C373 0.961 1_545 S
H381 C373 0.960 . S
H382 C374 0.930 . S
H383 C375 0.929 . S
H384 C392 0.929 . S
H385 C394 0.930 . S
H386 C396 0.930 . S
H387 C399 0.929 . S
H388 C402 0.930 . S
H389 C404 0.960 . S
H390 C404 0.960 . S
H391 C404 0.960 . S
C392 H384 0.929 . S
C392 C393 1.377 . S
C392 C394 1.384 . S
C393 C392 1.377 . S
C393 C399 1.390 . S
C394 H385 0.930 . S
C394 C392 1.384 . S
C394 C395 1.372 . S
C395 C394 1.372 . S
C395 C396 1.400 . S
C395 C400 1.490 . S
C396 H386 0.930 . S
C396 C395 1.400 . S
C396 C399 1.386 . S
H397 C413 0.930 . S
H398 C414 0.931 . S
C399 H387 0.929 . S
C399 C393 1.390 . S
C399 C396 1.386 . S
C400 C395 1.490 . S
C400 C402 1.395 . S
C400 C403 1.403 1_455 S
H401 C407 0.917 1_655 S
C402 H388 0.930 . S
C402 C400 1.395 . S
C402 C405 1.403 . S
C403 C400 1.403 1_655 S
C403 C404 1.524 . S
C403 C407 1.401 1_655 S
C404 H389 0.960 . S
C404 H390 0.960 . S
C404 H391 0.960 . S
C404 C403 1.524 . S
C405 C402 1.403 . S
C405 C406 1.392 . S
C405 C409 1.495 . S
C406 C405 1.392 . S
C406 C407 1.397 . S
C406 C408 1.478 . S
C407 H401 0.917 1_455 S
C407 C403 1.401 1_455 S
C407 C406 1.397 . S
C408 C406 1.478 . S
C408 C410 1.381 . S
C408 C414 1.383 . S
C409 C405 1.495 . S
C409 H415 0.959 . S
C409 H416 0.961 . S
C409 H417 0.960 . S
C410 C408 1.381 . S
C410 C411 1.394 . S
C410 H418 0.930 . S
C411 C410 1.394 . S
C411 C412 1.383 . S
C411 H419 0.929 . S
C412 C411 1.383 . S
C412 C413 1.377 . S
C413 H397 0.930 . S
C413 C412 1.377 . S
C413 C414 1.379 . S
C414 H398 0.931 . S
C414 C408 1.383 . S
C414 C413 1.379 . S
H415 C409 0.959 . S
H416 C409 0.961 . S
H417 C409 0.960 . S
H418 C410 0.930 . S
H419 C411 0.929 . S
H420 C428 0.929 . S
H421 C430 0.930 . S
H422 C432 0.930 1_565 S
H423 C435 0.929 1_565 S
H424 C438 0.930 . S
H425 C440 0.960 . S
H426 C440 0.960 . S
H427 C440 0.960 . S
C428 H420 0.929 . S
C428 C429 1.377 . S
C428 C430 1.384 . S
C429 C428 1.377 . S
C429 C435 1.390 . S
C430 H421 0.930 . S
C430 C428 1.384 . S
C430 C431 1.372 . S
C431 C430 1.372 . S
C431 C432 1.400 . S
C431 C436 1.490 . S
C432 H422 0.930 1_545 S
C432 C431 1.400 . S
C432 C435 1.386 . S
H433 C449 0.930 1_565 S
H434 C450 0.952 . S
C435 H423 0.929 1_545 S
C435 C429 1.390 . S
C435 C432 1.386 . S
C436 C431 1.490 . S
C436 C438 1.395 . S
C436 C439 1.403 . S
H437 C443 0.930 1_565 S
C438 H424 0.930 . S
C438 C436 1.395 . S
C438 C441 1.403 . S
C439 C436 1.403 . S
C439 C440 1.524 1_545 S
C439 C443 1.400 . S
C440 H425 0.960 . S
C440 H426 0.960 . S
C440 H427 0.960 . S
C440 C439 1.524 1_565 S
C441 C438 1.403 . S
C441 C442 1.392 . S
C441 C445 1.495 . S
C442 C441 1.392 . S
C442 C443 1.385 . S
C442 C444 1.478 . S
C443 H437 0.930 1_545 S
C443 C439 1.400 . S
C443 C442 1.385 . S
C444 C442 1.478 . S
C444 C446 1.381 . S
C444 C450 1.383 . S
C445 C441 1.495 . S
C445 H451 0.959 . S
C445 H452 0.961 . S
C445 H453 0.960 . S
C446 C444 1.381 . S
C446 C447 1.394 . S
C446 H454 0.930 . S
C447 C446 1.394 . S
C447 C448 1.383 . S
C447 H455 0.929 . S
C448 C447 1.383 . S
C448 C449 1.377 . S
C449 H433 0.930 1_545 S
C449 C448 1.377 . S
C449 C450 1.379 . S
C450 H434 0.952 . S
C450 C444 1.383 . S
C450 C449 1.379 . S
H451 C445 0.959 . S
H452 C445 0.961 . S
H453 C445 0.960 . S
H454 C446 0.930 . S
H455 C447 0.929 . S
H456 C464 0.929 . S
H457 C466 0.930 . S
H458 C468 0.930 . S
H459 C471 0.929 . S
H460 C474 0.930 . S
H461 C476 0.960 . S
H462 C476 0.960 . S
H463 C476 0.960 . S
C464 H456 0.929 . S
C464 C465 1.377 . S
C464 C466 1.384 . S
C465 C464 1.377 . S
C465 C471 1.390 . S
C466 H457 0.930 . S
C466 C464 1.384 . S
C466 C467 1.372 . S
C467 C466 1.372 . S
C467 C468 1.400 . S
C467 C472 1.490 . S
C468 H458 0.930 . S
C468 C467 1.400 . S
C468 C471 1.386 . S
H469 C485 0.930 . S
H470 C486 0.931 . S
C471 H459 0.929 . S
C471 C465 1.390 . S
C471 C468 1.386 . S
C472 C467 1.490 . S
C472 C474 1.395 1_554 S
C472 C475 1.403 . S
H473 C479 0.930 . S
C474 H460 0.930 . S
C474 C472 1.395 1_556 S
C474 C477 1.403 . S
C475 C472 1.403 . S
C475 C476 1.524 . S
C475 C479 1.400 . S
C476 H461 0.960 . S
C476 H462 0.960 . S
C476 H463 0.960 . S
C476 C475 1.524 . S
C477 C474 1.403 . S
C477 C478 1.392 1_556 S
C477 C481 1.495 . S
C478 C477 1.392 1_554 S
C478 C479 1.385 . S
C478 C480 1.478 . S
C479 H473 0.930 . S
C479 C475 1.400 . S
C479 C478 1.385 . S
C480 C478 1.478 . S
C480 C482 1.381 . S
C480 C486 1.383 1_554 S
C481 C477 1.495 . S
C481 H487 0.959 . S
C481 H488 0.961 . S
C481 H489 0.960 . S
C482 C480 1.381 . S
C482 C483 1.394 . S
C482 H490 0.930 . S
C483 C482 1.394 . S
C483 C484 1.383 . S
C483 H491 0.929 . S
C484 C483 1.383 . S
C484 C485 1.377 1_554 S
C485 H469 0.930 . S
C485 C484 1.377 1_556 S
C485 C486 1.379 . S
C486 H470 0.931 . S
C486 C480 1.383 1_556 S
C486 C485 1.379 . S
H487 C481 0.959 . S
H488 C481 0.961 . S
H489 C481 0.960 . S
H490 C482 0.930 . S
H491 C483 0.929 . S
H492 C500 0.929 . S
H493 C502 0.930 . S
H494 C504 0.930 . S
H495 C507 0.929 . S
H496 C510 0.930 . S
H497 C512 0.960 . S
H498 C512 0.960 . S
H499 C512 0.960 . S
C500 H492 0.929 . S
C500 C501 1.377 1_556 S
C500 C502 1.384 . S
C501 C500 1.377 1_554 S
C501 C507 1.390 . S
C502 H493 0.930 . S
C502 C500 1.384 . S
C502 C503 1.372 1_556 S
C503 C502 1.372 1_554 S
C503 C504 1.400 . S
C503 C508 1.490 . S
C504 H494 0.930 . S
C504 C503 1.400 . S
C504 C507 1.386 . S
H505 C521 0.930 . S
H506 C522 0.931 . S
C507 H495 0.929 . S
C507 C501 1.390 . S
C507 C504 1.386 . S
C508 C503 1.490 . S
C508 C510 1.395 1_554 S
C508 C511 1.403 . S
H509 C515 0.930 . S
C510 H496 0.930 . S
C510 C508 1.395 1_556 S
C510 C513 1.403 . S
C511 C508 1.403 . S
C511 C512 1.524 . S
C511 C515 1.400 . S
C512 H497 0.960 . S
C512 H498 0.960 . S
C512 H499 0.960 . S
C512 C511 1.524 . S
C513 C510 1.403 . S
C513 C514 1.392 1_556 S
C513 C517 1.495 . S
C514 C513 1.392 1_554 S
C514 C515 1.385 . S
C514 C516 1.478 . S
C515 H509 0.930 . S
C515 C511 1.400 . S
C515 C514 1.385 . S
C516 C514 1.478 . S
C516 C518 1.381 . S
C516 C522 1.383 . S
C517 C513 1.495 . S
C517 H523 0.959 . S
C517 H524 0.961 . S
C517 H525 0.960 . S
C518 C516 1.381 . S
C518 C519 1.394 . S
C518 H526 0.930 1_554 S
C519 C518 1.394 . S
C519 C520 1.383 . S
C519 H527 0.929 . S
C520 C519 1.383 . S
C520 C521 1.377 . S
C521 H505 0.930 . S
C521 C520 1.377 . S
C521 C522 1.379 . S
C522 H506 0.931 . S
C522 C516 1.383 . S
C522 C521 1.379 . S
H523 C517 0.959 . S
H524 C517 0.961 . S
H525 C517 0.960 . S
H526 C518 0.930 1_556 S
H527 C519 0.929 . S
H528 C536 0.929 . S
H529 C538 0.930 . S
H530 C540 0.930 1_556 S
H531 C543 0.929 1_556 S
H532 C546 0.930 . S
H533 C548 0.960 . S
H534 C548 0.960 . S
H535 C548 0.960 1_556 S
C536 H528 0.929 . S
C536 C537 1.377 . S
C536 C538 1.384 . S
C537 C536 1.377 . S
C537 C543 1.390 . S
C538 H529 0.930 . S
C538 C536 1.384 . S
C538 C539 1.372 . S
C539 C538 1.372 . S
C539 C540 1.400 . S
C539 C544 1.490 . S
C540 H530 0.930 1_554 S
C540 C539 1.400 . S
C540 C543 1.386 . S
H541 C557 0.930 1_556 S
H542 C558 0.931 1_556 S
C543 H531 0.929 1_554 S
C543 C537 1.390 . S
C543 C540 1.386 . S
C544 C539 1.490 . S
C544 C546 1.395 . S
C544 C547 1.403 . S
H545 C551 0.930 . S
C546 H532 0.930 . S
C546 C544 1.395 . S
C546 C549 1.403 . S
C547 C544 1.403 . S
C547 C548 1.524 . S
C547 C551 1.400 . S
C548 H533 0.960 . S
C548 H534 0.960 . S
C548 H535 0.960 1_554 S
C548 C547 1.524 . S
C549 C546 1.403 . S
C549 C550 1.392 . S
C549 C553 1.495 . S
C550 C549 1.392 . S
C550 C551 1.385 . S
C550 C552 1.478 . S
C551 H545 0.930 . S
C551 C547 1.400 . S
C551 C550 1.385 . S
C552 C550 1.478 . S
C552 C554 1.381 . S
C552 C558 1.383 . S
C553 C549 1.495 . S
C553 H559 0.959 . S
C553 H560 0.961 . S
C553 H561 0.960 . S
C554 C552 1.381 . S
C554 C555 1.394 . S
C554 H562 0.930 . S
C555 C554 1.394 . S
C555 C556 1.383 . S
C555 H563 0.929 . S
C556 C555 1.383 . S
C556 C557 1.377 . S
C557 H541 0.930 1_554 S
C557 C556 1.377 . S
C557 C558 1.379 . S
C558 H542 0.931 1_554 S
C558 C552 1.383 . S
C558 C557 1.379 . S
H559 C553 0.959 . S
H560 C553 0.961 . S
H561 C553 0.960 . S
H562 C554 0.930 . S
H563 C555 0.929 . S
H564 C572 0.929 . S
H565 C574 0.930 . S
H566 C576 0.930 . S
H567 C579 0.929 . S
H568 C582 0.930 . S
H569 C584 0.960 . S
H570 C584 0.960 . S
H571 C584 0.960 . S
C572 H564 0.929 . S
C572 C573 1.377 . S
C572 C574 1.384 . S
C573 C572 1.377 . S
C573 C579 1.390 . S
C574 H565 0.930 . S
C574 C572 1.384 . S
C574 C575 1.372 . S
C575 C574 1.372 . S
C575 C576 1.400 . S
C575 C580 1.490 . S
C576 H566 0.930 . S
C576 C575 1.400 . S
C576 C579 1.386 . S
H577 C593 0.930 . S
H578 C594 0.931 . S
C579 H567 0.929 . S
C579 C573 1.390 . S
C579 C576 1.386 . S
C580 C575 1.490 . S
C580 C582 1.395 . S
C580 C583 1.403 . S
H581 C587 0.930 . S
C582 H568 0.930 . S
C582 C580 1.395 . S
C582 C585 1.403 . S
C583 C580 1.403 . S
C583 C584 1.524 1_554 S
C583 C587 1.400 . S
C584 H569 0.960 . S
C584 H570 0.960 . S
C584 H571 0.960 . S
C584 C583 1.524 1_556 S
C585 C582 1.403 . S
C585 C586 1.392 . S
C585 C589 1.495 . S
C586 C585 1.392 . S
C586 C587 1.385 . S
C586 C588 1.478 . S
C587 H581 0.930 . S
C587 C583 1.400 . S
C587 C586 1.385 . S
C588 C586 1.478 . S
C588 C590 1.381 . S
C588 C594 1.383 . S
C589 C585 1.495 . S
C589 H595 0.959 . S
C589 H596 0.961 . S
C589 H597 0.960 . S
C590 C588 1.381 . S
C590 C591 1.394 . S
C590 H598 0.930 . S
C591 C590 1.394 . S
C591 C592 1.383 . S
C591 H599 0.929 . S
C592 C591 1.383 . S
C592 C593 1.377 . S
C593 H577 0.930 . S
C593 C592 1.377 . S
C593 C594 1.379 . S
C594 H578 0.931 . S
C594 C588 1.383 . S
C594 C593 1.379 . S
H595 C589 0.959 . S
H596 C589 0.961 . S
H597 C589 0.960 . S
H598 C590 0.930 . S
H599 C591 0.929 . S
H600 C608 0.929 . S
H601 C610 0.930 . S
H602 C612 0.930 . S
H603 C615 0.929 . S
H604 C618 0.930 . S
H605 C620 0.960 . S
H606 C620 0.960 . S
H607 C620 0.960 . S
C608 H600 0.929 . S
C608 C609 1.377 . S
C608 C610 1.384 . S
C609 C608 1.377 . S
C609 C615 1.390 . S
C610 H601 0.930 . S
C610 C608 1.384 . S
C610 C611 1.372 . S
C611 C610 1.372 . S
C611 C612 1.400 . S
C611 C616 1.490 . S
C612 H602 0.930 . S
C612 C611 1.400 . S
C612 C615 1.386 . S
H613 C629 0.930 . S
H614 C630 0.931 . S
C615 H603 0.929 . S
C615 C609 1.390 . S
C615 C612 1.386 . S
C616 C611 1.490 . S
C616 C618 1.395 . S
C616 C619 1.403 . S
H617 C623 0.930 . S
C618 H604 0.930 . S
C618 C616 1.395 . S
C618 C621 1.403 . S
C619 C616 1.403 . S
C619 C620 1.524 . S
C619 C623 1.400 . S
C620 H605 0.960 . S
C620 H606 0.960 . S
C620 H607 0.960 . S
C620 C619 1.524 . S
C621 C618 1.403 . S
C621 C622 1.392 . S
C621 C625 1.495 . S
C622 C621 1.392 . S
C622 C623 1.385 . S
C622 C624 1.478 . S
C623 H617 0.930 . S
C623 C619 1.400 . S
C623 C622 1.385 . S
C624 C622 1.478 . S
C624 C626 1.381 . S
C624 C630 1.383 . S
C625 C621 1.495 . S
C625 H631 0.959 . S
C625 H632 0.961 . S
C625 H633 0.960 . S
C626 C624 1.381 . S
C626 C627 1.394 . S
C626 H634 0.930 . S
C627 C626 1.394 . S
C627 C628 1.383 . S
C627 H635 0.929 . S
C628 C627 1.383 . S
C628 C629 1.377 . S
C629 H613 0.930 . S
C629 C628 1.377 . S
C629 C630 1.379 . S
C630 H614 0.931 . S
C630 C624 1.383 . S
C630 C629 1.379 . S
H631 C625 0.959 . S
H632 C625 0.961 . S
H633 C625 0.960 . S
H634 C626 0.930 . S
H635 C627 0.929 . S
H636 C644 0.929 . S
H637 C646 0.930 . S
H638 C648 0.930 . S
H639 C651 0.929 . S
H640 C654 0.930 . S
H641 C656 0.960 . S
H642 C656 0.960 . S
H643 C656 0.960 . S
C644 H636 0.929 . S
C644 C645 1.377 . S
C644 C646 1.384 . S
C645 C644 1.377 . S
C645 C651 1.390 . S
C646 H637 0.930 . S
C646 C644 1.384 . S
C646 C647 1.372 . S
C647 C646 1.372 . S
C647 C648 1.400 . S
C647 C652 1.490 . S
C648 H638 0.930 . S
C648 C647 1.400 . S
C648 C651 1.386 . S
H649 C665 0.930 . S
H650 C666 0.931 . S
C651 H639 0.929 . S
C651 C645 1.390 . S
C651 C648 1.386 . S
C652 C647 1.490 . S
C652 C654 1.395 . S
C652 C655 1.403 . S
H653 C659 0.930 . S
C654 H640 0.930 . S
C654 C652 1.395 . S
C654 C657 1.403 . S
C655 C652 1.403 . S
C655 C656 1.524 . S
C655 C659 1.400 . S
C656 H641 0.960 . S
C656 H642 0.960 . S
C656 H643 0.960 . S
C656 C655 1.524 . S
C657 C654 1.403 . S
C657 C658 1.392 . S
C657 C661 1.495 . S
C658 C657 1.392 . S
C658 C659 1.385 . S
C658 C660 1.478 . S
C659 H653 0.930 . S
C659 C655 1.400 . S
C659 C658 1.385 . S
C660 C658 1.478 . S
C660 C662 1.381 . S
C660 C666 1.383 . S
C661 C657 1.495 . S
C661 H667 0.959 . S
C661 H668 0.961 . S
C661 H669 0.960 . S
C662 C660 1.381 . S
C662 C663 1.394 . S
C662 H670 0.930 . S
C663 C662 1.394 . S
C663 C664 1.383 . S
C663 H671 0.929 . S
C664 C663 1.383 . S
C664 C665 1.377 . S
C665 H649 0.930 . S
C665 C664 1.377 . S
C665 C666 1.379 . S
C666 H650 0.931 . S
C666 C660 1.383 . S
C666 C665 1.379 . S
H667 C661 0.959 . S
H668 C661 0.961 . S
H669 C661 0.960 . S
H670 C662 0.930 . S
H671 C663 0.929 . S
H672 C680 0.929 . S
H673 C682 0.930 . S
H674 C684 0.930 . S
H675 C687 0.929 . S
H676 C690 0.930 . S
H677 C692 0.960 . S
H678 C692 0.960 . S
H679 C692 0.960 . S
C680 H672 0.929 . S
C680 C681 1.377 . S
C680 C682 1.384 . S
C681 C680 1.377 . S
C681 C687 1.390 . S
C682 H673 0.930 . S
C682 C680 1.384 . S
C682 C683 1.372 . S
C683 C682 1.372 . S
C683 C684 1.400 . S
C683 C688 1.490 . S
C684 H674 0.930 . S
C684 C683 1.400 . S
C684 C687 1.386 . S
H685 C701 0.930 . S
H686 C702 0.931 . S
C687 H675 0.929 . S
C687 C681 1.390 . S
C687 C684 1.386 . S
C688 C683 1.490 . S
C688 C690 1.395 . S
C688 C691 1.403 . S
H689 C695 0.930 . S
C690 H676 0.930 . S
C690 C688 1.395 . S
C690 C693 1.403 . S
C691 C688 1.403 . S
C691 C692 1.524 . S
C691 C695 1.400 . S
C692 H677 0.960 . S
C692 H678 0.960 . S
C692 H679 0.960 . S
C692 C691 1.524 . S
C693 C690 1.403 . S
C693 C694 1.392 . S
C693 C697 1.495 . S
C694 C693 1.392 . S
C694 C695 1.385 . S
C694 C696 1.478 . S
C695 H689 0.930 . S
C695 C691 1.400 . S
C695 C694 1.385 . S
C696 C694 1.478 . S
C696 C698 1.381 . S
C696 C702 1.383 . S
C697 C693 1.495 . S
C697 H703 0.959 . S
C697 H704 0.961 . S
C697 H705 0.960 . S
C698 C696 1.381 . S
C698 C699 1.394 . S
C698 H706 0.930 . S
C699 C698 1.394 . S
C699 C700 1.383 . S
C699 H707 0.929 . S
C700 C699 1.383 . S
C700 C701 1.377 . S
C701 H685 0.930 . S
C701 C700 1.377 . S
C701 C702 1.379 . S
C702 H686 0.931 . S
C702 C696 1.383 . S
C702 C701 1.379 . S
H703 C697 0.959 . S
H704 C697 0.961 . S
H705 C697 0.960 . S
H706 C698 0.930 . S
H707 C699 0.929 . S
H708 C716 0.929 . S
H709 C718 0.930 . S
H710 C720 0.930 . S
H711 C723 0.929 . S
H712 C726 0.930 . S
H713 C728 0.960 . S
H714 C728 0.960 . S
H715 C728 0.960 . S
C716 H708 0.929 . S
C716 C717 1.377 . S
C716 C718 1.384 . S
C717 C716 1.377 . S
C717 C723 1.390 . S
C718 H709 0.930 . S
C718 C716 1.384 . S
C718 C719 1.372 . S
C719 C718 1.372 . S
C719 C720 1.400 . S
C719 C724 1.490 . S
C720 H710 0.930 . S
C720 C719 1.400 . S
C720 C723 1.386 . S
H721 C737 0.930 . S
H722 C738 0.931 . S
C723 H711 0.929 . S
C723 C717 1.390 . S
C723 C720 1.386 . S
C724 C719 1.490 . S
C724 C726 1.395 . S
C724 C727 1.403 . S
H725 C731 0.930 . S
C726 H712 0.930 . S
C726 C724 1.395 . S
C726 C729 1.403 . S
C727 C724 1.403 . S
C727 C728 1.524 . S
C727 C731 1.400 . S
C728 H713 0.960 . S
C728 H714 0.960 . S
C728 H715 0.960 . S
C728 C727 1.524 . S
C729 C726 1.403 . S
C729 C730 1.392 . S
C729 C733 1.495 . S
C730 C729 1.392 . S
C730 C731 1.385 . S
C730 C732 1.478 . S
C731 H725 0.930 . S
C731 C727 1.400 . S
C731 C730 1.385 . S
C732 C730 1.478 . S
C732 C734 1.381 . S
C732 C738 1.383 . S
C733 C729 1.495 . S
C733 H739 0.959 . S
C733 H740 0.961 . S
C733 H741 0.960 . S
C734 C732 1.381 . S
C734 C735 1.394 . S
C734 H742 0.930 . S
C735 C734 1.394 . S
C735 C736 1.383 . S
C735 H743 0.929 . S
C736 C735 1.383 . S
C736 C737 1.377 . S
C737 H721 0.930 . S
C737 C736 1.377 . S
C737 C738 1.379 . S
C738 H722 0.931 . S
C738 C732 1.383 . S
C738 C737 1.379 . S
H739 C733 0.959 . S
H740 C733 0.961 . S
H741 C733 0.960 . S
H742 C734 0.930 . S
H743 C735 0.929 . S
H744 C752 0.929 . S
H745 C754 0.930 . S
H746 C756 0.930 . S
H747 C759 0.929 . S
H748 C762 0.930 . S
H749 C764 0.960 . S
H750 C764 0.960 . S
H751 C764 0.960 . S
C752 H744 0.929 . S
C752 C753 1.377 . S
C752 C754 1.384 . S
C753 C752 1.377 . S
C753 C759 1.390 . S
C754 H745 0.930 . S
C754 C752 1.384 . S
C754 C755 1.372 . S
C755 C754 1.372 . S
C755 C756 1.400 . S
C755 C760 1.490 . S
C756 H746 0.930 . S
C756 C755 1.400 . S
C756 C759 1.386 . S
H757 C773 0.930 . S
H758 C774 0.931 . S
C759 H747 0.929 . S
C759 C753 1.390 . S
C759 C756 1.386 . S
C760 C755 1.490 . S
C760 C762 1.395 . S
C760 C763 1.403 . S
H761 C767 0.930 . S
C762 H748 0.930 . S
C762 C760 1.395 . S
C762 C765 1.403 . S
C763 C760 1.403 . S
C763 C764 1.524 . S
C763 C767 1.400 . S
C764 H749 0.960 . S
C764 H750 0.960 . S
C764 H751 0.960 . S
C764 C763 1.524 . S
C765 C762 1.403 . S
C765 C766 1.392 . S
C765 C769 1.495 . S
C766 C765 1.392 . S
C766 C767 1.385 . S
C766 C768 1.478 . S
C767 H761 0.930 . S
C767 C763 1.400 . S
C767 C766 1.385 . S
C768 C766 1.478 . S
C768 C770 1.381 . S
C768 C774 1.383 . S
C769 C765 1.495 . S
C769 H775 0.959 . S
C769 H776 0.961 . S
C769 H777 0.960 . S
C770 C768 1.381 . S
C770 C771 1.394 . S
C770 H778 0.930 . S
C771 C770 1.394 . S
C771 C772 1.383 . S
C771 H779 0.929 . S
C772 C771 1.383 . S
C772 C773 1.377 . S
C773 H757 0.930 . S
C773 C772 1.377 . S
C773 C774 1.379 . S
C774 H758 0.931 . S
C774 C768 1.383 . S
C774 C773 1.379 . S
H775 C769 0.959 . S
H776 C769 0.961 . S
H777 C769 0.960 . S
H778 C770 0.930 . S
H779 C771 0.929 . S
H780 C788 0.929 . S
H781 C790 0.930 . S
H782 C792 0.930 . S
H783 C795 0.929 . S
H784 C798 0.930 . S
H785 C800 0.960 . S
H786 C800 0.960 . S
H787 C800 0.960 . S
C788 H780 0.929 . S
C788 C789 1.377 . S
C788 C790 1.384 . S
C789 C788 1.377 . S
C789 C795 1.390 . S
C790 H781 0.930 . S
C790 C788 1.384 . S
C790 C791 1.372 . S
C791 C790 1.372 . S
C791 C792 1.400 . S
C791 C796 1.490 . S
C792 H782 0.930 . S
C792 C791 1.400 . S
C792 C795 1.386 . S
H793 C809 0.930 . S
H794 C810 0.931 . S
C795 H783 0.929 . S
C795 C789 1.390 . S
C795 C792 1.386 . S
C796 C791 1.490 . S
C796 C798 1.395 . S
C796 C799 1.403 . S
H797 C803 0.930 . S
C798 H784 0.930 . S
C798 C796 1.395 . S
C798 C801 1.403 . S
C799 C796 1.403 . S
C799 C800 1.524 . S
C799 C803 1.400 . S
C800 H785 0.960 . S
C800 H786 0.960 . S
C800 H787 0.960 . S
C800 C799 1.524 . S
C801 C798 1.403 . S
C801 C802 1.392 . S
C801 C805 1.495 . S
C802 C801 1.392 . S
C802 C803 1.385 . S
C802 C804 1.478 . S
C803 H797 0.930 . S
C803 C799 1.400 . S
C803 C802 1.385 . S
C804 C802 1.478 . S
C804 C806 1.381 . S
C804 C810 1.383 . S
C805 C801 1.495 . S
C805 H811 0.959 . S
C805 H812 0.961 . S
C805 H813 0.960 . S
C806 C804 1.381 . S
C806 C807 1.394 . S
C806 H814 0.930 . S
C807 C806 1.394 . S
C807 C808 1.383 . S
C807 H815 0.929 . S
C808 C807 1.383 . S
C808 C809 1.377 . S
C809 H793 0.930 . S
C809 C808 1.377 . S
C809 C810 1.379 . S
C810 H794 0.931 . S
C810 C804 1.383 . S
C810 C809 1.379 . S
H811 C805 0.959 . S
H812 C805 0.961 . S
H813 C805 0.960 . S
H814 C806 0.930 . S
H815 C807 0.929 . S
H816 C824 0.929 . S
H817 C826 0.930 . S
H818 C828 0.930 . S
H819 C831 0.929 . S
H820 C834 0.930 . S
H821 C836 0.960 . S
H822 C836 0.960 . S
H823 C836 0.960 . S
C824 H816 0.929 . S
C824 C825 1.377 . S
C824 C826 1.384 . S
C825 C824 1.377 . S
C825 C831 1.390 . S
C826 H817 0.930 . S
C826 C824 1.384 . S
C826 C827 1.372 . S
C827 C826 1.372 . S
C827 C828 1.400 . S
C827 C832 1.490 . S
C828 H818 0.930 . S
C828 C827 1.400 . S
C828 C831 1.386 . S
H829 C845 0.930 . S
H830 C846 0.931 . S
C831 H819 0.929 . S
C831 C825 1.390 . S
C831 C828 1.386 . S
C832 C827 1.490 . S
C832 C834 1.395 . S
C832 C835 1.403 . S
H833 C839 0.930 . S
C834 H820 0.930 . S
C834 C832 1.395 . S
C834 C837 1.403 . S
C835 C832 1.403 . S
C835 C836 1.524 . S
C835 C839 1.400 . S
C836 H821 0.960 . S
C836 H822 0.960 . S
C836 H823 0.960 . S
C836 C835 1.524 . S
C837 C834 1.403 . S
C837 C838 1.392 . S
C837 C841 1.495 . S
C838 C837 1.392 . S
C838 C839 1.385 . S
C838 C840 1.478 . S
C839 H833 0.930 . S
C839 C835 1.400 . S
C839 C838 1.385 . S
C840 C838 1.478 . S
C840 C842 1.381 . S
C840 C846 1.383 . S
C841 C837 1.495 . S
C841 H847 0.959 . S
C841 H848 0.961 . S
C841 H849 0.960 . S
C842 C840 1.381 . S
C842 C843 1.394 . S
C842 H850 0.930 . S
C843 C842 1.394 . S
C843 C844 1.383 . S
C843 H851 0.929 . S
C844 C843 1.383 . S
C844 C845 1.377 . S
C845 H829 0.930 . S
C845 C844 1.377 . S
C845 C846 1.379 . S
C846 H830 0.931 . S
C846 C840 1.383 . S
C846 C845 1.379 . S
H847 C841 0.959 . S
H848 C841 0.961 . S
H849 C841 0.960 . S
H850 C842 0.930 . S
H851 C843 0.929 . S
H852 C860 0.929 . S
H853 C862 0.930 . S
H854 C864 0.930 . S
H855 C867 0.929 . S
H856 C870 0.930 . S
H857 C872 0.960 . S
H858 C872 0.960 . S
H859 C872 0.960 . S
C860 H852 0.929 . S
C860 C861 1.377 . S
C860 C862 1.384 . S
C861 C860 1.377 . S
C861 C867 1.390 . S
C862 H853 0.930 . S
C862 C860 1.384 . S
C862 C863 1.372 . S
C863 C862 1.372 . S
C863 C864 1.400 . S
C863 C868 1.490 . S
C864 H854 0.930 . S
C864 C863 1.400 . S
C864 C867 1.386 . S
H865 C881 0.930 . S
H866 C882 0.931 . S
C867 H855 0.929 . S
C867 C861 1.390 . S
C867 C864 1.386 . S
C868 C863 1.490 . S
C868 C870 1.395 . S
C868 C871 1.403 . S
H869 C875 0.930 . S
C870 H856 0.930 . S
C870 C868 1.395 . S
C870 C873 1.403 . S
C871 C868 1.403 . S
C871 C872 1.524 . S
C871 C875 1.400 . S
C872 H857 0.960 . S
C872 H858 0.960 . S
C872 H859 0.960 . S
C872 C871 1.524 . S
C873 C870 1.403 . S
C873 C874 1.392 . S
C873 C877 1.495 . S
C874 C873 1.392 . S
C874 C875 1.385 . S
C874 C876 1.478 . S
C875 H869 0.930 . S
C875 C871 1.400 . S
C875 C874 1.385 . S
C876 C874 1.478 . S
C876 C878 1.381 . S
C876 C882 1.383 . S
C877 C873 1.495 . S
C877 H883 0.959 . S
C877 H884 0.961 . S
C877 H885 0.960 . S
C878 C876 1.381 . S
C878 C879 1.394 . S
C878 H886 0.930 . S
C879 C878 1.394 . S
C879 C880 1.383 . S
C879 H887 0.929 . S
C880 C879 1.383 . S
C880 C881 1.377 . S
C881 H865 0.930 . S
C881 C880 1.377 . S
C881 C882 1.379 . S
C882 H866 0.931 . S
C882 C876 1.383 . S
C882 C881 1.379 . S
H883 C877 0.959 . S
H884 C877 0.961 . S
H885 C877 0.960 . S
H886 C878 0.930 . S
H887 C879 0.929 . S
H888 C896 0.929 . S
H889 C898 0.930 . S
H890 C900 0.930 . S
H891 C903 0.929 . S
H892 C906 0.930 . S
H893 C908 0.960 . S
H894 C908 0.960 . S
H895 C908 0.960 . S
C896 H888 0.929 . S
C896 C897 1.377 . S
C896 C898 1.384 . S
C897 C896 1.377 . S
C897 C903 1.390 . S
C898 H889 0.930 . S
C898 C896 1.384 . S
C898 C899 1.372 . S
C899 C898 1.372 . S
C899 C900 1.400 . S
C899 C904 1.490 . S
C900 H890 0.930 . S
C900 C899 1.400 . S
C900 C903 1.386 . S
H901 C917 0.930 . S
H902 C918 0.931 . S
C903 H891 0.929 . S
C903 C897 1.390 . S
C903 C900 1.386 . S
C904 C899 1.490 . S
C904 C906 1.395 . S
C904 C907 1.403 . S
H905 C911 0.930 . S
C906 H892 0.930 . S
C906 C904 1.395 . S
C906 C909 1.403 . S
C907 C904 1.403 . S
C907 C908 1.524 . S
C907 C911 1.400 . S
C908 H893 0.960 . S
C908 H894 0.960 . S
C908 H895 0.960 . S
C908 C907 1.524 . S
C909 C906 1.403 . S
C909 C910 1.392 . S
C909 C913 1.495 . S
C910 C909 1.392 . S
C910 C911 1.385 . S
C910 C912 1.478 . S
C911 H905 0.930 . S
C911 C907 1.400 . S
C911 C910 1.385 . S
C912 C910 1.478 . S
C912 C914 1.381 . S
C912 C918 1.383 . S
C913 C909 1.495 . S
C913 H919 0.959 . S
C913 H920 0.961 . S
C913 H921 0.960 . S
C914 C912 1.381 . S
C914 C915 1.394 . S
C914 H922 0.930 . S
C915 C914 1.394 . S
C915 C916 1.383 . S
C915 H923 0.929 . S
C916 C915 1.383 . S
C916 C917 1.377 . S
C917 H901 0.930 . S
C917 C916 1.377 . S
C917 C918 1.379 . S
C918 H902 0.931 . S
C918 C912 1.383 . S
C918 C917 1.379 . S
H919 C913 0.959 . S
H920 C913 0.961 . S
H921 C913 0.960 . S
H922 C914 0.930 . S
H923 C915 0.929 . S
H924 C932 0.929 . S
H925 C934 0.930 . S
H926 C936 0.930 . S
H927 C939 0.929 . S
H928 C942 0.930 . S
H929 C944 0.960 . S
H930 C944 0.960 . S
H931 C944 0.960 . S
C932 H924 0.929 . S
C932 C933 1.377 . S
C932 C934 1.384 . S
C933 C932 1.377 . S
C933 C939 1.390 . S
C934 H925 0.930 . S
C934 C932 1.384 . S
C934 C935 1.372 . S
C935 C934 1.372 . S
C935 C936 1.400 . S
C935 C940 1.490 . S
C936 H926 0.930 . S
C936 C935 1.400 . S
C936 C939 1.386 . S
H937 C953 0.930 . S
H938 C954 0.931 . S
C939 H927 0.929 . S
C939 C933 1.390 . S
C939 C936 1.386 . S
C940 C935 1.490 . S
C940 C942 1.395 . S
C940 C943 1.403 . S
H941 C947 0.930 . S
C942 H928 0.930 . S
C942 C940 1.395 . S
C942 C945 1.403 . S
C943 C940 1.403 . S
C943 C944 1.524 . S
C943 C947 1.400 . S
C944 H929 0.960 . S
C944 H930 0.960 . S
C944 H931 0.960 . S
C944 C943 1.524 . S
C945 C942 1.403 . S
C945 C946 1.392 . S
C945 C949 1.495 . S
C946 C945 1.392 . S
C946 C947 1.385 . S
C946 C948 1.478 . S
C947 H941 0.930 . S
C947 C943 1.400 . S
C947 C946 1.385 . S
C948 C946 1.478 . S
C948 C950 1.381 . S
C948 C954 1.383 . S
C949 C945 1.495 . S
C949 H955 0.959 . S
C949 H956 0.961 . S
C949 H957 0.960 . S
C950 C948 1.381 . S
C950 C951 1.394 . S
C950 H958 0.930 . S
C951 C950 1.394 . S
C951 C952 1.383 . S
C951 H959 0.929 . S
C952 C951 1.383 . S
C952 C953 1.377 . S
C953 H937 0.930 . S
C953 C952 1.377 . S
C953 C954 1.379 . S
C954 H938 0.931 . S
C954 C948 1.383 . S
C954 C953 1.379 . S
H955 C949 0.959 . S
H956 C949 0.961 . S
H957 C949 0.960 . S
H958 C950 0.930 . S
H959 C951 0.929 . S
H960 C968 0.929 . S
H961 C970 0.930 . S
H962 C972 0.930 . S
H963 C975 0.929 . S
H964 C978 0.930 . S
H965 C980 0.960 . S
H966 C980 0.960 . S
H967 C980 0.960 . S
C968 H960 0.929 . S
C968 C969 1.377 . S
C968 C970 1.384 . S
C969 C968 1.377 . S
C969 C975 1.390 . S
C970 H961 0.930 . S
C970 C968 1.384 . S
C970 C971 1.372 . S
C971 C970 1.372 . S
C971 C972 1.400 . S
C971 C976 1.490 . S
C972 H962 0.930 . S
C972 C971 1.400 . S
C972 C975 1.386 . S
H973 C989 0.930 . S
H974 C990 0.931 . S
C975 H963 0.929 . S
C975 C969 1.390 . S
C975 C972 1.386 . S
C976 C971 1.490 . S
C976 C978 1.395 . S
C976 C979 1.403 . S
H977 C983 0.930 . S
C978 H964 0.930 . S
C978 C976 1.395 . S
C978 C981 1.403 . S
C979 C976 1.403 . S
C979 C980 1.524 . S
C979 C983 1.400 . S
C980 H965 0.960 . S
C980 H966 0.960 . S
C980 H967 0.960 . S
C980 C979 1.524 . S
C981 C978 1.403 . S
C981 C982 1.392 . S
C981 C985 1.495 . S
C982 C981 1.392 . S
C982 C983 1.385 . S
C982 C984 1.478 . S
C983 H977 0.930 . S
C983 C979 1.400 . S
C983 C982 1.385 . S
C984 C982 1.478 . S
C984 C986 1.381 . S
C984 C990 1.383 . S
C985 C981 1.495 . S
C985 H991 0.959 . S
C985 H992 0.961 . S
C985 H993 0.960 . S
C986 C984 1.381 . S
C986 C987 1.394 . S
C986 H994 0.930 . S
C987 C986 1.394 . S
C987 C988 1.383 . S
C987 H995 0.929 . S
C988 C987 1.383 . S
C988 C989 1.377 . S
C989 H973 0.930 . S
C989 C988 1.377 . S
C989 C990 1.379 . S
C990 H974 0.931 . S
C990 C984 1.383 . S
C990 C989 1.379 . S
H991 C985 0.959 . S
H992 C985 0.961 . S
H993 C985 0.960 . S
H994 C986 0.930 . S
H995 C987 0.929 . S
H996 C1004 0.929 . S
H997 C1006 0.930 . S
H998 C1008 0.930 . S
H999 C1011 0.929 . S
H1000 C1014 0.930 . S
H1001 C1016 0.960 . S
H1002 C1016 0.960 . S
H1003 C1016 0.960 . S
C1004 H996 0.929 . S
C1004 C1005 1.377 . S
C1004 C1006 1.384 . S
C1005 C1004 1.377 . S
C1005 C1011 1.390 . S
C1006 H997 0.930 . S
C1006 C1004 1.384 . S
C1006 C1007 1.372 . S
C1007 C1006 1.372 . S
C1007 C1008 1.400 . S
C1007 C1012 1.490 . S
C1008 H998 0.930 . S
C1008 C1007 1.400 . S
C1008 C1011 1.386 . S
H1009 C1025 0.930 . S
H1010 C1026 0.931 . S
C1011 H999 0.929 . S
C1011 C1005 1.390 . S
C1011 C1008 1.386 . S
C1012 C1007 1.490 . S
C1012 C1014 1.395 . S
C1012 C1015 1.403 . S
H1013 C1019 0.930 . S
C1014 H1000 0.930 . S
C1014 C1012 1.395 . S
C1014 C1017 1.403 . S
C1015 C1012 1.403 . S
C1015 C1016 1.524 . S
C1015 C1019 1.400 . S
C1016 H1001 0.960 . S
C1016 H1002 0.960 . S
C1016 H1003 0.960 . S
C1016 C1015 1.524 . S
C1017 C1014 1.403 . S
C1017 C1018 1.392 . S
C1017 C1021 1.495 . S
C1018 C1017 1.392 . S
C1018 C1019 1.385 . S
C1018 C1020 1.478 . S
C1019 H1013 0.930 . S
C1019 C1015 1.400 . S
C1019 C1018 1.385 . S
C1020 C1018 1.478 . S
C1020 C1022 1.381 . S
C1020 C1026 1.383 . S
C1021 C1017 1.495 . S
C1021 H1027 0.959 . S
C1021 H1028 0.961 . S
C1021 H1029 0.960 . S
C1022 C1020 1.381 . S
C1022 C1023 1.394 . S
C1022 H1030 0.930 . S
C1023 C1022 1.394 . S
C1023 C1024 1.383 . S
C1023 H1031 0.929 . S
C1024 C1023 1.383 . S
C1024 C1025 1.377 . S
C1025 H1009 0.930 . S
C1025 C1024 1.377 . S
C1025 C1026 1.379 . S
C1026 H1010 0.931 . S
C1026 C1020 1.383 . S
C1026 C1025 1.379 . S
H1027 C1021 0.959 . S
H1028 C1021 0.961 . S
H1029 C1021 0.960 . S
H1030 C1022 0.930 . S
H1031 C1023 0.929 . S
C177 C11 1.221 . S
C196 C82 1.250 . S
C213 C26 1.240 . S
C232 C60 1.247 . S
C249 C81 1.131 . S
C268 C39 1.145 . S
C285 C54 1.352 . S
C304 C61 1.243 . S
C321 C109 1.259 . S
C340 C40 1.273 . S
C357 C88 1.134 . S
C376 C53 1.134 . S
C393 C12 1.325 . S
C412 C110 1.327 . S
C429 C89 1.111 . S
C448 C25 1.207 . S
C465 C131 1.151 . S
C484 C117 1.181 . S
C501 C116 1.131 . S
C520 C158 1.124 . S
C537 C130 1.086 . S
C556 C144 1.065 . S
C573 C145 1.189 . S
C592 C159 1.209 . S
C609 C165 1.216 . S
C628 C96 1.244 . S
C645 C124 1.240 . S
C664 C102 1.210 . S
C681 C95 1.125 . S
C700 C137 1.110 . S
C717 C103 1.192 . S
C736 C152 1.357 . S
C753 C67 1.259 . S
C772 C138 1.274 . S
C789 C74 1.133 . S
C808 C151 1.141 . S
C825 C166 1.325 . S
C844 C68 1.328 . S
C861 C123 1.217 . S
C880 C75 1.152 . S
C897 C19 1.151 . S
C916 C33 1.091 . S
C933 C4 1.127 . S
C952 C18 1.113 . S
C969 C32 1.084 . S
C988 C46 1.062 . S
C1005 C5 1.180 . S
C1024 C47 1.237 . S
